0:0
     RDKit          3D

 45 47  0  0  0  0  0  0  0  0999 V2000
   -6.3110   25.4710  -29.7410 O   0  0  0  0  0  0  0  0  0  0  0  0
   -5.4380   25.1240  -30.5810 C   0  0  0  0  0  0  0  0  0  0  0  0
   -5.8740   24.5360  -31.8960 C   0  0  0  0  0  0  0  0  0  0  0  0
   -6.7420   23.3270  -31.6750 C   0  0  0  0  0  0  0  0  0  0  0  0
   -6.1640   22.0700  -31.4320 C   0  0  0  0  0  0  0  0  0  0  0  0
   -6.9760   20.9440  -31.2550 C   0  0  0  0  0  0  0  0  0  0  0  0
   -8.3670   21.0650  -31.3280 C   0  0  0  0  0  0  0  0  0  0  0  0
   -8.9480   22.3110  -31.5810 C   0  0  0  0  0  0  0  0  0  0  0  0
   -8.1400   23.4380  -31.7590 C   0  0  0  0  0  0  0  0  0  0  0  0
   -4.0540   25.2520  -30.2300 N   0  0  0  0  0  0  0  0  0  0  0  0
   -3.1090   24.1810  -30.0940 C   0  0  0  0  0  0  0  0  0  0  0  0
   -1.9570   24.3880  -29.3270 C   0  0  0  0  0  0  0  0  0  0  0  0
   -1.0010   23.3770  -29.2050 C   0  0  0  0  0  0  0  0  0  0  0  0
   -1.1840   22.1550  -29.8570 C   0  0  0  0  0  0  0  0  0  0  0  0
   -2.3300   21.9330  -30.6400 C   0  0  0  0  0  0  0  0  0  0  0  0
   -2.5220   20.7000  -31.3550 N   0  0  0  0  0  0  0  0  0  0  0  0
   -3.0030   20.6290  -32.7080 C   0  0  0  0  0  0  0  0  0  0  0  0
   -2.8880   21.6330  -33.4640 O   0  0  0  0  0  0  0  0  0  0  0  0
   -3.5840   19.3740  -33.2440 C   0  0  0  0  0  0  0  0  0  0  0  0
   -2.8460   18.5800  -34.1380 C   0  0  0  0  0  0  0  0  0  0  0  0
   -3.3820   17.3920  -34.6380 C   0  0  0  0  0  0  0  0  0  0  0  0
   -4.6660   16.9890  -34.2670 C   0  0  0  0  0  0  0  0  0  0  0  0
   -5.4390   17.7850  -33.4060 C   0  0  0  0  0  0  0  0  0  0  0  0
   -6.8120   17.3340  -32.9740 C   0  0  0  0  0  0  0  0  0  0  0  0
   -7.7470   18.3260  -33.2150 F   0  0  0  0  0  0  0  0  0  0  0  0
   -7.1990   16.2000  -33.6660 F   0  0  0  0  0  0  0  0  0  0  0  0
   -6.7930   17.0510  -31.6210 F   0  0  0  0  0  0  0  0  0  0  0  0
   -4.8830   18.9660  -32.8830 C   0  0  0  0  0  0  0  0  0  0  0  0
   -3.2760   22.9630  -30.7750 C   0  0  0  0  0  0  0  0  0  0  0  0
   -6.4426   25.2911  -32.4586 H   0  0  0  0  0  0  0  0  0  0  0  0
   -4.9808   24.2321  -32.4616 H   0  0  0  0  0  0  0  0  0  0  0  0
   -5.0697   21.9704  -31.3807 H   0  0  0  0  0  0  0  0  0  0  0  0
   -6.5194   19.9628  -31.0582 H   0  0  0  0  0  0  0  0  0  0  0  0
   -9.0042   20.1796  -31.1863 H   0  0  0  0  0  0  0  0  0  0  0  0
  -10.0424   22.4049  -31.6401 H   0  0  0  0  0  0  0  0  0  0  0  0
   -8.6006   24.4153  -31.9656 H   0  0  0  0  0  0  0  0  0  0  0  0
   -1.8037   25.3510  -28.8180 H   0  0  0  0  0  0  0  0  0  0  0  0
   -0.1016   23.5434  -28.5939 H   0  0  0  0  0  0  0  0  0  0  0  0
   -0.4275   21.3627  -29.7571 H   0  0  0  0  0  0  0  0  0  0  0  0
   -2.1850   19.8180  -30.9070 H   0  0  0  0  0  0  0  0  0  0  0  0
   -1.8387   18.8968  -34.4461 H   0  0  0  0  0  0  0  0  0  0  0  0
   -2.7904   16.7711  -35.3269 H   0  0  0  0  0  0  0  0  0  0  0  0
   -5.0746   16.0427  -34.6512 H   0  0  0  0  0  0  0  0  0  0  0  0
   -5.4699   19.5790  -32.1831 H   0  0  0  0  0  0  0  0  0  0  0  0
   -4.1551   22.8148  -31.4194 H   0  0  0  0  0  0  0  0  0  0  0  0
  1  2  2  0
  2  3  1  0
  3  4  1  0
  4  5  2  0
  5  6  1  0
  6  7  2  0
  7  8  1  0
  8  9  2  0
  2 10  1  0
 10 11  1  0
 11 12  2  0
 12 13  1  0
 13 14  2  0
 14 15  1  0
 15 16  1  0
 16 17  1  0
 17 18  2  0
 17 19  1  0
 19 20  2  0
 20 21  1  0
 21 22  2  0
 22 23  1  0
 23 24  1  0
 24 25  1  0
 24 26  1  0
 24 27  1  0
 23 28  2  0
 15 29  2  0
  9  4  1  0
 29 11  1  0
 28 19  1  0
  3 30  1  0
  3 31  1  0
  5 32  1  0
  6 33  1  0
  7 34  1  0
  8 35  1  0
  9 36  1  0
 12 37  1  0
 13 38  1  0
 14 39  1  0
 16 40  1  0
 20 41  1  0
 21 42  1  0
 22 43  1  0
 28 44  1  0
 29 45  1  0
M  CHG  1  10  -1
M  END
>  <UniqueID>  (1) 
1

>  <SMILES>  (1) 
O=C(Cc1ccccc1)[N-]c1cccc(NC(=O)c2cccc(C(F)(F)F)c2)c1

>  <Energy>  (1) 
57.61872676335349

>  <Genealogy>  (1) 
O=C(Cc1ccccc1)[N-]c1cccc(NC(=O)c2cccc(C(F)(F)F)c2)c1 (protonated)
O=C(Cc1ccccc1)[N-]c1cccc(NC(=O)c2cccc(C(F)(F)F)c2)c1 (3D coordinates assigned)
O=C(Cc1ccccc1)[N-]c1cccc(NC(=O)c2cccc(C(F)(F)F)c2)c1 (optimized conformer: 57.61872676335349 kcal/mol)

>  <smiles>  (1) 
O=C(Cc1ccccc1)Nc1cccc(NC(=O)c2cccc(C(F)(F)F)c2)c1

>  <score_type>  (1) 
oracle

>  <origin>  (1) 
adgpu

>  <m_score__min__energy>  (1) 
-10.74

>  <m_primary>  (1) 
energy

$$$$
1:0
     RDKit          3D

 59 62  0  0  0  0  0  0  0  0999 V2000
   -2.0190   25.3790  -28.0620 O   0  0  0  0  0  0  0  0  0  0  0  0
   -2.3320   24.5150  -28.9250 C   0  0  0  0  0  0  0  0  0  0  0  0
   -3.1180   24.9260  -30.0540 N   0  0  0  0  0  0  0  0  0  0  0  0
   -4.3390   24.2990  -30.4700 C   0  0  0  0  0  0  0  0  0  0  0  0
   -4.2830   23.0990  -31.1860 C   0  0  0  0  0  0  0  0  0  0  0  0
   -5.4540   22.3790  -31.4450 C   0  0  0  0  0  0  0  0  0  0  0  0
   -6.6940   22.8710  -31.0110 C   0  0  0  0  0  0  0  0  0  0  0  0
   -8.1440   21.8740  -31.1370 S   0  0  0  0  0  0  0  0  0  0  0  0
   -8.8700   21.8800  -29.8200 O   0  0  0  0  0  0  0  0  0  0  0  0
   -9.0640   22.4500  -32.1800 O   0  0  0  0  0  0  0  0  0  0  0  0
   -7.7330   20.2300  -31.5700 N   0  0  0  0  0  0  0  0  0  0  0  0
   -7.3500   20.1580  -32.9920 C   0  0  0  0  0  0  0  0  0  0  0  0
   -6.7520   18.7750  -33.3150 C   0  0  0  0  0  0  0  0  0  0  0  0
   -7.2720   17.6740  -32.3730 C   0  0  0  0  0  0  0  0  0  0  0  0
   -8.7200   17.9440  -31.9550 C   0  0  0  0  0  0  0  0  0  0  0  0
   -8.8700   19.3260  -31.2790 C   0  0  0  0  0  0  0  0  0  0  0  0
   -6.7590   24.1220  -30.3830 C   0  0  0  0  0  0  0  0  0  0  0  0
   -5.5890   24.8350  -30.1160 C   0  0  0  0  0  0  0  0  0  0  0  0
   -1.8500   23.1190  -28.7620 C   0  0  0  0  0  0  0  0  0  0  0  0
   -0.5900   22.7440  -29.2580 C   0  0  0  0  0  0  0  0  0  0  0  0
   -0.1130   21.4430  -29.0730 C   0  0  0  0  0  0  0  0  0  0  0  0
   -0.8910   20.4930  -28.3990 C   0  0  0  0  0  0  0  0  0  0  0  0
   -0.2560   18.8750  -28.0980 S   0  0  0  0  0  0  0  0  0  0  0  0
    1.1030   19.0060  -27.4680 O   0  0  0  0  0  0  0  0  0  0  0  0
   -1.1480   18.1810  -27.1060 O   0  0  0  0  0  0  0  0  0  0  0  0
   -0.1140   17.8970  -29.5440 N   0  0  0  0  0  0  0  0  0  0  0  0
    1.0960   17.0500  -29.5620 C   0  0  0  0  0  0  0  0  0  0  0  0
    2.2960   17.7410  -30.2300 C   0  0  0  0  0  0  0  0  0  0  0  0
    1.9490   18.2370  -31.5050 O   0  0  0  0  0  0  0  0  0  0  0  0
    0.9680   19.2420  -31.3590 C   0  0  0  0  0  0  0  0  0  0  0  0
   -0.3300   18.6510  -30.7960 C   0  0  0  0  0  0  0  0  0  0  0  0
   -2.1560   20.8560  -27.9160 C   0  0  0  0  0  0  0  0  0  0  0  0
   -2.6420   22.1500  -28.1170 C   0  0  0  0  0  0  0  0  0  0  0  0
   -3.3153   22.7202  -31.5466 H   0  0  0  0  0  0  0  0  0  0  0  0
   -5.4024   21.4250  -31.9901 H   0  0  0  0  0  0  0  0  0  0  0  0
   -8.2403   20.3233  -33.6165 H   0  0  0  0  0  0  0  0  0  0  0  0
   -6.5957   20.9314  -33.1992 H   0  0  0  0  0  0  0  0  0  0  0  0
   -7.0167   18.5088  -34.3490 H   0  0  0  0  0  0  0  0  0  0  0  0
   -5.6622   18.8423  -33.1814 H   0  0  0  0  0  0  0  0  0  0  0  0
   -7.2225   16.7050  -32.8913 H   0  0  0  0  0  0  0  0  0  0  0  0
   -6.6443   17.6622  -31.4698 H   0  0  0  0  0  0  0  0  0  0  0  0
   -9.3610   17.9123  -32.8483 H   0  0  0  0  0  0  0  0  0  0  0  0
   -9.0178   17.1725  -31.2296 H   0  0  0  0  0  0  0  0  0  0  0  0
   -9.7958   19.7967  -31.6415 H   0  0  0  0  0  0  0  0  0  0  0  0
   -8.8959   19.1634  -30.1914 H   0  0  0  0  0  0  0  0  0  0  0  0
   -7.7348   24.5434  -30.0996 H   0  0  0  0  0  0  0  0  0  0  0  0
   -5.6455   25.8189  -29.6273 H   0  0  0  0  0  0  0  0  0  0  0  0
    0.0258   23.4798  -29.7960 H   0  0  0  0  0  0  0  0  0  0  0  0
    0.8786   21.1639  -29.4588 H   0  0  0  0  0  0  0  0  0  0  0  0
    1.3662   16.8007  -28.5252 H   0  0  0  0  0  0  0  0  0  0  0  0
    0.8621   16.1502  -30.1499 H   0  0  0  0  0  0  0  0  0  0  0  0
    2.6278   18.5771  -29.5969 H   0  0  0  0  0  0  0  0  0  0  0  0
    3.1034   17.0034  -30.3489 H   0  0  0  0  0  0  0  0  0  0  0  0
    1.3416   20.0148  -30.6711 H   0  0  0  0  0  0  0  0  0  0  0  0
    0.7594   19.6802  -32.3462 H   0  0  0  0  0  0  0  0  0  0  0  0
   -1.0335   19.4726  -30.5957 H   0  0  0  0  0  0  0  0  0  0  0  0
   -0.7285   17.9492  -31.5434 H   0  0  0  0  0  0  0  0  0  0  0  0
   -2.7685   20.1186  -27.3764 H   0  0  0  0  0  0  0  0  0  0  0  0
   -3.6514   22.4140  -27.7686 H   0  0  0  0  0  0  0  0  0  0  0  0
  1  2  2  0
  2  3  1  0
  3  4  1  0
  4  5  2  0
  5  6  1  0
  6  7  2  0
  7  8  1  0
  8  9  2  0
  8 10  2  0
  8 11  1  0
 11 12  1  0
 12 13  1  0
 13 14  1  0
 14 15  1  0
 15 16  1  0
  7 17  1  0
 17 18  2  0
  2 19  1  0
 19 20  2  0
 20 21  1  0
 21 22  2  0
 22 23  1  0
 23 24  2  0
 23 25  2  0
 23 26  1  0
 26 27  1  0
 27 28  1  0
 28 29  1  0
 29 30  1  0
 30 31  1  0
 22 32  1  0
 32 33  2  0
 18  4  1  0
 33 19  1  0
 16 11  1  0
 31 26  1  0
  5 34  1  0
  6 35  1  0
 12 36  1  0
 12 37  1  0
 13 38  1  0
 13 39  1  0
 14 40  1  0
 14 41  1  0
 15 42  1  0
 15 43  1  0
 16 44  1  0
 16 45  1  0
 17 46  1  0
 18 47  1  0
 20 48  1  0
 21 49  1  0
 27 50  1  0
 27 51  1  0
 28 52  1  0
 28 53  1  0
 30 54  1  0
 30 55  1  0
 31 56  1  0
 31 57  1  0
 32 58  1  0
 33 59  1  0
M  CHG  1   3  -1
M  END
>  <UniqueID>  (2) 
2

>  <SMILES>  (2) 
O=C([N-]c1ccc(S(=O)(=O)N2CCCCC2)cc1)c1ccc(S(=O)(=O)N2CCOCC2)cc1

>  <Energy>  (2) 
75.63034581778321

>  <Genealogy>  (2) 
O=C([N-]c1ccc(S(=O)(=O)N2CCCCC2)cc1)c1ccc(S(=O)(=O)N2CCOCC2)cc1 (protonated)
O=C([N-]c1ccc(S(=O)(=O)N2CCCCC2)cc1)c1ccc(S(=O)(=O)N2CCOCC2)cc1 (3D coordinates assigned)
O=C([N-]c1ccc(S(=O)(=O)N2CCCCC2)cc1)c1ccc(S(=O)(=O)N2CCOCC2)cc1 (nonaromatic ring conformer: 75.63034581778321 kcal/mol)

>  <smiles>  (2) 
O=C(Nc1ccc(S(=O)(=O)N2CCCCC2)cc1)c1ccc(S(=O)(=O)N2CCOCC2)cc1

>  <score_type>  (2) 
oracle

>  <origin>  (2) 
adgpu

>  <m_score__min__energy>  (2) 
-12.59

>  <m_primary>  (2) 
energy

$$$$
2:0
     RDKit          3D

 49 52  0  0  0  0  0  0  0  0999 V2000
   -3.2954   19.7722  -26.1601 H   0  0  0  0  0  0  0  0  0  0  0  0
   -2.3450   19.6910  -26.7080 C   0  0  0  0  0  0  0  0  0  0  0  0
   -1.8180   20.7840  -27.3210 N   0  0  0  0  0  0  0  0  0  0  0  0
   -0.6450   20.7300  -28.0140 C   0  0  0  0  0  0  0  0  0  0  0  0
   -0.1500   21.7850  -28.5990 N   0  0  0  0  0  0  0  0  0  0  0  0
   -0.7050   23.1100  -28.6190 C   0  0  0  0  0  0  0  0  0  0  0  0
   -0.0510   24.1090  -27.9730 N   0  0  0  0  0  0  0  0  0  0  0  0
   -0.5460   25.3760  -27.9730 C   0  0  0  0  0  0  0  0  0  0  0  0
    0.1610   26.4310  -27.2880 N   0  0  0  0  0  0  0  0  0  0  0  0
   -0.4960   27.7310  -27.1010 C   0  0  0  0  0  0  0  0  0  0  0  0
   -1.4483   27.5789  -26.5719 H   0  0  0  0  0  0  0  0  0  0  0  0
   -0.6692   28.1792  -28.0905 H   0  0  0  0  0  0  0  0  0  0  0  0
    0.3840   28.6850  -26.2830 C   0  0  0  0  0  0  0  0  0  0  0  0
   -0.2386   29.5108  -25.9083 H   0  0  0  0  0  0  0  0  0  0  0  0
    1.1840   29.0595  -26.9385 H   0  0  0  0  0  0  0  0  0  0  0  0
    1.0140   28.0000  -25.1330 N   0  0  0  0  0  0  0  0  0  0  0  0
    1.6270   28.7080  -24.6610 H   0  0  0  0  0  0  0  0  0  0  0  0
    0.0090   27.5900  -24.1310 C   0  0  0  0  0  0  0  0  0  0  0  0
    0.4109   27.7540  -23.1203 H   0  0  0  0  0  0  0  0  0  0  0  0
   -0.9054   28.1870  -24.2633 H   0  0  0  0  0  0  0  0  0  0  0  0
   -0.2269   26.5238  -24.2633 H   0  0  0  0  0  0  0  0  0  0  0  0
    1.8770   26.8540  -25.5380 C   0  0  0  0  0  0  0  0  0  0  0  0
    1.7321   26.0410  -24.8113 H   0  0  0  0  0  0  0  0  0  0  0  0
    2.9097   27.2322  -25.5597 H   0  0  0  0  0  0  0  0  0  0  0  0
    1.5830   26.2990  -26.9470 C   0  0  0  0  0  0  0  0  0  0  0  0
    1.8614   25.2353  -26.9781 H   0  0  0  0  0  0  0  0  0  0  0  0
    2.1694   26.8770  -27.6764 H   0  0  0  0  0  0  0  0  0  0  0  0
   -1.7120   25.6330  -28.6260 N   0  0  0  0  0  0  0  0  0  0  0  0
   -2.3800   24.6420  -29.2650 C   0  0  0  0  0  0  0  0  0  0  0  0
   -3.4810   24.9210  -29.9000 N   0  0  0  0  0  0  0  0  0  0  0  0
   -4.3360   23.9890  -30.5830 C   0  0  0  0  0  0  0  0  0  0  0  0
   -3.8190   22.8870  -31.2920 C   0  0  0  0  0  0  0  0  0  0  0  0
   -2.7314   22.7324  -31.3479 H   0  0  0  0  0  0  0  0  0  0  0  0
   -4.6840   21.9890  -31.9250 C   0  0  0  0  0  0  0  0  0  0  0  0
   -4.2747   21.1392  -32.4910 H   0  0  0  0  0  0  0  0  0  0  0  0
   -6.0690   22.1690  -31.8400 C   0  0  0  0  0  0  0  0  0  0  0  0
   -6.9580   21.2440  -32.4940 C   0  0  0  0  0  0  0  0  0  0  0  0
   -7.6730   20.5010  -33.0200 N   0  0  0  0  0  0  0  0  0  0  0  0
   -6.5890   23.2430  -31.1070 C   0  0  0  0  0  0  0  0  0  0  0  0
   -7.6776   23.3802  -31.0292 H   0  0  0  0  0  0  0  0  0  0  0  0
   -5.7240   24.1410  -30.4740 C   0  0  0  0  0  0  0  0  0  0  0  0
   -6.1371   24.9736  -29.8856 H   0  0  0  0  0  0  0  0  0  0  0  0
   -1.8670   23.3830  -29.2650 N   0  0  0  0  0  0  0  0  0  0  0  0
    0.0460   19.5150  -28.1010 C   0  0  0  0  0  0  0  0  0  0  0  0
    0.9931   19.4544  -28.6572 H   0  0  0  0  0  0  0  0  0  0  0  0
   -0.4770   18.3810  -27.4760 C   0  0  0  0  0  0  0  0  0  0  0  0
    0.0586   17.4221  -27.5370 H   0  0  0  0  0  0  0  0  0  0  0  0
   -1.6800   18.4660  -26.7740 C   0  0  0  0  0  0  0  0  0  0  0  0
   -2.0991   17.5778  -26.2785 H   0  0  0  0  0  0  0  0  0  0  0  0
  1  2  1  0
  2  3  1  0
  3  4  1  0
  4  5  2  0
  5  6  1  0
  6  7  2  0
  7  8  1  0
  8  9  1  0
  9 10  1  0
 10 11  1  0
 10 12  1  0
 10 13  1  0
 13 14  1  0
 13 15  1  0
 13 16  1  0
 16 17  1  0
 16 18  1  0
 18 19  1  0
 18 20  1  0
 18 21  1  0
 16 22  1  0
 22 23  1  0
 22 24  1  0
 22 25  1  0
 25 26  1  0
 25 27  1  0
  8 28  2  0
 28 29  1  0
 29 30  2  0
 30 31  1  0
 31 32  2  0
 32 33  1  0
 32 34  1  0
 34 35  1  0
 34 36  2  0
 36 37  1  0
 37 38  3  0
 36 39  1  0
 39 40  1  0
 39 41  2  0
 41 42  1  0
 29 43  1  0
  4 44  1  0
 44 45  1  0
 44 46  2  0
 46 47  1  0
 46 48  1  0
 48 49  1  0
 48  2  2  0
 43  6  1  0
 25  9  1  0
 41 31  1  0
M  CHG  3   3  -1  16   1  43  -1
M  END
>  <UniqueID>  (3) 
3

>  <SMILES>  (3) 
C[NH+]1CCN(c2nc(/N=c3/cccc[n-]3)[n-]/c(=N\c3ccc(C#N)cc3)n2)CC1

>  <Energy>  (3) 
68.89047992295728

>  <Genealogy>  (3) 
C[NH+]1CCN(c2nc(N=c3cccc[n-]3)[n-]c(=Nc3ccc(C#N)cc3)n2)CC1 (protonated)
C[NH+]1CCN(c2nc(/N=c3/cccc[n-]3)[n-]/c(=N\c3ccc(C#N)cc3)n2)CC1 (cis-trans isomerization)
C[NH+]1CCN(c2nc(/N=c3/cccc[n-]3)[n-]/c(=N\c3ccc(C#N)cc3)n2)CC1 (3D coordinates assigned)
C[NH+]1CCN(c2nc(/N=c3/cccc[n-]3)[n-]/c(=N\c3ccc(C#N)cc3)n2)CC1 (nonaromatic ring conformer: 68.89047992295728 kcal/mol)

>  <smiles>  (3) 
CN1CCN(c2nc(N=c3cccc[nH]3)[nH]c(=Nc3ccc(C#N)cc3)n2)CC1

>  <score_type>  (3) 
oracle

>  <origin>  (3) 
adgpu

>  <m_score__min__energy>  (3) 
-9.0500000000000007

>  <m_primary>  (3) 
energy

$$$$
3:0
     RDKit          3D

 38 40  0  0  0  0  0  0  0  0999 V2000
   -0.3930   22.6560  -26.1360 C   0  0  0  0  0  0  0  0  0  0  0  0
   -1.1760   23.2500  -27.2690 C   0  0  0  0  0  0  0  0  0  0  0  0
   -0.6940   24.3830  -27.9430 C   0  0  0  0  0  0  0  0  0  0  0  0
   -1.4400   24.9610  -28.9740 C   0  0  0  0  0  0  0  0  0  0  0  0
   -2.6890   24.4230  -29.3350 C   0  0  0  0  0  0  0  0  0  0  0  0
   -3.4920   24.9890  -30.3790 N   0  0  0  0  0  0  0  0  0  0  0  0
   -5.2220   25.1060  -30.3540 S   0  0  0  0  0  0  0  0  0  0  0  0
   -5.6470   26.2990  -31.1610 O   0  0  0  0  0  0  0  0  0  0  0  0
   -5.6820   25.2860  -28.9340 O   0  0  0  0  0  0  0  0  0  0  0  0
   -5.9310   23.6570  -31.0620 C   0  0  0  0  0  0  0  0  0  0  0  0
   -5.1110   22.7200  -31.6950 C   0  0  0  0  0  0  0  0  0  0  0  0
   -5.6560   21.5570  -32.2430 C   0  0  0  0  0  0  0  0  0  0  0  0
   -7.0470   21.3030  -32.1730 C   0  0  0  0  0  0  0  0  0  0  0  0
   -7.8690   22.2670  -31.5320 C   0  0  0  0  0  0  0  0  0  0  0  0
   -9.2430   22.0460  -31.4450 C   0  0  0  0  0  0  0  0  0  0  0  0
   -9.7940   20.8910  -31.9800 C   0  0  0  0  0  0  0  0  0  0  0  0
   -8.9730   19.9520  -32.6060 C   0  0  0  0  0  0  0  0  0  0  0  0
   -9.5090   18.9110  -33.0770 O   0  0  0  0  0  0  0  0  0  0  0  0
   -7.6140   20.1570  -32.7050 N   0  0  0  0  0  0  0  0  0  0  0  0
   -6.7700   19.1480  -33.3740 C   0  0  0  0  0  0  0  0  0  0  0  0
   -7.3090   23.4320  -30.9860 C   0  0  0  0  0  0  0  0  0  0  0  0
   -3.1730   23.3010  -28.6500 C   0  0  0  0  0  0  0  0  0  0  0  0
   -2.4270   22.7220  -27.6190 C   0  0  0  0  0  0  0  0  0  0  0  0
   -0.8257   22.9843  -25.1795 H   0  0  0  0  0  0  0  0  0  0  0  0
   -0.4323   21.5585  -26.1988 H   0  0  0  0  0  0  0  0  0  0  0  0
    0.6533   22.9896  -26.1988 H   0  0  0  0  0  0  0  0  0  0  0  0
    0.2754   24.8180  -27.6584 H   0  0  0  0  0  0  0  0  0  0  0  0
   -1.0487   25.8408  -29.5058 H   0  0  0  0  0  0  0  0  0  0  0  0
   -4.0278   22.8996  -31.7623 H   0  0  0  0  0  0  0  0  0  0  0  0
   -4.9956   20.8283  -32.7358 H   0  0  0  0  0  0  0  0  0  0  0  0
   -9.8895   22.7872  -30.9524 H   0  0  0  0  0  0  0  0  0  0  0  0
  -10.8777   20.7152  -31.9109 H   0  0  0  0  0  0  0  0  0  0  0  0
   -6.2587   18.5367  -32.6158 H   0  0  0  0  0  0  0  0  0  0  0  0
   -7.4000   18.5014  -34.0024 H   0  0  0  0  0  0  0  0  0  0  0  0
   -6.0222   19.6539  -34.0024 H   0  0  0  0  0  0  0  0  0  0  0  0
   -7.9578   24.1725  -30.4954 H   0  0  0  0  0  0  0  0  0  0  0  0
   -4.1478   22.8721  -28.9255 H   0  0  0  0  0  0  0  0  0  0  0  0
   -2.8231   21.8486  -27.0802 H   0  0  0  0  0  0  0  0  0  0  0  0
  1  2  1  0
  2  3  2  0
  3  4  1  0
  4  5  2  0
  5  6  1  0
  6  7  1  0
  7  8  2  0
  7  9  2  0
  7 10  1  0
 10 11  2  0
 11 12  1  0
 12 13  2  0
 13 14  1  0
 14 15  1  0
 15 16  2  0
 16 17  1  0
 17 18  2  0
 17 19  1  0
 19 20  1  0
 14 21  2  0
  5 22  1  0
 22 23  2  0
 23  2  1  0
 21 10  1  0
 19 13  1  0
  1 24  1  0
  1 25  1  0
  1 26  1  0
  3 27  1  0
  4 28  1  0
 11 29  1  0
 12 30  1  0
 15 31  1  0
 16 32  1  0
 20 33  1  0
 20 34  1  0
 20 35  1  0
 21 36  1  0
 22 37  1  0
 23 38  1  0
M  CHG  1   6  -1
M  END
>  <UniqueID>  (4) 
4

>  <SMILES>  (4) 
Cc1ccc([N-]S(=O)(=O)c2ccc3c(ccc(=O)n3C)c2)cc1

>  <Energy>  (4) 
52.29570498049361

>  <Genealogy>  (4) 
Cc1ccc([N-]S(=O)(=O)c2ccc3c(ccc(=O)n3C)c2)cc1 (protonated)
Cc1ccc([N-]S(=O)(=O)c2ccc3c(ccc(=O)n3C)c2)cc1 (3D coordinates assigned)
Cc1ccc([N-]S(=O)(=O)c2ccc3c(ccc(=O)n3C)c2)cc1 (optimized conformer: 52.29570498049361 kcal/mol)

>  <smiles>  (4) 
Cc1ccc(NS(=O)(=O)c2ccc3c(ccc(=O)n3C)c2)cc1

>  <score_type>  (4) 
oracle

>  <origin>  (4) 
adgpu

>  <m_score__min__energy>  (4) 
-10.300000000000001

>  <m_primary>  (4) 
energy

$$$$
4:0
     RDKit          3D

 55 58  0  0  1  0  0  0  0  0999 V2000
   -8.9260   18.9890  -32.1460 C   0  0  0  0  0  0  0  0  0  0  0  0
   -8.4590   20.3280  -32.2190 N   0  0  0  0  0  0  0  0  0  0  0  0
   -8.9140   21.2470  -31.2540 C   0  0  0  0  0  0  0  0  0  0  0  0
   -7.9980   22.3330  -30.8310 C   0  0  0  0  0  0  0  0  0  0  0  0
   -6.8050   22.4680  -31.5590 N   0  0  0  0  0  0  0  0  0  0  0  0
   -6.4360   23.7050  -32.1010 C   0  0  0  0  0  0  0  0  0  0  0  0
   -6.1140   24.8190  -31.1660 C   0  0  0  0  0  0  0  0  0  0  0  0
   -4.7900   24.4660  -30.5400 C   0  0  0  0  0  0  0  0  0  0  0  0
   -3.8850   25.3200  -30.5210 O   0  0  0  0  0  0  0  0  0  0  0  0
   -4.5360   23.2030  -29.9740 N   0  0  0  0  0  0  0  0  0  0  0  0
   -3.2580   22.9590  -29.4020 C   0  0  0  0  0  0  0  0  0  0  0  0
   -2.6260   21.7840  -29.8030 C   0  0  0  0  0  0  0  0  0  0  0  0
   -1.3830   21.4150  -29.3340 C   0  0  0  0  0  0  0  0  0  0  0  0
   -0.7860   22.2820  -28.4340 C   0  0  0  0  0  0  0  0  0  0  0  0
    0.4410   21.9060  -27.9810 N   0  0  0  0  0  0  0  0  0  0  0  0
    1.0720   22.7220  -27.0960 C   0  0  0  0  0  0  0  0  0  0  0  0
    0.4830   23.8620  -26.6910 N   0  0  0  0  0  0  0  0  0  0  0  0
   -0.7310   24.2620  -27.1230 C   0  0  0  0  0  0  0  0  0  0  0  0
   -1.2600   25.3780  -26.7010 N   0  0  0  0  0  0  0  0  0  0  0  0
   -0.5290   26.1940  -25.7600 C   0  0  0  0  0  0  0  0  0  0  0  0
   -0.8230   26.0420  -24.3990 C   0  0  0  0  0  0  0  0  0  0  0  0
   -0.1480   26.8060  -23.4820 C   0  0  0  0  0  0  0  0  0  0  0  0
    0.8040   27.7060  -23.8870 C   0  0  0  0  0  0  0  0  0  0  0  0
    1.7500   28.7730  -22.6280 Br  0  0  0  0  0  0  0  0  0  0  0  0
    1.0960   27.8560  -25.2300 C   0  0  0  0  0  0  0  0  0  0  0  0
    0.4290   27.0980  -26.1770 C   0  0  0  0  0  0  0  0  0  0  0  0
   -1.3890   23.4510  -28.0210 C   0  0  0  0  0  0  0  0  0  0  0  0
   -2.6490   23.8100  -28.5040 C   0  0  0  0  0  0  0  0  0  0  0  0
   -6.1860   21.2890  -32.0370 C   0  0  0  0  0  0  0  0  0  0  0  0
   -7.2110   20.5250  -32.8400 C   0  0  0  0  0  0  0  0  0  0  0  0
   -9.0290   18.6936  -31.0914 H   0  0  0  0  0  0  0  0  0  0  0  0
   -9.9034   18.9138  -32.6450 H   0  0  0  0  0  0  0  0  0  0  0  0
   -8.2073   18.3223  -32.6450 H   0  0  0  0  0  0  0  0  0  0  0  0
   -9.8189   21.7235  -31.6592 H   0  0  0  0  0  0  0  0  0  0  0  0
   -9.0539   20.6410  -30.3467 H   0  0  0  0  0  0  0  0  0  0  0  0
   -8.5471   23.2828  -30.9108 H   0  0  0  0  0  0  0  0  0  0  0  0
   -7.6864   22.0685  -29.8098 H   0  0  0  0  0  0  0  0  0  0  0  0
   -5.5452   23.5349  -32.7236 H   0  0  0  0  0  0  0  0  0  0  0  0
   -7.3366   24.0480  -32.6313 H   0  0  0  0  0  0  0  0  0  0  0  0
   -6.0359   25.7687  -31.7155 H   0  0  0  0  0  0  0  0  0  0  0  0
   -6.8983   24.9460  -30.4053 H   0  0  0  0  0  0  0  0  0  0  0  0
   -5.2960   22.4930  -29.9970 H   0  0  0  0  0  0  0  0  0  0  0  0
   -3.1378   21.1260  -30.5207 H   0  0  0  0  0  0  0  0  0  0  0  0
   -0.8931   20.4844  -29.6565 H   0  0  0  0  0  0  0  0  0  0  0  0
    2.0656   22.4501  -26.7103 H   0  0  0  0  0  0  0  0  0  0  0  0
    1.0330   24.4470  -26.0020 H   0  0  0  0  0  0  0  0  0  0  0  0
   -1.5848   25.3198  -24.0703 H   0  0  0  0  0  0  0  0  0  0  0  0
   -0.3724   26.6958  -22.4108 H   0  0  0  0  0  0  0  0  0  0  0  0
    1.8609   28.5801  -25.5471 H   0  0  0  0  0  0  0  0  0  0  0  0
    0.6585   27.2138  -27.2465 H   0  0  0  0  0  0  0  0  0  0  0  0
   -3.1390   24.7398  -28.1793 H   0  0  0  0  0  0  0  0  0  0  0  0
   -5.3281   21.5485  -32.6748 H   0  0  0  0  0  0  0  0  0  0  0  0
   -5.8210   20.6784  -31.1980 H   0  0  0  0  0  0  0  0  0  0  0  0
   -7.3841   21.0760  -33.7762 H   0  0  0  0  0  0  0  0  0  0  0  0
   -6.7879   19.5195  -32.9814 H   0  0  0  0  0  0  0  0  0  0  0  0
  1  2  1  0
  2  3  1  0
  3  4  1  0
  4  5  1  0
  5  6  1  0
  6  7  1  0
  7  8  1  0
  8  9  2  0
  8 10  1  0
 10 11  1  0
 11 12  2  0
 12 13  1  0
 13 14  2  0
 14 15  1  0
 15 16  2  0
 16 17  1  0
 17 18  1  0
 18 19  2  0
 19 20  1  0
 20 21  2  0
 21 22  1  0
 22 23  2  0
 23 24  1  0
 23 25  1  0
 25 26  2  0
 18 27  1  0
 27 28  2  0
  5 29  1  0
 29 30  1  0
 30  2  1  0
 28 11  1  0
 27 14  1  0
 26 20  1  0
  1 31  1  0
  1 32  1  0
  1 33  1  0
  3 34  1  0
  3 35  1  0
  4 36  1  0
  4 37  1  0
  6 38  1  0
  6 39  1  0
  7 40  1  0
  7 41  1  0
 10 42  1  0
 12 43  1  0
 13 44  1  0
 16 45  1  0
 17 46  1  0
 21 47  1  0
 22 48  1  0
 25 49  1  0
 26 50  1  0
 28 51  1  0
 29 52  1  0
 29 53  1  0
 30 54  1  0
 30 55  1  0
M  END
>  <smiles>  (5) 
CN1CCN(CCC(=O)Nc2ccc3nc[nH]c(=Nc4ccc(Br)cc4)c3c2)CC1

>  <score_type>  (5) 
oracle

>  <origin>  (5) 
adgpu

>  <m_score__min__energy>  (5) 
-9.5800000000000001

>  <m_primary>  (5) 
energy

$$$$
5:0
     RDKit          3D

 62 65  0  0  0  0  0  0  0  0999 V2000
    2.6680   18.3450  -27.2250 H   0  0  0  0  0  0  0  0  0  0  0  0
    1.7750   18.8390  -27.4470 N   0  0  0  0  0  0  0  0  0  0  0  0
    1.4890   19.1930  -28.6600 C   0  0  0  0  0  0  0  0  0  0  0  0
    2.2930   18.9500  -29.7140 N   0  0  0  0  0  0  0  0  0  0  0  0
    1.5570   19.4560  -30.7280 C   0  0  0  0  0  0  0  0  0  0  0  0
    1.9580   19.4230  -31.9650 N   0  0  0  0  0  0  0  0  0  0  0  0
    1.2300   19.8590  -33.1310 C   0  0  0  0  0  0  0  0  0  0  0  0
   -0.1190   20.2540  -33.0540 C   0  0  0  0  0  0  0  0  0  0  0  0
   -0.6330   20.2427  -32.0815 H   0  0  0  0  0  0  0  0  0  0  0  0
   -0.8170   20.6620  -34.2010 C   0  0  0  0  0  0  0  0  0  0  0  0
   -2.1850   21.0900  -34.1100 N   0  0  0  0  0  0  0  0  0  0  0  0
   -2.7490   21.1620  -34.9870 H   0  0  0  0  0  0  0  0  0  0  0  0
   -2.7660   21.5380  -32.8740 C   0  0  0  0  0  0  0  0  0  0  0  0
   -2.0280   22.0710  -32.0020 O   0  0  0  0  0  0  0  0  0  0  0  0
   -4.2170   21.3890  -32.6150 C   0  0  0  0  0  0  0  0  0  0  0  0
   -4.9810   22.5050  -32.2460 C   0  0  0  0  0  0  0  0  0  0  0  0
   -4.5073   23.4958  -32.1837 H   0  0  0  0  0  0  0  0  0  0  0  0
   -6.3360   22.3660  -31.9580 C   0  0  0  0  0  0  0  0  0  0  0  0
   -6.9290   23.2484  -31.6755 H   0  0  0  0  0  0  0  0  0  0  0  0
   -6.9450   21.1130  -32.0260 C   0  0  0  0  0  0  0  0  0  0  0  0
   -8.0153   21.0180  -31.7906 H   0  0  0  0  0  0  0  0  0  0  0  0
   -6.2100   19.9650  -32.3920 C   0  0  0  0  0  0  0  0  0  0  0  0
   -6.9170   18.5920  -32.4330 C   0  0  0  0  0  0  0  0  0  0  0  0
   -6.5140   17.6640  -31.2610 C   0  0  0  0  0  0  0  0  0  0  0  0
   -6.7313   18.1643  -30.3058 H   0  0  0  0  0  0  0  0  0  0  0  0
   -7.0860   16.7264  -31.3223 H   0  0  0  0  0  0  0  0  0  0  0  0
   -5.4384   17.4419  -31.3223 H   0  0  0  0  0  0  0  0  0  0  0  0
   -6.5560   17.8640  -33.7460 C   0  0  0  0  0  0  0  0  0  0  0  0
   -6.0785   16.9011  -33.5120 H   0  0  0  0  0  0  0  0  0  0  0  0
   -7.4708   17.6872  -34.3307 H   0  0  0  0  0  0  0  0  0  0  0  0
   -5.8615   18.4852  -34.3307 H   0  0  0  0  0  0  0  0  0  0  0  0
   -8.4440   18.8010  -32.3630 C   0  0  0  0  0  0  0  0  0  0  0  0
   -8.7603   18.8443  -31.3103 H   0  0  0  0  0  0  0  0  0  0  0  0
   -8.7084   19.7437  -32.8644 H   0  0  0  0  0  0  0  0  0  0  0  0
   -8.9520   17.9640  -32.8644 H   0  0  0  0  0  0  0  0  0  0  0  0
   -4.8330   20.1260  -32.6830 C   0  0  0  0  0  0  0  0  0  0  0  0
   -4.2347   19.2478  -32.9672 H   0  0  0  0  0  0  0  0  0  0  0  0
   -0.1850   20.6020  -35.4460 C   0  0  0  0  0  0  0  0  0  0  0  0
   -0.7357   20.8903  -36.3536 H   0  0  0  0  0  0  0  0  0  0  0  0
    1.1420   20.1780  -35.5440 C   0  0  0  0  0  0  0  0  0  0  0  0
    1.6303   20.1348  -36.5287 H   0  0  0  0  0  0  0  0  0  0  0  0
    1.8580   19.8060  -34.3930 C   0  0  0  0  0  0  0  0  0  0  0  0
    3.2870   19.3510  -34.5150 C   0  0  0  0  0  0  0  0  0  0  0  0
    3.7154   19.2146  -33.5111 H   0  0  0  0  0  0  0  0  0  0  0  0
    3.3227   18.3971  -35.0616 H   0  0  0  0  0  0  0  0  0  0  0  0
    3.8677   20.1087  -35.0616 H   0  0  0  0  0  0  0  0  0  0  0  0
    0.3860   19.9920  -30.3220 N   0  0  0  0  0  0  0  0  0  0  0  0
    0.3540   19.8220  -29.0130 N   0  0  0  0  0  0  0  0  0  0  0  0
   -0.8040   20.1330  -28.1800 C   0  0  0  0  0  0  0  0  0  0  0  0
   -1.5929   19.3869  -28.3564 H   0  0  0  0  0  0  0  0  0  0  0  0
   -0.5082   20.1125  -27.1207 H   0  0  0  0  0  0  0  0  0  0  0  0
   -1.3230   21.5030  -28.5280 C   0  0  0  0  0  0  0  0  0  0  0  0
   -2.6810   21.6880  -28.8310 C   0  0  0  0  0  0  0  0  0  0  0  0
   -3.3776   20.8392  -28.7655 H   0  0  0  0  0  0  0  0  0  0  0  0
   -3.1520   22.9480  -29.2160 C   0  0  0  0  0  0  0  0  0  0  0  0
   -4.2181   23.0889  -29.4473 H   0  0  0  0  0  0  0  0  0  0  0  0
   -2.2690   24.0280  -29.3070 C   0  0  0  0  0  0  0  0  0  0  0  0
   -2.7380   25.2800  -29.6880 O   0  0  0  0  0  0  0  0  0  0  0  0
   -0.9140   23.8480  -29.0170 C   0  0  0  0  0  0  0  0  0  0  0  0
   -0.2192   24.6976  -29.0902 H   0  0  0  0  0  0  0  0  0  0  0  0
   -0.4400   22.5900  -28.6340 C   0  0  0  0  0  0  0  0  0  0  0  0
    0.6289   22.4508  -28.4147 H   0  0  0  0  0  0  0  0  0  0  0  0
  1  2  1  0
  2  3  2  3
  3  4  1  0
  4  5  1  0
  5  6  2  0
  6  7  1  0
  7  8  2  0
  8  9  1  0
  8 10  1  0
 10 11  1  0
 11 12  1  0
 11 13  1  0
 13 14  2  0
 13 15  1  0
 15 16  2  0
 16 17  1  0
 16 18  1  0
 18 19  1  0
 18 20  2  0
 20 21  1  0
 20 22  1  0
 22 23  1  0
 23 24  1  0
 24 25  1  0
 24 26  1  0
 24 27  1  0
 23 28  1  0
 28 29  1  0
 28 30  1  0
 28 31  1  0
 23 32  1  0
 32 33  1  0
 32 34  1  0
 32 35  1  0
 22 36  2  0
 36 37  1  0
 10 38  2  0
 38 39  1  0
 38 40  1  0
 40 41  1  0
 40 42  2  0
 42 43  1  0
 43 44  1  0
 43 45  1  0
 43 46  1  0
  5 47  1  0
 47 48  1  0
 48 49  1  0
 49 50  1  0
 49 51  1  0
 49 52  1  0
 52 53  2  0
 53 54  1  0
 53 55  1  0
 55 56  1  0
 55 57  2  0
 57 58  1  0
 57 59  1  0
 59 60  1  0
 59 61  2  0
 61 62  1  0
 48  3  1  0
 61 52  1  0
 42  7  1  0
 36 15  1  0
M  CHG  3   4  -1  47  -1  58  -1
M  END
>  <UniqueID>  (6) 
5

>  <SMILES>  (6) 
Cc1ccc(NC(=O)c2cccc(C(C)(C)C)c2)cc1/N=c1/[n-]c(=N)n(Cc2ccc([O-])cc2)[n-]1

>  <Energy>  (6) 
108.62752077751979

>  <Genealogy>  (6) 
Cc1ccc(NC(=O)c2cccc(C(C)(C)C)c2)cc1N=c1[n-]c(=N)n(Cc2ccc([O-])cc2)[n-]1 (protonated)
Cc1ccc(NC(=O)c2cccc(C(C)(C)C)c2)cc1/N=c1/[n-]c(=N)n(Cc2ccc([O-])cc2)[n-]1 (cis-trans isomerization)
Cc1ccc(NC(=O)c2cccc(C(C)(C)C)c2)cc1/N=c1/[n-]c(=N)n(Cc2ccc([O-])cc2)[n-]1 (3D coordinates assigned)
Cc1ccc(NC(=O)c2cccc(C(C)(C)C)c2)cc1/N=c1/[n-]c(=N)n(Cc2ccc([O-])cc2)[n-]1 (optimized conformer: 108.62752077751979 kcal/mol)

>  <smiles>  (6) 
Cc1ccc(NC(=O)c2cccc(C(C)(C)C)c2)cc1N=c1[nH]c(=N)n(Cc2ccc(O)cc2)[nH]1

>  <score_type>  (6) 
oracle

>  <origin>  (6) 
adgpu

>  <m_score__min__energy>  (6) 
-13.039999999999999

>  <m_primary>  (6) 
energy

$$$$
6:0
     RDKit          3D

 61 64  0  0  0  0  0  0  0  0999 V2000
   -1.5400   21.4270  -26.8530 C   0  0  0  0  0  0  0  0  0  0  0  0
   -2.1140   22.4570  -27.7860 C   0  0  0  0  0  0  0  0  0  0  0  0
   -3.3660   22.1960  -28.3660 C   0  0  0  0  0  0  0  0  0  0  0  0
   -3.9500   23.1040  -29.2450 C   0  0  0  0  0  0  0  0  0  0  0  0
   -3.2860   24.2900  -29.5800 C   0  0  0  0  0  0  0  0  0  0  0  0
   -3.8650   25.2350  -30.4890 N   0  0  0  0  0  0  0  0  0  0  0  0
   -5.2520   25.3200  -30.8440 C   0  0  0  0  0  0  0  0  0  0  0  0
   -6.0130   26.0480  -30.1560 O   0  0  0  0  0  0  0  0  0  0  0  0
   -5.7980   24.6000  -31.9560 N   0  0  0  0  0  0  0  0  0  0  0  0
   -5.9820   23.1790  -32.0340 C   0  0  0  0  0  0  0  0  0  0  0  0
   -7.2260   22.5790  -31.7730 C   0  0  0  0  0  0  0  0  0  0  0  0
   -7.3690   21.1910  -31.8530 C   0  0  0  0  0  0  0  0  0  0  0  0
   -6.2670   20.3830  -32.1630 C   0  0  0  0  0  0  0  0  0  0  0  0
   -6.4390   18.6270  -32.2210 S   0  0  0  0  0  0  0  0  0  0  0  0
   -7.5940   18.2700  -33.1150 O   0  0  0  0  0  0  0  0  0  0  0  0
   -6.7430   18.1140  -30.8420 O   0  0  0  0  0  0  0  0  0  0  0  0
   -4.9870   17.8550  -32.8150 N   0  0  0  0  0  0  0  0  0  0  0  0
   -5.1450   16.3880  -32.8150 C   0  0  0  0  0  0  0  0  0  0  0  0
   -4.1570   15.7380  -33.7960 C   0  0  0  0  0  0  0  0  0  0  0  0
   -4.3410   16.1450  -35.1460 O   0  0  0  0  0  0  0  0  0  0  0  0
   -4.9220   17.4360  -35.2830 C   0  0  0  0  0  0  0  0  0  0  0  0
   -4.5750   18.3940  -34.1280 C   0  0  0  0  0  0  0  0  0  0  0  0
   -5.0230   20.9800  -32.4090 C   0  0  0  0  0  0  0  0  0  0  0  0
   -4.8820   22.3700  -32.3370 C   0  0  0  0  0  0  0  0  0  0  0  0
   -2.0490   24.5800  -28.9900 C   0  0  0  0  0  0  0  0  0  0  0  0
   -1.4010   25.7620  -29.3370 O   0  0  0  0  0  0  0  0  0  0  0  0
   -1.4570   23.6870  -28.0730 C   0  0  0  0  0  0  0  0  0  0  0  0
    0.1140   24.1390  -27.3660 S   0  0  0  0  0  0  0  0  0  0  0  0
    0.6710   22.9370  -26.6560 O   0  0  0  0  0  0  0  0  0  0  0  0
    1.1130   24.5460  -28.4140 O   0  0  0  0  0  0  0  0  0  0  0  0
   -0.1330   25.4370  -26.2240 N   0  0  0  0  0  0  0  0  0  0  0  0
    0.5800   25.1530  -24.9650 C   0  0  0  0  0  0  0  0  0  0  0  0
    0.1770   26.1550  -23.8640 C   0  0  0  0  0  0  0  0  0  0  0  0
   -0.5660   27.2300  -24.4030 O   0  0  0  0  0  0  0  0  0  0  0  0
   -1.7880   26.7440  -24.9310 C   0  0  0  0  0  0  0  0  0  0  0  0
   -1.5710   25.6200  -25.9680 C   0  0  0  0  0  0  0  0  0  0  0  0
   -1.7133   21.7380  -25.8122 H   0  0  0  0  0  0  0  0  0  0  0  0
   -2.0279   20.4576  -27.0321 H   0  0  0  0  0  0  0  0  0  0  0  0
   -0.4589   21.3320  -27.0321 H   0  0  0  0  0  0  0  0  0  0  0  0
   -3.8925   21.2614  -28.1225 H   0  0  0  0  0  0  0  0  0  0  0  0
   -4.9378   22.8885  -29.6783 H   0  0  0  0  0  0  0  0  0  0  0  0
   -8.0903   23.2043  -31.5047 H   0  0  0  0  0  0  0  0  0  0  0  0
   -8.3515   20.7307  -31.6717 H   0  0  0  0  0  0  0  0  0  0  0  0
   -4.9543   16.0038  -31.8021 H   0  0  0  0  0  0  0  0  0  0  0  0
   -6.1702   16.1416  -33.1285 H   0  0  0  0  0  0  0  0  0  0  0  0
   -3.1354   16.0059  -33.4886 H   0  0  0  0  0  0  0  0  0  0  0  0
   -4.3350   14.6531  -33.7601 H   0  0  0  0  0  0  0  0  0  0  0  0
   -4.5637   17.8806  -36.2232 H   0  0  0  0  0  0  0  0  0  0  0  0
   -6.0137   17.3011  -35.2734 H   0  0  0  0  0  0  0  0  0  0  0  0
   -3.4874   18.5585  -34.1183 H   0  0  0  0  0  0  0  0  0  0  0  0
   -5.1198   19.3351  -34.2936 H   0  0  0  0  0  0  0  0  0  0  0  0
   -4.1544   20.3533  -32.6596 H   0  0  0  0  0  0  0  0  0  0  0  0
   -3.8996   22.8297  -32.5199 H   0  0  0  0  0  0  0  0  0  0  0  0
    0.3316   24.1342  -24.6328 H   0  0  0  0  0  0  0  0  0  0  0  0
    1.6611   25.2464  -25.1455 H   0  0  0  0  0  0  0  0  0  0  0  0
   -0.4356   25.6358  -23.1122 H   0  0  0  0  0  0  0  0  0  0  0  0
    1.0922   26.5575  -23.4052 H   0  0  0  0  0  0  0  0  0  0  0  0
   -2.3989   26.3506  -24.1052 H   0  0  0  0  0  0  0  0  0  0  0  0
   -2.2915   27.5794  -25.4396 H   0  0  0  0  0  0  0  0  0  0  0  0
   -1.9937   24.6813  -25.5805 H   0  0  0  0  0  0  0  0  0  0  0  0
   -2.0711   25.8966  -26.9079 H   0  0  0  0  0  0  0  0  0  0  0  0
  1  2  1  0
  2  3  2  0
  3  4  1  0
  4  5  2  0
  5  6  1  0
  6  7  1  0
  7  8  2  0
  7  9  1  0
  9 10  1  0
 10 11  2  0
 11 12  1  0
 12 13  2  0
 13 14  1  0
 14 15  2  0
 14 16  2  0
 14 17  1  0
 17 18  1  0
 18 19  1  0
 19 20  1  0
 20 21  1  0
 21 22  1  0
 13 23  1  0
 23 24  2  0
  5 25  1  0
 25 26  1  0
 25 27  2  0
 27 28  1  0
 28 29  2  0
 28 30  2  0
 28 31  1  0
 31 32  1  0
 32 33  1  0
 33 34  1  0
 34 35  1  0
 35 36  1  0
 27  2  1  0
 36 31  1  0
 24 10  1  0
 22 17  1  0
  1 37  1  0
  1 38  1  0
  1 39  1  0
  3 40  1  0
  4 41  1  0
 11 42  1  0
 12 43  1  0
 18 44  1  0
 18 45  1  0
 19 46  1  0
 19 47  1  0
 21 48  1  0
 21 49  1  0
 22 50  1  0
 22 51  1  0
 23 52  1  0
 24 53  1  0
 32 54  1  0
 32 55  1  0
 33 56  1  0
 33 57  1  0
 35 58  1  0
 35 59  1  0
 36 60  1  0
 36 61  1  0
M  CHG  3   6  -1   9  -1  26  -1
M  END
>  <UniqueID>  (7) 
6

>  <SMILES>  (7) 
Cc1ccc([N-]C(=O)[N-]c2ccc(S(=O)(=O)N3CCOCC3)cc2)c([O-])c1S(=O)(=O)N1CCOCC1

>  <Energy>  (7) 
92.25513080714686

>  <Genealogy>  (7) 
Cc1ccc([N-]C(=O)[N-]c2ccc(S(=O)(=O)N3CCOCC3)cc2)c([O-])c1S(=O)(=O)N1CCOCC1 (protonated)
Cc1ccc([N-]C(=O)[N-]c2ccc(S(=O)(=O)N3CCOCC3)cc2)c([O-])c1S(=O)(=O)N1CCOCC1 (3D coordinates assigned)
Cc1ccc([N-]C(=O)[N-]c2ccc(S(=O)(=O)N3CCOCC3)cc2)c([O-])c1S(=O)(=O)N1CCOCC1 (nonaromatic ring conformer: 92.25513080714686 kcal/mol)

>  <smiles>  (7) 
Cc1ccc(NC(=O)Nc2ccc(S(=O)(=O)N3CCOCC3)cc2)c(O)c1S(=O)(=O)N1CCOCC1

>  <score_type>  (7) 
oracle

>  <origin>  (7) 
adgpu

>  <m_score__min__energy>  (7) 
-17.219999999999999

>  <m_primary>  (7) 
energy

$$$$
7:0
     RDKit          3D

 53 57  0  0  0  0  0  0  0  0999 V2000
   -8.5087   23.7608  -30.8109 H   0  0  0  0  0  0  0  0  0  0  0  0
   -7.7430   23.1800  -31.3460 C   0  0  0  0  0  0  0  0  0  0  0  0
   -6.5220   23.7710  -31.6700 C   0  0  0  0  0  0  0  0  0  0  0  0
   -6.3292   24.8200  -31.4008 H   0  0  0  0  0  0  0  0  0  0  0  0
   -5.5470   23.0310  -32.3350 C   0  0  0  0  0  0  0  0  0  0  0  0
   -4.5930   23.5062  -32.6071 H   0  0  0  0  0  0  0  0  0  0  0  0
   -5.7720   21.6800  -32.6620 C   0  0  0  0  0  0  0  0  0  0  0  0
   -4.7940   20.8930  -33.3660 N   0  0  0  0  0  0  0  0  0  0  0  0
   -3.6350   20.4970  -32.9340 C   0  0  0  0  0  0  0  0  0  0  0  0
   -2.8310   19.7840  -33.7650 N   0  0  0  0  0  0  0  0  0  0  0  0
   -1.6230   19.3460  -33.3360 C   0  0  0  0  0  0  0  0  0  0  0  0
   -0.5670   18.4200  -34.4440 S   0  0  0  0  0  0  0  0  0  0  0  0
    0.2160   19.8950  -35.0880 C   0  0  0  0  0  0  0  0  0  0  0  0
   -0.4080   21.1380  -34.9060 C   0  0  0  0  0  0  0  0  0  0  0  0
   -1.3776   21.1991  -34.3901 H   0  0  0  0  0  0  0  0  0  0  0  0
    0.2090   22.3010  -35.3840 C   0  0  0  0  0  0  0  0  0  0  0  0
   -0.2926   23.2727  -35.2651 H   0  0  0  0  0  0  0  0  0  0  0  0
    1.4650   22.2370  -36.0150 C   0  0  0  0  0  0  0  0  0  0  0  0
    2.0810   23.4550  -36.4640 N   0  0  0  0  0  0  0  0  0  0  0  0
    1.3840   24.6440  -36.8350 C   0  0  0  0  0  0  0  0  0  0  0  0
    1.3830   25.0350  -38.0350 O   0  0  0  0  0  0  0  0  0  0  0  0
    0.7380   25.4790  -35.7720 C   0  0  0  0  0  0  0  0  0  0  0  0
    0.8139   24.7289  -34.9710 H   0  0  0  0  0  0  0  0  0  0  0  0
   -0.3410   26.4140  -36.2920 C   0  0  0  0  0  0  0  0  0  0  0  0
   -0.6152   26.3985  -37.3572 H   0  0  0  0  0  0  0  0  0  0  0  0
   -1.3887   26.6166  -36.0248 H   0  0  0  0  0  0  0  0  0  0  0  0
    1.0020   26.9740  -35.8630 C   0  0  0  0  0  0  0  0  0  0  0  0
    1.7014   27.3640  -36.6171 H   0  0  0  0  0  0  0  0  0  0  0  0
    1.3311   27.7500  -35.1563 H   0  0  0  0  0  0  0  0  0  0  0  0
    2.0740   20.9830  -36.2180 C   0  0  0  0  0  0  0  0  0  0  0  0
    3.0410   20.9198  -36.7385 H   0  0  0  0  0  0  0  0  0  0  0  0
    1.4500   19.8170  -35.7580 C   0  0  0  0  0  0  0  0  0  0  0  0
    1.9256   18.8386  -35.9209 H   0  0  0  0  0  0  0  0  0  0  0  0
   -1.2240   19.5980  -32.0630 N   0  0  0  0  0  0  0  0  0  0  0  0
   -2.0290   20.2920  -31.2160 C   0  0  0  0  0  0  0  0  0  0  0  0
   -1.7130   20.4640  -29.9660 N   0  0  0  0  0  0  0  0  0  0  0  0
   -0.5190   20.0070  -29.3080 C   0  0  0  0  0  0  0  0  0  0  0  0
   -0.1330   18.6770  -29.4970 C   0  0  0  0  0  0  0  0  0  0  0  0
   -0.7567   18.0084  -30.1085 H   0  0  0  0  0  0  0  0  0  0  0  0
    1.0420   18.1910  -28.9130 C   0  0  0  0  0  0  0  0  0  0  0  0
    1.3464   17.1470  -29.0788 H   0  0  0  0  0  0  0  0  0  0  0  0
    1.8310   19.0310  -28.1180 C   0  0  0  0  0  0  0  0  0  0  0  0
    3.0470   18.5290  -27.5240 C   0  0  0  0  0  0  0  0  0  0  0  0
    4.0240   18.1240  -27.0440 N   0  0  0  0  0  0  0  0  0  0  0  0
    1.4290   20.3530  -27.8910 C   0  0  0  0  0  0  0  0  0  0  0  0
    2.0392   21.0107  -27.2546 H   0  0  0  0  0  0  0  0  0  0  0  0
    0.2550   20.8380  -28.4710 C   0  0  0  0  0  0  0  0  0  0  0  0
   -0.0673   21.8712  -28.2746 H   0  0  0  0  0  0  0  0  0  0  0  0
   -3.2320   20.7370  -31.6570 N   0  0  0  0  0  0  0  0  0  0  0  0
   -7.0200   21.1050  -32.3610 C   0  0  0  0  0  0  0  0  0  0  0  0
   -7.3780   19.4390  -32.7930 Cl  0  0  0  0  0  0  0  0  0  0  0  0
   -7.9960   21.8530  -31.6990 C   0  0  0  0  0  0  0  0  0  0  0  0
   -8.9663   21.3957  -31.4551 H   0  0  0  0  0  0  0  0  0  0  0  0
  1  2  1  0
  2  3  2  0
  3  4  1  0
  3  5  1  0
  5  6  1  0
  5  7  2  0
  7  8  1  0
  8  9  2  3
  9 10  1  0
 10 11  2  0
 11 12  1  0
 12 13  1  0
 13 14  2  0
 14 15  1  0
 14 16  1  0
 16 17  1  0
 16 18  2  0
 18 19  1  0
 19 20  1  0
 20 21  2  0
 20 22  1  0
 22 23  1  0
 22 24  1  0
 24 25  1  0
 24 26  1  0
 24 27  1  0
 27 28  1  0
 27 29  1  0
 18 30  1  0
 30 31  1  0
 30 32  2  0
 32 33  1  0
 11 34  1  0
 34 35  1  0
 35 36  2  0
 36 37  1  0
 37 38  2  0
 38 39  1  0
 38 40  1  0
 40 41  1  0
 40 42  2  0
 42 43  1  0
 43 44  3  0
 42 45  1  0
 45 46  1  0
 45 47  2  0
 47 48  1  0
 35 49  1  0
  7 50  1  0
 50 51  1  0
 50 52  2  0
 52 53  1  0
 52  2  1  0
 49  9  1  0
 32 13  1  0
 47 37  1  0
 27 22  1  0
M  CHG  3  19  -1  34  -1  49  -1
M  END
>  <UniqueID>  (8) 
7

>  <SMILES>  (8) 
N#Cc1ccc(/N=c2\[n-]c(Sc3ccc([N-]C(=O)C4CC4)cc3)nc(=Nc3ccccc3Cl)[n-]2)cc1

>  <Energy>  (8) 
335.673313676196

>  <Genealogy>  (8) 
N#Cc1ccc(N=c2[n-]c(Sc3ccc([N-]C(=O)C4CC4)cc3)nc(=Nc3ccccc3Cl)[n-]2)cc1 (protonated)
N#Cc1ccc(/N=c2\[n-]c(Sc3ccc([N-]C(=O)C4CC4)cc3)nc(=Nc3ccccc3Cl)[n-]2)cc1 (cis-trans isomerization)
N#Cc1ccc(/N=c2\[n-]c(Sc3ccc([N-]C(=O)C4CC4)cc3)nc(=Nc3ccccc3Cl)[n-]2)cc1 (3D coordinates assigned)
N#Cc1ccc(/N=c2\[n-]c(Sc3ccc([N-]C(=O)C4CC4)cc3)nc(=Nc3ccccc3Cl)[n-]2)cc1 (nonaromatic ring conformer: 335.673313676196 kcal/mol)

>  <smiles>  (8) 
N#Cc1ccc(N=c2[nH]c(Sc3ccc(NC(=O)C4CC4)cc3)nc(=Nc3ccccc3Cl)[nH]2)cc1

>  <score_type>  (8) 
oracle

>  <origin>  (8) 
adgpu

>  <m_score__min__energy>  (8) 
-12.4

>  <m_primary>  (8) 
energy

$$$$
8:0
     RDKit          3D

 57 60  0  0  0  0  0  0  0  0999 V2000
   -6.8920   23.0760  -29.9980 C   0  0  0  0  0  0  0  0  0  0  0  0
   -8.0100   22.9650  -30.9510 N   0  0  0  0  0  0  0  0  0  0  0  0
   -8.9810   21.9140  -30.5630 C   0  0  0  0  0  0  0  0  0  0  0  0
   -8.7090   20.5510  -31.2330 C   0  0  0  0  0  0  0  0  0  0  0  0
   -7.2890   20.4360  -31.5760 N   0  0  0  0  0  0  0  0  0  0  0  0
   -6.9050   18.8120  -32.0990 S   0  0  0  0  0  0  0  0  0  0  0  0
   -7.9480   18.3440  -33.0750 O   0  0  0  0  0  0  0  0  0  0  0  0
   -6.9530   17.8950  -30.9070 O   0  0  0  0  0  0  0  0  0  0  0  0
   -5.2920   18.7040  -32.8340 C   0  0  0  0  0  0  0  0  0  0  0  0
   -5.0690   17.7450  -33.8360 C   0  0  0  0  0  0  0  0  0  0  0  0
   -3.8170   17.6290  -34.4470 C   0  0  0  0  0  0  0  0  0  0  0  0
   -3.5560   16.4180  -35.6880 Cl  0  0  0  0  0  0  0  0  0  0  0  0
   -2.7750   18.4770  -34.0680 C   0  0  0  0  0  0  0  0  0  0  0  0
   -2.9830   19.4420  -33.0810 C   0  0  0  0  0  0  0  0  0  0  0  0
   -4.2350   19.5670  -32.4620 C   0  0  0  0  0  0  0  0  0  0  0  0
   -4.4130   20.5770  -31.4650 N   0  0  0  0  0  0  0  0  0  0  0  0
   -3.7320   21.8330  -31.5400 C   0  0  0  0  0  0  0  0  0  0  0  0
   -3.0620   22.1290  -32.5680 O   0  0  0  0  0  0  0  0  0  0  0  0
   -3.8710   22.7730  -30.4690 N   0  0  0  0  0  0  0  0  0  0  0  0
   -2.9660   22.9120  -29.3660 C   0  0  0  0  0  0  0  0  0  0  0  0
   -2.5630   21.7590  -28.6880 C   0  0  0  0  0  0  0  0  0  0  0  0
   -1.7010   21.8470  -27.6000 C   0  0  0  0  0  0  0  0  0  0  0  0
   -1.2040   23.0860  -27.1840 C   0  0  0  0  0  0  0  0  0  0  0  0
   -0.1750   23.1010  -25.7560 Cl  0  0  0  0  0  0  0  0  0  0  0  0
   -1.5470   24.2600  -27.8950 C   0  0  0  0  0  0  0  0  0  0  0  0
   -0.9210   25.8520  -27.4100 S   0  0  0  0  0  0  0  0  0  0  0  0
    0.5730   25.8070  -27.2400 O   0  0  0  0  0  0  0  0  0  0  0  0
   -1.2240   26.8730  -28.4710 O   0  0  0  0  0  0  0  0  0  0  0  0
   -1.7390   26.3470  -25.8940 C   0  0  0  0  0  0  0  0  0  0  0  0
   -0.9130   26.1910  -24.6260 C   0  0  0  0  0  0  0  0  0  0  0  0
   -1.1380   27.5730  -25.2250 C   0  0  0  0  0  0  0  0  0  0  0  0
   -2.4350   24.1620  -28.9890 C   0  0  0  0  0  0  0  0  0  0  0  0
   -2.7760   25.2980  -29.7160 O   0  0  0  0  0  0  0  0  0  0  0  0
   -6.9210   21.4180  -32.6130 C   0  0  0  0  0  0  0  0  0  0  0  0
   -7.5380   22.8090  -32.3420 C   0  0  0  0  0  0  0  0  0  0  0  0
   -7.2813   23.0373  -28.9699 H   0  0  0  0  0  0  0  0  0  0  0  0
   -6.1912   22.2430  -30.1563 H   0  0  0  0  0  0  0  0  0  0  0  0
   -6.3687   24.0305  -30.1563 H   0  0  0  0  0  0  0  0  0  0  0  0
   -8.9343   21.7817  -29.4720 H   0  0  0  0  0  0  0  0  0  0  0  0
   -9.9735   22.2488  -30.8991 H   0  0  0  0  0  0  0  0  0  0  0  0
   -8.9828   19.7427  -30.5389 H   0  0  0  0  0  0  0  0  0  0  0  0
   -9.3098   20.4735  -32.1512 H   0  0  0  0  0  0  0  0  0  0  0  0
   -5.8882   17.0783  -34.1431 H   0  0  0  0  0  0  0  0  0  0  0  0
   -1.7893   18.3848  -34.5474 H   0  0  0  0  0  0  0  0  0  0  0  0
   -2.1592   20.1089  -32.7868 H   0  0  0  0  0  0  0  0  0  0  0  0
   -4.9670   20.3490  -30.6110 H   0  0  0  0  0  0  0  0  0  0  0  0
   -2.9297   20.7754  -29.0166 H   0  0  0  0  0  0  0  0  0  0  0  0
   -1.4076   20.9336  -27.0619 H   0  0  0  0  0  0  0  0  0  0  0  0
   -2.7482   26.0376  -26.2035 H   0  0  0  0  0  0  0  0  0  0  0  0
   -1.4030   25.9146  -23.6807 H   0  0  0  0  0  0  0  0  0  0  0  0
   -0.0296   25.6010  -24.3403 H   0  0  0  0  0  0  0  0  0  0  0  0
   -1.7904   28.2952  -24.7123 H   0  0  0  0  0  0  0  0  0  0  0  0
   -0.4842   28.3953  -25.5512 H   0  0  0  0  0  0  0  0  0  0  0  0
   -5.8255   21.5146  -32.6372 H   0  0  0  0  0  0  0  0  0  0  0  0
   -7.3112   21.0562  -33.5757 H   0  0  0  0  0  0  0  0  0  0  0  0
   -6.7760   23.5765  -32.5427 H   0  0  0  0  0  0  0  0  0  0  0  0
   -8.4111   22.9182  -33.0021 H   0  0  0  0  0  0  0  0  0  0  0  0
  1  2  1  0
  2  3  1  0
  3  4  1  0
  4  5  1  0
  5  6  1  0
  6  7  2  0
  6  8  2  0
  6  9  1  0
  9 10  2  0
 10 11  1  0
 11 12  1  0
 11 13  2  0
 13 14  1  0
 14 15  2  0
 15 16  1  0
 16 17  1  0
 17 18  2  0
 17 19  1  0
 19 20  1  0
 20 21  2  0
 21 22  1  0
 22 23  2  0
 23 24  1  0
 23 25  1  0
 25 26  1  0
 26 27  2  0
 26 28  2  0
 26 29  1  0
 29 30  1  0
 30 31  1  0
 25 32  2  0
 32 33  1  0
  5 34  1  0
 34 35  1  0
 35  2  1  0
 15  9  1  0
 32 20  1  0
 31 29  1  0
  1 36  1  0
  1 37  1  0
  1 38  1  0
  3 39  1  0
  3 40  1  0
  4 41  1  0
  4 42  1  0
 10 43  1  0
 13 44  1  0
 14 45  1  0
 16 46  1  0
 21 47  1  0
 22 48  1  0
 29 49  1  0
 30 50  1  0
 30 51  1  0
 31 52  1  0
 31 53  1  0
 34 54  1  0
 34 55  1  0
 35 56  1  0
 35 57  1  0
M  CHG  2  19  -1  33  -1
M  END
>  <UniqueID>  (9) 
8

>  <SMILES>  (9) 
CN1CCN(S(=O)(=O)c2cc(Cl)ccc2NC(=O)[N-]c2ccc(Cl)c(S(=O)(=O)C3CC3)c2[O-])CC1

>  <Energy>  (9) 
347.5401713113384

>  <Genealogy>  (9) 
CN1CCN(S(=O)(=O)c2cc(Cl)ccc2NC(=O)[N-]c2ccc(Cl)c(S(=O)(=O)C3CC3)c2[O-])CC1 (protonated)
CN1CCN(S(=O)(=O)c2cc(Cl)ccc2NC(=O)[N-]c2ccc(Cl)c(S(=O)(=O)C3CC3)c2[O-])CC1 (3D coordinates assigned)
CN1CCN(S(=O)(=O)c2cc(Cl)ccc2NC(=O)[N-]c2ccc(Cl)c(S(=O)(=O)C3CC3)c2[O-])CC1 (nonaromatic ring conformer: 347.5401713113384 kcal/mol)

>  <smiles>  (9) 
CN1CCN(S(=O)(=O)c2cc(Cl)ccc2NC(=O)Nc2ccc(Cl)c(S(=O)(=O)C3CC3)c2O)CC1

>  <score_type>  (9) 
oracle

>  <origin>  (9) 
adgpu

>  <m_score__min__energy>  (9) 
-14.630000000000001

>  <m_primary>  (9) 
energy

$$$$
9:0
     RDKit          3D

 67 71  0  0  0  0  0  0  0  0999 V2000
   -3.8780   25.6630  -30.7690 O   0  0  0  0  0  0  0  0  0  0  0  0
   -3.9040   24.5550  -30.1750 C   0  0  0  0  0  0  0  0  0  0  0  0
   -4.8500   23.5670  -30.6040 N   0  0  0  0  0  0  0  0  0  0  0  0
   -5.4950   23.5460  -31.9160 C   0  0  0  0  0  0  0  0  0  0  0  0
   -5.8710   22.1120  -32.3040 C   0  0  0  0  0  0  0  0  0  0  0  0
   -4.6730   21.3040  -32.5550 N   0  0  0  0  0  0  0  0  0  0  0  0
   -3.4190   21.6530  -32.2170 C   0  0  0  0  0  0  0  0  0  0  0  0
   -2.5990   20.5820  -32.4720 C   0  0  0  0  0  0  0  0  0  0  0  0
   -0.8350   20.5280  -32.1740 S   0  0  0  0  0  0  0  0  0  0  0  0
   -0.9050   21.7710  -30.8450 C   0  0  0  0  0  0  0  0  0  0  0  0
   -1.1690   21.0960  -29.5360 C   0  0  0  0  0  0  0  0  0  0  0  0
   -2.4520   20.8160  -29.0670 C   0  0  0  0  0  0  0  0  0  0  0  0
   -2.2920   20.0780  -27.5670 S   0  0  0  0  0  0  0  0  0  0  0  0
   -0.6130   20.1410  -27.5750 C   0  0  0  0  0  0  0  0  0  0  0  0
   -0.1570   20.7220  -28.7060 N   0  0  0  0  0  0  0  0  0  0  0  0
   -3.3140   19.5480  -32.9540 N   0  0  0  0  0  0  0  0  0  0  0  0
   -4.5770   20.0260  -32.9980 C   0  0  0  0  0  0  0  0  0  0  0  0
   -5.6850   19.2200  -33.4380 N   0  0  0  0  0  0  0  0  0  0  0  0
   -5.5160   18.2060  -34.4860 C   0  0  0  0  0  0  0  0  0  0  0  0
   -6.4810   17.0390  -34.2480 C   0  0  0  0  0  0  0  0  0  0  0  0
   -6.6350   16.8260  -32.8600 O   0  0  0  0  0  0  0  0  0  0  0  0
   -7.4100   17.8690  -32.2870 C   0  0  0  0  0  0  0  0  0  0  0  0
   -6.9670   19.2820  -32.7290 C   0  0  0  0  0  0  0  0  0  0  0  0
   -2.9220   24.2840  -29.1050 C   0  0  0  0  0  0  0  0  0  0  0  0
   -3.3600   23.9140  -27.8230 C   0  0  0  0  0  0  0  0  0  0  0  0
   -2.4380   23.7240  -26.7880 C   0  0  0  0  0  0  0  0  0  0  0  0
   -1.0680   23.9130  -27.0200 C   0  0  0  0  0  0  0  0  0  0  0  0
    0.0840   23.7000  -25.7040 S   0  0  0  0  0  0  0  0  0  0  0  0
    1.3580   23.1140  -26.2450 O   0  0  0  0  0  0  0  0  0  0  0  0
   -0.5010   22.7270  -24.7180 O   0  0  0  0  0  0  0  0  0  0  0  0
    0.3810   25.2320  -24.9040 N   0  0  0  0  0  0  0  0  0  0  0  0
   -0.7930   25.7270  -24.1620 C   0  0  0  0  0  0  0  0  0  0  0  0
   -1.8020   26.4300  -25.0800 C   0  0  0  0  0  0  0  0  0  0  0  0
   -1.1790   27.4780  -25.7930 O   0  0  0  0  0  0  0  0  0  0  0  0
   -0.1820   26.9460  -26.6400 C   0  0  0  0  0  0  0  0  0  0  0  0
    0.9210   26.2480  -25.8270 C   0  0  0  0  0  0  0  0  0  0  0  0
   -0.6300   24.3000  -28.2930 C   0  0  0  0  0  0  0  0  0  0  0  0
   -1.5510   24.4870  -29.3270 C   0  0  0  0  0  0  0  0  0  0  0  0
   -6.4052   24.1628  -31.8822 H   0  0  0  0  0  0  0  0  0  0  0  0
   -4.7947   23.9459  -32.6641 H   0  0  0  0  0  0  0  0  0  0  0  0
   -6.4467   21.6568  -31.4846 H   0  0  0  0  0  0  0  0  0  0  0  0
   -6.4713   22.1442  -33.2252 H   0  0  0  0  0  0  0  0  0  0  0  0
   -3.1057   22.6250  -31.8084 H   0  0  0  0  0  0  0  0  0  0  0  0
    0.0550   22.3056  -30.7936 H   0  0  0  0  0  0  0  0  0  0  0  0
   -1.7148   22.4849  -31.0564 H   0  0  0  0  0  0  0  0  0  0  0  0
   -3.3966   21.0380  -29.5851 H   0  0  0  0  0  0  0  0  0  0  0  0
    0.0291   19.7600  -26.7672 H   0  0  0  0  0  0  0  0  0  0  0  0
   -5.7257   18.6576  -35.4668 H   0  0  0  0  0  0  0  0  0  0  0  0
   -4.4825   17.8303  -34.4611 H   0  0  0  0  0  0  0  0  0  0  0  0
   -7.4588   17.2762  -34.6925 H   0  0  0  0  0  0  0  0  0  0  0  0
   -6.0752   16.1290  -34.7141 H   0  0  0  0  0  0  0  0  0  0  0  0
   -8.4597   17.7251  -32.5825 H   0  0  0  0  0  0  0  0  0  0  0  0
   -7.2713   17.8131  -31.1972 H   0  0  0  0  0  0  0  0  0  0  0  0
   -7.7299   19.7081  -33.3971 H   0  0  0  0  0  0  0  0  0  0  0  0
   -6.8495   19.9135  -31.8361 H   0  0  0  0  0  0  0  0  0  0  0  0
   -4.4340   23.7728  -27.6315 H   0  0  0  0  0  0  0  0  0  0  0  0
   -2.7889   23.4254  -25.7891 H   0  0  0  0  0  0  0  0  0  0  0  0
   -1.2901   24.8749  -23.6753 H   0  0  0  0  0  0  0  0  0  0  0  0
   -0.4410   26.4601  -23.4213 H   0  0  0  0  0  0  0  0  0  0  0  0
   -2.2108   25.7000  -25.7941 H   0  0  0  0  0  0  0  0  0  0  0  0
   -2.6091   26.8516  -24.4629 H   0  0  0  0  0  0  0  0  0  0  0  0
   -0.6422   26.2158  -27.3219 H   0  0  0  0  0  0  0  0  0  0  0  0
    0.2719   27.7722  -27.2069 H   0  0  0  0  0  0  0  0  0  0  0  0
    1.6171   25.7581  -26.5237 H   0  0  0  0  0  0  0  0  0  0  0  0
    1.4285   27.0144  -25.2228 H   0  0  0  0  0  0  0  0  0  0  0  0
    0.4427   24.4572  -28.4793 H   0  0  0  0  0  0  0  0  0  0  0  0
   -1.1990   24.7956  -30.3224 H   0  0  0  0  0  0  0  0  0  0  0  0
  1  2  2  0
  2  3  1  0
  3  4  1  0
  4  5  1  0
  5  6  1  0
  6  7  1  0
  7  8  2  0
  8  9  1  0
  9 10  1  0
 10 11  1  0
 11 12  2  0
 12 13  1  0
 13 14  1  0
 14 15  2  0
  8 16  1  0
 16 17  2  0
 17 18  1  0
 18 19  1  0
 19 20  1  0
 20 21  1  0
 21 22  1  0
 22 23  1  0
  2 24  1  0
 24 25  2  0
 25 26  1  0
 26 27  2  0
 27 28  1  0
 28 29  2  0
 28 30  2  0
 28 31  1  0
 31 32  1  0
 32 33  1  0
 33 34  1  0
 34 35  1  0
 35 36  1  0
 27 37  1  0
 37 38  2  0
 17  6  1  0
 23 18  1  0
 38 24  1  0
 15 11  1  0
 36 31  1  0
  4 39  1  0
  4 40  1  0
  5 41  1  0
  5 42  1  0
  7 43  1  0
 10 44  1  0
 10 45  1  0
 12 46  1  0
 14 47  1  0
 19 48  1  0
 19 49  1  0
 20 50  1  0
 20 51  1  0
 22 52  1  0
 22 53  1  0
 23 54  1  0
 23 55  1  0
 25 56  1  0
 26 57  1  0
 32 58  1  0
 32 59  1  0
 33 60  1  0
 33 61  1  0
 35 62  1  0
 35 63  1  0
 36 64  1  0
 36 65  1  0
 37 66  1  0
 38 67  1  0
M  CHG  1   3  -1
M  END
>  <UniqueID>  (10) 
9

>  <SMILES>  (10) 
O=C([N-]CCn1cc(SCc2cscn2)nc1N1CCOCC1)c1ccc(S(=O)(=O)N2CCOCC2)cc1

>  <Energy>  (10) 
143.0218813151441

>  <Genealogy>  (10) 
O=C([N-]CCn1cc(SCc2cscn2)nc1N1CCOCC1)c1ccc(S(=O)(=O)N2CCOCC2)cc1 (protonated)
O=C([N-]CCn1cc(SCc2cscn2)nc1N1CCOCC1)c1ccc(S(=O)(=O)N2CCOCC2)cc1 (3D coordinates assigned)
O=C([N-]CCn1cc(SCc2cscn2)nc1N1CCOCC1)c1ccc(S(=O)(=O)N2CCOCC2)cc1 (nonaromatic ring conformer: 143.0218813151441 kcal/mol)

>  <smiles>  (10) 
O=C(NCCn1cc(SCc2cscn2)nc1N1CCOCC1)c1ccc(S(=O)(=O)N2CCOCC2)cc1

>  <score_type>  (10) 
oracle

>  <origin>  (10) 
adgpu

>  <m_score__min__energy>  (10) 
-11.710000000000001

>  <m_primary>  (10) 
energy

$$$$
10:0
     RDKit          3D

 48 51  0  0  0  0  0  0  0  0999 V2000
   -6.3310   25.6700  -29.7300 C   0  0  0  0  0  0  0  0  0  0  0  0
   -5.9640   24.4360  -30.5080 C   0  0  0  0  0  0  0  0  0  0  0  0
   -6.9680   23.5360  -30.8940 C   0  0  0  0  0  0  0  0  0  0  0  0
   -6.6470   22.3800  -31.6060 C   0  0  0  0  0  0  0  0  0  0  0  0
   -5.3160   22.1040  -31.9520 C   0  0  0  0  0  0  0  0  0  0  0  0
   -4.9930   20.9010  -32.7480 C   0  0  0  0  0  0  0  0  0  0  0  0
   -3.8040   20.6930  -33.3490 N   0  0  0  0  0  0  0  0  0  0  0  0
   -3.9220   19.5450  -33.9430 O   0  0  0  0  0  0  0  0  0  0  0  0
   -5.1170   19.0580  -33.7250 C   0  0  0  0  0  0  0  0  0  0  0  0
   -5.6140   17.7650  -34.2780 C   0  0  0  0  0  0  0  0  0  0  0  0
   -6.9060   17.5330  -33.8420 F   0  0  0  0  0  0  0  0  0  0  0  0
   -5.6010   17.8200  -35.6590 F   0  0  0  0  0  0  0  0  0  0  0  0
   -4.8020   16.7280  -33.8550 F   0  0  0  0  0  0  0  0  0  0  0  0
   -5.8600   19.8890  -32.9670 N   0  0  0  0  0  0  0  0  0  0  0  0
   -4.3040   22.9900  -31.5440 C   0  0  0  0  0  0  0  0  0  0  0  0
   -4.6170   24.1400  -30.7980 C   0  0  0  0  0  0  0  0  0  0  0  0
   -3.5870   25.0420  -30.3650 N   0  0  0  0  0  0  0  0  0  0  0  0
   -2.7650   24.9190  -29.1960 C   0  0  0  0  0  0  0  0  0  0  0  0
   -3.0760   24.0610  -28.3300 O   0  0  0  0  0  0  0  0  0  0  0  0
   -1.5910   25.7200  -28.9780 N   0  0  0  0  0  0  0  0  0  0  0  0
   -0.7470   25.7940  -27.8160 C   0  0  0  0  0  0  0  0  0  0  0  0
   -0.8120   26.8880  -26.9330 C   0  0  0  0  0  0  0  0  0  0  0  0
    0.0270   26.9550  -25.8190 C   0  0  0  0  0  0  0  0  0  0  0  0
    0.9780   25.9580  -25.6000 C   0  0  0  0  0  0  0  0  0  0  0  0
    1.1100   24.9090  -26.5100 C   0  0  0  0  0  0  0  0  0  0  0  0
    0.2660   24.8200  -27.6240 C   0  0  0  0  0  0  0  0  0  0  0  0
    0.5250   23.8050  -28.5590 O   0  0  0  0  0  0  0  0  0  0  0  0
   -0.3130   22.7200  -28.8410 C   0  0  0  0  0  0  0  0  0  0  0  0
   -0.8780   21.9430  -27.8180 C   0  0  0  0  0  0  0  0  0  0  0  0
   -1.7110   20.8650  -28.1340 C   0  0  0  0  0  0  0  0  0  0  0  0
   -1.9700   20.5480  -29.4700 C   0  0  0  0  0  0  0  0  0  0  0  0
   -1.3910   21.3040  -30.4920 C   0  0  0  0  0  0  0  0  0  0  0  0
   -0.5590   22.3830  -30.1780 C   0  0  0  0  0  0  0  0  0  0  0  0
   -6.2676   25.4567  -28.6528 H   0  0  0  0  0  0  0  0  0  0  0  0
   -5.6360   26.4839  -29.9842 H   0  0  0  0  0  0  0  0  0  0  0  0
   -7.3578   25.9718  -29.9842 H   0  0  0  0  0  0  0  0  0  0  0  0
   -8.0164   23.7431  -30.6334 H   0  0  0  0  0  0  0  0  0  0  0  0
   -7.4435   21.6799  -31.8982 H   0  0  0  0  0  0  0  0  0  0  0  0
   -3.2574   22.7818  -31.8108 H   0  0  0  0  0  0  0  0  0  0  0  0
   -1.5311   27.6985  -27.1224 H   0  0  0  0  0  0  0  0  0  0  0  0
   -0.0619   27.7944  -25.1136 H   0  0  0  0  0  0  0  0  0  0  0  0
    1.6234   25.9991  -24.7102 H   0  0  0  0  0  0  0  0  0  0  0  0
    1.8846   24.1443  -26.3510 H   0  0  0  0  0  0  0  0  0  0  0  0
   -0.6653   22.1823  -26.7656 H   0  0  0  0  0  0  0  0  0  0  0  0
   -2.1629   20.2659  -27.3298 H   0  0  0  0  0  0  0  0  0  0  0  0
   -2.6298   19.7032  -29.7169 H   0  0  0  0  0  0  0  0  0  0  0  0
   -1.5896   21.0505  -31.5438 H   0  0  0  0  0  0  0  0  0  0  0  0
   -0.0955   22.9699  -30.9847 H   0  0  0  0  0  0  0  0  0  0  0  0
  1  2  1  0
  2  3  2  0
  3  4  1  0
  4  5  2  0
  5  6  1  0
  6  7  2  0
  7  8  1  0
  8  9  1  0
  9 10  1  0
 10 11  1  0
 10 12  1  0
 10 13  1  0
  9 14  2  0
  5 15  1  0
 15 16  2  0
 16 17  1  0
 17 18  1  0
 18 19  2  0
 18 20  1  0
 20 21  1  0
 21 22  2  0
 22 23  1  0
 23 24  2  0
 24 25  1  0
 25 26  2  0
 26 27  1  0
 27 28  1  0
 28 29  2  0
 29 30  1  0
 30 31  2  0
 31 32  1  0
 32 33  2  0
 16  2  1  0
 26 21  1  0
 33 28  1  0
 14  6  1  0
  1 34  1  0
  1 35  1  0
  1 36  1  0
  3 37  1  0
  4 38  1  0
 15 39  1  0
 22 40  1  0
 23 41  1  0
 24 42  1  0
 25 43  1  0
 29 44  1  0
 30 45  1  0
 31 46  1  0
 32 47  1  0
 33 48  1  0
M  CHG  2  17  -1  20  -1
M  END
>  <UniqueID>  (11) 
10

>  <SMILES>  (11) 
Cc1ccc(-c2noc(C(F)(F)F)n2)cc1[N-]C(=O)[N-]c1ccccc1Oc1ccccc1

>  <Energy>  (11) 
100.33027207497577

>  <Genealogy>  (11) 
Cc1ccc(-c2noc(C(F)(F)F)n2)cc1[N-]C(=O)[N-]c1ccccc1Oc1ccccc1 (protonated)
Cc1ccc(-c2noc(C(F)(F)F)n2)cc1[N-]C(=O)[N-]c1ccccc1Oc1ccccc1 (3D coordinates assigned)
Cc1ccc(-c2noc(C(F)(F)F)n2)cc1[N-]C(=O)[N-]c1ccccc1Oc1ccccc1 (optimized conformer: 100.33027207497577 kcal/mol)

>  <smiles>  (11) 
Cc1ccc(-c2noc(C(F)(F)F)n2)cc1NC(=O)Nc1ccccc1Oc1ccccc1

>  <score_type>  (11) 
oracle

>  <origin>  (11) 
adgpu

>  <m_score__min__energy>  (11) 
-11.960000000000001

>  <m_primary>  (11) 
energy

$$$$
11:0
     RDKit          3D

 43 45  0  0  0  0  0  0  0  0999 V2000
   -2.7130   23.3210  -30.1250 O   0  0  0  0  0  0  0  0  0  0  0  0
   -3.1060   24.4470  -29.7220 C   0  0  0  0  0  0  0  0  0  0  0  0
   -3.9150   25.2510  -30.5870 N   0  0  0  0  0  0  0  0  0  0  0  0
   -5.3260   25.5380  -30.3560 C   0  0  0  0  0  0  0  0  0  0  0  0
   -6.1430   24.3320  -30.7160 C   0  0  0  0  0  0  0  0  0  0  0  0
   -6.4720   24.0750  -32.0560 C   0  0  0  0  0  0  0  0  0  0  0  0
   -7.2660   22.9740  -32.3880 C   0  0  0  0  0  0  0  0  0  0  0  0
   -7.7560   22.1270  -31.3830 C   0  0  0  0  0  0  0  0  0  0  0  0
   -8.7830   20.7540  -31.8010 S   0  0  0  0  0  0  0  0  0  0  0  0
  -10.0830   21.2620  -32.3600 O   0  0  0  0  0  0  0  0  0  0  0  0
   -9.0910   19.9710  -30.5550 O   0  0  0  0  0  0  0  0  0  0  0  0
   -8.0230   19.6980  -32.9730 N   0  0  0  0  0  0  0  0  0  0  0  0
   -6.6030   20.0260  -33.1410 C   0  0  0  0  0  0  0  0  0  0  0  0
   -5.7850   19.0630  -32.2940 C   0  0  0  0  0  0  0  0  0  0  0  0
   -6.7320   17.9470  -31.9030 C   0  0  0  0  0  0  0  0  0  0  0  0
   -8.0710   18.2990  -32.5360 C   0  0  0  0  0  0  0  0  0  0  0  0
   -7.4320   22.3850  -30.0450 C   0  0  0  0  0  0  0  0  0  0  0  0
   -6.6370   23.4860  -29.7120 C   0  0  0  0  0  0  0  0  0  0  0  0
   -2.6930   24.9160  -28.3870 C   0  0  0  0  0  0  0  0  0  0  0  0
   -3.3930   24.4750  -27.2530 C   0  0  0  0  0  0  0  0  0  0  0  0
   -3.0140   24.9090  -25.9790 C   0  0  0  0  0  0  0  0  0  0  0  0
   -1.9430   25.7950  -25.8310 C   0  0  0  0  0  0  0  0  0  0  0  0
   -1.2550   26.2540  -26.9560 C   0  0  0  0  0  0  0  0  0  0  0  0
   -1.6310   25.8270  -28.2350 C   0  0  0  0  0  0  0  0  0  0  0  0
   -0.9600   26.3260  -29.3460 O   0  0  0  0  0  0  0  0  0  0  0  0
   -5.4820   25.7842  -29.2953 H   0  0  0  0  0  0  0  0  0  0  0  0
   -5.6350   26.3912  -30.9777 H   0  0  0  0  0  0  0  0  0  0  0  0
   -6.1033   24.7431  -32.8483 H   0  0  0  0  0  0  0  0  0  0  0  0
   -7.5077   22.7708  -33.4417 H   0  0  0  0  0  0  0  0  0  0  0  0
   -6.3203   19.9225  -34.1990 H   0  0  0  0  0  0  0  0  0  0  0  0
   -6.4142   21.0624  -32.8243 H   0  0  0  0  0  0  0  0  0  0  0  0
   -4.9417   18.6629  -32.8761 H   0  0  0  0  0  0  0  0  0  0  0  0
   -5.3618   19.5621  -31.4098 H   0  0  0  0  0  0  0  0  0  0  0  0
   -6.3679   16.9830  -32.2879 H   0  0  0  0  0  0  0  0  0  0  0  0
   -6.8137   17.8493  -30.8104 H   0  0  0  0  0  0  0  0  0  0  0  0
   -8.2560   17.6456  -33.4014 H   0  0  0  0  0  0  0  0  0  0  0  0
   -8.8824   18.1585  -31.8066 H   0  0  0  0  0  0  0  0  0  0  0  0
   -7.8045   21.7188  -29.2529 H   0  0  0  0  0  0  0  0  0  0  0  0
   -6.3978   23.6897  -28.6578 H   0  0  0  0  0  0  0  0  0  0  0  0
   -4.2426   23.7856  -27.3670 H   0  0  0  0  0  0  0  0  0  0  0  0
   -3.5591   24.5529  -25.0924 H   0  0  0  0  0  0  0  0  0  0  0  0
   -1.6420   26.1308  -24.8277 H   0  0  0  0  0  0  0  0  0  0  0  0
   -0.4146   26.9536  -26.8368 H   0  0  0  0  0  0  0  0  0  0  0  0
  1  2  2  0
  2  3  1  0
  3  4  1  0
  4  5  1  0
  5  6  2  0
  6  7  1  0
  7  8  2  0
  8  9  1  0
  9 10  2  0
  9 11  2  0
  9 12  1  0
 12 13  1  0
 13 14  1  0
 14 15  1  0
 15 16  1  0
  8 17  1  0
 17 18  2  0
  2 19  1  0
 19 20  2  0
 20 21  1  0
 21 22  2  0
 22 23  1  0
 23 24  2  0
 24 25  1  0
 18  5  1  0
 24 19  1  0
 16 12  1  0
  4 26  1  0
  4 27  1  0
  6 28  1  0
  7 29  1  0
 13 30  1  0
 13 31  1  0
 14 32  1  0
 14 33  1  0
 15 34  1  0
 15 35  1  0
 16 36  1  0
 16 37  1  0
 17 38  1  0
 18 39  1  0
 20 40  1  0
 21 41  1  0
 22 42  1  0
 23 43  1  0
M  CHG  2   3  -1  25  -1
M  END
>  <UniqueID>  (12) 
11

>  <SMILES>  (12) 
O=C([N-]Cc1ccc(S(=O)(=O)N2CCCC2)cc1)c1ccccc1[O-]

>  <Energy>  (12) 
48.885519999003456

>  <Genealogy>  (12) 
O=C([N-]Cc1ccc(S(=O)(=O)N2CCCC2)cc1)c1ccccc1[O-] (protonated)
O=C([N-]Cc1ccc(S(=O)(=O)N2CCCC2)cc1)c1ccccc1[O-] (3D coordinates assigned)
O=C([N-]Cc1ccc(S(=O)(=O)N2CCCC2)cc1)c1ccccc1[O-] (nonaromatic ring conformer: 48.885519999003456 kcal/mol)

>  <smiles>  (12) 
O=C(NCc1ccc(S(=O)(=O)N2CCCC2)cc1)c1ccccc1O

>  <score_type>  (12) 
oracle

>  <origin>  (12) 
adgpu

>  <m_score__min__energy>  (12) 
-13.630000000000001

>  <m_primary>  (12) 
energy

$$$$
12:0
     RDKit          3D

 62 65  0  0  0  0  0  0  0  0999 V2000
   -3.4140   20.4340  -30.3730 C   0  0  0  0  0  0  0  0  0  0  0  0
   -3.1890   20.0450  -31.8000 C   0  0  0  0  0  0  0  0  0  0  0  0
   -1.9860   20.3610  -32.4390 C   0  0  0  0  0  0  0  0  0  0  0  0
   -1.8020   19.9620  -33.7730 C   0  0  0  0  0  0  0  0  0  0  0  0
   -0.5520   20.2620  -34.5170 C   0  0  0  0  0  0  0  0  0  0  0  0
   -0.1140   21.5860  -34.7160 C   0  0  0  0  0  0  0  0  0  0  0  0
    1.0600   21.8470  -35.4280 C   0  0  0  0  0  0  0  0  0  0  0  0
    1.8100   20.7910  -35.9550 C   0  0  0  0  0  0  0  0  0  0  0  0
    3.2830   21.1210  -36.8500 Cl  0  0  0  0  0  0  0  0  0  0  0  0
    1.3820   19.4740  -35.7740 C   0  0  0  0  0  0  0  0  0  0  0  0
    0.2070   19.2100  -35.0640 C   0  0  0  0  0  0  0  0  0  0  0  0
   -2.7930   19.2620  -34.3910 N   0  0  0  0  0  0  0  0  0  0  0  0
   -3.9530   18.9580  -33.7550 C   0  0  0  0  0  0  0  0  0  0  0  0
   -5.1970   18.0470  -34.5860 S   0  0  0  0  0  0  0  0  0  0  0  0
   -6.1100   19.0010  -35.3020 O   0  0  0  0  0  0  0  0  0  0  0  0
   -4.5530   17.1390  -35.5960 O   0  0  0  0  0  0  0  0  0  0  0  0
   -6.1230   17.0970  -33.3840 C   0  0  0  0  0  0  0  0  0  0  0  0
   -6.5780   17.9540  -32.1900 C   0  0  0  0  0  0  0  0  0  0  0  0
   -7.5750   19.0150  -32.5630 C   0  0  0  0  0  0  0  0  0  0  0  0
   -8.8120   18.8030  -32.4460 O   0  0  0  0  0  0  0  0  0  0  0  0
   -7.0940   20.2730  -33.0560 N   0  0  0  0  0  0  0  0  0  0  0  0
   -6.9350   21.4850  -32.3030 C   0  0  0  0  0  0  0  0  0  0  0  0
   -8.0810   22.1980  -31.9350 C   0  0  0  0  0  0  0  0  0  0  0  0
   -7.9750   23.3650  -31.1780 C   0  0  0  0  0  0  0  0  0  0  0  0
   -6.7230   23.8310  -30.7660 C   0  0  0  0  0  0  0  0  0  0  0  0
   -6.6660   25.2960  -29.7900 Cl  0  0  0  0  0  0  0  0  0  0  0  0
   -5.5570   23.1180  -31.1170 C   0  0  0  0  0  0  0  0  0  0  0  0
   -3.9520   23.6430  -30.5830 S   0  0  0  0  0  0  0  0  0  0  0  0
   -3.9030   25.1450  -30.6030 O   0  0  0  0  0  0  0  0  0  0  0  0
   -2.9110   23.1350  -31.5420 O   0  0  0  0  0  0  0  0  0  0  0  0
   -3.6170   23.0690  -28.9590 N   0  0  0  0  0  0  0  0  0  0  0  0
   -4.0370   24.0580  -27.9360 C   0  0  0  0  0  0  0  0  0  0  0  0
   -2.8680   24.9250  -27.4310 C   0  0  0  0  0  0  0  0  0  0  0  0
   -1.9190   25.1180  -28.4560 O   0  0  0  0  0  0  0  0  0  0  0  0
   -1.2580   23.9000  -28.7500 C   0  0  0  0  0  0  0  0  0  0  0  0
   -2.2040   22.6760  -28.7960 C   0  0  0  0  0  0  0  0  0  0  0  0
   -5.6760   21.9380  -31.8720 C   0  0  0  0  0  0  0  0  0  0  0  0
   -4.1430   19.3470  -32.4680 N   0  0  0  0  0  0  0  0  0  0  0  0
   -2.9739   19.6731  -29.7118 H   0  0  0  0  0  0  0  0  0  0  0  0
   -2.9393   21.4072  -30.1790 H   0  0  0  0  0  0  0  0  0  0  0  0
   -4.4942   20.5078  -30.1790 H   0  0  0  0  0  0  0  0  0  0  0  0
   -1.1974   20.9125  -31.9061 H   0  0  0  0  0  0  0  0  0  0  0  0
   -0.7011   22.4217  -34.3075 H   0  0  0  0  0  0  0  0  0  0  0  0
    1.3945   22.8847  -35.5740 H   0  0  0  0  0  0  0  0  0  0  0  0
    1.9703   18.6432  -36.1907 H   0  0  0  0  0  0  0  0  0  0  0  0
   -0.1276   18.1705  -34.9315 H   0  0  0  0  0  0  0  0  0  0  0  0
   -7.0117   16.6743  -33.8754 H   0  0  0  0  0  0  0  0  0  0  0  0
   -5.4632   16.3055  -32.9990 H   0  0  0  0  0  0  0  0  0  0  0  0
   -7.0368   17.2923  -31.4405 H   0  0  0  0  0  0  0  0  0  0  0  0
   -5.6868   18.4680  -31.8006 H   0  0  0  0  0  0  0  0  0  0  0  0
   -9.0725   21.8360  -32.2447 H   0  0  0  0  0  0  0  0  0  0  0  0
   -8.8827   23.9223  -30.9034 H   0  0  0  0  0  0  0  0  0  0  0  0
   -4.1980   22.2080  -28.8290 H   0  0  0  0  0  0  0  0  0  0  0  0
   -4.7994   24.7174  -28.3764 H   0  0  0  0  0  0  0  0  0  0  0  0
   -4.4311   23.4981  -27.0751 H   0  0  0  0  0  0  0  0  0  0  0  0
   -3.2553   25.9023  -27.1073 H   0  0  0  0  0  0  0  0  0  0  0  0
   -2.3823   24.4121  -26.5878 H   0  0  0  0  0  0  0  0  0  0  0  0
   -0.7685   23.9980  -29.7302 H   0  0  0  0  0  0  0  0  0  0  0  0
   -0.5378   23.7202  -27.9382 H   0  0  0  0  0  0  0  0  0  0  0  0
   -1.9144   22.0362  -29.6426 H   0  0  0  0  0  0  0  0  0  0  0  0
   -2.1106   22.1411  -27.8394 H   0  0  0  0  0  0  0  0  0  0  0  0
   -4.7740   21.3629  -32.1283 H   0  0  0  0  0  0  0  0  0  0  0  0
  1  2  1  0
  2  3  2  0
  3  4  1  0
  4  5  1  0
  5  6  2  0
  6  7  1  0
  7  8  2  0
  8  9  1  0
  8 10  1  0
 10 11  2  0
  4 12  2  0
 12 13  1  0
 13 14  1  0
 14 15  2  0
 14 16  2  0
 14 17  1  0
 17 18  1  0
 18 19  1  0
 19 20  2  0
 19 21  1  0
 21 22  1  0
 22 23  2  0
 23 24  1  0
 24 25  2  0
 25 26  1  0
 25 27  1  0
 27 28  1  0
 28 29  2  0
 28 30  2  0
 28 31  1  0
 31 32  1  0
 32 33  1  0
 33 34  1  0
 34 35  1  0
 35 36  1  0
 27 37  2  0
 13 38  2  0
 38  2  1  0
 11  5  1  0
 37 22  1  0
 36 31  1  0
  1 39  1  0
  1 40  1  0
  1 41  1  0
  3 42  1  0
  6 43  1  0
  7 44  1  0
 10 45  1  0
 11 46  1  0
 17 47  1  0
 17 48  1  0
 18 49  1  0
 18 50  1  0
 23 51  1  0
 24 52  1  0
 31 53  1  0
 32 54  1  0
 32 55  1  0
 33 56  1  0
 33 57  1  0
 35 58  1  0
 35 59  1  0
 36 60  1  0
 36 61  1  0
 37 62  1  0
M  CHG  2  21  -1  31   1
M  END
>  <UniqueID>  (13) 
12

>  <SMILES>  (13) 
Cc1cc(-c2ccc(Cl)cc2)nc(S(=O)(=O)CCC(=O)[N-]c2ccc(Cl)c(S(=O)(=O)[NH+]3CCOCC3)c2)n1

>  <Energy>  (13) 
81.12929520566225

>  <Genealogy>  (13) 
Cc1cc(-c2ccc(Cl)cc2)nc(S(=O)(=O)CCC(=O)[N-]c2ccc(Cl)c(S(=O)(=O)[NH+]3CCOCC3)c2)n1 (protonated)
Cc1cc(-c2ccc(Cl)cc2)nc(S(=O)(=O)CCC(=O)[N-]c2ccc(Cl)c(S(=O)(=O)[NH+]3CCOCC3)c2)n1 (3D coordinates assigned)
Cc1cc(-c2ccc(Cl)cc2)nc(S(=O)(=O)CCC(=O)[N-]c2ccc(Cl)c(S(=O)(=O)[NH+]3CCOCC3)c2)n1 (nonaromatic ring conformer: 81.12929520566225 kcal/mol)

>  <smiles>  (13) 
Cc1cc(-c2ccc(Cl)cc2)nc(S(=O)(=O)CCC(=O)Nc2ccc(Cl)c(S(=O)(=O)N3CCOCC3)c2)n1

>  <score_type>  (13) 
oracle

>  <origin>  (13) 
adgpu

>  <m_score__min__energy>  (13) 
-12.890000000000001

>  <m_primary>  (13) 
energy

$$$$
13:0
     RDKit          3D

 62 65  0  0  0  0  0  0  0  0999 V2000
   -1.0630   22.1130  -26.8070 C   0  0  0  0  0  0  0  0  0  0  0  0
   -2.1230   22.5950  -27.7490 C   0  0  0  0  0  0  0  0  0  0  0  0
   -3.4720   22.3090  -27.5000 C   0  0  0  0  0  0  0  0  0  0  0  0
   -4.4650   22.7840  -28.3630 C   0  0  0  0  0  0  0  0  0  0  0  0
   -4.1200   23.5650  -29.4720 C   0  0  0  0  0  0  0  0  0  0  0  0
   -5.3790   24.0970  -30.5800 S   0  0  0  0  0  0  0  0  0  0  0  0
   -5.0140   25.4120  -31.2100 O   0  0  0  0  0  0  0  0  0  0  0  0
   -6.6540   24.2730  -29.8060 O   0  0  0  0  0  0  0  0  0  0  0  0
   -5.5840   22.8930  -31.8190 N   0  0  0  0  0  0  0  0  0  0  0  0
   -6.7810   22.9380  -32.6630 C   0  0  0  0  0  0  0  0  0  0  0  0
   -7.8740   22.0990  -32.0620 C   0  0  0  0  0  0  0  0  0  0  0  0
   -9.0440   22.5850  -31.5110 C   0  0  0  0  0  0  0  0  0  0  0  0
   -9.8420   21.5460  -31.2190 N   0  0  0  0  0  0  0  0  0  0  0  0
   -9.2440   20.4170  -31.5540 N   0  0  0  0  0  0  0  0  0  0  0  0
   -8.0320   20.7170  -32.0660 C   0  0  0  0  0  0  0  0  0  0  0  0
   -7.0910   19.6900  -32.5620 C   0  0  0  0  0  0  0  0  0  0  0  0
   -6.5080   19.7890  -33.8380 C   0  0  0  0  0  0  0  0  0  0  0  0
   -5.6320   18.8000  -34.2910 C   0  0  0  0  0  0  0  0  0  0  0  0
   -5.3060   17.7210  -33.4650 C   0  0  0  0  0  0  0  0  0  0  0  0
   -5.8490   17.6340  -32.1800 C   0  0  0  0  0  0  0  0  0  0  0  0
   -6.7310   18.6200  -31.7250 C   0  0  0  0  0  0  0  0  0  0  0  0
   -4.5430   21.9360  -32.0680 C   0  0  0  0  0  0  0  0  0  0  0  0
   -3.8390   21.9520  -33.2780 C   0  0  0  0  0  0  0  0  0  0  0  0
   -2.8110   21.0340  -33.5100 C   0  0  0  0  0  0  0  0  0  0  0  0
   -2.4620   20.0670  -32.5420 C   0  0  0  0  0  0  0  0  0  0  0  0
   -1.3240   19.0720  -32.8390 C   0  0  0  0  0  0  0  0  0  0  0  0
   -0.4050   18.9550  -31.6050 C   0  0  0  0  0  0  0  0  0  0  0  0
   -0.4450   19.4950  -34.0390 C   0  0  0  0  0  0  0  0  0  0  0  0
   -1.9260   17.6890  -33.1630 C   0  0  0  0  0  0  0  0  0  0  0  0
   -3.1900   20.0630  -31.3270 C   0  0  0  0  0  0  0  0  0  0  0  0
   -4.2100   20.9860  -31.0960 C   0  0  0  0  0  0  0  0  0  0  0  0
   -2.7760   23.8720  -29.7100 C   0  0  0  0  0  0  0  0  0  0  0  0
   -1.7810   23.3940  -28.8500 C   0  0  0  0  0  0  0  0  0  0  0  0
   -1.3973   22.2650  -25.7701 H   0  0  0  0  0  0  0  0  0  0  0  0
   -0.8784   21.0424  -26.9795 H   0  0  0  0  0  0  0  0  0  0  0  0
   -0.1348   22.6776  -26.9795 H   0  0  0  0  0  0  0  0  0  0  0  0
   -3.7513   21.7082  -26.6219 H   0  0  0  0  0  0  0  0  0  0  0  0
   -5.5207   22.5429  -28.1694 H   0  0  0  0  0  0  0  0  0  0  0  0
   -7.1269   23.9788  -32.7472 H   0  0  0  0  0  0  0  0  0  0  0  0
   -6.5322   22.5423  -33.6588 H   0  0  0  0  0  0  0  0  0  0  0  0
   -9.2817   23.6454  -31.3403 H   0  0  0  0  0  0  0  0  0  0  0  0
  -10.8020   21.6050  -30.8110 H   0  0  0  0  0  0  0  0  0  0  0  0
   -6.7430   20.6492  -34.4821 H   0  0  0  0  0  0  0  0  0  0  0  0
   -5.1981   18.8705  -35.2993 H   0  0  0  0  0  0  0  0  0  0  0  0
   -4.6215   16.9395  -33.8264 H   0  0  0  0  0  0  0  0  0  0  0  0
   -5.5828   16.7902  -31.5264 H   0  0  0  0  0  0  0  0  0  0  0  0
   -7.1446   18.5575  -30.7076 H   0  0  0  0  0  0  0  0  0  0  0  0
   -4.0965   22.6914  -34.0506 H   0  0  0  0  0  0  0  0  0  0  0  0
   -2.2639   21.0653  -34.4638 H   0  0  0  0  0  0  0  0  0  0  0  0
   -1.0094   19.0319  -30.6891 H   0  0  0  0  0  0  0  0  0  0  0  0
    0.1113   17.9839  -31.6231 H   0  0  0  0  0  0  0  0  0  0  0  0
    0.3382   19.7658  -31.6231 H   0  0  0  0  0  0  0  0  0  0  0  0
    0.4886   19.9443  -33.6693 H   0  0  0  0  0  0  0  0  0  0  0  0
   -0.2097   18.6115  -34.6506 H   0  0  0  0  0  0  0  0  0  0  0  0
   -0.9886   20.2301  -34.6506 H   0  0  0  0  0  0  0  0  0  0  0  0
   -2.1560   17.1606  -32.2260 H   0  0  0  0  0  0  0  0  0  0  0  0
   -2.8491   17.8186  -33.7470 H   0  0  0  0  0  0  0  0  0  0  0  0
   -1.2021   17.1017  -33.7470 H   0  0  0  0  0  0  0  0  0  0  0  0
   -2.9471   19.3200  -30.5531 H   0  0  0  0  0  0  0  0  0  0  0  0
   -4.7571   20.9669  -30.1419 H   0  0  0  0  0  0  0  0  0  0  0  0
   -2.5004   24.4914  -30.5763 H   0  0  0  0  0  0  0  0  0  0  0  0
   -0.7268   23.6457  -29.0380 H   0  0  0  0  0  0  0  0  0  0  0  0
  1  2  1  0
  2  3  2  0
  3  4  1  0
  4  5  2  0
  5  6  1  0
  6  7  2  0
  6  8  2  0
  6  9  1  0
  9 10  1  0
 10 11  1  0
 11 12  2  0
 12 13  1  0
 13 14  1  0
 14 15  2  0
 15 16  1  0
 16 17  2  0
 17 18  1  0
 18 19  2  0
 19 20  1  0
 20 21  2  0
  9 22  1  0
 22 23  2  0
 23 24  1  0
 24 25  2  0
 25 26  1  0
 26 27  1  0
 26 28  1  0
 26 29  1  0
 25 30  1  0
 30 31  2  0
  5 32  1  0
 32 33  2  0
 33  2  1  0
 15 11  1  0
 21 16  1  0
 31 22  1  0
  1 34  1  0
  1 35  1  0
  1 36  1  0
  3 37  1  0
  4 38  1  0
 10 39  1  0
 10 40  1  0
 12 41  1  0
 13 42  1  0
 17 43  1  0
 18 44  1  0
 19 45  1  0
 20 46  1  0
 21 47  1  0
 23 48  1  0
 24 49  1  0
 27 50  1  0
 27 51  1  0
 27 52  1  0
 28 53  1  0
 28 54  1  0
 28 55  1  0
 29 56  1  0
 29 57  1  0
 29 58  1  0
 30 59  1  0
 31 60  1  0
 32 61  1  0
 33 62  1  0
M  END
>  <UniqueID>  (14) 
13

>  <SMILES>  (14) 
Cc1ccc(S(=O)(=O)N(Cc2c[nH]nc2-c2ccccc2)c2ccc(C(C)(C)C)cc2)cc1

>  <Energy>  (14) 
101.78509091518876

>  <Genealogy>  (14) 
Cc1ccc(S(=O)(=O)N(Cc2c[nH]nc2-c2ccccc2)c2ccc(C(C)(C)C)cc2)cc1 (3D coordinates assigned)
Cc1ccc(S(=O)(=O)N(Cc2c[nH]nc2-c2ccccc2)c2ccc(C(C)(C)C)cc2)cc1 (optimized conformer: 101.78509091518876 kcal/mol)

>  <smiles>  (14) 
Cc1ccc(S(=O)(=O)N(Cc2c[nH]nc2-c2ccccc2)c2ccc(C(C)(C)C)cc2)cc1

>  <score_type>  (14) 
oracle

>  <origin>  (14) 
adgpu

>  <m_score__min__energy>  (14) 
-10.68

>  <m_primary>  (14) 
energy

$$$$
14:0
     RDKit          3D

 33 35  0  0  0  0  0  0  0  0999 V2000
   -5.3340   20.8010  -33.4400 O   0  0  0  0  0  0  0  0  0  0  0  0
   -6.5480   20.3030  -32.9600 C   0  0  0  0  0  0  0  0  0  0  0  0
   -6.7170   18.9140  -32.9160 C   0  0  0  0  0  0  0  0  0  0  0  0
   -7.8890   18.3580  -32.4000 C   0  0  0  0  0  0  0  0  0  0  0  0
   -8.9050   19.1890  -31.9270 C   0  0  0  0  0  0  0  0  0  0  0  0
   -8.7560   20.5760  -31.9780 C   0  0  0  0  0  0  0  0  0  0  0  0
   -7.5820   21.1530  -32.4990 C   0  0  0  0  0  0  0  0  0  0  0  0
   -7.4510   22.5850  -32.5820 N   0  0  0  0  0  0  0  0  0  0  0  0
   -7.2220   23.4340  -31.4140 C   0  0  0  0  0  0  0  0  0  0  0  0
   -5.7930   23.5060  -31.1160 N   0  0  0  0  0  0  0  0  0  0  0  0
   -4.9300   22.5400  -31.3830 N   0  0  0  0  0  0  0  0  0  0  0  0
   -3.7240   23.0280  -31.0210 C   0  0  0  0  0  0  0  0  0  0  0  0
   -2.4550   22.2850  -31.1440 C   0  0  0  0  0  0  0  0  0  0  0  0
   -2.1670   21.5660  -32.3140 C   0  0  0  0  0  0  0  0  0  0  0  0
   -0.9620   20.8660  -32.4140 C   0  0  0  0  0  0  0  0  0  0  0  0
   -0.0760   20.8830  -31.3830 N   0  0  0  0  0  0  0  0  0  0  0  0
   -0.3280   21.5710  -30.2390 C   0  0  0  0  0  0  0  0  0  0  0  0
   -1.5200   22.2840  -30.0970 C   0  0  0  0  0  0  0  0  0  0  0  0
   -3.8220   24.2560  -30.5510 O   0  0  0  0  0  0  0  0  0  0  0  0
   -5.0980   24.5450  -30.6170 C   0  0  0  0  0  0  0  0  0  0  0  0
   -5.7380   25.9830  -30.1630 S   0  0  0  0  0  0  0  0  0  0  0  0
   -5.0840   21.7810  -33.4080 H   0  0  0  0  0  0  0  0  0  0  0  0
   -5.9198   18.2553  -33.2911 H   0  0  0  0  0  0  0  0  0  0  0  0
   -8.0113   17.2653  -32.3664 H   0  0  0  0  0  0  0  0  0  0  0  0
   -9.8250   18.7505  -31.5132 H   0  0  0  0  0  0  0  0  0  0  0  0
   -9.5636   21.2245  -31.6076 H   0  0  0  0  0  0  0  0  0  0  0  0
   -7.4740   23.0500  -33.5160 H   0  0  0  0  0  0  0  0  0  0  0  0
   -7.6019   24.4456  -31.6198 H   0  0  0  0  0  0  0  0  0  0  0  0
   -7.7483   23.0046  -30.5488 H   0  0  0  0  0  0  0  0  0  0  0  0
   -2.8852   21.5535  -33.1470 H   0  0  0  0  0  0  0  0  0  0  0  0
   -0.7298   20.3003  -33.3283 H   0  0  0  0  0  0  0  0  0  0  0  0
    0.4090   21.5663  -29.4224 H   0  0  0  0  0  0  0  0  0  0  0  0
   -1.7250   22.8412  -29.1710 H   0  0  0  0  0  0  0  0  0  0  0  0
  1  2  1  0
  2  3  2  0
  3  4  1  0
  4  5  2  0
  5  6  1  0
  6  7  2  0
  7  8  1  0
  8  9  1  0
  9 10  1  0
 10 11  1  0
 11 12  2  0
 12 13  1  0
 13 14  2  0
 14 15  1  0
 15 16  2  0
 16 17  1  0
 17 18  2  0
 12 19  1  0
 19 20  1  0
 20 21  2  0
  7  2  1  0
 20 10  1  0
 18 13  1  0
  1 22  1  0
  3 23  1  0
  4 24  1  0
  5 25  1  0
  6 26  1  0
  8 27  1  0
  9 28  1  0
  9 29  1  0
 14 30  1  0
 15 31  1  0
 17 32  1  0
 18 33  1  0
M  END
>  <UniqueID>  (15) 
14

>  <SMILES>  (15) 
Oc1ccccc1NCn1nc(-c2ccncc2)oc1=S

>  <Energy>  (15) 
74.59191652988443

>  <Genealogy>  (15) 
Oc1ccccc1NCn1nc(-c2ccncc2)oc1=S (3D coordinates assigned)
Oc1ccccc1NCn1nc(-c2ccncc2)oc1=S (optimized conformer: 74.59191652988443 kcal/mol)

>  <smiles>  (15) 
Oc1ccccc1NCn1nc(-c2ccncc2)oc1=S

>  <score_type>  (15) 
oracle

>  <origin>  (15) 
adgpu

>  <m_score__min__energy>  (15) 
-8.0399999999999991

>  <m_primary>  (15) 
energy

$$$$
15:0
     RDKit          3D

 54 57  0  0  0  0  0  0  0  0999 V2000
   -6.1030   25.6950  -30.8340 O   0  0  0  0  0  0  0  0  0  0  0  0
   -5.1260   24.9280  -31.0440 C   0  0  0  0  0  0  0  0  0  0  0  0
   -5.2990   23.7970  -31.9030 N   0  0  0  0  0  0  0  0  0  0  0  0
   -6.4820   22.9970  -32.0030 C   0  0  0  0  0  0  0  0  0  0  0  0
   -7.7240   23.6090  -31.8070 C   0  0  0  0  0  0  0  0  0  0  0  0
   -8.8940   22.8550  -31.8640 C   0  0  0  0  0  0  0  0  0  0  0  0
   -8.8380   21.4780  -32.0960 C   0  0  0  0  0  0  0  0  0  0  0  0
  -10.0240   20.7520  -32.1180 O   0  0  0  0  0  0  0  0  0  0  0  0
   -7.5950   20.8390  -32.2830 C   0  0  0  0  0  0  0  0  0  0  0  0
   -7.5480   19.0720  -32.4900 S   0  0  0  0  0  0  0  0  0  0  0  0
   -7.3690   18.4430  -31.1380 O   0  0  0  0  0  0  0  0  0  0  0  0
   -8.8690   18.6280  -33.0500 O   0  0  0  0  0  0  0  0  0  0  0  0
   -6.3060   18.4740  -33.5690 N   0  0  0  0  0  0  0  0  0  0  0  0
   -6.4900   17.0430  -33.8990 C   0  0  0  0  0  0  0  0  0  0  0  0
   -5.1660   16.3180  -34.2100 C   0  0  0  0  0  0  0  0  0  0  0  0
   -4.1940   17.2370  -34.9600 C   0  0  0  0  0  0  0  0  0  0  0  0
   -3.9400   18.5660  -34.2210 C   0  0  0  0  0  0  0  0  0  0  0  0
   -4.9570   18.8300  -33.1020 C   0  0  0  0  0  0  0  0  0  0  0  0
   -6.4180   21.6090  -32.2200 C   0  0  0  0  0  0  0  0  0  0  0  0
   -3.8520   25.2100  -30.4510 N   0  0  0  0  0  0  0  0  0  0  0  0
   -3.1830   24.3630  -29.5050 C   0  0  0  0  0  0  0  0  0  0  0  0
   -3.6170   23.0450  -29.3640 C   0  0  0  0  0  0  0  0  0  0  0  0
   -2.9910   22.1880  -28.4610 C   0  0  0  0  0  0  0  0  0  0  0  0
   -1.9050   22.6260  -27.6990 C   0  0  0  0  0  0  0  0  0  0  0  0
   -1.2310   21.5000  -26.5250 Cl  0  0  0  0  0  0  0  0  0  0  0  0
   -1.4120   23.9410  -27.8640 C   0  0  0  0  0  0  0  0  0  0  0  0
   -0.0050   24.5110  -26.9320 S   0  0  0  0  0  0  0  0  0  0  0  0
    0.8870   23.3460  -26.6110 O   0  0  0  0  0  0  0  0  0  0  0  0
    0.8020   25.4760  -27.7570 O   0  0  0  0  0  0  0  0  0  0  0  0
   -0.4550   25.3270  -25.4000 C   0  0  0  0  0  0  0  0  0  0  0  0
   -1.8820   25.8350  -25.2720 C   0  0  0  0  0  0  0  0  0  0  0  0
   -0.7520   26.8080  -25.5640 C   0  0  0  0  0  0  0  0  0  0  0  0
   -2.0630   24.8080  -28.7740 C   0  0  0  0  0  0  0  0  0  0  0  0
   -1.5850   26.0990  -28.9720 O   0  0  0  0  0  0  0  0  0  0  0  0
   -7.7773   24.6894  -31.6071 H   0  0  0  0  0  0  0  0  0  0  0  0
   -9.8682   23.3466  -31.7255 H   0  0  0  0  0  0  0  0  0  0  0  0
   -6.9687   16.5452  -33.0428 H   0  0  0  0  0  0  0  0  0  0  0  0
   -7.1114   16.9932  -34.8053 H   0  0  0  0  0  0  0  0  0  0  0  0
   -4.7014   15.9984  -33.2655 H   0  0  0  0  0  0  0  0  0  0  0  0
   -5.3859   15.4488  -34.8473 H   0  0  0  0  0  0  0  0  0  0  0  0
   -3.2348   16.7120  -35.0793 H   0  0  0  0  0  0  0  0  0  0  0  0
   -4.6493   17.4794  -35.9316 H   0  0  0  0  0  0  0  0  0  0  0  0
   -2.9327   18.5357  -33.7801 H   0  0  0  0  0  0  0  0  0  0  0  0
   -4.0400   19.3776  -34.9567 H   0  0  0  0  0  0  0  0  0  0  0  0
   -4.7009   18.2204  -32.2229 H   0  0  0  0  0  0  0  0  0  0  0  0
   -4.9333   19.8955  -32.8299 H   0  0  0  0  0  0  0  0  0  0  0  0
   -5.4399   21.1207  -32.3416 H   0  0  0  0  0  0  0  0  0  0  0  0
   -4.4593   22.6795  -29.9698 H   0  0  0  0  0  0  0  0  0  0  0  0
   -3.3555   21.1564  -28.3470 H   0  0  0  0  0  0  0  0  0  0  0  0
    0.1884   24.7050  -24.7604 H   0  0  0  0  0  0  0  0  0  0  0  0
   -2.6214   25.6006  -26.0520 H   0  0  0  0  0  0  0  0  0  0  0  0
   -2.6677   25.7626  -24.5056 H   0  0  0  0  0  0  0  0  0  0  0  0
   -0.6735   27.2781  -26.5554 H   0  0  0  0  0  0  0  0  0  0  0  0
   -0.3811   27.7320  -25.0963 H   0  0  0  0  0  0  0  0  0  0  0  0
  1  2  2  0
  2  3  1  0
  3  4  1  0
  4  5  2  0
  5  6  1  0
  6  7  2  0
  7  8  1  0
  7  9  1  0
  9 10  1  0
 10 11  2  0
 10 12  2  0
 10 13  1  0
 13 14  1  0
 14 15  1  0
 15 16  1  0
 16 17  1  0
 17 18  1  0
  9 19  2  0
  2 20  1  0
 20 21  1  0
 21 22  2  0
 22 23  1  0
 23 24  2  0
 24 25  1  0
 24 26  1  0
 26 27  1  0
 27 28  2  0
 27 29  2  0
 27 30  1  0
 30 31  1  0
 31 32  1  0
 26 33  2  0
 33 34  1  0
 19  4  1  0
 33 21  1  0
 18 13  1  0
 32 30  1  0
  5 35  1  0
  6 36  1  0
 14 37  1  0
 14 38  1  0
 15 39  1  0
 15 40  1  0
 16 41  1  0
 16 42  1  0
 17 43  1  0
 17 44  1  0
 18 45  1  0
 18 46  1  0
 19 47  1  0
 22 48  1  0
 23 49  1  0
 30 50  1  0
 31 51  1  0
 31 52  1  0
 32 53  1  0
 32 54  1  0
M  CHG  4   3  -1   8  -1  20  -1  34  -1
M  END
>  <UniqueID>  (16) 
15

>  <SMILES>  (16) 
O=C([N-]c1ccc([O-])c(S(=O)(=O)N2CCCCC2)c1)[N-]c1ccc(Cl)c(S(=O)(=O)C2CC2)c1[O-]

>  <Energy>  (16) 
338.69533924370677

>  <Genealogy>  (16) 
O=C([N-]c1ccc([O-])c(S(=O)(=O)N2CCCCC2)c1)[N-]c1ccc(Cl)c(S(=O)(=O)C2CC2)c1[O-] (protonated)
O=C([N-]c1ccc([O-])c(S(=O)(=O)N2CCCCC2)c1)[N-]c1ccc(Cl)c(S(=O)(=O)C2CC2)c1[O-] (3D coordinates assigned)
O=C([N-]c1ccc([O-])c(S(=O)(=O)N2CCCCC2)c1)[N-]c1ccc(Cl)c(S(=O)(=O)C2CC2)c1[O-] (nonaromatic ring conformer: 338.69533924370677 kcal/mol)

>  <smiles>  (16) 
O=C(Nc1ccc(O)c(S(=O)(=O)N2CCCCC2)c1)Nc1ccc(Cl)c(S(=O)(=O)C2CC2)c1O

>  <score_type>  (16) 
oracle

>  <origin>  (16) 
adgpu

>  <m_score__min__energy>  (16) 
-16.48

>  <m_primary>  (16) 
energy

$$$$
16:0
     RDKit          3D

 43 45  0  0  0  0  0  0  0  0999 V2000
   -4.6980   24.7100  -31.2090 O   0  0  0  0  0  0  0  0  0  0  0  0
   -5.7880   23.8690  -30.6030 S   0  0  0  0  0  0  0  0  0  0  0  0
   -7.0690   24.6570  -30.5980 O   0  0  0  0  0  0  0  0  0  0  0  0
   -5.3650   23.4670  -28.9660 N   0  0  0  0  0  0  0  0  0  0  0  0
   -4.0130   23.2530  -28.5190 C   0  0  0  0  0  0  0  0  0  0  0  0
   -3.5930   21.9510  -28.2030 C   0  0  0  0  0  0  0  0  0  0  0  0
   -2.2930   21.7150  -27.7480 C   0  0  0  0  0  0  0  0  0  0  0  0
   -1.3970   22.7770  -27.6060 C   0  0  0  0  0  0  0  0  0  0  0  0
   -1.7970   24.0800  -27.9270 C   0  0  0  0  0  0  0  0  0  0  0  0
   -0.6850   25.4370  -27.7580 S   0  0  0  0  0  0  0  0  0  0  0  0
   -0.9090   26.4330  -28.8650 O   0  0  0  0  0  0  0  0  0  0  0  0
    0.7220   24.9140  -27.8490 O   0  0  0  0  0  0  0  0  0  0  0  0
   -0.9300   26.2050  -26.2080 N   0  0  0  0  0  0  0  0  0  0  0  0
   -0.4060   27.5830  -26.2370 C   0  0  0  0  0  0  0  0  0  0  0  0
   -0.3270   28.1710  -24.8130 C   0  0  0  0  0  0  0  0  0  0  0  0
   -1.0720   27.3880  -23.9010 O   0  0  0  0  0  0  0  0  0  0  0  0
   -0.4880   26.1030  -23.7820 C   0  0  0  0  0  0  0  0  0  0  0  0
   -0.2630   25.4280  -25.1540 C   0  0  0  0  0  0  0  0  0  0  0  0
   -3.0980   24.3150  -28.3890 C   0  0  0  0  0  0  0  0  0  0  0  0
   -5.9650   22.3980  -31.5590 C   0  0  0  0  0  0  0  0  0  0  0  0
   -4.8950   21.9140  -32.3250 C   0  0  0  0  0  0  0  0  0  0  0  0
   -5.0530   20.7620  -33.1050 C   0  0  0  0  0  0  0  0  0  0  0  0
   -6.2810   20.0900  -33.1230 C   0  0  0  0  0  0  0  0  0  0  0  0
   -7.3520   20.5660  -32.3580 C   0  0  0  0  0  0  0  0  0  0  0  0
   -8.8930   19.7210  -32.3760 Cl  0  0  0  0  0  0  0  0  0  0  0  0
   -7.1930   21.7170  -31.5750 C   0  0  0  0  0  0  0  0  0  0  0  0
   -6.1370   23.4730  -28.2620 H   0  0  0  0  0  0  0  0  0  0  0  0
   -4.2930   21.1099  -28.3145 H   0  0  0  0  0  0  0  0  0  0  0  0
   -1.9749   20.6913  -27.5013 H   0  0  0  0  0  0  0  0  0  0  0  0
   -0.3761   22.5896  -27.2417 H   0  0  0  0  0  0  0  0  0  0  0  0
    0.6006   27.5764  -26.6805 H   0  0  0  0  0  0  0  0  0  0  0  0
   -1.0858   28.2054  -26.8374 H   0  0  0  0  0  0  0  0  0  0  0  0
    0.7246   28.1953  -24.4913 H   0  0  0  0  0  0  0  0  0  0  0  0
   -0.7478   29.1872  -24.8288 H   0  0  0  0  0  0  0  0  0  0  0  0
    0.4825   26.2019  -23.2737 H   0  0  0  0  0  0  0  0  0  0  0  0
   -1.1818   25.4715  -23.2076 H   0  0  0  0  0  0  0  0  0  0  0  0
    0.8156   25.3789  -25.3640 H   0  0  0  0  0  0  0  0  0  0  0  0
   -0.6836   24.4118  -25.1315 H   0  0  0  0  0  0  0  0  0  0  0  0
   -3.4073   25.3372  -28.6523 H   0  0  0  0  0  0  0  0  0  0  0  0
   -3.9293   22.4405  -32.3131 H   0  0  0  0  0  0  0  0  0  0  0  0
   -4.2113   20.3846  -33.7043 H   0  0  0  0  0  0  0  0  0  0  0  0
   -6.4043   19.1870  -33.7390 H   0  0  0  0  0  0  0  0  0  0  0  0
   -8.0334   22.0887  -30.9704 H   0  0  0  0  0  0  0  0  0  0  0  0
  1  2  2  0
  2  3  2  0
  2  4  1  0
  4  5  1  0
  5  6  2  0
  6  7  1  0
  7  8  2  0
  8  9  1  0
  9 10  1  0
 10 11  2  0
 10 12  2  0
 10 13  1  0
 13 14  1  0
 14 15  1  0
 15 16  1  0
 16 17  1  0
 17 18  1  0
  9 19  2  0
  2 20  1  0
 20 21  2  0
 21 22  1  0
 22 23  2  0
 23 24  1  0
 24 25  1  0
 24 26  2  0
 19  5  1  0
 26 20  1  0
 18 13  1  0
  4 27  1  0
  6 28  1  0
  7 29  1  0
  8 30  1  0
 14 31  1  0
 14 32  1  0
 15 33  1  0
 15 34  1  0
 17 35  1  0
 17 36  1  0
 18 37  1  0
 18 38  1  0
 19 39  1  0
 21 40  1  0
 22 41  1  0
 23 42  1  0
 26 43  1  0
M  END
>  <UniqueID>  (17) 
16

>  <SMILES>  (17) 
O=S(=O)(Nc1cccc(S(=O)(=O)N2CCOCC2)c1)c1cccc(Cl)c1

>  <Energy>  (17) 
53.07025034215441

>  <Genealogy>  (17) 
O=S(=O)(Nc1cccc(S(=O)(=O)N2CCOCC2)c1)c1cccc(Cl)c1 (3D coordinates assigned)
O=S(=O)(Nc1cccc(S(=O)(=O)N2CCOCC2)c1)c1cccc(Cl)c1 (nonaromatic ring conformer: 53.07025034215441 kcal/mol)

>  <smiles>  (17) 
O=S(=O)(Nc1cccc(S(=O)(=O)N2CCOCC2)c1)c1cccc(Cl)c1

>  <score_type>  (17) 
oracle

>  <origin>  (17) 
adgpu

>  <m_score__min__energy>  (17) 
-10.140000000000001

>  <m_primary>  (17) 
energy

$$$$
17:0
     RDKit          3D

 38 40  0  0  0  0  0  0  0  0999 V2000
   -3.8600   25.2900  -30.8440 O   0  0  0  0  0  0  0  0  0  0  0  0
   -4.1660   24.1450  -30.4140 C   0  0  0  0  0  0  0  0  0  0  0  0
   -5.1650   24.0550  -29.2900 C   0  0  0  0  0  0  0  0  0  0  0  0
   -6.6940   24.9540  -29.7270 S   0  0  0  0  0  0  0  0  0  0  0  0
   -7.2630   23.7170  -30.8910 C   0  0  0  0  0  0  0  0  0  0  0  0
   -6.9690   23.7230  -32.2040 N   0  0  0  0  0  0  0  0  0  0  0  0
   -7.5750   22.6660  -32.7200 N   0  0  0  0  0  0  0  0  0  0  0  0
   -8.2070   22.0550  -31.6990 C   0  0  0  0  0  0  0  0  0  0  0  0
   -9.0420   20.8230  -31.8450 C   0  0  0  0  0  0  0  0  0  0  0  0
   -8.5580   20.0020  -32.9550 N   0  0  0  0  0  0  0  0  0  0  0  0
   -7.4060   19.1370  -32.8840 C   0  0  0  0  0  0  0  0  0  0  0  0
   -6.4280   19.2100  -33.8920 C   0  0  0  0  0  0  0  0  0  0  0  0
   -5.3030   18.3800  -33.8510 C   0  0  0  0  0  0  0  0  0  0  0  0
   -5.1430   17.4660  -32.8050 C   0  0  0  0  0  0  0  0  0  0  0  0
   -6.1060   17.3850  -31.7930 C   0  0  0  0  0  0  0  0  0  0  0  0
   -7.2320   18.2150  -31.8280 C   0  0  0  0  0  0  0  0  0  0  0  0
   -8.0210   22.6980  -30.5710 O   0  0  0  0  0  0  0  0  0  0  0  0
   -3.6250   22.9470  -31.1050 C   0  0  0  0  0  0  0  0  0  0  0  0
   -4.3180   22.4140  -32.2090 C   0  0  0  0  0  0  0  0  0  0  0  0
   -3.8450   21.2720  -32.8610 C   0  0  0  0  0  0  0  0  0  0  0  0
   -2.6740   20.6490  -32.4250 C   0  0  0  0  0  0  0  0  0  0  0  0
   -1.9720   21.1710  -31.3380 C   0  0  0  0  0  0  0  0  0  0  0  0
   -2.4390   22.3150  -30.6810 C   0  0  0  0  0  0  0  0  0  0  0  0
   -5.4063   22.9983  -29.1028 H   0  0  0  0  0  0  0  0  0  0  0  0
   -4.7294   24.5078  -28.3871 H   0  0  0  0  0  0  0  0  0  0  0  0
   -8.9908   20.2391  -30.9142 H   0  0  0  0  0  0  0  0  0  0  0  0
  -10.0808   21.1207  -32.0505 H   0  0  0  0  0  0  0  0  0  0  0  0
   -9.0890   20.0540  -33.8570 H   0  0  0  0  0  0  0  0  0  0  0  0
   -6.5488   19.9253  -34.7189 H   0  0  0  0  0  0  0  0  0  0  0  0
   -4.5427   18.4464  -34.6431 H   0  0  0  0  0  0  0  0  0  0  0  0
   -4.2600   16.8106  -32.7776 H   0  0  0  0  0  0  0  0  0  0  0  0
   -5.9777   16.6679  -30.9688 H   0  0  0  0  0  0  0  0  0  0  0  0
   -7.9854   18.1492  -31.0292 H   0  0  0  0  0  0  0  0  0  0  0  0
   -5.2395   22.9007  -32.5611 H   0  0  0  0  0  0  0  0  0  0  0  0
   -4.3968   20.8628  -33.7201 H   0  0  0  0  0  0  0  0  0  0  0  0
   -2.3055   19.7482  -32.9376 H   0  0  0  0  0  0  0  0  0  0  0  0
   -1.0481   20.6815  -30.9962 H   0  0  0  0  0  0  0  0  0  0  0  0
   -1.8768   22.7234  -29.8283 H   0  0  0  0  0  0  0  0  0  0  0  0
  1  2  2  0
  2  3  1  0
  3  4  1  0
  4  5  1  0
  5  6  2  0
  6  7  1  0
  7  8  2  0
  8  9  1  0
  9 10  1  0
 10 11  1  0
 11 12  2  0
 12 13  1  0
 13 14  2  0
 14 15  1  0
 15 16  2  0
  8 17  1  0
  2 18  1  0
 18 19  2  0
 19 20  1  0
 20 21  2  0
 21 22  1  0
 22 23  2  0
 17  5  1  0
 23 18  1  0
 16 11  1  0
  3 24  1  0
  3 25  1  0
  9 26  1  0
  9 27  1  0
 10 28  1  0
 12 29  1  0
 13 30  1  0
 14 31  1  0
 15 32  1  0
 16 33  1  0
 19 34  1  0
 20 35  1  0
 21 36  1  0
 22 37  1  0
 23 38  1  0
M  END
>  <UniqueID>  (18) 
17

>  <SMILES>  (18) 
O=C(CSc1nnc(CNc2ccccc2)o1)c1ccccc1

>  <Energy>  (18) 
70.00211495115062

>  <Genealogy>  (18) 
O=C(CSc1nnc(CNc2ccccc2)o1)c1ccccc1 (3D coordinates assigned)
O=C(CSc1nnc(CNc2ccccc2)o1)c1ccccc1 (optimized conformer: 70.00211495115062 kcal/mol)

>  <smiles>  (18) 
O=C(CSc1nnc(CNc2ccccc2)o1)c1ccccc1

>  <score_type>  (18) 
oracle

>  <origin>  (18) 
adgpu

>  <m_score__min__energy>  (18) 
-9.25

>  <m_primary>  (18) 
energy

$$$$
18:0
     RDKit          3D

 62 65  0  0  0  0  0  0  0  0999 V2000
   -4.3750   14.6720  -33.3090 C   0  0  0  0  0  0  0  0  0  0  0  0
   -5.3780   15.7220  -32.9360 C   0  0  0  0  0  0  0  0  0  0  0  0
   -6.2750   16.2230  -33.8910 C   0  0  0  0  0  0  0  0  0  0  0  0
   -7.2200   17.1910  -33.5330 C   0  0  0  0  0  0  0  0  0  0  0  0
   -7.2950   17.6570  -32.2090 C   0  0  0  0  0  0  0  0  0  0  0  0
   -8.3780   18.6400  -31.7940 C   0  0  0  0  0  0  0  0  0  0  0  0
   -8.3110   19.9640  -32.4750 N   0  0  2  0  0  0  0  0  0  0  0  0
   -6.9140   20.4580  -32.6220 C   0  0  0  0  0  0  0  0  0  0  0  0
   -6.8360   21.9840  -32.7850 C   0  0  0  0  0  0  0  0  0  0  0  0
   -7.4520   22.7240  -31.5700 C   0  0  2  0  0  0  0  0  0  0  0  0
   -6.3980   23.1110  -30.5110 C   0  0  0  0  0  0  0  0  0  0  0  0
   -5.3060   23.8700  -31.1180 N   0  0  0  0  0  0  0  0  0  0  0  0
   -3.9800   24.0020  -30.5950 C   0  0  0  0  0  0  0  0  0  0  0  0
   -3.5030   25.1580  -30.4690 O   0  0  0  0  0  0  0  0  0  0  0  0
   -3.1430   22.8220  -30.2710 C   0  0  0  0  0  0  0  0  0  0  0  0
   -2.7050   22.6420  -28.9470 C   0  0  0  0  0  0  0  0  0  0  0  0
   -1.8690   21.5770  -28.6100 C   0  0  0  0  0  0  0  0  0  0  0  0
   -1.4540   20.6780  -29.5920 C   0  0  0  0  0  0  0  0  0  0  0  0
   -1.8990   20.8260  -30.9060 C   0  0  0  0  0  0  0  0  0  0  0  0
   -2.7750   21.8670  -31.2510 C   0  0  0  0  0  0  0  0  0  0  0  0
   -3.3640   21.9710  -32.9520 S   0  0  0  0  0  0  0  0  0  0  0  0
   -2.7910   20.3150  -33.3910 C   0  0  0  0  0  0  0  0  0  0  0  0
   -3.6100   19.2060  -33.1340 C   0  0  0  0  0  0  0  0  0  0  0  0
   -3.1780   17.9170  -33.4520 C   0  0  0  0  0  0  0  0  0  0  0  0
   -1.9280   17.7250  -34.0420 C   0  0  0  0  0  0  0  0  0  0  0  0
   -1.1090   18.8210  -34.3220 C   0  0  0  0  0  0  0  0  0  0  0  0
   -1.5350   20.1180  -34.0040 C   0  0  0  0  0  0  0  0  0  0  0  0
   -0.6810   21.2330  -34.3350 C   0  0  0  0  0  0  0  0  0  0  0  0
    0.0050   22.1270  -34.6010 N   0  0  0  0  0  0  0  0  0  0  0  0
   -8.6100   21.9280  -30.9260 C   0  0  0  0  0  0  0  0  0  0  0  0
   -9.2670   20.9640  -31.9230 C   0  0  0  0  0  0  0  0  0  0  0  0
   -6.3370   17.2160  -31.2800 C   0  0  0  0  0  0  0  0  0  0  0  0
   -5.3900   16.2520  -31.6390 C   0  0  0  0  0  0  0  0  0  0  0  0
   -3.9515   14.2286  -32.3957 H   0  0  0  0  0  0  0  0  0  0  0  0
   -4.8683   13.8881  -33.9025 H   0  0  0  0  0  0  0  0  0  0  0  0
   -3.5694   15.1289  -33.9025 H   0  0  0  0  0  0  0  0  0  0  0  0
   -6.2354   15.8532  -34.9262 H   0  0  0  0  0  0  0  0  0  0  0  0
   -7.9085   17.5898  -34.2925 H   0  0  0  0  0  0  0  0  0  0  0  0
   -9.3554   18.1881  -32.0187 H   0  0  0  0  0  0  0  0  0  0  0  0
   -8.2274   18.8340  -30.7218 H   0  0  0  0  0  0  0  0  0  0  0  0
   -8.6460   19.7760  -33.4510 H   0  0  0  0  0  0  0  0  0  0  0  0
   -6.3435   20.1706  -31.7265 H   0  0  0  0  0  0  0  0  0  0  0  0
   -6.4971   20.0058  -33.5340 H   0  0  0  0  0  0  0  0  0  0  0  0
   -5.7807   22.2782  -32.8837 H   0  0  0  0  0  0  0  0  0  0  0  0
   -7.4090   22.2622  -33.6818 H   0  0  0  0  0  0  0  0  0  0  0  0
   -7.8694   23.6589  -31.9722 H   0  0  0  0  0  0  0  0  0  0  0  0
   -6.8762   23.7258  -29.7342 H   0  0  0  0  0  0  0  0  0  0  0  0
   -5.9858   22.1908  -30.0714 H   0  0  0  0  0  0  0  0  0  0  0  0
   -3.0253   23.3492  -28.1677 H   0  0  0  0  0  0  0  0  0  0  0  0
   -1.5371   21.4464  -27.5694 H   0  0  0  0  0  0  0  0  0  0  0  0
   -0.7759   19.8523  -29.3306 H   0  0  0  0  0  0  0  0  0  0  0  0
   -1.5602   20.1203  -31.6788 H   0  0  0  0  0  0  0  0  0  0  0  0
   -4.6004   19.3528  -32.6784 H   0  0  0  0  0  0  0  0  0  0  0  0
   -3.8232   17.0524  -33.2374 H   0  0  0  0  0  0  0  0  0  0  0  0
   -1.5871   16.7083  -34.2870 H   0  0  0  0  0  0  0  0  0  0  0  0
   -0.1272   18.6661  -34.7932 H   0  0  0  0  0  0  0  0  0  0  0  0
   -8.2148   21.3483  -30.0788 H   0  0  0  0  0  0  0  0  0  0  0  0
   -9.3736   22.6466  -30.5936 H   0  0  0  0  0  0  0  0  0  0  0  0
  -10.0792   20.4279  -31.4103 H   0  0  0  0  0  0  0  0  0  0  0  0
   -9.6418   21.5638  -32.7655 H   0  0  0  0  0  0  0  0  0  0  0  0
   -6.3322   17.6327  -30.2620 H   0  0  0  0  0  0  0  0  0  0  0  0
   -4.6512   15.9082  -30.9000 H   0  0  0  0  0  0  0  0  0  0  0  0
  1  2  1  0
  2  3  2  0
  3  4  1  0
  4  5  2  0
  5  6  1  0
  6  7  1  0
  7  8  1  0
  8  9  1  0
  9 10  1  0
 10 11  1  0
 11 12  1  0
 12 13  1  0
 13 14  2  0
 13 15  1  0
 15 16  2  0
 16 17  1  0
 17 18  2  0
 18 19  1  0
 19 20  2  0
 20 21  1  0
 21 22  1  0
 22 23  2  0
 23 24  1  0
 24 25  2  0
 25 26  1  0
 26 27  2  0
 27 28  1  0
 28 29  3  0
 10 30  1  0
 30 31  1  0
  5 32  1  0
 32 33  2  0
 33  2  1  0
 31  7  1  0
 20 15  1  0
 27 22  1  0
  1 34  1  0
  1 35  1  0
  1 36  1  0
  3 37  1  0
  4 38  1  0
  6 39  1  0
  6 40  1  0
  7 41  1  6
  8 42  1  0
  8 43  1  0
  9 44  1  0
  9 45  1  0
 10 46  1  6
 11 47  1  0
 11 48  1  0
 16 49  1  0
 17 50  1  0
 18 51  1  0
 19 52  1  0
 23 53  1  0
 24 54  1  0
 25 55  1  0
 26 56  1  0
 30 57  1  0
 30 58  1  0
 31 59  1  0
 31 60  1  0
 32 61  1  0
 33 62  1  0
M  CHG  2   7   1  12  -1
M  END
>  <UniqueID>  (19) 
18

>  <SMILES>  (19) 
Cc1ccc(C[NH+]2CCC(C[N-]C(=O)c3ccccc3Sc3ccccc3C#N)CC2)cc1

>  <Energy>  (19) 
76.10353091928242

>  <Genealogy>  (19) 
Cc1ccc(C[NH+]2CCC(C[N-]C(=O)c3ccccc3Sc3ccccc3C#N)CC2)cc1 (protonated)
Cc1ccc(C[NH+]2CCC(C[N-]C(=O)c3ccccc3Sc3ccccc3C#N)CC2)cc1 (3D coordinates assigned)
Cc1ccc(C[NH+]2CCC(C[N-]C(=O)c3ccccc3Sc3ccccc3C#N)CC2)cc1 (nonaromatic ring conformer: 76.10353091928242 kcal/mol)

>  <smiles>  (19) 
Cc1ccc(CN2CCC(CNC(=O)c3ccccc3Sc3ccccc3C#N)CC2)cc1

>  <score_type>  (19) 
oracle

>  <origin>  (19) 
adgpu

>  <m_score__min__energy>  (19) 
-11.27

>  <m_primary>  (19) 
energy

$$$$
19:0
     RDKit          3D

 49 52  0  0  0  0  0  0  0  0999 V2000
   -6.4010   25.4290  -29.7260 C   0  0  0  0  0  0  0  0  0  0  0  0
   -5.8870   24.0910  -30.1940 C   0  0  0  0  0  0  0  0  0  0  0  0
   -6.7780   23.1990  -30.8130 C   0  0  0  0  0  0  0  0  0  0  0  0
   -6.3300   21.9450  -31.2600 C   0  0  0  0  0  0  0  0  0  0  0  0
   -7.2240   21.0090  -31.9010 N   0  0  0  0  0  0  0  0  0  0  0  0
   -6.7040   19.8950  -32.7080 C   0  0  0  0  0  0  0  0  0  0  0  0
   -7.7060   18.7360  -32.7220 C   0  0  0  0  0  0  0  0  0  0  0  0
   -8.9950   19.1890  -33.0860 O   0  0  0  0  0  0  0  0  0  0  0  0
   -9.4880   20.0620  -32.0880 C   0  0  0  0  0  0  0  0  0  0  0  0
   -8.6490   21.3410  -32.0220 C   0  0  0  0  0  0  0  0  0  0  0  0
   -5.0270   21.6040  -31.0750 N   0  0  0  0  0  0  0  0  0  0  0  0
   -4.1310   22.4330  -30.4800 C   0  0  0  0  0  0  0  0  0  0  0  0
   -2.8060   22.0190  -30.3290 C   0  0  0  0  0  0  0  0  0  0  0  0
   -1.8700   22.8560  -29.7210 C   0  0  0  0  0  0  0  0  0  0  0  0
   -2.2480   24.1240  -29.2480 C   0  0  0  0  0  0  0  0  0  0  0  0
   -1.2570   25.0230  -28.6080 C   0  0  0  0  0  0  0  0  0  0  0  0
   -1.1970   26.2320  -28.9640 O   0  0  0  0  0  0  0  0  0  0  0  0
   -0.3740   24.5420  -27.5810 N   0  0  0  0  0  0  0  0  0  0  0  0
    0.7610   25.3250  -27.1010 C   0  0  0  0  0  0  0  0  0  0  0  0
    0.4250   25.9760  -25.7880 C   0  0  0  0  0  0  0  0  0  0  0  0
   -0.8950   25.9790  -25.3170 C   0  0  0  0  0  0  0  0  0  0  0  0
   -1.1960   26.5630  -24.0850 C   0  0  0  0  0  0  0  0  0  0  0  0
   -0.1700   27.1370  -23.3310 C   0  0  0  0  0  0  0  0  0  0  0  0
    1.1070   27.1200  -23.7970 N   0  0  0  0  0  0  0  0  0  0  0  0
    1.4250   26.5570  -24.9940 C   0  0  0  0  0  0  0  0  0  0  0  0
   -3.5800   24.5460  -29.4100 C   0  0  0  0  0  0  0  0  0  0  0  0
   -4.5360   23.7080  -30.0230 C   0  0  0  0  0  0  0  0  0  0  0  0
   -6.4106   25.4539  -28.6263 H   0  0  0  0  0  0  0  0  0  0  0  0
   -5.7453   26.2267  -30.1051 H   0  0  0  0  0  0  0  0  0  0  0  0
   -7.4221   25.5825  -30.1051 H   0  0  0  0  0  0  0  0  0  0  0  0
   -7.8318   23.4838  -30.9484 H   0  0  0  0  0  0  0  0  0  0  0  0
   -6.5350   20.2412  -33.7384 H   0  0  0  0  0  0  0  0  0  0  0  0
   -5.7583   19.5453  -32.2683 H   0  0  0  0  0  0  0  0  0  0  0  0
   -7.3718   17.9795  -33.4473 H   0  0  0  0  0  0  0  0  0  0  0  0
   -7.7574   18.3030  -31.7121 H   0  0  0  0  0  0  0  0  0  0  0  0
  -10.5299   20.3258  -32.3222 H   0  0  0  0  0  0  0  0  0  0  0  0
   -9.4316   19.5526  -31.1147 H   0  0  0  0  0  0  0  0  0  0  0  0
   -8.8085   21.9275  -32.9388 H   0  0  0  0  0  0  0  0  0  0  0  0
   -8.9564   21.9260  -31.1426 H   0  0  0  0  0  0  0  0  0  0  0  0
   -2.4984   21.0271  -30.6916 H   0  0  0  0  0  0  0  0  0  0  0  0
   -0.8281   22.5208  -29.6111 H   0  0  0  0  0  0  0  0  0  0  0  0
   -0.5650   23.6250  -27.1210 H   0  0  0  0  0  0  0  0  0  0  0  0
    1.6286   24.6623  -26.9664 H   0  0  0  0  0  0  0  0  0  0  0  0
    0.9958   26.1061  -27.8391 H   0  0  0  0  0  0  0  0  0  0  0  0
   -1.6943   25.5210  -25.9182 H   0  0  0  0  0  0  0  0  0  0  0  0
   -2.2308   26.5709  -23.7120 H   0  0  0  0  0  0  0  0  0  0  0  0
   -0.3952   27.6028  -22.3602 H   0  0  0  0  0  0  0  0  0  0  0  0
    2.4691   26.5574  -25.3402 H   0  0  0  0  0  0  0  0  0  0  0  0
   -3.8806   25.5425  -29.0542 H   0  0  0  0  0  0  0  0  0  0  0  0
  1  2  1  0
  2  3  2  0
  3  4  1  0
  4  5  1  0
  5  6  1  0
  6  7  1  0
  7  8  1  0
  8  9  1  0
  9 10  1  0
  4 11  2  0
 11 12  1  0
 12 13  2  0
 13 14  1  0
 14 15  2  0
 15 16  1  0
 16 17  2  0
 16 18  1  0
 18 19  1  0
 19 20  1  0
 20 21  2  0
 21 22  1  0
 22 23  2  0
 23 24  1  0
 24 25  2  0
 15 26  1  0
 26 27  2  0
 27  2  1  0
 10  5  1  0
 27 12  1  0
 25 20  1  0
  1 28  1  0
  1 29  1  0
  1 30  1  0
  3 31  1  0
  6 32  1  0
  6 33  1  0
  7 34  1  0
  7 35  1  0
  9 36  1  0
  9 37  1  0
 10 38  1  0
 10 39  1  0
 13 40  1  0
 14 41  1  0
 18 42  1  0
 19 43  1  0
 19 44  1  0
 21 45  1  0
 22 46  1  0
 23 47  1  0
 25 48  1  0
 26 49  1  0
M  END
>  <UniqueID>  (20) 
19

>  <SMILES>  (20) 
Cc1cc(N2CCOCC2)nc2ccc(C(=O)NCc3cccnc3)cc12

>  <Energy>  (20) 
61.820686398524046

>  <Genealogy>  (20) 
Cc1cc(N2CCOCC2)nc2ccc(C(=O)NCc3cccnc3)cc12 (3D coordinates assigned)
Cc1cc(N2CCOCC2)nc2ccc(C(=O)NCc3cccnc3)cc12 (nonaromatic ring conformer: 61.820686398524046 kcal/mol)

>  <smiles>  (20) 
Cc1cc(N2CCOCC2)nc2ccc(C(=O)NCc3cccnc3)cc12

>  <score_type>  (20) 
oracle

>  <origin>  (20) 
adgpu

>  <m_score__min__energy>  (20) 
-8.8900000000000006

>  <m_primary>  (20) 
energy

$$$$
20:0
     RDKit          3D

 88 93  0  0  0  0  0  0  0  0999 V2000
    1.9430   14.6280  -30.0570 C   0  0  0  0  0  0  0  0  0  0  0  0
    1.5910   16.0050  -29.7130 N   0  0  0  0  0  0  0  0  0  0  0  0
    1.0210   16.3910  -28.5530 C   0  0  0  0  0  0  0  0  0  0  0  0
    0.8050   17.7520  -28.5950 C   0  0  0  0  0  0  0  0  0  0  0  0
    0.2460   18.5660  -27.5610 N   0  0  0  0  0  0  0  0  0  0  0  0
   -1.0760   19.1170  -27.5630 C   0  0  0  0  0  0  0  0  0  0  0  0
   -1.9710   18.5170  -26.9110 O   0  0  0  0  0  0  0  0  0  0  0  0
   -1.3780   20.4270  -28.1900 C   0  0  0  0  0  0  0  0  0  0  0  0
   -1.6970   21.5850  -27.4960 C   0  0  0  0  0  0  0  0  0  0  0  0
   -2.0490   22.5120  -28.4500 C   0  0  0  0  0  0  0  0  0  0  0  0
   -2.4340   23.8660  -28.1870 N   0  0  0  0  0  0  0  0  0  0  0  0
   -2.3420   24.9260  -29.1430 C   0  0  0  0  0  0  0  0  0  0  0  0
   -1.5090   25.8520  -28.9540 O   0  0  0  0  0  0  0  0  0  0  0  0
   -3.1860   24.9250  -30.3040 N   0  0  0  0  0  0  0  0  0  0  0  0
   -4.5990   24.6850  -30.3560 C   0  0  0  0  0  0  0  0  0  0  0  0
   -5.5280   25.5530  -29.7500 C   0  0  0  0  0  0  0  0  0  0  0  0
   -6.8940   25.2520  -29.7810 C   0  0  0  0  0  0  0  0  0  0  0  0
   -7.3420   24.0820  -30.4030 C   0  0  0  0  0  0  0  0  0  0  0  0
   -6.4250   23.2030  -30.9950 C   0  0  0  0  0  0  0  0  0  0  0  0
   -7.0080   21.7630  -31.8220 S   0  0  0  0  0  0  0  0  0  0  0  0
   -7.1920   20.6410  -30.8370 O   0  0  0  0  0  0  0  0  0  0  0  0
   -8.3370   22.0440  -32.4670 O   0  0  0  0  0  0  0  0  0  0  0  0
   -5.8240   21.2930  -32.9980 N   0  0  0  0  0  0  0  0  0  0  0  0
   -5.5070   19.9220  -33.2620 C   0  0  0  0  0  0  0  0  0  0  0  0
   -4.1760   19.5100  -33.4330 C   0  0  0  0  0  0  0  0  0  0  0  0
   -3.8770   18.1580  -33.6370 C   0  0  0  0  0  0  0  0  0  0  0  0
   -4.9080   17.2070  -33.6530 C   0  0  0  0  0  0  0  0  0  0  0  0
   -6.2390   17.6170  -33.5010 C   0  0  0  0  0  0  0  0  0  0  0  0
   -6.5420   18.9760  -33.3200 C   0  0  0  0  0  0  0  0  0  0  0  0
   -7.8660   19.3920  -33.1720 O   0  0  0  0  0  0  0  0  0  0  0  0
   -4.5440   15.7540  -33.7850 C   0  0  0  0  0  0  0  0  0  0  0  0
   -3.4750   15.5540  -34.8750 C   0  0  0  0  0  0  0  0  0  0  0  0
   -2.3370   16.6130  -34.8710 C   0  0  0  0  0  0  0  0  0  0  0  0
   -2.4560   17.6860  -33.7740 C   0  0  0  0  0  0  0  0  0  0  0  0
   -5.0570   23.5070  -30.9670 C   0  0  0  0  0  0  0  0  0  0  0  0
   -1.9200   21.9180  -29.6860 C   0  0  0  0  0  0  0  0  0  0  0  0
   -1.5090   20.6440  -29.5230 N   0  0  0  0  0  0  0  0  0  0  0  0
   -1.2540   19.7070  -30.6150 C   0  0  0  0  0  0  0  0  0  0  0  0
    1.2590   18.2220  -29.8070 C   0  0  0  0  0  0  0  0  0  0  0  0
    1.7360   17.1110  -30.4850 C   0  0  0  0  0  0  0  0  0  0  0  0
    2.2550   17.1040  -31.8730 C   0  0  0  0  0  0  0  0  0  0  0  0
    2.9770   16.1440  -32.2460 O   0  0  0  0  0  0  0  0  0  0  0  0
    1.9920   18.1610  -32.8070 N   0  0  0  0  0  0  0  0  0  0  0  0
    2.1000   18.0950  -34.2630 C   0  0  0  0  0  0  0  0  0  0  0  0
    0.7240   18.0940  -34.9530 C   0  0  0  0  0  0  0  0  0  0  0  0
    0.2200   19.4640  -35.1820 N   0  0  0  0  0  0  0  0  0  0  0  0
   -0.0410   20.1180  -33.8840 C   0  0  0  0  0  0  0  0  0  0  0  0
   -0.4990   21.5610  -34.1040 C   0  0  0  0  0  0  0  0  0  0  0  0
    0.4820   22.2960  -34.8110 O   0  0  0  0  0  0  0  0  0  0  0  0
    0.6840   21.7160  -36.0860 C   0  0  0  0  0  0  0  0  0  0  0  0
    1.1880   20.2740  -35.9540 C   0  0  0  0  0  0  0  0  0  0  0  0
    2.0917   14.0464  -29.1353 H   0  0  0  0  0  0  0  0  0  0  0  0
    1.1309   14.1785  -30.6472 H   0  0  0  0  0  0  0  0  0  0  0  0
    2.8712   14.6233  -30.6472 H   0  0  0  0  0  0  0  0  0  0  0  0
    0.7697   15.7286  -27.7116 H   0  0  0  0  0  0  0  0  0  0  0  0
   -1.6734   21.7321  -26.4061 H   0  0  0  0  0  0  0  0  0  0  0  0
   -5.1789   26.4693  -29.2514 H   0  0  0  0  0  0  0  0  0  0  0  0
   -7.6175   25.9372  -29.3150 H   0  0  0  0  0  0  0  0  0  0  0  0
   -8.4172   23.8512  -30.4276 H   0  0  0  0  0  0  0  0  0  0  0  0
   -3.3649   20.2526  -33.4066 H   0  0  0  0  0  0  0  0  0  0  0  0
   -7.0485   16.8726  -33.5235 H   0  0  0  0  0  0  0  0  0  0  0  0
   -8.0990   20.3090  -32.8000 H   0  0  0  0  0  0  0  0  0  0  0  0
   -4.1506   15.3922  -32.8236 H   0  0  0  0  0  0  0  0  0  0  0  0
   -5.4449   15.1895  -34.0674 H   0  0  0  0  0  0  0  0  0  0  0  0
   -3.0208   14.5625  -34.7316 H   0  0  0  0  0  0  0  0  0  0  0  0
   -3.9924   15.6576  -35.8402 H   0  0  0  0  0  0  0  0  0  0  0  0
   -1.3809   16.0870  -34.7326 H   0  0  0  0  0  0  0  0  0  0  0  0
   -2.4057   17.1442  -35.8318 H   0  0  0  0  0  0  0  0  0  0  0  0
   -2.1241   17.2598  -32.8158 H   0  0  0  0  0  0  0  0  0  0  0  0
   -1.8260   18.5439  -34.0517 H   0  0  0  0  0  0  0  0  0  0  0  0
   -4.3357   22.8162  -31.4280 H   0  0  0  0  0  0  0  0  0  0  0  0
   -2.1202   22.4050  -30.6518 H   0  0  0  0  0  0  0  0  0  0  0  0
   -0.9865   18.7241  -30.1998 H   0  0  0  0  0  0  0  0  0  0  0  0
   -2.1584   19.6099  -31.2336 H   0  0  0  0  0  0  0  0  0  0  0  0
   -0.4251   20.0816  -31.2336 H   0  0  0  0  0  0  0  0  0  0  0  0
    1.2459   19.2627  -30.1631 H   0  0  0  0  0  0  0  0  0  0  0  0
    2.6712   18.9667  -34.6149 H   0  0  0  0  0  0  0  0  0  0  0  0
    2.6052   17.1522  -34.5199 H   0  0  0  0  0  0  0  0  0  0  0  0
    0.8128   17.5814  -35.9222 H   0  0  0  0  0  0  0  0  0  0  0  0
    0.0128   17.5756  -34.2931 H   0  0  0  0  0  0  0  0  0  0  0  0
   -0.8270   19.5645  -33.3494 H   0  0  0  0  0  0  0  0  0  0  0  0
    0.8850   20.1211  -33.2902 H   0  0  0  0  0  0  0  0  0  0  0  0
   -1.4346   21.5584  -34.6825 H   0  0  0  0  0  0  0  0  0  0  0  0
   -0.6570   22.0347  -33.1239 H   0  0  0  0  0  0  0  0  0  0  0  0
   -0.2678   21.7164  -36.6374 H   0  0  0  0  0  0  0  0  0  0  0  0
    1.4393   22.3057  -36.6261 H   0  0  0  0  0  0  0  0  0  0  0  0
    1.3089   19.8380  -36.9566 H   0  0  0  0  0  0  0  0  0  0  0  0
    2.1539   20.2777  -35.4276 H   0  0  0  0  0  0  0  0  0  0  0  0
  1  2  1  0
  2  3  1  0
  3  4  2  0
  4  5  1  0
  5  6  1  0
  6  7  2  0
  6  8  1  0
  8  9  2  0
  9 10  1  0
 10 11  1  0
 11 12  1  0
 12 13  2  0
 12 14  1  0
 14 15  1  0
 15 16  2  0
 16 17  1  0
 17 18  2  0
 18 19  1  0
 19 20  1  0
 20 21  2  0
 20 22  2  0
 20 23  1  0
 23 24  1  0
 24 25  2  0
 25 26  1  0
 26 27  2  0
 27 28  1  0
 28 29  2  0
 29 30  1  0
 27 31  1  0
 31 32  1  0
 32 33  1  0
 33 34  1  0
 19 35  2  0
 10 36  2  0
 36 37  1  0
 37 38  1  0
  4 39  1  0
 39 40  2  0
 40 41  1  0
 41 42  2  0
 41 43  1  0
 43 44  1  0
 44 45  1  0
 45 46  1  0
 46 47  1  0
 47 48  1  0
 48 49  1  0
 49 50  1  0
 50 51  1  0
 40  2  1  0
 51 46  1  0
 37  8  1  0
 35 15  1  0
 29 24  1  0
 34 26  1  0
  1 52  1  0
  1 53  1  0
  1 54  1  0
  3 55  1  0
  9 56  1  0
 16 57  1  0
 17 58  1  0
 18 59  1  0
 25 60  1  0
 28 61  1  0
 30 62  1  0
 31 63  1  0
 31 64  1  0
 32 65  1  0
 32 66  1  0
 33 67  1  0
 33 68  1  0
 34 69  1  0
 34 70  1  0
 35 71  1  0
 36 72  1  0
 38 73  1  0
 38 74  1  0
 38 75  1  0
 39 76  1  0
 44 77  1  0
 44 78  1  0
 45 79  1  0
 45 80  1  0
 47 81  1  0
 47 82  1  0
 48 83  1  0
 48 84  1  0
 50 85  1  0
 50 86  1  0
 51 87  1  0
 51 88  1  0
M  CHG  5   5  -1  11  -1  14  -1  23  -1  43  -1
M  END
>  <UniqueID>  (21) 
20

>  <SMILES>  (21) 
Cn1cc([N-]C(=O)c2cc([N-]C(=O)[N-]c3cccc(S(=O)(=O)[N-]c4cc5c(cc4O)CCCC5)c3)cn2C)cc1C(=O)[N-]CCN1CCOCC1

>  <Energy>  (21) 
175.9543492383175

>  <Genealogy>  (21) 
Cn1cc([N-]C(=O)c2cc([N-]C(=O)[N-]c3cccc(S(=O)(=O)[N-]c4cc5c(cc4O)CCCC5)c3)cn2C)cc1C(=O)[N-]CCN1CCOCC1 (protonated)
Cn1cc([N-]C(=O)c2cc([N-]C(=O)[N-]c3cccc(S(=O)(=O)[N-]c4cc5c(cc4O)CCCC5)c3)cn2C)cc1C(=O)[N-]CCN1CCOCC1 (3D coordinates assigned)
Cn1cc([N-]C(=O)c2cc([N-]C(=O)[N-]c3cccc(S(=O)(=O)[N-]c4cc5c(cc4O)CCCC5)c3)cn2C)cc1C(=O)[N-]CCN1CCOCC1 (nonaromatic ring conformer: 175.9543492383175 kcal/mol)

>  <smiles>  (21) 
Cn1cc(NC(=O)c2cc(NC(=O)Nc3cccc(S(=O)(=O)Nc4cc5c(cc4O)CCCC5)c3)cn2C)cc1C(=O)NCCN1CCOCC1

>  <score_type>  (21) 
oracle

>  <origin>  (21) 
adgpu

>  <m_score__min__energy>  (21) 
-13.380000000000001

>  <m_primary>  (21) 
energy

$$$$
21:0
     RDKit          3D

 46 49  0  0  0  0  0  0  0  0999 V2000
   -5.3090   16.6370  -34.5590 C   0  0  0  0  0  0  0  0  0  0  0  0
   -5.2690   18.0950  -34.7380 N   0  0  0  0  0  0  0  0  0  0  0  0
   -6.4790   18.7470  -34.1800 C   0  0  0  0  0  0  0  0  0  0  0  0
   -5.9810   19.8090  -33.2820 C   0  0  0  0  0  0  0  0  0  0  0  0
   -6.7210   20.7550  -32.5750 C   0  0  0  0  0  0  0  0  0  0  0  0
   -6.0350   21.6840  -31.7770 C   0  0  0  0  0  0  0  0  0  0  0  0
   -4.6250   21.6450  -31.6820 C   0  0  0  0  0  0  0  0  0  0  0  0
   -3.9500   22.6240  -30.8750 N   0  0  0  0  0  0  0  0  0  0  0  0
   -4.2800   24.0250  -30.8580 C   0  0  0  0  0  0  0  0  0  0  0  0
   -5.2430   24.4660  -31.5400 O   0  0  0  0  0  0  0  0  0  0  0  0
   -3.5310   24.9440  -30.0530 N   0  0  0  0  0  0  0  0  0  0  0  0
   -2.7720   24.5940  -28.8880 C   0  0  0  0  0  0  0  0  0  0  0  0
   -3.2150   23.5360  -28.0920 C   0  0  0  0  0  0  0  0  0  0  0  0
   -2.4850   23.1460  -26.9710 C   0  0  0  0  0  0  0  0  0  0  0  0
   -1.3170   23.8240  -26.6120 C   0  0  0  0  0  0  0  0  0  0  0  0
   -0.4140   23.2130  -25.2290 Cl  0  0  0  0  0  0  0  0  0  0  0  0
   -0.8880   24.9430  -27.3640 C   0  0  0  0  0  0  0  0  0  0  0  0
    0.5910   25.8200  -26.9240 S   0  0  0  0  0  0  0  0  0  0  0  0
    1.0180   25.4720  -25.5230 O   0  0  0  0  0  0  0  0  0  0  0  0
    1.7120   25.4400  -27.8500 O   0  0  0  0  0  0  0  0  0  0  0  0
    0.2630   27.5750  -27.0760 C   0  0  0  0  0  0  0  0  0  0  0  0
    0.6440   28.4220  -25.8730 C   0  0  0  0  0  0  0  0  0  0  0  0
   -0.8160   28.0880  -26.1370 C   0  0  0  0  0  0  0  0  0  0  0  0
   -1.6260   25.3220  -28.5080 C   0  0  0  0  0  0  0  0  0  0  0  0
   -1.2350   26.4220  -29.2630 O   0  0  0  0  0  0  0  0  0  0  0  0
   -3.9090   20.6850  -32.4300 C   0  0  0  0  0  0  0  0  0  0  0  0
   -4.6220   19.7770  -33.2150 C   0  0  0  0  0  0  0  0  0  0  0  0
   -4.0880   18.6950  -34.0680 C   0  0  0  0  0  0  0  0  0  0  0  0
   -5.3155   16.3995  -33.4850 H   0  0  0  0  0  0  0  0  0  0  0  0
   -6.2185   16.2347  -35.0290 H   0  0  0  0  0  0  0  0  0  0  0  0
   -4.4229   16.1854  -35.0290 H   0  0  0  0  0  0  0  0  0  0  0  0
   -7.0878   19.1809  -34.9869 H   0  0  0  0  0  0  0  0  0  0  0  0
   -7.1178   18.0288  -33.6452 H   0  0  0  0  0  0  0  0  0  0  0  0
   -7.8189   20.7733  -32.6409 H   0  0  0  0  0  0  0  0  0  0  0  0
   -6.5987   22.4480  -31.2215 H   0  0  0  0  0  0  0  0  0  0  0  0
   -3.1130   22.3040  -30.3400 H   0  0  0  0  0  0  0  0  0  0  0  0
   -4.1445   23.0079  -28.3510 H   0  0  0  0  0  0  0  0  0  0  0  0
   -2.8312   22.2970  -26.3633 H   0  0  0  0  0  0  0  0  0  0  0  0
    0.4627   27.6361  -28.1560 H   0  0  0  0  0  0  0  0  0  0  0  0
    1.1678   27.9636  -25.0212 H   0  0  0  0  0  0  0  0  0  0  0  0
    1.2152   29.3503  -25.7246 H   0  0  0  0  0  0  0  0  0  0  0  0
   -1.3483   27.3881  -25.4762 H   0  0  0  0  0  0  0  0  0  0  0  0
   -1.7385   28.6746  -26.2587 H   0  0  0  0  0  0  0  0  0  0  0  0
   -2.8100   20.6532  -32.3949 H   0  0  0  0  0  0  0  0  0  0  0  0
   -3.3897   19.1031  -34.8136 H   0  0  0  0  0  0  0  0  0  0  0  0
   -3.5317   17.9502  -33.4800 H   0  0  0  0  0  0  0  0  0  0  0  0
  1  2  1  0
  2  3  1  0
  3  4  1  0
  4  5  2  0
  5  6  1  0
  6  7  2  0
  7  8  1  0
  8  9  1  0
  9 10  2  0
  9 11  1  0
 11 12  1  0
 12 13  2  0
 13 14  1  0
 14 15  2  0
 15 16  1  0
 15 17  1  0
 17 18  1  0
 18 19  2  0
 18 20  2  0
 18 21  1  0
 21 22  1  0
 22 23  1  0
 17 24  2  0
 24 25  1  0
  7 26  1  0
 26 27  2  0
 27 28  1  0
 28  2  1  0
 27  4  1  0
 24 12  1  0
 23 21  1  0
  1 29  1  0
  1 30  1  0
  1 31  1  0
  3 32  1  0
  3 33  1  0
  5 34  1  0
  6 35  1  0
  8 36  1  0
 13 37  1  0
 14 38  1  0
 21 39  1  0
 22 40  1  0
 22 41  1  0
 23 42  1  0
 23 43  1  0
 26 44  1  0
 28 45  1  0
 28 46  1  0
M  CHG  2  11  -1  25  -1
M  END
>  <UniqueID>  (22) 
21

>  <SMILES>  (22) 
CN1Cc2ccc(NC(=O)[N-]c3ccc(Cl)c(S(=O)(=O)C4CC4)c3[O-])cc2C1

>  <Energy>  (22) 
335.453632417898

>  <Genealogy>  (22) 
CN1Cc2ccc(NC(=O)[N-]c3ccc(Cl)c(S(=O)(=O)C4CC4)c3[O-])cc2C1 (protonated)
CN1Cc2ccc(NC(=O)[N-]c3ccc(Cl)c(S(=O)(=O)C4CC4)c3[O-])cc2C1 (3D coordinates assigned)
CN1Cc2ccc(NC(=O)[N-]c3ccc(Cl)c(S(=O)(=O)C4CC4)c3[O-])cc2C1 (nonaromatic ring conformer: 335.453632417898 kcal/mol)

>  <smiles>  (22) 
CN1Cc2ccc(NC(=O)Nc3ccc(Cl)c(S(=O)(=O)C4CC4)c3O)cc2C1

>  <score_type>  (22) 
oracle

>  <origin>  (22) 
adgpu

>  <m_score__min__energy>  (22) 
-12.92

>  <m_primary>  (22) 
energy

$$$$
22:0
     RDKit          3D

 66 69  0  0  0  0  0  0  0  0999 V2000
   -6.9650   23.2290  -32.6070 C   0  0  0  0  0  0  0  0  0  0  0  0
   -7.9750   22.4910  -31.6930 C   0  0  0  0  0  0  0  0  0  0  0  0
   -7.5660   22.8070  -30.2320 C   0  0  0  0  0  0  0  0  0  0  0  0
   -9.3720   23.0840  -31.9860 C   0  0  0  0  0  0  0  0  0  0  0  0
   -7.9880   20.9550  -31.9230 C   0  0  0  0  0  0  0  0  0  0  0  0
   -9.1590   20.2810  -32.3550 C   0  0  0  0  0  0  0  0  0  0  0  0
   -9.1650   18.9030  -32.5800 C   0  0  0  0  0  0  0  0  0  0  0  0
   -8.0030   18.1610  -32.4070 C   0  0  0  0  0  0  0  0  0  0  0  0
   -6.8440   18.7840  -31.9570 C   0  0  0  0  0  0  0  0  0  0  0  0
   -6.8310   20.1610  -31.6640 C   0  0  0  0  0  0  0  0  0  0  0  0
   -5.6760   20.7570  -31.1320 O   0  0  0  0  0  0  0  0  0  0  0  0
   -4.4130   20.7660  -31.7480 C   0  0  0  0  0  0  0  0  0  0  0  0
   -3.8870   19.5880  -32.1730 N   0  0  0  0  0  0  0  0  0  0  0  0
   -2.6790   19.5100  -32.7920 C   0  0  0  0  0  0  0  0  0  0  0  0
   -1.9360   20.6690  -33.0170 C   0  0  0  0  0  0  0  0  0  0  0  0
   -2.4510   21.8980  -32.6090 C   0  0  0  0  0  0  0  0  0  0  0  0
   -3.6960   21.9620  -31.9650 C   0  0  0  0  0  0  0  0  0  0  0  0
   -4.2730   23.2180  -31.5880 N   0  0  0  0  0  0  0  0  0  0  0  0
   -3.7750   24.0560  -30.5380 C   0  0  0  0  0  0  0  0  0  0  0  0
   -3.8740   25.3100  -30.6220 O   0  0  0  0  0  0  0  0  0  0  0  0
   -3.0650   23.4540  -29.4480 N   0  0  0  0  0  0  0  0  0  0  0  0
   -2.3940   24.2350  -28.4500 C   0  0  0  0  0  0  0  0  0  0  0  0
   -2.6230   24.0060  -27.0850 C   0  0  0  0  0  0  0  0  0  0  0  0
   -2.0000   24.8050  -26.1240 C   0  0  0  0  0  0  0  0  0  0  0  0
   -1.1560   25.8540  -26.5160 C   0  0  0  0  0  0  0  0  0  0  0  0
   -0.4590   26.9270  -25.3080 S   0  0  0  0  0  0  0  0  0  0  0  0
   -0.5080   28.3400  -25.8200 O   0  0  0  0  0  0  0  0  0  0  0  0
   -1.2950   26.8660  -24.0590 O   0  0  0  0  0  0  0  0  0  0  0  0
    1.1960   26.5090  -24.9140 N   0  0  0  0  0  0  0  0  0  0  0  0
    2.1830   27.3180  -25.6590 C   0  0  0  0  0  0  0  0  0  0  0  0
    2.4590   26.8010  -27.0920 C   0  0  0  0  0  0  0  0  0  0  0  0
    1.9240   25.4540  -27.3220 N   0  0  0  0  0  0  0  0  0  0  0  0
    2.2360   24.5920  -26.1840 C   0  0  0  0  0  0  0  0  0  0  0  0
    1.4490   25.0500  -24.9470 C   0  0  0  0  0  0  0  0  0  0  0  0
   -0.8950   26.0560  -27.8790 C   0  0  0  0  0  0  0  0  0  0  0  0
   -1.5030   25.2440  -28.8390 C   0  0  0  0  0  0  0  0  0  0  0  0
   -6.2319   23.7646  -31.9859 H   0  0  0  0  0  0  0  0  0  0  0  0
   -6.4431   22.4980  -33.2420 H   0  0  0  0  0  0  0  0  0  0  0  0
   -7.5029   23.9484  -33.2420 H   0  0  0  0  0  0  0  0  0  0  0  0
   -8.2429   22.2840  -29.5404 H   0  0  0  0  0  0  0  0  0  0  0  0
   -6.5333   22.4699  -30.0593 H   0  0  0  0  0  0  0  0  0  0  0  0
   -7.6315   23.8914  -30.0593 H   0  0  0  0  0  0  0  0  0  0  0  0
   -9.8844   23.3015  -31.0372 H   0  0  0  0  0  0  0  0  0  0  0  0
   -9.2620   24.0130  -32.5647 H   0  0  0  0  0  0  0  0  0  0  0  0
   -9.9639   22.3595  -32.5647 H   0  0  0  0  0  0  0  0  0  0  0  0
  -10.0825   20.8565  -32.5163 H   0  0  0  0  0  0  0  0  0  0  0  0
  -10.0927   18.4031  -32.8953 H   0  0  0  0  0  0  0  0  0  0  0  0
   -7.9999   17.0829  -32.6256 H   0  0  0  0  0  0  0  0  0  0  0  0
   -5.9252   18.1931  -31.8283 H   0  0  0  0  0  0  0  0  0  0  0  0
   -2.2879   18.5339  -33.1151 H   0  0  0  0  0  0  0  0  0  0  0  0
   -0.9547   20.6135  -33.5109 H   0  0  0  0  0  0  0  0  0  0  0  0
   -1.8801   22.8202  -32.7923 H   0  0  0  0  0  0  0  0  0  0  0  0
   -2.8080   22.4470  -29.5420 H   0  0  0  0  0  0  0  0  0  0  0  0
   -3.2956   23.1943  -26.7706 H   0  0  0  0  0  0  0  0  0  0  0  0
   -2.1720   24.6107  -25.0551 H   0  0  0  0  0  0  0  0  0  0  0  0
    1.8051   28.3487  -25.7287 H   0  0  0  0  0  0  0  0  0  0  0  0
    3.1322   27.2547  -25.1067 H   0  0  0  0  0  0  0  0  0  0  0  0
    1.9938   27.4917  -27.8108 H   0  0  0  0  0  0  0  0  0  0  0  0
    3.5501   26.7514  -27.2224 H   0  0  0  0  0  0  0  0  0  0  0  0
    2.3930   25.0570  -28.1700 H   0  0  0  0  0  0  0  0  0  0  0  0
    1.9619   23.5547  -26.4267 H   0  0  0  0  0  0  0  0  0  0  0  0
    3.3132   24.6527  -25.9696 H   0  0  0  0  0  0  0  0  0  0  0  0
    0.4805   24.5285  -24.9378 H   0  0  0  0  0  0  0  0  0  0  0  0
    2.0617   24.8081  -24.0661 H   0  0  0  0  0  0  0  0  0  0  0  0
   -0.2092   26.8566  -28.1930 H   0  0  0  0  0  0  0  0  0  0  0  0
   -1.2813   25.3973  -29.9055 H   0  0  0  0  0  0  0  0  0  0  0  0
  1  2  1  0
  2  3  1  0
  2  4  1  0
  2  5  1  0
  5  6  2  0
  6  7  1  0
  7  8  2  0
  8  9  1  0
  9 10  2  0
 10 11  1  0
 11 12  1  0
 12 13  2  0
 13 14  1  0
 14 15  2  0
 15 16  1  0
 16 17  2  0
 17 18  1  0
 18 19  1  0
 19 20  2  0
 19 21  1  0
 21 22  1  0
 22 23  2  0
 23 24  1  0
 24 25  2  0
 25 26  1  0
 26 27  2  0
 26 28  2  0
 26 29  1  0
 29 30  1  0
 30 31  1  0
 31 32  1  0
 32 33  1  0
 33 34  1  0
 25 35  1  0
 35 36  2  0
 10  5  1  0
 17 12  1  0
 36 22  1  0
 34 29  1  0
  1 37  1  0
  1 38  1  0
  1 39  1  0
  3 40  1  0
  3 41  1  0
  3 42  1  0
  4 43  1  0
  4 44  1  0
  4 45  1  0
  6 46  1  0
  7 47  1  0
  8 48  1  0
  9 49  1  0
 14 50  1  0
 15 51  1  0
 16 52  1  0
 21 53  1  0
 23 54  1  0
 24 55  1  0
 30 56  1  0
 30 57  1  0
 31 58  1  0
 31 59  1  0
 32 60  1  0
 33 61  1  0
 33 62  1  0
 34 63  1  0
 34 64  1  0
 35 65  1  0
 36 66  1  0
M  CHG  1  18  -1
M  END
>  <UniqueID>  (23) 
22

>  <SMILES>  (23) 
CC(C)(C)c1ccccc1Oc1ncccc1[N-]C(=O)Nc1ccc(S(=O)(=O)N2CCNCC2)cc1

>  <Energy>  (23) 
97.22142184448735

>  <Genealogy>  (23) 
CC(C)(C)c1ccccc1Oc1ncccc1[N-]C(=O)Nc1ccc(S(=O)(=O)N2CCNCC2)cc1 (protonated)
CC(C)(C)c1ccccc1Oc1ncccc1[N-]C(=O)Nc1ccc(S(=O)(=O)N2CCNCC2)cc1 (3D coordinates assigned)
CC(C)(C)c1ccccc1Oc1ncccc1[N-]C(=O)Nc1ccc(S(=O)(=O)N2CCNCC2)cc1 (nonaromatic ring conformer: 97.22142184448735 kcal/mol)

>  <smiles>  (23) 
CC(C)(C)c1ccccc1Oc1ncccc1NC(=O)Nc1ccc(S(=O)(=O)N2CCNCC2)cc1

>  <score_type>  (23) 
oracle

>  <origin>  (23) 
adgpu

>  <m_score__min__energy>  (23) 
-11.800000000000001

>  <m_primary>  (23) 
energy

$$$$
23:0
     RDKit          3D

 78 82  0  0  1  0  0  0  0  0999 V2000
    5.1190   25.2640  -25.4220 C   0  0  0  0  0  0  0  0  0  0  0  0
    4.1140   25.6540  -26.3870 N   0  0  0  0  0  0  0  0  0  0  0  0
    3.7930   27.3230  -26.3110 S   0  0  0  0  0  0  0  0  0  0  0  0
    3.0070   27.7500  -27.5320 O   0  0  0  0  0  0  0  0  0  0  0  0
    5.1100   28.0470  -26.3680 O   0  0  0  0  0  0  0  0  0  0  0  0
    2.8630   27.7140  -24.8860 C   0  0  0  0  0  0  0  0  0  0  0  0
    3.0760   28.8490  -24.1300 C   0  0  0  0  0  0  0  0  0  0  0  0
    2.3360   29.1480  -23.0080 C   0  0  0  0  0  0  0  0  0  0  0  0
    1.3330   28.3120  -22.5840 C   0  0  0  0  0  0  0  0  0  0  0  0
    1.0930   27.1650  -23.3160 C   0  0  0  0  0  0  0  0  0  0  0  0
    1.8410   26.8540  -24.4600 C   0  0  0  0  0  0  0  0  0  0  0  0
    1.5450   25.6420  -25.1240 N   0  0  0  0  0  0  0  0  0  0  0  0
    0.7150   25.5320  -26.0870 C   0  0  0  0  0  0  0  0  0  0  0  0
    0.5320   24.3150  -26.6230 N   0  0  0  0  0  0  0  0  0  0  0  0
   -0.3420   24.1650  -27.6440 C   0  0  0  0  0  0  0  0  0  0  0  0
   -0.4690   22.9690  -28.1120 N   0  0  0  0  0  0  0  0  0  0  0  0
   -1.3510   22.6680  -29.1840 C   0  0  0  0  0  0  0  0  0  0  0  0
   -0.8360   22.1300  -30.3350 C   0  0  0  0  0  0  0  0  0  0  0  0
   -1.6400   21.8150  -31.4140 C   0  0  0  0  0  0  0  0  0  0  0  0
   -3.0240   22.0300  -31.3900 C   0  0  0  0  0  0  0  0  0  0  0  0
   -3.8410   21.7160  -32.5040 N   0  0  0  0  0  0  0  0  0  0  0  0
   -5.2020   22.2160  -32.6720 C   0  0  0  0  0  0  0  0  0  0  0  0
   -6.1170   21.0110  -32.7200 C   0  0  0  0  0  0  0  0  0  0  0  0
   -5.6950   20.0090  -33.7380 C   0  0  0  0  0  0  0  0  0  0  0  0
   -6.4450   18.7800  -33.5530 N   0  0  0  0  0  0  0  0  0  0  0  0
   -6.3380   18.4100  -32.1720 C   0  0  0  0  0  0  0  0  0  0  0  0
   -6.5140   16.9610  -31.8820 C   0  0  0  0  0  0  0  0  0  0  0  0
   -5.8780   16.0790  -32.8090 N   0  0  0  0  0  0  0  0  0  0  0  0
   -4.4460   15.9780  -32.6640 C   0  0  0  0  0  0  0  0  0  0  0  0
   -6.3060   16.4020  -34.1370 C   0  0  0  0  0  0  0  0  0  0  0  0
   -5.9620   17.8210  -34.4920 C   0  0  0  0  0  0  0  0  0  0  0  0
   -4.2350   19.6340  -33.5590 C   0  0  0  0  0  0  0  0  0  0  0  0
   -3.3680   20.8600  -33.6000 C   0  0  0  0  0  0  0  0  0  0  0  0
   -3.5200   22.5700  -30.2300 C   0  0  0  0  0  0  0  0  0  0  0  0
   -2.7090   22.8880  -29.1390 C   0  0  0  0  0  0  0  0  0  0  0  0
   -3.2240   23.4330  -27.9740 O   0  0  0  0  0  0  0  0  0  0  0  0
   -4.2410   24.3910  -27.9040 C   0  0  0  0  0  0  0  0  0  0  0  0
   -1.0490   25.1860  -28.1590 N   0  0  0  0  0  0  0  0  0  0  0  0
   -0.8520   26.3970  -27.6080 C   0  0  0  0  0  0  0  0  0  0  0  0
    0.0220   26.6150  -26.5670 C   0  0  0  0  0  0  0  0  0  0  0  0
    0.2170   28.2040  -25.9250 Cl  0  0  0  0  0  0  0  0  0  0  0  0
    4.7288   25.4154  -24.4047 H   0  0  0  0  0  0  0  0  0  0  0  0
    5.3712   24.2027  -25.5638 H   0  0  0  0  0  0  0  0  0  0  0  0
    6.0210   25.8774  -25.5638 H   0  0  0  0  0  0  0  0  0  0  0  0
    3.2520   25.0990  -26.2740 H   0  0  0  0  0  0  0  0  0  0  0  0
    3.8710   29.5445  -24.4370 H   0  0  0  0  0  0  0  0  0  0  0  0
    2.5511   30.0679  -22.4445 H   0  0  0  0  0  0  0  0  0  0  0  0
    0.7387   28.5481  -21.6890 H   0  0  0  0  0  0  0  0  0  0  0  0
    0.2957   26.4793  -22.9933 H   0  0  0  0  0  0  0  0  0  0  0  0
    1.0660   23.4740  -26.2540 H   0  0  0  0  0  0  0  0  0  0  0  0
    0.2461   21.9441  -30.4015 H   0  0  0  0  0  0  0  0  0  0  0  0
   -1.1808   21.3839  -32.3158 H   0  0  0  0  0  0  0  0  0  0  0  0
   -5.4737   22.8624  -31.8244 H   0  0  0  0  0  0  0  0  0  0  0  0
   -5.2894   22.8105  -33.5934 H   0  0  0  0  0  0  0  0  0  0  0  0
   -6.1168   20.5294  -31.7310 H   0  0  0  0  0  0  0  0  0  0  0  0
   -7.1199   21.3663  -32.9993 H   0  0  0  0  0  0  0  0  0  0  0  0
   -5.8674   20.4575  -34.7275 H   0  0  0  0  0  0  0  0  0  0  0  0
   -5.3402   18.7079  -31.8176 H   0  0  0  0  0  0  0  0  0  0  0  0
   -7.1629   18.9237  -31.6567 H   0  0  0  0  0  0  0  0  0  0  0  0
   -6.1018   16.7604  -30.8821 H   0  0  0  0  0  0  0  0  0  0  0  0
   -7.5930   16.7608  -31.9572 H   0  0  0  0  0  0  0  0  0  0  0  0
   -4.1861   15.9597  -31.5953 H   0  0  0  0  0  0  0  0  0  0  0  0
   -4.0933   15.0527  -33.1431 H   0  0  0  0  0  0  0  0  0  0  0  0
   -3.9669   16.8446  -33.1431 H   0  0  0  0  0  0  0  0  0  0  0  0
   -5.8102   15.7246  -34.8479 H   0  0  0  0  0  0  0  0  0  0  0  0
   -7.3988   16.2870  -34.1870 H   0  0  0  0  0  0  0  0  0  0  0  0
   -4.8669   17.9096  -34.5468 H   0  0  0  0  0  0  0  0  0  0  0  0
   -6.4493   18.0390  -35.4538 H   0  0  0  0  0  0  0  0  0  0  0  0
   -4.1065   19.1321  -32.5886 H   0  0  0  0  0  0  0  0  0  0  0  0
   -3.9379   18.9607  -34.3765 H   0  0  0  0  0  0  0  0  0  0  0  0
   -2.3128   20.5892  -33.4476 H   0  0  0  0  0  0  0  0  0  0  0  0
   -3.4320   21.3711  -34.5719 H   0  0  0  0  0  0  0  0  0  0  0  0
   -4.6010   22.7601  -30.1568 H   0  0  0  0  0  0  0  0  0  0  0  0
   -4.4698   24.6065  -26.8499 H   0  0  0  0  0  0  0  0  0  0  0  0
   -3.9106   25.3137  -28.4035 H   0  0  0  0  0  0  0  0  0  0  0  0
   -5.1423   24.0061  -28.4035 H   0  0  0  0  0  0  0  0  0  0  0  0
   -1.7090   25.0110  -28.9470 H   0  0  0  0  0  0  0  0  0  0  0  0
   -1.4154   27.2530  -28.0077 H   0  0  0  0  0  0  0  0  0  0  0  0
  1  2  1  0
  2  3  1  0
  3  4  2  0
  3  5  2  0
  3  6  1  0
  6  7  2  0
  7  8  1  0
  8  9  2  0
  9 10  1  0
 10 11  2  0
 11 12  1  0
 12 13  2  0
 13 14  1  0
 14 15  1  0
 15 16  2  0
 16 17  1  0
 17 18  2  0
 18 19  1  0
 19 20  2  0
 20 21  1  0
 21 22  1  0
 22 23  1  0
 23 24  1  0
 24 25  1  0
 25 26  1  0
 26 27  1  0
 27 28  1  0
 28 29  1  0
 28 30  1  0
 30 31  1  0
 24 32  1  0
 32 33  1  0
 20 34  1  0
 34 35  2  0
 35 36  1  0
 36 37  1  0
 15 38  1  0
 38 39  1  0
 39 40  2  0
 40 41  1  0
 11  6  1  0
 40 13  1  0
 35 17  1  0
 33 21  1  0
 31 25  1  0
  1 42  1  0
  1 43  1  0
  1 44  1  0
  2 45  1  0
  7 46  1  0
  8 47  1  0
  9 48  1  0
 10 49  1  0
 14 50  1  0
 18 51  1  0
 19 52  1  0
 22 53  1  0
 22 54  1  0
 23 55  1  0
 23 56  1  0
 24 57  1  0
 26 58  1  0
 26 59  1  0
 27 60  1  0
 27 61  1  0
 29 62  1  0
 29 63  1  0
 29 64  1  0
 30 65  1  0
 30 66  1  0
 31 67  1  0
 31 68  1  0
 32 69  1  0
 32 70  1  0
 33 71  1  0
 33 72  1  0
 34 73  1  0
 37 74  1  0
 37 75  1  0
 37 76  1  0
 38 77  1  0
 39 78  1  0
M  END
>  <smiles>  (24) 
CNS(=O)(=O)c1ccccc1N=c1[nH]c(=Nc2ccc(N3CCC(N4CCN(C)CC4)CC3)cc2OC)[nH]cc1Cl

>  <score_type>  (24) 
oracle

>  <origin>  (24) 
adgpu

>  <m_score__min__energy>  (24) 
-11.859999999999999

>  <m_primary>  (24) 
energy

$$$$
24:0
     RDKit          3D

 62 65  0  0  0  0  0  0  0  0999 V2000
   -9.0770   20.3830  -32.4950 C   0  0  0  0  0  0  0  0  0  0  0  0
   -7.7390   20.4290  -32.3910 C   0  0  0  0  0  0  0  0  0  0  0  0
   -6.9180   19.7650  -33.4730 C   0  0  0  0  0  0  0  0  0  0  0  0
   -7.1100   21.1120  -31.1750 C   0  0  2  0  0  0  0  0  0  0  0  0
   -8.0750   21.9490  -30.2990 C   0  0  0  0  0  0  0  0  0  0  0  0
   -7.2440   23.1110  -29.7250 C   0  0  0  0  0  0  0  0  0  0  0  0
   -5.7970   22.7750  -30.1010 C   0  0  1  0  0  0  0  0  0  0  0  0
   -5.9000   22.0450  -31.4550 C   0  0  2  0  0  0  0  0  0  0  0  0
   -6.1870   22.9700  -32.6740 C   0  0  0  0  0  0  0  0  0  0  0  0
   -4.5780   21.2980  -31.6750 C   0  0  0  0  0  0  0  0  0  0  0  0
   -3.4370   22.2870  -31.6350 C   0  0  0  0  0  0  0  0  0  0  0  0
   -2.6400   22.2790  -32.5630 O   0  0  0  0  0  0  0  0  0  0  0  0
   -3.2670   23.3260  -30.5090 C   0  0  1  0  0  0  0  0  0  0  0  0
   -4.6580   23.8540  -29.9190 C   0  0  1  0  0  0  0  0  0  0  0  0
   -5.0290   25.2110  -30.5850 C   0  0  0  0  0  0  0  0  0  0  0  0
   -4.5270   24.1760  -28.4010 C   0  0  0  0  0  0  0  0  0  0  0  0
   -3.9800   23.0280  -27.5410 C   0  0  0  0  0  0  0  0  0  0  0  0
   -2.8150   22.2020  -28.1870 C   0  0  2  0  0  0  0  0  0  0  0  0
   -3.3490   20.9790  -28.6450 O   0  0  0  0  0  0  0  0  0  0  0  0
   -1.7430   21.8810  -27.0920 C   0  0  0  0  0  0  0  0  0  0  0  0
   -0.6620   22.9710  -26.8690 C   0  0  2  0  0  0  0  0  0  0  0  0
   -0.4260   23.1400  -25.4960 O   0  0  0  0  0  0  0  0  0  0  0  0
   -1.0420   24.3230  -27.4740 C   0  0  0  0  0  0  0  0  0  0  0  0
   -1.3780   24.2320  -28.9720 C   0  0  0  0  0  0  0  0  0  0  0  0
   -2.1590   22.9340  -29.4210 C   0  0  2  0  0  0  0  0  0  0  0  0
   -1.0920   21.9860  -30.0650 C   0  0  0  0  0  0  0  0  0  0  0  0
   -9.7050   20.8558  -31.7255 H   0  0  0  0  0  0  0  0  0  0  0  0
   -9.5450   19.8726  -33.3496 H   0  0  0  0  0  0  0  0  0  0  0  0
   -6.1418   19.1372  -33.0111 H   0  0  0  0  0  0  0  0  0  0  0  0
   -7.5722   19.1390  -34.0976 H   0  0  0  0  0  0  0  0  0  0  0  0
   -6.4426   20.5357  -34.0976 H   0  0  0  0  0  0  0  0  0  0  0  0
   -6.7781   20.2086  -30.6424 H   0  0  0  0  0  0  0  0  0  0  0  0
   -8.9024   22.3386  -30.9102 H   0  0  0  0  0  0  0  0  0  0  0  0
   -8.5153   21.3392  -29.4964 H   0  0  0  0  0  0  0  0  0  0  0  0
   -7.5502   24.0668  -30.1753 H   0  0  0  0  0  0  0  0  0  0  0  0
   -7.3774   23.2222  -28.6388 H   0  0  0  0  0  0  0  0  0  0  0  0
   -5.3613   22.1306  -29.3233 H   0  0  0  0  0  0  0  0  0  0  0  0
   -6.4952   23.9634  -32.3159 H   0  0  0  0  0  0  0  0  0  0  0  0
   -5.2765   23.0662  -33.2837 H   0  0  0  0  0  0  0  0  0  0  0  0
   -6.9921   22.5339  -33.2837 H   0  0  0  0  0  0  0  0  0  0  0  0
   -4.4428   20.5478  -30.8820 H   0  0  0  0  0  0  0  0  0  0  0  0
   -4.5963   20.7937  -32.6524 H   0  0  0  0  0  0  0  0  0  0  0  0
   -2.8326   24.2156  -30.9886 H   0  0  0  0  0  0  0  0  0  0  0  0
   -5.2334   25.9587  -29.8045 H   0  0  0  0  0  0  0  0  0  0  0  0
   -4.1915   25.5535  -31.2106 H   0  0  0  0  0  0  0  0  0  0  0  0
   -5.9242   25.0798  -31.2106 H   0  0  0  0  0  0  0  0  0  0  0  0
   -3.8511   25.0369  -28.2915 H   0  0  0  0  0  0  0  0  0  0  0  0
   -5.5466   24.3737  -28.0387 H   0  0  0  0  0  0  0  0  0  0  0  0
   -3.6101   23.4566  -26.5979 H   0  0  0  0  0  0  0  0  0  0  0  0
   -4.8144   22.3237  -27.4084 H   0  0  0  0  0  0  0  0  0  0  0  0
   -3.3180   20.3210  -27.9010 H   0  0  0  0  0  0  0  0  0  0  0  0
   -2.2695   21.7270  -26.1385 H   0  0  0  0  0  0  0  0  0  0  0  0
   -1.2033   20.9927  -27.4520 H   0  0  0  0  0  0  0  0  0  0  0  0
    0.2453   22.6185  -27.3815 H   0  0  0  0  0  0  0  0  0  0  0  0
   -0.0390   24.0470  -25.3800 H   0  0  0  0  0  0  0  0  0  0  0  0
   -1.9210   24.7126  -26.9396 H   0  0  0  0  0  0  0  0  0  0  0  0
   -0.1727   24.9889  -27.3693 H   0  0  0  0  0  0  0  0  0  0  0  0
   -1.9942   25.1048  -29.2338 H   0  0  0  0  0  0  0  0  0  0  0  0
   -0.4108   24.1960  -29.4947 H   0  0  0  0  0  0  0  0  0  0  0  0
   -0.5233   21.4807  -29.2705 H   0  0  0  0  0  0  0  0  0  0  0  0
   -1.5981   21.2342  -30.6885 H   0  0  0  0  0  0  0  0  0  0  0  0
   -0.4050   22.5771  -30.6885 H   0  0  0  0  0  0  0  0  0  0  0  0
  1  2  2  0
  2  3  1  0
  2  4  1  0
  4  5  1  0
  5  6  1  0
  6  7  1  0
  7  8  1  0
  8  9  1  6
  8 10  1  0
 10 11  1  0
 11 12  2  0
 11 13  1  0
 13 14  1  0
 14 15  1  6
 14 16  1  0
 16 17  1  0
 17 18  1  0
 18 19  1  6
 18 20  1  0
 20 21  1  0
 21 22  1  0
 21 23  1  0
 23 24  1  0
 24 25  1  0
 25 26  1  6
  8  4  1  0
 25 13  1  0
 14  7  1  0
 25 18  1  0
  1 27  1  0
  1 28  1  0
  3 29  1  0
  3 30  1  0
  3 31  1  0
  4 32  1  1
  5 33  1  0
  5 34  1  0
  6 35  1  0
  6 36  1  0
  7 37  1  1
  9 38  1  0
  9 39  1  0
  9 40  1  0
 10 41  1  0
 10 42  1  0
 13 43  1  6
 15 44  1  0
 15 45  1  0
 15 46  1  0
 16 47  1  0
 16 48  1  0
 17 49  1  0
 17 50  1  0
 19 51  1  0
 20 52  1  0
 20 53  1  0
 21 54  1  6
 22 55  1  0
 23 56  1  0
 23 57  1  0
 24 58  1  0
 24 59  1  0
 26 60  1  0
 26 61  1  0
 26 62  1  0
M  END
>  <UniqueID>  (25) 
23

>  <SMILES>  (25) 
C=C(C)[C@@H]1CC[C@@H]2C3(C)CCC4(O)CC(O)CCC4(C)C3C(=O)CC21C

>  <Energy>  (25) 
118.32601218861825

>  <Genealogy>  (25) 
C=C(C)[C@@H]1CC[C@@H]2C3(C)CCC4(O)CC(O)CCC4(C)C3C(=O)CC21C (chirality)
C=C(C)[C@@H]1CC[C@@H]2C3(C)CCC4(O)CC(O)CCC4(C)C3C(=O)CC21C (3D coordinates assigned)
C=C(C)[C@@H]1CC[C@@H]2C3(C)CCC4(O)CC(O)CCC4(C)C3C(=O)CC21C (nonaromatic ring conformer: 118.32601218861825 kcal/mol)

>  <smiles>  (25) 
C=C(C)C1CCC2C1(C)CC(=O)C1C2(C)CCC2(O)CC(O)CCC12C

>  <score_type>  (25) 
oracle

>  <origin>  (25) 
adgpu

>  <m_score__min__energy>  (25) 
-8.6600000000000001

>  <m_primary>  (25) 
energy

$$$$
25:0
     RDKit          3D

 47 49  0  0  0  0  0  0  0  0999 V2000
   -3.9130   22.2500  -28.1560 O   0  0  0  0  0  0  0  0  0  0  0  0
   -4.0580   23.4220  -28.5980 C   0  0  0  0  0  0  0  0  0  0  0  0
   -3.2820   24.5060  -28.0560 N   0  0  0  0  0  0  0  0  0  0  0  0
   -2.2910   24.3470  -27.0270 C   0  0  0  0  0  0  0  0  0  0  0  0
   -1.7150   23.0860  -26.8190 C   0  0  0  0  0  0  0  0  0  0  0  0
   -0.7770   22.8960  -25.8030 C   0  0  0  0  0  0  0  0  0  0  0  0
   -0.4080   23.9610  -24.9790 C   0  0  0  0  0  0  0  0  0  0  0  0
   -0.9710   25.2350  -25.1700 C   0  0  0  0  0  0  0  0  0  0  0  0
   -0.6290   26.3700  -24.2380 C   0  0  0  0  0  0  0  0  0  0  0  0
   -1.3610   27.4870  -24.5920 F   0  0  0  0  0  0  0  0  0  0  0  0
   -0.9230   26.0340  -22.9270 F   0  0  0  0  0  0  0  0  0  0  0  0
    0.7190   26.6720  -24.3130 F   0  0  0  0  0  0  0  0  0  0  0  0
   -1.9370   25.4110  -26.1780 C   0  0  0  0  0  0  0  0  0  0  0  0
   -5.0330   23.6600  -29.6850 C   0  0  0  0  0  0  0  0  0  0  0  0
   -6.1360   22.7980  -29.8160 C   0  0  0  0  0  0  0  0  0  0  0  0
   -7.0780   22.9940  -30.8340 C   0  0  0  0  0  0  0  0  0  0  0  0
   -8.4590   21.9040  -30.9830 S   0  0  0  0  0  0  0  0  0  0  0  0
   -9.3740   22.4150  -32.0620 O   0  0  0  0  0  0  0  0  0  0  0  0
   -9.2270   21.8930  -29.6900 O   0  0  0  0  0  0  0  0  0  0  0  0
   -7.9560   20.2780  -31.3740 N   0  0  0  0  0  0  0  0  0  0  0  0
   -9.0980   19.4930  -31.8710 C   0  0  0  0  0  0  0  0  0  0  0  0
   -8.7180   18.0050  -31.9780 C   0  0  0  0  0  0  0  0  0  0  0  0
   -7.2010   17.7950  -32.1320 C   0  0  0  0  0  0  0  0  0  0  0  0
   -6.5730   18.9140  -32.9680 C   0  0  0  0  0  0  0  0  0  0  0  0
   -6.8630   20.3090  -32.3690 C   0  0  0  0  0  0  0  0  0  0  0  0
   -6.9210   24.0620  -31.7270 C   0  0  0  0  0  0  0  0  0  0  0  0
   -5.8390   24.9340  -31.5940 C   0  0  0  0  0  0  0  0  0  0  0  0
   -4.9010   24.7470  -30.5730 C   0  0  0  0  0  0  0  0  0  0  0  0
   -3.8650   25.6650  -30.4330 O   0  0  0  0  0  0  0  0  0  0  0  0
   -3.4760   25.4770  -28.3860 H   0  0  0  0  0  0  0  0  0  0  0  0
   -2.0042   22.2407  -27.4607 H   0  0  0  0  0  0  0  0  0  0  0  0
   -0.3270   21.9038  -25.6510 H   0  0  0  0  0  0  0  0  0  0  0  0
    0.3271   23.8024  -24.1762 H   0  0  0  0  0  0  0  0  0  0  0  0
   -2.4204   26.3911  -26.3033 H   0  0  0  0  0  0  0  0  0  0  0  0
   -6.2604   21.9617  -29.1123 H   0  0  0  0  0  0  0  0  0  0  0  0
   -9.9434   19.6024  -31.1758 H   0  0  0  0  0  0  0  0  0  0  0  0
   -9.3793   19.8628  -32.8680 H   0  0  0  0  0  0  0  0  0  0  0  0
   -9.0553   17.4882  -31.0674 H   0  0  0  0  0  0  0  0  0  0  0  0
   -9.2051   17.5988  -32.8767 H   0  0  0  0  0  0  0  0  0  0  0  0
   -6.7361   17.7869  -31.1351 H   0  0  0  0  0  0  0  0  0  0  0  0
   -7.0306   16.8370  -32.6451 H   0  0  0  0  0  0  0  0  0  0  0  0
   -5.4842   18.7620  -33.0060 H   0  0  0  0  0  0  0  0  0  0  0  0
   -7.0126   18.8762  -33.9756 H   0  0  0  0  0  0  0  0  0  0  0  0
   -5.9503   20.6803  -31.8800 H   0  0  0  0  0  0  0  0  0  0  0  0
   -7.1762   20.9690  -33.1914 H   0  0  0  0  0  0  0  0  0  0  0  0
   -7.6520   24.2138  -32.5348 H   0  0  0  0  0  0  0  0  0  0  0  0
   -5.7233   25.7729  -32.2960 H   0  0  0  0  0  0  0  0  0  0  0  0
  1  2  2  0
  2  3  1  0
  3  4  1  0
  4  5  2  0
  5  6  1  0
  6  7  2  0
  7  8  1  0
  8  9  1  0
  9 10  1  0
  9 11  1  0
  9 12  1  0
  8 13  2  0
  2 14  1  0
 14 15  2  0
 15 16  1  0
 16 17  1  0
 17 18  2  0
 17 19  2  0
 17 20  1  0
 20 21  1  0
 21 22  1  0
 22 23  1  0
 23 24  1  0
 24 25  1  0
 16 26  2  0
 26 27  1  0
 27 28  2  0
 28 29  1  0
 13  4  1  0
 28 14  1  0
 25 20  1  0
  3 30  1  0
  5 31  1  0
  6 32  1  0
  7 33  1  0
 13 34  1  0
 15 35  1  0
 21 36  1  0
 21 37  1  0
 22 38  1  0
 22 39  1  0
 23 40  1  0
 23 41  1  0
 24 42  1  0
 24 43  1  0
 25 44  1  0
 25 45  1  0
 26 46  1  0
 27 47  1  0
M  CHG  1  29  -1
M  END
>  <UniqueID>  (26) 
24

>  <SMILES>  (26) 
O=C(Nc1cccc(C(F)(F)F)c1)c1cc(S(=O)(=O)N2CCCCC2)ccc1[O-]

>  <Energy>  (26) 
60.032904646509685

>  <Genealogy>  (26) 
O=C(Nc1cccc(C(F)(F)F)c1)c1cc(S(=O)(=O)N2CCCCC2)ccc1[O-] (protonated)
O=C(Nc1cccc(C(F)(F)F)c1)c1cc(S(=O)(=O)N2CCCCC2)ccc1[O-] (3D coordinates assigned)
O=C(Nc1cccc(C(F)(F)F)c1)c1cc(S(=O)(=O)N2CCCCC2)ccc1[O-] (nonaromatic ring conformer: 60.032904646509685 kcal/mol)

>  <smiles>  (26) 
O=C(Nc1cccc(C(F)(F)F)c1)c1cc(S(=O)(=O)N2CCCCC2)ccc1O

>  <score_type>  (26) 
oracle

>  <origin>  (26) 
adgpu

>  <m_score__min__energy>  (26) 
-12.52

>  <m_primary>  (26) 
energy

$$$$
26:0
     RDKit          3D

 42 44  0  0  0  0  0  0  0  0999 V2000
   -1.7300   22.5000  -31.3550 O   0  0  0  0  0  0  0  0  0  0  0  0
   -2.4720   22.4970  -30.3390 C   0  0  0  0  0  0  0  0  0  0  0  0
   -2.0170   21.8200  -29.1580 N   0  0  0  0  0  0  0  0  0  0  0  0
   -1.3340   22.4330  -28.0560 C   0  0  0  0  0  0  0  0  0  0  0  0
   -1.3850   21.8000  -26.8060 C   0  0  0  0  0  0  0  0  0  0  0  0
   -0.8060   22.4000  -25.6840 C   0  0  0  0  0  0  0  0  0  0  0  0
   -0.1600   23.6310  -25.8060 C   0  0  0  0  0  0  0  0  0  0  0  0
   -0.0710   24.2550  -27.0530 C   0  0  0  0  0  0  0  0  0  0  0  0
   -0.6320   23.6550  -28.1870 C   0  0  0  0  0  0  0  0  0  0  0  0
   -0.4480   24.2760  -29.4230 O   0  0  0  0  0  0  0  0  0  0  0  0
   -3.7960   23.1660  -30.4010 C   0  0  0  0  0  0  0  0  0  0  0  0
   -4.9390   22.4350  -30.7670 C   0  0  0  0  0  0  0  0  0  0  0  0
   -6.1980   23.0470  -30.8110 C   0  0  0  0  0  0  0  0  0  0  0  0
   -7.6270   22.1060  -31.2420 S   0  0  0  0  0  0  0  0  0  0  0  0
   -8.3660   22.8110  -32.3450 O   0  0  0  0  0  0  0  0  0  0  0  0
   -8.5410   22.0230  -30.0500 O   0  0  0  0  0  0  0  0  0  0  0  0
   -7.2110   20.4930  -31.7680 N   0  0  0  0  0  0  0  0  0  0  0  0
   -6.5680   20.5320  -33.0910 C   0  0  0  0  0  0  0  0  0  0  0  0
   -6.3850   19.1040  -33.6480 C   0  0  0  0  0  0  0  0  0  0  0  0
   -6.6630   18.1300  -32.6600 O   0  0  0  0  0  0  0  0  0  0  0  0
   -8.0230   18.2180  -32.2700 C   0  0  0  0  0  0  0  0  0  0  0  0
   -8.4070   19.6400  -31.8100 C   0  0  0  0  0  0  0  0  0  0  0  0
   -6.3140   24.4090  -30.5060 C   0  0  0  0  0  0  0  0  0  0  0  0
   -5.1820   25.1500  -30.1630 C   0  0  0  0  0  0  0  0  0  0  0  0
   -3.9270   24.5380  -30.1060 C   0  0  0  0  0  0  0  0  0  0  0  0
   -2.8200   25.2970  -29.7400 O   0  0  0  0  0  0  0  0  0  0  0  0
   -1.8840   20.8246  -26.7075 H   0  0  0  0  0  0  0  0  0  0  0  0
   -0.8596   21.9018  -24.7048 H   0  0  0  0  0  0  0  0  0  0  0  0
    0.2798   24.1107  -24.9192 H   0  0  0  0  0  0  0  0  0  0  0  0
    0.4428   25.2233  -27.1444 H   0  0  0  0  0  0  0  0  0  0  0  0
   -1.1310   24.2280  -30.1680 H   0  0  0  0  0  0  0  0  0  0  0  0
   -4.8437   21.3692  -31.0220 H   0  0  0  0  0  0  0  0  0  0  0  0
   -7.1976   21.1117  -33.7821 H   0  0  0  0  0  0  0  0  0  0  0  0
   -5.5791   21.0033  -32.9911 H   0  0  0  0  0  0  0  0  0  0  0  0
   -7.0694   18.9595  -34.4969 H   0  0  0  0  0  0  0  0  0  0  0  0
   -5.3393   18.9865  -33.9686 H   0  0  0  0  0  0  0  0  0  0  0  0
   -8.6556   17.9397  -33.1258 H   0  0  0  0  0  0  0  0  0  0  0  0
   -8.1754   17.5358  -31.4207 H   0  0  0  0  0  0  0  0  0  0  0  0
   -9.1349   20.0672  -32.5154 H   0  0  0  0  0  0  0  0  0  0  0  0
   -8.8497   19.5878  -30.8044 H   0  0  0  0  0  0  0  0  0  0  0  0
   -7.2998   24.8960  -30.5369 H   0  0  0  0  0  0  0  0  0  0  0  0
   -5.2783   26.2220  -29.9362 H   0  0  0  0  0  0  0  0  0  0  0  0
  1  2  2  0
  2  3  1  0
  3  4  1  0
  4  5  2  0
  5  6  1  0
  6  7  2  0
  7  8  1  0
  8  9  2  0
  9 10  1  0
  2 11  1  0
 11 12  2  0
 12 13  1  0
 13 14  1  0
 14 15  2  0
 14 16  2  0
 14 17  1  0
 17 18  1  0
 18 19  1  0
 19 20  1  0
 20 21  1  0
 21 22  1  0
 13 23  2  0
 23 24  1  0
 24 25  2  0
 25 26  1  0
  9  4  1  0
 25 11  1  0
 22 17  1  0
  5 27  1  0
  6 28  1  0
  7 29  1  0
  8 30  1  0
 10 31  1  0
 12 32  1  0
 18 33  1  0
 18 34  1  0
 19 35  1  0
 19 36  1  0
 21 37  1  0
 21 38  1  0
 22 39  1  0
 22 40  1  0
 23 41  1  0
 24 42  1  0
M  CHG  2   3  -1  26  -1
M  END
>  <UniqueID>  (27) 
25

>  <SMILES>  (27) 
O=C([N-]c1ccccc1O)c1cc(S(=O)(=O)N2CCOCC2)ccc1[O-]

>  <Energy>  (27) 
60.98721813922947

>  <Genealogy>  (27) 
O=C([N-]c1ccccc1O)c1cc(S(=O)(=O)N2CCOCC2)ccc1[O-] (protonated)
O=C([N-]c1ccccc1O)c1cc(S(=O)(=O)N2CCOCC2)ccc1[O-] (3D coordinates assigned)
O=C([N-]c1ccccc1O)c1cc(S(=O)(=O)N2CCOCC2)ccc1[O-] (nonaromatic ring conformer: 60.98721813922947 kcal/mol)

>  <smiles>  (27) 
O=C(Nc1ccccc1O)c1cc(S(=O)(=O)N2CCOCC2)ccc1O

>  <score_type>  (27) 
oracle

>  <origin>  (27) 
adgpu

>  <m_score__min__energy>  (27) 
-12.789999999999999

>  <m_primary>  (27) 
energy

$$$$
27:0
     RDKit          3D

 55 58  0  0  0  0  0  0  0  0999 V2000
   -4.0820   25.6670  -30.8620 O   0  0  0  0  0  0  0  0  0  0  0  0
   -4.2460   24.5850  -30.2380 C   0  0  0  0  0  0  0  0  0  0  0  0
   -3.4840   24.3540  -29.0450 N   0  0  0  0  0  0  0  0  0  0  0  0
   -2.6790   23.1970  -28.7730 C   0  0  0  0  0  0  0  0  0  0  0  0
   -3.0700   22.2310  -27.8280 C   0  0  0  0  0  0  0  0  0  0  0  0
   -2.2580   21.1230  -27.5760 C   0  0  0  0  0  0  0  0  0  0  0  0
   -1.0550   20.9480  -28.2780 C   0  0  0  0  0  0  0  0  0  0  0  0
   -0.2090   19.8150  -27.9990 N   0  0  0  0  0  0  0  0  0  0  0  0
    1.2460   19.9080  -28.1760 C   0  0  0  0  0  0  0  0  0  0  0  0
    1.8250   18.5860  -28.7320 C   0  0  0  0  0  0  0  0  0  0  0  0
    0.8960   17.5140  -28.7480 O   0  0  0  0  0  0  0  0  0  0  0  0
    0.2140   17.4420  -27.5140 C   0  0  0  0  0  0  0  0  0  0  0  0
   -0.7840   18.5970  -27.4170 C   0  0  0  0  0  0  0  0  0  0  0  0
   -0.6790   21.9020  -29.2380 C   0  0  0  0  0  0  0  0  0  0  0  0
   -1.4920   23.0120  -29.4900 C   0  0  0  0  0  0  0  0  0  0  0  0
   -5.2410   23.6050  -30.7320 C   0  0  0  0  0  0  0  0  0  0  0  0
   -6.5770   23.9870  -30.9460 C   0  0  0  0  0  0  0  0  0  0  0  0
   -7.5230   23.0450  -31.3570 C   0  0  0  0  0  0  0  0  0  0  0  0
   -7.1460   21.7150  -31.5720 C   0  0  0  0  0  0  0  0  0  0  0  0
   -8.3540   20.5070  -31.9990 S   0  0  0  0  0  0  0  0  0  0  0  0
   -8.8740   19.8480  -30.7500 O   0  0  0  0  0  0  0  0  0  0  0  0
   -9.5030   21.1850  -32.6940 O   0  0  0  0  0  0  0  0  0  0  0  0
   -7.6440   19.3160  -33.0590 N   0  0  0  0  0  0  0  0  0  0  0  0
   -7.1600   18.1650  -32.2780 C   0  0  0  0  0  0  0  0  0  0  0  0
   -6.5010   17.1160  -33.2030 C   0  0  0  0  0  0  0  0  0  0  0  0
   -6.3320   17.5890  -34.5280 O   0  0  0  0  0  0  0  0  0  0  0  0
   -5.6690   18.8370  -34.5090 C   0  0  0  0  0  0  0  0  0  0  0  0
   -6.5450   19.9180  -33.8440 C   0  0  0  0  0  0  0  0  0  0  0  0
   -5.8100   21.3340  -31.3860 C   0  0  0  0  0  0  0  0  0  0  0  0
   -4.8610   22.2770  -30.9790 C   0  0  0  0  0  0  0  0  0  0  0  0
   -4.0194   22.3489  -27.2852 H   0  0  0  0  0  0  0  0  0  0  0  0
   -2.5632   20.3823  -26.8222 H   0  0  0  0  0  0  0  0  0  0  0  0
    1.4709   20.7228  -28.8799 H   0  0  0  0  0  0  0  0  0  0  0  0
    1.7052   20.1057  -27.1962 H   0  0  0  0  0  0  0  0  0  0  0  0
    2.1667   18.7637  -29.7624 H   0  0  0  0  0  0  0  0  0  0  0  0
    2.6444   18.2888  -28.0610 H   0  0  0  0  0  0  0  0  0  0  0  0
   -0.3245   16.4851  -27.4476 H   0  0  0  0  0  0  0  0  0  0  0  0
    0.9384   17.5121  -26.6892 H   0  0  0  0  0  0  0  0  0  0  0  0
   -1.7011   18.3314  -27.9633 H   0  0  0  0  0  0  0  0  0  0  0  0
   -1.0172   18.7813  -26.3579 H   0  0  0  0  0  0  0  0  0  0  0  0
    0.2609   21.7753  -29.7952 H   0  0  0  0  0  0  0  0  0  0  0  0
   -1.1964   23.7437  -30.2563 H   0  0  0  0  0  0  0  0  0  0  0  0
   -6.8789   25.0330  -30.7890 H   0  0  0  0  0  0  0  0  0  0  0  0
   -8.5684   23.3501  -31.5122 H   0  0  0  0  0  0  0  0  0  0  0  0
   -8.3950   18.9920  -33.7140 H   0  0  0  0  0  0  0  0  0  0  0  0
   -6.4202   18.5132  -31.5421 H   0  0  0  0  0  0  0  0  0  0  0  0
   -8.0156   17.6989  -31.7674 H   0  0  0  0  0  0  0  0  0  0  0  0
   -5.5141   16.8551  -32.7932 H   0  0  0  0  0  0  0  0  0  0  0  0
   -7.1669   16.2414  -33.2433 H   0  0  0  0  0  0  0  0  0  0  0  0
   -4.7303   18.7371  -33.9443 H   0  0  0  0  0  0  0  0  0  0  0  0
   -5.4643   19.1409  -35.5462 H   0  0  0  0  0  0  0  0  0  0  0  0
   -5.9177   20.5246  -33.1743 H   0  0  0  0  0  0  0  0  0  0  0  0
   -6.9867   20.5404  -34.6362 H   0  0  0  0  0  0  0  0  0  0  0  0
   -5.5074   20.2910  -31.5606 H   0  0  0  0  0  0  0  0  0  0  0  0
   -3.8107   21.9760  -30.8518 H   0  0  0  0  0  0  0  0  0  0  0  0
  1  2  2  0
  2  3  1  0
  3  4  1  0
  4  5  2  0
  5  6  1  0
  6  7  2  0
  7  8  1  0
  8  9  1  0
  9 10  1  0
 10 11  1  0
 11 12  1  0
 12 13  1  0
  7 14  1  0
 14 15  2  0
  2 16  1  0
 16 17  2  0
 17 18  1  0
 18 19  2  0
 19 20  1  0
 20 21  2  0
 20 22  2  0
 20 23  1  0
 23 24  1  0
 24 25  1  0
 25 26  1  0
 26 27  1  0
 27 28  1  0
 19 29  1  0
 29 30  2  0
 15  4  1  0
 30 16  1  0
 13  8  1  0
 28 23  1  0
  5 31  1  0
  6 32  1  0
  9 33  1  0
  9 34  1  0
 10 35  1  0
 10 36  1  0
 12 37  1  0
 12 38  1  0
 13 39  1  0
 13 40  1  0
 14 41  1  0
 15 42  1  0
 17 43  1  0
 18 44  1  0
 23 45  1  0
 24 46  1  0
 24 47  1  0
 25 48  1  0
 25 49  1  0
 27 50  1  0
 27 51  1  0
 28 52  1  0
 28 53  1  0
 29 54  1  0
 30 55  1  0
M  CHG  2   3  -1  23   1
M  END
>  <UniqueID>  (28) 
26

>  <SMILES>  (28) 
O=C([N-]c1ccc(N2CCOCC2)cc1)c1ccc(S(=O)(=O)[NH+]2CCOCC2)cc1

>  <Energy>  (28) 
81.50606637211551

>  <Genealogy>  (28) 
O=C([N-]c1ccc(N2CCOCC2)cc1)c1ccc(S(=O)(=O)[NH+]2CCOCC2)cc1 (protonated)
O=C([N-]c1ccc(N2CCOCC2)cc1)c1ccc(S(=O)(=O)[NH+]2CCOCC2)cc1 (3D coordinates assigned)
O=C([N-]c1ccc(N2CCOCC2)cc1)c1ccc(S(=O)(=O)[NH+]2CCOCC2)cc1 (nonaromatic ring conformer: 81.50606637211551 kcal/mol)

>  <smiles>  (28) 
O=C(Nc1ccc(N2CCOCC2)cc1)c1ccc(S(=O)(=O)N2CCOCC2)cc1

>  <score_type>  (28) 
oracle

>  <origin>  (28) 
adgpu

>  <m_score__min__energy>  (28) 
-11.539999999999999

>  <m_primary>  (28) 
energy

$$$$
28:0
     RDKit          3D

 58 61  0  0  0  0  0  0  0  0999 V2000
   -8.5270   22.1370  -30.8190 C   0  0  0  0  0  0  0  0  0  0  0  0
   -7.9340   20.9660  -31.5530 C   0  0  0  0  0  0  0  0  0  0  0  0
   -8.7790   19.9500  -32.0290 C   0  0  0  0  0  0  0  0  0  0  0  0
   -8.2570   18.8560  -32.7190 C   0  0  0  0  0  0  0  0  0  0  0  0
   -6.8830   18.7660  -32.9620 C   0  0  0  0  0  0  0  0  0  0  0  0
   -6.2230   17.3850  -33.8480 S   0  0  0  0  0  0  0  0  0  0  0  0
   -6.0340   17.7730  -35.2880 O   0  0  0  0  0  0  0  0  0  0  0  0
   -7.2130   16.2540  -33.7970 O   0  0  0  0  0  0  0  0  0  0  0  0
   -4.6950   16.8330  -33.2050 N   0  0  0  0  0  0  0  0  0  0  0  0
   -3.5680   17.6020  -33.7280 C   0  0  0  0  0  0  0  0  0  0  0  0
   -2.3490   16.7010  -33.6180 C   0  0  0  0  0  0  0  0  0  0  0  0
   -2.9040   15.2850  -33.5490 C   0  0  0  0  0  0  0  0  0  0  0  0
   -4.4180   15.4420  -33.5590 C   0  0  0  0  0  0  0  0  0  0  0  0
   -6.0310   19.7730  -32.4900 C   0  0  0  0  0  0  0  0  0  0  0  0
   -6.5410   20.8750  -31.7800 C   0  0  0  0  0  0  0  0  0  0  0  0
   -5.6590   21.9260  -31.3430 N   0  0  0  0  0  0  0  0  0  0  0  0
   -4.2750   21.7250  -31.0290 C   0  0  0  0  0  0  0  0  0  0  0  0
   -3.7960   20.5600  -30.9740 O   0  0  0  0  0  0  0  0  0  0  0  0
   -3.4390   22.8670  -30.8040 N   0  0  0  0  0  0  0  0  0  0  0  0
   -2.3140   22.9480  -29.9140 C   0  0  0  0  0  0  0  0  0  0  0  0
   -1.5660   21.8160  -29.5640 C   0  0  0  0  0  0  0  0  0  0  0  0
   -0.4730   21.9330  -28.7110 C   0  0  0  0  0  0  0  0  0  0  0  0
   -0.1110   23.1770  -28.1680 C   0  0  0  0  0  0  0  0  0  0  0  0
    1.0980   23.2370  -27.2700 C   0  0  0  0  0  0  0  0  0  0  0  0
   -0.9060   24.3170  -28.4510 C   0  0  0  0  0  0  0  0  0  0  0  0
   -0.5390   25.9110  -27.7470 S   0  0  0  0  0  0  0  0  0  0  0  0
   -0.9340   27.0100  -28.6940 O   0  0  0  0  0  0  0  0  0  0  0  0
    0.9380   26.0380  -27.4990 O   0  0  0  0  0  0  0  0  0  0  0  0
   -1.3970   26.0550  -26.1800 C   0  0  0  0  0  0  0  0  0  0  0  0
   -1.3130   24.8530  -25.2520 C   0  0  0  0  0  0  0  0  0  0  0  0
   -2.5830   25.1150  -26.0440 C   0  0  0  0  0  0  0  0  0  0  0  0
   -1.9930   24.1880  -29.3440 C   0  0  0  0  0  0  0  0  0  0  0  0
   -2.7550   25.2990  -29.6940 O   0  0  0  0  0  0  0  0  0  0  0  0
   -8.4429   21.9709  -29.7349 H   0  0  0  0  0  0  0  0  0  0  0  0
   -7.9847   23.0541  -31.0926 H   0  0  0  0  0  0  0  0  0  0  0  0
   -9.5872   22.2425  -31.0926 H   0  0  0  0  0  0  0  0  0  0  0  0
   -9.8632   20.0178  -31.8559 H   0  0  0  0  0  0  0  0  0  0  0  0
   -8.9291   18.0606  -33.0735 H   0  0  0  0  0  0  0  0  0  0  0  0
   -3.7472   17.8737  -34.7787 H   0  0  0  0  0  0  0  0  0  0  0  0
   -3.4264   18.5366  -33.1655 H   0  0  0  0  0  0  0  0  0  0  0  0
   -1.7014   16.8189  -34.4993 H   0  0  0  0  0  0  0  0  0  0  0  0
   -1.7353   16.9453  -32.7384 H   0  0  0  0  0  0  0  0  0  0  0  0
   -2.5723   14.6990  -34.4188 H   0  0  0  0  0  0  0  0  0  0  0  0
   -2.5544   14.7524  -32.6523 H   0  0  0  0  0  0  0  0  0  0  0  0
   -4.8164   15.2183  -34.5596 H   0  0  0  0  0  0  0  0  0  0  0  0
   -4.8938   14.7493  -32.8492 H   0  0  0  0  0  0  0  0  0  0  0  0
   -4.9494   19.7010  -32.6770 H   0  0  0  0  0  0  0  0  0  0  0  0
   -6.0480   22.8860  -31.2070 H   0  0  0  0  0  0  0  0  0  0  0  0
   -1.8442   20.8304  -29.9654 H   0  0  0  0  0  0  0  0  0  0  0  0
    0.1159   21.0389  -28.4583 H   0  0  0  0  0  0  0  0  0  0  0  0
    0.7750   23.2210  -26.2186 H   0  0  0  0  0  0  0  0  0  0  0  0
    1.7452   22.3699  -27.4680 H   0  0  0  0  0  0  0  0  0  0  0  0
    1.6562   24.1640  -27.4680 H   0  0  0  0  0  0  0  0  0  0  0  0
   -1.2185   27.1330  -26.0536 H   0  0  0  0  0  0  0  0  0  0  0  0
   -0.6681   24.0008  -25.5126 H   0  0  0  0  0  0  0  0  0  0  0  0
   -1.0760   24.7067  -24.1878 H   0  0  0  0  0  0  0  0  0  0  0  0
   -2.8576   24.4521  -26.8778 H   0  0  0  0  0  0  0  0  0  0  0  0
   -3.6464   25.2367  -25.7902 H   0  0  0  0  0  0  0  0  0  0  0  0
  1  2  1  0
  2  3  2  0
  3  4  1  0
  4  5  2  0
  5  6  1  0
  6  7  2  0
  6  8  2  0
  6  9  1  0
  9 10  1  0
 10 11  1  0
 11 12  1  0
 12 13  1  0
  5 14  1  0
 14 15  2  0
 15 16  1  0
 16 17  1  0
 17 18  2  0
 17 19  1  0
 19 20  1  0
 20 21  2  0
 21 22  1  0
 22 23  2  0
 23 24  1  0
 23 25  1  0
 25 26  1  0
 26 27  2  0
 26 28  2  0
 26 29  1  0
 29 30  1  0
 30 31  1  0
 25 32  2  0
 32 33  1  0
 15  2  1  0
 32 20  1  0
 13  9  1  0
 31 29  1  0
  1 34  1  0
  1 35  1  0
  1 36  1  0
  3 37  1  0
  4 38  1  0
 10 39  1  0
 10 40  1  0
 11 41  1  0
 11 42  1  0
 12 43  1  0
 12 44  1  0
 13 45  1  0
 13 46  1  0
 14 47  1  0
 16 48  1  0
 21 49  1  0
 22 50  1  0
 24 51  1  0
 24 52  1  0
 24 53  1  0
 29 54  1  0
 30 55  1  0
 30 56  1  0
 31 57  1  0
 31 58  1  0
M  CHG  2  19  -1  33  -1
M  END
>  <UniqueID>  (29) 
27

>  <SMILES>  (29) 
Cc1ccc(S(=O)(=O)N2CCCC2)cc1NC(=O)[N-]c1ccc(C)c(S(=O)(=O)C2CC2)c1[O-]

>  <Energy>  (29) 
334.9274539187389

>  <Genealogy>  (29) 
Cc1ccc(S(=O)(=O)N2CCCC2)cc1NC(=O)[N-]c1ccc(C)c(S(=O)(=O)C2CC2)c1[O-] (protonated)
Cc1ccc(S(=O)(=O)N2CCCC2)cc1NC(=O)[N-]c1ccc(C)c(S(=O)(=O)C2CC2)c1[O-] (3D coordinates assigned)
Cc1ccc(S(=O)(=O)N2CCCC2)cc1NC(=O)[N-]c1ccc(C)c(S(=O)(=O)C2CC2)c1[O-] (nonaromatic ring conformer: 334.9274539187389 kcal/mol)

>  <smiles>  (29) 
Cc1ccc(S(=O)(=O)N2CCCC2)cc1NC(=O)Nc1ccc(C)c(S(=O)(=O)C2CC2)c1O

>  <score_type>  (29) 
oracle

>  <origin>  (29) 
adgpu

>  <m_score__min__energy>  (29) 
-14.52

>  <m_primary>  (29) 
energy

$$$$
29:0
     RDKit          3D

 53 56  0  0  0  0  0  0  0  0999 V2000
   -6.5180   25.9030  -29.6280 O   0  0  0  0  0  0  0  0  0  0  0  0
   -5.3650   25.0000  -29.9620 S   0  0  0  0  0  0  0  0  0  0  0  0
   -4.5120   25.6700  -31.0030 O   0  0  0  0  0  0  0  0  0  0  0  0
   -4.4140   24.7270  -28.5350 N   0  0  0  0  0  0  0  0  0  0  0  0
   -3.2620   23.8580  -28.4850 C   0  0  0  0  0  0  0  0  0  0  0  0
   -3.3620   22.5250  -28.0470 C   0  0  0  0  0  0  0  0  0  0  0  0
   -2.2350   21.6920  -27.9920 C   0  0  0  0  0  0  0  0  0  0  0  0
   -0.9690   22.2090  -28.3550 C   0  0  0  0  0  0  0  0  0  0  0  0
   -0.8740   23.5280  -28.8180 C   0  0  0  0  0  0  0  0  0  0  0  0
   -2.0040   24.3480  -28.8800 C   0  0  0  0  0  0  0  0  0  0  0  0
   -1.8650   25.6530  -29.3410 O   0  0  0  0  0  0  0  0  0  0  0  0
    0.2620   21.3350  -28.3750 C   0  0  0  0  0  0  0  0  0  0  0  0
    0.1160   20.0980  -27.4850 C   0  0  0  0  0  0  0  0  0  0  0  0
   -1.2050   19.3870  -27.7760 C   0  0  0  0  0  0  0  0  0  0  0  0
   -2.3890   20.2950  -27.4360 C   0  0  0  0  0  0  0  0  0  0  0  0
   -5.9980   23.4690  -30.5560 C   0  0  0  0  0  0  0  0  0  0  0  0
   -5.1230   22.3940  -30.7690 C   0  0  0  0  0  0  0  0  0  0  0  0
   -5.6060   21.1860  -31.2780 C   0  0  0  0  0  0  0  0  0  0  0  0
   -6.9680   21.0410  -31.5780 C   0  0  0  0  0  0  0  0  0  0  0  0
   -7.5860   19.5380  -32.2580 S   0  0  0  0  0  0  0  0  0  0  0  0
   -8.4230   18.8170  -31.2390 O   0  0  0  0  0  0  0  0  0  0  0  0
   -8.4470   19.8660  -33.4440 O   0  0  0  0  0  0  0  0  0  0  0  0
   -6.2530   18.5250  -32.7550 N   0  0  0  0  0  0  0  0  0  0  0  0
   -6.6120   17.0900  -32.6770 C   0  0  0  0  0  0  0  0  0  0  0  0
   -6.8780   16.4830  -34.0670 C   0  0  0  0  0  0  0  0  0  0  0  0
   -5.7620   16.5870  -34.9390 O   0  0  0  0  0  0  0  0  0  0  0  0
   -5.0220   17.7920  -34.7850 C   0  0  0  0  0  0  0  0  0  0  0  0
   -5.7890   18.9350  -34.0970 C   0  0  0  0  0  0  0  0  0  0  0  0
   -7.8430   22.1140  -31.3630 C   0  0  0  0  0  0  0  0  0  0  0  0
   -7.3610   23.3220  -30.8500 C   0  0  0  0  0  0  0  0  0  0  0  0
   -4.7420   25.1960  -27.6640 H   0  0  0  0  0  0  0  0  0  0  0  0
   -4.3418   22.1288  -27.7421 H   0  0  0  0  0  0  0  0  0  0  0  0
    0.1020   23.9230  -29.1366 H   0  0  0  0  0  0  0  0  0  0  0  0
    0.4448   21.0065  -29.4087 H   0  0  0  0  0  0  0  0  0  0  0  0
    1.1013   21.9301  -27.9859 H   0  0  0  0  0  0  0  0  0  0  0  0
    0.9501   19.4086  -27.6825 H   0  0  0  0  0  0  0  0  0  0  0  0
    0.1279   20.4126  -26.4310 H   0  0  0  0  0  0  0  0  0  0  0  0
   -1.2463   19.1226  -28.8430 H   0  0  0  0  0  0  0  0  0  0  0  0
   -1.2640   18.4792  -27.1576 H   0  0  0  0  0  0  0  0  0  0  0  0
   -3.3043   19.8498  -27.8531 H   0  0  0  0  0  0  0  0  0  0  0  0
   -2.4381   20.3784  -26.3403 H   0  0  0  0  0  0  0  0  0  0  0  0
   -4.0537   22.5022  -30.5347 H   0  0  0  0  0  0  0  0  0  0  0  0
   -4.9156   20.3459  -31.4440 H   0  0  0  0  0  0  0  0  0  0  0  0
   -5.7838   16.5424  -32.2034 H   0  0  0  0  0  0  0  0  0  0  0  0
   -7.5365   17.0037  -32.0872 H   0  0  0  0  0  0  0  0  0  0  0  0
   -7.1285   15.4191  -33.9431 H   0  0  0  0  0  0  0  0  0  0  0  0
   -7.7051   17.0485  -34.5210 H   0  0  0  0  0  0  0  0  0  0  0  0
   -4.1272   17.5701  -34.1849 H   0  0  0  0  0  0  0  0  0  0  0  0
   -4.7864   18.1434  -35.8004 H   0  0  0  0  0  0  0  0  0  0  0  0
   -5.1247   19.8062  -33.9979 H   0  0  0  0  0  0  0  0  0  0  0  0
   -6.6663   19.1889  -34.7101 H   0  0  0  0  0  0  0  0  0  0  0  0
   -8.9120   22.0057  -31.5985 H   0  0  0  0  0  0  0  0  0  0  0  0
   -8.0530   24.1593  -30.6766 H   0  0  0  0  0  0  0  0  0  0  0  0
  1  2  2  0
  2  3  2  0
  2  4  1  0
  4  5  1  0
  5  6  2  0
  6  7  1  0
  7  8  2  0
  8  9  1  0
  9 10  2  0
 10 11  1  0
  8 12  1  0
 12 13  1  0
 13 14  1  0
 14 15  1  0
  2 16  1  0
 16 17  2  0
 17 18  1  0
 18 19  2  0
 19 20  1  0
 20 21  2  0
 20 22  2  0
 20 23  1  0
 23 24  1  0
 24 25  1  0
 25 26  1  0
 26 27  1  0
 27 28  1  0
 19 29  1  0
 29 30  2  0
 10  5  1  0
 30 16  1  0
 15  7  1  0
 28 23  1  0
  4 31  1  0
  6 32  1  0
  9 33  1  0
 12 34  1  0
 12 35  1  0
 13 36  1  0
 13 37  1  0
 14 38  1  0
 14 39  1  0
 15 40  1  0
 15 41  1  0
 17 42  1  0
 18 43  1  0
 24 44  1  0
 24 45  1  0
 25 46  1  0
 25 47  1  0
 27 48  1  0
 27 49  1  0
 28 50  1  0
 28 51  1  0
 29 52  1  0
 30 53  1  0
M  CHG  1  11  -1
M  END
>  <UniqueID>  (30) 
28

>  <SMILES>  (30) 
O=S(=O)(Nc1cc2c(cc1[O-])CCCC2)c1ccc(S(=O)(=O)N2CCOCC2)cc1

>  <Energy>  (30) 
69.54139493042882

>  <Genealogy>  (30) 
O=S(=O)(Nc1cc2c(cc1[O-])CCCC2)c1ccc(S(=O)(=O)N2CCOCC2)cc1 (protonated)
O=S(=O)(Nc1cc2c(cc1[O-])CCCC2)c1ccc(S(=O)(=O)N2CCOCC2)cc1 (3D coordinates assigned)
O=S(=O)(Nc1cc2c(cc1[O-])CCCC2)c1ccc(S(=O)(=O)N2CCOCC2)cc1 (nonaromatic ring conformer: 69.54139493042882 kcal/mol)

>  <smiles>  (30) 
O=S(=O)(Nc1cc2c(cc1O)CCCC2)c1ccc(S(=O)(=O)N2CCOCC2)cc1

>  <score_type>  (30) 
oracle

>  <origin>  (30) 
adgpu

>  <m_score__min__energy>  (30) 
-14.48

>  <m_primary>  (30) 
energy

$$$$
30:0
     RDKit          3D

 45 46  0  0  0  0  0  0  0  0999 V2000
   -3.1030   24.4320  -27.1110 C   0  0  0  0  0  0  0  0  0  0  0  0
   -3.9450   23.2960  -27.6820 C   0  0  0  0  0  0  0  0  0  0  0  0
   -3.3410   22.7690  -28.9670 C   0  0  0  0  0  0  0  0  0  0  0  0
   -3.1090   23.6030  -30.0890 C   0  0  0  0  0  0  0  0  0  0  0  0
   -3.4480   24.9940  -30.0900 N   0  0  0  0  0  0  0  0  0  0  0  0
   -2.5420   23.0770  -31.2070 N   0  0  0  0  0  0  0  0  0  0  0  0
   -2.1800   21.7720  -31.2740 C   0  0  0  0  0  0  0  0  0  0  0  0
   -1.4380   21.1250  -32.7700 S   0  0  0  0  0  0  0  0  0  0  0  0
   -2.3070   19.5220  -32.6880 C   0  0  0  0  0  0  0  0  0  0  0  0
   -3.7870   19.7120  -32.8140 C   0  0  0  0  0  0  0  0  0  0  0  0
   -4.3270   19.6370  -33.9510 O   0  0  0  0  0  0  0  0  0  0  0  0
   -4.5760   20.0010  -31.6520 N   0  0  0  0  0  0  0  0  0  0  0  0
   -5.9780   20.2990  -31.7350 C   0  0  0  0  0  0  0  0  0  0  0  0
   -6.9190   19.2490  -31.6820 C   0  0  0  0  0  0  0  0  0  0  0  0
   -6.4660   17.8210  -31.5310 C   0  0  0  0  0  0  0  0  0  0  0  0
   -8.2900   19.5360  -31.7750 C   0  0  0  0  0  0  0  0  0  0  0  0
   -8.7340   20.8590  -31.8990 C   0  0  0  0  0  0  0  0  0  0  0  0
  -10.2000   21.1620  -32.0140 C   0  0  0  0  0  0  0  0  0  0  0  0
   -7.7990   21.8980  -31.9740 C   0  0  0  0  0  0  0  0  0  0  0  0
   -6.4230   21.6300  -31.9110 C   0  0  0  0  0  0  0  0  0  0  0  0
   -5.4490   22.7710  -32.0200 C   0  0  0  0  0  0  0  0  0  0  0  0
   -2.3820   20.9580  -30.2120 N   0  0  0  0  0  0  0  0  0  0  0  0
   -2.9410   21.4200  -29.0650 C   0  0  0  0  0  0  0  0  0  0  0  0
   -3.0940   20.6300  -28.0960 O   0  0  0  0  0  0  0  0  0  0  0  0
   -3.1318   24.3932  -26.0121 H   0  0  0  0  0  0  0  0  0  0  0  0
   -2.0634   24.3263  -27.4545 H   0  0  0  0  0  0  0  0  0  0  0  0
   -3.5065   25.3959  -27.4545 H   0  0  0  0  0  0  0  0  0  0  0  0
   -3.9951   22.4798  -26.9463 H   0  0  0  0  0  0  0  0  0  0  0  0
   -4.9527   23.6800  -27.8988 H   0  0  0  0  0  0  0  0  0  0  0  0
   -3.1030   25.6630  -30.8110 H   0  0  0  0  0  0  0  0  0  0  0  0
   -4.0950   25.3660  -29.3600 H   0  0  0  0  0  0  0  0  0  0  0  0
   -1.9550   18.8787  -33.5079 H   0  0  0  0  0  0  0  0  0  0  0  0
   -2.0932   19.0546  -31.7155 H   0  0  0  0  0  0  0  0  0  0  0  0
   -4.0840   20.1870  -30.7490 H   0  0  0  0  0  0  0  0  0  0  0  0
   -6.3871   17.5724  -30.4624 H   0  0  0  0  0  0  0  0  0  0  0  0
   -7.1961   17.1521  -32.0102 H   0  0  0  0  0  0  0  0  0  0  0  0
   -5.4839   17.6953  -32.0102 H   0  0  0  0  0  0  0  0  0  0  0  0
   -9.0219   18.7152  -31.7503 H   0  0  0  0  0  0  0  0  0  0  0  0
  -10.6358   21.2521  -31.0080 H   0  0  0  0  0  0  0  0  0  0  0  0
  -10.3373   22.1075  -32.5591 H   0  0  0  0  0  0  0  0  0  0  0  0
  -10.7009   20.3484  -32.5591 H   0  0  0  0  0  0  0  0  0  0  0  0
   -8.1466   22.9359  -32.0835 H   0  0  0  0  0  0  0  0  0  0  0  0
   -5.1628   23.1063  -31.0122 H   0  0  0  0  0  0  0  0  0  0  0  0
   -4.5529   22.4374  -32.5638 H   0  0  0  0  0  0  0  0  0  0  0  0
   -5.9191   23.6037  -32.5638 H   0  0  0  0  0  0  0  0  0  0  0  0
  1  2  1  0
  2  3  1  0
  3  4  2  0
  4  5  1  0
  4  6  1  0
  6  7  1  0
  7  8  1  0
  8  9  1  0
  9 10  1  0
 10 11  2  0
 10 12  1  0
 12 13  1  0
 13 14  2  0
 14 15  1  0
 14 16  1  0
 16 17  2  0
 17 18  1  0
 17 19  1  0
 19 20  2  0
 20 21  1  0
  7 22  2  0
 22 23  1  0
 23 24  2  0
 23  3  1  0
 20 13  1  0
  1 25  1  0
  1 26  1  0
  1 27  1  0
  2 28  1  0
  2 29  1  0
  5 30  1  0
  5 31  1  0
  9 32  1  0
  9 33  1  0
 12 34  1  0
 15 35  1  0
 15 36  1  0
 15 37  1  0
 16 38  1  0
 18 39  1  0
 18 40  1  0
 18 41  1  0
 19 42  1  0
 21 43  1  0
 21 44  1  0
 21 45  1  0
M  CHG  1   6  -1
M  END
>  <UniqueID>  (31) 
29

>  <SMILES>  (31) 
CCc1c(N)[n-]c(SCC(=O)Nc2c(C)cc(C)cc2C)nc1=O

>  <Energy>  (31) 
43.54345112620776

>  <Genealogy>  (31) 
CCc1c(N)[n-]c(SCC(=O)Nc2c(C)cc(C)cc2C)nc1=O (protonated)
CCc1c(N)[n-]c(SCC(=O)Nc2c(C)cc(C)cc2C)nc1=O (3D coordinates assigned)
CCc1c(N)[n-]c(SCC(=O)Nc2c(C)cc(C)cc2C)nc1=O (optimized conformer: 43.54345112620776 kcal/mol)

>  <smiles>  (31) 
CCc1c(N)[nH]c(SCC(=O)Nc2c(C)cc(C)cc2C)nc1=O

>  <score_type>  (31) 
oracle

>  <origin>  (31) 
adgpu

>  <m_score__min__energy>  (31) 
-9.3800000000000008

>  <m_primary>  (31) 
energy

$$$$
31:0
     RDKit          3D

 34 35  0  0  0  0  0  0  0  0999 V2000
   -1.2440   21.7560  -30.0530 C   0  0  0  0  0  0  0  0  0  0  0  0
   -2.1410   20.9260  -28.7060 S   0  0  0  0  0  0  0  0  0  0  0  0
   -1.5410   22.0560  -27.4500 C   0  0  0  0  0  0  0  0  0  0  0  0
   -0.7480   21.6170  -26.4410 N   0  0  0  0  0  0  0  0  0  0  0  0
   -0.4880   22.9500  -25.4880 S   0  0  0  0  0  0  0  0  0  0  0  0
   -1.3490   24.1010  -26.3260 C   0  0  0  0  0  0  0  0  0  0  0  0
   -1.6600   25.7710  -25.7470 S   0  0  0  0  0  0  0  0  0  0  0  0
   -0.5160   25.6320  -24.3400 C   0  0  0  0  0  0  0  0  0  0  0  0
   -1.8950   23.4270  -27.4230 C   0  0  0  0  0  0  0  0  0  0  0  0
   -2.8860   23.9660  -28.3100 N   0  0  0  0  0  0  0  0  0  0  0  0
   -2.6510   24.9220  -29.3480 C   0  0  0  0  0  0  0  0  0  0  0  0
   -1.6130   25.6310  -29.3060 O   0  0  0  0  0  0  0  0  0  0  0  0
   -3.5710   25.0950  -30.4310 N   0  0  0  0  0  0  0  0  0  0  0  0
   -4.6410   24.2030  -30.7760 C   0  0  0  0  0  0  0  0  0  0  0  0
   -5.9880   24.5890  -30.6780 C   0  0  0  0  0  0  0  0  0  0  0  0
   -7.0030   23.7070  -31.0620 C   0  0  0  0  0  0  0  0  0  0  0  0
   -6.6850   22.4370  -31.5560 C   0  0  0  0  0  0  0  0  0  0  0  0
   -7.9710   21.3200  -32.0050 S   0  0  0  0  0  0  0  0  0  0  0  0
   -7.4780   20.3980  -33.3800 N   0  0  0  0  0  0  0  0  0  0  0  0
   -8.2610   20.3950  -30.8560 O   0  0  0  0  0  0  0  0  0  0  0  0
   -9.2220   22.0830  -32.3380 O   0  0  0  0  0  0  0  0  0  0  0  0
   -5.3420   22.0580  -31.6760 C   0  0  0  0  0  0  0  0  0  0  0  0
   -4.3270   22.9440  -31.3030 C   0  0  0  0  0  0  0  0  0  0  0  0
   -0.4994   22.4450  -29.6277 H   0  0  0  0  0  0  0  0  0  0  0  0
   -0.7351   21.0033  -30.6730 H   0  0  0  0  0  0  0  0  0  0  0  0
   -1.9550   22.3217  -30.6730 H   0  0  0  0  0  0  0  0  0  0  0  0
   -1.0818   25.7007  -23.3992 H   0  0  0  0  0  0  0  0  0  0  0  0
    0.0045   24.6640  -24.3849 H   0  0  0  0  0  0  0  0  0  0  0  0
    0.2212   26.4472  -24.3849 H   0  0  0  0  0  0  0  0  0  0  0  0
   -6.2454   25.5886  -30.2978 H   0  0  0  0  0  0  0  0  0  0  0  0
   -8.0560   24.0129  -30.9753 H   0  0  0  0  0  0  0  0  0  0  0  0
   -8.3480   20.0370  -33.8320 H   0  0  0  0  0  0  0  0  0  0  0  0
   -5.0854   21.0614  -32.0645 H   0  0  0  0  0  0  0  0  0  0  0  0
   -3.2739   22.6501  -31.4243 H   0  0  0  0  0  0  0  0  0  0  0  0
  1  2  1  0
  2  3  1  0
  3  4  2  0
  4  5  1  0
  5  6  1  0
  6  7  1  0
  7  8  1  0
  6  9  2  0
  9 10  1  0
 10 11  1  0
 11 12  2  0
 11 13  1  0
 13 14  1  0
 14 15  2  0
 15 16  1  0
 16 17  2  0
 17 18  1  0
 18 19  1  0
 18 20  2  0
 18 21  2  0
 17 22  1  0
 22 23  2  0
  9  3  1  0
 23 14  1  0
  1 24  1  0
  1 25  1  0
  1 26  1  0
  8 27  1  0
  8 28  1  0
  8 29  1  0
 15 30  1  0
 16 31  1  0
 19 32  1  0
 22 33  1  0
 23 34  1  0
M  CHG  3  10  -1  13  -1  19  -1
M  END
>  <UniqueID>  (32) 
30

>  <SMILES>  (32) 
CSc1nsc(SC)c1[N-]C(=O)[N-]c1ccc(S([NH-])(=O)=O)cc1

>  <Energy>  (32) 
69.29919515006087

>  <Genealogy>  (32) 
CSc1nsc(SC)c1[N-]C(=O)[N-]c1ccc(S([NH-])(=O)=O)cc1 (protonated)
CSc1nsc(SC)c1[N-]C(=O)[N-]c1ccc(S([NH-])(=O)=O)cc1 (3D coordinates assigned)
CSc1nsc(SC)c1[N-]C(=O)[N-]c1ccc(S([NH-])(=O)=O)cc1 (optimized conformer: 69.29919515006087 kcal/mol)

>  <smiles>  (32) 
CSc1nsc(SC)c1NC(=O)Nc1ccc(S(N)(=O)=O)cc1

>  <score_type>  (32) 
oracle

>  <origin>  (32) 
adgpu

>  <m_score__min__energy>  (32) 
-10.02

>  <m_primary>  (32) 
energy

$$$$
32:0
     RDKit          3D

 48 50  0  0  0  0  0  0  0  0999 V2000
   -1.4780   20.3360  -31.8690 C   0  0  0  0  0  0  0  0  0  0  0  0
   -0.8310   21.9220  -31.2570 S   0  0  0  0  0  0  0  0  0  0  0  0
   -1.5330   21.7100  -29.6160 C   0  0  0  0  0  0  0  0  0  0  0  0
   -1.6570   20.4380  -29.1470 N   0  0  0  0  0  0  0  0  0  0  0  0
   -2.2230   20.1590  -27.9460 C   0  0  0  0  0  0  0  0  0  0  0  0
   -2.7160   21.1910  -27.1520 C   0  0  0  0  0  0  0  0  0  0  0  0
   -2.6100   22.5070  -27.6010 C   0  0  0  0  0  0  0  0  0  0  0  0
   -2.0020   22.7950  -28.8350 C   0  0  0  0  0  0  0  0  0  0  0  0
   -1.8960   24.2100  -29.2620 C   0  0  0  0  0  0  0  0  0  0  0  0
   -0.7790   24.7930  -29.1960 O   0  0  0  0  0  0  0  0  0  0  0  0
   -3.0450   24.9180  -29.7480 N   0  0  0  0  0  0  0  0  0  0  0  0
   -4.1410   24.3550  -30.4880 C   0  0  0  0  0  0  0  0  0  0  0  0
   -4.0740   23.0450  -31.0010 C   0  0  0  0  0  0  0  0  0  0  0  0
   -5.1630   22.4880  -31.6840 C   0  0  0  0  0  0  0  0  0  0  0  0
   -5.0750   20.8360  -32.3000 S   0  0  0  0  0  0  0  0  0  0  0  0
   -4.5520   19.9310  -31.2200 O   0  0  0  0  0  0  0  0  0  0  0  0
   -4.1110   20.7870  -33.4540 O   0  0  0  0  0  0  0  0  0  0  0  0
   -6.6400   20.2630  -32.8310 N   0  0  0  0  0  0  0  0  0  0  0  0
   -6.5830   18.8490  -33.2800 C   0  0  0  0  0  0  0  0  0  0  0  0
   -7.1670   17.8690  -32.2520 C   0  0  0  0  0  0  0  0  0  0  0  0
   -8.6350   18.2080  -31.9370 C   0  0  0  0  0  0  0  0  0  0  0  0
   -8.9330   19.7160  -32.0350 C   0  0  0  0  0  0  0  0  0  0  0  0
   -7.6660   20.5450  -31.8020 C   0  0  0  0  0  0  0  0  0  0  0  0
   -6.3290   23.2420  -31.8560 C   0  0  0  0  0  0  0  0  0  0  0  0
   -6.4140   24.5330  -31.3350 C   0  0  0  0  0  0  0  0  0  0  0  0
   -5.3320   25.0950  -30.6420 C   0  0  0  0  0  0  0  0  0  0  0  0
   -5.4520   26.4210  -30.1130 N   0  0  0  0  0  0  0  0  0  0  0  0
   -1.7402   19.6932  -31.0157 H   0  0  0  0  0  0  0  0  0  0  0  0
   -2.3741   20.5171  -32.4807 H   0  0  0  0  0  0  0  0  0  0  0  0
   -0.7109   19.8386  -32.4807 H   0  0  0  0  0  0  0  0  0  0  0  0
   -2.2924   19.1173  -27.5995 H   0  0  0  0  0  0  0  0  0  0  0  0
   -3.1840   20.9707  -26.1812 H   0  0  0  0  0  0  0  0  0  0  0  0
   -3.0058   23.3270  -26.9838 H   0  0  0  0  0  0  0  0  0  0  0  0
   -3.1570   22.4531  -30.8639 H   0  0  0  0  0  0  0  0  0  0  0  0
   -7.1525   18.7554  -34.2164 H   0  0  0  0  0  0  0  0  0  0  0  0
   -5.5228   18.5896  -33.4165 H   0  0  0  0  0  0  0  0  0  0  0  0
   -7.1129   16.8479  -32.6576 H   0  0  0  0  0  0  0  0  0  0  0  0
   -6.5828   17.9468  -31.3232 H   0  0  0  0  0  0  0  0  0  0  0  0
   -9.2799   17.6751  -32.6512 H   0  0  0  0  0  0  0  0  0  0  0  0
   -8.8316   17.8980  -30.9001 H   0  0  0  0  0  0  0  0  0  0  0  0
   -9.3294   19.9395  -33.0365 H   0  0  0  0  0  0  0  0  0  0  0  0
   -9.6690   19.9777  -31.2605 H   0  0  0  0  0  0  0  0  0  0  0  0
   -7.9254   21.6133  -31.8385 H   0  0  0  0  0  0  0  0  0  0  0  0
   -7.2528   20.2773  -30.8183 H   0  0  0  0  0  0  0  0  0  0  0  0
   -7.1818   22.8150  -32.4041 H   0  0  0  0  0  0  0  0  0  0  0  0
   -7.3376   25.1153  -31.4688 H   0  0  0  0  0  0  0  0  0  0  0  0
   -5.3560   27.2640  -30.7200 H   0  0  0  0  0  0  0  0  0  0  0  0
   -5.6410   26.5730  -29.0970 H   0  0  0  0  0  0  0  0  0  0  0  0
  1  2  1  0
  2  3  1  0
  3  4  2  0
  4  5  1  0
  5  6  2  0
  6  7  1  0
  7  8  2  0
  8  9  1  0
  9 10  2  0
  9 11  1  0
 11 12  1  0
 12 13  2  0
 13 14  1  0
 14 15  1  0
 15 16  2  0
 15 17  2  0
 15 18  1  0
 18 19  1  0
 19 20  1  0
 20 21  1  0
 21 22  1  0
 22 23  1  0
 14 24  2  0
 24 25  1  0
 25 26  2  0
 26 27  1  0
  8  3  1  0
 26 12  1  0
 23 18  1  0
  1 28  1  0
  1 29  1  0
  1 30  1  0
  5 31  1  0
  6 32  1  0
  7 33  1  0
 13 34  1  0
 19 35  1  0
 19 36  1  0
 20 37  1  0
 20 38  1  0
 21 39  1  0
 21 40  1  0
 22 41  1  0
 22 42  1  0
 23 43  1  0
 23 44  1  0
 24 45  1  0
 25 46  1  0
 27 47  1  0
 27 48  1  0
M  CHG  1  11  -1
M  END
>  <UniqueID>  (33) 
31

>  <SMILES>  (33) 
CSc1ncccc1C(=O)[N-]c1cc(S(=O)(=O)N2CCCCC2)ccc1N

>  <Energy>  (33) 
58.29556228416557

>  <Genealogy>  (33) 
CSc1ncccc1C(=O)[N-]c1cc(S(=O)(=O)N2CCCCC2)ccc1N (protonated)
CSc1ncccc1C(=O)[N-]c1cc(S(=O)(=O)N2CCCCC2)ccc1N (3D coordinates assigned)
CSc1ncccc1C(=O)[N-]c1cc(S(=O)(=O)N2CCCCC2)ccc1N (nonaromatic ring conformer: 58.29556228416557 kcal/mol)

>  <smiles>  (33) 
CSc1ncccc1C(=O)Nc1cc(S(=O)(=O)N2CCCCC2)ccc1N

>  <score_type>  (33) 
oracle

>  <origin>  (33) 
adgpu

>  <m_score__min__energy>  (33) 
-10.98

>  <m_primary>  (33) 
energy

$$$$
33:0
     RDKit          3D

 31 32  0  0  0  0  0  0  0  0999 V2000
   -1.6040   25.6520  -29.3310 N   0  0  0  0  0  0  0  0  0  0  0  0
   -1.0260   24.8580  -27.9080 S   0  0  0  0  0  0  0  0  0  0  0  0
   -1.5670   25.5470  -26.6880 O   0  0  0  0  0  0  0  0  0  0  0  0
    0.4750   24.9420  -27.8790 O   0  0  0  0  0  0  0  0  0  0  0  0
   -1.5460   23.1660  -27.9180 C   0  0  0  0  0  0  0  0  0  0  0  0
   -1.1490   22.3290  -26.8630 C   0  0  0  0  0  0  0  0  0  0  0  0
   -1.5690   21.0000  -26.8160 C   0  0  0  0  0  0  0  0  0  0  0  0
   -2.3870   20.4890  -27.8210 C   0  0  0  0  0  0  0  0  0  0  0  0
   -2.7840   21.3040  -28.8810 C   0  0  0  0  0  0  0  0  0  0  0  0
   -2.3730   22.6500  -28.9470 C   0  0  0  0  0  0  0  0  0  0  0  0
   -2.7800   23.4760  -30.0530 N   0  0  0  0  0  0  0  0  0  0  0  0
   -4.2860   24.3370  -30.0820 S   0  0  0  0  0  0  0  0  0  0  0  0
   -4.6980   24.6630  -28.6750 O   0  0  0  0  0  0  0  0  0  0  0  0
   -4.1000   25.6170  -30.8490 O   0  0  0  0  0  0  0  0  0  0  0  0
   -5.5400   23.3330  -30.8150 C   0  0  0  0  0  0  0  0  0  0  0  0
   -5.1900   22.0930  -31.3730 C   0  0  0  0  0  0  0  0  0  0  0  0
   -6.1640   21.2870  -31.9690 C   0  0  0  0  0  0  0  0  0  0  0  0
   -5.8160   20.0950  -32.5140 F   0  0  0  0  0  0  0  0  0  0  0  0
   -7.4950   21.7090  -32.0050 C   0  0  0  0  0  0  0  0  0  0  0  0
   -7.8550   22.9370  -31.4410 C   0  0  0  0  0  0  0  0  0  0  0  0
   -6.8840   23.7480  -30.8430 C   0  0  0  0  0  0  0  0  0  0  0  0
   -7.2600   24.9290  -30.2920 F   0  0  0  0  0  0  0  0  0  0  0  0
   -2.6450   25.6800  -29.2620 H   0  0  0  0  0  0  0  0  0  0  0  0
   -0.5013   22.7248  -26.0669 H   0  0  0  0  0  0  0  0  0  0  0  0
   -1.2536   20.3539  -25.9835 H   0  0  0  0  0  0  0  0  0  0  0  0
   -2.7203   19.4416  -27.7786 H   0  0  0  0  0  0  0  0  0  0  0  0
   -3.4249   20.8914  -29.6741 H   0  0  0  0  0  0  0  0  0  0  0  0
   -2.1300   23.6430  -30.8520 H   0  0  0  0  0  0  0  0  0  0  0  0
   -4.1440   21.7542  -31.3409 H   0  0  0  0  0  0  0  0  0  0  0  0
   -8.2602   21.0753  -32.4771 H   0  0  0  0  0  0  0  0  0  0  0  0
   -8.9042   23.2663  -31.4675 H   0  0  0  0  0  0  0  0  0  0  0  0
  1  2  1  0
  2  3  2  0
  2  4  2  0
  2  5  1  0
  5  6  2  0
  6  7  1  0
  7  8  2  0
  8  9  1  0
  9 10  2  0
 10 11  1  0
 11 12  1  0
 12 13  2  0
 12 14  2  0
 12 15  1  0
 15 16  2  0
 16 17  1  0
 17 18  1  0
 17 19  2  0
 19 20  1  0
 20 21  2  0
 21 22  1  0
 10  5  1  0
 21 15  1  0
  1 23  1  0
  6 24  1  0
  7 25  1  0
  8 26  1  0
  9 27  1  0
 11 28  1  0
 16 29  1  0
 19 30  1  0
 20 31  1  0
M  CHG  1   1  -1
M  END
>  <UniqueID>  (34) 
32

>  <SMILES>  (34) 
[NH-]S(=O)(=O)c1ccccc1NS(=O)(=O)c1cc(F)ccc1F

>  <Energy>  (34) 
37.185100817796815

>  <Genealogy>  (34) 
[NH-]S(=O)(=O)c1ccccc1NS(=O)(=O)c1cc(F)ccc1F (protonated)
[NH-]S(=O)(=O)c1ccccc1NS(=O)(=O)c1cc(F)ccc1F (3D coordinates assigned)
[NH-]S(=O)(=O)c1ccccc1NS(=O)(=O)c1cc(F)ccc1F (optimized conformer: 37.185100817796815 kcal/mol)

>  <smiles>  (34) 
NS(=O)(=O)c1ccccc1NS(=O)(=O)c1cc(F)ccc1F

>  <score_type>  (34) 
oracle

>  <origin>  (34) 
adgpu

>  <m_score__min__energy>  (34) 
-10.51

>  <m_primary>  (34) 
energy

$$$$
34:0
     RDKit          3D

 54 57  0  0  0  0  0  0  0  0999 V2000
   -9.9420   21.5170  -31.7600 C   0  0  0  0  0  0  0  0  0  0  0  0
   -8.4820   21.2360  -31.8870 C   0  0  0  0  0  0  0  0  0  0  0  0
   -8.0600   20.0890  -32.4760 N   0  0  0  0  0  0  0  0  0  0  0  0
   -6.7380   19.7860  -32.5900 C   0  0  0  0  0  0  0  0  0  0  0  0
   -6.3350   18.5530  -33.2370 N   0  0  0  0  0  0  0  0  0  0  0  0
   -6.6090   17.2520  -32.6050 C   0  0  0  0  0  0  0  0  0  0  0  0
   -5.3830   16.3160  -32.6830 C   0  0  0  0  0  0  0  0  0  0  0  0
   -4.4310   16.6880  -33.7560 N   0  0  0  0  0  0  0  0  0  0  0  0
   -3.5900   15.5380  -34.1200 C   0  0  0  0  0  0  0  0  0  0  0  0
   -5.1330   17.2110  -34.9390 C   0  0  0  0  0  0  0  0  0  0  0  0
   -5.7460   18.5690  -34.5880 C   0  0  0  0  0  0  0  0  0  0  0  0
   -5.7930   20.6870  -32.0690 C   0  0  0  0  0  0  0  0  0  0  0  0
   -6.2410   21.8530  -31.4300 C   0  0  0  0  0  0  0  0  0  0  0  0
   -5.3130   22.8090  -30.8850 N   0  0  0  0  0  0  0  0  0  0  0  0
   -5.7570   23.8810  -29.9810 C   0  0  0  0  0  0  0  0  0  0  0  0
   -4.8250   23.9520  -28.7680 C   0  0  0  0  0  0  0  0  0  0  0  0
   -3.4140   23.8670  -29.1740 N   0  0  0  0  0  0  0  0  0  0  0  0
   -2.3870   23.9020  -28.1700 C   0  0  0  0  0  0  0  0  0  0  0  0
   -2.2380   22.8280  -27.2770 C   0  0  0  0  0  0  0  0  0  0  0  0
   -1.2430   22.8600  -26.2960 C   0  0  0  0  0  0  0  0  0  0  0  0
   -0.3880   23.9600  -26.2020 C   0  0  0  0  0  0  0  0  0  0  0  0
   -0.5230   25.0300  -27.0900 C   0  0  0  0  0  0  0  0  0  0  0  0
   -1.5170   25.0040  -28.0760 C   0  0  0  0  0  0  0  0  0  0  0  0
   -1.6240   26.0660  -28.9660 O   0  0  0  0  0  0  0  0  0  0  0  0
   -3.0520   23.8100  -30.5960 C   0  0  0  0  0  0  0  0  0  0  0  0
   -3.9070   22.7570  -31.3160 C   0  0  0  0  0  0  0  0  0  0  0  0
   -7.5760   22.1010  -31.3630 N   0  0  0  0  0  0  0  0  0  0  0  0
  -10.2141   21.5694  -30.6955 H   0  0  0  0  0  0  0  0  0  0  0  0
  -10.1743   22.4763  -32.2455 H   0  0  0  0  0  0  0  0  0  0  0  0
  -10.5138   20.7124  -32.2455 H   0  0  0  0  0  0  0  0  0  0  0  0
   -6.8676   17.4152  -31.5483 H   0  0  0  0  0  0  0  0  0  0  0  0
   -7.4420   16.7755  -33.1426 H   0  0  0  0  0  0  0  0  0  0  0  0
   -4.8543   16.3515  -31.7190 H   0  0  0  0  0  0  0  0  0  0  0  0
   -5.7564   15.3072  -32.9130 H   0  0  0  0  0  0  0  0  0  0  0  0
   -3.2288   15.0440  -33.2059 H   0  0  0  0  0  0  0  0  0  0  0  0
   -4.1810   14.8247  -34.7132 H   0  0  0  0  0  0  0  0  0  0  0  0
   -2.7311   15.8850  -34.7132 H   0  0  0  0  0  0  0  0  0  0  0  0
   -4.4209   17.3301  -35.7689 H   0  0  0  0  0  0  0  0  0  0  0  0
   -5.9248   16.5109  -35.2438 H   0  0  0  0  0  0  0  0  0  0  0  0
   -4.9610   19.3385  -34.6284 H   0  0  0  0  0  0  0  0  0  0  0  0
   -6.5427   18.7903  -35.3135 H   0  0  0  0  0  0  0  0  0  0  0  0
   -4.7165   20.4806  -32.1611 H   0  0  0  0  0  0  0  0  0  0  0  0
   -5.7356   24.8422  -30.5154 H   0  0  0  0  0  0  0  0  0  0  0  0
   -6.7817   23.6701  -29.6413 H   0  0  0  0  0  0  0  0  0  0  0  0
   -4.9905   24.9049  -28.2440 H   0  0  0  0  0  0  0  0  0  0  0  0
   -5.0486   23.1013  -28.1074 H   0  0  0  0  0  0  0  0  0  0  0  0
   -2.9073   21.9581  -27.3501 H   0  0  0  0  0  0  0  0  0  0  0  0
   -1.1333   22.0177  -25.5971 H   0  0  0  0  0  0  0  0  0  0  0  0
    0.3929   23.9841  -25.4277 H   0  0  0  0  0  0  0  0  0  0  0  0
    0.1528   25.8946  -27.0145 H   0  0  0  0  0  0  0  0  0  0  0  0
   -3.2244   24.7946  -31.0551 H   0  0  0  0  0  0  0  0  0  0  0  0
   -1.9907   23.5356  -30.6868 H   0  0  0  0  0  0  0  0  0  0  0  0
   -3.8595   22.9398  -32.3997 H   0  0  0  0  0  0  0  0  0  0  0  0
   -3.5085   21.7627  -31.0656 H   0  0  0  0  0  0  0  0  0  0  0  0
  1  2  1  0
  2  3  2  0
  3  4  1  0
  4  5  1  0
  5  6  1  0
  6  7  1  0
  7  8  1  0
  8  9  1  0
  8 10  1  0
 10 11  1  0
  4 12  2  0
 12 13  1  0
 13 14  1  0
 14 15  1  0
 15 16  1  0
 16 17  1  0
 17 18  1  0
 18 19  2  0
 19 20  1  0
 20 21  2  0
 21 22  1  0
 22 23  2  0
 23 24  1  0
 17 25  1  0
 25 26  1  0
 13 27  2  0
 27  2  1  0
 11  5  1  0
 26 14  1  0
 23 18  1  0
  1 28  1  0
  1 29  1  0
  1 30  1  0
  6 31  1  0
  6 32  1  0
  7 33  1  0
  7 34  1  0
  9 35  1  0
  9 36  1  0
  9 37  1  0
 10 38  1  0
 10 39  1  0
 11 40  1  0
 11 41  1  0
 12 42  1  0
 15 43  1  0
 15 44  1  0
 16 45  1  0
 16 46  1  0
 19 47  1  0
 20 48  1  0
 21 49  1  0
 22 50  1  0
 25 51  1  0
 25 52  1  0
 26 53  1  0
 26 54  1  0
M  CHG  1  24  -1
M  END
>  <UniqueID>  (35) 
33

>  <SMILES>  (35) 
Cc1nc(N2CCN(C)CC2)cc(N2CCN(c3ccccc3[O-])CC2)n1

>  <Energy>  (35) 
71.38727785763467

>  <Genealogy>  (35) 
Cc1nc(N2CCN(C)CC2)cc(N2CCN(c3ccccc3[O-])CC2)n1 (protonated)
Cc1nc(N2CCN(C)CC2)cc(N2CCN(c3ccccc3[O-])CC2)n1 (3D coordinates assigned)
Cc1nc(N2CCN(C)CC2)cc(N2CCN(c3ccccc3[O-])CC2)n1 (nonaromatic ring conformer: 71.38727785763467 kcal/mol)

>  <smiles>  (35) 
Cc1nc(N2CCN(C)CC2)cc(N2CCN(c3ccccc3O)CC2)n1

>  <score_type>  (35) 
oracle

>  <origin>  (35) 
adgpu

>  <m_score__min__energy>  (35) 
-10.93

>  <m_primary>  (35) 
energy

$$$$
35:0
     RDKit          3D

 48 51  0  0  0  0  0  0  0  0999 V2000
    2.1560   23.5320  -36.8290 N   0  0  0  0  0  0  0  0  0  0  0  0
    1.1850   22.8060  -36.0770 C   0  0  0  0  0  0  0  0  0  0  0  0
    0.2230   23.4290  -35.5550 O   0  0  0  0  0  0  0  0  0  0  0  0
    1.3320   21.3420  -35.8840 C   0  0  0  0  0  0  0  0  0  0  0  0
    2.4150   20.6810  -36.4940 C   0  0  0  0  0  0  0  0  0  0  0  0
    2.6420   19.3230  -36.2630 C   0  0  0  0  0  0  0  0  0  0  0  0
    1.7970   18.6040  -35.4190 C   0  0  0  0  0  0  0  0  0  0  0  0
    0.7070   19.2380  -34.8180 C   0  0  0  0  0  0  0  0  0  0  0  0
    0.4480   20.5950  -35.0610 C   0  0  0  0  0  0  0  0  0  0  0  0
   -0.7270   21.1800  -34.4780 N   0  0  0  0  0  0  0  0  0  0  0  0
   -1.0160   21.0690  -33.0740 C   0  0  0  0  0  0  0  0  0  0  0  0
   -0.1450   20.5980  -32.2940 O   0  0  0  0  0  0  0  0  0  0  0  0
   -2.3200   21.5170  -32.5270 C   0  0  0  0  0  0  0  0  0  0  0  0
   -3.4330   21.6570  -33.3760 C   0  0  0  0  0  0  0  0  0  0  0  0
   -4.6620   22.0880  -32.8710 C   0  0  0  0  0  0  0  0  0  0  0  0
   -4.7990   22.3880  -31.5110 C   0  0  0  0  0  0  0  0  0  0  0  0
   -6.3390   22.9660  -30.8810 S   0  0  0  0  0  0  0  0  0  0  0  0
   -6.2850   23.0050  -29.3800 O   0  0  0  0  0  0  0  0  0  0  0  0
   -6.6000   24.3530  -31.3980 O   0  0  0  0  0  0  0  0  0  0  0  0
   -7.6130   21.9070  -31.3900 N   0  0  0  0  0  0  0  0  0  0  0  0
   -9.0020   22.3110  -31.5960 C   0  0  0  0  0  0  0  0  0  0  0  0
   -9.7520   21.0320  -32.0430 C   0  0  0  0  0  0  0  0  0  0  0  0
   -8.6850   19.9900  -32.0520 C   0  0  0  0  0  0  0  0  0  0  0  0
   -8.8010   18.6390  -32.3800 C   0  0  0  0  0  0  0  0  0  0  0  0
   -7.6530   17.8320  -32.3150 C   0  0  0  0  0  0  0  0  0  0  0  0
   -6.4180   18.3880  -31.9270 C   0  0  0  0  0  0  0  0  0  0  0  0
   -6.3260   19.7500  -31.6010 C   0  0  0  0  0  0  0  0  0  0  0  0
   -7.4850   20.5280  -31.6750 C   0  0  0  0  0  0  0  0  0  0  0  0
   -3.6920   22.2710  -30.6630 C   0  0  0  0  0  0  0  0  0  0  0  0
   -2.4610   21.8390  -31.1650 C   0  0  0  0  0  0  0  0  0  0  0  0
    2.9910   23.0530  -37.2330 H   0  0  0  0  0  0  0  0  0  0  0  0
    3.0892   21.2402  -37.1594 H   0  0  0  0  0  0  0  0  0  0  0  0
    3.4904   18.8187  -36.7486 H   0  0  0  0  0  0  0  0  0  0  0  0
    1.9885   17.5380  -35.2264 H   0  0  0  0  0  0  0  0  0  0  0  0
    0.0460   18.6682  -34.1484 H   0  0  0  0  0  0  0  0  0  0  0  0
   -1.2340   21.9020  -35.0360 H   0  0  0  0  0  0  0  0  0  0  0  0
   -3.3346   21.4251  -34.4468 H   0  0  0  0  0  0  0  0  0  0  0  0
   -5.5253   22.1920  -33.5448 H   0  0  0  0  0  0  0  0  0  0  0  0
   -9.4308   22.6991  -30.6603 H   0  0  0  0  0  0  0  0  0  0  0  0
   -9.0837   23.1111  -32.3464 H   0  0  0  0  0  0  0  0  0  0  0  0
  -10.5485   20.7734  -31.3298 H   0  0  0  0  0  0  0  0  0  0  0  0
  -10.2498   21.1449  -33.0174 H   0  0  0  0  0  0  0  0  0  0  0  0
   -9.7698   18.2151  -32.6828 H   0  0  0  0  0  0  0  0  0  0  0  0
   -7.7185   16.7634  -32.5676 H   0  0  0  0  0  0  0  0  0  0  0  0
   -5.5219   17.7518  -31.8794 H   0  0  0  0  0  0  0  0  0  0  0  0
   -5.3670   20.1936  -31.2953 H   0  0  0  0  0  0  0  0  0  0  0  0
   -3.7910   22.5202  -29.5962 H   0  0  0  0  0  0  0  0  0  0  0  0
   -1.5967   21.7503  -30.4904 H   0  0  0  0  0  0  0  0  0  0  0  0
  1  2  1  0
  2  3  2  0
  2  4  1  0
  4  5  2  0
  5  6  1  0
  6  7  2  0
  7  8  1  0
  8  9  2  0
  9 10  1  0
 10 11  1  0
 11 12  2  0
 11 13  1  0
 13 14  2  0
 14 15  1  0
 15 16  2  0
 16 17  1  0
 17 18  2  0
 17 19  2  0
 17 20  1  0
 20 21  1  0
 21 22  1  0
 22 23  1  0
 23 24  2  0
 24 25  1  0
 25 26  2  0
 26 27  1  0
 27 28  2  0
 16 29  1  0
 29 30  2  0
  9  4  1  0
 30 13  1  0
 28 20  1  0
 28 23  1  0
  1 31  1  0
  5 32  1  0
  6 33  1  0
  7 34  1  0
  8 35  1  0
 10 36  1  0
 14 37  1  0
 15 38  1  0
 21 39  1  0
 21 40  1  0
 22 41  1  0
 22 42  1  0
 24 43  1  0
 25 44  1  0
 26 45  1  0
 27 46  1  0
 29 47  1  0
 30 48  1  0
M  CHG  1   1  -1
M  END
>  <UniqueID>  (36) 
34

>  <SMILES>  (36) 
[NH-]C(=O)c1ccccc1NC(=O)c1ccc(S(=O)(=O)N2CCc3ccccc32)cc1

>  <Energy>  (36) 
78.823065250471

>  <Genealogy>  (36) 
[NH-]C(=O)c1ccccc1NC(=O)c1ccc(S(=O)(=O)N2CCc3ccccc32)cc1 (protonated)
[NH-]C(=O)c1ccccc1NC(=O)c1ccc(S(=O)(=O)N2CCc3ccccc32)cc1 (3D coordinates assigned)
[NH-]C(=O)c1ccccc1NC(=O)c1ccc(S(=O)(=O)N2CCc3ccccc32)cc1 (nonaromatic ring conformer: 78.823065250471 kcal/mol)

>  <smiles>  (36) 
NC(=O)c1ccccc1NC(=O)c1ccc(S(=O)(=O)N2CCc3ccccc32)cc1

>  <score_type>  (36) 
oracle

>  <origin>  (36) 
adgpu

>  <m_score__min__energy>  (36) 
-12.380000000000001

>  <m_primary>  (36) 
energy

$$$$
36:0
     RDKit          3D

 56 59  0  0  0  0  0  0  0  0999 V2000
   -0.4360   19.0320  -28.1930 C   0  0  0  0  0  0  0  0  0  0  0  0
   -0.9390   20.4290  -28.4380 C   0  0  0  0  0  0  0  0  0  0  0  0
   -1.5000   21.1340  -27.3580 C   0  0  0  0  0  0  0  0  0  0  0  0
   -1.9980   22.4240  -27.5260 C   0  0  0  0  0  0  0  0  0  0  0  0
   -1.9470   23.0380  -28.7740 C   0  0  0  0  0  0  0  0  0  0  0  0
   -2.6400   24.6440  -28.9770 S   0  0  0  0  0  0  0  0  0  0  0  0
   -1.5460   25.6720  -28.9410 O   0  0  0  0  0  0  0  0  0  0  0  0
   -3.5990   24.9150  -27.8520 O   0  0  0  0  0  0  0  0  0  0  0  0
   -3.4870   24.7500  -30.4850 N   0  0  0  0  0  0  0  0  0  0  0  0
   -4.7030   24.0330  -30.7100 C   0  0  0  0  0  0  0  0  0  0  0  0
   -4.6960   22.8510  -31.4630 C   0  0  0  0  0  0  0  0  0  0  0  0
   -5.8950   22.1690  -31.7260 C   0  0  0  0  0  0  0  0  0  0  0  0
   -7.1090   22.6570  -31.1850 C   0  0  0  0  0  0  0  0  0  0  0  0
   -7.1040   23.8400  -30.4330 C   0  0  0  0  0  0  0  0  0  0  0  0
   -5.9110   24.5300  -30.2010 C   0  0  0  0  0  0  0  0  0  0  0  0
   -5.9230   25.7100  -29.4580 O   0  0  0  0  0  0  0  0  0  0  0  0
   -8.4420   22.0090  -31.5010 C   0  0  0  0  0  0  0  0  0  0  0  0
   -8.3040   20.5700  -32.0070 C   0  0  0  0  0  0  0  0  0  0  0  0
   -7.2200   20.4890  -33.0850 C   0  0  0  0  0  0  0  0  0  0  0  0
   -5.8520   20.8720  -32.5060 C   0  0  0  0  0  0  0  0  0  0  0  0
   -1.3920   22.3530  -29.8600 C   0  0  0  0  0  0  0  0  0  0  0  0
   -0.8750   21.0560  -29.7100 C   0  0  0  0  0  0  0  0  0  0  0  0
   -0.2210   20.2810  -31.1680 S   0  0  0  0  0  0  0  0  0  0  0  0
    0.2720   21.3590  -32.0950 O   0  0  0  0  0  0  0  0  0  0  0  0
    0.9360   19.3690  -30.8630 O   0  0  0  0  0  0  0  0  0  0  0  0
   -1.4820   19.3710  -31.9690 N   0  0  0  0  0  0  0  0  0  0  0  0
   -0.8930   18.5910  -33.0700 C   0  0  0  0  0  0  0  0  0  0  0  0
   -1.9940   17.8750  -33.8900 C   0  0  0  0  0  0  0  0  0  0  0  0
   -3.2180   18.6010  -34.0190 O   0  0  0  0  0  0  0  0  0  0  0  0
   -3.0300   19.9880  -33.8460 C   0  0  0  0  0  0  0  0  0  0  0  0
   -2.5760   20.2710  -32.4080 C   0  0  0  0  0  0  0  0  0  0  0  0
   -0.3706   18.8505  -27.1101 H   0  0  0  0  0  0  0  0  0  0  0  0
   -1.1299   18.3079  -28.6449 H   0  0  0  0  0  0  0  0  0  0  0  0
    0.5602   18.9164  -28.6449 H   0  0  0  0  0  0  0  0  0  0  0  0
   -1.5462   20.6599  -26.3665 H   0  0  0  0  0  0  0  0  0  0  0  0
   -2.4331   22.9594  -26.6692 H   0  0  0  0  0  0  0  0  0  0  0  0
   -3.7456   22.4551  -31.8503 H   0  0  0  0  0  0  0  0  0  0  0  0
   -8.0474   24.2286  -30.0219 H   0  0  0  0  0  0  0  0  0  0  0  0
   -5.0950   26.0380  -28.9740 H   0  0  0  0  0  0  0  0  0  0  0  0
   -9.0535   22.0017  -30.5867 H   0  0  0  0  0  0  0  0  0  0  0  0
   -8.9106   22.5963  -32.3044 H   0  0  0  0  0  0  0  0  0  0  0  0
   -8.0306   19.9144  -31.1671 H   0  0  0  0  0  0  0  0  0  0  0  0
   -9.2633   20.2483  -32.4385 H   0  0  0  0  0  0  0  0  0  0  0  0
   -7.1729   19.4610  -33.4736 H   0  0  0  0  0  0  0  0  0  0  0  0
   -7.4715   21.1908  -33.8938 H   0  0  0  0  0  0  0  0  0  0  0  0
   -5.5152   20.0679  -31.8351 H   0  0  0  0  0  0  0  0  0  0  0  0
   -5.1595   21.0119  -33.3492 H   0  0  0  0  0  0  0  0  0  0  0  0
   -1.3600   22.8378  -30.8469 H   0  0  0  0  0  0  0  0  0  0  0  0
   -0.3336   19.2682  -33.7322 H   0  0  0  0  0  0  0  0  0  0  0  0
   -0.2223   17.8309  -32.6429 H   0  0  0  0  0  0  0  0  0  0  0  0
   -1.6001   17.6876  -34.8998 H   0  0  0  0  0  0  0  0  0  0  0  0
   -2.2385   16.9547  -33.3394 H   0  0  0  0  0  0  0  0  0  0  0  0
   -2.2623   20.3438  -34.5489 H   0  0  0  0  0  0  0  0  0  0  0  0
   -3.9778   20.5118  -34.0394 H   0  0  0  0  0  0  0  0  0  0  0  0
   -2.2224   21.3109  -32.3482 H   0  0  0  0  0  0  0  0  0  0  0  0
   -3.4371   20.0972  -31.7459 H   0  0  0  0  0  0  0  0  0  0  0  0
  1  2  1  0
  2  3  2  0
  3  4  1  0
  4  5  2  0
  5  6  1  0
  6  7  2  0
  6  8  2  0
  6  9  1  0
  9 10  1  0
 10 11  2  0
 11 12  1  0
 12 13  2  0
 13 14  1  0
 14 15  2  0
 15 16  1  0
 13 17  1  0
 17 18  1  0
 18 19  1  0
 19 20  1  0
  5 21  1  0
 21 22  2  0
 22 23  1  0
 23 24  2  0
 23 25  2  0
 23 26  1  0
 26 27  1  0
 27 28  1  0
 28 29  1  0
 29 30  1  0
 30 31  1  0
 22  2  1  0
 31 26  1  0
 15 10  1  0
 20 12  1  0
  1 32  1  0
  1 33  1  0
  1 34  1  0
  3 35  1  0
  4 36  1  0
 11 37  1  0
 14 38  1  0
 16 39  1  0
 17 40  1  0
 17 41  1  0
 18 42  1  0
 18 43  1  0
 19 44  1  0
 19 45  1  0
 20 46  1  0
 20 47  1  0
 21 48  1  0
 27 49  1  0
 27 50  1  0
 28 51  1  0
 28 52  1  0
 30 53  1  0
 30 54  1  0
 31 55  1  0
 31 56  1  0
M  CHG  1   9  -1
M  END
>  <UniqueID>  (37) 
35

>  <SMILES>  (37) 
Cc1ccc(S(=O)(=O)[N-]c2cc3c(cc2O)CCCC3)cc1S(=O)(=O)N1CCOCC1

>  <Energy>  (37) 
76.95183149823308

>  <Genealogy>  (37) 
Cc1ccc(S(=O)(=O)[N-]c2cc3c(cc2O)CCCC3)cc1S(=O)(=O)N1CCOCC1 (protonated)
Cc1ccc(S(=O)(=O)[N-]c2cc3c(cc2O)CCCC3)cc1S(=O)(=O)N1CCOCC1 (3D coordinates assigned)
Cc1ccc(S(=O)(=O)[N-]c2cc3c(cc2O)CCCC3)cc1S(=O)(=O)N1CCOCC1 (nonaromatic ring conformer: 76.95183149823308 kcal/mol)

>  <smiles>  (37) 
Cc1ccc(S(=O)(=O)Nc2cc3c(cc2O)CCCC3)cc1S(=O)(=O)N1CCOCC1

>  <score_type>  (37) 
oracle

>  <origin>  (37) 
adgpu

>  <m_score__min__energy>  (37) 
-12.220000000000001

>  <m_primary>  (37) 
energy

$$$$
37:0
     RDKit          3D

 29 30  0  0  0  0  0  0  0  0999 V2000
   -0.0400   24.1460  -28.9940 O   0  0  0  0  0  0  0  0  0  0  0  0
   -1.1640   24.6630  -29.2280 C   0  0  0  0  0  0  0  0  0  0  0  0
   -2.1200   23.9300  -29.9970 N   0  0  0  0  0  0  0  0  0  0  0  0
   -3.1470   23.0770  -29.4080 C   0  0  0  0  0  0  0  0  0  0  0  0
   -4.4910   23.3650  -30.0300 C   0  0  0  0  0  0  0  0  0  0  0  0
   -5.4500   22.3390  -30.0950 C   0  0  0  0  0  0  0  0  0  0  0  0
   -6.6950   22.5690  -30.6860 C   0  0  0  0  0  0  0  0  0  0  0  0
   -6.9960   23.8230  -31.2180 C   0  0  0  0  0  0  0  0  0  0  0  0
   -6.0540   24.8520  -31.1610 C   0  0  0  0  0  0  0  0  0  0  0  0
   -4.8010   24.6330  -30.5690 C   0  0  0  0  0  0  0  0  0  0  0  0
   -3.8680   25.6700  -30.5180 O   0  0  0  0  0  0  0  0  0  0  0  0
   -1.5050   25.9490  -28.6920 N   0  0  0  0  0  0  0  0  0  0  0  0
   -1.3140   26.3970  -27.3430 C   0  0  0  0  0  0  0  0  0  0  0  0
   -0.4400   27.4630  -27.1030 C   0  0  0  0  0  0  0  0  0  0  0  0
   -0.2140   27.9060  -25.7990 C   0  0  0  0  0  0  0  0  0  0  0  0
   -0.8560   27.2630  -24.7380 C   0  0  0  0  0  0  0  0  0  0  0  0
   -1.6820   26.2110  -24.9820 N   0  0  0  0  0  0  0  0  0  0  0  0
   -1.9220   25.7640  -26.2440 C   0  0  0  0  0  0  0  0  0  0  0  0
   -2.8858   22.0227  -29.5817 H   0  0  0  0  0  0  0  0  0  0  0  0
   -3.2029   23.2799  -28.3283 H   0  0  0  0  0  0  0  0  0  0  0  0
   -5.2185   21.3480  -29.6775 H   0  0  0  0  0  0  0  0  0  0  0  0
   -7.4390   21.7600  -30.7319 H   0  0  0  0  0  0  0  0  0  0  0  0
   -7.9768   24.0013  -31.6830 H   0  0  0  0  0  0  0  0  0  0  0  0
   -6.2954   25.8391  -31.5822 H   0  0  0  0  0  0  0  0  0  0  0  0
   -3.1120   25.6710  -29.8440 H   0  0  0  0  0  0  0  0  0  0  0  0
    0.0706   27.9535  -27.9448 H   0  0  0  0  0  0  0  0  0  0  0  0
    0.4624   28.7524  -25.6088 H   0  0  0  0  0  0  0  0  0  0  0  0
   -0.6934   27.6075  -23.7061 H   0  0  0  0  0  0  0  0  0  0  0  0
   -2.5922   24.9067  -26.4052 H   0  0  0  0  0  0  0  0  0  0  0  0
  1  2  2  0
  2  3  1  0
  3  4  1  0
  4  5  1  0
  5  6  2  0
  6  7  1  0
  7  8  2  0
  8  9  1  0
  9 10  2  0
 10 11  1  0
  2 12  1  0
 12 13  1  0
 13 14  2  0
 14 15  1  0
 15 16  2  0
 16 17  1  0
 17 18  2  0
 10  5  1  0
 18 13  1  0
  4 19  1  0
  4 20  1  0
  6 21  1  0
  7 22  1  0
  8 23  1  0
  9 24  1  0
 11 25  1  0
 14 26  1  0
 15 27  1  0
 16 28  1  0
 18 29  1  0
M  CHG  2   3  -1  12  -1
M  END
>  <UniqueID>  (38) 
36

>  <SMILES>  (38) 
O=C([N-]Cc1ccccc1O)[N-]c1cccnc1

>  <Energy>  (38) 
31.03858208437596

>  <Genealogy>  (38) 
O=C([N-]Cc1ccccc1O)[N-]c1cccnc1 (protonated)
O=C([N-]Cc1ccccc1O)[N-]c1cccnc1 (3D coordinates assigned)
O=C([N-]Cc1ccccc1O)[N-]c1cccnc1 (optimized conformer: 31.03858208437596 kcal/mol)

>  <smiles>  (38) 
O=C(NCc1ccccc1O)Nc1cccnc1

>  <score_type>  (38) 
oracle

>  <origin>  (38) 
adgpu

>  <m_score__min__energy>  (38) 
-9.4800000000000004

>  <m_primary>  (38) 
energy

$$$$
38:0
     RDKit          3D

 63 66  0  0  0  0  0  0  0  0999 V2000
   -5.2120   24.9300  -28.8170 O   0  0  0  0  0  0  0  0  0  0  0  0
   -4.2050   24.2010  -29.6660 S   0  0  0  0  0  0  0  0  0  0  0  0
   -3.8160   25.0820  -30.8200 O   0  0  0  0  0  0  0  0  0  0  0  0
   -4.9110   22.7350  -30.2740 N   0  0  0  0  0  0  0  0  0  0  0  0
   -4.2550   21.9220  -31.2580 C   0  0  0  0  0  0  0  0  0  0  0  0
   -2.9550   22.2430  -31.6740 C   0  0  0  0  0  0  0  0  0  0  0  0
   -2.2980   21.4440  -32.6150 C   0  0  0  0  0  0  0  0  0  0  0  0
   -2.9400   20.3250  -33.1570 C   0  0  0  0  0  0  0  0  0  0  0  0
   -4.2440   19.9970  -32.7570 C   0  0  0  0  0  0  0  0  0  0  0  0
   -5.0790   18.5950  -33.4410 S   0  0  0  0  0  0  0  0  0  0  0  0
   -4.4870   17.3440  -32.8530 O   0  0  0  0  0  0  0  0  0  0  0  0
   -4.8570   18.5590  -34.9270 O   0  0  0  0  0  0  0  0  0  0  0  0
   -6.7950   18.6370  -33.0960 N   0  0  0  0  0  0  0  0  0  0  0  0
   -7.0320   18.2410  -31.6950 C   0  0  0  0  0  0  0  0  0  0  0  0
   -8.5380   18.2000  -31.3990 C   0  0  0  0  0  0  0  0  0  0  0  0
   -9.1690   19.5630  -31.6780 C   0  0  0  0  0  0  0  0  0  0  0  0
   -8.8420   20.0270  -33.1040 C   0  0  0  0  0  0  0  0  0  0  0  0
   -7.3250   19.9890  -33.3510 C   0  0  0  0  0  0  0  0  0  0  0  0
   -4.8970   20.8000  -31.8130 C   0  0  0  0  0  0  0  0  0  0  0  0
   -2.7480   23.7930  -28.7550 C   0  0  0  0  0  0  0  0  0  0  0  0
   -2.6430   22.4980  -28.2290 C   0  0  0  0  0  0  0  0  0  0  0  0
   -1.5540   22.1380  -27.4240 C   0  0  0  0  0  0  0  0  0  0  0  0
   -1.4390   20.5130  -26.7490 S   0  0  0  0  0  0  0  0  0  0  0  0
   -1.3430   20.5940  -25.2490 O   0  0  0  0  0  0  0  0  0  0  0  0
   -2.6870   19.7580  -27.1090 O   0  0  0  0  0  0  0  0  0  0  0  0
   -0.0310   19.6990  -27.4060 N   0  0  0  0  0  0  0  0  0  0  0  0
   -0.3520   18.3260  -27.8910 C   0  0  0  0  0  0  0  0  0  0  0  0
   -0.1050   18.1230  -29.4000 C   0  0  0  0  0  0  0  0  0  0  0  0
   -0.6680   19.3100  -30.1850 C   0  0  0  0  0  0  0  0  0  0  0  0
   -0.0200   20.6350  -29.7470 C   0  0  0  0  0  0  0  0  0  0  0  0
    0.6860   20.5510  -28.3800 C   0  0  0  0  0  0  0  0  0  0  0  0
   -0.5630   23.0850  -27.1400 C   0  0  0  0  0  0  0  0  0  0  0  0
   -0.6570   24.3800  -27.6600 C   0  0  0  0  0  0  0  0  0  0  0  0
   -1.7440   24.7400  -28.4670 C   0  0  0  0  0  0  0  0  0  0  0  0
   -1.8160   26.0380  -28.9610 O   0  0  0  0  0  0  0  0  0  0  0  0
   -5.9290   22.5830  -30.0980 H   0  0  0  0  0  0  0  0  0  0  0  0
   -2.4497   23.1272  -31.2583 H   0  0  0  0  0  0  0  0  0  0  0  0
   -1.2745   21.6956  -32.9298 H   0  0  0  0  0  0  0  0  0  0  0  0
   -2.4206   19.7007  -33.8989 H   0  0  0  0  0  0  0  0  0  0  0  0
   -6.6012   17.2437  -31.5222 H   0  0  0  0  0  0  0  0  0  0  0  0
   -6.5572   18.9777  -31.0303 H   0  0  0  0  0  0  0  0  0  0  0  0
   -9.0133   17.4420  -32.0389 H   0  0  0  0  0  0  0  0  0  0  0  0
   -8.6882   17.9456  -30.3394 H   0  0  0  0  0  0  0  0  0  0  0  0
  -10.2604   19.4865  -31.5639 H   0  0  0  0  0  0  0  0  0  0  0  0
   -8.7627   20.2950  -30.9645 H   0  0  0  0  0  0  0  0  0  0  0  0
   -9.3422   19.3626  -33.8240 H   0  0  0  0  0  0  0  0  0  0  0  0
   -9.1961   21.0607  -33.2305 H   0  0  0  0  0  0  0  0  0  0  0  0
   -7.1211   20.2669  -34.3956 H   0  0  0  0  0  0  0  0  0  0  0  0
   -6.8350   20.6984  -32.6678 H   0  0  0  0  0  0  0  0  0  0  0  0
   -5.9224   20.5507  -31.5025 H   0  0  0  0  0  0  0  0  0  0  0  0
   -3.4242   21.7560  -28.4506 H   0  0  0  0  0  0  0  0  0  0  0  0
    0.2722   17.6086  -27.3382 H   0  0  0  0  0  0  0  0  0  0  0  0
   -1.4272   18.1698  -27.7194 H   0  0  0  0  0  0  0  0  0  0  0  0
    0.9764   18.0435  -29.5850 H   0  0  0  0  0  0  0  0  0  0  0  0
   -0.6075   17.2011  -29.7281 H   0  0  0  0  0  0  0  0  0  0  0  0
   -0.4737   19.1543  -31.2564 H   0  0  0  0  0  0  0  0  0  0  0  0
   -1.7483   19.3727  -29.9876 H   0  0  0  0  0  0  0  0  0  0  0  0
    0.7219   20.9271  -30.5048 H   0  0  0  0  0  0  0  0  0  0  0  0
   -0.8288   21.3741  -29.6488 H   0  0  0  0  0  0  0  0  0  0  0  0
    1.6937   20.1369  -28.5317 H   0  0  0  0  0  0  0  0  0  0  0  0
    0.7163   21.5690  -27.9643 H   0  0  0  0  0  0  0  0  0  0  0  0
    0.2925   22.8098  -26.5057 H   0  0  0  0  0  0  0  0  0  0  0  0
    0.1260   25.1189  -27.4343 H   0  0  0  0  0  0  0  0  0  0  0  0
  1  2  2  0
  2  3  2  0
  2  4  1  0
  4  5  1  0
  5  6  2  0
  6  7  1  0
  7  8  2  0
  8  9  1  0
  9 10  1  0
 10 11  2  0
 10 12  2  0
 10 13  1  0
 13 14  1  0
 14 15  1  0
 15 16  1  0
 16 17  1  0
 17 18  1  0
  9 19  2  0
  2 20  1  0
 20 21  2  0
 21 22  1  0
 22 23  1  0
 23 24  2  0
 23 25  2  0
 23 26  1  0
 26 27  1  0
 27 28  1  0
 28 29  1  0
 29 30  1  0
 30 31  1  0
 22 32  2  0
 32 33  1  0
 33 34  2  0
 34 35  1  0
 19  5  1  0
 34 20  1  0
 18 13  1  0
 31 26  1  0
  4 36  1  0
  6 37  1  0
  7 38  1  0
  8 39  1  0
 14 40  1  0
 14 41  1  0
 15 42  1  0
 15 43  1  0
 16 44  1  0
 16 45  1  0
 17 46  1  0
 17 47  1  0
 18 48  1  0
 18 49  1  0
 19 50  1  0
 21 51  1  0
 27 52  1  0
 27 53  1  0
 28 54  1  0
 28 55  1  0
 29 56  1  0
 29 57  1  0
 30 58  1  0
 30 59  1  0
 31 60  1  0
 31 61  1  0
 32 62  1  0
 33 63  1  0
M  CHG  1  35  -1
M  END
>  <UniqueID>  (39) 
37

>  <SMILES>  (39) 
O=S(=O)(Nc1cccc(S(=O)(=O)N2CCCCC2)c1)c1cc(S(=O)(=O)N2CCCCC2)ccc1[O-]

>  <Energy>  (39) 
67.5749069925098

>  <Genealogy>  (39) 
O=S(=O)(Nc1cccc(S(=O)(=O)N2CCCCC2)c1)c1cc(S(=O)(=O)N2CCCCC2)ccc1[O-] (protonated)
O=S(=O)(Nc1cccc(S(=O)(=O)N2CCCCC2)c1)c1cc(S(=O)(=O)N2CCCCC2)ccc1[O-] (3D coordinates assigned)
O=S(=O)(Nc1cccc(S(=O)(=O)N2CCCCC2)c1)c1cc(S(=O)(=O)N2CCCCC2)ccc1[O-] (nonaromatic ring conformer: 67.5749069925098 kcal/mol)

>  <smiles>  (39) 
O=S(=O)(Nc1cccc(S(=O)(=O)N2CCCCC2)c1)c1cc(S(=O)(=O)N2CCCCC2)ccc1O

>  <score_type>  (39) 
oracle

>  <origin>  (39) 
adgpu

>  <m_score__min__energy>  (39) 
-15.300000000000001

>  <m_primary>  (39) 
energy

$$$$
39:0
     RDKit          3D

 61 64  0  0  0  0  0  0  0  0999 V2000
   -9.8320   20.3640  -32.3610 C   0  0  0  0  0  0  0  0  0  0  0  0
   -8.5060   20.9950  -32.0220 C   0  0  0  0  0  0  0  0  0  0  0  0
   -8.4620   22.3890  -31.8500 C   0  0  0  0  0  0  0  0  0  0  0  0
   -7.2720   23.0330  -31.5280 C   0  0  0  0  0  0  0  0  0  0  0  0
   -6.0930   22.2990  -31.3520 C   0  0  0  0  0  0  0  0  0  0  0  0
   -4.8530   22.9560  -31.0420 N   0  0  0  0  0  0  0  0  0  0  0  0
   -4.7380   24.3660  -30.7790 C   0  0  0  0  0  0  0  0  0  0  0  0
   -5.7350   25.1250  -30.9090 O   0  0  0  0  0  0  0  0  0  0  0  0
   -3.4840   24.9390  -30.3920 N   0  0  0  0  0  0  0  0  0  0  0  0
   -2.7040   24.5480  -29.2530 C   0  0  0  0  0  0  0  0  0  0  0  0
   -1.4360   25.1020  -29.0060 C   0  0  0  0  0  0  0  0  0  0  0  0
   -0.6870   24.6820  -27.9030 C   0  0  0  0  0  0  0  0  0  0  0  0
   -1.1860   23.6910  -27.0470 C   0  0  0  0  0  0  0  0  0  0  0  0
   -0.2400   23.1930  -25.6480 S   0  0  0  0  0  0  0  0  0  0  0  0
   -0.8230   21.9390  -25.0520 O   0  0  0  0  0  0  0  0  0  0  0  0
    1.1680   22.9070  -26.0870 O   0  0  0  0  0  0  0  0  0  0  0  0
   -0.2380   24.4820  -24.4720 N   0  0  0  0  0  0  0  0  0  0  0  0
    1.0430   25.1880  -24.4600 C   0  0  0  0  0  0  0  0  0  0  0  0
    0.7540   26.6020  -23.9800 C   0  0  0  0  0  0  0  0  0  0  0  0
   -0.7380   26.8040  -24.1980 C   0  0  0  0  0  0  0  0  0  0  0  0
   -1.2400   25.4970  -24.7920 C   0  0  0  0  0  0  0  0  0  0  0  0
   -2.4410   23.1220  -27.3050 C   0  0  0  0  0  0  0  0  0  0  0  0
   -3.1890   23.5420  -28.4090 C   0  0  0  0  0  0  0  0  0  0  0  0
   -6.1120   20.9090  -31.5460 C   0  0  0  0  0  0  0  0  0  0  0  0
   -4.9340   20.1860  -31.3780 O   0  0  0  0  0  0  0  0  0  0  0  0
   -7.3070   20.2420  -31.8910 C   0  0  0  0  0  0  0  0  0  0  0  0
   -7.2300   18.4740  -32.1090 S   0  0  0  0  0  0  0  0  0  0  0  0
   -8.6000   17.9160  -31.8360 O   0  0  0  0  0  0  0  0  0  0  0  0
   -6.2700   17.8200  -31.1570 O   0  0  0  0  0  0  0  0  0  0  0  0
   -6.7790   18.1270  -33.7660 N   0  0  0  0  0  0  0  0  0  0  0  0
   -5.6310   18.9450  -34.2180 C   0  0  0  0  0  0  0  0  0  0  0  0
   -4.2930   18.1850  -34.1510 C   0  0  0  0  0  0  0  0  0  0  0  0
   -4.3110   17.2520  -33.0960 O   0  0  0  0  0  0  0  0  0  0  0  0
   -5.2130   16.1990  -33.3910 C   0  0  0  0  0  0  0  0  0  0  0  0
   -6.5590   16.6850  -33.9810 C   0  0  0  0  0  0  0  0  0  0  0  0
  -10.3652   20.1102  -31.4330 H   0  0  0  0  0  0  0  0  0  0  0  0
  -10.4352   21.0716  -32.9487 H   0  0  0  0  0  0  0  0  0  0  0  0
   -9.6634   19.4496  -32.9487 H   0  0  0  0  0  0  0  0  0  0  0  0
   -9.3821   22.9794  -31.9718 H   0  0  0  0  0  0  0  0  0  0  0  0
   -7.2572   24.1266  -31.4108 H   0  0  0  0  0  0  0  0  0  0  0  0
   -4.0040   22.3590  -30.9330 H   0  0  0  0  0  0  0  0  0  0  0  0
   -1.0316   25.8688  -29.6831 H   0  0  0  0  0  0  0  0  0  0  0  0
    0.2977   25.1310  -27.7062 H   0  0  0  0  0  0  0  0  0  0  0  0
    1.7446   24.6902  -23.7744 H   0  0  0  0  0  0  0  0  0  0  0  0
    1.5026   25.1940  -25.4594 H   0  0  0  0  0  0  0  0  0  0  0  0
    1.0050   26.7057  -22.9140 H   0  0  0  0  0  0  0  0  0  0  0  0
    1.3521   27.3490  -24.5224 H   0  0  0  0  0  0  0  0  0  0  0  0
   -1.2420   27.0111  -23.2424 H   0  0  0  0  0  0  0  0  0  0  0  0
   -0.9428   27.6591  -24.8590 H   0  0  0  0  0  0  0  0  0  0  0  0
   -2.2097   25.2262  -24.3489 H   0  0  0  0  0  0  0  0  0  0  0  0
   -1.3839   25.5842  -25.8791 H   0  0  0  0  0  0  0  0  0  0  0  0
   -2.8381   22.3433  -26.6373 H   0  0  0  0  0  0  0  0  0  0  0  0
   -4.1651   23.0789  -28.6158 H   0  0  0  0  0  0  0  0  0  0  0  0
   -5.8079   19.2540  -35.2588 H   0  0  0  0  0  0  0  0  0  0  0  0
   -5.5546   19.8100  -33.5427 H   0  0  0  0  0  0  0  0  0  0  0  0
   -4.1292   17.6550  -35.1009 H   0  0  0  0  0  0  0  0  0  0  0  0
   -3.4811   18.9063  -33.9759 H   0  0  0  0  0  0  0  0  0  0  0  0
   -4.7364   15.5263  -34.1193 H   0  0  0  0  0  0  0  0  0  0  0  0
   -5.4404   15.6927  -32.4413 H   0  0  0  0  0  0  0  0  0  0  0  0
   -6.5636   16.4844  -35.0625 H   0  0  0  0  0  0  0  0  0  0  0  0
   -7.3660   16.1423  -33.4669 H   0  0  0  0  0  0  0  0  0  0  0  0
  1  2  1  0
  2  3  2  0
  3  4  1  0
  4  5  2  0
  5  6  1  0
  6  7  1  0
  7  8  2  0
  7  9  1  0
  9 10  1  0
 10 11  2  0
 11 12  1  0
 12 13  2  0
 13 14  1  0
 14 15  2  0
 14 16  2  0
 14 17  1  0
 17 18  1  0
 18 19  1  0
 19 20  1  0
 20 21  1  0
 13 22  1  0
 22 23  2  0
  5 24  1  0
 24 25  1  0
 24 26  2  0
 26 27  1  0
 27 28  2  0
 27 29  2  0
 27 30  1  0
 30 31  1  0
 31 32  1  0
 32 33  1  0
 33 34  1  0
 34 35  1  0
 26  2  1  0
 35 30  1  0
 23 10  1  0
 21 17  1  0
  1 36  1  0
  1 37  1  0
  1 38  1  0
  3 39  1  0
  4 40  1  0
  6 41  1  0
 11 42  1  0
 12 43  1  0
 18 44  1  0
 18 45  1  0
 19 46  1  0
 19 47  1  0
 20 48  1  0
 20 49  1  0
 21 50  1  0
 21 51  1  0
 22 52  1  0
 23 53  1  0
 31 54  1  0
 31 55  1  0
 32 56  1  0
 32 57  1  0
 34 58  1  0
 34 59  1  0
 35 60  1  0
 35 61  1  0
M  CHG  2   9  -1  25  -1
M  END
>  <UniqueID>  (40) 
38

>  <SMILES>  (40) 
Cc1ccc(NC(=O)[N-]c2ccc(S(=O)(=O)N3CCCC3)cc2)c([O-])c1S(=O)(=O)N1CCOCC1

>  <Energy>  (40) 
87.3214792564304

>  <Genealogy>  (40) 
Cc1ccc(NC(=O)[N-]c2ccc(S(=O)(=O)N3CCCC3)cc2)c([O-])c1S(=O)(=O)N1CCOCC1 (protonated)
Cc1ccc(NC(=O)[N-]c2ccc(S(=O)(=O)N3CCCC3)cc2)c([O-])c1S(=O)(=O)N1CCOCC1 (3D coordinates assigned)
Cc1ccc(NC(=O)[N-]c2ccc(S(=O)(=O)N3CCCC3)cc2)c([O-])c1S(=O)(=O)N1CCOCC1 (nonaromatic ring conformer: 87.3214792564304 kcal/mol)

>  <smiles>  (40) 
Cc1ccc(NC(=O)Nc2ccc(S(=O)(=O)N3CCCC3)cc2)c(O)c1S(=O)(=O)N1CCOCC1

>  <score_type>  (40) 
oracle

>  <origin>  (40) 
adgpu

>  <m_score__min__energy>  (40) 
-14.44

>  <m_primary>  (40) 
energy

$$$$
40:0
     RDKit          3D

 53 56  0  0  0  0  0  0  0  0999 V2000
   -0.8140   18.1140  -27.1470 C   0  0  0  0  0  0  0  0  0  0  0  0
   -1.5620   19.3010  -27.5800 N   0  0  0  0  0  0  0  0  0  0  0  0
   -1.7550   20.2180  -26.4490 C   0  0  0  0  0  0  0  0  0  0  0  0
   -0.6940   20.1120  -28.8610 S   0  0  0  0  0  0  0  0  0  0  0  0
   -1.1280   19.5570  -30.1890 O   0  0  0  0  0  0  0  0  0  0  0  0
    0.7780   19.8500  -28.7080 O   0  0  0  0  0  0  0  0  0  0  0  0
   -0.9800   21.8540  -28.8400 C   0  0  0  0  0  0  0  0  0  0  0  0
    0.0890   22.7420  -28.6650 C   0  0  0  0  0  0  0  0  0  0  0  0
   -0.1380   24.1200  -28.6530 C   0  0  0  0  0  0  0  0  0  0  0  0
   -1.4320   24.6280  -28.8110 C   0  0  0  0  0  0  0  0  0  0  0  0
   -1.5980   26.0110  -28.8700 O   0  0  0  0  0  0  0  0  0  0  0  0
   -2.5200   23.7340  -28.9380 C   0  0  0  0  0  0  0  0  0  0  0  0
   -3.8720   24.1950  -29.0360 N   0  0  0  0  0  0  0  0  0  0  0  0
   -4.5050   24.5690  -30.2680 C   0  0  0  0  0  0  0  0  0  0  0  0
   -4.2210   25.6720  -30.8070 O   0  0  0  0  0  0  0  0  0  0  0  0
   -5.5130   23.6770  -30.8890 C   0  0  0  0  0  0  0  0  0  0  0  0
   -6.8820   23.9890  -30.8260 C   0  0  0  0  0  0  0  0  0  0  0  0
   -7.8270   23.1500  -31.4190 C   0  0  0  0  0  0  0  0  0  0  0  0
   -7.4220   21.9880  -32.0800 C   0  0  0  0  0  0  0  0  0  0  0  0
   -8.3560   21.2160  -32.6900 F   0  0  0  0  0  0  0  0  0  0  0  0
   -6.0610   21.6520  -32.1460 C   0  0  0  0  0  0  0  0  0  0  0  0
   -5.6340   20.4560  -32.8230 N   0  0  0  0  0  0  0  0  0  0  0  0
   -4.3570   20.2000  -33.4130 C   0  0  0  0  0  0  0  0  0  0  0  0
   -3.4500   21.0620  -33.5470 O   0  0  0  0  0  0  0  0  0  0  0  0
   -4.2850   18.8160  -33.8610 C   0  0  0  0  0  0  0  0  0  0  0  0
   -3.2460   18.1350  -34.4900 C   0  0  0  0  0  0  0  0  0  0  0  0
   -3.4430   16.7840  -34.8120 C   0  0  0  0  0  0  0  0  0  0  0  0
   -4.6620   16.1450  -34.5060 C   0  0  0  0  0  0  0  0  0  0  0  0
   -5.7050   16.8490  -33.8700 C   0  0  0  0  0  0  0  0  0  0  0  0
   -6.9370   16.1870  -33.5690 N   0  0  0  0  0  0  0  0  0  0  0  0
   -5.4850   18.2000  -33.5560 C   0  0  0  0  0  0  0  0  0  0  0  0
   -6.3260   19.2060  -32.8960 C   0  0  0  0  0  0  0  0  0  0  0  0
   -7.4630   19.0020  -32.3970 O   0  0  0  0  0  0  0  0  0  0  0  0
   -5.1120   22.5020  -31.5520 C   0  0  0  0  0  0  0  0  0  0  0  0
   -2.2800   22.3560  -28.9840 C   0  0  0  0  0  0  0  0  0  0  0  0
   -0.7903   18.0763  -26.0479 H   0  0  0  0  0  0  0  0  0  0  0  0
   -1.3055   17.2094  -27.5344 H   0  0  0  0  0  0  0  0  0  0  0  0
    0.2142   18.1670  -27.5344 H   0  0  0  0  0  0  0  0  0  0  0  0
   -1.6387   19.6654  -25.5050 H   0  0  0  0  0  0  0  0  0  0  0  0
   -1.0065   21.0226  -26.4975 H   0  0  0  0  0  0  0  0  0  0  0  0
   -2.7643   20.6527  -26.4975 H   0  0  0  0  0  0  0  0  0  0  0  0
    1.1099   22.3530  -28.5367 H   0  0  0  0  0  0  0  0  0  0  0  0
    0.7070   24.8112  -28.5183 H   0  0  0  0  0  0  0  0  0  0  0  0
   -2.5040   26.4500  -28.9750 H   0  0  0  0  0  0  0  0  0  0  0  0
   -7.2110   24.9007  -30.3058 H   0  0  0  0  0  0  0  0  0  0  0  0
   -8.8957   23.4051  -31.3655 H   0  0  0  0  0  0  0  0  0  0  0  0
   -2.2988   18.6414  -34.7274 H   0  0  0  0  0  0  0  0  0  0  0  0
   -2.6399   16.2185  -35.3073 H   0  0  0  0  0  0  0  0  0  0  0  0
   -4.8009   15.0853  -34.7664 H   0  0  0  0  0  0  0  0  0  0  0  0
   -7.6940   16.6900  -33.0560 H   0  0  0  0  0  0  0  0  0  0  0  0
   -7.1100   15.1960  -33.8370 H   0  0  0  0  0  0  0  0  0  0  0  0
   -4.0436   22.2459  -31.6060 H   0  0  0  0  0  0  0  0  0  0  0  0
   -3.1193   21.6611  -29.1345 H   0  0  0  0  0  0  0  0  0  0  0  0
  1  2  1  0
  2  3  1  0
  2  4  1  0
  4  5  2  0
  4  6  2  0
  4  7  1  0
  7  8  2  0
  8  9  1  0
  9 10  2  0
 10 11  1  0
 10 12  1  0
 12 13  1  0
 13 14  1  0
 14 15  2  0
 14 16  1  0
 16 17  2  0
 17 18  1  0
 18 19  2  0
 19 20  1  0
 19 21  1  0
 21 22  1  0
 22 23  1  0
 23 24  2  0
 23 25  1  0
 25 26  2  0
 26 27  1  0
 27 28  2  0
 28 29  1  0
 29 30  1  0
 29 31  2  0
 31 32  1  0
 32 33  2  0
 21 34  2  0
 12 35  2  0
 35  7  1  0
 34 16  1  0
 32 22  1  0
 31 25  1  0
  1 36  1  0
  1 37  1  0
  1 38  1  0
  3 39  1  0
  3 40  1  0
  3 41  1  0
  8 42  1  0
  9 43  1  0
 11 44  1  0
 17 45  1  0
 18 46  1  0
 26 47  1  0
 27 48  1  0
 28 49  1  0
 30 50  1  0
 30 51  1  0
 34 52  1  0
 35 53  1  0
M  CHG  1  13  -1
M  END
>  <UniqueID>  (41) 
39

>  <SMILES>  (41) 
CN(C)S(=O)(=O)c1ccc(O)c([N-]C(=O)c2ccc(F)c(N3C(=O)c4cccc(N)c4C3=O)c2)c1

>  <Energy>  (41) 
100.80115283626466

>  <Genealogy>  (41) 
CN(C)S(=O)(=O)c1ccc(O)c([N-]C(=O)c2ccc(F)c(N3C(=O)c4cccc(N)c4C3=O)c2)c1 (protonated)
CN(C)S(=O)(=O)c1ccc(O)c([N-]C(=O)c2ccc(F)c(N3C(=O)c4cccc(N)c4C3=O)c2)c1 (3D coordinates assigned)
CN(C)S(=O)(=O)c1ccc(O)c([N-]C(=O)c2ccc(F)c(N3C(=O)c4cccc(N)c4C3=O)c2)c1 (nonaromatic ring conformer: 100.80115283626466 kcal/mol)

>  <smiles>  (41) 
CN(C)S(=O)(=O)c1ccc(O)c(NC(=O)c2ccc(F)c(N3C(=O)c4cccc(N)c4C3=O)c2)c1

>  <score_type>  (41) 
oracle

>  <origin>  (41) 
adgpu

>  <m_score__min__energy>  (41) 
-11.81

>  <m_primary>  (41) 
energy

$$$$
41:0
     RDKit          3D

 49 52  0  0  0  0  0  0  0  0999 V2000
   -7.0460   24.0000  -32.3630 O   0  0  0  0  0  0  0  0  0  0  0  0
   -6.4710   23.3560  -31.4450 C   0  0  0  0  0  0  0  0  0  0  0  0
   -7.0630   22.1350  -30.9830 N   0  0  0  0  0  0  0  0  0  0  0  0
   -7.0110   20.8640  -31.6470 C   0  0  0  0  0  0  0  0  0  0  0  0
   -8.1630   20.0870  -31.8340 C   0  0  0  0  0  0  0  0  0  0  0  0
   -8.0790   18.8550  -32.4790 C   0  0  0  0  0  0  0  0  0  0  0  0
   -6.8520   18.3930  -32.9690 C   0  0  0  0  0  0  0  0  0  0  0  0
   -6.8240   16.7980  -33.7150 Cl  0  0  0  0  0  0  0  0  0  0  0  0
   -5.6880   19.1900  -32.8400 C   0  0  0  0  0  0  0  0  0  0  0  0
   -4.1270   18.5980  -33.4640 S   0  0  0  0  0  0  0  0  0  0  0  0
   -3.8790   17.2330  -32.8810 O   0  0  0  0  0  0  0  0  0  0  0  0
   -4.2360   18.4670  -34.9620 O   0  0  0  0  0  0  0  0  0  0  0  0
   -2.7370   19.6100  -33.1270 N   0  0  0  0  0  0  0  0  0  0  0  0
   -1.7070   18.8980  -32.3330 C   0  0  0  0  0  0  0  0  0  0  0  0
   -0.8680   19.8440  -31.4550 C   0  0  0  0  0  0  0  0  0  0  0  0
   -0.6050   21.1600  -32.1900 C   0  0  0  0  0  0  0  0  0  0  0  0
   -1.9170   21.8780  -32.5570 C   0  0  0  0  0  0  0  0  0  0  0  0
   -3.1310   20.9320  -32.6070 C   0  0  0  0  0  0  0  0  0  0  0  0
   -5.7890   20.4230  -32.1710 C   0  0  0  0  0  0  0  0  0  0  0  0
   -5.1780   23.8380  -30.9230 C   0  0  0  0  0  0  0  0  0  0  0  0
   -4.3140   23.1270  -30.1140 C   0  0  0  0  0  0  0  0  0  0  0  0
   -3.2740   24.0090  -29.8690 C   0  0  0  0  0  0  0  0  0  0  0  0
   -2.0520   23.7490  -29.0600 C   0  0  0  0  0  0  0  0  0  0  0  0
   -1.8160   22.4660  -28.5210 C   0  0  0  0  0  0  0  0  0  0  0  0
   -0.6600   22.2030  -27.7850 C   0  0  0  0  0  0  0  0  0  0  0  0
    0.2770   23.2120  -27.5660 C   0  0  0  0  0  0  0  0  0  0  0  0
    0.0600   24.4870  -28.0880 C   0  0  0  0  0  0  0  0  0  0  0  0
   -1.0920   24.7630  -28.8300 C   0  0  0  0  0  0  0  0  0  0  0  0
   -1.2670   26.0480  -29.3320 O   0  0  0  0  0  0  0  0  0  0  0  0
   -3.5270   25.1750  -30.5030 N   0  0  0  0  0  0  0  0  0  0  0  0
   -4.6850   25.0720  -31.1390 N   0  0  0  0  0  0  0  0  0  0  0  0
   -9.1353   20.4510  -31.4706 H   0  0  0  0  0  0  0  0  0  0  0  0
   -8.9832   18.2411  -32.6040 H   0  0  0  0  0  0  0  0  0  0  0  0
   -2.2089   18.1673  -31.6816 H   0  0  0  0  0  0  0  0  0  0  0  0
   -1.0216   18.4110  -33.0422 H   0  0  0  0  0  0  0  0  0  0  0  0
   -1.4133   20.0522  -30.5226 H   0  0  0  0  0  0  0  0  0  0  0  0
    0.0949   19.3621  -31.2299 H   0  0  0  0  0  0  0  0  0  0  0  0
   -0.0078   21.8177  -31.5413 H   0  0  0  0  0  0  0  0  0  0  0  0
   -0.0664   20.9314  -33.1215 H   0  0  0  0  0  0  0  0  0  0  0  0
   -2.1114   22.6573  -31.8054 H   0  0  0  0  0  0  0  0  0  0  0  0
   -1.7887   22.2998  -33.5648 H   0  0  0  0  0  0  0  0  0  0  0  0
   -3.5398   20.8144  -31.5926 H   0  0  0  0  0  0  0  0  0  0  0  0
   -3.8904   21.3642  -33.2752 H   0  0  0  0  0  0  0  0  0  0  0  0
   -4.8935   21.0516  -32.0573 H   0  0  0  0  0  0  0  0  0  0  0  0
   -4.4258   22.0958  -29.7477 H   0  0  0  0  0  0  0  0  0  0  0  0
   -2.5517   21.6644  -28.6830 H   0  0  0  0  0  0  0  0  0  0  0  0
   -0.4874   21.1964  -27.3763 H   0  0  0  0  0  0  0  0  0  0  0  0
    1.1858   23.0028  -26.9826 H   0  0  0  0  0  0  0  0  0  0  0  0
    0.8009   25.2813  -27.9145 H   0  0  0  0  0  0  0  0  0  0  0  0
  1  2  2  0
  2  3  1  0
  3  4  1  0
  4  5  2  0
  5  6  1  0
  6  7  2  0
  7  8  1  0
  7  9  1  0
  9 10  1  0
 10 11  2  0
 10 12  2  0
 10 13  1  0
 13 14  1  0
 14 15  1  0
 15 16  1  0
 16 17  1  0
 17 18  1  0
  9 19  2  0
  2 20  1  0
 20 21  1  0
 21 22  2  0
 22 23  1  0
 23 24  2  0
 24 25  1  0
 25 26  2  0
 26 27  1  0
 27 28  2  0
 28 29  1  0
 22 30  1  0
 30 31  1  0
 19  4  1  0
 31 20  2  0
 18 13  1  0
 28 23  1  0
  5 32  1  0
  6 33  1  0
 14 34  1  0
 14 35  1  0
 15 36  1  0
 15 37  1  0
 16 38  1  0
 16 39  1  0
 17 40  1  0
 17 41  1  0
 18 42  1  0
 18 43  1  0
 19 44  1  0
 21 45  1  0
 24 46  1  0
 25 47  1  0
 26 48  1  0
 27 49  1  0
M  CHG  3   3  -1  29  -1  30  -1
M  END
>  <UniqueID>  (42) 
40

>  <SMILES>  (42) 
O=C([N-]c1ccc(Cl)c(S(=O)(=O)N2CCCCC2)c1)c1cc(-c2ccccc2[O-])[n-]n1

>  <Energy>  (42) 
100.05768494077931

>  <Genealogy>  (42) 
O=C([N-]c1ccc(Cl)c(S(=O)(=O)N2CCCCC2)c1)c1cc(-c2ccccc2[O-])[n-]n1 (protonated)
O=C([N-]c1ccc(Cl)c(S(=O)(=O)N2CCCCC2)c1)c1cc(-c2ccccc2[O-])[n-]n1 (3D coordinates assigned)
O=C([N-]c1ccc(Cl)c(S(=O)(=O)N2CCCCC2)c1)c1cc(-c2ccccc2[O-])[n-]n1 (nonaromatic ring conformer: 100.05768494077931 kcal/mol)

>  <smiles>  (42) 
O=C(Nc1ccc(Cl)c(S(=O)(=O)N2CCCCC2)c1)c1cc(-c2ccccc2O)[nH]n1

>  <score_type>  (42) 
oracle

>  <origin>  (42) 
adgpu

>  <m_score__min__energy>  (42) 
-15.41

>  <m_primary>  (42) 
energy

$$$$
42:0
     RDKit          3D

 60 63  0  0  0  0  0  0  0  0999 V2000
    0.0790   17.8200  -29.5750 C   0  0  0  0  0  0  0  0  0  0  0  0
   -0.4830   19.1860  -29.8430 C   0  0  0  0  0  0  0  0  0  0  0  0
   -0.7190   19.7660  -31.0840 C   0  0  0  0  0  0  0  0  0  0  0  0
   -0.5710   19.2000  -32.3880 N   0  0  0  0  0  0  0  0  0  0  0  0
   -1.4110   19.7770  -33.7910 S   0  0  0  0  0  0  0  0  0  0  0  0
   -1.1650   18.8470  -34.9470 O   0  0  0  0  0  0  0  0  0  0  0  0
   -0.9290   21.1550  -34.1450 O   0  0  0  0  0  0  0  0  0  0  0  0
   -3.1350   19.8060  -33.4430 C   0  0  0  0  0  0  0  0  0  0  0  0
   -3.7490   20.9850  -33.0170 C   0  0  0  0  0  0  0  0  0  0  0  0
   -5.1290   21.0330  -32.8380 C   0  0  0  0  0  0  0  0  0  0  0  0
   -5.9250   19.9050  -33.0990 C   0  0  0  0  0  0  0  0  0  0  0  0
   -7.3560   20.0020  -32.9890 N   0  0  0  0  0  0  0  0  0  0  0  0
   -8.0290   21.0970  -32.2830 C   0  0  0  0  0  0  0  0  0  0  0  0
   -7.4880   21.2730  -30.8530 C   0  0  0  0  0  0  0  0  0  0  0  0
   -6.5560   22.4540  -30.7210 C   0  0  0  0  0  0  0  0  0  0  0  0
   -5.3340   22.3200  -30.0390 C   0  0  0  0  0  0  0  0  0  0  0  0
   -4.4380   23.3940  -29.9780 C   0  0  0  0  0  0  0  0  0  0  0  0
   -4.7600   24.6100  -30.5880 C   0  0  0  0  0  0  0  0  0  0  0  0
   -3.8640   25.6720  -30.5380 O   0  0  0  0  0  0  0  0  0  0  0  0
   -5.9820   24.7580  -31.2490 C   0  0  0  0  0  0  0  0  0  0  0  0
   -6.8800   23.6870  -31.3100 C   0  0  0  0  0  0  0  0  0  0  0  0
   -5.3050   18.6880  -33.4830 C   0  0  0  0  0  0  0  0  0  0  0  0
   -6.0700   17.5050  -33.7830 N   0  0  0  0  0  0  0  0  0  0  0  0
   -5.6150   16.6210  -34.5380 O   0  0  0  0  0  0  0  0  0  0  0  0
   -7.2410   17.2530  -33.1040 O   0  0  0  0  0  0  0  0  0  0  0  0
   -3.9080   18.6550  -33.6420 C   0  0  0  0  0  0  0  0  0  0  0  0
   -1.1040   21.0550  -30.8090 C   0  0  0  0  0  0  0  0  0  0  0  0
   -1.3720   21.9400  -31.6650 O   0  0  0  0  0  0  0  0  0  0  0  0
   -1.1390   21.2400  -29.4750 N   0  0  0  0  0  0  0  0  0  0  0  0
   -1.5100   22.4620  -28.8080 C   0  0  0  0  0  0  0  0  0  0  0  0
   -0.9170   23.6780  -29.1840 C   0  0  0  0  0  0  0  0  0  0  0  0
   -1.2670   24.8640  -28.5310 C   0  0  0  0  0  0  0  0  0  0  0  0
   -2.2070   24.8430  -27.4960 C   0  0  0  0  0  0  0  0  0  0  0  0
   -2.7940   23.6340  -27.1100 C   0  0  0  0  0  0  0  0  0  0  0  0
   -2.4440   22.4460  -27.7600 C   0  0  0  0  0  0  0  0  0  0  0  0
   -0.7800   20.1020  -28.8850 N   0  0  0  0  0  0  0  0  0  0  0  0
   -0.7000   19.8830  -27.4370 C   0  0  0  0  0  0  0  0  0  0  0  0
    0.1458   17.6576  -28.4891 H   0  0  0  0  0  0  0  0  0  0  0  0
   -0.5791   17.0590  -30.0198 H   0  0  0  0  0  0  0  0  0  0  0  0
    1.0821   17.7425  -30.0198 H   0  0  0  0  0  0  0  0  0  0  0  0
   -3.1400   21.8800  -32.8219 H   0  0  0  0  0  0  0  0  0  0  0  0
   -5.6007   21.9633  -32.4888 H   0  0  0  0  0  0  0  0  0  0  0  0
   -7.9480   19.2760  -33.4530 H   0  0  0  0  0  0  0  0  0  0  0  0
   -7.8702   22.0314  -32.8413 H   0  0  0  0  0  0  0  0  0  0  0  0
   -9.0996   20.8536  -32.2159 H   0  0  0  0  0  0  0  0  0  0  0  0
   -8.3386   21.4186  -30.1709 H   0  0  0  0  0  0  0  0  0  0  0  0
   -6.9141   20.3686  -30.6024 H   0  0  0  0  0  0  0  0  0  0  0  0
   -5.0807   21.3672  -29.5512 H   0  0  0  0  0  0  0  0  0  0  0  0
   -3.4798   23.2810  -29.4497 H   0  0  0  0  0  0  0  0  0  0  0  0
   -6.2382   25.7175  -31.7219 H   0  0  0  0  0  0  0  0  0  0  0  0
   -7.8455   23.8114  -31.8223 H   0  0  0  0  0  0  0  0  0  0  0  0
   -3.4161   17.7131  -33.9263 H   0  0  0  0  0  0  0  0  0  0  0  0
   -0.1744   23.6977  -29.9952 H   0  0  0  0  0  0  0  0  0  0  0  0
   -0.8023   25.8145  -28.8319 H   0  0  0  0  0  0  0  0  0  0  0  0
   -2.4846   25.7771  -26.9857 H   0  0  0  0  0  0  0  0  0  0  0  0
   -3.5318   23.6172  -26.2943 H   0  0  0  0  0  0  0  0  0  0  0  0
   -2.9023   21.4956  -27.4489 H   0  0  0  0  0  0  0  0  0  0  0  0
   -1.0313   20.7900  -26.9101 H   0  0  0  0  0  0  0  0  0  0  0  0
   -1.3480   19.0392  -27.1574 H   0  0  0  0  0  0  0  0  0  0  0  0
    0.3393   19.6555  -27.1574 H   0  0  0  0  0  0  0  0  0  0  0  0
  1  2  1  0
  2  3  2  0
  3  4  1  0
  4  5  1  0
  5  6  2  0
  5  7  2  0
  5  8  1  0
  8  9  2  0
  9 10  1  0
 10 11  2  0
 11 12  1  0
 12 13  1  0
 13 14  1  0
 14 15  1  0
 15 16  2  0
 16 17  1  0
 17 18  2  0
 18 19  1  0
 18 20  1  0
 20 21  2  0
 11 22  1  0
 22 23  1  0
 23 24  2  0
 23 25  1  0
 22 26  2  0
  3 27  1  0
 27 28  2  0
 27 29  1  0
 29 30  1  0
 30 31  2  0
 31 32  1  0
 32 33  2  0
 33 34  1  0
 34 35  2  0
 29 36  1  0
 36 37  1  0
 36  2  1  0
 26  8  1  0
 35 30  1  0
 21 15  1  0
  1 38  1  0
  1 39  1  0
  1 40  1  0
  9 41  1  0
 10 42  1  0
 12 43  1  0
 13 44  1  0
 13 45  1  0
 14 46  1  0
 14 47  1  0
 16 48  1  0
 17 49  1  0
 20 50  1  0
 21 51  1  0
 26 52  1  0
 31 53  1  0
 32 54  1  0
 33 55  1  0
 34 56  1  0
 35 57  1  0
 37 58  1  0
 37 59  1  0
 37 60  1  0
M  CHG  4   4  -1  19  -1  23   1  25  -1
M  END
>  <UniqueID>  (43) 
41

>  <SMILES>  (43) 
Cc1c([N-]S(=O)(=O)c2ccc(NCCc3ccc([O-])cc3)c([N+](=O)[O-])c2)c(=O)n(-c2ccccc2)n1C

>  <Energy>  (43) 
112.9928200540445

>  <Genealogy>  (43) 
Cc1c([N-]S(=O)(=O)c2ccc(NCCc3ccc([O-])cc3)c([N+](=O)[O-])c2)c(=O)n(-c2ccccc2)n1C (protonated)
Cc1c([N-]S(=O)(=O)c2ccc(NCCc3ccc([O-])cc3)c([N+](=O)[O-])c2)c(=O)n(-c2ccccc2)n1C (3D coordinates assigned)
Cc1c([N-]S(=O)(=O)c2ccc(NCCc3ccc([O-])cc3)c([N+](=O)[O-])c2)c(=O)n(-c2ccccc2)n1C (optimized conformer: 112.9928200540445 kcal/mol)

>  <smiles>  (43) 
Cc1c(NS(=O)(=O)c2ccc(NCCc3ccc(O)cc3)c([N+](=O)[O-])c2)c(=O)n(-c2ccccc2)n1C

>  <score_type>  (43) 
oracle

>  <origin>  (43) 
adgpu

>  <m_score__min__energy>  (43) 
-13.609999999999999

>  <m_primary>  (43) 
energy

$$$$
43:0
     RDKit          3D

 50 52  0  0  0  0  0  0  0  0999 V2000
   -9.5560   20.6300  -32.3270 C   0  0  0  0  0  0  0  0  0  0  0  0
   -8.1070   20.3920  -32.3290 N   0  0  0  0  0  0  0  0  0  0  0  0
   -7.5620   19.2280  -33.0370 C   0  0  0  0  0  0  0  0  0  0  0  0
   -7.2400   21.3330  -31.6490 C   0  0  0  0  0  0  0  0  0  0  0  0
   -7.7330   22.2360  -30.6870 C   0  0  0  0  0  0  0  0  0  0  0  0
   -6.8570   23.1210  -30.0560 C   0  0  0  0  0  0  0  0  0  0  0  0
   -5.4970   23.1070  -30.3760 C   0  0  0  0  0  0  0  0  0  0  0  0
   -4.3590   24.1900  -29.5800 S   0  0  0  0  0  0  0  0  0  0  0  0
   -3.8720   25.2020  -30.5790 O   0  0  0  0  0  0  0  0  0  0  0  0
   -5.0160   24.9250  -28.4450 O   0  0  0  0  0  0  0  0  0  0  0  0
   -3.0050   23.2820  -28.9890 N   0  0  0  0  0  0  0  0  0  0  0  0
   -2.0210   23.7620  -28.0640 C   0  0  0  0  0  0  0  0  0  0  0  0
   -1.5120   22.8770  -27.1040 C   0  0  0  0  0  0  0  0  0  0  0  0
   -0.5330   23.2980  -26.1990 C   0  0  0  0  0  0  0  0  0  0  0  0
   -0.0380   24.6100  -26.2540 C   0  0  0  0  0  0  0  0  0  0  0  0
    1.2360   25.1310  -25.1500 S   0  0  0  0  0  0  0  0  0  0  0  0
    1.9440   23.9090  -24.6360 O   0  0  0  0  0  0  0  0  0  0  0  0
    2.2390   25.9510  -25.9130 O   0  0  0  0  0  0  0  0  0  0  0  0
    0.6380   26.0540  -23.7820 N   0  0  0  0  0  0  0  0  0  0  0  0
   -0.7690   26.4870  -23.9640 C   0  0  0  0  0  0  0  0  0  0  0  0
   -0.8890   27.9430  -24.4520 C   0  0  0  0  0  0  0  0  0  0  0  0
    0.2460   28.3160  -25.2000 O   0  0  0  0  0  0  0  0  0  0  0  0
    1.3790   28.3950  -24.3580 C   0  0  0  0  0  0  0  0  0  0  0  0
    1.5330   27.1730  -23.4230 C   0  0  0  0  0  0  0  0  0  0  0  0
   -0.5650   25.5060  -27.1950 C   0  0  0  0  0  0  0  0  0  0  0  0
   -1.5470   25.0860  -28.0950 C   0  0  0  0  0  0  0  0  0  0  0  0
   -5.0390   22.2010  -31.3360 C   0  0  0  0  0  0  0  0  0  0  0  0
   -5.9080   21.3510  -31.9430 N   0  0  0  0  0  0  0  0  0  0  0  0
   -9.9164   20.6892  -31.2894 H   0  0  0  0  0  0  0  0  0  0  0  0
   -9.7729   21.5758  -32.8450 H   0  0  0  0  0  0  0  0  0  0  0  0
  -10.0641   19.8033  -32.8450 H   0  0  0  0  0  0  0  0  0  0  0  0
   -7.2136   18.4840  -32.3055 H   0  0  0  0  0  0  0  0  0  0  0  0
   -8.3453   18.7829  -33.6681 H   0  0  0  0  0  0  0  0  0  0  0  0
   -6.7185   19.5446  -33.6681 H   0  0  0  0  0  0  0  0  0  0  0  0
   -8.8035   22.2438  -30.4341 H   0  0  0  0  0  0  0  0  0  0  0  0
   -7.2378   23.8300  -29.3062 H   0  0  0  0  0  0  0  0  0  0  0  0
   -1.8856   21.8432  -27.0622 H   0  0  0  0  0  0  0  0  0  0  0  0
   -0.1495   22.5986  -25.4415 H   0  0  0  0  0  0  0  0  0  0  0  0
    0.6550   25.3850  -22.9760 H   0  0  0  0  0  0  0  0  0  0  0  0
   -1.2462   25.8281  -24.7044 H   0  0  0  0  0  0  0  0  0  0  0  0
   -1.2631   26.4255  -22.9831 H   0  0  0  0  0  0  0  0  0  0  0  0
   -1.7845   28.0389  -25.0836 H   0  0  0  0  0  0  0  0  0  0  0  0
   -0.9658   28.6031  -23.5755 H   0  0  0  0  0  0  0  0  0  0  0  0
    2.2777   28.4679  -24.9880 H   0  0  0  0  0  0  0  0  0  0  0  0
    1.2482   29.2802  -23.7182 H   0  0  0  0  0  0  0  0  0  0  0  0
    2.5736   26.8202  -23.4760 H   0  0  0  0  0  0  0  0  0  0  0  0
    1.2606   27.4991  -22.4084 H   0  0  0  0  0  0  0  0  0  0  0  0
   -0.2034   26.5444  -27.2245 H   0  0  0  0  0  0  0  0  0  0  0  0
   -1.9521   25.7947  -28.8323 H   0  0  0  0  0  0  0  0  0  0  0  0
   -3.9717   22.1758  -31.6012 H   0  0  0  0  0  0  0  0  0  0  0  0
  1  2  1  0
  2  3  1  0
  2  4  1  0
  4  5  2  0
  5  6  1  0
  6  7  2  0
  7  8  1  0
  8  9  2  0
  8 10  2  0
  8 11  1  0
 11 12  1  0
 12 13  2  0
 13 14  1  0
 14 15  2  0
 15 16  1  0
 16 17  2  0
 16 18  2  0
 16 19  1  0
 19 20  1  0
 20 21  1  0
 21 22  1  0
 22 23  1  0
 23 24  1  0
 15 25  1  0
 25 26  2  0
  7 27  1  0
 27 28  2  0
 28  4  1  0
 26 12  1  0
 24 19  1  0
  1 29  1  0
  1 30  1  0
  1 31  1  0
  3 32  1  0
  3 33  1  0
  3 34  1  0
  5 35  1  0
  6 36  1  0
 13 37  1  0
 14 38  1  0
 19 39  1  0
 20 40  1  0
 20 41  1  0
 21 42  1  0
 21 43  1  0
 23 44  1  0
 23 45  1  0
 24 46  1  0
 24 47  1  0
 25 48  1  0
 26 49  1  0
 27 50  1  0
M  CHG  2  11  -1  19   1
M  END
>  <UniqueID>  (44) 
42

>  <SMILES>  (44) 
CN(C)c1ccc(S(=O)(=O)[N-]c2ccc(S(=O)(=O)[NH+]3CCOCC3)cc2)cn1

>  <Energy>  (44) 
65.06911340375801

>  <Genealogy>  (44) 
CN(C)c1ccc(S(=O)(=O)[N-]c2ccc(S(=O)(=O)[NH+]3CCOCC3)cc2)cn1 (protonated)
CN(C)c1ccc(S(=O)(=O)[N-]c2ccc(S(=O)(=O)[NH+]3CCOCC3)cc2)cn1 (3D coordinates assigned)
CN(C)c1ccc(S(=O)(=O)[N-]c2ccc(S(=O)(=O)[NH+]3CCOCC3)cc2)cn1 (nonaromatic ring conformer: 65.06911340375801 kcal/mol)

>  <smiles>  (44) 
CN(C)c1ccc(S(=O)(=O)Nc2ccc(S(=O)(=O)N3CCOCC3)cc2)cn1

>  <score_type>  (44) 
oracle

>  <origin>  (44) 
adgpu

>  <m_score__min__energy>  (44) 
-10.67

>  <m_primary>  (44) 
energy

$$$$
44:0
     RDKit          3D

 57 60  0  0  0  0  0  0  0  0999 V2000
   -2.4860   19.8390  -33.8280 C   0  0  0  0  0  0  0  0  0  0  0  0
   -2.6990   20.2450  -32.3960 C   0  0  0  0  0  0  0  0  0  0  0  0
   -3.9370   20.0220  -31.7800 C   0  0  0  0  0  0  0  0  0  0  0  0
   -4.1390   20.3960  -30.4910 N   0  0  0  0  0  0  0  0  0  0  0  0
   -3.1490   20.9780  -29.7710 C   0  0  0  0  0  0  0  0  0  0  0  0
   -3.4560   21.5100  -28.0890 S   0  0  0  0  0  0  0  0  0  0  0  0
   -1.7660   22.0880  -27.8650 C   0  0  0  0  0  0  0  0  0  0  0  0
   -0.7650   21.1260  -27.6580 C   0  0  0  0  0  0  0  0  0  0  0  0
    0.5740   21.5040  -27.5540 C   0  0  0  0  0  0  0  0  0  0  0  0
    0.9240   22.8500  -27.6300 C   0  0  0  0  0  0  0  0  0  0  0  0
   -0.0630   23.8220  -27.8000 C   0  0  0  0  0  0  0  0  0  0  0  0
   -1.4180   23.4600  -27.9270 C   0  0  0  0  0  0  0  0  0  0  0  0
   -2.4330   24.5380  -28.0530 C   0  0  0  0  0  0  0  0  0  0  0  0
   -2.8610   25.1180  -27.0200 O   0  0  0  0  0  0  0  0  0  0  0  0
   -2.8730   24.9930  -29.3400 N   0  0  0  0  0  0  0  0  0  0  0  0
   -4.0620   24.4800  -29.9440 C   0  0  0  0  0  0  0  0  0  0  0  0
   -5.3030   24.7360  -29.3540 C   0  0  0  0  0  0  0  0  0  0  0  0
   -6.4450   24.0740  -29.8070 C   0  0  0  0  0  0  0  0  0  0  0  0
   -6.3470   23.1360  -30.8420 C   0  0  0  0  0  0  0  0  0  0  0  0
   -7.7260   22.1030  -31.2160 S   0  0  0  0  0  0  0  0  0  0  0  0
   -8.5340   22.7270  -32.3200 O   0  0  0  0  0  0  0  0  0  0  0  0
   -8.6030   21.9890  -29.9990 O   0  0  0  0  0  0  0  0  0  0  0  0
   -7.1990   20.5090  -31.7100 N   0  0  0  0  0  0  0  0  0  0  0  0
   -6.9150   20.4780  -33.1570 C   0  0  0  0  0  0  0  0  0  0  0  0
   -6.5120   19.0570  -33.6080 C   0  0  0  0  0  0  0  0  0  0  0  0
   -6.5760   18.1210  -32.5470 O   0  0  0  0  0  0  0  0  0  0  0  0
   -7.8740   18.1270  -31.9880 C   0  0  0  0  0  0  0  0  0  0  0  0
   -8.2120   19.4970  -31.3600 C   0  0  0  0  0  0  0  0  0  0  0  0
   -5.1190   22.9530  -31.4960 C   0  0  0  0  0  0  0  0  0  0  0  0
   -3.9820   23.6380  -31.0580 C   0  0  0  0  0  0  0  0  0  0  0  0
   -1.9280   21.1720  -30.3300 N   0  0  0  0  0  0  0  0  0  0  0  0
   -1.6710   20.8150  -31.6170 C   0  0  0  0  0  0  0  0  0  0  0  0
   -0.3040   21.0700  -32.1780 C   0  0  0  0  0  0  0  0  0  0  0  0
   -1.9752   18.8654  -33.8610 H   0  0  0  0  0  0  0  0  0  0  0  0
   -3.4588   19.7601  -34.3353 H   0  0  0  0  0  0  0  0  0  0  0  0
   -1.8682   20.5946  -34.3353 H   0  0  0  0  0  0  0  0  0  0  0  0
   -4.7499   19.5412  -32.3439 H   0  0  0  0  0  0  0  0  0  0  0  0
   -1.0389   20.0637  -27.5770 H   0  0  0  0  0  0  0  0  0  0  0  0
    1.3524   20.7398  -27.4121 H   0  0  0  0  0  0  0  0  0  0  0  0
    1.9804   23.1475  -27.5559 H   0  0  0  0  0  0  0  0  0  0  0  0
    0.2210   24.8841  -27.8352 H   0  0  0  0  0  0  0  0  0  0  0  0
   -5.3797   25.4612  -28.5305 H   0  0  0  0  0  0  0  0  0  0  0  0
   -7.4225   24.2892  -29.3508 H   0  0  0  0  0  0  0  0  0  0  0  0
   -6.3150   20.3010  -31.1870 H   0  0  0  0  0  0  0  0  0  0  0  0
   -7.8150   20.7892  -33.7076 H   0  0  0  0  0  0  0  0  0  0  0  0
   -6.0808   21.1636  -33.3667 H   0  0  0  0  0  0  0  0  0  0  0  0
   -7.1935   18.7326  -34.4082 H   0  0  0  0  0  0  0  0  0  0  0  0
   -5.4709   19.0971  -33.9608 H   0  0  0  0  0  0  0  0  0  0  0  0
   -8.6053   17.9061  -32.7794 H   0  0  0  0  0  0  0  0  0  0  0  0
   -7.9129   17.3646  -31.1960 H   0  0  0  0  0  0  0  0  0  0  0  0
   -9.1933   19.8289  -31.7300 H   0  0  0  0  0  0  0  0  0  0  0  0
   -8.2276   19.3840  -30.2659 H   0  0  0  0  0  0  0  0  0  0  0  0
   -5.0510   22.2692  -32.3550 H   0  0  0  0  0  0  0  0  0  0  0  0
   -3.0262   23.5151  -31.5884 H   0  0  0  0  0  0  0  0  0  0  0  0
    0.4117   21.2035  -31.3534 H   0  0  0  0  0  0  0  0  0  0  0  0
    0.0043   20.2139  -32.7961 H   0  0  0  0  0  0  0  0  0  0  0  0
   -0.3251   21.9797  -32.7961 H   0  0  0  0  0  0  0  0  0  0  0  0
  1  2  1  0
  2  3  2  0
  3  4  1  0
  4  5  2  0
  5  6  1  0
  6  7  1  0
  7  8  2  0
  8  9  1  0
  9 10  2  0
 10 11  1  0
 11 12  2  0
 12 13  1  0
 13 14  2  0
 13 15  1  0
 15 16  1  0
 16 17  2  0
 17 18  1  0
 18 19  2  0
 19 20  1  0
 20 21  2  0
 20 22  2  0
 20 23  1  0
 23 24  1  0
 24 25  1  0
 25 26  1  0
 26 27  1  0
 27 28  1  0
 19 29  1  0
 29 30  2  0
  5 31  1  0
 31 32  2  0
 32 33  1  0
 32  2  1  0
 12  7  1  0
 30 16  1  0
 28 23  1  0
  1 34  1  0
  1 35  1  0
  1 36  1  0
  3 37  1  0
  8 38  1  0
  9 39  1  0
 10 40  1  0
 11 41  1  0
 17 42  1  0
 18 43  1  0
 23 44  1  0
 24 45  1  0
 24 46  1  0
 25 47  1  0
 25 48  1  0
 27 49  1  0
 27 50  1  0
 28 51  1  0
 28 52  1  0
 29 53  1  0
 30 54  1  0
 33 55  1  0
 33 56  1  0
 33 57  1  0
M  CHG  2  15  -1  23   1
M  END
>  <UniqueID>  (45) 
43

>  <SMILES>  (45) 
Cc1cnc(Sc2ccccc2C(=O)[N-]c2ccc(S(=O)(=O)[NH+]3CCOCC3)cc2)nc1C

>  <Energy>  (45) 
73.13458280772315

>  <Genealogy>  (45) 
Cc1cnc(Sc2ccccc2C(=O)[N-]c2ccc(S(=O)(=O)[NH+]3CCOCC3)cc2)nc1C (protonated)
Cc1cnc(Sc2ccccc2C(=O)[N-]c2ccc(S(=O)(=O)[NH+]3CCOCC3)cc2)nc1C (3D coordinates assigned)
Cc1cnc(Sc2ccccc2C(=O)[N-]c2ccc(S(=O)(=O)[NH+]3CCOCC3)cc2)nc1C (nonaromatic ring conformer: 73.13458280772315 kcal/mol)

>  <smiles>  (45) 
Cc1cnc(Sc2ccccc2C(=O)Nc2ccc(S(=O)(=O)N3CCOCC3)cc2)nc1C

>  <score_type>  (45) 
oracle

>  <origin>  (45) 
adgpu

>  <m_score__min__energy>  (45) 
-11.630000000000001

>  <m_primary>  (45) 
energy

$$$$
45:0
     RDKit          3D

 45 48  0  0  0  0  0  0  0  0999 V2000
   -5.6930   26.7160  -30.1810 O   0  0  0  0  0  0  0  0  0  0  0  0
   -5.1970   25.5930  -30.4570 C   0  0  0  0  0  0  0  0  0  0  0  0
   -5.9280   24.6660  -31.2080 C   0  0  0  0  0  0  0  0  0  0  0  0
   -5.3640   23.4250  -31.5080 C   0  0  0  0  0  0  0  0  0  0  0  0
   -4.0750   23.1180  -31.0520 C   0  0  0  0  0  0  0  0  0  0  0  0
   -3.4800   21.8800  -31.3310 C   0  0  0  0  0  0  0  0  0  0  0  0
   -2.1990   21.5760  -30.8360 C   0  0  0  0  0  0  0  0  0  0  0  0
   -1.6020   20.2900  -31.0760 N   0  0  0  0  0  0  0  0  0  0  0  0
   -1.2360   19.7170  -32.6730 S   0  0  0  0  0  0  0  0  0  0  0  0
   -1.3960   20.8400  -33.6620 O   0  0  0  0  0  0  0  0  0  0  0  0
    0.1860   19.2360  -32.7190 O   0  0  0  0  0  0  0  0  0  0  0  0
   -2.3020   18.3720  -33.0720 C   0  0  0  0  0  0  0  0  0  0  0  0
   -1.8790   17.0580  -32.8380 C   0  0  0  0  0  0  0  0  0  0  0  0
   -2.7410   15.9870  -33.0890 C   0  0  0  0  0  0  0  0  0  0  0  0
   -4.0330   16.2230  -33.5640 C   0  0  0  0  0  0  0  0  0  0  0  0
   -4.4680   17.5350  -33.8010 C   0  0  0  0  0  0  0  0  0  0  0  0
   -6.1060   17.8530  -34.3560 S   0  0  0  0  0  0  0  0  0  0  0  0
   -6.0830   18.5960  -35.6630 O   0  0  0  0  0  0  0  0  0  0  0  0
   -6.8250   16.5470  -34.5590 O   0  0  0  0  0  0  0  0  0  0  0  0
   -6.9500   18.8350  -33.1610 C   0  0  0  0  0  0  0  0  0  0  0  0
   -6.6860   20.2100  -33.0540 C   0  0  0  0  0  0  0  0  0  0  0  0
   -7.3770   20.9870  -32.1190 C   0  0  0  0  0  0  0  0  0  0  0  0
   -8.3370   20.3970  -31.2900 C   0  0  0  0  0  0  0  0  0  0  0  0
   -8.6090   19.0280  -31.3980 C   0  0  0  0  0  0  0  0  0  0  0  0
   -7.9190   18.2490  -32.3320 C   0  0  0  0  0  0  0  0  0  0  0  0
   -3.5970   18.6060  -33.5590 C   0  0  0  0  0  0  0  0  0  0  0  0
   -1.5000   22.5490  -30.0960 C   0  0  0  0  0  0  0  0  0  0  0  0
   -0.2250   22.2810  -29.6080 O   0  0  0  0  0  0  0  0  0  0  0  0
   -2.0850   23.7930  -29.8300 C   0  0  0  0  0  0  0  0  0  0  0  0
   -3.3710   24.0790  -30.2960 C   0  0  0  0  0  0  0  0  0  0  0  0
   -3.9460   25.2810  -30.0220 N   0  0  0  0  0  0  0  0  0  0  0  0
   -6.9404   24.9136  -31.5597 H   0  0  0  0  0  0  0  0  0  0  0  0
   -5.9294   22.6905  -32.1003 H   0  0  0  0  0  0  0  0  0  0  0  0
   -4.0189   21.1406  -31.9417 H   0  0  0  0  0  0  0  0  0  0  0  0
   -1.5540   19.5920  -30.3020 H   0  0  0  0  0  0  0  0  0  0  0  0
   -0.8653   16.8681  -32.4555 H   0  0  0  0  0  0  0  0  0  0  0  0
   -2.4012   14.9559  -32.9121 H   0  0  0  0  0  0  0  0  0  0  0  0
   -4.7111   15.3777  -33.7527 H   0  0  0  0  0  0  0  0  0  0  0  0
   -5.9340   20.6769  -33.7071 H   0  0  0  0  0  0  0  0  0  0  0  0
   -7.1655   22.0632  -32.0353 H   0  0  0  0  0  0  0  0  0  0  0  0
   -8.8782   21.0088  -30.5532 H   0  0  0  0  0  0  0  0  0  0  0  0
   -9.3659   18.5649  -30.7478 H   0  0  0  0  0  0  0  0  0  0  0  0
   -8.1363   17.1740  -32.4172 H   0  0  0  0  0  0  0  0  0  0  0  0
   -3.9306   19.6363  -33.7520 H   0  0  0  0  0  0  0  0  0  0  0  0
   -1.5306   24.5474  -29.2525 H   0  0  0  0  0  0  0  0  0  0  0  0
  1  2  2  0
  2  3  1  0
  3  4  2  0
  4  5  1  0
  5  6  2  0
  6  7  1  0
  7  8  1  0
  8  9  1  0
  9 10  2  0
  9 11  2  0
  9 12  1  0
 12 13  2  0
 13 14  1  0
 14 15  2  0
 15 16  1  0
 16 17  1  0
 17 18  2  0
 17 19  2  0
 17 20  1  0
 20 21  2  0
 21 22  1  0
 22 23  2  0
 23 24  1  0
 24 25  2  0
 16 26  2  0
  7 27  2  0
 27 28  1  0
 27 29  1  0
 29 30  2  0
 30 31  1  0
 31  2  1  0
 30  5  1  0
 26 12  1  0
 25 20  1  0
  3 32  1  0
  4 33  1  0
  6 34  1  0
  8 35  1  0
 13 36  1  0
 14 37  1  0
 15 38  1  0
 21 39  1  0
 22 40  1  0
 23 41  1  0
 24 42  1  0
 25 43  1  0
 26 44  1  0
 29 45  1  0
M  CHG  2  28  -1  31  -1
M  END
>  <UniqueID>  (46) 
44

>  <SMILES>  (46) 
O=c1ccc2cc(NS(=O)(=O)c3cccc(S(=O)(=O)c4ccccc4)c3)c([O-])cc2[n-]1

>  <Energy>  (46) 
58.02886217586141

>  <Genealogy>  (46) 
O=c1ccc2cc(NS(=O)(=O)c3cccc(S(=O)(=O)c4ccccc4)c3)c([O-])cc2[n-]1 (protonated)
O=c1ccc2cc(NS(=O)(=O)c3cccc(S(=O)(=O)c4ccccc4)c3)c([O-])cc2[n-]1 (3D coordinates assigned)
O=c1ccc2cc(NS(=O)(=O)c3cccc(S(=O)(=O)c4ccccc4)c3)c([O-])cc2[n-]1 (optimized conformer: 58.02886217586141 kcal/mol)

>  <smiles>  (46) 
O=c1ccc2cc(NS(=O)(=O)c3cccc(S(=O)(=O)c4ccccc4)c3)c(O)cc2[nH]1

>  <score_type>  (46) 
oracle

>  <origin>  (46) 
adgpu

>  <m_score__min__energy>  (46) 
-14.640000000000001

>  <m_primary>  (46) 
energy

$$$$
46:0
     RDKit          3D

 41 43  0  0  0  0  0  0  0  0999 V2000
   -5.7780   25.3800  -30.1330 C   0  0  0  0  0  0  0  0  0  0  0  0
   -5.4130   24.7390  -31.3510 O   0  0  0  0  0  0  0  0  0  0  0  0
   -5.7450   23.4150  -31.6850 C   0  0  0  0  0  0  0  0  0  0  0  0
   -7.0190   23.0690  -32.1790 C   0  0  0  0  0  0  0  0  0  0  0  0
   -7.3130   21.7430  -32.5020 C   0  0  0  0  0  0  0  0  0  0  0  0
   -6.3430   20.7520  -32.3460 C   0  0  0  0  0  0  0  0  0  0  0  0
   -5.0780   21.0820  -31.8570 C   0  0  0  0  0  0  0  0  0  0  0  0
   -4.7740   22.4100  -31.5080 C   0  0  0  0  0  0  0  0  0  0  0  0
   -3.4670   22.7630  -31.0270 N   0  0  0  0  0  0  0  0  0  0  0  0
   -2.5210   21.8110  -30.5060 C   0  0  0  0  0  0  0  0  0  0  0  0
   -2.7830   20.5790  -30.5210 O   0  0  0  0  0  0  0  0  0  0  0  0
   -1.2680   22.2410  -29.9650 N   0  0  0  0  0  0  0  0  0  0  0  0
   -1.0640   22.7000  -28.6250 C   0  0  0  0  0  0  0  0  0  0  0  0
   -0.5740   21.6890  -27.3780 S   0  0  0  0  0  0  0  0  0  0  0  0
   -0.5400   22.8890  -26.2070 C   0  0  0  0  0  0  0  0  0  0  0  0
   -0.8900   24.1130  -26.7750 C   0  0  0  0  0  0  0  0  0  0  0  0
   -1.2390   24.0070  -28.1430 C   0  0  0  0  0  0  0  0  0  0  0  0
   -1.8310   25.1070  -28.9400 C   0  0  0  0  0  0  0  0  0  0  0  0
   -1.2030   26.3870  -28.9770 N   0  0  0  0  0  0  0  0  0  0  0  0
   -2.8820   24.9210  -29.6080 O   0  0  0  0  0  0  0  0  0  0  0  0
   -1.0330   25.3560  -25.9260 C   0  0  0  0  0  0  0  0  0  0  0  0
   -0.3380   25.2080  -24.5590 C   0  0  0  0  0  0  0  0  0  0  0  0
   -0.6500   23.8510  -23.9100 C   0  0  0  0  0  0  0  0  0  0  0  0
   -0.1300   22.6980  -24.7780 C   0  0  0  0  0  0  0  0  0  0  0  0
   -5.4330   24.7742  -29.2821 H   0  0  0  0  0  0  0  0  0  0  0  0
   -5.3110   26.3749  -30.0880 H   0  0  0  0  0  0  0  0  0  0  0  0
   -6.8719   25.4861  -30.0880 H   0  0  0  0  0  0  0  0  0  0  0  0
   -7.7851   23.8473  -32.3106 H   0  0  0  0  0  0  0  0  0  0  0  0
   -8.3115   21.4788  -32.8803 H   0  0  0  0  0  0  0  0  0  0  0  0
   -6.5756   19.7095  -32.6087 H   0  0  0  0  0  0  0  0  0  0  0  0
   -4.3142   20.2986  -31.7439 H   0  0  0  0  0  0  0  0  0  0  0  0
   -3.2320   23.7790  -30.9730 H   0  0  0  0  0  0  0  0  0  0  0  0
   -0.8590   26.7900  -29.8760 H   0  0  0  0  0  0  0  0  0  0  0  0
   -0.5839   26.2051  -26.4620 H   0  0  0  0  0  0  0  0  0  0  0  0
   -2.1054   25.5204  -25.7445 H   0  0  0  0  0  0  0  0  0  0  0  0
    0.7495   25.2946  -24.7002 H   0  0  0  0  0  0  0  0  0  0  0  0
   -0.7123   26.0011  -23.8950 H   0  0  0  0  0  0  0  0  0  0  0  0
   -0.1678   23.8045  -22.9224 H   0  0  0  0  0  0  0  0  0  0  0  0
   -1.7409   23.7515  -23.8093 H   0  0  0  0  0  0  0  0  0  0  0  0
    0.9679   22.6664  -24.7177 H   0  0  0  0  0  0  0  0  0  0  0  0
   -0.5579   21.7543  -24.4087 H   0  0  0  0  0  0  0  0  0  0  0  0
  1  2  1  0
  2  3  1  0
  3  4  2  0
  4  5  1  0
  5  6  2  0
  6  7  1  0
  7  8  2  0
  8  9  1  0
  9 10  1  0
 10 11  2  0
 10 12  1  0
 12 13  1  0
 13 14  1  0
 14 15  1  0
 15 16  2  0
 16 17  1  0
 17 18  1  0
 18 19  1  0
 18 20  2  0
 16 21  1  0
 21 22  1  0
 22 23  1  0
 23 24  1  0
  8  3  1  0
 17 13  2  0
 24 15  1  0
  1 25  1  0
  1 26  1  0
  1 27  1  0
  4 28  1  0
  5 29  1  0
  6 30  1  0
  7 31  1  0
  9 32  1  0
 19 33  1  0
 21 34  1  0
 21 35  1  0
 22 36  1  0
 22 37  1  0
 23 38  1  0
 23 39  1  0
 24 40  1  0
 24 41  1  0
M  CHG  2  12  -1  19  -1
M  END
>  <UniqueID>  (47) 
45

>  <SMILES>  (47) 
COc1ccccc1NC(=O)[N-]c1sc2c(c1C([NH-])=O)CCCC2

>  <Energy>  (47) 
79.07483639051472

>  <Genealogy>  (47) 
COc1ccccc1NC(=O)[N-]c1sc2c(c1C([NH-])=O)CCCC2 (protonated)
COc1ccccc1NC(=O)[N-]c1sc2c(c1C([NH-])=O)CCCC2 (3D coordinates assigned)
COc1ccccc1NC(=O)[N-]c1sc2c(c1C([NH-])=O)CCCC2 (nonaromatic ring conformer: 79.07483639051472 kcal/mol)

>  <smiles>  (47) 
COc1ccccc1NC(=O)Nc1sc2c(c1C(N)=O)CCCC2

>  <score_type>  (47) 
oracle

>  <origin>  (47) 
adgpu

>  <m_score__min__energy>  (47) 
-11.91

>  <m_primary>  (47) 
energy

$$$$
47:0
     RDKit          3D

 45 47  0  0  0  0  0  0  0  0999 V2000
    0.2140   26.9820  -26.7880 C   0  0  0  0  0  0  0  0  0  0  0  0
   -0.8410   26.1390  -27.4190 C   0  0  0  0  0  0  0  0  0  0  0  0
   -1.7940   25.4000  -26.7510 C   0  0  0  0  0  0  0  0  0  0  0  0
   -2.5580   24.8740  -27.7700 C   0  0  0  0  0  0  0  0  0  0  0  0
   -3.7250   23.9510  -27.6190 C   0  0  0  0  0  0  0  0  0  0  0  0
   -4.2280   23.4990  -28.9920 C   0  0  0  0  0  0  0  0  0  0  0  0
   -4.6580   24.6910  -29.8420 C   0  0  0  0  0  0  0  0  0  0  0  0
   -4.7210   24.2980  -31.2080 O   0  0  0  0  0  0  0  0  0  0  0  0
   -5.1450   23.0200  -31.5820 C   0  0  0  0  0  0  0  0  0  0  0  0
   -6.5220   22.7380  -31.6520 C   0  0  0  0  0  0  0  0  0  0  0  0
   -7.5350   23.7940  -31.3040 C   0  0  0  0  0  0  0  0  0  0  0  0
   -6.9500   21.4440  -31.9810 C   0  0  0  0  0  0  0  0  0  0  0  0
   -6.0200   20.4330  -32.2680 C   0  0  0  0  0  0  0  0  0  0  0  0
   -6.4790   19.0690  -32.6100 C   0  0  0  0  0  0  0  0  0  0  0  0
   -7.5870   18.4870  -32.1030 N   0  0  0  0  0  0  0  0  0  0  0  0
   -7.6250   17.2840  -32.6520 N   0  0  0  0  0  0  0  0  0  0  0  0
   -6.5900   17.1530  -33.4610 N   0  0  0  0  0  0  0  0  0  0  0  0
   -6.2610   15.9340  -34.1850 C   0  0  0  0  0  0  0  0  0  0  0  0
   -5.8390   18.2390  -33.4580 N   0  0  0  0  0  0  0  0  0  0  0  0
   -4.6490   20.7300  -32.2260 C   0  0  0  0  0  0  0  0  0  0  0  0
   -4.2040   22.0210  -31.9050 C   0  0  0  0  0  0  0  0  0  0  0  0
   -2.7280   22.3020  -31.8660 C   0  0  0  0  0  0  0  0  0  0  0  0
   -2.0790   25.2850  -28.9200 O   0  0  0  0  0  0  0  0  0  0  0  0
   -1.0470   26.0590  -28.7490 N   0  0  0  0  0  0  0  0  0  0  0  0
    0.1305   26.9153  -25.6932 H   0  0  0  0  0  0  0  0  0  0  0  0
    1.2057   26.6247  -27.1026 H   0  0  0  0  0  0  0  0  0  0  0  0
    0.0843   28.0281  -27.1026 H   0  0  0  0  0  0  0  0  0  0  0  0
   -1.9153   25.2632  -25.6663 H   0  0  0  0  0  0  0  0  0  0  0  0
   -3.4172   23.0695  -27.0374 H   0  0  0  0  0  0  0  0  0  0  0  0
   -4.5356   24.4824  -27.0989 H   0  0  0  0  0  0  0  0  0  0  0  0
   -3.4207   22.9611  -29.5106 H   0  0  0  0  0  0  0  0  0  0  0  0
   -5.0991   22.8435  -28.8453 H   0  0  0  0  0  0  0  0  0  0  0  0
   -5.6489   25.0377  -29.5136 H   0  0  0  0  0  0  0  0  0  0  0  0
   -3.9290   25.5067  -29.7272 H   0  0  0  0  0  0  0  0  0  0  0  0
   -7.6158   23.8783  -30.2102 H   0  0  0  0  0  0  0  0  0  0  0  0
   -7.2169   24.7598  -31.7236 H   0  0  0  0  0  0  0  0  0  0  0  0
   -8.5131   23.5163  -31.7236 H   0  0  0  0  0  0  0  0  0  0  0  0
   -8.0262   21.2189  -32.0145 H   0  0  0  0  0  0  0  0  0  0  0  0
   -6.0437   15.1288  -33.4677 H   0  0  0  0  0  0  0  0  0  0  0  0
   -7.1124   15.6419  -34.8172 H   0  0  0  0  0  0  0  0  0  0  0  0
   -5.3782   16.1100  -34.8172 H   0  0  0  0  0  0  0  0  0  0  0  0
   -3.9149   19.9413  -32.4474 H   0  0  0  0  0  0  0  0  0  0  0  0
   -2.3944   22.3655  -30.8197 H   0  0  0  0  0  0  0  0  0  0  0  0
   -2.1867   21.4908  -32.3749 H   0  0  0  0  0  0  0  0  0  0  0  0
   -2.5227   23.2554  -32.3749 H   0  0  0  0  0  0  0  0  0  0  0  0
  1  2  1  0
  2  3  1  0
  3  4  2  0
  4  5  1  0
  5  6  1  0
  6  7  1  0
  7  8  1  0
  8  9  1  0
  9 10  2  0
 10 11  1  0
 10 12  1  0
 12 13  2  0
 13 14  1  0
 14 15  1  0
 15 16  2  0
 16 17  1  0
 17 18  1  0
 17 19  1  0
 13 20  1  0
 20 21  2  0
 21 22  1  0
  4 23  1  0
 23 24  1  0
 24  2  2  0
 21  9  1  0
 19 14  2  0
  1 25  1  0
  1 26  1  0
  1 27  1  0
  3 28  1  0
  5 29  1  0
  5 30  1  0
  6 31  1  0
  6 32  1  0
  7 33  1  0
  7 34  1  0
 11 35  1  0
 11 36  1  0
 11 37  1  0
 12 38  1  0
 18 39  1  0
 18 40  1  0
 18 41  1  0
 20 42  1  0
 22 43  1  0
 22 44  1  0
 22 45  1  0
M  END
>  <UniqueID>  (48) 
46

>  <SMILES>  (48) 
Cc1cc(CCCOc2c(C)cc(-c3nnn(C)n3)cc2C)on1

>  <Energy>  (48) 
112.68522490764731

>  <Genealogy>  (48) 
Cc1cc(CCCOc2c(C)cc(-c3nnn(C)n3)cc2C)on1 (3D coordinates assigned)
Cc1cc(CCCOc2c(C)cc(-c3nnn(C)n3)cc2C)on1 (optimized conformer: 112.68522490764731 kcal/mol)

>  <smiles>  (48) 
Cc1cc(CCCOc2c(C)cc(-c3nnn(C)n3)cc2C)on1

>  <score_type>  (48) 
oracle

>  <origin>  (48) 
adgpu

>  <m_score__min__energy>  (48) 
-9.1899999999999995

>  <m_primary>  (48) 
energy

$$$$
48:0
     RDKit          3D

 44 46  0  0  0  0  0  0  0  0999 V2000
   -1.8090   21.4190  -29.1660 O   0  0  0  0  0  0  0  0  0  0  0  0
   -1.8750   22.6760  -29.2420 C   0  0  0  0  0  0  0  0  0  0  0  0
   -2.3770   23.2960  -30.4320 N   0  0  0  0  0  0  0  0  0  0  0  0
   -3.7560   23.3480  -30.8240 C   0  0  0  0  0  0  0  0  0  0  0  0
   -4.4070   22.1500  -31.1410 C   0  0  0  0  0  0  0  0  0  0  0  0
   -5.7520   22.1500  -31.5340 C   0  0  0  0  0  0  0  0  0  0  0  0
   -6.5470   20.6390  -31.9850 S   0  0  0  0  0  0  0  0  0  0  0  0
   -7.2070   20.8070  -33.3260 O   0  0  0  0  0  0  0  0  0  0  0  0
   -7.6170   20.3220  -30.9780 O   0  0  0  0  0  0  0  0  0  0  0  0
   -5.4080   19.3140  -32.0660 N   0  0  0  0  0  0  0  0  0  0  0  0
   -4.7550   19.2780  -33.3930 C   0  0  0  0  0  0  0  0  0  0  0  0
   -4.0860   17.9250  -33.6490 C   0  0  0  0  0  0  0  0  0  0  0  0
   -5.1240   16.7880  -33.6590 C   0  0  0  0  0  0  0  0  0  0  0  0
   -6.3750   17.1170  -32.8270 C   0  0  0  0  0  0  0  0  0  0  0  0
   -6.0290   18.0330  -31.6440 C   0  0  0  0  0  0  0  0  0  0  0  0
   -6.4580   23.3590  -31.5770 C   0  0  0  0  0  0  0  0  0  0  0  0
   -5.8270   24.5540  -31.2290 C   0  0  0  0  0  0  0  0  0  0  0  0
   -4.4830   24.5550  -30.8400 C   0  0  0  0  0  0  0  0  0  0  0  0
   -3.8970   25.7500  -30.4380 O   0  0  0  0  0  0  0  0  0  0  0  0
   -1.5370   23.5100  -28.0690 C   0  0  0  0  0  0  0  0  0  0  0  0
   -1.3950   22.8860  -26.8150 C   0  0  0  0  0  0  0  0  0  0  0  0
   -1.0120   23.6230  -25.6930 C   0  0  0  0  0  0  0  0  0  0  0  0
   -0.7660   24.9920  -25.8040 C   0  0  0  0  0  0  0  0  0  0  0  0
   -0.9200   25.6300  -27.0360 C   0  0  0  0  0  0  0  0  0  0  0  0
   -1.3220   24.9090  -28.1670 C   0  0  0  0  0  0  0  0  0  0  0  0
   -1.5300   25.6200  -29.3520 O   0  0  0  0  0  0  0  0  0  0  0  0
   -3.8572   21.1991  -31.0810 H   0  0  0  0  0  0  0  0  0  0  0  0
   -5.5132   19.4553  -34.1700 H   0  0  0  0  0  0  0  0  0  0  0  0
   -3.9800   20.0582  -33.4191 H   0  0  0  0  0  0  0  0  0  0  0  0
   -3.5760   17.9547  -34.6232 H   0  0  0  0  0  0  0  0  0  0  0  0
   -3.3644   17.7330  -32.8412 H   0  0  0  0  0  0  0  0  0  0  0  0
   -5.4319   16.6021  -34.6985 H   0  0  0  0  0  0  0  0  0  0  0  0
   -4.6504   15.9027  -33.2097 H   0  0  0  0  0  0  0  0  0  0  0  0
   -7.1106   17.6229  -33.4696 H   0  0  0  0  0  0  0  0  0  0  0  0
   -6.7877   16.1773  -32.4313 H   0  0  0  0  0  0  0  0  0  0  0  0
   -6.9535   18.2566  -31.0914 H   0  0  0  0  0  0  0  0  0  0  0  0
   -5.2962   17.5016  -31.0190 H   0  0  0  0  0  0  0  0  0  0  0  0
   -7.5136   23.3665  -31.8862 H   0  0  0  0  0  0  0  0  0  0  0  0
   -6.3887   25.4993  -31.2606 H   0  0  0  0  0  0  0  0  0  0  0  0
   -1.5877   21.8073  -26.7184 H   0  0  0  0  0  0  0  0  0  0  0  0
   -0.9039   23.1233  -24.7190 H   0  0  0  0  0  0  0  0  0  0  0  0
   -0.4510   25.5680  -24.9214 H   0  0  0  0  0  0  0  0  0  0  0  0
   -0.7237   26.7092  -27.1191 H   0  0  0  0  0  0  0  0  0  0  0  0
   -2.4220   25.6660  -29.8250 H   0  0  0  0  0  0  0  0  0  0  0  0
  1  2  2  0
  2  3  1  0
  3  4  1  0
  4  5  2  0
  5  6  1  0
  6  7  1  0
  7  8  2  0
  7  9  2  0
  7 10  1  0
 10 11  1  0
 11 12  1  0
 12 13  1  0
 13 14  1  0
 14 15  1  0
  6 16  2  0
 16 17  1  0
 17 18  2  0
 18 19  1  0
  2 20  1  0
 20 21  2  0
 21 22  1  0
 22 23  2  0
 23 24  1  0
 24 25  2  0
 25 26  1  0
 18  4  1  0
 25 20  1  0
 15 10  1  0
  5 27  1  0
 11 28  1  0
 11 29  1  0
 12 30  1  0
 12 31  1  0
 13 32  1  0
 13 33  1  0
 14 34  1  0
 14 35  1  0
 15 36  1  0
 15 37  1  0
 16 38  1  0
 17 39  1  0
 21 40  1  0
 22 41  1  0
 23 42  1  0
 24 43  1  0
 26 44  1  0
M  CHG  2   3  -1  19  -1
M  END
>  <UniqueID>  (49) 
47

>  <SMILES>  (49) 
O=C([N-]c1cc(S(=O)(=O)N2CCCCC2)ccc1[O-])c1ccccc1O

>  <Energy>  (49) 
60.86335109120752

>  <Genealogy>  (49) 
O=C([N-]c1cc(S(=O)(=O)N2CCCCC2)ccc1[O-])c1ccccc1O (protonated)
O=C([N-]c1cc(S(=O)(=O)N2CCCCC2)ccc1[O-])c1ccccc1O (3D coordinates assigned)
O=C([N-]c1cc(S(=O)(=O)N2CCCCC2)ccc1[O-])c1ccccc1O (nonaromatic ring conformer: 60.86335109120752 kcal/mol)

>  <smiles>  (49) 
O=C(Nc1cc(S(=O)(=O)N2CCCCC2)ccc1O)c1ccccc1O

>  <score_type>  (49) 
oracle

>  <origin>  (49) 
adgpu

>  <m_score__min__energy>  (49) 
-13.25

>  <m_primary>  (49) 
energy

$$$$
