0:0
     RDKit          3D

 48 50  0  0  0  0  0  0  0  0999 V2000
   -1.9010   25.2830  -29.3470 O   0  0  0  0  0  0  0  0  0  0  0  0
   -2.9360   24.5890  -29.5390 C   0  0  0  0  0  0  0  0  0  0  0  0
   -3.1730   23.3690  -28.7050 C   0  0  0  0  0  0  0  0  0  0  0  0
   -2.9810   22.1020  -29.5440 C   0  0  0  0  0  0  0  0  0  0  0  0
   -2.0560   22.3720  -30.7470 C   0  0  0  0  0  0  0  0  0  0  0  0
   -2.2360   21.4140  -31.8580 N   0  0  0  0  0  0  0  0  0  0  0  0
   -3.0140   21.9270  -33.0120 C   0  0  0  0  0  0  0  0  0  0  0  0
   -4.4760   21.4390  -33.0250 C   0  0  0  0  0  0  0  0  0  0  0  0
   -4.5720   20.0050  -32.7310 N   0  0  0  0  0  0  0  0  0  0  0  0
   -5.8680   19.3930  -32.5980 C   0  0  0  0  0  0  0  0  0  0  0  0
   -6.9910   20.1700  -32.2630 C   0  0  0  0  0  0  0  0  0  0  0  0
   -8.2530   19.5770  -32.1530 C   0  0  0  0  0  0  0  0  0  0  0  0
   -8.4040   18.2070  -32.3770 C   0  0  0  0  0  0  0  0  0  0  0  0
   -7.2940   17.4270  -32.7150 C   0  0  0  0  0  0  0  0  0  0  0  0
   -6.0320   18.0170  -32.8290 C   0  0  0  0  0  0  0  0  0  0  0  0
   -3.3510   19.2520  -32.4370 C   0  0  0  0  0  0  0  0  0  0  0  0
   -2.5310   20.0310  -31.4100 C   0  0  0  0  0  0  0  0  0  0  0  0
   -3.9400   25.0090  -30.4710 N   0  0  0  0  0  0  0  0  0  0  0  0
   -5.2060   24.3740  -30.7080 C   0  0  0  0  0  0  0  0  0  0  0  0
   -5.9320   23.8940  -29.6090 C   0  0  0  0  0  0  0  0  0  0  0  0
   -7.1590   23.2510  -29.7970 C   0  0  0  0  0  0  0  0  0  0  0  0
   -7.6630   23.0680  -31.0870 C   0  0  0  0  0  0  0  0  0  0  0  0
   -8.8520   22.4400  -31.2690 F   0  0  0  0  0  0  0  0  0  0  0  0
   -6.9360   23.5240  -32.1910 C   0  0  0  0  0  0  0  0  0  0  0  0
   -5.7080   24.1680  -32.0060 C   0  0  0  0  0  0  0  0  0  0  0  0
   -2.4612   23.3595  -27.8664 H   0  0  0  0  0  0  0  0  0  0  0  0
   -4.2051   23.3919  -28.3251 H   0  0  0  0  0  0  0  0  0  0  0  0
   -2.5338   21.3182  -28.9150 H   0  0  0  0  0  0  0  0  0  0  0  0
   -3.9624   21.7793  -29.9216 H   0  0  0  0  0  0  0  0  0  0  0  0
   -2.2623   23.3846  -31.1240 H   0  0  0  0  0  0  0  0  0  0  0  0
   -1.0215   22.2614  -30.3899 H   0  0  0  0  0  0  0  0  0  0  0  0
   -3.0129   23.0263  -32.9732 H   0  0  0  0  0  0  0  0  0  0  0  0
   -2.5341   21.5448  -33.9250 H   0  0  0  0  0  0  0  0  0  0  0  0
   -5.0449   21.9972  -32.2669 H   0  0  0  0  0  0  0  0  0  0  0  0
   -4.8860   21.6109  -34.0312 H   0  0  0  0  0  0  0  0  0  0  0  0
   -6.8765   21.2497  -32.0865 H   0  0  0  0  0  0  0  0  0  0  0  0
   -9.1273   20.1904  -31.8898 H   0  0  0  0  0  0  0  0  0  0  0  0
   -9.3965   17.7413  -32.2875 H   0  0  0  0  0  0  0  0  0  0  0  0
   -7.4140   16.3479  -32.8914 H   0  0  0  0  0  0  0  0  0  0  0  0
   -5.1625   17.4006  -33.1011 H   0  0  0  0  0  0  0  0  0  0  0  0
   -3.6140   18.2649  -32.0290 H   0  0  0  0  0  0  0  0  0  0  0  0
   -2.7651   19.1135  -33.3576 H   0  0  0  0  0  0  0  0  0  0  0  0
   -3.0962   20.0773  -30.4675 H   0  0  0  0  0  0  0  0  0  0  0  0
   -1.5723   19.5081  -31.2778 H   0  0  0  0  0  0  0  0  0  0  0  0
   -5.5336   24.0242  -28.5920 H   0  0  0  0  0  0  0  0  0  0  0  0
   -7.7282   22.8888  -28.9282 H   0  0  0  0  0  0  0  0  0  0  0  0
   -7.3305   23.3760  -33.2071 H   0  0  0  0  0  0  0  0  0  0  0  0
   -5.1334   24.5142  -32.8777 H   0  0  0  0  0  0  0  0  0  0  0  0
  1  2  2  0
  2  3  1  0
  3  4  1  0
  4  5  1  0
  5  6  1  0
  6  7  1  0
  7  8  1  0
  8  9  1  0
  9 10  1  0
 10 11  2  0
 11 12  1  0
 12 13  2  0
 13 14  1  0
 14 15  2  0
  9 16  1  0
 16 17  1  0
  2 18  1  0
 18 19  1  0
 19 20  2  0
 20 21  1  0
 21 22  2  0
 22 23  1  0
 22 24  1  0
 24 25  2  0
 17  6  1  0
 25 19  1  0
 15 10  1  0
  3 26  1  0
  3 27  1  0
  4 28  1  0
  4 29  1  0
  5 30  1  0
  5 31  1  0
  7 32  1  0
  7 33  1  0
  8 34  1  0
  8 35  1  0
 11 36  1  0
 12 37  1  0
 13 38  1  0
 14 39  1  0
 15 40  1  0
 16 41  1  0
 16 42  1  0
 17 43  1  0
 17 44  1  0
 20 45  1  0
 21 46  1  0
 24 47  1  0
 25 48  1  0
M  CHG  1  18  -1
M  END
>  <UniqueID>  (1) 
1

>  <SMILES>  (1) 
O=C(CCCN1CCN(c2ccccc2)CC1)[N-]c1ccc(F)cc1

>  <Energy>  (1) 
62.587660224966825

>  <Genealogy>  (1) 
O=C(CCCN1CCN(c2ccccc2)CC1)[N-]c1ccc(F)cc1 (protonated)
O=C(CCCN1CCN(c2ccccc2)CC1)[N-]c1ccc(F)cc1 (3D coordinates assigned)
O=C(CCCN1CCN(c2ccccc2)CC1)[N-]c1ccc(F)cc1 (nonaromatic ring conformer: 62.587660224966825 kcal/mol)

>  <smiles>  (1) 
O=C(CCCN1CCN(c2ccccc2)CC1)Nc1ccc(F)cc1

>  <score_type>  (1) 
oracle

>  <origin>  (1) 
adgpu

>  <m_score__min__energy>  (1) 
-9.9000000000000004

>  <m_primary>  (1) 
energy

$$$$
1:0
     RDKit          3D

 32 35  0  0  0  0  0  0  0  0999 V2000
   -4.5050   17.5840  -35.1390 C   0  0  0  0  0  0  0  0  0  0  0  0
   -5.7380   18.2350  -35.0530 C   0  0  0  0  0  0  0  0  0  0  0  0
   -5.9750   19.1580  -34.0310 C   0  0  0  0  0  0  0  0  0  0  0  0
   -4.9730   19.4470  -33.0860 C   0  0  0  0  0  0  0  0  0  0  0  0
   -5.2310   20.4200  -31.9910 C   0  0  0  0  0  0  0  0  0  0  0  0
   -4.2040   20.8560  -31.3120 N   0  0  0  0  0  0  0  0  0  0  0  0
   -4.2400   21.8190  -30.2210 C   0  0  0  0  0  0  0  0  0  0  0  0
   -4.7740   23.1100  -30.7350 C   0  0  0  0  0  0  0  0  0  0  0  0
   -4.1230   24.2870  -30.6820 N   0  0  0  0  0  0  0  0  0  0  0  0
   -4.9330   25.1910  -31.2190 N   0  0  0  0  0  0  0  0  0  0  0  0
   -6.0600   24.5490  -31.5860 C   0  0  0  0  0  0  0  0  0  0  0  0
   -5.9810   23.2350  -31.3030 N   0  0  0  0  0  0  0  0  0  0  0  0
   -6.9860   22.2160  -31.4490 C   0  0  0  0  0  0  0  0  0  0  0  0
   -8.3400   22.5620  -31.2940 C   0  0  0  0  0  0  0  0  0  0  0  0
   -9.3360   21.5870  -31.3550 C   0  0  0  0  0  0  0  0  0  0  0  0
   -8.9950   20.2530  -31.5650 C   0  0  0  0  0  0  0  0  0  0  0  0
   -7.6590   19.8910  -31.7340 C   0  0  0  0  0  0  0  0  0  0  0  0
   -6.6350   20.8590  -31.6960 C   0  0  0  0  0  0  0  0  0  0  0  0
   -3.7380   18.7770  -33.1760 C   0  0  0  0  0  0  0  0  0  0  0  0
   -3.5070   17.8540  -34.2010 C   0  0  0  0  0  0  0  0  0  0  0  0
   -4.3206   16.8590  -35.9454 H   0  0  0  0  0  0  0  0  0  0  0  0
   -6.5243   18.0205  -35.7917 H   0  0  0  0  0  0  0  0  0  0  0  0
   -6.9506   19.6617  -33.9647 H   0  0  0  0  0  0  0  0  0  0  0  0
   -4.8915   21.4433  -29.4182 H   0  0  0  0  0  0  0  0  0  0  0  0
   -3.2260   21.9677  -29.8214 H   0  0  0  0  0  0  0  0  0  0  0  0
   -6.9289   25.0342  -32.0545 H   0  0  0  0  0  0  0  0  0  0  0  0
   -8.6169   23.6127  -31.1228 H   0  0  0  0  0  0  0  0  0  0  0  0
  -10.3918   21.8721  -31.2371 H   0  0  0  0  0  0  0  0  0  0  0  0
   -9.7807   19.4839  -31.5976 H   0  0  0  0  0  0  0  0  0  0  0  0
   -7.4004   18.8347  -31.8994 H   0  0  0  0  0  0  0  0  0  0  0  0
   -2.9502   18.9807  -32.4358 H   0  0  0  0  0  0  0  0  0  0  0  0
   -2.5369   17.3397  -34.2682 H   0  0  0  0  0  0  0  0  0  0  0  0
  1  2  2  0
  2  3  1  0
  3  4  2  0
  4  5  1  0
  5  6  2  0
  6  7  1  0
  7  8  1  0
  8  9  2  0
  9 10  1  0
 10 11  2  0
 11 12  1  0
 12 13  1  0
 13 14  2  0
 14 15  1  0
 15 16  2  0
 16 17  1  0
 17 18  2  0
  4 19  1  0
 19 20  2  0
 20  1  1  0
 18  5  1  0
 12  8  1  0
 18 13  1  0
  1 21  1  0
  2 22  1  0
  3 23  1  0
  7 24  1  0
  7 25  1  0
 11 26  1  0
 14 27  1  0
 15 28  1  0
 16 29  1  0
 17 30  1  0
 19 31  1  0
 20 32  1  0
M  END
>  <UniqueID>  (2) 
2

>  <SMILES>  (2) 
c1ccc(C2=NCc3nncn3-c3ccccc32)cc1

>  <Energy>  (2) 
86.52708653010886

>  <Genealogy>  (2) 
c1ccc(C2=NCc3nncn3-c3ccccc32)cc1 (3D coordinates assigned)
c1ccc(C2=NCc3nncn3-c3ccccc32)cc1 (nonaromatic ring conformer: 86.52708653010886 kcal/mol)

>  <smiles>  (2) 
c1ccc(C2=NCc3nncn3-c3ccccc32)cc1

>  <score_type>  (2) 
oracle

>  <origin>  (2) 
adgpu

>  <m_score__min__energy>  (2) 
-8.5

>  <m_primary>  (2) 
energy

$$$$
2:0
     RDKit          3D

 27 27  0  0  0  0  0  0  0  0999 V2000
   -4.9590   20.8160  -33.0380 C   0  0  0  0  0  0  0  0  0  0  0  0
   -6.1480   21.3390  -32.3550 N   0  0  0  0  0  0  0  0  0  0  0  0
   -7.3950   20.5660  -32.4090 C   0  0  0  0  0  0  0  0  0  0  0  0
   -6.0910   22.5990  -31.6340 C   0  0  0  0  0  0  0  0  0  0  0  0
   -7.2690   23.2190  -31.1710 C   0  0  0  0  0  0  0  0  0  0  0  0
   -7.2110   24.4300  -30.4780 C   0  0  0  0  0  0  0  0  0  0  0  0
   -5.9830   25.0440  -30.2350 C   0  0  0  0  0  0  0  0  0  0  0  0
   -4.7950   24.4490  -30.6860 C   0  0  0  0  0  0  0  0  0  0  0  0
   -3.5070   25.0400  -30.4590 N   0  0  0  0  0  0  0  0  0  0  0  0
   -2.3610   24.5470  -29.2560 S   0  0  0  0  0  0  0  0  0  0  0  0
   -3.2050   24.0880  -27.7560 C   0  0  0  0  0  0  0  0  0  0  0  0
   -1.5380   23.3980  -29.7680 O   0  0  0  0  0  0  0  0  0  0  0  0
   -1.4460   25.7010  -28.9590 O   0  0  0  0  0  0  0  0  0  0  0  0
   -4.8570   23.2330  -31.3790 C   0  0  0  0  0  0  0  0  0  0  0  0
   -4.2201   20.4910  -32.2907 H   0  0  0  0  0  0  0  0  0  0  0  0
   -5.2445   19.9604  -33.6676 H   0  0  0  0  0  0  0  0  0  0  0  0
   -4.5212   21.6046  -33.6676 H   0  0  0  0  0  0  0  0  0  0  0  0
   -7.7389   20.3528  -31.3861 H   0  0  0  0  0  0  0  0  0  0  0  0
   -8.1634   21.1464  -32.9407 H   0  0  0  0  0  0  0  0  0  0  0  0
   -7.2170   19.6196  -32.9407 H   0  0  0  0  0  0  0  0  0  0  0  0
   -8.2437   22.7443  -31.3573 H   0  0  0  0  0  0  0  0  0  0  0  0
   -8.1387   24.9018  -30.1221 H   0  0  0  0  0  0  0  0  0  0  0  0
   -5.9454   25.9977  -29.6881 H   0  0  0  0  0  0  0  0  0  0  0  0
   -2.6115   24.4108  -26.8879 H   0  0  0  0  0  0  0  0  0  0  0  0
   -4.1914   24.5739  -27.7269 H   0  0  0  0  0  0  0  0  0  0  0  0
   -3.3332   22.9959  -27.7269 H   0  0  0  0  0  0  0  0  0  0  0  0
   -3.9262   22.7640  -31.7307 H   0  0  0  0  0  0  0  0  0  0  0  0
  1  2  1  0
  2  3  1  0
  2  4  1  0
  4  5  2  0
  5  6  1  0
  6  7  2  0
  7  8  1  0
  8  9  1  0
  9 10  1  0
 10 11  1  0
 10 12  2  0
 10 13  2  0
  8 14  2  0
 14  4  1  0
  1 15  1  0
  1 16  1  0
  1 17  1  0
  3 18  1  0
  3 19  1  0
  3 20  1  0
  5 21  1  0
  6 22  1  0
  7 23  1  0
 11 24  1  0
 11 25  1  0
 11 26  1  0
 14 27  1  0
M  CHG  1   9  -1
M  END
>  <UniqueID>  (3) 
3

>  <SMILES>  (3) 
CN(C)c1cccc([N-]S(C)(=O)=O)c1

>  <Energy>  (3) 
25.375966082704213

>  <Genealogy>  (3) 
CN(C)c1cccc([N-]S(C)(=O)=O)c1 (protonated)
CN(C)c1cccc([N-]S(C)(=O)=O)c1 (3D coordinates assigned)
CN(C)c1cccc([N-]S(C)(=O)=O)c1 (optimized conformer: 25.375966082704213 kcal/mol)

>  <smiles>  (3) 
CN(C)c1cccc(NS(C)(=O)=O)c1

>  <score_type>  (3) 
oracle

>  <origin>  (3) 
adgpu

>  <m_score__min__energy>  (3) 
-7.5300000000000002

>  <m_primary>  (3) 
energy

$$$$
3:0
     RDKit          3D

 35 36  0  0  0  0  0  0  0  0999 V2000
   -3.1300   21.7070  -28.6850 C   0  0  0  0  0  0  0  0  0  0  0  0
   -3.2720   22.6680  -27.4950 C   0  0  0  0  0  0  0  0  0  0  0  0
   -4.2150   23.7990  -27.7240 N   0  0  0  0  0  0  0  0  0  0  0  0
   -4.2460   24.7160  -26.5530 C   0  0  0  0  0  0  0  0  0  0  0  0
   -2.8680   25.3050  -26.2290 C   0  0  0  0  0  0  0  0  0  0  0  0
   -3.9360   24.5420  -28.9790 C   0  0  0  0  0  0  0  0  0  0  0  0
   -4.8650   24.1470  -30.0880 C   0  0  0  0  0  0  0  0  0  0  0  0
   -5.0310   24.8490  -31.2250 N   0  0  0  0  0  0  0  0  0  0  0  0
   -5.9100   24.1770  -31.9500 N   0  0  0  0  0  0  0  0  0  0  0  0
   -6.2470   23.0890  -31.2280 C   0  0  0  0  0  0  0  0  0  0  0  0
   -7.2080   22.0580  -31.6680 C   0  0  0  0  0  0  0  0  0  0  0  0
   -6.7430   20.8460  -32.2070 C   0  0  0  0  0  0  0  0  0  0  0  0
   -7.6510   19.8670  -32.6250 C   0  0  0  0  0  0  0  0  0  0  0  0
   -9.0250   20.0900  -32.5100 C   0  0  0  0  0  0  0  0  0  0  0  0
   -9.4950   21.2920  -31.9760 C   0  0  0  0  0  0  0  0  0  0  0  0
   -8.5930   22.2740  -31.5550 C   0  0  0  0  0  0  0  0  0  0  0  0
   -5.6070   23.0660  -30.0830 O   0  0  0  0  0  0  0  0  0  0  0  0
   -2.9787   20.6829  -28.3132 H   0  0  0  0  0  0  0  0  0  0  0  0
   -4.0433   21.7437  -29.2970 H   0  0  0  0  0  0  0  0  0  0  0  0
   -2.2663   22.0063  -29.2970 H   0  0  0  0  0  0  0  0  0  0  0  0
   -3.6300   22.0920  -26.6289 H   0  0  0  0  0  0  0  0  0  0  0  0
   -2.2800   23.1151  -27.3335 H   0  0  0  0  0  0  0  0  0  0  0  0
   -5.1650   23.3650  -27.8180 H   0  0  0  0  0  0  0  0  0  0  0  0
   -4.9398   25.5415  -26.7702 H   0  0  0  0  0  0  0  0  0  0  0  0
   -4.5720   24.1311  -25.6803 H   0  0  0  0  0  0  0  0  0  0  0  0
   -2.7400   25.3597  -25.1378 H   0  0  0  0  0  0  0  0  0  0  0  0
   -2.0847   24.6631  -26.6584 H   0  0  0  0  0  0  0  0  0  0  0  0
   -2.7907   26.3148  -26.6584 H   0  0  0  0  0  0  0  0  0  0  0  0
   -4.0514   25.6189  -28.7865 H   0  0  0  0  0  0  0  0  0  0  0  0
   -2.9104   24.3000  -29.2945 H   0  0  0  0  0  0  0  0  0  0  0  0
   -5.6618   20.6666  -32.3005 H   0  0  0  0  0  0  0  0  0  0  0  0
   -7.2820   18.9197  -33.0451 H   0  0  0  0  0  0  0  0  0  0  0  0
   -9.7369   19.3191  -32.8399 H   0  0  0  0  0  0  0  0  0  0  0  0
  -10.5774   21.4665  -31.8864 H   0  0  0  0  0  0  0  0  0  0  0  0
   -8.9680   23.2186  -31.1340 H   0  0  0  0  0  0  0  0  0  0  0  0
  1  2  1  0
  2  3  1  0
  3  4  1  0
  4  5  1  0
  3  6  1  0
  6  7  1  0
  7  8  2  0
  8  9  1  0
  9 10  2  0
 10 11  1  0
 11 12  2  0
 12 13  1  0
 13 14  2  0
 14 15  1  0
 15 16  2  0
 10 17  1  0
 17  7  1  0
 16 11  1  0
  1 18  1  0
  1 19  1  0
  1 20  1  0
  2 21  1  0
  2 22  1  0
  3 23  1  0
  4 24  1  0
  4 25  1  0
  5 26  1  0
  5 27  1  0
  5 28  1  0
  6 29  1  0
  6 30  1  0
 12 31  1  0
 13 32  1  0
 14 33  1  0
 15 34  1  0
 16 35  1  0
M  CHG  1   3   1
M  END
>  <UniqueID>  (4) 
4

>  <SMILES>  (4) 
CC[NH+](CC)Cc1nnc(-c2ccccc2)o1

>  <Energy>  (4) 
71.10496304412287

>  <Genealogy>  (4) 
CC[NH+](CC)Cc1nnc(-c2ccccc2)o1 (protonated)
CC[NH+](CC)Cc1nnc(-c2ccccc2)o1 (3D coordinates assigned)
CC[NH+](CC)Cc1nnc(-c2ccccc2)o1 (optimized conformer: 71.10496304412287 kcal/mol)

>  <smiles>  (4) 
CCN(CC)Cc1nnc(-c2ccccc2)o1

>  <score_type>  (4) 
oracle

>  <origin>  (4) 
adgpu

>  <m_score__min__energy>  (4) 
-5.4100000000000001

>  <m_primary>  (4) 
energy

$$$$
4:0
     RDKit          3D

 37 38  0  0  0  0  0  0  0  0999 V2000
   -7.0430   18.6850  -32.8150 C   0  0  0  0  0  0  0  0  0  0  0  0
   -7.1110   20.0080  -33.3360 O   0  0  0  0  0  0  0  0  0  0  0  0
   -6.6900   21.1570  -32.6460 C   0  0  0  0  0  0  0  0  0  0  0  0
   -7.5920   21.9790  -31.9450 C   0  0  0  0  0  0  0  0  0  0  0  0
   -7.1360   23.1150  -31.2730 C   0  0  0  0  0  0  0  0  0  0  0  0
   -5.7780   23.4470  -31.2920 C   0  0  0  0  0  0  0  0  0  0  0  0
   -5.2240   24.8960  -30.4590 S   0  0  0  0  0  0  0  0  0  0  0  0
   -5.7260   26.1040  -31.1980 O   0  0  0  0  0  0  0  0  0  0  0  0
   -5.7440   24.9350  -29.0480 O   0  0  0  0  0  0  0  0  0  0  0  0
   -3.4910   24.9290  -30.4240 N   0  0  0  0  0  0  0  0  0  0  0  0
   -2.6710   24.2290  -29.4790 C   0  0  0  0  0  0  0  0  0  0  0  0
   -1.5490   24.8810  -28.9540 C   0  0  0  0  0  0  0  0  0  0  0  0
   -0.7220   24.2370  -28.0300 C   0  0  0  0  0  0  0  0  0  0  0  0
   -1.0070   22.9320  -27.6260 C   0  0  0  0  0  0  0  0  0  0  0  0
   -2.1200   22.2570  -28.1520 C   0  0  0  0  0  0  0  0  0  0  0  0
   -2.4510   20.8650  -27.6990 C   0  0  0  0  0  0  0  0  0  0  0  0
   -2.9600   22.9150  -29.0640 C   0  0  0  0  0  0  0  0  0  0  0  0
   -4.8740   22.6330  -31.9850 C   0  0  0  0  0  0  0  0  0  0  0  0
   -5.3240   21.4850  -32.6660 C   0  0  0  0  0  0  0  0  0  0  0  0
   -4.4480   20.6460  -33.3740 O   0  0  0  0  0  0  0  0  0  0  0  0
   -3.0440   20.5710  -33.1460 C   0  0  0  0  0  0  0  0  0  0  0  0
   -7.0450   18.7233  -31.7157 H   0  0  0  0  0  0  0  0  0  0  0  0
   -7.9127   18.1086  -33.1634 H   0  0  0  0  0  0  0  0  0  0  0  0
   -6.1188   18.2008  -33.1634 H   0  0  0  0  0  0  0  0  0  0  0  0
   -8.6622   21.7252  -31.9263 H   0  0  0  0  0  0  0  0  0  0  0  0
   -7.8479   23.7511  -30.7266 H   0  0  0  0  0  0  0  0  0  0  0  0
   -1.3166   25.9083  -29.2713 H   0  0  0  0  0  0  0  0  0  0  0  0
    0.1551   24.7595  -27.6204 H   0  0  0  0  0  0  0  0  0  0  0  0
   -0.3576   22.4307  -26.8932 H   0  0  0  0  0  0  0  0  0  0  0  0
   -2.4595   20.8295  -26.5996 H   0  0  0  0  0  0  0  0  0  0  0  0
   -3.4419   20.5804  -28.0827 H   0  0  0  0  0  0  0  0  0  0  0  0
   -1.6943   20.1649  -28.0827 H   0  0  0  0  0  0  0  0  0  0  0  0
   -3.8496   22.4009  -29.4569 H   0  0  0  0  0  0  0  0  0  0  0  0
   -3.8049   22.8917  -31.9978 H   0  0  0  0  0  0  0  0  0  0  0  0
   -2.8484   20.5605  -32.0636 H   0  0  0  0  0  0  0  0  0  0  0  0
   -2.6476   19.6504  -33.5992 H   0  0  0  0  0  0  0  0  0  0  0  0
   -2.5518   21.4441  -33.5992 H   0  0  0  0  0  0  0  0  0  0  0  0
  1  2  1  0
  2  3  1  0
  3  4  2  0
  4  5  1  0
  5  6  2  0
  6  7  1  0
  7  8  2  0
  7  9  2  0
  7 10  1  0
 10 11  1  0
 11 12  2  0
 12 13  1  0
 13 14  2  0
 14 15  1  0
 15 16  1  0
 15 17  2  0
  6 18  1  0
 18 19  2  0
 19 20  1  0
 20 21  1  0
 19  3  1  0
 17 11  1  0
  1 22  1  0
  1 23  1  0
  1 24  1  0
  4 25  1  0
  5 26  1  0
 12 27  1  0
 13 28  1  0
 14 29  1  0
 16 30  1  0
 16 31  1  0
 16 32  1  0
 17 33  1  0
 18 34  1  0
 21 35  1  0
 21 36  1  0
 21 37  1  0
M  CHG  1  10  -1
M  END
>  <UniqueID>  (5) 
5

>  <SMILES>  (5) 
COc1ccc(S(=O)(=O)[N-]c2cccc(C)c2)cc1OC

>  <Energy>  (5) 
38.05687006961604

>  <Genealogy>  (5) 
COc1ccc(S(=O)(=O)[N-]c2cccc(C)c2)cc1OC (protonated)
COc1ccc(S(=O)(=O)[N-]c2cccc(C)c2)cc1OC (3D coordinates assigned)
COc1ccc(S(=O)(=O)[N-]c2cccc(C)c2)cc1OC (optimized conformer: 38.05687006961604 kcal/mol)

>  <smiles>  (5) 
COc1ccc(S(=O)(=O)Nc2cccc(C)c2)cc1OC

>  <score_type>  (5) 
oracle

>  <origin>  (5) 
adgpu

>  <m_score__min__energy>  (5) 
-8.1199999999999992

>  <m_primary>  (5) 
energy

$$$$
5:0
     RDKit          3D

 35 37  0  0  0  0  0  0  0  0999 V2000
   -4.2500   25.0930  -30.8510 O   0  0  0  0  0  0  0  0  0  0  0  0
   -4.5390   23.6700  -30.4650 S   0  0  0  0  0  0  0  0  0  0  0  0
   -4.5340   23.5700  -28.9650 O   0  0  0  0  0  0  0  0  0  0  0  0
   -3.3150   22.5950  -31.1270 C   0  0  0  0  0  0  0  0  0  0  0  0
   -2.1230   22.3640  -30.4240 C   0  0  0  0  0  0  0  0  0  0  0  0
   -1.1380   21.5310  -30.9660 C   0  0  0  0  0  0  0  0  0  0  0  0
   -1.3360   20.9320  -32.2130 C   0  0  0  0  0  0  0  0  0  0  0  0
   -2.5180   21.1660  -32.9220 C   0  0  0  0  0  0  0  0  0  0  0  0
   -3.5050   21.9980  -32.3830 C   0  0  0  0  0  0  0  0  0  0  0  0
   -6.1090   23.1990  -31.0810 C   0  0  0  0  0  0  0  0  0  0  0  0
   -6.4600   21.9310  -31.4800 C   0  0  0  0  0  0  0  0  0  0  0  0
   -7.7520   21.9690  -31.8390 N   0  0  0  0  0  0  0  0  0  0  0  0
   -8.5830   20.8340  -32.2320 C   0  0  0  0  0  0  0  0  0  0  0  0
   -7.7090   19.6940  -32.6730 C   0  0  0  0  0  0  0  0  0  0  0  0
   -7.7140   18.4820  -31.9620 C   0  0  0  0  0  0  0  0  0  0  0  0
   -6.8660   17.4370  -32.3460 C   0  0  0  0  0  0  0  0  0  0  0  0
   -6.0020   17.6000  -33.4330 C   0  0  0  0  0  0  0  0  0  0  0  0
   -5.9810   18.8090  -34.1350 C   0  0  0  0  0  0  0  0  0  0  0  0
   -6.8270   19.8550  -33.7540 C   0  0  0  0  0  0  0  0  0  0  0  0
   -8.1580   23.2390  -31.6370 C   0  0  0  0  0  0  0  0  0  0  0  0
   -7.1670   24.0290  -31.1700 N   0  0  0  0  0  0  0  0  0  0  0  0
   -1.9625   22.8387  -29.4448 H   0  0  0  0  0  0  0  0  0  0  0  0
   -0.2068   21.3474  -30.4100 H   0  0  0  0  0  0  0  0  0  0  0  0
   -0.5614   20.2760  -32.6369 H   0  0  0  0  0  0  0  0  0  0  0  0
   -2.6720   20.6956  -33.9043 H   0  0  0  0  0  0  0  0  0  0  0  0
   -4.4321   22.1848  -32.9448 H   0  0  0  0  0  0  0  0  0  0  0  0
   -5.8032   21.0489  -31.5010 H   0  0  0  0  0  0  0  0  0  0  0  0
   -9.1950   20.5152  -31.3754 H   0  0  0  0  0  0  0  0  0  0  0  0
   -9.2380   21.1332  -33.0635 H   0  0  0  0  0  0  0  0  0  0  0  0
   -8.3865   18.3542  -31.1009 H   0  0  0  0  0  0  0  0  0  0  0  0
   -6.8793   16.4867  -31.7922 H   0  0  0  0  0  0  0  0  0  0  0  0
   -5.3384   16.7767  -33.7361 H   0  0  0  0  0  0  0  0  0  0  0  0
   -5.2982   18.9374  -34.9879 H   0  0  0  0  0  0  0  0  0  0  0  0
   -6.8016   20.8078  -34.3031 H   0  0  0  0  0  0  0  0  0  0  0  0
   -9.1816   23.5920  -31.8308 H   0  0  0  0  0  0  0  0  0  0  0  0
  1  2  2  0
  2  3  2  0
  2  4  1  0
  4  5  2  0
  5  6  1  0
  6  7  2  0
  7  8  1  0
  8  9  2  0
  2 10  1  0
 10 11  2  0
 11 12  1  0
 12 13  1  0
 13 14  1  0
 14 15  2  0
 15 16  1  0
 16 17  2  0
 17 18  1  0
 18 19  2  0
 12 20  1  0
 20 21  2  0
  9  4  1  0
 21 10  1  0
 19 14  1  0
  5 22  1  0
  6 23  1  0
  7 24  1  0
  8 25  1  0
  9 26  1  0
 11 27  1  0
 13 28  1  0
 13 29  1  0
 15 30  1  0
 16 31  1  0
 17 32  1  0
 18 33  1  0
 19 34  1  0
 20 35  1  0
M  END
>  <UniqueID>  (6) 
6

>  <SMILES>  (6) 
O=S(=O)(c1ccccc1)c1cn(Cc2ccccc2)cn1

>  <Energy>  (6) 
66.64885490790574

>  <Genealogy>  (6) 
O=S(=O)(c1ccccc1)c1cn(Cc2ccccc2)cn1 (3D coordinates assigned)
O=S(=O)(c1ccccc1)c1cn(Cc2ccccc2)cn1 (optimized conformer: 66.64885490790574 kcal/mol)

>  <smiles>  (6) 
O=S(=O)(c1ccccc1)c1cn(Cc2ccccc2)cn1

>  <score_type>  (6) 
oracle

>  <origin>  (6) 
adgpu

>  <m_score__min__energy>  (6) 
-8.1600000000000001

>  <m_primary>  (6) 
energy

$$$$
6:0
     RDKit          3D

 30 33  0  0  0  0  0  0  0  0999 V2000
   -6.8120   23.9770  -31.6990 O   0  0  0  0  0  0  0  0  0  0  0  0
   -5.7350   23.5250  -31.2250 C   0  0  0  0  0  0  0  0  0  0  0  0
   -5.0440   24.2610  -30.2610 C   0  0  0  0  0  0  0  0  0  0  0  0
   -3.8440   23.7510  -29.7360 C   0  0  0  0  0  0  0  0  0  0  0  0
   -3.0680   24.4790  -28.7170 C   0  0  0  0  0  0  0  0  0  0  0  0
   -3.2340   24.4180  -27.3310 C   0  0  0  0  0  0  0  0  0  0  0  0
   -2.2760   25.2710  -26.8350 C   0  0  0  0  0  0  0  0  0  0  0  0
   -1.9580   25.6240  -25.5250 C   0  0  0  0  0  0  0  0  0  0  0  0
   -0.9080   26.5390  -25.3310 C   0  0  0  0  0  0  0  0  0  0  0  0
   -0.2100   27.0730  -26.4380 C   0  0  0  0  0  0  0  0  0  0  0  0
   -0.5580   26.6970  -27.7490 C   0  0  0  0  0  0  0  0  0  0  0  0
   -1.6030   25.7880  -27.9080 C   0  0  0  0  0  0  0  0  0  0  0  0
   -2.0840   25.3070  -29.0270 O   0  0  0  0  0  0  0  0  0  0  0  0
   -3.3840   22.5760  -30.1620 O   0  0  0  0  0  0  0  0  0  0  0  0
   -4.0080   21.8420  -31.0770 C   0  0  0  0  0  0  0  0  0  0  0  0
   -3.4610   20.6170  -31.4740 C   0  0  0  0  0  0  0  0  0  0  0  0
   -4.1090   19.8360  -32.4350 C   0  0  0  0  0  0  0  0  0  0  0  0
   -5.3070   20.2750  -33.0060 C   0  0  0  0  0  0  0  0  0  0  0  0
   -6.1150   19.2890  -34.2120 Cl  0  0  0  0  0  0  0  0  0  0  0  0
   -5.8650   21.4990  -32.6160 C   0  0  0  0  0  0  0  0  0  0  0  0
   -5.2190   22.2900  -31.6490 C   0  0  0  0  0  0  0  0  0  0  0  0
   -5.4344   25.2298  -29.9159 H   0  0  0  0  0  0  0  0  0  0  0  0
   -3.9653   23.8225  -26.7648 H   0  0  0  0  0  0  0  0  0  0  0  0
   -2.5093   25.2015  -24.6721 H   0  0  0  0  0  0  0  0  0  0  0  0
   -0.6280   26.8412  -24.3110 H   0  0  0  0  0  0  0  0  0  0  0  0
    0.6105   27.7871  -26.2739 H   0  0  0  0  0  0  0  0  0  0  0  0
   -0.0234   27.1066  -28.6188 H   0  0  0  0  0  0  0  0  0  0  0  0
   -2.5180   20.2675  -31.0284 H   0  0  0  0  0  0  0  0  0  0  0  0
   -3.6751   18.8732  -32.7429 H   0  0  0  0  0  0  0  0  0  0  0  0
   -6.8085   21.8416  -33.0660 H   0  0  0  0  0  0  0  0  0  0  0  0
  1  2  2  0
  2  3  1  0
  3  4  2  0
  4  5  1  0
  5  6  2  0
  6  7  1  0
  7  8  2  0
  8  9  1  0
  9 10  2  0
 10 11  1  0
 11 12  2  0
 12 13  1  0
  4 14  1  0
 14 15  1  0
 15 16  2  0
 16 17  1  0
 17 18  2  0
 18 19  1  0
 18 20  1  0
 20 21  2  0
 21  2  1  0
 13  5  1  0
 21 15  1  0
 12  7  1  0
  3 22  1  0
  6 23  1  0
  8 24  1  0
  9 25  1  0
 10 26  1  0
 11 27  1  0
 16 28  1  0
 17 29  1  0
 20 30  1  0
M  END
>  <UniqueID>  (7) 
7

>  <SMILES>  (7) 
O=c1cc(-c2cc3ccccc3o2)oc2ccc(Cl)cc12

>  <Energy>  (7) 
74.10313822568607

>  <Genealogy>  (7) 
O=c1cc(-c2cc3ccccc3o2)oc2ccc(Cl)cc12 (3D coordinates assigned)
O=c1cc(-c2cc3ccccc3o2)oc2ccc(Cl)cc12 (optimized conformer: 74.10313822568607 kcal/mol)

>  <smiles>  (7) 
O=c1cc(-c2cc3ccccc3o2)oc2ccc(Cl)cc12

>  <score_type>  (7) 
oracle

>  <origin>  (7) 
adgpu

>  <m_score__min__energy>  (7) 
-7.4299999999999997

>  <m_primary>  (7) 
energy

$$$$
7:0
     RDKit          3D

 35 36  0  0  0  0  0  0  0  0999 V2000
   -8.4630   20.4640  -32.3920 C   0  0  0  0  0  0  0  0  0  0  0  0
   -7.6780   21.6100  -31.8250 C   0  0  0  0  0  0  0  0  0  0  0  0
   -6.6080   22.1630  -32.5480 C   0  0  0  0  0  0  0  0  0  0  0  0
   -5.8540   23.2080  -32.0040 C   0  0  0  0  0  0  0  0  0  0  0  0
   -6.1490   23.6950  -30.7220 C   0  0  0  0  0  0  0  0  0  0  0  0
   -5.1910   24.9990  -30.0250 S   0  0  0  0  0  0  0  0  0  0  0  0
   -5.3020   24.9150  -28.5310 O   0  0  0  0  0  0  0  0  0  0  0  0
   -5.7040   26.3370  -30.4780 O   0  0  0  0  0  0  0  0  0  0  0  0
   -3.5230   24.8360  -30.4710 N   0  0  0  0  0  0  0  0  0  0  0  0
   -2.5850   23.9400  -29.8620 C   0  0  0  0  0  0  0  0  0  0  0  0
   -2.2980   22.6670  -30.3110 C   0  0  0  0  0  0  0  0  0  0  0  0
   -2.8470   22.0170  -31.5370 C   0  0  0  0  0  0  0  0  0  0  0  0
   -1.3280   22.1290  -29.5470 N   0  0  0  0  0  0  0  0  0  0  0  0
   -1.0220   23.0120  -28.6060 N   0  0  0  0  0  0  0  0  0  0  0  0
   -0.0140   22.7650  -27.5800 C   0  0  0  0  0  0  0  0  0  0  0  0
   -1.7760   24.1270  -28.7520 C   0  0  0  0  0  0  0  0  0  0  0  0
   -1.7330   25.3140  -27.8390 C   0  0  0  0  0  0  0  0  0  0  0  0
   -7.2150   23.1420  -29.9970 C   0  0  0  0  0  0  0  0  0  0  0  0
   -7.9690   22.0980  -30.5430 C   0  0  0  0  0  0  0  0  0  0  0  0
   -8.8763   19.8606  -31.5704 H   0  0  0  0  0  0  0  0  0  0  0  0
   -9.2851   20.8532  -33.0107 H   0  0  0  0  0  0  0  0  0  0  0  0
   -7.8031   19.8380  -33.0107 H   0  0  0  0  0  0  0  0  0  0  0  0
   -6.3620   21.7724  -33.5465 H   0  0  0  0  0  0  0  0  0  0  0  0
   -5.0285   23.6486  -32.5823 H   0  0  0  0  0  0  0  0  0  0  0  0
   -3.5317   21.2064  -31.2469 H   0  0  0  0  0  0  0  0  0  0  0  0
   -3.3932   22.7623  -32.1339 H   0  0  0  0  0  0  0  0  0  0  0  0
   -2.0209   21.6032  -32.1339 H   0  0  0  0  0  0  0  0  0  0  0  0
   -0.4689   22.8765  -26.5847 H   0  0  0  0  0  0  0  0  0  0  0  0
    0.3796   21.7438  -27.6910 H   0  0  0  0  0  0  0  0  0  0  0  0
    0.8071   23.4885  -27.6910 H   0  0  0  0  0  0  0  0  0  0  0  0
   -1.7454   24.9729  -26.7933 H   0  0  0  0  0  0  0  0  0  0  0  0
   -0.8135   25.8878  -28.0267 H   0  0  0  0  0  0  0  0  0  0  0  0
   -2.6086   25.9528  -28.0267 H   0  0  0  0  0  0  0  0  0  0  0  0
   -7.4585   23.5302  -28.9970 H   0  0  0  0  0  0  0  0  0  0  0  0
   -8.7941   21.6577  -29.9640 H   0  0  0  0  0  0  0  0  0  0  0  0
  1  2  1  0
  2  3  2  0
  3  4  1  0
  4  5  2  0
  5  6  1  0
  6  7  2  0
  6  8  2  0
  6  9  1  0
  9 10  1  0
 10 11  1  0
 11 12  1  0
 11 13  2  0
 13 14  1  0
 14 15  1  0
 14 16  1  0
 16 17  1  0
  5 18  1  0
 18 19  2  0
 19  2  1  0
 16 10  2  0
  1 20  1  0
  1 21  1  0
  1 22  1  0
  3 23  1  0
  4 24  1  0
 12 25  1  0
 12 26  1  0
 12 27  1  0
 15 28  1  0
 15 29  1  0
 15 30  1  0
 17 31  1  0
 17 32  1  0
 17 33  1  0
 18 34  1  0
 19 35  1  0
M  CHG  1   9  -1
M  END
>  <UniqueID>  (8) 
8

>  <SMILES>  (8) 
Cc1ccc(S(=O)(=O)[N-]c2c(C)nn(C)c2C)cc1

>  <Energy>  (8) 
68.84899790153706

>  <Genealogy>  (8) 
Cc1ccc(S(=O)(=O)[N-]c2c(C)nn(C)c2C)cc1 (protonated)
Cc1ccc(S(=O)(=O)[N-]c2c(C)nn(C)c2C)cc1 (3D coordinates assigned)
Cc1ccc(S(=O)(=O)[N-]c2c(C)nn(C)c2C)cc1 (optimized conformer: 68.84899790153706 kcal/mol)

>  <smiles>  (8) 
Cc1ccc(S(=O)(=O)Nc2c(C)nn(C)c2C)cc1

>  <score_type>  (8) 
oracle

>  <origin>  (8) 
adgpu

>  <m_score__min__energy>  (8) 
-8.3100000000000005

>  <m_primary>  (8) 
energy

$$$$
8:0
     RDKit          3D

 21 21  0  0  0  0  0  0  0  0999 V2000
    0.7120   25.5410  -27.0960 C   0  0  0  0  0  0  0  0  0  0  0  0
    0.4640   24.6030  -28.1380 O   0  0  0  0  0  0  0  0  0  0  0  0
   -0.6870   23.8040  -28.2290 C   0  0  0  0  0  0  0  0  0  0  0  0
   -0.7330   22.4930  -27.7170 C   0  0  0  0  0  0  0  0  0  0  0  0
   -1.9020   21.7370  -27.8220 C   0  0  0  0  0  0  0  0  0  0  0  0
   -1.9560   19.9630  -27.1140 Br  0  0  0  0  0  0  0  0  0  0  0  0
   -3.0330   22.2740  -28.4410 C   0  0  0  0  0  0  0  0  0  0  0  0
   -3.0010   23.5740  -28.9710 C   0  0  0  0  0  0  0  0  0  0  0  0
   -4.2370   24.1520  -29.6080 C   0  0  0  0  0  0  0  0  0  0  0  0
   -3.8750   25.2760  -30.4660 N   0  0  0  0  0  0  0  0  0  0  0  0
   -1.8250   24.3400  -28.8490 C   0  0  0  0  0  0  0  0  0  0  0  0
   -1.7850   25.6410  -29.3430 O   0  0  0  0  0  0  0  0  0  0  0  0
    0.5819   25.0488  -26.1209 H   0  0  0  0  0  0  0  0  0  0  0  0
    1.7412   25.9199  -27.1810 H   0  0  0  0  0  0  0  0  0  0  0  0
    0.0046   26.3790  -27.1810 H   0  0  0  0  0  0  0  0  0  0  0  0
    0.1558   22.0628  -27.2323 H   0  0  0  0  0  0  0  0  0  0  0  0
   -3.9532   21.6757  -28.5137 H   0  0  0  0  0  0  0  0  0  0  0  0
   -4.7325   23.3773  -30.2116 H   0  0  0  0  0  0  0  0  0  0  0  0
   -4.9197   24.5032  -28.8202 H   0  0  0  0  0  0  0  0  0  0  0  0
   -3.5370   26.0500  -29.8500 H   0  0  0  0  0  0  0  0  0  0  0  0
   -3.0600   24.9870  -31.0560 H   0  0  0  0  0  0  0  0  0  0  0  0
  1  2  1  0
  2  3  1  0
  3  4  2  0
  4  5  1  0
  5  6  1  0
  5  7  2  0
  7  8  1  0
  8  9  1  0
  9 10  1  0
  8 11  2  0
 11 12  1  0
 11  3  1  0
  1 13  1  0
  1 14  1  0
  1 15  1  0
  4 16  1  0
  7 17  1  0
  9 18  1  0
  9 19  1  0
 10 20  1  0
 10 21  1  0
M  CHG  1  12  -1
M  END
>  <UniqueID>  (9) 
9

>  <SMILES>  (9) 
COc1cc(Br)cc(CN)c1[O-]

>  <Energy>  (9) 
17.518714219010462

>  <Genealogy>  (9) 
COc1cc(Br)cc(CN)c1[O-] (protonated)
COc1cc(Br)cc(CN)c1[O-] (3D coordinates assigned)
COc1cc(Br)cc(CN)c1[O-] (optimized conformer: 17.518714219010462 kcal/mol)

>  <smiles>  (9) 
COc1cc(Br)cc(CN)c1O

>  <score_type>  (9) 
oracle

>  <origin>  (9) 
adgpu

>  <m_score__min__energy>  (9) 
-8.8300000000000001

>  <m_primary>  (9) 
energy

$$$$
9:0
     RDKit          3D

 26 27  0  0  0  0  0  0  0  0999 V2000
   -1.1310   26.1720  -29.0980 N   0  0  0  0  0  0  0  0  0  0  0  0
   -1.4180   24.7950  -28.8200 C   0  0  0  0  0  0  0  0  0  0  0  0
   -0.5530   24.0700  -27.9860 C   0  0  0  0  0  0  0  0  0  0  0  0
   -0.8230   22.7370  -27.6710 C   0  0  0  0  0  0  0  0  0  0  0  0
   -1.9580   22.1120  -28.1900 C   0  0  0  0  0  0  0  0  0  0  0  0
   -2.2900   20.4330  -27.8000 Cl  0  0  0  0  0  0  0  0  0  0  0  0
   -2.8240   22.8190  -29.0260 C   0  0  0  0  0  0  0  0  0  0  0  0
   -2.5710   24.1670  -29.3420 C   0  0  0  0  0  0  0  0  0  0  0  0
   -3.4430   24.8670  -30.2470 N   0  0  0  0  0  0  0  0  0  0  0  0
   -4.8020   24.4740  -30.5150 C   0  0  0  0  0  0  0  0  0  0  0  0
   -5.8860   25.0970  -29.8680 C   0  0  0  0  0  0  0  0  0  0  0  0
   -7.1980   24.7110  -30.1610 C   0  0  0  0  0  0  0  0  0  0  0  0
   -7.4400   23.7130  -31.1070 C   0  0  0  0  0  0  0  0  0  0  0  0
   -6.3710   23.1020  -31.7680 C   0  0  0  0  0  0  0  0  0  0  0  0
   -5.0570   23.4850  -31.4770 C   0  0  0  0  0  0  0  0  0  0  0  0
   -0.7900   26.8250  -28.3590 H   0  0  0  0  0  0  0  0  0  0  0  0
   -1.2140   26.5450  -30.0700 H   0  0  0  0  0  0  0  0  0  0  0  0
    0.3451   24.5560  -27.5771 H   0  0  0  0  0  0  0  0  0  0  0  0
   -0.1406   22.1787  -27.0132 H   0  0  0  0  0  0  0  0  0  0  0  0
   -3.7113   22.3186  -29.4411 H   0  0  0  0  0  0  0  0  0  0  0  0
   -3.0470   25.6720  -30.7810 H   0  0  0  0  0  0  0  0  0  0  0  0
   -5.7004   25.8905  -29.1291 H   0  0  0  0  0  0  0  0  0  0  0  0
   -8.0407   25.1945  -29.6452 H   0  0  0  0  0  0  0  0  0  0  0  0
   -8.4725   23.4076  -31.3321 H   0  0  0  0  0  0  0  0  0  0  0  0
   -6.5626   22.3198  -32.5173 H   0  0  0  0  0  0  0  0  0  0  0  0
   -4.2187   23.0077  -32.0057 H   0  0  0  0  0  0  0  0  0  0  0  0
  1  2  1  0
  2  3  2  0
  3  4  1  0
  4  5  2  0
  5  6  1  0
  5  7  1  0
  7  8  2  0
  8  9  1  0
  9 10  1  0
 10 11  2  0
 11 12  1  0
 12 13  2  0
 13 14  1  0
 14 15  2  0
  8  2  1  0
 15 10  1  0
  1 16  1  0
  1 17  1  0
  3 18  1  0
  4 19  1  0
  7 20  1  0
  9 21  1  0
 11 22  1  0
 12 23  1  0
 13 24  1  0
 14 25  1  0
 15 26  1  0
M  END
>  <UniqueID>  (10) 
10

>  <SMILES>  (10) 
Nc1ccc(Cl)cc1Nc1ccccc1

>  <Energy>  (10) 
32.629435368397075

>  <Genealogy>  (10) 
Nc1ccc(Cl)cc1Nc1ccccc1 (3D coordinates assigned)
Nc1ccc(Cl)cc1Nc1ccccc1 (optimized conformer: 32.629435368397075 kcal/mol)

>  <smiles>  (10) 
Nc1ccc(Cl)cc1Nc1ccccc1

>  <score_type>  (10) 
oracle

>  <origin>  (10) 
adgpu

>  <m_score__min__energy>  (10) 
-6.8600000000000003

>  <m_primary>  (10) 
energy

$$$$
10:0
     RDKit          3D

 40 42  0  0  0  0  0  0  0  0999 V2000
   -0.8720   26.3910  -23.7140 C   0  0  0  0  0  0  0  0  0  0  0  0
   -0.6750   27.1120  -25.0440 C   0  0  0  0  0  0  0  0  0  0  0  0
   -1.2680   26.3110  -26.1750 C   0  0  0  0  0  0  0  0  0  0  0  0
   -2.3630   25.4610  -25.9400 C   0  0  0  0  0  0  0  0  0  0  0  0
   -2.9180   24.7260  -26.9950 C   0  0  0  0  0  0  0  0  0  0  0  0
   -2.3600   24.7980  -28.2880 C   0  0  0  0  0  0  0  0  0  0  0  0
   -2.9290   24.0990  -29.4030 N   0  0  0  0  0  0  0  0  0  0  0  0
   -4.0040   24.5380  -30.2450 C   0  0  0  0  0  0  0  0  0  0  0  0
   -3.9460   25.6440  -30.8470 O   0  0  0  0  0  0  0  0  0  0  0  0
   -5.2590   23.7280  -30.3190 C   0  0  0  0  0  0  0  0  0  0  0  0
   -5.2400   22.6660  -31.8040 S   0  0  0  0  0  0  0  0  0  0  0  0
   -7.0410   22.6050  -31.9790 C   0  0  0  0  0  0  0  0  0  0  0  0
   -7.8390   23.6540  -31.7020 N   0  0  0  0  0  0  0  0  0  0  0  0
   -9.0720   23.2130  -31.8950 N   0  0  0  0  0  0  0  0  0  0  0  0
   -9.0450   21.9430  -32.2720 N   0  0  0  0  0  0  0  0  0  0  0  0
   -7.7840   21.5400  -32.3420 N   0  0  0  0  0  0  0  0  0  0  0  0
   -7.3920   20.2010  -32.6960 C   0  0  0  0  0  0  0  0  0  0  0  0
   -6.4650   20.0080  -33.7430 C   0  0  0  0  0  0  0  0  0  0  0  0
   -6.0460   18.7190  -34.0870 C   0  0  0  0  0  0  0  0  0  0  0  0
   -6.5410   17.6080  -33.3820 C   0  0  0  0  0  0  0  0  0  0  0  0
   -6.0250   15.9830  -33.8230 Cl  0  0  0  0  0  0  0  0  0  0  0  0
   -7.4440   17.7920  -32.3250 C   0  0  0  0  0  0  0  0  0  0  0  0
   -7.8580   19.0820  -31.9740 C   0  0  0  0  0  0  0  0  0  0  0  0
   -1.2600   25.6390  -28.5140 C   0  0  0  0  0  0  0  0  0  0  0  0
   -0.7110   26.3820  -27.4620 C   0  0  0  0  0  0  0  0  0  0  0  0
   -0.6811   27.0899  -22.8863 H   0  0  0  0  0  0  0  0  0  0  0  0
   -1.9049   26.0184  -23.6484 H   0  0  0  0  0  0  0  0  0  0  0  0
   -0.1721   25.5449  -23.6484 H   0  0  0  0  0  0  0  0  0  0  0  0
   -1.1682   28.0942  -24.9992 H   0  0  0  0  0  0  0  0  0  0  0  0
    0.4031   27.2353  -25.2241 H   0  0  0  0  0  0  0  0  0  0  0  0
   -2.7838   25.3733  -24.9275 H   0  0  0  0  0  0  0  0  0  0  0  0
   -3.7955   24.0879  -26.8137 H   0  0  0  0  0  0  0  0  0  0  0  0
   -5.3367   23.0962  -29.4219 H   0  0  0  0  0  0  0  0  0  0  0  0
   -6.1215   24.4083  -30.3762 H   0  0  0  0  0  0  0  0  0  0  0  0
   -6.0702   20.8761  -34.2911 H   0  0  0  0  0  0  0  0  0  0  0  0
   -5.3294   18.5744  -34.9089 H   0  0  0  0  0  0  0  0  0  0  0  0
   -7.8271   16.9220  -31.7715 H   0  0  0  0  0  0  0  0  0  0  0  0
   -8.5502   19.2242  -31.1310 H   0  0  0  0  0  0  0  0  0  0  0  0
   -0.8269   25.7150  -29.5223 H   0  0  0  0  0  0  0  0  0  0  0  0
    0.1622   27.0255  -27.6448 H   0  0  0  0  0  0  0  0  0  0  0  0
  1  2  1  0
  2  3  1  0
  3  4  2  0
  4  5  1  0
  5  6  2  0
  6  7  1  0
  7  8  1  0
  8  9  2  0
  8 10  1  0
 10 11  1  0
 11 12  1  0
 12 13  2  0
 13 14  1  0
 14 15  2  0
 15 16  1  0
 16 17  1  0
 17 18  2  0
 18 19  1  0
 19 20  2  0
 20 21  1  0
 20 22  1  0
 22 23  2  0
  6 24  1  0
 24 25  2  0
 25  3  1  0
 16 12  1  0
 23 17  1  0
  1 26  1  0
  1 27  1  0
  1 28  1  0
  2 29  1  0
  2 30  1  0
  4 31  1  0
  5 32  1  0
 10 33  1  0
 10 34  1  0
 18 35  1  0
 19 36  1  0
 22 37  1  0
 23 38  1  0
 24 39  1  0
 25 40  1  0
M  CHG  1   7  -1
M  END
>  <UniqueID>  (11) 
11

>  <SMILES>  (11) 
CCc1ccc([N-]C(=O)CSc2nnnn2-c2ccc(Cl)cc2)cc1

>  <Energy>  (11) 
79.47978211189361

>  <Genealogy>  (11) 
CCc1ccc([N-]C(=O)CSc2nnnn2-c2ccc(Cl)cc2)cc1 (protonated)
CCc1ccc([N-]C(=O)CSc2nnnn2-c2ccc(Cl)cc2)cc1 (3D coordinates assigned)
CCc1ccc([N-]C(=O)CSc2nnnn2-c2ccc(Cl)cc2)cc1 (optimized conformer: 79.47978211189361 kcal/mol)

>  <smiles>  (11) 
CCc1ccc(NC(=O)CSc2nnnn2-c2ccc(Cl)cc2)cc1

>  <score_type>  (11) 
oracle

>  <origin>  (11) 
adgpu

>  <m_score__min__energy>  (11) 
-11.4

>  <m_primary>  (11) 
energy

$$$$
11:0
     RDKit          3D

 34 36  0  0  0  0  0  0  0  0999 V2000
   -3.8720   25.2990  -30.4930 O   0  0  0  0  0  0  0  0  0  0  0  0
   -4.6680   24.3640  -30.7830 C   0  0  0  0  0  0  0  0  0  0  0  0
   -6.0370   24.6180  -30.8280 C   0  0  0  0  0  0  0  0  0  0  0  0
   -6.9170   23.5850  -31.1360 C   0  0  0  0  0  0  0  0  0  0  0  0
   -6.4080   22.3070  -31.3980 C   0  0  0  0  0  0  0  0  0  0  0  0
   -7.2920   21.1550  -31.7100 C   0  0  0  0  0  0  0  0  0  0  0  0
   -8.6660   21.3320  -31.9700 C   0  0  0  0  0  0  0  0  0  0  0  0
   -9.4780   20.2330  -32.2700 C   0  0  0  0  0  0  0  0  0  0  0  0
   -8.9310   18.9490  -32.3160 C   0  0  0  0  0  0  0  0  0  0  0  0
   -7.5690   18.7610  -32.0710 C   0  0  0  0  0  0  0  0  0  0  0  0
   -6.7530   19.8560  -31.7730 C   0  0  0  0  0  0  0  0  0  0  0  0
   -5.0610   22.1160  -31.3350 N   0  0  0  0  0  0  0  0  0  0  0  0
   -4.2050   23.1020  -31.0470 N   0  0  0  0  0  0  0  0  0  0  0  0
   -2.7790   22.7730  -30.9670 C   0  0  0  0  0  0  0  0  0  0  0  0
   -2.3700   22.5990  -29.5270 C   0  0  0  0  0  0  0  0  0  0  0  0
   -2.5280   21.3470  -28.9080 C   0  0  0  0  0  0  0  0  0  0  0  0
   -2.1890   21.1750  -27.5620 C   0  0  0  0  0  0  0  0  0  0  0  0
   -2.3910   19.6090  -26.8000 Cl  0  0  0  0  0  0  0  0  0  0  0  0
   -1.6940   22.2540  -26.8220 C   0  0  0  0  0  0  0  0  0  0  0  0
   -1.5410   23.5040  -27.4280 C   0  0  0  0  0  0  0  0  0  0  0  0
   -1.8790   23.6820  -28.7730 C   0  0  0  0  0  0  0  0  0  0  0  0
   -1.7250   24.9080  -29.3360 F   0  0  0  0  0  0  0  0  0  0  0  0
   -6.4198   25.6284  -30.6214 H   0  0  0  0  0  0  0  0  0  0  0  0
   -8.0006   23.7703  -31.1733 H   0  0  0  0  0  0  0  0  0  0  0  0
   -9.1027   22.3410  -31.9368 H   0  0  0  0  0  0  0  0  0  0  0  0
  -10.5495   20.3806  -32.4701 H   0  0  0  0  0  0  0  0  0  0  0  0
   -9.5729   18.0856  -32.5452 H   0  0  0  0  0  0  0  0  0  0  0  0
   -7.1379   17.7499  -32.1126 H   0  0  0  0  0  0  0  0  0  0  0  0
   -5.6801   19.7014  -31.5860 H   0  0  0  0  0  0  0  0  0  0  0  0
   -2.5896   21.8382  -31.5150 H   0  0  0  0  0  0  0  0  0  0  0  0
   -2.1942   23.5915  -31.4120 H   0  0  0  0  0  0  0  0  0  0  0  0
   -2.9207   20.4973  -29.4857 H   0  0  0  0  0  0  0  0  0  0  0  0
   -1.4254   22.1187  -25.7639 H   0  0  0  0  0  0  0  0  0  0  0  0
   -1.1529   24.3517  -26.8442 H   0  0  0  0  0  0  0  0  0  0  0  0
  1  2  2  0
  2  3  1  0
  3  4  2  0
  4  5  1  0
  5  6  1  0
  6  7  2  0
  7  8  1  0
  8  9  2  0
  9 10  1  0
 10 11  2  0
  5 12  2  0
 12 13  1  0
 13 14  1  0
 14 15  1  0
 15 16  2  0
 16 17  1  0
 17 18  1  0
 17 19  2  0
 19 20  1  0
 20 21  2  0
 21 22  1  0
 13  2  1  0
 21 15  1  0
 11  6  1  0
  3 23  1  0
  4 24  1  0
  7 25  1  0
  8 26  1  0
  9 27  1  0
 10 28  1  0
 11 29  1  0
 14 30  1  0
 14 31  1  0
 16 32  1  0
 19 33  1  0
 20 34  1  0
M  END
>  <UniqueID>  (12) 
12

>  <SMILES>  (12) 
O=c1ccc(-c2ccccc2)nn1Cc1cc(Cl)ccc1F

>  <Energy>  (12) 
41.67940153209454

>  <Genealogy>  (12) 
O=c1ccc(-c2ccccc2)nn1Cc1cc(Cl)ccc1F (3D coordinates assigned)
O=c1ccc(-c2ccccc2)nn1Cc1cc(Cl)ccc1F (optimized conformer: 41.67940153209454 kcal/mol)

>  <smiles>  (12) 
O=c1ccc(-c2ccccc2)nn1Cc1cc(Cl)ccc1F

>  <score_type>  (12) 
oracle

>  <origin>  (12) 
adgpu

>  <m_score__min__energy>  (12) 
-9.0399999999999991

>  <m_primary>  (12) 
energy

$$$$
12:0
     RDKit          3D

 35 36  0  0  0  0  0  0  0  0999 V2000
   -8.4150   18.9960  -32.2000 C   0  0  0  0  0  0  0  0  0  0  0  0
   -7.7950   20.1400  -32.7760 O   0  0  0  0  0  0  0  0  0  0  0  0
   -7.3460   21.2500  -32.0440 C   0  0  0  0  0  0  0  0  0  0  0  0
   -8.0240   21.5890  -30.8680 C   0  0  0  0  0  0  0  0  0  0  0  0
   -7.6150   22.6850  -30.1020 C   0  0  0  0  0  0  0  0  0  0  0  0
   -6.5200   23.4640  -30.5090 C   0  0  0  0  0  0  0  0  0  0  0  0
   -6.0580   24.6280  -29.6710 C   0  0  0  0  0  0  0  0  0  0  0  0
   -5.2470   25.6340  -30.4970 C   0  0  0  0  0  0  0  0  0  0  0  0
   -3.8610   25.1980  -30.6730 N   0  0  0  0  0  0  0  0  0  0  0  0
   -3.0150   24.6420  -29.6580 C   0  0  0  0  0  0  0  0  0  0  0  0
   -2.2960   25.4200  -28.9780 O   0  0  0  0  0  0  0  0  0  0  0  0
   -2.9410   23.1920  -29.4010 C   0  0  0  0  0  0  0  0  0  0  0  0
   -2.6800   22.2880  -30.4440 C   0  0  0  0  0  0  0  0  0  0  0  0
   -2.6210   20.9150  -30.1880 C   0  0  0  0  0  0  0  0  0  0  0  0
   -2.8340   20.4330  -28.8940 C   0  0  0  0  0  0  0  0  0  0  0  0
   -3.1160   21.3250  -27.8550 C   0  0  0  0  0  0  0  0  0  0  0  0
   -3.1770   22.6980  -28.1070 C   0  0  0  0  0  0  0  0  0  0  0  0
   -5.8330   23.1220  -31.6840 C   0  0  0  0  0  0  0  0  0  0  0  0
   -6.2430   22.0260  -32.4490 C   0  0  0  0  0  0  0  0  0  0  0  0
   -8.3747   19.0703  -31.1033 H   0  0  0  0  0  0  0  0  0  0  0  0
   -9.4644   18.9446  -32.5257 H   0  0  0  0  0  0  0  0  0  0  0  0
   -7.8851   18.0887  -32.5257 H   0  0  0  0  0  0  0  0  0  0  0  0
   -8.8863   20.9881  -30.5432 H   0  0  0  0  0  0  0  0  0  0  0  0
   -8.1533   22.9380  -29.1767 H   0  0  0  0  0  0  0  0  0  0  0  0
   -6.9383   25.1377  -29.2524 H   0  0  0  0  0  0  0  0  0  0  0  0
   -5.4105   24.2395  -28.8711 H   0  0  0  0  0  0  0  0  0  0  0  0
   -5.7150   25.7421  -31.4866 H   0  0  0  0  0  0  0  0  0  0  0  0
   -5.2388   26.5927  -29.9577 H   0  0  0  0  0  0  0  0  0  0  0  0
   -2.5214   22.6620  -31.4662 H   0  0  0  0  0  0  0  0  0  0  0  0
   -2.4064   20.2127  -31.0070 H   0  0  0  0  0  0  0  0  0  0  0  0
   -2.7799   19.3529  -28.6929 H   0  0  0  0  0  0  0  0  0  0  0  0
   -3.2901   20.9453  -26.8374 H   0  0  0  0  0  0  0  0  0  0  0  0
   -3.4108   23.3951  -27.2888 H   0  0  0  0  0  0  0  0  0  0  0  0
   -4.9671   23.7196  -32.0049 H   0  0  0  0  0  0  0  0  0  0  0  0
   -5.7016   21.7687  -33.3713 H   0  0  0  0  0  0  0  0  0  0  0  0
  1  2  1  0
  2  3  1  0
  3  4  2  0
  4  5  1  0
  5  6  2  0
  6  7  1  0
  7  8  1  0
  8  9  1  0
  9 10  1  0
 10 11  2  0
 10 12  1  0
 12 13  2  0
 13 14  1  0
 14 15  2  0
 15 16  1  0
 16 17  2  0
  6 18  1  0
 18 19  2  0
 19  3  1  0
 17 12  1  0
  1 20  1  0
  1 21  1  0
  1 22  1  0
  4 23  1  0
  5 24  1  0
  7 25  1  0
  7 26  1  0
  8 27  1  0
  8 28  1  0
 13 29  1  0
 14 30  1  0
 15 31  1  0
 16 32  1  0
 17 33  1  0
 18 34  1  0
 19 35  1  0
M  CHG  1   9  -1
M  END
>  <UniqueID>  (13) 
13

>  <SMILES>  (13) 
COc1ccc(CC[N-]C(=O)c2ccccc2)cc1

>  <Energy>  (13) 
35.7758945129652

>  <Genealogy>  (13) 
COc1ccc(CC[N-]C(=O)c2ccccc2)cc1 (protonated)
COc1ccc(CC[N-]C(=O)c2ccccc2)cc1 (3D coordinates assigned)
COc1ccc(CC[N-]C(=O)c2ccccc2)cc1 (optimized conformer: 35.7758945129652 kcal/mol)

>  <smiles>  (13) 
COc1ccc(CCNC(=O)c2ccccc2)cc1

>  <score_type>  (13) 
oracle

>  <origin>  (13) 
adgpu

>  <m_score__min__energy>  (13) 
-8.2699999999999996

>  <m_primary>  (13) 
energy

$$$$
13:0
     RDKit          3D

 32 34  0  0  0  0  0  0  0  0999 V2000
    0.0796   24.5705  -28.3671 H   0  0  0  0  0  0  0  0  0  0  0  0
   -0.9100   24.4000  -28.8160 C   0  0  0  0  0  0  0  0  0  0  0  0
   -1.4580   23.1640  -28.9410 N   0  0  0  0  0  0  0  0  0  0  0  0
   -2.6510   23.4140  -29.5070 C   0  0  0  0  0  0  0  0  0  0  0  0
   -3.6500   22.5130  -29.9250 C   0  0  0  0  0  0  0  0  0  0  0  0
   -3.5470   21.2160  -29.7980 N   0  0  0  0  0  0  0  0  0  0  0  0
   -2.5440   20.4770  -29.0900 C   0  0  0  0  0  0  0  0  0  0  0  0
   -2.7630   20.0520  -27.7700 C   0  0  0  0  0  0  0  0  0  0  0  0
   -3.6946   20.3267  -27.2536 H   0  0  0  0  0  0  0  0  0  0  0  0
   -1.8020   19.2810  -27.1090 C   0  0  0  0  0  0  0  0  0  0  0  0
   -1.9707   18.9687  -26.0678 H   0  0  0  0  0  0  0  0  0  0  0  0
   -0.6180   18.9030  -27.7730 C   0  0  0  0  0  0  0  0  0  0  0  0
    0.3780   18.1320  -27.1540 O   0  0  0  0  0  0  0  0  0  0  0  0
    1.3100   17.3140  -27.8530 C   0  0  0  0  0  0  0  0  0  0  0  0
    1.9328   16.7674  -27.1296 H   0  0  0  0  0  0  0  0  0  0  0  0
    0.7662   16.5962  -28.4848 H   0  0  0  0  0  0  0  0  0  0  0  0
    1.9512   17.9463  -28.4848 H   0  0  0  0  0  0  0  0  0  0  0  0
   -0.4230   19.3010  -29.1010 C   0  0  0  0  0  0  0  0  0  0  0  0
    0.4947   19.0046  -29.6302 H   0  0  0  0  0  0  0  0  0  0  0  0
   -1.3850   20.0720  -29.7600 C   0  0  0  0  0  0  0  0  0  0  0  0
   -1.2298   20.3614  -30.8098 H   0  0  0  0  0  0  0  0  0  0  0  0
   -4.7800   23.0760  -30.5820 C   0  0  0  0  0  0  0  0  0  0  0  0
   -5.9050   22.2420  -31.0710 C   0  0  0  0  0  0  0  0  0  0  0  0
   -7.0760   22.7080  -31.0570 O   0  0  0  0  0  0  0  0  0  0  0  0
   -5.6940   20.9040  -31.5250 N   0  0  0  0  0  0  0  0  0  0  0  0
   -6.4910   20.3520  -31.9150 H   0  0  0  0  0  0  0  0  0  0  0  0
   -4.7760   20.4240  -31.3920 H   0  0  0  0  0  0  0  0  0  0  0  0
   -4.8390   24.4810  -30.7850 C   0  0  0  0  0  0  0  0  0  0  0  0
   -5.7068   24.9184  -31.3003 H   0  0  0  0  0  0  0  0  0  0  0  0
   -3.8350   25.2950  -30.3500 N   0  0  0  0  0  0  0  0  0  0  0  0
   -2.7700   24.7490  -29.7200 C   0  0  0  0  0  0  0  0  0  0  0  0
   -1.6850   25.4070  -29.2910 N   0  0  0  0  0  0  0  0  0  0  0  0
  1  2  1  0
  2  3  2  0
  3  4  1  0
  4  5  1  0
  5  6  2  0
  6  7  1  0
  7  8  2  0
  8  9  1  0
  8 10  1  0
 10 11  1  0
 10 12  2  0
 12 13  1  0
 13 14  1  0
 14 15  1  0
 14 16  1  0
 14 17  1  0
 12 18  1  0
 18 19  1  0
 18 20  2  0
 20 21  1  0
  5 22  1  0
 22 23  1  0
 23 24  2  0
 23 25  1  0
 25 26  1  0
 25 27  1  0
 22 28  2  0
 28 29  1  0
 28 30  1  0
 30 31  1  0
 31 32  1  0
 32  2  1  0
 31  4  2  0
 20  7  1  0
M  CHG  2  30  -1  32  -1
M  END
>  <UniqueID>  (14) 
14

>  <SMILES>  (14) 
COc1ccc(/N=c2/c(C(N)=O)c[n-]c3[n-]cnc23)cc1

>  <Energy>  (14) 
85.82899718038806

>  <Genealogy>  (14) 
COc1ccc(N=c2c(C(N)=O)c[n-]c3[n-]cnc23)cc1 (protonated)
COc1ccc(/N=c2/c(C(N)=O)c[n-]c3[n-]cnc23)cc1 (cis-trans isomerization)
COc1ccc(/N=c2/c(C(N)=O)c[n-]c3[n-]cnc23)cc1 (3D coordinates assigned)
COc1ccc(/N=c2/c(C(N)=O)c[n-]c3[n-]cnc23)cc1 (optimized conformer: 85.82899718038806 kcal/mol)

>  <smiles>  (14) 
COc1ccc(N=c2c(C(N)=O)c[nH]c3[nH]cnc23)cc1

>  <score_type>  (14) 
oracle

>  <origin>  (14) 
adgpu

>  <m_score__min__energy>  (14) 
-8.8499999999999996

>  <m_primary>  (14) 
energy

$$$$
14:0
     RDKit          3D

 37 39  0  0  0  0  0  0  0  0999 V2000
   -1.6120   22.8210  -29.9490 C   0  0  0  0  0  0  0  0  0  0  0  0
   -1.8520   24.1840  -29.6190 O   0  0  0  0  0  0  0  0  0  0  0  0
   -2.1140   24.6580  -28.3230 C   0  0  0  0  0  0  0  0  0  0  0  0
   -1.0990   25.2130  -27.5180 C   0  0  0  0  0  0  0  0  0  0  0  0
   -1.3770   25.6240  -26.2120 C   0  0  0  0  0  0  0  0  0  0  0  0
   -2.6630   25.4820  -25.6930 C   0  0  0  0  0  0  0  0  0  0  0  0
   -3.6800   24.9400  -26.4810 C   0  0  0  0  0  0  0  0  0  0  0  0
   -3.4230   24.5500  -27.8040 C   0  0  0  0  0  0  0  0  0  0  0  0
   -4.4910   23.9940  -28.5860 N   0  0  0  0  0  0  0  0  0  0  0  0
   -4.7130   24.3300  -29.9640 C   0  0  0  0  0  0  0  0  0  0  0  0
   -4.0620   25.2660  -30.5040 O   0  0  0  0  0  0  0  0  0  0  0  0
   -5.7240   23.6050  -30.7460 C   0  0  0  0  0  0  0  0  0  0  0  0
   -6.8270   24.1620  -31.3630 C   0  0  0  0  0  0  0  0  0  0  0  0
   -7.4830   23.1150  -31.9740 C   0  0  0  0  0  0  0  0  0  0  0  0
   -6.7380   21.9790  -31.6910 C   0  0  0  0  0  0  0  0  0  0  0  0
   -7.0250   20.5920  -32.1230 C   0  0  0  0  0  0  0  0  0  0  0  0
   -8.1360   19.9160  -31.5890 C   0  0  0  0  0  0  0  0  0  0  0  0
   -8.4270   18.6060  -31.9830 C   0  0  0  0  0  0  0  0  0  0  0  0
   -7.6120   17.9570  -32.9130 C   0  0  0  0  0  0  0  0  0  0  0  0
   -6.5040   18.6160  -33.4520 C   0  0  0  0  0  0  0  0  0  0  0  0
   -5.4830   17.7990  -34.6210 Cl  0  0  0  0  0  0  0  0  0  0  0  0
   -6.2100   19.9280  -33.0610 C   0  0  0  0  0  0  0  0  0  0  0  0
   -5.6970   22.3100  -30.9580 O   0  0  0  0  0  0  0  0  0  0  0  0
   -1.5084   22.2328  -29.0252 H   0  0  0  0  0  0  0  0  0  0  0  0
   -2.4555   22.4324  -30.5385 H   0  0  0  0  0  0  0  0  0  0  0  0
   -0.6865   22.7439  -30.5385 H   0  0  0  0  0  0  0  0  0  0  0  0
   -0.0813   25.3233  -27.9206 H   0  0  0  0  0  0  0  0  0  0  0  0
   -0.5798   26.0604  -25.5922 H   0  0  0  0  0  0  0  0  0  0  0  0
   -2.8767   25.7975  -24.6611 H   0  0  0  0  0  0  0  0  0  0  0  0
   -4.6896   24.8179  -26.0618 H   0  0  0  0  0  0  0  0  0  0  0  0
   -5.2260   23.4410  -28.0880 H   0  0  0  0  0  0  0  0  0  0  0  0
   -7.1211   25.2219  -31.3661 H   0  0  0  0  0  0  0  0  0  0  0  0
   -8.4088   23.1690  -32.5656 H   0  0  0  0  0  0  0  0  0  0  0  0
   -8.7815   20.4214  -30.8555 H   0  0  0  0  0  0  0  0  0  0  0  0
   -9.2991   18.0861  -31.5597 H   0  0  0  0  0  0  0  0  0  0  0  0
   -7.8424   16.9265  -33.2213 H   0  0  0  0  0  0  0  0  0  0  0  0
   -5.3374   20.4434  -33.4888 H   0  0  0  0  0  0  0  0  0  0  0  0
  1  2  1  0
  2  3  1  0
  3  4  2  0
  4  5  1  0
  5  6  2  0
  6  7  1  0
  7  8  2  0
  8  9  1  0
  9 10  1  0
 10 11  2  0
 10 12  1  0
 12 13  2  0
 13 14  1  0
 14 15  2  0
 15 16  1  0
 16 17  2  0
 17 18  1  0
 18 19  2  0
 19 20  1  0
 20 21  1  0
 20 22  2  0
 15 23  1  0
  8  3  1  0
 23 12  1  0
 22 16  1  0
  1 24  1  0
  1 25  1  0
  1 26  1  0
  4 27  1  0
  5 28  1  0
  6 29  1  0
  7 30  1  0
  9 31  1  0
 13 32  1  0
 14 33  1  0
 17 34  1  0
 18 35  1  0
 19 36  1  0
 22 37  1  0
M  END
>  <UniqueID>  (15) 
15

>  <SMILES>  (15) 
COc1ccccc1NC(=O)c1ccc(-c2cccc(Cl)c2)o1

>  <Energy>  (15) 
69.97657754133381

>  <Genealogy>  (15) 
COc1ccccc1NC(=O)c1ccc(-c2cccc(Cl)c2)o1 (3D coordinates assigned)
COc1ccccc1NC(=O)c1ccc(-c2cccc(Cl)c2)o1 (optimized conformer: 69.97657754133381 kcal/mol)

>  <smiles>  (15) 
COc1ccccc1NC(=O)c1ccc(-c2cccc(Cl)c2)o1

>  <score_type>  (15) 
oracle

>  <origin>  (15) 
adgpu

>  <m_score__min__energy>  (15) 
-9.1400000000000006

>  <m_primary>  (15) 
energy

$$$$
15:0
     RDKit          3D

 32 33  0  0  0  0  0  0  0  0999 V2000
   -8.7110   19.1380  -31.7290 C   0  0  0  0  0  0  0  0  0  0  0  0
   -8.0180   20.0520  -32.7340 C   0  0  0  0  0  0  0  0  0  0  0  0
   -7.3630   21.2120  -32.0350 C   0  0  0  0  0  0  0  0  0  0  0  0
   -5.9940   21.1710  -31.7260 C   0  0  0  0  0  0  0  0  0  0  0  0
   -5.3780   22.2610  -31.1030 C   0  0  0  0  0  0  0  0  0  0  0  0
   -6.1220   23.4060  -30.7890 C   0  0  0  0  0  0  0  0  0  0  0  0
   -5.3550   24.7780  -29.9950 S   0  0  0  0  0  0  0  0  0  0  0  0
   -4.2420   25.3270  -30.8430 O   0  0  0  0  0  0  0  0  0  0  0  0
   -6.3850   25.8520  -29.7860 O   0  0  0  0  0  0  0  0  0  0  0  0
   -4.7130   24.2950  -28.4580 N   0  0  0  0  0  0  0  0  0  0  0  0
   -3.3610   24.5490  -28.0340 C   0  0  0  0  0  0  0  0  0  0  0  0
   -3.1150   24.9160  -26.7020 C   0  0  0  0  0  0  0  0  0  0  0  0
   -1.8110   25.1630  -26.2700 C   0  0  0  0  0  0  0  0  0  0  0  0
   -0.7570   25.0430  -27.1750 C   0  0  0  0  0  0  0  0  0  0  0  0
   -1.0060   24.6940  -28.4650 N   0  0  0  0  0  0  0  0  0  0  0  0
   -2.2660   24.4470  -28.9110 C   0  0  0  0  0  0  0  0  0  0  0  0
   -7.4840   23.4580  -31.1130 C   0  0  0  0  0  0  0  0  0  0  0  0
   -8.1000   22.3690  -31.7350 C   0  0  0  0  0  0  0  0  0  0  0  0
   -8.4647   19.4629  -30.7073 H   0  0  0  0  0  0  0  0  0  0  0  0
   -9.7998   19.1886  -31.8774 H   0  0  0  0  0  0  0  0  0  0  0  0
   -8.3684   18.1033  -31.8774 H   0  0  0  0  0  0  0  0  0  0  0  0
   -7.2520   19.4778  -33.2758 H   0  0  0  0  0  0  0  0  0  0  0  0
   -8.7707   20.4413  -33.4353 H   0  0  0  0  0  0  0  0  0  0  0  0
   -5.4032   20.2772  -31.9751 H   0  0  0  0  0  0  0  0  0  0  0  0
   -4.3063   22.2193  -30.8588 H   0  0  0  0  0  0  0  0  0  0  0  0
   -5.3420   23.7380  -27.8370 H   0  0  0  0  0  0  0  0  0  0  0  0
   -3.9531   25.0094  -25.9957 H   0  0  0  0  0  0  0  0  0  0  0  0
   -1.6167   25.4495  -25.2259 H   0  0  0  0  0  0  0  0  0  0  0  0
    0.2755   25.2307  -26.8452 H   0  0  0  0  0  0  0  0  0  0  0  0
   -2.4300   24.1663  -29.9618 H   0  0  0  0  0  0  0  0  0  0  0  0
   -8.0700   24.3585  -30.8771 H   0  0  0  0  0  0  0  0  0  0  0  0
   -9.1686   22.4183  -31.9912 H   0  0  0  0  0  0  0  0  0  0  0  0
  1  2  1  0
  2  3  1  0
  3  4  2  0
  4  5  1  0
  5  6  2  0
  6  7  1  0
  7  8  2  0
  7  9  2  0
  7 10  1  0
 10 11  1  0
 11 12  2  0
 12 13  1  0
 13 14  2  0
 14 15  1  0
 15 16  2  0
  6 17  1  0
 17 18  2  0
 18  3  1  0
 16 11  1  0
  1 19  1  0
  1 20  1  0
  1 21  1  0
  2 22  1  0
  2 23  1  0
  4 24  1  0
  5 25  1  0
 10 26  1  0
 12 27  1  0
 13 28  1  0
 14 29  1  0
 16 30  1  0
 17 31  1  0
 18 32  1  0
M  END
>  <UniqueID>  (16) 
16

>  <SMILES>  (16) 
CCc1ccc(S(=O)(=O)Nc2cccnc2)cc1

>  <Energy>  (16) 
32.47169364430063

>  <Genealogy>  (16) 
CCc1ccc(S(=O)(=O)Nc2cccnc2)cc1 (3D coordinates assigned)
CCc1ccc(S(=O)(=O)Nc2cccnc2)cc1 (optimized conformer: 32.47169364430063 kcal/mol)

>  <smiles>  (16) 
CCc1ccc(S(=O)(=O)Nc2cccnc2)cc1

>  <score_type>  (16) 
oracle

>  <origin>  (16) 
adgpu

>  <m_score__min__energy>  (16) 
-7.9299999999999997

>  <m_primary>  (16) 
energy

$$$$
16:0
     RDKit          3D

 16 16  0  0  0  0  0  0  0  0999 V2000
   -6.4630   25.7590  -29.1890 N   0  0  0  0  0  0  0  0  0  0  0  0
   -6.1740   24.7280  -30.1420 C   0  0  0  0  0  0  0  0  0  0  0  0
   -7.2400   23.9760  -30.6650 C   0  0  0  0  0  0  0  0  0  0  0  0
   -7.0030   22.9310  -31.5610 C   0  0  0  0  0  0  0  0  0  0  0  0
   -5.6980   22.6240  -31.9450 C   0  0  0  0  0  0  0  0  0  0  0  0
   -4.6280   23.3680  -31.4440 C   0  0  0  0  0  0  0  0  0  0  0  0
   -4.8490   24.4290  -30.5510 C   0  0  0  0  0  0  0  0  0  0  0  0
   -3.7230   25.1930  -30.1000 N   0  0  0  0  0  0  0  0  0  0  0  0
   -6.5620   25.5260  -28.1750 H   0  0  0  0  0  0  0  0  0  0  0  0
   -6.4910   26.7690  -29.4420 H   0  0  0  0  0  0  0  0  0  0  0  0
   -8.2716   24.2129  -30.3656 H   0  0  0  0  0  0  0  0  0  0  0  0
   -7.8458   22.3501  -31.9638 H   0  0  0  0  0  0  0  0  0  0  0  0
   -5.5114   21.7948  -32.6433 H   0  0  0  0  0  0  0  0  0  0  0  0
   -3.6014   23.1205  -31.7519 H   0  0  0  0  0  0  0  0  0  0  0  0
   -3.0980   25.6670  -30.7900 H   0  0  0  0  0  0  0  0  0  0  0  0
   -3.5380   25.3850  -29.0920 H   0  0  0  0  0  0  0  0  0  0  0  0
  1  2  1  0
  2  3  2  0
  3  4  1  0
  4  5  2  0
  5  6  1  0
  6  7  2  0
  7  8  1  0
  7  2  1  0
  1  9  1  0
  1 10  1  0
  3 11  1  0
  4 12  1  0
  5 13  1  0
  6 14  1  0
  8 15  1  0
  8 16  1  0
M  END
>  <UniqueID>  (17) 
17

>  <SMILES>  (17) 
Nc1ccccc1N

>  <Energy>  (17) 
15.795071282249673

>  <Genealogy>  (17) 
Nc1ccccc1N (3D coordinates assigned)
Nc1ccccc1N (optimized conformer: 15.795071282249673 kcal/mol)

>  <smiles>  (17) 
Nc1ccccc1N

>  <score_type>  (17) 
oracle

>  <origin>  (17) 
adgpu

>  <m_score__min__energy>  (17) 
-4.8600000000000003

>  <m_primary>  (17) 
energy

$$$$
17:0
     RDKit          3D

 27 28  0  0  0  0  0  0  0  0999 V2000
    0.1580   25.1330  -23.4690 H   0  0  0  0  0  0  0  0  0  0  0  0
    0.0490   25.9400  -24.1220 N   0  0  0  0  0  0  0  0  0  0  0  0
   -0.3470   25.8440  -25.3600 C   0  0  0  0  0  0  0  0  0  0  0  0
   -0.6680   24.5830  -25.9240 C   0  0  0  0  0  0  0  0  0  0  0  0
   -0.5250   23.3650  -25.1510 C   0  0  0  0  0  0  0  0  0  0  0  0
   -0.4110   22.3920  -24.5350 N   0  0  0  0  0  0  0  0  0  0  0  0
   -1.0970   24.5160  -27.2670 C   0  0  0  0  0  0  0  0  0  0  0  0
   -1.4520   23.2240  -27.9040 C   0  0  0  0  0  0  0  0  0  0  0  0
   -2.7410   22.6860  -27.7470 C   0  0  0  0  0  0  0  0  0  0  0  0
   -3.4894   23.2233  -27.1460 H   0  0  0  0  0  0  0  0  0  0  0  0
   -3.0760   21.4700  -28.3520 C   0  0  0  0  0  0  0  0  0  0  0  0
   -4.0854   21.0519  -28.2243 H   0  0  0  0  0  0  0  0  0  0  0  0
   -2.1280   20.7860  -29.1190 C   0  0  0  0  0  0  0  0  0  0  0  0
   -2.3916   19.8293  -29.5936 H   0  0  0  0  0  0  0  0  0  0  0  0
   -0.8460   21.3170  -29.2830 C   0  0  0  0  0  0  0  0  0  0  0  0
   -0.1015   20.7779  -29.8872 H   0  0  0  0  0  0  0  0  0  0  0  0
   -0.5080   22.5330  -28.6800 C   0  0  0  0  0  0  0  0  0  0  0  0
    0.5012   22.9494  -28.8143 H   0  0  0  0  0  0  0  0  0  0  0  0
   -1.1860   25.6980  -28.0130 C   0  0  0  0  0  0  0  0  0  0  0  0
   -1.6140   25.6750  -29.3380 O   0  0  0  0  0  0  0  0  0  0  0  0
   -0.8570   26.9160  -27.4260 C   0  0  0  0  0  0  0  0  0  0  0  0
   -0.9248   27.8392  -28.0202 H   0  0  0  0  0  0  0  0  0  0  0  0
   -0.4510   26.9830  -26.1230 N   0  0  0  0  0  0  0  0  0  0  0  0
   -0.1180   28.2950  -25.5480 C   0  0  0  0  0  0  0  0  0  0  0  0
   -0.1347   28.2291  -24.4501 H   0  0  0  0  0  0  0  0  0  0  0  0
    0.8854   28.5977  -25.8819 H   0  0  0  0  0  0  0  0  0  0  0  0
   -0.8556   29.0396  -25.8819 H   0  0  0  0  0  0  0  0  0  0  0  0
  1  2  1  0
  2  3  2  0
  3  4  1  0
  4  5  1  0
  5  6  3  0
  4  7  2  0
  7  8  1  0
  8  9  2  0
  9 10  1  0
  9 11  1  0
 11 12  1  0
 11 13  2  0
 13 14  1  0
 13 15  1  0
 15 16  1  0
 15 17  2  0
 17 18  1  0
  7 19  1  0
 19 20  1  0
 19 21  2  0
 21 22  1  0
 21 23  1  0
 23 24  1  0
 24 25  1  0
 24 26  1  0
 24 27  1  0
 23  3  1  0
 17  8  1  0
M  CHG  1  20  -1
M  END
>  <UniqueID>  (18) 
18

>  <SMILES>  (18) 
[H]/N=c1\c(C#N)c(-c2ccccc2)c([O-])cn1C

>  <Energy>  (18) 
41.18656278927281

>  <Genealogy>  (18) 
Cn1cc([O-])c(-c2ccccc2)c(C#N)c1=N (protonated)
[H]/N=c1\c(C#N)c(-c2ccccc2)c([O-])cn1C (cis-trans isomerization)
[H]/N=c1\c(C#N)c(-c2ccccc2)c([O-])cn1C (3D coordinates assigned)
[H]/N=c1\c(C#N)c(-c2ccccc2)c([O-])cn1C (optimized conformer: 41.18656278927281 kcal/mol)

>  <smiles>  (18) 
Cn1cc(O)c(-c2ccccc2)c(C#N)c1=N

>  <score_type>  (18) 
oracle

>  <origin>  (18) 
adgpu

>  <m_score__min__energy>  (18) 
-8.2300000000000004

>  <m_primary>  (18) 
energy

$$$$
18:0
     RDKit          3D

 16 16  0  0  0  0  0  0  0  0999 V2000
   -5.7050   25.6750  -30.3050 C   0  0  0  0  0  0  0  0  0  0  0  0
   -4.9850   24.8400  -31.2070 O   0  0  0  0  0  0  0  0  0  0  0  0
   -5.4230   23.5800  -31.6410 C   0  0  0  0  0  0  0  0  0  0  0  0
   -4.5610   22.6490  -32.2510 C   0  0  0  0  0  0  0  0  0  0  0  0
   -5.0470   21.4070  -32.6660 C   0  0  0  0  0  0  0  0  0  0  0  0
   -6.3940   21.0760  -32.4810 C   0  0  0  0  0  0  0  0  0  0  0  0
   -7.0060   19.3590  -33.0700 Br  0  0  0  0  0  0  0  0  0  0  0  0
   -7.2600   22.0000  -31.8730 C   0  0  0  0  0  0  0  0  0  0  0  0
   -9.1140   21.6070  -31.5910 Br  0  0  0  0  0  0  0  0  0  0  0  0
   -6.7690   23.2440  -31.4580 C   0  0  0  0  0  0  0  0  0  0  0  0
   -5.4615   25.3926  -29.2701 H   0  0  0  0  0  0  0  0  0  0  0  0
   -5.4246   26.7251  -30.4742 H   0  0  0  0  0  0  0  0  0  0  0  0
   -6.7849   25.5521  -30.4742 H   0  0  0  0  0  0  0  0  0  0  0  0
   -3.5008   22.9006  -32.4014 H   0  0  0  0  0  0  0  0  0  0  0  0
   -4.3668   20.6848  -33.1411 H   0  0  0  0  0  0  0  0  0  0  0  0
   -7.4495   23.9657  -30.9825 H   0  0  0  0  0  0  0  0  0  0  0  0
  1  2  1  0
  2  3  1  0
  3  4  2  0
  4  5  1  0
  5  6  2  0
  6  7  1  0
  6  8  1  0
  8  9  1  0
  8 10  2  0
 10  3  1  0
  1 11  1  0
  1 12  1  0
  1 13  1  0
  4 14  1  0
  5 15  1  0
 10 16  1  0
M  END
>  <UniqueID>  (19) 
19

>  <SMILES>  (19) 
COc1ccc(Br)c(Br)c1

>  <Energy>  (19) 
14.949618923414802

>  <Genealogy>  (19) 
COc1ccc(Br)c(Br)c1 (3D coordinates assigned)
COc1ccc(Br)c(Br)c1 (optimized conformer: 14.949618923414802 kcal/mol)

>  <smiles>  (19) 
COc1ccc(Br)c(Br)c1

>  <score_type>  (19) 
oracle

>  <origin>  (19) 
adgpu

>  <m_score__min__energy>  (19) 
-5.7999999999999998

>  <m_primary>  (19) 
energy

$$$$
19:0
     RDKit          3D

 26 27  0  0  0  0  0  0  0  0999 V2000
   -2.5339   24.1549  -26.1765 H   0  0  0  0  0  0  0  0  0  0  0  0
   -2.6560   24.3450  -27.2530 C   0  0  0  0  0  0  0  0  0  0  0  0
   -3.7710   23.6010  -28.2690 S   0  0  0  0  0  0  0  0  0  0  0  0
   -3.2590   24.4600  -29.6300 C   0  0  0  0  0  0  0  0  0  0  0  0
   -3.7080   24.3180  -30.8430 N   0  0  0  0  0  0  0  0  0  0  0  0
   -4.8060   23.4890  -31.2560 C   0  0  0  0  0  0  0  0  0  0  0  0
   -4.5980   22.1580  -31.6640 C   0  0  0  0  0  0  0  0  0  0  0  0
   -3.5768   21.7508  -31.7017 H   0  0  0  0  0  0  0  0  0  0  0  0
   -5.6800   21.3520  -32.0210 C   0  0  0  0  0  0  0  0  0  0  0  0
   -5.5089   20.3176  -32.3537 H   0  0  0  0  0  0  0  0  0  0  0  0
   -6.9790   21.8580  -31.9560 C   0  0  0  0  0  0  0  0  0  0  0  0
   -7.8298   21.2252  -32.2486 H   0  0  0  0  0  0  0  0  0  0  0  0
   -7.2010   23.1670  -31.5200 C   0  0  0  0  0  0  0  0  0  0  0  0
   -8.2276   23.5575  -31.4598 H   0  0  0  0  0  0  0  0  0  0  0  0
   -6.1150   23.9890  -31.1570 C   0  0  0  0  0  0  0  0  0  0  0  0
   -6.2970   25.3060  -30.7040 O   0  0  0  0  0  0  0  0  0  0  0  0
   -6.4600   25.6730  -29.3370 C   0  0  0  0  0  0  0  0  0  0  0  0
   -6.0981   24.8581  -28.6929 H   0  0  0  0  0  0  0  0  0  0  0  0
   -5.8831   26.5867  -29.1313 H   0  0  0  0  0  0  0  0  0  0  0  0
   -7.5247   25.8576  -29.1313 H   0  0  0  0  0  0  0  0  0  0  0  0
   -2.2400   25.2930  -29.3360 N   0  0  0  0  0  0  0  0  0  0  0  0
   -1.9140   25.2450  -28.0160 C   0  0  0  0  0  0  0  0  0  0  0  0
   -0.7900   26.0500  -27.4530 C   0  0  0  0  0  0  0  0  0  0  0  0
   -0.8319   26.0200  -26.3542 H   0  0  0  0  0  0  0  0  0  0  0  0
    0.1680   25.6314  -27.7950 H   0  0  0  0  0  0  0  0  0  0  0  0
   -0.8779   27.0918  -27.7950 H   0  0  0  0  0  0  0  0  0  0  0  0
  1  2  1  0
  2  3  1  0
  3  4  1  0
  4  5  2  0
  5  6  1  0
  6  7  2  0
  7  8  1  0
  7  9  1  0
  9 10  1  0
  9 11  2  0
 11 12  1  0
 11 13  1  0
 13 14  1  0
 13 15  2  0
 15 16  1  0
 16 17  1  0
 17 18  1  0
 17 19  1  0
 17 20  1  0
  4 21  1  0
 21 22  1  0
 22 23  1  0
 23 24  1  0
 23 25  1  0
 23 26  1  0
 22  2  2  0
 15  6  1  0
M  CHG  1  21  -1
M  END
>  <UniqueID>  (20) 
20

>  <SMILES>  (20) 
COc1ccccc1/N=c1/[n-]c(C)cs1

>  <Energy>  (20) 
61.667591729154424

>  <Genealogy>  (20) 
COc1ccccc1N=c1[n-]c(C)cs1 (protonated)
COc1ccccc1/N=c1/[n-]c(C)cs1 (cis-trans isomerization)
COc1ccccc1/N=c1/[n-]c(C)cs1 (3D coordinates assigned)
COc1ccccc1/N=c1/[n-]c(C)cs1 (optimized conformer: 61.667591729154424 kcal/mol)

>  <smiles>  (20) 
COc1ccccc1N=c1[nH]c(C)cs1

>  <score_type>  (20) 
oracle

>  <origin>  (20) 
adgpu

>  <m_score__min__energy>  (20) 
-7.5499999999999998

>  <m_primary>  (20) 
energy

$$$$
20:0
     RDKit          3D

 28 29  0  0  0  0  0  0  0  0999 V2000
   -1.4440   24.4580  -29.6760 N   0  0  0  0  0  0  0  0  0  0  0  0
   -1.8170   24.8010  -28.3350 C   0  0  0  0  0  0  0  0  0  0  0  0
   -0.8770   25.4280  -27.5020 C   0  0  0  0  0  0  0  0  0  0  0  0
   -1.2200   25.8020  -26.2010 C   0  0  0  0  0  0  0  0  0  0  0  0
   -2.5030   25.5470  -25.7180 C   0  0  0  0  0  0  0  0  0  0  0  0
   -3.4470   24.9210  -26.5330 C   0  0  0  0  0  0  0  0  0  0  0  0
   -3.1200   24.5490  -27.8500 C   0  0  0  0  0  0  0  0  0  0  0  0
   -4.0830   23.8590  -28.6630 N   0  0  0  0  0  0  0  0  0  0  0  0
   -4.4270   24.2760  -29.9970 C   0  0  0  0  0  0  0  0  0  0  0  0
   -3.8710   25.2910  -30.5000 O   0  0  0  0  0  0  0  0  0  0  0  0
   -5.4250   23.5300  -30.8000 C   0  0  0  0  0  0  0  0  0  0  0  0
   -6.7860   23.8930  -30.7950 C   0  0  0  0  0  0  0  0  0  0  0  0
   -7.7120   23.1710  -31.5550 C   0  0  0  0  0  0  0  0  0  0  0  0
   -7.2960   22.0810  -32.3210 C   0  0  0  0  0  0  0  0  0  0  0  0
   -5.9520   21.7040  -32.3230 C   0  0  0  0  0  0  0  0  0  0  0  0
   -5.0200   22.4200  -31.5650 C   0  0  0  0  0  0  0  0  0  0  0  0
   -0.4760   24.6080  -30.0360 H   0  0  0  0  0  0  0  0  0  0  0  0
   -2.1310   24.0020  -30.3170 H   0  0  0  0  0  0  0  0  0  0  0  0
    0.1379   25.6263  -27.8771 H   0  0  0  0  0  0  0  0  0  0  0  0
   -0.4783   26.2976  -25.5574 H   0  0  0  0  0  0  0  0  0  0  0  0
   -2.7716   25.8399  -24.6923 H   0  0  0  0  0  0  0  0  0  0  0  0
   -4.4549   24.7167  -26.1427 H   0  0  0  0  0  0  0  0  0  0  0  0
   -4.5520   23.0250  -28.2480 H   0  0  0  0  0  0  0  0  0  0  0  0
   -7.1222   24.7483  -30.1905 H   0  0  0  0  0  0  0  0  0  0  0  0
   -8.7724   23.4634  -31.5490 H   0  0  0  0  0  0  0  0  0  0  0  0
   -8.0263   21.5197  -32.9224 H   0  0  0  0  0  0  0  0  0  0  0  0
   -5.6251   20.8415  -32.9223 H   0  0  0  0  0  0  0  0  0  0  0  0
   -3.9635   22.1137  -31.5666 H   0  0  0  0  0  0  0  0  0  0  0  0
  1  2  1  0
  2  3  2  0
  3  4  1  0
  4  5  2  0
  5  6  1  0
  6  7  2  0
  7  8  1  0
  8  9  1  0
  9 10  2  0
  9 11  1  0
 11 12  2  0
 12 13  1  0
 13 14  2  0
 14 15  1  0
 15 16  2  0
  7  2  1  0
 16 11  1  0
  1 17  1  0
  1 18  1  0
  3 19  1  0
  4 20  1  0
  5 21  1  0
  6 22  1  0
  8 23  1  0
 12 24  1  0
 13 25  1  0
 14 26  1  0
 15 27  1  0
 16 28  1  0
M  END
>  <UniqueID>  (21) 
21

>  <SMILES>  (21) 
Nc1ccccc1NC(=O)c1ccccc1

>  <Energy>  (21) 
36.30584302893934

>  <Genealogy>  (21) 
Nc1ccccc1NC(=O)c1ccccc1 (3D coordinates assigned)
Nc1ccccc1NC(=O)c1ccccc1 (optimized conformer: 36.30584302893934 kcal/mol)

>  <smiles>  (21) 
Nc1ccccc1NC(=O)c1ccccc1

>  <score_type>  (21) 
oracle

>  <origin>  (21) 
adgpu

>  <m_score__min__energy>  (21) 
-6.5300000000000002

>  <m_primary>  (21) 
energy

$$$$
21:0
     RDKit          3D

 28 30  0  0  0  0  0  0  0  0999 V2000
   -5.4220   26.6660  -30.4560 O   0  0  0  0  0  0  0  0  0  0  0  0
   -5.8370   25.5290  -30.1500 N   0  0  0  0  0  0  0  0  0  0  0  0
   -7.0110   25.4310  -29.4400 O   0  0  0  0  0  0  0  0  0  0  0  0
   -5.0940   24.3510  -30.5370 C   0  0  0  0  0  0  0  0  0  0  0  0
   -5.7620   23.2670  -31.1400 C   0  0  0  0  0  0  0  0  0  0  0  0
   -5.0680   22.1080  -31.5270 C   0  0  0  0  0  0  0  0  0  0  0  0
   -5.8070   20.9880  -32.1580 C   0  0  0  0  0  0  0  0  0  0  0  0
   -7.1470   20.9650  -32.5180 C   0  0  0  0  0  0  0  0  0  0  0  0
   -7.3720   19.7200  -33.0640 C   0  0  0  0  0  0  0  0  0  0  0  0
   -6.1610   19.0600  -33.0070 C   0  0  0  0  0  0  0  0  0  0  0  0
   -5.8980   17.6930  -33.4750 C   0  0  0  0  0  0  0  0  0  0  0  0
   -6.8610   16.7190  -33.7050 C   0  0  0  0  0  0  0  0  0  0  0  0
   -6.3220   15.5060  -34.1480 C   0  0  0  0  0  0  0  0  0  0  0  0
   -4.9380   15.5200  -34.2680 C   0  0  0  0  0  0  0  0  0  0  0  0
   -4.3850   17.0440  -33.8220 S   0  0  0  0  0  0  0  0  0  0  0  0
   -5.2520   19.8350  -32.4660 O   0  0  0  0  0  0  0  0  0  0  0  0
   -3.6830   22.0380  -31.3060 C   0  0  0  0  0  0  0  0  0  0  0  0
   -3.0090   23.1050  -30.7100 C   0  0  0  0  0  0  0  0  0  0  0  0
   -3.7010   24.2560  -30.3260 C   0  0  0  0  0  0  0  0  0  0  0  0
   -2.9870   25.2930  -29.7360 O   0  0  0  0  0  0  0  0  0  0  0  0
   -6.8469   23.3290  -31.3110 H   0  0  0  0  0  0  0  0  0  0  0  0
   -7.8802   21.7755  -32.3930 H   0  0  0  0  0  0  0  0  0  0  0  0
   -8.3209   19.3321  -33.4630 H   0  0  0  0  0  0  0  0  0  0  0  0
   -7.9380   16.8843  -33.5542 H   0  0  0  0  0  0  0  0  0  0  0  0
   -6.9368   14.6237  -34.3796 H   0  0  0  0  0  0  0  0  0  0  0  0
   -4.3114   14.6784  -34.5982 H   0  0  0  0  0  0  0  0  0  0  0  0
   -3.1263   21.1374  -31.6042 H   0  0  0  0  0  0  0  0  0  0  0  0
   -1.9240   23.0390  -30.5413 H   0  0  0  0  0  0  0  0  0  0  0  0
  1  2  2  0
  2  3  1  0
  2  4  1  0
  4  5  2  0
  5  6  1  0
  6  7  1  0
  7  8  2  0
  8  9  1  0
  9 10  2  0
 10 11  1  0
 11 12  2  0
 12 13  1  0
 13 14  2  0
 14 15  1  0
 10 16  1  0
  6 17  2  0
 17 18  1  0
 18 19  2  0
 19 20  1  0
 19  4  1  0
 16  7  1  0
 15 11  1  0
  5 21  1  0
  8 22  1  0
  9 23  1  0
 12 24  1  0
 13 25  1  0
 14 26  1  0
 17 27  1  0
 18 28  1  0
M  CHG  3   2   1   3  -1  20  -1
M  END
>  <UniqueID>  (22) 
22

>  <SMILES>  (22) 
O=[N+]([O-])c1cc(-c2ccc(-c3cccs3)o2)ccc1[O-]

>  <Energy>  (22) 
86.28927519646348

>  <Genealogy>  (22) 
O=[N+]([O-])c1cc(-c2ccc(-c3cccs3)o2)ccc1[O-] (protonated)
O=[N+]([O-])c1cc(-c2ccc(-c3cccs3)o2)ccc1[O-] (3D coordinates assigned)
O=[N+]([O-])c1cc(-c2ccc(-c3cccs3)o2)ccc1[O-] (optimized conformer: 86.28927519646348 kcal/mol)

>  <smiles>  (22) 
O=[N+]([O-])c1cc(-c2ccc(-c3cccs3)o2)ccc1O

>  <score_type>  (22) 
oracle

>  <origin>  (22) 
adgpu

>  <m_score__min__energy>  (22) 
-10.109999999999999

>  <m_primary>  (22) 
energy

$$$$
22:0
     RDKit          3D

 30 30  0  0  0  0  0  0  0  0999 V2000
   -5.0990   22.1170  -32.3420 C   0  0  0  0  0  0  0  0  0  0  0  0
   -5.9320   23.3940  -32.2920 C   0  0  0  0  0  0  0  0  0  0  0  0
   -5.9070   23.9800  -30.9470 N   0  0  0  0  0  0  0  0  0  0  0  0
   -6.9060   23.5590  -29.9590 C   0  0  0  0  0  0  0  0  0  0  0  0
   -5.0400   25.0980  -30.6660 C   0  0  0  0  0  0  0  0  0  0  0  0
   -5.5260   26.2540  -30.5490 O   0  0  0  0  0  0  0  0  0  0  0  0
   -3.6300   24.9230  -30.4710 N   0  0  0  0  0  0  0  0  0  0  0  0
   -3.0090   24.1380  -29.4430 C   0  0  0  0  0  0  0  0  0  0  0  0
   -3.5000   22.8480  -29.2050 C   0  0  0  0  0  0  0  0  0  0  0  0
   -2.9300   22.0430  -28.2190 C   0  0  0  0  0  0  0  0  0  0  0  0
   -1.8720   22.5260  -27.4480 C   0  0  0  0  0  0  0  0  0  0  0  0
   -1.3900   23.8200  -27.6520 C   0  0  0  0  0  0  0  0  0  0  0  0
   -1.9610   24.6470  -28.6410 C   0  0  0  0  0  0  0  0  0  0  0  0
   -1.5280   25.9690  -28.8340 O   0  0  0  0  0  0  0  0  0  0  0  0
   -0.8540   26.7530  -27.8560 C   0  0  0  0  0  0  0  0  0  0  0  0
   -4.8802   21.7816  -31.3175 H   0  0  0  0  0  0  0  0  0  0  0  0
   -5.6603   21.3336  -32.8723 H   0  0  0  0  0  0  0  0  0  0  0  0
   -4.1558   22.3150  -32.8723 H   0  0  0  0  0  0  0  0  0  0  0  0
   -5.5223   24.1202  -33.0095 H   0  0  0  0  0  0  0  0  0  0  0  0
   -6.9724   23.1466  -32.5496 H   0  0  0  0  0  0  0  0  0  0  0  0
   -6.5120   23.7250  -28.9455 H   0  0  0  0  0  0  0  0  0  0  0  0
   -7.8264   24.1458  -30.0953 H   0  0  0  0  0  0  0  0  0  0  0  0
   -7.1288   22.4905  -30.0953 H   0  0  0  0  0  0  0  0  0  0  0  0
   -4.3423   22.4666  -29.8008 H   0  0  0  0  0  0  0  0  0  0  0  0
   -3.3147   21.0266  -28.0490 H   0  0  0  0  0  0  0  0  0  0  0  0
   -1.4169   21.8858  -26.6779 H   0  0  0  0  0  0  0  0  0  0  0  0
   -0.5594   24.1970  -27.0373 H   0  0  0  0  0  0  0  0  0  0  0  0
   -1.1450   26.4146  -26.8506 H   0  0  0  0  0  0  0  0  0  0  0  0
    0.2330   26.6397  -27.9807 H   0  0  0  0  0  0  0  0  0  0  0  0
   -1.1291   27.8107  -27.9807 H   0  0  0  0  0  0  0  0  0  0  0  0
  1  2  1  0
  2  3  1  0
  3  4  1  0
  3  5  1  0
  5  6  2  0
  5  7  1  0
  7  8  1  0
  8  9  2  0
  9 10  1  0
 10 11  2  0
 11 12  1  0
 12 13  2  0
 13 14  1  0
 14 15  1  0
 13  8  1  0
  1 16  1  0
  1 17  1  0
  1 18  1  0
  2 19  1  0
  2 20  1  0
  4 21  1  0
  4 22  1  0
  4 23  1  0
  9 24  1  0
 10 25  1  0
 11 26  1  0
 12 27  1  0
 15 28  1  0
 15 29  1  0
 15 30  1  0
M  CHG  1   7  -1
M  END
>  <UniqueID>  (23) 
23

>  <SMILES>  (23) 
CCN(C)C(=O)[N-]c1ccccc1OC

>  <Energy>  (23) 
29.727865934270834

>  <Genealogy>  (23) 
CCN(C)C(=O)[N-]c1ccccc1OC (protonated)
CCN(C)C(=O)[N-]c1ccccc1OC (3D coordinates assigned)
CCN(C)C(=O)[N-]c1ccccc1OC (optimized conformer: 29.727865934270834 kcal/mol)

>  <smiles>  (23) 
CCN(C)C(=O)Nc1ccccc1OC

>  <score_type>  (23) 
oracle

>  <origin>  (23) 
adgpu

>  <m_score__min__energy>  (23) 
-6.8099999999999996

>  <m_primary>  (23) 
energy

$$$$
23:0
     RDKit          3D

 30 32  0  0  0  0  0  0  0  0999 V2000
   -1.4470   25.2410  -28.9590 N   0  0  0  0  0  0  0  0  0  0  0  0
   -2.2970   24.5540  -29.3350 C   0  0  0  0  0  0  0  0  0  0  0  0
   -3.3400   23.7170  -29.8210 C   0  0  0  0  0  0  0  0  0  0  0  0
   -3.4480   22.3730  -29.6230 C   0  0  0  0  0  0  0  0  0  0  0  0
   -2.4480   21.5990  -28.8270 C   0  0  0  0  0  0  0  0  0  0  0  0
   -1.1770   21.2930  -29.1450 C   0  0  0  0  0  0  0  0  0  0  0  0
   -0.4510   20.5140  -28.3310 C   0  0  0  0  0  0  0  0  0  0  0  0
   -1.4740   20.0920  -26.9690 S   0  0  0  0  0  0  0  0  0  0  0  0
   -2.9020   21.0490  -27.6230 C   0  0  0  0  0  0  0  0  0  0  0  0
   -4.4700   21.7320  -30.2140 N   0  0  0  0  0  0  0  0  0  0  0  0
   -5.3980   22.3150  -30.9860 C   0  0  0  0  0  0  0  0  0  0  0  0
   -6.4930   21.5880  -31.6090 C   0  0  0  0  0  0  0  0  0  0  0  0
   -7.7860   21.9230  -31.2400 C   0  0  0  0  0  0  0  0  0  0  0  0
   -8.8800   21.2830  -31.7840 C   0  0  0  0  0  0  0  0  0  0  0  0
   -8.7280   20.2790  -32.7220 C   0  0  0  0  0  0  0  0  0  0  0  0
   -7.4310   19.9610  -33.0770 C   0  0  0  0  0  0  0  0  0  0  0  0
   -6.3460   20.5990  -32.5340 C   0  0  0  0  0  0  0  0  0  0  0  0
   -5.2810   23.6440  -31.1710 N   0  0  0  0  0  0  0  0  0  0  0  0
   -4.2990   24.3580  -30.6250 C   0  0  0  0  0  0  0  0  0  0  0  0
   -4.2370   25.6240  -30.8390 N   0  0  0  0  0  0  0  0  0  0  0  0
   -0.7335   21.6823  -30.0733 H   0  0  0  0  0  0  0  0  0  0  0  0
    0.5910   20.1983  -28.4874 H   0  0  0  0  0  0  0  0  0  0  0  0
   -3.8964   21.1640  -27.1670 H   0  0  0  0  0  0  0  0  0  0  0  0
   -4.5710   20.7000  -30.0730 H   0  0  0  0  0  0  0  0  0  0  0  0
   -7.9435   22.7178  -30.4960 H   0  0  0  0  0  0  0  0  0  0  0  0
   -9.8912   21.5767  -31.4659 H   0  0  0  0  0  0  0  0  0  0  0  0
   -9.5929   19.7611  -33.1621 H   0  0  0  0  0  0  0  0  0  0  0  0
   -7.2633   19.1684  -33.8211 H   0  0  0  0  0  0  0  0  0  0  0  0
   -5.3346   20.3059  -32.8522 H   0  0  0  0  0  0  0  0  0  0  0  0
   -4.9490   26.0840  -31.4320 H   0  0  0  0  0  0  0  0  0  0  0  0
  1  2  3  0
  2  3  1  0
  3  4  2  0
  4  5  1  0
  5  6  1  0
  6  7  2  0
  7  8  1  0
  8  9  1  0
  4 10  1  0
 10 11  1  0
 11 12  1  0
 12 13  2  0
 13 14  1  0
 14 15  2  0
 15 16  1  0
 16 17  2  0
 11 18  2  0
 18 19  1  0
 19 20  2  3
 19  3  1  0
  9  5  2  0
 17 12  1  0
  6 21  1  0
  7 22  1  0
  9 23  1  0
 10 24  1  0
 13 25  1  0
 14 26  1  0
 15 27  1  0
 16 28  1  0
 17 29  1  0
 20 30  1  0
M  END
>  <smiles>  (24) 
N#Cc1c(-c2ccsc2)[nH]c(-c2ccccc2)nc1=N

>  <score_type>  (24) 
oracle

>  <origin>  (24) 
adgpu

>  <m_score__min__energy>  (24) 
-7.6900000000000004

>  <m_primary>  (24) 
energy

$$$$
24:0
     RDKit          3D

 25 27  0  0  0  0  0  0  0  0999 V2000
   -8.5730   22.2310  -31.5980 Cl  0  0  0  0  0  0  0  0  0  0  0  0
   -7.0880   23.0890  -31.2290 C   0  0  0  0  0  0  0  0  0  0  0  0
   -5.8620   22.5950  -31.6880 C   0  0  0  0  0  0  0  0  0  0  0  0
   -4.6760   23.2760  -31.3940 C   0  0  0  0  0  0  0  0  0  0  0  0
   -4.7100   24.4710  -30.6480 C   0  0  0  0  0  0  0  0  0  0  0  0
   -3.5150   25.1860  -30.2930 N   0  0  0  0  0  0  0  0  0  0  0  0
   -2.6950   24.8960  -29.3250 C   0  0  0  0  0  0  0  0  0  0  0  0
   -1.6130   25.6700  -29.0550 N   0  0  0  0  0  0  0  0  0  0  0  0
   -1.0360   25.0110  -28.0400 C   0  0  0  0  0  0  0  0  0  0  0  0
    0.1250   25.3540  -27.3500 C   0  0  0  0  0  0  0  0  0  0  0  0
    0.5470   24.4990  -26.3150 C   0  0  0  0  0  0  0  0  0  0  0  0
   -0.1950   23.3370  -26.0000 C   0  0  0  0  0  0  0  0  0  0  0  0
   -1.3630   23.0220  -26.7190 C   0  0  0  0  0  0  0  0  0  0  0  0
   -1.7490   23.8910  -27.7370 C   0  0  0  0  0  0  0  0  0  0  0  0
   -2.8140   23.7870  -28.5450 N   0  0  0  0  0  0  0  0  0  0  0  0
   -5.9400   24.9400  -30.1670 C   0  0  0  0  0  0  0  0  0  0  0  0
   -7.1250   24.2580  -30.4630 C   0  0  0  0  0  0  0  0  0  0  0  0
   -5.8307   21.6692  -32.2813 H   0  0  0  0  0  0  0  0  0  0  0  0
   -3.7133   22.8772  -31.7464 H   0  0  0  0  0  0  0  0  0  0  0  0
    0.6919   26.2614  -27.6054 H   0  0  0  0  0  0  0  0  0  0  0  0
    1.4592   24.7358  -25.7477 H   0  0  0  0  0  0  0  0  0  0  0  0
    0.1427   22.6757  -25.1884 H   0  0  0  0  0  0  0  0  0  0  0  0
   -1.9502   22.1217  -26.4855 H   0  0  0  0  0  0  0  0  0  0  0  0
   -5.9739   25.8514  -29.5520 H   0  0  0  0  0  0  0  0  0  0  0  0
   -8.0870   24.6419  -30.0927 H   0  0  0  0  0  0  0  0  0  0  0  0
  1  2  1  0
  2  3  2  0
  3  4  1  0
  4  5  2  0
  5  6  1  0
  6  7  2  3
  7  8  1  0
  8  9  1  0
  9 10  2  0
 10 11  1  0
 11 12  2  0
 12 13  1  0
 13 14  2  0
 14 15  1  0
  5 16  1  0
 16 17  2  0
 17  2  1  0
 15  7  1  0
 14  9  1  0
  3 18  1  0
  4 19  1  0
 10 20  1  0
 11 21  1  0
 12 22  1  0
 13 23  1  0
 16 24  1  0
 17 25  1  0
M  CHG  2   8  -1  15  -1
M  END
>  <UniqueID>  (25) 
24

>  <SMILES>  (25) 
Clc1ccc(N=c2[n-]c3ccccc3[n-]2)cc1

>  <Energy>  (25) 
68.65201489191402

>  <Genealogy>  (25) 
Clc1ccc(N=c2[n-]c3ccccc3[n-]2)cc1 (protonated)
Clc1ccc(N=c2[n-]c3ccccc3[n-]2)cc1 (3D coordinates assigned)
Clc1ccc(N=c2[n-]c3ccccc3[n-]2)cc1 (optimized conformer: 68.65201489191402 kcal/mol)

>  <smiles>  (25) 
Clc1ccc(N=c2[nH]c3ccccc3[nH]2)cc1

>  <score_type>  (25) 
oracle

>  <origin>  (25) 
adgpu

>  <m_score__min__energy>  (25) 
-9.75

>  <m_primary>  (25) 
energy

$$$$
25:0
     RDKit          3D

 34 35  0  0  0  0  0  0  0  0999 V2000
   -9.2890   22.6440  -31.9860 C   0  0  0  0  0  0  0  0  0  0  0  0
   -7.9840   21.9890  -31.9140 N   0  0  0  0  0  0  0  0  0  0  0  0
   -6.8360   22.7150  -31.4360 C   0  0  0  0  0  0  0  0  0  0  0  0
   -5.5410   22.3510  -31.8430 C   0  0  0  0  0  0  0  0  0  0  0  0
   -4.4260   23.0500  -31.3710 C   0  0  0  0  0  0  0  0  0  0  0  0
   -4.5860   24.1310  -30.4860 C   0  0  0  0  0  0  0  0  0  0  0  0
   -3.4540   24.8510  -29.9680 N   0  0  0  0  0  0  0  0  0  0  0  0
   -2.6910   24.4270  -28.8250 C   0  0  0  0  0  0  0  0  0  0  0  0
   -2.7720   23.2390  -28.4140 O   0  0  0  0  0  0  0  0  0  0  0  0
   -1.7720   25.3530  -28.1440 C   0  0  0  0  0  0  0  0  0  0  0  0
   -1.2510   25.2140  -26.8700 C   0  0  0  0  0  0  0  0  0  0  0  0
   -0.4430   26.3130  -26.6760 C   0  0  0  0  0  0  0  0  0  0  0  0
   -0.5180   27.0530  -27.8390 C   0  0  0  0  0  0  0  0  0  0  0  0
   -1.3150   26.4550  -28.6930 O   0  0  0  0  0  0  0  0  0  0  0  0
   -5.8760   24.4740  -30.0550 C   0  0  0  0  0  0  0  0  0  0  0  0
   -6.9910   23.7760  -30.5280 C   0  0  0  0  0  0  0  0  0  0  0  0
   -7.8230   20.3470  -32.4710 S   0  0  0  0  0  0  0  0  0  0  0  0
   -9.4280   19.5970  -32.6530 C   0  0  0  0  0  0  0  0  0  0  0  0
   -7.0460   19.5400  -31.4680 O   0  0  0  0  0  0  0  0  0  0  0  0
   -7.1000   20.3310  -33.7890 O   0  0  0  0  0  0  0  0  0  0  0  0
   -9.6620   22.8312  -30.9682 H   0  0  0  0  0  0  0  0  0  0  0  0
   -9.1906   23.5995  -32.5220 H   0  0  0  0  0  0  0  0  0  0  0  0
   -9.9964   21.9941  -32.5220 H   0  0  0  0  0  0  0  0  0  0  0  0
   -5.4036   21.5097  -32.5382 H   0  0  0  0  0  0  0  0  0  0  0  0
   -3.4174   22.7525  -31.6939 H   0  0  0  0  0  0  0  0  0  0  0  0
   -3.1110   25.6730  -30.5140 H   0  0  0  0  0  0  0  0  0  0  0  0
   -1.4421   24.3962  -26.1596 H   0  0  0  0  0  0  0  0  0  0  0  0
    0.1432   26.5523  -25.7765 H   0  0  0  0  0  0  0  0  0  0  0  0
    0.0102   28.0003  -28.0221 H   0  0  0  0  0  0  0  0  0  0  0  0
   -6.0113   25.2984  -29.3394 H   0  0  0  0  0  0  0  0  0  0  0  0
   -7.9975   24.0596  -30.1867 H   0  0  0  0  0  0  0  0  0  0  0  0
   -9.8545   19.3977  -31.6588 H   0  0  0  0  0  0  0  0  0  0  0  0
  -10.0907   20.2787  -33.2063 H   0  0  0  0  0  0  0  0  0  0  0  0
   -9.3302   18.6513  -33.2063 H   0  0  0  0  0  0  0  0  0  0  0  0
  1  2  1  0
  2  3  1  0
  3  4  2  0
  4  5  1  0
  5  6  2  0
  6  7  1  0
  7  8  1  0
  8  9  2  0
  8 10  1  0
 10 11  2  0
 11 12  1  0
 12 13  2  0
 13 14  1  0
  6 15  1  0
 15 16  2  0
  2 17  1  0
 17 18  1  0
 17 19  2  0
 17 20  2  0
 16  3  1  0
 14 10  1  0
  1 21  1  0
  1 22  1  0
  1 23  1  0
  4 24  1  0
  5 25  1  0
  7 26  1  0
 11 27  1  0
 12 28  1  0
 13 29  1  0
 15 30  1  0
 16 31  1  0
 18 32  1  0
 18 33  1  0
 18 34  1  0
M  END
>  <UniqueID>  (26) 
25

>  <SMILES>  (26) 
CN(c1ccc(NC(=O)c2ccco2)cc1)S(C)(=O)=O

>  <Energy>  (26) 
63.28251832789378

>  <Genealogy>  (26) 
CN(c1ccc(NC(=O)c2ccco2)cc1)S(C)(=O)=O (3D coordinates assigned)
CN(c1ccc(NC(=O)c2ccco2)cc1)S(C)(=O)=O (optimized conformer: 63.28251832789378 kcal/mol)

>  <smiles>  (26) 
CN(c1ccc(NC(=O)c2ccco2)cc1)S(C)(=O)=O

>  <score_type>  (26) 
oracle

>  <origin>  (26) 
adgpu

>  <m_score__min__energy>  (26) 
-7.5300000000000002

>  <m_primary>  (26) 
energy

$$$$
26:0
     RDKit          3D

 43 45  0  0  0  0  0  0  0  0999 V2000
   -1.7086   26.1881  -23.9679 H   0  0  0  0  0  0  0  0  0  0  0  0
   -1.1240   25.7330  -24.7810 C   0  0  0  0  0  0  0  0  0  0  0  0
   -0.0277   25.6801  -24.7073 H   0  0  0  0  0  0  0  0  0  0  0  0
   -1.7460   25.2440  -25.8590 C   0  0  0  0  0  0  0  0  0  0  0  0
   -1.0120   24.6620  -26.9010 C   0  0  0  0  0  0  0  0  0  0  0  0
    0.0843   24.6048  -26.8309 H   0  0  0  0  0  0  0  0  0  0  0  0
   -1.6620   24.1540  -28.0280 C   0  0  0  0  0  0  0  0  0  0  0  0
   -1.0687   23.6785  -28.8229 H   0  0  0  0  0  0  0  0  0  0  0  0
   -3.0680   24.2380  -28.1690 C   0  0  0  0  0  0  0  0  0  0  0  0
   -3.6760   23.7310  -29.2810 C   0  0  0  0  0  0  0  0  0  0  0  0
   -2.9580   22.5640  -30.2780 S   0  0  0  0  0  0  0  0  0  0  0  0
   -4.2810   22.3620  -31.2810 C   0  0  0  0  0  0  0  0  0  0  0  0
   -4.3150   21.5000  -32.3090 C   0  0  0  0  0  0  0  0  0  0  0  0
   -3.4256   20.8852  -32.5117 H   0  0  0  0  0  0  0  0  0  0  0  0
   -5.4690   21.3470  -33.1580 N   0  0  0  0  0  0  0  0  0  0  0  0
   -6.0790   22.1930  -33.0800 H   0  0  0  0  0  0  0  0  0  0  0  0
   -5.1560   21.2550  -34.1530 H   0  0  0  0  0  0  0  0  0  0  0  0
   -6.2200   20.1760  -32.7710 C   0  0  0  0  0  0  0  0  0  0  0  0
   -5.5920   18.9160  -32.7470 C   0  0  0  0  0  0  0  0  0  0  0  0
   -4.5361   18.8270  -33.0422 H   0  0  0  0  0  0  0  0  0  0  0  0
   -6.2980   17.7800  -32.3520 C   0  0  0  0  0  0  0  0  0  0  0  0
   -5.8010   16.7987  -32.3473 H   0  0  0  0  0  0  0  0  0  0  0  0
   -7.6330   17.8860  -31.9630 C   0  0  0  0  0  0  0  0  0  0  0  0
   -8.1878   16.9876  -31.6547 H   0  0  0  0  0  0  0  0  0  0  0  0
   -8.2670   19.1300  -31.9640 C   0  0  0  0  0  0  0  0  0  0  0  0
   -9.3195   19.2073  -31.6537 H   0  0  0  0  0  0  0  0  0  0  0  0
   -7.5670   20.2870  -32.3600 C   0  0  0  0  0  0  0  0  0  0  0  0
   -8.1720   21.5560  -32.3530 O   0  0  0  0  0  0  0  0  0  0  0  0
   -9.2040   21.9550  -31.4580 C   0  0  0  0  0  0  0  0  0  0  0  0
   -8.8615   21.8226  -30.4211 H   0  0  0  0  0  0  0  0  0  0  0  0
   -9.4502   23.0131  -31.6306 H   0  0  0  0  0  0  0  0  0  0  0  0
  -10.0980   21.3377  -31.6306 H   0  0  0  0  0  0  0  0  0  0  0  0
   -5.2710   23.2440  -30.8390 C   0  0  0  0  0  0  0  0  0  0  0  0
   -6.3970   23.3440  -31.4000 O   0  0  0  0  0  0  0  0  0  0  0  0
   -4.9330   24.0210  -29.7590 N   0  0  0  0  0  0  0  0  0  0  0  0
   -5.7800   25.1530  -29.3560 C   0  0  0  0  0  0  0  0  0  0  0  0
   -5.8209   25.2077  -28.2581 H   0  0  0  0  0  0  0  0  0  0  0  0
   -5.3573   26.0872  -29.7542 H   0  0  0  0  0  0  0  0  0  0  0  0
   -6.7955   25.0111  -29.7542 H   0  0  0  0  0  0  0  0  0  0  0  0
   -3.7940   24.7870  -27.0870 C   0  0  0  0  0  0  0  0  0  0  0  0
   -4.8926   24.8159  -27.1343 H   0  0  0  0  0  0  0  0  0  0  0  0
   -3.1430   25.2940  -25.9580 C   0  0  0  0  0  0  0  0  0  0  0  0
   -3.7323   25.7357  -25.1409 H   0  0  0  0  0  0  0  0  0  0  0  0
  1  2  1  0
  2  3  1  0
  2  4  2  0
  4  5  1  0
  5  6  1  0
  5  7  2  0
  7  8  1  0
  7  9  1  0
  9 10  2  3
 10 11  1  0
 11 12  1  0
 12 13  2  0
 13 14  1  0
 13 15  1  0
 15 16  1  0
 15 17  1  0
 15 18  1  0
 18 19  2  0
 19 20  1  0
 19 21  1  0
 21 22  1  0
 21 23  2  0
 23 24  1  0
 23 25  1  0
 25 26  1  0
 25 27  2  0
 27 28  1  0
 28 29  1  0
 29 30  1  0
 29 31  1  0
 29 32  1  0
 12 33  1  0
 33 34  2  0
 33 35  1  0
 35 36  1  0
 36 37  1  0
 36 38  1  0
 36 39  1  0
  9 40  1  0
 40 41  1  0
 40 42  2  0
 42 43  1  0
 42  4  1  0
 35 10  1  0
 27 18  1  0
M  CHG  1  15   1
M  END
>  <UniqueID>  (27) 
26

>  <SMILES>  (27) 
C=c1ccc(=c2s/c(=C/[NH2+]c3ccccc3OC)c(=O)n2C)cc1

>  <Energy>  (27) 
98.2814442521025

>  <Genealogy>  (27) 
C=c1ccc(=c2sc(=C[NH2+]c3ccccc3OC)c(=O)n2C)cc1 (protonated)
C=c1ccc(=c2s/c(=C/[NH2+]c3ccccc3OC)c(=O)n2C)cc1 (cis-trans isomerization)
C=c1ccc(=c2s/c(=C/[NH2+]c3ccccc3OC)c(=O)n2C)cc1 (3D coordinates assigned)
C=c1ccc(=c2s/c(=C/[NH2+]c3ccccc3OC)c(=O)n2C)cc1 (optimized conformer: 98.2814442521025 kcal/mol)

>  <smiles>  (27) 
C=c1ccc(=c2sc(=CNc3ccccc3OC)c(=O)n2C)cc1

>  <score_type>  (27) 
oracle

>  <origin>  (27) 
adgpu

>  <m_score__min__energy>  (27) 
-7.8499999999999996

>  <m_primary>  (27) 
energy

$$$$
27:0
     RDKit          3D

 30 32  0  0  0  0  0  0  0  0999 V2000
    1.0062   27.0205  -26.9562 H   0  0  0  0  0  0  0  0  0  0  0  0
    0.3920   26.2630  -27.4650 C   0  0  0  0  0  0  0  0  0  0  0  0
    0.8530   24.9950  -27.6140 N   0  0  0  0  0  0  0  0  0  0  0  0
    0.1050   24.0400  -28.2290 C   0  0  0  0  0  0  0  0  0  0  0  0
    0.5006   23.0212  -28.3535 H   0  0  0  0  0  0  0  0  0  0  0  0
   -1.1710   24.3630  -28.7020 C   0  0  0  0  0  0  0  0  0  0  0  0
   -1.9290   23.3760  -29.4190 N   0  0  0  0  0  0  0  0  0  0  0  0
   -3.1450   23.4700  -29.8840 C   0  0  0  0  0  0  0  0  0  0  0  0
   -3.6400   22.4150  -30.6600 C   0  0  0  0  0  0  0  0  0  0  0  0
   -3.0063   21.5387  -30.8612 H   0  0  0  0  0  0  0  0  0  0  0  0
   -4.9410   22.4710  -31.1820 C   0  0  0  0  0  0  0  0  0  0  0  0
   -5.4530   21.3430  -31.9930 C   0  0  0  0  0  0  0  0  0  0  0  0
   -6.6420   20.7650  -31.6600 N   0  0  0  0  0  0  0  0  0  0  0  0
   -7.1560   19.7180  -32.3580 C   0  0  0  0  0  0  0  0  0  0  0  0
   -8.1197   19.2793  -32.0599 H   0  0  0  0  0  0  0  0  0  0  0  0
   -6.4630   19.1990  -33.4520 C   0  0  0  0  0  0  0  0  0  0  0  0
   -6.8732   18.3501  -34.0186 H   0  0  0  0  0  0  0  0  0  0  0  0
   -5.2440   19.7690  -33.8190 C   0  0  0  0  0  0  0  0  0  0  0  0
   -4.6884   19.3716  -34.6812 H   0  0  0  0  0  0  0  0  0  0  0  0
   -4.7290   20.8440  -33.0920 C   0  0  0  0  0  0  0  0  0  0  0  0
   -3.5560   21.4100  -33.4730 F   0  0  0  0  0  0  0  0  0  0  0  0
   -5.7410   23.5930  -30.8960 C   0  0  0  0  0  0  0  0  0  0  0  0
   -7.3680   23.7770  -31.5430 Cl  0  0  0  0  0  0  0  0  0  0  0  0
   -5.2230   24.6150  -30.0970 C   0  0  0  0  0  0  0  0  0  0  0  0
   -5.8454   25.4912  -29.8629 H   0  0  0  0  0  0  0  0  0  0  0  0
   -3.9560   24.5380  -29.6050 N   0  0  0  0  0  0  0  0  0  0  0  0
   -3.6520   25.3060  -28.9700 H   0  0  0  0  0  0  0  0  0  0  0  0
   -1.6150   25.6440  -28.5800 N   0  0  0  0  0  0  0  0  0  0  0  0
   -0.8680   26.5970  -27.9630 C   0  0  0  0  0  0  0  0  0  0  0  0
   -1.2530   27.6220  -27.8572 H   0  0  0  0  0  0  0  0  0  0  0  0
  1  2  1  0
  2  3  2  0
  3  4  1  0
  4  5  1  0
  4  6  2  0
  6  7  1  0
  7  8  2  0
  8  9  1  0
  9 10  1  0
  9 11  2  0
 11 12  1  0
 12 13  2  0
 13 14  1  0
 14 15  1  0
 14 16  2  0
 16 17  1  0
 16 18  1  0
 18 19  1  0
 18 20  2  0
 20 21  1  0
 11 22  1  0
 22 23  1  0
 22 24  2  0
 24 25  1  0
 24 26  1  0
 26 27  1  0
  6 28  1  0
 28 29  2  0
 29 30  1  0
 29  2  1  0
 26  8  1  0
 20 12  1  0
M  END
>  <UniqueID>  (28) 
27

>  <SMILES>  (28) 
Fc1cccnc1-c1c/c(=N/c2cnccn2)[nH]cc1Cl

>  <Energy>  (28) 
50.9214631215122

>  <Genealogy>  (28) 
Fc1cccnc1-c1c/c(=N/c2cnccn2)[nH]cc1Cl (cis-trans isomerization)
Fc1cccnc1-c1c/c(=N/c2cnccn2)[nH]cc1Cl (3D coordinates assigned)
Fc1cccnc1-c1c/c(=N/c2cnccn2)[nH]cc1Cl (optimized conformer: 50.9214631215122 kcal/mol)

>  <smiles>  (28) 
Fc1cccnc1-c1cc(=Nc2cnccn2)[nH]cc1Cl

>  <score_type>  (28) 
oracle

>  <origin>  (28) 
adgpu

>  <m_score__min__energy>  (28) 
-6.9500000000000002

>  <m_primary>  (28) 
energy

$$$$
28:0
     RDKit          3D

 37 40  0  0  0  0  0  0  0  0999 V2000
   -5.4950   26.3710  -30.5770 O   0  0  0  0  0  0  0  0  0  0  0  0
   -4.9070   25.2610  -30.4830 C   0  0  0  0  0  0  0  0  0  0  0  0
   -5.7170   23.9930  -30.5600 C   0  0  0  0  0  0  0  0  0  0  0  0
   -5.0500   23.0040  -31.4050 N   0  0  0  0  0  0  0  0  0  0  0  0
   -3.7370   23.0260  -31.6010 N   0  0  0  0  0  0  0  0  0  0  0  0
   -3.3970   21.9580  -32.3520 C   0  0  0  0  0  0  0  0  0  0  0  0
   -4.5370   21.2380  -32.6240 C   0  0  0  0  0  0  0  0  0  0  0  0
   -5.5710   21.9280  -32.0510 C   0  0  0  0  0  0  0  0  0  0  0  0
   -6.9550   21.3990  -32.1250 C   0  0  0  0  0  0  0  0  0  0  0  0
   -8.1090   22.1200  -31.7730 C   0  0  0  0  0  0  0  0  0  0  0  0
   -9.3680   21.5150  -31.8430 C   0  0  0  0  0  0  0  0  0  0  0  0
   -9.4900   20.1940  -32.2800 C   0  0  0  0  0  0  0  0  0  0  0  0
   -8.3570   19.4820  -32.6770 C   0  0  0  0  0  0  0  0  0  0  0  0
   -7.0960   20.0840  -32.6280 C   0  0  0  0  0  0  0  0  0  0  0  0
   -5.9710   19.3630  -33.0780 O   0  0  0  0  0  0  0  0  0  0  0  0
   -4.7120   19.9720  -33.3970 C   0  0  0  0  0  0  0  0  0  0  0  0
   -3.4870   25.2470  -30.2870 N   0  0  0  0  0  0  0  0  0  0  0  0
   -2.7780   24.5680  -29.2420 C   0  0  0  0  0  0  0  0  0  0  0  0
   -3.4970   24.0710  -28.1470 C   0  0  0  0  0  0  0  0  0  0  0  0
   -2.8330   23.4200  -27.1030 C   0  0  0  0  0  0  0  0  0  0  0  0
   -1.4420   23.2770  -27.1380 C   0  0  0  0  0  0  0  0  0  0  0  0
   -0.7990   22.6470  -26.1260 F   0  0  0  0  0  0  0  0  0  0  0  0
   -0.7160   23.7960  -28.2150 C   0  0  0  0  0  0  0  0  0  0  0  0
   -1.3780   24.4470  -29.2600 C   0  0  0  0  0  0  0  0  0  0  0  0
   -5.8382   23.5800  -29.5477 H   0  0  0  0  0  0  0  0  0  0  0  0
   -6.6990   24.2268  -30.9971 H   0  0  0  0  0  0  0  0  0  0  0  0
   -2.3808   21.7059  -32.6894 H   0  0  0  0  0  0  0  0  0  0  0  0
   -8.0215   23.1650  -31.4409 H   0  0  0  0  0  0  0  0  0  0  0  0
  -10.2652   22.0814  -31.5529 H   0  0  0  0  0  0  0  0  0  0  0  0
  -10.4795   19.7145  -32.3113 H   0  0  0  0  0  0  0  0  0  0  0  0
   -8.4564   18.4447  -33.0293 H   0  0  0  0  0  0  0  0  0  0  0  0
   -3.8982   19.2767  -33.1434 H   0  0  0  0  0  0  0  0  0  0  0  0
   -4.6891   20.2035  -34.4721 H   0  0  0  0  0  0  0  0  0  0  0  0
   -4.5895   24.1936  -28.1085 H   0  0  0  0  0  0  0  0  0  0  0  0
   -3.4052   23.0198  -26.2530 H   0  0  0  0  0  0  0  0  0  0  0  0
    0.3788   23.6916  -28.2397 H   0  0  0  0  0  0  0  0  0  0  0  0
   -0.8018   24.8655  -30.0983 H   0  0  0  0  0  0  0  0  0  0  0  0
  1  2  2  0
  2  3  1  0
  3  4  1  0
  4  5  1  0
  5  6  2  0
  6  7  1  0
  7  8  2  0
  8  9  1  0
  9 10  2  0
 10 11  1  0
 11 12  2  0
 12 13  1  0
 13 14  2  0
 14 15  1  0
 15 16  1  0
  2 17  1  0
 17 18  1  0
 18 19  2  0
 19 20  1  0
 20 21  2  0
 21 22  1  0
 21 23  1  0
 23 24  2  0
  8  4  1  0
 14  9  1  0
 24 18  1  0
 16  7  1  0
  3 25  1  0
  3 26  1  0
  6 27  1  0
 10 28  1  0
 11 29  1  0
 12 30  1  0
 13 31  1  0
 16 32  1  0
 16 33  1  0
 19 34  1  0
 20 35  1  0
 23 36  1  0
 24 37  1  0
M  CHG  1  17  -1
M  END
>  <UniqueID>  (29) 
28

>  <SMILES>  (29) 
O=C(Cn1ncc2c1-c1ccccc1OC2)[N-]c1ccc(F)cc1

>  <Energy>  (29) 
87.4464706823485

>  <Genealogy>  (29) 
O=C(Cn1ncc2c1-c1ccccc1OC2)[N-]c1ccc(F)cc1 (protonated)
O=C(Cn1ncc2c1-c1ccccc1OC2)[N-]c1ccc(F)cc1 (3D coordinates assigned)
O=C(Cn1ncc2c1-c1ccccc1OC2)[N-]c1ccc(F)cc1 (nonaromatic ring conformer: 87.4464706823485 kcal/mol)

>  <smiles>  (29) 
O=C(Cn1ncc2c1-c1ccccc1OC2)Nc1ccc(F)cc1

>  <score_type>  (29) 
oracle

>  <origin>  (29) 
adgpu

>  <m_score__min__energy>  (29) 
-10.210000000000001

>  <m_primary>  (29) 
energy

$$$$
29:0
     RDKit          3D

 32 34  0  0  0  0  0  0  0  0999 V2000
   -1.1910   25.8980  -29.3000 O   0  0  0  0  0  0  0  0  0  0  0  0
   -2.1660   24.9630  -28.9630 C   0  0  0  0  0  0  0  0  0  0  0  0
   -2.0670   24.2220  -27.7790 C   0  0  0  0  0  0  0  0  0  0  0  0
   -3.0510   23.2880  -27.4540 C   0  0  0  0  0  0  0  0  0  0  0  0
   -4.1400   23.0880  -28.3070 C   0  0  0  0  0  0  0  0  0  0  0  0
   -4.2550   23.8240  -29.5010 C   0  0  0  0  0  0  0  0  0  0  0  0
   -5.4020   23.6260  -30.4190 C   0  0  0  0  0  0  0  0  0  0  0  0
   -6.4740   22.7680  -30.2600 C   0  0  0  0  0  0  0  0  0  0  0  0
   -7.2500   22.9360  -31.3440 N   0  0  0  0  0  0  0  0  0  0  0  0
   -8.4630   22.1950  -31.6710 C   0  0  0  0  0  0  0  0  0  0  0  0
   -8.1080   20.7940  -32.0870 C   0  0  0  0  0  0  0  0  0  0  0  0
   -6.9710   20.5560  -32.8750 C   0  0  0  0  0  0  0  0  0  0  0  0
   -6.6190   19.2500  -33.2270 C   0  0  0  0  0  0  0  0  0  0  0  0
   -7.3940   18.1730  -32.7870 C   0  0  0  0  0  0  0  0  0  0  0  0
   -7.0500   16.9060  -33.1270 F   0  0  0  0  0  0  0  0  0  0  0  0
   -8.5190   18.4010  -31.9890 C   0  0  0  0  0  0  0  0  0  0  0  0
   -8.8730   19.7060  -31.6350 C   0  0  0  0  0  0  0  0  0  0  0  0
   -6.6830   23.8300  -32.1360 N   0  0  0  0  0  0  0  0  0  0  0  0
   -5.5580   24.2730  -31.5940 N   0  0  0  0  0  0  0  0  0  0  0  0
   -3.2560   24.7640  -29.8190 C   0  0  0  0  0  0  0  0  0  0  0  0
   -1.2400   26.4240  -30.1650 H   0  0  0  0  0  0  0  0  0  0  0  0
   -1.2122   24.3766  -27.1042 H   0  0  0  0  0  0  0  0  0  0  0  0
   -2.9696   22.7071  -26.5235 H   0  0  0  0  0  0  0  0  0  0  0  0
   -4.9123   22.3504  -28.0433 H   0  0  0  0  0  0  0  0  0  0  0  0
   -6.6552   22.0856  -29.4165 H   0  0  0  0  0  0  0  0  0  0  0  0
   -9.1180   22.1588  -30.7880 H   0  0  0  0  0  0  0  0  0  0  0  0
   -8.9840   22.6985  -32.4987 H   0  0  0  0  0  0  0  0  0  0  0  0
   -6.3547   21.4006  -33.2168 H   0  0  0  0  0  0  0  0  0  0  0  0
   -5.7312   19.0694  -33.8509 H   0  0  0  0  0  0  0  0  0  0  0  0
   -9.1260   17.5528  -31.6395 H   0  0  0  0  0  0  0  0  0  0  0  0
   -9.7539   19.8817  -31.0001 H   0  0  0  0  0  0  0  0  0  0  0  0
   -3.3326   25.3473  -30.7484 H   0  0  0  0  0  0  0  0  0  0  0  0
  1  2  1  0
  2  3  2  0
  3  4  1  0
  4  5  2  0
  5  6  1  0
  6  7  1  0
  7  8  2  0
  8  9  1  0
  9 10  1  0
 10 11  1  0
 11 12  2  0
 12 13  1  0
 13 14  2  0
 14 15  1  0
 14 16  1  0
 16 17  2  0
  9 18  1  0
 18 19  2  0
  6 20  2  0
 20  2  1  0
 19  7  1  0
 17 11  1  0
  1 21  1  0
  3 22  1  0
  4 23  1  0
  5 24  1  0
  8 25  1  0
 10 26  1  0
 10 27  1  0
 12 28  1  0
 13 29  1  0
 16 30  1  0
 17 31  1  0
 20 32  1  0
M  END
>  <UniqueID>  (30) 
29

>  <SMILES>  (30) 
Oc1cccc(-c2cn(Cc3ccc(F)cc3)nn2)c1

>  <Energy>  (30) 
68.82673783859154

>  <Genealogy>  (30) 
Oc1cccc(-c2cn(Cc3ccc(F)cc3)nn2)c1 (3D coordinates assigned)
Oc1cccc(-c2cn(Cc3ccc(F)cc3)nn2)c1 (optimized conformer: 68.82673783859154 kcal/mol)

>  <smiles>  (30) 
Oc1cccc(-c2cn(Cc3ccc(F)cc3)nn2)c1

>  <score_type>  (30) 
oracle

>  <origin>  (30) 
adgpu

>  <m_score__min__energy>  (30) 
-8.5999999999999996

>  <m_primary>  (30) 
energy

$$$$
30:0
     RDKit          3D

 47 50  0  0  0  0  0  0  0  0999 V2000
   -7.2350   23.6730  -32.8220 C   0  0  0  0  0  0  0  0  0  0  0  0
   -6.3130   23.0920  -31.8440 N   0  0  0  0  0  0  0  0  0  0  0  0
   -5.8410   23.9110  -30.7660 C   0  0  0  0  0  0  0  0  0  0  0  0
   -6.6140   24.7780  -30.2730 O   0  0  0  0  0  0  0  0  0  0  0  0
   -4.4340   23.8000  -30.2200 C   0  0  1  0  0  0  0  0  0  0  0  0
   -3.9380   25.1170  -30.1810 O   0  0  0  0  0  0  0  0  0  0  0  0
   -4.4150   23.2610  -28.7620 C   0  0  0  0  0  0  0  0  0  0  0  0
   -3.1660   22.5270  -28.3450 C   0  0  0  0  0  0  0  0  0  0  0  0
   -3.2390   21.1910  -27.9100 C   0  0  0  0  0  0  0  0  0  0  0  0
   -2.0740   20.4910  -27.5830 C   0  0  0  0  0  0  0  0  0  0  0  0
   -0.8290   21.1160  -27.6850 C   0  0  0  0  0  0  0  0  0  0  0  0
   -0.7460   22.4420  -28.1190 C   0  0  0  0  0  0  0  0  0  0  0  0
   -1.9070   23.1440  -28.4550 C   0  0  0  0  0  0  0  0  0  0  0  0
   -3.5380   23.0260  -31.0970 N   0  0  0  0  0  0  0  0  0  0  0  0
   -3.6720   21.8720  -31.6920 C   0  0  0  0  0  0  0  0  0  0  0  0
   -2.5190   21.3750  -32.4840 C   0  0  0  0  0  0  0  0  0  0  0  0
   -2.7120   20.7730  -33.7430 C   0  0  0  0  0  0  0  0  0  0  0  0
   -1.6190   20.3170  -34.4850 C   0  0  0  0  0  0  0  0  0  0  0  0
   -0.3220   20.4610  -33.9830 C   0  0  0  0  0  0  0  0  0  0  0  0
   -0.1180   21.0650  -32.7410 C   0  0  0  0  0  0  0  0  0  0  0  0
   -1.2080   21.5240  -31.9950 C   0  0  0  0  0  0  0  0  0  0  0  0
   -4.9210   21.0670  -31.6260 C   0  0  0  0  0  0  0  0  0  0  0  0
   -4.8350   19.6640  -31.5260 C   0  0  0  0  0  0  0  0  0  0  0  0
   -5.9870   18.8760  -31.5280 C   0  0  0  0  0  0  0  0  0  0  0  0
   -7.2400   19.4750  -31.6360 C   0  0  0  0  0  0  0  0  0  0  0  0
   -7.3430   20.8620  -31.7420 C   0  0  0  0  0  0  0  0  0  0  0  0
   -6.1890   21.6680  -31.7380 C   0  0  0  0  0  0  0  0  0  0  0  0
   -8.0519   24.1878  -32.2950 H   0  0  0  0  0  0  0  0  0  0  0  0
   -6.6940   24.3937  -33.4528 H   0  0  0  0  0  0  0  0  0  0  0  0
   -7.6517   22.8740  -33.4528 H   0  0  0  0  0  0  0  0  0  0  0  0
   -4.6390   25.6990  -29.7820 H   0  0  0  0  0  0  0  0  0  0  0  0
   -4.5437   24.1181  -28.0846 H   0  0  0  0  0  0  0  0  0  0  0  0
   -5.2261   22.5198  -28.7092 H   0  0  0  0  0  0  0  0  0  0  0  0
   -4.2173   20.6950  -27.8268 H   0  0  0  0  0  0  0  0  0  0  0  0
   -2.1378   19.4462  -27.2448 H   0  0  0  0  0  0  0  0  0  0  0  0
    0.0862   20.5646  -27.4237 H   0  0  0  0  0  0  0  0  0  0  0  0
    0.2348   22.9340  -28.1963 H   0  0  0  0  0  0  0  0  0  0  0  0
   -1.8356   24.1837  -28.8070 H   0  0  0  0  0  0  0  0  0  0  0  0
   -3.7299   20.6611  -34.1447 H   0  0  0  0  0  0  0  0  0  0  0  0
   -1.7793   19.8442  -35.4652 H   0  0  0  0  0  0  0  0  0  0  0  0
    0.5372   20.0986  -34.5664 H   0  0  0  0  0  0  0  0  0  0  0  0
    0.9030   21.1801  -32.3482 H   0  0  0  0  0  0  0  0  0  0  0  0
   -1.0396   22.0045  -31.0199 H   0  0  0  0  0  0  0  0  0  0  0  0
   -3.8484   19.1843  -31.4454 H   0  0  0  0  0  0  0  0  0  0  0  0
   -5.9055   17.7822  -31.4443 H   0  0  0  0  0  0  0  0  0  0  0  0
   -8.1481   18.8543  -31.6377 H   0  0  0  0  0  0  0  0  0  0  0  0
   -8.3346   21.3300  -31.8295 H   0  0  0  0  0  0  0  0  0  0  0  0
  1  2  1  0
  2  3  1  0
  3  4  2  0
  3  5  1  0
  5  6  1  1
  5  7  1  0
  7  8  1  0
  8  9  2  0
  9 10  1  0
 10 11  2  0
 11 12  1  0
 12 13  2  0
  5 14  1  0
 14 15  2  0
 15 16  1  0
 16 17  2  0
 17 18  1  0
 18 19  2  0
 19 20  1  0
 20 21  2  0
 15 22  1  0
 22 23  2  0
 23 24  1  0
 24 25  2  0
 25 26  1  0
 26 27  2  0
 27  2  1  0
 13  8  1  0
 21 16  1  0
 27 22  1  0
  1 28  1  0
  1 29  1  0
  1 30  1  0
  6 31  1  0
  7 32  1  0
  7 33  1  0
  9 34  1  0
 10 35  1  0
 11 36  1  0
 12 37  1  0
 13 38  1  0
 17 39  1  0
 18 40  1  0
 19 41  1  0
 20 42  1  0
 21 43  1  0
 23 44  1  0
 24 45  1  0
 25 46  1  0
 26 47  1  0
M  END
>  <UniqueID>  (31) 
30

>  <SMILES>  (31) 
CN1C(=O)[C@@](O)(Cc2ccccc2)N=C(c2ccccc2)c2ccccc21

>  <Energy>  (31) 
72.4198484803239

>  <Genealogy>  (31) 
CN1C(=O)[C@@](O)(Cc2ccccc2)N=C(c2ccccc2)c2ccccc21 (chirality)
CN1C(=O)[C@@](O)(Cc2ccccc2)N=C(c2ccccc2)c2ccccc21 (3D coordinates assigned)
CN1C(=O)[C@@](O)(Cc2ccccc2)N=C(c2ccccc2)c2ccccc21 (nonaromatic ring conformer: 72.4198484803239 kcal/mol)

>  <smiles>  (31) 
CN1C(=O)C(O)(Cc2ccccc2)N=C(c2ccccc2)c2ccccc21

>  <score_type>  (31) 
oracle

>  <origin>  (31) 
adgpu

>  <m_score__min__energy>  (31) 
-7.6799999999999997

>  <m_primary>  (31) 
energy

$$$$
31:0
     RDKit          3D

 44 45  0  0  0  0  0  0  0  0999 V2000
   -3.0280   20.0180  -33.4740 C   0  0  0  0  0  0  0  0  0  0  0  0
   -1.9710   20.3930  -32.4400 C   0  0  0  0  0  0  0  0  0  0  0  0
   -1.8910   21.9110  -32.2560 C   0  0  0  0  0  0  0  0  0  0  0  0
   -2.5240   22.3120  -30.9910 N   0  0  0  0  0  0  0  0  0  0  0  0
   -1.7010   22.8080  -29.8790 C   0  0  0  0  0  0  0  0  0  0  0  0
   -2.3410   22.5260  -28.5100 C   0  0  0  0  0  0  0  0  0  0  0  0
   -2.5890   21.0380  -28.2800 C   0  0  0  0  0  0  0  0  0  0  0  0
   -3.9200   22.6540  -31.0100 C   0  0  0  0  0  0  0  0  0  0  0  0
   -4.8680   21.6780  -31.3290 C   0  0  0  0  0  0  0  0  0  0  0  0
   -6.2300   21.9970  -31.3490 C   0  0  0  0  0  0  0  0  0  0  0  0
   -7.2550   20.9820  -31.6920 C   0  0  0  0  0  0  0  0  0  0  0  0
   -6.9050   19.6650  -31.6970 N   0  0  0  0  0  0  0  0  0  0  0  0
   -7.7910   18.6800  -32.0010 C   0  0  0  0  0  0  0  0  0  0  0  0
   -9.1080   19.0020  -32.3280 C   0  0  0  0  0  0  0  0  0  0  0  0
   -9.4980   20.3410  -32.3470 C   0  0  0  0  0  0  0  0  0  0  0  0
   -8.5740   21.3410  -32.0330 C   0  0  0  0  0  0  0  0  0  0  0  0
   -8.9560   22.6420  -32.1120 F   0  0  0  0  0  0  0  0  0  0  0  0
   -6.6140   23.3180  -31.0770 C   0  0  0  0  0  0  0  0  0  0  0  0
   -5.6830   24.2740  -30.7750 N   0  0  0  0  0  0  0  0  0  0  0  0
   -6.1230   25.6430  -30.4740 C   0  0  0  0  0  0  0  0  0  0  0  0
   -4.3490   23.9600  -30.7290 C   0  0  0  0  0  0  0  0  0  0  0  0
   -3.4980   24.8430  -30.4340 O   0  0  0  0  0  0  0  0  0  0  0  0
   -3.9446   19.6928  -32.9600 H   0  0  0  0  0  0  0  0  0  0  0  0
   -3.2511   20.8918  -34.1038 H   0  0  0  0  0  0  0  0  0  0  0  0
   -2.6505   19.1989  -34.1038 H   0  0  0  0  0  0  0  0  0  0  0  0
   -2.2298   19.9280  -31.4773 H   0  0  0  0  0  0  0  0  0  0  0  0
   -0.9938   20.0329  -32.7942 H   0  0  0  0  0  0  0  0  0  0  0  0
   -0.8350   22.2189  -32.2456 H   0  0  0  0  0  0  0  0  0  0  0  0
   -2.4207   22.3979  -33.0881 H   0  0  0  0  0  0  0  0  0  0  0  0
   -0.7184   22.3152  -29.9186 H   0  0  0  0  0  0  0  0  0  0  0  0
   -1.6076   23.8985  -29.9891 H   0  0  0  0  0  0  0  0  0  0  0  0
   -1.6692   22.8982  -27.7225 H   0  0  0  0  0  0  0  0  0  0  0  0
   -3.3149   23.0367  -28.4831 H   0  0  0  0  0  0  0  0  0  0  0  0
   -2.6229   20.8346  -27.1995 H   0  0  0  0  0  0  0  0  0  0  0  0
   -3.5474   20.7510  -28.7374 H   0  0  0  0  0  0  0  0  0  0  0  0
   -1.7755   20.4557  -28.7374 H   0  0  0  0  0  0  0  0  0  0  0  0
   -4.5418   20.6544  -31.5654 H   0  0  0  0  0  0  0  0  0  0  0  0
   -7.4690   17.6282  -31.9891 H   0  0  0  0  0  0  0  0  0  0  0  0
   -9.8312   18.2087  -32.5683 H   0  0  0  0  0  0  0  0  0  0  0  0
  -10.5321   20.6095  -32.6089 H   0  0  0  0  0  0  0  0  0  0  0  0
   -7.6795   23.5896  -31.1069 H   0  0  0  0  0  0  0  0  0  0  0  0
   -6.1678   25.7824  -29.3838 H   0  0  0  0  0  0  0  0  0  0  0  0
   -5.4103   26.3606  -30.9064 H   0  0  0  0  0  0  0  0  0  0  0  0
   -7.1204   25.8110  -30.9064 H   0  0  0  0  0  0  0  0  0  0  0  0
  1  2  1  0
  2  3  1  0
  3  4  1  0
  4  5  1  0
  5  6  1  0
  6  7  1  0
  4  8  1  0
  8  9  2  0
  9 10  1  0
 10 11  1  0
 11 12  2  0
 12 13  1  0
 13 14  2  0
 14 15  1  0
 15 16  2  0
 16 17  1  0
 10 18  2  0
 18 19  1  0
 19 20  1  0
 19 21  1  0
 21 22  2  0
 21  8  1  0
 16 11  1  0
  1 23  1  0
  1 24  1  0
  1 25  1  0
  2 26  1  0
  2 27  1  0
  3 28  1  0
  3 29  1  0
  5 30  1  0
  5 31  1  0
  6 32  1  0
  6 33  1  0
  7 34  1  0
  7 35  1  0
  7 36  1  0
  9 37  1  0
 13 38  1  0
 14 39  1  0
 15 40  1  0
 18 41  1  0
 20 42  1  0
 20 43  1  0
 20 44  1  0
M  END
>  <UniqueID>  (32) 
31

>  <SMILES>  (32) 
CCCN(CCC)c1cc(-c2ncccc2F)cn(C)c1=O

>  <Energy>  (32) 
47.41988828791876

>  <Genealogy>  (32) 
CCCN(CCC)c1cc(-c2ncccc2F)cn(C)c1=O (3D coordinates assigned)
CCCN(CCC)c1cc(-c2ncccc2F)cn(C)c1=O (optimized conformer: 47.41988828791876 kcal/mol)

>  <smiles>  (32) 
CCCN(CCC)c1cc(-c2ncccc2F)cn(C)c1=O

>  <score_type>  (32) 
oracle

>  <origin>  (32) 
adgpu

>  <m_score__min__energy>  (32) 
-7.2400000000000002

>  <m_primary>  (32) 
energy

$$$$
32:0
     RDKit          3D

 46 49  0  0  0  0  0  0  0  0999 V2000
   -6.0780   17.9320  -33.8830 C   0  0  0  0  0  0  0  0  0  0  0  0
   -6.5610   17.0260  -32.9140 O   0  0  0  0  0  0  0  0  0  0  0  0
   -6.8290   17.7100  -31.7050 C   0  0  0  0  0  0  0  0  0  0  0  0
   -7.8720   18.7120  -31.9070 N   0  0  0  0  0  0  0  0  0  0  0  0
   -9.1420   18.5180  -32.3450 C   0  0  0  0  0  0  0  0  0  0  0  0
   -9.8610   19.6710  -32.4380 N   0  0  0  0  0  0  0  0  0  0  0  0
   -8.9800   20.6070  -32.0390 C   0  0  0  0  0  0  0  0  0  0  0  0
   -9.1640   21.9790  -31.9290 C   0  0  0  0  0  0  0  0  0  0  0  0
   -8.0710   22.7440  -31.4830 C   0  0  0  0  0  0  0  0  0  0  0  0
   -6.8330   22.1090  -31.1700 C   0  0  0  0  0  0  0  0  0  0  0  0
   -5.6600   22.8860  -30.6940 C   0  0  0  0  0  0  0  0  0  0  0  0
   -5.8390   24.1920  -30.2040 C   0  0  0  0  0  0  0  0  0  0  0  0
   -4.7480   24.9360  -29.7460 C   0  0  0  0  0  0  0  0  0  0  0  0
   -3.4530   24.3910  -29.7710 C   0  0  0  0  0  0  0  0  0  0  0  0
   -2.3190   25.1260  -29.2800 N   0  0  0  0  0  0  0  0  0  0  0  0
   -1.9810   25.2470  -27.8900 C   0  0  0  0  0  0  0  0  0  0  0  0
   -2.8600   25.0670  -27.0060 O   0  0  0  0  0  0  0  0  0  0  0  0
   -0.6740   25.6740  -27.4880 N   0  0  0  0  0  0  0  0  0  0  0  0
   -0.3560   26.3920  -26.2880 C   0  0  0  0  0  0  0  0  0  0  0  0
   -0.5370   25.8220  -25.0140 C   0  0  0  0  0  0  0  0  0  0  0  0
   -0.2410   26.5620  -23.8650 C   0  0  0  0  0  0  0  0  0  0  0  0
    0.2200   27.8760  -23.9760 C   0  0  0  0  0  0  0  0  0  0  0  0
    0.3780   28.4560  -25.2380 C   0  0  0  0  0  0  0  0  0  0  0  0
    0.8130   29.7360  -25.3460 F   0  0  0  0  0  0  0  0  0  0  0  0
    0.0820   27.7190  -26.3900 C   0  0  0  0  0  0  0  0  0  0  0  0
   -3.2780   23.0770  -30.2260 C   0  0  0  0  0  0  0  0  0  0  0  0
   -4.3660   22.3320  -30.6860 C   0  0  0  0  0  0  0  0  0  0  0  0
   -6.7250   20.7470  -31.2920 N   0  0  0  0  0  0  0  0  0  0  0  0
   -7.7940   20.0340  -31.7210 C   0  0  0  0  0  0  0  0  0  0  0  0
   -5.6177   18.7954  -33.3804 H   0  0  0  0  0  0  0  0  0  0  0  0
   -5.3274   17.4307  -34.5118 H   0  0  0  0  0  0  0  0  0  0  0  0
   -6.9125   18.2758  -34.5118 H   0  0  0  0  0  0  0  0  0  0  0  0
   -7.1630   16.9872  -30.9461 H   0  0  0  0  0  0  0  0  0  0  0  0
   -5.9107   18.2138  -31.3691 H   0  0  0  0  0  0  0  0  0  0  0  0
   -9.5497   17.5285  -32.5994 H   0  0  0  0  0  0  0  0  0  0  0  0
  -10.1262   22.4489  -32.1806 H   0  0  0  0  0  0  0  0  0  0  0  0
   -8.1714   23.8341  -31.3755 H   0  0  0  0  0  0  0  0  0  0  0  0
   -6.8469   24.6320  -30.1810 H   0  0  0  0  0  0  0  0  0  0  0  0
   -4.9042   25.9554  -29.3633 H   0  0  0  0  0  0  0  0  0  0  0  0
   -1.7560   25.6770  -29.9660 H   0  0  0  0  0  0  0  0  0  0  0  0
   -0.9122   24.7921  -24.9219 H   0  0  0  0  0  0  0  0  0  0  0  0
   -0.3715   26.1084  -22.8714 H   0  0  0  0  0  0  0  0  0  0  0  0
    0.4585   28.4539  -23.0709 H   0  0  0  0  0  0  0  0  0  0  0  0
    0.1937   28.1838  -27.3807 H   0  0  0  0  0  0  0  0  0  0  0  0
   -2.2738   22.6281  -30.2207 H   0  0  0  0  0  0  0  0  0  0  0  0
   -4.2105   21.3039  -31.0450 H   0  0  0  0  0  0  0  0  0  0  0  0
  1  2  1  0
  2  3  1  0
  3  4  1  0
  4  5  1  0
  5  6  2  0
  6  7  1  0
  7  8  2  0
  8  9  1  0
  9 10  2  0
 10 11  1  0
 11 12  2  0
 12 13  1  0
 13 14  2  0
 14 15  1  0
 15 16  1  0
 16 17  2  0
 16 18  1  0
 18 19  1  0
 19 20  2  0
 20 21  1  0
 21 22  2  0
 22 23  1  0
 23 24  1  0
 23 25  2  0
 14 26  1  0
 26 27  2  0
 10 28  1  0
 28 29  2  0
 29  4  1  0
 29  7  1  0
 27 11  1  0
 25 19  1  0
  1 30  1  0
  1 31  1  0
  1 32  1  0
  3 33  1  0
  3 34  1  0
  5 35  1  0
  8 36  1  0
  9 37  1  0
 12 38  1  0
 13 39  1  0
 15 40  1  0
 20 41  1  0
 21 42  1  0
 22 43  1  0
 25 44  1  0
 26 45  1  0
 27 46  1  0
M  CHG  1  18  -1
M  END
>  <UniqueID>  (33) 
32

>  <SMILES>  (33) 
COCn1cnc2ccc(-c3ccc(NC(=O)[N-]c4cccc(F)c4)cc3)nc21

>  <Energy>  (33) 
101.79830746985616

>  <Genealogy>  (33) 
COCn1cnc2ccc(-c3ccc(NC(=O)[N-]c4cccc(F)c4)cc3)nc21 (protonated)
COCn1cnc2ccc(-c3ccc(NC(=O)[N-]c4cccc(F)c4)cc3)nc21 (3D coordinates assigned)
COCn1cnc2ccc(-c3ccc(NC(=O)[N-]c4cccc(F)c4)cc3)nc21 (optimized conformer: 101.79830746985616 kcal/mol)

>  <smiles>  (33) 
COCn1cnc2ccc(-c3ccc(NC(=O)Nc4cccc(F)c4)cc3)nc21

>  <score_type>  (33) 
oracle

>  <origin>  (33) 
adgpu

>  <m_score__min__energy>  (33) 
-9.9000000000000004

>  <m_primary>  (33) 
energy

$$$$
33:0
     RDKit          3D

 29 30  0  0  0  0  0  0  0  0999 V2000
   -6.1040   25.5900  -29.7130 C   0  0  0  0  0  0  0  0  0  0  0  0
   -5.2920   24.8340  -30.7350 C   0  0  0  0  0  0  0  0  0  0  0  0
   -6.1450   24.1780  -31.8080 C   0  0  0  0  0  0  0  0  0  0  0  0
   -5.9250   22.8720  -32.1600 N   0  0  0  0  0  0  0  0  0  0  0  0
   -5.7050   21.5670  -32.5130 C   0  0  0  0  0  0  0  0  0  0  0  0
   -4.5740   20.9830  -33.0420 C   0  0  0  0  0  0  0  0  0  0  0  0
   -4.4810   19.6720  -33.4600 C   0  0  0  0  0  0  0  0  0  0  0  0
   -5.5890   18.8930  -33.3450 C   0  0  0  0  0  0  0  0  0  0  0  0
   -6.7530   19.3830  -32.8340 C   0  0  0  0  0  0  0  0  0  0  0  0
   -7.8460   18.5530  -32.7170 C   0  0  0  0  0  0  0  0  0  0  0  0
   -9.0410   18.9830  -32.1910 C   0  0  0  0  0  0  0  0  0  0  0  0
   -9.1140   20.2960  -31.7750 C   0  0  0  0  0  0  0  0  0  0  0  0
   -8.0120   21.1070  -31.9000 C   0  0  0  0  0  0  0  0  0  0  0  0
   -6.8120   20.6910  -32.4260 C   0  0  0  0  0  0  0  0  0  0  0  0
   -5.7871   25.2950  -28.7018 H   0  0  0  0  0  0  0  0  0  0  0  0
   -5.9465   26.6705  -29.8460 H   0  0  0  0  0  0  0  0  0  0  0  0
   -7.1705   25.3558  -29.8460 H   0  0  0  0  0  0  0  0  0  0  0  0
   -4.5984   25.5365  -31.2202 H   0  0  0  0  0  0  0  0  0  0  0  0
   -4.7604   24.0315  -30.2027 H   0  0  0  0  0  0  0  0  0  0  0  0
   -7.1886   24.2424  -31.4663 H   0  0  0  0  0  0  0  0  0  0  0  0
   -5.8732   24.7324  -32.7184 H   0  0  0  0  0  0  0  0  0  0  0  0
   -5.7610   23.2670  -33.4210 H   0  0  0  0  0  0  0  0  0  0  0  0
   -3.6762   21.6112  -33.1382 H   0  0  0  0  0  0  0  0  0  0  0  0
   -3.5432   19.2709  -33.8719 H   0  0  0  0  0  0  0  0  0  0  0  0
   -5.5448   17.8436  -33.6718 H   0  0  0  0  0  0  0  0  0  0  0  0
   -7.7596   17.5102  -33.0562 H   0  0  0  0  0  0  0  0  0  0  0  0
   -9.9045   18.3070  -32.1053 H   0  0  0  0  0  0  0  0  0  0  0  0
  -10.0471   20.6907  -31.3466 H   0  0  0  0  0  0  0  0  0  0  0  0
   -8.0948   22.1497  -31.5594 H   0  0  0  0  0  0  0  0  0  0  0  0
  1  2  1  0
  2  3  1  0
  3  4  1  0
  4  5  1  0
  5  6  2  0
  6  7  1  0
  7  8  2  0
  8  9  1  0
  9 10  2  0
 10 11  1  0
 11 12  2  0
 12 13  1  0
 13 14  2  0
 14  5  1  0
 14  9  1  0
  1 15  1  0
  1 16  1  0
  1 17  1  0
  2 18  1  0
  2 19  1  0
  3 20  1  0
  3 21  1  0
  4 22  1  0
  6 23  1  0
  7 24  1  0
  8 25  1  0
 10 26  1  0
 11 27  1  0
 12 28  1  0
 13 29  1  0
M  END
>  <UniqueID>  (34) 
33

>  <SMILES>  (34) 
CCCNc1cccc2ccccc12

>  <Energy>  (34) 
182.53992031461306

>  <Genealogy>  (34) 
CCCNc1cccc2ccccc12 (3D coordinates assigned)
CCCNc1cccc2ccccc12 (optimized conformer: 182.53992031461306 kcal/mol)

>  <smiles>  (34) 
CCCNc1cccc2ccccc12

>  <score_type>  (34) 
oracle

>  <origin>  (34) 
adgpu

>  <m_score__min__energy>  (34) 
-6.5099999999999998

>  <m_primary>  (34) 
energy

$$$$
34:0
     RDKit          3D

 28 30  0  0  0  0  0  0  0  0999 V2000
   -3.1070   25.6690  -30.3920 H   0  0  0  0  0  0  0  0  0  0  0  0
   -3.4930   24.7950  -30.8160 N   0  0  0  0  0  0  0  0  0  0  0  0
   -4.7220   24.4290  -30.6380 C   0  0  0  0  0  0  0  0  0  0  0  0
   -5.1690   23.2840  -31.2150 N   0  0  0  0  0  0  0  0  0  0  0  0
   -6.4490   22.8560  -31.0470 C   0  0  0  0  0  0  0  0  0  0  0  0
   -6.8820   21.6560  -31.7030 N   0  0  0  0  0  0  0  0  0  0  0  0
   -8.1610   21.3020  -31.7870 N   0  0  0  0  0  0  0  0  0  0  0  0
   -8.2330   20.1310  -32.4610 C   0  0  0  0  0  0  0  0  0  0  0  0
   -9.5090   19.4400  -32.8120 C   0  0  0  0  0  0  0  0  0  0  0  0
  -10.0368   19.1542  -31.8902 H   0  0  0  0  0  0  0  0  0  0  0  0
  -10.1429   20.1181  -33.4022 H   0  0  0  0  0  0  0  0  0  0  0  0
   -9.2875   18.5386  -33.4022 H   0  0  0  0  0  0  0  0  0  0  0  0
   -6.9590   19.7540  -32.8360 C   0  0  0  0  0  0  0  0  0  0  0  0
   -6.4820   18.6850  -33.5910 C   0  0  0  0  0  0  0  0  0  0  0  0
   -7.1608   17.9071  -33.9706 H   0  0  0  0  0  0  0  0  0  0  0  0
   -5.1010   18.6370  -33.8500 C   0  0  0  0  0  0  0  0  0  0  0  0
   -4.6836   17.8007  -34.4300 H   0  0  0  0  0  0  0  0  0  0  0  0
   -4.2440   19.6550  -33.3710 C   0  0  0  0  0  0  0  0  0  0  0  0
   -2.9200   19.6080  -33.6520 F   0  0  0  0  0  0  0  0  0  0  0  0
   -4.7630   20.7280  -32.6200 C   0  0  0  0  0  0  0  0  0  0  0  0
   -4.1102   21.5369  -32.2599 H   0  0  0  0  0  0  0  0  0  0  0  0
   -6.1340   20.7320  -32.3470 C   0  0  0  0  0  0  0  0  0  0  0  0
   -7.3370   23.6340  -30.2960 C   0  0  0  0  0  0  0  0  0  0  0  0
   -8.3856   23.3260  -30.1714 H   0  0  0  0  0  0  0  0  0  0  0  0
   -6.8660   24.8070  -29.7090 C   0  0  0  0  0  0  0  0  0  0  0  0
   -7.5430   25.4284  -29.1045 H   0  0  0  0  0  0  0  0  0  0  0  0
   -5.5710   25.1850  -29.8820 N   0  0  0  0  0  0  0  0  0  0  0  0
   -5.2380   26.0690  -29.4350 H   0  0  0  0  0  0  0  0  0  0  0  0
  1  2  1  0
  2  3  2  0
  3  4  1  0
  4  5  2  0
  5  6  1  0
  6  7  1  0
  7  8  2  0
  8  9  1  0
  9 10  1  0
  9 11  1  0
  9 12  1  0
  8 13  1  0
 13 14  2  0
 14 15  1  0
 14 16  1  0
 16 17  1  0
 16 18  2  0
 18 19  1  0
 18 20  1  0
 20 21  1  0
 20 22  2  0
  5 23  1  0
 23 24  1  0
 23 25  2  0
 25 26  1  0
 25 27  1  0
 27 28  1  0
 27  3  1  0
 22  6  1  0
 22 13  1  0
M  END
>  <UniqueID>  (35) 
34

>  <SMILES>  (35) 
[H]/N=c1/nc(-n2nc(C)c3ccc(F)cc32)cc[nH]1

>  <Energy>  (35) 
74.02771126331763

>  <Genealogy>  (35) 
[H]/N=c1/nc(-n2nc(C)c3ccc(F)cc32)cc[nH]1 (cis-trans isomerization)
[H]/N=c1/nc(-n2nc(C)c3ccc(F)cc32)cc[nH]1 (3D coordinates assigned)
[H]/N=c1/nc(-n2nc(C)c3ccc(F)cc32)cc[nH]1 (optimized conformer: 74.02771126331763 kcal/mol)

>  <smiles>  (35) 
Cc1nn(-c2cc[nH]c(=N)n2)c2cc(F)ccc12

>  <score_type>  (35) 
oracle

>  <origin>  (35) 
adgpu

>  <m_score__min__energy>  (35) 
-7.7999999999999998

>  <m_primary>  (35) 
energy

$$$$
35:0
     RDKit          3D

 29 30  0  0  0  0  0  0  0  0999 V2000
   -8.3240   21.4100  -31.6850 C   0  0  0  0  0  0  0  0  0  0  0  0
   -7.7320   20.1410  -32.2340 C   0  0  0  0  0  0  0  0  0  0  0  0
   -8.5060   18.9690  -32.2520 C   0  0  0  0  0  0  0  0  0  0  0  0
   -7.9790   17.7760  -32.7520 C   0  0  0  0  0  0  0  0  0  0  0  0
   -6.6670   17.7380  -33.2290 C   0  0  0  0  0  0  0  0  0  0  0  0
   -6.0000   16.2340  -33.8390 Cl  0  0  0  0  0  0  0  0  0  0  0  0
   -5.8820   18.8930  -33.2090 C   0  0  0  0  0  0  0  0  0  0  0  0
   -6.4040   20.1050  -32.7220 C   0  0  0  0  0  0  0  0  0  0  0  0
   -5.5750   21.2800  -32.6680 N   0  0  0  0  0  0  0  0  0  0  0  0
   -4.4830   21.4370  -31.7490 C   0  0  0  0  0  0  0  0  0  0  0  0
   -4.0570   20.4540  -31.0840 O   0  0  0  0  0  0  0  0  0  0  0  0
   -3.8460   22.7790  -31.5660 C   0  0  0  0  0  0  0  0  0  0  0  0
   -4.8120   23.7140  -30.9120 C   0  0  0  0  0  0  0  0  0  0  0  0
   -6.1550   23.4600  -30.6720 C   0  0  0  0  0  0  0  0  0  0  0  0
   -6.8320   24.5530  -30.1190 C   0  0  0  0  0  0  0  0  0  0  0  0
   -6.0290   25.6710  -29.9350 C   0  0  0  0  0  0  0  0  0  0  0  0
   -4.4750   25.3010  -30.4660 S   0  0  0  0  0  0  0  0  0  0  0  0
   -8.3083   21.3763  -30.5856 H   0  0  0  0  0  0  0  0  0  0  0  0
   -7.7344   22.2706  -32.0339 H   0  0  0  0  0  0  0  0  0  0  0  0
   -9.3623   21.5112  -32.0339 H   0  0  0  0  0  0  0  0  0  0  0  0
   -9.5368   18.9909  -31.8687 H   0  0  0  0  0  0  0  0  0  0  0  0
   -8.5974   16.8664  -32.7700 H   0  0  0  0  0  0  0  0  0  0  0  0
   -4.8462   18.8545  -33.5774 H   0  0  0  0  0  0  0  0  0  0  0  0
   -5.7500   22.0490  -33.3520 H   0  0  0  0  0  0  0  0  0  0  0  0
   -2.9524   22.6756  -30.9329 H   0  0  0  0  0  0  0  0  0  0  0  0
   -3.5598   23.1819  -32.5487 H   0  0  0  0  0  0  0  0  0  0  0  0
   -6.6385   22.4972  -30.8939 H   0  0  0  0  0  0  0  0  0  0  0  0
   -7.8996   24.5288  -29.8550 H   0  0  0  0  0  0  0  0  0  0  0  0
   -6.3532   26.6342  -29.5140 H   0  0  0  0  0  0  0  0  0  0  0  0
  1  2  1  0
  2  3  2  0
  3  4  1  0
  4  5  2  0
  5  6  1  0
  5  7  1  0
  7  8  2  0
  8  9  1  0
  9 10  1  0
 10 11  2  0
 10 12  1  0
 12 13  1  0
 13 14  2  0
 14 15  1  0
 15 16  2  0
 16 17  1  0
  8  2  1  0
 17 13  1  0
  1 18  1  0
  1 19  1  0
  1 20  1  0
  3 21  1  0
  4 22  1  0
  7 23  1  0
  9 24  1  0
 12 25  1  0
 12 26  1  0
 14 27  1  0
 15 28  1  0
 16 29  1  0
M  END
>  <UniqueID>  (36) 
35

>  <SMILES>  (36) 
Cc1ccc(Cl)cc1NC(=O)Cc1cccs1

>  <Energy>  (36) 
55.95446793214015

>  <Genealogy>  (36) 
Cc1ccc(Cl)cc1NC(=O)Cc1cccs1 (3D coordinates assigned)
Cc1ccc(Cl)cc1NC(=O)Cc1cccs1 (optimized conformer: 55.95446793214015 kcal/mol)

>  <smiles>  (36) 
Cc1ccc(Cl)cc1NC(=O)Cc1cccs1

>  <score_type>  (36) 
oracle

>  <origin>  (36) 
adgpu

>  <m_score__min__energy>  (36) 
-7.2000000000000002

>  <m_primary>  (36) 
energy

$$$$
36:0
     RDKit          3D

 24 24  0  0  0  0  0  0  0  0999 V2000
   -9.0130   22.3810  -31.9570 C   0  0  0  0  0  0  0  0  0  0  0  0
   -7.8620   21.7030  -31.2180 C   0  0  0  0  0  0  0  0  0  0  0  0
   -6.7030   22.6540  -31.0470 C   0  0  0  0  0  0  0  0  0  0  0  0
   -6.9140   23.8950  -30.4260 C   0  0  0  0  0  0  0  0  0  0  0  0
   -5.8540   24.7880  -30.2280 C   0  0  0  0  0  0  0  0  0  0  0  0
   -6.0950   26.0510  -29.5970 N   0  0  0  0  0  0  0  0  0  0  0  0
   -4.5630   24.4300  -30.6470 C   0  0  0  0  0  0  0  0  0  0  0  0
   -3.4940   25.3010  -30.4630 O   0  0  0  0  0  0  0  0  0  0  0  0
   -4.3410   23.1910  -31.2540 C   0  0  0  0  0  0  0  0  0  0  0  0
   -5.4030   22.2890  -31.4540 C   0  0  0  0  0  0  0  0  0  0  0  0
   -5.2030   21.0310  -32.0470 O   0  0  0  0  0  0  0  0  0  0  0  0
   -4.2700   20.7670  -33.0900 C   0  0  0  0  0  0  0  0  0  0  0  0
   -9.7220   22.7986  -31.2270 H   0  0  0  0  0  0  0  0  0  0  0  0
   -8.6173   23.1903  -32.5882 H   0  0  0  0  0  0  0  0  0  0  0  0
   -9.5290   21.6426  -32.5882 H   0  0  0  0  0  0  0  0  0  0  0  0
   -8.2112   21.3777  -30.2269 H   0  0  0  0  0  0  0  0  0  0  0  0
   -7.5248   20.8375  -31.8073 H   0  0  0  0  0  0  0  0  0  0  0  0
   -7.9250   24.1694  -30.0906 H   0  0  0  0  0  0  0  0  0  0  0  0
   -5.3130   26.7250  -29.4390 H   0  0  0  0  0  0  0  0  0  0  0  0
   -7.0510   26.3250  -29.2800 H   0  0  0  0  0  0  0  0  0  0  0  0
   -3.3262   22.9178  -31.5788 H   0  0  0  0  0  0  0  0  0  0  0  0
   -3.2989   20.4922  -32.6524 H   0  0  0  0  0  0  0  0  0  0  0  0
   -4.6397   19.9382  -33.7116 H   0  0  0  0  0  0  0  0  0  0  0  0
   -4.1507   21.6666  -33.7116 H   0  0  0  0  0  0  0  0  0  0  0  0
  1  2  1  0
  2  3  1  0
  3  4  2  0
  4  5  1  0
  5  6  1  0
  5  7  2  0
  7  8  1  0
  7  9  1  0
  9 10  2  0
 10 11  1  0
 11 12  1  0
 10  3  1  0
  1 13  1  0
  1 14  1  0
  1 15  1  0
  2 16  1  0
  2 17  1  0
  4 18  1  0
  6 19  1  0
  6 20  1  0
  9 21  1  0
 12 22  1  0
 12 23  1  0
 12 24  1  0
M  CHG  1   8  -1
M  END
>  <UniqueID>  (37) 
36

>  <SMILES>  (37) 
CCc1cc(N)c([O-])cc1OC

>  <Energy>  (37) 
18.515025658401203

>  <Genealogy>  (37) 
CCc1cc(N)c([O-])cc1OC (protonated)
CCc1cc(N)c([O-])cc1OC (3D coordinates assigned)
CCc1cc(N)c([O-])cc1OC (optimized conformer: 18.515025658401203 kcal/mol)

>  <smiles>  (37) 
CCc1cc(N)c(O)cc1OC

>  <score_type>  (37) 
oracle

>  <origin>  (37) 
adgpu

>  <m_score__min__energy>  (37) 
-8.0199999999999996

>  <m_primary>  (37) 
energy

$$$$
37:0
     RDKit          3D

 27 28  0  0  0  0  0  0  0  0999 V2000
   -2.8500   20.8140  -27.8330 C   0  0  0  0  0  0  0  0  0  0  0  0
   -3.1660   22.0960  -28.5460 C   0  0  0  0  0  0  0  0  0  0  0  0
   -2.7140   23.3200  -28.0310 C   0  0  0  0  0  0  0  0  0  0  0  0
   -2.9660   24.5090  -28.7190 C   0  0  0  0  0  0  0  0  0  0  0  0
   -3.6660   24.4890  -29.9340 C   0  0  0  0  0  0  0  0  0  0  0  0
   -3.8730   25.6750  -30.6380 O   0  0  0  0  0  0  0  0  0  0  0  0
   -4.1360   23.2650  -30.4500 C   0  0  0  0  0  0  0  0  0  0  0  0
   -4.8390   23.1920  -31.6590 O   0  0  0  0  0  0  0  0  0  0  0  0
   -6.0190   22.4600  -31.8630 C   0  0  0  0  0  0  0  0  0  0  0  0
   -7.2680   22.9130  -31.3970 C   0  0  0  0  0  0  0  0  0  0  0  0
   -8.4180   22.1460  -31.6080 C   0  0  0  0  0  0  0  0  0  0  0  0
   -8.3300   20.9210  -32.2750 C   0  0  0  0  0  0  0  0  0  0  0  0
   -7.0900   20.4580  -32.7260 C   0  0  0  0  0  0  0  0  0  0  0  0
   -7.0050   19.2670  -33.3660 F   0  0  0  0  0  0  0  0  0  0  0  0
   -5.9390   21.2240  -32.5150 C   0  0  0  0  0  0  0  0  0  0  0  0
   -3.8560   22.0740  -29.7660 C   0  0  0  0  0  0  0  0  0  0  0  0
   -2.8907   20.9792  -26.7462 H   0  0  0  0  0  0  0  0  0  0  0  0
   -3.5859   20.0466  -28.1150 H   0  0  0  0  0  0  0  0  0  0  0  0
   -1.8418   20.4765  -28.1150 H   0  0  0  0  0  0  0  0  0  0  0  0
   -2.1589   23.3434  -27.0816 H   0  0  0  0  0  0  0  0  0  0  0  0
   -2.6137   25.4657  -28.3059 H   0  0  0  0  0  0  0  0  0  0  0  0
   -4.1980   25.6740  -31.5970 H   0  0  0  0  0  0  0  0  0  0  0  0
   -7.3394   23.8733  -30.8653 H   0  0  0  0  0  0  0  0  0  0  0  0
   -9.3929   22.5072  -31.2486 H   0  0  0  0  0  0  0  0  0  0  0  0
   -9.2362   20.3211  -32.4452 H   0  0  0  0  0  0  0  0  0  0  0  0
   -4.9641   20.8526  -32.8638 H   0  0  0  0  0  0  0  0  0  0  0  0
   -4.1809   21.1127  -30.1907 H   0  0  0  0  0  0  0  0  0  0  0  0
  1  2  1  0
  2  3  2  0
  3  4  1  0
  4  5  2  0
  5  6  1  0
  5  7  1  0
  7  8  1  0
  8  9  1  0
  9 10  2  0
 10 11  1  0
 11 12  2  0
 12 13  1  0
 13 14  1  0
 13 15  2  0
  7 16  2  0
 16  2  1  0
 15  9  1  0
  1 17  1  0
  1 18  1  0
  1 19  1  0
  3 20  1  0
  4 21  1  0
  6 22  1  0
 10 23  1  0
 11 24  1  0
 12 25  1  0
 15 26  1  0
 16 27  1  0
M  END
>  <UniqueID>  (38) 
37

>  <SMILES>  (38) 
Cc1ccc(O)c(Oc2cccc(F)c2)c1

>  <Energy>  (38) 
34.237271178449404

>  <Genealogy>  (38) 
Cc1ccc(O)c(Oc2cccc(F)c2)c1 (3D coordinates assigned)
Cc1ccc(O)c(Oc2cccc(F)c2)c1 (optimized conformer: 34.237271178449404 kcal/mol)

>  <smiles>  (38) 
Cc1ccc(O)c(Oc2cccc(F)c2)c1

>  <score_type>  (38) 
oracle

>  <origin>  (38) 
adgpu

>  <m_score__min__energy>  (38) 
-7.2400000000000002

>  <m_primary>  (38) 
energy

$$$$
38:0
     RDKit          3D

 44 46  0  0  0  0  0  0  0  0999 V2000
    0.5700   23.0560  -24.1200 C   0  0  0  0  0  0  0  0  0  0  0  0
   -0.4380   23.8650  -24.8970 C   0  0  0  0  0  0  0  0  0  0  0  0
   -0.7350   25.1670  -24.4640 C   0  0  0  0  0  0  0  0  0  0  0  0
   -1.6520   25.9540  -25.1570 C   0  0  0  0  0  0  0  0  0  0  0  0
   -2.3000   25.4450  -26.2810 C   0  0  0  0  0  0  0  0  0  0  0  0
   -2.0360   24.1460  -26.7290 C   0  0  0  0  0  0  0  0  0  0  0  0
   -2.7590   23.6570  -27.8700 N   0  0  0  0  0  0  0  0  0  0  0  0
   -2.7780   24.3590  -29.1210 C   0  0  0  0  0  0  0  0  0  0  0  0
   -1.9620   25.2980  -29.3270 O   0  0  0  0  0  0  0  0  0  0  0  0
   -3.7010   23.9670  -30.2010 C   0  0  0  0  0  0  0  0  0  0  0  0
   -4.5040   24.8430  -30.8410 N   0  0  0  0  0  0  0  0  0  0  0  0
   -5.1740   24.1610  -31.7580 N   0  0  0  0  0  0  0  0  0  0  0  0
   -4.8430   22.8790  -31.7180 N   0  0  0  0  0  0  0  0  0  0  0  0
   -5.3650   21.8820  -32.6500 C   0  0  0  0  0  0  0  0  0  0  0  0
   -6.8050   21.5770  -32.3340 C   0  0  0  0  0  0  0  0  0  0  0  0
   -7.2710   20.2530  -32.3950 C   0  0  0  0  0  0  0  0  0  0  0  0
   -8.6020   19.9600  -32.0790 C   0  0  0  0  0  0  0  0  0  0  0  0
   -9.4730   20.9840  -31.6980 C   0  0  0  0  0  0  0  0  0  0  0  0
   -9.0150   22.3030  -31.6320 C   0  0  0  0  0  0  0  0  0  0  0  0
   -7.6870   22.6010  -31.9480 C   0  0  0  0  0  0  0  0  0  0  0  0
   -3.9250   22.7120  -30.7440 C   0  0  0  0  0  0  0  0  0  0  0  0
   -3.2780   21.4100  -30.3690 C   0  0  0  0  0  0  0  0  0  0  0  0
   -1.0550   23.3580  -26.0710 C   0  0  0  0  0  0  0  0  0  0  0  0
   -0.6770   21.9960  -26.6080 C   0  0  0  0  0  0  0  0  0  0  0  0
    0.3984   23.1938  -23.0422 H   0  0  0  0  0  0  0  0  0  0  0  0
    0.4613   21.9916  -24.3755 H   0  0  0  0  0  0  0  0  0  0  0  0
    1.5856   23.3925  -24.3755 H   0  0  0  0  0  0  0  0  0  0  0  0
   -0.2387   25.5697  -23.5687 H   0  0  0  0  0  0  0  0  0  0  0  0
   -1.8649   26.9782  -24.8168 H   0  0  0  0  0  0  0  0  0  0  0  0
   -3.0260   26.0705  -26.8211 H   0  0  0  0  0  0  0  0  0  0  0  0
   -3.0570   22.6560  -27.8640 H   0  0  0  0  0  0  0  0  0  0  0  0
   -5.2930   22.2714  -33.6762 H   0  0  0  0  0  0  0  0  0  0  0  0
   -4.7740   20.9590  -32.5557 H   0  0  0  0  0  0  0  0  0  0  0  0
   -6.5872   19.4442  -32.6922 H   0  0  0  0  0  0  0  0  0  0  0  0
   -8.9632   18.9223  -32.1305 H   0  0  0  0  0  0  0  0  0  0  0  0
  -10.5193   20.7521  -31.4500 H   0  0  0  0  0  0  0  0  0  0  0  0
   -9.7015   23.1080  -31.3307 H   0  0  0  0  0  0  0  0  0  0  0  0
   -7.3307   23.6403  -31.8945 H   0  0  0  0  0  0  0  0  0  0  0  0
   -3.2353   21.3240  -29.2732 H   0  0  0  0  0  0  0  0  0  0  0  0
   -3.8667   20.5764  -30.7795 H   0  0  0  0  0  0  0  0  0  0  0  0
   -2.2581   21.3758  -30.7795 H   0  0  0  0  0  0  0  0  0  0  0  0
   -0.4868   21.3108  -25.7687 H   0  0  0  0  0  0  0  0  0  0  0  0
   -1.5000   21.6030  -27.2230 H   0  0  0  0  0  0  0  0  0  0  0  0
    0.2308   22.0834  -27.2230 H   0  0  0  0  0  0  0  0  0  0  0  0
  1  2  1  0
  2  3  2  0
  3  4  1  0
  4  5  2  0
  5  6  1  0
  6  7  1  0
  7  8  1  0
  8  9  2  0
  8 10  1  0
 10 11  1  0
 11 12  2  0
 12 13  1  0
 13 14  1  0
 14 15  1  0
 15 16  2  0
 16 17  1  0
 17 18  2  0
 18 19  1  0
 19 20  2  0
 13 21  1  0
 21 22  1  0
  6 23  2  0
 23 24  1  0
 23  2  1  0
 21 10  2  0
 20 15  1  0
  1 25  1  0
  1 26  1  0
  1 27  1  0
  3 28  1  0
  4 29  1  0
  5 30  1  0
  7 31  1  0
 14 32  1  0
 14 33  1  0
 16 34  1  0
 17 35  1  0
 18 36  1  0
 19 37  1  0
 20 38  1  0
 22 39  1  0
 22 40  1  0
 22 41  1  0
 24 42  1  0
 24 43  1  0
 24 44  1  0
M  END
>  <UniqueID>  (39) 
38

>  <SMILES>  (39) 
Cc1cccc(NC(=O)c2nnn(Cc3ccccc3)c2C)c1C

>  <Energy>  (39) 
88.05622319300535

>  <Genealogy>  (39) 
Cc1cccc(NC(=O)c2nnn(Cc3ccccc3)c2C)c1C (3D coordinates assigned)
Cc1cccc(NC(=O)c2nnn(Cc3ccccc3)c2C)c1C (optimized conformer: 88.05622319300535 kcal/mol)

>  <smiles>  (39) 
Cc1cccc(NC(=O)c2nnn(Cc3ccccc3)c2C)c1C

>  <score_type>  (39) 
oracle

>  <origin>  (39) 
adgpu

>  <m_score__min__energy>  (39) 
-9.2799999999999994

>  <m_primary>  (39) 
energy

$$$$
39:0
     RDKit          3D

 32 34  0  0  0  0  0  0  0  0999 V2000
   -2.6673   22.1674  -26.8823 H   0  0  0  0  0  0  0  0  0  0  0  0
   -2.3620   23.0510  -27.4620 C   0  0  0  0  0  0  0  0  0  0  0  0
   -3.1060   23.4560  -28.5260 N   0  0  0  0  0  0  0  0  0  0  0  0
   -2.7650   24.5470  -29.2730 C   0  0  0  0  0  0  0  0  0  0  0  0
   -3.4860   24.9250  -30.2880 N   0  0  0  0  0  0  0  0  0  0  0  0
   -4.6860   24.2980  -30.7650 C   0  0  0  0  0  0  0  0  0  0  0  0
   -4.7640   23.0220  -31.2010 N   0  0  0  0  0  0  0  0  0  0  0  0
   -6.0250   22.6880  -31.5950 C   0  0  0  0  0  0  0  0  0  0  0  0
   -6.3400   21.3270  -32.1040 C   0  0  0  0  0  0  0  0  0  0  0  0
   -5.4990   20.7260  -33.0580 C   0  0  0  0  0  0  0  0  0  0  0  0
   -4.6125   21.2677  -33.4195 H   0  0  0  0  0  0  0  0  0  0  0  0
   -5.7770   19.4480  -33.5520 C   0  0  0  0  0  0  0  0  0  0  0  0
   -5.1075   18.9911  -34.2956 H   0  0  0  0  0  0  0  0  0  0  0  0
   -6.9080   18.7440  -33.1030 C   0  0  0  0  0  0  0  0  0  0  0  0
   -7.2300   17.4600  -33.5680 O   0  0  0  0  0  0  0  0  0  0  0  0
   -6.2760   16.4350  -33.8220 C   0  0  0  0  0  0  0  0  0  0  0  0
   -5.9041   16.0354  -32.8670 H   0  0  0  0  0  0  0  0  0  0  0  0
   -6.7507   15.6267  -34.3977 H   0  0  0  0  0  0  0  0  0  0  0  0
   -5.4358   16.8506  -34.3977 H   0  0  0  0  0  0  0  0  0  0  0  0
   -7.7490   19.3400  -32.1590 C   0  0  0  0  0  0  0  0  0  0  0  0
   -8.6370   18.7976  -31.8024 H   0  0  0  0  0  0  0  0  0  0  0  0
   -7.4740   20.6180  -31.6630 C   0  0  0  0  0  0  0  0  0  0  0  0
   -8.1485   21.0730  -30.9227 H   0  0  0  0  0  0  0  0  0  0  0  0
   -6.9600   23.7220  -31.4620 C   0  0  0  0  0  0  0  0  0  0  0  0
   -8.0280   23.6622  -31.7187 H   0  0  0  0  0  0  0  0  0  0  0  0
   -6.1690   25.0720  -30.8420 S   0  0  0  0  0  0  0  0  0  0  0  0
   -1.6160   25.2750  -28.9400 C   0  0  0  0  0  0  0  0  0  0  0  0
   -1.3283   26.1564  -29.5319 H   0  0  0  0  0  0  0  0  0  0  0  0
   -0.8380   24.8750  -27.8520 C   0  0  0  0  0  0  0  0  0  0  0  0
    0.0668   25.4402  -27.5839 H   0  0  0  0  0  0  0  0  0  0  0  0
   -1.2110   23.7560  -27.1050 C   0  0  0  0  0  0  0  0  0  0  0  0
   -0.6052   23.4336  -26.2453 H   0  0  0  0  0  0  0  0  0  0  0  0
  1  2  1  0
  2  3  1  0
  3  4  1  0
  4  5  2  0
  5  6  1  0
  6  7  2  0
  7  8  1  0
  8  9  1  0
  9 10  2  0
 10 11  1  0
 10 12  1  0
 12 13  1  0
 12 14  2  0
 14 15  1  0
 15 16  1  0
 16 17  1  0
 16 18  1  0
 16 19  1  0
 14 20  1  0
 20 21  1  0
 20 22  2  0
 22 23  1  0
  8 24  2  0
 24 25  1  0
 24 26  1  0
  4 27  1  0
 27 28  1  0
 27 29  2  0
 29 30  1  0
 29 31  1  0
 31 32  1  0
 31  2  2  0
 26  6  1  0
 22  9  1  0
M  CHG  1   3  -1
M  END
>  <UniqueID>  (40) 
39

>  <SMILES>  (40) 
COc1ccc(-c2csc(/N=c3/cccc[n-]3)n2)cc1

>  <Energy>  (40) 
69.12928673294103

>  <Genealogy>  (40) 
COc1ccc(-c2csc(N=c3cccc[n-]3)n2)cc1 (protonated)
COc1ccc(-c2csc(/N=c3/cccc[n-]3)n2)cc1 (cis-trans isomerization)
COc1ccc(-c2csc(/N=c3/cccc[n-]3)n2)cc1 (3D coordinates assigned)
COc1ccc(-c2csc(/N=c3/cccc[n-]3)n2)cc1 (optimized conformer: 69.12928673294103 kcal/mol)

>  <smiles>  (40) 
COc1ccc(-c2csc(N=c3cccc[nH]3)n2)cc1

>  <score_type>  (40) 
oracle

>  <origin>  (40) 
adgpu

>  <m_score__min__energy>  (40) 
-8.1300000000000008

>  <m_primary>  (40) 
energy

$$$$
40:0
     RDKit          3D

 59 63  0  0  0  0  0  0  0  0999 V2000
    2.6860   23.2140  -35.2710 O   0  0  0  0  0  0  0  0  0  0  0  0
    1.5320   22.7220  -35.3910 C   0  0  0  0  0  0  0  0  0  0  0  0
    1.3130   21.3760  -34.9530 N   0  0  0  0  0  0  0  0  0  0  0  0
    0.0430   20.7880  -34.6370 C   0  0  0  0  0  0  0  0  0  0  0  0
   -0.9240   21.5700  -33.9970 C   0  0  0  0  0  0  0  0  0  0  0  0
   -2.1590   21.0210  -33.6430 C   0  0  0  0  0  0  0  0  0  0  0  0
   -2.4440   19.6680  -33.9130 C   0  0  0  0  0  0  0  0  0  0  0  0
   -3.7550   19.0840  -33.5410 C   0  0  0  0  0  0  0  0  0  0  0  0
   -4.8010   19.8890  -33.2170 N   0  0  0  0  0  0  0  0  0  0  0  0
   -6.0060   19.3620  -32.8730 C   0  0  0  0  0  0  0  0  0  0  0  0
   -7.1070   20.2270  -32.5200 N   0  0  0  0  0  0  0  0  0  0  0  0
   -8.4860   19.7650  -32.7220 C   0  0  0  0  0  0  0  0  0  0  0  0
   -9.4550   20.5530  -31.8350 C   0  0  0  0  0  0  0  0  0  0  0  0
   -9.2530   21.9440  -31.9810 O   0  0  0  0  0  0  0  0  0  0  0  0
   -7.9770   22.2870  -31.4800 C   0  0  0  0  0  0  0  0  0  0  0  0
   -6.8700   21.6660  -32.3370 C   0  0  0  0  0  0  0  0  0  0  0  0
   -6.1580   18.0120  -32.8610 N   0  0  0  0  0  0  0  0  0  0  0  0
   -5.1250   17.1910  -33.1850 C   0  0  0  0  0  0  0  0  0  0  0  0
   -5.2970   15.7580  -33.1710 N   0  0  0  0  0  0  0  0  0  0  0  0
   -6.3540   15.1430  -33.9860 C   0  0  0  0  0  0  0  0  0  0  0  0
   -6.0260   13.6750  -34.2700 C   0  0  0  0  0  0  0  0  0  0  0  0
   -5.7160   12.9910  -33.0730 O   0  0  0  0  0  0  0  0  0  0  0  0
   -4.5140   13.5050  -32.5370 C   0  0  0  0  0  0  0  0  0  0  0  0
   -4.6920   14.9610  -32.0950 C   0  0  0  0  0  0  0  0  0  0  0  0
   -3.9260   17.7360  -33.5210 N   0  0  0  0  0  0  0  0  0  0  0  0
   -1.4570   18.8790  -34.5300 C   0  0  0  0  0  0  0  0  0  0  0  0
   -0.2210   19.4300  -34.8780 C   0  0  0  0  0  0  0  0  0  0  0  0
    0.4560   23.5100  -35.9280 N   0  0  0  0  0  0  0  0  0  0  0  0
    0.6090   24.8520  -36.4170 C   0  0  0  0  0  0  0  0  0  0  0  0
   -0.5040   25.7010  -36.4680 C   0  0  0  0  0  0  0  0  0  0  0  0
   -0.3640   27.0150  -36.9180 C   0  0  0  0  0  0  0  0  0  0  0  0
    0.8970   27.4770  -37.2980 C   0  0  0  0  0  0  0  0  0  0  0  0
    1.9750   26.6520  -37.2190 N   0  0  0  0  0  0  0  0  0  0  0  0
    1.8640   25.3670  -36.7890 C   0  0  0  0  0  0  0  0  0  0  0  0
   -0.7106   22.6251  -33.7707 H   0  0  0  0  0  0  0  0  0  0  0  0
   -2.9146   21.6500  -33.1497 H   0  0  0  0  0  0  0  0  0  0  0  0
   -8.7641   19.9078  -33.7767 H   0  0  0  0  0  0  0  0  0  0  0  0
   -8.5458   18.7001  -32.4530 H   0  0  0  0  0  0  0  0  0  0  0  0
  -10.4879   20.3067  -32.1223 H   0  0  0  0  0  0  0  0  0  0  0  0
   -9.2731   20.2792  -30.7853 H   0  0  0  0  0  0  0  0  0  0  0  0
   -7.8686   23.3816  -31.4890 H   0  0  0  0  0  0  0  0  0  0  0  0
   -7.8862   21.9011  -30.4539 H   0  0  0  0  0  0  0  0  0  0  0  0
   -6.8544   22.1583  -33.3206 H   0  0  0  0  0  0  0  0  0  0  0  0
   -5.9050   21.8058  -31.8278 H   0  0  0  0  0  0  0  0  0  0  0  0
   -7.3095   15.2022  -33.4442 H   0  0  0  0  0  0  0  0  0  0  0  0
   -6.4260   15.6829  -34.9417 H   0  0  0  0  0  0  0  0  0  0  0  0
   -6.8952   13.1962  -34.7445 H   0  0  0  0  0  0  0  0  0  0  0  0
   -5.1534   13.6309  -34.9382 H   0  0  0  0  0  0  0  0  0  0  0  0
   -4.2185   12.8983  -31.6683 H   0  0  0  0  0  0  0  0  0  0  0  0
   -3.7370   13.4659  -33.3147 H   0  0  0  0  0  0  0  0  0  0  0  0
   -5.3451   14.9930  -31.2105 H   0  0  0  0  0  0  0  0  0  0  0  0
   -3.7045   15.3817  -31.8544 H   0  0  0  0  0  0  0  0  0  0  0  0
   -1.6598   17.8186  -34.7406 H   0  0  0  0  0  0  0  0  0  0  0  0
    0.5490   18.7969  -35.3430 H   0  0  0  0  0  0  0  0  0  0  0  0
   -0.4840   23.0680  -36.0340 H   0  0  0  0  0  0  0  0  0  0  0  0
   -1.4909   25.3313  -36.1526 H   0  0  0  0  0  0  0  0  0  0  0  0
   -1.2388   27.6797  -36.9726 H   0  0  0  0  0  0  0  0  0  0  0  0
    1.0187   28.5081  -37.6613 H   0  0  0  0  0  0  0  0  0  0  0  0
    2.7579   24.7285  -36.7319 H   0  0  0  0  0  0  0  0  0  0  0  0
  1  2  2  0
  2  3  1  0
  3  4  1  0
  4  5  2  0
  5  6  1  0
  6  7  2  0
  7  8  1  0
  8  9  2  0
  9 10  1  0
 10 11  1  0
 11 12  1  0
 12 13  1  0
 13 14  1  0
 14 15  1  0
 15 16  1  0
 10 17  2  0
 17 18  1  0
 18 19  1  0
 19 20  1  0
 20 21  1  0
 21 22  1  0
 22 23  1  0
 23 24  1  0
 18 25  2  0
  7 26  1  0
 26 27  2  0
  2 28  1  0
 28 29  1  0
 29 30  2  0
 30 31  1  0
 31 32  2  0
 32 33  1  0
 33 34  2  0
 27  4  1  0
 34 29  1  0
 25  8  1  0
 16 11  1  0
 24 19  1  0
  5 35  1  0
  6 36  1  0
 12 37  1  0
 12 38  1  0
 13 39  1  0
 13 40  1  0
 15 41  1  0
 15 42  1  0
 16 43  1  0
 16 44  1  0
 20 45  1  0
 20 46  1  0
 21 47  1  0
 21 48  1  0
 23 49  1  0
 23 50  1  0
 24 51  1  0
 24 52  1  0
 26 53  1  0
 27 54  1  0
 28 55  1  0
 30 56  1  0
 31 57  1  0
 32 58  1  0
 34 59  1  0
M  CHG  1   3  -1
M  END
>  <UniqueID>  (41) 
40

>  <SMILES>  (41) 
O=C([N-]c1ccc(-c2nc(N3CCOCC3)nc(N3CCOCC3)n2)cc1)Nc1cccnc1

>  <Energy>  (41) 
77.4851886258603

>  <Genealogy>  (41) 
O=C([N-]c1ccc(-c2nc(N3CCOCC3)nc(N3CCOCC3)n2)cc1)Nc1cccnc1 (protonated)
O=C([N-]c1ccc(-c2nc(N3CCOCC3)nc(N3CCOCC3)n2)cc1)Nc1cccnc1 (3D coordinates assigned)
O=C([N-]c1ccc(-c2nc(N3CCOCC3)nc(N3CCOCC3)n2)cc1)Nc1cccnc1 (nonaromatic ring conformer: 77.4851886258603 kcal/mol)

>  <smiles>  (41) 
O=C(Nc1ccc(-c2nc(N3CCOCC3)nc(N3CCOCC3)n2)cc1)Nc1cccnc1

>  <score_type>  (41) 
oracle

>  <origin>  (41) 
adgpu

>  <m_score__min__energy>  (41) 
-8.8300000000000001

>  <m_primary>  (41) 
energy

$$$$
41:0
     RDKit          3D

 30 32  0  0  0  0  0  0  0  0999 V2000
   -3.1460   24.2790  -29.8350 F   0  0  0  0  0  0  0  0  0  0  0  0
   -4.4640   24.2410  -30.1490 C   0  0  0  0  0  0  0  0  0  0  0  0
   -5.3910   24.9230  -29.3540 C   0  0  0  0  0  0  0  0  0  0  0  0
   -6.7510   24.8700  -29.6680 C   0  0  0  0  0  0  0  0  0  0  0  0
   -7.1870   24.1440  -30.7800 C   0  0  0  0  0  0  0  0  0  0  0  0
   -6.2630   23.4750  -31.5980 C   0  0  0  0  0  0  0  0  0  0  0  0
   -6.7360   22.7120  -32.7210 N   0  0  0  0  0  0  0  0  0  0  0  0
   -6.8930   21.2820  -32.7240 C   0  0  0  0  0  0  0  0  0  0  0  0
   -7.8700   20.6550  -31.9310 C   0  0  0  0  0  0  0  0  0  0  0  0
   -7.9920   19.2630  -31.9230 C   0  0  0  0  0  0  0  0  0  0  0  0
   -7.1290   18.4750  -32.6950 C   0  0  0  0  0  0  0  0  0  0  0  0
   -7.2420   17.0760  -32.6940 C   0  0  0  0  0  0  0  0  0  0  0  0
   -6.3690   16.3000  -33.4630 C   0  0  0  0  0  0  0  0  0  0  0  0
   -5.3800   16.9140  -34.2360 C   0  0  0  0  0  0  0  0  0  0  0  0
   -5.2550   18.3060  -34.2450 C   0  0  0  0  0  0  0  0  0  0  0  0
   -6.1250   19.0960  -33.4780 C   0  0  0  0  0  0  0  0  0  0  0  0
   -6.0110   20.4940  -33.4790 C   0  0  0  0  0  0  0  0  0  0  0  0
   -4.8960   23.5140  -31.2630 C   0  0  0  0  0  0  0  0  0  0  0  0
   -5.0493   25.5005  -28.4824 H   0  0  0  0  0  0  0  0  0  0  0  0
   -7.4806   25.4008  -29.0387 H   0  0  0  0  0  0  0  0  0  0  0  0
   -8.2605   24.0966  -31.0155 H   0  0  0  0  0  0  0  0  0  0  0  0
   -6.9850   23.2310  -33.5940 H   0  0  0  0  0  0  0  0  0  0  0  0
   -8.5439   21.2652  -31.3117 H   0  0  0  0  0  0  0  0  0  0  0  0
   -8.7685   18.7844  -31.3082 H   0  0  0  0  0  0  0  0  0  0  0  0
   -8.0192   16.5888  -32.0868 H   0  0  0  0  0  0  0  0  0  0  0  0
   -6.4610   15.2039  -33.4594 H   0  0  0  0  0  0  0  0  0  0  0  0
   -4.6968   16.2990  -34.8401 H   0  0  0  0  0  0  0  0  0  0  0  0
   -4.4733   18.7831  -34.8543 H   0  0  0  0  0  0  0  0  0  0  0  0
   -5.2236   20.9766  -34.0766 H   0  0  0  0  0  0  0  0  0  0  0  0
   -4.1650   22.9706  -31.8798 H   0  0  0  0  0  0  0  0  0  0  0  0
  1  2  1  0
  2  3  2  0
  3  4  1  0
  4  5  2  0
  5  6  1  0
  6  7  1  0
  7  8  1  0
  8  9  2  0
  9 10  1  0
 10 11  2  0
 11 12  1  0
 12 13  2  0
 13 14  1  0
 14 15  2  0
 15 16  1  0
 16 17  2  0
  6 18  2  0
 18  2  1  0
 17  8  1  0
 16 11  1  0
  3 19  1  0
  4 20  1  0
  5 21  1  0
  7 22  1  0
  9 23  1  0
 10 24  1  0
 12 25  1  0
 13 26  1  0
 14 27  1  0
 15 28  1  0
 17 29  1  0
 18 30  1  0
M  END
>  <UniqueID>  (42) 
41

>  <SMILES>  (42) 
Fc1cccc(Nc2ccc3ccccc3c2)c1

>  <Energy>  (42) 
41.23361128051841

>  <Genealogy>  (42) 
Fc1cccc(Nc2ccc3ccccc3c2)c1 (3D coordinates assigned)
Fc1cccc(Nc2ccc3ccccc3c2)c1 (optimized conformer: 41.23361128051841 kcal/mol)

>  <smiles>  (42) 
Fc1cccc(Nc2ccc3ccccc3c2)c1

>  <score_type>  (42) 
oracle

>  <origin>  (42) 
adgpu

>  <m_score__min__energy>  (42) 
-7.5599999999999996

>  <m_primary>  (42) 
energy

$$$$
42:0
     RDKit          3D

 24 25  0  0  0  0  0  0  0  0999 V2000
  -10.5300   19.7399  -32.6713 H   0  0  0  0  0  0  0  0  0  0  0  0
   -9.4900   19.8860  -32.3440 C   0  0  0  0  0  0  0  0  0  0  0  0
   -8.7110   18.7830  -31.9830 C   0  0  0  0  0  0  0  0  0  0  0  0
   -9.1321   17.7688  -32.0469 H   0  0  0  0  0  0  0  0  0  0  0  0
   -7.3950   18.9670  -31.5400 C   0  0  0  0  0  0  0  0  0  0  0  0
   -6.5870   17.8250  -31.2290 N   0  0  0  0  0  0  0  0  0  0  0  0
   -5.9120   17.0420  -32.0320 C   0  0  0  0  0  0  0  0  0  0  0  0
   -5.7070   17.3050  -33.4200 C   0  0  0  0  0  0  0  0  0  0  0  0
   -6.0840   18.5360  -34.0740 C   0  0  0  0  0  0  0  0  0  0  0  0
   -6.3790   19.5210  -34.6070 N   0  0  0  0  0  0  0  0  0  0  0  0
   -5.0010   16.3700  -34.1880 C   0  0  0  0  0  0  0  0  0  0  0  0
   -4.8503   16.5486  -35.2629 H   0  0  0  0  0  0  0  0  0  0  0  0
   -4.4890   15.2170  -33.6010 C   0  0  0  0  0  0  0  0  0  0  0  0
   -3.9470   14.4774  -34.2086 H   0  0  0  0  0  0  0  0  0  0  0  0
   -4.6700   15.0100  -32.2380 C   0  0  0  0  0  0  0  0  0  0  0  0
   -4.2541   14.1103  -31.7608 H   0  0  0  0  0  0  0  0  0  0  0  0
   -5.3590   15.9150  -31.4920 N   0  0  0  0  0  0  0  0  0  0  0  0
   -5.4810   15.7200  -30.4720 H   0  0  0  0  0  0  0  0  0  0  0  0
   -6.8430   20.2570  -31.5200 C   0  0  0  0  0  0  0  0  0  0  0  0
   -5.7947   20.4005  -31.2191 H   0  0  0  0  0  0  0  0  0  0  0  0
   -7.6230   21.3620  -31.8820 C   0  0  0  0  0  0  0  0  0  0  0  0
   -6.9280   22.9730  -31.8250 Cl  0  0  0  0  0  0  0  0  0  0  0  0
   -8.9500   21.1750  -32.2900 C   0  0  0  0  0  0  0  0  0  0  0  0
   -9.7150   22.2380  -32.6440 F   0  0  0  0  0  0  0  0  0  0  0  0
  1  2  1  0
  2  3  2  0
  3  4  1  0
  3  5  1  0
  5  6  1  0
  6  7  2  0
  7  8  1  0
  8  9  1  0
  9 10  3  0
  8 11  2  0
 11 12  1  0
 11 13  1  0
 13 14  1  0
 13 15  2  0
 15 16  1  0
 15 17  1  0
 17 18  1  0
  5 19  2  0
 19 20  1  0
 19 21  1  0
 21 22  1  0
 21 23  2  0
 23 24  1  0
 23  2  1  0
 17  7  1  0
M  END
>  <UniqueID>  (43) 
42

>  <SMILES>  (43) 
N#Cc1ccc[nH]/c1=N/c1ccc(F)c(Cl)c1

>  <Energy>  (43) 
40.568030654855455

>  <Genealogy>  (43) 
N#Cc1ccc[nH]/c1=N/c1ccc(F)c(Cl)c1 (cis-trans isomerization)
N#Cc1ccc[nH]/c1=N/c1ccc(F)c(Cl)c1 (3D coordinates assigned)
N#Cc1ccc[nH]/c1=N/c1ccc(F)c(Cl)c1 (optimized conformer: 40.568030654855455 kcal/mol)

>  <smiles>  (43) 
N#Cc1ccc[nH]c1=Nc1ccc(F)c(Cl)c1

>  <score_type>  (43) 
oracle

>  <origin>  (43) 
adgpu

>  <m_score__min__energy>  (43) 
-6.5599999999999996

>  <m_primary>  (43) 
energy

$$$$
43:0
     RDKit          3D

 26 29  0  0  0  0  0  0  0  0999 V2000
   -2.2910   21.1740  -32.9980 Cl  0  0  0  0  0  0  0  0  0  0  0  0
   -3.7290   21.8750  -32.2780 C   0  0  0  0  0  0  0  0  0  0  0  0
   -3.6430   23.0450  -31.5910 N   0  0  0  0  0  0  0  0  0  0  0  0
   -4.7390   23.6310  -31.0290 C   0  0  0  0  0  0  0  0  0  0  0  0
   -4.6090   24.8590  -30.3730 C   0  0  0  0  0  0  0  0  0  0  0  0
   -5.7400   25.5090  -29.8770 C   0  0  0  0  0  0  0  0  0  0  0  0
   -7.0050   24.9510  -30.0650 C   0  0  0  0  0  0  0  0  0  0  0  0
   -7.1500   23.7200  -30.7120 C   0  0  0  0  0  0  0  0  0  0  0  0
   -6.0130   23.0120  -31.1510 C   0  0  0  0  0  0  0  0  0  0  0  0
   -6.0630   21.7870  -31.7720 N   0  0  0  0  0  0  0  0  0  0  0  0
   -4.9680   21.2470  -32.3670 C   0  0  0  0  0  0  0  0  0  0  0  0
   -5.1900   20.0600  -32.9810 N   0  0  0  0  0  0  0  0  0  0  0  0
   -6.4920   19.8410  -32.7270 C   0  0  0  0  0  0  0  0  0  0  0  0
   -7.2220   18.7080  -33.0750 C   0  0  0  0  0  0  0  0  0  0  0  0
   -8.5420   18.6040  -32.6060 C   0  0  0  0  0  0  0  0  0  0  0  0
   -9.0810   19.6070  -31.7750 C   0  0  0  0  0  0  0  0  0  0  0  0
   -8.3200   20.7380  -31.4290 C   0  0  0  0  0  0  0  0  0  0  0  0
   -7.0290   20.8580  -31.9710 C   0  0  0  0  0  0  0  0  0  0  0  0
   -3.6149   25.3129  -30.2478 H   0  0  0  0  0  0  0  0  0  0  0  0
   -5.6341   26.4618  -29.3375 H   0  0  0  0  0  0  0  0  0  0  0  0
   -7.8957   25.4841  -29.7011 H   0  0  0  0  0  0  0  0  0  0  0  0
   -8.1541   23.3029  -30.8789 H   0  0  0  0  0  0  0  0  0  0  0  0
   -6.7785   17.9178  -33.6986 H   0  0  0  0  0  0  0  0  0  0  0  0
   -9.1572   17.7369  -32.8882 H   0  0  0  0  0  0  0  0  0  0  0  0
  -10.1075   19.5040  -31.3932 H   0  0  0  0  0  0  0  0  0  0  0  0
   -8.7237   21.5066  -30.7535 H   0  0  0  0  0  0  0  0  0  0  0  0
  1  2  1  0
  2  3  2  0
  3  4  1  0
  4  5  2  0
  5  6  1  0
  6  7  2  0
  7  8  1  0
  8  9  2  0
  9 10  1  0
 10 11  1  0
 11 12  2  0
 12 13  1  0
 13 14  2  0
 14 15  1  0
 15 16  2  0
 16 17  1  0
 17 18  2  0
 11  2  1  0
 18 13  1  0
  9  4  1  0
 18 10  1  0
  5 19  1  0
  6 20  1  0
  7 21  1  0
  8 22  1  0
 14 23  1  0
 15 24  1  0
 16 25  1  0
 17 26  1  0
M  END
>  <UniqueID>  (44) 
43

>  <SMILES>  (44) 
Clc1nc2ccccc2n2c1nc1ccccc12

>  <Energy>  (44) 
86.67004422768494

>  <Genealogy>  (44) 
Clc1nc2ccccc2n2c1nc1ccccc12 (3D coordinates assigned)
Clc1nc2ccccc2n2c1nc1ccccc12 (optimized conformer: 86.67004422768494 kcal/mol)

>  <smiles>  (44) 
Clc1nc2ccccc2n2c1nc1ccccc12

>  <score_type>  (44) 
oracle

>  <origin>  (44) 
adgpu

>  <m_score__min__energy>  (44) 
-7.7300000000000004

>  <m_primary>  (44) 
energy

$$$$
44:0
     RDKit          3D

 30 31  0  0  0  0  0  0  0  0999 V2000
   -1.7820   25.2750  -27.6190 N   0  0  0  0  0  0  0  0  0  0  0  0
   -3.5110   24.1050  -30.4150 C   0  0  0  0  0  0  0  0  0  0  0  0
   -1.3100   23.4500  -29.0000 C   0  0  0  0  0  0  0  0  0  0  0  0
   -1.6920   22.7030  -30.1060 C   0  0  0  0  0  0  0  0  0  0  0  0
   -2.7980   23.0230  -30.8250 N   0  0  0  0  0  0  0  0  0  0  0  0
   -3.2400   22.2930  -31.9710 C   0  0  0  0  0  0  0  0  0  0  0  0
   -4.6140   21.7350  -31.7970 C   0  0  0  0  0  0  0  0  0  0  0  0
   -4.7160   20.6230  -31.2740 O   0  0  0  0  0  0  0  0  0  0  0  0
   -5.7280   22.4700  -32.2210 N   0  0  0  0  0  0  0  0  0  0  0  0
   -7.0820   22.0890  -32.1290 C   0  0  0  0  0  0  0  0  0  0  0  0
   -8.1500   22.9480  -32.0580 C   0  0  0  0  0  0  0  0  0  0  0  0
   -9.4720   22.4920  -31.9680 C   0  0  0  0  0  0  0  0  0  0  0  0
   -9.7490   21.1600  -31.9490 C   0  0  0  0  0  0  0  0  0  0  0  0
   -8.6870   20.2820  -32.0200 C   0  0  0  0  0  0  0  0  0  0  0  0
   -8.9800   18.5550  -32.0000 Cl  0  0  0  0  0  0  0  0  0  0  0  0
   -7.3870   20.7330  -32.1080 C   0  0  0  0  0  0  0  0  0  0  0  0
   -2.0730   24.5410  -28.6260 C   0  0  0  0  0  0  0  0  0  0  0  0
   -4.5470   24.4600  -31.0330 O   0  0  0  0  0  0  0  0  0  0  0  0
   -3.1580   24.8400  -29.3480 N   0  0  0  0  0  0  0  0  0  0  0  0
   -0.9570   25.0930  -27.0270 H   0  0  0  0  0  0  0  0  0  0  0  0
   -0.4110   23.1773  -28.4279 H   0  0  0  0  0  0  0  0  0  0  0  0
   -1.0866   21.8348  -30.4056 H   0  0  0  0  0  0  0  0  0  0  0  0
   -3.2402   22.9670  -32.8404 H   0  0  0  0  0  0  0  0  0  0  0  0
   -2.5512   21.4476  -32.1156 H   0  0  0  0  0  0  0  0  0  0  0  0
   -5.5170   23.4200  -32.6590 H   0  0  0  0  0  0  0  0  0  0  0  0
   -7.9618   24.0317  -32.0722 H   0  0  0  0  0  0  0  0  0  0  0  0
  -10.2953   23.2193  -31.9121 H   0  0  0  0  0  0  0  0  0  0  0  0
  -10.7845   20.7955  -31.8794 H   0  0  0  0  0  0  0  0  0  0  0  0
   -6.5689   19.9997  -32.1631 H   0  0  0  0  0  0  0  0  0  0  0  0
   -3.7380   25.6650  -29.0690 H   0  0  0  0  0  0  0  0  0  0  0  0
  1  2  2  3
  2  3  1  0
  3  4  2  0
  4  5  1  0
  5  6  1  0
  6  7  1  0
  7  8  2  0
  7  9  1  0
  9 10  1  0
 10 11  2  0
 11 12  1  0
 12 13  2  0
 13 14  1  0
 14 15  1  0
 14 16  2  0
  5 17  1  0
 17 18  2  0
 17 19  1  0
 19  2  1  0
 16 10  1  0
  1 20  1  0
  3 21  1  0
  4 22  1  0
  6 23  1  0
  6 24  1  0
  9 25  1  0
 11 26  1  0
 12 27  1  0
 13 28  1  0
 16 29  1  0
 19 30  1  0
M  END
>  <smiles>  (45) 
N=c1ccn(CC(=O)Nc2cccc(Cl)c2)c(=O)[nH]1

>  <score_type>  (45) 
oracle

>  <origin>  (45) 
adgpu

>  <m_score__min__energy>  (45) 
-7.3200000000000003

>  <m_primary>  (45) 
energy

$$$$
45:0
     RDKit          3D

 33 33  0  0  0  0  0  0  0  0999 V2000
   -8.8280   20.8900  -31.8990 C   0  0  0  0  0  0  0  0  0  0  0  0
   -7.5650   21.7540  -31.9160 C   0  0  0  0  0  0  0  0  0  0  0  0
   -7.8640   23.2480  -31.7130 C   0  0  0  0  0  0  0  0  0  0  0  0
   -6.6090   24.1380  -31.5620 C   0  0  0  0  0  0  0  0  0  0  0  0
   -6.0780   24.2370  -30.1140 C   0  0  0  0  0  0  0  0  0  0  0  0
   -5.1270   23.0970  -29.7080 C   0  0  0  0  0  0  0  0  0  0  0  0
   -3.7820   23.6110  -29.2320 C   0  0  0  0  0  0  0  0  0  0  0  0
   -3.2170   24.7780  -29.7660 C   0  0  0  0  0  0  0  0  0  0  0  0
   -3.8710   25.4900  -30.7660 O   0  0  0  0  0  0  0  0  0  0  0  0
   -2.0160   25.2190  -29.3170 N   0  0  0  0  0  0  0  0  0  0  0  0
   -1.3350   24.5560  -28.3460 C   0  0  0  0  0  0  0  0  0  0  0  0
   -0.2120   24.9970  -27.9750 O   0  0  0  0  0  0  0  0  0  0  0  0
   -1.8600   23.4220  -27.7830 N   0  0  0  0  0  0  0  0  0  0  0  0
   -1.1030   22.6890  -26.7540 C   0  0  0  0  0  0  0  0  0  0  0  0
   -3.0590   22.9290  -28.2350 C   0  0  0  0  0  0  0  0  0  0  0  0
   -3.5210   21.8520  -27.7610 O   0  0  0  0  0  0  0  0  0  0  0  0
   -9.1211   20.6895  -30.8579 H   0  0  0  0  0  0  0  0  0  0  0  0
   -9.6425   21.4210  -32.4134 H   0  0  0  0  0  0  0  0  0  0  0  0
   -8.6283   19.9384  -32.4134 H   0  0  0  0  0  0  0  0  0  0  0  0
   -6.8970   21.4163  -31.1099 H   0  0  0  0  0  0  0  0  0  0  0  0
   -7.0988   21.6405  -32.9058 H   0  0  0  0  0  0  0  0  0  0  0  0
   -8.4360   23.6051  -32.5821 H   0  0  0  0  0  0  0  0  0  0  0  0
   -8.4213   23.3300  -30.7682 H   0  0  0  0  0  0  0  0  0  0  0  0
   -5.8116   23.7215  -32.1949 H   0  0  0  0  0  0  0  0  0  0  0  0
   -6.9021   25.1545  -31.8633 H   0  0  0  0  0  0  0  0  0  0  0  0
   -5.5379   25.1896  -30.0096 H   0  0  0  0  0  0  0  0  0  0  0  0
   -6.9538   24.1669  -29.4522 H   0  0  0  0  0  0  0  0  0  0  0  0
   -5.5929   22.5202  -28.8954 H   0  0  0  0  0  0  0  0  0  0  0  0
   -4.9530   22.4718  -30.5961 H   0  0  0  0  0  0  0  0  0  0  0  0
   -1.6070   26.0870  -29.7320 H   0  0  0  0  0  0  0  0  0  0  0  0
   -1.4351   23.0106  -25.7558 H   0  0  0  0  0  0  0  0  0  0  0  0
   -1.2790   21.6093  -26.8688 H   0  0  0  0  0  0  0  0  0  0  0  0
   -0.0295   22.8997  -26.8688 H   0  0  0  0  0  0  0  0  0  0  0  0
  1  2  1  0
  2  3  1  0
  3  4  1  0
  4  5  1  0
  5  6  1  0
  6  7  1  0
  7  8  2  0
  8  9  1  0
  8 10  1  0
 10 11  1  0
 11 12  2  0
 11 13  1  0
 13 14  1  0
 13 15  1  0
 15 16  2  0
 15  7  1  0
  1 17  1  0
  1 18  1  0
  1 19  1  0
  2 20  1  0
  2 21  1  0
  3 22  1  0
  3 23  1  0
  4 24  1  0
  4 25  1  0
  5 26  1  0
  5 27  1  0
  6 28  1  0
  6 29  1  0
 10 30  1  0
 14 31  1  0
 14 32  1  0
 14 33  1  0
M  CHG  1   9  -1
M  END
>  <UniqueID>  (46) 
44

>  <SMILES>  (46) 
CCCCCCc1c([O-])[nH]c(=O)n(C)c1=O

>  <Energy>  (46) 
31.721518528659296

>  <Genealogy>  (46) 
CCCCCCc1c([O-])[nH]c(=O)n(C)c1=O (protonated)
CCCCCCc1c([O-])[nH]c(=O)n(C)c1=O (3D coordinates assigned)
CCCCCCc1c([O-])[nH]c(=O)n(C)c1=O (optimized conformer: 31.721518528659296 kcal/mol)

>  <smiles>  (46) 
CCCCCCc1c(O)[nH]c(=O)n(C)c1=O

>  <score_type>  (46) 
oracle

>  <origin>  (46) 
adgpu

>  <m_score__min__energy>  (46) 
-9.2699999999999996

>  <m_primary>  (46) 
energy

$$$$
46:0
     RDKit          3D

 40 42  0  0  0  0  0  0  0  0999 V2000
   -1.0110   26.5675  -27.7697 H   0  0  0  0  0  0  0  0  0  0  0  0
   -1.1900   25.5720  -28.2020 C   0  0  0  0  0  0  0  0  0  0  0  0
   -2.2620   25.3020  -28.9940 N   0  0  0  0  0  0  0  0  0  0  0  0
   -2.2570   24.0160  -29.4100 C   0  0  0  0  0  0  0  0  0  0  0  0
   -3.1770   23.4860  -30.1600 N   0  0  0  0  0  0  0  0  0  0  0  0
   -4.2910   24.1830  -30.7390 C   0  0  0  0  0  0  0  0  0  0  0  0
   -4.2270   25.4370  -30.8450 O   0  0  0  0  0  0  0  0  0  0  0  0
   -5.5280   23.4840  -31.1620 C   0  0  0  0  0  0  0  0  0  0  0  0
   -6.7820   23.9850  -30.7930 C   0  0  0  0  0  0  0  0  0  0  0  0
   -6.8480   24.9007  -30.1871 H   0  0  0  0  0  0  0  0  0  0  0  0
   -7.9490   23.3300  -31.1890 C   0  0  0  0  0  0  0  0  0  0  0  0
   -8.9275   23.7354  -30.8921 H   0  0  0  0  0  0  0  0  0  0  0  0
   -7.8880   22.1550  -31.9650 C   0  0  0  0  0  0  0  0  0  0  0  0
   -9.0550   21.4750  -32.3430 O   0  0  0  0  0  0  0  0  0  0  0  0
   -9.2330   20.0630  -32.2740 C   0  0  0  0  0  0  0  0  0  0  0  0
   -9.2725   19.7495  -31.2204 H   0  0  0  0  0  0  0  0  0  0  0  0
  -10.1730   19.7871  -32.7742 H   0  0  0  0  0  0  0  0  0  0  0  0
   -8.3909   19.5624  -32.7742 H   0  0  0  0  0  0  0  0  0  0  0  0
   -6.6210   21.6490  -32.3450 C   0  0  0  0  0  0  0  0  0  0  0  0
   -6.4420   20.5020  -33.1390 O   0  0  0  0  0  0  0  0  0  0  0  0
   -5.3760   19.5490  -33.0530 C   0  0  0  0  0  0  0  0  0  0  0  0
   -4.4140   20.0795  -33.1098 H   0  0  0  0  0  0  0  0  0  0  0  0
   -5.4340   18.7850  -31.7200 C   0  0  0  0  0  0  0  0  0  0  0  0
   -4.5582   18.1235  -31.6461 H   0  0  0  0  0  0  0  0  0  0  0  0
   -5.4359   19.5153  -30.8974 H   0  0  0  0  0  0  0  0  0  0  0  0
   -6.7220   17.9320  -31.6250 C   0  0  0  0  0  0  0  0  0  0  0  0
   -6.4508   16.9300  -31.2611 H   0  0  0  0  0  0  0  0  0  0  0  0
   -7.4065   18.4518  -30.9385 H   0  0  0  0  0  0  0  0  0  0  0  0
   -7.3970   17.7930  -32.8650 O   0  0  0  0  0  0  0  0  0  0  0  0
   -6.4870   17.4030  -33.8750 C   0  0  0  0  0  0  0  0  0  0  0  0
   -5.9103   16.5347  -33.5237 H   0  0  0  0  0  0  0  0  0  0  0  0
   -7.0571   17.1467  -34.7801 H   0  0  0  0  0  0  0  0  0  0  0  0
   -5.5140   18.5500  -34.2160 C   0  0  0  0  0  0  0  0  0  0  0  0
   -4.5247   18.1233  -34.4378 H   0  0  0  0  0  0  0  0  0  0  0  0
   -5.9157   19.0914  -35.0852 H   0  0  0  0  0  0  0  0  0  0  0  0
   -5.4610   22.3010  -31.9120 C   0  0  0  0  0  0  0  0  0  0  0  0
   -4.4778   21.8775  -32.1648 H   0  0  0  0  0  0  0  0  0  0  0  0
   -0.9470   23.1620  -28.8030 S   0  0  0  0  0  0  0  0  0  0  0  0
   -0.3370   24.4970  -27.9790 C   0  0  0  0  0  0  0  0  0  0  0  0
    0.5784   24.5157  -27.3694 H   0  0  0  0  0  0  0  0  0  0  0  0
  1  2  1  0
  2  3  1  0
  3  4  1  0
  4  5  2  0
  5  6  1  0
  6  7  2  0
  6  8  1  0
  8  9  2  0
  9 10  1  0
  9 11  1  0
 11 12  1  0
 11 13  2  0
 13 14  1  0
 14 15  1  0
 15 16  1  0
 15 17  1  0
 15 18  1  0
 13 19  1  0
 19 20  1  0
 20 21  1  0
 21 22  1  0
 21 23  1  0
 23 24  1  0
 23 25  1  0
 23 26  1  0
 26 27  1  0
 26 28  1  0
 26 29  1  0
 29 30  1  0
 30 31  1  0
 30 32  1  0
 30 33  1  0
 33 34  1  0
 33 35  1  0
 19 36  2  0
 36 37  1  0
  4 38  1  0
 38 39  1  0
 39 40  1  0
 39  2  2  0
 36  8  1  0
 33 21  1  0
M  CHG  1   3  -1
M  END
>  <UniqueID>  (47) 
45

>  <SMILES>  (47) 
COc1ccc(C(=O)/N=c2\[n-]ccs2)cc1OC1CCOCC1

>  <Energy>  (47) 
87.60344376577048

>  <Genealogy>  (47) 
COc1ccc(C(=O)N=c2[n-]ccs2)cc1OC1CCOCC1 (protonated)
COc1ccc(C(=O)/N=c2\[n-]ccs2)cc1OC1CCOCC1 (cis-trans isomerization)
COc1ccc(C(=O)/N=c2\[n-]ccs2)cc1OC1CCOCC1 (3D coordinates assigned)
COc1ccc(C(=O)/N=c2\[n-]ccs2)cc1OC1CCOCC1 (nonaromatic ring conformer: 87.60344376577048 kcal/mol)

>  <smiles>  (47) 
COc1ccc(C(=O)N=c2[nH]ccs2)cc1OC1CCOCC1

>  <score_type>  (47) 
oracle

>  <origin>  (47) 
adgpu

>  <m_score__min__energy>  (47) 
-9.3599999999999994

>  <m_primary>  (47) 
energy

$$$$
47:0
     RDKit          3D

 41 43  0  0  0  0  0  0  0  0999 V2000
   -2.0160   25.6260  -29.9310 H   0  0  0  0  0  0  0  0  0  0  0  0
   -1.2270   25.9220  -29.3180 N   0  0  0  0  0  0  0  0  0  0  0  0
   -0.9580   25.3940  -28.1630 C   0  0  0  0  0  0  0  0  0  0  0  0
    0.1300   25.8410  -27.4800 N   0  0  0  0  0  0  0  0  0  0  0  0
    0.4980   25.3040  -26.2890 C   0  0  0  0  0  0  0  0  0  0  0  0
    1.3808   25.6872  -25.7561 H   0  0  0  0  0  0  0  0  0  0  0  0
   -0.2530   24.2630  -25.7480 C   0  0  0  0  0  0  0  0  0  0  0  0
    0.0385   23.8087  -24.7895 H   0  0  0  0  0  0  0  0  0  0  0  0
   -1.3470   23.8140  -26.4130 N   0  0  0  0  0  0  0  0  0  0  0  0
   -1.7330   24.3460  -27.6060 C   0  0  0  0  0  0  0  0  0  0  0  0
   -2.9690   23.8320  -28.2370 C   0  0  0  0  0  0  0  0  0  0  0  0
   -4.0850   24.2200  -27.7940 O   0  0  0  0  0  0  0  0  0  0  0  0
   -2.9260   22.8730  -29.3130 N   0  0  0  0  0  0  0  0  0  0  0  0
   -3.9200   22.9360  -30.3460 C   0  0  0  0  0  0  0  0  0  0  0  0
   -4.4110   21.7790  -30.8660 N   0  0  0  0  0  0  0  0  0  0  0  0
   -5.3430   21.7650  -31.8580 C   0  0  0  0  0  0  0  0  0  0  0  0
   -5.8380   20.4650  -32.3770 C   0  0  0  0  0  0  0  0  0  0  0  0
   -5.0690   19.6870  -33.2630 C   0  0  0  0  0  0  0  0  0  0  0  0
   -4.0811   20.0454  -33.5879 H   0  0  0  0  0  0  0  0  0  0  0  0
   -5.5520   18.4620  -33.7330 C   0  0  0  0  0  0  0  0  0  0  0  0
   -4.9432   17.8683  -34.4308 H   0  0  0  0  0  0  0  0  0  0  0  0
   -6.8010   17.9840  -33.3250 C   0  0  0  0  0  0  0  0  0  0  0  0
   -7.2380   16.7490  -33.8270 O   0  0  0  0  0  0  0  0  0  0  0  0
   -6.3800   15.6520  -34.1230 C   0  0  0  0  0  0  0  0  0  0  0  0
   -6.0262   15.1997  -33.1848 H   0  0  0  0  0  0  0  0  0  0  0  0
   -6.9329   14.9011  -34.7064 H   0  0  0  0  0  0  0  0  0  0  0  0
   -5.5180   16.0077  -34.7064 H   0  0  0  0  0  0  0  0  0  0  0  0
   -7.5690   18.7510  -32.4310 C   0  0  0  0  0  0  0  0  0  0  0  0
   -8.5528   18.3853  -32.1017 H   0  0  0  0  0  0  0  0  0  0  0  0
   -7.0890   19.9750  -31.9590 C   0  0  0  0  0  0  0  0  0  0  0  0
   -7.6953   20.5618  -31.2533 H   0  0  0  0  0  0  0  0  0  0  0  0
   -5.8210   22.9940  -32.3430 C   0  0  0  0  0  0  0  0  0  0  0  0
   -6.5750   23.0171  -33.1436 H   0  0  0  0  0  0  0  0  0  0  0  0
   -5.3470   24.1530  -31.8180 N   0  0  0  0  0  0  0  0  0  0  0  0
   -4.4120   24.1640  -30.8320 C   0  0  0  0  0  0  0  0  0  0  0  0
   -4.0220   25.3030  -30.3480 N   0  0  0  0  0  0  0  0  0  0  0  0
   -3.3260   25.3920  -29.5740 H   0  0  0  0  0  0  0  0  0  0  0  0
   -2.0140   21.7250  -29.2800 C   0  0  0  0  0  0  0  0  0  0  0  0
   -1.8005   21.4563  -28.2349 H   0  0  0  0  0  0  0  0  0  0  0  0
   -2.4820   20.8702  -29.7902 H   0  0  0  0  0  0  0  0  0  0  0  0
   -1.0755   21.9875  -29.7902 H   0  0  0  0  0  0  0  0  0  0  0  0
  1  2  1  0
  2  3  2  3
  3  4  1  0
  4  5  1  0
  5  6  1  0
  5  7  2  0
  7  8  1  0
  7  9  1  0
  9 10  2  0
 10 11  1  0
 11 12  2  0
 11 13  1  0
 13 14  1  0
 14 15  2  0
 15 16  1  0
 16 17  1  0
 17 18  2  0
 18 19  1  0
 18 20  1  0
 20 21  1  0
 20 22  2  0
 22 23  1  0
 23 24  1  0
 24 25  1  0
 24 26  1  0
 24 27  1  0
 22 28  1  0
 28 29  1  0
 28 30  2  0
 30 31  1  0
 16 32  2  0
 32 33  1  0
 32 34  1  0
 34 35  1  0
 35 36  2  0
 36 37  1  0
 13 38  1  0
 38 39  1  0
 38 40  1  0
 38 41  1  0
 10  3  1  0
 35 14  1  0
 30 17  1  0
M  CHG  2   4  -1  34  -1
M  END
>  <UniqueID>  (48) 
46

>  <SMILES>  (48) 
[H]/N=c1/[n-]cc(-c2ccc(OC)cc2)nc1N(C)C(=O)c1ncc[n-]c1=N

>  <Energy>  (48) 
65.89551541149454

>  <Genealogy>  (48) 
COc1ccc(-c2c[n-]c(=N)c(N(C)C(=O)c3ncc[n-]c3=N)n2)cc1 (protonated)
[H]/N=c1/[n-]cc(-c2ccc(OC)cc2)nc1N(C)C(=O)c1ncc[n-]c1=N (cis-trans isomerization)
[H]/N=c1/[n-]cc(-c2ccc(OC)cc2)nc1N(C)C(=O)c1ncc[n-]c1=N (3D coordinates assigned)
[H]/N=c1/[n-]cc(-c2ccc(OC)cc2)nc1N(C)C(=O)c1ncc[n-]c1=N (optimized conformer: 65.89551541149454 kcal/mol)

>  <smiles>  (48) 
COc1ccc(-c2c[nH]c(=N)c(N(C)C(=O)c3ncc[nH]c3=N)n2)cc1

>  <score_type>  (48) 
oracle

>  <origin>  (48) 
adgpu

>  <m_score__min__energy>  (48) 
-10.9

>  <m_primary>  (48) 
energy

$$$$
48:0
     RDKit          3D

 32 34  0  0  0  0  0  0  0  0999 V2000
   -6.1150   18.7090  -33.9960 C   0  0  0  0  0  0  0  0  0  0  0  0
   -6.3590   19.9590  -33.2130 C   0  0  0  0  0  0  0  0  0  0  0  0
   -7.6490   20.2390  -32.7060 C   0  0  0  0  0  0  0  0  0  0  0  0
   -7.8530   21.4250  -31.9790 C   0  0  0  0  0  0  0  0  0  0  0  0
   -9.2070   21.7940  -31.4480 C   0  0  0  0  0  0  0  0  0  0  0  0
   -6.7890   22.2540  -31.8280 N   0  0  0  0  0  0  0  0  0  0  0  0
   -6.7400   23.4210  -31.2150 N   0  0  0  0  0  0  0  0  0  0  0  0
   -5.4510   23.8230  -31.3520 C   0  0  0  0  0  0  0  0  0  0  0  0
   -4.9540   25.1070  -30.8300 C   0  0  0  0  0  0  0  0  0  0  0  0
   -5.7220   26.1040  -30.8190 O   0  0  0  0  0  0  0  0  0  0  0  0
   -3.5960   25.2740  -30.4000 N   0  0  0  0  0  0  0  0  0  0  0  0
   -2.9520   24.5550  -29.3380 C   0  0  0  0  0  0  0  0  0  0  0  0
   -3.6180   23.5440  -28.6220 C   0  0  0  0  0  0  0  0  0  0  0  0
   -2.9700   22.8800  -27.5760 C   0  0  0  0  0  0  0  0  0  0  0  0
   -1.6640   23.2320  -27.2250 C   0  0  0  0  0  0  0  0  0  0  0  0
   -1.0380   22.5900  -26.2080 F   0  0  0  0  0  0  0  0  0  0  0  0
   -1.0070   24.2550  -27.9160 C   0  0  0  0  0  0  0  0  0  0  0  0
   -1.6520   24.9200  -28.9640 C   0  0  0  0  0  0  0  0  0  0  0  0
   -4.6830   22.9440  -32.0530 N   0  0  0  0  0  0  0  0  0  0  0  0
   -5.5800   21.9800  -32.3170 C   0  0  0  0  0  0  0  0  0  0  0  0
   -5.3360   20.8430  -33.0140 N   0  0  0  0  0  0  0  0  0  0  0  0
   -5.9511   17.8693  -33.3046 H   0  0  0  0  0  0  0  0  0  0  0  0
   -6.9887   18.4969  -34.6298 H   0  0  0  0  0  0  0  0  0  0  0  0
   -5.2257   18.8410  -34.6298 H   0  0  0  0  0  0  0  0  0  0  0  0
   -8.4803   19.5395  -32.8778 H   0  0  0  0  0  0  0  0  0  0  0  0
   -9.1838   21.7877  -30.3483 H   0  0  0  0  0  0  0  0  0  0  0  0
   -9.4788   22.7990  -31.8032 H   0  0  0  0  0  0  0  0  0  0  0  0
   -9.9511   21.0659  -31.8032 H   0  0  0  0  0  0  0  0  0  0  0  0
   -4.6515   23.2750  -28.8857 H   0  0  0  0  0  0  0  0  0  0  0  0
   -3.4890   22.0794  -27.0286 H   0  0  0  0  0  0  0  0  0  0  0  0
    0.0184   24.5371  -27.6350 H   0  0  0  0  0  0  0  0  0  0  0  0
   -1.1366   25.7328  -29.4967 H   0  0  0  0  0  0  0  0  0  0  0  0
  1  2  1  0
  2  3  1  0
  3  4  2  0
  4  5  1  0
  4  6  1  0
  6  7  1  0
  7  8  2  0
  8  9  1  0
  9 10  2  0
  9 11  1  0
 11 12  1  0
 12 13  2  0
 13 14  1  0
 14 15  2  0
 15 16  1  0
 15 17  1  0
 17 18  2  0
  8 19  1  0
 19 20  2  0
 20 21  1  0
 21  2  2  0
 20  6  1  0
 18 12  1  0
  1 22  1  0
  1 23  1  0
  1 24  1  0
  3 25  1  0
  5 26  1  0
  5 27  1  0
  5 28  1  0
 13 29  1  0
 14 30  1  0
 17 31  1  0
 18 32  1  0
M  CHG  1  11  -1
M  END
>  <UniqueID>  (49) 
47

>  <SMILES>  (49) 
Cc1cc(C)n2nc(C(=O)[N-]c3ccc(F)cc3)nc2n1

>  <Energy>  (49) 
76.72118774700151

>  <Genealogy>  (49) 
Cc1cc(C)n2nc(C(=O)[N-]c3ccc(F)cc3)nc2n1 (protonated)
Cc1cc(C)n2nc(C(=O)[N-]c3ccc(F)cc3)nc2n1 (3D coordinates assigned)
Cc1cc(C)n2nc(C(=O)[N-]c3ccc(F)cc3)nc2n1 (optimized conformer: 76.72118774700151 kcal/mol)

>  <smiles>  (49) 
Cc1cc(C)n2nc(C(=O)Nc3ccc(F)cc3)nc2n1

>  <score_type>  (49) 
oracle

>  <origin>  (49) 
adgpu

>  <m_score__min__energy>  (49) 
-9.3200000000000003

>  <m_primary>  (49) 
energy

$$$$
