0:0
     RDKit          3D

 48 50  0  0  0  0  0  0  0  0999 V2000
   -0.8190   28.1360  -25.2690 C   0  0  0  0  0  0  0  0  0  0  0  0
   -0.3920   26.7100  -24.2950 S   0  0  0  0  0  0  0  0  0  0  0  0
    1.0760   26.7370  -23.9790 O   0  0  0  0  0  0  0  0  0  0  0  0
   -1.1640   26.7350  -23.0060 O   0  0  0  0  0  0  0  0  0  0  0  0
   -0.7810   25.2500  -25.1980 C   0  0  0  0  0  0  0  0  0  0  0  0
   -0.2240   24.0200  -24.8240 C   0  0  0  0  0  0  0  0  0  0  0  0
   -0.5340   22.8620  -25.5410 C   0  0  0  0  0  0  0  0  0  0  0  0
   -1.4140   22.9220  -26.6250 C   0  0  0  0  0  0  0  0  0  0  0  0
   -2.0060   24.1450  -26.9900 C   0  0  0  0  0  0  0  0  0  0  0  0
   -2.8980   24.2400  -28.1130 N   0  0  0  0  0  0  0  0  0  0  0  0
   -4.0300   23.3740  -28.3190 C   0  0  0  0  0  0  0  0  0  0  0  0
   -4.3040   22.4740  -27.4800 O   0  0  0  0  0  0  0  0  0  0  0  0
   -4.8850   23.5200  -29.5170 C   0  0  0  0  0  0  0  0  0  0  0  0
   -6.0460   22.7360  -29.6280 C   0  0  0  0  0  0  0  0  0  0  0  0
   -6.8790   22.8480  -30.7490 C   0  0  0  0  0  0  0  0  0  0  0  0
   -8.3330   21.8540  -30.8760 S   0  0  0  0  0  0  0  0  0  0  0  0
   -9.0840   21.9060  -29.5750 O   0  0  0  0  0  0  0  0  0  0  0  0
   -9.2230   22.4190  -31.9490 O   0  0  0  0  0  0  0  0  0  0  0  0
   -7.9530   20.1930  -31.2600 N   0  0  0  0  0  0  0  0  0  0  0  0
   -6.9580   20.1290  -32.3440 C   0  0  0  0  0  0  0  0  0  0  0  0
   -6.7980   18.6810  -32.8510 C   0  0  0  0  0  0  0  0  0  0  0  0
   -7.4180   17.7620  -31.9730 O   0  0  0  0  0  0  0  0  0  0  0  0
   -8.8170   17.9890  -31.9490 C   0  0  0  0  0  0  0  0  0  0  0  0
   -9.1670   19.4600  -31.6410 C   0  0  0  0  0  0  0  0  0  0  0  0
   -6.5520   23.7530  -31.7660 C   0  0  0  0  0  0  0  0  0  0  0  0
   -5.4110   24.5490  -31.6570 C   0  0  0  0  0  0  0  0  0  0  0  0
   -4.5820   24.4480  -30.5350 C   0  0  0  0  0  0  0  0  0  0  0  0
   -3.4840   25.2940  -30.4290 O   0  0  0  0  0  0  0  0  0  0  0  0
   -1.6680   25.3070  -26.2820 C   0  0  0  0  0  0  0  0  0  0  0  0
   -1.0699   28.9739  -24.6019 H   0  0  0  0  0  0  0  0  0  0  0  0
    0.0348   28.4156  -25.9037 H   0  0  0  0  0  0  0  0  0  0  0  0
   -1.6860   27.9003  -25.9037 H   0  0  0  0  0  0  0  0  0  0  0  0
    0.4592   23.9661  -23.9635 H   0  0  0  0  0  0  0  0  0  0  0  0
   -0.0844   21.9006  -25.2517 H   0  0  0  0  0  0  0  0  0  0  0  0
   -1.6446   22.0098  -27.1949 H   0  0  0  0  0  0  0  0  0  0  0  0
   -2.7360   25.0220  -28.7870 H   0  0  0  0  0  0  0  0  0  0  0  0
   -6.3033   22.0274  -28.8269 H   0  0  0  0  0  0  0  0  0  0  0  0
   -7.2883   20.7686  -33.1758 H   0  0  0  0  0  0  0  0  0  0  0  0
   -5.9893   20.4776  -31.9565 H   0  0  0  0  0  0  0  0  0  0  0  0
   -7.2604   18.5955  -33.8454 H   0  0  0  0  0  0  0  0  0  0  0  0
   -5.7247   18.4455  -32.9018 H   0  0  0  0  0  0  0  0  0  0  0  0
   -9.2351   17.7242  -32.9314 H   0  0  0  0  0  0  0  0  0  0  0  0
   -9.2449   17.3669  -31.1490 H   0  0  0  0  0  0  0  0  0  0  0  0
   -9.6084   19.9248  -32.5349 H   0  0  0  0  0  0  0  0  0  0  0  0
   -9.8870   19.4948  -30.8101 H   0  0  0  0  0  0  0  0  0  0  0  0
   -7.1964   23.8368  -32.6536 H   0  0  0  0  0  0  0  0  0  0  0  0
   -5.1620   25.2602  -32.4584 H   0  0  0  0  0  0  0  0  0  0  0  0
   -2.1029   26.2724  -26.5799 H   0  0  0  0  0  0  0  0  0  0  0  0
  1  2  1  0
  2  3  2  0
  2  4  2  0
  2  5  1  0
  5  6  2  0
  6  7  1  0
  7  8  2  0
  8  9  1  0
  9 10  1  0
 10 11  1  0
 11 12  2  0
 11 13  1  0
 13 14  2  0
 14 15  1  0
 15 16  1  0
 16 17  2  0
 16 18  2  0
 16 19  1  0
 19 20  1  0
 20 21  1  0
 21 22  1  0
 22 23  1  0
 23 24  1  0
 15 25  2  0
 25 26  1  0
 26 27  2  0
 27 28  1  0
  9 29  2  0
 29  5  1  0
 27 13  1  0
 24 19  1  0
  1 30  1  0
  1 31  1  0
  1 32  1  0
  6 33  1  0
  7 34  1  0
  8 35  1  0
 10 36  1  0
 14 37  1  0
 20 38  1  0
 20 39  1  0
 21 40  1  0
 21 41  1  0
 23 42  1  0
 23 43  1  0
 24 44  1  0
 24 45  1  0
 25 46  1  0
 26 47  1  0
 29 48  1  0
M  CHG  1  28  -1
M  END
>  <UniqueID>  (1) 
1

>  <SMILES>  (1) 
CS(=O)(=O)c1cccc(NC(=O)c2cc(S(=O)(=O)N3CCOCC3)ccc2[O-])c1

>  <Energy>  (1) 
62.55266379654469

>  <Genealogy>  (1) 
CS(=O)(=O)c1cccc(NC(=O)c2cc(S(=O)(=O)N3CCOCC3)ccc2[O-])c1 (protonated)
CS(=O)(=O)c1cccc(NC(=O)c2cc(S(=O)(=O)N3CCOCC3)ccc2[O-])c1 (3D coordinates assigned)
CS(=O)(=O)c1cccc(NC(=O)c2cc(S(=O)(=O)N3CCOCC3)ccc2[O-])c1 (nonaromatic ring conformer: 62.55266379654469 kcal/mol)

>  <smiles>  (1) 
CS(=O)(=O)c1cccc(NC(=O)c2cc(S(=O)(=O)N3CCOCC3)ccc2O)c1

>  <score_type>  (1) 
oracle

>  <origin>  (1) 
adgpu

>  <m_score__min__energy>  (1) 
-12.91

>  <m_primary>  (1) 
energy

$$$$
1:0
     RDKit          3D

 51 54  0  0  0  0  0  0  0  0999 V2000
   -3.4810   21.3310  -29.2380 O   0  0  0  0  0  0  0  0  0  0  0  0
   -3.5180   22.5720  -29.4470 C   0  0  0  0  0  0  0  0  0  0  0  0
   -2.5110   23.4290  -28.8850 N   0  0  0  0  0  0  0  0  0  0  0  0
   -1.1160   23.0080  -28.7210 C   0  0  0  0  0  0  0  0  0  0  0  0
   -0.5510   23.3720  -27.3250 C   0  0  1  0  0  0  0  0  0  0  0  0
    0.9340   23.7990  -27.4120 C   0  0  0  0  0  0  0  0  0  0  0  0
    1.3750   24.3120  -26.1550 O   0  0  0  0  0  0  0  0  0  0  0  0
    0.5550   25.1460  -25.3920 C   0  0  0  0  0  0  0  0  0  0  0  0
    1.0860   25.9100  -24.3450 C   0  0  0  0  0  0  0  0  0  0  0  0
    0.2540   26.7700  -23.6210 C   0  0  0  0  0  0  0  0  0  0  0  0
   -1.1120   26.8540  -23.9330 C   0  0  0  0  0  0  0  0  0  0  0  0
   -1.6470   26.0790  -24.9710 C   0  0  0  0  0  0  0  0  0  0  0  0
   -0.8130   25.2190  -25.6990 C   0  0  0  0  0  0  0  0  0  0  0  0
   -1.3220   24.4370  -26.7450 O   0  0  0  0  0  0  0  0  0  0  0  0
   -4.6110   23.1390  -30.2660 C   0  0  0  0  0  0  0  0  0  0  0  0
   -5.7270   22.3410  -30.5710 C   0  0  0  0  0  0  0  0  0  0  0  0
   -6.7950   22.8600  -31.3170 C   0  0  0  0  0  0  0  0  0  0  0  0
   -8.2040   21.8480  -31.6390 S   0  0  0  0  0  0  0  0  0  0  0  0
   -8.5160   21.0670  -30.3950 O   0  0  0  0  0  0  0  0  0  0  0  0
   -9.3730   22.7360  -31.9620 O   0  0  0  0  0  0  0  0  0  0  0  0
   -7.8710   20.7540  -32.9710 N   0  0  0  0  0  0  0  0  0  0  0  0
   -8.8710   19.6690  -33.0580 C   0  0  0  0  0  0  0  0  0  0  0  0
   -8.4240   18.3920  -32.3170 C   0  0  0  0  0  0  0  0  0  0  0  0
   -7.5500   18.7160  -31.2600 O   0  0  0  0  0  0  0  0  0  0  0  0
   -6.3180   19.1870  -31.7810 C   0  0  0  0  0  0  0  0  0  0  0  0
   -6.4970   20.2210  -32.9190 C   0  0  0  0  0  0  0  0  0  0  0  0
   -6.7360   24.1830  -31.7800 C   0  0  0  0  0  0  0  0  0  0  0  0
   -5.6310   24.9830  -31.4780 C   0  0  0  0  0  0  0  0  0  0  0  0
   -4.5760   24.4730  -30.7140 C   0  0  0  0  0  0  0  0  0  0  0  0
   -3.4890   25.2930  -30.4230 O   0  0  0  0  0  0  0  0  0  0  0  0
   -2.7280   24.4460  -28.7800 H   0  0  0  0  0  0  0  0  0  0  0  0
   -1.0581   21.9174  -28.8525 H   0  0  0  0  0  0  0  0  0  0  0  0
   -0.5146   23.5366  -29.4752 H   0  0  0  0  0  0  0  0  0  0  0  0
   -0.6179   22.4758  -26.6906 H   0  0  0  0  0  0  0  0  0  0  0  0
    1.5472   22.9272  -27.6837 H   0  0  0  0  0  0  0  0  0  0  0  0
    1.0371   24.5840  -28.1756 H   0  0  0  0  0  0  0  0  0  0  0  0
    2.1540   25.8338  -24.0930 H   0  0  0  0  0  0  0  0  0  0  0  0
    0.6704   27.3810  -22.8065 H   0  0  0  0  0  0  0  0  0  0  0  0
   -1.7645   27.5301  -23.3611 H   0  0  0  0  0  0  0  0  0  0  0  0
   -2.7179   26.1454  -25.2136 H   0  0  0  0  0  0  0  0  0  0  0  0
   -5.7631   21.2988  -30.2210 H   0  0  0  0  0  0  0  0  0  0  0  0
   -9.8139   20.0221  -32.6149 H   0  0  0  0  0  0  0  0  0  0  0  0
   -8.9941   19.4127  -34.1206 H   0  0  0  0  0  0  0  0  0  0  0  0
   -9.3091   17.8802  -31.9111 H   0  0  0  0  0  0  0  0  0  0  0  0
   -7.8981   17.7349  -33.0253 H   0  0  0  0  0  0  0  0  0  0  0  0
   -5.7501   19.6585  -30.9654 H   0  0  0  0  0  0  0  0  0  0  0  0
   -5.7878   18.3211  -32.2043 H   0  0  0  0  0  0  0  0  0  0  0  0
   -5.7988   21.0548  -32.7541 H   0  0  0  0  0  0  0  0  0  0  0  0
   -6.2933   19.7138  -33.8736 H   0  0  0  0  0  0  0  0  0  0  0  0
   -7.5612   24.5913  -32.3819 H   0  0  0  0  0  0  0  0  0  0  0  0
   -5.5904   26.0198  -31.8431 H   0  0  0  0  0  0  0  0  0  0  0  0
  1  2  2  0
  2  3  1  0
  3  4  1  0
  4  5  1  0
  5  6  1  0
  6  7  1  0
  7  8  1  0
  8  9  2  0
  9 10  1  0
 10 11  2  0
 11 12  1  0
 12 13  2  0
 13 14  1  0
  2 15  1  0
 15 16  2  0
 16 17  1  0
 17 18  1  0
 18 19  2  0
 18 20  2  0
 18 21  1  0
 21 22  1  0
 22 23  1  0
 23 24  1  0
 24 25  1  0
 25 26  1  0
 17 27  2  0
 27 28  1  0
 28 29  2  0
 29 30  1  0
 14  5  1  0
 29 15  1  0
 13  8  1  0
 26 21  1  0
  3 31  1  0
  4 32  1  0
  4 33  1  0
  5 34  1  1
  6 35  1  0
  6 36  1  0
  9 37  1  0
 10 38  1  0
 11 39  1  0
 12 40  1  0
 16 41  1  0
 22 42  1  0
 22 43  1  0
 23 44  1  0
 23 45  1  0
 25 46  1  0
 25 47  1  0
 26 48  1  0
 26 49  1  0
 27 50  1  0
 28 51  1  0
M  CHG  1  30  -1
M  END
>  <UniqueID>  (2) 
2

>  <SMILES>  (2) 
O=C(NC[C@H]1COc2ccccc2O1)c1cc(S(=O)(=O)N2CCOCC2)ccc1[O-]

>  <Energy>  (2) 
73.7906097211933

>  <Genealogy>  (2) 
O=C(NCC1COc2ccccc2O1)c1cc(S(=O)(=O)N2CCOCC2)ccc1[O-] (protonated)
O=C(NC[C@H]1COc2ccccc2O1)c1cc(S(=O)(=O)N2CCOCC2)ccc1[O-] (chirality)
O=C(NC[C@H]1COc2ccccc2O1)c1cc(S(=O)(=O)N2CCOCC2)ccc1[O-] (3D coordinates assigned)
O=C(NC[C@H]1COc2ccccc2O1)c1cc(S(=O)(=O)N2CCOCC2)ccc1[O-] (nonaromatic ring conformer: 73.7906097211933 kcal/mol)

>  <smiles>  (2) 
O=C(NCC1COc2ccccc2O1)c1cc(S(=O)(=O)N2CCOCC2)ccc1O

>  <score_type>  (2) 
oracle

>  <origin>  (2) 
adgpu

>  <m_score__min__energy>  (2) 
-12.35

>  <m_primary>  (2) 
energy

$$$$
2:0
     RDKit          3D

 24 25  0  0  0  0  0  0  0  0999 V2000
   -3.4890   25.2990  -30.4830 N   0  0  0  0  0  0  0  0  0  0  0  0
   -5.1270   24.8850  -30.1210 S   0  0  0  0  0  0  0  0  0  0  0  0
   -6.0360   25.9770  -30.6110 O   0  0  0  0  0  0  0  0  0  0  0  0
   -5.2980   24.7390  -28.6360 O   0  0  0  0  0  0  0  0  0  0  0  0
   -5.5430   23.3760  -30.9100 C   0  0  0  0  0  0  0  0  0  0  0  0
   -4.7360   22.2490  -30.9660 C   0  0  0  0  0  0  0  0  0  0  0  0
   -5.3140   21.2000  -31.6910 C   0  0  0  0  0  0  0  0  0  0  0  0
   -6.5750   21.5080  -32.1900 C   0  0  0  0  0  0  0  0  0  0  0  0
   -7.4070   20.6220  -33.0620 C   0  0  0  0  0  0  0  0  0  0  0  0
   -7.0660   19.1850  -32.8090 C   0  0  0  0  0  0  0  0  0  0  0  0
   -6.0550   18.4550  -33.3950 C   0  0  0  0  0  0  0  0  0  0  0  0
   -5.1080   18.9300  -34.2930 O   0  0  0  0  0  0  0  0  0  0  0  0
   -6.1590   17.1600  -32.9330 C   0  0  0  0  0  0  0  0  0  0  0  0
   -7.1870   17.0800  -32.1170 O   0  0  0  0  0  0  0  0  0  0  0  0
   -7.7490   18.2660  -32.0300 C   0  0  0  0  0  0  0  0  0  0  0  0
   -8.8790   18.5210  -31.2570 O   0  0  0  0  0  0  0  0  0  0  0  0
   -6.9640   23.0890  -31.7600 S   0  0  0  0  0  0  0  0  0  0  0  0
   -3.5190   26.0370  -31.2220 H   0  0  0  0  0  0  0  0  0  0  0  0
   -3.7460   22.1862  -30.4907 H   0  0  0  0  0  0  0  0  0  0  0  0
   -4.8204   20.2299  -31.8499 H   0  0  0  0  0  0  0  0  0  0  0  0
   -8.4714   20.7881  -32.8396 H   0  0  0  0  0  0  0  0  0  0  0  0
   -7.2038   20.8604  -34.1164 H   0  0  0  0  0  0  0  0  0  0  0  0
   -5.4907   16.3291  -33.2031 H   0  0  0  0  0  0  0  0  0  0  0  0
   -9.3690   17.7800  -30.7740 H   0  0  0  0  0  0  0  0  0  0  0  0
  1  2  1  0
  2  3  2  0
  2  4  2  0
  2  5  1  0
  5  6  2  0
  6  7  1  0
  7  8  2  0
  8  9  1  0
  9 10  1  0
 10 11  1  0
 11 12  1  0
 11 13  2  0
 13 14  1  0
 14 15  1  0
 15 16  1  0
  8 17  1  0
 17  5  1  0
 15 10  2  0
  1 18  1  0
  6 19  1  0
  7 20  1  0
  9 21  1  0
  9 22  1  0
 13 23  1  0
 16 24  1  0
M  CHG  2   1  -1  12  -1
M  END
>  <UniqueID>  (3) 
3

>  <SMILES>  (3) 
[NH-]S(=O)(=O)c1ccc(Cc2c([O-])coc2O)s1

>  <Energy>  (3) 
76.35412156956043

>  <Genealogy>  (3) 
[NH-]S(=O)(=O)c1ccc(Cc2c([O-])coc2O)s1 (protonated)
[NH-]S(=O)(=O)c1ccc(Cc2c([O-])coc2O)s1 (3D coordinates assigned)
[NH-]S(=O)(=O)c1ccc(Cc2c([O-])coc2O)s1 (optimized conformer: 76.35412156956043 kcal/mol)

>  <smiles>  (3) 
NS(=O)(=O)c1ccc(Cc2c(O)coc2O)s1

>  <score_type>  (3) 
oracle

>  <origin>  (3) 
adgpu

>  <m_score__min__energy>  (3) 
-8.5800000000000001

>  <m_primary>  (3) 
energy

$$$$
3:0
     RDKit          3D

 24 25  0  0  0  0  0  0  0  0999 V2000
   -1.8650   25.2460  -29.3490 O   0  0  0  0  0  0  0  0  0  0  0  0
   -3.0170   24.7710  -29.5210 C   0  0  0  0  0  0  0  0  0  0  0  0
   -3.4470   23.7400  -28.7500 N   0  0  0  0  0  0  0  0  0  0  0  0
   -4.6870   23.2120  -28.9180 C   0  0  0  0  0  0  0  0  0  0  0  0
   -5.5500   23.7340  -29.8910 C   0  0  0  0  0  0  0  0  0  0  0  0
   -6.9140   23.1260  -30.1020 C   0  0  0  0  0  0  0  0  0  0  0  0
   -6.8540   22.0610  -31.1640 C   0  0  0  0  0  0  0  0  0  0  0  0
   -5.6210   21.6840  -31.7240 C   0  0  0  0  0  0  0  0  0  0  0  0
   -5.5660   20.6720  -32.6860 C   0  0  0  0  0  0  0  0  0  0  0  0
   -6.7350   20.0250  -33.0930 C   0  0  0  0  0  0  0  0  0  0  0  0
   -7.9670   20.3860  -32.5370 C   0  0  0  0  0  0  0  0  0  0  0  0
   -9.1250   19.7290  -32.9480 O   0  0  0  0  0  0  0  0  0  0  0  0
   -8.0260   21.4010  -31.5710 C   0  0  0  0  0  0  0  0  0  0  0  0
   -5.0770   24.7950  -30.6840 C   0  0  0  0  0  0  0  0  0  0  0  0
   -5.7990   25.2980  -31.5870 O   0  0  0  0  0  0  0  0  0  0  0  0
   -3.8280   25.2890  -30.4780 N   0  0  0  0  0  0  0  0  0  0  0  0
   -5.0150   22.3719  -28.2883 H   0  0  0  0  0  0  0  0  0  0  0  0
   -7.2615   22.6787  -29.1590 H   0  0  0  0  0  0  0  0  0  0  0  0
   -7.6103   23.9139  -30.4251 H   0  0  0  0  0  0  0  0  0  0  0  0
   -4.6967   22.1872  -31.4040 H   0  0  0  0  0  0  0  0  0  0  0  0
   -4.5990   20.3840  -33.1241 H   0  0  0  0  0  0  0  0  0  0  0  0
   -6.6869   19.2303  -33.8520 H   0  0  0  0  0  0  0  0  0  0  0  0
   -9.2840   19.4960  -33.9210 H   0  0  0  0  0  0  0  0  0  0  0  0
   -8.9938   21.6817  -31.1300 H   0  0  0  0  0  0  0  0  0  0  0  0
  1  2  2  0
  2  3  1  0
  3  4  1  0
  4  5  2  0
  5  6  1  0
  6  7  1  0
  7  8  2  0
  8  9  1  0
  9 10  2  0
 10 11  1  0
 11 12  1  0
 11 13  2  0
  5 14  1  0
 14 15  2  0
 14 16  1  0
 16  2  1  0
 13  7  1  0
  4 17  1  0
  6 18  1  0
  6 19  1  0
  8 20  1  0
  9 21  1  0
 10 22  1  0
 12 23  1  0
 13 24  1  0
M  CHG  2   3  -1  16  -1
M  END
>  <UniqueID>  (4) 
4

>  <SMILES>  (4) 
O=c1[n-]cc(Cc2cccc(O)c2)c(=O)[n-]1

>  <Energy>  (4) 
25.221022153206672

>  <Genealogy>  (4) 
O=c1[n-]cc(Cc2cccc(O)c2)c(=O)[n-]1 (protonated)
O=c1[n-]cc(Cc2cccc(O)c2)c(=O)[n-]1 (3D coordinates assigned)
O=c1[n-]cc(Cc2cccc(O)c2)c(=O)[n-]1 (optimized conformer: 25.221022153206672 kcal/mol)

>  <smiles>  (4) 
O=c1[nH]cc(Cc2cccc(O)c2)c(=O)[nH]1

>  <score_type>  (4) 
oracle

>  <origin>  (4) 
adgpu

>  <m_score__min__energy>  (4) 
-9.1400000000000006

>  <m_primary>  (4) 
energy

$$$$
4:0
     RDKit          3D

 44 45  0  0  0  0  0  0  0  0999 V2000
   -1.1970   26.9670  -25.3920 C   0  0  0  0  0  0  0  0  0  0  0  0
   -1.2530   26.4490  -26.7170 O   0  0  0  0  0  0  0  0  0  0  0  0
   -1.2570   25.0820  -27.0350 C   0  0  0  0  0  0  0  0  0  0  0  0
   -1.0870   24.0840  -26.0570 C   0  0  0  0  0  0  0  0  0  0  0  0
   -1.0940   22.7360  -26.4170 C   0  0  0  0  0  0  0  0  0  0  0  0
   -1.2740   22.3670  -27.7510 C   0  0  0  0  0  0  0  0  0  0  0  0
   -1.4500   23.3460  -28.7410 C   0  0  0  0  0  0  0  0  0  0  0  0
   -1.6010   22.9150  -30.1780 C   0  0  0  0  0  0  0  0  0  0  0  0
   -2.9170   22.3180  -30.3850 N   0  0  0  0  0  0  0  0  0  0  0  0
   -4.0340   23.0680  -30.8850 C   0  0  0  0  0  0  0  0  0  0  0  0
   -3.9920   24.3270  -30.9040 O   0  0  0  0  0  0  0  0  0  0  0  0
   -5.2710   22.3840  -31.3090 C   0  0  0  0  0  0  0  0  0  0  0  0
   -5.1570   21.1090  -31.7560 N   0  0  0  0  0  0  0  0  0  0  0  0
   -6.2090   20.3790  -32.2030 C   0  0  0  0  0  0  0  0  0  0  0  0
   -5.9410   18.9750  -32.6650 C   0  0  0  0  0  0  0  0  0  0  0  0
   -7.5010   20.9530  -32.2260 C   0  0  0  0  0  0  0  0  0  0  0  0
   -8.6910   20.1500  -32.7100 C   0  0  0  0  0  0  0  0  0  0  0  0
   -7.6520   22.3080  -31.8290 C   0  0  0  0  0  0  0  0  0  0  0  0
   -8.9970   22.9960  -31.9510 C   0  0  0  0  0  0  0  0  0  0  0  0
   -6.5430   23.0010  -31.2730 C   0  0  0  0  0  0  0  0  0  0  0  0
   -6.7220   24.3590  -30.6280 C   0  0  0  0  0  0  0  0  0  0  0  0
   -1.4370   24.7070  -28.3760 C   0  0  0  0  0  0  0  0  0  0  0  0
   -1.6030   25.6970  -29.3400 O   0  0  0  0  0  0  0  0  0  0  0  0
   -1.2863   26.1408  -24.6713 H   0  0  0  0  0  0  0  0  0  0  0  0
   -0.2378   27.4837  -25.2405 H   0  0  0  0  0  0  0  0  0  0  0  0
   -2.0237   27.6767  -25.2405 H   0  0  0  0  0  0  0  0  0  0  0  0
   -0.9479   24.3683  -25.0035 H   0  0  0  0  0  0  0  0  0  0  0  0
   -0.9573   21.9620  -25.6474 H   0  0  0  0  0  0  0  0  0  0  0  0
   -1.2779   21.3025  -28.0280 H   0  0  0  0  0  0  0  0  0  0  0  0
   -1.4911   23.7908  -30.8344 H   0  0  0  0  0  0  0  0  0  0  0  0
   -0.8260   22.1713  -30.4150 H   0  0  0  0  0  0  0  0  0  0  0  0
   -3.0450   21.3060  -30.1550 H   0  0  0  0  0  0  0  0  0  0  0  0
   -5.8158   18.3190  -31.7909 H   0  0  0  0  0  0  0  0  0  0  0  0
   -6.7877   18.6205  -33.2712 H   0  0  0  0  0  0  0  0  0  0  0  0
   -5.0233   18.9573  -33.2712 H   0  0  0  0  0  0  0  0  0  0  0  0
   -9.2537   19.7703  -31.8444 H   0  0  0  0  0  0  0  0  0  0  0  0
   -9.3441   20.7928  -33.3185 H   0  0  0  0  0  0  0  0  0  0  0  0
   -8.3393   19.3038  -33.3185 H   0  0  0  0  0  0  0  0  0  0  0  0
   -9.3967   23.2005  -30.9468 H   0  0  0  0  0  0  0  0  0  0  0  0
   -8.8762   23.9430  -32.4974 H   0  0  0  0  0  0  0  0  0  0  0  0
   -9.6942   22.3438  -32.4974 H   0  0  0  0  0  0  0  0  0  0  0  0
   -6.7076   24.2498  -29.5335 H   0  0  0  0  0  0  0  0  0  0  0  0
   -5.9038   25.0243  -30.9409 H   0  0  0  0  0  0  0  0  0  0  0  0
   -7.6847   24.7895  -30.9409 H   0  0  0  0  0  0  0  0  0  0  0  0
  1  2  1  0
  2  3  1  0
  3  4  2  0
  4  5  1  0
  5  6  2  0
  6  7  1  0
  7  8  1  0
  8  9  1  0
  9 10  1  0
 10 11  2  0
 10 12  1  0
 12 13  2  0
 13 14  1  0
 14 15  1  0
 14 16  2  0
 16 17  1  0
 16 18  1  0
 18 19  1  0
 18 20  2  0
 20 21  1  0
  7 22  2  0
 22 23  1  0
 22  3  1  0
 20 12  1  0
  1 24  1  0
  1 25  1  0
  1 26  1  0
  4 27  1  0
  5 28  1  0
  6 29  1  0
  8 30  1  0
  8 31  1  0
  9 32  1  0
 15 33  1  0
 15 34  1  0
 15 35  1  0
 17 36  1  0
 17 37  1  0
 17 38  1  0
 19 39  1  0
 19 40  1  0
 19 41  1  0
 21 42  1  0
 21 43  1  0
 21 44  1  0
M  CHG  1  23  -1
M  END
>  <UniqueID>  (5) 
5

>  <SMILES>  (5) 
COc1cccc(CNC(=O)c2nc(C)c(C)c(C)c2C)c1[O-]

>  <Energy>  (5) 
52.157719582391955

>  <Genealogy>  (5) 
COc1cccc(CNC(=O)c2nc(C)c(C)c(C)c2C)c1[O-] (protonated)
COc1cccc(CNC(=O)c2nc(C)c(C)c(C)c2C)c1[O-] (3D coordinates assigned)
COc1cccc(CNC(=O)c2nc(C)c(C)c(C)c2C)c1[O-] (optimized conformer: 52.157719582391955 kcal/mol)

>  <smiles>  (5) 
COc1cccc(CNC(=O)c2nc(C)c(C)c(C)c2C)c1O

>  <score_type>  (5) 
oracle

>  <origin>  (5) 
adgpu

>  <m_score__min__energy>  (5) 
-11.84

>  <m_primary>  (5) 
energy

$$$$
5:0
     RDKit          3D

 53 56  0  0  0  0  0  0  0  0999 V2000
    0.5220   20.0830  -33.0080 C   0  0  0  0  0  0  0  0  0  0  0  0
   -0.8130   20.6560  -32.9080 N   0  0  0  0  0  0  0  0  0  0  0  0
   -1.2610   21.4350  -31.9060 C   0  0  0  0  0  0  0  0  0  0  0  0
   -2.5500   21.8270  -32.2190 C   0  0  0  0  0  0  0  0  0  0  0  0
   -3.4720   22.6680  -31.4290 C   0  0  0  0  0  0  0  0  0  0  0  0
   -3.1580   23.0990  -30.1360 C   0  0  0  0  0  0  0  0  0  0  0  0
   -4.0890   23.8510  -29.4270 C   0  0  0  0  0  0  0  0  0  0  0  0
   -5.3150   24.1600  -30.0170 C   0  0  0  0  0  0  0  0  0  0  0  0
   -6.1670   24.8210  -29.3630 O   0  0  0  0  0  0  0  0  0  0  0  0
   -5.5770   23.7370  -31.2930 N   0  0  0  0  0  0  0  0  0  0  0  0
   -6.8680   23.9860  -31.9470 C   0  0  0  0  0  0  0  0  0  0  0  0
   -7.6230   22.6920  -32.0710 C   0  0  0  0  0  0  0  0  0  0  0  0
   -9.0210   22.6720  -31.9570 C   0  0  0  0  0  0  0  0  0  0  0  0
   -9.7060   21.4560  -31.9520 C   0  0  0  0  0  0  0  0  0  0  0  0
   -9.0030   20.2500  -32.0470 C   0  0  0  0  0  0  0  0  0  0  0  0
   -7.6010   20.2530  -32.1720 C   0  0  0  0  0  0  0  0  0  0  0  0
   -6.8350   19.0350  -32.2020 N   0  0  0  0  0  0  0  0  0  0  0  0
   -5.9430   18.6540  -33.2580 C   0  0  0  0  0  0  0  0  0  0  0  0
   -5.2610   19.5310  -33.8550 O   0  0  0  0  0  0  0  0  0  0  0  0
   -5.7360   17.2240  -33.5800 C   0  0  0  0  0  0  0  0  0  0  0  0
   -6.8640   16.4340  -33.8640 C   0  0  0  0  0  0  0  0  0  0  0  0
   -6.7220   15.0900  -34.2130 C   0  0  0  0  0  0  0  0  0  0  0  0
   -5.4550   14.5140  -34.2800 C   0  0  0  0  0  0  0  0  0  0  0  0
   -4.3250   15.2750  -33.9790 C   0  0  0  0  0  0  0  0  0  0  0  0
   -4.4460   16.6280  -33.6090 C   0  0  0  0  0  0  0  0  0  0  0  0
   -3.1880   17.3800  -33.2370 C   0  0  0  0  0  0  0  0  0  0  0  0
   -2.6990   18.1430  -34.3820 N   0  0  0  0  0  0  0  0  0  0  0  0
   -6.9220   21.4810  -32.1750 C   0  0  0  0  0  0  0  0  0  0  0  0
   -4.6750   23.0110  -31.9600 N   0  0  0  0  0  0  0  0  0  0  0  0
   -2.8140   21.2460  -33.4470 C   0  0  0  0  0  0  0  0  0  0  0  0
   -1.7360   20.5440  -33.8490 N   0  0  0  0  0  0  0  0  0  0  0  0
    0.9236   19.9106  -31.9985 H   0  0  0  0  0  0  0  0  0  0  0  0
    0.4712   19.1274  -33.5505 H   0  0  0  0  0  0  0  0  0  0  0  0
    1.1797   20.7781  -33.5505 H   0  0  0  0  0  0  0  0  0  0  0  0
   -0.7018   21.7107  -30.9998 H   0  0  0  0  0  0  0  0  0  0  0  0
   -2.1869   22.8464  -29.6853 H   0  0  0  0  0  0  0  0  0  0  0  0
   -3.8604   24.1994  -28.4090 H   0  0  0  0  0  0  0  0  0  0  0  0
   -7.4535   24.6962  -31.3447 H   0  0  0  0  0  0  0  0  0  0  0  0
   -6.6972   24.4090  -32.9480 H   0  0  0  0  0  0  0  0  0  0  0  0
   -9.5784   23.6164  -31.8714 H   0  0  0  0  0  0  0  0  0  0  0  0
  -10.8031   21.4457  -31.8730 H   0  0  0  0  0  0  0  0  0  0  0  0
   -9.5485   19.2951  -32.0239 H   0  0  0  0  0  0  0  0  0  0  0  0
   -6.9410   18.3660  -31.4050 H   0  0  0  0  0  0  0  0  0  0  0  0
   -7.8683   16.8796  -33.8106 H   0  0  0  0  0  0  0  0  0  0  0  0
   -7.6126   14.4840  -34.4357 H   0  0  0  0  0  0  0  0  0  0  0  0
   -5.3456   13.4587  -34.5704 H   0  0  0  0  0  0  0  0  0  0  0  0
   -3.3283   14.8126  -34.0314 H   0  0  0  0  0  0  0  0  0  0  0  0
   -3.4083   18.0692  -32.4085 H   0  0  0  0  0  0  0  0  0  0  0  0
   -2.4162   16.6587  -32.9305 H   0  0  0  0  0  0  0  0  0  0  0  0
   -1.6980   18.3910  -34.2080 H   0  0  0  0  0  0  0  0  0  0  0  0
   -3.2290   19.0440  -34.4150 H   0  0  0  0  0  0  0  0  0  0  0  0
   -5.8254   21.4944  -32.2600 H   0  0  0  0  0  0  0  0  0  0  0  0
   -3.7559   21.3421  -34.0071 H   0  0  0  0  0  0  0  0  0  0  0  0
  1  2  1  0
  2  3  1  0
  3  4  2  0
  4  5  1  0
  5  6  1  0
  6  7  2  0
  7  8  1  0
  8  9  2  0
  8 10  1  0
 10 11  1  0
 11 12  1  0
 12 13  2  0
 13 14  1  0
 14 15  2  0
 15 16  1  0
 16 17  1  0
 17 18  1  0
 18 19  2  0
 18 20  1  0
 20 21  2  0
 21 22  1  0
 22 23  2  0
 23 24  1  0
 24 25  2  0
 25 26  1  0
 26 27  1  0
 16 28  2  0
 10 29  1  0
  4 30  1  0
 30 31  2  0
 31  2  1  0
 29  5  2  0
 28 12  1  0
 25 20  1  0
  1 32  1  0
  1 33  1  0
  1 34  1  0
  3 35  1  0
  6 36  1  0
  7 37  1  0
 11 38  1  0
 11 39  1  0
 13 40  1  0
 14 41  1  0
 15 42  1  0
 17 43  1  0
 21 44  1  0
 22 45  1  0
 23 46  1  0
 24 47  1  0
 26 48  1  0
 26 49  1  0
 27 50  1  0
 27 51  1  0
 28 52  1  0
 30 53  1  0
M  END
>  <UniqueID>  (6) 
6

>  <SMILES>  (6) 
Cn1cc(-c2ccc(=O)n(Cc3cccc(NC(=O)c4ccccc4CN)c3)n2)cn1

>  <Energy>  (6) 
94.59122486194022

>  <Genealogy>  (6) 
Cn1cc(-c2ccc(=O)n(Cc3cccc(NC(=O)c4ccccc4CN)c3)n2)cn1 (3D coordinates assigned)
Cn1cc(-c2ccc(=O)n(Cc3cccc(NC(=O)c4ccccc4CN)c3)n2)cn1 (optimized conformer: 94.59122486194022 kcal/mol)

>  <smiles>  (6) 
Cn1cc(-c2ccc(=O)n(Cc3cccc(NC(=O)c4ccccc4CN)c3)n2)cn1

>  <score_type>  (6) 
oracle

>  <origin>  (6) 
adgpu

>  <m_score__min__energy>  (6) 
-10.300000000000001

>  <m_primary>  (6) 
energy

$$$$
6:0
     RDKit          3D

 66 69  0  0  0  0  0  0  0  0999 V2000
   -0.3780   21.6510  -26.7680 C   0  0  0  0  0  0  0  0  0  0  0  0
   -1.4940   22.3950  -27.4490 C   0  0  0  0  0  0  0  0  0  0  0  0
   -2.6730   21.6860  -27.7440 C   0  0  0  0  0  0  0  0  0  0  0  0
   -3.7410   22.3090  -28.3840 C   0  0  0  0  0  0  0  0  0  0  0  0
   -3.6570   23.6510  -28.7430 C   0  0  0  0  0  0  0  0  0  0  0  0
   -4.7960   24.2920  -29.3270 N   0  0  0  0  0  0  0  0  0  0  0  0
   -4.7650   24.8390  -30.6490 C   0  0  0  0  0  0  0  0  0  0  0  0
   -3.8230   25.6020  -30.9910 O   0  0  0  0  0  0  0  0  0  0  0  0
   -5.7780   24.4820  -31.5950 N   0  0  0  0  0  0  0  0  0  0  0  0
   -6.0830   23.1130  -31.8850 C   0  0  0  0  0  0  0  0  0  0  0  0
   -7.4180   22.6910  -31.8960 C   0  0  0  0  0  0  0  0  0  0  0  0
   -7.7230   21.3280  -31.9750 C   0  0  0  0  0  0  0  0  0  0  0  0
   -6.6930   20.3810  -32.0720 C   0  0  0  0  0  0  0  0  0  0  0  0
   -7.0610   18.6600  -31.9880 S   0  0  0  0  0  0  0  0  0  0  0  0
   -6.1590   18.0150  -30.9700 O   0  0  0  0  0  0  0  0  0  0  0  0
   -8.4800   18.4820  -31.5240 O   0  0  0  0  0  0  0  0  0  0  0  0
   -6.8370   17.8650  -33.5350 N   0  0  0  0  0  0  0  0  0  0  0  0
   -6.4280   16.4520  -33.3960 C   0  0  0  0  0  0  0  0  0  0  0  0
   -4.9220   16.2360  -33.6150 C   0  0  0  0  0  0  0  0  0  0  0  0
   -4.2050   17.4050  -33.3000 O   0  0  0  0  0  0  0  0  0  0  0  0
   -4.4760   18.3960  -34.2690 C   0  0  0  0  0  0  0  0  0  0  0  0
   -5.9910   18.6450  -34.4610 C   0  0  0  0  0  0  0  0  0  0  0  0
   -5.3610   20.8130  -32.1540 C   0  0  0  0  0  0  0  0  0  0  0  0
   -5.0560   22.1720  -32.0500 C   0  0  0  0  0  0  0  0  0  0  0  0
   -2.4660   24.3620  -28.5170 C   0  0  0  0  0  0  0  0  0  0  0  0
   -2.3690   25.6730  -28.9750 O   0  0  0  0  0  0  0  0  0  0  0  0
   -1.3810   23.7600  -27.8410 C   0  0  0  0  0  0  0  0  0  0  0  0
    0.1030   24.7270  -27.5780 S   0  0  0  0  0  0  0  0  0  0  0  0
   -0.1250   26.0950  -28.1580 O   0  0  0  0  0  0  0  0  0  0  0  0
    1.2600   24.1320  -28.3280 O   0  0  0  0  0  0  0  0  0  0  0  0
    0.6040   24.9420  -25.8530 C   0  0  0  0  0  0  0  0  0  0  0  0
   -0.5690   24.8520  -24.8580 C   0  0  0  0  0  0  0  0  0  0  0  0
   -1.2930   26.1940  -24.6610 C   0  0  0  0  0  0  0  0  0  0  0  0
   -0.3720   27.3000  -24.3290 N   0  0  0  0  0  0  0  0  0  0  0  0
    0.1780   27.2080  -22.9650 C   0  0  0  0  0  0  0  0  0  0  0  0
    0.6720   27.4690  -25.3550 C   0  0  0  0  0  0  0  0  0  0  0  0
    1.4810   26.1860  -25.6100 C   0  0  0  0  0  0  0  0  0  0  0  0
   -0.4966   21.7301  -25.6773 H   0  0  0  0  0  0  0  0  0  0  0  0
   -0.4088   20.5921  -27.0644 H   0  0  0  0  0  0  0  0  0  0  0  0
    0.5876   22.0867  -27.0644 H   0  0  0  0  0  0  0  0  0  0  0  0
   -2.7520   20.6249  -27.4651 H   0  0  0  0  0  0  0  0  0  0  0  0
   -4.6547   21.7384  -28.6068 H   0  0  0  0  0  0  0  0  0  0  0  0
   -8.2286   23.4327  -31.8424 H   0  0  0  0  0  0  0  0  0  0  0  0
   -8.7724   20.9984  -31.9610 H   0  0  0  0  0  0  0  0  0  0  0  0
   -6.6870   16.1106  -32.3829 H   0  0  0  0  0  0  0  0  0  0  0  0
   -6.9577   15.8793  -34.1715 H   0  0  0  0  0  0  0  0  0  0  0  0
   -4.5766   15.4147  -32.9698 H   0  0  0  0  0  0  0  0  0  0  0  0
   -4.7487   15.9867  -34.6723 H   0  0  0  0  0  0  0  0  0  0  0  0
   -4.0021   19.3368  -33.9522 H   0  0  0  0  0  0  0  0  0  0  0  0
   -4.0734   18.0408  -35.2291 H   0  0  0  0  0  0  0  0  0  0  0  0
   -6.1916   19.7144  -34.2992 H   0  0  0  0  0  0  0  0  0  0  0  0
   -6.2456   18.3232  -35.4816 H   0  0  0  0  0  0  0  0  0  0  0  0
   -4.5545   20.0795  -32.3006 H   0  0  0  0  0  0  0  0  0  0  0  0
   -4.0087   22.5049  -32.0976 H   0  0  0  0  0  0  0  0  0  0  0  0
    1.2495   24.0756  -25.6465 H   0  0  0  0  0  0  0  0  0  0  0  0
   -1.2931   24.1150  -25.2353 H   0  0  0  0  0  0  0  0  0  0  0  0
   -0.1525   24.5563  -23.8838 H   0  0  0  0  0  0  0  0  0  0  0  0
   -1.8239   26.4463  -25.5908 H   0  0  0  0  0  0  0  0  0  0  0  0
   -1.9850   26.0749  -23.8143 H   0  0  0  0  0  0  0  0  0  0  0  0
   -0.6320   27.3435  -22.2331 H   0  0  0  0  0  0  0  0  0  0  0  0
    0.6401   26.2201  -22.8218 H   0  0  0  0  0  0  0  0  0  0  0  0
    0.9364   27.9918  -22.8218 H   0  0  0  0  0  0  0  0  0  0  0  0
    0.1914   27.7727  -26.2967 H   0  0  0  0  0  0  0  0  0  0  0  0
    1.3739   28.2313  -24.9861 H   0  0  0  0  0  0  0  0  0  0  0  0
    2.1136   26.3440  -26.4959 H   0  0  0  0  0  0  0  0  0  0  0  0
    2.0724   25.9918  -24.7031 H   0  0  0  0  0  0  0  0  0  0  0  0
  1  2  1  0
  2  3  2  0
  3  4  1  0
  4  5  2  0
  5  6  1  0
  6  7  1  0
  7  8  2  0
  7  9  1  0
  9 10  1  0
 10 11  2  0
 11 12  1  0
 12 13  2  0
 13 14  1  0
 14 15  2  0
 14 16  2  0
 14 17  1  0
 17 18  1  0
 18 19  1  0
 19 20  1  0
 20 21  1  0
 21 22  1  0
 13 23  1  0
 23 24  2  0
  5 25  1  0
 25 26  1  0
 25 27  2  0
 27 28  1  0
 28 29  2  0
 28 30  2  0
 28 31  1  0
 31 32  1  0
 32 33  1  0
 33 34  1  0
 34 35  1  0
 34 36  1  0
 36 37  1  0
 27  2  1  0
 37 31  1  0
 24 10  1  0
 22 17  1  0
  1 38  1  0
  1 39  1  0
  1 40  1  0
  3 41  1  0
  4 42  1  0
 11 43  1  0
 12 44  1  0
 18 45  1  0
 18 46  1  0
 19 47  1  0
 19 48  1  0
 21 49  1  0
 21 50  1  0
 22 51  1  0
 22 52  1  0
 23 53  1  0
 24 54  1  0
 31 55  1  0
 32 56  1  0
 32 57  1  0
 33 58  1  0
 33 59  1  0
 35 60  1  0
 35 61  1  0
 35 62  1  0
 36 63  1  0
 36 64  1  0
 37 65  1  0
 37 66  1  0
M  CHG  3   6  -1   9  -1  26  -1
M  END
>  <UniqueID>  (7) 
7

>  <SMILES>  (7) 
Cc1ccc([N-]C(=O)[N-]c2ccc(S(=O)(=O)N3CCOCC3)cc2)c([O-])c1S(=O)(=O)C1CCN(C)CC1

>  <Energy>  (7) 
96.35479116695552

>  <Genealogy>  (7) 
Cc1ccc([N-]C(=O)[N-]c2ccc(S(=O)(=O)N3CCOCC3)cc2)c([O-])c1S(=O)(=O)C1CCN(C)CC1 (protonated)
Cc1ccc([N-]C(=O)[N-]c2ccc(S(=O)(=O)N3CCOCC3)cc2)c([O-])c1S(=O)(=O)C1CCN(C)CC1 (3D coordinates assigned)
Cc1ccc([N-]C(=O)[N-]c2ccc(S(=O)(=O)N3CCOCC3)cc2)c([O-])c1S(=O)(=O)C1CCN(C)CC1 (nonaromatic ring conformer: 96.35479116695552 kcal/mol)

>  <smiles>  (7) 
Cc1ccc(NC(=O)Nc2ccc(S(=O)(=O)N3CCOCC3)cc2)c(O)c1S(=O)(=O)C1CCN(C)CC1

>  <score_type>  (7) 
oracle

>  <origin>  (7) 
adgpu

>  <m_score__min__energy>  (7) 
-16.850000000000001

>  <m_primary>  (7) 
energy

$$$$
7:0
     RDKit          3D

 56 58  0  0  0  0  0  0  0  0999 V2000
   -1.1770   26.8290  -23.7060 C   0  0  0  0  0  0  0  0  0  0  0  0
   -0.2220   26.5070  -24.8170 C   0  0  0  0  0  0  0  0  0  0  0  0
    0.9350   27.2760  -24.9990 C   0  0  0  0  0  0  0  0  0  0  0  0
    1.8420   26.9510  -26.0100 C   0  0  0  0  0  0  0  0  0  0  0  0
    1.6000   25.8630  -26.8540 C   0  0  0  0  0  0  0  0  0  0  0  0
    2.5260   25.5610  -27.8470 O   0  0  0  0  0  0  0  0  0  0  0  0
    0.4300   25.0930  -26.6970 C   0  0  0  0  0  0  0  0  0  0  0  0
    0.1350   23.9600  -27.6080 C   0  0  0  0  0  0  0  0  0  0  0  0
    0.9420   22.9920  -27.6600 O   0  0  0  0  0  0  0  0  0  0  0  0
   -1.0900   23.9100  -28.4400 C   0  0  0  0  0  0  0  0  0  0  0  0
   -1.6740   24.9910  -29.0730 C   0  0  0  0  0  0  0  0  0  0  0  0
   -1.2200   26.3040  -29.0590 O   0  0  0  0  0  0  0  0  0  0  0  0
   -2.7900   24.5300  -29.7270 C   0  0  0  0  0  0  0  0  0  0  0  0
   -3.6640   25.3160  -30.4690 O   0  0  0  0  0  0  0  0  0  0  0  0
   -2.9360   23.2030  -29.5360 N   0  0  0  0  0  0  0  0  0  0  0  0
   -4.0830   22.4040  -29.9790 C   0  0  0  0  0  0  0  0  0  0  0  0
   -4.2850   22.5320  -31.4930 C   0  0  0  0  0  0  0  0  0  0  0  0
   -5.6620   22.9690  -31.8090 N   0  0  0  0  0  0  0  0  0  0  0  0
   -6.5320   21.8030  -32.0250 C   0  0  0  0  0  0  0  0  0  0  0  0
   -6.2150   23.7990  -30.7230 C   0  0  0  0  0  0  0  0  0  0  0  0
   -1.9070   22.8130  -28.7390 C   0  0  0  0  0  0  0  0  0  0  0  0
   -1.7420   21.4470  -28.2070 C   0  0  0  0  0  0  0  0  0  0  0  0
   -2.4860   21.0300  -27.0940 C   0  0  0  0  0  0  0  0  0  0  0  0
   -2.3770   19.7200  -26.6270 C   0  0  0  0  0  0  0  0  0  0  0  0
   -1.5170   18.8200  -27.2620 C   0  0  0  0  0  0  0  0  0  0  0  0
   -0.7530   19.2240  -28.3630 C   0  0  0  0  0  0  0  0  0  0  0  0
    0.1320   18.2700  -28.9660 N   0  0  0  0  0  0  0  0  0  0  0  0
    1.5170   17.5500  -28.2110 S   0  0  0  0  0  0  0  0  0  0  0  0
    1.0230   16.2270  -27.1280 C   0  0  0  0  0  0  0  0  0  0  0  0
    2.2230   18.6000  -27.4010 O   0  0  0  0  0  0  0  0  0  0  0  0
    2.4620   17.0350  -29.2590 O   0  0  0  0  0  0  0  0  0  0  0  0
   -0.8730   20.5430  -28.8380 C   0  0  0  0  0  0  0  0  0  0  0  0
   -0.4510   25.3990  -25.6440 C   0  0  0  0  0  0  0  0  0  0  0  0
   -0.6826   26.6623  -22.7376 H   0  0  0  0  0  0  0  0  0  0  0  0
   -1.4874   27.8815  -23.7828 H   0  0  0  0  0  0  0  0  0  0  0  0
   -2.0613   26.1794  -23.7828 H   0  0  0  0  0  0  0  0  0  0  0  0
    1.1295   28.1380  -24.3439 H   0  0  0  0  0  0  0  0  0  0  0  0
    2.7520   27.5545  -26.1430 H   0  0  0  0  0  0  0  0  0  0  0  0
   -3.9054   21.3481  -29.7271 H   0  0  0  0  0  0  0  0  0  0  0  0
   -4.9862   22.7729  -29.4709 H   0  0  0  0  0  0  0  0  0  0  0  0
   -3.5732   23.2709  -31.8897 H   0  0  0  0  0  0  0  0  0  0  0  0
   -4.1154   21.5476  -31.9536 H   0  0  0  0  0  0  0  0  0  0  0  0
   -6.8400   21.3902  -31.0530 H   0  0  0  0  0  0  0  0  0  0  0  0
   -7.4232   22.1105  -32.5918 H   0  0  0  0  0  0  0  0  0  0  0  0
   -5.9835   21.0362  -32.5918 H   0  0  0  0  0  0  0  0  0  0  0  0
   -5.9290   23.3697  -29.7514 H   0  0  0  0  0  0  0  0  0  0  0  0
   -5.8168   24.8212  -30.8037 H   0  0  0  0  0  0  0  0  0  0  0  0
   -7.3117   23.8252  -30.8037 H   0  0  0  0  0  0  0  0  0  0  0  0
   -3.1580   21.7383  -26.5873 H   0  0  0  0  0  0  0  0  0  0  0  0
   -2.9685   19.3952  -25.7583 H   0  0  0  0  0  0  0  0  0  0  0  0
   -1.4399   17.7863  -26.8938 H   0  0  0  0  0  0  0  0  0  0  0  0
    1.1420   16.5457  -26.0819 H   0  0  0  0  0  0  0  0  0  0  0  0
   -0.0306   15.9730  -27.3163 H   0  0  0  0  0  0  0  0  0  0  0  0
    1.6522   15.3446  -27.3163 H   0  0  0  0  0  0  0  0  0  0  0  0
   -0.2831   20.8673  -29.7079 H   0  0  0  0  0  0  0  0  0  0  0  0
   -1.3298   24.7613  -25.4676 H   0  0  0  0  0  0  0  0  0  0  0  0
  1  2  1  0
  2  3  2  0
  3  4  1  0
  4  5  2  0
  5  6  1  0
  5  7  1  0
  7  8  1  0
  8  9  2  0
  8 10  1  0
 10 11  1  0
 11 12  1  0
 11 13  2  0
 13 14  1  0
 13 15  1  0
 15 16  1  0
 16 17  1  0
 17 18  1  0
 18 19  1  0
 18 20  1  0
 15 21  1  0
 21 22  1  0
 22 23  2  0
 23 24  1  0
 24 25  2  0
 25 26  1  0
 26 27  1  0
 27 28  1  0
 28 29  1  0
 28 30  2  0
 28 31  2  0
 26 32  2  0
  7 33  2  0
 33  2  1  0
 21 10  2  0
 32 22  1  0
  1 34  1  0
  1 35  1  0
  1 36  1  0
  3 37  1  0
  4 38  1  0
 16 39  1  0
 16 40  1  0
 17 41  1  0
 17 42  1  0
 19 43  1  0
 19 44  1  0
 19 45  1  0
 20 46  1  0
 20 47  1  0
 20 48  1  0
 23 49  1  0
 24 50  1  0
 25 51  1  0
 29 52  1  0
 29 53  1  0
 29 54  1  0
 32 55  1  0
 33 56  1  0
M  CHG  4   6  -1  12  -1  14  -1  27  -1
M  END
>  <UniqueID>  (8) 
8

>  <SMILES>  (8) 
Cc1ccc([O-])c(C(=O)c2c([O-])c([O-])n(CCN(C)C)c2-c2cccc([N-]S(C)(=O)=O)c2)c1

>  <Energy>  (8) 
89.36861004147454

>  <Genealogy>  (8) 
Cc1ccc([O-])c(C(=O)c2c([O-])c([O-])n(CCN(C)C)c2-c2cccc([N-]S(C)(=O)=O)c2)c1 (protonated)
Cc1ccc([O-])c(C(=O)c2c([O-])c([O-])n(CCN(C)C)c2-c2cccc([N-]S(C)(=O)=O)c2)c1 (3D coordinates assigned)
Cc1ccc([O-])c(C(=O)c2c([O-])c([O-])n(CCN(C)C)c2-c2cccc([N-]S(C)(=O)=O)c2)c1 (optimized conformer: 89.36861004147454 kcal/mol)

>  <smiles>  (8) 
Cc1ccc(O)c(C(=O)c2c(O)c(O)n(CCN(C)C)c2-c2cccc(NS(C)(=O)=O)c2)c1

>  <score_type>  (8) 
oracle

>  <origin>  (8) 
adgpu

>  <m_score__min__energy>  (8) 
-14.359999999999999

>  <m_primary>  (8) 
energy

$$$$
8:0
     RDKit          3D

 48 50  0  0  0  0  0  0  0  0999 V2000
   -5.1270   22.6000  -32.3380 C   0  0  0  0  0  0  0  0  0  0  0  0
   -3.7640   22.1000  -31.9860 C   0  0  0  0  0  0  0  0  0  0  0  0
   -3.0690   21.2350  -32.7500 N   0  0  0  0  0  0  0  0  0  0  0  0
   -1.9370   20.9580  -32.1220 N   0  0  0  0  0  0  0  0  0  0  0  0
   -0.9600   19.9920  -32.6290 C   0  0  0  0  0  0  0  0  0  0  0  0
   -0.0380   20.6570  -33.6150 C   0  0  0  0  0  0  0  0  0  0  0  0
    1.3460   20.4330  -33.5430 C   0  0  0  0  0  0  0  0  0  0  0  0
    2.2160   21.1250  -34.3880 C   0  0  0  0  0  0  0  0  0  0  0  0
    1.7130   22.0450  -35.3180 C   0  0  0  0  0  0  0  0  0  0  0  0
    2.8290   23.0140  -36.2760 S   0  0  0  0  0  0  0  0  0  0  0  0
    3.6210   22.1450  -37.2130 O   0  0  0  0  0  0  0  0  0  0  0  0
    3.7710   23.7300  -35.3510 O   0  0  0  0  0  0  0  0  0  0  0  0
    1.9370   24.1780  -37.2010 N   0  0  0  0  0  0  0  0  0  0  0  0
    1.2990   25.3460  -36.6630 C   0  0  0  0  0  0  0  0  0  0  0  0
   -0.0990   25.5160  -36.7010 C   0  0  0  0  0  0  0  0  0  0  0  0
   -0.6880   26.6520  -36.1400 C   0  0  0  0  0  0  0  0  0  0  0  0
    0.1100   27.6350  -35.5500 C   0  0  0  0  0  0  0  0  0  0  0  0
    1.4970   27.4820  -35.5180 C   0  0  0  0  0  0  0  0  0  0  0  0
    2.0950   26.3420  -36.0740 C   0  0  0  0  0  0  0  0  0  0  0  0
    3.4810   26.1900  -36.0380 O   0  0  0  0  0  0  0  0  0  0  0  0
    0.3290   22.2380  -35.4230 C   0  0  0  0  0  0  0  0  0  0  0  0
   -0.5420   21.5480  -34.5760 C   0  0  0  0  0  0  0  0  0  0  0  0
   -1.8930   21.6280  -30.9470 C   0  0  0  0  0  0  0  0  0  0  0  0
   -0.8070   21.4990  -29.9170 C   0  0  0  0  0  0  0  0  0  0  0  0
   -3.0690   22.3460  -30.8110 C   0  0  0  0  0  0  0  0  0  0  0  0
   -3.4840   23.2280  -29.6680 C   0  0  0  0  0  0  0  0  0  0  0  0
   -3.1660   24.6560  -29.9760 C   0  0  0  0  0  0  0  0  0  0  0  0
   -3.8640   25.2980  -30.8020 O   0  0  0  0  0  0  0  0  0  0  0  0
   -2.1130   25.2900  -29.3280 O   0  0  0  0  0  0  0  0  0  0  0  0
   -5.6910   22.8069  -31.4165 H   0  0  0  0  0  0  0  0  0  0  0  0
   -5.0375   23.5238  -32.9283 H   0  0  0  0  0  0  0  0  0  0  0  0
   -5.6562   21.8374  -32.9283 H   0  0  0  0  0  0  0  0  0  0  0  0
   -0.3701   19.5964  -31.7891 H   0  0  0  0  0  0  0  0  0  0  0  0
   -1.4929   19.1715  -33.1317 H   0  0  0  0  0  0  0  0  0  0  0  0
    1.7467   19.7094  -32.8179 H   0  0  0  0  0  0  0  0  0  0  0  0
    3.2997   20.9475  -34.3235 H   0  0  0  0  0  0  0  0  0  0  0  0
   -0.7304   24.7501  -37.1750 H   0  0  0  0  0  0  0  0  0  0  0  0
   -1.7812   26.7724  -36.1630 H   0  0  0  0  0  0  0  0  0  0  0  0
   -0.3548   28.5299  -35.1105 H   0  0  0  0  0  0  0  0  0  0  0  0
    2.1234   28.2586  -35.0549 H   0  0  0  0  0  0  0  0  0  0  0  0
    3.9280   25.3260  -36.3220 H   0  0  0  0  0  0  0  0  0  0  0  0
   -0.0726   22.9343  -36.1739 H   0  0  0  0  0  0  0  0  0  0  0  0
   -1.6275   21.7035  -34.6624 H   0  0  0  0  0  0  0  0  0  0  0  0
   -1.2480   21.5514  -28.9106 H   0  0  0  0  0  0  0  0  0  0  0  0
   -0.2948   20.5337  -30.0431 H   0  0  0  0  0  0  0  0  0  0  0  0
   -0.0830   22.3175  -30.0431 H   0  0  0  0  0  0  0  0  0  0  0  0
   -4.5666   23.1242  -29.5034 H   0  0  0  0  0  0  0  0  0  0  0  0
   -2.9359   22.9252  -28.7636 H   0  0  0  0  0  0  0  0  0  0  0  0
  1  2  1  0
  2  3  2  0
  3  4  1  0
  4  5  1  0
  5  6  1  0
  6  7  2  0
  7  8  1  0
  8  9  2  0
  9 10  1  0
 10 11  2  0
 10 12  2  0
 10 13  1  0
 13 14  1  0
 14 15  2  0
 15 16  1  0
 16 17  2  0
 17 18  1  0
 18 19  2  0
 19 20  1  0
  9 21  1  0
 21 22  2  0
  4 23  1  0
 23 24  1  0
 23 25  2  0
 25 26  1  0
 26 27  1  0
 27 28  2  0
 27 29  1  0
 25  2  1  0
 22  6  1  0
 19 14  1  0
  1 30  1  0
  1 31  1  0
  1 32  1  0
  5 33  1  0
  5 34  1  0
  7 35  1  0
  8 36  1  0
 15 37  1  0
 16 38  1  0
 17 39  1  0
 18 40  1  0
 20 41  1  0
 21 42  1  0
 22 43  1  0
 24 44  1  0
 24 45  1  0
 24 46  1  0
 26 47  1  0
 26 48  1  0
M  CHG  2  13  -1  29  -1
M  END
>  <UniqueID>  (9) 
9

>  <SMILES>  (9) 
Cc1nn(Cc2ccc(S(=O)(=O)[N-]c3ccccc3O)cc2)c(C)c1CC(=O)[O-]

>  <Energy>  (9) 
77.31070077082677

>  <Genealogy>  (9) 
Cc1nn(Cc2ccc(S(=O)(=O)[N-]c3ccccc3O)cc2)c(C)c1CC(=O)[O-] (protonated)
Cc1nn(Cc2ccc(S(=O)(=O)[N-]c3ccccc3O)cc2)c(C)c1CC(=O)[O-] (3D coordinates assigned)
Cc1nn(Cc2ccc(S(=O)(=O)[N-]c3ccccc3O)cc2)c(C)c1CC(=O)[O-] (optimized conformer: 77.31070077082677 kcal/mol)

>  <smiles>  (9) 
Cc1nn(Cc2ccc(S(=O)(=O)Nc3ccccc3O)cc2)c(C)c1CC(=O)O

>  <score_type>  (9) 
oracle

>  <origin>  (9) 
adgpu

>  <m_score__min__energy>  (9) 
-11.140000000000001

>  <m_primary>  (9) 
energy

$$$$
9:0
     RDKit          3D

 41 43  0  0  0  0  0  0  0  0999 V2000
   -1.9050   25.3790  -28.9640 N   0  0  0  0  0  0  0  0  0  0  0  0
   -0.9840   24.5240  -27.7750 S   0  0  0  0  0  0  0  0  0  0  0  0
    0.4720   24.5990  -28.1440 O   0  0  0  0  0  0  0  0  0  0  0  0
   -1.1970   25.1700  -26.4350 O   0  0  0  0  0  0  0  0  0  0  0  0
   -1.4830   22.8310  -27.6910 C   0  0  0  0  0  0  0  0  0  0  0  0
   -0.6040   21.8710  -27.1660 C   0  0  0  0  0  0  0  0  0  0  0  0
   -0.9880   20.5310  -27.0870 C   0  0  0  0  0  0  0  0  0  0  0  0
   -2.2490   20.1370  -27.5340 C   0  0  0  0  0  0  0  0  0  0  0  0
   -3.1300   21.0810  -28.0640 C   0  0  0  0  0  0  0  0  0  0  0  0
   -2.7570   22.4360  -28.1490 C   0  0  0  0  0  0  0  0  0  0  0  0
   -3.6460   23.4250  -28.6920 N   0  0  0  0  0  0  0  0  0  0  0  0
   -3.8220   23.8020  -30.3770 S   0  0  0  0  0  0  0  0  0  0  0  0
   -2.5970   23.3200  -31.1030 O   0  0  0  0  0  0  0  0  0  0  0  0
   -3.9320   25.2910  -30.5290 O   0  0  0  0  0  0  0  0  0  0  0  0
   -5.2910   23.0460  -31.0190 C   0  0  0  0  0  0  0  0  0  0  0  0
   -6.5290   23.6400  -30.7260 C   0  0  0  0  0  0  0  0  0  0  0  0
   -7.7200   23.0510  -31.1550 C   0  0  0  0  0  0  0  0  0  0  0  0
   -7.6900   21.8610  -31.8820 C   0  0  0  0  0  0  0  0  0  0  0  0
   -6.4680   21.2650  -32.1940 C   0  0  0  0  0  0  0  0  0  0  0  0
   -5.2600   21.8520  -31.7820 C   0  0  0  0  0  0  0  0  0  0  0  0
   -3.9940   21.1980  -32.1720 C   0  0  0  0  0  0  0  0  0  0  0  0
   -3.2730   20.4320  -31.2400 C   0  0  0  0  0  0  0  0  0  0  0  0
   -2.0700   19.8230  -31.6110 C   0  0  0  0  0  0  0  0  0  0  0  0
   -1.5760   19.9820  -32.9090 C   0  0  0  0  0  0  0  0  0  0  0  0
   -2.2820   20.7540  -33.8370 C   0  0  0  0  0  0  0  0  0  0  0  0
   -3.4850   21.3650  -33.4700 C   0  0  0  0  0  0  0  0  0  0  0  0
   -2.8850   25.4400  -28.6070 H   0  0  0  0  0  0  0  0  0  0  0  0
   -1.9340   24.7800  -29.8190 H   0  0  0  0  0  0  0  0  0  0  0  0
    0.3928   22.1760  -26.8149 H   0  0  0  0  0  0  0  0  0  0  0  0
   -0.2948   19.7848  -26.6715 H   0  0  0  0  0  0  0  0  0  0  0  0
   -2.5496   19.0809  -27.4688 H   0  0  0  0  0  0  0  0  0  0  0  0
   -4.1223   20.7642  -28.4176 H   0  0  0  0  0  0  0  0  0  0  0  0
   -6.5609   24.5784  -30.1530 H   0  0  0  0  0  0  0  0  0  0  0  0
   -8.6836   23.5262  -30.9192 H   0  0  0  0  0  0  0  0  0  0  0  0
   -8.6299   21.3925  -32.2093 H   0  0  0  0  0  0  0  0  0  0  0  0
   -6.4501   20.3268  -32.7679 H   0  0  0  0  0  0  0  0  0  0  0  0
   -3.6560   20.3112  -30.2159 H   0  0  0  0  0  0  0  0  0  0  0  0
   -1.5120   19.2184  -30.8809 H   0  0  0  0  0  0  0  0  0  0  0  0
   -0.6314   19.4996  -33.2006 H   0  0  0  0  0  0  0  0  0  0  0  0
   -1.8904   20.8808  -34.8571 H   0  0  0  0  0  0  0  0  0  0  0  0
   -4.0340   21.9780  -34.1999 H   0  0  0  0  0  0  0  0  0  0  0  0
  1  2  1  0
  2  3  2  0
  2  4  2  0
  2  5  1  0
  5  6  2  0
  6  7  1  0
  7  8  2  0
  8  9  1  0
  9 10  2  0
 10 11  1  0
 11 12  1  0
 12 13  2  0
 12 14  2  0
 12 15  1  0
 15 16  2  0
 16 17  1  0
 17 18  2  0
 18 19  1  0
 19 20  2  0
 20 21  1  0
 21 22  2  0
 22 23  1  0
 23 24  2  0
 24 25  1  0
 25 26  2  0
 10  5  1  0
 20 15  1  0
 26 21  1  0
  1 27  1  0
  1 28  1  0
  6 29  1  0
  7 30  1  0
  8 31  1  0
  9 32  1  0
 16 33  1  0
 17 34  1  0
 18 35  1  0
 19 36  1  0
 22 37  1  0
 23 38  1  0
 24 39  1  0
 25 40  1  0
 26 41  1  0
M  CHG  1  11  -1
M  END
>  <UniqueID>  (10) 
10

>  <SMILES>  (10) 
NS(=O)(=O)c1ccccc1[N-]S(=O)(=O)c1ccccc1-c1ccccc1

>  <Energy>  (10) 
54.693056471198695

>  <Genealogy>  (10) 
NS(=O)(=O)c1ccccc1[N-]S(=O)(=O)c1ccccc1-c1ccccc1 (protonated)
NS(=O)(=O)c1ccccc1[N-]S(=O)(=O)c1ccccc1-c1ccccc1 (3D coordinates assigned)
NS(=O)(=O)c1ccccc1[N-]S(=O)(=O)c1ccccc1-c1ccccc1 (optimized conformer: 54.693056471198695 kcal/mol)

>  <smiles>  (10) 
NS(=O)(=O)c1ccccc1NS(=O)(=O)c1ccccc1-c1ccccc1

>  <score_type>  (10) 
oracle

>  <origin>  (10) 
adgpu

>  <m_score__min__energy>  (10) 
-9.25

>  <m_primary>  (10) 
energy

$$$$
10:0
     RDKit          3D

 42 44  0  0  1  0  0  0  0  0999 V2000
   -5.3290   18.9630  -34.3080 C   0  0  0  0  0  0  0  0  0  0  0  0
   -6.5550   19.3170  -33.6550 N   0  0  0  0  0  0  0  0  0  0  0  0
   -6.7160   20.2730  -32.8360 C   0  0  0  0  0  0  0  0  0  0  0  0
   -7.9920   20.4450  -32.3130 C   0  0  0  0  0  0  0  0  0  0  0  0
   -9.0950   19.5560  -32.7030 C   0  0  0  0  0  0  0  0  0  0  0  0
   -8.9940   18.3010  -31.8490 C   0  0  0  0  0  0  0  0  0  0  0  0
   -8.0060   17.4620  -32.3310 O   0  0  0  0  0  0  0  0  0  0  0  0
   -8.2710   21.4640  -31.4070 C   0  0  0  0  0  0  0  0  0  0  0  0
   -9.6240   21.6500  -30.8510 C   0  0  0  0  0  0  0  0  0  0  0  0
   -7.2160   22.2500  -31.0890 N   0  0  0  0  0  0  0  0  0  0  0  0
   -5.9960   22.0560  -31.6120 C   0  0  0  0  0  0  0  0  0  0  0  0
   -4.8400   22.7650  -31.3840 C   0  0  0  0  0  0  0  0  0  0  0  0
   -4.6740   24.1480  -30.3210 S   0  0  0  0  0  0  0  0  0  0  0  0
   -5.9570   24.4460  -29.6080 O   0  0  0  0  0  0  0  0  0  0  0  0
   -4.2360   25.3030  -31.1660 O   0  0  0  0  0  0  0  0  0  0  0  0
   -3.4780   23.7310  -29.1140 C   0  0  0  0  0  0  0  0  0  0  0  0
   -2.4180   24.5430  -28.7930 C   0  0  0  0  0  0  0  0  0  0  0  0
   -1.5060   24.1490  -27.8240 C   0  0  0  0  0  0  0  0  0  0  0  0
   -1.6440   22.9380  -27.1660 C   0  0  0  0  0  0  0  0  0  0  0  0
   -0.4940   22.4350  -25.9380 Cl  0  0  0  0  0  0  0  0  0  0  0  0
   -2.7080   22.1190  -27.4860 C   0  0  0  0  0  0  0  0  0  0  0  0
   -3.6040   22.5240  -28.4490 C   0  0  0  0  0  0  0  0  0  0  0  0
   -3.8870   22.1530  -32.1640 C   0  0  0  0  0  0  0  0  0  0  0  0
   -4.4470   21.1030  -32.8450 N   0  0  0  0  0  0  0  0  0  0  0  0
   -5.7030   21.0740  -32.4930 N   0  0  0  0  0  0  0  0  0  0  0  0
   -4.5615   18.7414  -33.5518 H   0  0  0  0  0  0  0  0  0  0  0  0
   -5.4915   18.0751  -34.9366 H   0  0  0  0  0  0  0  0  0  0  0  0
   -4.9932   19.8009  -34.9366 H   0  0  0  0  0  0  0  0  0  0  0  0
  -10.0596   20.0542  -32.5260 H   0  0  0  0  0  0  0  0  0  0  0  0
   -9.0302   19.3038  -33.7717 H   0  0  0  0  0  0  0  0  0  0  0  0
   -8.7529   18.5863  -30.8144 H   0  0  0  0  0  0  0  0  0  0  0  0
   -9.9571   17.7706  -31.8831 H   0  0  0  0  0  0  0  0  0  0  0  0
   -7.7010   17.7940  -33.2030 H   0  0  0  0  0  0  0  0  0  0  0  0
   -9.5730   21.6430  -29.7522 H   0  0  0  0  0  0  0  0  0  0  0  0
  -10.0318   22.6127  -31.1930 H   0  0  0  0  0  0  0  0  0  0  0  0
  -10.2765   20.8331  -31.1930 H   0  0  0  0  0  0  0  0  0  0  0  0
   -2.2915   25.5082  -29.3053 H   0  0  0  0  0  0  0  0  0  0  0  0
   -0.6612   24.8080  -27.5749 H   0  0  0  0  0  0  0  0  0  0  0  0
   -2.8384   21.1528  -26.9767 H   0  0  0  0  0  0  0  0  0  0  0  0
   -4.4492   21.8657  -28.6986 H   0  0  0  0  0  0  0  0  0  0  0  0
   -2.8329   22.4600  -32.2315 H   0  0  0  0  0  0  0  0  0  0  0  0
   -3.8390   20.5560  -33.4680 H   0  0  0  0  0  0  0  0  0  0  0  0
  1  2  1  0
  2  3  2  0
  3  4  1  0
  4  5  1  0
  5  6  1  0
  6  7  1  0
  4  8  2  0
  8  9  1  0
  8 10  1  0
 10 11  2  0
 11 12  1  0
 12 13  1  0
 13 14  2  0
 13 15  2  0
 13 16  1  0
 16 17  2  0
 17 18  1  0
 18 19  2  0
 19 20  1  0
 19 21  1  0
 21 22  2  0
 12 23  2  0
 23 24  1  0
 24 25  1  0
 25  3  1  0
 25 11  1  0
 22 16  1  0
  1 26  1  0
  1 27  1  0
  1 28  1  0
  5 29  1  0
  5 30  1  0
  6 31  1  0
  6 32  1  0
  7 33  1  0
  9 34  1  0
  9 35  1  0
  9 36  1  0
 17 37  1  0
 18 38  1  0
 21 39  1  0
 22 40  1  0
 23 41  1  0
 24 42  1  0
M  END
>  <smiles>  (11) 
CN=c1c(CCO)c(C)nc2c(S(=O)(=O)c3ccc(Cl)cc3)c[nH]n12

>  <score_type>  (11) 
oracle

>  <origin>  (11) 
adgpu

>  <m_score__min__energy>  (11) 
-9.3300000000000001

>  <m_primary>  (11) 
energy

$$$$
11:0
     RDKit          3D

 40 43  0  0  0  0  0  0  0  0999 V2000
   -5.3840   26.4320  -30.4330 O   0  0  0  0  0  0  0  0  0  0  0  0
   -4.9620   25.2590  -30.6190 C   0  0  0  0  0  0  0  0  0  0  0  0
   -3.5650   24.9660  -30.4720 N   0  0  0  0  0  0  0  0  0  0  0  0
   -2.9320   24.3630  -29.3330 C   0  0  0  0  0  0  0  0  0  0  0  0
   -1.5880   24.6210  -29.0010 C   0  0  0  0  0  0  0  0  0  0  0  0
   -1.0050   23.9920  -27.8960 C   0  0  0  0  0  0  0  0  0  0  0  0
   -1.7490   23.0940  -27.1250 C   0  0  0  0  0  0  0  0  0  0  0  0
   -1.1800   22.4850  -26.0560 F   0  0  0  0  0  0  0  0  0  0  0  0
   -3.0750   22.8160  -27.4650 C   0  0  0  0  0  0  0  0  0  0  0  0
   -3.6620   23.4420  -28.5690 C   0  0  0  0  0  0  0  0  0  0  0  0
   -5.9160   24.1730  -30.9380 C   0  0  0  0  0  0  0  0  0  0  0  0
   -6.4950   23.3970  -29.9190 C   0  0  0  0  0  0  0  0  0  0  0  0
   -7.3870   22.3730  -30.2370 C   0  0  0  0  0  0  0  0  0  0  0  0
   -7.6960   22.1240  -31.5760 C   0  0  0  0  0  0  0  0  0  0  0  0
   -8.8220   20.7990  -32.0190 S   0  0  0  0  0  0  0  0  0  0  0  0
   -7.5550   19.7960  -32.8700 C   0  0  0  0  0  0  0  0  0  0  0  0
   -6.1810   20.2500  -32.4960 C   0  0  0  0  0  0  0  0  0  0  0  0
   -5.6670   20.0830  -31.2490 N   0  0  0  0  0  0  0  0  0  0  0  0
   -4.4240   20.5650  -31.3820 C   0  0  0  0  0  0  0  0  0  0  0  0
   -3.4290   20.6410  -30.4110 C   0  0  0  0  0  0  0  0  0  0  0  0
   -2.1840   21.1790  -30.7900 C   0  0  0  0  0  0  0  0  0  0  0  0
   -1.9710   21.6190  -32.1170 C   0  0  0  0  0  0  0  0  0  0  0  0
   -3.0000   21.5250  -33.0720 C   0  0  0  0  0  0  0  0  0  0  0  0
   -4.2180   20.9910  -32.6600 C   0  0  0  0  0  0  0  0  0  0  0  0
   -5.3220   20.7990  -33.3950 N   0  0  0  0  0  0  0  0  0  0  0  0
   -7.1370   22.8850  -32.5530 N   0  0  0  0  0  0  0  0  0  0  0  0
   -6.2660   23.8890  -32.2710 C   0  0  0  0  0  0  0  0  0  0  0  0
   -0.9957   25.3183  -29.6116 H   0  0  0  0  0  0  0  0  0  0  0  0
    0.0417   24.2045  -27.6330 H   0  0  0  0  0  0  0  0  0  0  0  0
   -3.6584   22.1035  -26.8633 H   0  0  0  0  0  0  0  0  0  0  0  0
   -4.7027   23.2103  -28.8395 H   0  0  0  0  0  0  0  0  0  0  0  0
   -6.2437   23.5980  -28.8671 H   0  0  0  0  0  0  0  0  0  0  0  0
   -7.8430   21.7670  -29.4403 H   0  0  0  0  0  0  0  0  0  0  0  0
   -7.6771   18.7412  -32.5830 H   0  0  0  0  0  0  0  0  0  0  0  0
   -7.6823   19.9138  -33.9562 H   0  0  0  0  0  0  0  0  0  0  0  0
   -3.6092   20.2928  -29.3832 H   0  0  0  0  0  0  0  0  0  0  0  0
   -1.3735   21.2574  -30.0505 H   0  0  0  0  0  0  0  0  0  0  0  0
   -0.9950   22.0372  -32.4043 H   0  0  0  0  0  0  0  0  0  0  0  0
   -2.8475   21.8617  -34.1080 H   0  0  0  0  0  0  0  0  0  0  0  0
   -5.8322   24.4829  -33.0890 H   0  0  0  0  0  0  0  0  0  0  0  0
  1  2  2  0
  2  3  1  0
  3  4  1  0
  4  5  2  0
  5  6  1  0
  6  7  2  0
  7  8  1  0
  7  9  1  0
  9 10  2  0
  2 11  1  0
 11 12  2  0
 12 13  1  0
 13 14  2  0
 14 15  1  0
 15 16  1  0
 16 17  1  0
 17 18  2  0
 18 19  1  0
 19 20  2  0
 20 21  1  0
 21 22  2  0
 22 23  1  0
 23 24  2  0
 24 25  1  0
 14 26  1  0
 26 27  2  0
 10  4  1  0
 27 11  1  0
 25 17  1  0
 24 19  1  0
  5 28  1  0
  6 29  1  0
  9 30  1  0
 10 31  1  0
 12 32  1  0
 13 33  1  0
 16 34  1  0
 16 35  1  0
 20 36  1  0
 21 37  1  0
 22 38  1  0
 23 39  1  0
 27 40  1  0
M  CHG  2   3  -1  25  -1
M  END
>  <UniqueID>  (12) 
11

>  <SMILES>  (12) 
O=C([N-]c1ccc(F)cc1)c1ccc(SCc2nc3ccccc3[n-]2)nc1

>  <Energy>  (12) 
79.05429955555182

>  <Genealogy>  (12) 
O=C([N-]c1ccc(F)cc1)c1ccc(SCc2nc3ccccc3[n-]2)nc1 (protonated)
O=C([N-]c1ccc(F)cc1)c1ccc(SCc2nc3ccccc3[n-]2)nc1 (3D coordinates assigned)
O=C([N-]c1ccc(F)cc1)c1ccc(SCc2nc3ccccc3[n-]2)nc1 (optimized conformer: 79.05429955555182 kcal/mol)

>  <smiles>  (12) 
O=C(Nc1ccc(F)cc1)c1ccc(SCc2nc3ccccc3[nH]2)nc1

>  <score_type>  (12) 
oracle

>  <origin>  (12) 
adgpu

>  <m_score__min__energy>  (12) 
-10.300000000000001

>  <m_primary>  (12) 
energy

$$$$
12:0
     RDKit          3D

 43 45  0  0  0  0  0  0  0  0999 V2000
   -3.1500   24.4480  -27.5740 O   0  0  0  0  0  0  0  0  0  0  0  0
   -2.0390   24.4190  -28.1680 C   0  0  0  0  0  0  0  0  0  0  0  0
   -0.8290   24.9940  -27.4990 C   0  0  0  0  0  0  0  0  0  0  0  0
    0.3800   24.5330  -28.1920 N   0  0  0  0  0  0  0  0  0  0  0  0
    0.9480   23.3330  -27.5590 C   0  0  0  0  0  0  0  0  0  0  0  0
    0.1970   22.0890  -27.9360 C   0  0  0  0  0  0  0  0  0  0  0  0
   -0.3770   21.1940  -27.0570 C   0  0  0  0  0  0  0  0  0  0  0  0
   -0.9750   20.2340  -27.8450 C   0  0  0  0  0  0  0  0  0  0  0  0
   -0.7320   20.6050  -29.1520 C   0  0  0  0  0  0  0  0  0  0  0  0
   -0.0330   21.7170  -29.1740 O   0  0  0  0  0  0  0  0  0  0  0  0
   -1.9240   23.8310  -29.4720 N   0  0  0  0  0  0  0  0  0  0  0  0
   -3.0550   23.3950  -30.2430 C   0  0  0  0  0  0  0  0  0  0  0  0
   -3.1790   22.0390  -30.5680 C   0  0  0  0  0  0  0  0  0  0  0  0
   -4.2650   21.5870  -31.3230 C   0  0  0  0  0  0  0  0  0  0  0  0
   -5.2460   22.4890  -31.7660 C   0  0  0  0  0  0  0  0  0  0  0  0
   -6.3580   22.0520  -32.5660 N   0  0  0  0  0  0  0  0  0  0  0  0
   -7.0800   20.8260  -32.3520 C   0  0  0  0  0  0  0  0  0  0  0  0
   -8.3770   20.8280  -31.8060 C   0  0  0  0  0  0  0  0  0  0  0  0
   -9.0710   19.6250  -31.6340 C   0  0  0  0  0  0  0  0  0  0  0  0
   -8.4840   18.4170  -32.0160 C   0  0  0  0  0  0  0  0  0  0  0  0
   -7.2050   18.4090  -32.5800 C   0  0  0  0  0  0  0  0  0  0  0  0
   -6.5090   19.6090  -32.7540 C   0  0  0  0  0  0  0  0  0  0  0  0
   -5.0940   23.8550  -31.4860 C   0  0  0  0  0  0  0  0  0  0  0  0
   -4.0060   24.3110  -30.7350 C   0  0  0  0  0  0  0  0  0  0  0  0
   -3.8620   25.6760  -30.5090 O   0  0  0  0  0  0  0  0  0  0  0  0
   -0.8766   26.0923  -27.5365 H   0  0  0  0  0  0  0  0  0  0  0  0
   -0.7985   24.6634  -26.4503 H   0  0  0  0  0  0  0  0  0  0  0  0
    1.0950   25.2990  -28.1770 H   0  0  0  0  0  0  0  0  0  0  0  0
    1.9954   23.2256  -27.8774 H   0  0  0  0  0  0  0  0  0  0  0  0
    0.8741   23.4570  -26.4685 H   0  0  0  0  0  0  0  0  0  0  0  0
   -0.3609   21.2373  -25.9580 H   0  0  0  0  0  0  0  0  0  0  0  0
   -1.5332   19.3506  -27.5015 H   0  0  0  0  0  0  0  0  0  0  0  0
   -1.0721   20.0531  -30.0407 H   0  0  0  0  0  0  0  0  0  0  0  0
   -0.9690   23.5810  -29.8160 H   0  0  0  0  0  0  0  0  0  0  0  0
   -2.4161   21.3239  -30.2267 H   0  0  0  0  0  0  0  0  0  0  0  0
   -4.3517   20.5190  -31.5715 H   0  0  0  0  0  0  0  0  0  0  0  0
   -6.6620   22.6650  -33.3550 H   0  0  0  0  0  0  0  0  0  0  0  0
   -8.8470   21.7785  -31.5134 H   0  0  0  0  0  0  0  0  0  0  0  0
  -10.0805   19.6310  -31.1972 H   0  0  0  0  0  0  0  0  0  0  0  0
   -9.0280   17.4717  -31.8731 H   0  0  0  0  0  0  0  0  0  0  0  0
   -6.7458   17.4578  -32.8872 H   0  0  0  0  0  0  0  0  0  0  0  0
   -5.5075   19.5990  -33.2089 H   0  0  0  0  0  0  0  0  0  0  0  0
   -5.8374   24.5741  -31.8605 H   0  0  0  0  0  0  0  0  0  0  0  0
  1  2  2  0
  2  3  1  0
  3  4  1  0
  4  5  1  0
  5  6  1  0
  6  7  2  0
  7  8  1  0
  8  9  2  0
  9 10  1  0
  2 11  1  0
 11 12  1  0
 12 13  2  0
 13 14  1  0
 14 15  2  0
 15 16  1  0
 16 17  1  0
 17 18  2  0
 18 19  1  0
 19 20  2  0
 20 21  1  0
 21 22  2  0
 15 23  1  0
 23 24  2  0
 24 25  1  0
 10  6  1  0
 24 12  1  0
 22 17  1  0
  3 26  1  0
  3 27  1  0
  4 28  1  0
  5 29  1  0
  5 30  1  0
  7 31  1  0
  8 32  1  0
  9 33  1  0
 11 34  1  0
 13 35  1  0
 14 36  1  0
 16 37  1  0
 18 38  1  0
 19 39  1  0
 20 40  1  0
 21 41  1  0
 22 42  1  0
 23 43  1  0
M  CHG  1  25  -1
M  END
>  <UniqueID>  (13) 
12

>  <SMILES>  (13) 
O=C(CNCc1ccco1)Nc1ccc(Nc2ccccc2)cc1[O-]

>  <Energy>  (13) 
79.18879439890597

>  <Genealogy>  (13) 
O=C(CNCc1ccco1)Nc1ccc(Nc2ccccc2)cc1[O-] (protonated)
O=C(CNCc1ccco1)Nc1ccc(Nc2ccccc2)cc1[O-] (3D coordinates assigned)
O=C(CNCc1ccco1)Nc1ccc(Nc2ccccc2)cc1[O-] (optimized conformer: 79.18879439890597 kcal/mol)

>  <smiles>  (13) 
O=C(CNCc1ccco1)Nc1ccc(Nc2ccccc2)cc1O

>  <score_type>  (13) 
oracle

>  <origin>  (13) 
adgpu

>  <m_score__min__energy>  (13) 
-10.48

>  <m_primary>  (13) 
energy

$$$$
13:0
     RDKit          3D

 34 36  0  0  0  0  0  0  0  0999 V2000
   -1.0370   23.3490  -26.8600 O   0  0  0  0  0  0  0  0  0  0  0  0
   -1.1340   22.8830  -28.0260 C   0  0  0  0  0  0  0  0  0  0  0  0
   -0.1910   21.9160  -28.5060 N   0  0  0  0  0  0  0  0  0  0  0  0
   -0.1360   20.5260  -28.1550 C   0  0  0  0  0  0  0  0  0  0  0  0
    0.9680   19.7160  -28.4790 C   0  0  0  0  0  0  0  0  0  0  0  0
    0.9680   18.3590  -28.1380 C   0  0  0  0  0  0  0  0  0  0  0  0
   -0.1340   17.7990  -27.4870 C   0  0  0  0  0  0  0  0  0  0  0  0
   -1.2430   18.5930  -27.1840 C   0  0  0  0  0  0  0  0  0  0  0  0
   -1.2470   19.9490  -27.5250 C   0  0  0  0  0  0  0  0  0  0  0  0
   -2.2540   23.2930  -28.8870 C   0  0  0  0  0  0  0  0  0  0  0  0
   -3.3180   22.5000  -29.2910 C   0  0  0  0  0  0  0  0  0  0  0  0
   -4.1500   23.2110  -30.0850 N   0  0  0  0  0  0  0  0  0  0  0  0
   -5.3360   22.6990  -30.7160 C   0  0  0  0  0  0  0  0  0  0  0  0
   -5.2320   21.7890  -31.7800 C   0  0  0  0  0  0  0  0  0  0  0  0
   -6.3830   21.3060  -32.4110 C   0  0  0  0  0  0  0  0  0  0  0  0
   -7.6440   21.7360  -31.9910 C   0  0  0  0  0  0  0  0  0  0  0  0
   -7.7560   22.6550  -30.9440 C   0  0  0  0  0  0  0  0  0  0  0  0
   -6.6070   23.1400  -30.3100 C   0  0  0  0  0  0  0  0  0  0  0  0
   -3.6320   24.4570  -30.1770 C   0  0  0  0  0  0  0  0  0  0  0  0
   -4.2140   25.5250  -30.8570 O   0  0  0  0  0  0  0  0  0  0  0  0
   -2.4630   24.5340  -29.4570 C   0  0  0  0  0  0  0  0  0  0  0  0
   -1.6570   25.6590  -29.3220 O   0  0  0  0  0  0  0  0  0  0  0  0
    1.8329   20.1506  -29.0015 H   0  0  0  0  0  0  0  0  0  0  0  0
    1.8377   17.7316  -28.3831 H   0  0  0  0  0  0  0  0  0  0  0  0
   -0.1286   16.7336  -27.2132 H   0  0  0  0  0  0  0  0  0  0  0  0
   -2.1134   18.1511  -26.6769 H   0  0  0  0  0  0  0  0  0  0  0  0
   -2.1280   20.5670  -27.2973 H   0  0  0  0  0  0  0  0  0  0  0  0
   -3.4635   21.4473  -29.0071 H   0  0  0  0  0  0  0  0  0  0  0  0
   -4.2405   21.4543  -32.1190 H   0  0  0  0  0  0  0  0  0  0  0  0
   -6.2952   20.5869  -33.2387 H   0  0  0  0  0  0  0  0  0  0  0  0
   -8.5488   21.3513  -32.4843 H   0  0  0  0  0  0  0  0  0  0  0  0
   -8.7491   22.9975  -30.6179 H   0  0  0  0  0  0  0  0  0  0  0  0
   -6.6988   23.8688  -29.4912 H   0  0  0  0  0  0  0  0  0  0  0  0
   -3.8620   26.4700  -30.7750 H   0  0  0  0  0  0  0  0  0  0  0  0
  1  2  2  0
  2  3  1  0
  3  4  1  0
  4  5  2  0
  5  6  1  0
  6  7  2  0
  7  8  1  0
  8  9  2  0
  2 10  1  0
 10 11  2  0
 11 12  1  0
 12 13  1  0
 13 14  2  0
 14 15  1  0
 15 16  2  0
 16 17  1  0
 17 18  2  0
 12 19  1  0
 19 20  1  0
 19 21  2  0
 21 22  1  0
  9  4  1  0
 21 10  1  0
 18 13  1  0
  5 23  1  0
  6 24  1  0
  7 25  1  0
  8 26  1  0
  9 27  1  0
 11 28  1  0
 14 29  1  0
 15 30  1  0
 16 31  1  0
 17 32  1  0
 18 33  1  0
 20 34  1  0
M  CHG  2   3  -1  22  -1
M  END
>  <UniqueID>  (14) 
13

>  <SMILES>  (14) 
O=C([N-]c1ccccc1)c1cn(-c2ccccc2)c(O)c1[O-]

>  <Energy>  (14) 
74.24657967037955

>  <Genealogy>  (14) 
O=C([N-]c1ccccc1)c1cn(-c2ccccc2)c(O)c1[O-] (protonated)
O=C([N-]c1ccccc1)c1cn(-c2ccccc2)c(O)c1[O-] (3D coordinates assigned)
O=C([N-]c1ccccc1)c1cn(-c2ccccc2)c(O)c1[O-] (optimized conformer: 74.24657967037955 kcal/mol)

>  <smiles>  (14) 
O=C(Nc1ccccc1)c1cn(-c2ccccc2)c(O)c1O

>  <score_type>  (14) 
oracle

>  <origin>  (14) 
adgpu

>  <m_score__min__energy>  (14) 
-11.109999999999999

>  <m_primary>  (14) 
energy

$$$$
14:0
     RDKit          3D

 30 31  0  0  0  0  0  0  0  0999 V2000
   -3.8600   25.2650  -30.7860 N   0  0  0  0  0  0  0  0  0  0  0  0
   -3.2750   23.8610  -29.9630 S   0  0  0  0  0  0  0  0  0  0  0  0
   -1.8060   24.0320  -29.7020 O   0  0  0  0  0  0  0  0  0  0  0  0
   -4.0000   23.7090  -28.6560 O   0  0  0  0  0  0  0  0  0  0  0  0
   -3.5470   22.4300  -30.9520 C   0  0  0  0  0  0  0  0  0  0  0  0
   -4.2390   21.3330  -30.4240 C   0  0  0  0  0  0  0  0  0  0  0  0
   -4.4520   20.1920  -31.2030 C   0  0  0  0  0  0  0  0  0  0  0  0
   -3.9720   20.1370  -32.5240 C   0  0  0  0  0  0  0  0  0  0  0  0
   -4.1750   18.9920  -33.3640 N   0  0  0  0  0  0  0  0  0  0  0  0
   -5.7180   18.3970  -33.8860 S   0  0  0  0  0  0  0  0  0  0  0  0
   -5.7700   16.9100  -33.6680 O   0  0  0  0  0  0  0  0  0  0  0  0
   -5.8850   18.6850  -35.3510 O   0  0  0  0  0  0  0  0  0  0  0  0
   -7.0090   19.2000  -32.9970 C   0  0  0  0  0  0  0  0  0  0  0  0
   -7.1020   20.5990  -32.9930 C   0  0  0  0  0  0  0  0  0  0  0  0
   -8.1340   21.2310  -32.2920 C   0  0  0  0  0  0  0  0  0  0  0  0
   -9.0730   20.4690  -31.5900 C   0  0  0  0  0  0  0  0  0  0  0  0
   -8.9800   19.0750  -31.5870 C   0  0  0  0  0  0  0  0  0  0  0  0
   -7.9490   18.4400  -32.2870 C   0  0  0  0  0  0  0  0  0  0  0  0
   -3.2720   21.2320  -33.0440 C   0  0  0  0  0  0  0  0  0  0  0  0
   -3.0590   22.3730  -32.2640 C   0  0  0  0  0  0  0  0  0  0  0  0
   -3.8790   26.0410  -30.0870 H   0  0  0  0  0  0  0  0  0  0  0  0
   -4.6167   21.3693  -29.3915 H   0  0  0  0  0  0  0  0  0  0  0  0
   -4.9968   19.3343  -30.7815 H   0  0  0  0  0  0  0  0  0  0  0  0
   -6.3623   21.2003  -33.5419 H   0  0  0  0  0  0  0  0  0  0  0  0
   -8.2071   22.3286  -32.2929 H   0  0  0  0  0  0  0  0  0  0  0  0
   -9.8850   20.9672  -31.0400 H   0  0  0  0  0  0  0  0  0  0  0  0
   -9.7184   18.4763  -31.0335 H   0  0  0  0  0  0  0  0  0  0  0  0
   -7.8756   17.3425  -32.2804 H   0  0  0  0  0  0  0  0  0  0  0  0
   -2.8867   21.1947  -34.0736 H   0  0  0  0  0  0  0  0  0  0  0  0
   -2.5069   23.2279  -32.6816 H   0  0  0  0  0  0  0  0  0  0  0  0
  1  2  1  0
  2  3  2  0
  2  4  2  0
  2  5  1  0
  5  6  2  0
  6  7  1  0
  7  8  2  0
  8  9  1  0
  9 10  1  0
 10 11  2  0
 10 12  2  0
 10 13  1  0
 13 14  2  0
 14 15  1  0
 15 16  2  0
 16 17  1  0
 17 18  2  0
  8 19  1  0
 19 20  2  0
 20  5  1  0
 18 13  1  0
  1 21  1  0
  6 22  1  0
  7 23  1  0
 14 24  1  0
 15 25  1  0
 16 26  1  0
 17 27  1  0
 18 28  1  0
 19 29  1  0
 20 30  1  0
M  CHG  2   1  -1   9  -1
M  END
>  <UniqueID>  (15) 
14

>  <SMILES>  (15) 
[NH-]S(=O)(=O)c1ccc([N-]S(=O)(=O)c2ccccc2)cc1

>  <Energy>  (15) 
33.38709404374677

>  <Genealogy>  (15) 
[NH-]S(=O)(=O)c1ccc([N-]S(=O)(=O)c2ccccc2)cc1 (protonated)
[NH-]S(=O)(=O)c1ccc([N-]S(=O)(=O)c2ccccc2)cc1 (3D coordinates assigned)
[NH-]S(=O)(=O)c1ccc([N-]S(=O)(=O)c2ccccc2)cc1 (optimized conformer: 33.38709404374677 kcal/mol)

>  <smiles>  (15) 
NS(=O)(=O)c1ccc(NS(=O)(=O)c2ccccc2)cc1

>  <score_type>  (15) 
oracle

>  <origin>  (15) 
adgpu

>  <m_score__min__energy>  (15) 
-10.16

>  <m_primary>  (15) 
energy

$$$$
15:0
     RDKit          3D

 38 41  0  0  0  0  0  0  0  0999 V2000
  -10.0110   21.1820  -31.5180 O   0  0  0  0  0  0  0  0  0  0  0  0
   -8.8680   20.8390  -31.9270 C   0  0  0  0  0  0  0  0  0  0  0  0
   -8.6530   19.5490  -32.2940 N   0  0  0  0  0  0  0  0  0  0  0  0
   -7.4390   19.1210  -32.7430 C   0  0  0  0  0  0  0  0  0  0  0  0
   -7.2600   17.7740  -33.0890 C   0  0  0  0  0  0  0  0  0  0  0  0
   -6.0080   17.3270  -33.5330 C   0  0  0  0  0  0  0  0  0  0  0  0
   -5.7870   15.9500  -33.8970 N   0  0  0  0  0  0  0  0  0  0  0  0
   -6.8720   15.0410  -34.2260 C   0  0  0  0  0  0  0  0  0  0  0  0
   -6.2290   13.6700  -34.3820 C   0  0  0  0  0  0  0  0  0  0  0  0
   -4.7350   13.9260  -34.5510 C   0  0  0  0  0  0  0  0  0  0  0  0
   -4.4810   15.3170  -33.9840 C   0  0  0  0  0  0  0  0  0  0  0  0
   -4.9810   18.2140  -33.6150 N   0  0  0  0  0  0  0  0  0  0  0  0
   -5.1170   19.5270  -33.2930 C   0  0  0  0  0  0  0  0  0  0  0  0
   -6.3610   20.0300  -32.8590 C   0  0  0  0  0  0  0  0  0  0  0  0
   -6.5730   21.3910  -32.5170 C   0  0  0  0  0  0  0  0  0  0  0  0
   -7.8300   21.7830  -32.0050 C   0  0  0  0  0  0  0  0  0  0  0  0
   -8.0840   23.2250  -31.6260 C   0  0  0  0  0  0  0  0  0  0  0  0
   -6.7900   23.9320  -31.2230 C   0  0  0  0  0  0  0  0  0  0  0  0
   -5.7500   23.7950  -32.3300 C   0  0  0  0  0  0  0  0  0  0  0  0
   -5.5390   22.3900  -32.6770 N   0  0  0  0  0  0  0  0  0  0  0  0
   -9.4460   18.8700  -32.2210 H   0  0  0  0  0  0  0  0  0  0  0  0
   -8.1010   17.0691  -33.0121 H   0  0  0  0  0  0  0  0  0  0  0  0
   -7.6174   15.0251  -33.4172 H   0  0  0  0  0  0  0  0  0  0  0  0
   -7.3961   15.3499  -35.1425 H   0  0  0  0  0  0  0  0  0  0  0  0
   -6.4134   13.0569  -33.4875 H   0  0  0  0  0  0  0  0  0  0  0  0
   -6.6451   13.1241  -35.2416 H   0  0  0  0  0  0  0  0  0  0  0  0
   -4.1533   13.1750  -33.9963 H   0  0  0  0  0  0  0  0  0  0  0  0
   -4.4314   13.8592  -35.6062 H   0  0  0  0  0  0  0  0  0  0  0  0
   -4.0214   15.2469  -32.9871 H   0  0  0  0  0  0  0  0  0  0  0  0
   -3.7911   15.8941  -34.6172 H   0  0  0  0  0  0  0  0  0  0  0  0
   -4.2517   20.2016  -33.3713 H   0  0  0  0  0  0  0  0  0  0  0  0
   -8.5250   23.7490  -32.4868 H   0  0  0  0  0  0  0  0  0  0  0  0
   -8.7697   23.2413  -30.7660 H   0  0  0  0  0  0  0  0  0  0  0  0
   -6.9972   24.9981  -31.0487 H   0  0  0  0  0  0  0  0  0  0  0  0
   -6.3996   23.4709  -30.3038 H   0  0  0  0  0  0  0  0  0  0  0  0
   -6.0989   24.3375  -33.2210 H   0  0  0  0  0  0  0  0  0  0  0  0
   -4.7985   24.2153  -31.9722 H   0  0  0  0  0  0  0  0  0  0  0  0
   -4.6950   22.1990  -33.2550 H   0  0  0  0  0  0  0  0  0  0  0  0
  1  2  2  0
  2  3  1  0
  3  4  1  0
  4  5  2  0
  5  6  1  0
  6  7  1  0
  7  8  1  0
  8  9  1  0
  9 10  1  0
 10 11  1  0
  6 12  2  0
 12 13  1  0
 13 14  2  0
 14 15  1  0
 15 16  2  0
 16 17  1  0
 17 18  1  0
 18 19  1  0
 19 20  1  0
 16  2  1  0
 14  4  1  0
 20 15  1  0
 11  7  1  0
  3 21  1  0
  5 22  1  0
  8 23  1  0
  8 24  1  0
  9 25  1  0
  9 26  1  0
 10 27  1  0
 10 28  1  0
 11 29  1  0
 11 30  1  0
 13 31  1  0
 17 32  1  0
 17 33  1  0
 18 34  1  0
 18 35  1  0
 19 36  1  0
 19 37  1  0
 20 38  1  0
M  END
>  <UniqueID>  (16) 
15

>  <SMILES>  (16) 
O=c1[nH]c2cc(N3CCCC3)ncc2c2c1CCCN2

>  <Energy>  (16) 
48.16459622630032

>  <Genealogy>  (16) 
O=c1[nH]c2cc(N3CCCC3)ncc2c2c1CCCN2 (3D coordinates assigned)
O=c1[nH]c2cc(N3CCCC3)ncc2c2c1CCCN2 (nonaromatic ring conformer: 48.16459622630032 kcal/mol)

>  <smiles>  (16) 
O=c1[nH]c2cc(N3CCCC3)ncc2c2c1CCCN2

>  <score_type>  (16) 
oracle

>  <origin>  (16) 
adgpu

>  <m_score__min__energy>  (16) 
-6.9000000000000004

>  <m_primary>  (16) 
energy

$$$$
16:0
     RDKit          3D

 52 55  0  0  0  0  0  0  0  0999 V2000
   -0.1640   23.6930  -24.1420 C   0  0  0  0  0  0  0  0  0  0  0  0
   -0.8810   24.9180  -24.0320 O   0  0  0  0  0  0  0  0  0  0  0  0
   -0.3610   26.1810  -24.3610 C   0  0  0  0  0  0  0  0  0  0  0  0
    0.1590   27.0440  -23.3750 C   0  0  0  0  0  0  0  0  0  0  0  0
    0.6210   28.3160  -23.7190 C   0  0  0  0  0  0  0  0  0  0  0  0
    0.5680   28.7450  -25.0450 C   0  0  0  0  0  0  0  0  0  0  0  0
    0.0640   27.8990  -26.0340 C   0  0  0  0  0  0  0  0  0  0  0  0
   -0.3840   26.6080  -25.7080 C   0  0  0  0  0  0  0  0  0  0  0  0
   -0.8980   25.7360  -26.7850 C   0  0  0  0  0  0  0  0  0  0  0  0
   -0.4840   25.9140  -27.9640 O   0  0  0  0  0  0  0  0  0  0  0  0
   -1.8510   24.6950  -26.4970 N   0  0  0  0  0  0  0  0  0  0  0  0
   -2.4130   23.8220  -27.4900 C   0  0  0  0  0  0  0  0  0  0  0  0
   -2.0650   22.4620  -27.5540 C   0  0  0  0  0  0  0  0  0  0  0  0
   -2.6480   21.6310  -28.5150 C   0  0  0  0  0  0  0  0  0  0  0  0
   -3.5970   22.1350  -29.4170 C   0  0  0  0  0  0  0  0  0  0  0  0
   -3.9620   23.4840  -29.3330 C   0  0  0  0  0  0  0  0  0  0  0  0
   -3.3820   24.3200  -28.3720 C   0  0  0  0  0  0  0  0  0  0  0  0
   -5.1560   24.1110  -30.4320 S   0  0  0  0  0  0  0  0  0  0  0  0
   -4.5840   25.2740  -31.1920 O   0  0  0  0  0  0  0  0  0  0  0  0
   -6.3790   24.5360  -29.6700 O   0  0  0  0  0  0  0  0  0  0  0  0
   -5.5720   22.8510  -31.5360 N   0  0  0  0  0  0  0  0  0  0  0  0
   -5.1080   21.6380  -31.4350 C   0  0  0  0  0  0  0  0  0  0  0  0
   -5.5030   20.6480  -32.4030 N   0  0  0  0  0  0  0  0  0  0  0  0
   -4.5990   20.3440  -33.5190 C   0  0  0  0  0  0  0  0  0  0  0  0
   -6.8470   20.1140  -32.3790 C   0  0  0  0  0  0  0  0  0  0  0  0
   -7.0560   18.7200  -32.3770 C   0  0  0  0  0  0  0  0  0  0  0  0
   -8.3510   18.1950  -32.3520 C   0  0  0  0  0  0  0  0  0  0  0  0
   -9.4530   19.0510  -32.3310 C   0  0  0  0  0  0  0  0  0  0  0  0
   -9.2630   20.4340  -32.3350 C   0  0  0  0  0  0  0  0  0  0  0  0
   -7.9690   20.9660  -32.3600 C   0  0  0  0  0  0  0  0  0  0  0  0
   -4.1820   21.2560  -30.3950 N   0  0  0  0  0  0  0  0  0  0  0  0
    0.0611   23.3083  -23.1363 H   0  0  0  0  0  0  0  0  0  0  0  0
   -0.7747   22.9584  -24.6873 H   0  0  0  0  0  0  0  0  0  0  0  0
    0.7756   23.8658  -24.6873 H   0  0  0  0  0  0  0  0  0  0  0  0
    0.2011   26.7129  -22.3269 H   0  0  0  0  0  0  0  0  0  0  0  0
    1.0275   28.9809  -22.9427 H   0  0  0  0  0  0  0  0  0  0  0  0
    0.9238   29.7511  -25.3116 H   0  0  0  0  0  0  0  0  0  0  0  0
    0.0172   28.2458  -27.0769 H   0  0  0  0  0  0  0  0  0  0  0  0
   -2.2100   24.6030  -25.5210 H   0  0  0  0  0  0  0  0  0  0  0  0
   -1.3314   22.0500  -26.8455 H   0  0  0  0  0  0  0  0  0  0  0  0
   -2.3596   20.5706  -28.5645 H   0  0  0  0  0  0  0  0  0  0  0  0
   -3.6885   25.3745  -28.3084 H   0  0  0  0  0  0  0  0  0  0  0  0
   -6.2050   23.1050  -32.3270 H   0  0  0  0  0  0  0  0  0  0  0  0
   -3.6259   20.0168  -33.1240 H   0  0  0  0  0  0  0  0  0  0  0  0
   -5.0331   19.5424  -34.1346 H   0  0  0  0  0  0  0  0  0  0  0  0
   -4.4606   21.2450  -34.1346 H   0  0  0  0  0  0  0  0  0  0  0  0
   -6.1921   18.0393  -32.3953 H   0  0  0  0  0  0  0  0  0  0  0  0
   -8.5019   17.1054  -32.3489 H   0  0  0  0  0  0  0  0  0  0  0  0
  -10.4715   18.6359  -32.3113 H   0  0  0  0  0  0  0  0  0  0  0  0
  -10.1327   21.1073  -32.3185 H   0  0  0  0  0  0  0  0  0  0  0  0
   -7.8268   22.0568  -32.3649 H   0  0  0  0  0  0  0  0  0  0  0  0
   -3.9020   20.2500  -30.3650 H   0  0  0  0  0  0  0  0  0  0  0  0
  1  2  1  0
  2  3  1  0
  3  4  2  0
  4  5  1  0
  5  6  2  0
  6  7  1  0
  7  8  2  0
  8  9  1  0
  9 10  2  0
  9 11  1  0
 11 12  1  0
 12 13  2  0
 13 14  1  0
 14 15  2  0
 15 16  1  0
 16 17  2  0
 16 18  1  0
 18 19  2  0
 18 20  2  0
 18 21  1  0
 21 22  2  0
 22 23  1  0
 23 24  1  0
 23 25  1  0
 25 26  2  0
 26 27  1  0
 27 28  2  0
 28 29  1  0
 29 30  2  0
 22 31  1  0
  8  3  1  0
 17 12  1  0
 30 25  1  0
 31 15  1  0
  1 32  1  0
  1 33  1  0
  1 34  1  0
  4 35  1  0
  5 36  1  0
  6 37  1  0
  7 38  1  0
 11 39  1  0
 13 40  1  0
 14 41  1  0
 17 42  1  0
 21 43  1  0
 24 44  1  0
 24 45  1  0
 24 46  1  0
 26 47  1  0
 27 48  1  0
 28 49  1  0
 29 50  1  0
 30 51  1  0
 31 52  1  0
M  CHG  1  21   1
M  END
>  <UniqueID>  (17) 
16

>  <SMILES>  (17) 
COc1ccccc1C(=O)Nc1ccc2c(c1)S(=O)(=O)[NH+]=C(N(C)c1ccccc1)N2

>  <Energy>  (17) 
76.75846550458195

>  <Genealogy>  (17) 
COc1ccccc1C(=O)Nc1ccc2c(c1)S(=O)(=O)[NH+]=C(N(C)c1ccccc1)N2 (protonated)
COc1ccccc1C(=O)Nc1ccc2c(c1)S(=O)(=O)[NH+]=C(N(C)c1ccccc1)N2 (3D coordinates assigned)
COc1ccccc1C(=O)Nc1ccc2c(c1)S(=O)(=O)[NH+]=C(N(C)c1ccccc1)N2 (nonaromatic ring conformer: 76.75846550458195 kcal/mol)

>  <smiles>  (17) 
COc1ccccc1C(=O)Nc1ccc2c(c1)S(=O)(=O)N=C(N(C)c1ccccc1)N2

>  <score_type>  (17) 
oracle

>  <origin>  (17) 
adgpu

>  <m_score__min__energy>  (17) 
-8.9700000000000006

>  <m_primary>  (17) 
energy

$$$$
17:0
     RDKit          3D

 49 51  0  0  0  0  0  0  0  0999 V2000
   -0.1130   18.2010  -28.4520 C   0  0  0  0  0  0  0  0  0  0  0  0
   -0.2270   19.2720  -27.5170 O   0  0  0  0  0  0  0  0  0  0  0  0
   -0.7820   20.5280  -27.8210 C   0  0  0  0  0  0  0  0  0  0  0  0
    0.0170   21.6390  -28.1500 C   0  0  0  0  0  0  0  0  0  0  0  0
   -0.5770   22.8590  -28.4720 C   0  0  0  0  0  0  0  0  0  0  0  0
   -1.9680   23.0000  -28.4610 C   0  0  0  0  0  0  0  0  0  0  0  0
   -2.7400   24.5190  -28.9200 S   0  0  0  0  0  0  0  0  0  0  0  0
   -1.7320   25.6330  -28.9450 O   0  0  0  0  0  0  0  0  0  0  0  0
   -3.7880   24.8480  -27.8990 O   0  0  0  0  0  0  0  0  0  0  0  0
   -3.5280   24.3820  -30.4620 N   0  0  0  0  0  0  0  0  0  0  0  0
   -3.9610   23.1720  -31.0950 C   0  0  0  0  0  0  0  0  0  0  0  0
   -2.9890   22.3310  -31.6520 C   0  0  0  0  0  0  0  0  0  0  0  0
   -3.3640   21.1670  -32.3230 C   0  0  0  0  0  0  0  0  0  0  0  0
   -4.7160   20.8320  -32.4440 C   0  0  0  0  0  0  0  0  0  0  0  0
   -5.7020   21.6660  -31.8930 C   0  0  0  0  0  0  0  0  0  0  0  0
   -7.4110   21.2750  -32.0720 S   0  0  0  0  0  0  0  0  0  0  0  0
   -7.9320   20.7360  -30.7730 O   0  0  0  0  0  0  0  0  0  0  0  0
   -8.1970   22.5130  -32.4040 O   0  0  0  0  0  0  0  0  0  0  0  0
   -7.6240   20.0540  -33.2880 N   0  0  0  0  0  0  0  0  0  0  0  0
   -6.8330   18.8540  -33.4080 C   0  0  0  0  0  0  0  0  0  0  0  0
   -6.0770   18.5610  -34.5620 C   0  0  0  0  0  0  0  0  0  0  0  0
   -5.3420   17.3750  -34.6480 C   0  0  0  0  0  0  0  0  0  0  0  0
   -5.3730   16.4560  -33.6000 C   0  0  0  0  0  0  0  0  0  0  0  0
   -6.1350   16.7230  -32.4610 C   0  0  0  0  0  0  0  0  0  0  0  0
   -6.8600   17.9150  -32.3640 C   0  0  0  0  0  0  0  0  0  0  0  0
   -5.3210   22.8290  -31.2150 C   0  0  0  0  0  0  0  0  0  0  0  0
   -2.7670   21.9020  -28.1080 C   0  0  0  0  0  0  0  0  0  0  0  0
   -2.1800   20.6610  -27.8010 C   0  0  0  0  0  0  0  0  0  0  0  0
   -2.9530   19.5310  -27.4870 O   0  0  0  0  0  0  0  0  0  0  0  0
   -3.0140   18.9280  -26.1970 C   0  0  0  0  0  0  0  0  0  0  0  0
   -0.0117   17.2496  -27.9092 H   0  0  0  0  0  0  0  0  0  0  0  0
   -1.0128   18.1686  -29.0839 H   0  0  0  0  0  0  0  0  0  0  0  0
    0.7734   18.3588  -29.0839 H   0  0  0  0  0  0  0  0  0  0  0  0
    1.1130   21.5448  -28.1532 H   0  0  0  0  0  0  0  0  0  0  0  0
    0.0553   23.7191  -28.7373 H   0  0  0  0  0  0  0  0  0  0  0  0
   -1.9239   22.5900  -31.5597 H   0  0  0  0  0  0  0  0  0  0  0  0
   -2.5948   20.5116  -32.7576 H   0  0  0  0  0  0  0  0  0  0  0  0
   -5.0080   19.9125  -32.9724 H   0  0  0  0  0  0  0  0  0  0  0  0
   -8.4950   20.1300  -33.8620 H   0  0  0  0  0  0  0  0  0  0  0  0
   -6.0656   19.2717  -35.4015 H   0  0  0  0  0  0  0  0  0  0  0  0
   -4.7384   17.1666  -35.5437 H   0  0  0  0  0  0  0  0  0  0  0  0
   -4.7975   15.5212  -33.6705 H   0  0  0  0  0  0  0  0  0  0  0  0
   -6.1652   15.9940  -31.6378 H   0  0  0  0  0  0  0  0  0  0  0  0
   -7.4564   18.1188  -31.4624 H   0  0  0  0  0  0  0  0  0  0  0  0
   -6.0895   23.4799  -30.7726 H   0  0  0  0  0  0  0  0  0  0  0  0
   -3.8608   22.0124  -28.0710 H   0  0  0  0  0  0  0  0  0  0  0  0
   -2.9352   19.7068  -25.4241 H   0  0  0  0  0  0  0  0  0  0  0  0
   -3.9705   18.3963  -26.0856 H   0  0  0  0  0  0  0  0  0  0  0  0
   -2.1833   18.2155  -26.0856 H   0  0  0  0  0  0  0  0  0  0  0  0
  1  2  1  0
  2  3  1  0
  3  4  2  0
  4  5  1  0
  5  6  2  0
  6  7  1  0
  7  8  2  0
  7  9  2  0
  7 10  1  0
 10 11  1  0
 11 12  2  0
 12 13  1  0
 13 14  2  0
 14 15  1  0
 15 16  1  0
 16 17  2  0
 16 18  2  0
 16 19  1  0
 19 20  1  0
 20 21  2  0
 21 22  1  0
 22 23  2  0
 23 24  1  0
 24 25  2  0
 15 26  2  0
  6 27  1  0
 27 28  2  0
 28 29  1  0
 29 30  1  0
 28  3  1  0
 26 11  1  0
 25 20  1  0
  1 31  1  0
  1 32  1  0
  1 33  1  0
  4 34  1  0
  5 35  1  0
 12 36  1  0
 13 37  1  0
 14 38  1  0
 19 39  1  0
 21 40  1  0
 22 41  1  0
 23 42  1  0
 24 43  1  0
 25 44  1  0
 26 45  1  0
 27 46  1  0
 30 47  1  0
 30 48  1  0
 30 49  1  0
M  CHG  1  10  -1
M  END
>  <UniqueID>  (18) 
17

>  <SMILES>  (18) 
COc1ccc(S(=O)(=O)[N-]c2cccc(S(=O)(=O)Nc3ccccc3)c2)cc1OC

>  <Energy>  (18) 
54.81312874718748

>  <Genealogy>  (18) 
COc1ccc(S(=O)(=O)[N-]c2cccc(S(=O)(=O)Nc3ccccc3)c2)cc1OC (protonated)
COc1ccc(S(=O)(=O)[N-]c2cccc(S(=O)(=O)Nc3ccccc3)c2)cc1OC (3D coordinates assigned)
COc1ccc(S(=O)(=O)[N-]c2cccc(S(=O)(=O)Nc3ccccc3)c2)cc1OC (optimized conformer: 54.81312874718748 kcal/mol)

>  <smiles>  (18) 
COc1ccc(S(=O)(=O)Nc2cccc(S(=O)(=O)Nc3ccccc3)c2)cc1OC

>  <score_type>  (18) 
oracle

>  <origin>  (18) 
adgpu

>  <m_score__min__energy>  (18) 
-10.859999999999999

>  <m_primary>  (18) 
energy

$$$$
18:0
     RDKit          3D

 43 45  0  0  0  0  0  0  0  0999 V2000
   -1.6480   22.8730  -28.2610 O   0  0  0  0  0  0  0  0  0  0  0  0
   -2.4510   22.4410  -29.1340 C   0  0  0  0  0  0  0  0  0  0  0  0
   -2.1470   21.2380  -29.8550 N   0  0  0  0  0  0  0  0  0  0  0  0
   -1.9030   21.1160  -31.2610 C   0  0  0  0  0  0  0  0  0  0  0  0
   -0.6170   20.8730  -31.7760 C   0  0  0  0  0  0  0  0  0  0  0  0
   -0.4270   20.7400  -33.1590 C   0  0  0  0  0  0  0  0  0  0  0  0
   -1.5180   20.8420  -34.0270 C   0  0  0  0  0  0  0  0  0  0  0  0
   -2.8010   21.0610  -33.5190 C   0  0  0  0  0  0  0  0  0  0  0  0
   -2.9930   21.1910  -32.1400 C   0  0  0  0  0  0  0  0  0  0  0  0
   -3.6790   23.2070  -29.4700 C   0  0  0  0  0  0  0  0  0  0  0  0
   -4.9120   22.5350  -29.5360 C   0  0  0  0  0  0  0  0  0  0  0  0
   -6.0930   23.2190  -29.8750 C   0  0  0  0  0  0  0  0  0  0  0  0
   -7.3590   22.5470  -29.9610 N   0  0  0  0  0  0  0  0  0  0  0  0
   -8.2270   22.2100  -31.4290 S   0  0  0  0  0  0  0  0  0  0  0  0
   -8.1530   23.4000  -32.3480 O   0  0  0  0  0  0  0  0  0  0  0  0
   -9.6700   21.9560  -31.0970 O   0  0  0  0  0  0  0  0  0  0  0  0
   -7.5580   20.7710  -32.1930 C   0  0  0  0  0  0  0  0  0  0  0  0
   -6.3420   20.8260  -32.8880 C   0  0  0  0  0  0  0  0  0  0  0  0
   -5.8120   19.6690  -33.4660 C   0  0  0  0  0  0  0  0  0  0  0  0
   -6.4870   18.4410  -33.3520 C   0  0  0  0  0  0  0  0  0  0  0  0
   -5.9290   17.2140  -34.0280 C   0  0  0  0  0  0  0  0  0  0  0  0
   -6.8590   16.1910  -34.0570 F   0  0  0  0  0  0  0  0  0  0  0  0
   -4.8060   16.7660  -33.3530 F   0  0  0  0  0  0  0  0  0  0  0  0
   -5.5790   17.5330  -35.3250 F   0  0  0  0  0  0  0  0  0  0  0  0
   -7.7180   18.3970  -32.6740 C   0  0  0  0  0  0  0  0  0  0  0  0
   -8.2430   19.5540  -32.0920 C   0  0  0  0  0  0  0  0  0  0  0  0
   -6.0390   24.5950  -30.1360 C   0  0  0  0  0  0  0  0  0  0  0  0
   -7.2060   25.2840  -30.4600 O   0  0  0  0  0  0  0  0  0  0  0  0
   -4.8170   25.2740  -30.0660 C   0  0  0  0  0  0  0  0  0  0  0  0
   -3.6410   24.5900  -29.7440 C   0  0  0  0  0  0  0  0  0  0  0  0
   -2.4410   25.2930  -29.7140 O   0  0  0  0  0  0  0  0  0  0  0  0
    0.2410   20.7872  -31.0930 H   0  0  0  0  0  0  0  0  0  0  0  0
    0.5803   20.5555  -33.5607 H   0  0  0  0  0  0  0  0  0  0  0  0
   -1.3660   20.7496  -35.1125 H   0  0  0  0  0  0  0  0  0  0  0  0
   -3.6594   21.1311  -34.2033 H   0  0  0  0  0  0  0  0  0  0  0  0
   -4.0056   21.3531  -31.7422 H   0  0  0  0  0  0  0  0  0  0  0  0
   -4.9536   21.4574  -29.3191 H   0  0  0  0  0  0  0  0  0  0  0  0
   -5.8040   21.7812  -32.9787 H   0  0  0  0  0  0  0  0  0  0  0  0
   -4.8597   19.7196  -34.0142 H   0  0  0  0  0  0  0  0  0  0  0  0
   -8.2699   17.4483  -32.6014 H   0  0  0  0  0  0  0  0  0  0  0  0
   -9.1999   19.5083  -31.5514 H   0  0  0  0  0  0  0  0  0  0  0  0
   -8.0600   24.7980  -30.7090 H   0  0  0  0  0  0  0  0  0  0  0  0
   -4.7817   26.3551  -30.2661 H   0  0  0  0  0  0  0  0  0  0  0  0
  1  2  2  0
  2  3  1  0
  3  4  1  0
  4  5  2  0
  5  6  1  0
  6  7  2  0
  7  8  1  0
  8  9  2  0
  2 10  1  0
 10 11  2  0
 11 12  1  0
 12 13  1  0
 13 14  1  0
 14 15  2  0
 14 16  2  0
 14 17  1  0
 17 18  2  0
 18 19  1  0
 19 20  2  0
 20 21  1  0
 21 22  1  0
 21 23  1  0
 21 24  1  0
 20 25  1  0
 25 26  2  0
 12 27  2  0
 27 28  1  0
 27 29  1  0
 29 30  2  0
 30 31  1  0
  9  4  1  0
 30 10  1  0
 26 17  1  0
  5 32  1  0
  6 33  1  0
  7 34  1  0
  8 35  1  0
  9 36  1  0
 11 37  1  0
 18 38  1  0
 19 39  1  0
 25 40  1  0
 26 41  1  0
 28 42  1  0
 29 43  1  0
M  CHG  3   3  -1  13  -1  31  -1
M  END
>  <UniqueID>  (19) 
18

>  <SMILES>  (19) 
O=C([N-]c1ccccc1)c1cc([N-]S(=O)(=O)c2ccc(C(F)(F)F)cc2)c(O)cc1[O-]

>  <Energy>  (19) 
55.53077170543631

>  <Genealogy>  (19) 
O=C([N-]c1ccccc1)c1cc([N-]S(=O)(=O)c2ccc(C(F)(F)F)cc2)c(O)cc1[O-] (protonated)
O=C([N-]c1ccccc1)c1cc([N-]S(=O)(=O)c2ccc(C(F)(F)F)cc2)c(O)cc1[O-] (3D coordinates assigned)
O=C([N-]c1ccccc1)c1cc([N-]S(=O)(=O)c2ccc(C(F)(F)F)cc2)c(O)cc1[O-] (optimized conformer: 55.53077170543631 kcal/mol)

>  <smiles>  (19) 
O=C(Nc1ccccc1)c1cc(NS(=O)(=O)c2ccc(C(F)(F)F)cc2)c(O)cc1O

>  <score_type>  (19) 
oracle

>  <origin>  (19) 
adgpu

>  <m_score__min__energy>  (19) 
-11.48

>  <m_primary>  (19) 
energy

$$$$
19:0
     RDKit          3D

 40 42  0  0  0  0  0  0  0  0999 V2000
   -5.0030   19.5320  -33.7700 O   0  0  0  0  0  0  0  0  0  0  0  0
   -4.5810   20.6590  -33.3990 C   0  0  0  0  0  0  0  0  0  0  0  0
   -3.2180   21.0100  -33.6850 N   0  0  0  0  0  0  0  0  0  0  0  0
   -2.1050   20.8340  -32.7990 C   0  0  0  0  0  0  0  0  0  0  0  0
   -2.3260   20.1990  -31.5690 C   0  0  0  0  0  0  0  0  0  0  0  0
   -1.2920   20.0830  -30.6360 C   0  0  0  0  0  0  0  0  0  0  0  0
   -0.0260   20.5940  -30.9280 C   0  0  0  0  0  0  0  0  0  0  0  0
    0.2170   21.1980  -32.1640 C   0  0  0  0  0  0  0  0  0  0  0  0
   -0.8070   21.3010  -33.1160 C   0  0  0  0  0  0  0  0  0  0  0  0
   -0.4960   21.8430  -34.3640 O   0  0  0  0  0  0  0  0  0  0  0  0
   -5.4970   21.5730  -32.6720 C   0  0  0  0  0  0  0  0  0  0  0  0
   -6.8790   21.3210  -32.6630 C   0  0  0  0  0  0  0  0  0  0  0  0
   -7.7490   22.1810  -31.9860 C   0  0  0  0  0  0  0  0  0  0  0  0
   -7.2470   23.2940  -31.3060 C   0  0  0  0  0  0  0  0  0  0  0  0
   -5.8710   23.5460  -31.2890 C   0  0  0  0  0  0  0  0  0  0  0  0
   -5.2410   24.9530  -30.4350 S   0  0  0  0  0  0  0  0  0  0  0  0
   -5.7420   24.9720  -29.0170 O   0  0  0  0  0  0  0  0  0  0  0  0
   -5.7110   26.1930  -31.1410 O   0  0  0  0  0  0  0  0  0  0  0  0
   -3.5060   24.9370  -30.4250 N   0  0  0  0  0  0  0  0  0  0  0  0
   -2.6860   24.2030  -29.5040 C   0  0  0  0  0  0  0  0  0  0  0  0
   -2.9800   22.8740  -29.1430 C   0  0  0  0  0  0  0  0  0  0  0  0
   -2.1440   22.1830  -28.2600 C   0  0  0  0  0  0  0  0  0  0  0  0
   -1.0140   22.8100  -27.7280 C   0  0  0  0  0  0  0  0  0  0  0  0
   -0.7190   24.1300  -28.0770 C   0  0  0  0  0  0  0  0  0  0  0  0
   -1.5490   24.8250  -28.9640 C   0  0  0  0  0  0  0  0  0  0  0  0
   -1.2370   26.1350  -29.3120 O   0  0  0  0  0  0  0  0  0  0  0  0
   -4.9990   22.6820  -31.9660 C   0  0  0  0  0  0  0  0  0  0  0  0
   -3.3200   19.7892  -31.3366 H   0  0  0  0  0  0  0  0  0  0  0  0
   -1.4758   19.5886  -29.6707 H   0  0  0  0  0  0  0  0  0  0  0  0
    0.7810   20.5209  -30.1841 H   0  0  0  0  0  0  0  0  0  0  0  0
    1.2173   21.5950  -32.3915 H   0  0  0  0  0  0  0  0  0  0  0  0
   -1.1960   22.0290  -35.0700 H   0  0  0  0  0  0  0  0  0  0  0  0
   -7.2786   20.4427  -33.1912 H   0  0  0  0  0  0  0  0  0  0  0  0
   -8.8307   21.9812  -31.9886 H   0  0  0  0  0  0  0  0  0  0  0  0
   -7.9356   23.9737  -30.7828 H   0  0  0  0  0  0  0  0  0  0  0  0
   -3.8702   22.3777  -29.5569 H   0  0  0  0  0  0  0  0  0  0  0  0
   -2.3764   21.1439  -27.9837 H   0  0  0  0  0  0  0  0  0  0  0  0
   -0.3571   22.2643  -27.0347 H   0  0  0  0  0  0  0  0  0  0  0  0
    0.1678   24.6244  -27.6537 H   0  0  0  0  0  0  0  0  0  0  0  0
   -3.9160   22.8734  -31.9446 H   0  0  0  0  0  0  0  0  0  0  0  0
  1  2  2  0
  2  3  1  0
  3  4  1  0
  4  5  2  0
  5  6  1  0
  6  7  2  0
  7  8  1  0
  8  9  2  0
  9 10  1  0
  2 11  1  0
 11 12  2  0
 12 13  1  0
 13 14  2  0
 14 15  1  0
 15 16  1  0
 16 17  2  0
 16 18  2  0
 16 19  1  0
 19 20  1  0
 20 21  2  0
 21 22  1  0
 22 23  2  0
 23 24  1  0
 24 25  2  0
 25 26  1  0
 15 27  2  0
  9  4  1  0
 27 11  1  0
 25 20  1  0
  5 28  1  0
  6 29  1  0
  7 30  1  0
  8 31  1  0
 10 32  1  0
 12 33  1  0
 13 34  1  0
 14 35  1  0
 21 36  1  0
 22 37  1  0
 23 38  1  0
 24 39  1  0
 27 40  1  0
M  CHG  3   3  -1  19  -1  26  -1
M  END
>  <UniqueID>  (20) 
19

>  <SMILES>  (20) 
O=C([N-]c1ccccc1O)c1cccc(S(=O)(=O)[N-]c2ccccc2[O-])c1

>  <Energy>  (20) 
55.29172768986849

>  <Genealogy>  (20) 
O=C([N-]c1ccccc1O)c1cccc(S(=O)(=O)[N-]c2ccccc2[O-])c1 (protonated)
O=C([N-]c1ccccc1O)c1cccc(S(=O)(=O)[N-]c2ccccc2[O-])c1 (3D coordinates assigned)
O=C([N-]c1ccccc1O)c1cccc(S(=O)(=O)[N-]c2ccccc2[O-])c1 (optimized conformer: 55.29172768986849 kcal/mol)

>  <smiles>  (20) 
O=C(Nc1ccccc1O)c1cccc(S(=O)(=O)Nc2ccccc2O)c1

>  <score_type>  (20) 
oracle

>  <origin>  (20) 
adgpu

>  <m_score__min__energy>  (20) 
-13.279999999999999

>  <m_primary>  (20) 
energy

$$$$
20:0
     RDKit          3D

 55 58  0  0  0  0  0  0  0  0999 V2000
   -0.0990   24.9270  -28.7210 O   0  0  0  0  0  0  0  0  0  0  0  0
   -1.4220   24.2340  -28.5620 S   0  0  0  0  0  0  0  0  0  0  0  0
   -1.7280   24.0830  -27.0970 O   0  0  0  0  0  0  0  0  0  0  0  0
   -2.6610   25.1930  -29.3060 N   0  0  0  0  0  0  0  0  0  0  0  0
   -3.9170   24.6880  -29.7780 C   0  0  0  0  0  0  0  0  0  0  0  0
   -4.6270   25.3050  -30.8250 C   0  0  0  0  0  0  0  0  0  0  0  0
   -5.8720   24.8070  -31.2190 C   0  0  0  0  0  0  0  0  0  0  0  0
   -6.4170   23.6810  -30.5940 C   0  0  0  0  0  0  0  0  0  0  0  0
   -7.6840   23.2320  -30.9980 O   0  0  0  0  0  0  0  0  0  0  0  0
   -7.9510   21.9870  -31.5850 C   0  0  0  0  0  0  0  0  0  0  0  0
   -6.8750   21.1930  -32.0030 C   0  0  0  0  0  0  0  0  0  0  0  0
   -7.1050   19.9420  -32.5840 C   0  0  0  0  0  0  0  0  0  0  0  0
   -8.4120   19.4710  -32.7370 C   0  0  0  0  0  0  0  0  0  0  0  0
   -9.4920   20.2480  -32.3090 C   0  0  0  0  0  0  0  0  0  0  0  0
   -9.2650   21.5000  -31.7290 C   0  0  0  0  0  0  0  0  0  0  0  0
   -5.7060   23.0620  -29.5500 C   0  0  0  0  0  0  0  0  0  0  0  0
   -4.4610   23.5590  -29.1550 C   0  0  0  0  0  0  0  0  0  0  0  0
   -1.3390   22.6620  -29.3520 C   0  0  0  0  0  0  0  0  0  0  0  0
   -0.5130   21.6630  -28.8240 C   0  0  0  0  0  0  0  0  0  0  0  0
   -0.4000   20.4300  -29.4690 C   0  0  0  0  0  0  0  0  0  0  0  0
   -1.1070   20.1860  -30.6510 C   0  0  0  0  0  0  0  0  0  0  0  0
   -0.9750   18.9810  -31.2600 F   0  0  0  0  0  0  0  0  0  0  0  0
   -1.9410   21.1820  -31.1890 C   0  0  0  0  0  0  0  0  0  0  0  0
   -2.8510   20.9030  -32.6780 S   0  0  0  0  0  0  0  0  0  0  0  0
   -3.7060   19.6790  -32.4960 O   0  0  0  0  0  0  0  0  0  0  0  0
   -3.7560   22.0740  -32.9570 O   0  0  0  0  0  0  0  0  0  0  0  0
   -1.7570   20.6560  -34.0190 N   0  0  0  0  0  0  0  0  0  0  0  0
   -1.4370   19.2180  -34.1500 C   0  0  0  0  0  0  0  0  0  0  0  0
   -0.1860   18.9980  -35.0060 C   0  0  0  0  0  0  0  0  0  0  0  0
    1.0490   19.6470  -34.3580 C   0  0  0  0  0  0  0  0  0  0  0  0
    0.6860   20.8100  -33.4190 C   0  0  0  0  0  0  0  0  0  0  0  0
   -0.5710   21.5440  -33.9090 C   0  0  0  0  0  0  0  0  0  0  0  0
   -2.0600   22.4150  -30.5290 C   0  0  0  0  0  0  0  0  0  0  0  0
   -4.2008   26.1817  -31.3346 H   0  0  0  0  0  0  0  0  0  0  0  0
   -6.4277   25.3048  -32.0273 H   0  0  0  0  0  0  0  0  0  0  0  0
   -5.8445   21.5554  -31.8736 H   0  0  0  0  0  0  0  0  0  0  0  0
   -6.2566   19.3282  -32.9209 H   0  0  0  0  0  0  0  0  0  0  0  0
   -8.5909   18.4871  -33.1951 H   0  0  0  0  0  0  0  0  0  0  0  0
  -10.5199   19.8749  -32.4283 H   0  0  0  0  0  0  0  0  0  0  0  0
  -10.1153   22.1066  -31.3840 H   0  0  0  0  0  0  0  0  0  0  0  0
   -6.1315   22.1836  -29.0427 H   0  0  0  0  0  0  0  0  0  0  0  0
   -3.9045   23.0591  -28.3485 H   0  0  0  0  0  0  0  0  0  0  0  0
    0.0493   21.8501  -27.8973 H   0  0  0  0  0  0  0  0  0  0  0  0
    0.2473   19.6476  -29.0462 H   0  0  0  0  0  0  0  0  0  0  0  0
   -1.2635   18.7976  -33.1484 H   0  0  0  0  0  0  0  0  0  0  0  0
   -2.2847   18.7188  -34.6422 H   0  0  0  0  0  0  0  0  0  0  0  0
   -0.0095   17.9176  -35.1134 H   0  0  0  0  0  0  0  0  0  0  0  0
   -0.3494   19.4624  -35.9897 H   0  0  0  0  0  0  0  0  0  0  0  0
    1.5853   18.8813  -33.7784 H   0  0  0  0  0  0  0  0  0  0  0  0
    1.6719   20.0560  -35.1672 H   0  0  0  0  0  0  0  0  0  0  0  0
    0.4999   20.4127  -32.4103 H   0  0  0  0  0  0  0  0  0  0  0  0
    1.5238   21.5226  -33.4051 H   0  0  0  0  0  0  0  0  0  0  0  0
   -0.8032   22.3525  -33.2003 H   0  0  0  0  0  0  0  0  0  0  0  0
   -0.3547   21.9297  -34.9162 H   0  0  0  0  0  0  0  0  0  0  0  0
   -2.7228   23.1921  -30.9375 H   0  0  0  0  0  0  0  0  0  0  0  0
  1  2  2  0
  2  3  2  0
  2  4  1  0
  4  5  1  0
  5  6  2  0
  6  7  1  0
  7  8  2  0
  8  9  1  0
  9 10  1  0
 10 11  2  0
 11 12  1  0
 12 13  2  0
 13 14  1  0
 14 15  2  0
  8 16  1  0
 16 17  2  0
  2 18  1  0
 18 19  2  0
 19 20  1  0
 20 21  2  0
 21 22  1  0
 21 23  1  0
 23 24  1  0
 24 25  2  0
 24 26  2  0
 24 27  1  0
 27 28  1  0
 28 29  1  0
 29 30  1  0
 30 31  1  0
 31 32  1  0
 23 33  2  0
 17  5  1  0
 33 18  1  0
 15 10  1  0
 32 27  1  0
  6 34  1  0
  7 35  1  0
 11 36  1  0
 12 37  1  0
 13 38  1  0
 14 39  1  0
 15 40  1  0
 16 41  1  0
 17 42  1  0
 19 43  1  0
 20 44  1  0
 28 45  1  0
 28 46  1  0
 29 47  1  0
 29 48  1  0
 30 49  1  0
 30 50  1  0
 31 51  1  0
 31 52  1  0
 32 53  1  0
 32 54  1  0
 33 55  1  0
M  CHG  1   4  -1
M  END
>  <UniqueID>  (21) 
20

>  <SMILES>  (21) 
O=S(=O)([N-]c1ccc(Oc2ccccc2)cc1)c1ccc(F)c(S(=O)(=O)N2CCCCC2)c1

>  <Energy>  (21) 
74.07445018902094

>  <Genealogy>  (21) 
O=S(=O)([N-]c1ccc(Oc2ccccc2)cc1)c1ccc(F)c(S(=O)(=O)N2CCCCC2)c1 (protonated)
O=S(=O)([N-]c1ccc(Oc2ccccc2)cc1)c1ccc(F)c(S(=O)(=O)N2CCCCC2)c1 (3D coordinates assigned)
O=S(=O)([N-]c1ccc(Oc2ccccc2)cc1)c1ccc(F)c(S(=O)(=O)N2CCCCC2)c1 (nonaromatic ring conformer: 74.07445018902094 kcal/mol)

>  <smiles>  (21) 
O=S(=O)(Nc1ccc(Oc2ccccc2)cc1)c1ccc(F)c(S(=O)(=O)N2CCCCC2)c1

>  <score_type>  (21) 
oracle

>  <origin>  (21) 
adgpu

>  <m_score__min__energy>  (21) 
-11.74

>  <m_primary>  (21) 
energy

$$$$
21:0
     RDKit          3D

 37 40  0  0  0  0  0  0  0  0999 V2000
   -5.8090   24.6760  -29.3890 O   0  0  0  0  0  0  0  0  0  0  0  0
   -4.5470   24.1810  -30.0360 S   0  0  0  0  0  0  0  0  0  0  0  0
   -3.9370   25.2950  -30.8400 O   0  0  0  0  0  0  0  0  0  0  0  0
   -3.4340   23.6380  -28.7840 C   0  0  0  0  0  0  0  0  0  0  0  0
   -2.9720   22.3160  -28.7900 C   0  0  0  0  0  0  0  0  0  0  0  0
   -2.0810   21.8810  -27.8080 C   0  0  0  0  0  0  0  0  0  0  0  0
   -1.6470   22.7620  -26.8130 C   0  0  0  0  0  0  0  0  0  0  0  0
   -2.1050   24.0900  -26.7920 C   0  0  0  0  0  0  0  0  0  0  0  0
   -1.6460   25.0240  -25.7400 C   0  0  0  0  0  0  0  0  0  0  0  0
   -0.4730   24.8960  -25.0800 N   0  0  0  0  0  0  0  0  0  0  0  0
   -0.4960   25.9520  -24.2450 C   0  0  0  0  0  0  0  0  0  0  0  0
   -1.6180   26.6730  -24.3960 N   0  0  0  0  0  0  0  0  0  0  0  0
   -2.3490   26.1000  -25.3320 N   0  0  0  0  0  0  0  0  0  0  0  0
   -3.0020   24.5220  -27.7850 C   0  0  0  0  0  0  0  0  0  0  0  0
   -4.9120   22.8610  -31.0980 N   0  0  0  0  0  0  0  0  0  0  0  0
   -3.9700   22.2800  -32.0500 C   0  0  0  0  0  0  0  0  0  0  0  0
   -4.7840   21.2490  -32.8730 C   0  0  0  0  0  0  0  0  0  0  0  0
   -6.1630   21.3790  -32.3230 C   0  0  0  0  0  0  0  0  0  0  0  0
   -7.3170   20.7010  -32.7180 C   0  0  0  0  0  0  0  0  0  0  0  0
   -8.5230   20.9890  -32.0580 C   0  0  0  0  0  0  0  0  0  0  0  0
   -8.5540   21.9430  -31.0220 C   0  0  0  0  0  0  0  0  0  0  0  0
   -7.3790   22.6130  -30.6420 C   0  0  0  0  0  0  0  0  0  0  0  0
   -6.1940   22.3040  -31.3170 C   0  0  0  0  0  0  0  0  0  0  0  0
   -3.3121   21.6192  -29.5702 H   0  0  0  0  0  0  0  0  0  0  0  0
   -1.7192   20.8422  -27.8168 H   0  0  0  0  0  0  0  0  0  0  0  0
   -0.9433   22.4136  -26.0426 H   0  0  0  0  0  0  0  0  0  0  0  0
    0.3038   26.1934  -23.5294 H   0  0  0  0  0  0  0  0  0  0  0  0
   -1.8840   27.5370  -23.8740 H   0  0  0  0  0  0  0  0  0  0  0  0
   -3.3670   25.5597  -27.7780 H   0  0  0  0  0  0  0  0  0  0  0  0
   -3.5616   23.0600  -32.7094 H   0  0  0  0  0  0  0  0  0  0  0  0
   -3.1173   21.8084  -31.5396 H   0  0  0  0  0  0  0  0  0  0  0  0
   -4.7628   21.4960  -33.9447 H   0  0  0  0  0  0  0  0  0  0  0  0
   -4.3854   20.2267  -32.7953 H   0  0  0  0  0  0  0  0  0  0  0  0
   -7.2829   19.9576  -33.5281 H   0  0  0  0  0  0  0  0  0  0  0  0
   -9.4463   20.4679  -32.3511 H   0  0  0  0  0  0  0  0  0  0  0  0
   -9.5015   22.1642  -30.5087 H   0  0  0  0  0  0  0  0  0  0  0  0
   -7.3909   23.3606  -29.8352 H   0  0  0  0  0  0  0  0  0  0  0  0
  1  2  2  0
  2  3  2  0
  2  4  1  0
  4  5  2  0
  5  6  1  0
  6  7  2  0
  7  8  1  0
  8  9  1  0
  9 10  1  0
 10 11  2  0
 11 12  1  0
 12 13  1  0
  8 14  2  0
  2 15  1  0
 15 16  1  0
 16 17  1  0
 17 18  1  0
 18 19  2  0
 19 20  1  0
 20 21  2  0
 21 22  1  0
 22 23  2  0
 14  4  1  0
 23 15  1  0
 13  9  2  0
 23 18  1  0
  5 24  1  0
  6 25  1  0
  7 26  1  0
 11 27  1  0
 12 28  1  0
 14 29  1  0
 16 30  1  0
 16 31  1  0
 17 32  1  0
 17 33  1  0
 19 34  1  0
 20 35  1  0
 21 36  1  0
 22 37  1  0
M  END
>  <UniqueID>  (22) 
21

>  <SMILES>  (22) 
O=S(=O)(c1cccc(-c2nc[nH]n2)c1)N1CCc2ccccc21

>  <Energy>  (22) 
88.99961933774175

>  <Genealogy>  (22) 
O=S(=O)(c1cccc(-c2nc[nH]n2)c1)N1CCc2ccccc21 (3D coordinates assigned)
O=S(=O)(c1cccc(-c2nc[nH]n2)c1)N1CCc2ccccc21 (nonaromatic ring conformer: 88.99961933774175 kcal/mol)

>  <smiles>  (22) 
O=S(=O)(c1cccc(-c2nc[nH]n2)c1)N1CCc2ccccc21

>  <score_type>  (22) 
oracle

>  <origin>  (22) 
adgpu

>  <m_score__min__energy>  (22) 
-8.9000000000000004

>  <m_primary>  (22) 
energy

$$$$
22:0
     RDKit          3D

 53 56  0  0  0  0  0  0  0  0999 V2000
   -2.8590   21.2460  -33.5960 C   0  0  0  0  0  0  0  0  0  0  0  0
   -2.0280   20.5600  -32.5670 C   0  0  0  0  0  0  0  0  0  0  0  0
   -1.0220   19.6510  -32.8880 C   0  0  0  0  0  0  0  0  0  0  0  0
   -0.3260   19.1150  -31.4490 S   0  0  0  0  0  0  0  0  0  0  0  0
   -1.3250   20.0690  -30.4970 C   0  0  0  0  0  0  0  0  0  0  0  0
   -1.3050   20.0560  -29.1970 N   0  0  0  0  0  0  0  0  0  0  0  0
   -2.1450   20.8450  -28.3400 C   0  0  0  0  0  0  0  0  0  0  0  0
   -2.9330   20.2850  -27.5300 O   0  0  0  0  0  0  0  0  0  0  0  0
   -2.0710   22.3220  -28.3830 C   0  0  0  0  0  0  0  0  0  0  0  0
   -1.4080   23.0360  -27.3700 C   0  0  0  0  0  0  0  0  0  0  0  0
   -1.4220   24.4320  -27.3660 C   0  0  0  0  0  0  0  0  0  0  0  0
   -2.0880   25.1330  -28.3720 C   0  0  0  0  0  0  0  0  0  0  0  0
   -2.7350   24.4380  -29.4110 C   0  0  0  0  0  0  0  0  0  0  0  0
   -3.4850   25.0960  -30.4480 N   0  0  0  0  0  0  0  0  0  0  0  0
   -4.9060   25.2540  -30.5780 C   0  0  0  0  0  0  0  0  0  0  0  0
   -5.4500   26.3930  -30.4510 O   0  0  0  0  0  0  0  0  0  0  0  0
   -5.7440   24.0790  -30.8950 C   0  0  0  0  0  0  0  0  0  0  0  0
   -7.1470   24.1840  -30.8810 C   0  0  0  0  0  0  0  0  0  0  0  0
   -7.9410   23.0790  -31.1890 C   0  0  0  0  0  0  0  0  0  0  0  0
   -7.3460   21.8580  -31.5250 C   0  0  0  0  0  0  0  0  0  0  0  0
   -5.9410   21.7360  -31.5690 C   0  0  0  0  0  0  0  0  0  0  0  0
   -5.2880   20.5090  -31.9640 N   0  0  0  0  0  0  0  0  0  0  0  0
   -6.0940   19.1730  -32.7170 S   0  0  0  0  0  0  0  0  0  0  0  0
   -6.7680   18.3320  -31.6680 O   0  0  0  0  0  0  0  0  0  0  0  0
   -7.1360   19.6960  -33.6640 O   0  0  0  0  0  0  0  0  0  0  0  0
   -4.9290   18.2160  -33.6130 C   0  0  0  0  0  0  0  0  0  0  0  0
   -5.0350   17.8190  -34.9310 C   0  0  0  0  0  0  0  0  0  0  0  0
   -3.8820   17.1070  -35.2030 C   0  0  0  0  0  0  0  0  0  0  0  0
   -3.0950   17.0750  -34.1100 N   0  0  0  0  0  0  0  0  0  0  0  0
   -1.8150   16.3830  -33.9940 C   0  0  0  0  0  0  0  0  0  0  0  0
   -3.7330   17.7370  -33.1270 C   0  0  0  0  0  0  0  0  0  0  0  0
   -5.1540   22.8500  -31.2400 C   0  0  0  0  0  0  0  0  0  0  0  0
   -2.7180   23.0370  -29.4070 C   0  0  0  0  0  0  0  0  0  0  0  0
   -2.1930   20.7960  -31.2400 N   0  0  0  0  0  0  0  0  0  0  0  0
   -3.6158   21.8708  -33.0992 H   0  0  0  0  0  0  0  0  0  0  0  0
   -2.2156   21.8795  -34.2243 H   0  0  0  0  0  0  0  0  0  0  0  0
   -3.3591   20.4942  -34.2243 H   0  0  0  0  0  0  0  0  0  0  0  0
   -0.7327   19.3381  -33.9021 H   0  0  0  0  0  0  0  0  0  0  0  0
   -0.8753   22.4920  -26.5761 H   0  0  0  0  0  0  0  0  0  0  0  0
   -0.9054   24.9821  -26.5657 H   0  0  0  0  0  0  0  0  0  0  0  0
   -2.1075   26.2327  -28.3530 H   0  0  0  0  0  0  0  0  0  0  0  0
   -7.6208   25.1433  -30.6256 H   0  0  0  0  0  0  0  0  0  0  0  0
   -9.0372   23.1678  -31.1676 H   0  0  0  0  0  0  0  0  0  0  0  0
   -7.9776   20.9876  -31.7563 H   0  0  0  0  0  0  0  0  0  0  0  0
   -4.2600   20.3950  -31.7850 H   0  0  0  0  0  0  0  0  0  0  0  0
   -5.8654   18.0265  -35.6219 H   0  0  0  0  0  0  0  0  0  0  0  0
   -3.6426   16.6366  -36.1681 H   0  0  0  0  0  0  0  0  0  0  0  0
   -1.5660   16.2484  -32.9310 H   0  0  0  0  0  0  0  0  0  0  0  0
   -1.8844   15.3995  -34.4818 H   0  0  0  0  0  0  0  0  0  0  0  0
   -1.0301   16.9797  -34.4818 H   0  0  0  0  0  0  0  0  0  0  0  0
   -3.3595   17.8733  -32.1014 H   0  0  0  0  0  0  0  0  0  0  0  0
   -4.0577   22.7606  -31.2521 H   0  0  0  0  0  0  0  0  0  0  0  0
   -3.2187   22.4874  -30.2177 H   0  0  0  0  0  0  0  0  0  0  0  0
  1  2  1  0
  2  3  2  0
  3  4  1  0
  4  5  1  0
  5  6  2  3
  6  7  1  0
  7  8  2  0
  7  9  1  0
  9 10  2  0
 10 11  1  0
 11 12  2  0
 12 13  1  0
 13 14  1  0
 14 15  1  0
 15 16  2  0
 15 17  1  0
 17 18  2  0
 18 19  1  0
 19 20  2  0
 20 21  1  0
 21 22  1  0
 22 23  1  0
 23 24  2  0
 23 25  2  0
 23 26  1  0
 26 27  1  0
 27 28  2  0
 28 29  1  0
 29 30  1  0
 29 31  1  0
 21 32  2  0
 13 33  2  0
  5 34  1  0
 34  2  1  0
 33  9  1  0
 32 17  1  0
 31 26  2  0
  1 35  1  0
  1 36  1  0
  1 37  1  0
  3 38  1  0
 10 39  1  0
 11 40  1  0
 12 41  1  0
 18 42  1  0
 19 43  1  0
 20 44  1  0
 22 45  1  0
 27 46  1  0
 28 47  1  0
 30 48  1  0
 30 49  1  0
 30 50  1  0
 31 51  1  0
 32 52  1  0
 33 53  1  0
M  CHG  2  14  -1  34  -1
M  END
>  <UniqueID>  (23) 
22

>  <SMILES>  (23) 
Cc1csc(=NC(=O)c2cccc([N-]C(=O)c3cccc(NS(=O)(=O)c4ccn(C)c4)c3)c2)[n-]1

>  <Energy>  (23) 
123.04520011158988

>  <Genealogy>  (23) 
Cc1csc(=NC(=O)c2cccc([N-]C(=O)c3cccc(NS(=O)(=O)c4ccn(C)c4)c3)c2)[n-]1 (protonated)
Cc1csc(=NC(=O)c2cccc([N-]C(=O)c3cccc(NS(=O)(=O)c4ccn(C)c4)c3)c2)[n-]1 (3D coordinates assigned)
Cc1csc(=NC(=O)c2cccc([N-]C(=O)c3cccc(NS(=O)(=O)c4ccn(C)c4)c3)c2)[n-]1 (optimized conformer: 123.04520011158988 kcal/mol)

>  <smiles>  (23) 
Cc1csc(=NC(=O)c2cccc(NC(=O)c3cccc(NS(=O)(=O)c4ccn(C)c4)c3)c2)[nH]1

>  <score_type>  (23) 
oracle

>  <origin>  (23) 
adgpu

>  <m_score__min__energy>  (23) 
-11.75

>  <m_primary>  (23) 
energy

$$$$
23:0
     RDKit          3D

 59 62  0  0  0  0  0  0  0  0999 V2000
   -2.2150   22.6040  -30.5720 O   0  0  0  0  0  0  0  0  0  0  0  0
   -3.1450   22.5470  -31.4230 C   0  0  0  0  0  0  0  0  0  0  0  0
   -2.8970   21.9600  -32.7070 N   0  0  0  0  0  0  0  0  0  0  0  0
   -2.5380   20.5970  -32.9750 C   0  0  0  0  0  0  0  0  0  0  0  0
   -1.3390   20.0330  -32.5000 C   0  0  0  0  0  0  0  0  0  0  0  0
   -1.0430   18.6930  -32.7600 C   0  0  0  0  0  0  0  0  0  0  0  0
   -1.9430   17.9000  -33.4760 C   0  0  0  0  0  0  0  0  0  0  0  0
   -3.1550   18.4410  -33.9250 C   0  0  0  0  0  0  0  0  0  0  0  0
   -4.3160   17.4280  -34.7850 S   0  0  0  0  0  0  0  0  0  0  0  0
   -5.3610   18.3030  -35.4220 O   0  0  0  0  0  0  0  0  0  0  0  0
   -3.6070   16.6790  -35.8790 O   0  0  0  0  0  0  0  0  0  0  0  0
   -5.0930   16.2890  -33.7090 N   0  0  0  0  0  0  0  0  0  0  0  0
   -5.4780   15.0660  -34.4460 C   0  0  0  0  0  0  0  0  0  0  0  0
   -5.7680   13.9060  -33.4910 C   0  0  0  0  0  0  0  0  0  0  0  0
   -4.5140   13.5310  -32.6790 C   0  0  0  0  0  0  0  0  0  0  0  0
   -3.5350   14.7070  -32.5190 C   0  0  0  0  0  0  0  0  0  0  0  0
   -4.2820   16.0500  -32.4880 C   0  0  0  0  0  0  0  0  0  0  0  0
   -3.4440   19.7900  -33.6720 C   0  0  0  0  0  0  0  0  0  0  0  0
   -4.4720   23.1410  -31.1020 C   0  0  0  0  0  0  0  0  0  0  0  0
   -5.6340   22.3590  -31.2610 C   0  0  0  0  0  0  0  0  0  0  0  0
   -6.9000   22.8790  -30.9590 C   0  0  0  0  0  0  0  0  0  0  0  0
   -8.3390   21.8750  -31.1530 S   0  0  0  0  0  0  0  0  0  0  0  0
   -9.1510   21.9220  -29.8890 O   0  0  0  0  0  0  0  0  0  0  0  0
   -9.1820   22.4320  -32.2670 O   0  0  0  0  0  0  0  0  0  0  0  0
   -7.9300   20.2160  -31.5150 N   0  0  0  0  0  0  0  0  0  0  0  0
   -7.1140   20.1400  -32.7380 C   0  0  0  0  0  0  0  0  0  0  0  0
   -6.9620   18.6770  -33.2030 C   0  0  0  0  0  0  0  0  0  0  0  0
   -7.3780   17.7770  -32.1950 O   0  0  0  0  0  0  0  0  0  0  0  0
   -8.7660   17.9360  -31.9490 C   0  0  0  0  0  0  0  0  0  0  0  0
   -9.1470   19.4040  -31.6650 C   0  0  0  0  0  0  0  0  0  0  0  0
   -7.0160   24.1950  -30.5000 C   0  0  0  0  0  0  0  0  0  0  0  0
   -5.8770   24.9840  -30.3410 C   0  0  0  0  0  0  0  0  0  0  0  0
   -4.6100   24.4710  -30.6380 C   0  0  0  0  0  0  0  0  0  0  0  0
   -3.5060   25.2980  -30.4650 O   0  0  0  0  0  0  0  0  0  0  0  0
   -0.6336   20.6489  -31.9228 H   0  0  0  0  0  0  0  0  0  0  0  0
   -0.0979   18.2606  -32.3997 H   0  0  0  0  0  0  0  0  0  0  0  0
   -1.6996   16.8484  -33.6878 H   0  0  0  0  0  0  0  0  0  0  0  0
   -6.3803   15.2750  -35.0394 H   0  0  0  0  0  0  0  0  0  0  0  0
   -4.6403   14.7766  -35.0975 H   0  0  0  0  0  0  0  0  0  0  0  0
   -6.5694   14.2024  -32.7983 H   0  0  0  0  0  0  0  0  0  0  0  0
   -6.0745   13.0322  -34.0848 H   0  0  0  0  0  0  0  0  0  0  0  0
   -4.8292   13.1973  -31.6793 H   0  0  0  0  0  0  0  0  0  0  0  0
   -3.9893   12.7350  -33.2277 H   0  0  0  0  0  0  0  0  0  0  0  0
   -2.9773   14.5845  -31.5788 H   0  0  0  0  0  0  0  0  0  0  0  0
   -2.8488   14.7092  -33.3787 H   0  0  0  0  0  0  0  0  0  0  0  0
   -4.9511   16.0593  -31.6149 H   0  0  0  0  0  0  0  0  0  0  0  0
   -3.5258   16.8469  -32.4330 H   0  0  0  0  0  0  0  0  0  0  0  0
   -4.3935   20.2183  -34.0255 H   0  0  0  0  0  0  0  0  0  0  0  0
   -5.5459   21.3256  -31.6274 H   0  0  0  0  0  0  0  0  0  0  0  0
   -7.6010   20.7229  -33.5337 H   0  0  0  0  0  0  0  0  0  0  0  0
   -6.1154   20.5478  -32.5224 H   0  0  0  0  0  0  0  0  0  0  0  0
   -7.5771   18.5197  -34.1013 H   0  0  0  0  0  0  0  0  0  0  0  0
   -5.9009   18.4888  -33.4234 H   0  0  0  0  0  0  0  0  0  0  0  0
   -9.3234   17.5906  -32.8321 H   0  0  0  0  0  0  0  0  0  0  0  0
   -9.0191   17.3444  -31.0568 H   0  0  0  0  0  0  0  0  0  0  0  0
   -9.7452   19.7942  -32.5016 H   0  0  0  0  0  0  0  0  0  0  0  0
   -9.7326   19.4532  -30.7351 H   0  0  0  0  0  0  0  0  0  0  0  0
   -8.0076   24.6086  -30.2639 H   0  0  0  0  0  0  0  0  0  0  0  0
   -5.9758   26.0181  -29.9791 H   0  0  0  0  0  0  0  0  0  0  0  0
  1  2  2  0
  2  3  1  0
  3  4  1  0
  4  5  2  0
  5  6  1  0
  6  7  2  0
  7  8  1  0
  8  9  1  0
  9 10  2  0
  9 11  2  0
  9 12  1  0
 12 13  1  0
 13 14  1  0
 14 15  1  0
 15 16  1  0
 16 17  1  0
  8 18  2  0
  2 19  1  0
 19 20  2  0
 20 21  1  0
 21 22  1  0
 22 23  2  0
 22 24  2  0
 22 25  1  0
 25 26  1  0
 26 27  1  0
 27 28  1  0
 28 29  1  0
 29 30  1  0
 21 31  2  0
 31 32  1  0
 32 33  2  0
 33 34  1  0
 18  4  1  0
 33 19  1  0
 17 12  1  0
 30 25  1  0
  5 35  1  0
  6 36  1  0
  7 37  1  0
 13 38  1  0
 13 39  1  0
 14 40  1  0
 14 41  1  0
 15 42  1  0
 15 43  1  0
 16 44  1  0
 16 45  1  0
 17 46  1  0
 17 47  1  0
 18 48  1  0
 20 49  1  0
 26 50  1  0
 26 51  1  0
 27 52  1  0
 27 53  1  0
 29 54  1  0
 29 55  1  0
 30 56  1  0
 30 57  1  0
 31 58  1  0
 32 59  1  0
M  CHG  2   3  -1  34  -1
M  END
>  <UniqueID>  (24) 
23

>  <SMILES>  (24) 
O=C([N-]c1cccc(S(=O)(=O)N2CCCCC2)c1)c1cc(S(=O)(=O)N2CCOCC2)ccc1[O-]

>  <Energy>  (24) 
79.04961652982843

>  <Genealogy>  (24) 
O=C([N-]c1cccc(S(=O)(=O)N2CCCCC2)c1)c1cc(S(=O)(=O)N2CCOCC2)ccc1[O-] (protonated)
O=C([N-]c1cccc(S(=O)(=O)N2CCCCC2)c1)c1cc(S(=O)(=O)N2CCOCC2)ccc1[O-] (3D coordinates assigned)
O=C([N-]c1cccc(S(=O)(=O)N2CCCCC2)c1)c1cc(S(=O)(=O)N2CCOCC2)ccc1[O-] (nonaromatic ring conformer: 79.04961652982843 kcal/mol)

>  <smiles>  (24) 
O=C(Nc1cccc(S(=O)(=O)N2CCCCC2)c1)c1cc(S(=O)(=O)N2CCOCC2)ccc1O

>  <score_type>  (24) 
oracle

>  <origin>  (24) 
adgpu

>  <m_score__min__energy>  (24) 
-15.390000000000001

>  <m_primary>  (24) 
energy

$$$$
24:0
     RDKit          3D

 48 50  0  0  0  0  0  0  0  0999 V2000
   -7.6210   22.5400  -29.3560 C   0  0  0  0  0  0  0  0  0  0  0  0
   -6.9000   23.3030  -30.3840 N   0  0  0  0  0  0  0  0  0  0  0  0
   -6.9340   24.7410  -30.0800 C   0  0  0  0  0  0  0  0  0  0  0  0
   -7.6070   23.0040  -31.9530 S   0  0  0  0  0  0  0  0  0  0  0  0
   -8.9620   23.6510  -32.0360 O   0  0  0  0  0  0  0  0  0  0  0  0
   -6.7290   23.5850  -33.0280 O   0  0  0  0  0  0  0  0  0  0  0  0
   -7.7880   21.2680  -32.1960 C   0  0  0  0  0  0  0  0  0  0  0  0
   -8.6360   20.5360  -31.3580 C   0  0  0  0  0  0  0  0  0  0  0  0
   -8.7420   19.1500  -31.5060 C   0  0  0  0  0  0  0  0  0  0  0  0
   -7.9820   18.4870  -32.4700 C   0  0  0  0  0  0  0  0  0  0  0  0
   -7.1070   19.2040  -33.2990 C   0  0  0  0  0  0  0  0  0  0  0  0
   -6.3120   18.4960  -34.2650 N   0  0  0  0  0  0  0  0  0  0  0  0
   -4.8830   18.3980  -34.1900 C   0  0  0  0  0  0  0  0  0  0  0  0
   -3.8730   19.1140  -33.5540 C   0  0  0  0  0  0  0  0  0  0  0  0
   -3.7900   20.2720  -32.6340 C   0  0  0  0  0  0  0  0  0  0  0  0
   -3.4140   20.1050  -31.2900 C   0  0  0  0  0  0  0  0  0  0  0  0
   -3.3520   21.2060  -30.4300 C   0  0  0  0  0  0  0  0  0  0  0  0
   -3.6720   22.4880  -30.8970 C   0  0  0  0  0  0  0  0  0  0  0  0
   -3.5900   23.8810  -29.8220 S   0  0  0  0  0  0  0  0  0  0  0  0
   -1.9770   23.9790  -29.0790 C   0  0  0  0  0  0  0  0  0  0  0  0
   -4.6340   23.7510  -28.7530 O   0  0  0  0  0  0  0  0  0  0  0  0
   -3.8300   25.1480  -30.5930 O   0  0  0  0  0  0  0  0  0  0  0  0
   -4.0350   22.6590  -32.2380 C   0  0  0  0  0  0  0  0  0  0  0  0
   -4.0970   21.5610  -33.1000 C   0  0  0  0  0  0  0  0  0  0  0  0
   -2.9290   18.2840  -34.1390 C   0  0  0  0  0  0  0  0  0  0  0  0
   -1.6720   18.2040  -34.1170 O   0  0  0  0  0  0  0  0  0  0  0  0
   -3.9290   17.5760  -34.7660 C   0  0  0  0  0  0  0  0  0  0  0  0
   -3.9540   16.5970  -35.5560 O   0  0  0  0  0  0  0  0  0  0  0  0
   -7.0410   20.6030  -33.1790 C   0  0  0  0  0  0  0  0  0  0  0  0
   -7.3026   22.8770  -28.3585 H   0  0  0  0  0  0  0  0  0  0  0  0
   -8.7029   22.7028  -29.4699 H   0  0  0  0  0  0  0  0  0  0  0  0
   -7.3973   21.4690  -29.4699 H   0  0  0  0  0  0  0  0  0  0  0  0
   -5.9040   22.9840  -30.4070 H   0  0  0  0  0  0  0  0  0  0  0  0
   -6.9374   24.8852  -28.9895 H   0  0  0  0  0  0  0  0  0  0  0  0
   -6.0471   25.2281  -30.5115 H   0  0  0  0  0  0  0  0  0  0  0  0
   -7.8429   25.1856  -30.5115 H   0  0  0  0  0  0  0  0  0  0  0  0
   -9.2201   21.0518  -30.5816 H   0  0  0  0  0  0  0  0  0  0  0  0
   -9.4267   18.5804  -30.8605 H   0  0  0  0  0  0  0  0  0  0  0  0
   -8.0695   17.3961  -32.5804 H   0  0  0  0  0  0  0  0  0  0  0  0
   -6.8050   17.8890  -34.9610 H   0  0  0  0  0  0  0  0  0  0  0  0
   -3.1669   19.1019  -30.9122 H   0  0  0  0  0  0  0  0  0  0  0  0
   -3.0505   21.0650  -29.3816 H   0  0  0  0  0  0  0  0  0  0  0  0
   -2.0769   23.9729  -27.9836 H   0  0  0  0  0  0  0  0  0  0  0  0
   -1.3738   23.1158  -29.3970 H   0  0  0  0  0  0  0  0  0  0  0  0
   -1.4827   24.9088  -29.3970 H   0  0  0  0  0  0  0  0  0  0  0  0
   -4.2730   23.6643  -32.6157 H   0  0  0  0  0  0  0  0  0  0  0  0
   -4.3882   21.7071  -34.1506 H   0  0  0  0  0  0  0  0  0  0  0  0
   -6.3990   21.1801  -33.8608 H   0  0  0  0  0  0  0  0  0  0  0  0
  1  2  1  0
  2  3  1  0
  2  4  1  0
  4  5  2  0
  4  6  2  0
  4  7  1  0
  7  8  2  0
  8  9  1  0
  9 10  2  0
 10 11  1  0
 11 12  1  0
 12 13  1  0
 13 14  2  0
 14 15  1  0
 15 16  2  0
 16 17  1  0
 17 18  2  0
 18 19  1  0
 19 20  1  0
 19 21  2  0
 19 22  2  0
 18 23  1  0
 23 24  2  0
 14 25  1  0
 25 26  2  0
 25 27  1  0
 27 28  2  0
 11 29  2  0
 29  7  1  0
 27 13  1  0
 24 15  1  0
  1 30  1  0
  1 31  1  0
  1 32  1  0
  2 33  1  0
  3 34  1  0
  3 35  1  0
  3 36  1  0
  8 37  1  0
  9 38  1  0
 10 39  1  0
 12 40  1  0
 16 41  1  0
 17 42  1  0
 20 43  1  0
 20 44  1  0
 20 45  1  0
 23 46  1  0
 24 47  1  0
 29 48  1  0
M  CHG  1   2   1
M  END
>  <UniqueID>  (25) 
24

>  <SMILES>  (25) 
C[NH+](C)S(=O)(=O)c1cccc(Nc2c(-c3ccc(S(C)(=O)=O)cc3)c(=O)c2=O)c1

>  <Energy>  (25) 
39.885229955931266

>  <Genealogy>  (25) 
C[NH+](C)S(=O)(=O)c1cccc(Nc2c(-c3ccc(S(C)(=O)=O)cc3)c(=O)c2=O)c1 (protonated)
C[NH+](C)S(=O)(=O)c1cccc(Nc2c(-c3ccc(S(C)(=O)=O)cc3)c(=O)c2=O)c1 (3D coordinates assigned)
C[NH+](C)S(=O)(=O)c1cccc(Nc2c(-c3ccc(S(C)(=O)=O)cc3)c(=O)c2=O)c1 (optimized conformer: 39.885229955931266 kcal/mol)

>  <smiles>  (25) 
CN(C)S(=O)(=O)c1cccc(Nc2c(-c3ccc(S(C)(=O)=O)cc3)c(=O)c2=O)c1

>  <score_type>  (25) 
oracle

>  <origin>  (25) 
adgpu

>  <m_score__min__energy>  (25) 
-9.5500000000000007

>  <m_primary>  (25) 
energy

$$$$
25:0
     RDKit          3D

 42 44  0  0  0  0  0  0  0  0999 V2000
    0.9940   28.3690  -38.1340 C   0  0  0  0  0  0  0  0  0  0  0  0
    0.7610   27.0360  -37.4860 C   0  0  0  0  0  0  0  0  0  0  0  0
    1.8020   26.1070  -37.3560 C   0  0  0  0  0  0  0  0  0  0  0  0
    1.5620   24.8580  -36.7790 C   0  0  0  0  0  0  0  0  0  0  0  0
    0.2620   24.5370  -36.3380 C   0  0  0  0  0  0  0  0  0  0  0  0
   -0.0270   23.3980  -35.7730 N   0  0  0  0  0  0  0  0  0  0  0  0
    1.0810   22.1030  -35.4300 S   0  0  0  0  0  0  0  0  0  0  0  0
    2.2520   22.6470  -34.6590 O   0  0  0  0  0  0  0  0  0  0  0  0
    1.5740   21.5220  -36.7260 O   0  0  0  0  0  0  0  0  0  0  0  0
    0.2670   20.8390  -34.5120 C   0  0  0  0  0  0  0  0  0  0  0  0
    0.7780   19.5350  -34.4930 C   0  0  0  0  0  0  0  0  0  0  0  0
    0.1050   18.5240  -33.8010 C   0  0  0  0  0  0  0  0  0  0  0  0
   -1.0900   18.8070  -33.1380 C   0  0  0  0  0  0  0  0  0  0  0  0
   -1.6150   20.1070  -33.1580 C   0  0  0  0  0  0  0  0  0  0  0  0
   -3.1630   20.4380  -32.3870 S   0  0  0  0  0  0  0  0  0  0  0  0
   -4.0190   19.2040  -32.4610 O   0  0  0  0  0  0  0  0  0  0  0  0
   -3.8620   21.5660  -33.0940 O   0  0  0  0  0  0  0  0  0  0  0  0
   -2.9380   20.8730  -30.7220 N   0  0  0  0  0  0  0  0  0  0  0  0
   -2.6440   22.1960  -30.2470 C   0  0  0  0  0  0  0  0  0  0  0  0
   -3.4520   23.3010  -30.5740 C   0  0  0  0  0  0  0  0  0  0  0  0
   -3.1130   24.5820  -30.1260 C   0  0  0  0  0  0  0  0  0  0  0  0
   -3.9120   25.6680  -30.4670 O   0  0  0  0  0  0  0  0  0  0  0  0
   -1.9710   24.7690  -29.3380 C   0  0  0  0  0  0  0  0  0  0  0  0
   -1.6270   26.0420  -28.8940 O   0  0  0  0  0  0  0  0  0  0  0  0
   -1.1740   23.6740  -28.9950 C   0  0  0  0  0  0  0  0  0  0  0  0
   -1.5070   22.3920  -29.4470 C   0  0  0  0  0  0  0  0  0  0  0  0
   -0.6970   21.3140  -29.1040 O   0  0  0  0  0  0  0  0  0  0  0  0
   -0.9210   21.1250  -33.8280 C   0  0  0  0  0  0  0  0  0  0  0  0
   -0.7340   25.4500  -36.4980 N   0  0  0  0  0  0  0  0  0  0  0  0
   -0.5210   26.6710  -37.0570 C   0  0  0  0  0  0  0  0  0  0  0  0
    1.1281   29.1360  -37.3570 H   0  0  0  0  0  0  0  0  0  0  0  0
    1.8971   28.3195  -38.7601 H   0  0  0  0  0  0  0  0  0  0  0  0
    0.1276   28.6288  -38.7601 H   0  0  0  0  0  0  0  0  0  0  0  0
    2.8118   26.3624  -37.7097 H   0  0  0  0  0  0  0  0  0  0  0  0
    2.3802   24.1310  -36.6696 H   0  0  0  0  0  0  0  0  0  0  0  0
    1.7130   19.3055  -35.0250 H   0  0  0  0  0  0  0  0  0  0  0  0
    0.5176   17.5046  -33.7790 H   0  0  0  0  0  0  0  0  0  0  0  0
   -1.6210   18.0087  -32.5987 H   0  0  0  0  0  0  0  0  0  0  0  0
   -4.3551   23.1565  -31.1852 H   0  0  0  0  0  0  0  0  0  0  0  0
   -0.2822   23.8199  -28.3679 H   0  0  0  0  0  0  0  0  0  0  0  0
   -1.3118   22.1532  -33.8162 H   0  0  0  0  0  0  0  0  0  0  0  0
   -1.3587   27.3745  -37.1726 H   0  0  0  0  0  0  0  0  0  0  0  0
  1  2  1  0
  2  3  1  0
  3  4  2  0
  4  5  1  0
  5  6  2  3
  6  7  1  0
  7  8  2  0
  7  9  2  0
  7 10  1  0
 10 11  2  0
 11 12  1  0
 12 13  2  0
 13 14  1  0
 14 15  1  0
 15 16  2  0
 15 17  2  0
 15 18  1  0
 18 19  1  0
 19 20  2  0
 20 21  1  0
 21 22  1  0
 21 23  2  0
 23 24  1  0
 23 25  1  0
 25 26  2  0
 26 27  1  0
 14 28  2  0
  5 29  1  0
 29 30  1  0
 30  2  2  0
 28 10  1  0
 26 19  1  0
  1 31  1  0
  1 32  1  0
  1 33  1  0
  3 34  1  0
  4 35  1  0
 11 36  1  0
 12 37  1  0
 13 38  1  0
 20 39  1  0
 25 40  1  0
 28 41  1  0
 30 42  1  0
M  CHG  5  18  -1  22  -1  24  -1  27  -1  29  -1
M  END
>  <UniqueID>  (26) 
25

>  <SMILES>  (26) 
Cc1ccc(=NS(=O)(=O)c2cccc(S(=O)(=O)[N-]c3cc([O-])c([O-])cc3[O-])c2)[n-]c1

>  <Energy>  (26) 
52.47206302590409

>  <Genealogy>  (26) 
Cc1ccc(=NS(=O)(=O)c2cccc(S(=O)(=O)[N-]c3cc([O-])c([O-])cc3[O-])c2)[n-]c1 (protonated)
Cc1ccc(=NS(=O)(=O)c2cccc(S(=O)(=O)[N-]c3cc([O-])c([O-])cc3[O-])c2)[n-]c1 (3D coordinates assigned)
Cc1ccc(=NS(=O)(=O)c2cccc(S(=O)(=O)[N-]c3cc([O-])c([O-])cc3[O-])c2)[n-]c1 (optimized conformer: 52.47206302590409 kcal/mol)

>  <smiles>  (26) 
Cc1ccc(=NS(=O)(=O)c2cccc(S(=O)(=O)Nc3cc(O)c(O)cc3O)c2)[nH]c1

>  <score_type>  (26) 
oracle

>  <origin>  (26) 
adgpu

>  <m_score__min__energy>  (26) 
-15.1

>  <m_primary>  (26) 
energy

$$$$
26:0
     RDKit          3D

 46 49  0  0  0  0  0  0  0  0999 V2000
   -1.6960   18.7810  -26.7820 C   0  0  0  0  0  0  0  0  0  0  0  0
   -1.2970   20.0630  -27.5240 C   0  0  0  0  0  0  0  0  0  0  0  0
   -0.6870   19.6890  -28.8890 C   0  0  0  0  0  0  0  0  0  0  0  0
   -2.5400   20.9690  -27.7180 C   0  0  0  0  0  0  0  0  0  0  0  0
   -2.1630   22.3560  -28.1960 C   0  0  0  0  0  0  0  0  0  0  0  0
   -3.0430   23.0810  -29.0130 C   0  0  0  0  0  0  0  0  0  0  0  0
   -2.7350   24.3940  -29.4100 C   0  0  0  0  0  0  0  0  0  0  0  0
   -3.6080   25.1540  -30.2590 N   0  0  0  0  0  0  0  0  0  0  0  0
   -5.3190   24.9270  -30.4070 S   0  0  0  0  0  0  0  0  0  0  0  0
   -5.8970   26.0210  -31.2570 O   0  0  0  0  0  0  0  0  0  0  0  0
   -5.9440   25.0050  -29.0420 O   0  0  0  0  0  0  0  0  0  0  0  0
   -5.6560   23.3420  -31.0920 C   0  0  0  0  0  0  0  0  0  0  0  0
   -4.6600   22.6230  -31.7680 C   0  0  0  0  0  0  0  0  0  0  0  0
   -4.9400   21.3610  -32.2980 C   0  0  0  0  0  0  0  0  0  0  0  0
   -6.2230   20.8020  -32.1720 C   0  0  0  0  0  0  0  0  0  0  0  0
   -6.5010   19.4690  -32.7540 C   0  0  0  0  0  0  0  0  0  0  0  0
   -7.2820   18.4640  -32.2060 C   0  0  0  0  0  0  0  0  0  0  0  0
   -7.2510   17.4270  -33.1120 C   0  0  0  0  0  0  0  0  0  0  0  0
   -6.4560   17.8520  -34.1540 C   0  0  0  0  0  0  0  0  0  0  0  0
   -6.0260   19.0700  -33.9140 O   0  0  0  0  0  0  0  0  0  0  0  0
   -7.2180   21.5290  -31.4920 C   0  0  0  0  0  0  0  0  0  0  0  0
   -6.9330   22.7870  -30.9550 C   0  0  0  0  0  0  0  0  0  0  0  0
   -1.5480   24.9850  -28.9570 C   0  0  0  0  0  0  0  0  0  0  0  0
   -1.2300   26.2850  -29.3320 O   0  0  0  0  0  0  0  0  0  0  0  0
   -0.6710   24.2730  -28.1330 C   0  0  0  0  0  0  0  0  0  0  0  0
   -0.9700   22.9570  -27.7510 C   0  0  0  0  0  0  0  0  0  0  0  0
   -0.0500   22.1700  -26.9090 C   0  0  0  0  0  0  0  0  0  0  0  0
    0.9340   22.7110  -26.3400 O   0  0  0  0  0  0  0  0  0  0  0  0
   -0.2910   20.7720  -26.7280 N   0  0  0  0  0  0  0  0  0  0  0  0
   -1.6423   18.9535  -25.6969 H   0  0  0  0  0  0  0  0  0  0  0  0
   -2.7235   18.5020  -27.0585 H   0  0  0  0  0  0  0  0  0  0  0  0
   -1.0083   17.9682  -27.0585 H   0  0  0  0  0  0  0  0  0  0  0  0
    0.2412   19.1199  -28.7323 H   0  0  0  0  0  0  0  0  0  0  0  0
   -1.4029   19.0744  -29.4545 H   0  0  0  0  0  0  0  0  0  0  0  0
   -0.4640   20.6058  -29.4545 H   0  0  0  0  0  0  0  0  0  0  0  0
   -3.2045   20.5055  -28.4620 H   0  0  0  0  0  0  0  0  0  0  0  0
   -3.0416   21.0702  -26.7443 H   0  0  0  0  0  0  0  0  0  0  0  0
   -3.9833   22.6177  -29.3463 H   0  0  0  0  0  0  0  0  0  0  0  0
   -3.6544   23.0542  -31.8815 H   0  0  0  0  0  0  0  0  0  0  0  0
   -4.1495   20.8003  -32.8183 H   0  0  0  0  0  0  0  0  0  0  0  0
   -7.8167   18.4892  -31.2451 H   0  0  0  0  0  0  0  0  0  0  0  0
   -7.7586   16.4553  -33.0218 H   0  0  0  0  0  0  0  0  0  0  0  0
   -6.2175   17.2612  -35.0507 H   0  0  0  0  0  0  0  0  0  0  0  0
   -8.2267   21.1040  -31.3826 H   0  0  0  0  0  0  0  0  0  0  0  0
   -7.7171   23.3443  -30.4215 H   0  0  0  0  0  0  0  0  0  0  0  0
    0.2577   24.7472  -27.7827 H   0  0  0  0  0  0  0  0  0  0  0  0
  1  2  1  0
  2  3  1  0
  2  4  1  0
  4  5  1  0
  5  6  2  0
  6  7  1  0
  7  8  1  0
  8  9  1  0
  9 10  2  0
  9 11  2  0
  9 12  1  0
 12 13  2  0
 13 14  1  0
 14 15  2  0
 15 16  1  0
 16 17  2  0
 17 18  1  0
 18 19  2  0
 19 20  1  0
 15 21  1  0
 21 22  2  0
  7 23  2  0
 23 24  1  0
 23 25  1  0
 25 26  2  0
 26 27  1  0
 27 28  2  0
 27 29  1  0
 29  2  1  0
 26  5  1  0
 22 12  1  0
 20 16  1  0
  1 30  1  0
  1 31  1  0
  1 32  1  0
  3 33  1  0
  3 34  1  0
  3 35  1  0
  4 36  1  0
  4 37  1  0
  6 38  1  0
 13 39  1  0
 14 40  1  0
 17 41  1  0
 18 42  1  0
 19 43  1  0
 21 44  1  0
 22 45  1  0
 25 46  1  0
M  CHG  3   8  -1  24  -1  29  -1
M  END
>  <UniqueID>  (27) 
26

>  <SMILES>  (27) 
CC1(C)Cc2cc([N-]S(=O)(=O)c3ccc(-c4ccco4)cc3)c([O-])cc2C(=O)[N-]1

>  <Energy>  (27) 
78.81971739047488

>  <Genealogy>  (27) 
CC1(C)Cc2cc([N-]S(=O)(=O)c3ccc(-c4ccco4)cc3)c([O-])cc2C(=O)[N-]1 (protonated)
CC1(C)Cc2cc([N-]S(=O)(=O)c3ccc(-c4ccco4)cc3)c([O-])cc2C(=O)[N-]1 (3D coordinates assigned)
CC1(C)Cc2cc([N-]S(=O)(=O)c3ccc(-c4ccco4)cc3)c([O-])cc2C(=O)[N-]1 (nonaromatic ring conformer: 78.81971739047488 kcal/mol)

>  <smiles>  (27) 
CC1(C)Cc2cc(NS(=O)(=O)c3ccc(-c4ccco4)cc3)c(O)cc2C(=O)N1

>  <score_type>  (27) 
oracle

>  <origin>  (27) 
adgpu

>  <m_score__min__energy>  (27) 
-14.73

>  <m_primary>  (27) 
energy

$$$$
27:0
     RDKit          3D

 38 40  0  0  0  0  0  0  0  0999 V2000
   -2.0740   21.0120  -33.8390 N   0  0  0  0  0  0  0  0  0  0  0  0
   -3.0410   20.8030  -32.9990 C   0  0  0  0  0  0  0  0  0  0  0  0
   -2.7930   20.0490  -31.7180 C   0  0  0  0  0  0  0  0  0  0  0  0
   -3.7930   20.3130  -30.7500 O   0  0  0  0  0  0  0  0  0  0  0  0
   -5.0730   20.0380  -31.2880 C   0  0  0  0  0  0  0  0  0  0  0  0
   -5.4580   21.1280  -32.3250 C   0  0  2  0  0  0  0  0  0  0  0  0
   -5.6310   22.4910  -31.6270 C   0  0  0  0  0  0  0  0  0  0  0  0
   -6.9160   23.0100  -31.3650 C   0  0  0  0  0  0  0  0  0  0  0  0
   -7.0690   24.2090  -30.7480 N   0  0  0  0  0  0  0  0  0  0  0  0
   -6.0080   24.9650  -30.3700 C   0  0  0  0  0  0  0  0  0  0  0  0
   -4.7050   24.5190  -30.6230 C   0  0  0  0  0  0  0  0  0  0  0  0
   -3.5540   25.2760  -30.2230 N   0  0  0  0  0  0  0  0  0  0  0  0
   -2.5150   24.8270  -29.3430 C   0  0  0  0  0  0  0  0  0  0  0  0
   -1.6710   25.6650  -28.9280 O   0  0  0  0  0  0  0  0  0  0  0  0
   -2.4410   23.4300  -28.8660 C   0  0  0  0  0  0  0  0  0  0  0  0
   -3.3400   22.8650  -27.9440 C   0  0  0  0  0  0  0  0  0  0  0  0
   -3.0600   21.5440  -27.6290 C   0  0  0  0  0  0  0  0  0  0  0  0
   -1.6890   21.0830  -28.4820 S   0  0  0  0  0  0  0  0  0  0  0  0
   -1.4360   22.5490  -29.2610 C   0  0  0  0  0  0  0  0  0  0  0  0
   -4.5230   23.2750  -31.2340 C   0  0  0  0  0  0  0  0  0  0  0  0
   -6.7620   20.7220  -33.0520 C   0  0  0  0  0  0  0  0  0  0  0  0
   -6.5090   19.9350  -34.1620 F   0  0  0  0  0  0  0  0  0  0  0  0
   -7.6000   20.0310  -32.1930 F   0  0  0  0  0  0  0  0  0  0  0  0
   -4.3830   21.1930  -33.3270 N   0  0  0  0  0  0  0  0  0  0  0  0
   -1.1010   20.6970  -33.6290 H   0  0  0  0  0  0  0  0  0  0  0  0
   -2.2470   21.5030  -34.7450 H   0  0  0  0  0  0  0  0  0  0  0  0
   -2.7839   18.9708  -31.9356 H   0  0  0  0  0  0  0  0  0  0  0  0
   -1.8262   20.3781  -31.3093 H   0  0  0  0  0  0  0  0  0  0  0  0
   -5.0574   19.0550  -31.7814 H   0  0  0  0  0  0  0  0  0  0  0  0
   -5.8138   20.0352  -30.4748 H   0  0  0  0  0  0  0  0  0  0  0  0
   -7.8052   22.4358  -31.6645 H   0  0  0  0  0  0  0  0  0  0  0  0
   -6.1712   25.9284  -29.8648 H   0  0  0  0  0  0  0  0  0  0  0  0
   -4.1866   23.4194  -27.5128 H   0  0  0  0  0  0  0  0  0  0  0  0
   -3.6358   20.9085  -26.9401 H   0  0  0  0  0  0  0  0  0  0  0  0
   -0.6186   22.7748  -29.9617 H   0  0  0  0  0  0  0  0  0  0  0  0
   -3.5037   22.9014  -31.4112 H   0  0  0  0  0  0  0  0  0  0  0  0
   -7.2473   21.6514  -33.3846 H   0  0  0  0  0  0  0  0  0  0  0  0
   -4.5660   21.6600  -34.2450 H   0  0  0  0  0  0  0  0  0  0  0  0
  1  2  2  0
  2  3  1  0
  3  4  1  0
  4  5  1  0
  5  6  1  0
  6  7  1  0
  7  8  2  0
  8  9  1  0
  9 10  2  0
 10 11  1  0
 11 12  1  0
 12 13  1  0
 13 14  2  0
 13 15  1  0
 15 16  1  0
 16 17  2  0
 17 18  1  0
 18 19  1  0
 11 20  2  0
  6 21  1  6
 21 22  1  0
 21 23  1  0
  6 24  1  0
 24  2  1  0
 20  7  1  0
 19 15  2  0
  1 25  1  0
  1 26  1  0
  3 27  1  0
  3 28  1  0
  5 29  1  0
  5 30  1  0
  8 31  1  0
 10 32  1  0
 16 33  1  0
 17 34  1  0
 19 35  1  0
 20 36  1  0
 21 37  1  0
 24 38  1  0
M  CHG  2   1   1  12  -1
M  END
>  <UniqueID>  (28) 
27

>  <SMILES>  (28) 
[NH2+]=C1COC[C@](c2cncc([N-]C(=O)c3ccsc3)c2)(C(F)F)N1

>  <Energy>  (28) 
78.2646790100785

>  <Genealogy>  (28) 
[NH2+]=C1COCC(c2cncc([N-]C(=O)c3ccsc3)c2)(C(F)F)N1 (protonated)
[NH2+]=C1COC[C@](c2cncc([N-]C(=O)c3ccsc3)c2)(C(F)F)N1 (chirality)
[NH2+]=C1COC[C@](c2cncc([N-]C(=O)c3ccsc3)c2)(C(F)F)N1 (3D coordinates assigned)
[NH2+]=C1COC[C@](c2cncc([N-]C(=O)c3ccsc3)c2)(C(F)F)N1 (nonaromatic ring conformer: 78.2646790100785 kcal/mol)

>  <smiles>  (28) 
N=C1COCC(c2cncc(NC(=O)c3ccsc3)c2)(C(F)F)N1

>  <score_type>  (28) 
oracle

>  <origin>  (28) 
adgpu

>  <m_score__min__energy>  (28) 
-8.4900000000000002

>  <m_primary>  (28) 
energy

$$$$
28:0
     RDKit          3D

 56 59  0  0  0  0  0  0  0  0999 V2000
   -2.6452   20.8777  -34.9210 H   0  0  0  0  0  0  0  0  0  0  0  0
   -2.6960   20.7040  -33.8360 C   0  0  0  0  0  0  0  0  0  0  0  0
   -2.6560   21.8930  -32.6450 S   0  0  0  0  0  0  0  0  0  0  0  0
   -2.7810   20.7770  -31.3900 C   0  0  0  0  0  0  0  0  0  0  0  0
   -2.8070   21.0600  -30.1240 N   0  0  0  0  0  0  0  0  0  0  0  0
   -2.7280   22.4120  -29.5830 C   0  0  0  0  0  0  0  0  0  0  0  0
   -2.6922   22.3666  -28.4845 H   0  0  0  0  0  0  0  0  0  0  0  0
   -1.8194   22.9060  -29.9577 H   0  0  0  0  0  0  0  0  0  0  0  0
   -3.9390   23.1920  -30.0140 C   0  0  0  0  0  0  0  0  0  0  0  0
   -5.1300   22.5150  -30.3280 C   0  0  0  0  0  0  0  0  0  0  0  0
   -5.1584   21.4160  -30.2909 H   0  0  0  0  0  0  0  0  0  0  0  0
   -6.2820   23.2280  -30.6880 C   0  0  0  0  0  0  0  0  0  0  0  0
   -7.7770   22.3720  -31.0700 S   0  0  0  0  0  0  0  0  0  0  0  0
   -8.5400   23.1440  -32.1120 O   0  0  0  0  0  0  0  0  0  0  0  0
   -8.6290   22.2920  -29.8350 O   0  0  0  0  0  0  0  0  0  0  0  0
   -7.4610   20.7570  -31.6560 N   0  0  0  0  0  0  0  0  0  0  0  0
   -6.9590   20.8040  -33.0390 C   0  0  0  0  0  0  0  0  0  0  0  0
   -7.7732   21.1145  -33.7103 H   0  0  0  0  0  0  0  0  0  0  0  0
   -6.1297   21.5245  -33.0945 H   0  0  0  0  0  0  0  0  0  0  0  0
   -6.4470   19.4160  -33.4690 C   0  0  0  0  0  0  0  0  0  0  0  0
   -6.6803   19.2682  -34.5338 H   0  0  0  0  0  0  0  0  0  0  0  0
   -5.3629   19.3878  -33.2849 H   0  0  0  0  0  0  0  0  0  0  0  0
   -7.0880   18.2760  -32.6610 C   0  0  0  0  0  0  0  0  0  0  0  0
   -7.0483   17.3496  -33.2527 H   0  0  0  0  0  0  0  0  0  0  0  0
   -6.5303   18.1575  -31.7203 H   0  0  0  0  0  0  0  0  0  0  0  0
   -8.5480   18.5930  -32.3250 C   0  0  0  0  0  0  0  0  0  0  0  0
   -9.1237   18.6532  -33.2604 H   0  0  0  0  0  0  0  0  0  0  0  0
   -8.9314   17.7919  -31.6759 H   0  0  0  0  0  0  0  0  0  0  0  0
   -8.6840   19.9320  -31.5670 C   0  0  0  0  0  0  0  0  0  0  0  0
   -9.5237   20.4976  -31.9971 H   0  0  0  0  0  0  0  0  0  0  0  0
   -8.8555   19.7003  -30.5054 H   0  0  0  0  0  0  0  0  0  0  0  0
   -6.2430   24.6270  -30.7300 C   0  0  0  0  0  0  0  0  0  0  0  0
   -7.1413   25.1917  -31.0201 H   0  0  0  0  0  0  0  0  0  0  0  0
   -5.0680   25.3080  -30.4050 C   0  0  0  0  0  0  0  0  0  0  0  0
   -5.0458   26.4073  -30.4364 H   0  0  0  0  0  0  0  0  0  0  0  0
   -3.9200   24.5990  -30.0400 C   0  0  0  0  0  0  0  0  0  0  0  0
   -2.7670   25.2990  -29.7020 O   0  0  0  0  0  0  0  0  0  0  0  0
   -2.8560   19.5130  -31.8490 N   0  0  0  0  0  0  0  0  0  0  0  0
   -2.8050   19.4560  -33.2100 C   0  0  0  0  0  0  0  0  0  0  0  0
   -2.8770   18.1580  -33.9330 C   0  0  0  0  0  0  0  0  0  0  0  0
   -4.0740   17.4260  -34.0110 C   0  0  0  0  0  0  0  0  0  0  0  0
   -4.9805   17.8107  -33.5209 H   0  0  0  0  0  0  0  0  0  0  0  0
   -4.1240   16.2160  -34.7040 C   0  0  0  0  0  0  0  0  0  0  0  0
   -5.0686   15.6541  -34.7498 H   0  0  0  0  0  0  0  0  0  0  0  0
   -2.9830   15.7080  -35.3430 C   0  0  0  0  0  0  0  0  0  0  0  0
   -3.0720   14.3950  -36.0770 C   0  0  0  0  0  0  0  0  0  0  0  0
   -3.1278   13.5715  -35.3499 H   0  0  0  0  0  0  0  0  0  0  0  0
   -3.9727   14.3883  -36.7085 H   0  0  0  0  0  0  0  0  0  0  0  0
   -2.1805   14.2668  -36.7085 H   0  0  0  0  0  0  0  0  0  0  0  0
   -1.7680   16.4260  -35.2650 C   0  0  0  0  0  0  0  0  0  0  0  0
   -0.5170   15.9220  -35.9350 C   0  0  0  0  0  0  0  0  0  0  0  0
    0.2156   15.6269  -35.1693 H   0  0  0  0  0  0  0  0  0  0  0  0
   -0.7620   15.0524  -36.5625 H   0  0  0  0  0  0  0  0  0  0  0  0
   -0.0908   16.7186  -36.5625 H   0  0  0  0  0  0  0  0  0  0  0  0
   -1.7310   17.6490  -34.5720 C   0  0  0  0  0  0  0  0  0  0  0  0
   -0.7903   18.2176  -34.5286 H   0  0  0  0  0  0  0  0  0  0  0  0
  1  2  1  0
  2  3  1  0
  3  4  1  0
  4  5  2  0
  5  6  1  0
  6  7  1  0
  6  8  1  0
  6  9  1  0
  9 10  2  0
 10 11  1  0
 10 12  1  0
 12 13  1  0
 13 14  2  0
 13 15  2  0
 13 16  1  0
 16 17  1  0
 17 18  1  0
 17 19  1  0
 17 20  1  0
 20 21  1  0
 20 22  1  0
 20 23  1  0
 23 24  1  0
 23 25  1  0
 23 26  1  0
 26 27  1  0
 26 28  1  0
 26 29  1  0
 29 30  1  0
 29 31  1  0
 12 32  2  0
 32 33  1  0
 32 34  1  0
 34 35  1  0
 34 36  2  0
 36 37  1  0
  4 38  1  0
 38 39  1  0
 39 40  1  0
 40 41  2  0
 41 42  1  0
 41 43  1  0
 43 44  1  0
 43 45  2  0
 45 46  1  0
 46 47  1  0
 46 48  1  0
 46 49  1  0
 45 50  1  0
 50 51  1  0
 51 52  1  0
 51 53  1  0
 51 54  1  0
 50 55  2  0
 55 56  1  0
 39  2  2  0
 55 40  1  0
 36  9  1  0
 29 16  1  0
M  CHG  2  37  -1  38  -1
M  END
>  <UniqueID>  (29) 
28

>  <SMILES>  (29) 
Cc1ccc(-c2cs/c(=N\Cc3cc(S(=O)(=O)N4CCCCC4)ccc3[O-])[n-]2)cc1C

>  <Energy>  (29) 
93.33369724078422

>  <Genealogy>  (29) 
Cc1ccc(-c2csc(=NCc3cc(S(=O)(=O)N4CCCCC4)ccc3[O-])[n-]2)cc1C (protonated)
Cc1ccc(-c2cs/c(=N\Cc3cc(S(=O)(=O)N4CCCCC4)ccc3[O-])[n-]2)cc1C (cis-trans isomerization)
Cc1ccc(-c2cs/c(=N\Cc3cc(S(=O)(=O)N4CCCCC4)ccc3[O-])[n-]2)cc1C (3D coordinates assigned)
Cc1ccc(-c2cs/c(=N\Cc3cc(S(=O)(=O)N4CCCCC4)ccc3[O-])[n-]2)cc1C (nonaromatic ring conformer: 93.33369724078422 kcal/mol)

>  <smiles>  (29) 
Cc1ccc(-c2csc(=NCc3cc(S(=O)(=O)N4CCCCC4)ccc3O)[nH]2)cc1C

>  <score_type>  (29) 
oracle

>  <origin>  (29) 
adgpu

>  <m_score__min__energy>  (29) 
-13.470000000000001

>  <m_primary>  (29) 
energy

$$$$
29:0
     RDKit          3D

 50 52  0  0  0  0  0  0  0  0999 V2000
   -0.7810   24.5500  -25.3480 C   0  0  0  0  0  0  0  0  0  0  0  0
   -1.5000   25.5200  -26.1820 N   0  0  0  0  0  0  0  0  0  0  0  0
   -2.9470   25.2970  -26.0840 C   0  0  0  0  0  0  0  0  0  0  0  0
   -0.9870   25.3650  -27.8450 S   0  0  0  0  0  0  0  0  0  0  0  0
    0.4870   25.0760  -27.8910 O   0  0  0  0  0  0  0  0  0  0  0  0
   -1.2270   26.6640  -28.5650 O   0  0  0  0  0  0  0  0  0  0  0  0
   -1.8570   24.0730  -28.6730 C   0  0  0  0  0  0  0  0  0  0  0  0
   -1.4730   22.7390  -28.4970 C   0  0  0  0  0  0  0  0  0  0  0  0
   -2.1470   21.7170  -29.1700 C   0  0  0  0  0  0  0  0  0  0  0  0
   -3.2060   22.0160  -30.0390 C   0  0  0  0  0  0  0  0  0  0  0  0
   -3.9270   20.9420  -30.6550 N   0  0  0  0  0  0  0  0  0  0  0  0
   -3.5700   23.3650  -30.2490 C   0  0  0  0  0  0  0  0  0  0  0  0
   -4.5770   23.7410  -31.1990 N   0  0  0  0  0  0  0  0  0  0  0  0
   -5.0980   22.8820  -32.2240 C   0  0  0  0  0  0  0  0  0  0  0  0
   -4.3440   22.5520  -33.1780 O   0  0  0  0  0  0  0  0  0  0  0  0
   -6.4800   22.3430  -32.1640 C   0  0  0  0  0  0  0  0  0  0  0  0
   -7.4760   23.0770  -31.4950 C   0  0  0  0  0  0  0  0  0  0  0  0
   -8.7800   22.5890  -31.4080 C   0  0  0  0  0  0  0  0  0  0  0  0
   -9.1070   21.3610  -31.9800 C   0  0  0  0  0  0  0  0  0  0  0  0
   -8.1280   20.6120  -32.6340 C   0  0  0  0  0  0  0  0  0  0  0  0
   -6.8050   21.0820  -32.7200 C   0  0  0  0  0  0  0  0  0  0  0  0
   -5.8220   20.3230  -33.4490 N   0  0  0  0  0  0  0  0  0  0  0  0
   -5.7450   18.8870  -33.4380 C   0  0  0  0  0  0  0  0  0  0  0  0
   -5.8130   18.2020  -32.2140 C   0  0  0  0  0  0  0  0  0  0  0  0
   -5.7620   16.8040  -32.1820 C   0  0  0  0  0  0  0  0  0  0  0  0
   -5.6560   16.0800  -33.3720 C   0  0  0  0  0  0  0  0  0  0  0  0
   -5.6070   16.7510  -34.5960 C   0  0  0  0  0  0  0  0  0  0  0  0
   -5.6580   18.1480  -34.6330 C   0  0  0  0  0  0  0  0  0  0  0  0
   -2.9140   24.3780  -29.5400 C   0  0  0  0  0  0  0  0  0  0  0  0
   -0.9523   24.7811  -24.2863 H   0  0  0  0  0  0  0  0  0  0  0  0
   -1.1474   23.5360  -25.5663 H   0  0  0  0  0  0  0  0  0  0  0  0
    0.2957   24.6057  -25.5663 H   0  0  0  0  0  0  0  0  0  0  0  0
   -3.2401   25.2518  -25.0247 H   0  0  0  0  0  0  0  0  0  0  0  0
   -3.4796   26.1237  -26.5769 H   0  0  0  0  0  0  0  0  0  0  0  0
   -3.2060   24.3483  -26.5769 H   0  0  0  0  0  0  0  0  0  0  0  0
   -0.6367   22.4939  -27.8257 H   0  0  0  0  0  0  0  0  0  0  0  0
   -1.8448   20.6704  -29.0171 H   0  0  0  0  0  0  0  0  0  0  0  0
   -4.2520   21.0010  -31.6440 H   0  0  0  0  0  0  0  0  0  0  0  0
   -4.2270   20.1130  -30.0960 H   0  0  0  0  0  0  0  0  0  0  0  0
   -7.2244   24.0446  -31.0362 H   0  0  0  0  0  0  0  0  0  0  0  0
   -9.5516   23.1747  -30.8869 H   0  0  0  0  0  0  0  0  0  0  0  0
  -10.1376   20.9819  -31.9159 H   0  0  0  0  0  0  0  0  0  0  0  0
   -8.3933   19.6451  -33.0865 H   0  0  0  0  0  0  0  0  0  0  0  0
   -5.1420   20.8450  -34.0440 H   0  0  0  0  0  0  0  0  0  0  0  0
   -5.9069   18.7675  -31.2752 H   0  0  0  0  0  0  0  0  0  0  0  0
   -5.8054   16.2745  -31.2188 H   0  0  0  0  0  0  0  0  0  0  0  0
   -5.6111   14.9812  -33.3451 H   0  0  0  0  0  0  0  0  0  0  0  0
   -5.5281   16.1795  -35.5326 H   0  0  0  0  0  0  0  0  0  0  0  0
   -5.6300   18.6716  -35.6000 H   0  0  0  0  0  0  0  0  0  0  0  0
   -3.2316   25.4237  -29.6649 H   0  0  0  0  0  0  0  0  0  0  0  0
  1  2  1  0
  2  3  1  0
  2  4  1  0
  4  5  2  0
  4  6  2  0
  4  7  1  0
  7  8  2  0
  8  9  1  0
  9 10  2  0
 10 11  1  0
 10 12  1  0
 12 13  1  0
 13 14  1  0
 14 15  2  0
 14 16  1  0
 16 17  2  0
 17 18  1  0
 18 19  2  0
 19 20  1  0
 20 21  2  0
 21 22  1  0
 22 23  1  0
 23 24  2  0
 24 25  1  0
 25 26  2  0
 26 27  1  0
 27 28  2  0
 12 29  2  0
 29  7  1  0
 21 16  1  0
 28 23  1  0
  1 30  1  0
  1 31  1  0
  1 32  1  0
  3 33  1  0
  3 34  1  0
  3 35  1  0
  8 36  1  0
  9 37  1  0
 11 38  1  0
 11 39  1  0
 17 40  1  0
 18 41  1  0
 19 42  1  0
 20 43  1  0
 22 44  1  0
 24 45  1  0
 25 46  1  0
 26 47  1  0
 27 48  1  0
 28 49  1  0
 29 50  1  0
M  CHG  1  13  -1
M  END
>  <UniqueID>  (30) 
29

>  <SMILES>  (30) 
CN(C)S(=O)(=O)c1ccc(N)c([N-]C(=O)c2ccccc2Nc2ccccc2)c1

>  <Energy>  (30) 
65.48616852999

>  <Genealogy>  (30) 
CN(C)S(=O)(=O)c1ccc(N)c([N-]C(=O)c2ccccc2Nc2ccccc2)c1 (protonated)
CN(C)S(=O)(=O)c1ccc(N)c([N-]C(=O)c2ccccc2Nc2ccccc2)c1 (3D coordinates assigned)
CN(C)S(=O)(=O)c1ccc(N)c([N-]C(=O)c2ccccc2Nc2ccccc2)c1 (optimized conformer: 65.48616852999 kcal/mol)

>  <smiles>  (30) 
CN(C)S(=O)(=O)c1ccc(N)c(NC(=O)c2ccccc2Nc2ccccc2)c1

>  <score_type>  (30) 
oracle

>  <origin>  (30) 
adgpu

>  <m_score__min__energy>  (30) 
-10.460000000000001

>  <m_primary>  (30) 
energy

$$$$
30:0
     RDKit          3D

 50 52  0  0  0  0  0  0  0  0999 V2000
   -8.4090   19.1490  -31.8690 C   0  0  0  0  0  0  0  0  0  0  0  0
   -8.8770   20.5710  -31.9340 C   0  0  0  0  0  0  0  0  0  0  0  0
  -10.0330   20.8020  -32.3850 O   0  0  0  0  0  0  0  0  0  0  0  0
   -8.0240   21.6990  -31.4790 C   0  0  0  0  0  0  0  0  0  0  0  0
   -8.0060   22.1070  -30.1300 C   0  0  0  0  0  0  0  0  0  0  0  0
   -7.1910   23.1650  -29.7190 C   0  0  0  0  0  0  0  0  0  0  0  0
   -6.3630   23.8180  -30.6380 C   0  0  0  0  0  0  0  0  0  0  0  0
   -5.3230   25.1330  -30.0970 S   0  0  0  0  0  0  0  0  0  0  0  0
   -5.7180   26.4240  -30.7560 O   0  0  0  0  0  0  0  0  0  0  0  0
   -5.4700   25.2870  -28.6100 O   0  0  0  0  0  0  0  0  0  0  0  0
   -3.6660   24.7980  -30.4720 N   0  0  0  0  0  0  0  0  0  0  0  0
   -3.0880   23.5160  -30.2270 C   0  0  0  0  0  0  0  0  0  0  0  0
   -2.8650   22.6360  -31.2940 C   0  0  0  0  0  0  0  0  0  0  0  0
   -2.3130   21.3680  -31.0670 C   0  0  0  0  0  0  0  0  0  0  0  0
   -2.0310   20.2670  -32.4170 S   0  0  0  0  0  0  0  0  0  0  0  0
   -1.5200   21.0520  -33.5940 O   0  0  0  0  0  0  0  0  0  0  0  0
   -0.9750   19.2680  -32.0330 O   0  0  0  0  0  0  0  0  0  0  0  0
   -3.4900   19.4250  -32.8770 N   0  0  0  0  0  0  0  0  0  0  0  0
   -4.5850   20.3910  -33.1010 C   0  0  0  0  0  0  0  0  0  0  0  0
   -5.8150   19.7400  -33.7730 C   0  0  0  0  0  0  0  0  0  0  0  0
   -5.7530   18.2110  -33.7150 C   0  0  0  0  0  0  0  0  0  0  0  0
   -4.4540   17.6860  -34.3470 C   0  0  0  0  0  0  0  0  0  0  0  0
   -3.2530   18.6120  -34.0800 C   0  0  0  0  0  0  0  0  0  0  0  0
   -1.9910   20.9800  -29.7600 C   0  0  0  0  0  0  0  0  0  0  0  0
   -2.2270   21.8470  -28.6910 C   0  0  0  0  0  0  0  0  0  0  0  0
   -2.7780   23.1130  -28.9150 C   0  0  0  0  0  0  0  0  0  0  0  0
   -3.0030   23.9540  -27.8250 O   0  0  0  0  0  0  0  0  0  0  0  0
   -6.3770   23.4240  -31.9800 C   0  0  0  0  0  0  0  0  0  0  0  0
   -7.2060   22.3810  -32.4000 C   0  0  0  0  0  0  0  0  0  0  0  0
   -8.3085   18.8438  -30.8170 H   0  0  0  0  0  0  0  0  0  0  0  0
   -9.1406   18.4989  -32.3712 H   0  0  0  0  0  0  0  0  0  0  0  0
   -7.4343   19.0604  -32.3712 H   0  0  0  0  0  0  0  0  0  0  0  0
   -8.6387   21.5883  -29.3947 H   0  0  0  0  0  0  0  0  0  0  0  0
   -7.2006   23.4861  -28.6670 H   0  0  0  0  0  0  0  0  0  0  0  0
   -3.1252   22.9426  -32.3179 H   0  0  0  0  0  0  0  0  0  0  0  0
   -4.8920   20.8086  -32.1308 H   0  0  0  0  0  0  0  0  0  0  0  0
   -4.2091   21.1744  -33.7755 H   0  0  0  0  0  0  0  0  0  0  0  0
   -6.7244   20.0792  -33.2555 H   0  0  0  0  0  0  0  0  0  0  0  0
   -5.8258   20.0415  -34.8308 H   0  0  0  0  0  0  0  0  0  0  0  0
   -5.7969   17.8892  -32.6640 H   0  0  0  0  0  0  0  0  0  0  0  0
   -6.6054   17.8049  -34.2794 H   0  0  0  0  0  0  0  0  0  0  0  0
   -4.2340   16.6930  -33.9281 H   0  0  0  0  0  0  0  0  0  0  0  0
   -4.6060   17.6407  -35.4355 H   0  0  0  0  0  0  0  0  0  0  0  0
   -2.3501   18.0012  -33.9326 H   0  0  0  0  0  0  0  0  0  0  0  0
   -3.1198   19.2814  -34.9426 H   0  0  0  0  0  0  0  0  0  0  0  0
   -1.5508   19.9890  -29.5751 H   0  0  0  0  0  0  0  0  0  0  0  0
   -1.9781   21.5325  -27.6667 H   0  0  0  0  0  0  0  0  0  0  0  0
   -3.5190   24.8220  -27.9090 H   0  0  0  0  0  0  0  0  0  0  0  0
   -5.7322   23.9379  -32.7081 H   0  0  0  0  0  0  0  0  0  0  0  0
   -7.2199   22.0897  -33.4606 H   0  0  0  0  0  0  0  0  0  0  0  0
  1  2  1  0
  2  3  2  0
  2  4  1  0
  4  5  2  0
  5  6  1  0
  6  7  2  0
  7  8  1  0
  8  9  2  0
  8 10  2  0
  8 11  1  0
 11 12  1  0
 12 13  2  0
 13 14  1  0
 14 15  1  0
 15 16  2  0
 15 17  2  0
 15 18  1  0
 18 19  1  0
 19 20  1  0
 20 21  1  0
 21 22  1  0
 22 23  1  0
 14 24  2  0
 24 25  1  0
 25 26  2  0
 26 27  1  0
  7 28  1  0
 28 29  2  0
 29  4  1  0
 26 12  1  0
 23 18  1  0
  1 30  1  0
  1 31  1  0
  1 32  1  0
  5 33  1  0
  6 34  1  0
 13 35  1  0
 19 36  1  0
 19 37  1  0
 20 38  1  0
 20 39  1  0
 21 40  1  0
 21 41  1  0
 22 42  1  0
 22 43  1  0
 23 44  1  0
 23 45  1  0
 24 46  1  0
 25 47  1  0
 27 48  1  0
 28 49  1  0
 29 50  1  0
M  CHG  1  11  -1
M  END
>  <UniqueID>  (31) 
30

>  <SMILES>  (31) 
CC(=O)c1ccc(S(=O)(=O)[N-]c2cc(S(=O)(=O)N3CCCCC3)ccc2O)cc1

>  <Energy>  (31) 
58.93174175270231

>  <Genealogy>  (31) 
CC(=O)c1ccc(S(=O)(=O)[N-]c2cc(S(=O)(=O)N3CCCCC3)ccc2O)cc1 (protonated)
CC(=O)c1ccc(S(=O)(=O)[N-]c2cc(S(=O)(=O)N3CCCCC3)ccc2O)cc1 (3D coordinates assigned)
CC(=O)c1ccc(S(=O)(=O)[N-]c2cc(S(=O)(=O)N3CCCCC3)ccc2O)cc1 (nonaromatic ring conformer: 58.93174175270231 kcal/mol)

>  <smiles>  (31) 
CC(=O)c1ccc(S(=O)(=O)Nc2cc(S(=O)(=O)N3CCCCC3)ccc2O)cc1

>  <score_type>  (31) 
oracle

>  <origin>  (31) 
adgpu

>  <m_score__min__energy>  (31) 
-11.94

>  <m_primary>  (31) 
energy

$$$$
31:0
     RDKit          3D

 48 50  0  0  0  0  0  0  0  0999 V2000
   -7.1420   23.5170  -30.3320 N   0  0  0  0  0  0  0  0  0  0  0  0
   -7.6800   23.1320  -31.9270 S   0  0  0  0  0  0  0  0  0  0  0  0
   -6.7780   23.7960  -32.9280 O   0  0  0  0  0  0  0  0  0  0  0  0
   -9.0790   23.6450  -32.1230 O   0  0  0  0  0  0  0  0  0  0  0  0
   -7.6650   21.3860  -32.1580 C   0  0  0  0  0  0  0  0  0  0  0  0
   -8.5590   20.5640  -31.4610 C   0  0  0  0  0  0  0  0  0  0  0  0
   -8.5380   19.1820  -31.6550 C   0  0  0  0  0  0  0  0  0  0  0  0
   -7.6200   18.6120  -32.5400 C   0  0  0  0  0  0  0  0  0  0  0  0
   -6.7160   19.4180  -33.2420 C   0  0  0  0  0  0  0  0  0  0  0  0
   -5.8060   18.7750  -34.1470 N   0  0  0  0  0  0  0  0  0  0  0  0
   -4.5660   18.1050  -33.8630 C   0  0  0  0  0  0  0  0  0  0  0  0
   -4.5330   16.8640  -33.6560 O   0  0  0  0  0  0  0  0  0  0  0  0
   -3.2750   18.8710  -33.8790 C   0  0  0  0  0  0  0  0  0  0  0  0
   -2.8200   19.1790  -32.5590 O   0  0  0  0  0  0  0  0  0  0  0  0
   -3.0300   20.3980  -31.8880 C   0  0  0  0  0  0  0  0  0  0  0  0
   -1.9860   21.3140  -31.6300 C   0  0  0  0  0  0  0  0  0  0  0  0
   -2.2630   22.5430  -31.0200 C   0  0  0  0  0  0  0  0  0  0  0  0
   -3.5760   22.8670  -30.6510 C   0  0  0  0  0  0  0  0  0  0  0  0
   -3.9240   24.4330  -29.9180 S   0  0  0  0  0  0  0  0  0  0  0  0
   -4.8790   24.2280  -28.7770 O   0  0  0  0  0  0  0  0  0  0  0  0
   -4.5600   25.3560  -30.9190 O   0  0  0  0  0  0  0  0  0  0  0  0
   -2.4750   25.1750  -29.3130 N   0  0  0  0  0  0  0  0  0  0  0  0
   -1.8180   24.8250  -28.0860 C   0  0  0  0  0  0  0  0  0  0  0  0
   -1.5800   23.4660  -27.8150 C   0  0  0  0  0  0  0  0  0  0  0  0
   -0.9590   23.0750  -26.6220 C   0  0  0  0  0  0  0  0  0  0  0  0
   -0.5490   24.0460  -25.7010 C   0  0  0  0  0  0  0  0  0  0  0  0
   -0.7700   25.4090  -25.9690 C   0  0  0  0  0  0  0  0  0  0  0  0
   -1.4160   25.8040  -27.1480 C   0  0  0  0  0  0  0  0  0  0  0  0
   -4.6090   21.9390  -30.8700 C   0  0  0  0  0  0  0  0  0  0  0  0
   -4.3360   20.7150  -31.4880 C   0  0  0  0  0  0  0  0  0  0  0  0
   -6.7510   20.8140  -33.0550 C   0  0  0  0  0  0  0  0  0  0  0  0
   -6.7860   22.6290  -29.9060 H   0  0  0  0  0  0  0  0  0  0  0  0
   -6.3110   24.1500  -30.4340 H   0  0  0  0  0  0  0  0  0  0  0  0
   -9.2796   21.0086  -30.7588 H   0  0  0  0  0  0  0  0  0  0  0  0
   -9.2459   18.5404  -31.1098 H   0  0  0  0  0  0  0  0  0  0  0  0
   -7.6073   17.5219  -32.6864 H   0  0  0  0  0  0  0  0  0  0  0  0
   -2.5092   18.2662  -34.3868 H   0  0  0  0  0  0  0  0  0  0  0  0
   -3.4484   19.8191  -34.4091 H   0  0  0  0  0  0  0  0  0  0  0  0
   -0.9526   21.0608  -31.9092 H   0  0  0  0  0  0  0  0  0  0  0  0
   -1.4479   23.2567  -30.8296 H   0  0  0  0  0  0  0  0  0  0  0  0
   -1.8843   22.7030  -28.5466 H   0  0  0  0  0  0  0  0  0  0  0  0
   -0.7941   22.0084  -26.4096 H   0  0  0  0  0  0  0  0  0  0  0  0
   -0.0535   23.7429  -24.7668 H   0  0  0  0  0  0  0  0  0  0  0  0
   -0.4337   26.1694  -25.2487 H   0  0  0  0  0  0  0  0  0  0  0  0
   -1.6093   26.8692  -27.3428 H   0  0  0  0  0  0  0  0  0  0  0  0
   -5.6355   22.1767  -30.5541 H   0  0  0  0  0  0  0  0  0  0  0  0
   -5.1506   19.9964  -31.6615 H   0  0  0  0  0  0  0  0  0  0  0  0
   -6.0579   21.4587  -33.6154 H   0  0  0  0  0  0  0  0  0  0  0  0
  1  2  1  0
  2  3  2  0
  2  4  2  0
  2  5  1  0
  5  6  2  0
  6  7  1  0
  7  8  2  0
  8  9  1  0
  9 10  1  0
 10 11  1  0
 11 12  2  0
 11 13  1  0
 13 14  1  0
 14 15  1  0
 15 16  2  0
 16 17  1  0
 17 18  2  0
 18 19  1  0
 19 20  2  0
 19 21  2  0
 19 22  1  0
 22 23  1  0
 23 24  2  0
 24 25  1  0
 25 26  2  0
 26 27  1  0
 27 28  2  0
 18 29  1  0
 29 30  2  0
  9 31  2  0
 31  5  1  0
 30 15  1  0
 28 23  1  0
  1 32  1  0
  1 33  1  0
  6 34  1  0
  7 35  1  0
  8 36  1  0
 13 37  1  0
 13 38  1  0
 16 39  1  0
 17 40  1  0
 24 41  1  0
 25 42  1  0
 26 43  1  0
 27 44  1  0
 28 45  1  0
 29 46  1  0
 30 47  1  0
 31 48  1  0
M  CHG  2  10  -1  22  -1
M  END
>  <UniqueID>  (32) 
31

>  <SMILES>  (32) 
NS(=O)(=O)c1cccc([N-]C(=O)COc2ccc(S(=O)(=O)[N-]c3ccccc3)cc2)c1

>  <Energy>  (32) 
55.24862063036975

>  <Genealogy>  (32) 
NS(=O)(=O)c1cccc([N-]C(=O)COc2ccc(S(=O)(=O)[N-]c3ccccc3)cc2)c1 (protonated)
NS(=O)(=O)c1cccc([N-]C(=O)COc2ccc(S(=O)(=O)[N-]c3ccccc3)cc2)c1 (3D coordinates assigned)
NS(=O)(=O)c1cccc([N-]C(=O)COc2ccc(S(=O)(=O)[N-]c3ccccc3)cc2)c1 (optimized conformer: 55.24862063036975 kcal/mol)

>  <smiles>  (32) 
NS(=O)(=O)c1cccc(NC(=O)COc2ccc(S(=O)(=O)Nc3ccccc3)cc2)c1

>  <score_type>  (32) 
oracle

>  <origin>  (32) 
adgpu

>  <m_score__min__energy>  (32) 
-11.35

>  <m_primary>  (32) 
energy

$$$$
32:0
     RDKit          3D

 51 54  0  0  0  0  0  0  0  0999 V2000
   -2.4680   15.4110  -34.4410 C   0  0  0  0  0  0  0  0  0  0  0  0
   -2.3080   16.7840  -33.8680 C   0  0  0  0  0  0  0  0  0  0  0  0
   -1.3520   17.1200  -32.9130 C   0  0  0  0  0  0  0  0  0  0  0  0
   -1.6060   18.4350  -32.5930 C   0  0  0  0  0  0  0  0  0  0  0  0
   -0.9900   19.2630  -31.6610 C   0  0  0  0  0  0  0  0  0  0  0  0
   -1.4800   20.5780  -31.5070 C   0  0  0  0  0  0  0  0  0  0  0  0
   -0.9050   21.4950  -30.4490 C   0  0  2  0  0  0  0  0  0  0  0  0
   -1.1260   20.9240  -29.0490 C   0  0  0  0  0  0  0  0  0  0  0  0
   -1.5150   22.8220  -30.5360 N   0  0  0  0  0  0  0  0  0  0  0  0
   -2.6240   23.2820  -29.7520 C   0  0  0  0  0  0  0  0  0  0  0  0
   -2.4150   23.6850  -28.5770 O   0  0  0  0  0  0  0  0  0  0  0  0
   -4.0020   23.2950  -30.2780 C   0  0  0  0  0  0  0  0  0  0  0  0
   -4.7410   22.1020  -30.3290 C   0  0  0  0  0  0  0  0  0  0  0  0
   -6.0530   22.1070  -30.8050 C   0  0  0  0  0  0  0  0  0  0  0  0
   -6.6360   23.3000  -31.2460 C   0  0  0  0  0  0  0  0  0  0  0  0
   -5.8950   24.4860  -31.2260 C   0  0  0  0  0  0  0  0  0  0  0  0
   -4.5840   24.4900  -30.7440 C   0  0  0  0  0  0  0  0  0  0  0  0
   -3.8710   25.6850  -30.7210 O   0  0  0  0  0  0  0  0  0  0  0  0
   -2.5710   21.0120  -32.3020 C   0  0  0  0  0  0  0  0  0  0  0  0
   -3.1940   20.1400  -33.2100 C   0  0  0  0  0  0  0  0  0  0  0  0
   -2.6830   18.8460  -33.3350 C   0  0  0  0  0  0  0  0  0  0  0  0
   -3.1300   17.8380  -34.1200 N   0  0  0  0  0  0  0  0  0  0  0  0
   -4.3360   17.8270  -34.9540 C   0  0  0  0  0  0  0  0  0  0  0  0
   -5.5340   18.2460  -34.1450 C   0  0  0  0  0  0  0  0  0  0  0  0
   -6.1400   17.3460  -33.2530 C   0  0  0  0  0  0  0  0  0  0  0  0
   -7.2260   17.7500  -32.4730 C   0  0  0  0  0  0  0  0  0  0  0  0
   -7.7170   19.0550  -32.5770 C   0  0  0  0  0  0  0  0  0  0  0  0
   -9.0750   19.5590  -31.5950 Cl  0  0  0  0  0  0  0  0  0  0  0  0
   -7.1220   19.9560  -33.4660 C   0  0  0  0  0  0  0  0  0  0  0  0
   -6.0350   19.5550  -34.2480 C   0  0  0  0  0  0  0  0  0  0  0  0
   -2.5532   14.6801  -33.6234 H   0  0  0  0  0  0  0  0  0  0  0  0
   -3.3763   15.3758  -35.0604 H   0  0  0  0  0  0  0  0  0  0  0  0
   -1.5921   15.1678  -35.0604 H   0  0  0  0  0  0  0  0  0  0  0  0
   -0.5627   16.4733  -32.5021 H   0  0  0  0  0  0  0  0  0  0  0  0
   -0.1427   18.9026  -31.0592 H   0  0  0  0  0  0  0  0  0  0  0  0
    0.1768   21.5784  -30.6302 H   0  0  0  0  0  0  0  0  0  0  0  0
   -0.8361   21.6731  -28.2975 H   0  0  0  0  0  0  0  0  0  0  0  0
   -2.1881   20.6681  -28.9208 H   0  0  0  0  0  0  0  0  0  0  0  0
   -0.5129   20.0197  -28.9208 H   0  0  0  0  0  0  0  0  0  0  0  0
   -4.2840   21.1597  -29.9924 H   0  0  0  0  0  0  0  0  0  0  0  0
   -6.6300   21.1709  -30.8335 H   0  0  0  0  0  0  0  0  0  0  0  0
   -7.6748   23.3051  -31.6076 H   0  0  0  0  0  0  0  0  0  0  0  0
   -6.3467   25.4200  -31.5915 H   0  0  0  0  0  0  0  0  0  0  0  0
   -2.9345   22.0458  -32.2063 H   0  0  0  0  0  0  0  0  0  0  0  0
   -4.0593   20.4667  -33.8054 H   0  0  0  0  0  0  0  0  0  0  0  0
   -4.2030   18.5250  -35.7937 H   0  0  0  0  0  0  0  0  0  0  0  0
   -4.4993   16.8076  -35.3338 H   0  0  0  0  0  0  0  0  0  0  0  0
   -5.7575   16.3181  -33.1683 H   0  0  0  0  0  0  0  0  0  0  0  0
   -7.6956   17.0404  -31.7759 H   0  0  0  0  0  0  0  0  0  0  0  0
   -7.5101   20.9818  -33.5499 H   0  0  0  0  0  0  0  0  0  0  0  0
   -5.5701   20.2664  -34.9464 H   0  0  0  0  0  0  0  0  0  0  0  0
  1  2  1  0
  2  3  2  0
  3  4  1  0
  4  5  2  0
  5  6  1  0
  6  7  1  0
  7  8  1  0
  7  9  1  0
  9 10  1  0
 10 11  2  0
 10 12  1  0
 12 13  2  0
 13 14  1  0
 14 15  2  0
 15 16  1  0
 16 17  2  0
 17 18  1  0
  6 19  2  0
 19 20  1  0
 20 21  2  0
 21 22  1  0
 22 23  1  0
 23 24  1  0
 24 25  2  0
 25 26  1  0
 26 27  2  0
 27 28  1  0
 27 29  1  0
 29 30  2  0
 22  2  1  0
 30 24  1  0
 21  4  1  0
 17 12  1  0
  1 31  1  0
  1 32  1  0
  1 33  1  0
  3 34  1  0
  5 35  1  0
  7 36  1  6
  8 37  1  0
  8 38  1  0
  8 39  1  0
 13 40  1  0
 14 41  1  0
 15 42  1  0
 16 43  1  0
 19 44  1  0
 20 45  1  0
 23 46  1  0
 23 47  1  0
 25 48  1  0
 26 49  1  0
 29 50  1  0
 30 51  1  0
M  CHG  2   9  -1  18  -1
M  END
>  <UniqueID>  (33) 
32

>  <SMILES>  (33) 
Cc1cc2cc([C@H](C)[N-]C(=O)c3ccccc3[O-])ccc2n1Cc1ccc(Cl)cc1

>  <Energy>  (33) 
86.15097751828566

>  <Genealogy>  (33) 
Cc1cc2cc(C(C)[N-]C(=O)c3ccccc3[O-])ccc2n1Cc1ccc(Cl)cc1 (protonated)
Cc1cc2cc([C@H](C)[N-]C(=O)c3ccccc3[O-])ccc2n1Cc1ccc(Cl)cc1 (chirality)
Cc1cc2cc([C@H](C)[N-]C(=O)c3ccccc3[O-])ccc2n1Cc1ccc(Cl)cc1 (3D coordinates assigned)
Cc1cc2cc([C@H](C)[N-]C(=O)c3ccccc3[O-])ccc2n1Cc1ccc(Cl)cc1 (optimized conformer: 86.15097751828566 kcal/mol)

>  <smiles>  (33) 
Cc1cc2cc(C(C)NC(=O)c3ccccc3O)ccc2n1Cc1ccc(Cl)cc1

>  <score_type>  (33) 
oracle

>  <origin>  (33) 
adgpu

>  <m_score__min__energy>  (33) 
-15.029999999999999

>  <m_primary>  (33) 
energy

$$$$
33:0
     RDKit          3D

 62 66  0  0  0  0  0  0  0  0999 V2000
    1.9840   16.2480  -29.9000 C   0  0  0  0  0  0  0  0  0  0  0  0
    2.1880   17.3970  -29.0850 O   0  0  0  0  0  0  0  0  0  0  0  0
    1.1560   18.1320  -28.4810 C   0  0  0  0  0  0  0  0  0  0  0  0
    1.1400   19.5190  -28.6470 C   0  0  0  0  0  0  0  0  0  0  0  0
    0.1320   20.2960  -28.0660 C   0  0  0  0  0  0  0  0  0  0  0  0
   -0.8970   19.6870  -27.3280 C   0  0  0  0  0  0  0  0  0  0  0  0
   -2.0060   20.5110  -26.7200 C   0  0  0  0  0  0  0  0  0  0  0  0
   -1.9240   21.9250  -27.1700 N   0  0  0  0  0  0  0  0  0  0  0  0
   -1.2540   22.8320  -26.3790 C   0  0  0  0  0  0  0  0  0  0  0  0
   -0.6600   22.4410  -25.3310 O   0  0  0  0  0  0  0  0  0  0  0  0
   -1.2080   24.1610  -26.7110 N   0  0  0  0  0  0  0  0  0  0  0  0
   -0.5140   25.0930  -25.8530 C   0  0  0  0  0  0  0  0  0  0  0  0
   -1.2340   25.9170  -24.9730 C   0  0  0  0  0  0  0  0  0  0  0  0
   -0.5600   26.8090  -24.1330 C   0  0  0  0  0  0  0  0  0  0  0  0
    0.8360   26.8840  -24.1670 C   0  0  0  0  0  0  0  0  0  0  0  0
    1.5590   26.0690  -25.0410 C   0  0  0  0  0  0  0  0  0  0  0  0
    0.8880   25.1760  -25.8820 C   0  0  0  0  0  0  0  0  0  0  0  0
   -1.8230   24.6160  -27.8410 C   0  0  0  0  0  0  0  0  0  0  0  0
   -1.7890   25.8470  -28.1270 O   0  0  0  0  0  0  0  0  0  0  0  0
   -2.5010   23.7250  -28.6780 C   0  0  0  0  0  0  0  0  0  0  0  0
   -3.1380   24.1790  -29.8480 C   0  0  0  0  0  0  0  0  0  0  0  0
   -3.7950   23.2870  -30.6900 C   0  0  0  0  0  0  0  0  0  0  0  0
   -3.8310   21.9220  -30.3870 C   0  0  0  0  0  0  0  0  0  0  0  0
   -4.4910   20.9580  -31.3010 C   0  0  0  0  0  0  0  0  0  0  0  0
   -4.6030   19.7510  -30.9520 O   0  0  0  0  0  0  0  0  0  0  0  0
   -4.9690   21.3710  -32.5910 N   0  0  0  0  0  0  0  0  0  0  0  0
   -5.5240   20.4240  -33.5560 C   0  0  0  0  0  0  0  0  0  0  0  0
   -6.7710   19.7830  -33.0040 C   0  0  0  0  0  0  0  0  0  0  0  0
   -6.8390   18.3900  -32.8510 C   0  0  0  0  0  0  0  0  0  0  0  0
   -7.9720   17.7980  -32.2830 C   0  0  0  0  0  0  0  0  0  0  0  0
   -9.0450   18.5910  -31.8730 C   0  0  0  0  0  0  0  0  0  0  0  0
   -8.9900   19.9770  -32.0350 C   0  0  0  0  0  0  0  0  0  0  0  0
   -7.8580   20.5720  -32.5980 C   0  0  0  0  0  0  0  0  0  0  0  0
   -3.2270   21.4690  -29.2010 C   0  0  0  0  0  0  0  0  0  0  0  0
   -2.5450   22.3550  -28.3280 C   0  0  0  0  0  0  0  0  0  0  0  0
   -0.8740   18.2960  -27.1500 C   0  0  0  0  0  0  0  0  0  0  0  0
    0.1440   17.5250  -27.7160 C   0  0  0  0  0  0  0  0  0  0  0  0
    1.8276   15.3673  -29.2597 H   0  0  0  0  0  0  0  0  0  0  0  0
    1.0990   16.4014  -30.5351 H   0  0  0  0  0  0  0  0  0  0  0  0
    2.8677   16.0873  -30.5351 H   0  0  0  0  0  0  0  0  0  0  0  0
    1.9281   20.0053  -29.2407 H   0  0  0  0  0  0  0  0  0  0  0  0
    0.1451   21.3892  -28.1875 H   0  0  0  0  0  0  0  0  0  0  0  0
   -2.9757   20.0914  -27.0259 H   0  0  0  0  0  0  0  0  0  0  0  0
   -1.9040   20.4842  -25.6251 H   0  0  0  0  0  0  0  0  0  0  0  0
   -2.3322   25.8606  -24.9443 H   0  0  0  0  0  0  0  0  0  0  0  0
   -1.1283   27.4521  -23.4450 H   0  0  0  0  0  0  0  0  0  0  0  0
    1.3650   27.5853  -23.5050 H   0  0  0  0  0  0  0  0  0  0  0  0
    2.6570   26.1297  -25.0677 H   0  0  0  0  0  0  0  0  0  0  0  0
    1.4604   24.5357  -26.5693 H   0  0  0  0  0  0  0  0  0  0  0  0
   -3.1163   25.2497  -30.0993 H   0  0  0  0  0  0  0  0  0  0  0  0
   -4.2894   23.6578  -31.6000 H   0  0  0  0  0  0  0  0  0  0  0  0
   -4.8210   22.3550  -32.9120 H   0  0  0  0  0  0  0  0  0  0  0  0
   -5.7714   20.9570  -34.4859 H   0  0  0  0  0  0  0  0  0  0  0  0
   -4.7785   19.6405  -33.7568 H   0  0  0  0  0  0  0  0  0  0  0  0
   -5.9982   17.7610  -33.1789 H   0  0  0  0  0  0  0  0  0  0  0  0
   -8.0174   16.7059  -32.1593 H   0  0  0  0  0  0  0  0  0  0  0  0
   -9.9335   18.1245  -31.4225 H   0  0  0  0  0  0  0  0  0  0  0  0
   -9.8389   20.6011  -31.7190 H   0  0  0  0  0  0  0  0  0  0  0  0
   -7.8188   21.6641  -32.7235 H   0  0  0  0  0  0  0  0  0  0  0  0
   -3.2847   20.4011  -28.9437 H   0  0  0  0  0  0  0  0  0  0  0  0
   -1.6639   17.8083  -26.5600 H   0  0  0  0  0  0  0  0  0  0  0  0
    0.1542   16.4358  -27.5623 H   0  0  0  0  0  0  0  0  0  0  0  0
  1  2  1  0
  2  3  1  0
  3  4  2  0
  4  5  1  0
  5  6  2  0
  6  7  1  0
  7  8  1  0
  8  9  1  0
  9 10  2  0
  9 11  1  0
 11 12  1  0
 12 13  2  0
 13 14  1  0
 14 15  2  0
 15 16  1  0
 16 17  2  0
 11 18  1  0
 18 19  2  0
 18 20  1  0
 20 21  2  0
 21 22  1  0
 22 23  2  0
 23 24  1  0
 24 25  2  0
 24 26  1  0
 26 27  1  0
 27 28  1  0
 28 29  2  0
 29 30  1  0
 30 31  2  0
 31 32  1  0
 32 33  2  0
 23 34  1  0
 34 35  2  0
  6 36  1  0
 36 37  2  0
 37  3  1  0
 35  8  1  0
 17 12  1  0
 35 20  1  0
 33 28  1  0
  1 38  1  0
  1 39  1  0
  1 40  1  0
  4 41  1  0
  5 42  1  0
  7 43  1  0
  7 44  1  0
 13 45  1  0
 14 46  1  0
 15 47  1  0
 16 48  1  0
 17 49  1  0
 21 50  1  0
 22 51  1  0
 26 52  1  0
 27 53  1  0
 27 54  1  0
 29 55  1  0
 30 56  1  0
 31 57  1  0
 32 58  1  0
 33 59  1  0
 34 60  1  0
 36 61  1  0
 37 62  1  0
M  END
>  <UniqueID>  (34) 
33

>  <SMILES>  (34) 
COc1ccc(Cn2c(=O)n(-c3ccccc3)c(=O)c3ccc(C(=O)NCc4ccccc4)cc32)cc1

>  <Energy>  (34) 
90.81189443815387

>  <Genealogy>  (34) 
COc1ccc(Cn2c(=O)n(-c3ccccc3)c(=O)c3ccc(C(=O)NCc4ccccc4)cc32)cc1 (3D coordinates assigned)
COc1ccc(Cn2c(=O)n(-c3ccccc3)c(=O)c3ccc(C(=O)NCc4ccccc4)cc32)cc1 (optimized conformer: 90.81189443815387 kcal/mol)

>  <smiles>  (34) 
COc1ccc(Cn2c(=O)n(-c3ccccc3)c(=O)c3ccc(C(=O)NCc4ccccc4)cc32)cc1

>  <score_type>  (34) 
oracle

>  <origin>  (34) 
adgpu

>  <m_score__min__energy>  (34) 
-9.1400000000000006

>  <m_primary>  (34) 
energy

$$$$
34:0
     RDKit          3D

 45 47  0  0  0  0  0  0  0  0999 V2000
   -3.5030   25.8750  -31.2460 H   0  0  0  0  0  0  0  0  0  0  0  0
   -4.2050   25.6810  -30.4980 N   0  0  0  0  0  0  0  0  0  0  0  0
   -5.2670   24.7550  -30.7130 C   0  0  0  0  0  0  0  0  0  0  0  0
   -6.4470   25.0830  -30.4140 O   0  0  0  0  0  0  0  0  0  0  0  0
   -4.9780   23.4240  -31.2800 C   0  0  0  0  0  0  0  0  0  0  0  0
   -6.0090   22.5890  -31.5780 N   0  0  0  0  0  0  0  0  0  0  0  0
   -5.7930   21.3500  -32.0870 C   0  0  0  0  0  0  0  0  0  0  0  0
   -6.8140   20.5960  -32.3740 N   0  0  0  0  0  0  0  0  0  0  0  0
   -6.7740   19.2460  -32.8690 C   0  0  0  0  0  0  0  0  0  0  0  0
   -7.5040   18.2040  -32.2710 C   0  0  0  0  0  0  0  0  0  0  0  0
   -8.1116   18.4032  -31.3759 H   0  0  0  0  0  0  0  0  0  0  0  0
   -7.4610   16.9510  -32.7960 N   0  0  0  0  0  0  0  0  0  0  0  0
   -6.7320   16.6620  -33.9100 C   0  0  0  0  0  0  0  0  0  0  0  0
   -6.6960   15.3620  -34.4250 O   0  0  0  0  0  0  0  0  0  0  0  0
   -5.6590   14.4390  -34.1150 C   0  0  0  0  0  0  0  0  0  0  0  0
   -5.5605   14.3513  -33.0229 H   0  0  0  0  0  0  0  0  0  0  0  0
   -5.9044   13.4551  -34.5412 H   0  0  0  0  0  0  0  0  0  0  0  0
   -4.7101   14.7968  -34.5412 H   0  0  0  0  0  0  0  0  0  0  0  0
   -6.0180   17.6760  -34.5520 C   0  0  0  0  0  0  0  0  0  0  0  0
   -5.4349   17.4550  -35.4582 H   0  0  0  0  0  0  0  0  0  0  0  0
   -6.0500   18.9720  -34.0350 C   0  0  0  0  0  0  0  0  0  0  0  0
   -5.5050   19.7799  -34.5451 H   0  0  0  0  0  0  0  0  0  0  0  0
   -4.5200   20.9370  -32.3300 N   0  0  0  0  0  0  0  0  0  0  0  0
   -3.4460   21.7280  -32.0630 C   0  0  0  0  0  0  0  0  0  0  0  0
   -2.0790   21.2160  -32.3430 C   0  0  0  0  0  0  0  0  0  0  0  0
   -1.4510   20.3680  -31.4180 C   0  0  0  0  0  0  0  0  0  0  0  0
   -1.9758   20.0880  -30.4927 H   0  0  0  0  0  0  0  0  0  0  0  0
   -0.1670   19.8760  -31.6600 C   0  0  0  0  0  0  0  0  0  0  0  0
    0.3145   19.2203  -30.9196 H   0  0  0  0  0  0  0  0  0  0  0  0
    0.5160   20.2120  -32.8430 C   0  0  0  0  0  0  0  0  0  0  0  0
    1.8150   19.7450  -33.1060 O   0  0  0  0  0  0  0  0  0  0  0  0
    2.5640   18.9050  -32.2340 C   0  0  0  0  0  0  0  0  0  0  0  0
    2.3342   19.1628  -31.1896 H   0  0  0  0  0  0  0  0  0  0  0  0
    2.2979   17.8539  -32.4193 H   0  0  0  0  0  0  0  0  0  0  0  0
    3.6386   19.0494  -32.4193 H   0  0  0  0  0  0  0  0  0  0  0  0
   -0.1190   21.0370  -33.7940 C   0  0  0  0  0  0  0  0  0  0  0  0
    0.5920   21.4250  -35.0630 C   0  0  0  0  0  0  0  0  0  0  0  0
    0.8941   20.5179  -35.6069 H   0  0  0  0  0  0  0  0  0  0  0  0
   -0.0819   22.0218  -35.6952 H   0  0  0  0  0  0  0  0  0  0  0  0
    1.7280   22.1800  -34.7450 O   0  0  0  0  0  0  0  0  0  0  0  0
    2.2300   21.6510  -34.0710 H   0  0  0  0  0  0  0  0  0  0  0  0
   -1.4040   21.5410  -33.5330 C   0  0  0  0  0  0  0  0  0  0  0  0
   -1.8887   22.1988  -34.2695 H   0  0  0  0  0  0  0  0  0  0  0  0
   -3.6620   23.0020  -31.5130 C   0  0  0  0  0  0  0  0  0  0  0  0
   -2.8129   23.6574  -31.2693 H   0  0  0  0  0  0  0  0  0  0  0  0
  1  2  1  0
  2  3  1  0
  3  4  2  0
  3  5  1  0
  5  6  2  0
  6  7  1  0
  7  8  2  0
  8  9  1  0
  9 10  2  0
 10 11  1  0
 10 12  1  0
 12 13  2  0
 13 14  1  0
 14 15  1  0
 15 16  1  0
 15 17  1  0
 15 18  1  0
 13 19  1  0
 19 20  1  0
 19 21  2  0
 21 22  1  0
  7 23  1  0
 23 24  1  0
 24 25  1  0
 25 26  2  0
 26 27  1  0
 26 28  1  0
 28 29  1  0
 28 30  2  0
 30 31  1  0
 31 32  1  0
 32 33  1  0
 32 34  1  0
 32 35  1  0
 30 36  1  0
 36 37  1  0
 37 38  1  0
 37 39  1  0
 37 40  1  0
 40 41  1  0
 36 42  2  0
 42 43  1  0
 24 44  2  0
 44 45  1  0
 44  5  1  0
 21  9  1  0
 42 25  1  0
M  CHG  2   2  -1  23  -1
M  END
>  <UniqueID>  (35) 
34

>  <SMILES>  (35) 
COc1ccc(/N=c2/nc(C([NH-])=O)cc(-c3ccc(OC)c(CO)c3)[n-]2)cn1

>  <Energy>  (35) 
54.7360490352144

>  <Genealogy>  (35) 
COc1ccc(N=c2nc(C([NH-])=O)cc(-c3ccc(OC)c(CO)c3)[n-]2)cn1 (protonated)
COc1ccc(/N=c2/nc(C([NH-])=O)cc(-c3ccc(OC)c(CO)c3)[n-]2)cn1 (cis-trans isomerization)
COc1ccc(/N=c2/nc(C([NH-])=O)cc(-c3ccc(OC)c(CO)c3)[n-]2)cn1 (3D coordinates assigned)
COc1ccc(/N=c2/nc(C([NH-])=O)cc(-c3ccc(OC)c(CO)c3)[n-]2)cn1 (optimized conformer: 54.7360490352144 kcal/mol)

>  <smiles>  (35) 
COc1ccc(N=c2nc(C(N)=O)cc(-c3ccc(OC)c(CO)c3)[nH]2)cn1

>  <score_type>  (35) 
oracle

>  <origin>  (35) 
adgpu

>  <m_score__min__energy>  (35) 
-10.390000000000001

>  <m_primary>  (35) 
energy

$$$$
35:0
     RDKit          3D

 48 50  0  0  0  0  0  0  0  0999 V2000
   -9.1240   19.2870  -32.7110 C   0  0  0  0  0  0  0  0  0  0  0  0
   -8.8180   19.7310  -31.3560 N   0  0  0  0  0  0  0  0  0  0  0  0
   -8.7810   21.4670  -31.2990 S   0  0  0  0  0  0  0  0  0  0  0  0
   -9.7020   22.0330  -32.3480 O   0  0  0  0  0  0  0  0  0  0  0  0
   -9.2640   21.9230  -29.9520 O   0  0  0  0  0  0  0  0  0  0  0  0
   -7.1400   22.0620  -31.5480 C   0  0  0  0  0  0  0  0  0  0  0  0
   -6.2070   21.2610  -32.2190 C   0  0  0  0  0  0  0  0  0  0  0  0
   -4.8880   21.6930  -32.3630 C   0  0  0  0  0  0  0  0  0  0  0  0
   -4.4910   22.9250  -31.8380 C   0  0  0  0  0  0  0  0  0  0  0  0
   -5.4210   23.7500  -31.1850 C   0  0  0  0  0  0  0  0  0  0  0  0
   -4.9910   25.0320  -30.5880 C   0  0  0  0  0  0  0  0  0  0  0  0
   -5.8390   25.9350  -30.3640 O   0  0  0  0  0  0  0  0  0  0  0  0
   -3.6140   25.2850  -30.2870 N   0  0  0  0  0  0  0  0  0  0  0  0
   -2.8430   24.5640  -29.3160 C   0  0  0  0  0  0  0  0  0  0  0  0
   -3.5090   23.7590  -28.3860 C   0  0  0  0  0  0  0  0  0  0  0  0
   -2.7880   22.9540  -27.5000 C   0  0  0  0  0  0  0  0  0  0  0  0
   -1.3870   22.9380  -27.5380 C   0  0  0  0  0  0  0  0  0  0  0  0
   -0.4800   21.8550  -26.4800 S   0  0  0  0  0  0  0  0  0  0  0  0
   -1.1230   21.8410  -25.1200 O   0  0  0  0  0  0  0  0  0  0  0  0
    0.9140   22.3960  -26.3190 O   0  0  0  0  0  0  0  0  0  0  0  0
   -0.3850   20.2160  -27.0950 N   0  0  0  0  0  0  0  0  0  0  0  0
    0.0060   20.1650  -28.5200 C   0  0  0  0  0  0  0  0  0  0  0  0
   -1.1870   19.9240  -29.4610 C   0  0  0  0  0  0  0  0  0  0  0  0
   -2.3650   20.4570  -28.9040 O   0  0  0  0  0  0  0  0  0  0  0  0
   -2.7520   19.6900  -27.7790 C   0  0  0  0  0  0  0  0  0  0  0  0
   -1.5930   19.4260  -26.7890 C   0  0  0  0  0  0  0  0  0  0  0  0
   -0.7160   23.7540  -28.4590 C   0  0  0  0  0  0  0  0  0  0  0  0
   -1.4370   24.5650  -29.3410 C   0  0  0  0  0  0  0  0  0  0  0  0
   -6.7520   23.3160  -31.0550 C   0  0  0  0  0  0  0  0  0  0  0  0
   -9.7477   18.3820  -32.6682 H   0  0  0  0  0  0  0  0  0  0  0  0
   -9.6671   20.0817  -33.2434 H   0  0  0  0  0  0  0  0  0  0  0  0
   -8.1880   19.0624  -33.2434 H   0  0  0  0  0  0  0  0  0  0  0  0
   -6.5148   20.2895  -32.6332 H   0  0  0  0  0  0  0  0  0  0  0  0
   -4.1587   21.0615  -32.8915 H   0  0  0  0  0  0  0  0  0  0  0  0
   -3.4449   23.2505  -31.9365 H   0  0  0  0  0  0  0  0  0  0  0  0
   -4.6085   23.7596  -28.3518 H   0  0  0  0  0  0  0  0  0  0  0  0
   -3.3227   22.3297  -26.7690 H   0  0  0  0  0  0  0  0  0  0  0  0
    0.4772   21.1219  -28.7889 H   0  0  0  0  0  0  0  0  0  0  0  0
    0.6981   19.3188  -28.6418 H   0  0  0  0  0  0  0  0  0  0  0  0
   -0.9905   20.4105  -30.4278 H   0  0  0  0  0  0  0  0  0  0  0  0
   -1.3170   18.8410  -29.6033 H   0  0  0  0  0  0  0  0  0  0  0  0
   -3.5496   20.2291  -27.2468 H   0  0  0  0  0  0  0  0  0  0  0  0
   -3.0898   18.7121  -28.1526 H   0  0  0  0  0  0  0  0  0  0  0  0
   -1.9325   19.6826  -25.7747 H   0  0  0  0  0  0  0  0  0  0  0  0
   -1.3224   18.3632  -26.8736 H   0  0  0  0  0  0  0  0  0  0  0  0
    0.3836   23.7565  -28.4882 H   0  0  0  0  0  0  0  0  0  0  0  0
   -0.9022   25.2062  -30.0571 H   0  0  0  0  0  0  0  0  0  0  0  0
   -7.4930   23.9638  -30.5638 H   0  0  0  0  0  0  0  0  0  0  0  0
  1  2  1  0
  2  3  1  0
  3  4  2  0
  3  5  2  0
  3  6  1  0
  6  7  2  0
  7  8  1  0
  8  9  2  0
  9 10  1  0
 10 11  1  0
 11 12  2  0
 11 13  1  0
 13 14  1  0
 14 15  2  0
 15 16  1  0
 16 17  2  0
 17 18  1  0
 18 19  2  0
 18 20  2  0
 18 21  1  0
 21 22  1  0
 22 23  1  0
 23 24  1  0
 24 25  1  0
 25 26  1  0
 17 27  1  0
 27 28  2  0
 10 29  2  0
 29  6  1  0
 28 14  1  0
 26 21  1  0
  1 30  1  0
  1 31  1  0
  1 32  1  0
  7 33  1  0
  8 34  1  0
  9 35  1  0
 15 36  1  0
 16 37  1  0
 22 38  1  0
 22 39  1  0
 23 40  1  0
 23 41  1  0
 25 42  1  0
 25 43  1  0
 26 44  1  0
 26 45  1  0
 27 46  1  0
 28 47  1  0
 29 48  1  0
M  CHG  2   2  -1  13  -1
M  END
>  <UniqueID>  (36) 
35

>  <SMILES>  (36) 
C[N-]S(=O)(=O)c1cccc(C(=O)[N-]c2ccc(S(=O)(=O)N3CCOCC3)cc2)c1

>  <Energy>  (36) 
64.39649441293518

>  <Genealogy>  (36) 
C[N-]S(=O)(=O)c1cccc(C(=O)[N-]c2ccc(S(=O)(=O)N3CCOCC3)cc2)c1 (protonated)
C[N-]S(=O)(=O)c1cccc(C(=O)[N-]c2ccc(S(=O)(=O)N3CCOCC3)cc2)c1 (3D coordinates assigned)
C[N-]S(=O)(=O)c1cccc(C(=O)[N-]c2ccc(S(=O)(=O)N3CCOCC3)cc2)c1 (nonaromatic ring conformer: 64.39649441293518 kcal/mol)

>  <smiles>  (36) 
CNS(=O)(=O)c1cccc(C(=O)Nc2ccc(S(=O)(=O)N3CCOCC3)cc2)c1

>  <score_type>  (36) 
oracle

>  <origin>  (36) 
adgpu

>  <m_score__min__energy>  (36) 
-10.880000000000001

>  <m_primary>  (36) 
energy

$$$$
36:0
     RDKit          3D

 53 56  0  0  1  0  0  0  0  0999 V2000
   -0.8560   26.8070  -27.9580 C   0  0  0  0  0  0  0  0  0  0  0  0
   -1.5620   26.0020  -28.8970 O   0  0  0  0  0  0  0  0  0  0  0  0
   -1.8790   24.7020  -28.5250 C   0  0  0  0  0  0  0  0  0  0  0  0
   -3.1100   24.2160  -28.9130 C   0  0  0  0  0  0  0  0  0  0  0  0
   -3.4600   22.9290  -28.5610 C   0  0  0  0  0  0  0  0  0  0  0  0
   -2.6010   22.1060  -27.8230 C   0  0  0  0  0  0  0  0  0  0  0  0
   -3.0240   20.7050  -27.4590 C   0  0  0  0  0  0  0  0  0  0  0  0
   -1.8450   19.8950  -27.6920 N   0  0  0  0  0  0  0  0  0  0  0  0
   -1.3080   19.7740  -28.8390 C   0  0  0  0  0  0  0  0  0  0  0  0
   -1.8060   20.3960  -29.9220 N   0  0  0  0  0  0  0  0  0  0  0  0
   -1.2860   20.3070  -31.1520 C   0  0  0  0  0  0  0  0  0  0  0  0
   -1.8760   21.0570  -32.6100 S   0  0  0  0  0  0  0  0  0  0  0  0
   -3.4770   20.5220  -33.2070 C   0  0  0  0  0  0  0  0  0  0  0  0
   -4.5530   21.2990  -32.5680 C   0  0  0  0  0  0  0  0  0  0  0  0
   -5.8290   20.8940  -32.3310 C   0  0  0  0  0  0  0  0  0  0  0  0
   -6.7570   21.7280  -31.7400 C   0  0  0  0  0  0  0  0  0  0  0  0
   -6.4470   23.0160  -31.3560 C   0  0  0  0  0  0  0  0  0  0  0  0
   -5.1520   23.4410  -31.5900 C   0  0  0  0  0  0  0  0  0  0  0  0
   -4.8410   24.7420  -31.2030 O   0  0  0  0  0  0  0  0  0  0  0  0
   -5.7800   25.4240  -30.3920 C   0  0  0  0  0  0  0  0  0  0  0  0
   -4.2290   22.6040  -32.1810 C   0  0  0  0  0  0  0  0  0  0  0  0
   -0.1710   19.5150  -31.2570 N   0  0  0  0  0  0  0  0  0  0  0  0
    0.3620   18.8790  -30.2220 C   0  0  0  0  0  0  0  0  0  0  0  0
    1.4870   18.0900  -30.3750 C   0  0  0  0  0  0  0  0  0  0  0  0
    2.0060   17.4460  -29.2600 C   0  0  0  0  0  0  0  0  0  0  0  0
    1.4430   17.5610  -28.0070 C   0  0  0  0  0  0  0  0  0  0  0  0
    0.3190   18.3470  -27.8560 C   0  0  0  0  0  0  0  0  0  0  0  0
   -0.1950   18.9890  -28.9670 C   0  0  0  0  0  0  0  0  0  0  0  0
   -1.3600   22.5970  -27.4310 C   0  0  0  0  0  0  0  0  0  0  0  0
   -1.0190   23.8990  -27.7930 C   0  0  0  0  0  0  0  0  0  0  0  0
   -1.1251   26.5002  -26.9365 H   0  0  0  0  0  0  0  0  0  0  0  0
    0.2265   26.6791  -28.1061 H   0  0  0  0  0  0  0  0  0  0  0  0
   -1.1240   27.8635  -28.1061 H   0  0  0  0  0  0  0  0  0  0  0  0
   -3.8014   24.8444  -29.4936 H   0  0  0  0  0  0  0  0  0  0  0  0
   -4.4413   22.5385  -28.8687 H   0  0  0  0  0  0  0  0  0  0  0  0
   -3.3283   20.6532  -26.4032 H   0  0  0  0  0  0  0  0  0  0  0  0
   -3.8878   20.3636  -28.0484 H   0  0  0  0  0  0  0  0  0  0  0  0
   -2.6310   20.9880  -29.7900 H   0  0  0  0  0  0  0  0  0  0  0  0
   -3.5239   20.6671  -34.2964 H   0  0  0  0  0  0  0  0  0  0  0  0
   -3.6114   19.4587  -32.9594 H   0  0  0  0  0  0  0  0  0  0  0  0
   -6.1298   19.8755  -32.6175 H   0  0  0  0  0  0  0  0  0  0  0  0
   -7.7770   21.3530  -31.5698 H   0  0  0  0  0  0  0  0  0  0  0  0
   -7.1937   23.6733  -30.8864 H   0  0  0  0  0  0  0  0  0  0  0  0
   -5.5425   25.2515  -29.3319 H   0  0  0  0  0  0  0  0  0  0  0  0
   -5.7357   26.5019  -30.6070 H   0  0  0  0  0  0  0  0  0  0  0  0
   -6.7913   25.0485  -30.6070 H   0  0  0  0  0  0  0  0  0  0  0  0
   -3.2073   22.9734  -32.3533 H   0  0  0  0  0  0  0  0  0  0  0  0
    1.9615   17.9748  -31.3607 H   0  0  0  0  0  0  0  0  0  0  0  0
    2.9018   16.8192  -29.3812 H   0  0  0  0  0  0  0  0  0  0  0  0
    1.8810   17.0367  -27.1448 H   0  0  0  0  0  0  0  0  0  0  0  0
   -0.1583   18.4604  -26.8715 H   0  0  0  0  0  0  0  0  0  0  0  0
   -0.6650   21.9732  -26.8497 H   0  0  0  0  0  0  0  0  0  0  0  0
   -0.0407   24.3000  -27.4894 H   0  0  0  0  0  0  0  0  0  0  0  0
  1  2  1  0
  2  3  1  0
  3  4  2  0
  4  5  1  0
  5  6  2  0
  6  7  1  0
  7  8  1  0
  8  9  2  0
  9 10  1  0
 10 11  1  0
 11 12  1  0
 12 13  1  0
 13 14  1  0
 14 15  2  0
 15 16  1  0
 16 17  2  0
 17 18  1  0
 18 19  1  0
 19 20  1  0
 18 21  2  0
 11 22  2  0
 22 23  1  0
 23 24  2  0
 24 25  1  0
 25 26  2  0
 26 27  1  0
 27 28  2  0
  6 29  1  0
 29 30  2  0
 30  3  1  0
 28  9  1  0
 21 14  1  0
 28 23  1  0
  1 31  1  0
  1 32  1  0
  1 33  1  0
  4 34  1  0
  5 35  1  0
  7 36  1  0
  7 37  1  0
 10 38  1  0
 13 39  1  0
 13 40  1  0
 15 41  1  0
 16 42  1  0
 17 43  1  0
 20 44  1  0
 20 45  1  0
 20 46  1  0
 21 47  1  0
 24 48  1  0
 25 49  1  0
 26 50  1  0
 27 51  1  0
 29 52  1  0
 30 53  1  0
M  END
>  <smiles>  (37) 
COc1ccc(CN=c2[nH]c(SCc3cccc(OC)c3)nc3ccccc23)cc1

>  <score_type>  (37) 
oracle

>  <origin>  (37) 
adgpu

>  <m_score__min__energy>  (37) 
-9.4100000000000001

>  <m_primary>  (37) 
energy

$$$$
37:0
     RDKit          3D

 45 47  0  0  0  0  0  0  0  0999 V2000
   -6.2290   24.1650  -32.0690 C   0  0  0  0  0  0  0  0  0  0  0  0
   -7.1010   23.1780  -31.3710 C   0  0  0  0  0  0  0  0  0  0  0  0
   -7.4830   21.9400  -31.8590 C   0  0  0  0  0  0  0  0  0  0  0  0
   -8.2600   21.4280  -30.8340 C   0  0  0  0  0  0  0  0  0  0  0  0
   -8.8670   20.2800  -30.8090 N   0  0  0  0  0  0  0  0  0  0  0  0
   -8.8250   19.1250  -32.1030 S   0  0  0  0  0  0  0  0  0  0  0  0
   -9.4150   17.8280  -31.6230 O   0  0  0  0  0  0  0  0  0  0  0  0
   -9.6450   19.6420  -33.2510 O   0  0  0  0  0  0  0  0  0  0  0  0
   -7.1670   18.8860  -32.6480 C   0  0  0  0  0  0  0  0  0  0  0  0
   -6.7300   19.4780  -33.8380 C   0  0  0  0  0  0  0  0  0  0  0  0
   -5.4130   19.3020  -34.2710 C   0  0  0  0  0  0  0  0  0  0  0  0
   -4.5130   18.5220  -33.5200 C   0  0  0  0  0  0  0  0  0  0  0  0
   -3.1500   18.3150  -33.9380 N   0  0  0  0  0  0  0  0  0  0  0  0
   -2.1040   19.3390  -33.8910 C   0  0  0  0  0  0  0  0  0  0  0  0
   -2.4700   20.4310  -32.9220 C   0  0  0  0  0  0  0  0  0  0  0  0
   -1.8550   20.4890  -31.6610 C   0  0  0  0  0  0  0  0  0  0  0  0
   -2.1920   21.5010  -30.7560 C   0  0  0  0  0  0  0  0  0  0  0  0
   -3.1560   22.4580  -31.0960 C   0  0  0  0  0  0  0  0  0  0  0  0
   -3.5670   23.7430  -29.9650 S   0  0  0  0  0  0  0  0  0  0  0  0
   -3.6920   25.2420  -30.8160 N   0  0  0  0  0  0  0  0  0  0  0  0
   -2.4990   23.8540  -28.9130 O   0  0  0  0  0  0  0  0  0  0  0  0
   -4.8750   23.4350  -29.2940 O   0  0  0  0  0  0  0  0  0  0  0  0
   -3.7760   22.4000  -32.3520 C   0  0  0  0  0  0  0  0  0  0  0  0
   -3.4410   21.3890  -33.2570 C   0  0  0  0  0  0  0  0  0  0  0  0
   -4.9600   17.9330  -32.3260 C   0  0  0  0  0  0  0  0  0  0  0  0
   -6.2770   18.1110  -31.8940 C   0  0  0  0  0  0  0  0  0  0  0  0
   -8.3140   22.3120  -29.8240 N   0  0  0  0  0  0  0  0  0  0  0  0
   -7.6110   23.3490  -30.1700 O   0  0  0  0  0  0  0  0  0  0  0  0
   -5.6929   24.7717  -31.3243 H   0  0  0  0  0  0  0  0  0  0  0  0
   -5.5022   23.6312  -32.6989 H   0  0  0  0  0  0  0  0  0  0  0  0
   -6.8484   24.8205  -32.6989 H   0  0  0  0  0  0  0  0  0  0  0  0
   -7.2310   21.4768  -32.8244 H   0  0  0  0  0  0  0  0  0  0  0  0
   -7.4263   20.0848  -34.4355 H   0  0  0  0  0  0  0  0  0  0  0  0
   -5.0772   19.7761  -35.2050 H   0  0  0  0  0  0  0  0  0  0  0  0
   -2.8910   17.3880  -34.3460 H   0  0  0  0  0  0  0  0  0  0  0  0
   -1.1590   18.8752  -33.5719 H   0  0  0  0  0  0  0  0  0  0  0  0
   -1.9947   19.7785  -34.8935 H   0  0  0  0  0  0  0  0  0  0  0  0
   -1.1042   19.7346  -31.3833 H   0  0  0  0  0  0  0  0  0  0  0  0
   -1.6981   21.5452  -29.7741 H   0  0  0  0  0  0  0  0  0  0  0  0
   -3.8580   25.9860  -30.1010 H   0  0  0  0  0  0  0  0  0  0  0  0
   -4.5292   23.1533  -32.6264 H   0  0  0  0  0  0  0  0  0  0  0  0
   -3.9401   21.3433  -34.2362 H   0  0  0  0  0  0  0  0  0  0  0  0
   -4.2669   17.3258  -31.7252 H   0  0  0  0  0  0  0  0  0  0  0  0
   -6.6156   17.6410  -30.9589 H   0  0  0  0  0  0  0  0  0  0  0  0
   -8.8230   22.2060  -28.9190 H   0  0  0  0  0  0  0  0  0  0  0  0
  1  2  1  0
  2  3  2  0
  3  4  1  0
  4  5  2  3
  5  6  1  0
  6  7  2  0
  6  8  2  0
  6  9  1  0
  9 10  2  0
 10 11  1  0
 11 12  2  0
 12 13  1  0
 13 14  1  0
 14 15  1  0
 15 16  2  0
 16 17  1  0
 17 18  2  0
 18 19  1  0
 19 20  1  0
 19 21  2  0
 19 22  2  0
 18 23  1  0
 23 24  2  0
 12 25  1  0
 25 26  2  0
  4 27  1  0
 27 28  1  0
 28  2  1  0
 26  9  1  0
 24 15  1  0
  1 29  1  0
  1 30  1  0
  1 31  1  0
  3 32  1  0
 10 33  1  0
 11 34  1  0
 13 35  1  0
 14 36  1  0
 14 37  1  0
 16 38  1  0
 17 39  1  0
 20 40  1  0
 23 41  1  0
 24 42  1  0
 25 43  1  0
 26 44  1  0
 27 45  1  0
M  CHG  1  20  -1
M  END
>  <UniqueID>  (38) 
36

>  <SMILES>  (38) 
Cc1cc(=NS(=O)(=O)c2ccc(NCc3ccc(S([NH-])(=O)=O)cc3)cc2)[nH]o1

>  <Energy>  (38) 
79.73102635733962

>  <Genealogy>  (38) 
Cc1cc(=NS(=O)(=O)c2ccc(NCc3ccc(S([NH-])(=O)=O)cc3)cc2)[nH]o1 (protonated)
Cc1cc(=NS(=O)(=O)c2ccc(NCc3ccc(S([NH-])(=O)=O)cc3)cc2)[nH]o1 (3D coordinates assigned)
Cc1cc(=NS(=O)(=O)c2ccc(NCc3ccc(S([NH-])(=O)=O)cc3)cc2)[nH]o1 (optimized conformer: 79.73102635733962 kcal/mol)

>  <smiles>  (38) 
Cc1cc(=NS(=O)(=O)c2ccc(NCc3ccc(S(N)(=O)=O)cc3)cc2)[nH]o1

>  <score_type>  (38) 
oracle

>  <origin>  (38) 
adgpu

>  <m_score__min__energy>  (38) 
-11.68

>  <m_primary>  (38) 
energy

$$$$
38:0
     RDKit          3D

 33 34  0  0  0  0  0  0  0  0999 V2000
   -5.9280   19.9930  -32.9750 C   0  0  0  0  0  0  0  0  0  0  0  0
   -7.1520   20.7900  -32.6100 C   0  0  0  0  0  0  0  0  0  0  0  0
   -8.4110   20.1670  -32.6230 C   0  0  0  0  0  0  0  0  0  0  0  0
   -9.5610   20.8850  -32.2870 C   0  0  0  0  0  0  0  0  0  0  0  0
   -9.4640   22.2280  -31.9220 C   0  0  0  0  0  0  0  0  0  0  0  0
   -8.2180   22.8580  -31.8940 C   0  0  0  0  0  0  0  0  0  0  0  0
   -7.0520   22.1530  -32.2420 C   0  0  0  0  0  0  0  0  0  0  0  0
   -5.7680   22.8000  -32.1730 N   0  0  0  0  0  0  0  0  0  0  0  0
   -5.2650   23.4380  -30.9930 C   0  0  0  0  0  0  0  0  0  0  0  0
   -5.9970   23.5720  -29.9740 O   0  0  0  0  0  0  0  0  0  0  0  0
   -3.9230   23.9330  -30.9830 N   0  0  0  0  0  0  0  0  0  0  0  0
   -2.7820   23.1530  -30.6040 C   0  0  0  0  0  0  0  0  0  0  0  0
   -2.5850   21.9160  -31.2270 C   0  0  0  0  0  0  0  0  0  0  0  0
   -1.4930   21.1190  -30.8880 C   0  0  0  0  0  0  0  0  0  0  0  0
   -0.5760   21.5570  -29.9310 C   0  0  0  0  0  0  0  0  0  0  0  0
   -0.7370   22.8070  -29.3100 C   0  0  0  0  0  0  0  0  0  0  0  0
    0.2860   23.2710  -28.3080 C   0  0  0  0  0  0  0  0  0  0  0  0
   -1.8390   23.6210  -29.6590 C   0  0  0  0  0  0  0  0  0  0  0  0
   -1.9900   25.2940  -28.9680 S   0  0  0  0  0  0  0  0  0  0  0  0
   -5.4192   19.6617  -32.0577 H   0  0  0  0  0  0  0  0  0  0  0  0
   -6.2253   19.1148  -33.5670 H   0  0  0  0  0  0  0  0  0  0  0  0
   -5.2452   20.6201  -33.5670 H   0  0  0  0  0  0  0  0  0  0  0  0
   -8.4918   19.1055  -32.8999 H   0  0  0  0  0  0  0  0  0  0  0  0
  -10.5437   20.3913  -32.3102 H   0  0  0  0  0  0  0  0  0  0  0  0
  -10.3704   22.7916  -31.6558 H   0  0  0  0  0  0  0  0  0  0  0  0
   -8.1480   23.9149  -31.5972 H   0  0  0  0  0  0  0  0  0  0  0  0
   -5.1950   22.8770  -33.0430 H   0  0  0  0  0  0  0  0  0  0  0  0
   -3.2974   21.5697  -31.9903 H   0  0  0  0  0  0  0  0  0  0  0  0
   -1.3535   20.1429  -31.3756 H   0  0  0  0  0  0  0  0  0  0  0  0
    0.2786   20.9191  -29.6612 H   0  0  0  0  0  0  0  0  0  0  0  0
   -0.0935   23.0989  -27.2900 H   0  0  0  0  0  0  0  0  0  0  0  0
    1.2205   22.7087  -28.4509 H   0  0  0  0  0  0  0  0  0  0  0  0
    0.4786   24.3445  -28.4509 H   0  0  0  0  0  0  0  0  0  0  0  0
  1  2  1  0
  2  3  2  0
  3  4  1  0
  4  5  2  0
  5  6  1  0
  6  7  2  0
  7  8  1  0
  8  9  1  0
  9 10  2  0
  9 11  1  0
 11 12  1  0
 12 13  2  0
 13 14  1  0
 14 15  2  0
 15 16  1  0
 16 17  1  0
 16 18  2  0
 18 19  1  0
  7  2  1  0
 18 12  1  0
  1 20  1  0
  1 21  1  0
  1 22  1  0
  3 23  1  0
  4 24  1  0
  5 25  1  0
  6 26  1  0
  8 27  1  0
 13 28  1  0
 14 29  1  0
 15 30  1  0
 17 31  1  0
 17 32  1  0
 17 33  1  0
M  CHG  2  11  -1  19  -1
M  END
>  <UniqueID>  (39) 
37

>  <SMILES>  (39) 
Cc1ccccc1NC(=O)[N-]c1cccc(C)c1[S-]

>  <Energy>  (39) 
45.3349229298174

>  <Genealogy>  (39) 
Cc1ccccc1NC(=O)[N-]c1cccc(C)c1[S-] (protonated)
Cc1ccccc1NC(=O)[N-]c1cccc(C)c1[S-] (3D coordinates assigned)
Cc1ccccc1NC(=O)[N-]c1cccc(C)c1[S-] (optimized conformer: 45.3349229298174 kcal/mol)

>  <smiles>  (39) 
Cc1ccccc1NC(=O)Nc1cccc(C)c1S

>  <score_type>  (39) 
oracle

>  <origin>  (39) 
adgpu

>  <m_score__min__energy>  (39) 
-9.2799999999999994

>  <m_primary>  (39) 
energy

$$$$
39:0
     RDKit          3D

 50 52  0  0  0  0  0  0  0  0999 V2000
   -0.8960   21.2370  -27.6700 C   0  0  0  0  0  0  0  0  0  0  0  0
   -1.6220   22.3350  -28.4050 C   0  0  0  0  0  0  0  0  0  0  0  0
   -2.7760   21.9860  -29.1260 C   0  0  0  0  0  0  0  0  0  0  0  0
   -3.5140   22.9500  -29.8080 C   0  0  0  0  0  0  0  0  0  0  0  0
   -3.1170   24.2910  -29.7830 C   0  0  0  0  0  0  0  0  0  0  0  0
   -3.8650   25.3130  -30.4590 N   0  0  0  0  0  0  0  0  0  0  0  0
   -5.2420   25.2540  -30.8560 C   0  0  0  0  0  0  0  0  0  0  0  0
   -6.1190   25.9030  -30.2280 O   0  0  0  0  0  0  0  0  0  0  0  0
   -5.6410   24.4590  -31.9780 N   0  0  0  0  0  0  0  0  0  0  0  0
   -6.4570   23.2780  -31.9300 C   0  0  0  0  0  0  0  0  0  0  0  0
   -7.8190   23.3320  -31.5780 C   0  0  0  0  0  0  0  0  0  0  0  0
   -8.5900   22.1650  -31.5660 C   0  0  0  0  0  0  0  0  0  0  0  0
   -8.0140   20.9420  -31.9200 C   0  0  0  0  0  0  0  0  0  0  0  0
   -6.6700   20.8850  -32.2940 C   0  0  0  0  0  0  0  0  0  0  0  0
   -5.8960   22.0500  -32.3090 C   0  0  0  0  0  0  0  0  0  0  0  0
   -4.5920   21.9820  -32.6780 F   0  0  0  0  0  0  0  0  0  0  0  0
   -1.9950   24.6640  -29.0310 C   0  0  0  0  0  0  0  0  0  0  0  0
   -1.6490   26.0110  -28.9800 O   0  0  0  0  0  0  0  0  0  0  0  0
   -1.2230   23.6990  -28.3460 C   0  0  0  0  0  0  0  0  0  0  0  0
    0.2280   24.2360  -27.4530 S   0  0  0  0  0  0  0  0  0  0  0  0
    0.6500   23.1520  -26.5010 O   0  0  0  0  0  0  0  0  0  0  0  0
    1.3800   24.4670  -28.3890 O   0  0  0  0  0  0  0  0  0  0  0  0
   -0.0640   25.7550  -26.5250 C   0  0  0  0  0  0  0  0  0  0  0  0
   -1.1020   25.5350  -25.4040 C   0  0  0  0  0  0  0  0  0  0  0  0
   -0.9840   26.6370  -24.3480 C   0  0  0  0  0  0  0  0  0  0  0  0
    0.3270   26.5900  -23.6530 N   0  0  0  0  0  0  0  0  0  0  0  0
    0.6380   27.8980  -23.0550 C   0  0  0  0  0  0  0  0  0  0  0  0
    1.4490   26.0950  -24.4920 C   0  0  0  0  0  0  0  0  0  0  0  0
    1.2450   26.3850  -25.9870 C   0  0  0  0  0  0  0  0  0  0  0  0
   -0.9983   21.3917  -26.5857 H   0  0  0  0  0  0  0  0  0  0  0  0
   -1.3292   20.2637  -27.9440 H   0  0  0  0  0  0  0  0  0  0  0  0
    0.1692   21.2544  -27.9440 H   0  0  0  0  0  0  0  0  0  0  0  0
   -3.1015   20.9356  -29.1522 H   0  0  0  0  0  0  0  0  0  0  0  0
   -4.4133   22.6556  -30.3689 H   0  0  0  0  0  0  0  0  0  0  0  0
   -8.2785   24.2953  -31.3115 H   0  0  0  0  0  0  0  0  0  0  0  0
   -9.6506   22.2100  -31.2777 H   0  0  0  0  0  0  0  0  0  0  0  0
   -8.6197   20.0239  -31.9040 H   0  0  0  0  0  0  0  0  0  0  0  0
   -6.2191   19.9225  -32.5773 H   0  0  0  0  0  0  0  0  0  0  0  0
   -0.4864   26.4850  -27.2312 H   0  0  0  0  0  0  0  0  0  0  0  0
   -2.1131   25.5537  -25.8368 H   0  0  0  0  0  0  0  0  0  0  0  0
   -0.9142   24.5613  -24.9280 H   0  0  0  0  0  0  0  0  0  0  0  0
   -1.0927   27.6152  -24.8392 H   0  0  0  0  0  0  0  0  0  0  0  0
   -1.7756   26.4828  -23.6000 H   0  0  0  0  0  0  0  0  0  0  0  0
    0.6180   27.8139  -21.9584 H   0  0  0  0  0  0  0  0  0  0  0  0
    1.6380   28.2212  -23.3798 H   0  0  0  0  0  0  0  0  0  0  0  0
   -0.1095   28.6367  -23.3798 H   0  0  0  0  0  0  0  0  0  0  0  0
    2.3774   26.5843  -24.1622 H   0  0  0  0  0  0  0  0  0  0  0  0
    1.4986   25.0030  -24.3694 H   0  0  0  0  0  0  0  0  0  0  0  0
    1.2025   27.4741  -26.1353 H   0  0  0  0  0  0  0  0  0  0  0  0
    2.0877   25.9420  -26.5380 H   0  0  0  0  0  0  0  0  0  0  0  0
  1  2  1  0
  2  3  2  0
  3  4  1  0
  4  5  2  0
  5  6  1  0
  6  7  1  0
  7  8  2  0
  7  9  1  0
  9 10  1  0
 10 11  2  0
 11 12  1  0
 12 13  2  0
 13 14  1  0
 14 15  2  0
 15 16  1  0
  5 17  1  0
 17 18  1  0
 17 19  2  0
 19 20  1  0
 20 21  2  0
 20 22  2  0
 20 23  1  0
 23 24  1  0
 24 25  1  0
 25 26  1  0
 26 27  1  0
 26 28  1  0
 28 29  1  0
 19  2  1  0
 29 23  1  0
 15 10  1  0
  1 30  1  0
  1 31  1  0
  1 32  1  0
  3 33  1  0
  4 34  1  0
 11 35  1  0
 12 36  1  0
 13 37  1  0
 14 38  1  0
 23 39  1  0
 24 40  1  0
 24 41  1  0
 25 42  1  0
 25 43  1  0
 27 44  1  0
 27 45  1  0
 27 46  1  0
 28 47  1  0
 28 48  1  0
 29 49  1  0
 29 50  1  0
M  CHG  3   6  -1   9  -1  18  -1
M  END
>  <UniqueID>  (40) 
38

>  <SMILES>  (40) 
Cc1ccc([N-]C(=O)[N-]c2ccccc2F)c([O-])c1S(=O)(=O)C1CCN(C)CC1

>  <Energy>  (40) 
67.74113604646467

>  <Genealogy>  (40) 
Cc1ccc([N-]C(=O)[N-]c2ccccc2F)c([O-])c1S(=O)(=O)C1CCN(C)CC1 (protonated)
Cc1ccc([N-]C(=O)[N-]c2ccccc2F)c([O-])c1S(=O)(=O)C1CCN(C)CC1 (3D coordinates assigned)
Cc1ccc([N-]C(=O)[N-]c2ccccc2F)c([O-])c1S(=O)(=O)C1CCN(C)CC1 (nonaromatic ring conformer: 67.74113604646467 kcal/mol)

>  <smiles>  (40) 
Cc1ccc(NC(=O)Nc2ccccc2F)c(O)c1S(=O)(=O)C1CCN(C)CC1

>  <score_type>  (40) 
oracle

>  <origin>  (40) 
adgpu

>  <m_score__min__energy>  (40) 
-14.67

>  <m_primary>  (40) 
energy

$$$$
40:0
     RDKit          3D

 40 42  0  0  0  0  0  0  0  0999 V2000
    3.5110   25.6390  -27.2370 C   0  0  0  0  0  0  0  0  0  0  0  0
    2.1200   25.2220  -27.5710 C   0  0  0  0  0  0  0  0  0  0  0  0
    1.0360   25.5730  -26.8540 N   0  0  0  0  0  0  0  0  0  0  0  0
    0.0530   24.9400  -27.5310 C   0  0  0  0  0  0  0  0  0  0  0  0
   -1.3760   24.9980  -27.1540 C   0  0  0  0  0  0  0  0  0  0  0  0
   -1.7650   25.5460  -25.9200 C   0  0  0  0  0  0  0  0  0  0  0  0
   -3.1160   25.6080  -25.5700 C   0  0  0  0  0  0  0  0  0  0  0  0
   -4.0910   25.1180  -26.4400 C   0  0  0  0  0  0  0  0  0  0  0  0
   -3.7210   24.5460  -27.6700 C   0  0  0  0  0  0  0  0  0  0  0  0
   -4.7080   24.0550  -28.5950 N   0  0  0  0  0  0  0  0  0  0  0  0
   -4.6490   24.2710  -30.0150 C   0  0  0  0  0  0  0  0  0  0  0  0
   -3.9690   25.2310  -30.4730 O   0  0  0  0  0  0  0  0  0  0  0  0
   -5.4190   23.4120  -30.9470 C   0  0  0  0  0  0  0  0  0  0  0  0
   -6.7590   23.7040  -31.2610 C   0  0  0  0  0  0  0  0  0  0  0  0
   -7.4780   22.8800  -32.1310 C   0  0  0  0  0  0  0  0  0  0  0  0
   -6.8720   21.7570  -32.6960 C   0  0  0  0  0  0  0  0  0  0  0  0
   -5.5400   21.4500  -32.3950 C   0  0  0  0  0  0  0  0  0  0  0  0
   -4.7810   20.0210  -33.0890 S   0  0  0  0  0  0  0  0  0  0  0  0
   -5.9110   19.2440  -34.2220 C   0  0  0  0  0  0  0  0  0  0  0  0
   -3.5270   20.4120  -33.8210 O   0  0  0  0  0  0  0  0  0  0  0  0
   -4.4200   19.0560  -31.9970 O   0  0  0  0  0  0  0  0  0  0  0  0
   -4.8200   22.2700  -31.5150 C   0  0  0  0  0  0  0  0  0  0  0  0
   -2.3630   24.5060  -28.0260 C   0  0  0  0  0  0  0  0  0  0  0  0
    0.5230   24.2450  -28.5880 N   0  0  0  0  0  0  0  0  0  0  0  0
    1.8060   24.4430  -28.5760 O   0  0  0  0  0  0  0  0  0  0  0  0
    3.6306   25.6749  -26.1441 H   0  0  0  0  0  0  0  0  0  0  0  0
    4.2225   24.9147  -27.6602 H   0  0  0  0  0  0  0  0  0  0  0  0
    3.7067   26.6353  -27.6602 H   0  0  0  0  0  0  0  0  0  0  0  0
   -1.0019   25.9281  -25.2260 H   0  0  0  0  0  0  0  0  0  0  0  0
   -3.4124   26.0447  -24.6049 H   0  0  0  0  0  0  0  0  0  0  0  0
   -5.1536   25.1795  -26.1623 H   0  0  0  0  0  0  0  0  0  0  0  0
   -5.5720   23.6180  -28.2010 H   0  0  0  0  0  0  0  0  0  0  0  0
   -7.2439   24.5868  -30.8187 H   0  0  0  0  0  0  0  0  0  0  0  0
   -8.5249   23.1173  -32.3712 H   0  0  0  0  0  0  0  0  0  0  0  0
   -7.4427   21.1114  -33.3797 H   0  0  0  0  0  0  0  0  0  0  0  0
   -6.6882   18.7096  -33.6560 H   0  0  0  0  0  0  0  0  0  0  0  0
   -6.3807   20.0110  -34.8553 H   0  0  0  0  0  0  0  0  0  0  0  0
   -5.3629   18.5309  -34.8553 H   0  0  0  0  0  0  0  0  0  0  0  0
   -3.7783   22.0197  -31.2657 H   0  0  0  0  0  0  0  0  0  0  0  0
   -2.0682   24.0848  -28.9985 H   0  0  0  0  0  0  0  0  0  0  0  0
  1  2  1  0
  2  3  2  0
  3  4  1  0
  4  5  1  0
  5  6  2  0
  6  7  1  0
  7  8  2  0
  8  9  1  0
  9 10  1  0
 10 11  1  0
 11 12  2  0
 11 13  1  0
 13 14  2  0
 14 15  1  0
 15 16  2  0
 16 17  1  0
 17 18  1  0
 18 19  1  0
 18 20  2  0
 18 21  2  0
 17 22  2  0
  9 23  2  0
  4 24  2  0
 24 25  1  0
 25  2  1  0
 23  5  1  0
 22 13  1  0
  1 26  1  0
  1 27  1  0
  1 28  1  0
  6 29  1  0
  7 30  1  0
  8 31  1  0
 10 32  1  0
 14 33  1  0
 15 34  1  0
 16 35  1  0
 19 36  1  0
 19 37  1  0
 19 38  1  0
 22 39  1  0
 23 40  1  0
M  END
>  <UniqueID>  (41) 
39

>  <SMILES>  (41) 
Cc1nc(-c2cccc(NC(=O)c3cccc(S(C)(=O)=O)c3)c2)no1

>  <Energy>  (41) 
77.17437444907598

>  <Genealogy>  (41) 
Cc1nc(-c2cccc(NC(=O)c3cccc(S(C)(=O)=O)c3)c2)no1 (3D coordinates assigned)
Cc1nc(-c2cccc(NC(=O)c3cccc(S(C)(=O)=O)c3)c2)no1 (optimized conformer: 77.17437444907598 kcal/mol)

>  <smiles>  (41) 
Cc1nc(-c2cccc(NC(=O)c3cccc(S(C)(=O)=O)c3)c2)no1

>  <score_type>  (41) 
oracle

>  <origin>  (41) 
adgpu

>  <m_score__min__energy>  (41) 
-9.2799999999999994

>  <m_primary>  (41) 
energy

$$$$
41:0
     RDKit          3D

 41 43  0  0  0  0  0  0  0  0999 V2000
   -2.1890   25.2700  -29.3270 N   0  0  0  0  0  0  0  0  0  0  0  0
   -3.5030   24.4500  -30.0950 S   0  0  0  0  0  0  0  0  0  0  0  0
   -4.3030   25.4410  -30.8920 O   0  0  0  0  0  0  0  0  0  0  0  0
   -4.3930   23.8200  -29.0600 O   0  0  0  0  0  0  0  0  0  0  0  0
   -2.8910   23.2290  -31.1630 N   0  0  0  0  0  0  0  0  0  0  0  0
   -3.6740   22.2060  -31.7930 C   0  0  0  0  0  0  0  0  0  0  0  0
   -5.0780   22.1860  -31.6900 C   0  0  0  0  0  0  0  0  0  0  0  0
   -5.8330   21.1930  -32.3350 C   0  0  0  0  0  0  0  0  0  0  0  0
   -7.3130   21.1780  -32.2260 C   0  0  0  0  0  0  0  0  0  0  0  0
   -7.9880   22.3180  -31.7540 C   0  0  0  0  0  0  0  0  0  0  0  0
   -9.3800   22.3210  -31.6330 C   0  0  0  0  0  0  0  0  0  0  0  0
  -10.1150   21.1880  -31.9810 C   0  0  0  0  0  0  0  0  0  0  0  0
   -9.4600   20.0490  -32.4570 C   0  0  0  0  0  0  0  0  0  0  0  0
   -8.0630   20.0380  -32.5900 C   0  0  0  0  0  0  0  0  0  0  0  0
   -7.4250   18.9050  -33.0980 O   0  0  0  0  0  0  0  0  0  0  0  0
   -5.1720   20.2260  -33.1090 C   0  0  0  0  0  0  0  0  0  0  0  0
   -3.7830   20.2400  -33.2210 C   0  0  0  0  0  0  0  0  0  0  0  0
   -3.0250   21.2160  -32.5600 C   0  0  0  0  0  0  0  0  0  0  0  0
   -1.5930   21.1910  -32.6830 N   0  0  0  0  0  0  0  0  0  0  0  0
   -0.9600   21.5200  -33.9610 C   0  0  0  0  0  0  0  0  0  0  0  0
    0.3000   20.6670  -34.1370 C   0  0  0  0  0  0  0  0  0  0  0  0
    1.1450   20.7750  -33.0050 O   0  0  0  0  0  0  0  0  0  0  0  0
    0.4990   20.2320  -31.8670 C   0  0  0  0  0  0  0  0  0  0  0  0
   -0.7380   21.0550  -31.5010 C   0  0  0  0  0  0  0  0  0  0  0  0
   -1.5950   25.6730  -30.0870 H   0  0  0  0  0  0  0  0  0  0  0  0
   -5.5900   22.9580  -31.0968 H   0  0  0  0  0  0  0  0  0  0  0  0
   -7.4149   23.2153  -31.4776 H   0  0  0  0  0  0  0  0  0  0  0  0
   -9.8970   23.2185  -31.2626 H   0  0  0  0  0  0  0  0  0  0  0  0
  -11.2104   21.1909  -31.8808 H   0  0  0  0  0  0  0  0  0  0  0  0
  -10.0425   19.1564  -32.7289 H   0  0  0  0  0  0  0  0  0  0  0  0
   -7.4740   18.6650  -34.0790 H   0  0  0  0  0  0  0  0  0  0  0  0
   -5.7544   19.4521  -33.6305 H   0  0  0  0  0  0  0  0  0  0  0  0
   -3.2774   19.4787  -33.8333 H   0  0  0  0  0  0  0  0  0  0  0  0
   -1.6616   21.3128  -34.7825 H   0  0  0  0  0  0  0  0  0  0  0  0
   -0.6879   22.5857  -33.9736 H   0  0  0  0  0  0  0  0  0  0  0  0
    0.0073   19.6149  -34.2690 H   0  0  0  0  0  0  0  0  0  0  0  0
    0.8478   21.0268  -35.0205 H   0  0  0  0  0  0  0  0  0  0  0  0
    0.1930   19.1981  -32.0849 H   0  0  0  0  0  0  0  0  0  0  0  0
    1.2001   20.2529  -31.0197 H   0  0  0  0  0  0  0  0  0  0  0  0
   -1.2950   20.5460  -30.7006 H   0  0  0  0  0  0  0  0  0  0  0  0
   -0.4290   22.0513  -31.1517 H   0  0  0  0  0  0  0  0  0  0  0  0
  1  2  1  0
  2  3  2  0
  2  4  2  0
  2  5  1  0
  5  6  1  0
  6  7  2  0
  7  8  1  0
  8  9  1  0
  9 10  2  0
 10 11  1  0
 11 12  2  0
 12 13  1  0
 13 14  2  0
 14 15  1  0
  8 16  2  0
 16 17  1  0
 17 18  2  0
 18 19  1  0
 19 20  1  0
 20 21  1  0
 21 22  1  0
 22 23  1  0
 23 24  1  0
 18  6  1  0
 24 19  1  0
 14  9  1  0
  1 25  1  0
  7 26  1  0
 10 27  1  0
 11 28  1  0
 12 29  1  0
 13 30  1  0
 15 31  1  0
 16 32  1  0
 17 33  1  0
 20 34  1  0
 20 35  1  0
 21 36  1  0
 21 37  1  0
 23 38  1  0
 23 39  1  0
 24 40  1  0
 24 41  1  0
M  CHG  2   1  -1   5  -1
M  END
>  <UniqueID>  (42) 
40

>  <SMILES>  (42) 
[NH-]S(=O)(=O)[N-]c1cc(-c2ccccc2O)ccc1N1CCOCC1

>  <Energy>  (42) 
56.12447520343264

>  <Genealogy>  (42) 
[NH-]S(=O)(=O)[N-]c1cc(-c2ccccc2O)ccc1N1CCOCC1 (protonated)
[NH-]S(=O)(=O)[N-]c1cc(-c2ccccc2O)ccc1N1CCOCC1 (3D coordinates assigned)
[NH-]S(=O)(=O)[N-]c1cc(-c2ccccc2O)ccc1N1CCOCC1 (nonaromatic ring conformer: 56.12447520343264 kcal/mol)

>  <smiles>  (42) 
NS(=O)(=O)Nc1cc(-c2ccccc2O)ccc1N1CCOCC1

>  <score_type>  (42) 
oracle

>  <origin>  (42) 
adgpu

>  <m_score__min__energy>  (42) 
-11.390000000000001

>  <m_primary>  (42) 
energy

$$$$
42:0
     RDKit          3D

 55 57  0  0  0  0  0  0  0  0999 V2000
   -2.5880   21.5440  -32.9340 C   0  0  0  0  0  0  0  0  0  0  0  0
   -1.3850   20.6550  -32.7520 C   0  0  0  0  0  0  0  0  0  0  0  0
   -0.0190   21.1590  -33.1510 C   0  0  0  0  0  0  0  0  0  0  0  0
   -1.5670   19.4260  -32.2260 C   0  0  0  0  0  0  0  0  0  0  0  0
   -0.4640   18.4260  -31.9830 C   0  0  0  0  0  0  0  0  0  0  0  0
   -0.0250   18.4200  -30.5370 C   0  0  0  0  0  0  0  0  0  0  0  0
    0.0330   19.6340  -29.8340 C   0  0  0  0  0  0  0  0  0  0  0  0
    0.4090   19.6680  -28.4810 C   0  0  0  0  0  0  0  0  0  0  0  0
    0.4320   20.9540  -27.7510 C   0  0  0  0  0  0  0  0  0  0  0  0
    1.5340   21.5010  -27.4780 O   0  0  0  0  0  0  0  0  0  0  0  0
   -0.7830   21.5670  -27.3060 N   0  0  0  0  0  0  0  0  0  0  0  0
   -1.5500   22.4670  -28.1180 C   0  0  0  0  0  0  0  0  0  0  0  0
   -1.1970   23.8240  -28.2050 C   0  0  0  0  0  0  0  0  0  0  0  0
   -1.9630   24.7050  -28.9730 C   0  0  0  0  0  0  0  0  0  0  0  0
   -1.6140   26.0490  -29.0290 O   0  0  0  0  0  0  0  0  0  0  0  0
   -3.0670   24.2320  -29.6930 C   0  0  0  0  0  0  0  0  0  0  0  0
   -3.8610   25.1490  -30.4560 N   0  0  0  0  0  0  0  0  0  0  0  0
   -5.2860   25.0600  -30.5720 C   0  0  0  0  0  0  0  0  0  0  0  0
   -5.9910   26.0300  -30.1850 O   0  0  0  0  0  0  0  0  0  0  0  0
   -5.9300   23.8780  -31.1830 C   0  0  0  0  0  0  0  0  0  0  0  0
   -5.2260   23.0780  -32.0980 C   0  0  0  0  0  0  0  0  0  0  0  0
   -5.8250   21.9410  -32.6460 C   0  0  0  0  0  0  0  0  0  0  0  0
   -7.1230   21.5790  -32.2720 C   0  0  0  0  0  0  0  0  0  0  0  0
   -7.8380   22.3640  -31.3550 C   0  0  0  0  0  0  0  0  0  0  0  0
   -9.1940   21.9310  -30.8790 C   0  0  0  0  0  0  0  0  0  0  0  0
   -7.2380   23.5110  -30.8140 C   0  0  0  0  0  0  0  0  0  0  0  0
   -3.4160   22.8740  -29.6140 C   0  0  0  0  0  0  0  0  0  0  0  0
   -2.6720   21.9950  -28.8140 C   0  0  0  0  0  0  0  0  0  0  0  0
   -3.0320   20.6520  -28.7190 O   0  0  0  0  0  0  0  0  0  0  0  0
    0.7300   18.4690  -27.8290 C   0  0  0  0  0  0  0  0  0  0  0  0
    0.7060   17.2590  -28.5280 C   0  0  0  0  0  0  0  0  0  0  0  0
    0.3340   17.2280  -29.8760 C   0  0  0  0  0  0  0  0  0  0  0  0
    0.3170   16.0090  -30.5450 O   0  0  0  0  0  0  0  0  0  0  0  0
   -2.9815   21.8348  -31.9488 H   0  0  0  0  0  0  0  0  0  0  0  0
   -2.2966   22.4454  -33.4930 H   0  0  0  0  0  0  0  0  0  0  0  0
   -3.3641   21.0008  -33.4930 H   0  0  0  0  0  0  0  0  0  0  0  0
    0.5699   21.3763  -32.2477 H   0  0  0  0  0  0  0  0  0  0  0  0
    0.4951   20.3913  -33.7480 H   0  0  0  0  0  0  0  0  0  0  0  0
   -0.1267   22.0766  -33.7480 H   0  0  0  0  0  0  0  0  0  0  0  0
   -2.5920   19.1325  -31.9552 H   0  0  0  0  0  0  0  0  0  0  0  0
   -0.8272   17.4225  -32.2496 H   0  0  0  0  0  0  0  0  0  0  0  0
    0.3994   18.7097  -32.6028 H   0  0  0  0  0  0  0  0  0  0  0  0
   -0.2196   20.5719  -30.3502 H   0  0  0  0  0  0  0  0  0  0  0  0
   -0.3130   24.1950  -27.6657 H   0  0  0  0  0  0  0  0  0  0  0  0
   -4.1988   23.3478  -32.3843 H   0  0  0  0  0  0  0  0  0  0  0  0
   -5.2736   21.3282  -33.3744 H   0  0  0  0  0  0  0  0  0  0  0  0
   -7.5848   20.6761  -32.6981 H   0  0  0  0  0  0  0  0  0  0  0  0
   -9.2119   21.9253  -29.7792 H   0  0  0  0  0  0  0  0  0  0  0  0
   -9.9551   22.6308  -31.2545 H   0  0  0  0  0  0  0  0  0  0  0  0
   -9.4087   20.9196  -31.2545 H   0  0  0  0  0  0  0  0  0  0  0  0
   -7.7949   24.1294  -30.0947 H   0  0  0  0  0  0  0  0  0  0  0  0
   -4.2786   22.4974  -30.1834 H   0  0  0  0  0  0  0  0  0  0  0  0
   -2.4900   19.9960  -28.1680 H   0  0  0  0  0  0  0  0  0  0  0  0
    1.0018   18.4807  -26.7632 H   0  0  0  0  0  0  0  0  0  0  0  0
    0.9813   16.3256  -28.0151 H   0  0  0  0  0  0  0  0  0  0  0  0
  1  2  1  0
  2  3  1  0
  2  4  2  3
  4  5  1  0
  5  6  1  0
  6  7  2  0
  7  8  1  0
  8  9  1  0
  9 10  2  0
  9 11  1  0
 11 12  1  0
 12 13  2  0
 13 14  1  0
 14 15  1  0
 14 16  2  0
 16 17  1  0
 17 18  1  0
 18 19  2  0
 18 20  1  0
 20 21  2  0
 21 22  1  0
 22 23  2  0
 23 24  1  0
 24 25  1  0
 24 26  2  0
 16 27  1  0
 27 28  2  0
 28 29  1  0
  8 30  2  0
 30 31  1  0
 31 32  2  0
 32 33  1  0
 32  6  1  0
 28 12  1  0
 26 20  1  0
  1 34  1  0
  1 35  1  0
  1 36  1  0
  3 37  1  0
  3 38  1  0
  3 39  1  0
  4 40  1  0
  5 41  1  0
  5 42  1  0
  7 43  1  0
 13 44  1  0
 21 45  1  0
 22 46  1  0
 23 47  1  0
 25 48  1  0
 25 49  1  0
 25 50  1  0
 26 51  1  0
 27 52  1  0
 29 53  1  0
 30 54  1  0
 31 55  1  0
M  CHG  4  11  -1  15  -1  17  -1  33  -1
M  END
>  <UniqueID>  (43) 
41

>  <SMILES>  (43) 
CC(C)=CCc1cc(C(=O)[N-]c2cc([O-])c([N-]C(=O)c3cccc(C)c3)cc2O)ccc1[O-]

>  <Energy>  (43) 
66.73487220105403

>  <Genealogy>  (43) 
CC(C)=CCc1cc(C(=O)[N-]c2cc([O-])c([N-]C(=O)c3cccc(C)c3)cc2O)ccc1[O-] (protonated)
CC(C)=CCc1cc(C(=O)[N-]c2cc([O-])c([N-]C(=O)c3cccc(C)c3)cc2O)ccc1[O-] (3D coordinates assigned)
CC(C)=CCc1cc(C(=O)[N-]c2cc([O-])c([N-]C(=O)c3cccc(C)c3)cc2O)ccc1[O-] (optimized conformer: 66.73487220105403 kcal/mol)

>  <smiles>  (43) 
CC(C)=CCc1cc(C(=O)Nc2cc(O)c(NC(=O)c3cccc(C)c3)cc2O)ccc1O

>  <score_type>  (43) 
oracle

>  <origin>  (43) 
adgpu

>  <m_score__min__energy>  (43) 
-14.09

>  <m_primary>  (43) 
energy

$$$$
43:0
     RDKit          3D

 54 57  0  0  0  0  0  0  0  0999 V2000
   -4.1440   20.6910  -30.8050 O   0  0  0  0  0  0  0  0  0  0  0  0
   -3.9860   21.0010  -32.0170 C   0  0  0  0  0  0  0  0  0  0  0  0
   -5.0580   21.6410  -32.7230 N   0  0  0  0  0  0  0  0  0  0  0  0
   -6.4250   21.5320  -32.3010 C   0  0  0  0  0  0  0  0  0  0  0  0
   -7.2140   20.4920  -32.8150 C   0  0  0  0  0  0  0  0  0  0  0  0
   -8.5520   20.3660  -32.4390 C   0  0  0  0  0  0  0  0  0  0  0  0
   -9.1120   21.2710  -31.5350 C   0  0  0  0  0  0  0  0  0  0  0  0
   -8.3310   22.2950  -30.9960 C   0  0  0  0  0  0  0  0  0  0  0  0
   -6.9850   22.4340  -31.3650 C   0  0  0  0  0  0  0  0  0  0  0  0
   -6.1790   23.4310  -30.7090 N   0  0  0  0  0  0  0  0  0  0  0  0
   -6.2420   24.8160  -31.1930 C   0  0  0  0  0  0  0  0  0  0  0  0
   -5.1930   25.6720  -30.4990 C   0  0  0  0  0  0  0  0  0  0  0  0
   -3.9670   24.9780  -30.5010 O   0  0  0  0  0  0  0  0  0  0  0  0
   -4.0030   23.9440  -29.5360 C   0  0  0  0  0  0  0  0  0  0  0  0
   -5.2470   23.0210  -29.6450 C   0  0  0  0  0  0  0  0  0  0  0  0
   -2.6900   20.7190  -32.6840 C   0  0  0  0  0  0  0  0  0  0  0  0
   -2.5740   19.6990  -33.6470 C   0  0  0  0  0  0  0  0  0  0  0  0
   -1.3450   19.4320  -34.2550 C   0  0  0  0  0  0  0  0  0  0  0  0
   -0.2100   20.1760  -33.9130 C   0  0  0  0  0  0  0  0  0  0  0  0
    1.3370   19.8440  -34.6940 S   0  0  0  0  0  0  0  0  0  0  0  0
    2.4500   20.1330  -33.7240 O   0  0  0  0  0  0  0  0  0  0  0  0
    1.4040   18.3850  -35.0530 O   0  0  0  0  0  0  0  0  0  0  0  0
    1.5670   20.8070  -36.1380 N   0  0  0  0  0  0  0  0  0  0  0  0
    2.6780   21.7520  -35.9740 C   0  0  0  0  0  0  0  0  0  0  0  0
    2.1010   23.1010  -35.5730 C   0  0  0  0  0  0  0  0  0  0  0  0
    0.6270   23.0370  -35.9280 C   0  0  0  0  0  0  0  0  0  0  0  0
    0.3790   21.6200  -36.4300 C   0  0  0  0  0  0  0  0  0  0  0  0
   -0.3120   21.1820  -32.9430 C   0  0  0  0  0  0  0  0  0  0  0  0
   -1.5410   21.4530  -32.3350 C   0  0  0  0  0  0  0  0  0  0  0  0
   -4.8270   22.3430  -33.4660 H   0  0  0  0  0  0  0  0  0  0  0  0
   -6.7747   19.7705  -33.5196 H   0  0  0  0  0  0  0  0  0  0  0  0
   -9.1658   19.5534  -32.8549 H   0  0  0  0  0  0  0  0  0  0  0  0
  -10.1695   21.1770  -31.2473 H   0  0  0  0  0  0  0  0  0  0  0  0
   -8.7748   22.9984  -30.2762 H   0  0  0  0  0  0  0  0  0  0  0  0
   -6.0597   24.8289  -32.2777 H   0  0  0  0  0  0  0  0  0  0  0  0
   -7.2385   25.2252  -30.9707 H   0  0  0  0  0  0  0  0  0  0  0  0
   -5.0792   26.6251  -31.0362 H   0  0  0  0  0  0  0  0  0  0  0  0
   -5.5039   25.8785  -29.4643 H   0  0  0  0  0  0  0  0  0  0  0  0
   -3.1016   23.3254  -29.6581 H   0  0  0  0  0  0  0  0  0  0  0  0
   -4.0530   24.4302  -28.5505 H   0  0  0  0  0  0  0  0  0  0  0  0
   -4.9055   21.9965  -29.8543 H   0  0  0  0  0  0  0  0  0  0  0  0
   -5.7894   23.0874  -28.6903 H   0  0  0  0  0  0  0  0  0  0  0  0
   -3.4589   19.1069  -33.9232 H   0  0  0  0  0  0  0  0  0  0  0  0
   -1.2689   18.6326  -35.0067 H   0  0  0  0  0  0  0  0  0  0  0  0
    3.3606   21.3915  -35.1904 H   0  0  0  0  0  0  0  0  0  0  0  0
    3.2397   21.8443  -36.9153 H   0  0  0  0  0  0  0  0  0  0  0  0
    2.2289   23.2675  -34.4932 H   0  0  0  0  0  0  0  0  0  0  0  0
    2.6080   23.9298  -36.0888 H   0  0  0  0  0  0  0  0  0  0  0  0
    0.0105   23.2417  -35.0403 H   0  0  0  0  0  0  0  0  0  0  0  0
    0.3619   23.7867  -36.6881 H   0  0  0  0  0  0  0  0  0  0  0  0
   -0.4970   21.1935  -35.9194 H   0  0  0  0  0  0  0  0  0  0  0  0
    0.1878   21.6322  -37.5132 H   0  0  0  0  0  0  0  0  0  0  0  0
    0.5790   21.7610  -32.6588 H   0  0  0  0  0  0  0  0  0  0  0  0
   -1.6108   22.2470  -31.5770 H   0  0  0  0  0  0  0  0  0  0  0  0
  1  2  2  0
  2  3  1  0
  3  4  1  0
  4  5  2  0
  5  6  1  0
  6  7  2  0
  7  8  1  0
  8  9  2  0
  9 10  1  0
 10 11  1  0
 11 12  1  0
 12 13  1  0
 13 14  1  0
 14 15  1  0
  2 16  1  0
 16 17  2  0
 17 18  1  0
 18 19  2  0
 19 20  1  0
 20 21  2  0
 20 22  2  0
 20 23  1  0
 23 24  1  0
 24 25  1  0
 25 26  1  0
 26 27  1  0
 19 28  1  0
 28 29  2  0
  9  4  1  0
 15 10  1  0
 29 16  1  0
 27 23  1  0
  3 30  1  0
  5 31  1  0
  6 32  1  0
  7 33  1  0
  8 34  1  0
 11 35  1  0
 11 36  1  0
 12 37  1  0
 12 38  1  0
 14 39  1  0
 14 40  1  0
 15 41  1  0
 15 42  1  0
 17 43  1  0
 18 44  1  0
 24 45  1  0
 24 46  1  0
 25 47  1  0
 25 48  1  0
 26 49  1  0
 26 50  1  0
 27 51  1  0
 27 52  1  0
 28 53  1  0
 29 54  1  0
M  END
>  <UniqueID>  (44) 
42

>  <SMILES>  (44) 
O=C(Nc1ccccc1N1CCOCC1)c1ccc(S(=O)(=O)N2CCCC2)cc1

>  <Energy>  (44) 
73.84369075503523

>  <Genealogy>  (44) 
O=C(Nc1ccccc1N1CCOCC1)c1ccc(S(=O)(=O)N2CCCC2)cc1 (3D coordinates assigned)
O=C(Nc1ccccc1N1CCOCC1)c1ccc(S(=O)(=O)N2CCCC2)cc1 (nonaromatic ring conformer: 73.84369075503523 kcal/mol)

>  <smiles>  (44) 
O=C(Nc1ccccc1N1CCOCC1)c1ccc(S(=O)(=O)N2CCCC2)cc1

>  <score_type>  (44) 
oracle

>  <origin>  (44) 
adgpu

>  <m_score__min__energy>  (44) 
-9.4700000000000006

>  <m_primary>  (44) 
energy

$$$$
44:0
     RDKit          3D

 48 50  0  0  0  0  0  0  0  0999 V2000
    0.0040   27.9130  -23.7410 C   0  0  0  0  0  0  0  0  0  0  0  0
   -0.8540   27.0800  -24.6020 N   0  0  0  0  0  0  0  0  0  0  0  0
   -0.7130   27.4860  -26.0190 C   0  0  0  0  0  0  0  0  0  0  0  0
   -1.2820   26.4300  -26.9890 C   0  0  0  0  0  0  0  0  0  0  0  0
   -2.2120   25.5250  -26.2890 N   0  0  0  0  0  0  0  0  0  0  0  0
   -2.8770   24.6230  -27.2540 C   0  0  0  0  0  0  0  0  0  0  0  0
   -2.2020   24.6890  -28.6310 C   0  0  0  0  0  0  0  0  0  0  0  0
   -3.0770   25.2790  -29.5930 O   0  0  0  0  0  0  0  0  0  0  0  0
   -4.2010   24.6590  -30.1650 C   0  0  0  0  0  0  0  0  0  0  0  0
   -4.0180   23.4340  -30.8180 C   0  0  0  0  0  0  0  0  0  0  0  0
   -5.0990   22.7720  -31.4050 C   0  0  0  0  0  0  0  0  0  0  0  0
   -6.3860   23.3350  -31.3560 C   0  0  0  0  0  0  0  0  0  0  0  0
   -7.4990   22.6950  -31.9190 O   0  0  0  0  0  0  0  0  0  0  0  0
   -7.6440   21.3090  -32.0820 C   0  0  0  0  0  0  0  0  0  0  0  0
   -8.7090   20.6630  -31.4400 C   0  0  0  0  0  0  0  0  0  0  0  0
   -8.8950   19.2860  -31.5920 C   0  0  0  0  0  0  0  0  0  0  0  0
   -8.0260   18.5460  -32.3970 C   0  0  0  0  0  0  0  0  0  0  0  0
   -6.9720   19.1850  -33.0590 C   0  0  0  0  0  0  0  0  0  0  0  0
   -6.7830   20.5630  -32.9080 C   0  0  0  0  0  0  0  0  0  0  0  0
   -6.5760   24.5490  -30.6860 C   0  0  0  0  0  0  0  0  0  0  0  0
   -5.4950   25.2120  -30.0980 C   0  0  0  0  0  0  0  0  0  0  0  0
   -1.4920   24.7610  -25.2420 C   0  0  0  0  0  0  0  0  0  0  0  0
   -0.5240   25.6530  -24.4310 C   0  0  0  0  0  0  0  0  0  0  0  0
   -0.2173   27.6982  -22.6851 H   0  0  0  0  0  0  0  0  0  0  0  0
    1.0605   27.6869  -23.9476 H   0  0  0  0  0  0  0  0  0  0  0  0
   -0.1907   28.9757  -23.9476 H   0  0  0  0  0  0  0  0  0  0  0  0
   -1.8470   27.2350  -24.3010 H   0  0  0  0  0  0  0  0  0  0  0  0
   -1.2516   28.4330  -26.1711 H   0  0  0  0  0  0  0  0  0  0  0  0
    0.3604   27.5961  -26.2327 H   0  0  0  0  0  0  0  0  0  0  0  0
   -1.8184   26.9396  -27.8030 H   0  0  0  0  0  0  0  0  0  0  0  0
   -0.4487   25.8364  -27.3932 H   0  0  0  0  0  0  0  0  0  0  0  0
   -2.8227   23.5911  -26.8768 H   0  0  0  0  0  0  0  0  0  0  0  0
   -3.9243   24.9411  -27.3637 H   0  0  0  0  0  0  0  0  0  0  0  0
   -1.2866   25.2943  -28.5560 H   0  0  0  0  0  0  0  0  0  0  0  0
   -1.9573   23.6666  -28.9549 H   0  0  0  0  0  0  0  0  0  0  0  0
   -3.0135   22.9887  -30.8693 H   0  0  0  0  0  0  0  0  0  0  0  0
   -4.9424   21.8062  -31.9076 H   0  0  0  0  0  0  0  0  0  0  0  0
   -9.4024   21.2427  -30.8130 H   0  0  0  0  0  0  0  0  0  0  0  0
   -9.7273   18.7842  -31.0767 H   0  0  0  0  0  0  0  0  0  0  0  0
   -8.1702   17.4614  -32.5105 H   0  0  0  0  0  0  0  0  0  0  0  0
   -6.2916   18.6036  -33.6985 H   0  0  0  0  0  0  0  0  0  0  0  0
   -5.9590   21.0647  -33.4365 H   0  0  0  0  0  0  0  0  0  0  0  0
   -7.5839   24.9848  -30.6216 H   0  0  0  0  0  0  0  0  0  0  0  0
   -5.6553   26.1695  -29.5808 H   0  0  0  0  0  0  0  0  0  0  0  0
   -2.2292   24.3212  -24.5541 H   0  0  0  0  0  0  0  0  0  0  0  0
   -0.8964   23.9824  -25.7410 H   0  0  0  0  0  0  0  0  0  0  0  0
   -0.6004   25.3910  -23.3654 H   0  0  0  0  0  0  0  0  0  0  0  0
    0.4995   25.4831  -24.7964 H   0  0  0  0  0  0  0  0  0  0  0  0
  1  2  1  0
  2  3  1  0
  3  4  1  0
  4  5  1  0
  5  6  1  0
  6  7  1  0
  7  8  1  0
  8  9  1  0
  9 10  2  0
 10 11  1  0
 11 12  2  0
 12 13  1  0
 13 14  1  0
 14 15  2  0
 15 16  1  0
 16 17  2  0
 17 18  1  0
 18 19  2  0
 12 20  1  0
 20 21  2  0
  5 22  1  0
 22 23  1  0
 23  2  1  0
 21  9  1  0
 19 14  1  0
  1 24  1  0
  1 25  1  0
  1 26  1  0
  2 27  1  0
  3 28  1  0
  3 29  1  0
  4 30  1  0
  4 31  1  0
  6 32  1  0
  6 33  1  0
  7 34  1  0
  7 35  1  0
 10 36  1  0
 11 37  1  0
 15 38  1  0
 16 39  1  0
 17 40  1  0
 18 41  1  0
 19 42  1  0
 20 43  1  0
 21 44  1  0
 22 45  1  0
 22 46  1  0
 23 47  1  0
 23 48  1  0
M  CHG  1   2   1
M  END
>  <UniqueID>  (45) 
43

>  <SMILES>  (45) 
C[NH+]1CCN(CCOc2ccc(Oc3ccccc3)cc2)CC1

>  <Energy>  (45) 
63.46614675340205

>  <Genealogy>  (45) 
C[NH+]1CCN(CCOc2ccc(Oc3ccccc3)cc2)CC1 (protonated)
C[NH+]1CCN(CCOc2ccc(Oc3ccccc3)cc2)CC1 (3D coordinates assigned)
C[NH+]1CCN(CCOc2ccc(Oc3ccccc3)cc2)CC1 (nonaromatic ring conformer: 63.46614675340205 kcal/mol)

>  <smiles>  (45) 
CN1CCN(CCOc2ccc(Oc3ccccc3)cc2)CC1

>  <score_type>  (45) 
oracle

>  <origin>  (45) 
adgpu

>  <m_score__min__energy>  (45) 
-8.1099999999999994

>  <m_primary>  (45) 
energy

$$$$
45:0
     RDKit          3D

 52 55  0  0  0  0  0  0  0  0999 V2000
   -1.4353   21.6537  -26.5851 H   0  0  0  0  0  0  0  0  0  0  0  0
   -1.3330   22.6230  -27.0950 C   0  0  0  0  0  0  0  0  0  0  0  0
   -2.2300   23.0590  -28.0190 N   0  0  0  0  0  0  0  0  0  0  0  0
   -1.8860   24.2740  -28.5020 C   0  0  0  0  0  0  0  0  0  0  0  0
   -2.5680   24.9180  -29.3950 N   0  0  0  0  0  0  0  0  0  0  0  0
   -4.0290   24.3020  -30.0980 S   0  0  0  0  0  0  0  0  0  0  0  0
   -4.9440   23.7960  -29.0200 O   0  0  0  0  0  0  0  0  0  0  0  0
   -4.7050   25.4020  -30.8670 O   0  0  0  0  0  0  0  0  0  0  0  0
   -3.6350   22.9750  -31.1870 C   0  0  0  0  0  0  0  0  0  0  0  0
   -2.4490   22.2490  -31.0190 C   0  0  0  0  0  0  0  0  0  0  0  0
   -1.7610   22.5059  -30.2000 H   0  0  0  0  0  0  0  0  0  0  0  0
   -2.1360   21.2000  -31.8870 C   0  0  0  0  0  0  0  0  0  0  0  0
   -1.2089   20.6266  -31.7400 H   0  0  0  0  0  0  0  0  0  0  0  0
   -3.0000   20.8730  -32.9480 C   0  0  0  0  0  0  0  0  0  0  0  0
   -2.7190   19.7790  -33.8380 N   0  0  0  0  0  0  0  0  0  0  0  0
   -2.9120   19.9070  -34.8560 H   0  0  0  0  0  0  0  0  0  0  0  0
   -2.1140   18.5440  -33.4270 C   0  0  0  0  0  0  0  0  0  0  0  0
   -1.3990   18.5030  -32.3880 O   0  0  0  0  0  0  0  0  0  0  0  0
   -2.2360   17.3340  -34.2650 C   0  0  0  0  0  0  0  0  0  0  0  0
   -1.0970   16.5280  -34.4340 C   0  0  0  0  0  0  0  0  0  0  0  0
   -0.1523   16.8111  -33.9468 H   0  0  0  0  0  0  0  0  0  0  0  0
   -1.1530   15.3720  -35.2140 C   0  0  0  0  0  0  0  0  0  0  0  0
   -0.2526   14.7539  -35.3457 H   0  0  0  0  0  0  0  0  0  0  0  0
   -2.3480   15.0000  -35.8260 C   0  0  0  0  0  0  0  0  0  0  0  0
   -2.3880   14.0918  -36.4453 H   0  0  0  0  0  0  0  0  0  0  0  0
   -3.4940   15.7770  -35.6550 C   0  0  0  0  0  0  0  0  0  0  0  0
   -4.4355   15.4691  -36.1332 H   0  0  0  0  0  0  0  0  0  0  0  0
   -3.4600   16.9500  -34.8780 C   0  0  0  0  0  0  0  0  0  0  0  0
   -4.7650   17.6810  -34.6250 C   0  0  0  0  0  0  0  0  0  0  0  0
   -4.5790   18.7642  -34.6704 H   0  0  0  0  0  0  0  0  0  0  0  0
   -5.4838   17.3659  -35.3957 H   0  0  0  0  0  0  0  0  0  0  0  0
   -5.3640   17.3390  -33.2530 C   0  0  0  0  0  0  0  0  0  0  0  0
   -5.7293   16.3016  -33.2725 H   0  0  0  0  0  0  0  0  0  0  0  0
   -4.5773   17.4667  -32.4948 H   0  0  0  0  0  0  0  0  0  0  0  0
   -6.5090   18.2530  -32.8990 C   0  0  0  0  0  0  0  0  0  0  0  0
   -6.5590   19.5590  -33.4140 C   0  0  0  0  0  0  0  0  0  0  0  0
   -5.7796   19.9041  -34.1093 H   0  0  0  0  0  0  0  0  0  0  0  0
   -7.5960   20.4220  -33.0460 C   0  0  0  0  0  0  0  0  0  0  0  0
   -7.6331   21.4424  -33.4551 H   0  0  0  0  0  0  0  0  0  0  0  0
   -8.5850   19.9890  -32.1590 C   0  0  0  0  0  0  0  0  0  0  0  0
   -9.4020   20.6677  -31.8729 H   0  0  0  0  0  0  0  0  0  0  0  0
   -8.5370   18.6940  -31.6350 C   0  0  0  0  0  0  0  0  0  0  0  0
   -9.3147   18.3555  -30.9346 H   0  0  0  0  0  0  0  0  0  0  0  0
   -7.5020   17.8290  -32.0000 C   0  0  0  0  0  0  0  0  0  0  0  0
   -7.4646   16.8123  -31.5819 H   0  0  0  0  0  0  0  0  0  0  0  0
   -4.1920   21.5960  -33.1040 C   0  0  0  0  0  0  0  0  0  0  0  0
   -4.8869   21.3349  -33.9158 H   0  0  0  0  0  0  0  0  0  0  0  0
   -4.5030   22.6460  -32.2350 C   0  0  0  0  0  0  0  0  0  0  0  0
   -5.4333   23.2159  -32.3752 H   0  0  0  0  0  0  0  0  0  0  0  0
   -0.4710   24.8540  -27.8110 S   0  0  0  0  0  0  0  0  0  0  0  0
   -0.2760   23.4920  -26.8410 C   0  0  0  0  0  0  0  0  0  0  0  0
    0.5448   23.3188  -26.1295 H   0  0  0  0  0  0  0  0  0  0  0  0
  1  2  1  0
  2  3  1  0
  3  4  1  0
  4  5  2  0
  5  6  1  0
  6  7  2  0
  6  8  2  0
  6  9  1  0
  9 10  2  0
 10 11  1  0
 10 12  1  0
 12 13  1  0
 12 14  2  0
 14 15  1  0
 15 16  1  0
 15 17  1  0
 17 18  2  0
 17 19  1  0
 19 20  2  0
 20 21  1  0
 20 22  1  0
 22 23  1  0
 22 24  2  0
 24 25  1  0
 24 26  1  0
 26 27  1  0
 26 28  2  0
 28 29  1  0
 29 30  1  0
 29 31  1  0
 29 32  1  0
 32 33  1  0
 32 34  1  0
 32 35  1  0
 35 36  2  0
 36 37  1  0
 36 38  1  0
 38 39  1  0
 38 40  2  0
 40 41  1  0
 40 42  1  0
 42 43  1  0
 42 44  2  0
 44 45  1  0
 14 46  1  0
 46 47  1  0
 46 48  2  0
 48 49  1  0
  4 50  1  0
 50 51  1  0
 51 52  1  0
 51  2  2  0
 48  9  1  0
 28 19  1  0
 44 35  1  0
M  CHG  1   3  -1
M  END
>  <UniqueID>  (46) 
44

>  <SMILES>  (46) 
O=C(Nc1ccc(S(=O)(=O)/N=c2\[n-]ccs2)cc1)c1ccccc1CCc1ccccc1

>  <Energy>  (46) 
95.85488518616886

>  <Genealogy>  (46) 
O=C(Nc1ccc(S(=O)(=O)N=c2[n-]ccs2)cc1)c1ccccc1CCc1ccccc1 (protonated)
O=C(Nc1ccc(S(=O)(=O)/N=c2\[n-]ccs2)cc1)c1ccccc1CCc1ccccc1 (cis-trans isomerization)
O=C(Nc1ccc(S(=O)(=O)/N=c2\[n-]ccs2)cc1)c1ccccc1CCc1ccccc1 (3D coordinates assigned)
O=C(Nc1ccc(S(=O)(=O)/N=c2\[n-]ccs2)cc1)c1ccccc1CCc1ccccc1 (optimized conformer: 95.85488518616886 kcal/mol)

>  <smiles>  (46) 
O=C(Nc1ccc(S(=O)(=O)N=c2[nH]ccs2)cc1)c1ccccc1CCc1ccccc1

>  <score_type>  (46) 
oracle

>  <origin>  (46) 
adgpu

>  <m_score__min__energy>  (46) 
-11.31

>  <m_primary>  (46) 
energy

$$$$
46:0
     RDKit          3D

 60 63  0  0  0  0  0  0  0  0999 V2000
   -9.0970   19.3310  -32.6280 C   0  0  0  0  0  0  0  0  0  0  0  0
   -8.3490   19.7670  -31.4970 O   0  0  0  0  0  0  0  0  0  0  0  0
   -7.5920   20.9460  -31.4510 C   0  0  0  0  0  0  0  0  0  0  0  0
   -7.9560   21.9320  -30.5330 C   0  0  0  0  0  0  0  0  0  0  0  0
   -7.2370   23.1250  -30.4480 C   0  0  0  0  0  0  0  0  0  0  0  0
   -6.1250   23.3510  -31.2810 C   0  0  0  0  0  0  0  0  0  0  0  0
   -5.3890   24.5440  -31.2130 O   0  0  0  0  0  0  0  0  0  0  0  0
   -5.6780   25.6300  -30.3380 C   0  0  0  0  0  0  0  0  0  0  0  0
   -5.7420   22.3590  -32.2080 C   0  0  0  0  0  0  0  0  0  0  0  0
   -4.5030   22.5190  -33.0640 C   0  0  0  0  0  0  0  0  0  0  0  0
   -3.3960   21.6940  -32.5260 N   0  0  0  0  0  0  0  0  0  0  0  0
   -3.2050   20.4870  -33.1440 C   0  0  0  0  0  0  0  0  0  0  0  0
   -2.3380   19.5260  -32.6300 C   0  0  0  0  0  0  0  0  0  0  0  0
   -2.2610   17.9380  -33.4020 S   0  0  0  0  0  0  0  0  0  0  0  0
   -1.5750   18.0430  -34.7350 O   0  0  0  0  0  0  0  0  0  0  0  0
   -1.4720   16.9890  -32.5410 O   0  0  0  0  0  0  0  0  0  0  0  0
   -3.9020   17.3490  -33.6360 C   0  0  0  0  0  0  0  0  0  0  0  0
   -4.8090   18.1100  -34.3900 C   0  0  0  0  0  0  0  0  0  0  0  0
   -6.1190   17.6590  -34.5790 C   0  0  0  0  0  0  0  0  0  0  0  0
   -6.5300   16.4480  -34.0150 C   0  0  0  0  0  0  0  0  0  0  0  0
   -5.6320   15.6870  -33.2610 C   0  0  0  0  0  0  0  0  0  0  0  0
   -4.3210   16.1350  -33.0700 C   0  0  0  0  0  0  0  0  0  0  0  0
   -1.6300   19.8050  -31.4590 C   0  0  0  0  0  0  0  0  0  0  0  0
   -0.8780   18.9240  -30.9570 O   0  0  0  0  0  0  0  0  0  0  0  0
   -1.7660   21.0620  -30.8440 C   0  0  0  0  0  0  0  0  0  0  0  0
   -1.0390   21.3680  -29.6790 C   0  0  0  0  0  0  0  0  0  0  0  0
   -1.1560   22.6190  -29.0520 C   0  0  0  0  0  0  0  0  0  0  0  0
   -0.4370   22.9120  -27.8820 O   0  0  0  0  0  0  0  0  0  0  0  0
   -0.5640   22.2160  -26.6450 C   0  0  0  0  0  0  0  0  0  0  0  0
   -2.0090   23.5910  -29.6180 C   0  0  0  0  0  0  0  0  0  0  0  0
   -2.1950   24.8820  -29.0850 O   0  0  0  0  0  0  0  0  0  0  0  0
   -1.9880   25.2790  -27.7350 C   0  0  0  0  0  0  0  0  0  0  0  0
   -2.7280   23.2890  -30.7800 C   0  0  0  0  0  0  0  0  0  0  0  0
   -2.6530   22.0210  -31.4020 C   0  0  0  0  0  0  0  0  0  0  0  0
   -6.4850   21.1660  -32.2900 C   0  0  0  0  0  0  0  0  0  0  0  0
  -10.0010   18.8041  -32.2887 H   0  0  0  0  0  0  0  0  0  0  0  0
   -9.3861   20.2021  -33.2344 H   0  0  0  0  0  0  0  0  0  0  0  0
   -8.4815   18.6502  -33.2344 H   0  0  0  0  0  0  0  0  0  0  0  0
   -8.8181   21.7672  -29.8699 H   0  0  0  0  0  0  0  0  0  0  0  0
   -7.5417   23.8951  -29.7241 H   0  0  0  0  0  0  0  0  0  0  0  0
   -5.5886   25.2939  -29.2944 H   0  0  0  0  0  0  0  0  0  0  0  0
   -4.9664   26.4484  -30.5219 H   0  0  0  0  0  0  0  0  0  0  0  0
   -6.7023   25.9865  -30.5219 H   0  0  0  0  0  0  0  0  0  0  0  0
   -4.7282   22.1983  -34.0918 H   0  0  0  0  0  0  0  0  0  0  0  0
   -4.1976   23.5757  -33.0573 H   0  0  0  0  0  0  0  0  0  0  0  0
   -3.7522   20.2703  -34.0733 H   0  0  0  0  0  0  0  0  0  0  0  0
   -4.4882   19.0641  -34.8336 H   0  0  0  0  0  0  0  0  0  0  0  0
   -6.8264   18.2575  -35.1718 H   0  0  0  0  0  0  0  0  0  0  0  0
   -7.5606   16.0936  -34.1645 H   0  0  0  0  0  0  0  0  0  0  0  0
   -5.9570   14.7344  -32.8172 H   0  0  0  0  0  0  0  0  0  0  0  0
   -3.6169   15.5347  -32.4750 H   0  0  0  0  0  0  0  0  0  0  0  0
   -0.3650   20.6116  -29.2504 H   0  0  0  0  0  0  0  0  0  0  0  0
   -0.4351   22.9225  -25.8118 H   0  0  0  0  0  0  0  0  0  0  0  0
   -1.5610   21.7553  -26.5842 H   0  0  0  0  0  0  0  0  0  0  0  0
    0.2061   21.4329  -26.5842 H   0  0  0  0  0  0  0  0  0  0  0  0
   -2.3897   24.5085  -27.0605 H   0  0  0  0  0  0  0  0  0  0  0  0
   -0.9107   25.4025  -27.5502 H   0  0  0  0  0  0  0  0  0  0  0  0
   -2.5035   26.2330  -27.5502 H   0  0  0  0  0  0  0  0  0  0  0  0
   -3.3720   24.0625  -31.2238 H   0  0  0  0  0  0  0  0  0  0  0  0
   -6.1958   20.3957  -33.0200 H   0  0  0  0  0  0  0  0  0  0  0  0
  1  2  1  0
  2  3  1  0
  3  4  2  0
  4  5  1  0
  5  6  2  0
  6  7  1  0
  7  8  1  0
  6  9  1  0
  9 10  1  0
 10 11  1  0
 11 12  1  0
 12 13  2  0
 13 14  1  0
 14 15  2  0
 14 16  2  0
 14 17  1  0
 17 18  2  0
 18 19  1  0
 19 20  2  0
 20 21  1  0
 21 22  2  0
 13 23  1  0
 23 24  2  0
 23 25  1  0
 25 26  2  0
 26 27  1  0
 27 28  1  0
 28 29  1  0
 27 30  2  0
 30 31  1  0
 31 32  1  0
 30 33  1  0
 33 34  2  0
  9 35  2  0
 35  3  1  0
 34 11  1  0
 22 17  1  0
 34 25  1  0
  1 36  1  0
  1 37  1  0
  1 38  1  0
  4 39  1  0
  5 40  1  0
  8 41  1  0
  8 42  1  0
  8 43  1  0
 10 44  1  0
 10 45  1  0
 12 46  1  0
 18 47  1  0
 19 48  1  0
 20 49  1  0
 21 50  1  0
 22 51  1  0
 26 52  1  0
 29 53  1  0
 29 54  1  0
 29 55  1  0
 32 56  1  0
 32 57  1  0
 32 58  1  0
 33 59  1  0
 35 60  1  0
M  END
>  <UniqueID>  (47) 
45

>  <SMILES>  (47) 
COc1ccc(OC)c(Cn2cc(S(=O)(=O)c3ccccc3)c(=O)c3cc(OC)c(OC)cc32)c1

>  <Energy>  (47) 
78.24481618385008

>  <Genealogy>  (47) 
COc1ccc(OC)c(Cn2cc(S(=O)(=O)c3ccccc3)c(=O)c3cc(OC)c(OC)cc32)c1 (3D coordinates assigned)
COc1ccc(OC)c(Cn2cc(S(=O)(=O)c3ccccc3)c(=O)c3cc(OC)c(OC)cc32)c1 (optimized conformer: 78.24481618385008 kcal/mol)

>  <smiles>  (47) 
COc1ccc(OC)c(Cn2cc(S(=O)(=O)c3ccccc3)c(=O)c3cc(OC)c(OC)cc32)c1

>  <score_type>  (47) 
oracle

>  <origin>  (47) 
adgpu

>  <m_score__min__energy>  (47) 
-9.3900000000000006

>  <m_primary>  (47) 
energy

$$$$
47:0
     RDKit          3D

 61 65  0  0  0  0  0  0  0  0999 V2000
   -4.6575   18.7947  -31.7524 H   0  0  0  0  0  0  0  0  0  0  0  0
   -4.1350   19.6670  -32.1720 C   0  0  0  0  0  0  0  0  0  0  0  0
   -4.8410   20.7750  -32.5260 N   0  0  0  0  0  0  0  0  0  0  0  0
   -4.2320   21.8690  -33.0540 C   0  0  0  0  0  0  0  0  0  0  0  0
   -4.8300   22.7493  -33.3324 H   0  0  0  0  0  0  0  0  0  0  0  0
   -2.8480   21.8780  -33.2440 C   0  0  0  0  0  0  0  0  0  0  0  0
   -2.3549   22.7617  -33.6752 H   0  0  0  0  0  0  0  0  0  0  0  0
   -2.0880   20.7510  -32.8810 C   0  0  0  0  0  0  0  0  0  0  0  0
   -0.6200   20.7330  -33.0770 C   0  0  0  0  0  0  0  0  0  0  0  0
   -0.0770   21.5220  -33.8980 O   0  0  0  0  0  0  0  0  0  0  0  0
    0.1880   19.8310  -32.3190 N   0  0  0  0  0  0  0  0  0  0  0  0
   -0.0530   19.5210  -30.9150 C   0  0  0  0  0  0  0  0  0  0  0  0
   -1.0570   19.0836  -30.8113 H   0  0  0  0  0  0  0  0  0  0  0  0
    0.7162   18.8105  -30.5781 H   0  0  0  0  0  0  0  0  0  0  0  0
    0.0360   20.7840  -30.0440 C   0  0  0  0  0  0  0  0  0  0  0  0
    0.0527   20.4888  -28.9845 H   0  0  0  0  0  0  0  0  0  0  0  0
    0.9552   21.3265  -30.3100 H   0  0  0  0  0  0  0  0  0  0  0  0
   -1.1060   21.6670  -30.2750 N   0  0  0  0  0  0  0  0  0  0  0  0
   -1.5270   22.7800  -29.7230 C   0  0  0  0  0  0  0  0  0  0  0  0
   -2.6840   23.3190  -30.3020 C   0  0  0  0  0  0  0  0  0  0  0  0
   -3.2158   22.7472  -31.0768 H   0  0  0  0  0  0  0  0  0  0  0  0
   -3.1760   24.5700  -29.9140 C   0  0  0  0  0  0  0  0  0  0  0  0
   -4.3970   25.1030  -30.4570 N   0  0  0  0  0  0  0  0  0  0  0  0
   -4.6060   26.1080  -30.2620 H   0  0  0  0  0  0  0  0  0  0  0  0
   -5.5190   24.2520  -30.7200 C   0  0  0  0  0  0  0  0  0  0  0  0
   -6.1920   24.3200  -31.9470 C   0  0  0  0  0  0  0  0  0  0  0  0
   -5.9633   25.1301  -32.6551 H   0  0  0  0  0  0  0  0  0  0  0  0
   -7.1540   23.3590  -32.2720 C   0  0  0  0  0  0  0  0  0  0  0  0
   -7.6686   23.4042  -33.2432 H   0  0  0  0  0  0  0  0  0  0  0  0
   -7.4640   22.3390  -31.3640 C   0  0  0  0  0  0  0  0  0  0  0  0
   -8.4830   21.0000  -31.8830 S   0  0  0  0  0  0  0  0  0  0  0  0
   -8.7340   20.0370  -30.7560 O   0  0  0  0  0  0  0  0  0  0  0  0
   -9.8010   21.5450  -32.3580 O   0  0  0  0  0  0  0  0  0  0  0  0
   -7.6990   20.1690  -33.1920 N   0  0  0  0  0  0  0  0  0  0  0  0
   -7.0970   19.0140  -33.1230 C   0  0  0  0  0  0  0  0  0  0  0  0
   -6.4740   18.5390  -34.2350 N   0  0  0  0  0  0  0  0  0  0  0  0
   -5.8010   17.3600  -34.2200 C   0  0  0  0  0  0  0  0  0  0  0  0
   -5.3059   16.9970  -35.1328 H   0  0  0  0  0  0  0  0  0  0  0  0
   -5.7380   16.6100  -33.0470 C   0  0  0  0  0  0  0  0  0  0  0  0
   -5.1886   15.6575  -33.0164 H   0  0  0  0  0  0  0  0  0  0  0  0
   -6.3870   17.0950  -31.9150 C   0  0  0  0  0  0  0  0  0  0  0  0
   -6.3575   16.5216  -30.9767 H   0  0  0  0  0  0  0  0  0  0  0  0
   -7.0580   18.2780  -31.9680 N   0  0  0  0  0  0  0  0  0  0  0  0
   -7.5480   18.5870  -31.1020 H   0  0  0  0  0  0  0  0  0  0  0  0
   -6.8580   22.3270  -30.0990 C   0  0  0  0  0  0  0  0  0  0  0  0
   -7.1472   21.5673  -29.3579 H   0  0  0  0  0  0  0  0  0  0  0  0
   -5.8870   23.2800  -29.7800 C   0  0  0  0  0  0  0  0  0  0  0  0
   -5.4104   23.2672  -28.7887 H   0  0  0  0  0  0  0  0  0  0  0  0
   -2.5050   25.2810  -28.9780 N   0  0  0  0  0  0  0  0  0  0  0  0
   -1.4040   24.8010  -28.3460 C   0  0  0  0  0  0  0  0  0  0  0  0
   -0.8080   25.5920  -27.3580 C   0  0  0  0  0  0  0  0  0  0  0  0
   -1.1905   26.6047  -27.1630 H   0  0  0  0  0  0  0  0  0  0  0  0
    0.2660   25.1040  -26.6210 C   0  0  0  0  0  0  0  0  0  0  0  0
    0.7475   25.7390  -25.8627 H   0  0  0  0  0  0  0  0  0  0  0  0
    0.7300   23.8130  -26.8440 C   0  0  0  0  0  0  0  0  0  0  0  0
    1.7330   23.3170  -26.0770 F   0  0  0  0  0  0  0  0  0  0  0  0
    0.1520   23.0130  -27.8340 C   0  0  0  0  0  0  0  0  0  0  0  0
    0.5187   21.9865  -27.9819 H   0  0  0  0  0  0  0  0  0  0  0  0
   -0.8990   23.5020  -28.6510 C   0  0  0  0  0  0  0  0  0  0  0  0
   -2.7480   19.6340  -32.3400 C   0  0  0  0  0  0  0  0  0  0  0  0
   -2.1765   18.7397  -32.0508 H   0  0  0  0  0  0  0  0  0  0  0  0
  1  2  1  0
  2  3  2  0
  3  4  1  0
  4  5  1  0
  4  6  2  0
  6  7  1  0
  6  8  1  0
  8  9  1  0
  9 10  2  0
  9 11  1  0
 11 12  1  0
 12 13  1  0
 12 14  1  0
 12 15  1  0
 15 16  1  0
 15 17  1  0
 15 18  1  0
 18 19  2  3
 19 20  1  0
 20 21  1  0
 20 22  2  0
 22 23  1  0
 23 24  1  0
 23 25  1  0
 25 26  2  0
 26 27  1  0
 26 28  1  0
 28 29  1  0
 28 30  2  0
 30 31  1  0
 31 32  2  0
 31 33  2  0
 31 34  1  0
 34 35  2  0
 35 36  1  0
 36 37  2  0
 37 38  1  0
 37 39  1  0
 39 40  1  0
 39 41  2  0
 41 42  1  0
 41 43  1  0
 43 44  1  0
 30 45  1  0
 45 46  1  0
 45 47  2  0
 47 48  1  0
 22 49  1  0
 49 50  1  0
 50 51  2  0
 51 52  1  0
 51 53  1  0
 53 54  1  0
 53 55  2  0
 55 56  1  0
 55 57  1  0
 57 58  1  0
 57 59  2  0
  8 60  2  0
 60 61  1  0
 60  2  1  0
 59 19  1  0
 47 25  1  0
 59 50  1  0
 43 35  1  0
M  CHG  2  11  -1  49  -1
M  END
>  <UniqueID>  (48) 
46

>  <SMILES>  (48) 
O=C([N-]CCN=c1cc(Nc2ccc(S(=O)(=O)/N=c3/nccc[nH]3)cc2)[n-]c2ccc(F)cc12)c1ccncc1

>  <Energy>  (48) 
99.76698011023956

>  <Genealogy>  (48) 
O=C([N-]CCN=c1cc(Nc2ccc(S(=O)(=O)N=c3nccc[nH]3)cc2)[n-]c2ccc(F)cc12)c1ccncc1 (protonated)
O=C([N-]CCN=c1cc(Nc2ccc(S(=O)(=O)/N=c3/nccc[nH]3)cc2)[n-]c2ccc(F)cc12)c1ccncc1 (cis-trans isomerization)
O=C([N-]CCN=c1cc(Nc2ccc(S(=O)(=O)/N=c3/nccc[nH]3)cc2)[n-]c2ccc(F)cc12)c1ccncc1 (3D coordinates assigned)
O=C([N-]CCN=c1cc(Nc2ccc(S(=O)(=O)/N=c3/nccc[nH]3)cc2)[n-]c2ccc(F)cc12)c1ccncc1 (optimized conformer: 99.76698011023956 kcal/mol)

>  <smiles>  (48) 
O=C(NCCN=c1cc(Nc2ccc(S(=O)(=O)N=c3nccc[nH]3)cc2)[nH]c2ccc(F)cc12)c1ccncc1

>  <score_type>  (48) 
oracle

>  <origin>  (48) 
adgpu

>  <m_score__min__energy>  (48) 
-12.93

>  <m_primary>  (48) 
energy

$$$$
48:0
     RDKit          3D

 57 60  0  0  0  0  0  0  0  0999 V2000
    0.1210   17.6080  -27.5910 C   0  0  0  0  0  0  0  0  0  0  0  0
   -0.5400   18.9530  -27.5210 C   0  0  0  0  0  0  0  0  0  0  0  0
    0.1710   20.1040  -27.8990 C   0  0  0  0  0  0  0  0  0  0  0  0
   -0.4480   21.3570  -27.8650 C   0  0  0  0  0  0  0  0  0  0  0  0
   -1.7880   21.4700  -27.4650 C   0  0  0  0  0  0  0  0  0  0  0  0
   -2.5530   23.0510  -27.3800 S   0  0  0  0  0  0  0  0  0  0  0  0
   -1.9580   23.8550  -26.2580 O   0  0  0  0  0  0  0  0  0  0  0  0
   -4.0220   22.8790  -27.1050 O   0  0  0  0  0  0  0  0  0  0  0  0
   -2.3260   23.8840  -28.8850 N   0  0  0  0  0  0  0  0  0  0  0  0
   -1.2900   24.9050  -28.9990 C   0  0  0  0  0  0  0  0  0  0  0  0
   -3.3450   23.7840  -29.8870 C   0  0  0  0  0  0  0  0  0  0  0  0
   -4.4850   24.5810  -29.7710 C   0  0  0  0  0  0  0  0  0  0  0  0
   -5.5510   24.4170  -30.6460 C   0  0  0  0  0  0  0  0  0  0  0  0
   -5.5090   23.4450  -31.6530 C   0  0  0  0  0  0  0  0  0  0  0  0
   -6.6860   23.2150  -32.4400 N   0  0  0  0  0  0  0  0  0  0  0  0
   -7.9600   22.2190  -31.8180 S   0  0  0  0  0  0  0  0  0  0  0  0
   -9.2850   22.6940  -32.3500 O   0  0  0  0  0  0  0  0  0  0  0  0
   -7.9710   22.3020  -30.3160 O   0  0  0  0  0  0  0  0  0  0  0  0
   -7.6850   20.5610  -32.3520 C   0  0  0  0  0  0  0  0  0  0  0  0
   -8.2150   19.4800  -31.6370 C   0  0  0  0  0  0  0  0  0  0  0  0
   -7.9020   18.1680  -32.0100 C   0  0  0  0  0  0  0  0  0  0  0  0
   -7.0430   17.9240  -33.0970 C   0  0  0  0  0  0  0  0  0  0  0  0
   -6.6750   16.5200  -33.4780 C   0  0  0  0  0  0  0  0  0  0  0  0
   -6.5130   19.0100  -33.8120 C   0  0  0  0  0  0  0  0  0  0  0  0
   -5.6670   18.8000  -34.8540 F   0  0  0  0  0  0  0  0  0  0  0  0
   -6.8440   20.3200  -33.4500 C   0  0  0  0  0  0  0  0  0  0  0  0
   -4.3490   22.6510  -31.8110 C   0  0  0  0  0  0  0  0  0  0  0  0
   -4.2700   21.6470  -32.7980 C   0  0  0  0  0  0  0  0  0  0  0  0
   -3.1180   20.8690  -32.9290 C   0  0  0  0  0  0  0  0  0  0  0  0
   -2.0340   21.0720  -32.0790 C   0  0  0  0  0  0  0  0  0  0  0  0
   -2.0970   22.0450  -31.0840 C   0  0  0  0  0  0  0  0  0  0  0  0
   -3.2530   22.8330  -30.9240 C   0  0  0  0  0  0  0  0  0  0  0  0
   -2.5040   20.3220  -27.1000 C   0  0  0  0  0  0  0  0  0  0  0  0
   -1.8860   19.0680  -27.1380 C   0  0  0  0  0  0  0  0  0  0  0  0
    0.3039   17.2359  -26.5721 H   0  0  0  0  0  0  0  0  0  0  0  0
   -0.5342   16.9049  -28.1261 H   0  0  0  0  0  0  0  0  0  0  0  0
    1.0779   17.6971  -28.1261 H   0  0  0  0  0  0  0  0  0  0  0  0
    1.2188   20.0191  -28.2230 H   0  0  0  0  0  0  0  0  0  0  0  0
    0.1167   22.2562  -28.1524 H   0  0  0  0  0  0  0  0  0  0  0  0
   -0.9719   25.2185  -27.9937 H   0  0  0  0  0  0  0  0  0  0  0  0
   -0.4281   24.4935  -29.5446 H   0  0  0  0  0  0  0  0  0  0  0  0
   -1.6889   25.7728  -29.5446 H   0  0  0  0  0  0  0  0  0  0  0  0
   -4.5395   25.3444  -28.9809 H   0  0  0  0  0  0  0  0  0  0  0  0
   -6.4391   25.0585  -30.5467 H   0  0  0  0  0  0  0  0  0  0  0  0
   -6.7110   23.4870  -33.4470 H   0  0  0  0  0  0  0  0  0  0  0  0
   -8.8794   19.6626  -30.7795 H   0  0  0  0  0  0  0  0  0  0  0  0
   -8.3299   17.3232  -31.4503 H   0  0  0  0  0  0  0  0  0  0  0  0
   -6.5183   15.9222  -32.5680 H   0  0  0  0  0  0  0  0  0  0  0  0
   -7.4873   16.0766  -34.0727 H   0  0  0  0  0  0  0  0  0  0  0  0
   -5.7497   16.5320  -34.0727 H   0  0  0  0  0  0  0  0  0  0  0  0
   -6.4434   21.1655  -34.0285 H   0  0  0  0  0  0  0  0  0  0  0  0
   -5.1233   21.4752  -33.4706 H   0  0  0  0  0  0  0  0  0  0  0  0
   -3.0666   20.0927  -33.7067 H   0  0  0  0  0  0  0  0  0  0  0  0
   -1.1255   20.4625  -32.1935 H   0  0  0  0  0  0  0  0  0  0  0  0
   -1.2358   22.1991  -30.4172 H   0  0  0  0  0  0  0  0  0  0  0  0
   -3.5539   20.4073  -26.7831 H   0  0  0  0  0  0  0  0  0  0  0  0
   -2.4569   18.1678  -26.8666 H   0  0  0  0  0  0  0  0  0  0  0  0
  1  2  1  0
  2  3  2  0
  3  4  1  0
  4  5  2  0
  5  6  1  0
  6  7  2  0
  6  8  2  0
  6  9  1  0
  9 10  1  0
  9 11  1  0
 11 12  2  0
 12 13  1  0
 13 14  2  0
 14 15  1  0
 15 16  1  0
 16 17  2  0
 16 18  2  0
 16 19  1  0
 19 20  2  0
 20 21  1  0
 21 22  2  0
 22 23  1  0
 22 24  1  0
 24 25  1  0
 24 26  2  0
 14 27  1  0
 27 28  2  0
 28 29  1  0
 29 30  2  0
 30 31  1  0
 31 32  2  0
  5 33  1  0
 33 34  2  0
 34  2  1  0
 32 11  1  0
 26 19  1  0
 32 27  1  0
  1 35  1  0
  1 36  1  0
  1 37  1  0
  3 38  1  0
  4 39  1  0
 10 40  1  0
 10 41  1  0
 10 42  1  0
 12 43  1  0
 13 44  1  0
 15 45  1  0
 20 46  1  0
 21 47  1  0
 23 48  1  0
 23 49  1  0
 23 50  1  0
 26 51  1  0
 28 52  1  0
 29 53  1  0
 30 54  1  0
 31 55  1  0
 33 56  1  0
 34 57  1  0
M  END
>  <UniqueID>  (49) 
47

>  <SMILES>  (49) 
Cc1ccc(S(=O)(=O)N(C)c2ccc(NS(=O)(=O)c3ccc(C)c(F)c3)c3ccccc23)cc1

>  <Energy>  (49) 
74.64788510581852

>  <Genealogy>  (49) 
Cc1ccc(S(=O)(=O)N(C)c2ccc(NS(=O)(=O)c3ccc(C)c(F)c3)c3ccccc23)cc1 (3D coordinates assigned)
Cc1ccc(S(=O)(=O)N(C)c2ccc(NS(=O)(=O)c3ccc(C)c(F)c3)c3ccccc23)cc1 (optimized conformer: 74.64788510581852 kcal/mol)

>  <smiles>  (49) 
Cc1ccc(S(=O)(=O)N(C)c2ccc(NS(=O)(=O)c3ccc(C)c(F)c3)c3ccccc23)cc1

>  <score_type>  (49) 
oracle

>  <origin>  (49) 
adgpu

>  <m_score__min__energy>  (49) 
-12.369999999999999

>  <m_primary>  (49) 
energy

$$$$
