0:0
     RDKit          3D

 35 37  0  0  0  0  0  0  0  0999 V2000
   -7.1962   25.2932  -31.4531 H   0  0  0  0  0  0  0  0  0  0  0  0
   -6.4310   24.5440  -31.2020 C   0  0  0  0  0  0  0  0  0  0  0  0
   -6.0890   23.5570  -32.1310 C   0  0  0  0  0  0  0  0  0  0  0  0
   -6.5705   23.5458  -33.1200 H   0  0  0  0  0  0  0  0  0  0  0  0
   -5.1370   22.5830  -31.8090 C   0  0  0  0  0  0  0  0  0  0  0  0
   -4.7630   21.6120  -32.7950 N   0  0  0  0  0  0  0  0  0  0  0  0
   -5.3070   20.4600  -33.0970 C   0  0  0  0  0  0  0  0  0  0  0  0
   -4.5170   19.5810  -33.8330 C   0  0  0  0  0  0  0  0  0  0  0  0
   -3.5754   19.9363  -34.2769 H   0  0  0  0  0  0  0  0  0  0  0  0
   -4.9060   18.2610  -34.0120 C   0  0  0  0  0  0  0  0  0  0  0  0
   -4.2521   17.5791  -34.5754 H   0  0  0  0  0  0  0  0  0  0  0  0
   -6.0830   17.7900  -33.5040 N   0  0  0  0  0  0  0  0  0  0  0  0
   -6.3730   16.3550  -33.7050 C   0  0  0  0  0  0  0  0  0  0  0  0
   -6.4661   16.1525  -34.7822 H   0  0  0  0  0  0  0  0  0  0  0  0
   -7.3121   16.1076  -33.1884 H   0  0  0  0  0  0  0  0  0  0  0  0
   -5.2530   15.4940  -33.1280 C   0  0  0  0  0  0  0  0  0  0  0  0
   -5.2948   15.5261  -32.0293 H   0  0  0  0  0  0  0  0  0  0  0  0
   -5.3758   14.4556  -33.4694 H   0  0  0  0  0  0  0  0  0  0  0  0
   -4.2810   15.8797  -33.4694 H   0  0  0  0  0  0  0  0  0  0  0  0
   -6.9470   18.6460  -32.8450 C   0  0  0  0  0  0  0  0  0  0  0  0
   -8.1920   18.1980  -32.3360 C   0  0  0  0  0  0  0  0  0  0  0  0
   -8.4358   17.1258  -32.3672 H   0  0  0  0  0  0  0  0  0  0  0  0
   -9.1110   19.0950  -31.7970 C   0  0  0  0  0  0  0  0  0  0  0  0
  -10.0605   18.7250  -31.3829 H   0  0  0  0  0  0  0  0  0  0  0  0
   -8.8320   20.4540  -31.7810 C   0  0  0  0  0  0  0  0  0  0  0  0
   -9.5831   21.1637  -31.4038 H   0  0  0  0  0  0  0  0  0  0  0  0
   -7.6040   20.9220  -32.2410 C   0  0  0  0  0  0  0  0  0  0  0  0
   -7.4083   22.0044  -32.2555 H   0  0  0  0  0  0  0  0  0  0  0  0
   -6.6040   20.0280  -32.6900 C   0  0  0  0  0  0  0  0  0  0  0  0
   -4.4770   22.6450  -30.5690 C   0  0  0  0  0  0  0  0  0  0  0  0
   -3.6884   21.9161  -30.3307 H   0  0  0  0  0  0  0  0  0  0  0  0
   -4.8200   23.6310  -29.6370 C   0  0  0  0  0  0  0  0  0  0  0  0
   -4.0080   23.6770  -28.0810 Cl  0  0  0  0  0  0  0  0  0  0  0  0
   -5.8010   24.5800  -29.9530 C   0  0  0  0  0  0  0  0  0  0  0  0
   -6.1390   25.5410  -29.0580 F   0  0  0  0  0  0  0  0  0  0  0  0
  1  2  1  0
  2  3  2  0
  3  4  1  0
  3  5  1  0
  5  6  1  0
  6  7  2  0
  7  8  1  0
  8  9  1  0
  8 10  2  0
 10 11  1  0
 10 12  1  0
 12 13  1  0
 13 14  1  0
 13 15  1  0
 13 16  1  0
 16 17  1  0
 16 18  1  0
 16 19  1  0
 12 20  1  0
 20 21  2  0
 21 22  1  0
 21 23  1  0
 23 24  1  0
 23 25  2  0
 25 26  1  0
 25 27  1  0
 27 28  1  0
 27 29  2  0
  5 30  2  0
 30 31  1  0
 30 32  1  0
 32 33  1  0
 32 34  2  0
 34 35  1  0
 34  2  1  0
 29  7  1  0
 29 20  1  0
M  END
>  <UniqueID>  (1) 
1

>  <SMILES>  (1) 
CCn1cc/c(=N/c2ccc(F)c(Cl)c2)c2ccccc21

>  <Energy>  (1) 
64.13587338759464

>  <Genealogy>  (1) 
CCn1cc/c(=N/c2ccc(F)c(Cl)c2)c2ccccc21 (cis-trans isomerization)
CCn1cc/c(=N/c2ccc(F)c(Cl)c2)c2ccccc21 (3D coordinates assigned)
CCn1cc/c(=N/c2ccc(F)c(Cl)c2)c2ccccc21 (optimized conformer: 64.13587338759464 kcal/mol)

>  <smiles>  (1) 
CCn1ccc(=Nc2ccc(F)c(Cl)c2)c2ccccc21

>  <score_type>  (1) 
oracle

>  <origin>  (1) 
adgpu

>  <m_score__min__energy>  (1) 
-8.0299999999999994

>  <m_primary>  (1) 
energy

$$$$
1:0
     RDKit          3D

 42 45  0  0  1  0  0  0  0  0999 V2000
   -4.7260   17.4100  -32.7900 N   0  0  0  0  0  0  0  0  0  0  0  0
   -6.2570   17.8180  -33.4930 S   0  0  0  0  0  0  0  0  0  0  0  0
   -7.2350   16.7410  -33.1110 O   0  0  0  0  0  0  0  0  0  0  0  0
   -6.0400   17.8860  -34.9700 O   0  0  0  0  0  0  0  0  0  0  0  0
   -6.7350   19.3520  -32.8190 C   0  0  0  0  0  0  0  0  0  0  0  0
   -7.8570   19.5290  -32.0460 C   0  0  0  0  0  0  0  0  0  0  0  0
   -8.2070   20.7760  -31.5230 C   0  0  0  0  0  0  0  0  0  0  0  0
   -7.4130   21.8540  -31.7830 C   0  0  0  0  0  0  0  0  0  0  0  0
   -7.6590   23.1710  -31.3100 N   0  0  0  0  0  0  0  0  0  0  0  0
   -6.7640   23.7360  -30.5680 C   0  0  0  0  0  0  0  0  0  0  0  0
   -5.5770   23.2640  -30.1450 N   0  0  0  0  0  0  0  0  0  0  0  0
   -5.0260   24.2400  -29.3980 C   0  0  0  0  0  0  0  0  0  0  0  0
   -3.7310   24.1870  -28.7230 C   0  0  0  0  0  0  0  0  0  0  0  0
   -2.5660   23.8120  -29.3620 C   0  0  0  0  0  0  0  0  0  0  0  0
   -1.3590   23.7840  -28.6530 C   0  0  0  0  0  0  0  0  0  0  0  0
   -1.3140   24.1280  -27.3160 C   0  0  0  0  0  0  0  0  0  0  0  0
   -0.1170   24.1170  -26.5490 N   0  0  0  0  0  0  0  0  0  0  0  0
   -0.0150   24.1030  -25.2030 C   0  0  0  0  0  0  0  0  0  0  0  0
    1.3350   24.0960  -24.9210 C   0  0  0  0  0  0  0  0  0  0  0  0
    2.0450   24.1060  -26.0790 N   0  0  0  0  0  0  0  0  0  0  0  0
    1.1170   24.1190  -27.0800 C   0  0  0  0  0  0  0  0  0  0  0  0
   -2.4690   24.5030  -26.6750 C   0  0  0  0  0  0  0  0  0  0  0  0
   -3.6510   24.5240  -27.3910 C   0  0  0  0  0  0  0  0  0  0  0  0
   -5.8960   25.2920  -29.3840 N   0  0  0  0  0  0  0  0  0  0  0  0
   -6.9510   24.9970  -30.0890 N   0  0  0  0  0  0  0  0  0  0  0  0
   -6.2860   21.6660  -32.5620 C   0  0  0  0  0  0  0  0  0  0  0  0
   -5.9220   20.4500  -33.0880 C   0  0  0  0  0  0  0  0  0  0  0  0
   -4.7770   16.6220  -32.1280 H   0  0  0  0  0  0  0  0  0  0  0  0
   -4.3290   18.2200  -32.2860 H   0  0  0  0  0  0  0  0  0  0  0  0
   -8.4994   18.6620  -31.8324 H   0  0  0  0  0  0  0  0  0  0  0  0
   -9.1126   20.8873  -30.9085 H   0  0  0  0  0  0  0  0  0  0  0  0
   -2.5861   23.5356  -30.4265 H   0  0  0  0  0  0  0  0  0  0  0  0
   -0.4342   23.4840  -29.1676 H   0  0  0  0  0  0  0  0  0  0  0  0
   -0.8418   24.0982  -24.4775 H   0  0  0  0  0  0  0  0  0  0  0  0
    1.7709   24.0841  -23.9111 H   0  0  0  0  0  0  0  0  0  0  0  0
    1.3446   24.1295  -28.1561 H   0  0  0  0  0  0  0  0  0  0  0  0
   -2.4538   24.7816  -25.6110 H   0  0  0  0  0  0  0  0  0  0  0  0
   -4.5725   24.8247  -26.8710 H   0  0  0  0  0  0  0  0  0  0  0  0
   -5.7360   26.1920  -28.8840 H   0  0  0  0  0  0  0  0  0  0  0  0
   -7.7590   25.6130  -30.2410 H   0  0  0  0  0  0  0  0  0  0  0  0
   -5.6469   22.5364  -32.7717 H   0  0  0  0  0  0  0  0  0  0  0  0
   -5.0158   20.3470  -33.7030 H   0  0  0  0  0  0  0  0  0  0  0  0
  1  2  1  0
  2  3  2  0
  2  4  2  0
  2  5  1  0
  5  6  2  0
  6  7  1  0
  7  8  2  0
  8  9  1  0
  9 10  2  0
 10 11  1  0
 11 12  2  0
 12 13  1  0
 13 14  2  0
 14 15  1  0
 15 16  2  0
 16 17  1  0
 17 18  1  0
 18 19  2  0
 19 20  1  0
 20 21  2  0
 16 22  1  0
 22 23  2  0
 12 24  1  0
 24 25  1  0
  8 26  1  0
 26 27  2  0
 27  5  1  0
 25 10  1  0
 23 13  1  0
 21 17  1  0
  1 28  1  0
  1 29  1  0
  6 30  1  0
  7 31  1  0
 14 32  1  0
 15 33  1  0
 18 34  1  0
 19 35  1  0
 21 36  1  0
 22 37  1  0
 23 38  1  0
 24 39  1  0
 25 40  1  0
 26 41  1  0
 27 42  1  0
M  END
>  <smiles>  (2) 
NS(=O)(=O)c1ccc(N=c2nc(-c3ccc(-n4ccnc4)cc3)[nH][nH]2)cc1

>  <score_type>  (2) 
oracle

>  <origin>  (2) 
adgpu

>  <m_score__min__energy>  (2) 
-8.4399999999999995

>  <m_primary>  (2) 
energy

$$$$
2:0
     RDKit          3D

 28 29  0  0  0  0  0  0  0  0999 V2000
   -2.9340   25.0570  -29.4070 N   0  0  0  0  0  0  0  0  0  0  0  0
   -3.3270   23.9140  -30.1730 C   0  0  0  0  0  0  0  0  0  0  0  0
   -2.4130   22.8810  -30.4180 C   0  0  0  0  0  0  0  0  0  0  0  0
   -2.7970   21.7650  -31.1680 C   0  0  0  0  0  0  0  0  0  0  0  0
   -4.0950   21.6680  -31.6850 C   0  0  0  0  0  0  0  0  0  0  0  0
   -4.4250   20.5270  -32.4350 O   0  0  0  0  0  0  0  0  0  0  0  0
   -5.4760   20.4420  -33.3980 C   0  0  0  0  0  0  0  0  0  0  0  0
   -6.7460   19.9100  -32.7710 C   0  0  0  0  0  0  0  0  0  0  0  0
   -7.7510   20.8000  -32.3380 C   0  0  0  0  0  0  0  0  0  0  0  0
   -7.5940   22.1430  -32.4630 F   0  0  0  0  0  0  0  0  0  0  0  0
   -8.9270   20.3120  -31.7620 C   0  0  0  0  0  0  0  0  0  0  0  0
   -9.1120   18.9390  -31.5990 C   0  0  0  0  0  0  0  0  0  0  0  0
   -8.1180   18.0480  -32.0030 C   0  0  0  0  0  0  0  0  0  0  0  0
   -6.9340   18.5210  -32.5810 C   0  0  0  0  0  0  0  0  0  0  0  0
   -5.7040   17.3450  -33.0350 Cl  0  0  0  0  0  0  0  0  0  0  0  0
   -5.0140   22.7030  -31.4320 C   0  0  0  0  0  0  0  0  0  0  0  0
   -4.6290   23.8200  -30.6820 C   0  0  0  0  0  0  0  0  0  0  0  0
   -3.4240   25.2970  -28.5160 H   0  0  0  0  0  0  0  0  0  0  0  0
   -2.1520   25.6710  -29.7260 H   0  0  0  0  0  0  0  0  0  0  0  0
   -1.3900   22.9480  -30.0192 H   0  0  0  0  0  0  0  0  0  0  0  0
   -2.0740   20.9570  -31.3534 H   0  0  0  0  0  0  0  0  0  0  0  0
   -5.6699   21.4442  -33.8079 H   0  0  0  0  0  0  0  0  0  0  0  0
   -5.1643   19.7522  -34.1961 H   0  0  0  0  0  0  0  0  0  0  0  0
   -9.7095   21.0130  -31.4360 H   0  0  0  0  0  0  0  0  0  0  0  0
  -10.0423   18.5589  -31.1516 H   0  0  0  0  0  0  0  0  0  0  0  0
   -8.2654   16.9665  -31.8666 H   0  0  0  0  0  0  0  0  0  0  0  0
   -6.0390   22.6339  -31.8252 H   0  0  0  0  0  0  0  0  0  0  0  0
   -5.3514   24.6273  -30.4913 H   0  0  0  0  0  0  0  0  0  0  0  0
  1  2  1  0
  2  3  2  0
  3  4  1  0
  4  5  2  0
  5  6  1  0
  6  7  1  0
  7  8  1  0
  8  9  2  0
  9 10  1  0
  9 11  1  0
 11 12  2  0
 12 13  1  0
 13 14  2  0
 14 15  1  0
  5 16  1  0
 16 17  2  0
 17  2  1  0
 14  8  1  0
  1 18  1  0
  1 19  1  0
  3 20  1  0
  4 21  1  0
  7 22  1  0
  7 23  1  0
 11 24  1  0
 12 25  1  0
 13 26  1  0
 16 27  1  0
 17 28  1  0
M  END
>  <UniqueID>  (3) 
2

>  <SMILES>  (3) 
Nc1ccc(OCc2c(F)cccc2Cl)cc1

>  <Energy>  (3) 
29.53003821389253

>  <Genealogy>  (3) 
Nc1ccc(OCc2c(F)cccc2Cl)cc1 (3D coordinates assigned)
Nc1ccc(OCc2c(F)cccc2Cl)cc1 (optimized conformer: 29.53003821389253 kcal/mol)

>  <smiles>  (3) 
Nc1ccc(OCc2c(F)cccc2Cl)cc1

>  <score_type>  (3) 
oracle

>  <origin>  (3) 
adgpu

>  <m_score__min__energy>  (3) 
-6.7699999999999996

>  <m_primary>  (3) 
energy

$$$$
3:0
     RDKit          3D

 39 41  0  0  0  0  0  0  0  0999 V2000
    1.1626   24.6290  -27.6711 H   0  0  0  0  0  0  0  0  0  0  0  0
    0.1670   24.1890  -27.8300 C   0  0  0  0  0  0  0  0  0  0  0  0
   -0.7150   24.7910  -28.6720 N   0  0  0  0  0  0  0  0  0  0  0  0
   -1.9590   24.2880  -28.9030 C   0  0  0  0  0  0  0  0  0  0  0  0
   -2.7400   24.9230  -29.7300 N   0  0  0  0  0  0  0  0  0  0  0  0
   -4.3530   24.4670  -30.1870 S   0  0  0  0  0  0  0  0  0  0  0  0
   -4.9040   25.5000  -31.1300 O   0  0  0  0  0  0  0  0  0  0  0  0
   -5.2190   24.4200  -28.9590 O   0  0  0  0  0  0  0  0  0  0  0  0
   -4.3390   22.9060  -31.0010 C   0  0  0  0  0  0  0  0  0  0  0  0
   -5.5150   22.1530  -31.1090 C   0  0  0  0  0  0  0  0  0  0  0  0
   -6.4551   22.5406  -30.6896 H   0  0  0  0  0  0  0  0  0  0  0  0
   -5.4970   20.9110  -31.7480 C   0  0  0  0  0  0  0  0  0  0  0  0
   -6.4268   20.3299  -31.8366 H   0  0  0  0  0  0  0  0  0  0  0  0
   -4.3030   20.3980  -32.2780 C   0  0  0  0  0  0  0  0  0  0  0  0
   -4.3140   19.1260  -32.9480 N   0  0  0  0  0  0  0  0  0  0  0  0
   -3.3960   18.6620  -33.1290 H   0  0  0  0  0  0  0  0  0  0  0  0
   -5.4940   18.5360  -33.5200 C   0  0  0  0  0  0  0  0  0  0  0  0
   -6.4750   19.2700  -33.8230 O   0  0  0  0  0  0  0  0  0  0  0  0
   -5.5540   17.0820  -33.8070 C   0  0  0  0  0  0  0  0  0  0  0  0
   -6.7990   16.4370  -33.9320 C   0  0  0  0  0  0  0  0  0  0  0  0
   -7.7278   17.0159  -33.8214 H   0  0  0  0  0  0  0  0  0  0  0  0
   -6.8630   15.0640  -34.1960 C   0  0  0  0  0  0  0  0  0  0  0  0
   -7.8402   14.5694  -34.2981 H   0  0  0  0  0  0  0  0  0  0  0  0
   -5.6880   14.3210  -34.3300 C   0  0  0  0  0  0  0  0  0  0  0  0
   -5.7510   12.9910  -34.5850 F   0  0  0  0  0  0  0  0  0  0  0  0
   -4.4470   14.9480  -34.1980 C   0  0  0  0  0  0  0  0  0  0  0  0
   -3.5222   14.3615  -34.3019 H   0  0  0  0  0  0  0  0  0  0  0  0
   -4.3770   16.3200  -33.9340 C   0  0  0  0  0  0  0  0  0  0  0  0
   -3.3964   16.8064  -33.8250 H   0  0  0  0  0  0  0  0  0  0  0  0
   -3.1300   21.1710  -32.1900 C   0  0  0  0  0  0  0  0  0  0  0  0
   -2.1927   20.7944  -32.6254 H   0  0  0  0  0  0  0  0  0  0  0  0
   -3.1500   22.4150  -31.5520 C   0  0  0  0  0  0  0  0  0  0  0  0
   -2.2275   23.0101  -31.4829 H   0  0  0  0  0  0  0  0  0  0  0  0
   -2.3500   23.1020  -28.2470 C   0  0  0  0  0  0  0  0  0  0  0  0
   -3.3506   22.6780  -28.4171 H   0  0  0  0  0  0  0  0  0  0  0  0
   -1.4560   22.4710  -27.3800 C   0  0  0  0  0  0  0  0  0  0  0  0
   -1.7506   21.5452  -26.8642 H   0  0  0  0  0  0  0  0  0  0  0  0
   -0.1890   23.0150  -27.1680 C   0  0  0  0  0  0  0  0  0  0  0  0
    0.5208   22.5233  -26.4865 H   0  0  0  0  0  0  0  0  0  0  0  0
  1  2  1  0
  2  3  1  0
  3  4  1  0
  4  5  2  0
  5  6  1  0
  6  7  2  0
  6  8  2  0
  6  9  1  0
  9 10  2  0
 10 11  1  0
 10 12  1  0
 12 13  1  0
 12 14  2  0
 14 15  1  0
 15 16  1  0
 15 17  1  0
 17 18  2  0
 17 19  1  0
 19 20  2  0
 20 21  1  0
 20 22  1  0
 22 23  1  0
 22 24  2  0
 24 25  1  0
 24 26  1  0
 26 27  1  0
 26 28  2  0
 28 29  1  0
 14 30  1  0
 30 31  1  0
 30 32  2  0
 32 33  1  0
  4 34  1  0
 34 35  1  0
 34 36  2  0
 36 37  1  0
 36 38  1  0
 38 39  1  0
 38  2  2  0
 32  9  1  0
 28 19  1  0
M  CHG  1   3  -1
M  END
>  <UniqueID>  (4) 
3

>  <SMILES>  (4) 
O=C(Nc1ccc(S(=O)(=O)/N=c2\cccc[n-]2)cc1)c1ccc(F)cc1

>  <Energy>  (4) 
53.54008427268751

>  <Genealogy>  (4) 
O=C(Nc1ccc(S(=O)(=O)N=c2cccc[n-]2)cc1)c1ccc(F)cc1 (protonated)
O=C(Nc1ccc(S(=O)(=O)/N=c2\cccc[n-]2)cc1)c1ccc(F)cc1 (cis-trans isomerization)
O=C(Nc1ccc(S(=O)(=O)/N=c2\cccc[n-]2)cc1)c1ccc(F)cc1 (3D coordinates assigned)
O=C(Nc1ccc(S(=O)(=O)/N=c2\cccc[n-]2)cc1)c1ccc(F)cc1 (optimized conformer: 53.54008427268751 kcal/mol)

>  <smiles>  (4) 
O=C(Nc1ccc(S(=O)(=O)N=c2cccc[nH]2)cc1)c1ccc(F)cc1

>  <score_type>  (4) 
oracle

>  <origin>  (4) 
adgpu

>  <m_score__min__energy>  (4) 
-9.8900000000000006

>  <m_primary>  (4) 
energy

$$$$
4:0
     RDKit          3D

 49 52  0  0  0  0  0  0  0  0999 V2000
   -4.1420   23.0190  -27.1040 F   0  0  0  0  0  0  0  0  0  0  0  0
   -3.2380   22.4240  -27.9230 C   0  0  0  0  0  0  0  0  0  0  0  0
   -3.0670   21.0380  -27.8520 C   0  0  0  0  0  0  0  0  0  0  0  0
   -2.1360   20.3980  -28.6740 C   0  0  0  0  0  0  0  0  0  0  0  0
   -1.3470   21.1410  -29.5670 C   0  0  0  0  0  0  0  0  0  0  0  0
   -0.3710   20.4530  -30.4850 C   0  0  0  0  0  0  0  0  0  0  0  0
   -0.9510   19.3340  -31.0560 F   0  0  0  0  0  0  0  0  0  0  0  0
    0.0300   21.3010  -31.5030 F   0  0  0  0  0  0  0  0  0  0  0  0
    0.7390   20.0630  -29.7600 F   0  0  0  0  0  0  0  0  0  0  0  0
   -1.5410   22.5310  -29.6570 C   0  0  0  0  0  0  0  0  0  0  0  0
   -2.4820   23.1790  -28.8440 C   0  0  0  0  0  0  0  0  0  0  0  0
   -2.6710   24.6700  -28.9730 C   0  0  0  0  0  0  0  0  0  0  0  0
   -3.4880   24.9830  -30.1470 N   0  0  0  0  0  0  0  0  0  0  0  0
   -4.6940   24.2810  -30.4980 C   0  0  0  0  0  0  0  0  0  0  0  0
   -5.9640   24.7750  -30.1450 C   0  0  0  0  0  0  0  0  0  0  0  0
   -7.1180   24.0680  -30.4890 C   0  0  0  0  0  0  0  0  0  0  0  0
   -7.0220   22.8630  -31.1900 C   0  0  0  0  0  0  0  0  0  0  0  0
   -8.1440   22.1730  -31.5180 N   0  0  0  0  0  0  0  0  0  0  0  0
   -8.0910   20.9960  -32.1950 C   0  0  0  0  0  0  0  0  0  0  0  0
   -6.8550   20.4500  -32.5820 C   0  0  0  0  0  0  0  0  0  0  0  0
   -6.7950   19.1820  -33.2680 N   0  0  0  0  0  0  0  0  0  0  0  0
   -6.1120   19.0370  -34.5580 C   0  0  0  0  0  0  0  0  0  0  0  0
   -5.0690   17.9060  -34.4880 C   0  0  0  0  0  0  0  0  0  0  0  0
   -5.3980   16.8510  -33.5080 N   0  0  0  0  0  0  0  0  0  0  0  0
   -6.8450   16.7110  -33.2970 C   0  0  0  0  0  0  0  0  0  0  0  0
   -7.4210   17.9920  -32.6760 C   0  0  0  0  0  0  0  0  0  0  0  0
   -5.6820   21.1440  -32.2440 C   0  0  0  0  0  0  0  0  0  0  0  0
   -5.7580   22.3610  -31.5530 C   0  0  0  0  0  0  0  0  0  0  0  0
   -4.6020   23.0740  -31.2110 C   0  0  0  0  0  0  0  0  0  0  0  0
   -3.6689   20.4482  -27.1450 H   0  0  0  0  0  0  0  0  0  0  0  0
   -2.0203   19.3054  -28.6213 H   0  0  0  0  0  0  0  0  0  0  0  0
   -0.9473   23.1171  -30.3739 H   0  0  0  0  0  0  0  0  0  0  0  0
   -3.1723   25.0508  -28.0710 H   0  0  0  0  0  0  0  0  0  0  0  0
   -1.6856   25.1452  -29.0880 H   0  0  0  0  0  0  0  0  0  0  0  0
   -3.0890   25.6600  -30.8380 H   0  0  0  0  0  0  0  0  0  0  0  0
   -6.0479   25.7238  -29.5948 H   0  0  0  0  0  0  0  0  0  0  0  0
   -8.1060   24.4610  -30.2072 H   0  0  0  0  0  0  0  0  0  0  0  0
   -9.0228   20.4663  -32.4421 H   0  0  0  0  0  0  0  0  0  0  0  0
   -6.8527   18.7996  -35.3358 H   0  0  0  0  0  0  0  0  0  0  0  0
   -5.6003   19.9804  -34.7993 H   0  0  0  0  0  0  0  0  0  0  0  0
   -4.9920   17.4432  -35.4829 H   0  0  0  0  0  0  0  0  0  0  0  0
   -4.1230   18.3626  -34.1615 H   0  0  0  0  0  0  0  0  0  0  0  0
   -4.9520   17.0910  -32.5910 H   0  0  0  0  0  0  0  0  0  0  0  0
   -7.3359   16.5241  -34.2635 H   0  0  0  0  0  0  0  0  0  0  0  0
   -7.0263   15.8694  -32.6123 H   0  0  0  0  0  0  0  0  0  0  0  0
   -8.5053   18.0258  -32.8581 H   0  0  0  0  0  0  0  0  0  0  0  0
   -7.2160   17.9847  -31.5953 H   0  0  0  0  0  0  0  0  0  0  0  0
   -4.7010   20.7314  -32.5223 H   0  0  0  0  0  0  0  0  0  0  0  0
   -3.6149   22.6861  -31.5028 H   0  0  0  0  0  0  0  0  0  0  0  0
  1  2  1  0
  2  3  2  0
  3  4  1  0
  4  5  2  0
  5  6  1  0
  6  7  1  0
  6  8  1  0
  6  9  1  0
  5 10  1  0
 10 11  2  0
 11 12  1  0
 12 13  1  0
 13 14  1  0
 14 15  2  0
 15 16  1  0
 16 17  2  0
 17 18  1  0
 18 19  2  0
 19 20  1  0
 20 21  1  0
 21 22  1  0
 22 23  1  0
 23 24  1  0
 24 25  1  0
 25 26  1  0
 20 27  2  0
 27 28  1  0
 28 29  2  0
 11  2  1  0
 29 14  1  0
 28 17  1  0
 26 21  1  0
  3 30  1  0
  4 31  1  0
 10 32  1  0
 12 33  1  0
 12 34  1  0
 13 35  1  0
 15 36  1  0
 16 37  1  0
 19 38  1  0
 22 39  1  0
 22 40  1  0
 23 41  1  0
 23 42  1  0
 24 43  1  0
 25 44  1  0
 25 45  1  0
 26 46  1  0
 26 47  1  0
 27 48  1  0
 29 49  1  0
M  END
>  <UniqueID>  (5) 
4

>  <SMILES>  (5) 
Fc1ccc(C(F)(F)F)cc1CNc1ccc2ncc(N3CCNCC3)cc2c1

>  <Energy>  (5) 
64.59732321442313

>  <Genealogy>  (5) 
Fc1ccc(C(F)(F)F)cc1CNc1ccc2ncc(N3CCNCC3)cc2c1 (3D coordinates assigned)
Fc1ccc(C(F)(F)F)cc1CNc1ccc2ncc(N3CCNCC3)cc2c1 (nonaromatic ring conformer: 64.59732321442313 kcal/mol)

>  <smiles>  (5) 
Fc1ccc(C(F)(F)F)cc1CNc1ccc2ncc(N3CCNCC3)cc2c1

>  <score_type>  (5) 
oracle

>  <origin>  (5) 
adgpu

>  <m_score__min__energy>  (5) 
-8.7699999999999996

>  <m_primary>  (5) 
energy

$$$$
5:0
     RDKit          3D

 47 49  0  0  0  0  0  0  0  0999 V2000
   -2.7000   15.0480  -36.4400 C   0  0  0  0  0  0  0  0  0  0  0  0
   -2.8860   16.3060  -35.1940 S   0  0  0  0  0  0  0  0  0  0  0  0
   -2.9060   15.6930  -33.8240 O   0  0  0  0  0  0  0  0  0  0  0  0
   -1.7190   17.2470  -35.2850 O   0  0  0  0  0  0  0  0  0  0  0  0
   -4.3500   17.1970  -35.4710 N   0  0  0  0  0  0  0  0  0  0  0  0
   -5.2650   17.6360  -34.4600 C   0  0  0  0  0  0  0  0  0  0  0  0
   -6.4010   16.8890  -34.1040 C   0  0  0  0  0  0  0  0  0  0  0  0
   -7.2550   17.3450  -33.1000 C   0  0  0  0  0  0  0  0  0  0  0  0
   -6.9890   18.5470  -32.4390 C   0  0  0  0  0  0  0  0  0  0  0  0
   -5.8620   19.3160  -32.7880 C   0  0  0  0  0  0  0  0  0  0  0  0
   -5.5830   20.6030  -32.0960 C   0  0  0  0  0  0  0  0  0  0  0  0
   -6.6090   21.2890  -31.4210 C   0  0  0  0  0  0  0  0  0  0  0  0
   -6.3450   22.4970  -30.7690 C   0  0  0  0  0  0  0  0  0  0  0  0
   -5.0560   23.0450  -30.7860 C   0  0  0  0  0  0  0  0  0  0  0  0
   -4.7180   24.5800  -29.9900 S   0  0  0  0  0  0  0  0  0  0  0  0
   -3.8610   25.4610  -30.8550 O   0  0  0  0  0  0  0  0  0  0  0  0
   -6.0210   25.2860  -29.7270 O   0  0  0  0  0  0  0  0  0  0  0  0
   -3.9150   24.2850  -28.4810 N   0  0  0  0  0  0  0  0  0  0  0  0
   -3.1670   23.1040  -28.1540 C   0  0  0  0  0  0  0  0  0  0  0  0
   -3.7850   21.8400  -28.0880 C   0  0  0  0  0  0  0  0  0  0  0  0
   -3.0420   20.7010  -27.7750 C   0  0  0  0  0  0  0  0  0  0  0  0
   -1.6720   20.8080  -27.5330 C   0  0  0  0  0  0  0  0  0  0  0  0
   -1.0450   22.0570  -27.5870 C   0  0  0  0  0  0  0  0  0  0  0  0
   -1.7850   23.2110  -27.8920 C   0  0  0  0  0  0  0  0  0  0  0  0
   -0.9790   24.7790  -27.9530 S   0  0  0  0  0  0  0  0  0  0  0  0
   -1.5290   25.6610  -29.3360 N   0  0  0  0  0  0  0  0  0  0  0  0
    0.5050   24.5660  -28.0460 O   0  0  0  0  0  0  0  0  0  0  0  0
   -1.2860   25.5750  -26.7160 O   0  0  0  0  0  0  0  0  0  0  0  0
   -4.0310   22.3730  -31.4590 C   0  0  0  0  0  0  0  0  0  0  0  0
   -4.2900   21.1600  -32.1070 C   0  0  0  0  0  0  0  0  0  0  0  0
   -5.0020   18.8430  -33.7980 C   0  0  0  0  0  0  0  0  0  0  0  0
   -2.5555   14.0709  -35.9558 H   0  0  0  0  0  0  0  0  0  0  0  0
   -3.6033   15.0166  -37.0670 H   0  0  0  0  0  0  0  0  0  0  0  0
   -1.8263   15.2793  -37.0670 H   0  0  0  0  0  0  0  0  0  0  0  0
   -6.6173   15.9414  -34.6190 H   0  0  0  0  0  0  0  0  0  0  0  0
   -8.1426   16.7553  -32.8271 H   0  0  0  0  0  0  0  0  0  0  0  0
   -7.6632   18.8943  -31.6422 H   0  0  0  0  0  0  0  0  0  0  0  0
   -7.6267   20.8717  -31.4061 H   0  0  0  0  0  0  0  0  0  0  0  0
   -7.1545   23.0205  -30.2393 H   0  0  0  0  0  0  0  0  0  0  0  0
   -4.8634   21.7499  -28.2850 H   0  0  0  0  0  0  0  0  0  0  0  0
   -3.5359   19.7197  -27.7191 H   0  0  0  0  0  0  0  0  0  0  0  0
   -1.0839   19.9082  -27.2993 H   0  0  0  0  0  0  0  0  0  0  0  0
    0.0342   22.1359  -27.3894 H   0  0  0  0  0  0  0  0  0  0  0  0
   -2.5740   25.6700  -29.2940 H   0  0  0  0  0  0  0  0  0  0  0  0
   -3.0172   22.7994  -31.4792 H   0  0  0  0  0  0  0  0  0  0  0  0
   -3.4758   20.6368  -32.6298 H   0  0  0  0  0  0  0  0  0  0  0  0
   -4.1119   19.4288  -34.0710 H   0  0  0  0  0  0  0  0  0  0  0  0
  1  2  1  0
  2  3  2  0
  2  4  2  0
  2  5  1  0
  5  6  1  0
  6  7  2  0
  7  8  1  0
  8  9  2  0
  9 10  1  0
 10 11  1  0
 11 12  2  0
 12 13  1  0
 13 14  2  0
 14 15  1  0
 15 16  2  0
 15 17  2  0
 15 18  1  0
 18 19  1  0
 19 20  2  0
 20 21  1  0
 21 22  2  0
 22 23  1  0
 23 24  2  0
 24 25  1  0
 25 26  1  0
 25 27  2  0
 25 28  2  0
 14 29  1  0
 29 30  2  0
 10 31  2  0
 31  6  1  0
 30 11  1  0
 24 19  1  0
  1 32  1  0
  1 33  1  0
  1 34  1  0
  7 35  1  0
  8 36  1  0
  9 37  1  0
 12 38  1  0
 13 39  1  0
 20 40  1  0
 21 41  1  0
 22 42  1  0
 23 43  1  0
 26 44  1  0
 29 45  1  0
 30 46  1  0
 31 47  1  0
M  CHG  3   5  -1  18  -1  26  -1
M  END
>  <UniqueID>  (6) 
5

>  <SMILES>  (6) 
CS(=O)(=O)[N-]c1cccc(-c2ccc(S(=O)(=O)[N-]c3ccccc3S([NH-])(=O)=O)cc2)c1

>  <Energy>  (6) 
57.98231687257554

>  <Genealogy>  (6) 
CS(=O)(=O)[N-]c1cccc(-c2ccc(S(=O)(=O)[N-]c3ccccc3S([NH-])(=O)=O)cc2)c1 (protonated)
CS(=O)(=O)[N-]c1cccc(-c2ccc(S(=O)(=O)[N-]c3ccccc3S([NH-])(=O)=O)cc2)c1 (3D coordinates assigned)
CS(=O)(=O)[N-]c1cccc(-c2ccc(S(=O)(=O)[N-]c3ccccc3S([NH-])(=O)=O)cc2)c1 (optimized conformer: 57.98231687257554 kcal/mol)

>  <smiles>  (6) 
CS(=O)(=O)Nc1cccc(-c2ccc(S(=O)(=O)Nc3ccccc3S(N)(=O)=O)cc2)c1

>  <score_type>  (6) 
oracle

>  <origin>  (6) 
adgpu

>  <m_score__min__energy>  (6) 
-12.859999999999999

>  <m_primary>  (6) 
energy

$$$$
6:0
     RDKit          3D

 38 40  0  0  0  0  0  0  0  0999 V2000
   -5.7400   26.2090  -30.1080 C   0  0  0  0  0  0  0  0  0  0  0  0
   -4.8150   25.3740  -30.7940 O   0  0  0  0  0  0  0  0  0  0  0  0
   -5.0570   24.0190  -31.0360 C   0  0  0  0  0  0  0  0  0  0  0  0
   -6.3120   23.4830  -30.7480 C   0  0  0  0  0  0  0  0  0  0  0  0
   -6.5340   22.1240  -30.9980 C   0  0  0  0  0  0  0  0  0  0  0  0
   -7.8790   21.5050  -30.7570 C   0  0  0  0  0  0  0  0  0  0  0  0
   -8.7290   21.1550  -32.3370 S   0  0  0  0  0  0  0  0  0  0  0  0
   -7.7360   19.7130  -32.7370 C   0  0  0  0  0  0  0  0  0  0  0  0
   -7.8450   18.5480  -31.9690 C   0  0  0  0  0  0  0  0  0  0  0  0
   -7.0860   17.4200  -32.2960 C   0  0  0  0  0  0  0  0  0  0  0  0
   -6.2110   17.4550  -33.3890 C   0  0  0  0  0  0  0  0  0  0  0  0
   -5.1810   15.9120  -33.8400 Br  0  0  0  0  0  0  0  0  0  0  0  0
   -6.0940   18.6230  -34.1510 C   0  0  0  0  0  0  0  0  0  0  0  0
   -6.8510   19.7520  -33.8230 C   0  0  0  0  0  0  0  0  0  0  0  0
   -5.5310   21.3670  -31.5160 N   0  0  0  0  0  0  0  0  0  0  0  0
   -4.3140   21.9000  -31.8040 C   0  0  0  0  0  0  0  0  0  0  0  0
   -3.2290   21.0540  -32.3580 C   0  0  0  0  0  0  0  0  0  0  0  0
   -3.5160   20.2140  -33.4500 C   0  0  0  0  0  0  0  0  0  0  0  0
   -2.5200   19.4130  -34.0150 C   0  0  0  0  0  0  0  0  0  0  0  0
   -1.2260   19.4350  -33.4940 C   0  0  0  0  0  0  0  0  0  0  0  0
   -0.9270   20.2510  -32.4020 C   0  0  0  0  0  0  0  0  0  0  0  0
   -1.9150   21.0590  -31.8260 C   0  0  0  0  0  0  0  0  0  0  0  0
   -1.4700   21.9930  -30.4000 Cl  0  0  0  0  0  0  0  0  0  0  0  0
   -4.0860   23.2180  -31.5530 N   0  0  0  0  0  0  0  0  0  0  0  0
   -5.6072   26.0891  -29.0227 H   0  0  0  0  0  0  0  0  0  0  0  0
   -5.5622   27.2585  -30.3854 H   0  0  0  0  0  0  0  0  0  0  0  0
   -6.7659   25.9251  -30.3854 H   0  0  0  0  0  0  0  0  0  0  0  0
   -7.1107   24.1153  -30.3330 H   0  0  0  0  0  0  0  0  0  0  0  0
   -7.7482   20.5641  -30.2024 H   0  0  0  0  0  0  0  0  0  0  0  0
   -8.4918   22.2109  -30.1773 H   0  0  0  0  0  0  0  0  0  0  0  0
   -8.5283   18.5197  -31.1074 H   0  0  0  0  0  0  0  0  0  0  0  0
   -7.1763   16.5039  -31.6939 H   0  0  0  0  0  0  0  0  0  0  0  0
   -5.4059   18.6529  -35.0087 H   0  0  0  0  0  0  0  0  0  0  0  0
   -6.7518   20.6718  -34.4181 H   0  0  0  0  0  0  0  0  0  0  0  0
   -4.5351   20.1876  -33.8632 H   0  0  0  0  0  0  0  0  0  0  0  0
   -2.7565   18.7645  -34.8714 H   0  0  0  0  0  0  0  0  0  0  0  0
   -0.4413   18.8091  -33.9440 H   0  0  0  0  0  0  0  0  0  0  0  0
    0.0931   20.2595  -31.9904 H   0  0  0  0  0  0  0  0  0  0  0  0
  1  2  1  0
  2  3  1  0
  3  4  2  0
  4  5  1  0
  5  6  1  0
  6  7  1  0
  7  8  1  0
  8  9  2  0
  9 10  1  0
 10 11  2  0
 11 12  1  0
 11 13  1  0
 13 14  2  0
  5 15  2  0
 15 16  1  0
 16 17  1  0
 17 18  2  0
 18 19  1  0
 19 20  2  0
 20 21  1  0
 21 22  2  0
 22 23  1  0
 16 24  2  0
 24  3  1  0
 14  8  1  0
 22 17  1  0
  1 25  1  0
  1 26  1  0
  1 27  1  0
  4 28  1  0
  6 29  1  0
  6 30  1  0
  9 31  1  0
 10 32  1  0
 13 33  1  0
 14 34  1  0
 18 35  1  0
 19 36  1  0
 20 37  1  0
 21 38  1  0
M  END
>  <UniqueID>  (7) 
6

>  <SMILES>  (7) 
COc1cc(CSc2ccc(Br)cc2)nc(-c2ccccc2Cl)n1

>  <Energy>  (7) 
37.99899137743996

>  <Genealogy>  (7) 
COc1cc(CSc2ccc(Br)cc2)nc(-c2ccccc2Cl)n1 (3D coordinates assigned)
COc1cc(CSc2ccc(Br)cc2)nc(-c2ccccc2Cl)n1 (optimized conformer: 37.99899137743996 kcal/mol)

>  <smiles>  (7) 
COc1cc(CSc2ccc(Br)cc2)nc(-c2ccccc2Cl)n1

>  <score_type>  (7) 
oracle

>  <origin>  (7) 
adgpu

>  <m_score__min__energy>  (7) 
-8.9299999999999997

>  <m_primary>  (7) 
energy

$$$$
7:0
     RDKit          3D

 44 46  0  0  0  0  0  0  0  0999 V2000
   -4.0610   22.9020  -32.3360 O   0  0  0  0  0  0  0  0  0  0  0  0
   -3.2180   21.7240  -31.9400 S   0  0  0  0  0  0  0  0  0  0  0  0
   -1.8700   21.8950  -32.5880 O   0  0  0  0  0  0  0  0  0  0  0  0
   -3.9260   20.2140  -32.6010 C   0  0  0  0  0  0  0  0  0  0  0  0
   -5.2450   20.4500  -33.3510 C   0  0  0  0  0  0  0  0  0  0  0  0
   -6.3950   19.6730  -32.7620 C   0  0  0  0  0  0  0  0  0  0  0  0
   -7.7190   19.9830  -33.1180 C   0  0  0  0  0  0  0  0  0  0  0  0
   -8.7840   19.2500  -32.5860 C   0  0  0  0  0  0  0  0  0  0  0  0
   -8.5360   18.2040  -31.6910 C   0  0  0  0  0  0  0  0  0  0  0  0
   -7.2230   17.8960  -31.3240 C   0  0  0  0  0  0  0  0  0  0  0  0
   -6.1570   18.6290  -31.8510 C   0  0  0  0  0  0  0  0  0  0  0  0
   -3.0230   21.6920  -30.1720 C   0  0  0  0  0  0  0  0  0  0  0  0
   -2.2330   20.6610  -29.6290 C   0  0  0  0  0  0  0  0  0  0  0  0
   -2.0710   20.5260  -28.2500 C   0  0  0  0  0  0  0  0  0  0  0  0
   -1.1000   19.2150  -27.6050 Cl  0  0  0  0  0  0  0  0  0  0  0  0
   -2.6940   21.4210  -27.3880 C   0  0  0  0  0  0  0  0  0  0  0  0
   -3.4670   22.4600  -27.9000 C   0  0  0  0  0  0  0  0  0  0  0  0
   -3.6320   22.6300  -29.2870 C   0  0  0  0  0  0  0  0  0  0  0  0
   -4.6330   23.9990  -29.8200 S   0  0  0  0  0  0  0  0  0  0  0  0
   -5.0120   24.8960  -28.6780 O   0  0  0  0  0  0  0  0  0  0  0  0
   -3.8760   24.8000  -30.8430 O   0  0  0  0  0  0  0  0  0  0  0  0
   -6.1380   23.4170  -30.5300 C   0  0  0  0  0  0  0  0  0  0  0  0
   -6.9410   22.4890  -29.8480 C   0  0  0  0  0  0  0  0  0  0  0  0
   -8.1420   22.0500  -30.4160 C   0  0  0  0  0  0  0  0  0  0  0  0
   -8.5470   22.5360  -31.6620 C   0  0  0  0  0  0  0  0  0  0  0  0
   -7.7540   23.4650  -32.3420 C   0  0  0  0  0  0  0  0  0  0  0  0
   -6.5530   23.9050  -31.7780 C   0  0  0  0  0  0  0  0  0  0  0  0
   -3.2030   19.7625  -33.2963 H   0  0  0  0  0  0  0  0  0  0  0  0
   -4.1444   19.5521  -31.7500 H   0  0  0  0  0  0  0  0  0  0  0  0
   -5.4866   21.5223  -33.3096 H   0  0  0  0  0  0  0  0  0  0  0  0
   -5.1056   20.1047  -34.3861 H   0  0  0  0  0  0  0  0  0  0  0  0
   -7.9183   20.8069  -33.8191 H   0  0  0  0  0  0  0  0  0  0  0  0
   -9.8175   19.4959  -32.8714 H   0  0  0  0  0  0  0  0  0  0  0  0
   -9.3738   17.6242  -31.2763 H   0  0  0  0  0  0  0  0  0  0  0  0
   -7.0286   17.0746  -30.6186 H   0  0  0  0  0  0  0  0  0  0  0  0
   -5.1263   18.3882  -31.5517 H   0  0  0  0  0  0  0  0  0  0  0  0
   -1.7348   19.9494  -30.3039 H   0  0  0  0  0  0  0  0  0  0  0  0
   -2.5763   21.3084  -26.3001 H   0  0  0  0  0  0  0  0  0  0  0  0
   -3.9574   23.1603  -27.2078 H   0  0  0  0  0  0  0  0  0  0  0  0
   -6.6256   22.1066  -28.8660 H   0  0  0  0  0  0  0  0  0  0  0  0
   -8.7684   21.3211  -29.8809 H   0  0  0  0  0  0  0  0  0  0  0  0
   -9.4902   22.1874  -32.1079 H   0  0  0  0  0  0  0  0  0  0  0  0
   -8.0752   23.8499  -33.3211 H   0  0  0  0  0  0  0  0  0  0  0  0
   -5.9311   24.6365  -32.3147 H   0  0  0  0  0  0  0  0  0  0  0  0
  1  2  2  0
  2  3  2  0
  2  4  1  0
  4  5  1  0
  5  6  1  0
  6  7  2  0
  7  8  1  0
  8  9  2  0
  9 10  1  0
 10 11  2  0
  2 12  1  0
 12 13  2  0
 13 14  1  0
 14 15  1  0
 14 16  2  0
 16 17  1  0
 17 18  2  0
 18 19  1  0
 19 20  2  0
 19 21  2  0
 19 22  1  0
 22 23  2  0
 23 24  1  0
 24 25  2  0
 25 26  1  0
 26 27  2  0
 11  6  1  0
 18 12  1  0
 27 22  1  0
  4 28  1  0
  4 29  1  0
  5 30  1  0
  5 31  1  0
  7 32  1  0
  8 33  1  0
  9 34  1  0
 10 35  1  0
 11 36  1  0
 13 37  1  0
 16 38  1  0
 17 39  1  0
 23 40  1  0
 24 41  1  0
 25 42  1  0
 26 43  1  0
 27 44  1  0
M  END
>  <UniqueID>  (8) 
7

>  <SMILES>  (8) 
O=S(=O)(CCc1ccccc1)c1cc(Cl)ccc1S(=O)(=O)c1ccccc1

>  <Energy>  (8) 
48.306260301603174

>  <Genealogy>  (8) 
O=S(=O)(CCc1ccccc1)c1cc(Cl)ccc1S(=O)(=O)c1ccccc1 (3D coordinates assigned)
O=S(=O)(CCc1ccccc1)c1cc(Cl)ccc1S(=O)(=O)c1ccccc1 (optimized conformer: 48.306260301603174 kcal/mol)

>  <smiles>  (8) 
O=S(=O)(CCc1ccccc1)c1cc(Cl)ccc1S(=O)(=O)c1ccccc1

>  <score_type>  (8) 
oracle

>  <origin>  (8) 
adgpu

>  <m_score__min__energy>  (8) 
-10.220000000000001

>  <m_primary>  (8) 
energy

$$$$
8:0
     RDKit          3D

 24 25  0  0  0  0  0  0  0  0999 V2000
   -2.3990   21.6280  -28.7020 C   0  0  0  0  0  0  0  0  0  0  0  0
   -3.4220   22.3820  -29.5070 C   0  0  0  0  0  0  0  0  0  0  0  0
   -4.4620   21.7110  -30.0840 N   0  0  0  0  0  0  0  0  0  0  0  0
   -5.4040   22.3680  -30.8230 C   0  0  0  0  0  0  0  0  0  0  0  0
   -6.5380   21.6420  -31.4480 C   0  0  0  0  0  0  0  0  0  0  0  0
   -7.8460   22.1480  -31.3310 C   0  0  0  0  0  0  0  0  0  0  0  0
   -8.9240   21.4700  -31.9100 C   0  0  0  0  0  0  0  0  0  0  0  0
   -8.7110   20.2770  -32.6030 C   0  0  0  0  0  0  0  0  0  0  0  0
   -9.7580   19.6210  -33.1610 F   0  0  0  0  0  0  0  0  0  0  0  0
   -7.4200   19.7570  -32.7140 C   0  0  0  0  0  0  0  0  0  0  0  0
   -6.3380   20.4310  -32.1390 C   0  0  0  0  0  0  0  0  0  0  0  0
   -5.2950   23.7120  -31.0020 N   0  0  0  0  0  0  0  0  0  0  0  0
   -4.2800   24.4220  -30.4520 C   0  0  0  0  0  0  0  0  0  0  0  0
   -4.2190   25.6650  -30.6420 O   0  0  0  0  0  0  0  0  0  0  0  0
   -3.3110   23.7720  -29.6820 C   0  0  0  0  0  0  0  0  0  0  0  0
   -1.9870   24.6920  -28.9650 Cl  0  0  0  0  0  0  0  0  0  0  0  0
   -2.5964   21.7735  -27.6297 H   0  0  0  0  0  0  0  0  0  0  0  0
   -2.4592   20.5566  -28.9438 H   0  0  0  0  0  0  0  0  0  0  0  0
   -1.3934   22.0026  -28.9438 H   0  0  0  0  0  0  0  0  0  0  0  0
   -4.5130   20.6730  -29.9790 H   0  0  0  0  0  0  0  0  0  0  0  0
   -8.0220   23.0837  -30.7801 H   0  0  0  0  0  0  0  0  0  0  0  0
   -9.9416   21.8777  -31.8190 H   0  0  0  0  0  0  0  0  0  0  0  0
   -7.2534   18.8141  -33.2555 H   0  0  0  0  0  0  0  0  0  0  0  0
   -5.3244   20.0128  -32.2269 H   0  0  0  0  0  0  0  0  0  0  0  0
  1  2  1  0
  2  3  1  0
  3  4  1  0
  4  5  1  0
  5  6  2  0
  6  7  1  0
  7  8  2  0
  8  9  1  0
  8 10  1  0
 10 11  2  0
  4 12  2  0
 12 13  1  0
 13 14  2  0
 13 15  1  0
 15 16  1  0
 15  2  2  0
 11  5  1  0
  1 17  1  0
  1 18  1  0
  1 19  1  0
  3 20  1  0
  6 21  1  0
  7 22  1  0
 10 23  1  0
 11 24  1  0
M  END
>  <UniqueID>  (9) 
8

>  <SMILES>  (9) 
Cc1[nH]c(-c2ccc(F)cc2)nc(=O)c1Cl

>  <Energy>  (9) 
29.868678908419884

>  <Genealogy>  (9) 
Cc1[nH]c(-c2ccc(F)cc2)nc(=O)c1Cl (3D coordinates assigned)
Cc1[nH]c(-c2ccc(F)cc2)nc(=O)c1Cl (optimized conformer: 29.868678908419884 kcal/mol)

>  <smiles>  (9) 
Cc1[nH]c(-c2ccc(F)cc2)nc(=O)c1Cl

>  <score_type>  (9) 
oracle

>  <origin>  (9) 
adgpu

>  <m_score__min__energy>  (9) 
-6.3499999999999996

>  <m_primary>  (9) 
energy

$$$$
9:0
     RDKit          3D

 33 35  0  0  0  0  0  0  0  0999 V2000
   -0.5030   21.1670  -33.3130 C   0  0  0  0  0  0  0  0  0  0  0  0
   -1.4540   19.9070  -34.2170 S   0  0  0  0  0  0  0  0  0  0  0  0
   -3.0000   20.3500  -33.4330 C   0  0  0  0  0  0  0  0  0  0  0  0
   -4.1780   19.6390  -33.5220 C   0  0  0  0  0  0  0  0  0  0  0  0
   -5.0650   20.3590  -32.7430 C   0  0  0  0  0  0  0  0  0  0  0  0
   -6.4500   19.9370  -32.4350 C   0  0  0  0  0  0  0  0  0  0  0  0
   -7.5170   20.8270  -32.6400 C   0  0  0  0  0  0  0  0  0  0  0  0
   -8.8290   20.4310  -32.3630 C   0  0  0  0  0  0  0  0  0  0  0  0
   -9.0870   19.1410  -31.8910 C   0  0  0  0  0  0  0  0  0  0  0  0
   -8.0330   18.2430  -31.7020 C   0  0  0  0  0  0  0  0  0  0  0  0
   -6.7210   18.6350  -31.9790 C   0  0  0  0  0  0  0  0  0  0  0  0
   -4.4220   21.4430  -32.2420 N   0  0  0  0  0  0  0  0  0  0  0  0
   -4.9700   22.5130  -31.4540 C   0  0  0  0  0  0  0  0  0  0  0  0
   -5.8040   23.4840  -32.0350 C   0  0  0  0  0  0  0  0  0  0  0  0
   -6.3150   24.5290  -31.2600 C   0  0  0  0  0  0  0  0  0  0  0  0
   -5.9880   24.6210  -29.9040 C   0  0  0  0  0  0  0  0  0  0  0  0
   -5.1420   23.6730  -29.3240 C   0  0  0  0  0  0  0  0  0  0  0  0
   -4.6280   22.6260  -30.0950 C   0  0  0  0  0  0  0  0  0  0  0  0
   -3.1640   21.4360  -32.6560 N   0  0  0  0  0  0  0  0  0  0  0  0
   -0.6218   21.0096  -32.2308 H   0  0  0  0  0  0  0  0  0  0  0  0
    0.5608   21.0856  -33.5808 H   0  0  0  0  0  0  0  0  0  0  0  0
   -0.8729   22.1677  -33.5808 H   0  0  0  0  0  0  0  0  0  0  0  0
   -4.3683   18.7124  -34.0834 H   0  0  0  0  0  0  0  0  0  0  0  0
   -7.3196   21.8402  -33.0202 H   0  0  0  0  0  0  0  0  0  0  0  0
   -9.6594   21.1358  -32.5168 H   0  0  0  0  0  0  0  0  0  0  0  0
  -10.1192   18.8327  -31.6684 H   0  0  0  0  0  0  0  0  0  0  0  0
   -8.2367   17.2263  -31.3347 H   0  0  0  0  0  0  0  0  0  0  0  0
   -5.8957   17.9212  -31.8396 H   0  0  0  0  0  0  0  0  0  0  0  0
   -6.0555   23.4212  -33.1040 H   0  0  0  0  0  0  0  0  0  0  0  0
   -6.9755   25.2801  -31.7178 H   0  0  0  0  0  0  0  0  0  0  0  0
   -6.3969   25.4399  -29.2939 H   0  0  0  0  0  0  0  0  0  0  0  0
   -4.8796   23.7503  -28.2586 H   0  0  0  0  0  0  0  0  0  0  0  0
   -3.9535   21.8879  -29.6366 H   0  0  0  0  0  0  0  0  0  0  0  0
  1  2  1  0
  2  3  1  0
  3  4  1  0
  4  5  2  0
  5  6  1  0
  6  7  2  0
  7  8  1  0
  8  9  2  0
  9 10  1  0
 10 11  2  0
  5 12  1  0
 12 13  1  0
 13 14  2  0
 14 15  1  0
 15 16  2  0
 16 17  1  0
 17 18  2  0
 12 19  1  0
 19  3  2  0
 11  6  1  0
 18 13  1  0
  1 20  1  0
  1 21  1  0
  1 22  1  0
  4 23  1  0
  7 24  1  0
  8 25  1  0
  9 26  1  0
 10 27  1  0
 11 28  1  0
 14 29  1  0
 15 30  1  0
 16 31  1  0
 17 32  1  0
 18 33  1  0
M  END
>  <UniqueID>  (10) 
9

>  <SMILES>  (10) 
CSc1cc(-c2ccccc2)n(-c2ccccc2)n1

>  <Energy>  (10) 
70.60677018371771

>  <Genealogy>  (10) 
CSc1cc(-c2ccccc2)n(-c2ccccc2)n1 (3D coordinates assigned)
CSc1cc(-c2ccccc2)n(-c2ccccc2)n1 (optimized conformer: 70.60677018371771 kcal/mol)

>  <smiles>  (10) 
CSc1cc(-c2ccccc2)n(-c2ccccc2)n1

>  <score_type>  (10) 
oracle

>  <origin>  (10) 
adgpu

>  <m_score__min__energy>  (10) 
-7.6200000000000001

>  <m_primary>  (10) 
energy

$$$$
10:0
     RDKit          3D

 43 46  0  0  0  0  0  0  0  0999 V2000
   -4.7770   21.3610  -33.4330 O   0  0  0  0  0  0  0  0  0  0  0  0
   -5.0030   20.1010  -32.6470 S   0  0  0  0  0  0  0  0  0  0  0  0
   -4.2980   18.9680  -33.3380 O   0  0  0  0  0  0  0  0  0  0  0  0
   -4.3480   20.2950  -31.0510 N   0  0  0  0  0  0  0  0  0  0  0  0
   -3.8990   21.5590  -30.5190 C   0  0  0  0  0  0  0  0  0  0  0  0
   -2.5910   21.6860  -30.0200 C   0  0  0  0  0  0  0  0  0  0  0  0
   -2.0790   22.9250  -29.6360 C   0  0  0  0  0  0  0  0  0  0  0  0
   -0.3780   23.0290  -29.0720 S   0  0  0  0  0  0  0  0  0  0  0  0
   -0.4090   21.3590  -28.4240 C   0  0  0  0  0  0  0  0  0  0  0  0
   -1.1790   21.0550  -27.2940 C   0  0  0  0  0  0  0  0  0  0  0  0
   -1.2090   19.7420  -26.8240 C   0  0  0  0  0  0  0  0  0  0  0  0
   -0.4680   18.7530  -27.4740 C   0  0  0  0  0  0  0  0  0  0  0  0
    0.2980   19.0970  -28.5920 C   0  0  0  0  0  0  0  0  0  0  0  0
    0.3090   20.3820  -29.0390 N   0  0  0  0  0  0  0  0  0  0  0  0
   -2.8750   24.0720  -29.7190 C   0  0  0  0  0  0  0  0  0  0  0  0
   -2.3440   25.3030  -29.3380 O   0  0  0  0  0  0  0  0  0  0  0  0
   -4.2040   23.9740  -30.1720 C   0  0  0  0  0  0  0  0  0  0  0  0
   -5.0190   25.1200  -30.2380 C   0  0  0  0  0  0  0  0  0  0  0  0
   -6.3430   25.0220  -30.6630 C   0  0  0  0  0  0  0  0  0  0  0  0
   -6.8740   23.7840  -31.0170 C   0  0  0  0  0  0  0  0  0  0  0  0
   -6.0840   22.6350  -30.9630 C   0  0  0  0  0  0  0  0  0  0  0  0
   -4.7300   22.7110  -30.5630 C   0  0  0  0  0  0  0  0  0  0  0  0
   -6.7200   19.7230  -32.5390 C   0  0  0  0  0  0  0  0  0  0  0  0
   -7.1250   18.4450  -32.1260 C   0  0  0  0  0  0  0  0  0  0  0  0
   -8.4850   18.1380  -32.0130 C   0  0  0  0  0  0  0  0  0  0  0  0
   -9.4460   19.1100  -32.3030 C   0  0  0  0  0  0  0  0  0  0  0  0
   -9.0480   20.3900  -32.7060 C   0  0  0  0  0  0  0  0  0  0  0  0
   -7.6880   20.6960  -32.8310 C   0  0  0  0  0  0  0  0  0  0  0  0
   -4.4100   19.4630  -30.4260 H   0  0  0  0  0  0  0  0  0  0  0  0
   -1.9588   20.7903  -29.9306 H   0  0  0  0  0  0  0  0  0  0  0  0
   -1.7531   21.8422  -26.7834 H   0  0  0  0  0  0  0  0  0  0  0  0
   -1.8155   19.4861  -25.9427 H   0  0  0  0  0  0  0  0  0  0  0  0
   -0.4867   17.7149  -27.1106 H   0  0  0  0  0  0  0  0  0  0  0  0
    0.8914   18.3291  -29.1099 H   0  0  0  0  0  0  0  0  0  0  0  0
   -4.6082   26.0996  -29.9522 H   0  0  0  0  0  0  0  0  0  0  0  0
   -6.9697   25.9243  -30.7189 H   0  0  0  0  0  0  0  0  0  0  0  0
   -7.9227   23.7116  -31.3412 H   0  0  0  0  0  0  0  0  0  0  0  0
   -6.5185   21.6615  -31.2340 H   0  0  0  0  0  0  0  0  0  0  0  0
   -6.3697   17.6809  -31.8900 H   0  0  0  0  0  0  0  0  0  0  0  0
   -8.7977   17.1321  -31.6961 H   0  0  0  0  0  0  0  0  0  0  0  0
  -10.5157   18.8692  -32.2146 H   0  0  0  0  0  0  0  0  0  0  0  0
   -9.8056   21.1569  -32.9249 H   0  0  0  0  0  0  0  0  0  0  0  0
   -7.3779   21.6994  -33.1582 H   0  0  0  0  0  0  0  0  0  0  0  0
  1  2  2  0
  2  3  2  0
  2  4  1  0
  4  5  1  0
  5  6  2  0
  6  7  1  0
  7  8  1  0
  8  9  1  0
  9 10  2  0
 10 11  1  0
 11 12  2  0
 12 13  1  0
 13 14  2  0
  7 15  2  0
 15 16  1  0
 15 17  1  0
 17 18  2  0
 18 19  1  0
 19 20  2  0
 20 21  1  0
 21 22  2  0
  2 23  1  0
 23 24  2  0
 24 25  1  0
 25 26  2  0
 26 27  1  0
 27 28  2  0
 22  5  1  0
 28 23  1  0
 14  9  1  0
 22 17  1  0
  4 29  1  0
  6 30  1  0
 10 31  1  0
 11 32  1  0
 12 33  1  0
 13 34  1  0
 18 35  1  0
 19 36  1  0
 20 37  1  0
 21 38  1  0
 24 39  1  0
 25 40  1  0
 26 41  1  0
 27 42  1  0
 28 43  1  0
M  CHG  1  16  -1
M  END
>  <UniqueID>  (11) 
10

>  <SMILES>  (11) 
O=S(=O)(Nc1cc(Sc2ccccn2)c([O-])c2ccccc12)c1ccccc1

>  <Energy>  (11) 
53.56107232307723

>  <Genealogy>  (11) 
O=S(=O)(Nc1cc(Sc2ccccn2)c([O-])c2ccccc12)c1ccccc1 (protonated)
O=S(=O)(Nc1cc(Sc2ccccn2)c([O-])c2ccccc12)c1ccccc1 (3D coordinates assigned)
O=S(=O)(Nc1cc(Sc2ccccn2)c([O-])c2ccccc12)c1ccccc1 (optimized conformer: 53.56107232307723 kcal/mol)

>  <smiles>  (11) 
O=S(=O)(Nc1cc(Sc2ccccn2)c(O)c2ccccc12)c1ccccc1

>  <score_type>  (11) 
oracle

>  <origin>  (11) 
adgpu

>  <m_score__min__energy>  (11) 
-12.539999999999999

>  <m_primary>  (11) 
energy

$$$$
11:0
     RDKit          3D

 39 41  0  0  0  0  0  0  0  0999 V2000
   -2.7130   18.9420  -26.3800 C   0  0  0  0  0  0  0  0  0  0  0  0
   -1.8670   19.6000  -27.3170 O   0  0  0  0  0  0  0  0  0  0  0  0
   -2.0580   20.9120  -27.7730 C   0  0  0  0  0  0  0  0  0  0  0  0
   -0.9880   21.7400  -28.1660 C   0  0  0  0  0  0  0  0  0  0  0  0
   -1.2310   23.0410  -28.6130 C   0  0  0  0  0  0  0  0  0  0  0  0
   -2.5410   23.5410  -28.6640 C   0  0  0  0  0  0  0  0  0  0  0  0
   -2.8060   24.9250  -29.1800 C   0  0  0  0  0  0  0  0  0  0  0  0
   -3.4700   24.8340  -30.4770 N   0  0  0  0  0  0  0  0  0  0  0  0
   -5.1910   24.9160  -30.2650 S   0  0  0  0  0  0  0  0  0  0  0  0
   -5.5250   24.8980  -28.7980 O   0  0  0  0  0  0  0  0  0  0  0  0
   -5.7010   26.2030  -30.8520 O   0  0  0  0  0  0  0  0  0  0  0  0
   -5.9670   23.5640  -31.0830 C   0  0  0  0  0  0  0  0  0  0  0  0
   -5.2220   22.7710  -31.9840 C   0  0  0  0  0  0  0  0  0  0  0  0
   -5.8210   21.6750  -32.6270 C   0  0  0  0  0  0  0  0  0  0  0  0
   -7.1580   21.3960  -32.3470 C   0  0  0  0  0  0  0  0  0  0  0  0
   -7.8830   22.1540  -31.4740 C   0  0  0  0  0  0  0  0  0  0  0  0
   -7.3150   23.2480  -30.8210 C   0  0  0  0  0  0  0  0  0  0  0  0
   -9.2710   21.6260  -31.3590 C   0  0  0  0  0  0  0  0  0  0  0  0
   -9.2700   20.4080  -32.3190 C   0  0  0  0  0  0  0  0  0  0  0  0
   -7.9250   20.3420  -32.8840 N   0  0  0  0  0  0  0  0  0  0  0  0
   -3.6090   22.7110  -28.2880 C   0  0  0  0  0  0  0  0  0  0  0  0
   -3.3650   21.4090  -27.8400 C   0  0  0  0  0  0  0  0  0  0  0  0
   -2.3921   19.1916  -25.3579 H   0  0  0  0  0  0  0  0  0  0  0  0
   -3.7517   19.2719  -26.5291 H   0  0  0  0  0  0  0  0  0  0  0  0
   -2.6489   17.8540  -26.5291 H   0  0  0  0  0  0  0  0  0  0  0  0
    0.0434   21.3603  -28.1207 H   0  0  0  0  0  0  0  0  0  0  0  0
   -0.3903   23.6772  -28.9269 H   0  0  0  0  0  0  0  0  0  0  0  0
   -3.4530   25.4640  -28.4723 H   0  0  0  0  0  0  0  0  0  0  0  0
   -1.8553   25.4677  -29.2884 H   0  0  0  0  0  0  0  0  0  0  0  0
   -4.1676   23.0129  -32.1831 H   0  0  0  0  0  0  0  0  0  0  0  0
   -5.2503   21.0534  -33.3327 H   0  0  0  0  0  0  0  0  0  0  0  0
   -7.9067   23.8511  -30.1166 H   0  0  0  0  0  0  0  0  0  0  0  0
   -9.4898   21.3142  -30.3270 H   0  0  0  0  0  0  0  0  0  0  0  0
  -10.0380   22.3728  -31.6119 H   0  0  0  0  0  0  0  0  0  0  0  0
   -9.4978   19.4850  -31.7657 H   0  0  0  0  0  0  0  0  0  0  0  0
  -10.0324   20.5137  -33.1048 H   0  0  0  0  0  0  0  0  0  0  0  0
   -7.5900   19.6300  -33.5710 H   0  0  0  0  0  0  0  0  0  0  0  0
   -4.6414   23.0862  -28.3460 H   0  0  0  0  0  0  0  0  0  0  0  0
   -4.2075   20.7697  -27.5376 H   0  0  0  0  0  0  0  0  0  0  0  0
  1  2  1  0
  2  3  1  0
  3  4  2  0
  4  5  1  0
  5  6  2  0
  6  7  1  0
  7  8  1  0
  8  9  1  0
  9 10  2  0
  9 11  2  0
  9 12  1  0
 12 13  2  0
 13 14  1  0
 14 15  2  0
 15 16  1  0
 16 17  2  0
 16 18  1  0
 18 19  1  0
 19 20  1  0
  6 21  1  0
 21 22  2  0
 22  3  1  0
 17 12  1  0
 20 15  1  0
  1 23  1  0
  1 24  1  0
  1 25  1  0
  4 26  1  0
  5 27  1  0
  7 28  1  0
  7 29  1  0
 13 30  1  0
 14 31  1  0
 17 32  1  0
 18 33  1  0
 18 34  1  0
 19 35  1  0
 19 36  1  0
 20 37  1  0
 21 38  1  0
 22 39  1  0
M  CHG  1   8  -1
M  END
>  <UniqueID>  (12) 
11

>  <SMILES>  (12) 
COc1ccc(C[N-]S(=O)(=O)c2ccc3c(c2)CCN3)cc1

>  <Energy>  (12) 
51.31517746898516

>  <Genealogy>  (12) 
COc1ccc(C[N-]S(=O)(=O)c2ccc3c(c2)CCN3)cc1 (protonated)
COc1ccc(C[N-]S(=O)(=O)c2ccc3c(c2)CCN3)cc1 (3D coordinates assigned)
COc1ccc(C[N-]S(=O)(=O)c2ccc3c(c2)CCN3)cc1 (nonaromatic ring conformer: 51.31517746898516 kcal/mol)

>  <smiles>  (12) 
COc1ccc(CNS(=O)(=O)c2ccc3c(c2)CCN3)cc1

>  <score_type>  (12) 
oracle

>  <origin>  (12) 
adgpu

>  <m_score__min__energy>  (12) 
-9.6099999999999994

>  <m_primary>  (12) 
energy

$$$$
12:0
     RDKit          3D

 39 40  0  0  0  0  0  0  0  0999 V2000
   -8.5420   18.2610  -31.6030 C   0  0  0  0  0  0  0  0  0  0  0  0
   -9.3970   19.2260  -32.4180 C   0  0  0  0  0  0  0  0  0  0  0  0
   -8.5610   20.2200  -33.0930 N   0  0  0  0  0  0  0  0  0  0  0  0
   -7.6660   21.1190  -32.4070 C   0  0  0  0  0  0  0  0  0  0  0  0
   -8.1730   22.0850  -31.5190 C   0  0  0  0  0  0  0  0  0  0  0  0
   -7.3140   22.9240  -30.8080 C   0  0  0  0  0  0  0  0  0  0  0  0
   -5.9230   22.8190  -30.9650 C   0  0  0  0  0  0  0  0  0  0  0  0
   -5.0030   23.6980  -30.2030 C   0  0  0  0  0  0  0  0  0  0  0  0
   -4.2630   24.5100  -30.8230 O   0  0  0  0  0  0  0  0  0  0  0  0
   -4.9790   23.6690  -28.7650 N   0  0  0  0  0  0  0  0  0  0  0  0
   -3.8800   24.1570  -27.9760 C   0  0  0  0  0  0  0  0  0  0  0  0
   -4.1410   24.8310  -26.7740 C   0  0  0  0  0  0  0  0  0  0  0  0
   -3.0900   25.3100  -25.9890 C   0  0  0  0  0  0  0  0  0  0  0  0
   -1.7680   25.1020  -26.3830 C   0  0  0  0  0  0  0  0  0  0  0  0
   -1.4810   24.3860  -27.5580 C   0  0  0  0  0  0  0  0  0  0  0  0
   -0.0540   24.1850  -28.0040 C   0  0  0  0  0  0  0  0  0  0  0  0
    0.5420   23.1640  -27.2850 F   0  0  0  0  0  0  0  0  0  0  0  0
   -0.0380   23.8600  -29.3470 F   0  0  0  0  0  0  0  0  0  0  0  0
    0.6880   25.3390  -27.8110 F   0  0  0  0  0  0  0  0  0  0  0  0
   -2.5440   23.9310  -28.3590 C   0  0  0  0  0  0  0  0  0  0  0  0
   -5.4110   21.8520  -31.8450 C   0  0  0  0  0  0  0  0  0  0  0  0
   -6.2670   21.0120  -32.5760 C   0  0  0  0  0  0  0  0  0  0  0  0
   -5.6920   20.0900  -33.5120 N   0  0  0  0  0  0  0  0  0  0  0  0
   -8.7040   18.4438  -30.5305 H   0  0  0  0  0  0  0  0  0  0  0  0
   -8.8250   17.2260  -31.8454 H   0  0  0  0  0  0  0  0  0  0  0  0
   -7.4805   18.4172  -31.8454 H   0  0  0  0  0  0  0  0  0  0  0  0
   -9.9619   18.6583  -33.1721 H   0  0  0  0  0  0  0  0  0  0  0  0
  -10.0847   19.7485  -31.7368 H   0  0  0  0  0  0  0  0  0  0  0  0
   -8.6270   20.2660  -34.1330 H   0  0  0  0  0  0  0  0  0  0  0  0
   -9.2604   22.1802  -31.3833 H   0  0  0  0  0  0  0  0  0  0  0  0
   -7.7302   23.6737  -30.1190 H   0  0  0  0  0  0  0  0  0  0  0  0
   -5.8510   23.3880  -28.2640 H   0  0  0  0  0  0  0  0  0  0  0  0
   -5.1803   24.9833  -26.4475 H   0  0  0  0  0  0  0  0  0  0  0  0
   -3.3053   25.8531  -25.0569 H   0  0  0  0  0  0  0  0  0  0  0  0
   -0.9456   25.5005  -25.7707 H   0  0  0  0  0  0  0  0  0  0  0  0
   -2.3294   23.3931  -29.2942 H   0  0  0  0  0  0  0  0  0  0  0  0
   -4.3221   21.7507  -31.9638 H   0  0  0  0  0  0  0  0  0  0  0  0
   -4.6610   19.9320  -33.5350 H   0  0  0  0  0  0  0  0  0  0  0  0
   -6.2600   19.6230  -34.2520 H   0  0  0  0  0  0  0  0  0  0  0  0
  1  2  1  0
  2  3  1  0
  3  4  1  0
  4  5  2  0
  5  6  1  0
  6  7  2  0
  7  8  1  0
  8  9  2  0
  8 10  1  0
 10 11  1  0
 11 12  2  0
 12 13  1  0
 13 14  2  0
 14 15  1  0
 15 16  1  0
 16 17  1  0
 16 18  1  0
 16 19  1  0
 15 20  2  0
  7 21  1  0
 21 22  2  0
 22 23  1  0
 22  4  1  0
 20 11  1  0
  1 24  1  0
  1 25  1  0
  1 26  1  0
  2 27  1  0
  2 28  1  0
  3 29  1  0
  5 30  1  0
  6 31  1  0
 10 32  1  0
 12 33  1  0
 13 34  1  0
 14 35  1  0
 20 36  1  0
 21 37  1  0
 23 38  1  0
 23 39  1  0
M  END
>  <UniqueID>  (13) 
12

>  <SMILES>  (13) 
CCNc1ccc(C(=O)Nc2cccc(C(F)(F)F)c2)cc1N

>  <Energy>  (13) 
44.81888822991326

>  <Genealogy>  (13) 
CCNc1ccc(C(=O)Nc2cccc(C(F)(F)F)c2)cc1N (3D coordinates assigned)
CCNc1ccc(C(=O)Nc2cccc(C(F)(F)F)c2)cc1N (optimized conformer: 44.81888822991326 kcal/mol)

>  <smiles>  (13) 
CCNc1ccc(C(=O)Nc2cccc(C(F)(F)F)c2)cc1N

>  <score_type>  (13) 
oracle

>  <origin>  (13) 
adgpu

>  <m_score__min__energy>  (13) 
-7.3499999999999996

>  <m_primary>  (13) 
energy

$$$$
13:0
     RDKit          3D

 32 33  0  0  0  0  0  0  0  0999 V2000
   -5.3940   20.9510  -32.8690 C   0  0  0  0  0  0  0  0  0  0  0  0
   -5.5860   22.1580  -31.9980 C   0  0  0  0  0  0  0  0  0  0  0  0
   -6.8730   22.5520  -31.6130 C   0  0  0  0  0  0  0  0  0  0  0  0
   -7.0560   23.6950  -30.8330 C   0  0  0  0  0  0  0  0  0  0  0  0
   -5.9540   24.4700  -30.4370 C   0  0  0  0  0  0  0  0  0  0  0  0
   -6.1690   25.7080  -29.6090 C   0  0  0  0  0  0  0  0  0  0  0  0
   -4.6570   24.0970  -30.8430 C   0  0  0  0  0  0  0  0  0  0  0  0
   -3.5400   24.9150  -30.4560 N   0  0  0  0  0  0  0  0  0  0  0  0
   -2.4280   24.5580  -29.1740 S   0  0  0  0  0  0  0  0  0  0  0  0
   -1.2110   25.4240  -29.3250 O   0  0  0  0  0  0  0  0  0  0  0  0
   -3.0850   24.8590  -27.8560 O   0  0  0  0  0  0  0  0  0  0  0  0
   -1.9380   22.8680  -29.2530 C   0  0  0  0  0  0  0  0  0  0  0  0
   -1.2510   22.3810  -30.3750 C   0  0  0  0  0  0  0  0  0  0  0  0
   -0.8540   21.0400  -30.4270 C   0  0  0  0  0  0  0  0  0  0  0  0
   -1.1450   20.1820  -29.3620 C   0  0  0  0  0  0  0  0  0  0  0  0
   -1.8340   20.6630  -28.2440 C   0  0  0  0  0  0  0  0  0  0  0  0
   -2.2320   22.0020  -28.1910 C   0  0  0  0  0  0  0  0  0  0  0  0
   -4.4840   22.9380  -31.6240 C   0  0  0  0  0  0  0  0  0  0  0  0
   -5.2525   20.0617  -32.2372 H   0  0  0  0  0  0  0  0  0  0  0  0
   -6.2814   20.8122  -33.5041 H   0  0  0  0  0  0  0  0  0  0  0  0
   -4.5074   21.0944  -33.5041 H   0  0  0  0  0  0  0  0  0  0  0  0
   -7.7441   21.9580  -31.9266 H   0  0  0  0  0  0  0  0  0  0  0  0
   -8.0702   23.9906  -30.5265 H   0  0  0  0  0  0  0  0  0  0  0  0
   -6.1237   25.4474  -28.5413 H   0  0  0  0  0  0  0  0  0  0  0  0
   -5.3853   26.4444  -29.8402 H   0  0  0  0  0  0  0  0  0  0  0  0
   -7.1551   26.1371  -29.8402 H   0  0  0  0  0  0  0  0  0  0  0  0
   -1.0241   23.0540  -31.2150 H   0  0  0  0  0  0  0  0  0  0  0  0
   -0.3127   20.6607  -31.3063 H   0  0  0  0  0  0  0  0  0  0  0  0
   -0.8319   19.1283  -29.4035 H   0  0  0  0  0  0  0  0  0  0  0  0
   -2.0627   19.9877  -27.4064 H   0  0  0  0  0  0  0  0  0  0  0  0
   -2.7778   22.3772  -27.3128 H   0  0  0  0  0  0  0  0  0  0  0  0
   -3.4738   22.6423  -31.9435 H   0  0  0  0  0  0  0  0  0  0  0  0
  1  2  1  0
  2  3  2  0
  3  4  1  0
  4  5  2  0
  5  6  1  0
  5  7  1  0
  7  8  1  0
  8  9  1  0
  9 10  2  0
  9 11  2  0
  9 12  1  0
 12 13  2  0
 13 14  1  0
 14 15  2  0
 15 16  1  0
 16 17  2  0
  7 18  2  0
 18  2  1  0
 17 12  1  0
  1 19  1  0
  1 20  1  0
  1 21  1  0
  3 22  1  0
  4 23  1  0
  6 24  1  0
  6 25  1  0
  6 26  1  0
 13 27  1  0
 14 28  1  0
 15 29  1  0
 16 30  1  0
 17 31  1  0
 18 32  1  0
M  CHG  1   8  -1
M  END
>  <UniqueID>  (14) 
13

>  <SMILES>  (14) 
Cc1ccc(C)c([N-]S(=O)(=O)c2ccccc2)c1

>  <Energy>  (14) 
34.45676536002634

>  <Genealogy>  (14) 
Cc1ccc(C)c([N-]S(=O)(=O)c2ccccc2)c1 (protonated)
Cc1ccc(C)c([N-]S(=O)(=O)c2ccccc2)c1 (3D coordinates assigned)
Cc1ccc(C)c([N-]S(=O)(=O)c2ccccc2)c1 (optimized conformer: 34.45676536002634 kcal/mol)

>  <smiles>  (14) 
Cc1ccc(C)c(NS(=O)(=O)c2ccccc2)c1

>  <score_type>  (14) 
oracle

>  <origin>  (14) 
adgpu

>  <m_score__min__energy>  (14) 
-8.3900000000000006

>  <m_primary>  (14) 
energy

$$$$
14:0
     RDKit          3D

 46 48  0  0  0  0  0  0  0  0999 V2000
  -10.0840   18.7530  -32.5694 H   0  0  0  0  0  0  0  0  0  0  0  0
   -9.0580   19.0880  -32.3570 C   0  0  0  0  0  0  0  0  0  0  0  0
   -7.9880   18.2020  -32.5080 C   0  0  0  0  0  0  0  0  0  0  0  0
   -8.1733   17.1686  -32.8362 H   0  0  0  0  0  0  0  0  0  0  0  0
   -6.6830   18.6260  -32.2430 C   0  0  0  0  0  0  0  0  0  0  0  0
   -5.8441   17.9236  -32.3563 H   0  0  0  0  0  0  0  0  0  0  0  0
   -6.4400   19.9480  -31.8320 C   0  0  0  0  0  0  0  0  0  0  0  0
   -5.0460   20.3910  -31.4850 C   0  0  0  0  0  0  0  0  0  0  0  0
   -4.3206   19.6979  -31.9361 H   0  0  0  0  0  0  0  0  0  0  0  0
   -4.9294   20.3931  -30.3912 H   0  0  0  0  0  0  0  0  0  0  0  0
   -4.8080   21.7440  -31.9970 N   0  0  0  0  0  0  0  0  0  0  0  0
   -4.9670   22.8650  -31.1150 C   0  0  0  0  0  0  0  0  0  0  0  0
   -4.2230   22.9220  -29.9800 N   0  0  0  0  0  0  0  0  0  0  0  0
   -4.3580   23.9370  -29.0850 C   0  0  0  0  0  0  0  0  0  0  0  0
   -3.6340   23.9790  -28.0040 N   0  0  0  0  0  0  0  0  0  0  0  0
   -2.7050   22.9780  -27.5550 C   0  0  0  0  0  0  0  0  0  0  0  0
   -1.4600   23.3870  -27.0620 C   0  0  0  0  0  0  0  0  0  0  0  0
   -1.2019   24.4562  -27.0484 H   0  0  0  0  0  0  0  0  0  0  0  0
   -0.5430   22.4450  -26.5870 C   0  0  0  0  0  0  0  0  0  0  0  0
    0.4373   22.7745  -26.2121 H   0  0  0  0  0  0  0  0  0  0  0  0
   -0.8680   21.0860  -26.5870 C   0  0  0  0  0  0  0  0  0  0  0  0
   -0.1421   20.3484  -26.2142 H   0  0  0  0  0  0  0  0  0  0  0  0
   -2.1170   20.6600  -27.0610 C   0  0  0  0  0  0  0  0  0  0  0  0
   -2.4940   19.2080  -27.0040 C   0  0  0  0  0  0  0  0  0  0  0  0
   -2.5762   18.8915  -25.9537 H   0  0  0  0  0  0  0  0  0  0  0  0
   -3.4603   19.0600  -27.5082 H   0  0  0  0  0  0  0  0  0  0  0  0
   -1.7217   18.6086  -27.5082 H   0  0  0  0  0  0  0  0  0  0  0  0
   -3.0440   21.6100  -27.5170 C   0  0  0  0  0  0  0  0  0  0  0  0
   -4.0418   21.2851  -27.8470 H   0  0  0  0  0  0  0  0  0  0  0  0
   -5.2470   24.9370  -29.3360 N   0  0  0  0  0  0  0  0  0  0  0  0
   -5.3520   25.7260  -28.6580 H   0  0  0  0  0  0  0  0  0  0  0  0
   -6.0280   24.9160  -30.4480 C   0  0  0  0  0  0  0  0  0  0  0  0
   -6.7574   25.7215  -30.6189 H   0  0  0  0  0  0  0  0  0  0  0  0
   -5.9100   23.8750  -31.3780 C   0  0  0  0  0  0  0  0  0  0  0  0
   -6.8570   23.7940  -32.5430 C   0  0  0  0  0  0  0  0  0  0  0  0
   -7.8886   23.7058  -32.1715 H   0  0  0  0  0  0  0  0  0  0  0  0
   -6.7642   24.7034  -33.1549 H   0  0  0  0  0  0  0  0  0  0  0  0
   -6.6111   22.9136  -33.1549 H   0  0  0  0  0  0  0  0  0  0  0  0
   -4.0930   21.9190  -33.2620 C   0  0  0  0  0  0  0  0  0  0  0  0
   -3.0432   22.1759  -33.0573 H   0  0  0  0  0  0  0  0  0  0  0  0
   -4.1357   20.9839  -33.8397 H   0  0  0  0  0  0  0  0  0  0  0  0
   -4.5627   22.7287  -33.8397 H   0  0  0  0  0  0  0  0  0  0  0  0
   -7.5210   20.8290  -31.6690 C   0  0  0  0  0  0  0  0  0  0  0  0
   -7.3418   21.8600  -31.3301 H   0  0  0  0  0  0  0  0  0  0  0  0
   -8.8240   20.4000  -31.9360 C   0  0  0  0  0  0  0  0  0  0  0  0
   -9.6669   21.0962  -31.8146 H   0  0  0  0  0  0  0  0  0  0  0  0
  1  2  1  0
  2  3  2  0
  3  4  1  0
  3  5  1  0
  5  6  1  0
  5  7  2  0
  7  8  1  0
  8  9  1  0
  8 10  1  0
  8 11  1  0
 11 12  1  0
 12 13  2  0
 13 14  1  0
 14 15  2  0
 15 16  1  0
 16 17  2  0
 17 18  1  0
 17 19  1  0
 19 20  1  0
 19 21  2  0
 21 22  1  0
 21 23  1  0
 23 24  1  0
 24 25  1  0
 24 26  1  0
 24 27  1  0
 23 28  2  0
 28 29  1  0
 14 30  1  0
 30 31  1  0
 30 32  1  0
 32 33  1  0
 32 34  2  0
 34 35  1  0
 35 36  1  0
 35 37  1  0
 35 38  1  0
 11 39  1  0
 39 40  1  0
 39 41  1  0
 39 42  1  0
  7 43  1  0
 43 44  1  0
 43 45  2  0
 45 46  1  0
 45  2  1  0
 34 12  1  0
 28 16  1  0
M  END
>  <UniqueID>  (15) 
14

>  <SMILES>  (15) 
Cc1cccc(/N=c2\nc(N(C)Cc3ccccc3)c(C)c[nH]2)c1

>  <Energy>  (15) 
54.7703480378882

>  <Genealogy>  (15) 
Cc1cccc(/N=c2\nc(N(C)Cc3ccccc3)c(C)c[nH]2)c1 (cis-trans isomerization)
Cc1cccc(/N=c2\nc(N(C)Cc3ccccc3)c(C)c[nH]2)c1 (3D coordinates assigned)
Cc1cccc(/N=c2\nc(N(C)Cc3ccccc3)c(C)c[nH]2)c1 (optimized conformer: 54.7703480378882 kcal/mol)

>  <smiles>  (15) 
Cc1cccc(N=c2nc(N(C)Cc3ccccc3)c(C)c[nH]2)c1

>  <score_type>  (15) 
oracle

>  <origin>  (15) 
adgpu

>  <m_score__min__energy>  (15) 
-8.2300000000000004

>  <m_primary>  (15) 
energy

$$$$
15:0
     RDKit          3D

 32 33  0  0  0  0  0  0  0  0999 V2000
   -3.7817   26.1330  -30.4595 H   0  0  0  0  0  0  0  0  0  0  0  0
   -4.5810   25.3780  -30.4930 C   0  0  0  0  0  0  0  0  0  0  0  0
   -4.3470   24.1660  -31.0590 N   0  0  0  0  0  0  0  0  0  0  0  0
   -5.3070   23.2000  -31.1320 C   0  0  0  0  0  0  0  0  0  0  0  0
   -5.0490   22.0370  -31.6580 N   0  0  0  0  0  0  0  0  0  0  0  0
   -3.8240   21.6350  -32.2960 C   0  0  0  0  0  0  0  0  0  0  0  0
   -3.6350   21.9510  -33.6770 N   0  0  0  0  0  0  0  0  0  0  0  0
   -2.7460   21.7070  -34.1680 H   0  0  0  0  0  0  0  0  0  0  0  0
   -4.3930   22.4280  -34.2140 H   0  0  0  0  0  0  0  0  0  0  0  0
   -2.8610   21.0830  -31.6210 N   0  0  0  0  0  0  0  0  0  0  0  0
   -2.9290   20.9290  -30.5920 H   0  0  0  0  0  0  0  0  0  0  0  0
   -1.9650   20.8200  -32.0900 H   0  0  0  0  0  0  0  0  0  0  0  0
   -6.5800   23.4430  -30.5890 C   0  0  0  0  0  0  0  0  0  0  0  0
   -7.5530   22.4290  -30.6530 O   0  0  0  0  0  0  0  0  0  0  0  0
   -8.2420   22.0170  -31.8330 C   0  0  0  0  0  0  0  0  0  0  0  0
   -9.3255   22.1161  -31.6710 H   0  0  0  0  0  0  0  0  0  0  0  0
   -7.9198   22.6542  -32.6697 H   0  0  0  0  0  0  0  0  0  0  0  0
   -7.9220   20.5840  -32.1670 C   0  0  0  0  0  0  0  0  0  0  0  0
   -6.9100   20.2870  -33.0960 C   0  0  0  0  0  0  0  0  0  0  0  0
   -6.3468   21.1028  -33.5728 H   0  0  0  0  0  0  0  0  0  0  0  0
   -6.6170   18.9580  -33.4160 C   0  0  0  0  0  0  0  0  0  0  0  0
   -5.8194   18.7306  -34.1386 H   0  0  0  0  0  0  0  0  0  0  0  0
   -7.3350   17.9180  -32.8200 C   0  0  0  0  0  0  0  0  0  0  0  0
   -7.0500   16.6300  -33.1320 F   0  0  0  0  0  0  0  0  0  0  0  0
   -8.3520   18.2060  -31.9060 C   0  0  0  0  0  0  0  0  0  0  0  0
   -8.9200   17.3870  -31.4405 H   0  0  0  0  0  0  0  0  0  0  0  0
   -8.6490   19.5340  -31.5820 C   0  0  0  0  0  0  0  0  0  0  0  0
   -9.4545   19.7568  -30.8668 H   0  0  0  0  0  0  0  0  0  0  0  0
   -6.8360   24.6970  -30.0020 C   0  0  0  0  0  0  0  0  0  0  0  0
   -7.8284   24.9135  -29.5799 H   0  0  0  0  0  0  0  0  0  0  0  0
   -5.8330   25.6650  -29.9550 C   0  0  0  0  0  0  0  0  0  0  0  0
   -6.0290   26.6459  -29.4973 H   0  0  0  0  0  0  0  0  0  0  0  0
  1  2  1  0
  2  3  1  0
  3  4  1  0
  4  5  2  0
  5  6  1  0
  6  7  1  0
  7  8  1  0
  7  9  1  0
  6 10  2  0
 10 11  1  0
 10 12  1  0
  4 13  1  0
 13 14  1  0
 14 15  1  0
 15 16  1  0
 15 17  1  0
 15 18  1  0
 18 19  2  0
 19 20  1  0
 19 21  1  0
 21 22  1  0
 21 23  2  0
 23 24  1  0
 23 25  1  0
 25 26  1  0
 25 27  2  0
 27 28  1  0
 13 29  2  0
 29 30  1  0
 29 31  1  0
 31 32  1  0
 31  2  2  0
 27 18  1  0
M  CHG  2   3  -1  10   1
M  END
>  <UniqueID>  (16) 
15

>  <SMILES>  (16) 
NC(=[NH2+])/N=c1\[n-]cccc1OCc1ccc(F)cc1

>  <Energy>  (16) 
37.012287651438456

>  <Genealogy>  (16) 
NC(=[NH2+])N=c1[n-]cccc1OCc1ccc(F)cc1 (protonated)
NC(=[NH2+])/N=c1\[n-]cccc1OCc1ccc(F)cc1 (cis-trans isomerization)
NC(=[NH2+])/N=c1\[n-]cccc1OCc1ccc(F)cc1 (3D coordinates assigned)
NC(=[NH2+])/N=c1\[n-]cccc1OCc1ccc(F)cc1 (optimized conformer: 37.012287651438456 kcal/mol)

>  <smiles>  (16) 
N=C(N)N=c1[nH]cccc1OCc1ccc(F)cc1

>  <score_type>  (16) 
oracle

>  <origin>  (16) 
adgpu

>  <m_score__min__energy>  (16) 
-7.3799999999999999

>  <m_primary>  (16) 
energy

$$$$
16:0
     RDKit          3D

 43 45  0  0  0  0  0  0  0  0999 V2000
   -4.9460   22.5960  -32.6550 N   0  0  0  0  0  0  0  0  0  0  0  0
   -6.1440   22.4740  -31.9310 N   0  0  0  0  0  0  0  0  0  0  0  0
   -6.7670   23.4410  -31.2350 C   0  0  0  0  0  0  0  0  0  0  0  0
   -6.1000   25.0790  -30.9220 S   0  0  0  0  0  0  0  0  0  0  0  0
   -4.9790   24.5190  -29.5910 C   0  0  0  0  0  0  0  0  0  0  0  0
   -3.5370   24.5410  -30.0300 C   0  0  0  0  0  0  0  0  0  0  0  0
   -3.1790   23.8330  -31.0080 O   0  0  0  0  0  0  0  0  0  0  0  0
   -2.5350   25.2960  -29.3310 N   0  0  0  0  0  0  0  0  0  0  0  0
   -1.8470   24.8970  -28.1000 C   0  0  0  0  0  0  0  0  0  0  0  0
   -2.7810   24.0330  -27.2100 C   0  0  0  0  0  0  0  0  0  0  0  0
   -2.5820   22.5320  -27.4520 C   0  0  0  0  0  0  0  0  0  0  0  0
   -1.1400   22.0930  -27.1210 C   0  0  0  0  0  0  0  0  0  0  0  0
   -0.0920   23.2010  -27.3660 C   0  0  0  0  0  0  0  0  0  0  0  0
   -0.5370   24.1640  -28.4750 C   0  0  0  0  0  0  0  0  0  0  0  0
   -7.9900   23.0410  -30.8340 N   0  0  0  0  0  0  0  0  0  0  0  0
   -8.1580   21.8020  -31.2810 N   0  0  0  0  0  0  0  0  0  0  0  0
   -7.0340   21.4590  -31.9460 C   0  0  0  0  0  0  0  0  0  0  0  0
   -6.8470   20.1440  -32.5960 C   0  0  0  0  0  0  0  0  0  0  0  0
   -7.4900   19.0090  -32.0710 C   0  0  0  0  0  0  0  0  0  0  0  0
   -7.3010   17.7540  -32.6610 C   0  0  0  0  0  0  0  0  0  0  0  0
   -6.4580   17.6200  -33.7690 C   0  0  0  0  0  0  0  0  0  0  0  0
   -5.7980   18.7400  -34.2830 C   0  0  0  0  0  0  0  0  0  0  0  0
   -5.9830   19.9970  -33.6960 C   0  0  0  0  0  0  0  0  0  0  0  0
   -4.0350   22.7060  -32.1590 H   0  0  0  0  0  0  0  0  0  0  0  0
   -4.9530   22.6960  -33.6940 H   0  0  0  0  0  0  0  0  0  0  0  0
   -5.0973   25.1834  -28.7223 H   0  0  0  0  0  0  0  0  0  0  0  0
   -5.2432   23.4827  -29.3337 H   0  0  0  0  0  0  0  0  0  0  0  0
   -1.5846   25.7838  -27.5043 H   0  0  0  0  0  0  0  0  0  0  0  0
   -2.5678   24.2533  -26.1536 H   0  0  0  0  0  0  0  0  0  0  0  0
   -3.8208   24.2827  -27.4678 H   0  0  0  0  0  0  0  0  0  0  0  0
   -3.2817   21.9712  -26.8149 H   0  0  0  0  0  0  0  0  0  0  0  0
   -2.7704   22.3256  -28.5159 H   0  0  0  0  0  0  0  0  0  0  0  0
   -1.0985   21.8015  -26.0611 H   0  0  0  0  0  0  0  0  0  0  0  0
   -0.8923   21.2567  -27.7912 H   0  0  0  0  0  0  0  0  0  0  0  0
    0.0505   23.7697  -26.4353 H   0  0  0  0  0  0  0  0  0  0  0  0
    0.8470   22.7228  -27.6818 H   0  0  0  0  0  0  0  0  0  0  0  0
    0.2549   24.9096  -28.6395 H   0  0  0  0  0  0  0  0  0  0  0  0
   -0.7196   23.5775  -29.3875 H   0  0  0  0  0  0  0  0  0  0  0  0
   -8.1446   19.1079  -31.1925 H   0  0  0  0  0  0  0  0  0  0  0  0
   -7.8161   16.8719  -32.2528 H   0  0  0  0  0  0  0  0  0  0  0  0
   -6.3145   16.6342  -34.2355 H   0  0  0  0  0  0  0  0  0  0  0  0
   -5.1313   18.6331  -35.1514 H   0  0  0  0  0  0  0  0  0  0  0  0
   -5.4510   20.8727  -34.0962 H   0  0  0  0  0  0  0  0  0  0  0  0
  1  2  1  0
  2  3  1  0
  3  4  1  0
  4  5  1  0
  5  6  1  0
  6  7  2  0
  6  8  1  0
  8  9  1  0
  9 10  1  0
 10 11  1  0
 11 12  1  0
 12 13  1  0
 13 14  1  0
  3 15  2  0
 15 16  1  0
 16 17  2  0
 17 18  1  0
 18 19  2  0
 19 20  1  0
 20 21  2  0
 21 22  1  0
 22 23  2  0
 17  2  1  0
 23 18  1  0
 14  9  1  0
  1 24  1  0
  1 25  1  0
  5 26  1  0
  5 27  1  0
  9 28  1  0
 10 29  1  0
 10 30  1  0
 11 31  1  0
 11 32  1  0
 12 33  1  0
 12 34  1  0
 13 35  1  0
 13 36  1  0
 14 37  1  0
 14 38  1  0
 19 39  1  0
 20 40  1  0
 21 41  1  0
 22 42  1  0
 23 43  1  0
M  CHG  1   8  -1
M  END
>  <UniqueID>  (17) 
16

>  <SMILES>  (17) 
Nn1c(SCC(=O)[N-]C2CCCCC2)nnc1-c1ccccc1

>  <Energy>  (17) 
81.96095719239415

>  <Genealogy>  (17) 
Nn1c(SCC(=O)[N-]C2CCCCC2)nnc1-c1ccccc1 (protonated)
Nn1c(SCC(=O)[N-]C2CCCCC2)nnc1-c1ccccc1 (3D coordinates assigned)
Nn1c(SCC(=O)[N-]C2CCCCC2)nnc1-c1ccccc1 (nonaromatic ring conformer: 81.96095719239415 kcal/mol)

>  <smiles>  (17) 
Nn1c(SCC(=O)NC2CCCCC2)nnc1-c1ccccc1

>  <score_type>  (17) 
oracle

>  <origin>  (17) 
adgpu

>  <m_score__min__energy>  (17) 
-10.300000000000001

>  <m_primary>  (17) 
energy

$$$$
17:0
     RDKit          3D

 49 51  0  0  0  0  0  0  0  0999 V2000
   -3.1918   23.3675  -26.2085 H   0  0  0  0  0  0  0  0  0  0  0  0
   -3.2410   23.7060  -27.2540 C   0  0  0  0  0  0  0  0  0  0  0  0
   -4.2340   23.0680  -28.4520 S   0  0  0  0  0  0  0  0  0  0  0  0
   -3.6640   24.1280  -29.6330 C   0  0  0  0  0  0  0  0  0  0  0  0
   -4.0800   24.2060  -30.8640 N   0  0  0  0  0  0  0  0  0  0  0  0
   -5.0230   23.3310  -31.5030 C   0  0  0  0  0  0  0  0  0  0  0  0
   -4.5460   22.2080  -32.1870 C   0  0  0  0  0  0  0  0  0  0  0  0
   -3.4629   22.0265  -32.2491 H   0  0  0  0  0  0  0  0  0  0  0  0
   -5.4400   21.3090  -32.7960 C   0  0  0  0  0  0  0  0  0  0  0  0
   -5.0050   20.1810  -33.5100 O   0  0  0  0  0  0  0  0  0  0  0  0
   -5.8620   19.1440  -33.9760 C   0  0  0  0  0  0  0  0  0  0  0  0
   -6.2990   18.6153  -33.1161 H   0  0  0  0  0  0  0  0  0  0  0  0
   -6.6669   19.5799  -34.5860 H   0  0  0  0  0  0  0  0  0  0  0  0
   -5.2823   18.4356  -34.5860 H   0  0  0  0  0  0  0  0  0  0  0  0
   -6.8170   21.5360  -32.6910 C   0  0  0  0  0  0  0  0  0  0  0  0
   -7.5196   20.8419  -33.1753 H   0  0  0  0  0  0  0  0  0  0  0  0
   -7.3120   22.6330  -31.9790 C   0  0  0  0  0  0  0  0  0  0  0  0
   -8.7040   22.7970  -31.8940 O   0  0  0  0  0  0  0  0  0  0  0  0
   -9.6200   21.7480  -31.5980 C   0  0  0  0  0  0  0  0  0  0  0  0
   -9.7141   21.6403  -30.5073 H   0  0  0  0  0  0  0  0  0  0  0  0
  -10.6033   21.9874  -32.0290 H   0  0  0  0  0  0  0  0  0  0  0  0
   -9.2503   20.8059  -32.0290 H   0  0  0  0  0  0  0  0  0  0  0  0
   -6.4090   23.5260  -31.3730 C   0  0  0  0  0  0  0  0  0  0  0  0
   -6.7896   24.3808  -30.7947 H   0  0  0  0  0  0  0  0  0  0  0  0
   -2.7450   24.9780  -29.1340 N   0  0  0  0  0  0  0  0  0  0  0  0
   -2.4890   24.7410  -27.8170 C   0  0  0  0  0  0  0  0  0  0  0  0
   -1.5310   25.5760  -27.0540 C   0  0  0  0  0  0  0  0  0  0  0  0
   -2.0160   26.3400  -25.9900 C   0  0  0  0  0  0  0  0  0  0  0  0
   -3.0895   26.3182  -25.7508 H   0  0  0  0  0  0  0  0  0  0  0  0
   -1.1610   27.1260  -25.2310 C   0  0  0  0  0  0  0  0  0  0  0  0
   -1.5646   27.7168  -24.3955 H   0  0  0  0  0  0  0  0  0  0  0  0
    0.2140   27.1770  -25.5160 C   0  0  0  0  0  0  0  0  0  0  0  0
    1.0740   27.9650  -24.7340 O   0  0  0  0  0  0  0  0  0  0  0  0
    1.2210   27.8650  -23.3210 C   0  0  0  0  0  0  0  0  0  0  0  0
    0.4081   28.4180  -22.8277 H   0  0  0  0  0  0  0  0  0  0  0  0
    1.1791   26.8073  -23.0219 H   0  0  0  0  0  0  0  0  0  0  0  0
    2.1894   28.2925  -23.0219 H   0  0  0  0  0  0  0  0  0  0  0  0
    0.7290   26.4240  -26.6070 C   0  0  0  0  0  0  0  0  0  0  0  0
    2.0960   26.4330  -26.9490 O   0  0  0  0  0  0  0  0  0  0  0  0
    3.1970   26.0790  -26.1210 C   0  0  0  0  0  0  0  0  0  0  0  0
    2.9061   26.1725  -25.0643 H   0  0  0  0  0  0  0  0  0  0  0  0
    3.4933   25.0403  -26.3292 H   0  0  0  0  0  0  0  0  0  0  0  0
    4.0431   26.7504  -26.3292 H   0  0  0  0  0  0  0  0  0  0  0  0
   -0.1590   25.6310  -27.3910 C   0  0  0  0  0  0  0  0  0  0  0  0
    0.2540   24.9030  -28.5260 O   0  0  0  0  0  0  0  0  0  0  0  0
    0.2560   23.4900  -28.6940 C   0  0  0  0  0  0  0  0  0  0  0  0
    0.2567   23.0035  -27.7075 H   0  0  0  0  0  0  0  0  0  0  0  0
   -0.6417   23.1858  -29.2522 H   0  0  0  0  0  0  0  0  0  0  0  0
    1.1546   23.1884  -29.2522 H   0  0  0  0  0  0  0  0  0  0  0  0
  1  2  1  0
  2  3  1  0
  3  4  1  0
  4  5  2  0
  5  6  1  0
  6  7  2  0
  7  8  1  0
  7  9  1  0
  9 10  1  0
 10 11  1  0
 11 12  1  0
 11 13  1  0
 11 14  1  0
  9 15  2  0
 15 16  1  0
 15 17  1  0
 17 18  1  0
 18 19  1  0
 19 20  1  0
 19 21  1  0
 19 22  1  0
 17 23  2  0
 23 24  1  0
  4 25  1  0
 25 26  1  0
 26 27  1  0
 27 28  2  0
 28 29  1  0
 28 30  1  0
 30 31  1  0
 30 32  2  0
 32 33  1  0
 33 34  1  0
 34 35  1  0
 34 36  1  0
 34 37  1  0
 32 38  1  0
 38 39  1  0
 39 40  1  0
 40 41  1  0
 40 42  1  0
 40 43  1  0
 38 44  2  0
 44 45  1  0
 45 46  1  0
 46 47  1  0
 46 48  1  0
 46 49  1  0
 26  2  2  0
 44 27  1  0
 23  6  1  0
M  CHG  1  25  -1
M  END
>  <UniqueID>  (18) 
17

>  <SMILES>  (18) 
COc1cc(/N=c2/[n-]c(-c3ccc(OC)c(OC)c3OC)cs2)cc(OC)c1

>  <Energy>  (18) 
97.09095763640192

>  <Genealogy>  (18) 
COc1cc(N=c2[n-]c(-c3ccc(OC)c(OC)c3OC)cs2)cc(OC)c1 (protonated)
COc1cc(/N=c2/[n-]c(-c3ccc(OC)c(OC)c3OC)cs2)cc(OC)c1 (cis-trans isomerization)
COc1cc(/N=c2/[n-]c(-c3ccc(OC)c(OC)c3OC)cs2)cc(OC)c1 (3D coordinates assigned)
COc1cc(/N=c2/[n-]c(-c3ccc(OC)c(OC)c3OC)cs2)cc(OC)c1 (optimized conformer: 97.09095763640192 kcal/mol)

>  <smiles>  (18) 
COc1cc(N=c2[nH]c(-c3ccc(OC)c(OC)c3OC)cs2)cc(OC)c1

>  <score_type>  (18) 
oracle

>  <origin>  (18) 
adgpu

>  <m_score__min__energy>  (18) 
-8.1300000000000008

>  <m_primary>  (18) 
energy

$$$$
18:0
     RDKit          3D

 37 39  0  0  0  0  0  0  0  0999 V2000
    1.0180   17.0880  -27.8490 C   0  0  0  0  0  0  0  0  0  0  0  0
   -0.1390   17.4270  -27.0900 O   0  0  0  0  0  0  0  0  0  0  0  0
   -0.8750   18.6110  -27.2550 C   0  0  0  0  0  0  0  0  0  0  0  0
   -2.1750   18.7710  -26.7400 C   0  0  0  0  0  0  0  0  0  0  0  0
   -2.8670   19.9710  -26.9320 C   0  0  0  0  0  0  0  0  0  0  0  0
   -2.2740   21.0300  -27.6390 C   0  0  0  0  0  0  0  0  0  0  0  0
   -3.0040   22.2980  -27.8400 C   0  0  0  0  0  0  0  0  0  0  0  0
   -2.8150   23.4130  -27.1020 N   0  0  0  0  0  0  0  0  0  0  0  0
   -3.6600   24.3010  -27.5980 N   0  0  0  0  0  0  0  0  0  0  0  0
   -4.3220   23.7480  -28.6000 N   0  0  0  0  0  0  0  0  0  0  0  0
   -5.3820   24.4080  -29.3480 C   0  0  0  0  0  0  0  0  0  0  0  0
   -4.8850   24.7830  -30.7050 C   0  0  0  0  0  0  0  0  0  0  0  0
   -3.8640   25.5130  -30.8140 O   0  0  0  0  0  0  0  0  0  0  0  0
   -5.5140   24.2220  -31.8630 N   0  0  0  0  0  0  0  0  0  0  0  0
   -6.2310   22.9810  -31.9310 C   0  0  0  0  0  0  0  0  0  0  0  0
   -5.6110   21.7780  -32.3210 C   0  0  0  0  0  0  0  0  0  0  0  0
   -6.3550   20.5970  -32.4010 C   0  0  0  0  0  0  0  0  0  0  0  0
   -7.7220   20.6070  -32.1070 C   0  0  0  0  0  0  0  0  0  0  0  0
   -8.7370   18.9930  -32.2210 Br  0  0  0  0  0  0  0  0  0  0  0  0
   -8.3470   21.8020  -31.7410 C   0  0  0  0  0  0  0  0  0  0  0  0
   -7.6070   22.9850  -31.6610 C   0  0  0  0  0  0  0  0  0  0  0  0
   -3.9530   22.4920  -28.7790 N   0  0  0  0  0  0  0  0  0  0  0  0
   -0.9760   20.8660  -28.1520 C   0  0  0  0  0  0  0  0  0  0  0  0
   -0.2860   19.6660  -27.9610 C   0  0  0  0  0  0  0  0  0  0  0  0
    1.8460   16.8454  -27.1667 H   0  0  0  0  0  0  0  0  0  0  0  0
    0.7981   16.2165  -28.4832 H   0  0  0  0  0  0  0  0  0  0  0  0
    1.3032   17.9403  -28.4832 H   0  0  0  0  0  0  0  0  0  0  0  0
   -2.6488   17.9486  -26.1840 H   0  0  0  0  0  0  0  0  0  0  0  0
   -3.8830   20.0864  -26.5264 H   0  0  0  0  0  0  0  0  0  0  0  0
   -6.2381   23.7246  -29.4485 H   0  0  0  0  0  0  0  0  0  0  0  0
   -5.6940   25.3162  -28.8115 H   0  0  0  0  0  0  0  0  0  0  0  0
   -4.5381   21.7676  -32.5634 H   0  0  0  0  0  0  0  0  0  0  0  0
   -5.8639   19.6579  -32.6959 H   0  0  0  0  0  0  0  0  0  0  0  0
   -9.4236   21.8117  -31.5154 H   0  0  0  0  0  0  0  0  0  0  0  0
   -8.1071   23.9249  -31.3845 H   0  0  0  0  0  0  0  0  0  0  0  0
   -0.5001   21.6876  -28.7075 H   0  0  0  0  0  0  0  0  0  0  0  0
    0.7289   19.5496  -28.3691 H   0  0  0  0  0  0  0  0  0  0  0  0
  1  2  1  0
  2  3  1  0
  3  4  2  0
  4  5  1  0
  5  6  2  0
  6  7  1  0
  7  8  1  0
  8  9  2  0
  9 10  1  0
 10 11  1  0
 11 12  1  0
 12 13  2  0
 12 14  1  0
 14 15  1  0
 15 16  2  0
 16 17  1  0
 17 18  2  0
 18 19  1  0
 18 20  1  0
 20 21  2  0
 10 22  1  0
  6 23  1  0
 23 24  2  0
 24  3  1  0
 22  7  2  0
 21 15  1  0
  1 25  1  0
  1 26  1  0
  1 27  1  0
  4 28  1  0
  5 29  1  0
 11 30  1  0
 11 31  1  0
 16 32  1  0
 17 33  1  0
 20 34  1  0
 21 35  1  0
 23 36  1  0
 24 37  1  0
M  CHG  1  14  -1
M  END
>  <UniqueID>  (19) 
18

>  <SMILES>  (19) 
COc1ccc(-c2nnn(CC(=O)[N-]c3ccc(Br)cc3)n2)cc1

>  <Energy>  (19) 
78.663255450008

>  <Genealogy>  (19) 
COc1ccc(-c2nnn(CC(=O)[N-]c3ccc(Br)cc3)n2)cc1 (protonated)
COc1ccc(-c2nnn(CC(=O)[N-]c3ccc(Br)cc3)n2)cc1 (3D coordinates assigned)
COc1ccc(-c2nnn(CC(=O)[N-]c3ccc(Br)cc3)n2)cc1 (optimized conformer: 78.663255450008 kcal/mol)

>  <smiles>  (19) 
COc1ccc(-c2nnn(CC(=O)Nc3ccc(Br)cc3)n2)cc1

>  <score_type>  (19) 
oracle

>  <origin>  (19) 
adgpu

>  <m_score__min__energy>  (19) 
-10.16

>  <m_primary>  (19) 
energy

$$$$
19:0
     RDKit          3D

 34 36  0  0  1  0  0  0  0  0999 V2000
   -6.4980   26.1120  -29.4830 N   0  0  0  0  0  0  0  0  0  0  0  0
   -6.0980   24.8980  -29.6820 C   0  0  0  0  0  0  0  0  0  0  0  0
   -6.8740   24.0290  -30.3840 N   0  0  0  0  0  0  0  0  0  0  0  0
   -6.5030   22.7580  -30.6180 C   0  0  0  0  0  0  0  0  0  0  0  0
   -7.3330   21.8270  -31.3710 C   0  0  0  0  0  0  0  0  0  0  0  0
   -8.7090   21.8490  -31.2660 C   0  0  0  0  0  0  0  0  0  0  0  0
   -9.5010   20.9550  -31.9890 C   0  0  0  0  0  0  0  0  0  0  0  0
   -8.9190   20.0270  -32.8260 C   0  0  0  0  0  0  0  0  0  0  0  0
   -7.5810   20.0240  -32.9120 N   0  0  0  0  0  0  0  0  0  0  0  0
   -6.7890   20.8900  -32.2130 C   0  0  0  0  0  0  0  0  0  0  0  0
   -5.2810   22.3710  -30.1060 C   0  0  0  0  0  0  0  0  0  0  0  0
   -4.4990   23.2840  -29.3850 C   0  0  0  0  0  0  0  0  0  0  0  0
   -3.3620   22.9250  -28.9090 N   0  0  0  0  0  0  0  0  0  0  0  0
   -2.4960   23.7740  -28.1650 C   0  0  0  0  0  0  0  0  0  0  0  0
   -2.9610   24.4660  -27.0420 C   0  0  0  0  0  0  0  0  0  0  0  0
   -2.1330   25.2960  -26.3100 C   0  0  0  0  0  0  0  0  0  0  0  0
   -0.8040   25.4300  -26.7190 C   0  0  0  0  0  0  0  0  0  0  0  0
   -0.3050   24.7660  -27.8210 C   0  0  0  0  0  0  0  0  0  0  0  0
    1.0200   24.9150  -28.2070 O   0  0  0  0  0  0  0  0  0  0  0  0
   -1.1570   23.9400  -28.5360 C   0  0  0  0  0  0  0  0  0  0  0  0
   -4.9040   24.5480  -29.1710 N   0  0  0  0  0  0  0  0  0  0  0  0
   -5.9770   26.8210  -28.9680 H   0  0  0  0  0  0  0  0  0  0  0  0
   -7.7740   24.4170  -30.7270 H   0  0  0  0  0  0  0  0  0  0  0  0
   -9.1894   22.5827  -30.6020 H   0  0  0  0  0  0  0  0  0  0  0  0
  -10.5960   20.9913  -31.8902 H   0  0  0  0  0  0  0  0  0  0  0  0
   -9.5294   19.3157  -33.4017 H   0  0  0  0  0  0  0  0  0  0  0  0
   -5.6963   20.8353  -32.3270 H   0  0  0  0  0  0  0  0  0  0  0  0
   -4.9201   21.3440  -30.2641 H   0  0  0  0  0  0  0  0  0  0  0  0
   -4.0103   24.3469  -26.7341 H   0  0  0  0  0  0  0  0  0  0  0  0
   -2.5103   25.8364  -25.4293 H   0  0  0  0  0  0  0  0  0  0  0  0
   -0.1337   26.0859  -26.1441 H   0  0  0  0  0  0  0  0  0  0  0  0
    1.6910   24.8730  -27.4250 H   0  0  0  0  0  0  0  0  0  0  0  0
   -0.7722   23.4025  -29.4152 H   0  0  0  0  0  0  0  0  0  0  0  0
   -4.3260   25.2330  -28.6360 H   0  0  0  0  0  0  0  0  0  0  0  0
  1  2  2  3
  2  3  1  0
  3  4  1  0
  4  5  1  0
  5  6  2  0
  6  7  1  0
  7  8  2  0
  8  9  1  0
  9 10  2  0
  4 11  2  0
 11 12  1  0
 12 13  2  0
 13 14  1  0
 14 15  2  0
 15 16  1  0
 16 17  2  0
 17 18  1  0
 18 19  1  0
 18 20  2  0
 12 21  1  0
 21  2  1  0
 10  5  1  0
 20 14  1  0
  1 22  1  0
  3 23  1  0
  6 24  1  0
  7 25  1  0
  8 26  1  0
 10 27  1  0
 11 28  1  0
 15 29  1  0
 16 30  1  0
 17 31  1  0
 19 32  1  0
 20 33  1  0
 21 34  1  0
M  END
>  <smiles>  (20) 
N=c1[nH]c(-c2cccnc2)cc(=Nc2cccc(O)c2)[nH]1

>  <score_type>  (20) 
oracle

>  <origin>  (20) 
adgpu

>  <m_score__min__energy>  (20) 
-8.0299999999999994

>  <m_primary>  (20) 
energy

$$$$
20:0
     RDKit          3D

 37 39  0  0  0  0  0  0  0  0999 V2000
   -0.4780   22.9170  -29.5640 C   0  0  0  0  0  0  0  0  0  0  0  0
    0.2740   23.9110  -28.8750 O   0  0  0  0  0  0  0  0  0  0  0  0
   -0.1440   24.5580  -27.7000 C   0  0  0  0  0  0  0  0  0  0  0  0
    0.5240   24.3650  -26.4730 C   0  0  0  0  0  0  0  0  0  0  0  0
    0.1300   25.0730  -25.3350 C   0  0  0  0  0  0  0  0  0  0  0  0
   -0.9250   25.9830  -25.4070 C   0  0  0  0  0  0  0  0  0  0  0  0
   -1.6020   26.1740  -26.6120 C   0  0  0  0  0  0  0  0  0  0  0  0
   -1.2420   25.4460  -27.7530 C   0  0  0  0  0  0  0  0  0  0  0  0
   -1.9810   25.6700  -28.9640 N   0  0  0  0  0  0  0  0  0  0  0  0
   -3.1330   24.9260  -29.3740 C   0  0  0  0  0  0  0  0  0  0  0  0
   -3.4750   23.9080  -28.7170 O   0  0  0  0  0  0  0  0  0  0  0  0
   -3.8660   25.3120  -30.5390 N   0  0  0  0  0  0  0  0  0  0  0  0
   -5.2640   24.9700  -30.7530 C   0  0  0  0  0  0  0  0  0  0  0  0
   -5.3450   23.6090  -31.3670 C   0  0  0  0  0  0  0  0  0  0  0  0
   -4.2750   22.7690  -31.6620 C   0  0  0  0  0  0  0  0  0  0  0  0
   -4.7240   21.5730  -32.1080 N   0  0  0  0  0  0  0  0  0  0  0  0
   -6.0660   21.6470  -32.0800 C   0  0  0  0  0  0  0  0  0  0  0  0
   -6.9740   20.6460  -32.4220 C   0  0  0  0  0  0  0  0  0  0  0  0
   -8.3460   20.9290  -32.2870 C   0  0  0  0  0  0  0  0  0  0  0  0
   -8.7740   22.1890  -31.8140 C   0  0  0  0  0  0  0  0  0  0  0  0
   -7.8340   23.1790  -31.4730 C   0  0  0  0  0  0  0  0  0  0  0  0
   -6.4820   22.8720  -31.6260 C   0  0  0  0  0  0  0  0  0  0  0  0
   -0.9743   22.2610  -28.8337 H   0  0  0  0  0  0  0  0  0  0  0  0
   -1.2365   23.4030  -30.1952 H   0  0  0  0  0  0  0  0  0  0  0  0
    0.1960   22.3193  -30.1952 H   0  0  0  0  0  0  0  0  0  0  0  0
    1.3601   23.6528  -26.4117 H   0  0  0  0  0  0  0  0  0  0  0  0
    0.6526   24.9127  -24.3804 H   0  0  0  0  0  0  0  0  0  0  0  0
   -1.2233   26.5504  -24.5131 H   0  0  0  0  0  0  0  0  0  0  0  0
   -2.4248   26.9020  -26.6662 H   0  0  0  0  0  0  0  0  0  0  0  0
   -5.7956   24.9721  -29.7900 H   0  0  0  0  0  0  0  0  0  0  0  0
   -5.7281   25.7080  -31.4238 H   0  0  0  0  0  0  0  0  0  0  0  0
   -3.2147   23.0392  -31.5486 H   0  0  0  0  0  0  0  0  0  0  0  0
   -4.1420   20.7540  -32.3920 H   0  0  0  0  0  0  0  0  0  0  0  0
   -6.6293   19.6667  -32.7856 H   0  0  0  0  0  0  0  0  0  0  0  0
   -9.0902   20.1634  -32.5517 H   0  0  0  0  0  0  0  0  0  0  0  0
   -9.8491   22.3978  -31.7115 H   0  0  0  0  0  0  0  0  0  0  0  0
   -8.1547   24.1622  -31.0983 H   0  0  0  0  0  0  0  0  0  0  0  0
  1  2  1  0
  2  3  1  0
  3  4  2  0
  4  5  1  0
  5  6  2  0
  6  7  1  0
  7  8  2  0
  8  9  1  0
  9 10  1  0
 10 11  2  0
 10 12  1  0
 12 13  1  0
 13 14  1  0
 14 15  2  0
 15 16  1  0
 16 17  1  0
 17 18  2  0
 18 19  1  0
 19 20  2  0
 20 21  1  0
 21 22  2  0
  8  3  1  0
 22 14  1  0
 22 17  1  0
  1 23  1  0
  1 24  1  0
  1 25  1  0
  4 26  1  0
  5 27  1  0
  6 28  1  0
  7 29  1  0
 13 30  1  0
 13 31  1  0
 15 32  1  0
 16 33  1  0
 18 34  1  0
 19 35  1  0
 20 36  1  0
 21 37  1  0
M  CHG  2   9  -1  12  -1
M  END
>  <UniqueID>  (21) 
19

>  <SMILES>  (21) 
COc1ccccc1[N-]C(=O)[N-]Cc1c[nH]c2ccccc12

>  <Energy>  (21) 
72.37715354800076

>  <Genealogy>  (21) 
COc1ccccc1[N-]C(=O)[N-]Cc1c[nH]c2ccccc12 (protonated)
COc1ccccc1[N-]C(=O)[N-]Cc1c[nH]c2ccccc12 (3D coordinates assigned)
COc1ccccc1[N-]C(=O)[N-]Cc1c[nH]c2ccccc12 (optimized conformer: 72.37715354800076 kcal/mol)

>  <smiles>  (21) 
COc1ccccc1NC(=O)NCc1c[nH]c2ccccc12

>  <score_type>  (21) 
oracle

>  <origin>  (21) 
adgpu

>  <m_score__min__energy>  (21) 
-10.970000000000001

>  <m_primary>  (21) 
energy

$$$$
21:0
     RDKit          3D

 43 46  0  0  0  0  0  0  0  0999 V2000
   -5.3890   14.9910  -32.7780 F   0  0  0  0  0  0  0  0  0  0  0  0
   -5.6290   16.2000  -33.3440 C   0  0  0  0  0  0  0  0  0  0  0  0
   -4.9740   16.5600  -34.5250 C   0  0  0  0  0  0  0  0  0  0  0  0
   -5.2060   17.8120  -35.0990 C   0  0  0  0  0  0  0  0  0  0  0  0
   -6.1020   18.7030  -34.4990 C   0  0  0  0  0  0  0  0  0  0  0  0
   -6.7950   18.3350  -33.3330 C   0  0  0  0  0  0  0  0  0  0  0  0
   -7.7280   19.3150  -32.6580 C   0  0  0  0  0  0  0  0  0  0  0  0
   -7.1020   20.1740  -31.6160 N   0  0  1  0  0  0  0  0  0  0  0  0
   -5.6150   20.1530  -31.6140 C   0  0  0  0  0  0  0  0  0  0  0  0
   -4.9430   21.2580  -32.4400 C   0  0  0  0  0  0  0  0  0  0  0  0
   -5.5620   22.6500  -32.2810 C   0  0  2  0  0  0  0  0  0  0  0  0
   -4.9250   23.5230  -31.2110 C   0  0  0  0  0  0  0  0  0  0  0  0
   -4.9970   24.8770  -31.2760 N   0  0  0  0  0  0  0  0  0  0  0  0
   -4.3640   25.3800  -30.2260 N   0  0  0  0  0  0  0  0  0  0  0  0
   -3.8880   24.3960  -29.4890 N   0  0  0  0  0  0  0  0  0  0  0  0
   -3.1830   24.5200  -28.3370 C   0  0  0  0  0  0  0  0  0  0  0  0
   -2.7600   23.3500  -27.6930 C   0  0  0  0  0  0  0  0  0  0  0  0
   -3.0760   22.1010  -28.2560 C   0  0  0  0  0  0  0  0  0  0  0  0
   -3.8090   22.0230  -29.4520 C   0  0  0  0  0  0  0  0  0  0  0  0
   -4.2070   23.2210  -30.0540 C   0  0  0  0  0  0  0  0  0  0  0  0
   -7.0940   22.6370  -32.2850 C   0  0  0  0  0  0  0  0  0  0  0  0
   -7.7340   21.5120  -31.4620 C   0  0  0  0  0  0  0  0  0  0  0  0
   -6.5250   17.0890  -32.7410 C   0  0  0  0  0  0  0  0  0  0  0  0
   -4.2756   15.8571  -35.0026 H   0  0  0  0  0  0  0  0  0  0  0  0
   -4.6835   18.0977  -36.0239 H   0  0  0  0  0  0  0  0  0  0  0  0
   -6.2650   19.6966  -34.9420 H   0  0  0  0  0  0  0  0  0  0  0  0
   -8.1488   19.9726  -33.4329 H   0  0  0  0  0  0  0  0  0  0  0  0
   -8.4834   18.7074  -32.1381 H   0  0  0  0  0  0  0  0  0  0  0  0
   -7.3580   19.6760  -30.7290 H   0  0  0  0  0  0  0  0  0  0  0  0
   -5.2882   19.1823  -32.0152 H   0  0  0  0  0  0  0  0  0  0  0  0
   -5.3095   20.3240  -30.5712 H   0  0  0  0  0  0  0  0  0  0  0  0
   -5.0043   20.9761  -33.5015 H   0  0  0  0  0  0  0  0  0  0  0  0
   -3.9105   21.3356  -32.0686 H   0  0  0  0  0  0  0  0  0  0  0  0
   -5.2883   23.1809  -33.2047 H   0  0  0  0  0  0  0  0  0  0  0  0
   -2.9500   25.5110  -27.9202 H   0  0  0  0  0  0  0  0  0  0  0  0
   -2.1864   23.4079  -26.7562 H   0  0  0  0  0  0  0  0  0  0  0  0
   -2.7468   21.1780  -27.7563 H   0  0  0  0  0  0  0  0  0  0  0  0
   -4.0618   21.0509  -29.9005 H   0  0  0  0  0  0  0  0  0  0  0  0
   -7.4318   22.5326  -33.3266 H   0  0  0  0  0  0  0  0  0  0  0  0
   -7.4110   23.5801  -31.8160 H   0  0  0  0  0  0  0  0  0  0  0  0
   -8.7882   21.4269  -31.7645 H   0  0  0  0  0  0  0  0  0  0  0  0
   -7.5999   21.7925  -30.4068 H   0  0  0  0  0  0  0  0  0  0  0  0
   -7.0207   16.8117  -31.7990 H   0  0  0  0  0  0  0  0  0  0  0  0
  1  2  1  0
  2  3  2  0
  3  4  1  0
  4  5  2  0
  5  6  1  0
  6  7  1  0
  7  8  1  0
  8  9  1  0
  9 10  1  0
 10 11  1  0
 11 12  1  0
 12 13  1  0
 13 14  2  0
 14 15  1  0
 15 16  1  0
 16 17  2  0
 17 18  1  0
 18 19  2  0
 19 20  1  0
 11 21  1  0
 21 22  1  0
  6 23  2  0
 23  2  1  0
 22  8  1  0
 20 12  2  0
 20 15  1  0
  3 24  1  0
  4 25  1  0
  5 26  1  0
  7 27  1  0
  7 28  1  0
  8 29  1  1
  9 30  1  0
  9 31  1  0
 10 32  1  0
 10 33  1  0
 11 34  1  6
 16 35  1  0
 17 36  1  0
 18 37  1  0
 19 38  1  0
 21 39  1  0
 21 40  1  0
 22 41  1  0
 22 42  1  0
 23 43  1  0
M  CHG  1   8   1
M  END
>  <UniqueID>  (22) 
20

>  <SMILES>  (22) 
Fc1cccc(C[NH+]2CCC(c3nnn4ccccc34)CC2)c1

>  <Energy>  (22) 
108.30361128336105

>  <Genealogy>  (22) 
Fc1cccc(C[NH+]2CCC(c3nnn4ccccc34)CC2)c1 (protonated)
Fc1cccc(C[NH+]2CCC(c3nnn4ccccc34)CC2)c1 (3D coordinates assigned)
Fc1cccc(C[NH+]2CCC(c3nnn4ccccc34)CC2)c1 (nonaromatic ring conformer: 108.30361128336105 kcal/mol)

>  <smiles>  (22) 
Fc1cccc(CN2CCC(c3nnn4ccccc34)CC2)c1

>  <score_type>  (22) 
oracle

>  <origin>  (22) 
adgpu

>  <m_score__min__energy>  (22) 
-8

>  <m_primary>  (22) 
energy

$$$$
22:0
     RDKit          3D

 37 39  0  0  0  0  0  0  0  0999 V2000
   -8.3040   23.0490  -31.9780 C   0  0  0  0  0  0  0  0  0  0  0  0
   -7.0150   23.3090  -31.2550 C   0  0  0  0  0  0  0  0  0  0  0  0
   -5.9870   22.3560  -31.2790 C   0  0  0  0  0  0  0  0  0  0  0  0
   -4.7990   22.5800  -30.5760 C   0  0  0  0  0  0  0  0  0  0  0  0
   -4.6210   23.7620  -29.8300 C   0  0  0  0  0  0  0  0  0  0  0  0
   -3.3710   24.0150  -29.0700 C   0  0  0  0  0  0  0  0  0  0  0  0
   -2.9090   23.1180  -28.0900 C   0  0  0  0  0  0  0  0  0  0  0  0
   -1.7210   23.3940  -27.3970 C   0  0  0  0  0  0  0  0  0  0  0  0
   -1.2380   22.4660  -26.3160 C   0  0  0  0  0  0  0  0  0  0  0  0
   -1.1120   21.0670  -26.8530 C   0  0  0  0  0  0  0  0  0  0  0  0
   -1.9490   20.0450  -26.3740 C   0  0  0  0  0  0  0  0  0  0  0  0
   -1.8040   18.7370  -26.8450 C   0  0  0  0  0  0  0  0  0  0  0  0
   -0.8190   18.4370  -27.7910 C   0  0  0  0  0  0  0  0  0  0  0  0
    0.0250   19.4450  -28.2630 C   0  0  0  0  0  0  0  0  0  0  0  0
   -0.1150   20.7550  -27.7930 C   0  0  0  0  0  0  0  0  0  0  0  0
   -1.0170   24.5710  -27.6850 C   0  0  0  0  0  0  0  0  0  0  0  0
   -1.4960   25.4330  -28.6730 C   0  0  0  0  0  0  0  0  0  0  0  0
   -0.8680   26.4870  -28.9520 O   0  0  0  0  0  0  0  0  0  0  0  0
   -2.6460   25.1370  -29.3350 N   0  0  0  0  0  0  0  0  0  0  0  0
   -5.6690   24.6990  -29.7880 C   0  0  0  0  0  0  0  0  0  0  0  0
   -6.8560   24.4730  -30.4910 C   0  0  0  0  0  0  0  0  0  0  0  0
   -9.1088   22.8867  -31.2459 H   0  0  0  0  0  0  0  0  0  0  0  0
   -8.5516   23.9153  -32.6091 H   0  0  0  0  0  0  0  0  0  0  0  0
   -8.1965   22.1545  -32.6091 H   0  0  0  0  0  0  0  0  0  0  0  0
   -6.1156   21.4270  -31.8539 H   0  0  0  0  0  0  0  0  0  0  0  0
   -3.9972   21.8275  -30.6057 H   0  0  0  0  0  0  0  0  0  0  0  0
   -3.4775   22.2029  -27.8677 H   0  0  0  0  0  0  0  0  0  0  0  0
   -0.2562   22.8071  -25.9558 H   0  0  0  0  0  0  0  0  0  0  0  0
   -1.9627   22.4697  -25.4885 H   0  0  0  0  0  0  0  0  0  0  0  0
   -2.7214   20.2752  -25.6254 H   0  0  0  0  0  0  0  0  0  0  0  0
   -2.4660   17.9422  -26.4708 H   0  0  0  0  0  0  0  0  0  0  0  0
   -0.7088   17.4078  -28.1633 H   0  0  0  0  0  0  0  0  0  0  0  0
    0.8011   19.2082  -29.0056 H   0  0  0  0  0  0  0  0  0  0  0  0
    0.5578   21.5439  -28.1605 H   0  0  0  0  0  0  0  0  0  0  0  0
   -0.0946   24.8136  -27.1370 H   0  0  0  0  0  0  0  0  0  0  0  0
   -5.5535   25.6189  -29.1960 H   0  0  0  0  0  0  0  0  0  0  0  0
   -7.6691   25.2124  -30.4442 H   0  0  0  0  0  0  0  0  0  0  0  0
  1  2  1  0
  2  3  2  0
  3  4  1  0
  4  5  2  0
  5  6  1  0
  6  7  2  0
  7  8  1  0
  8  9  1  0
  9 10  1  0
 10 11  2  0
 11 12  1  0
 12 13  2  0
 13 14  1  0
 14 15  2  0
  8 16  2  0
 16 17  1  0
 17 18  2  0
 17 19  1  0
  5 20  1  0
 20 21  2  0
 21  2  1  0
 19  6  1  0
 15 10  1  0
  1 22  1  0
  1 23  1  0
  1 24  1  0
  3 25  1  0
  4 26  1  0
  7 27  1  0
  9 28  1  0
  9 29  1  0
 11 30  1  0
 12 31  1  0
 13 32  1  0
 14 33  1  0
 15 34  1  0
 16 35  1  0
 20 36  1  0
 21 37  1  0
M  CHG  1  19  -1
M  END
>  <UniqueID>  (23) 
21

>  <SMILES>  (23) 
Cc1ccc(-c2cc(Cc3ccccc3)cc(=O)[n-]2)cc1

>  <Energy>  (23) 
41.966432421217625

>  <Genealogy>  (23) 
Cc1ccc(-c2cc(Cc3ccccc3)cc(=O)[n-]2)cc1 (protonated)
Cc1ccc(-c2cc(Cc3ccccc3)cc(=O)[n-]2)cc1 (3D coordinates assigned)
Cc1ccc(-c2cc(Cc3ccccc3)cc(=O)[n-]2)cc1 (optimized conformer: 41.966432421217625 kcal/mol)

>  <smiles>  (23) 
Cc1ccc(-c2cc(Cc3ccccc3)cc(=O)[nH]2)cc1

>  <score_type>  (23) 
oracle

>  <origin>  (23) 
adgpu

>  <m_score__min__energy>  (23) 
-9.4199999999999999

>  <m_primary>  (23) 
energy

$$$$
23:0
     RDKit          3D

 34 37  0  0  0  0  0  0  0  0999 V2000
   -3.6890   14.4770  -32.7440 C   0  0  0  0  0  0  0  0  0  0  0  0
   -3.4110   15.4370  -34.2650 S   0  0  0  0  0  0  0  0  0  0  0  0
   -4.6420   16.6740  -33.8510 C   0  0  0  0  0  0  0  0  0  0  0  0
   -4.8290   17.7840  -34.6830 C   0  0  0  0  0  0  0  0  0  0  0  0
   -5.7870   18.7490  -34.3620 C   0  0  0  0  0  0  0  0  0  0  0  0
   -6.5730   18.6130  -33.2050 C   0  0  0  0  0  0  0  0  0  0  0  0
   -7.5820   19.6320  -32.8470 C   0  0  0  0  0  0  0  0  0  0  0  0
   -8.9130   19.4950  -33.0580 N   0  0  0  0  0  0  0  0  0  0  0  0
   -9.5600   20.5700  -32.6220 N   0  0  0  0  0  0  0  0  0  0  0  0
   -8.6280   21.4080  -32.1340 C   0  0  0  0  0  0  0  0  0  0  0  0
   -8.8300   22.6720  -31.5920 C   0  0  0  0  0  0  0  0  0  0  0  0
   -7.6980   23.3970  -31.1760 C   0  0  0  0  0  0  0  0  0  0  0  0
   -6.3930   22.8540  -31.3190 C   0  0  0  0  0  0  0  0  0  0  0  0
   -5.2110   23.6330  -30.8940 C   0  0  0  0  0  0  0  0  0  0  0  0
   -4.2070   23.1290  -30.1490 N   0  0  0  0  0  0  0  0  0  0  0  0
   -3.3870   24.1900  -30.0250 C   0  0  0  0  0  0  0  0  0  0  0  0
   -3.8620   25.2780  -30.6580 N   0  0  0  0  0  0  0  0  0  0  0  0
   -5.0130   24.9270  -31.2060 N   0  0  0  0  0  0  0  0  0  0  0  0
   -6.2310   21.5640  -31.8790 C   0  0  0  0  0  0  0  0  0  0  0  0
   -7.3780   20.8650  -32.2570 C   0  0  0  0  0  0  0  0  0  0  0  0
   -6.3640   17.5080  -32.3620 C   0  0  0  0  0  0  0  0  0  0  0  0
   -5.4060   16.5420  -32.6870 C   0  0  0  0  0  0  0  0  0  0  0  0
   -3.5039   15.1161  -31.8681 H   0  0  0  0  0  0  0  0  0  0  0  0
   -4.7283   14.1172  -32.7223 H   0  0  0  0  0  0  0  0  0  0  0  0
   -3.0028   13.6175  -32.7223 H   0  0  0  0  0  0  0  0  0  0  0  0
   -4.2200   17.8969  -35.5921 H   0  0  0  0  0  0  0  0  0  0  0  0
   -5.9268   19.6203  -35.0187 H   0  0  0  0  0  0  0  0  0  0  0  0
   -9.3870   18.6680  -33.4820 H   0  0  0  0  0  0  0  0  0  0  0  0
   -9.8418   23.0918  -31.4916 H   0  0  0  0  0  0  0  0  0  0  0  0
   -7.8251   24.3965  -30.7346 H   0  0  0  0  0  0  0  0  0  0  0  0
   -2.4376   24.1695  -29.4698 H   0  0  0  0  0  0  0  0  0  0  0  0
   -5.2309   21.1258  -32.0122 H   0  0  0  0  0  0  0  0  0  0  0  0
   -6.9570   17.4023  -31.4416 H   0  0  0  0  0  0  0  0  0  0  0  0
   -5.2532   15.6765  -32.0255 H   0  0  0  0  0  0  0  0  0  0  0  0
  1  2  1  0
  2  3  1  0
  3  4  2  0
  4  5  1  0
  5  6  2  0
  6  7  1  0
  7  8  1  0
  8  9  1  0
  9 10  2  0
 10 11  1  0
 11 12  2  0
 12 13  1  0
 13 14  1  0
 14 15  1  0
 15 16  2  0
 16 17  1  0
 17 18  1  0
 13 19  2  0
 19 20  1  0
  6 21  1  0
 21 22  2  0
 22  3  1  0
 20  7  2  0
 20 10  1  0
 18 14  2  0
  1 23  1  0
  1 24  1  0
  1 25  1  0
  4 26  1  0
  5 27  1  0
  8 28  1  0
 11 29  1  0
 12 30  1  0
 16 31  1  0
 19 32  1  0
 21 33  1  0
 22 34  1  0
M  CHG  1  17  -1
M  END
>  <UniqueID>  (24) 
22

>  <SMILES>  (24) 
CSc1ccc(-c2[nH]nc3ccc(-c4nc[n-]n4)cc23)cc1

>  <Energy>  (24) 
108.84011050380141

>  <Genealogy>  (24) 
CSc1ccc(-c2[nH]nc3ccc(-c4nc[n-]n4)cc23)cc1 (protonated)
CSc1ccc(-c2[nH]nc3ccc(-c4nc[n-]n4)cc23)cc1 (3D coordinates assigned)
CSc1ccc(-c2[nH]nc3ccc(-c4nc[n-]n4)cc23)cc1 (optimized conformer: 108.84011050380141 kcal/mol)

>  <smiles>  (24) 
CSc1ccc(-c2[nH]nc3ccc(-c4nc[nH]n4)cc23)cc1

>  <score_type>  (24) 
oracle

>  <origin>  (24) 
adgpu

>  <m_score__min__energy>  (24) 
-10.640000000000001

>  <m_primary>  (24) 
energy

$$$$
24:0
     RDKit          3D

 37 40  0  0  0  0  0  0  0  0999 V2000
    1.3020   23.7170  -27.4090 Cl  0  0  0  0  0  0  0  0  0  0  0  0
   -0.2120   23.8310  -28.2870 C   0  0  0  0  0  0  0  0  0  0  0  0
   -1.1590   24.7980  -27.9310 C   0  0  0  0  0  0  0  0  0  0  0  0
   -2.3660   24.8890  -28.6290 C   0  0  0  0  0  0  0  0  0  0  0  0
   -2.6310   24.0200  -29.6990 C   0  0  0  0  0  0  0  0  0  0  0  0
   -3.8770   24.0910  -30.4100 N   0  0  0  0  0  0  0  0  0  0  0  0
   -4.5600   25.2170  -30.5700 N   0  0  0  0  0  0  0  0  0  0  0  0
   -5.7110   24.9240  -31.2120 C   0  0  0  0  0  0  0  0  0  0  0  0
   -5.7490   23.5630  -31.4490 C   0  0  0  0  0  0  0  0  0  0  0  0
   -4.5760   23.0690  -30.9480 C   0  0  0  0  0  0  0  0  0  0  0  0
   -4.3770   21.5950  -30.7430 C   0  0  0  0  0  0  0  0  0  0  0  0
   -5.1770   20.7980  -31.8010 C   0  0  0  0  0  0  0  0  0  0  0  0
   -6.5640   21.3700  -32.0790 C   0  0  0  0  0  0  0  0  0  0  0  0
   -6.8170   22.6910  -31.9590 C   0  0  0  0  0  0  0  0  0  0  0  0
   -8.1760   23.2250  -32.3420 C   0  0  0  0  0  0  0  0  0  0  0  0
   -9.3060   22.3040  -31.8370 C   0  0  0  0  0  0  0  0  0  0  0  0
   -8.9820   20.7880  -31.9100 C   0  0  0  0  0  0  0  0  0  0  0  0
   -7.6540   20.4790  -32.6140 C   0  0  0  0  0  0  0  0  0  0  0  0
   -1.6890   23.0360  -30.0370 C   0  0  0  0  0  0  0  0  0  0  0  0
   -0.4800   22.9480  -29.3380 C   0  0  0  0  0  0  0  0  0  0  0  0
   -0.9526   25.4881  -27.0996 H   0  0  0  0  0  0  0  0  0  0  0  0
   -3.1112   25.6443  -28.3390 H   0  0  0  0  0  0  0  0  0  0  0  0
   -6.4885   25.6475  -31.4985 H   0  0  0  0  0  0  0  0  0  0  0  0
   -3.3077   21.3554  -30.8390 H   0  0  0  0  0  0  0  0  0  0  0  0
   -4.7337   21.3198  -29.7395 H   0  0  0  0  0  0  0  0  0  0  0  0
   -4.6061   20.7985  -32.7413 H   0  0  0  0  0  0  0  0  0  0  0  0
   -5.3216   19.7844  -31.3989 H   0  0  0  0  0  0  0  0  0  0  0  0
   -8.3050   24.2244  -31.9010 H   0  0  0  0  0  0  0  0  0  0  0  0
   -8.2325   23.2721  -33.4395 H   0  0  0  0  0  0  0  0  0  0  0  0
   -9.5152   22.5604  -30.7880 H   0  0  0  0  0  0  0  0  0  0  0  0
  -10.1668   22.4722  -32.5009 H   0  0  0  0  0  0  0  0  0  0  0  0
   -8.9327   20.3928  -30.8846 H   0  0  0  0  0  0  0  0  0  0  0  0
   -9.7795   20.3149  -32.5017 H   0  0  0  0  0  0  0  0  0  0  0  0
   -7.3842   19.4275  -32.4362 H   0  0  0  0  0  0  0  0  0  0  0  0
   -7.7686   20.6592  -33.6931 H   0  0  0  0  0  0  0  0  0  0  0  0
   -1.9019   22.3314  -30.8544 H   0  0  0  0  0  0  0  0  0  0  0  0
    0.2605   22.1834  -29.6155 H   0  0  0  0  0  0  0  0  0  0  0  0
  1  2  1  0
  2  3  2  0
  3  4  1  0
  4  5  2  0
  5  6  1  0
  6  7  1  0
  7  8  2  0
  8  9  1  0
  9 10  2  0
 10 11  1  0
 11 12  1  0
 12 13  1  0
 13 14  2  0
 14 15  1  0
 15 16  1  0
 16 17  1  0
 17 18  1  0
  5 19  1  0
 19 20  2  0
 20  2  1  0
 10  6  1  0
 18 13  1  0
 14  9  1  0
  3 21  1  0
  4 22  1  0
  8 23  1  0
 11 24  1  0
 11 25  1  0
 12 26  1  0
 12 27  1  0
 15 28  1  0
 15 29  1  0
 16 30  1  0
 16 31  1  0
 17 32  1  0
 17 33  1  0
 18 34  1  0
 18 35  1  0
 19 36  1  0
 20 37  1  0
M  END
>  <UniqueID>  (25) 
23

>  <SMILES>  (25) 
Clc1ccc(-n2ncc3c2CCC2=C3CCCC2)cc1

>  <Energy>  (25) 
84.61027028165421

>  <Genealogy>  (25) 
Clc1ccc(-n2ncc3c2CCC2=C3CCCC2)cc1 (3D coordinates assigned)
Clc1ccc(-n2ncc3c2CCC2=C3CCCC2)cc1 (nonaromatic ring conformer: 84.61027028165421 kcal/mol)

>  <smiles>  (25) 
Clc1ccc(-n2ncc3c2CCC2=C3CCCC2)cc1

>  <score_type>  (25) 
oracle

>  <origin>  (25) 
adgpu

>  <m_score__min__energy>  (25) 
-8.5

>  <m_primary>  (25) 
energy

$$$$
25:0
     RDKit          3D

 26 27  0  0  0  0  0  0  0  0999 V2000
   -8.6300   21.4080  -31.6030 C   0  0  0  0  0  0  0  0  0  0  0  0
   -8.4100   22.6770  -30.9950 O   0  0  0  0  0  0  0  0  0  0  0  0
   -7.1550   23.2890  -30.8690 C   0  0  0  0  0  0  0  0  0  0  0  0
   -7.1020   24.5970  -30.3790 C   0  0  0  0  0  0  0  0  0  0  0  0
   -5.8780   25.2520  -30.2370 C   0  0  0  0  0  0  0  0  0  0  0  0
   -4.6880   24.6080  -30.5860 C   0  0  0  0  0  0  0  0  0  0  0  0
   -3.4850   25.2970  -30.4650 O   0  0  0  0  0  0  0  0  0  0  0  0
   -4.7170   23.2850  -31.0710 C   0  0  0  0  0  0  0  0  0  0  0  0
   -3.4680   22.5720  -31.4350 C   0  0  0  0  0  0  0  0  0  0  0  0
   -3.3860   21.8570  -32.6430 C   0  0  0  0  0  0  0  0  0  0  0  0
   -2.2120   21.1780  -32.9830 C   0  0  0  0  0  0  0  0  0  0  0  0
   -1.1130   21.2000  -32.1200 C   0  0  0  0  0  0  0  0  0  0  0  0
    0.0230   20.5370  -32.4540 F   0  0  0  0  0  0  0  0  0  0  0  0
   -1.1870   21.9010  -30.9120 C   0  0  0  0  0  0  0  0  0  0  0  0
   -0.1250   21.9160  -30.0700 F   0  0  0  0  0  0  0  0  0  0  0  0
   -2.3590   22.5830  -30.5690 C   0  0  0  0  0  0  0  0  0  0  0  0
   -5.9560   22.6350  -31.2160 C   0  0  0  0  0  0  0  0  0  0  0  0
   -8.7623   20.6451  -30.8217 H   0  0  0  0  0  0  0  0  0  0  0  0
   -9.5338   21.4528  -32.2285 H   0  0  0  0  0  0  0  0  0  0  0  0
   -7.7639   21.1460  -32.2285 H   0  0  0  0  0  0  0  0  0  0  0  0
   -8.0327   25.1143  -30.1031 H   0  0  0  0  0  0  0  0  0  0  0  0
   -5.8498   26.2806  -29.8483 H   0  0  0  0  0  0  0  0  0  0  0  0
   -4.2496   21.8317  -33.3238 H   0  0  0  0  0  0  0  0  0  0  0  0
   -2.1533   20.6251  -33.9321 H   0  0  0  0  0  0  0  0  0  0  0  0
   -2.4141   23.1311  -29.6169 H   0  0  0  0  0  0  0  0  0  0  0  0
   -5.9893   21.6062  -31.6040 H   0  0  0  0  0  0  0  0  0  0  0  0
  1  2  1  0
  2  3  1  0
  3  4  2  0
  4  5  1  0
  5  6  2  0
  6  7  1  0
  6  8  1  0
  8  9  1  0
  9 10  2  0
 10 11  1  0
 11 12  2  0
 12 13  1  0
 12 14  1  0
 14 15  1  0
 14 16  2  0
  8 17  2  0
 17  3  1  0
 16  9  1  0
  1 18  1  0
  1 19  1  0
  1 20  1  0
  4 21  1  0
  5 22  1  0
 10 23  1  0
 11 24  1  0
 16 25  1  0
 17 26  1  0
M  CHG  1   7  -1
M  END
>  <UniqueID>  (26) 
24

>  <SMILES>  (26) 
COc1ccc([O-])c(-c2ccc(F)c(F)c2)c1

>  <Energy>  (26) 
32.94585009587286

>  <Genealogy>  (26) 
COc1ccc([O-])c(-c2ccc(F)c(F)c2)c1 (protonated)
COc1ccc([O-])c(-c2ccc(F)c(F)c2)c1 (3D coordinates assigned)
COc1ccc([O-])c(-c2ccc(F)c(F)c2)c1 (optimized conformer: 32.94585009587286 kcal/mol)

>  <smiles>  (26) 
COc1ccc(O)c(-c2ccc(F)c(F)c2)c1

>  <score_type>  (26) 
oracle

>  <origin>  (26) 
adgpu

>  <m_score__min__energy>  (26) 
-8.6099999999999994

>  <m_primary>  (26) 
energy

$$$$
26:0
     RDKit          3D

 36 38  0  0  0  0  0  0  0  0999 V2000
   -9.4650   18.7570  -32.0290 C   0  0  0  0  0  0  0  0  0  0  0  0
   -8.0810   19.3110  -32.1290 C   0  0  0  0  0  0  0  0  0  0  0  0
   -7.0980   18.5250  -32.1010 O   0  0  0  0  0  0  0  0  0  0  0  0
   -7.8900   20.7170  -32.3510 N   0  0  0  0  0  0  0  0  0  0  0  0
   -6.6140   21.3770  -32.2840 C   0  0  0  0  0  0  0  0  0  0  0  0
   -5.4500   20.7680  -32.7840 C   0  0  0  0  0  0  0  0  0  0  0  0
   -4.2040   21.4110  -32.6920 C   0  0  0  0  0  0  0  0  0  0  0  0
   -2.9920   20.7470  -33.2400 C   0  0  0  0  0  0  0  0  0  0  0  0
   -2.8250   19.3620  -33.3340 C   0  0  0  0  0  0  0  0  0  0  0  0
   -1.3200   19.0680  -34.0210 S   0  0  0  0  0  0  0  0  0  0  0  0
   -0.9330   20.6990  -34.1770 C   0  0  0  0  0  0  0  0  0  0  0  0
    0.3210   21.2440  -34.7430 C   0  0  0  0  0  0  0  0  0  0  0  0
    0.2880   22.3730  -35.5780 C   0  0  0  0  0  0  0  0  0  0  0  0
    1.4780   22.8800  -36.1070 C   0  0  0  0  0  0  0  0  0  0  0  0
    2.6630   22.2820  -35.8150 N   0  0  0  0  0  0  0  0  0  0  0  0
    2.7290   21.1880  -35.0110 C   0  0  0  0  0  0  0  0  0  0  0  0
    1.5630   20.6500  -34.4610 C   0  0  0  0  0  0  0  0  0  0  0  0
   -1.9400   21.4730  -33.7130 N   0  0  0  0  0  0  0  0  0  0  0  0
   -4.1360   22.6800  -32.0850 C   0  0  0  0  0  0  0  0  0  0  0  0
   -5.2880   23.2910  -31.5580 C   0  0  0  0  0  0  0  0  0  0  0  0
   -5.2100   24.5840  -30.9280 N   0  0  0  0  0  0  0  0  0  0  0  0
   -6.2300   25.1270  -30.4580 O   0  0  0  0  0  0  0  0  0  0  0  0
   -4.0050   25.2440  -30.8330 O   0  0  0  0  0  0  0  0  0  0  0  0
   -6.5200   22.6240  -31.6550 C   0  0  0  0  0  0  0  0  0  0  0  0
   -9.7402   18.6468  -30.9697 H   0  0  0  0  0  0  0  0  0  0  0  0
  -10.1706   19.4420  -32.5218 H   0  0  0  0  0  0  0  0  0  0  0  0
   -9.5031   17.7743  -32.5218 H   0  0  0  0  0  0  0  0  0  0  0  0
   -8.7170   21.2760  -32.6620 H   0  0  0  0  0  0  0  0  0  0  0  0
   -5.5153   19.7753  -33.2533 H   0  0  0  0  0  0  0  0  0  0  0  0
   -3.5507   18.5995  -33.0146 H   0  0  0  0  0  0  0  0  0  0  0  0
   -0.6713   22.8565  -35.8147 H   0  0  0  0  0  0  0  0  0  0  0  0
    1.4555   23.7644  -36.7607 H   0  0  0  0  0  0  0  0  0  0  0  0
    3.7028   20.7252  -34.7929 H   0  0  0  0  0  0  0  0  0  0  0  0
    1.6168   19.7651  -33.8099 H   0  0  0  0  0  0  0  0  0  0  0  0
   -3.1689   23.2003  -32.0222 H   0  0  0  0  0  0  0  0  0  0  0  0
   -7.4230   23.0876  -31.2311 H   0  0  0  0  0  0  0  0  0  0  0  0
  1  2  1  0
  2  3  2  0
  2  4  1  0
  4  5  1  0
  5  6  2  0
  6  7  1  0
  7  8  1  0
  8  9  2  0
  9 10  1  0
 10 11  1  0
 11 12  1  0
 12 13  2  0
 13 14  1  0
 14 15  2  0
 15 16  1  0
 16 17  2  0
 11 18  2  0
  7 19  2  0
 19 20  1  0
 20 21  1  0
 21 22  2  0
 21 23  1  0
 20 24  2  0
 24  5  1  0
 18  8  1  0
 17 12  1  0
  1 25  1  0
  1 26  1  0
  1 27  1  0
  4 28  1  0
  6 29  1  0
  9 30  1  0
 13 31  1  0
 14 32  1  0
 16 33  1  0
 17 34  1  0
 19 35  1  0
 24 36  1  0
M  CHG  2  21   1  23  -1
M  END
>  <UniqueID>  (27) 
25

>  <SMILES>  (27) 
CC(=O)Nc1cc(-c2csc(-c3ccncc3)n2)cc([N+](=O)[O-])c1

>  <Energy>  (27) 
75.13034386310807

>  <Genealogy>  (27) 
CC(=O)Nc1cc(-c2csc(-c3ccncc3)n2)cc([N+](=O)[O-])c1 (3D coordinates assigned)
CC(=O)Nc1cc(-c2csc(-c3ccncc3)n2)cc([N+](=O)[O-])c1 (optimized conformer: 75.13034386310807 kcal/mol)

>  <smiles>  (27) 
CC(=O)Nc1cc(-c2csc(-c3ccncc3)n2)cc([N+](=O)[O-])c1

>  <score_type>  (27) 
oracle

>  <origin>  (27) 
adgpu

>  <m_score__min__energy>  (27) 
-7.96

>  <m_primary>  (27) 
energy

$$$$
27:0
     RDKit          3D

 28 30  0  0  0  0  0  0  0  0999 V2000
   -9.5211   21.8448  -30.6413 H   0  0  0  0  0  0  0  0  0  0  0  0
   -8.4620   21.7220  -30.9120 C   0  0  0  0  0  0  0  0  0  0  0  0
   -7.4840   22.4640  -30.2450 C   0  0  0  0  0  0  0  0  0  0  0  0
   -7.7781   23.1679  -29.4525 H   0  0  0  0  0  0  0  0  0  0  0  0
   -6.1260   22.3170  -30.5800 C   0  0  0  0  0  0  0  0  0  0  0  0
   -5.0800   23.0980  -29.8800 C   0  0  0  0  0  0  0  0  0  0  0  0
   -4.8930   23.0640  -28.5390 N   0  0  0  0  0  0  0  0  0  0  0  0
   -3.8950   23.8380  -28.1170 N   0  0  0  0  0  0  0  0  0  0  0  0
   -3.2820   24.5030  -29.1220 C   0  0  0  0  0  0  0  0  0  0  0  0
   -2.2570   25.2880  -28.9710 N   0  0  0  0  0  0  0  0  0  0  0  0
   -1.6480   25.6730  -27.7270 C   0  0  0  0  0  0  0  0  0  0  0  0
   -0.5200   26.5040  -27.7620 C   0  0  0  0  0  0  0  0  0  0  0  0
   -0.1098   26.8267  -28.7303 H   0  0  0  0  0  0  0  0  0  0  0  0
    0.0880   26.9260  -26.5760 C   0  0  0  0  0  0  0  0  0  0  0  0
    0.9831   27.5642  -26.6144 H   0  0  0  0  0  0  0  0  0  0  0  0
   -0.4400   26.5380  -25.3420 C   0  0  0  0  0  0  0  0  0  0  0  0
    0.3870   27.1180  -23.7210 Br  0  0  0  0  0  0  0  0  0  0  0  0
   -1.5840   25.7340  -25.2950 C   0  0  0  0  0  0  0  0  0  0  0  0
   -2.0054   25.4355  -24.3238 H   0  0  0  0  0  0  0  0  0  0  0  0
   -2.1930   25.3090  -26.4800 C   0  0  0  0  0  0  0  0  0  0  0  0
   -3.1004   24.6886  -26.4382 H   0  0  0  0  0  0  0  0  0  0  0  0
   -3.9590   24.1320  -30.6140 S   0  0  0  0  0  0  0  0  0  0  0  0
   -5.7700   21.4120  -31.5960 C   0  0  0  0  0  0  0  0  0  0  0  0
   -4.7114   21.2870  -31.8675 H   0  0  0  0  0  0  0  0  0  0  0  0
   -6.7490   20.6690  -32.2650 C   0  0  0  0  0  0  0  0  0  0  0  0
   -6.2530   19.5510  -33.5290 Cl  0  0  0  0  0  0  0  0  0  0  0  0
   -8.1020   20.8240  -31.9220 C   0  0  0  0  0  0  0  0  0  0  0  0
   -9.3620   19.9090  -32.7380 Cl  0  0  0  0  0  0  0  0  0  0  0  0
  1  2  1  0
  2  3  2  0
  3  4  1  0
  3  5  1  0
  5  6  1  0
  6  7  2  0
  7  8  1  0
  8  9  1  0
  9 10  2  0
 10 11  1  0
 11 12  2  0
 12 13  1  0
 12 14  1  0
 14 15  1  0
 14 16  2  0
 16 17  1  0
 16 18  1  0
 18 19  1  0
 18 20  2  0
 20 21  1  0
  9 22  1  0
  5 23  2  0
 23 24  1  0
 23 25  1  0
 25 26  1  0
 25 27  2  0
 27 28  1  0
 27  2  1  0
 22  6  1  0
 20 11  1  0
M  CHG  1   8  -1
M  END
>  <UniqueID>  (28) 
26

>  <SMILES>  (28) 
Clc1ccc(-c2n[n-]/c(=N\c3ccc(Br)cc3)s2)cc1Cl

>  <Energy>  (28) 
72.87013177664862

>  <Genealogy>  (28) 
Clc1ccc(-c2n[n-]c(=Nc3ccc(Br)cc3)s2)cc1Cl (protonated)
Clc1ccc(-c2n[n-]/c(=N\c3ccc(Br)cc3)s2)cc1Cl (cis-trans isomerization)
Clc1ccc(-c2n[n-]/c(=N\c3ccc(Br)cc3)s2)cc1Cl (3D coordinates assigned)
Clc1ccc(-c2n[n-]/c(=N\c3ccc(Br)cc3)s2)cc1Cl (optimized conformer: 72.87013177664862 kcal/mol)

>  <smiles>  (28) 
Clc1ccc(-c2n[nH]c(=Nc3ccc(Br)cc3)s2)cc1Cl

>  <score_type>  (28) 
oracle

>  <origin>  (28) 
adgpu

>  <m_score__min__energy>  (28) 
-9.1400000000000006

>  <m_primary>  (28) 
energy

$$$$
28:0
     RDKit          3D

 29 29  0  0  0  0  0  0  0  0999 V2000
   -9.1800   21.5580  -31.3710 C   0  0  0  0  0  0  0  0  0  0  0  0
   -9.1290   20.3990  -32.3670 C   0  0  0  0  0  0  0  0  0  0  0  0
   -8.5380   19.1130  -31.7560 C   0  0  0  0  0  0  0  0  0  0  0  0
   -7.0330   18.9410  -32.0170 C   0  0  0  0  0  0  0  0  0  0  0  0
   -6.5230   19.8910  -33.0550 C   0  0  0  0  0  0  0  0  0  0  0  0
   -6.3270   19.4810  -34.2310 O   0  0  0  0  0  0  0  0  0  0  0  0
   -6.1890   21.2330  -32.6790 N   0  0  0  0  0  0  0  0  0  0  0  0
   -5.0890   21.6370  -31.8510 C   0  0  0  0  0  0  0  0  0  0  0  0
   -4.2430   20.6500  -31.3340 C   0  0  0  0  0  0  0  0  0  0  0  0
   -3.1670   20.9990  -30.5160 C   0  0  0  0  0  0  0  0  0  0  0  0
   -2.9370   22.3380  -30.1930 C   0  0  0  0  0  0  0  0  0  0  0  0
   -3.7910   23.3440  -30.6780 C   0  0  0  0  0  0  0  0  0  0  0  0
   -3.5650   24.7620  -30.3180 C   0  0  0  0  0  0  0  0  0  0  0  0
   -4.2590   25.6730  -30.8440 O   0  0  0  0  0  0  0  0  0  0  0  0
   -2.5840   25.1090  -29.3970 O   0  0  0  0  0  0  0  0  0  0  0  0
   -4.8720   22.9830  -31.5020 C   0  0  0  0  0  0  0  0  0  0  0  0
   -9.1625   21.1610  -30.3453 H   0  0  0  0  0  0  0  0  0  0  0  0
   -8.3098   22.2129  -31.5256 H   0  0  0  0  0  0  0  0  0  0  0  0
  -10.1044   22.1339  -31.5256 H   0  0  0  0  0  0  0  0  0  0  0  0
  -10.1517   20.1866  -32.7120 H   0  0  0  0  0  0  0  0  0  0  0  0
   -8.4739   20.7033  -33.1966 H   0  0  0  0  0  0  0  0  0  0  0  0
   -8.7014   19.1381  -30.6685 H   0  0  0  0  0  0  0  0  0  0  0  0
   -9.0471   18.2647  -32.2369 H   0  0  0  0  0  0  0  0  0  0  0  0
   -6.4888   19.1183  -31.0776 H   0  0  0  0  0  0  0  0  0  0  0  0
   -6.8712   17.9185  -32.3889 H   0  0  0  0  0  0  0  0  0  0  0  0
   -4.4268   19.5923  -31.5736 H   0  0  0  0  0  0  0  0  0  0  0  0
   -2.4988   20.2176  -30.1250 H   0  0  0  0  0  0  0  0  0  0  0  0
   -2.0823   22.6073  -29.5551 H   0  0  0  0  0  0  0  0  0  0  0  0
   -5.5543   23.7600  -31.8772 H   0  0  0  0  0  0  0  0  0  0  0  0
  1  2  1  0
  2  3  1  0
  3  4  1  0
  4  5  1  0
  5  6  2  0
  5  7  1  0
  7  8  1  0
  8  9  2  0
  9 10  1  0
 10 11  2  0
 11 12  1  0
 12 13  1  0
 13 14  2  0
 13 15  1  0
 12 16  2  0
 16  8  1  0
  1 17  1  0
  1 18  1  0
  1 19  1  0
  2 20  1  0
  2 21  1  0
  3 22  1  0
  3 23  1  0
  4 24  1  0
  4 25  1  0
  9 26  1  0
 10 27  1  0
 11 28  1  0
 16 29  1  0
M  CHG  2   7  -1  15  -1
M  END
>  <UniqueID>  (29) 
27

>  <SMILES>  (29) 
CCCCC(=O)[N-]c1cccc(C(=O)[O-])c1

>  <Energy>  (29) 
25.627526781534627

>  <Genealogy>  (29) 
CCCCC(=O)[N-]c1cccc(C(=O)[O-])c1 (protonated)
CCCCC(=O)[N-]c1cccc(C(=O)[O-])c1 (3D coordinates assigned)
CCCCC(=O)[N-]c1cccc(C(=O)[O-])c1 (optimized conformer: 25.627526781534627 kcal/mol)

>  <smiles>  (29) 
CCCCC(=O)Nc1cccc(C(=O)O)c1

>  <score_type>  (29) 
oracle

>  <origin>  (29) 
adgpu

>  <m_score__min__energy>  (29) 
-8.0999999999999996

>  <m_primary>  (29) 
energy

$$$$
29:0
     RDKit          3D

 36 38  0  0  0  0  0  0  0  0999 V2000
   -6.4740   16.0910  -33.8300 C   0  0  0  0  0  0  0  0  0  0  0  0
   -6.8360   17.4220  -34.1870 O   0  0  0  0  0  0  0  0  0  0  0  0
   -6.3600   18.5760  -33.5430 C   0  0  0  0  0  0  0  0  0  0  0  0
   -5.1080   19.1370  -33.8490 C   0  0  0  0  0  0  0  0  0  0  0  0
   -4.6650   20.2850  -33.1890 C   0  0  0  0  0  0  0  0  0  0  0  0
   -5.4600   20.9000  -32.2060 C   0  0  0  0  0  0  0  0  0  0  0  0
   -4.9670   22.1190  -31.5180 C   0  0  0  0  0  0  0  0  0  0  0  0
   -4.4290   22.1070  -30.2810 N   0  0  0  0  0  0  0  0  0  0  0  0
   -4.1390   23.4080  -30.0680 C   0  0  0  0  0  0  0  0  0  0  0  0
   -3.4890   23.9400  -28.8390 C   0  0  0  0  0  0  0  0  0  0  0  0
   -4.3180   24.4040  -27.7980 C   0  0  0  0  0  0  0  0  0  0  0  0
   -3.7720   24.9340  -26.6290 C   0  0  0  0  0  0  0  0  0  0  0  0
   -2.3910   25.0110  -26.4740 C   0  0  0  0  0  0  0  0  0  0  0  0
   -1.5480   24.5490  -27.4850 C   0  0  0  0  0  0  0  0  0  0  0  0
   -2.0760   24.0000  -28.6690 C   0  0  0  0  0  0  0  0  0  0  0  0
   -1.1130   23.4890  -29.7080 C   0  0  0  0  0  0  0  0  0  0  0  0
   -4.4710   24.1780  -31.1240 N   0  0  0  0  0  0  0  0  0  0  0  0
   -4.9920   23.3670  -32.0240 N   0  0  0  0  0  0  0  0  0  0  0  0
   -6.7130   20.3390  -31.9000 C   0  0  0  0  0  0  0  0  0  0  0  0
   -7.1590   19.1860  -32.5620 C   0  0  0  0  0  0  0  0  0  0  0  0
   -8.4490   18.6350  -32.2260 C   0  0  0  0  0  0  0  0  0  0  0  0
   -9.4850   18.1930  -31.9580 N   0  0  0  0  0  0  0  0  0  0  0  0
   -6.4490   15.9992  -32.7341 H   0  0  0  0  0  0  0  0  0  0  0  0
   -7.2134   15.3874  -34.2401 H   0  0  0  0  0  0  0  0  0  0  0  0
   -5.4801   15.8588  -34.2401 H   0  0  0  0  0  0  0  0  0  0  0  0
   -4.4722   18.6680  -34.6144 H   0  0  0  0  0  0  0  0  0  0  0  0
   -3.6834   20.7128  -33.4409 H   0  0  0  0  0  0  0  0  0  0  0  0
   -5.4109   24.3474  -27.9089 H   0  0  0  0  0  0  0  0  0  0  0  0
   -4.4347   25.2921  -25.8274 H   0  0  0  0  0  0  0  0  0  0  0  0
   -1.9640   25.4364  -25.5538 H   0  0  0  0  0  0  0  0  0  0  0  0
   -0.4576   24.6145  -27.3555 H   0  0  0  0  0  0  0  0  0  0  0  0
   -0.2465   23.0292  -29.2102 H   0  0  0  0  0  0  0  0  0  0  0  0
   -1.6155   22.7389  -30.3363 H   0  0  0  0  0  0  0  0  0  0  0  0
   -0.7736   24.3256  -30.3363 H   0  0  0  0  0  0  0  0  0  0  0  0
   -5.3510   23.6820  -32.9510 H   0  0  0  0  0  0  0  0  0  0  0  0
   -7.3485   20.8087  -31.1348 H   0  0  0  0  0  0  0  0  0  0  0  0
  1  2  1  0
  2  3  1  0
  3  4  2  0
  4  5  1  0
  5  6  2  0
  6  7  1  0
  7  8  2  0
  8  9  1  0
  9 10  1  0
 10 11  2  0
 11 12  1  0
 12 13  2  0
 13 14  1  0
 14 15  2  0
 15 16  1  0
  9 17  2  0
 17 18  1  0
  6 19  1  0
 19 20  2  0
 20 21  1  0
 21 22  3  0
 20  3  1  0
 18  7  1  0
 15 10  1  0
  1 23  1  0
  1 24  1  0
  1 25  1  0
  4 26  1  0
  5 27  1  0
 11 28  1  0
 12 29  1  0
 13 30  1  0
 14 31  1  0
 16 32  1  0
 16 33  1  0
 16 34  1  0
 18 35  1  0
 19 36  1  0
M  END
>  <UniqueID>  (30) 
28

>  <SMILES>  (30) 
COc1ccc(-c2nc(-c3ccccc3C)n[nH]2)cc1C#N

>  <Energy>  (30) 
75.66584169101189

>  <Genealogy>  (30) 
COc1ccc(-c2nc(-c3ccccc3C)n[nH]2)cc1C#N (3D coordinates assigned)
COc1ccc(-c2nc(-c3ccccc3C)n[nH]2)cc1C#N (optimized conformer: 75.66584169101189 kcal/mol)

>  <smiles>  (30) 
COc1ccc(-c2nc(-c3ccccc3C)n[nH]2)cc1C#N

>  <score_type>  (30) 
oracle

>  <origin>  (30) 
adgpu

>  <m_score__min__energy>  (30) 
-8.0700000000000003

>  <m_primary>  (30) 
energy

$$$$
30:0
     RDKit          3D

 43 44  0  0  0  0  0  0  0  0999 V2000
   -0.3240   26.2760  -25.8080 C   0  0  0  0  0  0  0  0  0  0  0  0
   -1.5260   26.4050  -26.7390 C   0  0  0  0  0  0  0  0  0  0  0  0
   -1.1020   26.3180  -28.2090 C   0  0  0  0  0  0  0  0  0  0  0  0
   -1.9300   25.3500  -28.9290 N   0  0  0  0  0  0  0  0  0  0  0  0
   -2.2040   24.0150  -28.4560 C   0  0  0  0  0  0  0  0  0  0  0  0
   -1.3510   23.4090  -27.5150 C   0  0  0  0  0  0  0  0  0  0  0  0
   -1.5780   22.0990  -27.0680 C   0  0  0  0  0  0  0  0  0  0  0  0
   -0.6490   21.4750  -26.0640 C   0  0  0  0  0  0  0  0  0  0  0  0
   -2.6700   21.3770  -27.5820 C   0  0  0  0  0  0  0  0  0  0  0  0
   -2.9990   19.7230  -27.0750 Cl  0  0  0  0  0  0  0  0  0  0  0  0
   -3.5220   21.9710  -28.5150 C   0  0  0  0  0  0  0  0  0  0  0  0
   -3.3110   23.2870  -28.9510 C   0  0  0  0  0  0  0  0  0  0  0  0
   -4.4610   24.0150  -30.0860 S   0  0  0  0  0  0  0  0  0  0  0  0
   -5.6290   24.5860  -29.3310 O   0  0  0  0  0  0  0  0  0  0  0  0
   -3.7800   25.1240  -30.8400 O   0  0  0  0  0  0  0  0  0  0  0  0
   -5.0820   22.8230  -31.2270 C   0  0  0  0  0  0  0  0  0  0  0  0
   -6.4580   22.5680  -31.3100 C   0  0  0  0  0  0  0  0  0  0  0  0
   -6.9470   21.6380  -32.2330 C   0  0  0  0  0  0  0  0  0  0  0  0
   -6.0620   20.9540  -33.0900 C   0  0  0  0  0  0  0  0  0  0  0  0
   -6.5020   20.0140  -34.0320 O   0  0  0  0  0  0  0  0  0  0  0  0
   -6.0520   18.6640  -34.0920 C   0  0  0  0  0  0  0  0  0  0  0  0
   -4.6890   21.2200  -33.0040 C   0  0  0  0  0  0  0  0  0  0  0  0
   -4.2010   22.1490  -32.0820 C   0  0  0  0  0  0  0  0  0  0  0  0
   -0.6643   26.3125  -24.7626 H   0  0  0  0  0  0  0  0  0  0  0  0
    0.1836   25.3182  -25.9951 H   0  0  0  0  0  0  0  0  0  0  0  0
    0.3753   27.1043  -25.9951 H   0  0  0  0  0  0  0  0  0  0  0  0
   -2.2363   25.5935  -26.5221 H   0  0  0  0  0  0  0  0  0  0  0  0
   -1.9934   27.3862  -26.5694 H   0  0  0  0  0  0  0  0  0  0  0  0
   -1.2140   27.3074  -28.6764 H   0  0  0  0  0  0  0  0  0  0  0  0
   -0.0529   25.9906  -28.2560 H   0  0  0  0  0  0  0  0  0  0  0  0
   -2.3650   25.6720  -29.8230 H   0  0  0  0  0  0  0  0  0  0  0  0
   -0.4913   23.9724  -27.1232 H   0  0  0  0  0  0  0  0  0  0  0  0
   -0.9973   21.7090  -25.0472 H   0  0  0  0  0  0  0  0  0  0  0  0
   -0.6358   20.3842  -26.2051 H   0  0  0  0  0  0  0  0  0  0  0  0
    0.3658   21.8753  -26.2051 H   0  0  0  0  0  0  0  0  0  0  0  0
   -4.3718   21.3979  -28.9142 H   0  0  0  0  0  0  0  0  0  0  0  0
   -7.1553   23.1011  -30.6470 H   0  0  0  0  0  0  0  0  0  0  0  0
   -8.0274   21.4396  -32.2902 H   0  0  0  0  0  0  0  0  0  0  0  0
   -5.9223   18.2750  -33.0713 H   0  0  0  0  0  0  0  0  0  0  0  0
   -6.7951   18.0532  -34.6255 H   0  0  0  0  0  0  0  0  0  0  0  0
   -5.0910   18.6212  -34.6255 H   0  0  0  0  0  0  0  0  0  0  0  0
   -3.9890   20.6924  -33.6686 H   0  0  0  0  0  0  0  0  0  0  0  0
   -3.1212   22.3518  -32.0273 H   0  0  0  0  0  0  0  0  0  0  0  0
  1  2  1  0
  2  3  1  0
  3  4  1  0
  4  5  1  0
  5  6  2  0
  6  7  1  0
  7  8  1  0
  7  9  2  0
  9 10  1  0
  9 11  1  0
 11 12  2  0
 12 13  1  0
 13 14  2  0
 13 15  2  0
 13 16  1  0
 16 17  2  0
 17 18  1  0
 18 19  2  0
 19 20  1  0
 20 21  1  0
 19 22  1  0
 22 23  2  0
 12  5  1  0
 23 16  1  0
  1 24  1  0
  1 25  1  0
  1 26  1  0
  2 27  1  0
  2 28  1  0
  3 29  1  0
  3 30  1  0
  4 31  1  0
  6 32  1  0
  8 33  1  0
  8 34  1  0
  8 35  1  0
 11 36  1  0
 17 37  1  0
 18 38  1  0
 21 39  1  0
 21 40  1  0
 21 41  1  0
 22 42  1  0
 23 43  1  0
M  END
>  <UniqueID>  (31) 
29

>  <SMILES>  (31) 
CCCNc1cc(C)c(Cl)cc1S(=O)(=O)c1ccc(OC)cc1

>  <Energy>  (31) 
42.459182089931964

>  <Genealogy>  (31) 
CCCNc1cc(C)c(Cl)cc1S(=O)(=O)c1ccc(OC)cc1 (3D coordinates assigned)
CCCNc1cc(C)c(Cl)cc1S(=O)(=O)c1ccc(OC)cc1 (optimized conformer: 42.459182089931964 kcal/mol)

>  <smiles>  (31) 
CCCNc1cc(C)c(Cl)cc1S(=O)(=O)c1ccc(OC)cc1

>  <score_type>  (31) 
oracle

>  <origin>  (31) 
adgpu

>  <m_score__min__energy>  (31) 
-8.3599999999999994

>  <m_primary>  (31) 
energy

$$$$
31:0
     RDKit          3D

 29 30  0  0  0  0  0  0  0  0999 V2000
   -8.4610   22.2900  -31.5290 C   0  0  0  0  0  0  0  0  0  0  0  0
   -7.1620   22.9980  -31.2840 C   0  0  0  0  0  0  0  0  0  0  0  0
   -7.1270   24.1620  -30.5010 C   0  0  0  0  0  0  0  0  0  0  0  0
   -5.9110   24.8010  -30.2440 C   0  0  0  0  0  0  0  0  0  0  0  0
   -4.7120   24.2730  -30.7370 C   0  0  0  0  0  0  0  0  0  0  0  0
   -3.4890   24.9750  -30.4660 N   0  0  0  0  0  0  0  0  0  0  0  0
   -2.5880   24.7350  -29.3750 C   0  0  0  0  0  0  0  0  0  0  0  0
   -1.8490   25.6630  -28.9490 O   0  0  0  0  0  0  0  0  0  0  0  0
   -2.4860   23.3800  -28.7830 C   0  0  0  0  0  0  0  0  0  0  0  0
   -3.5650   22.8270  -28.0670 C   0  0  0  0  0  0  0  0  0  0  0  0
   -3.4640   21.5490  -27.5080 C   0  0  0  0  0  0  0  0  0  0  0  0
   -2.2880   20.8070  -27.6560 C   0  0  0  0  0  0  0  0  0  0  0  0
   -2.1870   19.4920  -27.0800 C   0  0  0  0  0  0  0  0  0  0  0  0
   -2.1050   18.4340  -26.6160 N   0  0  0  0  0  0  0  0  0  0  0  0
   -1.2090   21.3480  -28.3650 C   0  0  0  0  0  0  0  0  0  0  0  0
   -1.3060   22.6250  -28.9250 C   0  0  0  0  0  0  0  0  0  0  0  0
   -4.7460   23.1100  -31.5260 C   0  0  0  0  0  0  0  0  0  0  0  0
   -5.9620   22.4700  -31.7860 C   0  0  0  0  0  0  0  0  0  0  0  0
   -8.9274   22.0358  -30.5657 H   0  0  0  0  0  0  0  0  0  0  0  0
   -9.1341   22.9460  -32.1005 H   0  0  0  0  0  0  0  0  0  0  0  0
   -8.2744   21.3688  -32.1005 H   0  0  0  0  0  0  0  0  0  0  0  0
   -8.0601   24.5729  -30.0880 H   0  0  0  0  0  0  0  0  0  0  0  0
   -5.8960   25.7264  -29.6495 H   0  0  0  0  0  0  0  0  0  0  0  0
   -4.4937   23.4041  -27.9465 H   0  0  0  0  0  0  0  0  0  0  0  0
   -4.3124   21.1261  -26.9501 H   0  0  0  0  0  0  0  0  0  0  0  0
   -0.2825   20.7667  -28.4817 H   0  0  0  0  0  0  0  0  0  0  0  0
   -0.4540   23.0433  -29.4809 H   0  0  0  0  0  0  0  0  0  0  0  0
   -3.8125   22.7017  -31.9405 H   0  0  0  0  0  0  0  0  0  0  0  0
   -5.9782   21.5486  -32.3866 H   0  0  0  0  0  0  0  0  0  0  0  0
  1  2  1  0
  2  3  2  0
  3  4  1  0
  4  5  2  0
  5  6  1  0
  6  7  1  0
  7  8  2  0
  7  9  1  0
  9 10  2  0
 10 11  1  0
 11 12  2  0
 12 13  1  0
 13 14  3  0
 12 15  1  0
 15 16  2  0
  5 17  1  0
 17 18  2  0
 18  2  1  0
 16  9  1  0
  1 19  1  0
  1 20  1  0
  1 21  1  0
  3 22  1  0
  4 23  1  0
 10 24  1  0
 11 25  1  0
 15 26  1  0
 16 27  1  0
 17 28  1  0
 18 29  1  0
M  CHG  1   6  -1
M  END
>  <UniqueID>  (32) 
30

>  <SMILES>  (32) 
Cc1ccc([N-]C(=O)c2ccc(C#N)cc2)cc1

>  <Energy>  (32) 
32.5258996345166

>  <Genealogy>  (32) 
Cc1ccc([N-]C(=O)c2ccc(C#N)cc2)cc1 (protonated)
Cc1ccc([N-]C(=O)c2ccc(C#N)cc2)cc1 (3D coordinates assigned)
Cc1ccc([N-]C(=O)c2ccc(C#N)cc2)cc1 (optimized conformer: 32.5258996345166 kcal/mol)

>  <smiles>  (32) 
Cc1ccc(NC(=O)c2ccc(C#N)cc2)cc1

>  <score_type>  (32) 
oracle

>  <origin>  (32) 
adgpu

>  <m_score__min__energy>  (32) 
-9.0099999999999998

>  <m_primary>  (32) 
energy

$$$$
32:0
     RDKit          3D

 36 38  0  0  0  0  0  0  0  0999 V2000
   -5.0970   25.7600  -31.3720 H   0  0  0  0  0  0  0  0  0  0  0  0
   -4.2340   25.6690  -30.7960 N   0  0  0  0  0  0  0  0  0  0  0  0
   -3.7970   24.5660  -30.2690 C   0  0  0  0  0  0  0  0  0  0  0  0
   -2.6140   24.6040  -29.6020 N   0  0  0  0  0  0  0  0  0  0  0  0
   -2.0320   23.4960  -29.0770 C   0  0  0  0  0  0  0  0  0  0  0  0
   -1.0786   23.5829  -28.5352 H   0  0  0  0  0  0  0  0  0  0  0  0
   -2.6400   22.2420  -29.2220 C   0  0  0  0  0  0  0  0  0  0  0  0
   -2.0060   21.0200  -28.6630 C   0  0  0  0  0  0  0  0  0  0  0  0
   -2.5520   20.3820  -27.5360 C   0  0  0  0  0  0  0  0  0  0  0  0
   -3.4572   20.7906  -27.0630 H   0  0  0  0  0  0  0  0  0  0  0  0
   -1.9540   19.2320  -27.0110 C   0  0  0  0  0  0  0  0  0  0  0  0
   -2.3919   18.7435  -26.1280 H   0  0  0  0  0  0  0  0  0  0  0  0
   -0.7960   18.6950  -27.6040 C   0  0  0  0  0  0  0  0  0  0  0  0
   -0.1600   17.5130  -27.0880 N   0  0  0  0  0  0  0  0  0  0  0  0
   -0.6190   16.9920  -26.3060 H   0  0  0  0  0  0  0  0  0  0  0  0
    1.1040   16.9900  -27.5950 C   0  0  0  0  0  0  0  0  0  0  0  0
    1.7547   16.7208  -26.7500 H   0  0  0  0  0  0  0  0  0  0  0  0
    0.9118   16.0975  -28.2087 H   0  0  0  0  0  0  0  0  0  0  0  0
    1.5986   17.7574  -28.2087 H   0  0  0  0  0  0  0  0  0  0  0  0
   -0.2530   19.3330  -28.7290 C   0  0  0  0  0  0  0  0  0  0  0  0
    0.6509   18.9236  -29.2037 H   0  0  0  0  0  0  0  0  0  0  0  0
   -0.8490   20.4840  -29.2530 C   0  0  0  0  0  0  0  0  0  0  0  0
   -0.4087   20.9738  -30.1340 H   0  0  0  0  0  0  0  0  0  0  0  0
   -3.8680   22.1720  -29.8980 C   0  0  0  0  0  0  0  0  0  0  0  0
   -4.3604   21.1970  -30.0277 H   0  0  0  0  0  0  0  0  0  0  0  0
   -4.4770   23.3280  -30.4110 C   0  0  0  0  0  0  0  0  0  0  0  0
   -5.8090   23.1840  -31.0450 C   0  0  0  0  0  0  0  0  0  0  0  0
   -6.6740   22.1800  -30.7820 N   0  0  0  0  0  0  0  0  0  0  0  0
   -7.6990   22.4340  -31.6140 C   0  0  0  0  0  0  0  0  0  0  0  0
   -8.9590   21.6350  -31.6610 C   0  0  0  0  0  0  0  0  0  0  0  0
   -9.2961   21.4213  -30.6360 H   0  0  0  0  0  0  0  0  0  0  0  0
   -9.7357   22.2060  -32.1908 H   0  0  0  0  0  0  0  0  0  0  0  0
   -8.7737   20.6890  -32.1908 H   0  0  0  0  0  0  0  0  0  0  0  0
   -7.4360   23.5720  -32.3410 C   0  0  0  0  0  0  0  0  0  0  0  0
   -8.0946   24.0338  -33.0913 H   0  0  0  0  0  0  0  0  0  0  0  0
   -6.2550   24.0030  -31.9730 O   0  0  0  0  0  0  0  0  0  0  0  0
  1  2  1  0
  2  3  2  0
  3  4  1  0
  4  5  1  0
  5  6  1  0
  5  7  2  0
  7  8  1  0
  8  9  2  0
  9 10  1  0
  9 11  1  0
 11 12  1  0
 11 13  2  0
 13 14  1  0
 14 15  1  0
 14 16  1  0
 16 17  1  0
 16 18  1  0
 16 19  1  0
 13 20  1  0
 20 21  1  0
 20 22  2  0
 22 23  1  0
  7 24  1  0
 24 25  1  0
 24 26  2  0
 26 27  1  0
 27 28  2  0
 28 29  1  0
 29 30  1  0
 30 31  1  0
 30 32  1  0
 30 33  1  0
 29 34  2  0
 34 35  1  0
 34 36  1  0
 26  3  1  0
 36 27  1  0
 22  8  1  0
M  CHG  1   4  -1
M  END
>  <UniqueID>  (33) 
31

>  <SMILES>  (33) 
[H]/N=c1/[n-]cc(-c2ccc(NC)cc2)cc1-c1nc(C)co1

>  <Energy>  (33) 
77.84571464589995

>  <Genealogy>  (33) 
CNc1ccc(-c2c[n-]c(=N)c(-c3nc(C)co3)c2)cc1 (protonated)
[H]/N=c1/[n-]cc(-c2ccc(NC)cc2)cc1-c1nc(C)co1 (cis-trans isomerization)
[H]/N=c1/[n-]cc(-c2ccc(NC)cc2)cc1-c1nc(C)co1 (3D coordinates assigned)
[H]/N=c1/[n-]cc(-c2ccc(NC)cc2)cc1-c1nc(C)co1 (optimized conformer: 77.84571464589995 kcal/mol)

>  <smiles>  (33) 
CNc1ccc(-c2c[nH]c(=N)c(-c3nc(C)co3)c2)cc1

>  <score_type>  (33) 
oracle

>  <origin>  (33) 
adgpu

>  <m_score__min__energy>  (33) 
-9.3599999999999994

>  <m_primary>  (33) 
energy

$$$$
33:0
     RDKit          3D

 30 31  0  0  0  0  0  0  0  0999 V2000
   -5.3710   25.9890  -30.4670 C   0  0  0  0  0  0  0  0  0  0  0  0
   -4.1100   25.3510  -30.6270 O   0  0  0  0  0  0  0  0  0  0  0  0
   -3.8720   23.9870  -30.3950 C   0  0  0  0  0  0  0  0  0  0  0  0
   -2.9310   23.5440  -29.4430 C   0  0  0  0  0  0  0  0  0  0  0  0
   -2.7250   22.1770  -29.2380 C   0  0  0  0  0  0  0  0  0  0  0  0
   -3.4510   21.2400  -29.9740 C   0  0  0  0  0  0  0  0  0  0  0  0
   -4.3850   21.6670  -30.9200 C   0  0  0  0  0  0  0  0  0  0  0  0
   -4.5940   23.0350  -31.1370 C   0  0  0  0  0  0  0  0  0  0  0  0
   -5.7960   23.5560  -32.3670 S   0  0  0  0  0  0  0  0  0  0  0  0
   -6.7790   22.0670  -32.1760 C   0  0  0  0  0  0  0  0  0  0  0  0
   -7.8230   22.0300  -31.2450 C   0  0  0  0  0  0  0  0  0  0  0  0
   -8.5850   20.8690  -31.0900 C   0  0  0  0  0  0  0  0  0  0  0  0
   -8.3190   19.7380  -31.8790 C   0  0  0  0  0  0  0  0  0  0  0  0
   -9.1100   18.4790  -31.6850 C   0  0  0  0  0  0  0  0  0  0  0  0
   -7.2650   19.7760  -32.8040 C   0  0  0  0  0  0  0  0  0  0  0  0
   -6.5030   20.9400  -32.9580 C   0  0  0  0  0  0  0  0  0  0  0  0
   -5.5920   26.1008  -29.3952 H   0  0  0  0  0  0  0  0  0  0  0  0
   -5.3427   26.9812  -30.9410 H   0  0  0  0  0  0  0  0  0  0  0  0
   -6.1536   25.3784  -30.9410 H   0  0  0  0  0  0  0  0  0  0  0  0
   -2.3563   24.2778  -28.8589 H   0  0  0  0  0  0  0  0  0  0  0  0
   -1.9884   21.8388  -28.4943 H   0  0  0  0  0  0  0  0  0  0  0  0
   -3.2875   20.1648  -29.8090 H   0  0  0  0  0  0  0  0  0  0  0  0
   -4.9587   20.9266  -31.4968 H   0  0  0  0  0  0  0  0  0  0  0  0
   -8.0444   22.9172  -30.6336 H   0  0  0  0  0  0  0  0  0  0  0  0
   -9.3960   20.8408  -30.3474 H   0  0  0  0  0  0  0  0  0  0  0  0
   -9.2320   18.2848  -30.6092 H   0  0  0  0  0  0  0  0  0  0  0  0
  -10.0996   18.5921  -32.1517 H   0  0  0  0  0  0  0  0  0  0  0  0
   -8.5786   17.6365  -32.1517 H   0  0  0  0  0  0  0  0  0  0  0  0
   -7.0364   18.8874  -33.4108 H   0  0  0  0  0  0  0  0  0  0  0  0
   -5.6864   20.9688  -33.6945 H   0  0  0  0  0  0  0  0  0  0  0  0
  1  2  1  0
  2  3  1  0
  3  4  2  0
  4  5  1  0
  5  6  2  0
  6  7  1  0
  7  8  2  0
  8  9  1  0
  9 10  1  0
 10 11  2  0
 11 12  1  0
 12 13  2  0
 13 14  1  0
 13 15  1  0
 15 16  2  0
  8  3  1  0
 16 10  1  0
  1 17  1  0
  1 18  1  0
  1 19  1  0
  4 20  1  0
  5 21  1  0
  6 22  1  0
  7 23  1  0
 11 24  1  0
 12 25  1  0
 14 26  1  0
 14 27  1  0
 14 28  1  0
 15 29  1  0
 16 30  1  0
M  END
>  <UniqueID>  (34) 
32

>  <SMILES>  (34) 
COc1ccccc1Sc1ccc(C)cc1

>  <Energy>  (34) 
24.40822542521624

>  <Genealogy>  (34) 
COc1ccccc1Sc1ccc(C)cc1 (3D coordinates assigned)
COc1ccccc1Sc1ccc(C)cc1 (optimized conformer: 24.40822542521624 kcal/mol)

>  <smiles>  (34) 
COc1ccccc1Sc1ccc(C)cc1

>  <score_type>  (34) 
oracle

>  <origin>  (34) 
adgpu

>  <m_score__min__energy>  (34) 
-7.1100000000000003

>  <m_primary>  (34) 
energy

$$$$
34:0
     RDKit          3D

 49 53  0  0  0  0  0  0  0  0999 V2000
    0.0900   25.0530  -25.0000 O   0  0  0  0  0  0  0  0  0  0  0  0
   -0.3110   24.8380  -26.1730 C   0  0  0  0  0  0  0  0  0  0  0  0
   -0.5030   25.8160  -27.0830 N   0  0  0  0  0  0  0  0  0  0  0  0
   -0.9490   25.3220  -28.2660 C   0  0  0  0  0  0  0  0  0  0  0  0
   -1.2380   26.1470  -29.3460 O   0  0  0  0  0  0  0  0  0  0  0  0
   -1.0980   23.9370  -28.3030 C   0  0  0  0  0  0  0  0  0  0  0  0
   -1.6100   23.1280  -29.4530 C   0  0  0  0  0  0  0  0  0  0  0  0
   -3.0900   23.3340  -29.6170 C   0  0  0  0  0  0  0  0  0  0  0  0
   -3.5720   24.3400  -30.4670 C   0  0  0  0  0  0  0  0  0  0  0  0
   -4.9450   24.5110  -30.6510 C   0  0  0  0  0  0  0  0  0  0  0  0
   -5.8610   23.6600  -30.0040 C   0  0  0  0  0  0  0  0  0  0  0  0
   -7.2500   23.7490  -30.1930 O   0  0  0  0  0  0  0  0  0  0  0  0
   -7.9420   23.5280  -31.4260 C   0  0  0  0  0  0  0  0  0  0  0  0
   -6.9630   23.2700  -32.5780 C   0  0  0  0  0  0  0  0  0  0  0  0
   -6.5070   21.8750  -32.6020 N   0  0  0  0  0  0  0  0  0  0  0  0
   -5.2260   21.4320  -32.6980 C   0  0  0  0  0  0  0  0  0  0  0  0
   -4.0610   22.1940  -32.8230 C   0  0  0  0  0  0  0  0  0  0  0  0
   -2.8280   21.5180  -32.8560 C   0  0  0  0  0  0  0  0  0  0  0  0
   -2.7780   20.1100  -32.7570 C   0  0  0  0  0  0  0  0  0  0  0  0
   -3.9600   19.3610  -32.6260 C   0  0  0  0  0  0  0  0  0  0  0  0
   -5.1680   20.0560  -32.6040 C   0  0  0  0  0  0  0  0  0  0  0  0
   -6.4620   19.6220  -32.4450 C   0  0  0  0  0  0  0  0  0  0  0  0
   -6.9880   18.3450  -32.2650 C   0  0  0  0  0  0  0  0  0  0  0  0
   -8.3730   18.2300  -32.0630 C   0  0  0  0  0  0  0  0  0  0  0  0
   -9.1930   19.3780  -32.0500 C   0  0  0  0  0  0  0  0  0  0  0  0
   -8.6390   20.6570  -32.2450 C   0  0  0  0  0  0  0  0  0  0  0  0
   -7.2560   20.7520  -32.4440 C   0  0  0  0  0  0  0  0  0  0  0  0
   -5.3760   22.6720  -29.1400 C   0  0  0  0  0  0  0  0  0  0  0  0
   -4.0020   22.4970  -28.9570 C   0  0  0  0  0  0  0  0  0  0  0  0
   -0.6850   23.3190  -26.7870 S   0  0  0  0  0  0  0  0  0  0  0  0
   -0.3410   26.8310  -26.8960 H   0  0  0  0  0  0  0  0  0  0  0  0
   -1.0958   23.4403  -30.3739 H   0  0  0  0  0  0  0  0  0  0  0  0
   -1.4163   22.0632  -29.2561 H   0  0  0  0  0  0  0  0  0  0  0  0
   -2.8639   24.9981  -30.9918 H   0  0  0  0  0  0  0  0  0  0  0  0
   -5.3133   25.3151  -31.3051 H   0  0  0  0  0  0  0  0  0  0  0  0
   -8.6019   22.6550  -31.3147 H   0  0  0  0  0  0  0  0  0  0  0  0
   -8.5252   24.4302  -31.6625 H   0  0  0  0  0  0  0  0  0  0  0  0
   -7.4652   23.4971  -33.5300 H   0  0  0  0  0  0  0  0  0  0  0  0
   -6.0842   23.9151  -32.4316 H   0  0  0  0  0  0  0  0  0  0  0  0
   -4.1071   23.2908  -32.8935 H   0  0  0  0  0  0  0  0  0  0  0  0
   -1.8947   22.0908  -32.9598 H   0  0  0  0  0  0  0  0  0  0  0  0
   -1.8061   19.5955  -32.7826 H   0  0  0  0  0  0  0  0  0  0  0  0
   -3.9327   18.2644  -32.5437 H   0  0  0  0  0  0  0  0  0  0  0  0
   -6.3402   17.4561  -32.2805 H   0  0  0  0  0  0  0  0  0  0  0  0
   -8.8221   17.2370  -31.9137 H   0  0  0  0  0  0  0  0  0  0  0  0
  -10.2756   19.2724  -31.8859 H   0  0  0  0  0  0  0  0  0  0  0  0
   -9.2736   21.5555  -32.2412 H   0  0  0  0  0  0  0  0  0  0  0  0
   -6.0838   22.0265  -28.5993 H   0  0  0  0  0  0  0  0  0  0  0  0
   -3.6342   21.7005  -28.2934 H   0  0  0  0  0  0  0  0  0  0  0  0
  1  2  2  0
  2  3  1  0
  3  4  1  0
  4  5  1  0
  4  6  2  0
  6  7  1  0
  7  8  1  0
  8  9  2  0
  9 10  1  0
 10 11  2  0
 11 12  1  0
 12 13  1  0
 13 14  1  0
 14 15  1  0
 15 16  1  0
 16 17  2  0
 17 18  1  0
 18 19  2  0
 19 20  1  0
 20 21  2  0
 21 22  1  0
 22 23  2  0
 23 24  1  0
 24 25  2  0
 25 26  1  0
 26 27  2  0
 11 28  1  0
 28 29  2  0
  6 30  1  0
 30  2  1  0
 29  8  1  0
 27 15  1  0
 21 16  1  0
 27 22  1  0
  3 31  1  0
  7 32  1  0
  7 33  1  0
  9 34  1  0
 10 35  1  0
 13 36  1  0
 13 37  1  0
 14 38  1  0
 14 39  1  0
 17 40  1  0
 18 41  1  0
 19 42  1  0
 20 43  1  0
 23 44  1  0
 24 45  1  0
 25 46  1  0
 26 47  1  0
 28 48  1  0
 29 49  1  0
M  CHG  1   5  -1
M  END
>  <UniqueID>  (35) 
33

>  <SMILES>  (35) 
O=c1[nH]c([O-])c(Cc2ccc(OCCn3c4ccccc4c4ccccc43)cc2)s1

>  <Energy>  (35) 
117.6999603947613

>  <Genealogy>  (35) 
O=c1[nH]c([O-])c(Cc2ccc(OCCn3c4ccccc4c4ccccc43)cc2)s1 (protonated)
O=c1[nH]c([O-])c(Cc2ccc(OCCn3c4ccccc4c4ccccc43)cc2)s1 (3D coordinates assigned)
O=c1[nH]c([O-])c(Cc2ccc(OCCn3c4ccccc4c4ccccc43)cc2)s1 (optimized conformer: 117.6999603947613 kcal/mol)

>  <smiles>  (35) 
O=c1[nH]c(O)c(Cc2ccc(OCCn3c4ccccc4c4ccccc43)cc2)s1

>  <score_type>  (35) 
oracle

>  <origin>  (35) 
adgpu

>  <m_score__min__energy>  (35) 
-12.470000000000001

>  <m_primary>  (35) 
energy

$$$$
35:0
     RDKit          3D

 47 49  0  0  0  0  0  0  0  0999 V2000
   -3.7080   12.3570  -33.2460 C   0  0  0  0  0  0  0  0  0  0  0  0
   -4.3710   13.2330  -34.1540 O   0  0  0  0  0  0  0  0  0  0  0  0
   -4.9510   14.4570  -33.7900 C   0  0  0  0  0  0  0  0  0  0  0  0
   -4.2680   15.4190  -33.0250 C   0  0  0  0  0  0  0  0  0  0  0  0
   -4.8900   16.6260  -32.6890 C   0  0  0  0  0  0  0  0  0  0  0  0
   -6.2050   16.8950  -33.1110 C   0  0  0  0  0  0  0  0  0  0  0  0
   -6.8650   18.1760  -32.7530 C   0  0  0  0  0  0  0  0  0  0  0  0
   -7.9990   18.1890  -31.9230 C   0  0  0  0  0  0  0  0  0  0  0  0
   -8.6180   19.3950  -31.5860 C   0  0  0  0  0  0  0  0  0  0  0  0
   -8.1210   20.6100  -32.0670 C   0  0  0  0  0  0  0  0  0  0  0  0
   -8.7820   21.7890  -31.6890 O   0  0  0  0  0  0  0  0  0  0  0  0
   -8.6400   23.0650  -32.3150 C   0  0  0  0  0  0  0  0  0  0  0  0
   -7.2500   23.6860  -32.0610 C   0  0  0  0  0  0  0  0  0  0  0  0
   -6.5860   23.2960  -30.7860 N   0  0  0  0  0  0  0  0  0  0  0  0
   -6.4630   24.4040  -29.8020 C   0  0  0  0  0  0  0  0  0  0  0  0
   -5.0250   24.9260  -29.6470 C   0  0  0  0  0  0  0  0  0  0  0  0
   -4.2960   24.7390  -30.8370 O   0  0  0  0  0  0  0  0  0  0  0  0
   -4.0540   23.3610  -31.0240 C   0  0  0  0  0  0  0  0  0  0  0  0
   -5.3420   22.5060  -30.9720 C   0  0  0  0  0  0  0  0  0  0  0  0
   -6.9890   20.6040  -32.9040 C   0  0  0  0  0  0  0  0  0  0  0  0
   -6.3680   19.3980  -33.2410 C   0  0  0  0  0  0  0  0  0  0  0  0
   -6.8820   15.9290  -33.8760 C   0  0  0  0  0  0  0  0  0  0  0  0
   -6.2580   14.7240  -34.2110 C   0  0  0  0  0  0  0  0  0  0  0  0
   -3.9362   12.6585  -32.2130 H   0  0  0  0  0  0  0  0  0  0  0  0
   -4.0542   11.3262  -33.4121 H   0  0  0  0  0  0  0  0  0  0  0  0
   -2.6219   12.4102  -33.4121 H   0  0  0  0  0  0  0  0  0  0  0  0
   -3.2394   15.2214  -32.6891 H   0  0  0  0  0  0  0  0  0  0  0  0
   -4.3464   17.3712  -32.0897 H   0  0  0  0  0  0  0  0  0  0  0  0
   -8.4024   17.2418  -31.5356 H   0  0  0  0  0  0  0  0  0  0  0  0
   -9.5052   19.3887  -30.9358 H   0  0  0  0  0  0  0  0  0  0  0  0
   -8.7822   22.9457  -33.3992 H   0  0  0  0  0  0  0  0  0  0  0  0
   -9.3954   23.7389  -31.8846 H   0  0  0  0  0  0  0  0  0  0  0  0
   -6.5909   23.3870  -32.8894 H   0  0  0  0  0  0  0  0  0  0  0  0
   -7.4174   24.7708  -31.9896 H   0  0  0  0  0  0  0  0  0  0  0  0
   -7.2670   22.6230  -30.3560 H   0  0  0  0  0  0  0  0  0  0  0  0
   -7.1023   25.2361  -30.1320 H   0  0  0  0  0  0  0  0  0  0  0  0
   -6.7711   24.0056  -28.8241 H   0  0  0  0  0  0  0  0  0  0  0  0
   -5.0544   25.9990  -29.4066 H   0  0  0  0  0  0  0  0  0  0  0  0
   -4.5313   24.3668  -28.8386 H   0  0  0  0  0  0  0  0  0  0  0  0
   -3.5791   23.2191  -32.0060 H   0  0  0  0  0  0  0  0  0  0  0  0
   -3.4054   23.0273  -30.2006 H   0  0  0  0  0  0  0  0  0  0  0  0
   -5.4248   21.9480  -31.9164 H   0  0  0  0  0  0  0  0  0  0  0  0
   -5.2505   21.8467  -30.0963 H   0  0  0  0  0  0  0  0  0  0  0  0
   -6.5916   21.5525  -33.2944 H   0  0  0  0  0  0  0  0  0  0  0  0
   -5.4826   19.4046  -33.8937 H   0  0  0  0  0  0  0  0  0  0  0  0
   -7.9108   16.1231  -34.2135 H   0  0  0  0  0  0  0  0  0  0  0  0
   -6.7999   13.9785  -34.8115 H   0  0  0  0  0  0  0  0  0  0  0  0
  1  2  1  0
  2  3  1  0
  3  4  2  0
  4  5  1  0
  5  6  2  0
  6  7  1  0
  7  8  2  0
  8  9  1  0
  9 10  2  0
 10 11  1  0
 11 12  1  0
 12 13  1  0
 13 14  1  0
 14 15  1  0
 15 16  1  0
 16 17  1  0
 17 18  1  0
 18 19  1  0
 10 20  1  0
 20 21  2  0
  6 22  1  0
 22 23  2  0
 23  3  1  0
 21  7  1  0
 19 14  1  0
  1 24  1  0
  1 25  1  0
  1 26  1  0
  4 27  1  0
  5 28  1  0
  8 29  1  0
  9 30  1  0
 12 31  1  0
 12 32  1  0
 13 33  1  0
 13 34  1  0
 14 35  1  0
 15 36  1  0
 15 37  1  0
 16 38  1  0
 16 39  1  0
 18 40  1  0
 18 41  1  0
 19 42  1  0
 19 43  1  0
 20 44  1  0
 21 45  1  0
 22 46  1  0
 23 47  1  0
M  CHG  1  14   1
M  END
>  <UniqueID>  (36) 
34

>  <SMILES>  (36) 
COc1ccc(-c2ccc(OCC[NH+]3CCOCC3)cc2)cc1

>  <Energy>  (36) 
70.05048621467981

>  <Genealogy>  (36) 
COc1ccc(-c2ccc(OCC[NH+]3CCOCC3)cc2)cc1 (protonated)
COc1ccc(-c2ccc(OCC[NH+]3CCOCC3)cc2)cc1 (3D coordinates assigned)
COc1ccc(-c2ccc(OCC[NH+]3CCOCC3)cc2)cc1 (nonaromatic ring conformer: 70.05048621467981 kcal/mol)

>  <smiles>  (36) 
COc1ccc(-c2ccc(OCCN3CCOCC3)cc2)cc1

>  <score_type>  (36) 
oracle

>  <origin>  (36) 
adgpu

>  <m_score__min__energy>  (36) 
-6.8399999999999999

>  <m_primary>  (36) 
energy

$$$$
36:0
     RDKit          3D

 24 25  0  0  0  0  0  0  0  0999 V2000
   -6.8580   24.3410  -30.5280 C   0  0  0  0  0  0  0  0  0  0  0  0
   -6.7240   23.0430  -31.2590 C   0  0  0  0  0  0  0  0  0  0  0  0
   -7.8450   22.2330  -31.4750 C   0  0  0  0  0  0  0  0  0  0  0  0
   -7.6980   21.0140  -32.1430 C   0  0  0  0  0  0  0  0  0  0  0  0
   -9.1030   19.9780  -32.3450 Cl  0  0  0  0  0  0  0  0  0  0  0  0
   -6.4260   20.6180  -32.5930 C   0  0  0  0  0  0  0  0  0  0  0  0
   -6.2310   19.3790  -33.2860 N   0  0  0  0  0  0  0  0  0  0  0  0
   -6.0350   19.3010  -34.5930 N   0  0  0  0  0  0  0  0  0  0  0  0
   -5.9220   17.9960  -34.9110 C   0  0  0  0  0  0  0  0  0  0  0  0
   -6.0630   17.2230  -33.7740 C   0  0  0  0  0  0  0  0  0  0  0  0
   -6.2740   18.1350  -32.7620 C   0  0  0  0  0  0  0  0  0  0  0  0
   -6.5020   17.7980  -31.3200 C   0  0  0  0  0  0  0  0  0  0  0  0
   -5.3270   21.4450  -32.3330 C   0  0  0  0  0  0  0  0  0  0  0  0
   -5.4990   22.6260  -31.6810 N   0  0  0  0  0  0  0  0  0  0  0  0
   -6.8388   24.1550  -29.4440 H   0  0  0  0  0  0  0  0  0  0  0  0
   -6.0235   25.0035  -30.8012 H   0  0  0  0  0  0  0  0  0  0  0  0
   -7.8103   24.8191  -30.8012 H   0  0  0  0  0  0  0  0  0  0  0  0
   -8.8358   22.5539  -31.1211 H   0  0  0  0  0  0  0  0  0  0  0  0
   -5.7442   17.6049  -35.9236 H   0  0  0  0  0  0  0  0  0  0  0  0
   -6.0172   16.1268  -33.6945 H   0  0  0  0  0  0  0  0  0  0  0  0
   -5.9985   18.5422  -30.6855 H   0  0  0  0  0  0  0  0  0  0  0  0
   -7.5813   17.8055  -31.1079 H   0  0  0  0  0  0  0  0  0  0  0  0
   -6.0936   16.7989  -31.1079 H   0  0  0  0  0  0  0  0  0  0  0  0
   -4.3214   21.1388  -32.6570 H   0  0  0  0  0  0  0  0  0  0  0  0
  1  2  1  0
  2  3  2  0
  3  4  1  0
  4  5  1  0
  4  6  2  0
  6  7  1  0
  7  8  1  0
  8  9  2  0
  9 10  1  0
 10 11  2  0
 11 12  1  0
  6 13  1  0
 13 14  2  0
 14  2  1  0
 11  7  1  0
  1 15  1  0
  1 16  1  0
  1 17  1  0
  3 18  1  0
  9 19  1  0
 10 20  1  0
 12 21  1  0
 12 22  1  0
 12 23  1  0
 13 24  1  0
M  END
>  <UniqueID>  (37) 
35

>  <SMILES>  (37) 
Cc1cc(Cl)c(-n2nccc2C)cn1

>  <Energy>  (37) 
59.93879490852146

>  <Genealogy>  (37) 
Cc1cc(Cl)c(-n2nccc2C)cn1 (3D coordinates assigned)
Cc1cc(Cl)c(-n2nccc2C)cn1 (optimized conformer: 59.93879490852146 kcal/mol)

>  <smiles>  (37) 
Cc1cc(Cl)c(-n2nccc2C)cn1

>  <score_type>  (37) 
oracle

>  <origin>  (37) 
adgpu

>  <m_score__min__energy>  (37) 
-6

>  <m_primary>  (37) 
energy

$$$$
37:0
     RDKit          3D

 39 41  0  0  0  0  0  0  0  0999 V2000
   -8.3860   20.6360  -32.3240 C   0  0  0  0  0  0  0  0  0  0  0  0
   -8.6790   22.1720  -31.4740 S   0  0  0  0  0  0  0  0  0  0  0  0
   -9.4150   21.8880  -30.1940 O   0  0  0  0  0  0  0  0  0  0  0  0
   -9.5120   23.0650  -32.3480 O   0  0  0  0  0  0  0  0  0  0  0  0
   -7.1550   22.9630  -31.1100 C   0  0  0  0  0  0  0  0  0  0  0  0
   -7.1390   24.1820  -30.4330 C   0  0  0  0  0  0  0  0  0  0  0  0
   -5.9180   24.7950  -30.1580 C   0  0  0  0  0  0  0  0  0  0  0  0
   -4.7120   24.1850  -30.5480 C   0  0  0  0  0  0  0  0  0  0  0  0
   -3.4770   24.8040  -30.3020 O   0  0  0  0  0  0  0  0  0  0  0  0
   -2.8400   24.8710  -29.0580 C   0  0  0  0  0  0  0  0  0  0  0  0
   -1.5730   25.3550  -28.9390 N   0  0  0  0  0  0  0  0  0  0  0  0
   -0.9650   25.4400  -27.7270 C   0  0  0  0  0  0  0  0  0  0  0  0
   -1.6460   25.0340  -26.5790 C   0  0  0  0  0  0  0  0  0  0  0  0
   -0.8170   25.1430  -24.8620 Br  0  0  0  0  0  0  0  0  0  0  0  0
   -2.9460   24.5490  -26.7150 C   0  0  0  0  0  0  0  0  0  0  0  0
   -3.5170   24.4800  -27.9460 N   0  0  0  0  0  0  0  0  0  0  0  0
   -4.7710   22.9560  -31.2450 C   0  0  0  0  0  0  0  0  0  0  0  0
   -3.5600   22.2410  -31.7090 C   0  0  0  0  0  0  0  0  0  0  0  0
   -2.5250   22.2610  -30.9880 O   0  0  0  0  0  0  0  0  0  0  0  0
   -3.5320   21.5890  -32.9860 N   0  0  0  0  0  0  0  0  0  0  0  0
   -4.1140   20.3210  -33.3180 C   0  0  0  0  0  0  0  0  0  0  0  0
   -5.4990   20.1590  -33.5110 C   0  0  0  0  0  0  0  0  0  0  0  0
   -6.0200   18.9080  -33.8570 C   0  0  0  0  0  0  0  0  0  0  0  0
   -5.1670   17.8160  -34.0280 C   0  0  0  0  0  0  0  0  0  0  0  0
   -5.6730   16.6050  -34.3670 F   0  0  0  0  0  0  0  0  0  0  0  0
   -3.7880   17.9750  -33.8620 C   0  0  0  0  0  0  0  0  0  0  0  0
   -3.2640   19.2240  -33.5170 C   0  0  0  0  0  0  0  0  0  0  0  0
   -5.9850   22.3910  -31.4970 N   0  0  0  0  0  0  0  0  0  0  0  0
   -8.2328   19.8330  -31.5879 H   0  0  0  0  0  0  0  0  0  0  0  0
   -9.2543   20.3945  -32.9547 H   0  0  0  0  0  0  0  0  0  0  0  0
   -7.4898   20.7311  -32.9547 H   0  0  0  0  0  0  0  0  0  0  0  0
   -8.0811   24.6552  -30.1190 H   0  0  0  0  0  0  0  0  0  0  0  0
   -5.8972   25.7614  -29.6330 H   0  0  0  0  0  0  0  0  0  0  0  0
    0.0615   25.8279  -27.6510 H   0  0  0  0  0  0  0  0  0  0  0  0
   -3.5082   24.2229  -25.8276 H   0  0  0  0  0  0  0  0  0  0  0  0
   -6.1737   21.0192  -33.3893 H   0  0  0  0  0  0  0  0  0  0  0  0
   -7.1043   18.7842  -33.9947 H   0  0  0  0  0  0  0  0  0  0  0  0
   -3.1149   17.1165  -34.0030 H   0  0  0  0  0  0  0  0  0  0  0  0
   -2.1771   19.3471  -33.4008 H   0  0  0  0  0  0  0  0  0  0  0  0
  1  2  1  0
  2  3  2  0
  2  4  2  0
  2  5  1  0
  5  6  2  0
  6  7  1  0
  7  8  2  0
  8  9  1  0
  9 10  1  0
 10 11  2  0
 11 12  1  0
 12 13  2  0
 13 14  1  0
 13 15  1  0
 15 16  2  0
  8 17  1  0
 17 18  1  0
 18 19  2  0
 18 20  1  0
 20 21  1  0
 21 22  2  0
 22 23  1  0
 23 24  2  0
 24 25  1  0
 24 26  1  0
 26 27  2  0
 17 28  2  0
 28  5  1  0
 16 10  1  0
 27 21  1  0
  1 29  1  0
  1 30  1  0
  1 31  1  0
  6 32  1  0
  7 33  1  0
 12 34  1  0
 15 35  1  0
 22 36  1  0
 23 37  1  0
 26 38  1  0
 27 39  1  0
M  CHG  1  20  -1
M  END
>  <UniqueID>  (38) 
36

>  <SMILES>  (38) 
CS(=O)(=O)c1ccc(Oc2ncc(Br)cn2)c(C(=O)[N-]c2ccc(F)cc2)n1

>  <Energy>  (38) 
50.30622305089583

>  <Genealogy>  (38) 
CS(=O)(=O)c1ccc(Oc2ncc(Br)cn2)c(C(=O)[N-]c2ccc(F)cc2)n1 (protonated)
CS(=O)(=O)c1ccc(Oc2ncc(Br)cn2)c(C(=O)[N-]c2ccc(F)cc2)n1 (3D coordinates assigned)
CS(=O)(=O)c1ccc(Oc2ncc(Br)cn2)c(C(=O)[N-]c2ccc(F)cc2)n1 (optimized conformer: 50.30622305089583 kcal/mol)

>  <smiles>  (38) 
CS(=O)(=O)c1ccc(Oc2ncc(Br)cn2)c(C(=O)Nc2ccc(F)cc2)n1

>  <score_type>  (38) 
oracle

>  <origin>  (38) 
adgpu

>  <m_score__min__energy>  (38) 
-9.5600000000000005

>  <m_primary>  (38) 
energy

$$$$
38:0
     RDKit          3D

 39 42  0  0  0  0  0  0  0  0999 V2000
   -0.5450   26.0420  -23.7710 C   0  0  0  0  0  0  0  0  0  0  0  0
   -0.5930   24.8400  -24.6510 C   0  0  0  0  0  0  0  0  0  0  0  0
   -1.1370   24.8380  -25.8850 N   0  0  0  0  0  0  0  0  0  0  0  0
   -1.1060   23.6050  -26.4650 C   0  0  0  0  0  0  0  0  0  0  0  0
   -1.6450   23.3770  -27.8320 C   0  0  0  0  0  0  0  0  0  0  0  0
   -1.4260   22.1660  -28.5160 C   0  0  0  0  0  0  0  0  0  0  0  0
   -1.9460   21.9720  -29.7980 C   0  0  0  0  0  0  0  0  0  0  0  0
   -2.6780   22.9830  -30.4200 C   0  0  0  0  0  0  0  0  0  0  0  0
   -2.8820   24.2100  -29.7670 C   0  0  0  0  0  0  0  0  0  0  0  0
   -3.6370   25.2690  -30.3740 N   0  0  0  0  0  0  0  0  0  0  0  0
   -5.0600   25.2980  -30.5540 C   0  0  0  0  0  0  0  0  0  0  0  0
   -5.6540   26.4070  -30.4760 O   0  0  0  0  0  0  0  0  0  0  0  0
   -5.8370   24.0790  -30.8780 C   0  0  0  0  0  0  0  0  0  0  0  0
   -6.8650   23.6310  -30.0310 C   0  0  0  0  0  0  0  0  0  0  0  0
   -7.5970   22.4840  -30.3470 C   0  0  0  0  0  0  0  0  0  0  0  0
   -7.3090   21.7490  -31.5110 C   0  0  0  0  0  0  0  0  0  0  0  0
   -8.0580   20.5660  -31.8540 N   0  0  0  0  0  0  0  0  0  0  0  0
   -7.7690   19.2760  -31.6000 C   0  0  0  0  0  0  0  0  0  0  0  0
   -8.7400   18.4850  -32.0930 N   0  0  0  0  0  0  0  0  0  0  0  0
   -9.6160   19.3110  -32.6470 N   0  0  0  0  0  0  0  0  0  0  0  0
   -9.2090   20.5620  -32.5050 N   0  0  0  0  0  0  0  0  0  0  0  0
   -6.2640   22.1860  -32.3440 C   0  0  0  0  0  0  0  0  0  0  0  0
   -5.5350   23.3350  -32.0290 C   0  0  0  0  0  0  0  0  0  0  0  0
   -2.3810   24.3920  -28.4720 C   0  0  0  0  0  0  0  0  0  0  0  0
   -0.5420   22.6070  -25.6620 C   0  0  0  0  0  0  0  0  0  0  0  0
   -0.0790   23.3060  -24.2040 S   0  0  0  0  0  0  0  0  0  0  0  0
   -0.5576   25.7259  -22.7175 H   0  0  0  0  0  0  0  0  0  0  0  0
    0.3765   26.6078  -23.9730 H   0  0  0  0  0  0  0  0  0  0  0  0
   -1.4184   26.6795  -23.9730 H   0  0  0  0  0  0  0  0  0  0  0  0
   -0.8411   21.3667  -28.0374 H   0  0  0  0  0  0  0  0  0  0  0  0
   -1.7774   21.0180  -30.3189 H   0  0  0  0  0  0  0  0  0  0  0  0
   -3.0965   22.8194  -31.4240 H   0  0  0  0  0  0  0  0  0  0  0  0
   -7.0953   24.1885  -29.1111 H   0  0  0  0  0  0  0  0  0  0  0  0
   -8.4060   22.1526  -29.6794 H   0  0  0  0  0  0  0  0  0  0  0  0
   -6.8733   18.9214  -31.0690 H   0  0  0  0  0  0  0  0  0  0  0  0
   -6.0181   21.6173  -33.2529 H   0  0  0  0  0  0  0  0  0  0  0  0
   -4.7170   23.6596  -32.6889 H   0  0  0  0  0  0  0  0  0  0  0  0
   -2.5652   25.3413  -27.9476 H   0  0  0  0  0  0  0  0  0  0  0  0
   -0.4223   21.5487  -25.9369 H   0  0  0  0  0  0  0  0  0  0  0  0
  1  2  1  0
  2  3  2  0
  3  4  1  0
  4  5  1  0
  5  6  2  0
  6  7  1  0
  7  8  2  0
  8  9  1  0
  9 10  1  0
 10 11  1  0
 11 12  2  0
 11 13  1  0
 13 14  2  0
 14 15  1  0
 15 16  2  0
 16 17  1  0
 17 18  1  0
 18 19  2  0
 19 20  1  0
 20 21  2  0
 16 22  1  0
 22 23  2  0
  9 24  2  0
  4 25  2  0
 25 26  1  0
 26  2  1  0
 24  5  1  0
 23 13  1  0
 21 17  1  0
  1 27  1  0
  1 28  1  0
  1 29  1  0
  6 30  1  0
  7 31  1  0
  8 32  1  0
 14 33  1  0
 15 34  1  0
 18 35  1  0
 22 36  1  0
 23 37  1  0
 24 38  1  0
 25 39  1  0
M  CHG  1  10  -1
M  END
>  <UniqueID>  (39) 
37

>  <SMILES>  (39) 
Cc1nc(-c2cccc([N-]C(=O)c3ccc(-n4cnnn4)cc3)c2)cs1

>  <Energy>  (39) 
122.62978522100074

>  <Genealogy>  (39) 
Cc1nc(-c2cccc([N-]C(=O)c3ccc(-n4cnnn4)cc3)c2)cs1 (protonated)
Cc1nc(-c2cccc([N-]C(=O)c3ccc(-n4cnnn4)cc3)c2)cs1 (3D coordinates assigned)
Cc1nc(-c2cccc([N-]C(=O)c3ccc(-n4cnnn4)cc3)c2)cs1 (optimized conformer: 122.62978522100074 kcal/mol)

>  <smiles>  (39) 
Cc1nc(-c2cccc(NC(=O)c3ccc(-n4cnnn4)cc3)c2)cs1

>  <score_type>  (39) 
oracle

>  <origin>  (39) 
adgpu

>  <m_score__min__energy>  (39) 
-11.35

>  <m_primary>  (39) 
energy

$$$$
39:0
     RDKit          3D

 36 38  0  0  0  0  0  0  0  0999 V2000
  -10.2795   20.7630  -32.4090 H   0  0  0  0  0  0  0  0  0  0  0  0
   -9.3020   21.2130  -32.1810 C   0  0  0  0  0  0  0  0  0  0  0  0
   -8.1610   20.5230  -32.4360 N   0  0  0  0  0  0  0  0  0  0  0  0
   -6.9230   21.0400  -32.1900 C   0  0  0  0  0  0  0  0  0  0  0  0
   -5.8540   20.3200  -32.3900 N   0  0  0  0  0  0  0  0  0  0  0  0
   -5.7840   19.0070  -32.9700 C   0  0  0  0  0  0  0  0  0  0  0  0
   -6.1580   17.8520  -32.2560 C   0  0  0  0  0  0  0  0  0  0  0  0
   -6.4873   17.9367  -31.2099 H   0  0  0  0  0  0  0  0  0  0  0  0
   -6.1120   16.5980  -32.8730 C   0  0  0  0  0  0  0  0  0  0  0  0
   -6.3906   15.6971  -32.3067 H   0  0  0  0  0  0  0  0  0  0  0  0
   -5.7130   16.4870  -34.2070 C   0  0  0  0  0  0  0  0  0  0  0  0
   -5.6672   15.4985  -34.6874 H   0  0  0  0  0  0  0  0  0  0  0  0
   -5.3720   17.6330  -34.9310 C   0  0  0  0  0  0  0  0  0  0  0  0
   -5.0671   17.5467  -35.9844 H   0  0  0  0  0  0  0  0  0  0  0  0
   -5.4180   18.8890  -34.3180 C   0  0  0  0  0  0  0  0  0  0  0  0
   -5.1655   19.7896  -34.8969 H   0  0  0  0  0  0  0  0  0  0  0  0
   -6.8100   22.3380  -31.6400 C   0  0  0  0  0  0  0  0  0  0  0  0
   -5.4960   22.9630  -31.3400 C   0  0  0  0  0  0  0  0  0  0  0  0
   -5.3140   24.1820  -31.6060 O   0  0  0  0  0  0  0  0  0  0  0  0
   -4.4130   22.1790  -30.8130 N   0  0  0  0  0  0  0  0  0  0  0  0
   -4.3930   21.1590  -31.0390 H   0  0  0  0  0  0  0  0  0  0  0  0
   -3.2650   22.7520  -30.1670 C   0  0  0  0  0  0  0  0  0  0  0  0
   -3.4360   23.8520  -29.3120 C   0  0  0  0  0  0  0  0  0  0  0  0
   -4.4440   24.2553  -29.1353 H   0  0  0  0  0  0  0  0  0  0  0  0
   -2.3340   24.4380  -28.6840 C   0  0  0  0  0  0  0  0  0  0  0  0
   -2.4785   25.2924  -28.0064 H   0  0  0  0  0  0  0  0  0  0  0  0
   -1.0490   23.9410  -28.9150 C   0  0  0  0  0  0  0  0  0  0  0  0
    0.0190   24.5140  -28.3070 F   0  0  0  0  0  0  0  0  0  0  0  0
   -0.8640   22.8630  -29.7850 C   0  0  0  0  0  0  0  0  0  0  0  0
    0.1492   22.4786  -29.9736 H   0  0  0  0  0  0  0  0  0  0  0  0
   -1.9630   22.2710  -30.4170 C   0  0  0  0  0  0  0  0  0  0  0  0
   -1.7500   21.2660  -31.3030 F   0  0  0  0  0  0  0  0  0  0  0  0
   -7.9870   23.0500  -31.3550 C   0  0  0  0  0  0  0  0  0  0  0  0
   -7.9245   24.0548  -30.9117 H   0  0  0  0  0  0  0  0  0  0  0  0
   -9.2350   22.4900  -31.6310 C   0  0  0  0  0  0  0  0  0  0  0  0
  -10.1561   23.0517  -31.4162 H   0  0  0  0  0  0  0  0  0  0  0  0
  1  2  1  0
  2  3  1  0
  3  4  1  0
  4  5  2  0
  5  6  1  0
  6  7  2  0
  7  8  1  0
  7  9  1  0
  9 10  1  0
  9 11  2  0
 11 12  1  0
 11 13  1  0
 13 14  1  0
 13 15  2  0
 15 16  1  0
  4 17  1  0
 17 18  1  0
 18 19  2  0
 18 20  1  0
 20 21  1  0
 20 22  1  0
 22 23  2  0
 23 24  1  0
 23 25  1  0
 25 26  1  0
 25 27  2  0
 27 28  1  0
 27 29  1  0
 29 30  1  0
 29 31  2  0
 31 32  1  0
 17 33  2  0
 33 34  1  0
 33 35  1  0
 35 36  1  0
 35  2  2  0
 15  6  1  0
 31 22  1  0
M  CHG  1   3  -1
M  END
>  <UniqueID>  (40) 
38

>  <SMILES>  (40) 
O=C(Nc1ccc(F)cc1F)c1ccc[n-]/c1=N\c1ccccc1

>  <Energy>  (40) 
55.01999785431105

>  <Genealogy>  (40) 
O=C(Nc1ccc(F)cc1F)c1ccc[n-]c1=Nc1ccccc1 (protonated)
O=C(Nc1ccc(F)cc1F)c1ccc[n-]/c1=N\c1ccccc1 (cis-trans isomerization)
O=C(Nc1ccc(F)cc1F)c1ccc[n-]/c1=N\c1ccccc1 (3D coordinates assigned)
O=C(Nc1ccc(F)cc1F)c1ccc[n-]/c1=N\c1ccccc1 (optimized conformer: 55.01999785431105 kcal/mol)

>  <smiles>  (40) 
O=C(Nc1ccc(F)cc1F)c1ccc[nH]c1=Nc1ccccc1

>  <score_type>  (40) 
oracle

>  <origin>  (40) 
adgpu

>  <m_score__min__energy>  (40) 
-7.4000000000000004

>  <m_primary>  (40) 
energy

$$$$
40:0
     RDKit          3D

 34 35  0  0  0  0  0  0  0  0999 V2000
   -5.8800   20.3940  -33.1190 C   0  0  0  0  0  0  0  0  0  0  0  0
   -6.0290   21.6570  -32.3230 C   0  0  0  0  0  0  0  0  0  0  0  0
   -7.2970   22.1410  -31.9780 C   0  0  0  0  0  0  0  0  0  0  0  0
   -7.4230   23.3170  -31.2340 C   0  0  0  0  0  0  0  0  0  0  0  0
   -6.2820   24.0220  -30.8190 C   0  0  0  0  0  0  0  0  0  0  0  0
   -6.4340   25.2830  -30.0130 C   0  0  0  0  0  0  0  0  0  0  0  0
   -5.0020   23.5390  -31.1550 C   0  0  0  0  0  0  0  0  0  0  0  0
   -3.8410   24.2630  -30.7160 N   0  0  0  0  0  0  0  0  0  0  0  0
   -3.1800   24.2260  -29.1130 S   0  0  0  0  0  0  0  0  0  0  0  0
   -2.0840   25.2500  -29.0090 O   0  0  0  0  0  0  0  0  0  0  0  0
   -4.2610   24.5640  -28.1260 O   0  0  0  0  0  0  0  0  0  0  0  0
   -2.5630   22.6170  -28.7530 C   0  0  0  0  0  0  0  0  0  0  0  0
   -1.3560   22.1850  -29.3120 C   0  0  0  0  0  0  0  0  0  0  0  0
   -0.8680   20.9480  -29.0190 N   0  0  0  0  0  0  0  0  0  0  0  0
   -1.5300   20.0980  -28.1850 C   0  0  0  0  0  0  0  0  0  0  0  0
   -1.0420   18.9620  -27.9390 O   0  0  0  0  0  0  0  0  0  0  0  0
   -2.7500   20.4890  -27.6060 C   0  0  0  0  0  0  0  0  0  0  0  0
   -3.4670   19.6140  -26.7280 N   0  0  0  0  0  0  0  0  0  0  0  0
   -3.2620   21.7580  -27.9000 C   0  0  0  0  0  0  0  0  0  0  0  0
   -4.8870   22.3570  -31.9120 C   0  0  0  0  0  0  0  0  0  0  0  0
   -5.7791   19.5389  -32.4344 H   0  0  0  0  0  0  0  0  0  0  0  0
   -6.7678   20.2533  -33.7531 H   0  0  0  0  0  0  0  0  0  0  0  0
   -4.9839   20.4638  -33.7531 H   0  0  0  0  0  0  0  0  0  0  0  0
   -8.1972   21.5933  -32.2939 H   0  0  0  0  0  0  0  0  0  0  0  0
   -8.4229   23.6930  -30.9717 H   0  0  0  0  0  0  0  0  0  0  0  0
   -6.4045   25.0387  -28.9409 H   0  0  0  0  0  0  0  0  0  0  0  0
   -5.6126   25.9737  -30.2544 H   0  0  0  0  0  0  0  0  0  0  0  0
   -7.3960   25.7587  -30.2544 H   0  0  0  0  0  0  0  0  0  0  0  0
   -0.7987   22.8471  -29.9910 H   0  0  0  0  0  0  0  0  0  0  0  0
    0.0370   20.6510  -29.4480 H   0  0  0  0  0  0  0  0  0  0  0  0
   -4.3770   19.8970  -26.3000 H   0  0  0  0  0  0  0  0  0  0  0  0
   -3.0910   18.6660  -26.4980 H   0  0  0  0  0  0  0  0  0  0  0  0
   -4.2167   22.0802  -27.4588 H   0  0  0  0  0  0  0  0  0  0  0  0
   -3.8901   21.9794  -32.1834 H   0  0  0  0  0  0  0  0  0  0  0  0
  1  2  1  0
  2  3  2  0
  3  4  1  0
  4  5  2  0
  5  6  1  0
  5  7  1  0
  7  8  1  0
  8  9  1  0
  9 10  2  0
  9 11  2  0
  9 12  1  0
 12 13  2  0
 13 14  1  0
 14 15  1  0
 15 16  2  0
 15 17  1  0
 17 18  1  0
 17 19  2  0
  7 20  2  0
 20  2  1  0
 19 12  1  0
  1 21  1  0
  1 22  1  0
  1 23  1  0
  3 24  1  0
  4 25  1  0
  6 26  1  0
  6 27  1  0
  6 28  1  0
 13 29  1  0
 14 30  1  0
 18 31  1  0
 18 32  1  0
 19 33  1  0
 20 34  1  0
M  CHG  1   8  -1
M  END
>  <UniqueID>  (41) 
39

>  <SMILES>  (41) 
Cc1ccc(C)c([N-]S(=O)(=O)c2c[nH]c(=O)c(N)c2)c1

>  <Energy>  (41) 
36.64743784838599

>  <Genealogy>  (41) 
Cc1ccc(C)c([N-]S(=O)(=O)c2c[nH]c(=O)c(N)c2)c1 (protonated)
Cc1ccc(C)c([N-]S(=O)(=O)c2c[nH]c(=O)c(N)c2)c1 (3D coordinates assigned)
Cc1ccc(C)c([N-]S(=O)(=O)c2c[nH]c(=O)c(N)c2)c1 (optimized conformer: 36.64743784838599 kcal/mol)

>  <smiles>  (41) 
Cc1ccc(C)c(NS(=O)(=O)c2c[nH]c(=O)c(N)c2)c1

>  <score_type>  (41) 
oracle

>  <origin>  (41) 
adgpu

>  <m_score__min__energy>  (41) 
-8.3499999999999996

>  <m_primary>  (41) 
energy

$$$$
41:0
     RDKit          3D

 18 18  0  0  0  0  0  0  0  0999 V2000
   -5.4900   22.2120  -30.4690 C   0  0  0  0  0  0  0  0  0  0  0  0
   -5.3060   23.3820  -29.8480 C   0  0  0  0  0  0  0  0  0  0  0  0
   -6.4470   24.3530  -29.7490 C   0  0  0  0  0  0  0  0  0  0  0  0
   -3.9630   23.7530  -29.3310 C   0  0  0  0  0  0  0  0  0  0  0  0
   -3.2820   24.8830  -29.8220 C   0  0  0  0  0  0  0  0  0  0  0  0
   -3.8470   25.6710  -30.8210 O   0  0  0  0  0  0  0  0  0  0  0  0
   -2.0530   25.2030  -29.3370 N   0  0  0  0  0  0  0  0  0  0  0  0
   -1.4580   24.4410  -28.3820 C   0  0  0  0  0  0  0  0  0  0  0  0
   -0.3170   24.7480  -27.9450 O   0  0  0  0  0  0  0  0  0  0  0  0
   -2.0910   23.3440  -27.8960 N   0  0  0  0  0  0  0  0  0  0  0  0
   -3.3220   22.9830  -28.3440 C   0  0  0  0  0  0  0  0  0  0  0  0
   -3.8800   21.9670  -27.8530 O   0  0  0  0  0  0  0  0  0  0  0  0
   -4.6602   21.4941  -30.5467 H   0  0  0  0  0  0  0  0  0  0  0  0
   -6.4711   21.9676  -30.9022 H   0  0  0  0  0  0  0  0  0  0  0  0
   -6.6736   24.5458  -28.6900 H   0  0  0  0  0  0  0  0  0  0  0  0
   -6.1696   25.2963  -30.2422 H   0  0  0  0  0  0  0  0  0  0  0  0
   -7.3338   23.9283  -30.2422 H   0  0  0  0  0  0  0  0  0  0  0  0
   -1.5570   26.0440  -29.7110 H   0  0  0  0  0  0  0  0  0  0  0  0
  1  2  2  0
  2  3  1  0
  2  4  1  0
  4  5  2  0
  5  6  1  0
  5  7  1  0
  7  8  1  0
  8  9  2  0
  8 10  1  0
 10 11  1  0
 11 12  2  0
 11  4  1  0
  1 13  1  0
  1 14  1  0
  3 15  1  0
  3 16  1  0
  3 17  1  0
  7 18  1  0
M  CHG  2   6  -1  10  -1
M  END
>  <UniqueID>  (42) 
40

>  <SMILES>  (42) 
C=C(C)c1c([O-])[nH]c(=O)[n-]c1=O

>  <Energy>  (42) 
22.660759875006157

>  <Genealogy>  (42) 
C=C(C)c1c([O-])[nH]c(=O)[n-]c1=O (protonated)
C=C(C)c1c([O-])[nH]c(=O)[n-]c1=O (3D coordinates assigned)
C=C(C)c1c([O-])[nH]c(=O)[n-]c1=O (optimized conformer: 22.660759875006157 kcal/mol)

>  <smiles>  (42) 
C=C(C)c1c(O)[nH]c(=O)[nH]c1=O

>  <score_type>  (42) 
oracle

>  <origin>  (42) 
adgpu

>  <m_score__min__energy>  (42) 
-9.1300000000000008

>  <m_primary>  (42) 
energy

$$$$
42:0
     RDKit          3D

 36 39  0  0  0  0  0  0  0  0999 V2000
   -3.6640   24.1760  -27.4750 C   0  0  0  0  0  0  0  0  0  0  0  0
   -2.9940   24.5470  -29.1250 S   0  0  0  0  0  0  0  0  0  0  0  0
   -4.5480   24.2260  -29.9580 C   0  0  0  0  0  0  0  0  0  0  0  0
   -5.6440   25.0720  -29.7500 C   0  0  0  0  0  0  0  0  0  0  0  0
   -6.8580   24.8160  -30.3920 C   0  0  0  0  0  0  0  0  0  0  0  0
   -6.9810   23.7170  -31.2480 C   0  0  0  0  0  0  0  0  0  0  0  0
   -5.8810   22.8730  -31.4770 C   0  0  0  0  0  0  0  0  0  0  0  0
   -5.9920   21.7270  -32.3370 N   0  0  0  0  0  0  0  0  0  0  0  0
   -4.9260   21.1400  -33.0960 C   0  0  0  0  0  0  0  0  0  0  0  0
   -3.6760   21.3690  -32.8820 N   0  0  0  0  0  0  0  0  0  0  0  0
   -2.9010   20.1780  -33.2220 C   0  0  0  0  0  0  0  0  0  0  0  0
   -3.9570   19.0890  -33.5130 C   0  0  0  0  0  0  0  0  0  0  0  0
   -5.2020   19.8350  -33.5500 N   0  0  0  0  0  0  0  0  0  0  0  0
   -6.4340   19.5320  -32.9070 C   0  0  0  0  0  0  0  0  0  0  0  0
   -7.1300   18.3260  -32.9320 C   0  0  0  0  0  0  0  0  0  0  0  0
   -8.3620   18.2630  -32.2570 C   0  0  0  0  0  0  0  0  0  0  0  0
   -8.8670   19.3950  -31.5840 C   0  0  0  0  0  0  0  0  0  0  0  0
   -8.1410   20.6000  -31.5700 C   0  0  0  0  0  0  0  0  0  0  0  0
   -6.9120   20.6350  -32.2320 C   0  0  0  0  0  0  0  0  0  0  0  0
   -4.6680   23.1300  -30.8220 C   0  0  0  0  0  0  0  0  0  0  0  0
   -2.9761   24.5569  -26.7058 H   0  0  0  0  0  0  0  0  0  0  0  0
   -4.6456   24.6591  -27.3607 H   0  0  0  0  0  0  0  0  0  0  0  0
   -3.7754   23.0876  -27.3607 H   0  0  0  0  0  0  0  0  0  0  0  0
   -5.5490   25.9394  -29.0802 H   0  0  0  0  0  0  0  0  0  0  0  0
   -7.7187   25.4800  -30.2239 H   0  0  0  0  0  0  0  0  0  0  0  0
   -7.9416   23.5126  -31.7435 H   0  0  0  0  0  0  0  0  0  0  0  0
   -3.3020   22.1800  -32.3410 H   0  0  0  0  0  0  0  0  0  0  0  0
   -2.2787   20.3613  -34.1103 H   0  0  0  0  0  0  0  0  0  0  0  0
   -2.2146   19.8850  -32.4139 H   0  0  0  0  0  0  0  0  0  0  0  0
   -3.7622   18.5987  -34.4782 H   0  0  0  0  0  0  0  0  0  0  0  0
   -3.9604   18.2812  -32.7664 H   0  0  0  0  0  0  0  0  0  0  0  0
   -6.7286   17.4503  -33.4630 H   0  0  0  0  0  0  0  0  0  0  0  0
   -8.9358   17.3245  -32.2538 H   0  0  0  0  0  0  0  0  0  0  0  0
   -9.8357   19.3352  -31.0662 H   0  0  0  0  0  0  0  0  0  0  0  0
   -8.5303   21.4891  -31.0524 H   0  0  0  0  0  0  0  0  0  0  0  0
   -3.8059   22.4672  -30.9876 H   0  0  0  0  0  0  0  0  0  0  0  0
  1  2  1  0
  2  3  1  0
  3  4  2  0
  4  5  1  0
  5  6  2  0
  6  7  1  0
  7  8  1  0
  8  9  1  0
  9 10  2  0
 10 11  1  0
 11 12  1  0
 12 13  1  0
 13 14  1  0
 14 15  2  0
 15 16  1  0
 16 17  2  0
 17 18  1  0
 18 19  2  0
  7 20  2  0
 20  3  1  0
 19  8  1  0
 13  9  1  0
 19 14  1  0
  1 21  1  0
  1 22  1  0
  1 23  1  0
  4 24  1  0
  5 25  1  0
  6 26  1  0
 10 27  1  0
 11 28  1  0
 11 29  1  0
 12 30  1  0
 12 31  1  0
 15 32  1  0
 16 33  1  0
 17 34  1  0
 18 35  1  0
 20 36  1  0
M  CHG  1  10   1
M  END
>  <UniqueID>  (43) 
41

>  <SMILES>  (43) 
CSc1cccc(N2C3=[NH+]CCN3c3ccccc32)c1

>  <Energy>  (43) 
98.29394755593889

>  <Genealogy>  (43) 
CSc1cccc(N2C3=[NH+]CCN3c3ccccc32)c1 (protonated)
CSc1cccc(N2C3=[NH+]CCN3c3ccccc32)c1 (3D coordinates assigned)
CSc1cccc(N2C3=[NH+]CCN3c3ccccc32)c1 (nonaromatic ring conformer: 98.29394755593889 kcal/mol)

>  <smiles>  (43) 
CSc1cccc(N2C3=NCCN3c3ccccc32)c1

>  <score_type>  (43) 
oracle

>  <origin>  (43) 
adgpu

>  <m_score__min__energy>  (43) 
-7.5199999999999996

>  <m_primary>  (43) 
energy

$$$$
43:0
     RDKit          3D

 42 44  0  0  0  0  0  0  0  0999 V2000
   -5.3120   25.2870  -30.5110 C   0  0  0  0  0  0  0  0  0  0  0  0
   -3.8610   25.2750  -30.6240 N   0  0  0  0  0  0  0  0  0  0  0  0
   -3.0180   24.6230  -29.6700 C   0  0  0  0  0  0  0  0  0  0  0  0
   -2.1020   25.2630  -29.0850 O   0  0  0  0  0  0  0  0  0  0  0  0
   -3.2430   23.1800  -29.3410 C   0  0  0  0  0  0  0  0  0  0  0  0
   -2.5410   22.2990  -30.3360 C   0  0  0  0  0  0  0  0  0  0  0  0
   -1.1410   22.2020  -30.3350 C   0  0  0  0  0  0  0  0  0  0  0  0
   -0.4880   21.4250  -31.2930 C   0  0  0  0  0  0  0  0  0  0  0  0
   -1.2230   20.7600  -32.2770 C   0  0  0  0  0  0  0  0  0  0  0  0
   -2.6220   20.8690  -32.3160 C   0  0  0  0  0  0  0  0  0  0  0  0
   -3.3920   20.1350  -33.3870 C   0  0  0  0  0  0  0  0  0  0  0  0
   -4.7010   20.7430  -33.6350 N   0  0  0  0  0  0  0  0  0  0  0  0
   -5.9080   20.1380  -33.1480 C   0  0  0  0  0  0  0  0  0  0  0  0
   -6.0320   18.7430  -33.2260 C   0  0  0  0  0  0  0  0  0  0  0  0
   -7.2080   18.1080  -32.8300 C   0  0  0  0  0  0  0  0  0  0  0  0
   -8.2780   18.8540  -32.3390 C   0  0  0  0  0  0  0  0  0  0  0  0
   -8.1690   20.2460  -32.2140 C   0  0  0  0  0  0  0  0  0  0  0  0
   -9.2370   20.9920  -31.6910 C   0  0  0  0  0  0  0  0  0  0  0  0
   -9.1180   22.3740  -31.5300 C   0  0  0  0  0  0  0  0  0  0  0  0
   -7.9320   23.0200  -31.8790 C   0  0  0  0  0  0  0  0  0  0  0  0
   -6.8640   22.2940  -32.4100 C   0  0  0  0  0  0  0  0  0  0  0  0
   -6.9700   20.9030  -32.6070 C   0  0  0  0  0  0  0  0  0  0  0  0
   -3.2780   21.6210  -31.3230 C   0  0  0  0  0  0  0  0  0  0  0  0
   -5.5970   25.2894  -29.4486 H   0  0  0  0  0  0  0  0  0  0  0  0
   -5.7104   26.1885  -30.9995 H   0  0  0  0  0  0  0  0  0  0  0  0
   -5.7252   24.3922  -30.9995 H   0  0  0  0  0  0  0  0  0  0  0  0
   -2.8516   22.9727  -28.3341 H   0  0  0  0  0  0  0  0  0  0  0  0
   -4.3221   22.9701  -29.3782 H   0  0  0  0  0  0  0  0  0  0  0  0
   -0.5555   22.7409  -29.5756 H   0  0  0  0  0  0  0  0  0  0  0  0
    0.6082   21.3361  -31.2730 H   0  0  0  0  0  0  0  0  0  0  0  0
   -0.7019   20.1465  -33.0267 H   0  0  0  0  0  0  0  0  0  0  0  0
   -2.8091   20.1538  -34.3197 H   0  0  0  0  0  0  0  0  0  0  0  0
   -3.5561   19.1037  -33.0415 H   0  0  0  0  0  0  0  0  0  0  0  0
   -4.7140   21.7750  -33.7960 H   0  0  0  0  0  0  0  0  0  0  0  0
   -5.1912   18.1430  -33.6042 H   0  0  0  0  0  0  0  0  0  0  0  0
   -7.2919   17.0138  -32.9053 H   0  0  0  0  0  0  0  0  0  0  0  0
   -9.2110   18.3489  -32.0486 H   0  0  0  0  0  0  0  0  0  0  0  0
  -10.1714   20.4859  -31.4069 H   0  0  0  0  0  0  0  0  0  0  0  0
   -9.9612   22.9543  -31.1272 H   0  0  0  0  0  0  0  0  0  0  0  0
   -7.8376   24.1065  -31.7352 H   0  0  0  0  0  0  0  0  0  0  0  0
   -5.9315   22.8128  -32.6769 H   0  0  0  0  0  0  0  0  0  0  0  0
   -4.3765   21.6787  -31.3192 H   0  0  0  0  0  0  0  0  0  0  0  0
  1  2  1  0
  2  3  1  0
  3  4  2  0
  3  5  1  0
  5  6  1  0
  6  7  2  0
  7  8  1  0
  8  9  2  0
  9 10  1  0
 10 11  1  0
 11 12  1  0
 12 13  1  0
 13 14  2  0
 14 15  1  0
 15 16  2  0
 16 17  1  0
 17 18  2  0
 18 19  1  0
 19 20  2  0
 20 21  1  0
 21 22  2  0
 10 23  2  0
 23  6  1  0
 22 13  1  0
 22 17  1  0
  1 24  1  0
  1 25  1  0
  1 26  1  0
  5 27  1  0
  5 28  1  0
  7 29  1  0
  8 30  1  0
  9 31  1  0
 11 32  1  0
 11 33  1  0
 12 34  1  0
 14 35  1  0
 15 36  1  0
 16 37  1  0
 18 38  1  0
 19 39  1  0
 20 40  1  0
 21 41  1  0
 23 42  1  0
M  CHG  1   2  -1
M  END
>  <UniqueID>  (44) 
42

>  <SMILES>  (44) 
C[N-]C(=O)Cc1cccc(CNc2cccc3ccccc23)c1

>  <Energy>  (44) 
50.43935506120409

>  <Genealogy>  (44) 
C[N-]C(=O)Cc1cccc(CNc2cccc3ccccc23)c1 (protonated)
C[N-]C(=O)Cc1cccc(CNc2cccc3ccccc23)c1 (3D coordinates assigned)
C[N-]C(=O)Cc1cccc(CNc2cccc3ccccc23)c1 (optimized conformer: 50.43935506120409 kcal/mol)

>  <smiles>  (44) 
CNC(=O)Cc1cccc(CNc2cccc3ccccc23)c1

>  <score_type>  (44) 
oracle

>  <origin>  (44) 
adgpu

>  <m_score__min__energy>  (44) 
-11.119999999999999

>  <m_primary>  (44) 
energy

$$$$
44:0
     RDKit          3D

 57 60  0  0  0  0  0  0  0  0999 V2000
   -3.1745   22.3415  -31.8800 H   0  0  0  0  0  0  0  0  0  0  0  0
   -4.2500   22.5260  -31.7410 C   0  0  0  0  0  0  0  0  0  0  0  0
   -5.1860   21.6620  -32.3190 C   0  0  0  0  0  0  0  0  0  0  0  0
   -4.8410   20.8049  -32.9160 H   0  0  0  0  0  0  0  0  0  0  0  0
   -6.5600   21.8790  -32.1440 C   0  0  0  0  0  0  0  0  0  0  0  0
   -7.4980   20.9620  -32.7330 N   0  0  0  0  0  0  0  0  0  0  0  0
   -7.3860   20.7280  -33.7460 H   0  0  0  0  0  0  0  0  0  0  0  0
   -8.6520   20.4380  -32.0560 C   0  0  0  0  0  0  0  0  0  0  0  0
   -9.0160   20.9050  -30.9440 O   0  0  0  0  0  0  0  0  0  0  0  0
   -9.4680   19.3660  -32.7040 C   0  0  0  0  0  0  0  0  0  0  0  0
   -9.9404   18.7454  -31.9283 H   0  0  0  0  0  0  0  0  0  0  0  0
  -10.2467   19.8259  -33.3302 H   0  0  0  0  0  0  0  0  0  0  0  0
   -8.8173   18.7379  -33.3302 H   0  0  0  0  0  0  0  0  0  0  0  0
   -6.9850   22.9480  -31.3350 C   0  0  0  0  0  0  0  0  0  0  0  0
   -8.0588   23.1043  -31.1545 H   0  0  0  0  0  0  0  0  0  0  0  0
   -6.0500   23.8130  -30.7590 C   0  0  0  0  0  0  0  0  0  0  0  0
   -6.3937   24.6437  -30.1251 H   0  0  0  0  0  0  0  0  0  0  0  0
   -4.6800   23.6310  -30.9820 C   0  0  0  0  0  0  0  0  0  0  0  0
   -3.7520   24.5310  -30.3520 N   0  0  0  0  0  0  0  0  0  0  0  0
   -2.8270   24.2230  -29.4920 C   0  0  0  0  0  0  0  0  0  0  0  0
   -2.5840   22.9300  -29.1480 N   0  0  0  0  0  0  0  0  0  0  0  0
   -1.5990   22.6190  -28.2660 C   0  0  0  0  0  0  0  0  0  0  0  0
   -1.3540   21.2440  -27.9010 N   0  0  0  0  0  0  0  0  0  0  0  0
   -1.9930   20.6840  -26.7020 C   0  0  0  0  0  0  0  0  0  0  0  0
   -1.4160   20.9803  -25.8136 H   0  0  0  0  0  0  0  0  0  0  0  0
   -3.0208   21.0703  -26.6362 H   0  0  0  0  0  0  0  0  0  0  0  0
   -2.0460   19.1550  -26.7800 C   0  0  0  0  0  0  0  0  0  0  0  0
   -2.3695   18.7557  -25.8074 H   0  0  0  0  0  0  0  0  0  0  0  0
   -2.7568   18.8677  -27.5688 H   0  0  0  0  0  0  0  0  0  0  0  0
   -0.7760   18.6220  -27.1000 O   0  0  0  0  0  0  0  0  0  0  0  0
   -0.4180   19.0180  -28.4090 C   0  0  0  0  0  0  0  0  0  0  0  0
    0.5138   18.5094  -28.6973 H   0  0  0  0  0  0  0  0  0  0  0  0
   -1.2327   18.7435  -29.0952 H   0  0  0  0  0  0  0  0  0  0  0  0
   -0.2060   20.5320  -28.4810 C   0  0  0  0  0  0  0  0  0  0  0  0
    0.7035   20.7966  -27.9217 H   0  0  0  0  0  0  0  0  0  0  0  0
   -0.1032   20.8256  -29.5361 H   0  0  0  0  0  0  0  0  0  0  0  0
   -0.8460   23.6180  -27.7360 N   0  0  0  0  0  0  0  0  0  0  0  0
   -1.0690   24.9140  -28.0780 C   0  0  0  0  0  0  0  0  0  0  0  0
   -0.2590   25.9710  -27.5200 N   0  0  0  0  0  0  0  0  0  0  0  0
   -0.7190   27.3660  -27.5110 C   0  0  0  0  0  0  0  0  0  0  0  0
   -0.2115   27.9195  -28.3147 H   0  0  0  0  0  0  0  0  0  0  0  0
   -1.8077   27.3822  -27.6677 H   0  0  0  0  0  0  0  0  0  0  0  0
   -0.4010   28.0310  -26.1590 C   0  0  0  0  0  0  0  0  0  0  0  0
   -0.4328   29.1220  -26.2961 H   0  0  0  0  0  0  0  0  0  0  0  0
   -1.1542   27.6668  -25.4448 H   0  0  0  0  0  0  0  0  0  0  0  0
    0.9290   27.6710  -25.5950 N   0  0  0  0  0  0  0  0  0  0  0  0
    0.8030   26.9820  -24.2990 C   0  0  0  0  0  0  0  0  0  0  0  0
    0.9358   27.7080  -23.4833 H   0  0  0  0  0  0  0  0  0  0  0  0
   -0.1939   26.5233  -24.2230 H   0  0  0  0  0  0  0  0  0  0  0  0
    1.5731   26.2002  -24.2230 H   0  0  0  0  0  0  0  0  0  0  0  0
    1.8010   26.9270  -26.5270 C   0  0  0  0  0  0  0  0  0  0  0  0
    2.0666   27.5849  -27.3676 H   0  0  0  0  0  0  0  0  0  0  0  0
    2.6973   26.6083  -25.9747 H   0  0  0  0  0  0  0  0  0  0  0  0
    1.1100   25.6720  -27.0780 C   0  0  0  0  0  0  0  0  0  0  0  0
    1.6878   25.2900  -27.9326 H   0  0  0  0  0  0  0  0  0  0  0  0
    1.0613   24.9204  -26.2763 H   0  0  0  0  0  0  0  0  0  0  0  0
   -2.0610   25.2080  -28.9600 N   0  0  0  0  0  0  0  0  0  0  0  0
  1  2  1  0
  2  3  2  0
  3  4  1  0
  3  5  1  0
  5  6  1  0
  6  7  1  0
  6  8  1  0
  8  9  2  0
  8 10  1  0
 10 11  1  0
 10 12  1  0
 10 13  1  0
  5 14  2  0
 14 15  1  0
 14 16  1  0
 16 17  1  0
 16 18  2  0
 18 19  1  0
 19 20  2  0
 20 21  1  0
 21 22  2  0
 22 23  1  0
 23 24  1  0
 24 25  1  0
 24 26  1  0
 24 27  1  0
 27 28  1  0
 27 29  1  0
 27 30  1  0
 30 31  1  0
 31 32  1  0
 31 33  1  0
 31 34  1  0
 34 35  1  0
 34 36  1  0
 22 37  1  0
 37 38  1  0
 38 39  1  0
 39 40  1  0
 40 41  1  0
 40 42  1  0
 40 43  1  0
 43 44  1  0
 43 45  1  0
 43 46  1  0
 46 47  1  0
 47 48  1  0
 47 49  1  0
 47 50  1  0
 46 51  1  0
 51 52  1  0
 51 53  1  0
 51 54  1  0
 54 55  1  0
 54 56  1  0
 38 57  2  0
 18  2  1  0
 57 20  1  0
 34 23  1  0
 54 39  1  0
M  CHG  1  37  -1
M  END
>  <UniqueID>  (45) 
43

>  <SMILES>  (45) 
CC(=O)Nc1ccc(/N=c2\nc(N3CCOCC3)[n-]c(N3CCN(C)CC3)n2)cc1

>  <Energy>  (45) 
75.81657197229994

>  <Genealogy>  (45) 
CC(=O)Nc1ccc(N=c2nc(N3CCOCC3)[n-]c(N3CCN(C)CC3)n2)cc1 (protonated)
CC(=O)Nc1ccc(/N=c2\nc(N3CCOCC3)[n-]c(N3CCN(C)CC3)n2)cc1 (cis-trans isomerization)
CC(=O)Nc1ccc(/N=c2\nc(N3CCOCC3)[n-]c(N3CCN(C)CC3)n2)cc1 (3D coordinates assigned)
CC(=O)Nc1ccc(/N=c2\nc(N3CCOCC3)[n-]c(N3CCN(C)CC3)n2)cc1 (nonaromatic ring conformer: 75.81657197229994 kcal/mol)

>  <smiles>  (45) 
CC(=O)Nc1ccc(N=c2nc(N3CCOCC3)[nH]c(N3CCN(C)CC3)n2)cc1

>  <score_type>  (45) 
oracle

>  <origin>  (45) 
adgpu

>  <m_score__min__energy>  (45) 
-8.9700000000000006

>  <m_primary>  (45) 
energy

$$$$
45:0
     RDKit          3D

 32 34  0  0  0  0  0  0  0  0999 V2000
   -4.3940   21.4020  -30.4620 C   0  0  0  0  0  0  0  0  0  0  0  0
   -5.6090   21.9120  -30.7240 C   0  0  0  0  0  0  0  0  0  0  0  0
   -6.2150   23.0230  -30.1120 C   0  0  0  0  0  0  0  0  0  0  0  0
   -5.7270   23.9350  -29.2490 C   0  0  0  0  0  0  0  0  0  0  0  0
   -4.3050   24.1680  -28.9620 C   0  0  0  0  0  0  0  0  0  0  0  0
   -3.3910   23.3480  -27.8010 S   0  0  0  0  0  0  0  0  0  0  0  0
   -1.9530   24.0420  -28.3270 C   0  0  0  0  0  0  0  0  0  0  0  0
   -0.8290   23.8220  -27.8060 O   0  0  0  0  0  0  0  0  0  0  0  0
   -2.1260   24.8580  -29.3870 N   0  0  0  0  0  0  0  0  0  0  0  0
   -3.4350   24.9130  -29.7510 C   0  0  0  0  0  0  0  0  0  0  0  0
   -3.8570   25.6630  -30.8410 O   0  0  0  0  0  0  0  0  0  0  0  0
   -7.5140   23.0680  -30.5920 C   0  0  0  0  0  0  0  0  0  0  0  0
   -7.6410   22.0390  -31.5020 C   0  0  0  0  0  0  0  0  0  0  0  0
   -8.8810   21.7370  -32.2870 C   0  0  0  0  0  0  0  0  0  0  0  0
   -6.4880   21.3400  -31.5850 N   0  0  0  0  0  0  0  0  0  0  0  0
   -6.2870   20.1770  -32.4050 C   0  0  0  0  0  0  0  0  0  0  0  0
   -5.3360   20.1980  -33.3780 N   0  0  0  0  0  0  0  0  0  0  0  0
   -5.1220   19.1320  -34.1960 C   0  0  0  0  0  0  0  0  0  0  0  0
   -5.8950   17.9770  -34.0560 C   0  0  0  0  0  0  0  0  0  0  0  0
   -6.8880   17.9340  -33.0750 C   0  0  0  0  0  0  0  0  0  0  0  0
   -7.0940   19.0400  -32.2450 C   0  0  0  0  0  0  0  0  0  0  0  0
   -8.0770   19.0110  -31.3120 F   0  0  0  0  0  0  0  0  0  0  0  0
   -4.0354   20.5224  -31.0168 H   0  0  0  0  0  0  0  0  0  0  0  0
   -3.7578   21.8640  -29.6927 H   0  0  0  0  0  0  0  0  0  0  0  0
   -6.4565   24.5595  -28.7126 H   0  0  0  0  0  0  0  0  0  0  0  0
   -8.2948   23.7868  -30.3027 H   0  0  0  0  0  0  0  0  0  0  0  0
   -9.7124   21.5345  -31.5957 H   0  0  0  0  0  0  0  0  0  0  0  0
   -9.1330   22.6000  -32.9208 H   0  0  0  0  0  0  0  0  0  0  0  0
   -8.7080   20.8547  -32.9208 H   0  0  0  0  0  0  0  0  0  0  0  0
   -4.3398   19.1798  -34.9680 H   0  0  0  0  0  0  0  0  0  0  0  0
   -5.7234   17.1105  -34.7115 H   0  0  0  0  0  0  0  0  0  0  0  0
   -7.5065   17.0322  -32.9556 H   0  0  0  0  0  0  0  0  0  0  0  0
  1  2  2  0
  2  3  1  0
  3  4  2  3
  4  5  1  0
  5  6  1  0
  6  7  1  0
  7  8  2  0
  7  9  1  0
  9 10  1  0
 10 11  1  0
  3 12  1  0
 12 13  2  0
 13 14  1  0
 13 15  1  0
 15 16  1  0
 16 17  2  0
 17 18  1  0
 18 19  2  0
 19 20  1  0
 20 21  2  0
 21 22  1  0
 15  2  1  0
 21 16  1  0
 10  5  2  0
  1 23  1  0
  1 24  1  0
  4 25  1  0
 12 26  1  0
 14 27  1  0
 14 28  1  0
 14 29  1  0
 18 30  1  0
 19 31  1  0
 20 32  1  0
M  CHG  2   9  -1  11  -1
M  END
>  <UniqueID>  (46) 
44

>  <SMILES>  (46) 
C=c1c(=Cc2sc(=O)[n-]c2[O-])cc(C)n1-c1ncccc1F

>  <Energy>  (46) 
113.3538686527494

>  <Genealogy>  (46) 
C=c1c(=Cc2sc(=O)[n-]c2[O-])cc(C)n1-c1ncccc1F (protonated)
C=c1c(=Cc2sc(=O)[n-]c2[O-])cc(C)n1-c1ncccc1F (3D coordinates assigned)
C=c1c(=Cc2sc(=O)[n-]c2[O-])cc(C)n1-c1ncccc1F (optimized conformer: 113.3538686527494 kcal/mol)

>  <smiles>  (46) 
C=c1c(=Cc2sc(=O)[nH]c2O)cc(C)n1-c1ncccc1F

>  <score_type>  (46) 
oracle

>  <origin>  (46) 
adgpu

>  <m_score__min__energy>  (46) 
-12.220000000000001

>  <m_primary>  (46) 
energy

$$$$
46:0
     RDKit          3D

 28 30  0  0  0  0  0  0  0  0999 V2000
   -9.7900   21.5650  -30.4870 O   0  0  0  0  0  0  0  0  0  0  0  0
   -8.6490   21.3410  -30.9720 C   0  0  0  0  0  0  0  0  0  0  0  0
   -7.4910   22.1280  -30.5240 C   0  0  0  0  0  0  0  0  0  0  0  0
   -6.2590   21.9120  -31.0210 C   0  0  0  0  0  0  0  0  0  0  0  0
   -5.1600   22.7970  -30.5700 C   0  0  0  0  0  0  0  0  0  0  0  0
   -3.9950   22.2480  -30.0100 C   0  0  0  0  0  0  0  0  0  0  0  0
   -2.9510   23.0820  -29.5970 C   0  0  0  0  0  0  0  0  0  0  0  0
   -3.0590   24.4690  -29.7480 C   0  0  0  0  0  0  0  0  0  0  0  0
   -2.0180   25.2920  -29.3360 O   0  0  0  0  0  0  0  0  0  0  0  0
   -4.2140   25.0220  -30.3140 C   0  0  0  0  0  0  0  0  0  0  0  0
   -4.3250   26.3990  -30.4680 O   0  0  0  0  0  0  0  0  0  0  0  0
   -5.2590   24.1890  -30.7280 C   0  0  0  0  0  0  0  0  0  0  0  0
   -6.0190   20.8250  -32.0270 C   0  0  0  0  0  0  0  0  0  0  0  0
   -4.7190   20.5250  -32.4830 C   0  0  0  0  0  0  0  0  0  0  0  0
   -4.5080   19.5160  -33.4240 C   0  0  0  0  0  0  0  0  0  0  0  0
   -5.5840   18.7780  -33.9160 C   0  0  0  0  0  0  0  0  0  0  0  0
   -6.8760   19.0410  -33.4600 C   0  0  0  0  0  0  0  0  0  0  0  0
   -7.1040   20.0520  -32.5120 C   0  0  0  0  0  0  0  0  0  0  0  0
   -8.4650   20.3050  -31.9940 C   0  0  0  0  0  0  0  0  0  0  0  0
   -9.4540   19.6440  -32.4100 O   0  0  0  0  0  0  0  0  0  0  0  0
   -7.6347   22.9113  -29.7652 H   0  0  0  0  0  0  0  0  0  0  0  0
   -3.9032   21.1578  -29.8957 H   0  0  0  0  0  0  0  0  0  0  0  0
   -2.0436   22.6470  -29.1528 H   0  0  0  0  0  0  0  0  0  0  0  0
   -6.1620   24.6261  -31.1792 H   0  0  0  0  0  0  0  0  0  0  0  0
   -3.8614   21.0926  -32.0927 H   0  0  0  0  0  0  0  0  0  0  0  0
   -3.4890   19.3021  -33.7789 H   0  0  0  0  0  0  0  0  0  0  0  0
   -5.4142   17.9889  -34.6633 H   0  0  0  0  0  0  0  0  0  0  0  0
   -7.7218   18.4527  -33.8455 H   0  0  0  0  0  0  0  0  0  0  0  0
  1  2  2  0
  2  3  1  0
  3  4  2  0
  4  5  1  0
  5  6  2  0
  6  7  1  0
  7  8  2  0
  8  9  1  0
  8 10  1  0
 10 11  1  0
 10 12  2  0
  4 13  1  0
 13 14  2  0
 14 15  1  0
 15 16  2  0
 16 17  1  0
 17 18  2  0
 18 19  1  0
 19 20  2  0
 19  2  1  0
 12  5  1  0
 18 13  1  0
  3 21  1  0
  6 22  1  0
  7 23  1  0
 12 24  1  0
 14 25  1  0
 15 26  1  0
 16 27  1  0
 17 28  1  0
M  CHG  2   9  -1  11  -1
M  END
>  <UniqueID>  (47) 
45

>  <SMILES>  (47) 
O=C1C=C(c2ccc([O-])c([O-])c2)c2ccccc2C1=O

>  <Energy>  (47) 
40.56231607517809

>  <Genealogy>  (47) 
O=C1C=C(c2ccc([O-])c([O-])c2)c2ccccc2C1=O (protonated)
O=C1C=C(c2ccc([O-])c([O-])c2)c2ccccc2C1=O (3D coordinates assigned)
O=C1C=C(c2ccc([O-])c([O-])c2)c2ccccc2C1=O (nonaromatic ring conformer: 40.56231607517809 kcal/mol)

>  <smiles>  (47) 
O=C1C=C(c2ccc(O)c(O)c2)c2ccccc2C1=O

>  <score_type>  (47) 
oracle

>  <origin>  (47) 
adgpu

>  <m_score__min__energy>  (47) 
-13.210000000000001

>  <m_primary>  (47) 
energy

$$$$
47:0
     RDKit          3D

 45 48  0  0  0  0  0  0  0  0999 V2000
   -9.2390   21.8990  -30.5830 N   0  0  0  0  0  0  0  0  0  0  0  0
   -9.2100   21.0200  -31.7090 C   0  0  0  0  0  0  0  0  0  0  0  0
  -10.2800   20.7960  -32.3380 O   0  0  0  0  0  0  0  0  0  0  0  0
   -7.9460   20.3670  -32.1430 C   0  0  0  0  0  0  0  0  0  0  0  0
   -7.9760   19.0260  -32.5500 C   0  0  0  0  0  0  0  0  0  0  0  0
   -6.8420   18.3960  -32.9390 N   0  0  0  0  0  0  0  0  0  0  0  0
   -5.6490   19.0360  -33.0090 C   0  0  0  0  0  0  0  0  0  0  0  0
   -4.5350   18.3410  -33.4910 C   0  0  0  0  0  0  0  0  0  0  0  0
   -3.3260   19.0060  -33.6980 C   0  0  0  0  0  0  0  0  0  0  0  0
   -1.9380   18.1330  -34.3190 Cl  0  0  0  0  0  0  0  0  0  0  0  0
   -3.2410   20.3770  -33.4610 C   0  0  0  0  0  0  0  0  0  0  0  0
   -4.3450   21.0780  -32.9700 C   0  0  0  0  0  0  0  0  0  0  0  0
   -5.5500   20.4070  -32.6540 C   0  0  0  0  0  0  0  0  0  0  0  0
   -6.7040   21.0500  -32.1020 C   0  0  0  0  0  0  0  0  0  0  0  0
   -6.6800   22.2130  -31.4960 N   0  0  0  0  0  0  0  0  0  0  0  0
   -5.5750   22.9790  -30.9980 C   0  0  0  0  0  0  0  0  0  0  0  0
   -4.5730   22.3760  -30.2190 C   0  0  0  0  0  0  0  0  0  0  0  0
   -3.5340   23.1470  -29.6920 C   0  0  0  0  0  0  0  0  0  0  0  0
   -3.4860   24.5270  -29.9230 C   0  0  0  0  0  0  0  0  0  0  0  0
   -2.4120   25.2840  -29.3470 N   0  0  0  0  0  0  0  0  0  0  0  0
   -1.2620   24.7570  -28.6710 C   0  0  0  0  0  0  0  0  0  0  0  0
   -0.4610   23.9980  -29.2830 O   0  0  0  0  0  0  0  0  0  0  0  0
   -1.0400   25.0600  -27.2370 C   0  0  0  0  0  0  0  0  0  0  0  0
   -0.8390   24.0220  -26.3070 C   0  0  0  0  0  0  0  0  0  0  0  0
   -0.6320   24.3130  -24.9560 C   0  0  0  0  0  0  0  0  0  0  0  0
   -0.6240   25.6380  -24.5160 C   0  0  0  0  0  0  0  0  0  0  0  0
   -0.8230   26.6780  -25.4270 C   0  0  0  0  0  0  0  0  0  0  0  0
   -0.8140   28.3420  -24.8720 Cl  0  0  0  0  0  0  0  0  0  0  0  0
   -1.0310   26.3920  -26.7810 C   0  0  0  0  0  0  0  0  0  0  0  0
   -4.5250   25.1390  -30.6490 C   0  0  0  0  0  0  0  0  0  0  0  0
   -5.5660   24.3660  -31.1750 C   0  0  0  0  0  0  0  0  0  0  0  0
  -10.1460   22.3080  -30.2620 H   0  0  0  0  0  0  0  0  0  0  0  0
   -8.3620   22.2050  -30.1080 H   0  0  0  0  0  0  0  0  0  0  0  0
   -8.9307   18.4796  -32.5535 H   0  0  0  0  0  0  0  0  0  0  0  0
   -4.6124   17.2654  -33.7078 H   0  0  0  0  0  0  0  0  0  0  0  0
   -2.2997   20.9096  -33.6616 H   0  0  0  0  0  0  0  0  0  0  0  0
   -4.2767   22.1665  -32.8271 H   0  0  0  0  0  0  0  0  0  0  0  0
   -4.6068   21.2940  -30.0236 H   0  0  0  0  0  0  0  0  0  0  0  0
   -2.7479   22.6663  -29.0912 H   0  0  0  0  0  0  0  0  0  0  0  0
   -0.8450   22.9756  -26.6461 H   0  0  0  0  0  0  0  0  0  0  0  0
   -0.4749   23.4956  -24.2369 H   0  0  0  0  0  0  0  0  0  0  0  0
   -0.4609   25.8630  -23.4517 H   0  0  0  0  0  0  0  0  0  0  0  0
   -1.1887   27.2142  -27.4945 H   0  0  0  0  0  0  0  0  0  0  0  0
   -4.5186   26.2281  -30.8033 H   0  0  0  0  0  0  0  0  0  0  0  0
   -6.3815   24.8520  -31.7306 H   0  0  0  0  0  0  0  0  0  0  0  0
  1  2  1  0
  2  3  2  0
  2  4  1  0
  4  5  2  0
  5  6  1  0
  6  7  1  0
  7  8  2  0
  8  9  1  0
  9 10  1  0
  9 11  2  0
 11 12  1  0
 12 13  2  0
 13 14  1  0
 14 15  2  3
 15 16  1  0
 16 17  2  0
 17 18  1  0
 18 19  2  0
 19 20  1  0
 20 21  1  0
 21 22  2  0
 21 23  1  0
 23 24  2  0
 24 25  1  0
 25 26  2  0
 26 27  1  0
 27 28  1  0
 27 29  2  0
 19 30  1  0
 30 31  2  0
 14  4  1  0
 31 16  1  0
 13  7  1  0
 29 23  1  0
  1 32  1  0
  1 33  1  0
  5 34  1  0
  8 35  1  0
 11 36  1  0
 12 37  1  0
 17 38  1  0
 18 39  1  0
 24 40  1  0
 25 41  1  0
 26 42  1  0
 29 43  1  0
 30 44  1  0
 31 45  1  0
M  CHG  2   6  -1  20  -1
M  END
>  <UniqueID>  (48) 
46

>  <SMILES>  (48) 
NC(=O)c1c[n-]c2cc(Cl)ccc2c1=Nc1ccc([N-]C(=O)c2cccc(Cl)c2)cc1

>  <Energy>  (48) 
81.84391995905982

>  <Genealogy>  (48) 
NC(=O)c1c[n-]c2cc(Cl)ccc2c1=Nc1ccc([N-]C(=O)c2cccc(Cl)c2)cc1 (protonated)
NC(=O)c1c[n-]c2cc(Cl)ccc2c1=Nc1ccc([N-]C(=O)c2cccc(Cl)c2)cc1 (3D coordinates assigned)
NC(=O)c1c[n-]c2cc(Cl)ccc2c1=Nc1ccc([N-]C(=O)c2cccc(Cl)c2)cc1 (optimized conformer: 81.84391995905982 kcal/mol)

>  <smiles>  (48) 
NC(=O)c1c[nH]c2cc(Cl)ccc2c1=Nc1ccc(NC(=O)c2cccc(Cl)c2)cc1

>  <score_type>  (48) 
oracle

>  <origin>  (48) 
adgpu

>  <m_score__min__energy>  (48) 
-11.51

>  <m_primary>  (48) 
energy

$$$$
