0:0
     RDKit          3D

 42 45  0  0  0  0  0  0  0  0999 V2000
   -9.9311   18.5449  -31.0103 H   0  0  0  0  0  0  0  0  0  0  0  0
   -8.9490   18.8000  -31.4350 C   0  0  0  0  0  0  0  0  0  0  0  0
   -8.4320   20.0860  -31.2690 C   0  0  0  0  0  0  0  0  0  0  0  0
   -9.0031   20.8364  -30.7027 H   0  0  0  0  0  0  0  0  0  0  0  0
   -7.1850   20.4270  -31.8220 C   0  0  0  0  0  0  0  0  0  0  0  0
   -6.5930   21.7720  -31.6160 C   0  0  0  0  0  0  0  0  0  0  0  0
   -5.3200   21.8750  -31.1280 N   0  0  0  0  0  0  0  0  0  0  0  0
   -4.7980   23.0830  -30.9400 N   0  0  0  0  0  0  0  0  0  0  0  0
   -3.6050   23.4600  -30.4720 C   0  0  0  0  0  0  0  0  0  0  0  0
   -2.6760   22.6360  -30.0910 N   0  0  0  0  0  0  0  0  0  0  0  0
   -1.3840   23.0760  -29.5790 C   0  0  0  0  0  0  0  0  0  0  0  0
   -1.4038   23.0692  -28.4792 H   0  0  0  0  0  0  0  0  0  0  0  0
   -0.5971   22.3952  -29.9357 H   0  0  0  0  0  0  0  0  0  0  0  0
   -1.1762   24.0956  -29.9357 H   0  0  0  0  0  0  0  0  0  0  0  0
   -3.5050   24.8100  -30.4450 N   0  0  0  0  0  0  0  0  0  0  0  0
   -4.6610   25.2950  -30.9050 N   0  0  0  0  0  0  0  0  0  0  0  0
   -5.4290   24.2270  -31.1960 C   0  0  0  0  0  0  0  0  0  0  0  0
   -6.7210   24.2180  -31.7010 C   0  0  0  0  0  0  0  0  0  0  0  0
   -7.2586   25.1518  -31.9224 H   0  0  0  0  0  0  0  0  0  0  0  0
   -7.3120   22.9600  -31.9170 C   0  0  0  0  0  0  0  0  0  0  0  0
   -8.3335   22.8957  -32.3200 H   0  0  0  0  0  0  0  0  0  0  0  0
   -6.4690   19.4550  -32.5400 C   0  0  0  0  0  0  0  0  0  0  0  0
   -5.5011   19.7180  -32.9916 H   0  0  0  0  0  0  0  0  0  0  0  0
   -6.9730   18.1480  -32.6900 C   0  0  0  0  0  0  0  0  0  0  0  0
   -6.2360   17.1210  -33.3790 N   0  0  0  0  0  0  0  0  0  0  0  0
   -6.4260   16.1200  -33.1480 H   0  0  0  0  0  0  0  0  0  0  0  0
   -4.9760   17.4320  -34.5330 S   0  0  0  0  0  0  0  0  0  0  0  0
   -4.4110   16.1250  -35.0140 O   0  0  0  0  0  0  0  0  0  0  0  0
   -5.5610   18.1730  -35.7020 O   0  0  0  0  0  0  0  0  0  0  0  0
   -3.6800   18.3710  -33.7960 C   0  0  0  0  0  0  0  0  0  0  0  0
   -2.5820   17.7220  -33.2120 C   0  0  0  0  0  0  0  0  0  0  0  0
   -2.5460   16.6230  -33.1823 H   0  0  0  0  0  0  0  0  0  0  0  0
   -1.5340   18.4690  -32.6680 C   0  0  0  0  0  0  0  0  0  0  0  0
   -0.6756   17.9568  -32.2088 H   0  0  0  0  0  0  0  0  0  0  0  0
   -1.5740   19.8660  -32.7060 C   0  0  0  0  0  0  0  0  0  0  0  0
   -0.1300   20.8850  -31.9800 Br  0  0  0  0  0  0  0  0  0  0  0  0
   -2.6720   20.5170  -33.2780 C   0  0  0  0  0  0  0  0  0  0  0  0
   -2.7077   21.6162  -33.3022 H   0  0  0  0  0  0  0  0  0  0  0  0
   -3.7240   19.7720  -33.8190 C   0  0  0  0  0  0  0  0  0  0  0  0
   -4.5885   20.2865  -34.2639 H   0  0  0  0  0  0  0  0  0  0  0  0
   -8.2240   17.8370  -32.1380 C   0  0  0  0  0  0  0  0  0  0  0  0
   -8.6374   16.8250  -32.2602 H   0  0  0  0  0  0  0  0  0  0  0  0
  1  2  1  0
  2  3  2  0
  3  4  1  0
  3  5  1  0
  5  6  1  0
  6  7  2  0
  7  8  1  0
  8  9  1  0
  9 10  2  0
 10 11  1  0
 11 12  1  0
 11 13  1  0
 11 14  1  0
  9 15  1  0
 15 16  1  0
 16 17  2  0
 17 18  1  0
 18 19  1  0
 18 20  2  0
 20 21  1  0
  5 22  2  0
 22 23  1  0
 22 24  1  0
 24 25  1  0
 25 26  1  0
 25 27  1  0
 27 28  2  0
 27 29  2  0
 27 30  1  0
 30 31  2  0
 31 32  1  0
 31 33  1  0
 33 34  1  0
 33 35  2  0
 35 36  1  0
 35 37  1  0
 37 38  1  0
 37 39  2  0
 39 40  1  0
 24 41  2  0
 41 42  1  0
 41  2  1  0
 20  6  1  0
 39 30  1  0
 17  8  1  0
M  CHG  1  15  -1
M  END
>  <UniqueID>  (1) 
1

>  <SMILES>  (1) 
C/N=c1\[n-]nc2ccc(-c3cccc(NS(=O)(=O)c4ccc(Br)cc4)c3)nn12

>  <Energy>  (1) 
93.90794281078955

>  <Genealogy>  (1) 
CN=c1[n-]nc2ccc(-c3cccc(NS(=O)(=O)c4ccc(Br)cc4)c3)nn12 (protonated)
C/N=c1\[n-]nc2ccc(-c3cccc(NS(=O)(=O)c4ccc(Br)cc4)c3)nn12 (cis-trans isomerization)
C/N=c1\[n-]nc2ccc(-c3cccc(NS(=O)(=O)c4ccc(Br)cc4)c3)nn12 (3D coordinates assigned)
C/N=c1\[n-]nc2ccc(-c3cccc(NS(=O)(=O)c4ccc(Br)cc4)c3)nn12 (optimized conformer: 93.90794281078955 kcal/mol)

>  <smiles>  (1) 
CN=c1[nH]nc2ccc(-c3cccc(NS(=O)(=O)c4ccc(Br)cc4)c3)nn12

>  <score_type>  (1) 
oracle

>  <origin>  (1) 
adgpu

>  <m_score__min__energy>  (1) 
-10.91

>  <m_primary>  (1) 
energy

$$$$
1:0
     RDKit          3D

 62 64  0  0  0  0  0  0  0  0999 V2000
   -2.3784   25.7577  -26.5071 H   0  0  0  0  0  0  0  0  0  0  0  0
   -2.6390   24.9440  -27.2000 C   0  0  0  0  0  0  0  0  0  0  0  0
   -3.8740   24.2990  -27.0890 C   0  0  0  0  0  0  0  0  0  0  0  0
   -4.5856   24.6076  -26.3090 H   0  0  0  0  0  0  0  0  0  0  0  0
   -4.2080   23.2620  -27.9670 C   0  0  0  0  0  0  0  0  0  0  0  0
   -5.1836   22.7615  -27.8788 H   0  0  0  0  0  0  0  0  0  0  0  0
   -3.2980   22.8570  -28.9640 C   0  0  0  0  0  0  0  0  0  0  0  0
   -3.6160   21.8040  -29.8910 N   0  0  0  0  0  0  0  0  0  0  0  0
   -4.4450   21.2010  -29.6880 H   0  0  0  0  0  0  0  0  0  0  0  0
   -2.7880   21.4420  -31.0080 C   0  0  0  0  0  0  0  0  0  0  0  0
   -3.1700   21.7780  -32.3240 C   0  0  0  0  0  0  0  0  0  0  0  0
   -4.7050   22.6640  -32.6720 S   0  0  0  0  0  0  0  0  0  0  0  0
   -5.7500   21.1980  -32.5490 C   0  0  0  0  0  0  0  0  0  0  0  0
   -5.4500   20.0990  -33.3710 C   0  0  0  0  0  0  0  0  0  0  0  0
   -4.5862   20.1466  -34.0503 H   0  0  0  0  0  0  0  0  0  0  0  0
   -6.2370   18.9480  -33.3340 C   0  0  0  0  0  0  0  0  0  0  0  0
   -6.0046   18.1008  -33.9960 H   0  0  0  0  0  0  0  0  0  0  0  0
   -7.3200   18.8720  -32.4560 C   0  0  0  0  0  0  0  0  0  0  0  0
   -7.9518   17.9717  -32.4405 H   0  0  0  0  0  0  0  0  0  0  0  0
   -7.6030   19.9370  -31.5970 C   0  0  0  0  0  0  0  0  0  0  0  0
   -8.4413   19.8588  -30.8891 H   0  0  0  0  0  0  0  0  0  0  0  0
   -6.8250   21.1080  -31.6300 C   0  0  0  0  0  0  0  0  0  0  0  0
   -7.0940   22.1770  -30.5970 C   0  0  0  0  0  0  0  0  0  0  0  0
   -6.2348   22.2440  -29.9134 H   0  0  0  0  0  0  0  0  0  0  0  0
   -8.0036   21.9107  -30.0387 H   0  0  0  0  0  0  0  0  0  0  0  0
   -7.3080   23.5370  -31.2730 C   0  0  0  0  0  0  0  0  0  0  0  0
   -8.3708   23.8108  -31.1990 H   0  0  0  0  0  0  0  0  0  0  0  0
   -7.0002   23.4540  -32.3258 H   0  0  0  0  0  0  0  0  0  0  0  0
   -6.4670   24.6240  -30.6090 C   0  0  0  0  0  0  0  0  0  0  0  0
   -6.5410   24.5283  -29.5157 H   0  0  0  0  0  0  0  0  0  0  0  0
   -5.4166   24.5139  -30.9164 H   0  0  0  0  0  0  0  0  0  0  0  0
   -6.8373   25.6131  -30.9164 H   0  0  0  0  0  0  0  0  0  0  0  0
   -2.3440   21.4200  -33.3940 C   0  0  0  0  0  0  0  0  0  0  0  0
   -2.6182   21.7234  -34.4152 H   0  0  0  0  0  0  0  0  0  0  0  0
   -1.1730   20.6810  -33.1850 C   0  0  0  0  0  0  0  0  0  0  0  0
   -0.3170   20.2740  -34.3510 C   0  0  0  0  0  0  0  0  0  0  0  0
    0.6187   19.8291  -33.9813 H   0  0  0  0  0  0  0  0  0  0  0  0
   -0.8572   19.5363  -34.9626 H   0  0  0  0  0  0  0  0  0  0  0  0
   -0.0858   21.1586  -34.9626 H   0  0  0  0  0  0  0  0  0  0  0  0
   -0.8170   20.3010  -31.8830 C   0  0  0  0  0  0  0  0  0  0  0  0
    0.3470   19.5660  -31.6710 O   0  0  0  0  0  0  0  0  0  0  0  0
   -1.6210   20.6760  -30.7910 C   0  0  0  0  0  0  0  0  0  0  0  0
   -1.2310   20.2730  -29.4150 C   0  0  0  0  0  0  0  0  0  0  0  0
    0.1710   20.1840  -29.1100 N   0  0  0  0  0  0  0  0  0  0  0  0
    0.8730   20.2740  -29.8810 H   0  0  0  0  0  0  0  0  0  0  0  0
    0.5530   20.0650  -28.1540 H   0  0  0  0  0  0  0  0  0  0  0  0
   -2.1710   20.0320  -28.5300 N   0  0  0  0  0  0  0  0  0  0  0  0
   -3.1630   20.1530  -28.8420 H   0  0  0  0  0  0  0  0  0  0  0  0
   -2.0260   19.5870  -27.1310 C   0  0  0  0  0  0  0  0  0  0  0  0
   -1.3110   18.7511  -27.1426 H   0  0  0  0  0  0  0  0  0  0  0  0
   -3.3260   19.0020  -26.5590 C   0  0  0  0  0  0  0  0  0  0  0  0
   -3.2841   19.0208  -25.4600 H   0  0  0  0  0  0  0  0  0  0  0  0
   -4.1810   19.6022  -26.9037 H   0  0  0  0  0  0  0  0  0  0  0  0
   -3.4438   17.9641  -26.9037 H   0  0  0  0  0  0  0  0  0  0  0  0
   -1.3860   20.6550  -26.2340 C   0  0  0  0  0  0  0  0  0  0  0  0
   -1.5447   20.3902  -25.1782 H   0  0  0  0  0  0  0  0  0  0  0  0
   -0.3069   20.7085  -26.4404 H   0  0  0  0  0  0  0  0  0  0  0  0
   -1.8477   21.6319  -26.4404 H   0  0  0  0  0  0  0  0  0  0  0  0
   -2.0650   23.5190  -29.0740 C   0  0  0  0  0  0  0  0  0  0  0  0
   -1.3532   23.2222  -29.8584 H   0  0  0  0  0  0  0  0  0  0  0  0
   -1.7360   24.5540  -28.1920 C   0  0  0  0  0  0  0  0  0  0  0  0
   -0.7642   25.0618  -28.2798 H   0  0  0  0  0  0  0  0  0  0  0  0
  1  2  1  0
  2  3  2  0
  3  4  1  0
  3  5  1  0
  5  6  1  0
  5  7  2  0
  7  8  1  0
  8  9  1  0
  8 10  1  0
 10 11  1  0
 11 12  1  0
 12 13  1  0
 13 14  2  0
 14 15  1  0
 14 16  1  0
 16 17  1  0
 16 18  2  0
 18 19  1  0
 18 20  1  0
 20 21  1  0
 20 22  2  0
 22 23  1  0
 23 24  1  0
 23 25  1  0
 23 26  1  0
 26 27  1  0
 26 28  1  0
 26 29  1  0
 29 30  1  0
 29 31  1  0
 29 32  1  0
 11 33  2  0
 33 34  1  0
 33 35  1  0
 35 36  1  0
 36 37  1  0
 36 38  1  0
 36 39  1  0
 35 40  2  0
 40 41  1  0
 40 42  1  0
 42 43  1  0
 43 44  1  0
 44 45  1  0
 44 46  1  0
 43 47  2  0
 47 48  1  0
 47 49  1  0
 49 50  1  0
 49 51  1  0
 51 52  1  0
 51 53  1  0
 51 54  1  0
 49 55  1  0
 55 56  1  0
 55 57  1  0
 55 58  1  0
  7 59  1  0
 59 60  1  0
 59 61  2  0
 61 62  1  0
 61  2  1  0
 42 10  2  0
 22 13  1  0
M  CHG  2  41  -1  47   1
M  END
>  <UniqueID>  (2) 
2

>  <SMILES>  (2) 
CCCc1ccccc1Sc1cc(C)c([O-])c(/C(N)=[NH+]/C(C)C)c1Nc1ccccc1

>  <Energy>  (2) 
69.90256388602613

>  <Genealogy>  (2) 
CCCc1ccccc1Sc1cc(C)c([O-])c(C(N)=[NH+]C(C)C)c1Nc1ccccc1 (protonated)
CCCc1ccccc1Sc1cc(C)c([O-])c(/C(N)=[NH+]/C(C)C)c1Nc1ccccc1 (cis-trans isomerization)
CCCc1ccccc1Sc1cc(C)c([O-])c(/C(N)=[NH+]/C(C)C)c1Nc1ccccc1 (3D coordinates assigned)
CCCc1ccccc1Sc1cc(C)c([O-])c(/C(N)=[NH+]/C(C)C)c1Nc1ccccc1 (optimized conformer: 69.90256388602613 kcal/mol)

>  <smiles>  (2) 
CCCc1ccccc1Sc1cc(C)c(O)c(C(N)=NC(C)C)c1Nc1ccccc1

>  <score_type>  (2) 
oracle

>  <origin>  (2) 
adgpu

>  <m_score__min__energy>  (2) 
-10.76

>  <m_primary>  (2) 
energy

$$$$
2:0
     RDKit          3D

 33 35  0  0  0  0  0  0  0  0999 V2000
   -1.0116   23.4209  -27.2854 H   0  0  0  0  0  0  0  0  0  0  0  0
   -1.7870   23.5710  -28.0510 C   0  0  0  0  0  0  0  0  0  0  0  0
   -2.7060   22.6020  -28.2920 N   0  0  0  0  0  0  0  0  0  0  0  0
   -3.6700   22.7580  -29.2360 C   0  0  0  0  0  0  0  0  0  0  0  0
   -4.4013   21.9570  -29.4191 H   0  0  0  0  0  0  0  0  0  0  0  0
   -3.7260   23.9540  -29.9790 C   0  0  0  0  0  0  0  0  0  0  0  0
   -4.6390   24.1860  -30.8820 N   0  0  0  0  0  0  0  0  0  0  0  0
   -5.6310   23.2740  -31.3780 C   0  0  0  0  0  0  0  0  0  0  0  0
   -6.9840   23.4050  -31.0200 C   0  0  0  0  0  0  0  0  0  0  0  0
   -7.3042   24.2435  -30.3841 H   0  0  0  0  0  0  0  0  0  0  0  0
   -7.9250   22.4720  -31.4700 C   0  0  0  0  0  0  0  0  0  0  0  0
   -8.9859   22.5893  -31.2039 H   0  0  0  0  0  0  0  0  0  0  0  0
   -7.5170   21.3890  -32.2590 C   0  0  0  0  0  0  0  0  0  0  0  0
   -8.4830   20.4280  -32.7200 C   0  0  0  0  0  0  0  0  0  0  0  0
   -9.2610   19.6550  -33.0910 N   0  0  0  0  0  0  0  0  0  0  0  0
   -6.1640   21.2370  -32.5870 C   0  0  0  0  0  0  0  0  0  0  0  0
   -5.8401   20.3822  -33.1989 H   0  0  0  0  0  0  0  0  0  0  0  0
   -5.2240   22.1700  -32.1380 C   0  0  0  0  0  0  0  0  0  0  0  0
   -4.1600   22.0363  -32.3828 H   0  0  0  0  0  0  0  0  0  0  0  0
   -2.8130   24.9260  -29.7130 N   0  0  0  0  0  0  0  0  0  0  0  0
   -1.8330   24.7650  -28.7850 C   0  0  0  0  0  0  0  0  0  0  0  0
   -0.9340   25.8160  -28.5590 O   0  0  0  0  0  0  0  0  0  0  0  0
   -0.8740   26.6000  -27.3970 C   0  0  0  0  0  0  0  0  0  0  0  0
   -1.2590   26.0280  -26.1780 C   0  0  0  0  0  0  0  0  0  0  0  0
   -1.5872   24.9786  -26.1464 H   0  0  0  0  0  0  0  0  0  0  0  0
   -1.2290   26.7820  -25.0010 C   0  0  0  0  0  0  0  0  0  0  0  0
   -1.5234   26.3222  -24.0460 H   0  0  0  0  0  0  0  0  0  0  0  0
   -0.8250   28.1200  -25.0370 C   0  0  0  0  0  0  0  0  0  0  0  0
   -0.7959   28.7112  -24.1099 H   0  0  0  0  0  0  0  0  0  0  0  0
   -0.4580   28.7060  -26.2520 C   0  0  0  0  0  0  0  0  0  0  0  0
   -0.1460   29.7604  -26.2812 H   0  0  0  0  0  0  0  0  0  0  0  0
   -0.4870   27.9530  -27.4310 C   0  0  0  0  0  0  0  0  0  0  0  0
   -0.2067   28.4195  -28.3869 H   0  0  0  0  0  0  0  0  0  0  0  0
  1  2  1  0
  2  3  1  0
  3  4  2  0
  4  5  1  0
  4  6  1  0
  6  7  2  0
  7  8  1  0
  8  9  2  0
  9 10  1  0
  9 11  1  0
 11 12  1  0
 11 13  2  0
 13 14  1  0
 14 15  3  0
 13 16  1  0
 16 17  1  0
 16 18  2  0
 18 19  1  0
  6 20  1  0
 20 21  1  0
 21 22  1  0
 22 23  1  0
 23 24  2  0
 24 25  1  0
 24 26  1  0
 26 27  1  0
 26 28  2  0
 28 29  1  0
 28 30  1  0
 30 31  1  0
 30 32  2  0
 32 33  1  0
 21  2  2  0
 32 23  1  0
 18  8  1  0
M  CHG  1  20  -1
M  END
>  <UniqueID>  (3) 
3

>  <SMILES>  (3) 
N#Cc1ccc(/N=c2\cncc(Oc3ccccc3)[n-]2)cc1

>  <Energy>  (3) 
53.34152013377081

>  <Genealogy>  (3) 
N#Cc1ccc(N=c2cncc(Oc3ccccc3)[n-]2)cc1 (protonated)
N#Cc1ccc(/N=c2\cncc(Oc3ccccc3)[n-]2)cc1 (cis-trans isomerization)
N#Cc1ccc(/N=c2\cncc(Oc3ccccc3)[n-]2)cc1 (3D coordinates assigned)
N#Cc1ccc(/N=c2\cncc(Oc3ccccc3)[n-]2)cc1 (optimized conformer: 53.34152013377081 kcal/mol)

>  <smiles>  (3) 
N#Cc1ccc(N=c2cncc(Oc3ccccc3)[nH]2)cc1

>  <score_type>  (3) 
oracle

>  <origin>  (3) 
adgpu

>  <m_score__min__energy>  (3) 
-9.5500000000000007

>  <m_primary>  (3) 
energy

$$$$
3:0
     RDKit          3D

 40 42  0  0  0  0  0  0  0  0999 V2000
   -9.7070   17.3080  -30.9980 H   0  0  0  0  0  0  0  0  0  0  0  0
   -9.4550   18.2960  -31.2240 N   0  0  0  0  0  0  0  0  0  0  0  0
   -8.3520   18.5900  -31.8310 C   0  0  0  0  0  0  0  0  0  0  0  0
   -8.0590   19.8870  -32.1080 N   0  0  0  0  0  0  0  0  0  0  0  0
   -6.9000   20.2290  -32.7370 C   0  0  0  0  0  0  0  0  0  0  0  0
   -6.6040   21.5650  -33.0380 O   0  0  0  0  0  0  0  0  0  0  0  0
   -6.3530   22.5720  -32.0940 C   0  0  0  0  0  0  0  0  0  0  0  0
   -7.4420   23.1740  -31.4540 C   0  0  0  0  0  0  0  0  0  0  0  0
   -8.4655   22.8587  -31.7051 H   0  0  0  0  0  0  0  0  0  0  0  0
   -7.2390   24.1720  -30.4990 C   0  0  0  0  0  0  0  0  0  0  0  0
   -8.1004   24.6265  -29.9877 H   0  0  0  0  0  0  0  0  0  0  0  0
   -5.9430   24.5940  -30.1920 C   0  0  0  0  0  0  0  0  0  0  0  0
   -5.7865   25.3656  -29.4238 H   0  0  0  0  0  0  0  0  0  0  0  0
   -4.8420   24.0400  -30.8570 C   0  0  0  0  0  0  0  0  0  0  0  0
   -3.5270   24.4990  -30.5080 N   0  0  0  0  0  0  0  0  0  0  0  0
   -2.9580   24.5420  -29.1940 C   0  0  0  0  0  0  0  0  0  0  0  0
   -3.4810   23.8920  -28.2490 O   0  0  0  0  0  0  0  0  0  0  0  0
   -1.7790   25.3290  -28.9710 N   0  0  0  0  0  0  0  0  0  0  0  0
   -1.5260   26.0310  -29.7040 H   0  0  0  0  0  0  0  0  0  0  0  0
   -1.0130   25.3110  -27.7540 C   0  0  0  0  0  0  0  0  0  0  0  0
    0.1500   24.5300  -27.6870 C   0  0  0  0  0  0  0  0  0  0  0  0
    0.4697   23.9487  -28.5645 H   0  0  0  0  0  0  0  0  0  0  0  0
    0.9050   24.4860  -26.5120 C   0  0  0  0  0  0  0  0  0  0  0  0
    1.8250   23.8842  -26.4736 H   0  0  0  0  0  0  0  0  0  0  0  0
    0.4950   25.2040  -25.3860 C   0  0  0  0  0  0  0  0  0  0  0  0
    1.1021   25.1803  -24.4690 H   0  0  0  0  0  0  0  0  0  0  0  0
   -0.6890   25.9550  -25.4220 C   0  0  0  0  0  0  0  0  0  0  0  0
   -1.1280   26.7350  -24.2190 C   0  0  0  0  0  0  0  0  0  0  0  0
   -0.8272   26.2006  -23.3058 H   0  0  0  0  0  0  0  0  0  0  0  0
   -0.6567   27.7288  -24.2344 H   0  0  0  0  0  0  0  0  0  0  0  0
   -2.2221   26.8478  -24.2344 H   0  0  0  0  0  0  0  0  0  0  0  0
   -1.4350   26.0130  -26.6100 C   0  0  0  0  0  0  0  0  0  0  0  0
   -2.3568   26.6121  -26.6467 H   0  0  0  0  0  0  0  0  0  0  0  0
   -5.0490   23.0160  -31.8010 C   0  0  0  0  0  0  0  0  0  0  0  0
   -4.1880   22.5606  -32.3121 H   0  0  0  0  0  0  0  0  0  0  0  0
   -6.0070   19.2290  -33.1240 C   0  0  0  0  0  0  0  0  0  0  0  0
   -5.0741   19.4818  -33.6492 H   0  0  0  0  0  0  0  0  0  0  0  0
   -6.3220   17.9020  -32.8310 C   0  0  0  0  0  0  0  0  0  0  0  0
   -5.6303   17.0960  -33.1170 H   0  0  0  0  0  0  0  0  0  0  0  0
   -7.4840   17.6060  -32.1920 N   0  0  0  0  0  0  0  0  0  0  0  0
  1  2  1  0
  2  3  2  0
  3  4  1  0
  4  5  2  0
  5  6  1  0
  6  7  1  0
  7  8  2  0
  8  9  1  0
  8 10  1  0
 10 11  1  0
 10 12  2  0
 12 13  1  0
 12 14  1  0
 14 15  1  0
 15 16  1  0
 16 17  2  0
 16 18  1  0
 18 19  1  0
 18 20  1  0
 20 21  2  0
 21 22  1  0
 21 23  1  0
 23 24  1  0
 23 25  2  0
 25 26  1  0
 25 27  1  0
 27 28  1  0
 28 29  1  0
 28 30  1  0
 28 31  1  0
 27 32  2  0
 32 33  1  0
 14 34  2  0
 34 35  1  0
  5 36  1  0
 36 37  1  0
 36 38  2  0
 38 39  1  0
 38 40  1  0
 40  3  1  0
 34  7  1  0
 32 20  1  0
M  CHG  2  15  -1  40  -1
M  END
>  <UniqueID>  (4) 
4

>  <SMILES>  (4) 
[H]/N=c1/nc(Oc2cccc([N-]C(=O)Nc3cccc(C)c3)c2)cc[n-]1

>  <Energy>  (4) 
54.062109014841155

>  <Genealogy>  (4) 
Cc1cccc(NC(=O)[N-]c2cccc(Oc3cc[n-]c(=N)n3)c2)c1 (protonated)
[H]/N=c1/nc(Oc2cccc([N-]C(=O)Nc3cccc(C)c3)c2)cc[n-]1 (cis-trans isomerization)
[H]/N=c1/nc(Oc2cccc([N-]C(=O)Nc3cccc(C)c3)c2)cc[n-]1 (3D coordinates assigned)
[H]/N=c1/nc(Oc2cccc([N-]C(=O)Nc3cccc(C)c3)c2)cc[n-]1 (optimized conformer: 54.062109014841155 kcal/mol)

>  <smiles>  (4) 
Cc1cccc(NC(=O)Nc2cccc(Oc3cc[nH]c(=N)n3)c2)c1

>  <score_type>  (4) 
oracle

>  <origin>  (4) 
adgpu

>  <m_score__min__energy>  (4) 
-10.23

>  <m_primary>  (4) 
energy

$$$$
4:0
     RDKit          3D

 44 46  0  0  1  0  0  0  0  0999 V2000
   -0.9140   21.8980  -25.6540 C   0  0  0  0  0  0  0  0  0  0  0  0
   -1.7490   22.2530  -26.7510 N   0  0  0  0  0  0  0  0  0  0  0  0
   -1.7270   23.3410  -27.4260 C   0  0  0  0  0  0  0  0  0  0  0  0
   -2.5940   23.4920  -28.4260 N   0  0  0  0  0  0  0  0  0  0  0  0
   -2.5520   24.6480  -29.1230 C   0  0  0  0  0  0  0  0  0  0  0  0
   -3.3380   24.9110  -30.1100 N   0  0  0  0  0  0  0  0  0  0  0  0
   -4.3160   23.9620  -30.5190 C   0  0  0  0  0  0  0  0  0  0  0  0
   -3.9210   22.6560  -30.7260 C   0  0  0  0  0  0  0  0  0  0  0  0
   -4.8530   21.6990  -31.1260 C   0  0  0  0  0  0  0  0  0  0  0  0
   -6.1800   22.0280  -31.3220 C   0  0  0  0  0  0  0  0  0  0  0  0
   -7.1470   21.0360  -31.7310 N   0  0  0  0  0  0  0  0  0  0  0  0
   -6.6490   19.9860  -32.5840 C   0  0  0  0  0  0  0  0  0  0  0  0
   -7.6700   19.0260  -33.0780 C   0  0  0  0  0  0  0  0  0  0  0  0
   -8.9590   19.1030  -32.4710 N   0  0  0  0  0  0  0  0  0  0  0  0
   -9.1020   18.3120  -31.2910 C   0  0  0  0  0  0  0  0  0  0  0  0
   -9.3850   20.4630  -32.3660 C   0  0  0  0  0  0  0  0  0  0  0  0
   -8.5210   21.1270  -31.2940 C   0  0  0  0  0  0  0  0  0  0  0  0
   -6.5300   23.3400  -31.1040 C   0  0  0  0  0  0  0  0  0  0  0  0
   -5.6400   24.3160  -30.7090 C   0  0  0  0  0  0  0  0  0  0  0  0
   -1.6530   25.6260  -28.8130 N   0  0  0  0  0  0  0  0  0  0  0  0
   -0.7690   25.4720  -27.7950 C   0  0  0  0  0  0  0  0  0  0  0  0
   -0.8030   24.3020  -27.0810 C   0  0  0  0  0  0  0  0  0  0  0  0
    0.4090   24.0590  -25.6630 Br  0  0  0  0  0  0  0  0  0  0  0  0
   -1.4344   22.1192  -24.7105 H   0  0  0  0  0  0  0  0  0  0  0  0
   -0.6826   20.8237  -25.7019 H   0  0  0  0  0  0  0  0  0  0  0  0
    0.0202   22.4768  -25.7019 H   0  0  0  0  0  0  0  0  0  0  0  0
   -3.3040   22.7920  -28.7160 H   0  0  0  0  0  0  0  0  0  0  0  0
   -2.8697   22.3696  -30.5753 H   0  0  0  0  0  0  0  0  0  0  0  0
   -4.5249   20.6617  -31.2886 H   0  0  0  0  0  0  0  0  0  0  0  0
   -6.1743   20.4557  -33.4581 H   0  0  0  0  0  0  0  0  0  0  0  0
   -5.9549   19.3978  -31.9657 H   0  0  0  0  0  0  0  0  0  0  0  0
   -7.7973   19.1984  -34.1569 H   0  0  0  0  0  0  0  0  0  0  0  0
   -7.2838   18.0292  -32.8186 H   0  0  0  0  0  0  0  0  0  0  0  0
   -8.9862   18.9523  -30.4041 H   0  0  0  0  0  0  0  0  0  0  0  0
  -10.0988   17.8469  -31.2799 H   0  0  0  0  0  0  0  0  0  0  0  0
   -8.3311   17.5274  -31.2799 H   0  0  0  0  0  0  0  0  0  0  0  0
   -9.2496   20.9756  -33.3298 H   0  0  0  0  0  0  0  0  0  0  0  0
  -10.4504   20.5184  -32.0978 H   0  0  0  0  0  0  0  0  0  0  0  0
   -8.8099   22.1821  -31.1782 H   0  0  0  0  0  0  0  0  0  0  0  0
   -8.6542   20.6279  -30.3228 H   0  0  0  0  0  0  0  0  0  0  0  0
   -7.5812   23.6274  -31.2535 H   0  0  0  0  0  0  0  0  0  0  0  0
   -5.9745   25.3516  -30.5487 H   0  0  0  0  0  0  0  0  0  0  0  0
   -1.6060   26.5120  -29.3330 H   0  0  0  0  0  0  0  0  0  0  0  0
   -0.0456   26.2635  -27.5496 H   0  0  0  0  0  0  0  0  0  0  0  0
  1  2  1  0
  2  3  2  0
  3  4  1  0
  4  5  1  0
  5  6  2  0
  6  7  1  0
  7  8  2  0
  8  9  1  0
  9 10  2  0
 10 11  1  0
 11 12  1  0
 12 13  1  0
 13 14  1  0
 14 15  1  0
 14 16  1  0
 16 17  1  0
 10 18  1  0
 18 19  2  0
  5 20  1  0
 20 21  1  0
 21 22  2  0
 22 23  1  0
 22  3  1  0
 19  7  1  0
 17 11  1  0
  1 24  1  0
  1 25  1  0
  1 26  1  0
  4 27  1  0
  8 28  1  0
  9 29  1  0
 12 30  1  0
 12 31  1  0
 13 32  1  0
 13 33  1  0
 15 34  1  0
 15 35  1  0
 15 36  1  0
 16 37  1  0
 16 38  1  0
 17 39  1  0
 17 40  1  0
 18 41  1  0
 19 42  1  0
 20 43  1  0
 21 44  1  0
M  END
>  <smiles>  (5) 
CN=c1[nH]c(=Nc2ccc(N3CCN(C)CC3)cc2)[nH]cc1Br

>  <score_type>  (5) 
oracle

>  <origin>  (5) 
adgpu

>  <m_score__min__energy>  (5) 
-8.3000000000000007

>  <m_primary>  (5) 
energy

$$$$
5:0
     RDKit          3D

 44 46  0  0  0  0  0  0  0  0999 V2000
   -4.6470   24.9750  -30.8490 O   0  0  0  0  0  0  0  0  0  0  0  0
   -3.6010   24.3350  -30.5500 C   0  0  0  0  0  0  0  0  0  0  0  0
   -2.6410   24.9170  -29.6610 N   0  0  0  0  0  0  0  0  0  0  0  0
   -2.4020   24.4360  -28.3040 C   0  0  0  0  0  0  0  0  0  0  0  0
   -0.9320   24.0550  -28.1220 C   0  0  0  0  0  0  0  0  0  0  0  0
   -0.1150   25.2700  -27.9080 N   0  0  0  0  0  0  0  0  0  0  0  0
   -0.8920   26.3590  -27.2840 C   0  0  0  0  0  0  0  0  0  0  0  0
   -1.2230   26.0510  -25.8040 C   0  0  0  0  0  0  0  0  0  0  0  0
   -0.4320   25.0070  -25.2620 O   0  0  0  0  0  0  0  0  0  0  0  0
    0.9210   25.1890  -25.6160 C   0  0  0  0  0  0  0  0  0  0  0  0
    1.1190   24.9940  -27.1340 C   0  0  0  0  0  0  0  0  0  0  0  0
   -3.3680   22.9870  -31.1200 C   0  0  0  0  0  0  0  0  0  0  0  0
   -2.1870   22.2830  -30.8360 C   0  0  0  0  0  0  0  0  0  0  0  0
   -1.9890   21.0150  -31.3830 C   0  0  0  0  0  0  0  0  0  0  0  0
   -2.9310   20.4660  -32.1930 N   0  0  0  0  0  0  0  0  0  0  0  0
   -4.0840   21.1150  -32.5020 C   0  0  0  0  0  0  0  0  0  0  0  0
   -5.0110   20.4750  -33.3390 O   0  0  0  0  0  0  0  0  0  0  0  0
   -6.2670   20.0130  -32.9270 C   0  0  0  0  0  0  0  0  0  0  0  0
   -7.1550   20.9190  -32.3350 C   0  0  0  0  0  0  0  0  0  0  0  0
   -8.4250   20.4990  -31.9260 C   0  0  0  0  0  0  0  0  0  0  0  0
   -9.5390   21.6440  -31.2040 Cl  0  0  0  0  0  0  0  0  0  0  0  0
   -8.8060   19.1640  -32.0950 C   0  0  0  0  0  0  0  0  0  0  0  0
   -7.9160   18.2480  -32.6590 C   0  0  0  0  0  0  0  0  0  0  0  0
   -6.6440   18.6620  -33.0720 C   0  0  0  0  0  0  0  0  0  0  0  0
   -5.5310   17.4640  -33.7240 Cl  0  0  0  0  0  0  0  0  0  0  0  0
   -4.3270   22.3890  -31.9560 C   0  0  0  0  0  0  0  0  0  0  0  0
   -2.6617   25.2294  -27.5877 H   0  0  0  0  0  0  0  0  0  0  0  0
   -3.0246   23.5466  -28.1269 H   0  0  0  0  0  0  0  0  0  0  0  0
   -0.8332   23.3918  -27.2500 H   0  0  0  0  0  0  0  0  0  0  0  0
   -0.5791   23.5384  -29.0267 H   0  0  0  0  0  0  0  0  0  0  0  0
   -0.3054   27.2883  -27.3321 H   0  0  0  0  0  0  0  0  0  0  0  0
   -1.8397   26.4620  -27.8329 H   0  0  0  0  0  0  0  0  0  0  0  0
   -1.0543   26.9619  -25.2108 H   0  0  0  0  0  0  0  0  0  0  0  0
   -2.2718   25.7216  -25.7646 H   0  0  0  0  0  0  0  0  0  0  0  0
    1.2329   26.2069  -25.3390 H   0  0  0  0  0  0  0  0  0  0  0  0
    1.5294   24.4445  -25.0816 H   0  0  0  0  0  0  0  0  0  0  0  0
    1.9105   25.6765  -27.4770 H   0  0  0  0  0  0  0  0  0  0  0  0
    1.3909   23.9416  -27.3029 H   0  0  0  0  0  0  0  0  0  0  0  0
   -1.4210   22.7294  -30.1849 H   0  0  0  0  0  0  0  0  0  0  0  0
   -1.0674   20.4583  -31.1577 H   0  0  0  0  0  0  0  0  0  0  0  0
   -6.8524   21.9667  -32.1907 H   0  0  0  0  0  0  0  0  0  0  0  0
   -9.8083   18.8352  -31.7831 H   0  0  0  0  0  0  0  0  0  0  0  0
   -8.2155   17.1964  -32.7794 H   0  0  0  0  0  0  0  0  0  0  0  0
   -5.2655   22.9159  -32.1829 H   0  0  0  0  0  0  0  0  0  0  0  0
  1  2  2  0
  2  3  1  0
  3  4  1  0
  4  5  1  0
  5  6  1  0
  6  7  1  0
  7  8  1  0
  8  9  1  0
  9 10  1  0
 10 11  1  0
  2 12  1  0
 12 13  2  0
 13 14  1  0
 14 15  2  0
 15 16  1  0
 16 17  1  0
 17 18  1  0
 18 19  2  0
 19 20  1  0
 20 21  1  0
 20 22  2  0
 22 23  1  0
 23 24  2  0
 24 25  1  0
 16 26  2  0
 11  6  1  0
 26 12  1  0
 24 18  1  0
  4 27  1  0
  4 28  1  0
  5 29  1  0
  5 30  1  0
  7 31  1  0
  7 32  1  0
  8 33  1  0
  8 34  1  0
 10 35  1  0
 10 36  1  0
 11 37  1  0
 11 38  1  0
 13 39  1  0
 14 40  1  0
 19 41  1  0
 22 42  1  0
 23 43  1  0
 26 44  1  0
M  CHG  1   3  -1
M  END
>  <UniqueID>  (6) 
5

>  <SMILES>  (6) 
O=C([N-]CCN1CCOCC1)c1ccnc(Oc2cc(Cl)ccc2Cl)c1

>  <Energy>  (6) 
64.2434922778247

>  <Genealogy>  (6) 
O=C([N-]CCN1CCOCC1)c1ccnc(Oc2cc(Cl)ccc2Cl)c1 (protonated)
O=C([N-]CCN1CCOCC1)c1ccnc(Oc2cc(Cl)ccc2Cl)c1 (3D coordinates assigned)
O=C([N-]CCN1CCOCC1)c1ccnc(Oc2cc(Cl)ccc2Cl)c1 (nonaromatic ring conformer: 64.2434922778247 kcal/mol)

>  <smiles>  (6) 
O=C(NCCN1CCOCC1)c1ccnc(Oc2cc(Cl)ccc2Cl)c1

>  <score_type>  (6) 
oracle

>  <origin>  (6) 
adgpu

>  <m_score__min__energy>  (6) 
-10.34

>  <m_primary>  (6) 
energy

$$$$
6:0
     RDKit          3D

 26 28  0  0  0  0  0  0  0  0999 V2000
   -9.0990   18.9200  -32.6890 C   0  0  0  0  0  0  0  0  0  0  0  0
   -8.2680   20.0700  -32.2040 C   0  0  0  0  0  0  0  0  0  0  0  0
   -7.0450   20.3700  -32.8250 C   0  0  0  0  0  0  0  0  0  0  0  0
   -6.2880   21.4650  -32.3990 C   0  0  0  0  0  0  0  0  0  0  0  0
   -6.7430   22.2740  -31.3460 C   0  0  0  0  0  0  0  0  0  0  0  0
   -5.9630   23.4510  -30.9150 C   0  0  0  0  0  0  0  0  0  0  0  0
   -6.4960   24.7450  -30.9570 C   0  0  0  0  0  0  0  0  0  0  0  0
   -5.3200   25.8560  -30.4620 S   0  0  0  0  0  0  0  0  0  0  0  0
   -4.1450   24.6980  -30.1800 C   0  0  0  0  0  0  0  0  0  0  0  0
   -2.8900   24.9160  -29.7200 N   0  0  0  0  0  0  0  0  0  0  0  0
   -2.0700   23.8480  -29.5170 C   0  0  0  0  0  0  0  0  0  0  0  0
   -2.5190   22.5790  -29.7550 N   0  0  0  0  0  0  0  0  0  0  0  0
   -3.7810   22.3430  -30.2110 C   0  0  0  0  0  0  0  0  0  0  0  0
   -4.1670   21.1570  -30.3840 O   0  0  0  0  0  0  0  0  0  0  0  0
   -4.6280   23.4330  -30.4560 C   0  0  0  0  0  0  0  0  0  0  0  0
   -7.9830   21.9960  -30.7520 C   0  0  0  0  0  0  0  0  0  0  0  0
   -8.7410   20.9010  -31.1780 C   0  0  0  0  0  0  0  0  0  0  0  0
   -9.4987   18.3669  -31.8263 H   0  0  0  0  0  0  0  0  0  0  0  0
   -9.9319   19.3008  -33.2983 H   0  0  0  0  0  0  0  0  0  0  0  0
   -8.4760   18.2487  -33.2983 H   0  0  0  0  0  0  0  0  0  0  0  0
   -6.6810   19.7405  -33.6504 H   0  0  0  0  0  0  0  0  0  0  0  0
   -5.3312   21.6939  -32.8912 H   0  0  0  0  0  0  0  0  0  0  0  0
   -7.5210   24.9999  -31.2643 H   0  0  0  0  0  0  0  0  0  0  0  0
   -1.0418   24.0071  -29.1599 H   0  0  0  0  0  0  0  0  0  0  0  0
   -8.3611   22.6429  -29.9467 H   0  0  0  0  0  0  0  0  0  0  0  0
   -9.7123   20.6905  -30.7065 H   0  0  0  0  0  0  0  0  0  0  0  0
  1  2  1  0
  2  3  2  0
  3  4  1  0
  4  5  2  0
  5  6  1  0
  6  7  2  0
  7  8  1  0
  8  9  1  0
  9 10  1  0
 10 11  2  0
 11 12  1  0
 12 13  1  0
 13 14  2  0
 13 15  1  0
  5 16  1  0
 16 17  2  0
 17  2  1  0
 15  6  1  0
 15  9  2  0
  1 18  1  0
  1 19  1  0
  1 20  1  0
  3 21  1  0
  4 22  1  0
  7 23  1  0
 11 24  1  0
 16 25  1  0
 17 26  1  0
M  CHG  1  12  -1
M  END
>  <UniqueID>  (7) 
6

>  <SMILES>  (7) 
Cc1ccc(-c2csc3nc[n-]c(=O)c23)cc1

>  <Energy>  (7) 
69.44397609632401

>  <Genealogy>  (7) 
Cc1ccc(-c2csc3nc[n-]c(=O)c23)cc1 (protonated)
Cc1ccc(-c2csc3nc[n-]c(=O)c23)cc1 (3D coordinates assigned)
Cc1ccc(-c2csc3nc[n-]c(=O)c23)cc1 (optimized conformer: 69.44397609632401 kcal/mol)

>  <smiles>  (7) 
Cc1ccc(-c2csc3nc[nH]c(=O)c23)cc1

>  <score_type>  (7) 
oracle

>  <origin>  (7) 
adgpu

>  <m_score__min__energy>  (7) 
-8.0600000000000005

>  <m_primary>  (7) 
energy

$$$$
7:0
     RDKit          3D

 61 64  0  0  0  0  0  0  0  0999 V2000
   -0.7630   27.2540  -27.8410 C   0  0  0  0  0  0  0  0  0  0  0  0
   -1.2500   26.2820  -28.7610 O   0  0  0  0  0  0  0  0  0  0  0  0
   -1.1810   24.8920  -28.5640 C   0  0  0  0  0  0  0  0  0  0  0  0
   -0.2100   24.3040  -27.7330 C   0  0  0  0  0  0  0  0  0  0  0  0
   -0.1720   22.9170  -27.5630 C   0  0  0  0  0  0  0  0  0  0  0  0
   -1.0990   22.1070  -28.2140 C   0  0  0  0  0  0  0  0  0  0  0  0
   -2.0730   22.6760  -29.0370 C   0  0  0  0  0  0  0  0  0  0  0  0
   -2.1200   24.0730  -29.2200 C   0  0  0  0  0  0  0  0  0  0  0  0
   -3.1050   24.7060  -30.0540 N   0  0  0  0  0  0  0  0  0  0  0  0
   -4.5510   24.0120  -30.7200 S   0  0  0  0  0  0  0  0  0  0  0  0
   -5.4410   23.6230  -29.5760 O   0  0  0  0  0  0  0  0  0  0  0  0
   -5.2960   25.0120  -31.5610 O   0  0  0  0  0  0  0  0  0  0  0  0
   -4.1540   22.5780  -31.6720 C   0  0  0  0  0  0  0  0  0  0  0  0
   -2.8230   22.3150  -32.0280 C   0  0  0  0  0  0  0  0  0  0  0  0
   -2.5040   21.1870  -32.7870 C   0  0  0  0  0  0  0  0  0  0  0  0
   -3.5090   20.3030  -33.1880 C   0  0  0  0  0  0  0  0  0  0  0  0
   -4.8430   20.5340  -32.8190 C   0  0  0  0  0  0  0  0  0  0  0  0
   -5.8470   19.6120  -33.2650 N   0  0  0  0  0  0  0  0  0  0  0  0
   -5.6730   18.5440  -34.2090 C   0  0  0  0  0  0  0  0  0  0  0  0
   -6.0820   18.6770  -35.3930 O   0  0  0  0  0  0  0  0  0  0  0  0
   -5.0840   17.2570  -33.7680 C   0  0  0  0  0  0  0  0  0  0  0  0
   -5.8990   16.1370  -33.5460 C   0  0  0  0  0  0  0  0  0  0  0  0
   -5.3390   14.9230  -33.1470 C   0  0  0  0  0  0  0  0  0  0  0  0
   -3.9550   14.7970  -32.9730 C   0  0  0  0  0  0  0  0  0  0  0  0
   -3.3450   13.2290  -32.4550 Cl  0  0  0  0  0  0  0  0  0  0  0  0
   -3.1180   15.9140  -33.1960 C   0  0  0  0  0  0  0  0  0  0  0  0
   -1.3570   15.8590  -33.0000 S   0  0  0  0  0  0  0  0  0  0  0  0
   -0.9620   15.2820  -31.6690 O   0  0  0  0  0  0  0  0  0  0  0  0
   -0.7840   14.9760  -34.0710 O   0  0  0  0  0  0  0  0  0  0  0  0
   -0.7010   17.4600  -33.1960 N   0  0  0  0  0  0  0  0  0  0  0  0
    0.5200   17.4400  -34.0020 C   0  0  0  0  0  0  0  0  0  0  0  0
    0.6060   18.6600  -34.8810 C   0  0  0  0  0  0  0  0  0  0  0  0
    1.0480   18.5440  -36.2110 C   0  0  0  0  0  0  0  0  0  0  0  0
    1.1150   19.6730  -37.0330 C   0  0  0  0  0  0  0  0  0  0  0  0
    0.7310   20.9210  -36.5400 C   0  0  0  0  0  0  0  0  0  0  0  0
    0.2700   21.0470  -35.2250 C   0  0  0  0  0  0  0  0  0  0  0  0
   -0.1230   22.2980  -34.7520 O   0  0  0  0  0  0  0  0  0  0  0  0
    0.2040   19.9160  -34.3980 C   0  0  0  0  0  0  0  0  0  0  0  0
   -3.6940   17.1360  -33.5790 C   0  0  0  0  0  0  0  0  0  0  0  0
   -5.1640   21.6870  -32.0770 C   0  0  0  0  0  0  0  0  0  0  0  0
   -0.9377   26.9053  -26.8125 H   0  0  0  0  0  0  0  0  0  0  0  0
    0.3154   27.4014  -28.0000 H   0  0  0  0  0  0  0  0  0  0  0  0
   -1.2906   28.2061  -28.0000 H   0  0  0  0  0  0  0  0  0  0  0  0
    0.5232   24.9390  -27.2143 H   0  0  0  0  0  0  0  0  0  0  0  0
    0.5918   22.4644  -26.9136 H   0  0  0  0  0  0  0  0  0  0  0  0
   -1.0639   21.0158  -28.0795 H   0  0  0  0  0  0  0  0  0  0  0  0
   -2.8063   22.0319  -29.5444 H   0  0  0  0  0  0  0  0  0  0  0  0
   -2.0256   23.0015  -31.7074 H   0  0  0  0  0  0  0  0  0  0  0  0
   -1.4587   20.9939  -33.0699 H   0  0  0  0  0  0  0  0  0  0  0  0
   -3.2534   19.4223  -33.7955 H   0  0  0  0  0  0  0  0  0  0  0  0
   -6.9870   16.2164  -33.6875 H   0  0  0  0  0  0  0  0  0  0  0  0
   -5.9913   14.0557  -32.9672 H   0  0  0  0  0  0  0  0  0  0  0  0
    1.3926   17.4165  -33.3327 H   0  0  0  0  0  0  0  0  0  0  0  0
    0.5023   16.5464  -34.6432 H   0  0  0  0  0  0  0  0  0  0  0  0
    1.3423   17.5606  -36.6064 H   0  0  0  0  0  0  0  0  0  0  0  0
    1.4708   19.5775  -38.0695 H   0  0  0  0  0  0  0  0  0  0  0  0
    0.7910   21.8083  -37.1873 H   0  0  0  0  0  0  0  0  0  0  0  0
   -1.0330   22.6860  -34.9740 H   0  0  0  0  0  0  0  0  0  0  0  0
   -0.1644   20.0133  -33.3661 H   0  0  0  0  0  0  0  0  0  0  0  0
   -3.0486   18.0132  -33.7339 H   0  0  0  0  0  0  0  0  0  0  0  0
   -6.2118   21.8922  -31.8124 H   0  0  0  0  0  0  0  0  0  0  0  0
  1  2  1  0
  2  3  1  0
  3  4  2  0
  4  5  1  0
  5  6  2  0
  6  7  1  0
  7  8  2  0
  8  9  1  0
  9 10  1  0
 10 11  2  0
 10 12  2  0
 10 13  1  0
 13 14  2  0
 14 15  1  0
 15 16  2  0
 16 17  1  0
 17 18  1  0
 18 19  1  0
 19 20  2  0
 19 21  1  0
 21 22  2  0
 22 23  1  0
 23 24  2  0
 24 25  1  0
 24 26  1  0
 26 27  1  0
 27 28  2  0
 27 29  2  0
 27 30  1  0
 30 31  1  0
 31 32  1  0
 32 33  2  0
 33 34  1  0
 34 35  2  0
 35 36  1  0
 36 37  1  0
 36 38  2  0
 26 39  2  0
 17 40  2  0
  8  3  1  0
 40 13  1  0
 39 21  1  0
 38 32  1  0
  1 41  1  0
  1 42  1  0
  1 43  1  0
  4 44  1  0
  5 45  1  0
  6 46  1  0
  7 47  1  0
 14 48  1  0
 15 49  1  0
 16 50  1  0
 22 51  1  0
 23 52  1  0
 31 53  1  0
 31 54  1  0
 33 55  1  0
 34 56  1  0
 35 57  1  0
 37 58  1  0
 38 59  1  0
 39 60  1  0
 40 61  1  0
M  CHG  3   9  -1  18  -1  30  -1
M  END
>  <UniqueID>  (8) 
7

>  <SMILES>  (8) 
COc1ccccc1[N-]S(=O)(=O)c1cccc([N-]C(=O)c2ccc(Cl)c(S(=O)(=O)[N-]Cc3cccc(O)c3)c2)c1

>  <Energy>  (8) 
77.67190039209743

>  <Genealogy>  (8) 
COc1ccccc1[N-]S(=O)(=O)c1cccc([N-]C(=O)c2ccc(Cl)c(S(=O)(=O)[N-]Cc3cccc(O)c3)c2)c1 (protonated)
COc1ccccc1[N-]S(=O)(=O)c1cccc([N-]C(=O)c2ccc(Cl)c(S(=O)(=O)[N-]Cc3cccc(O)c3)c2)c1 (3D coordinates assigned)
COc1ccccc1[N-]S(=O)(=O)c1cccc([N-]C(=O)c2ccc(Cl)c(S(=O)(=O)[N-]Cc3cccc(O)c3)c2)c1 (optimized conformer: 77.67190039209743 kcal/mol)

>  <smiles>  (8) 
COc1ccccc1NS(=O)(=O)c1cccc(NC(=O)c2ccc(Cl)c(S(=O)(=O)NCc3cccc(O)c3)c2)c1

>  <score_type>  (8) 
oracle

>  <origin>  (8) 
adgpu

>  <m_score__min__energy>  (8) 
-12.130000000000001

>  <m_primary>  (8) 
energy

$$$$
8:0
     RDKit          3D

 45 48  0  0  0  0  0  0  0  0999 V2000
    1.9660   24.5680  -27.8290 C   0  0  0  0  0  0  0  0  0  0  0  0
    0.7780   24.3960  -28.5930 O   0  0  0  0  0  0  0  0  0  0  0  0
   -0.5210   24.5820  -28.0930 C   0  0  0  0  0  0  0  0  0  0  0  0
   -0.7670   25.1070  -26.8110 C   0  0  0  0  0  0  0  0  0  0  0  0
   -2.0760   25.2740  -26.3480 C   0  0  0  0  0  0  0  0  0  0  0  0
   -2.2630   25.8030  -25.0620 O   0  0  0  0  0  0  0  0  0  0  0  0
   -1.2560   26.4790  -24.3150 C   0  0  0  0  0  0  0  0  0  0  0  0
   -3.1540   24.9120  -27.1780 C   0  0  0  0  0  0  0  0  0  0  0  0
   -2.9240   24.3860  -28.4610 C   0  0  0  0  0  0  0  0  0  0  0  0
   -4.0630   24.0040  -29.3340 C   0  0  0  0  0  0  0  0  0  0  0  0
   -5.0930   24.9230  -29.6070 C   0  0  0  0  0  0  0  0  0  0  0  0
   -6.1690   24.5660  -30.4260 C   0  0  0  0  0  0  0  0  0  0  0  0
   -6.2290   23.2800  -30.9900 C   0  0  0  0  0  0  0  0  0  0  0  0
   -7.2900   22.8730  -31.8140 C   0  0  0  0  0  0  0  0  0  0  0  0
   -8.2440   23.6550  -32.0800 O   0  0  0  0  0  0  0  0  0  0  0  0
   -7.2890   21.5820  -32.3430 C   0  0  0  0  0  0  0  0  0  0  0  0
   -6.2230   20.7150  -32.0440 C   0  0  0  0  0  0  0  0  0  0  0  0
   -6.1670   19.3300  -32.5770 C   0  0  0  0  0  0  0  0  0  0  0  0
   -6.1610   18.2440  -31.6820 C   0  0  0  0  0  0  0  0  0  0  0  0
   -6.1000   16.9310  -32.1590 C   0  0  0  0  0  0  0  0  0  0  0  0
   -6.0360   16.6850  -33.5320 C   0  0  0  0  0  0  0  0  0  0  0  0
   -5.9500   14.8900  -34.1790 Br  0  0  0  0  0  0  0  0  0  0  0  0
   -6.0260   17.7550  -34.4310 C   0  0  0  0  0  0  0  0  0  0  0  0
   -6.0880   19.0700  -33.9600 C   0  0  0  0  0  0  0  0  0  0  0  0
   -5.2390   21.1350  -31.2490 O   0  0  0  0  0  0  0  0  0  0  0  0
   -5.2000   22.3540  -30.7220 C   0  0  0  0  0  0  0  0  0  0  0  0
   -4.1280   22.7180  -29.9000 C   0  0  0  0  0  0  0  0  0  0  0  0
   -1.6010   24.2270  -28.9070 C   0  0  0  0  0  0  0  0  0  0  0  0
    1.7210   24.5325  -26.7572 H   0  0  0  0  0  0  0  0  0  0  0  0
    2.6764   23.7633  -28.0696 H   0  0  0  0  0  0  0  0  0  0  0  0
    2.4190   25.5411  -28.0696 H   0  0  0  0  0  0  0  0  0  0  0  0
    0.0787   25.3889  -26.1665 H   0  0  0  0  0  0  0  0  0  0  0  0
   -1.4483   26.3499  -23.2397 H   0  0  0  0  0  0  0  0  0  0  0  0
   -0.2704   26.0589  -24.5642 H   0  0  0  0  0  0  0  0  0  0  0  0
   -1.2716   27.5503  -24.5642 H   0  0  0  0  0  0  0  0  0  0  0  0
   -4.1857   25.0420  -26.8192 H   0  0  0  0  0  0  0  0  0  0  0  0
   -5.0515   25.9324  -29.1719 H   0  0  0  0  0  0  0  0  0  0  0  0
   -6.9694   25.2927  -30.6290 H   0  0  0  0  0  0  0  0  0  0  0  0
   -8.1142   21.2455  -32.9878 H   0  0  0  0  0  0  0  0  0  0  0  0
   -6.2046   18.4295  -30.5986 H   0  0  0  0  0  0  0  0  0  0  0  0
   -6.1024   16.0895  -31.4506 H   0  0  0  0  0  0  0  0  0  0  0  0
   -5.9692   17.5620  -35.5124 H   0  0  0  0  0  0  0  0  0  0  0  0
   -6.0750   19.9071  -34.6735 H   0  0  0  0  0  0  0  0  0  0  0  0
   -3.3282   21.9914  -29.6943 H   0  0  0  0  0  0  0  0  0  0  0  0
   -1.4124   23.8176  -29.9104 H   0  0  0  0  0  0  0  0  0  0  0  0
  1  2  1  0
  2  3  1  0
  3  4  2  0
  4  5  1  0
  5  6  1  0
  6  7  1  0
  5  8  2  0
  8  9  1  0
  9 10  1  0
 10 11  2  0
 11 12  1  0
 12 13  2  0
 13 14  1  0
 14 15  2  0
 14 16  1  0
 16 17  2  0
 17 18  1  0
 18 19  2  0
 19 20  1  0
 20 21  2  0
 21 22  1  0
 21 23  1  0
 23 24  2  0
 17 25  1  0
 25 26  1  0
 26 27  2  0
  9 28  2  0
 28  3  1  0
 27 10  1  0
 26 13  1  0
 24 18  1  0
  1 29  1  0
  1 30  1  0
  1 31  1  0
  4 32  1  0
  7 33  1  0
  7 34  1  0
  7 35  1  0
  8 36  1  0
 11 37  1  0
 12 38  1  0
 16 39  1  0
 19 40  1  0
 20 41  1  0
 23 42  1  0
 24 43  1  0
 27 44  1  0
 28 45  1  0
M  END
>  <UniqueID>  (9) 
8

>  <SMILES>  (9) 
COc1cc(OC)cc(-c2ccc3c(=O)cc(-c4ccc(Br)cc4)oc3c2)c1

>  <Energy>  (9) 
62.323585262079895

>  <Genealogy>  (9) 
COc1cc(OC)cc(-c2ccc3c(=O)cc(-c4ccc(Br)cc4)oc3c2)c1 (3D coordinates assigned)
COc1cc(OC)cc(-c2ccc3c(=O)cc(-c4ccc(Br)cc4)oc3c2)c1 (optimized conformer: 62.323585262079895 kcal/mol)

>  <smiles>  (9) 
COc1cc(OC)cc(-c2ccc3c(=O)cc(-c4ccc(Br)cc4)oc3c2)c1

>  <score_type>  (9) 
oracle

>  <origin>  (9) 
adgpu

>  <m_score__min__energy>  (9) 
-8.9700000000000006

>  <m_primary>  (9) 
energy

$$$$
9:0
     RDKit          3D

 44 46  0  0  0  0  0  0  0  0999 V2000
    1.9980   18.5820  -30.5090 C   0  0  0  0  0  0  0  0  0  0  0  0
    1.8450   19.2950  -31.7320 O   0  0  0  0  0  0  0  0  0  0  0  0
    0.6180   19.7590  -32.2290 C   0  0  0  0  0  0  0  0  0  0  0  0
   -0.5570   19.1590  -31.7610 C   0  0  0  0  0  0  0  0  0  0  0  0
   -1.8050   19.5880  -32.2230 C   0  0  0  0  0  0  0  0  0  0  0  0
   -1.9020   20.6270  -33.1630 C   0  0  0  0  0  0  0  0  0  0  0  0
   -3.2040   21.0430  -33.6130 N   0  0  0  0  0  0  0  0  0  0  0  0
   -4.6590   20.8660  -32.6850 S   0  0  0  0  0  0  0  0  0  0  0  0
   -4.4980   19.7630  -31.6770 O   0  0  0  0  0  0  0  0  0  0  0  0
   -5.8070   20.5420  -33.6000 O   0  0  0  0  0  0  0  0  0  0  0  0
   -4.9790   22.3750  -31.8320 C   0  0  0  0  0  0  0  0  0  0  0  0
   -6.2820   22.8860  -31.7970 C   0  0  0  0  0  0  0  0  0  0  0  0
   -6.5490   24.0810  -31.1240 C   0  0  0  0  0  0  0  0  0  0  0  0
   -5.5200   24.7640  -30.4720 C   0  0  0  0  0  0  0  0  0  0  0  0
   -4.2130   24.2440  -30.4750 C   0  0  0  0  0  0  0  0  0  0  0  0
   -3.1230   24.9240  -29.8350 N   0  0  0  0  0  0  0  0  0  0  0  0
   -1.9120   24.3290  -29.3450 C   0  0  0  0  0  0  0  0  0  0  0  0
   -0.8530   25.0110  -29.2960 O   0  0  0  0  0  0  0  0  0  0  0  0
   -1.9260   22.9200  -28.8730 C   0  0  0  0  0  0  0  0  0  0  0  0
   -0.9420   22.0350  -29.3570 C   0  0  0  0  0  0  0  0  0  0  0  0
   -0.9060   20.7040  -28.9330 C   0  0  0  0  0  0  0  0  0  0  0  0
   -1.8500   20.2350  -28.0210 C   0  0  0  0  0  0  0  0  0  0  0  0
   -2.8370   21.0920  -27.5350 C   0  0  0  0  0  0  0  0  0  0  0  0
   -2.8880   22.4290  -27.9520 C   0  0  0  0  0  0  0  0  0  0  0  0
   -4.2070   23.4160  -27.3260 Cl  0  0  0  0  0  0  0  0  0  0  0  0
   -3.9470   23.0580  -31.1730 C   0  0  0  0  0  0  0  0  0  0  0  0
   -0.7200   21.2300  -33.6340 C   0  0  0  0  0  0  0  0  0  0  0  0
    0.5280   20.7980  -33.1740 C   0  0  0  0  0  0  0  0  0  0  0  0
    1.8505   19.2693  -29.6629 H   0  0  0  0  0  0  0  0  0  0  0  0
    1.2527   17.7745  -30.4596 H   0  0  0  0  0  0  0  0  0  0  0  0
    3.0090   18.1514  -30.4596 H   0  0  0  0  0  0  0  0  0  0  0  0
   -0.4980   18.3441  -31.0245 H   0  0  0  0  0  0  0  0  0  0  0  0
   -2.7198   19.1070  -31.8465 H   0  0  0  0  0  0  0  0  0  0  0  0
   -3.2970   21.4820  -34.5570 H   0  0  0  0  0  0  0  0  0  0  0  0
   -7.0972   22.3456  -32.3004 H   0  0  0  0  0  0  0  0  0  0  0  0
   -7.5721   24.4848  -31.1077 H   0  0  0  0  0  0  0  0  0  0  0  0
   -5.7322   25.7113  -29.9547 H   0  0  0  0  0  0  0  0  0  0  0  0
   -0.1932   22.3963  -30.0773 H   0  0  0  0  0  0  0  0  0  0  0  0
   -0.1315   20.0253  -29.3196 H   0  0  0  0  0  0  0  0  0  0  0  0
   -1.8164   19.1883  -27.6844 H   0  0  0  0  0  0  0  0  0  0  0  0
   -3.5817   20.7154  -26.8184 H   0  0  0  0  0  0  0  0  0  0  0  0
   -2.9218   22.6605  -31.2040 H   0  0  0  0  0  0  0  0  0  0  0  0
   -0.7786   22.0465  -34.3688 H   0  0  0  0  0  0  0  0  0  0  0  0
    1.4448   21.2731  -33.5531 H   0  0  0  0  0  0  0  0  0  0  0  0
  1  2  1  0
  2  3  1  0
  3  4  2  0
  4  5  1  0
  5  6  2  0
  6  7  1  0
  7  8  1  0
  8  9  2  0
  8 10  2  0
  8 11  1  0
 11 12  2  0
 12 13  1  0
 13 14  2  0
 14 15  1  0
 15 16  1  0
 16 17  1  0
 17 18  2  0
 17 19  1  0
 19 20  2  0
 20 21  1  0
 21 22  2  0
 22 23  1  0
 23 24  2  0
 24 25  1  0
 15 26  2  0
  6 27  1  0
 27 28  2  0
 28  3  1  0
 26 11  1  0
 24 19  1  0
  1 29  1  0
  1 30  1  0
  1 31  1  0
  4 32  1  0
  5 33  1  0
  7 34  1  0
 12 35  1  0
 13 36  1  0
 14 37  1  0
 20 38  1  0
 21 39  1  0
 22 40  1  0
 23 41  1  0
 26 42  1  0
 27 43  1  0
 28 44  1  0
M  CHG  1  16  -1
M  END
>  <UniqueID>  (10) 
9

>  <SMILES>  (10) 
COc1ccc(NS(=O)(=O)c2cccc([N-]C(=O)c3ccccc3Cl)c2)cc1

>  <Energy>  (10) 
58.04444065057206

>  <Genealogy>  (10) 
COc1ccc(NS(=O)(=O)c2cccc([N-]C(=O)c3ccccc3Cl)c2)cc1 (protonated)
COc1ccc(NS(=O)(=O)c2cccc([N-]C(=O)c3ccccc3Cl)c2)cc1 (3D coordinates assigned)
COc1ccc(NS(=O)(=O)c2cccc([N-]C(=O)c3ccccc3Cl)c2)cc1 (optimized conformer: 58.04444065057206 kcal/mol)

>  <smiles>  (10) 
COc1ccc(NS(=O)(=O)c2cccc(NC(=O)c3ccccc3Cl)c2)cc1

>  <score_type>  (10) 
oracle

>  <origin>  (10) 
adgpu

>  <m_score__min__energy>  (10) 
-10.98

>  <m_primary>  (10) 
energy

$$$$
10:0
     RDKit          3D

 45 49  0  0  0  0  0  0  0  0999 V2000
    3.8280   22.6670  -35.4210 C   0  0  0  0  0  0  0  0  0  0  0  0
    2.3860   22.2910  -35.2830 C   0  0  0  0  0  0  0  0  0  0  0  0
    2.0290   21.0820  -34.7660 N   0  0  0  0  0  0  0  0  0  0  0  0
    0.6910   20.9220  -34.7170 C   0  0  0  0  0  0  0  0  0  0  0  0
    0.0950   19.7420  -34.2570 O   0  0  0  0  0  0  0  0  0  0  0  0
   -1.2840   19.5440  -34.1050 C   0  0  0  0  0  0  0  0  0  0  0  0
   -2.1060   20.4880  -33.4470 C   0  0  0  0  0  0  0  0  0  0  0  0
   -3.4820   20.2530  -33.2970 C   0  0  0  0  0  0  0  0  0  0  0  0
   -4.0130   19.0500  -33.7780 C   0  0  0  0  0  0  0  0  0  0  0  0
   -3.2200   18.1420  -34.4270 C   0  0  0  0  0  0  0  0  0  0  0  0
   -1.8500   18.3540  -34.5910 C   0  0  0  0  0  0  0  0  0  0  0  0
   -4.0250   16.9960  -34.9270 C   0  0  0  0  0  0  0  0  0  0  0  0
   -5.4690   17.3690  -34.5150 C   0  0  0  0  0  0  0  0  0  0  0  0
   -5.3700   18.6230  -33.7680 N   0  0  0  0  0  0  0  0  0  0  0  0
   -6.4740   19.1850  -33.0400 C   0  0  0  0  0  0  0  0  0  0  0  0
   -6.7640   20.5040  -33.0630 N   0  0  0  0  0  0  0  0  0  0  0  0
   -7.9020   20.7860  -32.3730 C   0  0  0  0  0  0  0  0  0  0  0  0
   -8.5400   19.6870  -31.8120 C   0  0  0  0  0  0  0  0  0  0  0  0
   -7.6440   18.3170  -32.1970 S   0  0  0  0  0  0  0  0  0  0  0  0
   -0.1130   22.2670  -35.3340 S   0  0  0  0  0  0  0  0  0  0  0  0
    1.3100   23.1100  -35.6650 C   0  0  0  0  0  0  0  0  0  0  0  0
    1.3700   24.4620  -36.2650 C   0  0  0  0  0  0  0  0  0  0  0  0
    1.4640   24.5930  -37.5150 O   0  0  0  0  0  0  0  0  0  0  0  0
    1.3170   25.6310  -35.4350 N   0  0  0  0  0  0  0  0  0  0  0  0
    1.3810   26.9730  -36.0080 C   0  0  0  0  0  0  0  0  0  0  0  0
    0.0740   27.4150  -36.6440 C   0  0  0  0  0  0  0  0  0  0  0  0
    0.5000   27.9890  -35.3020 C   0  0  0  0  0  0  0  0  0  0  0  0
    4.2738   22.7832  -34.4221 H   0  0  0  0  0  0  0  0  0  0  0  0
    4.3616   21.8780  -35.9711 H   0  0  0  0  0  0  0  0  0  0  0  0
    3.9084   23.6161  -35.9711 H   0  0  0  0  0  0  0  0  0  0  0  0
   -1.6639   21.4136  -33.0496 H   0  0  0  0  0  0  0  0  0  0  0  0
   -4.1294   20.9983  -32.8118 H   0  0  0  0  0  0  0  0  0  0  0  0
   -1.2240   17.6014  -35.0927 H   0  0  0  0  0  0  0  0  0  0  0  0
   -3.9390   16.9009  -36.0195 H   0  0  0  0  0  0  0  0  0  0  0  0
   -3.6970   16.0287  -34.5186 H   0  0  0  0  0  0  0  0  0  0  0  0
   -6.0969   17.5057  -35.4078 H   0  0  0  0  0  0  0  0  0  0  0  0
   -5.9297   16.5761  -33.9074 H   0  0  0  0  0  0  0  0  0  0  0  0
   -8.2890   21.8102  -32.2670 H   0  0  0  0  0  0  0  0  0  0  0  0
   -9.4672   19.7090  -31.2206 H   0  0  0  0  0  0  0  0  0  0  0  0
    1.3310   25.5370  -34.3950 H   0  0  0  0  0  0  0  0  0  0  0  0
    2.4355   26.9438  -36.3196 H   0  0  0  0  0  0  0  0  0  0  0  0
    0.0863   28.0494  -37.5426 H   0  0  0  0  0  0  0  0  0  0  0  0
   -0.8216   26.8992  -37.0207 H   0  0  0  0  0  0  0  0  0  0  0  0
    0.8205   29.0388  -35.2295 H   0  0  0  0  0  0  0  0  0  0  0  0
    0.0402   28.0606  -34.3053 H   0  0  0  0  0  0  0  0  0  0  0  0
  1  2  1  0
  2  3  1  0
  3  4  2  0
  4  5  1  0
  5  6  1  0
  6  7  2  0
  7  8  1  0
  8  9  2  0
  9 10  1  0
 10 11  2  0
 10 12  1  0
 12 13  1  0
 13 14  1  0
 14 15  1  0
 15 16  2  0
 16 17  1  0
 17 18  2  0
 18 19  1  0
  4 20  1  0
 20 21  1  0
 21 22  1  0
 22 23  2  0
 22 24  1  0
 24 25  1  0
 25 26  1  0
 26 27  1  0
 21  2  2  0
 27 25  1  0
 11  6  1  0
 19 15  1  0
 14  9  1  0
  1 28  1  0
  1 29  1  0
  1 30  1  0
  7 31  1  0
  8 32  1  0
 11 33  1  0
 12 34  1  0
 12 35  1  0
 13 36  1  0
 13 37  1  0
 17 38  1  0
 18 39  1  0
 24 40  1  0
 25 41  1  0
 26 42  1  0
 26 43  1  0
 27 44  1  0
 27 45  1  0
M  END
>  <UniqueID>  (11) 
10

>  <SMILES>  (11) 
Cc1nc(Oc2ccc3c(c2)CCN3c2nccs2)sc1C(=O)NC1CC1

>  <Energy>  (11) 
395.11844975606834

>  <Genealogy>  (11) 
Cc1nc(Oc2ccc3c(c2)CCN3c2nccs2)sc1C(=O)NC1CC1 (3D coordinates assigned)
Cc1nc(Oc2ccc3c(c2)CCN3c2nccs2)sc1C(=O)NC1CC1 (nonaromatic ring conformer: 395.11844975606834 kcal/mol)

>  <smiles>  (11) 
Cc1nc(Oc2ccc3c(c2)CCN3c2nccs2)sc1C(=O)NC1CC1

>  <score_type>  (11) 
oracle

>  <origin>  (11) 
adgpu

>  <m_score__min__energy>  (11) 
-8.7599999999999998

>  <m_primary>  (11) 
energy

$$$$
11:0
     RDKit          3D

 44 46  0  0  0  0  0  0  0  0999 V2000
   -0.5400   23.7950  -28.6570 C   0  0  0  0  0  0  0  0  0  0  0  0
   -1.9280   24.1160  -28.1870 C   0  0  0  0  0  0  0  0  0  0  0  0
   -2.1300   24.6150  -26.8970 C   0  0  0  0  0  0  0  0  0  0  0  0
   -3.4230   24.9230  -26.4730 C   0  0  0  0  0  0  0  0  0  0  0  0
   -4.4790   24.7580  -27.3150 N   0  0  0  0  0  0  0  0  0  0  0  0
   -4.3210   24.3100  -28.5940 C   0  0  0  0  0  0  0  0  0  0  0  0
   -5.3790   24.1880  -29.3500 N   0  0  0  0  0  0  0  0  0  0  0  0
   -5.4210   23.8300  -30.7410 C   0  0  0  0  0  0  0  0  0  0  0  0
   -5.0140   24.6640  -31.5920 O   0  0  0  0  0  0  0  0  0  0  0  0
   -5.8640   22.4880  -31.1850 C   0  0  0  0  0  0  0  0  0  0  0  0
   -4.9380   21.4400  -31.3280 C   0  0  0  0  0  0  0  0  0  0  0  0
   -5.3670   20.1590  -31.6810 C   0  0  0  0  0  0  0  0  0  0  0  0
   -6.7290   19.9050  -31.8900 C   0  0  0  0  0  0  0  0  0  0  0  0
   -7.2790   18.2650  -32.2270 S   0  0  0  0  0  0  0  0  0  0  0  0
   -8.7680   18.2010  -32.0260 O   0  0  0  0  0  0  0  0  0  0  0  0
   -6.6430   17.3170  -31.2470 O   0  0  0  0  0  0  0  0  0  0  0  0
   -6.8910   17.7550  -33.8570 N   0  0  0  0  0  0  0  0  0  0  0  0
   -6.4780   16.3410  -33.9250 C   0  0  0  0  0  0  0  0  0  0  0  0
   -4.9850   16.1250  -33.5770 C   0  0  0  0  0  0  0  0  0  0  0  0
   -4.2580   17.3320  -33.4600 O   0  0  0  0  0  0  0  0  0  0  0  0
   -4.5130   18.1490  -34.5770 C   0  0  0  0  0  0  0  0  0  0  0  0
   -5.9570   18.6760  -34.5410 C   0  0  0  0  0  0  0  0  0  0  0  0
   -7.6520   20.9550  -31.7910 C   0  0  0  0  0  0  0  0  0  0  0  0
   -7.2210   22.2390  -31.4450 C   0  0  0  0  0  0  0  0  0  0  0  0
   -3.0270   23.9650  -29.0440 C   0  0  0  0  0  0  0  0  0  0  0  0
    0.1158   23.6433  -27.7870 H   0  0  0  0  0  0  0  0  0  0  0  0
   -0.5614   22.8781  -29.2643 H   0  0  0  0  0  0  0  0  0  0  0  0
   -0.1567   24.6282  -29.2643 H   0  0  0  0  0  0  0  0  0  0  0  0
   -1.2753   24.7638  -26.2207 H   0  0  0  0  0  0  0  0  0  0  0  0
   -3.5895   25.3009  -25.4535 H   0  0  0  0  0  0  0  0  0  0  0  0
   -5.4330   25.0020  -26.9660 H   0  0  0  0  0  0  0  0  0  0  0  0
   -3.8676   21.6305  -31.1606 H   0  0  0  0  0  0  0  0  0  0  0  0
   -4.6337   19.3471  -31.7953 H   0  0  0  0  0  0  0  0  0  0  0  0
   -7.0895   15.7636  -33.2160 H   0  0  0  0  0  0  0  0  0  0  0  0
   -6.6236   16.0072  -34.9630 H   0  0  0  0  0  0  0  0  0  0  0  0
   -4.9239   15.5864  -32.6198 H   0  0  0  0  0  0  0  0  0  0  0  0
   -4.5371   15.5535  -34.4033 H   0  0  0  0  0  0  0  0  0  0  0  0
   -3.8167   19.0005  -34.5690 H   0  0  0  0  0  0  0  0  0  0  0  0
   -4.3744   17.5540  -35.4917 H   0  0  0  0  0  0  0  0  0  0  0  0
   -5.9652   19.6404  -34.0120 H   0  0  0  0  0  0  0  0  0  0  0  0
   -6.2970   18.7763  -35.5823 H   0  0  0  0  0  0  0  0  0  0  0  0
   -8.7183   20.7683  -31.9861 H   0  0  0  0  0  0  0  0  0  0  0  0
   -7.9500   23.0598  -31.3760 H   0  0  0  0  0  0  0  0  0  0  0  0
   -2.8823   23.5790  -30.0639 H   0  0  0  0  0  0  0  0  0  0  0  0
  1  2  1  0
  2  3  1  0
  3  4  2  0
  4  5  1  0
  5  6  1  0
  6  7  2  3
  7  8  1  0
  8  9  2  0
  8 10  1  0
 10 11  2  0
 11 12  1  0
 12 13  2  0
 13 14  1  0
 14 15  2  0
 14 16  2  0
 14 17  1  0
 17 18  1  0
 18 19  1  0
 19 20  1  0
 20 21  1  0
 21 22  1  0
 13 23  1  0
 23 24  2  0
  6 25  1  0
 25  2  2  0
 24 10  1  0
 22 17  1  0
  1 26  1  0
  1 27  1  0
  1 28  1  0
  3 29  1  0
  4 30  1  0
  5 31  1  0
 11 32  1  0
 12 33  1  0
 18 34  1  0
 18 35  1  0
 19 36  1  0
 19 37  1  0
 21 38  1  0
 21 39  1  0
 22 40  1  0
 22 41  1  0
 23 42  1  0
 24 43  1  0
 25 44  1  0
M  END
>  <UniqueID>  (12) 
11

>  <SMILES>  (12) 
Cc1cc[nH]c(=NC(=O)c2ccc(S(=O)(=O)N3CCOCC3)cc2)c1

>  <Energy>  (12) 
64.2619277850307

>  <Genealogy>  (12) 
Cc1cc[nH]c(=NC(=O)c2ccc(S(=O)(=O)N3CCOCC3)cc2)c1 (3D coordinates assigned)
Cc1cc[nH]c(=NC(=O)c2ccc(S(=O)(=O)N3CCOCC3)cc2)c1 (nonaromatic ring conformer: 64.2619277850307 kcal/mol)

>  <smiles>  (12) 
Cc1cc[nH]c(=NC(=O)c2ccc(S(=O)(=O)N3CCOCC3)cc2)c1

>  <score_type>  (12) 
oracle

>  <origin>  (12) 
adgpu

>  <m_score__min__energy>  (12) 
-9.1600000000000001

>  <m_primary>  (12) 
energy

$$$$
12:0
     RDKit          3D

 33 35  0  0  0  0  0  0  0  0999 V2000
   -2.1470   19.3100  -33.1740 F   0  0  0  0  0  0  0  0  0  0  0  0
   -2.8650   20.3200  -32.6240 C   0  0  0  0  0  0  0  0  0  0  0  0
   -3.4950   21.2580  -33.4470 C   0  0  0  0  0  0  0  0  0  0  0  0
   -4.2350   22.3010  -32.8820 C   0  0  0  0  0  0  0  0  0  0  0  0
   -4.3490   22.4100  -31.4870 C   0  0  0  0  0  0  0  0  0  0  0  0
   -5.0960   23.4890  -30.9020 N   0  0  0  0  0  0  0  0  0  0  0  0
   -6.3730   23.8640  -31.1590 C   0  0  0  0  0  0  0  0  0  0  0  0
   -7.2760   23.2350  -32.1810 C   0  0  0  0  0  0  0  0  0  0  0  0
   -8.6300   22.2980  -31.3880 S   0  0  0  0  0  0  0  0  0  0  0  0
   -8.0830   20.6920  -31.9750 C   0  0  0  0  0  0  0  0  0  0  0  0
   -7.0100   20.5980  -32.8690 C   0  0  0  0  0  0  0  0  0  0  0  0
   -6.5820   19.3450  -33.3200 C   0  0  0  0  0  0  0  0  0  0  0  0
   -7.2290   18.1850  -32.8830 C   0  0  0  0  0  0  0  0  0  0  0  0
   -8.3070   18.2770  -31.9970 C   0  0  0  0  0  0  0  0  0  0  0  0
   -8.7380   19.5290  -31.5460 C   0  0  0  0  0  0  0  0  0  0  0  0
   -6.7160   24.9630  -30.4550 N   0  0  0  0  0  0  0  0  0  0  0  0
   -5.6560   25.2920  -29.7350 N   0  0  0  0  0  0  0  0  0  0  0  0
   -4.6800   24.4110  -30.0110 C   0  0  0  0  0  0  0  0  0  0  0  0
   -3.2000   24.4430  -29.3060 S   0  0  0  0  0  0  0  0  0  0  0  0
   -3.7170   21.4640  -30.6660 C   0  0  0  0  0  0  0  0  0  0  0  0
   -2.9770   20.4220  -31.2350 C   0  0  0  0  0  0  0  0  0  0  0  0
   -3.4084   21.1754  -34.5405 H   0  0  0  0  0  0  0  0  0  0  0  0
   -4.7291   23.0380  -33.5321 H   0  0  0  0  0  0  0  0  0  0  0  0
   -7.7092   24.0259  -32.8109 H   0  0  0  0  0  0  0  0  0  0  0  0
   -6.6799   22.5364  -32.7864 H   0  0  0  0  0  0  0  0  0  0  0  0
   -6.5031   21.5101  -33.2171 H   0  0  0  0  0  0  0  0  0  0  0  0
   -5.7358   19.2721  -34.0190 H   0  0  0  0  0  0  0  0  0  0  0  0
   -6.8900   17.2000  -33.2362 H   0  0  0  0  0  0  0  0  0  0  0  0
   -8.8164   17.3642  -31.6545 H   0  0  0  0  0  0  0  0  0  0  0  0
   -9.5907   19.6011  -30.8549 H   0  0  0  0  0  0  0  0  0  0  0  0
   -5.6090   26.1020  -29.0780 H   0  0  0  0  0  0  0  0  0  0  0  0
   -3.8036   21.5418  -29.5722 H   0  0  0  0  0  0  0  0  0  0  0  0
   -2.4828   19.6822  -30.5882 H   0  0  0  0  0  0  0  0  0  0  0  0
  1  2  1  0
  2  3  2  0
  3  4  1  0
  4  5  2  0
  5  6  1  0
  6  7  1  0
  7  8  1  0
  8  9  1  0
  9 10  1  0
 10 11  2  0
 11 12  1  0
 12 13  2  0
 13 14  1  0
 14 15  2  0
  7 16  2  0
 16 17  1  0
 17 18  1  0
 18 19  2  0
  5 20  1  0
 20 21  2  0
 21  2  1  0
 18  6  1  0
 15 10  1  0
  3 22  1  0
  4 23  1  0
  8 24  1  0
  8 25  1  0
 11 26  1  0
 12 27  1  0
 13 28  1  0
 14 29  1  0
 15 30  1  0
 17 31  1  0
 20 32  1  0
 21 33  1  0
M  END
>  <UniqueID>  (13) 
12

>  <SMILES>  (13) 
Fc1ccc(-n2c(CSc3ccccc3)n[nH]c2=S)cc1

>  <Energy>  (13) 
72.47681560664948

>  <Genealogy>  (13) 
Fc1ccc(-n2c(CSc3ccccc3)n[nH]c2=S)cc1 (3D coordinates assigned)
Fc1ccc(-n2c(CSc3ccccc3)n[nH]c2=S)cc1 (optimized conformer: 72.47681560664948 kcal/mol)

>  <smiles>  (13) 
Fc1ccc(-n2c(CSc3ccccc3)n[nH]c2=S)cc1

>  <score_type>  (13) 
oracle

>  <origin>  (13) 
adgpu

>  <m_score__min__energy>  (13) 
-7.9100000000000001

>  <m_primary>  (13) 
energy

$$$$
13:0
     RDKit          3D

 40 42  0  0  0  0  0  0  0  0999 V2000
    0.3450   23.0600  -25.6330 C   0  0  0  0  0  0  0  0  0  0  0  0
   -0.6860   23.3450  -26.6840 C   0  0  0  0  0  0  0  0  0  0  0  0
   -1.7060   22.4220  -26.9410 C   0  0  0  0  0  0  0  0  0  0  0  0
   -2.6880   22.7000  -27.8960 C   0  0  0  0  0  0  0  0  0  0  0  0
   -2.6780   23.9170  -28.6040 C   0  0  0  0  0  0  0  0  0  0  0  0
   -3.7260   24.1980  -29.6230 C   0  0  0  0  0  0  0  0  0  0  0  0
   -4.8280   23.4130  -29.9180 C   0  0  0  0  0  0  0  0  0  0  0  0
   -5.4740   24.1040  -30.9210 C   0  0  0  0  0  0  0  0  0  0  0  0
   -6.7170   23.7010  -31.5890 C   0  0  0  0  0  0  0  0  0  0  0  0
   -7.8180   24.1690  -31.1950 O   0  0  0  0  0  0  0  0  0  0  0  0
   -6.6700   22.7970  -32.7000 N   0  0  0  0  0  0  0  0  0  0  0  0
   -6.7060   21.3700  -32.5730 C   0  0  0  0  0  0  0  0  0  0  0  0
   -5.5320   20.6590  -32.8430 C   0  0  0  0  0  0  0  0  0  0  0  0
   -5.5140   19.2690  -32.7700 C   0  0  0  0  0  0  0  0  0  0  0  0
   -6.6700   18.5710  -32.4290 C   0  0  0  0  0  0  0  0  0  0  0  0
   -7.8600   19.2580  -32.1340 C   0  0  0  0  0  0  0  0  0  0  0  0
   -9.0810   18.4610  -31.7540 C   0  0  0  0  0  0  0  0  0  0  0  0
   -7.8720   20.6780  -32.1540 C   0  0  0  0  0  0  0  0  0  0  0  0
   -9.1100   21.4370  -31.7370 C   0  0  0  0  0  0  0  0  0  0  0  0
   -4.7990   25.2310  -31.2070 N   0  0  0  0  0  0  0  0  0  0  0  0
   -3.7360   25.2880  -30.4190 N   0  0  0  0  0  0  0  0  0  0  0  0
   -1.6570   24.8530  -28.3260 C   0  0  0  0  0  0  0  0  0  0  0  0
   -1.6080   26.0800  -28.9810 O   0  0  0  0  0  0  0  0  0  0  0  0
   -0.6770   24.5660  -27.3700 C   0  0  0  0  0  0  0  0  0  0  0  0
   -0.1035   23.1840  -24.6363 H   0  0  0  0  0  0  0  0  0  0  0  0
    0.7081   22.0278  -25.7459 H   0  0  0  0  0  0  0  0  0  0  0  0
    1.1867   23.7592  -25.7459 H   0  0  0  0  0  0  0  0  0  0  0  0
   -1.7351   21.4716  -26.3879 H   0  0  0  0  0  0  0  0  0  0  0  0
   -3.4770   21.9602  -28.0966 H   0  0  0  0  0  0  0  0  0  0  0  0
   -5.1207   22.4577  -29.4578 H   0  0  0  0  0  0  0  0  0  0  0  0
   -4.6154   21.2028  -33.1153 H   0  0  0  0  0  0  0  0  0  0  0  0
   -4.5844   18.7205  -32.9822 H   0  0  0  0  0  0  0  0  0  0  0  0
   -6.6514   17.4718  -32.3902 H   0  0  0  0  0  0  0  0  0  0  0  0
   -9.1591   18.4100  -30.6580 H   0  0  0  0  0  0  0  0  0  0  0  0
   -9.9786   18.9477  -32.1633 H   0  0  0  0  0  0  0  0  0  0  0  0
   -8.9967   17.4435  -32.1633 H   0  0  0  0  0  0  0  0  0  0  0  0
   -9.1664   21.4716  -30.6390 H   0  0  0  0  0  0  0  0  0  0  0  0
   -9.0630   22.4617  -32.1342 H   0  0  0  0  0  0  0  0  0  0  0  0
  -10.0019   20.9303  -32.1342 H   0  0  0  0  0  0  0  0  0  0  0  0
    0.1079   25.3061  -27.1550 H   0  0  0  0  0  0  0  0  0  0  0  0
  1  2  1  0
  2  3  2  0
  3  4  1  0
  4  5  2  0
  5  6  1  0
  6  7  2  0
  7  8  1  0
  8  9  1  0
  9 10  2  0
  9 11  1  0
 11 12  1  0
 12 13  2  0
 13 14  1  0
 14 15  2  0
 15 16  1  0
 16 17  1  0
 16 18  2  0
 18 19  1  0
  8 20  2  0
 20 21  1  0
  5 22  1  0
 22 23  1  0
 22 24  2  0
 24  2  1  0
 21  6  1  0
 18 12  1  0
  1 25  1  0
  1 26  1  0
  1 27  1  0
  3 28  1  0
  4 29  1  0
  7 30  1  0
 13 31  1  0
 14 32  1  0
 15 33  1  0
 17 34  1  0
 17 35  1  0
 17 36  1  0
 19 37  1  0
 19 38  1  0
 19 39  1  0
 24 40  1  0
M  CHG  3  11  -1  21  -1  23  -1
M  END
>  <UniqueID>  (14) 
13

>  <SMILES>  (14) 
Cc1ccc(-c2cc(C(=O)[N-]c3cccc(C)c3C)n[n-]2)c([O-])c1

>  <Energy>  (14) 
81.45037437855555

>  <Genealogy>  (14) 
Cc1ccc(-c2cc(C(=O)[N-]c3cccc(C)c3C)n[n-]2)c([O-])c1 (protonated)
Cc1ccc(-c2cc(C(=O)[N-]c3cccc(C)c3C)n[n-]2)c([O-])c1 (3D coordinates assigned)
Cc1ccc(-c2cc(C(=O)[N-]c3cccc(C)c3C)n[n-]2)c([O-])c1 (optimized conformer: 81.45037437855555 kcal/mol)

>  <smiles>  (14) 
Cc1ccc(-c2cc(C(=O)Nc3cccc(C)c3C)n[nH]2)c(O)c1

>  <score_type>  (14) 
oracle

>  <origin>  (14) 
adgpu

>  <m_score__min__energy>  (14) 
-14.6

>  <m_primary>  (14) 
energy

$$$$
14:0
     RDKit          3D

 50 52  0  0  0  0  0  0  0  0999 V2000
    3.2290   19.1560  -34.5500 C   0  0  0  0  0  0  0  0  0  0  0  0
    2.3900   20.0620  -33.7550 N   0  0  0  0  0  0  0  0  0  0  0  0
    1.7150   19.3180  -32.6850 C   0  0  0  0  0  0  0  0  0  0  0  0
    1.2030   20.8260  -34.7850 S   0  0  0  0  0  0  0  0  0  0  0  0
    1.5330   22.2860  -34.9280 O   0  0  0  0  0  0  0  0  0  0  0  0
    1.2540   20.2030  -36.1530 O   0  0  0  0  0  0  0  0  0  0  0  0
   -0.4280   20.6610  -34.1320 C   0  0  0  0  0  0  0  0  0  0  0  0
   -1.2690   19.6370  -34.5830 C   0  0  0  0  0  0  0  0  0  0  0  0
   -2.5650   19.5110  -34.0720 C   0  0  0  0  0  0  0  0  0  0  0  0
   -3.0410   20.4130  -33.1040 C   0  0  0  0  0  0  0  0  0  0  0  0
   -4.4090   20.2830  -32.5480 C   0  0  0  0  0  0  0  0  0  0  0  0
   -4.6680   19.3450  -31.7470 O   0  0  0  0  0  0  0  0  0  0  0  0
   -5.4370   21.2270  -32.8920 N   0  0  0  0  0  0  0  0  0  0  0  0
   -6.8250   21.0020  -32.5970 C   0  0  0  0  0  0  0  0  0  0  0  0
   -7.3790   19.7500  -32.9020 C   0  0  0  0  0  0  0  0  0  0  0  0
   -8.7240   19.4850  -32.6430 C   0  0  0  0  0  0  0  0  0  0  0  0
   -9.5270   20.4630  -32.0560 C   0  0  0  0  0  0  0  0  0  0  0  0
   -8.9850   21.7040  -31.7190 C   0  0  0  0  0  0  0  0  0  0  0  0
   -7.6350   21.9960  -31.9860 C   0  0  0  0  0  0  0  0  0  0  0  0
   -7.0740   23.2950  -31.5380 C   0  0  0  0  0  0  0  0  0  0  0  0
   -7.8490   24.1750  -31.0800 O   0  0  0  0  0  0  0  0  0  0  0  0
   -5.6860   23.6270  -31.6970 N   0  0  0  0  0  0  0  0  0  0  0  0
   -4.6410   23.5100  -30.7200 C   0  0  0  0  0  0  0  0  0  0  0  0
   -4.4590   22.3430  -29.9560 C   0  0  0  0  0  0  0  0  0  0  0  0
   -3.4400   22.2770  -29.0010 C   0  0  0  0  0  0  0  0  0  0  0  0
   -2.6060   23.3770  -28.7900 C   0  0  0  0  0  0  0  0  0  0  0  0
   -2.7930   24.5490  -29.5290 C   0  0  0  0  0  0  0  0  0  0  0  0
   -1.9690   25.6470  -29.3140 O   0  0  0  0  0  0  0  0  0  0  0  0
   -3.8120   24.6170  -30.4860 C   0  0  0  0  0  0  0  0  0  0  0  0
   -2.1860   21.4320  -32.6470 C   0  0  0  0  0  0  0  0  0  0  0  0
   -0.8920   21.5570  -33.1600 C   0  0  0  0  0  0  0  0  0  0  0  0
    3.8199   18.5179  -33.8765 H   0  0  0  0  0  0  0  0  0  0  0  0
    2.5888   18.5255  -35.1845 H   0  0  0  0  0  0  0  0  0  0  0  0
    3.9067   19.7460  -35.1845 H   0  0  0  0  0  0  0  0  0  0  0  0
    2.0544   19.6921  -31.7078 H   0  0  0  0  0  0  0  0  0  0  0  0
    0.6272   19.4556  -32.7726 H   0  0  0  0  0  0  0  0  0  0  0  0
    1.9575   18.2487  -32.7726 H   0  0  0  0  0  0  0  0  0  0  0  0
   -0.9090   18.9279  -35.3430 H   0  0  0  0  0  0  0  0  0  0  0  0
   -3.2166   18.7003  -34.4300 H   0  0  0  0  0  0  0  0  0  0  0  0
   -5.1500   22.1950  -33.1600 H   0  0  0  0  0  0  0  0  0  0  0  0
   -6.7466   18.9693  -33.3499 H   0  0  0  0  0  0  0  0  0  0  0  0
   -9.1512   18.5049  -32.9017 H   0  0  0  0  0  0  0  0  0  0  0  0
  -10.5891   20.2557  -31.8584 H   0  0  0  0  0  0  0  0  0  0  0  0
   -9.6207   22.4626  -31.2391 H   0  0  0  0  0  0  0  0  0  0  0  0
   -5.1214   21.4785  -30.1106 H   0  0  0  0  0  0  0  0  0  0  0  0
   -3.2950   21.3574  -28.4151 H   0  0  0  0  0  0  0  0  0  0  0  0
   -1.8015   23.3213  -28.0419 H   0  0  0  0  0  0  0  0  0  0  0  0
   -3.9637   25.5442  -31.0581 H   0  0  0  0  0  0  0  0  0  0  0  0
   -2.5388   22.1365  -31.8794 H   0  0  0  0  0  0  0  0  0  0  0  0
   -0.2351   22.3622  -32.7991 H   0  0  0  0  0  0  0  0  0  0  0  0
  1  2  1  0
  2  3  1  0
  2  4  1  0
  4  5  2  0
  4  6  2  0
  4  7  1  0
  7  8  2  0
  8  9  1  0
  9 10  2  0
 10 11  1  0
 11 12  2  0
 11 13  1  0
 13 14  1  0
 14 15  2  0
 15 16  1  0
 16 17  2  0
 17 18  1  0
 18 19  2  0
 19 20  1  0
 20 21  2  0
 20 22  1  0
 22 23  1  0
 23 24  2  0
 24 25  1  0
 25 26  2  0
 26 27  1  0
 27 28  1  0
 27 29  2  0
 10 30  1  0
 30 31  2  0
 31  7  1  0
 19 14  1  0
 29 23  1  0
  1 32  1  0
  1 33  1  0
  1 34  1  0
  3 35  1  0
  3 36  1  0
  3 37  1  0
  8 38  1  0
  9 39  1  0
 13 40  1  0
 15 41  1  0
 16 42  1  0
 17 43  1  0
 18 44  1  0
 24 45  1  0
 25 46  1  0
 26 47  1  0
 29 48  1  0
 30 49  1  0
 31 50  1  0
M  CHG  2  22  -1  28  -1
M  END
>  <UniqueID>  (15) 
14

>  <SMILES>  (15) 
CN(C)S(=O)(=O)c1ccc(C(=O)Nc2ccccc2C(=O)[N-]c2cccc([O-])c2)cc1

>  <Energy>  (15) 
65.6870592436107

>  <Genealogy>  (15) 
CN(C)S(=O)(=O)c1ccc(C(=O)Nc2ccccc2C(=O)[N-]c2cccc([O-])c2)cc1 (protonated)
CN(C)S(=O)(=O)c1ccc(C(=O)Nc2ccccc2C(=O)[N-]c2cccc([O-])c2)cc1 (3D coordinates assigned)
CN(C)S(=O)(=O)c1ccc(C(=O)Nc2ccccc2C(=O)[N-]c2cccc([O-])c2)cc1 (optimized conformer: 65.6870592436107 kcal/mol)

>  <smiles>  (15) 
CN(C)S(=O)(=O)c1ccc(C(=O)Nc2ccccc2C(=O)Nc2cccc(O)c2)cc1

>  <score_type>  (15) 
oracle

>  <origin>  (15) 
adgpu

>  <m_score__min__energy>  (15) 
-12.49

>  <m_primary>  (15) 
energy

$$$$
15:0
     RDKit          3D

 66 68  0  0  0  0  0  0  0  0999 V2000
   -6.5730   17.9100  -31.2270 C   0  0  0  0  0  0  0  0  0  0  0  0
   -7.4950   17.9660  -32.3750 N   0  0  0  0  0  0  0  0  0  0  0  0
   -6.8300   17.5350  -33.6150 C   0  0  0  0  0  0  0  0  0  0  0  0
   -8.1740   19.2740  -32.5100 C   0  0  0  0  0  0  0  0  0  0  0  0
   -8.0110   20.2090  -31.2930 C   0  0  0  0  0  0  0  0  0  0  0  0
   -6.9320   21.1920  -31.5360 N   0  0  0  0  0  0  0  0  0  0  0  0
   -7.2880   22.5760  -31.1350 C   0  0  0  0  0  0  0  0  0  0  0  0
   -6.0610   23.2880  -30.6320 C   0  0  0  0  0  0  0  0  0  0  0  0
   -5.8170   24.6230  -30.9910 C   0  0  0  0  0  0  0  0  0  0  0  0
   -4.6570   25.2710  -30.5550 C   0  0  0  0  0  0  0  0  0  0  0  0
   -3.7230   24.6000  -29.7570 C   0  0  0  0  0  0  0  0  0  0  0  0
   -2.5410   25.2960  -29.3400 N   0  0  0  0  0  0  0  0  0  0  0  0
   -1.5270   24.8270  -28.0150 S   0  0  0  0  0  0  0  0  0  0  0  0
   -1.5630   26.0910  -26.7690 C   0  0  0  0  0  0  0  0  0  0  0  0
   -0.1140   24.6560  -28.4980 O   0  0  0  0  0  0  0  0  0  0  0  0
   -2.0240   23.5350  -27.4240 O   0  0  0  0  0  0  0  0  0  0  0  0
   -3.9690   23.2640  -29.3930 C   0  0  0  0  0  0  0  0  0  0  0  0
   -5.1290   22.6170  -29.8250 C   0  0  0  0  0  0  0  0  0  0  0  0
   -6.3560   21.0960  -32.9020 C   0  0  0  0  0  0  0  0  0  0  0  0
   -4.8460   20.9440  -32.9250 C   0  0  0  0  0  0  0  0  0  0  0  0
   -4.0070   22.0710  -32.9060 C   0  0  0  0  0  0  0  0  0  0  0  0
   -2.6170   21.9210  -32.9140 C   0  0  0  0  0  0  0  0  0  0  0  0
   -2.0370   20.6410  -32.9690 C   0  0  0  0  0  0  0  0  0  0  0  0
   -0.5660   20.4840  -32.9780 C   0  0  0  0  0  0  0  0  0  0  0  0
    0.0290   20.1750  -34.0470 O   0  0  0  0  0  0  0  0  0  0  0  0
    0.1770   20.6300  -31.7620 N   0  0  0  0  0  0  0  0  0  0  0  0
   -0.2740   20.3000  -30.4380 C   0  0  0  0  0  0  0  0  0  0  0  0
   -0.0610   19.0190  -29.8940 C   0  0  0  0  0  0  0  0  0  0  0  0
   -0.4860   18.7210  -28.5970 C   0  0  0  0  0  0  0  0  0  0  0  0
   -1.1240   19.6950  -27.8300 C   0  0  0  0  0  0  0  0  0  0  0  0
   -1.3270   20.9760  -28.3500 C   0  0  0  0  0  0  0  0  0  0  0  0
   -0.8950   21.2920  -29.6480 C   0  0  0  0  0  0  0  0  0  0  0  0
   -1.1000   22.6170  -30.1530 N   0  0  0  0  0  0  0  0  0  0  0  0
   -2.8770   19.5150  -33.0220 C   0  0  0  0  0  0  0  0  0  0  0  0
   -4.2660   19.6660  -33.0010 C   0  0  0  0  0  0  0  0  0  0  0  0
   -7.1501   17.9451  -30.2912 H   0  0  0  0  0  0  0  0  0  0  0  0
   -5.9948   16.9751  -31.2664 H   0  0  0  0  0  0  0  0  0  0  0  0
   -5.8859   18.7681  -31.2664 H   0  0  0  0  0  0  0  0  0  0  0  0
   -5.9310   16.9523  -33.3655 H   0  0  0  0  0  0  0  0  0  0  0  0
   -7.5195   16.9116  -34.2032 H   0  0  0  0  0  0  0  0  0  0  0  0
   -6.5425   18.4189  -34.2032 H   0  0  0  0  0  0  0  0  0  0  0  0
   -7.7628   19.7849  -33.3931 H   0  0  0  0  0  0  0  0  0  0  0  0
   -9.2494   19.0603  -32.5982 H   0  0  0  0  0  0  0  0  0  0  0  0
   -8.9560   20.7444  -31.1186 H   0  0  0  0  0  0  0  0  0  0  0  0
   -7.7498   19.6043  -30.4120 H   0  0  0  0  0  0  0  0  0  0  0  0
   -7.6941   23.1156  -32.0033 H   0  0  0  0  0  0  0  0  0  0  0  0
   -8.0434   22.5417  -30.3361 H   0  0  0  0  0  0  0  0  0  0  0  0
   -6.5420   25.1621  -31.6185 H   0  0  0  0  0  0  0  0  0  0  0  0
   -4.4769   26.3176  -30.8418 H   0  0  0  0  0  0  0  0  0  0  0  0
   -1.5497   25.6245  -25.7729 H   0  0  0  0  0  0  0  0  0  0  0  0
   -0.6830   26.7414  -26.8810 H   0  0  0  0  0  0  0  0  0  0  0  0
   -2.4786   26.6903  -26.8810 H   0  0  0  0  0  0  0  0  0  0  0  0
   -3.2440   22.7258  -28.7648 H   0  0  0  0  0  0  0  0  0  0  0  0
   -5.3136   21.5734  -29.5305 H   0  0  0  0  0  0  0  0  0  0  0  0
   -6.7993   20.2234  -33.4040 H   0  0  0  0  0  0  0  0  0  0  0  0
   -6.5889   22.0417  -33.4132 H   0  0  0  0  0  0  0  0  0  0  0  0
   -4.4471   23.0789  -32.8847 H   0  0  0  0  0  0  0  0  0  0  0  0
   -1.9719   22.8112  -32.8770 H   0  0  0  0  0  0  0  0  0  0  0  0
    0.4435   18.2476  -30.4943 H   0  0  0  0  0  0  0  0  0  0  0  0
   -0.3171   17.7170  -28.1805 H   0  0  0  0  0  0  0  0  0  0  0  0
   -1.4683   19.4545  -26.8133 H   0  0  0  0  0  0  0  0  0  0  0  0
   -1.8281   21.7412  -27.7389 H   0  0  0  0  0  0  0  0  0  0  0  0
   -1.4910   23.3680  -29.5380 H   0  0  0  0  0  0  0  0  0  0  0  0
   -0.8190   22.8780  -31.1260 H   0  0  0  0  0  0  0  0  0  0  0  0
   -2.4378   18.5082  -33.0804 H   0  0  0  0  0  0  0  0  0  0  0  0
   -4.9115   18.7764  -33.0444 H   0  0  0  0  0  0  0  0  0  0  0  0
  1  2  1  0
  2  3  1  0
  2  4  1  0
  4  5  1  0
  5  6  1  0
  6  7  1  0
  7  8  1  0
  8  9  2  0
  9 10  1  0
 10 11  2  0
 11 12  1  0
 12 13  1  0
 13 14  1  0
 13 15  2  0
 13 16  2  0
 11 17  1  0
 17 18  2  0
  6 19  1  0
 19 20  1  0
 20 21  2  0
 21 22  1  0
 22 23  2  0
 23 24  1  0
 24 25  2  0
 24 26  1  0
 26 27  1  0
 27 28  2  0
 28 29  1  0
 29 30  2  0
 30 31  1  0
 31 32  2  0
 32 33  1  0
 23 34  1  0
 34 35  2  0
 18  8  1  0
 35 20  1  0
 32 27  1  0
  1 36  1  0
  1 37  1  0
  1 38  1  0
  3 39  1  0
  3 40  1  0
  3 41  1  0
  4 42  1  0
  4 43  1  0
  5 44  1  0
  5 45  1  0
  7 46  1  0
  7 47  1  0
  9 48  1  0
 10 49  1  0
 14 50  1  0
 14 51  1  0
 14 52  1  0
 17 53  1  0
 18 54  1  0
 19 55  1  0
 19 56  1  0
 21 57  1  0
 22 58  1  0
 28 59  1  0
 29 60  1  0
 30 61  1  0
 31 62  1  0
 33 63  1  0
 33 64  1  0
 34 65  1  0
 35 66  1  0
M  CHG  2  12  -1  26  -1
M  END
>  <UniqueID>  (16) 
15

>  <SMILES>  (16) 
CN(C)CCN(Cc1ccc([N-]S(C)(=O)=O)cc1)Cc1ccc(C(=O)[N-]c2ccccc2N)cc1

>  <Energy>  (16) 
79.32222858284545

>  <Genealogy>  (16) 
CN(C)CCN(Cc1ccc([N-]S(C)(=O)=O)cc1)Cc1ccc(C(=O)[N-]c2ccccc2N)cc1 (protonated)
CN(C)CCN(Cc1ccc([N-]S(C)(=O)=O)cc1)Cc1ccc(C(=O)[N-]c2ccccc2N)cc1 (3D coordinates assigned)
CN(C)CCN(Cc1ccc([N-]S(C)(=O)=O)cc1)Cc1ccc(C(=O)[N-]c2ccccc2N)cc1 (optimized conformer: 79.32222858284545 kcal/mol)

>  <smiles>  (16) 
CN(C)CCN(Cc1ccc(NS(C)(=O)=O)cc1)Cc1ccc(C(=O)Nc2ccccc2N)cc1

>  <score_type>  (16) 
oracle

>  <origin>  (16) 
adgpu

>  <m_score__min__energy>  (16) 
-10.960000000000001

>  <m_primary>  (16) 
energy

$$$$
16:0
     RDKit          3D

 28 30  0  0  0  0  0  0  0  0999 V2000
   -3.4700   22.0050  -33.4050 O   0  0  0  0  0  0  0  0  0  0  0  0
   -4.3880   21.1780  -33.1630 C   0  0  0  0  0  0  0  0  0  0  0  0
   -4.3710   19.9990  -33.7790 O   0  0  0  0  0  0  0  0  0  0  0  0
   -5.2850   19.0580  -33.5650 C   0  0  0  0  0  0  0  0  0  0  0  0
   -5.2100   17.8380  -34.2520 C   0  0  0  0  0  0  0  0  0  0  0  0
   -4.1770   17.6160  -35.1600 O   0  0  0  0  0  0  0  0  0  0  0  0
   -6.1760   16.8480  -34.0190 C   0  0  0  0  0  0  0  0  0  0  0  0
   -7.2110   17.0740  -33.1060 C   0  0  0  0  0  0  0  0  0  0  0  0
   -7.2910   18.2870  -32.4180 C   0  0  0  0  0  0  0  0  0  0  0  0
   -6.3300   19.2830  -32.6440 C   0  0  0  0  0  0  0  0  0  0  0  0
   -6.3800   20.5090  -31.9770 C   0  0  0  0  0  0  0  0  0  0  0  0
   -5.4060   21.4850  -32.2350 C   0  0  0  0  0  0  0  0  0  0  0  0
   -5.4630   22.7920  -31.5340 C   0  0  0  0  0  0  0  0  0  0  0  0
   -6.7000   23.3950  -31.2390 C   0  0  0  0  0  0  0  0  0  0  0  0
   -6.7480   24.6210  -30.5710 C   0  0  0  0  0  0  0  0  0  0  0  0
   -5.5640   25.2570  -30.1870 C   0  0  0  0  0  0  0  0  0  0  0  0
   -4.3300   24.6650  -30.4680 C   0  0  0  0  0  0  0  0  0  0  0  0
   -3.1540   25.2980  -30.0850 O   0  0  0  0  0  0  0  0  0  0  0  0
   -4.2780   23.4380  -31.1370 C   0  0  0  0  0  0  0  0  0  0  0  0
   -3.4320   18.2910  -35.2900 H   0  0  0  0  0  0  0  0  0  0  0  0
   -6.1192   15.8900  -34.5566 H   0  0  0  0  0  0  0  0  0  0  0  0
   -7.9653   16.2932  -32.9289 H   0  0  0  0  0  0  0  0  0  0  0  0
   -8.1063   18.4607  -31.7003 H   0  0  0  0  0  0  0  0  0  0  0  0
   -7.1816   20.7089  -31.2507 H   0  0  0  0  0  0  0  0  0  0  0  0
   -7.6350   22.8977  -31.5363 H   0  0  0  0  0  0  0  0  0  0  0  0
   -7.7191   25.0866  -30.3469 H   0  0  0  0  0  0  0  0  0  0  0  0
   -5.6038   26.2236  -29.6635 H   0  0  0  0  0  0  0  0  0  0  0  0
   -3.3041   22.9750  -31.3542 H   0  0  0  0  0  0  0  0  0  0  0  0
  1  2  2  0
  2  3  1  0
  3  4  1  0
  4  5  2  0
  5  6  1  0
  5  7  1  0
  7  8  2  0
  8  9  1  0
  9 10  2  0
 10 11  1  0
 11 12  2  0
 12 13  1  0
 13 14  2  0
 14 15  1  0
 15 16  2  0
 16 17  1  0
 17 18  1  0
 17 19  2  0
 12  2  1  0
 19 13  1  0
 10  4  1  0
  6 20  1  0
  7 21  1  0
  8 22  1  0
  9 23  1  0
 11 24  1  0
 14 25  1  0
 15 26  1  0
 16 27  1  0
 19 28  1  0
M  CHG  1  18  -1
M  END
>  <UniqueID>  (17) 
16

>  <SMILES>  (17) 
O=c1oc2c(O)cccc2cc1-c1cccc([O-])c1

>  <Energy>  (17) 
41.69426562300083

>  <Genealogy>  (17) 
O=c1oc2c(O)cccc2cc1-c1cccc([O-])c1 (protonated)
O=c1oc2c(O)cccc2cc1-c1cccc([O-])c1 (3D coordinates assigned)
O=c1oc2c(O)cccc2cc1-c1cccc([O-])c1 (optimized conformer: 41.69426562300083 kcal/mol)

>  <smiles>  (17) 
O=c1oc2c(O)cccc2cc1-c1cccc(O)c1

>  <score_type>  (17) 
oracle

>  <origin>  (17) 
adgpu

>  <m_score__min__energy>  (17) 
-10.390000000000001

>  <m_primary>  (17) 
energy

$$$$
17:0
     RDKit          3D

 33 34  0  0  0  0  0  0  0  0999 V2000
   -5.6120   18.0520  -32.3800 C   0  0  0  0  0  0  0  0  0  0  0  0
   -6.3960   19.0060  -33.7170 S   0  0  0  0  0  0  0  0  0  0  0  0
   -7.0330   20.2640  -32.6020 C   0  0  0  0  0  0  0  0  0  0  0  0
   -6.3390   21.4730  -32.4800 C   0  0  0  0  0  0  0  0  0  0  0  0
   -6.8290   22.5020  -31.6560 C   0  0  0  0  0  0  0  0  0  0  0  0
   -6.1720   23.7780  -31.5720 N   0  0  0  0  0  0  0  0  0  0  0  0
   -4.7920   24.0740  -30.5600 S   0  0  0  0  0  0  0  0  0  0  0  0
   -4.2590   25.4510  -30.8360 O   0  0  0  0  0  0  0  0  0  0  0  0
   -5.2150   23.9880  -29.1200 O   0  0  0  0  0  0  0  0  0  0  0  0
   -3.5260   22.8980  -30.9060 C   0  0  0  0  0  0  0  0  0  0  0  0
   -2.6070   22.5300  -29.9140 C   0  0  0  0  0  0  0  0  0  0  0  0
   -1.6310   21.5670  -30.1830 C   0  0  0  0  0  0  0  0  0  0  0  0
   -1.5670   20.9660  -31.4440 C   0  0  0  0  0  0  0  0  0  0  0  0
   -2.4780   21.3310  -32.4440 C   0  0  0  0  0  0  0  0  0  0  0  0
   -2.4190   20.7120  -33.7330 N   0  0  0  0  0  0  0  0  0  0  0  0
   -3.4540   22.3010  -32.1730 C   0  0  0  0  0  0  0  0  0  0  0  0
   -7.9960   22.2790  -30.9120 C   0  0  0  0  0  0  0  0  0  0  0  0
   -8.6810   21.0650  -31.0130 C   0  0  0  0  0  0  0  0  0  0  0  0
   -8.2100   20.0580  -31.8620 C   0  0  0  0  0  0  0  0  0  0  0  0
   -9.1150   18.5530  -31.9740 Cl  0  0  0  0  0  0  0  0  0  0  0  0
   -5.9378   18.4484  -31.4070 H   0  0  0  0  0  0  0  0  0  0  0  0
   -5.9061   16.9953  -32.4625 H   0  0  0  0  0  0  0  0  0  0  0  0
   -4.5183   18.1357  -32.4625 H   0  0  0  0  0  0  0  0  0  0  0  0
   -5.4004   21.6201  -33.0344 H   0  0  0  0  0  0  0  0  0  0  0  0
   -6.4330   24.5290  -32.2500 H   0  0  0  0  0  0  0  0  0  0  0  0
   -2.6542   23.0006  -28.9209 H   0  0  0  0  0  0  0  0  0  0  0  0
   -0.9117   21.2811  -29.4014 H   0  0  0  0  0  0  0  0  0  0  0  0
   -0.8000   20.2052  -31.6513 H   0  0  0  0  0  0  0  0  0  0  0  0
   -2.3050   21.2870  -34.5960 H   0  0  0  0  0  0  0  0  0  0  0  0
   -2.4910   19.6750  -33.8310 H   0  0  0  0  0  0  0  0  0  0  0  0
   -4.1664   22.5949  -32.9579 H   0  0  0  0  0  0  0  0  0  0  0  0
   -8.3756   23.0657  -30.2434 H   0  0  0  0  0  0  0  0  0  0  0  0
   -9.5943   20.9007  -30.4224 H   0  0  0  0  0  0  0  0  0  0  0  0
  1  2  1  0
  2  3  1  0
  3  4  2  0
  4  5  1  0
  5  6  1  0
  6  7  1  0
  7  8  2  0
  7  9  2  0
  7 10  1  0
 10 11  2  0
 11 12  1  0
 12 13  2  0
 13 14  1  0
 14 15  1  0
 14 16  2  0
  5 17  2  0
 17 18  1  0
 18 19  2  0
 19 20  1  0
 19  3  1  0
 16 10  1  0
  1 21  1  0
  1 22  1  0
  1 23  1  0
  4 24  1  0
  6 25  1  0
 11 26  1  0
 12 27  1  0
 13 28  1  0
 15 29  1  0
 15 30  1  0
 16 31  1  0
 17 32  1  0
 18 33  1  0
M  END
>  <UniqueID>  (18) 
17

>  <SMILES>  (18) 
CSc1cc(NS(=O)(=O)c2cccc(N)c2)ccc1Cl

>  <Energy>  (18) 
30.335825655350675

>  <Genealogy>  (18) 
CSc1cc(NS(=O)(=O)c2cccc(N)c2)ccc1Cl (3D coordinates assigned)
CSc1cc(NS(=O)(=O)c2cccc(N)c2)ccc1Cl (optimized conformer: 30.335825655350675 kcal/mol)

>  <smiles>  (18) 
CSc1cc(NS(=O)(=O)c2cccc(N)c2)ccc1Cl

>  <score_type>  (18) 
oracle

>  <origin>  (18) 
adgpu

>  <m_score__min__energy>  (18) 
-7.9500000000000002

>  <m_primary>  (18) 
energy

$$$$
18:0
     RDKit          3D

 53 55  0  0  0  0  0  0  0  0999 V2000
   -3.1470   23.7200  -28.1450 C   0  0  0  0  0  0  0  0  0  0  0  0
   -2.3280   24.1870  -29.3390 C   0  0  0  0  0  0  0  0  0  0  0  0
   -3.2020   24.7260  -30.3260 O   0  0  0  0  0  0  0  0  0  0  0  0
   -4.5650   24.4180  -30.4540 C   0  0  0  0  0  0  0  0  0  0  0  0
   -5.5650   25.2960  -29.9890 C   0  0  0  0  0  0  0  0  0  0  0  0
   -6.9150   24.9610  -30.1070 C   0  0  0  0  0  0  0  0  0  0  0  0
   -7.2860   23.7480  -30.6850 C   0  0  0  0  0  0  0  0  0  0  0  0
   -6.3090   22.8670  -31.1530 C   0  0  0  0  0  0  0  0  0  0  0  0
   -4.9450   23.1920  -31.0530 C   0  0  0  0  0  0  0  0  0  0  0  0
   -3.9380   22.2310  -31.5620 C   0  0  0  0  0  0  0  0  0  0  0  0
   -4.1440   20.8980  -31.6510 N   0  0  0  0  0  0  0  0  0  0  0  0
   -2.9920   20.4340  -32.1670 C   0  0  0  0  0  0  0  0  0  0  0  0
   -2.7570   18.9920  -32.4950 C   0  0  0  0  0  0  0  0  0  0  0  0
   -3.8200   18.5050  -33.3850 N   0  0  0  0  0  0  0  0  0  0  0  0
   -3.4740   17.7600  -34.6030 C   0  0  0  0  0  0  0  0  0  0  0  0
   -4.6040   16.8100  -34.9760 C   0  0  0  0  0  0  0  0  0  0  0  0
   -5.1980   18.7940  -33.0840 C   0  0  0  0  0  0  0  0  0  0  0  0
   -5.8990   19.7680  -33.8120 C   0  0  0  0  0  0  0  0  0  0  0  0
   -7.2280   20.0640  -33.4970 C   0  0  0  0  0  0  0  0  0  0  0  0
   -7.8770   19.3970  -32.4520 C   0  0  0  0  0  0  0  0  0  0  0  0
   -9.2120   19.7290  -32.1770 O   0  0  0  0  0  0  0  0  0  0  0  0
   -9.6900   21.0580  -32.0010 C   0  0  0  0  0  0  0  0  0  0  0  0
   -7.1720   18.4270  -31.7140 C   0  0  0  0  0  0  0  0  0  0  0  0
   -5.8440   18.1310  -32.0280 C   0  0  0  0  0  0  0  0  0  0  0  0
   -2.1340   21.4930  -32.3740 C   0  0  0  0  0  0  0  0  0  0  0  0
   -0.7580   21.4490  -32.9520 C   0  0  0  0  0  0  0  0  0  0  0  0
   -2.7430   22.5860  -31.9870 O   0  0  0  0  0  0  0  0  0  0  0  0
   -2.6373   24.0106  -27.2145 H   0  0  0  0  0  0  0  0  0  0  0  0
   -4.1428   24.1861  -28.1786 H   0  0  0  0  0  0  0  0  0  0  0  0
   -3.2530   22.6256  -28.1786 H   0  0  0  0  0  0  0  0  0  0  0  0
   -1.6159   24.9609  -29.0164 H   0  0  0  0  0  0  0  0  0  0  0  0
   -1.7739   23.3361  -29.7619 H   0  0  0  0  0  0  0  0  0  0  0  0
   -5.2790   26.2535  -29.5291 H   0  0  0  0  0  0  0  0  0  0  0  0
   -7.6870   25.6551  -29.7434 H   0  0  0  0  0  0  0  0  0  0  0  0
   -8.3503   23.4844  -30.7726 H   0  0  0  0  0  0  0  0  0  0  0  0
   -6.6094   21.9098  -31.6041 H   0  0  0  0  0  0  0  0  0  0  0  0
   -1.7836   18.8853  -32.9961 H   0  0  0  0  0  0  0  0  0  0  0  0
   -2.7620   18.4025  -31.5663 H   0  0  0  0  0  0  0  0  0  0  0  0
   -3.3077   18.4687  -35.4277 H   0  0  0  0  0  0  0  0  0  0  0  0
   -2.5597   17.1765  -34.4198 H   0  0  0  0  0  0  0  0  0  0  0  0
   -5.0706   16.4178  -34.0603 H   0  0  0  0  0  0  0  0  0  0  0  0
   -5.3568   17.3504  -35.5686 H   0  0  0  0  0  0  0  0  0  0  0  0
   -4.2009   15.9755  -35.5686 H   0  0  0  0  0  0  0  0  0  0  0  0
   -5.3998   20.3010  -34.6346 H   0  0  0  0  0  0  0  0  0  0  0  0
   -7.7685   20.8278  -34.0754 H   0  0  0  0  0  0  0  0  0  0  0  0
   -9.7697   21.2797  -30.9265 H   0  0  0  0  0  0  0  0  0  0  0  0
   -8.9897   21.7647  -32.4702 H   0  0  0  0  0  0  0  0  0  0  0  0
  -10.6800   21.1567  -32.4702 H   0  0  0  0  0  0  0  0  0  0  0  0
   -7.6696   17.9001  -30.8865 H   0  0  0  0  0  0  0  0  0  0  0  0
   -5.3003   17.3735  -31.4444 H   0  0  0  0  0  0  0  0  0  0  0  0
   -0.0188   21.4254  -32.1377 H   0  0  0  0  0  0  0  0  0  0  0  0
   -0.6494   20.5469  -33.5721 H   0  0  0  0  0  0  0  0  0  0  0  0
   -0.5920   22.3423  -33.5721 H   0  0  0  0  0  0  0  0  0  0  0  0
  1  2  1  0
  2  3  1  0
  3  4  1  0
  4  5  2  0
  5  6  1  0
  6  7  2  0
  7  8  1  0
  8  9  2  0
  9 10  1  0
 10 11  2  0
 11 12  1  0
 12 13  1  0
 13 14  1  0
 14 15  1  0
 15 16  1  0
 14 17  1  0
 17 18  2  0
 18 19  1  0
 19 20  2  0
 20 21  1  0
 21 22  1  0
 20 23  1  0
 23 24  2  0
 12 25  2  0
 25 26  1  0
 25 27  1  0
  9  4  1  0
 27 10  1  0
 24 17  1  0
  1 28  1  0
  1 29  1  0
  1 30  1  0
  2 31  1  0
  2 32  1  0
  5 33  1  0
  6 34  1  0
  7 35  1  0
  8 36  1  0
 13 37  1  0
 13 38  1  0
 15 39  1  0
 15 40  1  0
 16 41  1  0
 16 42  1  0
 16 43  1  0
 18 44  1  0
 19 45  1  0
 22 46  1  0
 22 47  1  0
 22 48  1  0
 23 49  1  0
 24 50  1  0
 26 51  1  0
 26 52  1  0
 26 53  1  0
M  END
>  <UniqueID>  (19) 
18

>  <SMILES>  (19) 
CCOc1ccccc1-c1nc(CN(CC)c2ccc(OC)cc2)c(C)o1

>  <Energy>  (19) 
78.29946780245696

>  <Genealogy>  (19) 
CCOc1ccccc1-c1nc(CN(CC)c2ccc(OC)cc2)c(C)o1 (3D coordinates assigned)
CCOc1ccccc1-c1nc(CN(CC)c2ccc(OC)cc2)c(C)o1 (optimized conformer: 78.29946780245696 kcal/mol)

>  <smiles>  (19) 
CCOc1ccccc1-c1nc(CN(CC)c2ccc(OC)cc2)c(C)o1

>  <score_type>  (19) 
oracle

>  <origin>  (19) 
adgpu

>  <m_score__min__energy>  (19) 
-8.0899999999999999

>  <m_primary>  (19) 
energy

$$$$
19:0
     RDKit          3D

 45 47  0  0  0  0  0  0  0  0999 V2000
   -5.3070   14.8780  -33.7090 C   0  0  0  0  0  0  0  0  0  0  0  0
   -6.9340   15.5470  -34.1870 S   0  0  0  0  0  0  0  0  0  0  0  0
   -6.5930   17.1860  -33.5440 C   0  0  0  0  0  0  0  0  0  0  0  0
   -6.8890   17.4880  -32.2110 C   0  0  0  0  0  0  0  0  0  0  0  0
   -6.6260   18.7650  -31.7050 C   0  0  0  0  0  0  0  0  0  0  0  0
   -6.0820   19.7620  -32.5320 C   0  0  0  0  0  0  0  0  0  0  0  0
   -5.8010   21.0610  -31.9750 N   0  0  0  0  0  0  0  0  0  0  0  0
   -4.7780   21.9500  -32.4400 C   0  0  0  0  0  0  0  0  0  0  0  0
   -4.2580   21.7890  -33.5790 O   0  0  0  0  0  0  0  0  0  0  0  0
   -4.3390   23.0100  -31.5850 N   0  0  0  0  0  0  0  0  0  0  0  0
   -3.3610   22.8910  -30.5410 C   0  0  0  0  0  0  0  0  0  0  0  0
   -2.9710   21.6070  -30.1430 C   0  0  0  0  0  0  0  0  0  0  0  0
   -2.0020   21.4380  -29.1500 C   0  0  0  0  0  0  0  0  0  0  0  0
   -1.4190   22.5520  -28.5420 C   0  0  0  0  0  0  0  0  0  0  0  0
   -1.8250   23.8460  -28.8990 C   0  0  0  0  0  0  0  0  0  0  0  0
   -1.0740   25.2490  -28.1310 S   0  0  0  0  0  0  0  0  0  0  0  0
   -1.2410   26.4810  -28.9790 O   0  0  0  0  0  0  0  0  0  0  0  0
   -1.7440   25.4850  -26.8060 O   0  0  0  0  0  0  0  0  0  0  0  0
    0.6170   24.9700  -27.8620 N   0  0  0  0  0  0  0  0  0  0  0  0
    1.3230   25.2580  -26.6500 C   0  0  0  0  0  0  0  0  0  0  0  0
    2.4780   24.5220  -26.3560 C   0  0  0  0  0  0  0  0  0  0  0  0
    3.2090   24.7800  -25.1940 C   0  0  0  0  0  0  0  0  0  0  0  0
    2.7980   25.7910  -24.3220 C   0  0  0  0  0  0  0  0  0  0  0  0
    1.6420   26.5300  -24.6010 C   0  0  0  0  0  0  0  0  0  0  0  0
    1.0910   27.9240  -23.4190 Br  0  0  0  0  0  0  0  0  0  0  0  0
    0.9020   26.2640  -25.7580 C   0  0  0  0  0  0  0  0  0  0  0  0
   -2.8150   24.0180  -29.8860 C   0  0  0  0  0  0  0  0  0  0  0  0
   -3.2710   25.2970  -30.1900 O   0  0  0  0  0  0  0  0  0  0  0  0
   -5.7650   19.4420  -33.8680 C   0  0  0  0  0  0  0  0  0  0  0  0
   -6.0260   18.1630  -34.3700 C   0  0  0  0  0  0  0  0  0  0  0  0
   -5.2313   14.8469  -32.6121 H   0  0  0  0  0  0  0  0  0  0  0  0
   -5.1956   13.8611  -34.1133 H   0  0  0  0  0  0  0  0  0  0  0  0
   -4.5124   15.5224  -34.1133 H   0  0  0  0  0  0  0  0  0  0  0  0
   -7.3297   16.7194  -31.5590 H   0  0  0  0  0  0  0  0  0  0  0  0
   -6.8468   18.9906  -30.6513 H   0  0  0  0  0  0  0  0  0  0  0  0
   -6.4100   21.4050  -31.2000 H   0  0  0  0  0  0  0  0  0  0  0  0
   -3.4299   20.7255  -30.6146 H   0  0  0  0  0  0  0  0  0  0  0  0
   -1.6979   20.4253  -28.8467 H   0  0  0  0  0  0  0  0  0  0  0  0
   -0.6380   22.4138  -27.7798 H   0  0  0  0  0  0  0  0  0  0  0  0
    2.8124   23.7337  -27.0465 H   0  0  0  0  0  0  0  0  0  0  0  0
    4.1074   24.1877  -24.9658 H   0  0  0  0  0  0  0  0  0  0  0  0
    3.3829   26.0066  -23.4157 H   0  0  0  0  0  0  0  0  0  0  0  0
   -0.0098   26.8411  -25.9716 H   0  0  0  0  0  0  0  0  0  0  0  0
   -5.3098   20.2027  -34.5193 H   0  0  0  0  0  0  0  0  0  0  0  0
   -5.7851   17.9245  -35.4164 H   0  0  0  0  0  0  0  0  0  0  0  0
  1  2  1  0
  2  3  1  0
  3  4  2  0
  4  5  1  0
  5  6  2  0
  6  7  1  0
  7  8  1  0
  8  9  2  0
  8 10  1  0
 10 11  1  0
 11 12  2  0
 12 13  1  0
 13 14  2  0
 14 15  1  0
 15 16  1  0
 16 17  2  0
 16 18  2  0
 16 19  1  0
 19 20  1  0
 20 21  2  0
 21 22  1  0
 22 23  2  0
 23 24  1  0
 24 25  1  0
 24 26  2  0
 15 27  2  0
 27 28  1  0
  6 29  1  0
 29 30  2  0
 30  3  1  0
 27 11  1  0
 26 20  1  0
  1 31  1  0
  1 32  1  0
  1 33  1  0
  4 34  1  0
  5 35  1  0
  7 36  1  0
 12 37  1  0
 13 38  1  0
 14 39  1  0
 21 40  1  0
 22 41  1  0
 23 42  1  0
 26 43  1  0
 29 44  1  0
 30 45  1  0
M  CHG  3  10  -1  19  -1  28  -1
M  END
>  <UniqueID>  (20) 
19

>  <SMILES>  (20) 
CSc1ccc(NC(=O)[N-]c2cccc(S(=O)(=O)[N-]c3cccc(Br)c3)c2[O-])cc1

>  <Energy>  (20) 
56.86854656447973

>  <Genealogy>  (20) 
CSc1ccc(NC(=O)[N-]c2cccc(S(=O)(=O)[N-]c3cccc(Br)c3)c2[O-])cc1 (protonated)
CSc1ccc(NC(=O)[N-]c2cccc(S(=O)(=O)[N-]c3cccc(Br)c3)c2[O-])cc1 (3D coordinates assigned)
CSc1ccc(NC(=O)[N-]c2cccc(S(=O)(=O)[N-]c3cccc(Br)c3)c2[O-])cc1 (optimized conformer: 56.86854656447973 kcal/mol)

>  <smiles>  (20) 
CSc1ccc(NC(=O)Nc2cccc(S(=O)(=O)Nc3cccc(Br)c3)c2O)cc1

>  <score_type>  (20) 
oracle

>  <origin>  (20) 
adgpu

>  <m_score__min__energy>  (20) 
-14.4

>  <m_primary>  (20) 
energy

$$$$
20:0
     RDKit          3D

 29 31  0  0  0  0  0  0  0  0999 V2000
    1.6580   24.5620  -27.1650 O   0  0  0  0  0  0  0  0  0  0  0  0
    0.4620   24.4470  -27.8620 C   0  0  0  0  0  0  0  0  0  0  0  0
   -0.4730   25.4850  -27.8230 C   0  0  0  0  0  0  0  0  0  0  0  0
   -1.6780   25.3730  -28.5230 C   0  0  0  0  0  0  0  0  0  0  0  0
   -1.9630   24.2150  -29.2740 C   0  0  0  0  0  0  0  0  0  0  0  0
   -3.2350   24.0740  -30.0230 C   0  0  0  0  0  0  0  0  0  0  0  0
   -3.9630   22.9130  -30.2230 C   0  0  0  0  0  0  0  0  0  0  0  0
   -5.0510   23.3180  -30.9760 C   0  0  0  0  0  0  0  0  0  0  0  0
   -6.1600   22.4690  -31.4760 C   0  0  0  0  0  0  0  0  0  0  0  0
   -5.8860   21.4000  -32.3490 C   0  0  0  0  0  0  0  0  0  0  0  0
   -6.9200   20.5920  -32.8300 C   0  0  0  0  0  0  0  0  0  0  0  0
   -8.2440   20.8380  -32.4460 C   0  0  0  0  0  0  0  0  0  0  0  0
   -9.2820   20.0400  -32.9190 O   0  0  0  0  0  0  0  0  0  0  0  0
   -8.5270   21.8980  -31.5790 C   0  0  0  0  0  0  0  0  0  0  0  0
   -7.4960   22.7090  -31.0960 C   0  0  0  0  0  0  0  0  0  0  0  0
   -4.9640   24.6430  -31.2050 N   0  0  0  0  0  0  0  0  0  0  0  0
   -3.8640   25.1010  -30.6280 N   0  0  0  0  0  0  0  0  0  0  0  0
   -1.0130   23.1760  -29.3030 C   0  0  0  0  0  0  0  0  0  0  0  0
    0.1910   23.2940  -28.6020 C   0  0  0  0  0  0  0  0  0  0  0  0
   -0.2601   26.3930  -27.2397 H   0  0  0  0  0  0  0  0  0  0  0  0
   -2.4087   26.1944  -28.4873 H   0  0  0  0  0  0  0  0  0  0  0  0
   -3.7295   21.8995  -29.8648 H   0  0  0  0  0  0  0  0  0  0  0  0
   -4.8490   21.1985  -32.6556 H   0  0  0  0  0  0  0  0  0  0  0  0
   -6.6930   19.7599  -33.5126 H   0  0  0  0  0  0  0  0  0  0  0  0
   -9.2910   19.6920  -33.8710 H   0  0  0  0  0  0  0  0  0  0  0  0
   -9.5659   22.0946  -31.2756 H   0  0  0  0  0  0  0  0  0  0  0  0
   -7.7289   23.5404  -30.4145 H   0  0  0  0  0  0  0  0  0  0  0  0
   -1.2198   22.2639  -29.8820 H   0  0  0  0  0  0  0  0  0  0  0  0
    0.9266   22.4767  -28.6334 H   0  0  0  0  0  0  0  0  0  0  0  0
  1  2  1  0
  2  3  2  0
  3  4  1  0
  4  5  2  0
  5  6  1  0
  6  7  1  0
  7  8  2  0
  8  9  1  0
  9 10  2  0
 10 11  1  0
 11 12  2  0
 12 13  1  0
 12 14  1  0
 14 15  2  0
  8 16  1  0
 16 17  1  0
  5 18  1  0
 18 19  2  0
 19  2  1  0
 17  6  2  0
 15  9  1  0
  3 20  1  0
  4 21  1  0
  7 22  1  0
 10 23  1  0
 11 24  1  0
 13 25  1  0
 14 26  1  0
 15 27  1  0
 18 28  1  0
 19 29  1  0
M  CHG  2   1  -1  16  -1
M  END
>  <UniqueID>  (21) 
20

>  <SMILES>  (21) 
[O-]c1ccc(-c2cc(-c3ccc(O)cc3)[n-]n2)cc1

>  <Energy>  (21) 
63.958492050687425

>  <Genealogy>  (21) 
[O-]c1ccc(-c2cc(-c3ccc(O)cc3)[n-]n2)cc1 (protonated)
[O-]c1ccc(-c2cc(-c3ccc(O)cc3)[n-]n2)cc1 (3D coordinates assigned)
[O-]c1ccc(-c2cc(-c3ccc(O)cc3)[n-]n2)cc1 (optimized conformer: 63.958492050687425 kcal/mol)

>  <smiles>  (21) 
Oc1ccc(-c2cc(-c3ccc(O)cc3)[nH]n2)cc1

>  <score_type>  (21) 
oracle

>  <origin>  (21) 
adgpu

>  <m_score__min__energy>  (21) 
-8.6899999999999995

>  <m_primary>  (21) 
energy

$$$$
21:0
     RDKit          3D

 54 56  0  0  0  0  0  0  0  0999 V2000
   -3.3980   25.1430  -26.1760 C   0  0  0  0  0  0  0  0  0  0  0  0
   -1.9410   25.4460  -25.8290 C   0  0  0  0  0  0  0  0  0  0  0  0
   -1.0950   24.1700  -25.6880 C   0  0  0  0  0  0  0  0  0  0  0  0
   -0.4530   23.7080  -27.0110 C   0  0  0  0  0  0  0  0  0  0  0  0
   -1.3090   22.7600  -27.7480 N   0  0  0  0  0  0  0  0  0  0  0  0
   -1.1150   21.3410  -27.5870 C   0  0  0  0  0  0  0  0  0  0  0  0
   -2.0200   20.5720  -26.8400 C   0  0  0  0  0  0  0  0  0  0  0  0
   -1.8200   19.1970  -26.6790 C   0  0  0  0  0  0  0  0  0  0  0  0
   -0.7060   18.5690  -27.2660 C   0  0  0  0  0  0  0  0  0  0  0  0
   -0.4610   17.1940  -27.1340 O   0  0  0  0  0  0  0  0  0  0  0  0
    0.7650   16.5580  -27.4790 C   0  0  0  0  0  0  0  0  0  0  0  0
    0.1980   19.3370  -28.0090 C   0  0  0  0  0  0  0  0  0  0  0  0
   -0.0020   20.7100  -28.1690 C   0  0  0  0  0  0  0  0  0  0  0  0
   -2.4080   23.2190  -28.5600 C   0  0  0  0  0  0  0  0  0  0  0  0
   -3.8300   22.3530  -28.8090 S   0  0  0  0  0  0  0  0  0  0  0  0
   -4.5480   23.4680  -29.8510 C   0  0  0  0  0  0  0  0  0  0  0  0
   -5.8830   23.3320  -30.4660 C   0  0  0  0  0  0  0  0  0  0  0  0
   -6.7250   24.2590  -30.3330 O   0  0  0  0  0  0  0  0  0  0  0  0
   -6.2730   22.1410  -31.1620 N   0  0  0  0  0  0  0  0  0  0  0  0
   -5.4210   21.3370  -31.9910 C   0  0  0  0  0  0  0  0  0  0  0  0
   -4.1100   21.7350  -32.3010 C   0  0  0  0  0  0  0  0  0  0  0  0
   -3.3120   20.9430  -33.1290 C   0  0  0  0  0  0  0  0  0  0  0  0
   -3.8170   19.7560  -33.6630 C   0  0  0  0  0  0  0  0  0  0  0  0
   -5.1280   19.3430  -33.3650 C   0  0  0  0  0  0  0  0  0  0  0  0
   -5.6940   18.0920  -33.9880 C   0  0  0  0  0  0  0  0  0  0  0  0
   -5.7860   18.2660  -35.3570 F   0  0  0  0  0  0  0  0  0  0  0  0
   -4.8800   17.0030  -33.7260 F   0  0  0  0  0  0  0  0  0  0  0  0
   -6.9540   17.8220  -33.4820 F   0  0  0  0  0  0  0  0  0  0  0  0
   -5.9330   20.1600  -32.5510 C   0  0  0  0  0  0  0  0  0  0  0  0
   -3.6810   24.5510  -29.9890 C   0  0  0  0  0  0  0  0  0  0  0  0
   -3.9700   25.6640  -30.7700 O   0  0  0  0  0  0  0  0  0  0  0  0
   -2.4840   24.4150  -29.2720 C   0  0  0  0  0  0  0  0  0  0  0  0
   -1.4850   25.3840  -29.2600 O   0  0  0  0  0  0  0  0  0  0  0  0
   -3.9782   25.0223  -25.2493 H   0  0  0  0  0  0  0  0  0  0  0  0
   -3.8152   25.9736  -26.7643 H   0  0  0  0  0  0  0  0  0  0  0  0
   -3.4495   24.2149  -26.7643 H   0  0  0  0  0  0  0  0  0  0  0  0
   -1.5101   26.0693  -26.6264 H   0  0  0  0  0  0  0  0  0  0  0  0
   -1.9280   25.9660  -24.8598 H   0  0  0  0  0  0  0  0  0  0  0  0
   -0.2928   24.3629  -24.9605 H   0  0  0  0  0  0  0  0  0  0  0  0
   -1.7722   23.3677  -25.3597 H   0  0  0  0  0  0  0  0  0  0  0  0
   -0.2747   24.5895  -27.6444 H   0  0  0  0  0  0  0  0  0  0  0  0
    0.4872   23.1920  -26.7664 H   0  0  0  0  0  0  0  0  0  0  0  0
   -2.8937   21.0542  -26.3773 H   0  0  0  0  0  0  0  0  0  0  0  0
   -2.5364   18.6043  -26.0912 H   0  0  0  0  0  0  0  0  0  0  0  0
    1.3039   16.2785  -26.5617 H   0  0  0  0  0  0  0  0  0  0  0  0
    0.5556   15.6548  -28.0709 H   0  0  0  0  0  0  0  0  0  0  0  0
    1.3828   17.2493  -28.0709 H   0  0  0  0  0  0  0  0  0  0  0  0
    1.0727   18.8555  -28.4705 H   0  0  0  0  0  0  0  0  0  0  0  0
    0.7168   21.3018  -28.7548 H   0  0  0  0  0  0  0  0  0  0  0  0
   -3.7106   22.6739  -31.8900 H   0  0  0  0  0  0  0  0  0  0  0  0
   -2.2830   21.2550  -33.3611 H   0  0  0  0  0  0  0  0  0  0  0  0
   -3.1859   19.1402  -34.3206 H   0  0  0  0  0  0  0  0  0  0  0  0
   -6.9757   19.8714  -32.3522 H   0  0  0  0  0  0  0  0  0  0  0  0
   -1.6150   26.2830  -29.7090 H   0  0  0  0  0  0  0  0  0  0  0  0
  1  2  1  0
  2  3  1  0
  3  4  1  0
  4  5  1  0
  5  6  1  0
  6  7  2  0
  7  8  1  0
  8  9  2  0
  9 10  1  0
 10 11  1  0
  9 12  1  0
 12 13  2  0
  5 14  1  0
 14 15  1  0
 15 16  1  0
 16 17  1  0
 17 18  2  0
 17 19  1  0
 19 20  1  0
 20 21  2  0
 21 22  1  0
 22 23  2  0
 23 24  1  0
 24 25  1  0
 25 26  1  0
 25 27  1  0
 25 28  1  0
 24 29  2  0
 16 30  2  0
 30 31  1  0
 30 32  1  0
 32 33  1  0
 13  6  1  0
 32 14  2  0
 29 20  1  0
  1 34  1  0
  1 35  1  0
  1 36  1  0
  2 37  1  0
  2 38  1  0
  3 39  1  0
  3 40  1  0
  4 41  1  0
  4 42  1  0
  7 43  1  0
  8 44  1  0
 11 45  1  0
 11 46  1  0
 11 47  1  0
 12 48  1  0
 13 49  1  0
 21 50  1  0
 22 51  1  0
 23 52  1  0
 29 53  1  0
 33 54  1  0
M  CHG  2  19  -1  31  -1
M  END
>  <UniqueID>  (22) 
21

>  <SMILES>  (22) 
CCCCN(c1ccc(OC)cc1)c1sc(C(=O)[N-]c2cccc(C(F)(F)F)c2)c([O-])c1O

>  <Energy>  (22) 
91.17726079711052

>  <Genealogy>  (22) 
CCCCN(c1ccc(OC)cc1)c1sc(C(=O)[N-]c2cccc(C(F)(F)F)c2)c([O-])c1O (protonated)
CCCCN(c1ccc(OC)cc1)c1sc(C(=O)[N-]c2cccc(C(F)(F)F)c2)c([O-])c1O (3D coordinates assigned)
CCCCN(c1ccc(OC)cc1)c1sc(C(=O)[N-]c2cccc(C(F)(F)F)c2)c([O-])c1O (optimized conformer: 91.17726079711052 kcal/mol)

>  <smiles>  (22) 
CCCCN(c1ccc(OC)cc1)c1sc(C(=O)Nc2cccc(C(F)(F)F)c2)c(O)c1O

>  <score_type>  (22) 
oracle

>  <origin>  (22) 
adgpu

>  <m_score__min__energy>  (22) 
-12.48

>  <m_primary>  (22) 
energy

$$$$
22:0
     RDKit          3D

 43 45  0  0  0  0  0  0  0  0999 V2000
   -0.7500   26.7790  -27.8370 C   0  0  0  0  0  0  0  0  0  0  0  0
   -1.3300   26.0530  -28.9150 O   0  0  0  0  0  0  0  0  0  0  0  0
   -1.5190   24.6640  -28.9390 C   0  0  0  0  0  0  0  0  0  0  0  0
   -0.6700   23.8010  -28.2130 C   0  0  0  0  0  0  0  0  0  0  0  0
   -0.8290   22.4170  -28.2920 C   0  0  0  0  0  0  0  0  0  0  0  0
   -1.8290   21.8730  -29.0950 C   0  0  0  0  0  0  0  0  0  0  0  0
   -2.6830   22.7120  -29.8090 C   0  0  0  0  0  0  0  0  0  0  0  0
   -2.5570   24.1060  -29.7250 C   0  0  0  0  0  0  0  0  0  0  0  0
   -3.4890   24.8990  -30.4750 N   0  0  0  0  0  0  0  0  0  0  0  0
   -5.2090   24.9710  -30.2590 S   0  0  0  0  0  0  0  0  0  0  0  0
   -5.7330   26.2600  -30.8260 O   0  0  0  0  0  0  0  0  0  0  0  0
   -5.5500   24.8680  -28.8000 O   0  0  0  0  0  0  0  0  0  0  0  0
   -5.9480   23.6210  -31.1040 C   0  0  0  0  0  0  0  0  0  0  0  0
   -7.3170   23.3830  -31.0930 C   0  0  0  0  0  0  0  0  0  0  0  0
   -7.6110   21.9940  -31.9950 S   0  0  0  0  0  0  0  0  0  0  0  0
   -6.0050   21.6880  -32.3980 C   0  0  0  0  0  0  0  0  0  0  0  0
   -5.5320   20.5640  -33.2160 C   0  0  0  0  0  0  0  0  0  0  0  0
   -4.3020   20.2960  -33.2610 O   0  0  0  0  0  0  0  0  0  0  0  0
   -6.4710   19.7780  -33.9590 N   0  0  0  0  0  0  0  0  0  0  0  0
   -6.1030   18.6030  -34.7400 C   0  0  0  0  0  0  0  0  0  0  0  0
   -5.6760   17.4830  -33.8290 C   0  0  0  0  0  0  0  0  0  0  0  0
   -6.1040   17.4460  -32.4910 C   0  0  0  0  0  0  0  0  0  0  0  0
   -5.7170   16.3900  -31.6590 C   0  0  0  0  0  0  0  0  0  0  0  0
   -4.9070   15.3650  -32.1570 C   0  0  0  0  0  0  0  0  0  0  0  0
   -4.4800   15.3950  -33.4870 C   0  0  0  0  0  0  0  0  0  0  0  0
   -4.8640   16.4480  -34.3230 C   0  0  0  0  0  0  0  0  0  0  0  0
   -5.2100   22.6750  -31.8280 C   0  0  0  0  0  0  0  0  0  0  0  0
   -1.0909   26.3523  -26.8822 H   0  0  0  0  0  0  0  0  0  0  0  0
    0.3463   26.7123  -27.8978 H   0  0  0  0  0  0  0  0  0  0  0  0
   -1.0571   27.8335  -27.8978 H   0  0  0  0  0  0  0  0  0  0  0  0
    0.1239   24.2233  -27.5794 H   0  0  0  0  0  0  0  0  0  0  0  0
   -0.1636   21.7543  -27.7192 H   0  0  0  0  0  0  0  0  0  0  0  0
   -1.9447   20.7814  -29.1656 H   0  0  0  0  0  0  0  0  0  0  0  0
   -3.4657   22.2750  -30.4464 H   0  0  0  0  0  0  0  0  0  0  0  0
   -8.0755   23.9956  -30.5837 H   0  0  0  0  0  0  0  0  0  0  0  0
   -6.9689   18.2769  -35.3348 H   0  0  0  0  0  0  0  0  0  0  0  0
   -5.2658   18.8628  -35.4045 H   0  0  0  0  0  0  0  0  0  0  0  0
   -6.7445   18.2489  -32.0971 H   0  0  0  0  0  0  0  0  0  0  0  0
   -6.0506   16.3661  -30.6111 H   0  0  0  0  0  0  0  0  0  0  0  0
   -4.6058   14.5346  -31.5015 H   0  0  0  0  0  0  0  0  0  0  0  0
   -3.8409   14.5891  -33.8770 H   0  0  0  0  0  0  0  0  0  0  0  0
   -4.5294   16.4662  -35.3707 H   0  0  0  0  0  0  0  0  0  0  0  0
   -4.1157   22.7100  -31.9340 H   0  0  0  0  0  0  0  0  0  0  0  0
  1  2  1  0
  2  3  1  0
  3  4  2  0
  4  5  1  0
  5  6  2  0
  6  7  1  0
  7  8  2  0
  8  9  1  0
  9 10  1  0
 10 11  2  0
 10 12  2  0
 10 13  1  0
 13 14  2  0
 14 15  1  0
 15 16  1  0
 16 17  1  0
 17 18  2  0
 17 19  1  0
 19 20  1  0
 20 21  1  0
 21 22  2  0
 22 23  1  0
 23 24  2  0
 24 25  1  0
 25 26  2  0
 16 27  2  0
  8  3  1  0
 27 13  1  0
 26 21  1  0
  1 28  1  0
  1 29  1  0
  1 30  1  0
  4 31  1  0
  5 32  1  0
  6 33  1  0
  7 34  1  0
 14 35  1  0
 20 36  1  0
 20 37  1  0
 22 38  1  0
 23 39  1  0
 24 40  1  0
 25 41  1  0
 26 42  1  0
 27 43  1  0
M  CHG  2   9  -1  19  -1
M  END
>  <UniqueID>  (23) 
22

>  <SMILES>  (23) 
COc1ccccc1[N-]S(=O)(=O)c1csc(C(=O)[N-]Cc2ccccc2)c1

>  <Energy>  (23) 
74.62115883191167

>  <Genealogy>  (23) 
COc1ccccc1[N-]S(=O)(=O)c1csc(C(=O)[N-]Cc2ccccc2)c1 (protonated)
COc1ccccc1[N-]S(=O)(=O)c1csc(C(=O)[N-]Cc2ccccc2)c1 (3D coordinates assigned)
COc1ccccc1[N-]S(=O)(=O)c1csc(C(=O)[N-]Cc2ccccc2)c1 (optimized conformer: 74.62115883191167 kcal/mol)

>  <smiles>  (23) 
COc1ccccc1NS(=O)(=O)c1csc(C(=O)NCc2ccccc2)c1

>  <score_type>  (23) 
oracle

>  <origin>  (23) 
adgpu

>  <m_score__min__energy>  (23) 
-11.140000000000001

>  <m_primary>  (23) 
energy

$$$$
23:0
     RDKit          3D

 56 60  0  0  0  0  0  0  0  0999 V2000
    0.9350   23.4010  -24.4750 C   0  0  0  0  0  0  0  0  0  0  0  0
   -0.1030   24.3400  -25.0010 C   0  0  0  0  0  0  0  0  0  0  0  0
   -0.1770   25.6530  -24.5230 C   0  0  0  0  0  0  0  0  0  0  0  0
   -1.1660   26.5040  -25.0170 C   0  0  0  0  0  0  0  0  0  0  0  0
   -2.0690   26.0420  -25.9760 C   0  0  0  0  0  0  0  0  0  0  0  0
   -1.9700   24.7180  -26.4410 C   0  0  0  0  0  0  0  0  0  0  0  0
   -2.8890   24.1970  -27.4240 N   0  0  0  0  0  0  0  0  0  0  0  0
   -2.4330   23.3160  -28.5090 C   0  0  0  0  0  0  0  0  0  0  0  0
   -3.5610   22.3620  -28.9280 C   0  0  0  0  0  0  0  0  0  0  0  0
   -4.8250   23.0630  -29.2900 N   0  0  0  0  0  0  0  0  0  0  0  0
   -4.9870   23.1150  -30.7290 C   0  0  0  0  0  0  0  0  0  0  0  0
   -4.7150   24.1780  -31.3560 O   0  0  0  0  0  0  0  0  0  0  0  0
   -5.4390   21.9250  -31.4880 C   0  0  0  0  0  0  0  0  0  0  0  0
   -4.4700   21.1200  -32.1040 C   0  0  0  0  0  0  0  0  0  0  0  0
   -4.8550   20.0070  -32.8690 C   0  0  0  0  0  0  0  0  0  0  0  0
   -3.8530   19.1380  -33.5400 C   0  0  0  0  0  0  0  0  0  0  0  0
   -2.4770   19.4390  -33.5010 C   0  0  0  0  0  0  0  0  0  0  0  0
   -1.5510   18.6020  -34.1330 C   0  0  0  0  0  0  0  0  0  0  0  0
   -1.9840   17.4550  -34.8020 C   0  0  0  0  0  0  0  0  0  0  0  0
   -3.3430   17.1400  -34.8370 C   0  0  0  0  0  0  0  0  0  0  0  0
   -4.2740   17.9710  -34.2070 C   0  0  0  0  0  0  0  0  0  0  0  0
   -6.1780   19.7310  -33.0180 N   0  0  0  0  0  0  0  0  0  0  0  0
   -7.1510   20.4790  -32.4350 C   0  0  0  0  0  0  0  0  0  0  0  0
   -8.4940   20.1270  -32.6190 C   0  0  0  0  0  0  0  0  0  0  0  0
   -9.5040   20.8690  -32.0040 C   0  0  0  0  0  0  0  0  0  0  0  0
   -9.1770   21.9600  -31.1960 C   0  0  0  0  0  0  0  0  0  0  0  0
   -7.8410   22.3240  -31.0080 C   0  0  0  0  0  0  0  0  0  0  0  0
   -6.8080   21.5980  -31.6390 C   0  0  0  0  0  0  0  0  0  0  0  0
   -4.9610   24.4290  -28.7240 C   0  0  0  0  0  0  0  0  0  0  0  0
   -4.3130   24.5420  -27.3410 C   0  0  0  0  0  0  0  0  0  0  0  0
   -0.9970   23.9100  -25.9330 N   0  0  0  0  0  0  0  0  0  0  0  0
    0.9190   23.4155  -23.3752 H   0  0  0  0  0  0  0  0  0  0  0  0
    0.7223   22.3823  -24.8314 H   0  0  0  0  0  0  0  0  0  0  0  0
    1.9273   23.7144  -24.8314 H   0  0  0  0  0  0  0  0  0  0  0  0
    0.5367   26.0103  -23.7661 H   0  0  0  0  0  0  0  0  0  0  0  0
   -1.2342   27.5390  -24.6508 H   0  0  0  0  0  0  0  0  0  0  0  0
   -2.8526   26.7086  -26.3654 H   0  0  0  0  0  0  0  0  0  0  0  0
   -2.1353   23.9282  -29.3731 H   0  0  0  0  0  0  0  0  0  0  0  0
   -1.5761   22.7244  -28.1544 H   0  0  0  0  0  0  0  0  0  0  0  0
   -3.2219   21.7824  -29.7993 H   0  0  0  0  0  0  0  0  0  0  0  0
   -3.7820   21.7204  -28.0623 H   0  0  0  0  0  0  0  0  0  0  0  0
   -5.6130   22.4990  -28.8910 H   0  0  0  0  0  0  0  0  0  0  0  0
   -3.4032   21.3615  -31.9874 H   0  0  0  0  0  0  0  0  0  0  0  0
   -2.1288   20.3375  -32.9705 H   0  0  0  0  0  0  0  0  0  0  0  0
   -0.4793   18.8479  -34.1029 H   0  0  0  0  0  0  0  0  0  0  0  0
   -1.2543   16.8004  -35.3010 H   0  0  0  0  0  0  0  0  0  0  0  0
   -3.6827   16.2350  -35.3619 H   0  0  0  0  0  0  0  0  0  0  0  0
   -5.3427   17.7117  -34.2323 H   0  0  0  0  0  0  0  0  0  0  0  0
   -8.7536   19.2639  -33.2496 H   0  0  0  0  0  0  0  0  0  0  0  0
  -10.5582   20.5941  -32.1560 H   0  0  0  0  0  0  0  0  0  0  0  0
   -9.9753   22.5359  -30.7049 H   0  0  0  0  0  0  0  0  0  0  0  0
   -7.5930   23.1811  -30.3647 H   0  0  0  0  0  0  0  0  0  0  0  0
   -4.4759   25.1453  -29.4035 H   0  0  0  0  0  0  0  0  0  0  0  0
   -6.0336   24.6479  -28.6165 H   0  0  0  0  0  0  0  0  0  0  0  0
   -4.4170   25.5735  -26.9732 H   0  0  0  0  0  0  0  0  0  0  0  0
   -4.8131   23.8472  -26.6502 H   0  0  0  0  0  0  0  0  0  0  0  0
  1  2  1  0
  2  3  2  0
  3  4  1  0
  4  5  2  0
  5  6  1  0
  6  7  1  0
  7  8  1  0
  8  9  1  0
  9 10  1  0
 10 11  1  0
 11 12  2  0
 11 13  1  0
 13 14  2  0
 14 15  1  0
 15 16  1  0
 16 17  2  0
 17 18  1  0
 18 19  2  0
 19 20  1  0
 20 21  2  0
 15 22  2  0
 22 23  1  0
 23 24  2  0
 24 25  1  0
 25 26  2  0
 26 27  1  0
 27 28  2  0
 10 29  1  0
 29 30  1  0
  6 31  2  0
 31  2  1  0
 30  7  1  0
 28 13  1  0
 21 16  1  0
 28 23  1  0
  1 32  1  0
  1 33  1  0
  1 34  1  0
  3 35  1  0
  4 36  1  0
  5 37  1  0
  8 38  1  0
  8 39  1  0
  9 40  1  0
  9 41  1  0
 10 42  1  0
 14 43  1  0
 17 44  1  0
 18 45  1  0
 19 46  1  0
 20 47  1  0
 21 48  1  0
 24 49  1  0
 25 50  1  0
 26 51  1  0
 27 52  1  0
 29 53  1  0
 29 54  1  0
 30 55  1  0
 30 56  1  0
M  CHG  1  10   1
M  END
>  <UniqueID>  (24) 
23

>  <SMILES>  (24) 
Cc1cccc(N2CC[NH+](C(=O)c3cc(-c4ccccc4)nc4ccccc34)CC2)n1

>  <Energy>  (24) 
85.59268939982691

>  <Genealogy>  (24) 
Cc1cccc(N2CC[NH+](C(=O)c3cc(-c4ccccc4)nc4ccccc34)CC2)n1 (protonated)
Cc1cccc(N2CC[NH+](C(=O)c3cc(-c4ccccc4)nc4ccccc34)CC2)n1 (3D coordinates assigned)
Cc1cccc(N2CC[NH+](C(=O)c3cc(-c4ccccc4)nc4ccccc34)CC2)n1 (nonaromatic ring conformer: 85.59268939982691 kcal/mol)

>  <smiles>  (24) 
Cc1cccc(N2CCN(C(=O)c3cc(-c4ccccc4)nc4ccccc34)CC2)n1

>  <score_type>  (24) 
oracle

>  <origin>  (24) 
adgpu

>  <m_score__min__energy>  (24) 
-9.3599999999999994

>  <m_primary>  (24) 
energy

$$$$
24:0
     RDKit          3D

 27 28  0  0  0  0  0  0  0  0999 V2000
   -6.4740   16.5410  -34.1070 C   0  0  0  0  0  0  0  0  0  0  0  0
   -6.3710   17.8820  -34.5730 O   0  0  0  0  0  0  0  0  0  0  0  0
   -5.8590   18.9470  -33.8170 C   0  0  0  0  0  0  0  0  0  0  0  0
   -4.4790   19.1720  -33.8340 C   0  0  0  0  0  0  0  0  0  0  0  0
   -3.9180   20.2200  -33.0980 C   0  0  0  0  0  0  0  0  0  0  0  0
   -4.7350   21.0680  -32.3260 C   0  0  0  0  0  0  0  0  0  0  0  0
   -4.1420   22.1810  -31.5430 C   0  0  0  0  0  0  0  0  0  0  0  0
   -4.7280   23.4090  -31.5410 N   0  0  0  0  0  0  0  0  0  0  0  0
   -4.2050   24.4410  -30.8320 C   0  0  0  0  0  0  0  0  0  0  0  0
   -4.7720   25.5640  -30.8510 O   0  0  0  0  0  0  0  0  0  0  0  0
   -3.0400   24.2510  -30.0840 C   0  0  0  0  0  0  0  0  0  0  0  0
   -2.4890   25.2980  -29.3510 O   0  0  0  0  0  0  0  0  0  0  0  0
   -2.4420   22.9840  -30.0920 C   0  0  0  0  0  0  0  0  0  0  0  0
   -1.1930   22.7170  -29.3110 C   0  0  0  0  0  0  0  0  0  0  0  0
   -3.0060   21.9830  -30.8190 N   0  0  0  0  0  0  0  0  0  0  0  0
   -6.1230   20.8390  -32.3100 C   0  0  0  0  0  0  0  0  0  0  0  0
   -6.6800   19.7900  -33.0480 C   0  0  0  0  0  0  0  0  0  0  0  0
   -6.4745   16.5341  -33.0070 H   0  0  0  0  0  0  0  0  0  0  0  0
   -7.4090   16.0951  -34.4769 H   0  0  0  0  0  0  0  0  0  0  0  0
   -5.6180   15.9575  -34.4769 H   0  0  0  0  0  0  0  0  0  0  0  0
   -3.8281   18.5177  -34.4326 H   0  0  0  0  0  0  0  0  0  0  0  0
   -2.8304   20.3832  -33.1222 H   0  0  0  0  0  0  0  0  0  0  0  0
   -1.4162   22.7647  -28.2349 H   0  0  0  0  0  0  0  0  0  0  0  0
   -0.8103   21.7168  -29.5621 H   0  0  0  0  0  0  0  0  0  0  0  0
   -0.4348   23.4734  -29.5621 H   0  0  0  0  0  0  0  0  0  0  0  0
   -6.7761   21.4911  -31.7115 H   0  0  0  0  0  0  0  0  0  0  0  0
   -7.7671   19.6235  -33.0267 H   0  0  0  0  0  0  0  0  0  0  0  0
  1  2  1  0
  2  3  1  0
  3  4  2  0
  4  5  1  0
  5  6  2  0
  6  7  1  0
  7  8  2  0
  8  9  1  0
  9 10  2  0
  9 11  1  0
 11 12  1  0
 11 13  2  0
 13 14  1  0
 13 15  1  0
  6 16  1  0
 16 17  2  0
 17  3  1  0
 15  7  1  0
  1 18  1  0
  1 19  1  0
  1 20  1  0
  4 21  1  0
  5 22  1  0
 14 23  1  0
 14 24  1  0
 14 25  1  0
 16 26  1  0
 17 27  1  0
M  CHG  2  12  -1  15  -1
M  END
>  <UniqueID>  (25) 
24

>  <SMILES>  (25) 
COc1ccc(-c2nc(=O)c([O-])c(C)[n-]2)cc1

>  <Energy>  (25) 
29.01049198113036

>  <Genealogy>  (25) 
COc1ccc(-c2nc(=O)c([O-])c(C)[n-]2)cc1 (protonated)
COc1ccc(-c2nc(=O)c([O-])c(C)[n-]2)cc1 (3D coordinates assigned)
COc1ccc(-c2nc(=O)c([O-])c(C)[n-]2)cc1 (optimized conformer: 29.01049198113036 kcal/mol)

>  <smiles>  (25) 
COc1ccc(-c2nc(=O)c(O)c(C)[nH]2)cc1

>  <score_type>  (25) 
oracle

>  <origin>  (25) 
adgpu

>  <m_score__min__energy>  (25) 
-9.3300000000000001

>  <m_primary>  (25) 
energy

$$$$
25:0
     RDKit          3D

 43 45  0  0  0  0  0  0  0  0999 V2000
   -3.8380   25.6790  -30.8260 O   0  0  0  0  0  0  0  0  0  0  0  0
   -4.7320   24.6750  -30.4780 C   0  0  0  0  0  0  0  0  0  0  0  0
   -4.4560   23.8370  -29.3930 C   0  0  0  0  0  0  0  0  0  0  0  0
   -5.3600   22.8330  -29.0370 C   0  0  0  0  0  0  0  0  0  0  0  0
   -6.5370   22.6580  -29.7690 C   0  0  0  0  0  0  0  0  0  0  0  0
   -6.8140   23.4800  -30.8760 C   0  0  0  0  0  0  0  0  0  0  0  0
   -8.0900   23.2990  -31.6610 C   0  0  0  0  0  0  0  0  0  0  0  0
   -8.1590   22.0210  -32.4020 N   0  0  0  0  0  0  0  0  0  0  0  0
   -6.8710   21.3740  -32.7170 C   0  0  0  0  0  0  0  0  0  0  0  0
   -6.5050   20.2440  -31.7370 C   0  0  0  0  0  0  0  0  0  0  0  0
   -7.6150   19.2980  -31.5080 N   0  0  0  0  0  0  0  0  0  0  0  0
   -7.8830   18.4060  -32.6570 C   0  0  0  0  0  0  0  0  0  0  0  0
   -6.5950   17.8640  -33.2180 C   0  0  0  0  0  0  0  0  0  0  0  0
   -5.8940   16.8490  -32.5460 C   0  0  0  0  0  0  0  0  0  0  0  0
   -4.7090   16.3370  -33.0850 C   0  0  0  0  0  0  0  0  0  0  0  0
   -4.2160   16.8320  -34.2990 C   0  0  0  0  0  0  0  0  0  0  0  0
   -3.0360   16.3300  -34.8450 O   0  0  0  0  0  0  0  0  0  0  0  0
   -4.9130   17.8410  -34.9720 C   0  0  0  0  0  0  0  0  0  0  0  0
   -6.0990   18.3540  -34.4360 C   0  0  0  0  0  0  0  0  0  0  0  0
   -8.8190   20.0120  -31.0500 C   0  0  0  0  0  0  0  0  0  0  0  0
   -9.2590   21.1080  -32.0350 C   0  0  0  0  0  0  0  0  0  0  0  0
   -5.9100   24.5020  -31.2120 C   0  0  0  0  0  0  0  0  0  0  0  0
   -3.5266   23.9684  -28.8195 H   0  0  0  0  0  0  0  0  0  0  0  0
   -5.1447   22.1792  -28.1790 H   0  0  0  0  0  0  0  0  0  0  0  0
   -7.2508   21.8732  -29.4780 H   0  0  0  0  0  0  0  0  0  0  0  0
   -8.9370   23.3397  -30.9603 H   0  0  0  0  0  0  0  0  0  0  0  0
   -8.1230   24.1050  -32.4088 H   0  0  0  0  0  0  0  0  0  0  0  0
   -6.9304   20.9519  -33.7311 H   0  0  0  0  0  0  0  0  0  0  0  0
   -6.0895   22.1438  -32.6354 H   0  0  0  0  0  0  0  0  0  0  0  0
   -5.6491   19.6878  -32.1470 H   0  0  0  0  0  0  0  0  0  0  0  0
   -6.2656   20.7111  -30.7703 H   0  0  0  0  0  0  0  0  0  0  0  0
   -8.5137   17.5682  -32.3250 H   0  0  0  0  0  0  0  0  0  0  0  0
   -8.3971   18.9816  -33.4408 H   0  0  0  0  0  0  0  0  0  0  0  0
   -6.2780   16.4556  -31.5932 H   0  0  0  0  0  0  0  0  0  0  0  0
   -4.1628   15.5435  -32.5540 H   0  0  0  0  0  0  0  0  0  0  0  0
   -2.7360   16.5820  -35.7800 H   0  0  0  0  0  0  0  0  0  0  0  0
   -4.5275   18.2321  -35.9251 H   0  0  0  0  0  0  0  0  0  0  0  0
   -6.6450   19.1447  -34.9714 H   0  0  0  0  0  0  0  0  0  0  0  0
   -9.6388   19.2872  -30.9383 H   0  0  0  0  0  0  0  0  0  0  0  0
   -8.5781   20.4975  -30.0928 H   0  0  0  0  0  0  0  0  0  0  0  0
   -9.6372   20.6277  -32.9495 H   0  0  0  0  0  0  0  0  0  0  0  0
  -10.0360   21.7077  -31.5384 H   0  0  0  0  0  0  0  0  0  0  0  0
   -6.1302   25.1702  -32.0576 H   0  0  0  0  0  0  0  0  0  0  0  0
  1  2  1  0
  2  3  2  0
  3  4  1  0
  4  5  2  0
  5  6  1  0
  6  7  1  0
  7  8  1  0
  8  9  1  0
  9 10  1  0
 10 11  1  0
 11 12  1  0
 12 13  1  0
 13 14  2  0
 14 15  1  0
 15 16  2  0
 16 17  1  0
 16 18  1  0
 18 19  2  0
 11 20  1  0
 20 21  1  0
  6 22  2  0
 22  2  1  0
 21  8  1  0
 19 13  1  0
  3 23  1  0
  4 24  1  0
  5 25  1  0
  7 26  1  0
  7 27  1  0
  9 28  1  0
  9 29  1  0
 10 30  1  0
 10 31  1  0
 12 32  1  0
 12 33  1  0
 14 34  1  0
 15 35  1  0
 17 36  1  0
 18 37  1  0
 19 38  1  0
 20 39  1  0
 20 40  1  0
 21 41  1  0
 21 42  1  0
 22 43  1  0
M  CHG  1   1  -1
M  END
>  <UniqueID>  (26) 
25

>  <SMILES>  (26) 
[O-]c1cccc(CN2CCN(Cc3ccc(O)cc3)CC2)c1

>  <Energy>  (26) 
56.08470559895861

>  <Genealogy>  (26) 
[O-]c1cccc(CN2CCN(Cc3ccc(O)cc3)CC2)c1 (protonated)
[O-]c1cccc(CN2CCN(Cc3ccc(O)cc3)CC2)c1 (3D coordinates assigned)
[O-]c1cccc(CN2CCN(Cc3ccc(O)cc3)CC2)c1 (nonaromatic ring conformer: 56.08470559895861 kcal/mol)

>  <smiles>  (26) 
Oc1ccc(CN2CCN(Cc3cccc(O)c3)CC2)cc1

>  <score_type>  (26) 
oracle

>  <origin>  (26) 
adgpu

>  <m_score__min__energy>  (26) 
-10.68

>  <m_primary>  (26) 
energy

$$$$
26:0
     RDKit          3D

 58 59  0  0  0  0  0  0  0  0999 V2000
   -4.0730   19.2430  -33.6320 C   0  0  0  0  0  0  0  0  0  0  0  0
   -4.9250   20.2940  -32.9860 C   0  0  0  0  0  0  0  0  0  0  0  0
   -4.3520   21.4980  -32.5520 C   0  0  0  0  0  0  0  0  0  0  0  0
   -5.1550   22.5050  -31.9930 C   0  0  0  0  0  0  0  0  0  0  0  0
   -4.6100   23.7150  -31.5340 O   0  0  0  0  0  0  0  0  0  0  0  0
   -4.0370   23.9190  -30.2700 C   0  0  0  0  0  0  0  0  0  0  0  0
   -4.8660   24.3040  -29.2100 C   0  0  0  0  0  0  0  0  0  0  0  0
   -4.3320   24.5200  -27.9370 C   0  0  0  0  0  0  0  0  0  0  0  0
   -2.9560   24.3580  -27.7050 C   0  0  0  0  0  0  0  0  0  0  0  0
   -2.3770   24.5790  -26.3220 C   0  0  0  0  0  0  0  0  0  0  0  0
   -0.9090   24.3780  -26.2390 N   0  0  0  0  0  0  0  0  0  0  0  0
   -0.5430   23.4250  -25.1770 C   0  0  0  0  0  0  0  0  0  0  0  0
   -0.1300   25.6300  -26.1120 C   0  0  0  0  0  0  0  0  0  0  0  0
    0.9640   25.5010  -25.0320 C   0  0  0  0  0  0  0  0  0  0  0  0
    0.5400   26.0600  -23.7250 N   0  0  0  0  0  0  0  0  0  0  0  0
    1.4050   27.1980  -23.3640 C   0  0  0  0  0  0  0  0  0  0  0  0
   -0.8680   26.5000  -23.7540 C   0  0  0  0  0  0  0  0  0  0  0  0
   -2.1200   24.0110  -28.7790 C   0  0  0  0  0  0  0  0  0  0  0  0
   -2.6540   23.7950  -30.0520 C   0  0  0  0  0  0  0  0  0  0  0  0
   -6.5290   22.2910  -31.8470 C   0  0  0  0  0  0  0  0  0  0  0  0
   -7.1230   21.0980  -32.2910 C   0  0  0  0  0  0  0  0  0  0  0  0
   -8.6200   20.8980  -32.1470 C   0  0  0  0  0  0  0  0  0  0  0  0
   -8.9860   19.4100  -32.2020 C   0  0  0  0  0  0  0  0  0  0  0  0
   -9.1440   21.5480  -30.8610 C   0  0  0  0  0  0  0  0  0  0  0  0
   -6.3110   20.1070  -32.8730 C   0  0  0  0  0  0  0  0  0  0  0  0
   -3.5832   18.6388  -32.8541 H   0  0  0  0  0  0  0  0  0  0  0  0
   -4.7030   18.5939  -34.2579 H   0  0  0  0  0  0  0  0  0  0  0  0
   -3.3076   19.7251  -34.2579 H   0  0  0  0  0  0  0  0  0  0  0  0
   -3.2676   21.6544  -32.6500 H   0  0  0  0  0  0  0  0  0  0  0  0
   -5.9445   24.4373  -29.3802 H   0  0  0  0  0  0  0  0  0  0  0  0
   -4.9937   24.8190  -27.1107 H   0  0  0  0  0  0  0  0  0  0  0  0
   -2.6020   25.6109  -26.0144 H   0  0  0  0  0  0  0  0  0  0  0  0
   -2.8371   23.8284  -25.6625 H   0  0  0  0  0  0  0  0  0  0  0  0
   -0.7200   23.8858  -24.1940 H   0  0  0  0  0  0  0  0  0  0  0  0
   -1.1563   22.5168  -25.2720 H   0  0  0  0  0  0  0  0  0  0  0  0
    0.5206   23.1608  -25.2720 H   0  0  0  0  0  0  0  0  0  0  0  0
    0.3448   25.8564  -27.0781 H   0  0  0  0  0  0  0  0  0  0  0  0
   -0.8159   26.4379  -25.8173 H   0  0  0  0  0  0  0  0  0  0  0  0
    1.2046   24.4359  -24.8989 H   0  0  0  0  0  0  0  0  0  0  0  0
    1.8393   26.0736  -25.3725 H   0  0  0  0  0  0  0  0  0  0  0  0
    0.6480   25.3320  -22.9800 H   0  0  0  0  0  0  0  0  0  0  0  0
    1.4665   27.2789  -22.2687 H   0  0  0  0  0  0  0  0  0  0  0  0
    2.4120   27.0386  -23.7770 H   0  0  0  0  0  0  0  0  0  0  0  0
    0.9819   28.1256  -23.7770 H   0  0  0  0  0  0  0  0  0  0  0  0
   -1.2374   26.6154  -22.7243 H   0  0  0  0  0  0  0  0  0  0  0  0
   -0.9403   27.4636  -24.2797 H   0  0  0  0  0  0  0  0  0  0  0  0
   -1.4761   25.7490  -24.2797 H   0  0  0  0  0  0  0  0  0  0  0  0
   -1.0369   23.9085  -28.6167 H   0  0  0  0  0  0  0  0  0  0  0  0
   -1.9896   23.5269  -30.8867 H   0  0  0  0  0  0  0  0  0  0  0  0
   -7.1527   23.0666  -31.3786 H   0  0  0  0  0  0  0  0  0  0  0  0
   -9.1081   21.3962  -32.9976 H   0  0  0  0  0  0  0  0  0  0  0  0
   -9.0824   19.0181  -31.1787 H   0  0  0  0  0  0  0  0  0  0  0  0
   -9.9412   19.2868  -32.7334 H   0  0  0  0  0  0  0  0  0  0  0  0
   -8.1969   18.8577  -32.7334 H   0  0  0  0  0  0  0  0  0  0  0  0
   -8.7234   21.0262  -29.9887 H   0  0  0  0  0  0  0  0  0  0  0  0
   -8.8430   22.6057  -30.8358 H   0  0  0  0  0  0  0  0  0  0  0  0
  -10.2415   21.4784  -30.8358 H   0  0  0  0  0  0  0  0  0  0  0  0
   -6.7672   19.1769  -33.2429 H   0  0  0  0  0  0  0  0  0  0  0  0
  1  2  1  0
  2  3  2  0
  3  4  1  0
  4  5  1  0
  5  6  1  0
  6  7  2  0
  7  8  1  0
  8  9  2  0
  9 10  1  0
 10 11  1  0
 11 12  1  0
 11 13  1  0
 13 14  1  0
 14 15  1  0
 15 16  1  0
 15 17  1  0
  9 18  1  0
 18 19  2  0
  4 20  2  0
 20 21  1  0
 21 22  1  0
 22 23  1  0
 22 24  1  0
 21 25  2  0
 25  2  1  0
 19  6  1  0
  1 26  1  0
  1 27  1  0
  1 28  1  0
  3 29  1  0
  7 30  1  0
  8 31  1  0
 10 32  1  0
 10 33  1  0
 12 34  1  0
 12 35  1  0
 12 36  1  0
 13 37  1  0
 13 38  1  0
 14 39  1  0
 14 40  1  0
 15 41  1  0
 16 42  1  0
 16 43  1  0
 16 44  1  0
 17 45  1  0
 17 46  1  0
 17 47  1  0
 18 48  1  0
 19 49  1  0
 20 50  1  0
 22 51  1  0
 23 52  1  0
 23 53  1  0
 23 54  1  0
 24 55  1  0
 24 56  1  0
 24 57  1  0
 25 58  1  0
M  CHG  1  15   1
M  END
>  <UniqueID>  (27) 
26

>  <SMILES>  (27) 
Cc1cc(Oc2ccc(CN(C)CC[NH+](C)C)cc2)cc(C(C)C)c1

>  <Energy>  (27) 
62.068490931076546

>  <Genealogy>  (27) 
Cc1cc(Oc2ccc(CN(C)CC[NH+](C)C)cc2)cc(C(C)C)c1 (protonated)
Cc1cc(Oc2ccc(CN(C)CC[NH+](C)C)cc2)cc(C(C)C)c1 (3D coordinates assigned)
Cc1cc(Oc2ccc(CN(C)CC[NH+](C)C)cc2)cc(C(C)C)c1 (optimized conformer: 62.068490931076546 kcal/mol)

>  <smiles>  (27) 
Cc1cc(Oc2ccc(CN(C)CCN(C)C)cc2)cc(C(C)C)c1

>  <score_type>  (27) 
oracle

>  <origin>  (27) 
adgpu

>  <m_score__min__energy>  (27) 
-8.4700000000000006

>  <m_primary>  (27) 
energy

$$$$
27:0
     RDKit          3D

 68 71  0  0  1  0  0  0  0  0999 V2000
   -4.7480   23.8330  -29.8020 C   0  0  0  0  0  0  0  0  0  0  0  0
   -4.3400   23.4280  -31.1030 O   0  0  0  0  0  0  0  0  0  0  0  0
   -3.8980   22.1640  -31.4260 C   0  0  0  0  0  0  0  0  0  0  0  0
   -2.5550   21.8830  -31.2690 C   0  0  0  0  0  0  0  0  0  0  0  0
   -1.6740   22.8890  -30.7860 N   0  0  0  0  0  0  0  0  0  0  0  0
   -1.2670   23.0180  -29.5910 C   0  0  0  0  0  0  0  0  0  0  0  0
   -1.6830   22.1430  -28.6660 N   0  0  0  0  0  0  0  0  0  0  0  0
   -1.2410   22.3000  -27.4170 C   0  0  0  0  0  0  0  0  0  0  0  0
   -0.3850   23.3230  -27.0780 C   0  0  0  0  0  0  0  0  0  0  0  0
    0.0750   23.4980  -25.8140 F   0  0  0  0  0  0  0  0  0  0  0  0
    0.0130   24.1930  -28.0570 C   0  0  0  0  0  0  0  0  0  0  0  0
    0.8030   25.1490  -27.7780 N   0  0  0  0  0  0  0  0  0  0  0  0
    1.3320   25.4130  -26.5000 C   0  0  0  0  0  0  0  0  0  0  0  0
    2.5450   24.7910  -26.1850 C   0  0  0  0  0  0  0  0  0  0  0  0
    3.1410   24.9850  -24.9610 C   0  0  0  0  0  0  0  0  0  0  0  0
    2.5100   25.8110  -24.0520 C   0  0  0  0  0  0  0  0  0  0  0  0
    1.3150   26.4430  -24.3240 C   0  0  0  0  0  0  0  0  0  0  0  0
    0.7140   26.2400  -25.5720 C   0  0  0  0  0  0  0  0  0  0  0  0
   -0.7880   27.0020  -25.9800 S   0  0  0  0  0  0  0  0  0  0  0  0
   -0.9540   28.6090  -25.2480 C   0  0  0  0  0  0  0  0  0  0  0  0
   -0.8390   27.1880  -27.4820 O   0  0  0  0  0  0  0  0  0  0  0  0
   -1.9440   26.1210  -25.6300 O   0  0  0  0  0  0  0  0  0  0  0  0
   -0.4290   24.0400  -29.3190 N   0  0  0  0  0  0  0  0  0  0  0  0
   -2.0460   20.6260  -31.5770 C   0  0  0  0  0  0  0  0  0  0  0  0
   -2.9430   19.6680  -32.0470 C   0  0  0  0  0  0  0  0  0  0  0  0
   -4.2850   19.9400  -32.2080 C   0  0  0  0  0  0  0  0  0  0  0  0
   -4.7620   21.1960  -31.8940 C   0  0  0  0  0  0  0  0  0  0  0  0
   -6.1720   21.6520  -32.0050 C   0  0  0  0  0  0  0  0  0  0  0  0
   -6.8420   21.0580  -33.2120 C   0  0  0  0  0  0  0  0  0  0  0  0
   -7.2590   19.6990  -33.0710 N   0  0  0  0  0  0  0  0  0  0  0  0
   -8.6390   19.6770  -32.7200 C   0  0  0  0  0  0  0  0  0  0  0  0
   -8.9520   19.9280  -31.2750 C   0  0  0  0  0  0  0  0  0  0  0  0
   -9.2450   21.6460  -30.9450 S   0  0  0  0  0  0  0  0  0  0  0  0
   -7.9940   22.3170  -29.8450 C   0  0  0  0  0  0  0  0  0  0  0  0
  -10.6290   21.9030  -30.4210 O   0  0  0  0  0  0  0  0  0  0  0  0
   -9.1330   22.4660  -32.2160 O   0  0  0  0  0  0  0  0  0  0  0  0
   -6.4480   18.8760  -32.2330 C   0  0  0  0  0  0  0  0  0  0  0  0
   -5.0150   18.7620  -32.7180 C   0  0  0  0  0  0  0  0  0  0  0  0
   -4.1799   23.2691  -29.0475 H   0  0  0  0  0  0  0  0  0  0  0  0
   -4.5571   24.9090  -29.6762 H   0  0  0  0  0  0  0  0  0  0  0  0
   -5.8225   23.6341  -29.6762 H   0  0  0  0  0  0  0  0  0  0  0  0
   -2.3240   21.3870  -28.9480 H   0  0  0  0  0  0  0  0  0  0  0  0
   -1.5687   21.5946  -26.6392 H   0  0  0  0  0  0  0  0  0  0  0  0
    3.0285   24.1380  -26.9265 H   0  0  0  0  0  0  0  0  0  0  0  0
    4.0943   24.4956  -24.7128 H   0  0  0  0  0  0  0  0  0  0  0  0
    2.9800   25.9715  -23.0705 H   0  0  0  0  0  0  0  0  0  0  0  0
    0.8426   27.0947  -23.5742 H   0  0  0  0  0  0  0  0  0  0  0  0
   -0.9443   28.5155  -24.1520 H   0  0  0  0  0  0  0  0  0  0  0  0
   -0.1169   29.2464  -25.5690 H   0  0  0  0  0  0  0  0  0  0  0  0
   -1.9037   29.0618  -25.5690 H   0  0  0  0  0  0  0  0  0  0  0  0
   -0.1100   24.7170  -30.0430 H   0  0  0  0  0  0  0  0  0  0  0  0
   -0.9772   20.3966  -31.4545 H   0  0  0  0  0  0  0  0  0  0  0  0
   -2.5687   18.6643  -32.2971 H   0  0  0  0  0  0  0  0  0  0  0  0
   -6.7206   21.3446  -31.1025 H   0  0  0  0  0  0  0  0  0  0  0  0
   -6.1768   22.7472  -32.1077 H   0  0  0  0  0  0  0  0  0  0  0  0
   -7.7309   21.6644  -33.4403 H   0  0  0  0  0  0  0  0  0  0  0  0
   -6.0877   21.0635  -34.0126 H   0  0  0  0  0  0  0  0  0  0  0  0
   -9.1502   20.4486  -33.3144 H   0  0  0  0  0  0  0  0  0  0  0  0
   -8.9817   18.6520  -32.9248 H   0  0  0  0  0  0  0  0  0  0  0  0
   -9.8511   19.3560  -31.0022 H   0  0  0  0  0  0  0  0  0  0  0  0
   -8.0824   19.6121  -30.6800 H   0  0  0  0  0  0  0  0  0  0  0  0
   -8.2984   22.1537  -28.8006 H   0  0  0  0  0  0  0  0  0  0  0  0
   -7.0342   21.8126  -30.0303 H   0  0  0  0  0  0  0  0  0  0  0  0
   -7.8832   23.3956  -30.0303 H   0  0  0  0  0  0  0  0  0  0  0  0
   -6.4417   19.3060  -31.2205 H   0  0  0  0  0  0  0  0  0  0  0  0
   -6.8809   17.8649  -32.2485 H   0  0  0  0  0  0  0  0  0  0  0  0
   -4.5585   17.8392  -32.3305 H   0  0  0  0  0  0  0  0  0  0  0  0
   -4.9770   18.7253  -33.8167 H   0  0  0  0  0  0  0  0  0  0  0  0
  1  2  1  0
  2  3  1  0
  3  4  2  0
  4  5  1  0
  5  6  2  0
  6  7  1  0
  7  8  1  0
  8  9  2  0
  9 10  1  0
  9 11  1  0
 11 12  2  0
 12 13  1  0
 13 14  2  0
 14 15  1  0
 15 16  2  0
 16 17  1  0
 17 18  2  0
 18 19  1  0
 19 20  1  0
 19 21  2  0
 19 22  2  0
 11 23  1  0
  4 24  1  0
 24 25  2  0
 25 26  1  0
 26 27  2  0
 27 28  1  0
 28 29  1  0
 29 30  1  0
 30 31  1  0
 31 32  1  0
 32 33  1  0
 33 34  1  0
 33 35  2  0
 33 36  2  0
 30 37  1  0
 37 38  1  0
 27  3  1  0
 23  6  1  0
 38 26  1  0
 18 13  1  0
  1 39  1  0
  1 40  1  0
  1 41  1  0
  7 42  1  0
  8 43  1  0
 14 44  1  0
 15 45  1  0
 16 46  1  0
 17 47  1  0
 20 48  1  0
 20 49  1  0
 20 50  1  0
 23 51  1  0
 24 52  1  0
 25 53  1  0
 28 54  1  0
 28 55  1  0
 29 56  1  0
 29 57  1  0
 31 58  1  0
 31 59  1  0
 32 60  1  0
 32 61  1  0
 34 62  1  0
 34 63  1  0
 34 64  1  0
 37 65  1  0
 37 66  1  0
 38 67  1  0
 38 68  1  0
M  END
>  <smiles>  (28) 
COc1c(N=c2[nH]cc(F)c(=Nc3ccccc3S(C)(=O)=O)[nH]2)ccc2c1CCN(CCS(C)(=O)=O)CC2

>  <score_type>  (28) 
oracle

>  <origin>  (28) 
adgpu

>  <m_score__min__energy>  (28) 
-9.6799999999999997

>  <m_primary>  (28) 
energy

$$$$
28:0
     RDKit          3D

 46 47  0  0  0  0  0  0  0  0999 V2000
   -7.3850   20.0820  -32.7760 C   0  0  0  0  0  0  0  0  0  0  0  0
   -7.4070   18.2630  -32.7560 S   0  0  0  0  0  0  0  0  0  0  0  0
   -5.6910   18.1140  -33.2780 C   0  0  0  0  0  0  0  0  0  0  0  0
   -4.9220   19.2740  -33.4140 C   0  0  0  0  0  0  0  0  0  0  0  0
   -3.5770   19.2050  -33.8120 C   0  0  0  0  0  0  0  0  0  0  0  0
   -2.7660   20.4770  -33.9080 C   0  0  0  0  0  0  0  0  0  0  0  0
   -2.6570   21.1510  -32.5680 C   0  0  0  0  0  0  0  0  0  0  0  0
   -1.6890   20.8670  -31.6740 N   0  0  0  0  0  0  0  0  0  0  0  0
   -1.9540   21.5770  -30.5600 C   0  0  0  0  0  0  0  0  0  0  0  0
   -1.1310   21.5010  -29.3140 C   0  0  0  0  0  0  0  0  0  0  0  0
   -3.0950   22.3440  -30.7410 C   0  0  0  0  0  0  0  0  0  0  0  0
   -3.7760   23.1980  -29.7070 C   0  0  0  0  0  0  0  0  0  0  0  0
   -3.4940   24.6460  -29.9610 C   0  0  0  0  0  0  0  0  0  0  0  0
   -2.3850   25.2790  -29.3280 N   0  0  0  0  0  0  0  0  0  0  0  0
   -4.2240   25.3000  -30.7520 O   0  0  0  0  0  0  0  0  0  0  0  0
   -3.5410   22.0790  -32.0290 C   0  0  0  0  0  0  0  0  0  0  0  0
   -4.8020   22.5890  -32.6600 C   0  0  0  0  0  0  0  0  0  0  0  0
   -3.0120   17.9420  -34.0890 C   0  0  0  0  0  0  0  0  0  0  0  0
   -1.3440   17.7630  -34.6190 Cl  0  0  0  0  0  0  0  0  0  0  0  0
   -3.7840   16.7830  -33.9530 C   0  0  0  0  0  0  0  0  0  0  0  0
   -5.1240   16.8560  -33.5380 C   0  0  0  0  0  0  0  0  0  0  0  0
   -5.9310   15.6790  -33.3720 N   0  0  0  0  0  0  0  0  0  0  0  0
   -5.3950   14.0410  -33.5540 S   0  0  0  0  0  0  0  0  0  0  0  0
   -4.6200   13.4750  -32.0540 C   0  0  0  0  0  0  0  0  0  0  0  0
   -6.5880   13.1730  -33.8370 O   0  0  0  0  0  0  0  0  0  0  0  0
   -4.4390   13.9400  -34.7110 O   0  0  0  0  0  0  0  0  0  0  0  0
   -7.3804   20.4600  -31.7430 H   0  0  0  0  0  0  0  0  0  0  0  0
   -6.4826   20.4321  -33.2985 H   0  0  0  0  0  0  0  0  0  0  0  0
   -8.2787   20.4538  -33.2985 H   0  0  0  0  0  0  0  0  0  0  0  0
   -5.3768   20.2538  -33.2064 H   0  0  0  0  0  0  0  0  0  0  0  0
   -1.7566   20.2332  -34.2708 H   0  0  0  0  0  0  0  0  0  0  0  0
   -3.2715   21.1624  -34.6042 H   0  0  0  0  0  0  0  0  0  0  0  0
   -0.8950   20.2020  -31.8070 H   0  0  0  0  0  0  0  0  0  0  0  0
   -1.7898   21.5618  -28.4352 H   0  0  0  0  0  0  0  0  0  0  0  0
   -0.5815   20.5483  -29.2951 H   0  0  0  0  0  0  0  0  0  0  0  0
   -0.4163   22.3370  -29.2951 H   0  0  0  0  0  0  0  0  0  0  0  0
   -4.8616   23.0264  -29.7525 H   0  0  0  0  0  0  0  0  0  0  0  0
   -3.3930   22.9283  -28.7117 H   0  0  0  0  0  0  0  0  0  0  0  0
   -1.5990   25.6730  -29.8920 H   0  0  0  0  0  0  0  0  0  0  0  0
   -5.5149   22.8773  -31.8735 H   0  0  0  0  0  0  0  0  0  0  0  0
   -4.5713   23.4645  -33.2847 H   0  0  0  0  0  0  0  0  0  0  0  0
   -5.2448   21.7993  -33.2847 H   0  0  0  0  0  0  0  0  0  0  0  0
   -3.3362   15.8028  -34.1737 H   0  0  0  0  0  0  0  0  0  0  0  0
   -5.1659   13.8737  -31.1862 H   0  0  0  0  0  0  0  0  0  0  0  0
   -4.6374   12.3755  -32.0246 H   0  0  0  0  0  0  0  0  0  0  0  0
   -3.5780   13.8261  -32.0246 H   0  0  0  0  0  0  0  0  0  0  0  0
  1  2  1  0
  2  3  1  0
  3  4  2  0
  4  5  1  0
  5  6  1  0
  6  7  1  0
  7  8  1  0
  8  9  1  0
  9 10  1  0
  9 11  2  0
 11 12  1  0
 12 13  1  0
 13 14  1  0
 13 15  2  0
 11 16  1  0
 16 17  1  0
  5 18  2  0
 18 19  1  0
 18 20  1  0
 20 21  2  0
 21 22  1  0
 22 23  1  0
 23 24  1  0
 23 25  2  0
 23 26  2  0
 21  3  1  0
 16  7  2  0
  1 27  1  0
  1 28  1  0
  1 29  1  0
  4 30  1  0
  6 31  1  0
  6 32  1  0
  8 33  1  0
 10 34  1  0
 10 35  1  0
 10 36  1  0
 12 37  1  0
 12 38  1  0
 14 39  1  0
 17 40  1  0
 17 41  1  0
 17 42  1  0
 20 43  1  0
 24 44  1  0
 24 45  1  0
 24 46  1  0
M  CHG  2  14  -1  22  -1
M  END
>  <UniqueID>  (29) 
27

>  <SMILES>  (29) 
CSc1cc(Cc2[nH]c(C)c(CC([NH-])=O)c2C)c(Cl)cc1[N-]S(C)(=O)=O

>  <Energy>  (29) 
60.739084729880034

>  <Genealogy>  (29) 
CSc1cc(Cc2[nH]c(C)c(CC([NH-])=O)c2C)c(Cl)cc1[N-]S(C)(=O)=O (protonated)
CSc1cc(Cc2[nH]c(C)c(CC([NH-])=O)c2C)c(Cl)cc1[N-]S(C)(=O)=O (3D coordinates assigned)
CSc1cc(Cc2[nH]c(C)c(CC([NH-])=O)c2C)c(Cl)cc1[N-]S(C)(=O)=O (optimized conformer: 60.739084729880034 kcal/mol)

>  <smiles>  (29) 
CSc1cc(Cc2[nH]c(C)c(CC(N)=O)c2C)c(Cl)cc1NS(C)(=O)=O

>  <score_type>  (29) 
oracle

>  <origin>  (29) 
adgpu

>  <m_score__min__energy>  (29) 
-11.51

>  <m_primary>  (29) 
energy

$$$$
29:0
     RDKit          3D

 52 54  0  0  0  0  0  0  0  0999 V2000
   -3.1440   21.2040  -33.0790 C   0  0  0  0  0  0  0  0  0  0  0  0
   -2.8450   20.0530  -32.1770 C   0  0  0  0  0  0  0  0  0  0  0  0
   -2.2720   18.9850  -32.7760 O   0  0  0  0  0  0  0  0  0  0  0  0
   -2.5360   17.7090  -33.0860 C   0  0  0  0  0  0  0  0  0  0  0  0
   -1.4500   16.8640  -33.1540 N   0  0  0  0  0  0  0  0  0  0  0  0
   -1.5580   15.5720  -33.4530 C   0  0  0  0  0  0  0  0  0  0  0  0
   -0.4980   14.8230  -33.5020 N   0  0  0  0  0  0  0  0  0  0  0  0
   -2.7340   14.9870  -33.7130 N   0  0  0  0  0  0  0  0  0  0  0  0
   -3.8300   15.7560  -33.6620 C   0  0  0  0  0  0  0  0  0  0  0  0
   -4.9790   15.2010  -33.9120 N   0  0  0  0  0  0  0  0  0  0  0  0
   -3.7470   17.1230  -33.3500 C   0  0  0  0  0  0  0  0  0  0  0  0
   -5.0230   17.8180  -33.3160 C   0  0  0  0  0  0  0  0  0  0  0  0
   -6.0170   17.4910  -32.4200 C   0  0  0  0  0  0  0  0  0  0  0  0
   -7.2170   18.1800  -32.3540 C   0  0  0  0  0  0  0  0  0  0  0  0
   -7.4600   19.2240  -33.1900 C   0  0  0  0  0  0  0  0  0  0  0  0
   -8.7050   19.9350  -33.1190 N   0  0  0  0  0  0  0  0  0  0  0  0
   -9.1020   20.5300  -31.8620 C   0  0  0  0  0  0  0  0  0  0  0  0
   -8.0480   21.5220  -31.4950 C   0  0  0  0  0  0  0  0  0  0  0  0
   -6.7960   21.1080  -31.0720 C   0  0  0  0  0  0  0  0  0  0  0  0
   -5.8850   22.0910  -30.7520 C   0  0  0  0  0  0  0  0  0  0  0  0
   -6.1740   23.4410  -30.8390 C   0  0  0  0  0  0  0  0  0  0  0  0
   -4.9390   24.6210  -30.4070 S   0  0  0  0  0  0  0  0  0  0  0  0
   -4.6940   24.4990  -28.6610 C   0  0  0  0  0  0  0  0  0  0  0  0
   -3.6920   24.1780  -31.1420 O   0  0  0  0  0  0  0  0  0  0  0  0
   -5.3250   25.9890  -30.8530 O   0  0  0  0  0  0  0  0  0  0  0  0
   -7.4300   23.8260  -31.2630 C   0  0  0  0  0  0  0  0  0  0  0  0
   -8.3770   22.8750  -31.5930 C   0  0  0  0  0  0  0  0  0  0  0  0
   -6.4950   19.5820  -34.1000 C   0  0  0  0  0  0  0  0  0  0  0  0
   -5.3090   18.8990  -34.1610 C   0  0  0  0  0  0  0  0  0  0  0  0
   -3.3750   22.0934  -32.4743 H   0  0  0  0  0  0  0  0  0  0  0  0
   -2.2694   21.4093  -33.7137 H   0  0  0  0  0  0  0  0  0  0  0  0
   -4.0080   20.9576  -33.7137 H   0  0  0  0  0  0  0  0  0  0  0  0
   -2.1643   20.4066  -31.3886 H   0  0  0  0  0  0  0  0  0  0  0  0
   -3.8161   19.7041  -31.7958 H   0  0  0  0  0  0  0  0  0  0  0  0
   -0.4810   17.2270  -32.9670 H   0  0  0  0  0  0  0  0  0  0  0  0
   -0.5200   13.8210  -33.7280 H   0  0  0  0  0  0  0  0  0  0  0  0
   -2.7950   13.9740  -33.9450 H   0  0  0  0  0  0  0  0  0  0  0  0
   -4.9780   14.1840  -34.1380 H   0  0  0  0  0  0  0  0  0  0  0  0
   -5.8514   16.6503  -31.7303 H   0  0  0  0  0  0  0  0  0  0  0  0
   -7.9790   17.8800  -31.6196 H   0  0  0  0  0  0  0  0  0  0  0  0
   -9.2930   19.9990  -33.9970 H   0  0  0  0  0  0  0  0  0  0  0  0
  -10.0731   21.0346  -31.9732 H   0  0  0  0  0  0  0  0  0  0  0  0
   -9.2072   19.7626  -31.0809 H   0  0  0  0  0  0  0  0  0  0  0  0
   -6.5400   20.0410  -30.9948 H   0  0  0  0  0  0  0  0  0  0  0  0
   -4.8834   21.7888  -30.4122 H   0  0  0  0  0  0  0  0  0  0  0  0
   -5.5603   24.9304  -28.1382 H   0  0  0  0  0  0  0  0  0  0  0  0
   -4.5849   23.4414  -28.3791 H   0  0  0  0  0  0  0  0  0  0  0  0
   -3.7842   25.0493  -28.3791 H   0  0  0  0  0  0  0  0  0  0  0  0
   -7.6783   24.8949  -31.3386 H   0  0  0  0  0  0  0  0  0  0  0  0
   -9.3787   23.1809  -31.9291 H   0  0  0  0  0  0  0  0  0  0  0  0
   -6.6760   20.4235  -34.7849 H   0  0  0  0  0  0  0  0  0  0  0  0
   -4.5548   19.2099  -34.8990 H   0  0  0  0  0  0  0  0  0  0  0  0
  1  2  1  0
  2  3  1  0
  3  4  1  0
  4  5  1  0
  5  6  1  0
  6  7  2  3
  6  8  1  0
  8  9  1  0
  9 10  2  3
  9 11  1  0
 11 12  1  0
 12 13  2  0
 13 14  1  0
 14 15  2  0
 15 16  1  0
 16 17  1  0
 17 18  1  0
 18 19  2  0
 19 20  1  0
 20 21  2  0
 21 22  1  0
 22 23  1  0
 22 24  2  0
 22 25  2  0
 21 26  1  0
 26 27  2  0
 15 28  1  0
 28 29  2  0
 11  4  2  0
 29 12  1  0
 27 18  1  0
  1 30  1  0
  1 31  1  0
  1 32  1  0
  2 33  1  0
  2 34  1  0
  5 35  1  0
  7 36  1  0
  8 37  1  0
 10 38  1  0
 13 39  1  0
 14 40  1  0
 16 41  1  0
 17 42  1  0
 17 43  1  0
 19 44  1  0
 20 45  1  0
 23 46  1  0
 23 47  1  0
 23 48  1  0
 26 49  1  0
 27 50  1  0
 28 51  1  0
 29 52  1  0
M  END
>  <smiles>  (30) 
CCOc1[nH]c(=N)[nH]c(=N)c1-c1ccc(NCc2ccc(S(C)(=O)=O)cc2)cc1

>  <score_type>  (30) 
oracle

>  <origin>  (30) 
adgpu

>  <m_score__min__energy>  (30) 
-9.0899999999999999

>  <m_primary>  (30) 
energy

$$$$
30:0
     RDKit          3D

 45 47  0  0  0  0  0  0  0  0999 V2000
   -1.6390   25.4430  -27.4820 C   0  0  0  0  0  0  0  0  0  0  0  0
   -2.0040   25.3740  -28.8570 O   0  0  0  0  0  0  0  0  0  0  0  0
   -2.2790   24.1830  -29.5470 C   0  0  0  0  0  0  0  0  0  0  0  0
   -1.5250   23.0110  -29.3470 C   0  0  0  0  0  0  0  0  0  0  0  0
   -1.8270   21.8460  -30.0540 C   0  0  0  0  0  0  0  0  0  0  0  0
   -2.8790   21.8320  -30.9840 C   0  0  0  0  0  0  0  0  0  0  0  0
   -3.2280   20.6360  -31.7020 N   0  0  0  0  0  0  0  0  0  0  0  0
   -2.4910   20.1260  -32.8260 C   0  0  0  0  0  0  0  0  0  0  0  0
   -1.6680   20.8580  -33.4380 O   0  0  0  0  0  0  0  0  0  0  0  0
   -2.7090   18.7510  -33.2890 C   0  0  0  0  0  0  0  0  0  0  0  0
   -3.7410   17.9790  -32.8990 N   0  0  0  0  0  0  0  0  0  0  0  0
   -3.4740   16.8350  -33.5580 C   0  0  0  0  0  0  0  0  0  0  0  0
   -4.4480   15.3860  -33.3960 S   0  0  0  0  0  0  0  0  0  0  0  0
   -3.8760   14.3050  -34.2680 O   0  0  0  0  0  0  0  0  0  0  0  0
   -4.4170   14.9250  -31.9660 O   0  0  0  0  0  0  0  0  0  0  0  0
   -6.1390   15.7210  -33.8680 C   0  0  0  0  0  0  0  0  0  0  0  0
   -6.4990   17.1490  -33.5620 C   0  0  0  0  0  0  0  0  0  0  0  0
   -6.1270   18.1770  -34.4430 C   0  0  0  0  0  0  0  0  0  0  0  0
   -6.3970   19.5120  -34.1240 C   0  0  0  0  0  0  0  0  0  0  0  0
   -7.0340   19.8300  -32.9200 C   0  0  0  0  0  0  0  0  0  0  0  0
   -7.4050   18.8130  -32.0370 C   0  0  0  0  0  0  0  0  0  0  0  0
   -7.1410   17.4770  -32.3540 C   0  0  0  0  0  0  0  0  0  0  0  0
   -2.3540   16.9080  -34.3030 N   0  0  0  0  0  0  0  0  0  0  0  0
   -1.9110   18.1130  -34.1110 O   0  0  0  0  0  0  0  0  0  0  0  0
   -3.6450   22.9910  -31.1670 C   0  0  0  0  0  0  0  0  0  0  0  0
   -3.3470   24.1710  -30.4570 C   0  0  0  0  0  0  0  0  0  0  0  0
   -4.0890   25.3510  -30.6300 O   0  0  0  0  0  0  0  0  0  0  0  0
   -5.4970   25.4540  -30.4490 C   0  0  0  0  0  0  0  0  0  0  0  0
   -2.5288   25.2748  -26.8575 H   0  0  0  0  0  0  0  0  0  0  0  0
   -0.8863   24.6712  -27.2633 H   0  0  0  0  0  0  0  0  0  0  0  0
   -1.2200   26.4363  -27.2633 H   0  0  0  0  0  0  0  0  0  0  0  0
   -0.6921   23.0134  -28.6285 H   0  0  0  0  0  0  0  0  0  0  0  0
   -1.2374   20.9335  -29.8816 H   0  0  0  0  0  0  0  0  0  0  0  0
   -4.1070   20.1410  -31.4270 H   0  0  0  0  0  0  0  0  0  0  0  0
   -6.2559   15.5416  -34.9470 H   0  0  0  0  0  0  0  0  0  0  0  0
   -6.8053   15.0565  -33.2984 H   0  0  0  0  0  0  0  0  0  0  0  0
   -5.6210   17.9315  -35.3883 H   0  0  0  0  0  0  0  0  0  0  0  0
   -6.1080   20.3126  -34.8208 H   0  0  0  0  0  0  0  0  0  0  0  0
   -7.2427   20.8803  -32.6686 H   0  0  0  0  0  0  0  0  0  0  0  0
   -7.9059   19.0638  -31.0903 H   0  0  0  0  0  0  0  0  0  0  0  0
   -7.4364   16.6795  -31.6563 H   0  0  0  0  0  0  0  0  0  0  0  0
   -4.4885   22.9795  -31.8729 H   0  0  0  0  0  0  0  0  0  0  0  0
   -5.7282   25.4709  -29.3737 H   0  0  0  0  0  0  0  0  0  0  0  0
   -5.8600   26.3811  -30.9167 H   0  0  0  0  0  0  0  0  0  0  0  0
   -5.9910   24.5896  -30.9167 H   0  0  0  0  0  0  0  0  0  0  0  0
  1  2  1  0
  2  3  1  0
  3  4  2  0
  4  5  1  0
  5  6  2  0
  6  7  1  0
  7  8  1  0
  8  9  2  0
  8 10  1  0
 10 11  2  0
 11 12  1  0
 12 13  1  0
 13 14  2  0
 13 15  2  0
 13 16  1  0
 16 17  1  0
 17 18  2  0
 18 19  1  0
 19 20  2  0
 20 21  1  0
 21 22  2  0
 12 23  2  0
 23 24  1  0
  6 25  1  0
 25 26  2  0
 26 27  1  0
 27 28  1  0
 26  3  1  0
 24 10  1  0
 22 17  1  0
  1 29  1  0
  1 30  1  0
  1 31  1  0
  4 32  1  0
  5 33  1  0
  7 34  1  0
 16 35  1  0
 16 36  1  0
 18 37  1  0
 19 38  1  0
 20 39  1  0
 21 40  1  0
 22 41  1  0
 25 42  1  0
 28 43  1  0
 28 44  1  0
 28 45  1  0
M  END
>  <UniqueID>  (31) 
28

>  <SMILES>  (31) 
COc1ccc(NC(=O)c2nc(S(=O)(=O)Cc3ccccc3)no2)cc1OC

>  <Energy>  (31) 
76.71610232169701

>  <Genealogy>  (31) 
COc1ccc(NC(=O)c2nc(S(=O)(=O)Cc3ccccc3)no2)cc1OC (3D coordinates assigned)
COc1ccc(NC(=O)c2nc(S(=O)(=O)Cc3ccccc3)no2)cc1OC (optimized conformer: 76.71610232169701 kcal/mol)

>  <smiles>  (31) 
COc1ccc(NC(=O)c2nc(S(=O)(=O)Cc3ccccc3)no2)cc1OC

>  <score_type>  (31) 
oracle

>  <origin>  (31) 
adgpu

>  <m_score__min__energy>  (31) 
-9.6899999999999995

>  <m_primary>  (31) 
energy

$$$$
31:0
     RDKit          3D

 57 60  0  0  0  0  0  0  0  0999 V2000
   -5.8740   25.1500  -30.6490 C   0  0  0  0  0  0  0  0  0  0  0  0
   -4.6750   24.5890  -29.9530 C   0  0  0  0  0  0  0  0  0  0  0  0
   -4.7230   23.3240  -29.3540 C   0  0  0  0  0  0  0  0  0  0  0  0
   -3.5810   22.8310  -28.7230 C   0  0  0  0  0  0  0  0  0  0  0  0
   -3.6280   21.7170  -28.1310 O   0  0  0  0  0  0  0  0  0  0  0  0
   -2.3970   23.5900  -28.7390 C   0  0  0  0  0  0  0  0  0  0  0  0
   -1.1490   23.1210  -28.0920 C   0  0  0  0  0  0  0  0  0  0  0  0
   -0.4580   22.0250  -28.4420 C   0  0  0  0  0  0  0  0  0  0  0  0
   -0.7500   21.1570  -29.6010 C   0  0  0  0  0  0  0  0  0  0  0  0
   -0.4770   19.9300  -29.5190 O   0  0  0  0  0  0  0  0  0  0  0  0
   -1.2440   21.6970  -30.8360 N   0  0  0  0  0  0  0  0  0  0  0  0
   -2.1400   21.0020  -31.7220 C   0  0  0  0  0  0  0  0  0  0  0  0
   -3.3650   21.5620  -32.1240 C   0  0  0  0  0  0  0  0  0  0  0  0
   -4.1860   20.8920  -33.0280 C   0  0  0  0  0  0  0  0  0  0  0  0
   -3.7950   19.6650  -33.5750 C   0  0  0  0  0  0  0  0  0  0  0  0
   -4.6390   19.0760  -34.5750 N   0  0  0  0  0  0  0  0  0  0  0  0
   -5.8690   18.3780  -34.3320 C   0  0  0  0  0  0  0  0  0  0  0  0
   -6.0940   17.3130  -34.9640 O   0  0  0  0  0  0  0  0  0  0  0  0
   -6.8650   18.8630  -33.3500 C   0  0  0  0  0  0  0  0  0  0  0  0
   -7.1790   20.2320  -33.2840 C   0  0  0  0  0  0  0  0  0  0  0  0
   -8.1030   20.7010  -32.3460 C   0  0  0  0  0  0  0  0  0  0  0  0
   -8.7350   19.8060  -31.4790 C   0  0  0  0  0  0  0  0  0  0  0  0
   -8.4500   18.4410  -31.5550 C   0  0  0  0  0  0  0  0  0  0  0  0
   -7.5210   17.9690  -32.4840 C   0  0  0  0  0  0  0  0  0  0  0  0
   -2.5830   19.0650  -33.1470 C   0  0  0  0  0  0  0  0  0  0  0  0
   -2.1560   17.7190  -33.5950 C   0  0  0  0  0  0  0  0  0  0  0  0
   -0.9350   17.5300  -33.8580 O   0  0  0  0  0  0  0  0  0  0  0  0
   -3.1060   16.5870  -33.7190 C   0  0  0  0  0  0  0  0  0  0  0  0
   -4.0400   16.3370  -32.6980 C   0  0  0  0  0  0  0  0  0  0  0  0
   -4.9340   15.2670  -32.8020 C   0  0  0  0  0  0  0  0  0  0  0  0
   -4.9130   14.4430  -33.9280 C   0  0  0  0  0  0  0  0  0  0  0  0
   -4.0000   14.6900  -34.9550 C   0  0  0  0  0  0  0  0  0  0  0  0
   -3.1020   15.7570  -34.8570 C   0  0  0  0  0  0  0  0  0  0  0  0
   -1.7580   19.7590  -32.2460 C   0  0  0  0  0  0  0  0  0  0  0  0
   -2.4330   24.8560  -29.3460 C   0  0  0  0  0  0  0  0  0  0  0  0
   -1.3020   25.6650  -29.3580 O   0  0  0  0  0  0  0  0  0  0  0  0
   -3.5480   25.2970  -29.9250 O   0  0  0  0  0  0  0  0  0  0  0  0
   -6.6051   25.4921  -29.9017 H   0  0  0  0  0  0  0  0  0  0  0  0
   -5.5688   25.9988  -31.2786 H   0  0  0  0  0  0  0  0  0  0  0  0
   -6.3300   24.3718  -31.2786 H   0  0  0  0  0  0  0  0  0  0  0  0
   -5.6473   22.7283  -29.3808 H   0  0  0  0  0  0  0  0  0  0  0  0
   -0.7570   23.7200  -27.2568 H   0  0  0  0  0  0  0  0  0  0  0  0
    0.4000   21.7492  -27.8113 H   0  0  0  0  0  0  0  0  0  0  0  0
   -0.9280   22.6570  -31.1050 H   0  0  0  0  0  0  0  0  0  0  0  0
   -3.6777   22.5368  -31.7216 H   0  0  0  0  0  0  0  0  0  0  0  0
   -5.1523   21.3323  -33.3150 H   0  0  0  0  0  0  0  0  0  0  0  0
   -6.6946   20.9380  -33.9746 H   0  0  0  0  0  0  0  0  0  0  0  0
   -8.3327   21.7753  -32.2903 H   0  0  0  0  0  0  0  0  0  0  0  0
   -9.4571   20.1766  -30.7365 H   0  0  0  0  0  0  0  0  0  0  0  0
   -8.9588   17.7360  -30.8812 H   0  0  0  0  0  0  0  0  0  0  0  0
   -7.3008   16.8927  -32.5392 H   0  0  0  0  0  0  0  0  0  0  0  0
   -4.0675   16.9876  -31.8115 H   0  0  0  0  0  0  0  0  0  0  0  0
   -5.6555   15.0743  -31.9944 H   0  0  0  0  0  0  0  0  0  0  0  0
   -5.6150   13.5998  -34.0064 H   0  0  0  0  0  0  0  0  0  0  0  0
   -3.9872   14.0428  -35.8444 H   0  0  0  0  0  0  0  0  0  0  0  0
   -2.3891   15.9492  -35.6723 H   0  0  0  0  0  0  0  0  0  0  0  0
   -0.7953   19.3193  -31.9464 H   0  0  0  0  0  0  0  0  0  0  0  0
  1  2  1  0
  2  3  2  0
  3  4  1  0
  4  5  2  0
  4  6  1  0
  6  7  1  0
  7  8  2  3
  8  9  1  0
  9 10  2  0
  9 11  1  0
 11 12  1  0
 12 13  2  0
 13 14  1  0
 14 15  2  0
 15 16  1  0
 16 17  1  0
 17 18  2  0
 17 19  1  0
 19 20  2  0
 20 21  1  0
 21 22  2  0
 22 23  1  0
 23 24  2  0
 15 25  1  0
 25 26  1  0
 26 27  2  0
 26 28  1  0
 28 29  2  0
 29 30  1  0
 30 31  2  0
 31 32  1  0
 32 33  2  0
 25 34  2  0
  6 35  2  0
 35 36  1  0
 35 37  1  0
 37  2  1  0
 34 12  1  0
 24 19  1  0
 33 28  1  0
  1 38  1  0
  1 39  1  0
  1 40  1  0
  3 41  1  0
  7 42  1  0
  8 43  1  0
 11 44  1  0
 13 45  1  0
 14 46  1  0
 20 47  1  0
 21 48  1  0
 22 49  1  0
 23 50  1  0
 24 51  1  0
 29 52  1  0
 30 53  1  0
 31 54  1  0
 32 55  1  0
 33 56  1  0
 34 57  1  0
M  CHG  2  16  -1  36  -1
M  END
>  <UniqueID>  (32) 
29

>  <SMILES>  (32) 
Cc1cc(=O)c(C=CC(=O)Nc2ccc([N-]C(=O)c3ccccc3)c(C(=O)c3ccccc3)c2)c([O-])o1

>  <Energy>  (32) 
87.14948694730231

>  <Genealogy>  (32) 
Cc1cc(=O)c(C=CC(=O)Nc2ccc([N-]C(=O)c3ccccc3)c(C(=O)c3ccccc3)c2)c([O-])o1 (protonated)
Cc1cc(=O)c(C=CC(=O)Nc2ccc([N-]C(=O)c3ccccc3)c(C(=O)c3ccccc3)c2)c([O-])o1 (3D coordinates assigned)
Cc1cc(=O)c(C=CC(=O)Nc2ccc([N-]C(=O)c3ccccc3)c(C(=O)c3ccccc3)c2)c([O-])o1 (optimized conformer: 87.14948694730231 kcal/mol)

>  <smiles>  (32) 
Cc1cc(=O)c(C=CC(=O)Nc2ccc(NC(=O)c3ccccc3)c(C(=O)c3ccccc3)c2)c(O)o1

>  <score_type>  (32) 
oracle

>  <origin>  (32) 
adgpu

>  <m_score__min__energy>  (32) 
-12.99

>  <m_primary>  (32) 
energy

$$$$
32:0
     RDKit          3D

 60 63  0  0  0  0  0  0  0  0999 V2000
   -1.4440   17.6760  -34.1110 C   0  0  0  0  0  0  0  0  0  0  0  0
   -2.0760   16.4190  -33.7050 N   0  0  0  0  0  0  0  0  0  0  0  0
   -1.4360   15.6100  -32.8070 C   0  0  0  0  0  0  0  0  0  0  0  0
   -2.0150   14.4090  -32.3960 C   0  0  0  0  0  0  0  0  0  0  0  0
   -3.2670   14.0460  -32.8920 C   0  0  0  0  0  0  0  0  0  0  0  0
   -3.9350   14.8960  -33.7850 C   0  0  0  0  0  0  0  0  0  0  0  0
   -5.2260   14.5700  -34.3200 N   0  0  0  0  0  0  0  0  0  0  0  0
   -6.4250   15.3490  -34.1920 C   0  0  0  0  0  0  0  0  0  0  0  0
   -7.5230   14.8090  -34.4910 O   0  0  0  0  0  0  0  0  0  0  0  0
   -6.4060   16.7740  -33.7770 C   0  0  0  0  0  0  0  0  0  0  0  0
   -6.0880   17.7910  -34.6910 C   0  0  0  0  0  0  0  0  0  0  0  0
   -6.0670   19.1290  -34.2850 C   0  0  0  0  0  0  0  0  0  0  0  0
   -6.3820   19.4810  -32.9650 C   0  0  0  0  0  0  0  0  0  0  0  0
   -6.3800   20.8700  -32.5890 N   0  0  0  0  0  0  0  0  0  0  0  0
   -5.2160   21.7140  -32.5970 C   0  0  0  0  0  0  0  0  0  0  0  0
   -4.2720   21.4770  -33.4010 O   0  0  0  0  0  0  0  0  0  0  0  0
   -5.1490   22.9090  -31.7220 C   0  0  0  0  0  0  0  0  0  0  0  0
   -6.2130   23.8260  -31.6810 C   0  0  0  0  0  0  0  0  0  0  0  0
   -6.1620   24.9290  -30.8280 C   0  0  0  0  0  0  0  0  0  0  0  0
   -5.0600   25.1240  -29.9940 C   0  0  0  0  0  0  0  0  0  0  0  0
   -3.9890   24.2180  -30.0120 C   0  0  0  0  0  0  0  0  0  0  0  0
   -2.8400   24.4020  -29.0910 C   0  0  0  0  0  0  0  0  0  0  0  0
   -1.9880   25.2960  -29.3430 O   0  0  0  0  0  0  0  0  0  0  0  0
   -2.6340   23.5650  -27.9410 N   0  0  0  0  0  0  0  0  0  0  0  0
   -2.0760   22.2420  -27.9370 C   0  0  0  0  0  0  0  0  0  0  0  0
   -0.8360   22.0280  -28.5500 C   0  0  0  0  0  0  0  0  0  0  0  0
   -0.2920   20.7420  -28.6090 C   0  0  0  0  0  0  0  0  0  0  0  0
   -0.9780   19.6630  -28.0460 C   0  0  0  0  0  0  0  0  0  0  0  0
   -2.2010   19.8690  -27.3890 C   0  0  0  0  0  0  0  0  0  0  0  0
   -2.9670   18.7020  -26.8210 C   0  0  0  0  0  0  0  0  0  0  0  0
   -3.2370   18.8960  -25.3990 N   0  0  0  0  0  0  0  0  0  0  0  0
   -2.7420   21.1630  -27.3250 C   0  0  0  0  0  0  0  0  0  0  0  0
   -4.0230   23.1380  -30.9130 C   0  0  0  0  0  0  0  0  0  0  0  0
   -6.7550   18.4670  -32.0620 C   0  0  0  0  0  0  0  0  0  0  0  0
   -6.7580   17.1280  -32.4640 C   0  0  0  0  0  0  0  0  0  0  0  0
   -3.3080   16.0790  -34.1930 C   0  0  0  0  0  0  0  0  0  0  0  0
   -1.1566   18.2476  -33.2162 H   0  0  0  0  0  0  0  0  0  0  0  0
   -0.5479   17.4589  -34.7109 H   0  0  0  0  0  0  0  0  0  0  0  0
   -2.1528   18.2658  -34.7109 H   0  0  0  0  0  0  0  0  0  0  0  0
   -0.4565   15.9087  -32.4054 H   0  0  0  0  0  0  0  0  0  0  0  0
   -1.4884   13.7537  -31.6866 H   0  0  0  0  0  0  0  0  0  0  0  0
   -3.7287   13.0964  -32.5838 H   0  0  0  0  0  0  0  0  0  0  0  0
   -5.8536   17.5334  -35.7344 H   0  0  0  0  0  0  0  0  0  0  0  0
   -5.8006   19.9134  -35.0087 H   0  0  0  0  0  0  0  0  0  0  0  0
   -7.2990   21.3200  -32.3840 H   0  0  0  0  0  0  0  0  0  0  0  0
   -7.0914   23.6733  -32.3253 H   0  0  0  0  0  0  0  0  0  0  0  0
   -6.9942   25.6482  -30.8128 H   0  0  0  0  0  0  0  0  0  0  0  0
   -5.0311   25.9923  -29.3193 H   0  0  0  0  0  0  0  0  0  0  0  0
   -0.2875   22.8754  -28.9871 H   0  0  0  0  0  0  0  0  0  0  0  0
    0.6788   20.5790  -29.1000 H   0  0  0  0  0  0  0  0  0  0  0  0
   -0.5583   18.6488  -28.1179 H   0  0  0  0  0  0  0  0  0  0  0  0
   -3.9217   18.6026  -27.3582 H   0  0  0  0  0  0  0  0  0  0  0  0
   -2.3605   17.7923  -26.9418 H   0  0  0  0  0  0  0  0  0  0  0  0
   -2.8650   18.0740  -24.8700 H   0  0  0  0  0  0  0  0  0  0  0  0
   -4.2730   18.9230  -25.2510 H   0  0  0  0  0  0  0  0  0  0  0  0
   -3.6902   21.3346  -26.7945 H   0  0  0  0  0  0  0  0  0  0  0  0
   -3.1567   22.4639  -30.9852 H   0  0  0  0  0  0  0  0  0  0  0  0
   -7.0457   18.7300  -31.0342 H   0  0  0  0  0  0  0  0  0  0  0  0
   -7.0387   16.3441  -31.7452 H   0  0  0  0  0  0  0  0  0  0  0  0
   -3.8106   16.7417  -34.9129 H   0  0  0  0  0  0  0  0  0  0  0  0
  1  2  1  0
  2  3  2  0
  3  4  1  0
  4  5  2  0
  5  6  1  0
  6  7  1  0
  7  8  1  0
  8  9  2  0
  8 10  1  0
 10 11  2  0
 11 12  1  0
 12 13  2  0
 13 14  1  0
 14 15  1  0
 15 16  2  0
 15 17  1  0
 17 18  2  0
 18 19  1  0
 19 20  2  0
 20 21  1  0
 21 22  1  0
 22 23  2  0
 22 24  1  0
 24 25  1  0
 25 26  2  0
 26 27  1  0
 27 28  2  0
 28 29  1  0
 29 30  1  0
 30 31  1  0
 29 32  2  0
 21 33  2  0
 13 34  1  0
 34 35  2  0
  6 36  2  0
 36  2  1  0
 35 10  1  0
 33 17  1  0
 32 25  1  0
  1 37  1  0
  1 38  1  0
  1 39  1  0
  3 40  1  0
  4 41  1  0
  5 42  1  0
 11 43  1  0
 12 44  1  0
 14 45  1  0
 18 46  1  0
 19 47  1  0
 20 48  1  0
 26 49  1  0
 27 50  1  0
 28 51  1  0
 30 52  1  0
 30 53  1  0
 31 54  1  0
 31 55  1  0
 32 56  1  0
 33 57  1  0
 34 58  1  0
 35 59  1  0
 36 60  1  0
M  CHG  3   2   1   7  -1  24  -1
M  END
>  <UniqueID>  (33) 
30

>  <SMILES>  (33) 
C[n+]1cccc([N-]C(=O)c2ccc(NC(=O)c3cccc(C(=O)[N-]c4cccc(CN)c4)c3)cc2)c1

>  <Energy>  (33) 
80.40799939071836

>  <Genealogy>  (33) 
C[n+]1cccc([N-]C(=O)c2ccc(NC(=O)c3cccc(C(=O)[N-]c4cccc(CN)c4)c3)cc2)c1 (protonated)
C[n+]1cccc([N-]C(=O)c2ccc(NC(=O)c3cccc(C(=O)[N-]c4cccc(CN)c4)c3)cc2)c1 (3D coordinates assigned)
C[n+]1cccc([N-]C(=O)c2ccc(NC(=O)c3cccc(C(=O)[N-]c4cccc(CN)c4)c3)cc2)c1 (optimized conformer: 80.40799939071836 kcal/mol)

>  <smiles>  (33) 
C[n+]1cccc(NC(=O)c2ccc(NC(=O)c3cccc(C(=O)Nc4cccc(CN)c4)c3)cc2)c1

>  <score_type>  (33) 
oracle

>  <origin>  (33) 
adgpu

>  <m_score__min__energy>  (33) 
-11.300000000000001

>  <m_primary>  (33) 
energy

$$$$
33:0
     RDKit          3D

 54 58  0  0  0  0  0  0  0  0999 V2000
   -3.8780   25.2610  -30.7550 O   0  0  0  0  0  0  0  0  0  0  0  0
   -4.1140   23.9410  -30.0840 S   0  0  0  0  0  0  0  0  0  0  0  0
   -5.5570   23.8850  -29.6660 O   0  0  0  0  0  0  0  0  0  0  0  0
   -3.7900   22.6380  -31.2270 C   0  0  0  0  0  0  0  0  0  0  0  0
   -4.4860   22.5680  -32.4430 C   0  0  0  0  0  0  0  0  0  0  0  0
   -4.2330   21.5280  -33.3470 C   0  0  0  0  0  0  0  0  0  0  0  0
   -3.2740   20.5500  -33.0490 C   0  0  0  0  0  0  0  0  0  0  0  0
   -3.0690   19.3880  -33.9850 C   0  0  0  0  0  0  0  0  0  0  0  0
   -2.5810   17.8940  -33.0450 S   0  0  0  0  0  0  0  0  0  0  0  0
   -4.0810   16.9820  -33.4190 C   0  0  0  0  0  0  0  0  0  0  0  0
   -4.0130   15.7060  -33.8930 N   0  0  0  0  0  0  0  0  0  0  0  0
   -5.1470   14.9980  -34.1810 C   0  0  0  0  0  0  0  0  0  0  0  0
   -6.4140   15.5730  -33.9780 C   0  0  0  0  0  0  0  0  0  0  0  0
   -6.4380   16.8730  -33.4850 C   0  0  0  0  0  0  0  0  0  0  0  0
   -7.5240   17.6020  -33.1830 N   0  0  0  0  0  0  0  0  0  0  0  0
   -6.9540   18.7490  -32.7300 C   0  0  0  0  0  0  0  0  0  0  0  0
   -7.7400   19.9030  -32.2300 C   0  0  0  0  0  0  0  0  0  0  0  0
   -7.1260   20.9120  -31.4710 C   0  0  0  0  0  0  0  0  0  0  0  0
   -7.8910   21.9700  -30.9660 C   0  0  0  0  0  0  0  0  0  0  0  0
   -9.2640   22.0080  -31.2210 C   0  0  0  0  0  0  0  0  0  0  0  0
   -9.8440   21.0310  -31.9670 N   0  0  0  0  0  0  0  0  0  0  0  0
   -9.1220   19.9980  -32.4770 C   0  0  0  0  0  0  0  0  0  0  0  0
   -5.6000   18.7200  -32.7520 N   0  0  0  0  0  0  0  0  0  0  0  0
   -5.3070   17.5310  -33.2300 N   0  0  0  0  0  0  0  0  0  0  0  0
   -2.5700   20.6280  -31.8370 C   0  0  0  0  0  0  0  0  0  0  0  0
   -2.8330   21.6620  -30.9280 C   0  0  0  0  0  0  0  0  0  0  0  0
   -3.0970   23.8180  -28.6700 N   0  0  0  0  0  0  0  0  0  0  0  0
   -3.7110   24.5420  -27.5360 C   0  0  0  0  0  0  0  0  0  0  0  0
   -2.7070   24.7300  -26.3950 C   0  0  0  0  0  0  0  0  0  0  0  0
   -1.5010   25.5770  -26.8460 C   0  0  0  0  0  0  0  0  0  0  0  0
   -1.3130   25.5760  -28.3720 C   0  0  0  0  0  0  0  0  0  0  0  0
   -1.6990   24.2130  -28.9710 C   0  0  0  0  0  0  0  0  0  0  0  0
   -5.2355   23.3349  -32.6884 H   0  0  0  0  0  0  0  0  0  0  0  0
   -4.7893   21.4787  -34.2947 H   0  0  0  0  0  0  0  0  0  0  0  0
   -4.0061   19.1871  -34.5249 H   0  0  0  0  0  0  0  0  0  0  0  0
   -2.2700   19.6392  -34.6981 H   0  0  0  0  0  0  0  0  0  0  0  0
   -5.0676   13.9735  -34.5735 H   0  0  0  0  0  0  0  0  0  0  0  0
   -7.3401   15.0219  -34.1982 H   0  0  0  0  0  0  0  0  0  0  0  0
   -6.0447   20.8712  -31.2733 H   0  0  0  0  0  0  0  0  0  0  0  0
   -7.4149   22.7650  -30.3732 H   0  0  0  0  0  0  0  0  0  0  0  0
   -9.8757   22.8286  -30.8180 H   0  0  0  0  0  0  0  0  0  0  0  0
   -9.6217   19.2311  -33.0870 H   0  0  0  0  0  0  0  0  0  0  0  0
   -1.8067   19.8725  -31.5990 H   0  0  0  0  0  0  0  0  0  0  0  0
   -2.2847   21.7064  -29.9754 H   0  0  0  0  0  0  0  0  0  0  0  0
   -4.0513   25.5293  -27.8817 H   0  0  0  0  0  0  0  0  0  0  0  0
   -4.5595   23.9506  -27.1615 H   0  0  0  0  0  0  0  0  0  0  0  0
   -3.2076   25.2367  -25.5567 H   0  0  0  0  0  0  0  0  0  0  0  0
   -2.3407   23.7395  -26.0873 H   0  0  0  0  0  0  0  0  0  0  0  0
   -1.6539   26.6135  -26.5109 H   0  0  0  0  0  0  0  0  0  0  0  0
   -0.5984   25.1342  -26.3996 H   0  0  0  0  0  0  0  0  0  0  0  0
   -1.9493   26.3569  -28.8139 H   0  0  0  0  0  0  0  0  0  0  0  0
   -0.2539   25.7714  -28.5960 H   0  0  0  0  0  0  0  0  0  0  0  0
   -1.5773   24.2638  -30.0631 H   0  0  0  0  0  0  0  0  0  0  0  0
   -1.0406   23.4578  -28.5170 H   0  0  0  0  0  0  0  0  0  0  0  0
  1  2  2  0
  2  3  2  0
  2  4  1  0
  4  5  2  0
  5  6  1  0
  6  7  2  0
  7  8  1  0
  8  9  1  0
  9 10  1  0
 10 11  2  0
 11 12  1  0
 12 13  2  0
 13 14  1  0
 14 15  2  0
 15 16  1  0
 16 17  1  0
 17 18  2  0
 18 19  1  0
 19 20  2  0
 20 21  1  0
 21 22  2  0
 16 23  2  0
 23 24  1  0
  7 25  1  0
 25 26  2  0
  2 27  1  0
 27 28  1  0
 28 29  1  0
 29 30  1  0
 30 31  1  0
 31 32  1  0
 26  4  1  0
 32 27  1  0
 24 10  1  0
 24 14  1  0
 22 17  1  0
  5 33  1  0
  6 34  1  0
  8 35  1  0
  8 36  1  0
 12 37  1  0
 13 38  1  0
 18 39  1  0
 19 40  1  0
 20 41  1  0
 22 42  1  0
 25 43  1  0
 26 44  1  0
 28 45  1  0
 28 46  1  0
 29 47  1  0
 29 48  1  0
 30 49  1  0
 30 50  1  0
 31 51  1  0
 31 52  1  0
 32 53  1  0
 32 54  1  0
M  END
>  <UniqueID>  (34) 
31

>  <SMILES>  (34) 
O=S(=O)(c1ccc(CSc2nccc3nc(-c4cccnc4)nn23)cc1)N1CCCCC1

>  <Energy>  (34) 
100.31554747927257

>  <Genealogy>  (34) 
O=S(=O)(c1ccc(CSc2nccc3nc(-c4cccnc4)nn23)cc1)N1CCCCC1 (3D coordinates assigned)
O=S(=O)(c1ccc(CSc2nccc3nc(-c4cccnc4)nn23)cc1)N1CCCCC1 (nonaromatic ring conformer: 100.31554747927257 kcal/mol)

>  <smiles>  (34) 
O=S(=O)(c1ccc(CSc2nccc3nc(-c4cccnc4)nn23)cc1)N1CCCCC1

>  <score_type>  (34) 
oracle

>  <origin>  (34) 
adgpu

>  <m_score__min__energy>  (34) 
-10.220000000000001

>  <m_primary>  (34) 
energy

$$$$
34:0
     RDKit          3D

 55 58  0  0  0  0  0  0  0  0999 V2000
   -1.6960   23.1040  -29.7260 O   0  0  0  0  0  0  0  0  0  0  0  0
   -2.0050   24.1240  -29.0500 C   0  0  0  0  0  0  0  0  0  0  0  0
   -3.3170   24.7030  -29.1650 N   0  0  0  0  0  0  0  0  0  0  0  0
   -4.4010   24.1270  -29.9150 C   0  0  0  0  0  0  0  0  0  0  0  0
   -5.7390   24.4920  -29.6770 C   0  0  0  0  0  0  0  0  0  0  0  0
   -6.7700   23.9260  -30.4330 C   0  0  0  0  0  0  0  0  0  0  0  0
   -6.4810   22.9970  -31.4460 C   0  0  0  0  0  0  0  0  0  0  0  0
   -7.4880   22.4200  -32.2330 O   0  0  0  0  0  0  0  0  0  0  0  0
   -7.7420   21.0450  -32.3420 C   0  0  0  0  0  0  0  0  0  0  0  0
   -8.8990   20.4560  -31.7950 C   0  0  0  0  0  0  0  0  0  0  0  0
   -9.1110   19.0800  -31.9130 C   0  0  0  0  0  0  0  0  0  0  0  0
   -8.1700   18.2800  -32.5660 C   0  0  0  0  0  0  0  0  0  0  0  0
   -7.0090   18.8550  -33.0920 C   0  0  0  0  0  0  0  0  0  0  0  0
   -6.7940   20.2310  -32.9760 C   0  0  0  0  0  0  0  0  0  0  0  0
   -5.1470   22.6740  -31.7170 C   0  0  0  0  0  0  0  0  0  0  0  0
   -4.1150   23.2330  -30.9570 C   0  0  0  0  0  0  0  0  0  0  0  0
   -1.0040   24.7310  -28.0940 C   0  0  0  0  0  0  0  0  0  0  0  0
   -0.8800   26.2490  -28.3620 C   0  0  0  0  0  0  0  0  0  0  0  0
   -0.4280   26.9880  -27.0990 C   0  0  0  0  0  0  0  0  0  0  0  0
   -1.4370   26.8720  -26.0230 N   0  0  0  0  0  0  0  0  0  0  0  0
   -0.7320   27.2940  -24.4790 S   0  0  0  0  0  0  0  0  0  0  0  0
   -0.6080   28.7880  -24.3710 O   0  0  0  0  0  0  0  0  0  0  0  0
   -1.6410   26.8200  -23.3770 O   0  0  0  0  0  0  0  0  0  0  0  0
    0.8630   26.5640  -24.2710 C   0  0  0  0  0  0  0  0  0  0  0  0
    1.9390   27.3360  -23.8090 C   0  0  0  0  0  0  0  0  0  0  0  0
    3.2060   26.7610  -23.6630 C   0  0  0  0  0  0  0  0  0  0  0  0
    3.4020   25.4130  -23.9740 C   0  0  0  0  0  0  0  0  0  0  0  0
    2.3320   24.6360  -24.4270 C   0  0  0  0  0  0  0  0  0  0  0  0
    1.0650   25.2090  -24.5750 C   0  0  0  0  0  0  0  0  0  0  0  0
   -2.1370   25.5640  -25.9650 C   0  0  0  0  0  0  0  0  0  0  0  0
   -1.3320   24.4230  -26.6100 C   0  0  0  0  0  0  0  0  0  0  0  0
   -3.4680   25.6460  -28.7410 H   0  0  0  0  0  0  0  0  0  0  0  0
   -5.9749   25.2261  -28.8925 H   0  0  0  0  0  0  0  0  0  0  0  0
   -7.8138   24.2100  -30.2332 H   0  0  0  0  0  0  0  0  0  0  0  0
   -9.6381   21.0816  -31.2732 H   0  0  0  0  0  0  0  0  0  0  0  0
  -10.0199   18.6260  -31.4913 H   0  0  0  0  0  0  0  0  0  0  0  0
   -8.3424   17.1982  -32.6663 H   0  0  0  0  0  0  0  0  0  0  0  0
   -6.2639   18.2234  -33.5978 H   0  0  0  0  0  0  0  0  0  0  0  0
   -5.8755   20.6775  -33.3847 H   0  0  0  0  0  0  0  0  0  0  0  0
   -4.9085   21.9760  -32.5330 H   0  0  0  0  0  0  0  0  0  0  0  0
   -3.0702   22.9694  -31.1782 H   0  0  0  0  0  0  0  0  0  0  0  0
   -0.0268   24.2614  -28.2801 H   0  0  0  0  0  0  0  0  0  0  0  0
   -0.1423   26.4153  -29.1609 H   0  0  0  0  0  0  0  0  0  0  0  0
   -1.8645   26.6357  -28.6641 H   0  0  0  0  0  0  0  0  0  0  0  0
    0.5209   26.5548  -26.7497 H   0  0  0  0  0  0  0  0  0  0  0  0
   -0.3004   28.0526  -27.3444 H   0  0  0  0  0  0  0  0  0  0  0  0
    1.7862   28.3967  -23.5607 H   0  0  0  0  0  0  0  0  0  0  0  0
    4.0482   27.3703  -23.3032 H   0  0  0  0  0  0  0  0  0  0  0  0
    4.3994   24.9627  -23.8622 H   0  0  0  0  0  0  0  0  0  0  0  0
    2.4866   23.5737  -24.6671 H   0  0  0  0  0  0  0  0  0  0  0  0
    0.2241   24.5957  -24.9308 H   0  0  0  0  0  0  0  0  0  0  0  0
   -2.3205   25.3110  -24.9103 H   0  0  0  0  0  0  0  0  0  0  0  0
   -3.0743   25.6668  -26.5314 H   0  0  0  0  0  0  0  0  0  0  0  0
   -0.3912   24.2907  -26.0555 H   0  0  0  0  0  0  0  0  0  0  0  0
   -1.9392   23.5065  -26.5725 H   0  0  0  0  0  0  0  0  0  0  0  0
  1  2  2  0
  2  3  1  0
  3  4  1  0
  4  5  2  0
  5  6  1  0
  6  7  2  0
  7  8  1  0
  8  9  1  0
  9 10  2  0
 10 11  1  0
 11 12  2  0
 12 13  1  0
 13 14  2  0
  7 15  1  0
 15 16  2  0
  2 17  1  0
 17 18  1  0
 18 19  1  0
 19 20  1  0
 20 21  1  0
 21 22  2  0
 21 23  2  0
 21 24  1  0
 24 25  2  0
 25 26  1  0
 26 27  2  0
 27 28  1  0
 28 29  2  0
 20 30  1  0
 30 31  1  0
 16  4  1  0
 31 17  1  0
 14  9  1  0
 29 24  1  0
  3 32  1  0
  5 33  1  0
  6 34  1  0
 10 35  1  0
 11 36  1  0
 12 37  1  0
 13 38  1  0
 14 39  1  0
 15 40  1  0
 16 41  1  0
 17 42  1  0
 18 43  1  0
 18 44  1  0
 19 45  1  0
 19 46  1  0
 25 47  1  0
 26 48  1  0
 27 49  1  0
 28 50  1  0
 29 51  1  0
 30 52  1  0
 30 53  1  0
 31 54  1  0
 31 55  1  0
M  END
>  <UniqueID>  (35) 
32

>  <SMILES>  (35) 
O=C(Nc1ccc(Oc2ccccc2)cc1)C1CCN(S(=O)(=O)c2ccccc2)CC1

>  <Energy>  (35) 
74.56677661497022

>  <Genealogy>  (35) 
O=C(Nc1ccc(Oc2ccccc2)cc1)C1CCN(S(=O)(=O)c2ccccc2)CC1 (3D coordinates assigned)
O=C(Nc1ccc(Oc2ccccc2)cc1)C1CCN(S(=O)(=O)c2ccccc2)CC1 (nonaromatic ring conformer: 74.56677661497022 kcal/mol)

>  <smiles>  (35) 
O=C(Nc1ccc(Oc2ccccc2)cc1)C1CCN(S(=O)(=O)c2ccccc2)CC1

>  <score_type>  (35) 
oracle

>  <origin>  (35) 
adgpu

>  <m_score__min__energy>  (35) 
-9.8499999999999996

>  <m_primary>  (35) 
energy

$$$$
35:0
     RDKit          3D

 45 48  0  0  0  0  0  0  0  0999 V2000
   -1.4170   13.7290  -31.9320 C   0  0  0  0  0  0  0  0  0  0  0  0
   -2.6740   14.3170  -32.4960 C   0  0  0  0  0  0  0  0  0  0  0  0
   -2.6590   15.5930  -33.0710 C   0  0  0  0  0  0  0  0  0  0  0  0
   -3.8340   16.1540  -33.5770 C   0  0  0  0  0  0  0  0  0  0  0  0
   -5.0390   15.4520  -33.4990 C   0  0  0  0  0  0  0  0  0  0  0  0
   -6.4950   16.1520  -34.1950 S   0  0  0  0  0  0  0  0  0  0  0  0
   -6.1390   17.2200  -35.1900 O   0  0  0  0  0  0  0  0  0  0  0  0
   -7.2650   15.0690  -34.8920 O   0  0  0  0  0  0  0  0  0  0  0  0
   -7.4800   16.8270  -32.9320 N   0  0  0  0  0  0  0  0  0  0  0  0
   -7.3570   18.1740  -32.4520 C   0  0  0  0  0  0  0  0  0  0  0  0
   -6.0970   18.6070  -31.9900 C   0  0  0  0  0  0  0  0  0  0  0  0
   -5.9120   19.9330  -31.5660 C   0  0  0  0  0  0  0  0  0  0  0  0
   -7.0120   20.7990  -31.5850 C   0  0  0  0  0  0  0  0  0  0  0  0
   -8.2400   20.3800  -32.0230 C   0  0  0  0  0  0  0  0  0  0  0  0
   -8.4500   19.0740  -32.4560 C   0  0  0  0  0  0  0  0  0  0  0  0
   -9.2190   21.5060  -32.0110 C   0  0  0  0  0  0  0  0  0  0  0  0
   -8.3580   22.7150  -31.5770 C   0  0  0  0  0  0  0  0  0  0  0  0
   -7.0260   22.1850  -31.2750 N   0  0  0  0  0  0  0  0  0  0  0  0
   -5.9080   22.9780  -30.8470 C   0  0  0  0  0  0  0  0  0  0  0  0
   -4.6260   22.7310  -31.3600 C   0  0  0  0  0  0  0  0  0  0  0  0
   -3.5410   23.5050  -30.9380 C   0  0  0  0  0  0  0  0  0  0  0  0
   -3.7270   24.5260  -29.9950 C   0  0  0  0  0  0  0  0  0  0  0  0
   -2.6490   25.2960  -29.5750 O   0  0  0  0  0  0  0  0  0  0  0  0
   -4.9980   24.7700  -29.4710 C   0  0  0  0  0  0  0  0  0  0  0  0
   -6.0830   23.9960  -29.8900 C   0  0  0  0  0  0  0  0  0  0  0  0
   -5.0640   14.1850  -32.9030 C   0  0  0  0  0  0  0  0  0  0  0  0
   -3.8880   13.6200  -32.3990 C   0  0  0  0  0  0  0  0  0  0  0  0
   -1.4630   13.7505  -30.8332 H   0  0  0  0  0  0  0  0  0  0  0  0
   -1.3130   12.6888  -32.2743 H   0  0  0  0  0  0  0  0  0  0  0  0
   -0.5519   14.3159  -32.2743 H   0  0  0  0  0  0  0  0  0  0  0  0
   -1.7164   16.1574  -33.1248 H   0  0  0  0  0  0  0  0  0  0  0  0
   -3.8102   17.1522  -34.0385 H   0  0  0  0  0  0  0  0  0  0  0  0
   -5.2535   17.9015  -31.9615 H   0  0  0  0  0  0  0  0  0  0  0  0
   -4.9259   20.2831  -31.2269 H   0  0  0  0  0  0  0  0  0  0  0  0
   -9.4446   18.7478  -32.7943 H   0  0  0  0  0  0  0  0  0  0  0  0
   -9.6490   21.6661  -33.0108 H   0  0  0  0  0  0  0  0  0  0  0  0
  -10.0771   21.3257  -31.3468 H   0  0  0  0  0  0  0  0  0  0  0  0
   -8.2988   23.4521  -32.3913 H   0  0  0  0  0  0  0  0  0  0  0  0
   -8.7934   23.2225  -30.7036 H   0  0  0  0  0  0  0  0  0  0  0  0
   -4.4742   21.9272  -32.0954 H   0  0  0  0  0  0  0  0  0  0  0  0
   -2.5382   23.3125  -31.3470 H   0  0  0  0  0  0  0  0  0  0  0  0
   -5.1447   25.5697  -28.7301 H   0  0  0  0  0  0  0  0  0  0  0  0
   -7.0818   24.1833  -29.4690 H   0  0  0  0  0  0  0  0  0  0  0  0
   -6.0122   13.6320  -32.8310 H   0  0  0  0  0  0  0  0  0  0  0  0
   -3.9148   12.6274  -31.9257 H   0  0  0  0  0  0  0  0  0  0  0  0
  1  2  1  0
  2  3  2  0
  3  4  1  0
  4  5  2  0
  5  6  1  0
  6  7  2  0
  6  8  2  0
  6  9  1  0
  9 10  1  0
 10 11  2  0
 11 12  1  0
 12 13  2  0
 13 14  1  0
 14 15  2  0
 14 16  1  0
 16 17  1  0
 17 18  1  0
 18 19  1  0
 19 20  2  0
 20 21  1  0
 21 22  2  0
 22 23  1  0
 22 24  1  0
 24 25  2  0
  5 26  1  0
 26 27  2  0
 27  2  1  0
 15 10  1  0
 25 19  1  0
 18 13  1  0
  1 28  1  0
  1 29  1  0
  1 30  1  0
  3 31  1  0
  4 32  1  0
 11 33  1  0
 12 34  1  0
 15 35  1  0
 16 36  1  0
 16 37  1  0
 17 38  1  0
 17 39  1  0
 20 40  1  0
 21 41  1  0
 24 42  1  0
 25 43  1  0
 26 44  1  0
 27 45  1  0
M  CHG  2   9  -1  23  -1
M  END
>  <UniqueID>  (36) 
33

>  <SMILES>  (36) 
Cc1ccc(S(=O)(=O)[N-]c2ccc3c(c2)CCN3c2ccc([O-])cc2)cc1

>  <Energy>  (36) 
71.71256930340125

>  <Genealogy>  (36) 
Cc1ccc(S(=O)(=O)[N-]c2ccc3c(c2)CCN3c2ccc([O-])cc2)cc1 (protonated)
Cc1ccc(S(=O)(=O)[N-]c2ccc3c(c2)CCN3c2ccc([O-])cc2)cc1 (3D coordinates assigned)
Cc1ccc(S(=O)(=O)[N-]c2ccc3c(c2)CCN3c2ccc([O-])cc2)cc1 (nonaromatic ring conformer: 71.71256930340125 kcal/mol)

>  <smiles>  (36) 
Cc1ccc(S(=O)(=O)Nc2ccc3c(c2)CCN3c2ccc(O)cc2)cc1

>  <score_type>  (36) 
oracle

>  <origin>  (36) 
adgpu

>  <m_score__min__energy>  (36) 
-11.84

>  <m_primary>  (36) 
energy

$$$$
36:0
     RDKit          3D

 38 39  0  0  0  0  0  0  0  0999 V2000
   -4.9340   20.8310  -33.0950 C   0  0  0  0  0  0  0  0  0  0  0  0
   -4.1130   20.7020  -31.8240 C   0  0  0  0  0  0  0  0  0  0  0  0
   -2.9070   22.0690  -31.6410 S   0  0  0  0  0  0  0  0  0  0  0  0
   -2.7040   21.9580  -29.8500 C   0  0  0  0  0  0  0  0  0  0  0  0
   -2.3710   20.7180  -29.2810 C   0  0  0  0  0  0  0  0  0  0  0  0
   -2.1350   20.6060  -27.9100 C   0  0  0  0  0  0  0  0  0  0  0  0
   -2.1810   21.7400  -27.0990 C   0  0  0  0  0  0  0  0  0  0  0  0
   -2.4530   22.9880  -27.6590 C   0  0  0  0  0  0  0  0  0  0  0  0
   -2.7380   23.1110  -29.0290 C   0  0  0  0  0  0  0  0  0  0  0  0
   -2.8500   24.4680  -29.6020 C   0  0  0  0  0  0  0  0  0  0  0  0
   -1.9410   25.3030  -29.3500 O   0  0  0  0  0  0  0  0  0  0  0  0
   -3.9150   24.8570  -30.4790 N   0  0  0  0  0  0  0  0  0  0  0  0
   -5.1560   24.1750  -30.7120 C   0  0  0  0  0  0  0  0  0  0  0  0
   -5.7450   24.1020  -31.9860 C   0  0  0  0  0  0  0  0  0  0  0  0
   -6.9600   23.4370  -32.1640 C   0  0  0  0  0  0  0  0  0  0  0  0
   -7.5890   22.8060  -31.0800 C   0  0  0  0  0  0  0  0  0  0  0  0
   -8.9250   22.1370  -31.2610 C   0  0  0  0  0  0  0  0  0  0  0  0
   -8.7620   20.7950  -31.9660 C   0  0  0  0  0  0  0  0  0  0  0  0
   -6.9830   22.8480  -29.8150 C   0  0  0  0  0  0  0  0  0  0  0  0
   -5.7670   23.5130  -29.6400 C   0  0  0  0  0  0  0  0  0  0  0  0
   -5.9897   20.9969  -32.8343 H   0  0  0  0  0  0  0  0  0  0  0  0
   -4.5641   21.6820  -33.6857 H   0  0  0  0  0  0  0  0  0  0  0  0
   -4.8429   19.9075  -33.6857 H   0  0  0  0  0  0  0  0  0  0  0  0
   -4.7934   20.7112  -30.9597 H   0  0  0  0  0  0  0  0  0  0  0  0
   -3.5500   19.7586  -31.8786 H   0  0  0  0  0  0  0  0  0  0  0  0
   -2.2955   19.8270  -29.9216 H   0  0  0  0  0  0  0  0  0  0  0  0
   -1.9127   19.6232  -27.4688 H   0  0  0  0  0  0  0  0  0  0  0  0
   -2.0027   21.6499  -26.0173 H   0  0  0  0  0  0  0  0  0  0  0  0
   -2.4443   23.8846  -27.0218 H   0  0  0  0  0  0  0  0  0  0  0  0
   -5.2465   24.5710  -32.8471 H   0  0  0  0  0  0  0  0  0  0  0  0
   -7.4266   23.4077  -33.1597 H   0  0  0  0  0  0  0  0  0  0  0  0
   -9.3842   21.9739  -30.2748 H   0  0  0  0  0  0  0  0  0  0  0  0
   -9.5658   22.7854  -31.8765 H   0  0  0  0  0  0  0  0  0  0  0  0
   -8.6650   19.9962  -31.2160 H   0  0  0  0  0  0  0  0  0  0  0  0
   -9.6433   20.6020  -32.5953 H   0  0  0  0  0  0  0  0  0  0  0  0
   -7.8601   20.8186  -32.5953 H   0  0  0  0  0  0  0  0  0  0  0  0
   -7.4670   22.3558  -28.9586 H   0  0  0  0  0  0  0  0  0  0  0  0
   -5.2851   23.5166  -28.6512 H   0  0  0  0  0  0  0  0  0  0  0  0
  1  2  1  0
  2  3  1  0
  3  4  1  0
  4  5  2  0
  5  6  1  0
  6  7  2  0
  7  8  1  0
  8  9  2  0
  9 10  1  0
 10 11  2  0
 10 12  1  0
 12 13  1  0
 13 14  2  0
 14 15  1  0
 15 16  2  0
 16 17  1  0
 17 18  1  0
 16 19  1  0
 19 20  2  0
  9  4  1  0
 20 13  1  0
  1 21  1  0
  1 22  1  0
  1 23  1  0
  2 24  1  0
  2 25  1  0
  5 26  1  0
  6 27  1  0
  7 28  1  0
  8 29  1  0
 14 30  1  0
 15 31  1  0
 17 32  1  0
 17 33  1  0
 18 34  1  0
 18 35  1  0
 18 36  1  0
 19 37  1  0
 20 38  1  0
M  CHG  1  12  -1
M  END
>  <UniqueID>  (37) 
34

>  <SMILES>  (37) 
CCSc1ccccc1C(=O)[N-]c1ccc(CC)cc1

>  <Energy>  (37) 
42.65914731786066

>  <Genealogy>  (37) 
CCSc1ccccc1C(=O)[N-]c1ccc(CC)cc1 (protonated)
CCSc1ccccc1C(=O)[N-]c1ccc(CC)cc1 (3D coordinates assigned)
CCSc1ccccc1C(=O)[N-]c1ccc(CC)cc1 (optimized conformer: 42.65914731786066 kcal/mol)

>  <smiles>  (37) 
CCSc1ccccc1C(=O)Nc1ccc(CC)cc1

>  <score_type>  (37) 
oracle

>  <origin>  (37) 
adgpu

>  <m_score__min__energy>  (37) 
-8.9000000000000004

>  <m_primary>  (37) 
energy

$$$$
37:0
     RDKit          3D

 48 52  0  0  0  0  0  0  0  0999 V2000
   -8.3480   19.7140  -34.0950 H   0  0  0  0  0  0  0  0  0  0  0  0
   -7.6070   20.0900  -33.4620 N   0  0  0  0  0  0  0  0  0  0  0  0
   -6.3700   19.7190  -33.5550 C   0  0  0  0  0  0  0  0  0  0  0  0
   -5.4500   20.2440  -32.7030 N   0  0  0  0  0  0  0  0  0  0  0  0
   -4.1360   19.8900  -32.7620 C   0  0  0  0  0  0  0  0  0  0  0  0
   -3.1760   20.4920  -31.8000 C   0  0  0  0  0  0  0  0  0  0  0  0
   -1.9660   19.8360  -31.5250 C   0  0  0  0  0  0  0  0  0  0  0  0
   -1.7441   18.8753  -32.0126 H   0  0  0  0  0  0  0  0  0  0  0  0
   -1.0420   20.3910  -30.6390 C   0  0  0  0  0  0  0  0  0  0  0  0
   -0.0913   19.8733  -30.4438 H   0  0  0  0  0  0  0  0  0  0  0  0
   -1.3190   21.6010  -29.9990 C   0  0  0  0  0  0  0  0  0  0  0  0
   -0.3900   22.1430  -29.1700 N   0  0  0  0  0  0  0  0  0  0  0  0
   -0.5850   23.3250  -28.5280 C   0  0  0  0  0  0  0  0  0  0  0  0
    0.4920   23.8440  -27.6530 C   0  0  0  0  0  0  0  0  0  0  0  0
    1.5090   24.5550  -28.2160 N   0  0  0  0  0  0  0  0  0  0  0  0
    2.5260   25.0740  -27.4790 C   0  0  0  0  0  0  0  0  0  0  0  0
    3.3311   25.6374  -27.9735 H   0  0  0  0  0  0  0  0  0  0  0  0
    2.5500   24.8930  -26.0960 C   0  0  0  0  0  0  0  0  0  0  0  0
    3.3739   25.3054  -25.4951 H   0  0  0  0  0  0  0  0  0  0  0  0
    1.5170   24.1830  -25.4840 C   0  0  0  0  0  0  0  0  0  0  0  0
    1.5196   24.0370  -24.3937 H   0  0  0  0  0  0  0  0  0  0  0  0
    0.4800   23.6580  -26.2570 C   0  0  0  0  0  0  0  0  0  0  0  0
   -0.3407   23.1029  -25.7792 H   0  0  0  0  0  0  0  0  0  0  0  0
   -1.8050   23.9990  -28.6900 C   0  0  0  0  0  0  0  0  0  0  0  0
   -1.9857   24.9410  -28.1514 H   0  0  0  0  0  0  0  0  0  0  0  0
   -2.7960   23.4770  -29.5360 C   0  0  0  0  0  0  0  0  0  0  0  0
   -4.0750   24.2190  -29.6520 C   0  0  0  0  0  0  0  0  0  0  0  0
   -4.4750   24.9200  -28.6860 O   0  0  0  0  0  0  0  0  0  0  0  0
   -4.8160   24.2520  -30.8810 N   0  0  0  0  0  0  0  0  0  0  0  0
   -6.0830   23.6230  -31.1240 C   0  0  0  0  0  0  0  0  0  0  0  0
   -6.7050   23.7980  -32.3640 C   0  0  0  0  0  0  0  0  0  0  0  0
   -6.2187   24.4079  -33.1396 H   0  0  0  0  0  0  0  0  0  0  0  0
   -7.9090   23.2170  -32.6150 N   0  0  0  0  0  0  0  0  0  0  0  0
   -8.5500   22.4680  -31.6790 C   0  0  0  0  0  0  0  0  0  0  0  0
   -9.5187   22.0037  -31.9156 H   0  0  0  0  0  0  0  0  0  0  0  0
   -7.9800   22.2880  -30.4190 C   0  0  0  0  0  0  0  0  0  0  0  0
   -8.4977   21.6886  -29.6557 H   0  0  0  0  0  0  0  0  0  0  0  0
   -6.7460   22.8760  -30.1360 C   0  0  0  0  0  0  0  0  0  0  0  0
   -6.2934   22.7546  -29.1408 H   0  0  0  0  0  0  0  0  0  0  0  0
   -2.5480   22.2620  -30.2230 C   0  0  0  0  0  0  0  0  0  0  0  0
   -3.4630   21.7030  -31.1410 C   0  0  0  0  0  0  0  0  0  0  0  0
   -4.4124   22.2199  -31.3443 H   0  0  0  0  0  0  0  0  0  0  0  0
   -3.7310   18.9460  -33.7180 C   0  0  0  0  0  0  0  0  0  0  0  0
   -2.6797   18.6285  -33.7815 H   0  0  0  0  0  0  0  0  0  0  0  0
   -4.6860   18.4180  -34.5860 C   0  0  0  0  0  0  0  0  0  0  0  0
   -4.3882   17.6812  -35.3465 H   0  0  0  0  0  0  0  0  0  0  0  0
   -5.9830   18.8110  -34.4950 N   0  0  0  0  0  0  0  0  0  0  0  0
   -6.6830   18.4000  -35.1550 H   0  0  0  0  0  0  0  0  0  0  0  0
  1  2  1  0
  2  3  2  0
  3  4  1  0
  4  5  2  0
  5  6  1  0
  6  7  2  0
  7  8  1  0
  7  9  1  0
  9 10  1  0
  9 11  2  0
 11 12  1  0
 12 13  2  0
 13 14  1  0
 14 15  2  0
 15 16  1  0
 16 17  1  0
 16 18  2  0
 18 19  1  0
 18 20  1  0
 20 21  1  0
 20 22  2  0
 22 23  1  0
 13 24  1  0
 24 25  1  0
 24 26  2  0
 26 27  1  0
 27 28  2  0
 27 29  1  0
 29 30  1  0
 30 31  2  0
 31 32  1  0
 31 33  1  0
 33 34  2  0
 34 35  1  0
 34 36  1  0
 36 37  1  0
 36 38  2  0
 38 39  1  0
 26 40  1  0
 40 41  2  0
 41 42  1  0
  5 43  1  0
 43 44  1  0
 43 45  2  0
 45 46  1  0
 45 47  1  0
 47 48  1  0
 47  3  1  0
 41  6  1  0
 40 11  1  0
 22 14  1  0
 38 30  1  0
M  CHG  1  29  -1
M  END
>  <UniqueID>  (38) 
35

>  <SMILES>  (38) 
[H]/N=c1/nc(-c2ccc3nc(-c4ccccn4)cc(C(=O)[N-]c4cccnc4)c3c2)cc[nH]1

>  <Energy>  (38) 
77.3712131952629

>  <Genealogy>  (38) 
N=c1nc(-c2ccc3nc(-c4ccccn4)cc(C(=O)[N-]c4cccnc4)c3c2)cc[nH]1 (protonated)
[H]/N=c1/nc(-c2ccc3nc(-c4ccccn4)cc(C(=O)[N-]c4cccnc4)c3c2)cc[nH]1 (cis-trans isomerization)
[H]/N=c1/nc(-c2ccc3nc(-c4ccccn4)cc(C(=O)[N-]c4cccnc4)c3c2)cc[nH]1 (3D coordinates assigned)
[H]/N=c1/nc(-c2ccc3nc(-c4ccccn4)cc(C(=O)[N-]c4cccnc4)c3c2)cc[nH]1 (optimized conformer: 77.3712131952629 kcal/mol)

>  <smiles>  (38) 
N=c1nc(-c2ccc3nc(-c4ccccn4)cc(C(=O)Nc4cccnc4)c3c2)cc[nH]1

>  <score_type>  (38) 
oracle

>  <origin>  (38) 
adgpu

>  <m_score__min__energy>  (38) 
-10.859999999999999

>  <m_primary>  (38) 
energy

$$$$
38:0
     RDKit          3D

 42 43  0  0  0  0  0  0  0  0999 V2000
   -8.9900   19.2880  -32.2040 C   0  0  0  0  0  0  0  0  0  0  0  0
   -8.2240   20.2610  -32.9050 O   0  0  0  0  0  0  0  0  0  0  0  0
   -7.5070   21.3070  -32.3050 C   0  0  0  0  0  0  0  0  0  0  0  0
   -8.1750   22.3580  -31.6450 C   0  0  0  0  0  0  0  0  0  0  0  0
   -7.4570   23.4000  -31.0550 C   0  0  0  0  0  0  0  0  0  0  0  0
   -6.0630   23.4160  -31.1160 C   0  0  0  0  0  0  0  0  0  0  0  0
   -5.1690   24.7470  -30.3780 S   0  0  0  0  0  0  0  0  0  0  0  0
   -5.7420   26.0610  -30.8310 O   0  0  0  0  0  0  0  0  0  0  0  0
   -3.7410   24.6740  -30.8420 O   0  0  0  0  0  0  0  0  0  0  0  0
   -5.2030   24.6860  -28.6360 N   0  0  0  0  0  0  0  0  0  0  0  0
   -4.1060   23.8840  -28.0750 C   0  0  0  0  0  0  0  0  0  0  0  0
   -3.9460   22.5310  -28.7740 C   0  0  0  0  0  0  0  0  0  0  0  0
   -2.2200   21.9390  -28.6740 S   0  0  0  0  0  0  0  0  0  0  0  0
   -1.5140   23.2640  -29.7160 C   0  0  0  0  0  0  0  0  0  0  0  0
   -1.1240   24.4430  -28.8820 C   0  0  0  0  0  0  0  0  0  0  0  0
   -0.2720   24.4190  -27.7950 C   0  0  0  0  0  0  0  0  0  0  0  0
   -0.1880   25.7260  -27.3640 C   0  0  0  0  0  0  0  0  0  0  0  0
   -0.9910   26.4620  -28.2100 C   0  0  0  0  0  0  0  0  0  0  0  0
   -1.5370   25.6690  -29.1040 O   0  0  0  0  0  0  0  0  0  0  0  0
   -5.3880   22.3790  -31.7700 C   0  0  0  0  0  0  0  0  0  0  0  0
   -6.0890   21.3220  -32.3650 C   0  0  0  0  0  0  0  0  0  0  0  0
   -5.3170   20.3300  -32.9970 O   0  0  0  0  0  0  0  0  0  0  0  0
   -5.7950   19.3180  -33.8750 C   0  0  0  0  0  0  0  0  0  0  0  0
   -8.8713   19.4387  -31.1209 H   0  0  0  0  0  0  0  0  0  0  0  0
  -10.0511   19.3921  -32.4746 H   0  0  0  0  0  0  0  0  0  0  0  0
   -8.6397   18.2810  -32.4746 H   0  0  0  0  0  0  0  0  0  0  0  0
   -9.2738   22.3573  -31.5942 H   0  0  0  0  0  0  0  0  0  0  0  0
   -7.9922   24.2114  -30.5401 H   0  0  0  0  0  0  0  0  0  0  0  0
   -5.0720   25.6680  -28.2990 H   0  0  0  0  0  0  0  0  0  0  0  0
   -3.1676   24.4481  -28.1811 H   0  0  0  0  0  0  0  0  0  0  0  0
   -4.3447   23.6866  -27.0195 H   0  0  0  0  0  0  0  0  0  0  0  0
   -4.6064   21.7963  -28.2902 H   0  0  0  0  0  0  0  0  0  0  0  0
   -4.2131   22.6517  -29.8342 H   0  0  0  0  0  0  0  0  0  0  0  0
   -0.6240   22.8791  -30.2353 H   0  0  0  0  0  0  0  0  0  0  0  0
   -2.2738   23.5828  -30.4448 H   0  0  0  0  0  0  0  0  0  0  0  0
    0.2330   23.5420  -27.3640 H   0  0  0  0  0  0  0  0  0  0  0  0
    0.4010   26.1054  -26.5160 H   0  0  0  0  0  0  0  0  0  0  0  0
   -1.1502   27.5485  -28.1459 H   0  0  0  0  0  0  0  0  0  0  0  0
   -4.2891   22.3941  -31.8176 H   0  0  0  0  0  0  0  0  0  0  0  0
   -6.1916   18.4783  -33.2853 H   0  0  0  0  0  0  0  0  0  0  0  0
   -6.5936   19.7301  -34.5093 H   0  0  0  0  0  0  0  0  0  0  0  0
   -4.9694   18.9630  -34.5093 H   0  0  0  0  0  0  0  0  0  0  0  0
  1  2  1  0
  2  3  1  0
  3  4  2  0
  4  5  1  0
  5  6  2  0
  6  7  1  0
  7  8  2  0
  7  9  2  0
  7 10  1  0
 10 11  1  0
 11 12  1  0
 12 13  1  0
 13 14  1  0
 14 15  1  0
 15 16  2  0
 16 17  1  0
 17 18  2  0
 18 19  1  0
  6 20  1  0
 20 21  2  0
 21 22  1  0
 22 23  1  0
 21  3  1  0
 19 15  1  0
  1 24  1  0
  1 25  1  0
  1 26  1  0
  4 27  1  0
  5 28  1  0
 10 29  1  0
 11 30  1  0
 11 31  1  0
 12 32  1  0
 12 33  1  0
 14 34  1  0
 14 35  1  0
 16 36  1  0
 17 37  1  0
 18 38  1  0
 20 39  1  0
 23 40  1  0
 23 41  1  0
 23 42  1  0
M  END
>  <UniqueID>  (39) 
36

>  <SMILES>  (39) 
COc1ccc(S(=O)(=O)NCCSCc2ccco2)cc1OC

>  <Energy>  (39) 
60.70184332321162

>  <Genealogy>  (39) 
COc1ccc(S(=O)(=O)NCCSCc2ccco2)cc1OC (3D coordinates assigned)
COc1ccc(S(=O)(=O)NCCSCc2ccco2)cc1OC (optimized conformer: 60.70184332321162 kcal/mol)

>  <smiles>  (39) 
COc1ccc(S(=O)(=O)NCCSCc2ccco2)cc1OC

>  <score_type>  (39) 
oracle

>  <origin>  (39) 
adgpu

>  <m_score__min__energy>  (39) 
-7.8099999999999996

>  <m_primary>  (39) 
energy

$$$$
39:0
     RDKit          3D

 31 33  0  0  0  0  0  0  0  0999 V2000
   -3.1010   25.6700  -30.8220 H   0  0  0  0  0  0  0  0  0  0  0  0
   -4.1100   25.5830  -30.5650 N   0  0  0  0  0  0  0  0  0  0  0  0
   -4.7840   24.5130  -30.8310 C   0  0  0  0  0  0  0  0  0  0  0  0
   -6.0910   24.4350  -30.4780 N   0  0  0  0  0  0  0  0  0  0  0  0
   -6.8240   23.3260  -30.7490 C   0  0  0  0  0  0  0  0  0  0  0  0
   -7.8809   23.2816  -30.4474 H   0  0  0  0  0  0  0  0  0  0  0  0
   -6.2420   22.2370  -31.4110 C   0  0  0  0  0  0  0  0  0  0  0  0
   -7.0900   21.0780  -31.7650 C   0  0  0  0  0  0  0  0  0  0  0  0
   -8.4690   21.2470  -31.9590 C   0  0  0  0  0  0  0  0  0  0  0  0
   -8.9203   22.2444  -31.8518 H   0  0  0  0  0  0  0  0  0  0  0  0
   -9.2700   20.1510  -32.2880 C   0  0  0  0  0  0  0  0  0  0  0  0
  -10.3528   20.2862  -32.4272 H   0  0  0  0  0  0  0  0  0  0  0  0
   -8.7020   18.8840  -32.4410 C   0  0  0  0  0  0  0  0  0  0  0  0
   -9.3429   18.0224  -32.6793 H   0  0  0  0  0  0  0  0  0  0  0  0
   -7.3150   18.7040  -32.2920 C   0  0  0  0  0  0  0  0  0  0  0  0
   -6.7030   17.3310  -32.4070 C   0  0  0  0  0  0  0  0  0  0  0  0
   -6.4840   16.7900  -31.1520 F   0  0  0  0  0  0  0  0  0  0  0  0
   -7.5630   16.5080  -33.1090 F   0  0  0  0  0  0  0  0  0  0  0  0
   -5.4890   17.3860  -33.0710 F   0  0  0  0  0  0  0  0  0  0  0  0
   -6.5170   19.8070  -31.9400 C   0  0  0  0  0  0  0  0  0  0  0  0
   -5.4341   19.6736  -31.8003 H   0  0  0  0  0  0  0  0  0  0  0  0
   -4.8700   22.3230  -31.7500 C   0  0  0  0  0  0  0  0  0  0  0  0
   -4.1230   21.2060  -32.3710 C   0  0  0  0  0  0  0  0  0  0  0  0
   -4.3230   20.7530  -33.5890 O   0  0  0  0  0  0  0  0  0  0  0  0
   -3.5020   19.7520  -33.8090 C   0  0  0  0  0  0  0  0  0  0  0  0
   -3.4395   19.1778  -34.7452 H   0  0  0  0  0  0  0  0  0  0  0  0
   -2.7300   19.5300  -32.6880 C   0  0  0  0  0  0  0  0  0  0  0  0
   -1.9514   18.7632  -32.5622 H   0  0  0  0  0  0  0  0  0  0  0  0
   -3.1320   20.4640  -31.7570 C   0  0  0  0  0  0  0  0  0  0  0  0
   -2.7438   20.5922  -30.7358 H   0  0  0  0  0  0  0  0  0  0  0  0
   -4.1890   23.4640  -31.4550 N   0  0  0  0  0  0  0  0  0  0  0  0
  1  2  1  0
  2  3  2  0
  3  4  1  0
  4  5  2  0
  5  6  1  0
  5  7  1  0
  7  8  1  0
  8  9  2  0
  9 10  1  0
  9 11  1  0
 11 12  1  0
 11 13  2  0
 13 14  1  0
 13 15  1  0
 15 16  1  0
 16 17  1  0
 16 18  1  0
 16 19  1  0
 15 20  2  0
 20 21  1  0
  7 22  2  0
 22 23  1  0
 23 24  1  0
 24 25  1  0
 25 26  1  0
 25 27  2  0
 27 28  1  0
 27 29  1  0
 29 30  1  0
 22 31  1  0
 31  3  1  0
 20  8  1  0
 29 23  2  0
M  CHG  1  31  -1
M  END
>  <UniqueID>  (40) 
37

>  <SMILES>  (40) 
[H]/N=c1/ncc(-c2cccc(C(F)(F)F)c2)c(-c2ccco2)[n-]1

>  <Energy>  (40) 
69.26042532409477

>  <Genealogy>  (40) 
N=c1ncc(-c2cccc(C(F)(F)F)c2)c(-c2ccco2)[n-]1 (protonated)
[H]/N=c1/ncc(-c2cccc(C(F)(F)F)c2)c(-c2ccco2)[n-]1 (cis-trans isomerization)
[H]/N=c1/ncc(-c2cccc(C(F)(F)F)c2)c(-c2ccco2)[n-]1 (3D coordinates assigned)
[H]/N=c1/ncc(-c2cccc(C(F)(F)F)c2)c(-c2ccco2)[n-]1 (optimized conformer: 69.26042532409477 kcal/mol)

>  <smiles>  (40) 
N=c1ncc(-c2cccc(C(F)(F)F)c2)c(-c2ccco2)[nH]1

>  <score_type>  (40) 
oracle

>  <origin>  (40) 
adgpu

>  <m_score__min__energy>  (40) 
-8.9100000000000001

>  <m_primary>  (40) 
energy

$$$$
40:0
     RDKit          3D

 80 84  0  0  1  0  0  0  0  0999 V2000
   -7.6070   17.8930  -31.7060 C   0  0  0  0  0  0  0  0  0  0  0  0
   -6.5500   17.0840  -32.4160 C   0  0  0  0  0  0  0  0  0  0  0  0
   -5.2370   17.4920  -32.1180 O   0  0  0  0  0  0  0  0  0  0  0  0
   -4.2440   17.3550  -33.0550 C   0  0  0  0  0  0  0  0  0  0  0  0
   -4.1120   16.3170  -33.9430 C   0  0  0  0  0  0  0  0  0  0  0  0
   -3.0960   16.2250  -34.8640 C   0  0  0  0  0  0  0  0  0  0  0  0
   -2.9900   15.1300  -35.7650 N   0  0  0  0  0  0  0  0  0  0  0  0
   -1.9690   15.1660  -36.8110 C   0  0  0  0  0  0  0  0  0  0  0  0
   -2.4290   14.2250  -37.9050 C   0  0  0  0  0  0  0  0  0  0  0  0
   -2.5440   12.8610  -37.4770 N   0  0  0  0  0  0  0  0  0  0  0  0
   -3.2910   12.1460  -38.5240 C   0  0  0  0  0  0  0  0  0  0  0  0
   -3.1690   12.7090  -36.1980 C   0  0  0  0  0  0  0  0  0  0  0  0
   -3.8330   13.9810  -35.7040 C   0  0  0  0  0  0  0  0  0  0  0  0
   -2.1690   17.2430  -34.8810 C   0  0  0  0  0  0  0  0  0  0  0  0
   -2.2450   18.3300  -34.0030 C   0  0  0  0  0  0  0  0  0  0  0  0
   -3.2850   18.3730  -33.0980 C   0  0  0  0  0  0  0  0  0  0  0  0
   -3.3270   19.4880  -32.2200 N   0  0  0  0  0  0  0  0  0  0  0  0
   -4.4080   20.1870  -32.1760 C   0  0  0  0  0  0  0  0  0  0  0  0
   -5.5020   19.9470  -32.8940 N   0  0  0  0  0  0  0  0  0  0  0  0
   -6.6050   20.7180  -32.8090 C   0  0  0  0  0  0  0  0  0  0  0  0
   -6.5680   21.7900  -31.9350 C   0  0  0  0  0  0  0  0  0  0  0  0
   -7.7630   22.6780  -31.8010 C   0  0  0  0  0  0  0  0  0  0  0  0
   -8.8430   21.9930  -32.3230 F   0  0  0  0  0  0  0  0  0  0  0  0
   -7.5960   23.8060  -32.6130 F   0  0  0  0  0  0  0  0  0  0  0  0
   -7.9730   23.0730  -30.5140 F   0  0  0  0  0  0  0  0  0  0  0  0
   -5.4510   22.0620  -31.1800 C   0  0  0  0  0  0  0  0  0  0  0  0
   -5.4850   23.0770  -30.3880 N   0  0  0  0  0  0  0  0  0  0  0  0
   -4.3230   23.3490  -29.6120 C   0  0  0  0  0  0  0  0  0  0  0  0
   -3.6660   24.5770  -29.7560 C   0  0  0  0  0  0  0  0  0  0  0  0
   -2.5410   24.8280  -28.9980 C   0  0  0  0  0  0  0  0  0  0  0  0
   -2.0920   23.8670  -28.1180 C   0  0  0  0  0  0  0  0  0  0  0  0
   -0.9390   24.1810  -27.3720 O   0  0  0  0  0  0  0  0  0  0  0  0
   -0.9140   25.2960  -26.5370 C   0  0  0  0  0  0  0  0  0  0  0  0
   -1.2730   25.2050  -25.2010 C   0  0  0  0  0  0  0  0  0  0  0  0
   -1.2340   26.3280  -24.4170 C   0  0  0  0  0  0  0  0  0  0  0  0
   -0.8470   27.5560  -24.9160 C   0  0  0  0  0  0  0  0  0  0  0  0
   -0.4920   27.6480  -26.2310 C   0  0  0  0  0  0  0  0  0  0  0  0
   -0.5210   26.5350  -27.0470 C   0  0  0  0  0  0  0  0  0  0  0  0
   -2.7050   22.6460  -27.9410 C   0  0  0  0  0  0  0  0  0  0  0  0
   -2.2100   21.6760  -27.0240 N   0  0  0  0  0  0  0  0  0  0  0  0
   -1.9570   20.0170  -27.4820 S   0  0  0  0  0  0  0  0  0  0  0  0
   -3.1330   18.9530  -26.7160 C   0  0  0  0  0  0  0  0  0  0  0  0
   -2.1200   19.8840  -28.9880 O   0  0  0  0  0  0  0  0  0  0  0  0
   -0.5500   19.6370  -27.1520 O   0  0  0  0  0  0  0  0  0  0  0  0
   -3.8370   22.4060  -28.7120 C   0  0  0  0  0  0  0  0  0  0  0  0
   -4.3870   21.2500  -31.3170 N   0  0  0  0  0  0  0  0  0  0  0  0
   -7.4763   17.7930  -30.6184 H   0  0  0  0  0  0  0  0  0  0  0  0
   -7.5118   18.9512  -31.9910 H   0  0  0  0  0  0  0  0  0  0  0  0
   -8.6036   17.5247  -31.9910 H   0  0  0  0  0  0  0  0  0  0  0  0
   -6.6623   16.0300  -32.1221 H   0  0  0  0  0  0  0  0  0  0  0  0
   -6.6984   17.2340  -33.4956 H   0  0  0  0  0  0  0  0  0  0  0  0
   -4.8621   15.5128  -33.9161 H   0  0  0  0  0  0  0  0  0  0  0  0
   -1.8689   16.1872  -37.2074 H   0  0  0  0  0  0  0  0  0  0  0  0
   -0.9885   14.8620  -36.4157 H   0  0  0  0  0  0  0  0  0  0  0  0
   -3.4133   14.5617  -38.2624 H   0  0  0  0  0  0  0  0  0  0  0  0
   -1.6655   14.2519  -38.6964 H   0  0  0  0  0  0  0  0  0  0  0  0
   -4.0102   11.4576  -38.0561 H   0  0  0  0  0  0  0  0  0  0  0  0
   -3.8316   12.8718  -39.1493 H   0  0  0  0  0  0  0  0  0  0  0  0
   -2.5896   11.5741  -39.1493 H   0  0  0  0  0  0  0  0  0  0  0  0
   -3.9336   11.9217  -36.2735 H   0  0  0  0  0  0  0  0  0  0  0  0
   -2.3801   12.4498  -35.4766 H   0  0  0  0  0  0  0  0  0  0  0  0
   -4.7231   14.1704  -36.3219 H   0  0  0  0  0  0  0  0  0  0  0  0
   -4.0829   13.8221  -34.6446 H   0  0  0  0  0  0  0  0  0  0  0  0
   -1.3436   17.2005  -35.6069 H   0  0  0  0  0  0  0  0  0  0  0  0
   -1.4926   19.1318  -34.0339 H   0  0  0  0  0  0  0  0  0  0  0  0
   -5.4980   19.1370  -33.5380 H   0  0  0  0  0  0  0  0  0  0  0  0
   -7.4999   20.5029  -33.4114 H   0  0  0  0  0  0  0  0  0  0  0  0
   -4.0415   25.3309  -30.4635 H   0  0  0  0  0  0  0  0  0  0  0  0
   -2.0078   25.7853  -29.0950 H   0  0  0  0  0  0  0  0  0  0  0  0
   -1.5861   24.2406  -24.7745 H   0  0  0  0  0  0  0  0  0  0  0  0
   -1.5197   26.2489  -23.3577 H   0  0  0  0  0  0  0  0  0  0  0  0
   -0.8252   28.4433  -24.2662 H   0  0  0  0  0  0  0  0  0  0  0  0
   -0.1798   28.6184  -26.6443 H   0  0  0  0  0  0  0  0  0  0  0  0
   -0.2329   26.6246  -28.1048 H   0  0  0  0  0  0  0  0  0  0  0  0
   -2.0010   21.9980  -26.0530 H   0  0  0  0  0  0  0  0  0  0  0  0
   -3.0434   19.0341  -25.6227 H   0  0  0  0  0  0  0  0  0  0  0  0
   -4.1477   19.2462  -27.0235 H   0  0  0  0  0  0  0  0  0  0  0  0
   -2.9425   17.9142  -27.0235 H   0  0  0  0  0  0  0  0  0  0  0  0
   -4.3621   21.4451  -28.6076 H   0  0  0  0  0  0  0  0  0  0  0  0
   -3.5340   21.4340  -30.7530 H   0  0  0  0  0  0  0  0  0  0  0  0
  1  2  1  0
  2  3  1  0
  3  4  1  0
  4  5  2  0
  5  6  1  0
  6  7  1  0
  7  8  1  0
  8  9  1  0
  9 10  1  0
 10 11  1  0
 10 12  1  0
 12 13  1  0
  6 14  2  0
 14 15  1  0
 15 16  2  0
 16 17  1  0
 17 18  2  0
 18 19  1  0
 19 20  1  0
 20 21  2  0
 21 22  1  0
 22 23  1  0
 22 24  1  0
 22 25  1  0
 21 26  1  0
 26 27  2  0
 27 28  1  0
 28 29  2  0
 29 30  1  0
 30 31  2  0
 31 32  1  0
 32 33  1  0
 33 34  2  0
 34 35  1  0
 35 36  2  0
 36 37  1  0
 37 38  2  0
 31 39  1  0
 39 40  1  0
 40 41  1  0
 41 42  1  0
 41 43  2  0
 41 44  2  0
 39 45  2  0
 26 46  1  0
 16  4  1  0
 46 18  1  0
 13  7  1  0
 45 28  1  0
 38 33  1  0
  1 47  1  0
  1 48  1  0
  1 49  1  0
  2 50  1  0
  2 51  1  0
  5 52  1  0
  8 53  1  0
  8 54  1  0
  9 55  1  0
  9 56  1  0
 11 57  1  0
 11 58  1  0
 11 59  1  0
 12 60  1  0
 12 61  1  0
 13 62  1  0
 13 63  1  0
 14 64  1  0
 15 65  1  0
 19 66  1  0
 20 67  1  0
 29 68  1  0
 30 69  1  0
 34 70  1  0
 35 71  1  0
 36 72  1  0
 37 73  1  0
 38 74  1  0
 40 75  1  0
 42 76  1  0
 42 77  1  0
 42 78  1  0
 45 79  1  0
 46 80  1  0
M  END
>  <smiles>  (41) 
CCOc1cc(N2CCN(C)CC2)ccc1N=c1[nH]cc(C(F)(F)F)c(=Nc2ccc(Oc3ccccc3)c(NS(C)(=O)=O)c2)[nH]1

>  <score_type>  (41) 
oracle

>  <origin>  (41) 
adgpu

>  <m_score__min__energy>  (41) 
-9.7799999999999994

>  <m_primary>  (41) 
energy

$$$$
41:0
     RDKit          3D

 50 52  0  0  0  0  0  0  0  0999 V2000
   -9.8640   21.4840  -31.7560 C   0  0  0  0  0  0  0  0  0  0  0  0
   -8.8410   22.0550  -30.9460 O   0  0  0  0  0  0  0  0  0  0  0  0
   -7.5310   22.3280  -31.3750 C   0  0  0  0  0  0  0  0  0  0  0  0
   -6.8650   23.4930  -30.9500 C   0  0  0  0  0  0  0  0  0  0  0  0
   -5.5400   23.7480  -31.3290 C   0  0  0  0  0  0  0  0  0  0  0  0
   -4.8310   24.9570  -30.8410 C   0  0  0  0  0  0  0  0  0  0  0  0
   -5.4350   26.0630  -30.8240 O   0  0  0  0  0  0  0  0  0  0  0  0
   -3.4870   24.9040  -30.3410 N   0  0  0  0  0  0  0  0  0  0  0  0
   -2.8090   23.7300  -29.8680 C   0  0  0  0  0  0  0  0  0  0  0  0
   -2.6820   23.4620  -28.4990 C   0  0  0  0  0  0  0  0  0  0  0  0
   -1.9740   22.3420  -28.0670 C   0  0  0  0  0  0  0  0  0  0  0  0
   -1.3980   21.4590  -28.9930 C   0  0  0  0  0  0  0  0  0  0  0  0
   -0.6000   20.3300  -28.4710 C   0  0  0  0  0  0  0  0  0  0  0  0
   -1.2350   19.2260  -27.8810 C   0  0  0  0  0  0  0  0  0  0  0  0
   -0.4770   18.1540  -27.4010 C   0  0  0  0  0  0  0  0  0  0  0  0
    0.9160   18.1740  -27.5140 C   0  0  0  0  0  0  0  0  0  0  0  0
    1.5530   19.2660  -28.1120 C   0  0  0  0  0  0  0  0  0  0  0  0
    0.7980   20.3390  -28.5950 C   0  0  0  0  0  0  0  0  0  0  0  0
   -1.5890   21.6760  -30.3830 C   0  0  0  0  0  0  0  0  0  0  0  0
   -1.0230   20.7330  -31.4290 C   0  0  0  0  0  0  0  0  0  0  0  0
   -1.3790   19.4260  -31.1530 F   0  0  0  0  0  0  0  0  0  0  0  0
    0.3560   20.8370  -31.4460 F   0  0  0  0  0  0  0  0  0  0  0  0
   -1.5000   21.0390  -32.6920 F   0  0  0  0  0  0  0  0  0  0  0  0
   -2.2840   22.8300  -30.7990 C   0  0  0  0  0  0  0  0  0  0  0  0
   -4.8930   22.8550  -32.1900 C   0  0  0  0  0  0  0  0  0  0  0  0
   -5.5470   21.6970  -32.6470 C   0  0  0  0  0  0  0  0  0  0  0  0
   -4.9170   20.7830  -33.5080 O   0  0  0  0  0  0  0  0  0  0  0  0
   -4.1990   19.6290  -33.0810 C   0  0  0  0  0  0  0  0  0  0  0  0
   -6.8620   21.4240  -32.2390 C   0  0  0  0  0  0  0  0  0  0  0  0
   -7.4430   20.2380  -32.7300 O   0  0  0  0  0  0  0  0  0  0  0  0
   -7.5320   18.9910  -32.0480 C   0  0  0  0  0  0  0  0  0  0  0  0
  -10.6423   21.0496  -31.1115 H   0  0  0  0  0  0  0  0  0  0  0  0
  -10.3076   22.2650  -32.3911 H   0  0  0  0  0  0  0  0  0  0  0  0
   -9.4321   20.6965  -32.3911 H   0  0  0  0  0  0  0  0  0  0  0  0
   -7.3931   24.2151  -30.3099 H   0  0  0  0  0  0  0  0  0  0  0  0
   -3.1424   24.1374  -27.7629 H   0  0  0  0  0  0  0  0  0  0  0  0
   -1.8657   22.1483  -26.9896 H   0  0  0  0  0  0  0  0  0  0  0  0
   -2.3315   19.2043  -27.7961 H   0  0  0  0  0  0  0  0  0  0  0  0
   -0.9777   17.2933  -26.9336 H   0  0  0  0  0  0  0  0  0  0  0  0
    1.5111   17.3311  -27.1327 H   0  0  0  0  0  0  0  0  0  0  0  0
    2.6492   19.2807  -28.2024 H   0  0  0  0  0  0  0  0  0  0  0  0
    1.3009   21.1924  -29.0734 H   0  0  0  0  0  0  0  0  0  0  0  0
   -2.4150   23.0249  -31.8736 H   0  0  0  0  0  0  0  0  0  0  0  0
   -3.8618   23.0609  -32.5129 H   0  0  0  0  0  0  0  0  0  0  0  0
   -4.1784   19.5959  -31.9817 H   0  0  0  0  0  0  0  0  0  0  0  0
   -4.6947   18.7256  -33.4658 H   0  0  0  0  0  0  0  0  0  0  0  0
   -3.1695   19.6745  -33.4658 H   0  0  0  0  0  0  0  0  0  0  0  0
   -7.5196   19.1653  -30.9620 H   0  0  0  0  0  0  0  0  0  0  0  0
   -8.4685   18.4862  -32.3276 H   0  0  0  0  0  0  0  0  0  0  0  0
   -6.6767   18.3583  -32.3276 H   0  0  0  0  0  0  0  0  0  0  0  0
  1  2  1  0
  2  3  1  0
  3  4  2  0
  4  5  1  0
  5  6  1  0
  6  7  2  0
  6  8  1  0
  8  9  1  0
  9 10  2  0
 10 11  1  0
 11 12  2  0
 12 13  1  0
 13 14  2  0
 14 15  1  0
 15 16  2  0
 16 17  1  0
 17 18  2  0
 12 19  1  0
 19 20  1  0
 20 21  1  0
 20 22  1  0
 20 23  1  0
 19 24  2  0
  5 25  2  0
 25 26  1  0
 26 27  1  0
 27 28  1  0
 26 29  2  0
 29 30  1  0
 30 31  1  0
 29  3  1  0
 24  9  1  0
 18 13  1  0
  1 32  1  0
  1 33  1  0
  1 34  1  0
  4 35  1  0
 10 36  1  0
 11 37  1  0
 14 38  1  0
 15 39  1  0
 16 40  1  0
 17 41  1  0
 18 42  1  0
 24 43  1  0
 25 44  1  0
 28 45  1  0
 28 46  1  0
 28 47  1  0
 31 48  1  0
 31 49  1  0
 31 50  1  0
M  CHG  1   8  -1
M  END
>  <UniqueID>  (42) 
38

>  <SMILES>  (42) 
COc1cc(C(=O)[N-]c2ccc(-c3ccccc3)c(C(F)(F)F)c2)cc(OC)c1OC

>  <Energy>  (42) 
69.92142446696529

>  <Genealogy>  (42) 
COc1cc(C(=O)[N-]c2ccc(-c3ccccc3)c(C(F)(F)F)c2)cc(OC)c1OC (protonated)
COc1cc(C(=O)[N-]c2ccc(-c3ccccc3)c(C(F)(F)F)c2)cc(OC)c1OC (3D coordinates assigned)
COc1cc(C(=O)[N-]c2ccc(-c3ccccc3)c(C(F)(F)F)c2)cc(OC)c1OC (optimized conformer: 69.92142446696529 kcal/mol)

>  <smiles>  (42) 
COc1cc(C(=O)Nc2ccc(-c3ccccc3)c(C(F)(F)F)c2)cc(OC)c1OC

>  <score_type>  (42) 
oracle

>  <origin>  (42) 
adgpu

>  <m_score__min__energy>  (42) 
-9.8699999999999992

>  <m_primary>  (42) 
energy

$$$$
42:0
     RDKit          3D

 33 34  0  0  0  0  0  0  0  0999 V2000
   -2.3660   24.7060  -28.4240 C   0  0  0  0  0  0  0  0  0  0  0  0
   -3.1090   25.2990  -29.4820 O   0  0  0  0  0  0  0  0  0  0  0  0
   -4.1900   24.6860  -30.1320 C   0  0  0  0  0  0  0  0  0  0  0  0
   -5.4940   25.2100  -30.0850 C   0  0  0  0  0  0  0  0  0  0  0  0
   -6.5370   24.5680  -30.7540 C   0  0  0  0  0  0  0  0  0  0  0  0
   -6.3010   23.3840  -31.4800 C   0  0  0  0  0  0  0  0  0  0  0  0
   -7.3280   22.7240  -32.1730 O   0  0  0  0  0  0  0  0  0  0  0  0
   -8.5470   22.2830  -31.5830 C   0  0  0  0  0  0  0  0  0  0  0  0
   -4.9970   22.8510  -31.5160 C   0  0  0  0  0  0  0  0  0  0  0  0
   -4.6580   21.3610  -32.4040 S   0  0  0  0  0  0  0  0  0  0  0  0
   -4.1080   20.3420  -31.4480 O   0  0  0  0  0  0  0  0  0  0  0  0
   -3.6480   21.6090  -33.4900 O   0  0  0  0  0  0  0  0  0  0  0  0
   -6.1080   20.7350  -33.1240 N   0  0  0  0  0  0  0  0  0  0  0  0
   -6.3670   19.3330  -33.3240 C   0  0  0  0  0  0  0  0  0  0  0  0
   -7.2080   18.5910  -32.4780 C   0  0  0  0  0  0  0  0  0  0  0  0
   -7.4120   17.2690  -32.7130 N   0  0  0  0  0  0  0  0  0  0  0  0
   -6.8130   16.6430  -33.7570 C   0  0  0  0  0  0  0  0  0  0  0  0
   -5.9930   17.3370  -34.5870 N   0  0  0  0  0  0  0  0  0  0  0  0
   -5.7600   18.6600  -34.3910 C   0  0  0  0  0  0  0  0  0  0  0  0
   -3.9540   23.5120  -30.8530 C   0  0  0  0  0  0  0  0  0  0  0  0
   -2.7774   25.0343  -27.4581 H   0  0  0  0  0  0  0  0  0  0  0  0
   -2.4332   23.6105  -28.4978 H   0  0  0  0  0  0  0  0  0  0  0  0
   -1.3127   25.0145  -28.4978 H   0  0  0  0  0  0  0  0  0  0  0  0
   -5.6931   26.1312  -29.5177 H   0  0  0  0  0  0  0  0  0  0  0  0
   -7.5520   24.9901  -30.7141 H   0  0  0  0  0  0  0  0  0  0  0  0
   -8.4568   22.3156  -30.4872 H   0  0  0  0  0  0  0  0  0  0  0  0
   -9.3684   22.9410  -31.9031 H   0  0  0  0  0  0  0  0  0  0  0  0
   -8.7573   21.2518  -31.9031 H   0  0  0  0  0  0  0  0  0  0  0  0
   -6.8290   21.4310  -33.4190 H   0  0  0  0  0  0  0  0  0  0  0  0
   -7.7012   19.0807  -31.6254 H   0  0  0  0  0  0  0  0  0  0  0  0
   -6.9920   15.5717  -33.9312 H   0  0  0  0  0  0  0  0  0  0  0  0
   -5.0915   19.2054  -35.0734 H   0  0  0  0  0  0  0  0  0  0  0  0
   -2.9348   23.1009  -30.9007 H   0  0  0  0  0  0  0  0  0  0  0  0
  1  2  1  0
  2  3  1  0
  3  4  2  0
  4  5  1  0
  5  6  2  0
  6  7  1  0
  7  8  1  0
  6  9  1  0
  9 10  1  0
 10 11  2  0
 10 12  2  0
 10 13  1  0
 13 14  1  0
 14 15  2  0
 15 16  1  0
 16 17  2  0
 17 18  1  0
 18 19  2  0
  9 20  2  0
 20  3  1  0
 19 14  1  0
  1 21  1  0
  1 22  1  0
  1 23  1  0
  4 24  1  0
  5 25  1  0
  8 26  1  0
  8 27  1  0
  8 28  1  0
 13 29  1  0
 15 30  1  0
 17 31  1  0
 19 32  1  0
 20 33  1  0
M  END
>  <UniqueID>  (43) 
39

>  <SMILES>  (43) 
COc1ccc(OC)c(S(=O)(=O)Nc2cncnc2)c1

>  <Energy>  (43) 
36.94969841689144

>  <Genealogy>  (43) 
COc1ccc(OC)c(S(=O)(=O)Nc2cncnc2)c1 (3D coordinates assigned)
COc1ccc(OC)c(S(=O)(=O)Nc2cncnc2)c1 (optimized conformer: 36.94969841689144 kcal/mol)

>  <smiles>  (43) 
COc1ccc(OC)c(S(=O)(=O)Nc2cncnc2)c1

>  <score_type>  (43) 
oracle

>  <origin>  (43) 
adgpu

>  <m_score__min__energy>  (43) 
-6.5599999999999996

>  <m_primary>  (43) 
energy

$$$$
43:0
     RDKit          3D

 41 44  0  0  0  0  0  0  0  0999 V2000
   -3.5470   25.6410  -31.6140 H   0  0  0  0  0  0  0  0  0  0  0  0
   -4.0480   25.5990  -30.7380 O   0  0  0  0  0  0  0  0  0  0  0  0
   -3.6160   24.8210  -29.6850 N   0  0  0  0  0  0  0  0  0  0  0  0
   -3.4680   23.5300  -29.7230 C   0  0  0  0  0  0  0  0  0  0  0  0
   -2.7760   22.7550  -28.6940 C   0  0  0  0  0  0  0  0  0  0  0  0
   -2.2480   23.1660  -27.4700 C   0  0  0  0  0  0  0  0  0  0  0  0
   -2.3402   24.2105  -27.1374 H   0  0  0  0  0  0  0  0  0  0  0  0
   -1.5950   22.2100  -26.6730 C   0  0  0  0  0  0  0  0  0  0  0  0
   -1.1715   22.5058  -25.7018 H   0  0  0  0  0  0  0  0  0  0  0  0
   -1.4790   20.8740  -27.1100 C   0  0  0  0  0  0  0  0  0  0  0  0
   -0.9686   20.1337  -26.4763 H   0  0  0  0  0  0  0  0  0  0  0  0
   -2.0120   20.4830  -28.3510 C   0  0  0  0  0  0  0  0  0  0  0  0
   -1.9256   19.4435  -28.7004 H   0  0  0  0  0  0  0  0  0  0  0  0
   -2.6530   21.4480  -29.1270 C   0  0  0  0  0  0  0  0  0  0  0  0
   -3.2990   21.3310  -30.4310 C   0  0  0  0  0  0  0  0  0  0  0  0
   -3.5080   20.1920  -31.2070 C   0  0  0  0  0  0  0  0  0  0  0  0
   -3.0856   19.2219  -30.9062 H   0  0  0  0  0  0  0  0  0  0  0  0
   -4.2720   20.3100  -32.3850 C   0  0  0  0  0  0  0  0  0  0  0  0
   -4.5190   19.1190  -33.2340 C   0  0  0  0  0  0  0  0  0  0  0  0
   -3.4570   18.6120  -34.0040 C   0  0  0  0  0  0  0  0  0  0  0  0
   -2.4591   19.0673  -33.9215 H   0  0  0  0  0  0  0  0  0  0  0  0
   -3.6560   17.5380  -34.8710 C   0  0  0  0  0  0  0  0  0  0  0  0
   -2.8167   17.1510  -35.4675 H   0  0  0  0  0  0  0  0  0  0  0  0
   -4.9170   16.9540  -34.9830 C   0  0  0  0  0  0  0  0  0  0  0  0
   -5.0732   16.1125  -35.6740 H   0  0  0  0  0  0  0  0  0  0  0  0
   -5.9820   17.4360  -34.2190 C   0  0  0  0  0  0  0  0  0  0  0  0
   -6.9734   16.9685  -34.3111 H   0  0  0  0  0  0  0  0  0  0  0  0
   -5.8000   18.5130  -33.3330 C   0  0  0  0  0  0  0  0  0  0  0  0
   -6.9410   18.9410  -32.4880 C   0  0  0  0  0  0  0  0  0  0  0  0
   -6.9480   18.6570  -31.2590 O   0  0  0  0  0  0  0  0  0  0  0  0
   -8.0400   19.6660  -33.0580 N   0  0  0  0  0  0  0  0  0  0  0  0
   -8.0040   19.9600  -34.0590 H   0  0  0  0  0  0  0  0  0  0  0  0
   -9.1940   20.0580  -32.2590 C   0  0  0  0  0  0  0  0  0  0  0  0
   -8.9460   19.9737  -31.1906 H   0  0  0  0  0  0  0  0  0  0  0  0
   -9.4647   21.0985  -32.4916 H   0  0  0  0  0  0  0  0  0  0  0  0
  -10.0424   19.3977  -32.4916 H   0  0  0  0  0  0  0  0  0  0  0  0
   -4.8560   21.5540  -32.7170 C   0  0  0  0  0  0  0  0  0  0  0  0
   -5.4823   21.6365  -33.6175 H   0  0  0  0  0  0  0  0  0  0  0  0
   -4.6470   22.6860  -31.9120 C   0  0  0  0  0  0  0  0  0  0  0  0
   -5.1277   23.6448  -32.1562 H   0  0  0  0  0  0  0  0  0  0  0  0
   -3.8140   22.5690  -30.7920 C   0  0  0  0  0  0  0  0  0  0  0  0
  1  2  1  0
  2  3  1  0
  3  4  2  0
  4  5  1  0
  5  6  2  0
  6  7  1  0
  6  8  1  0
  8  9  1  0
  8 10  2  0
 10 11  1  0
 10 12  1  0
 12 13  1  0
 12 14  2  0
 14 15  1  0
 15 16  2  0
 16 17  1  0
 16 18  1  0
 18 19  1  0
 19 20  2  0
 20 21  1  0
 20 22  1  0
 22 23  1  0
 22 24  2  0
 24 25  1  0
 24 26  1  0
 26 27  1  0
 26 28  2  0
 28 29  1  0
 29 30  2  0
 29 31  1  0
 31 32  1  0
 31 33  1  0
 33 34  1  0
 33 35  1  0
 33 36  1  0
 18 37  2  0
 37 38  1  0
 37 39  1  0
 39 40  1  0
 39 41  2  0
 41  4  1  0
 14  5  1  0
 41 15  1  0
 28 19  1  0
M  END
>  <UniqueID>  (44) 
40

>  <SMILES>  (44) 
CNC(=O)c1ccccc1-c1ccc2c(c1)-c1ccccc1/C2=N/O

>  <Energy>  (44) 
93.88484856247662

>  <Genealogy>  (44) 
CNC(=O)c1ccccc1-c1ccc2c(c1)-c1ccccc1/C2=N/O (cis-trans isomerization)
CNC(=O)c1ccccc1-c1ccc2c(c1)-c1ccccc1/C2=N/O (3D coordinates assigned)
CNC(=O)c1ccccc1-c1ccc2c(c1)-c1ccccc1/C2=N/O (nonaromatic ring conformer: 93.88484856247662 kcal/mol)

>  <smiles>  (44) 
CNC(=O)c1ccccc1-c1ccc2c(c1)-c1ccccc1C2=NO

>  <score_type>  (44) 
oracle

>  <origin>  (44) 
adgpu

>  <m_score__min__energy>  (44) 
-10.25

>  <m_primary>  (44) 
energy

$$$$
44:0
     RDKit          3D

 46 49  0  0  0  0  0  0  0  0999 V2000
   -7.6720   17.8070  -31.2920 F   0  0  0  0  0  0  0  0  0  0  0  0
   -7.0530   17.8860  -32.4960 C   0  0  0  0  0  0  0  0  0  0  0  0
   -6.8430   16.7190  -33.2390 C   0  0  0  0  0  0  0  0  0  0  0  0
   -6.1820   16.7800  -34.4690 C   0  0  0  0  0  0  0  0  0  0  0  0
   -5.7280   18.0070  -34.9600 C   0  0  0  0  0  0  0  0  0  0  0  0
   -5.9350   19.1750  -34.2210 C   0  0  0  0  0  0  0  0  0  0  0  0
   -6.5990   19.1220  -32.9860 C   0  0  0  0  0  0  0  0  0  0  0  0
   -6.8130   20.3270  -32.2360 N   0  0  0  0  0  0  0  0  0  0  0  0
   -8.1490   20.6400  -31.7230 C   0  0  0  0  0  0  0  0  0  0  0  0
   -8.0980   21.8720  -30.8090 C   0  0  0  0  0  0  0  0  0  0  0  0
   -7.4710   23.0360  -31.4900 N   0  0  0  0  0  0  0  0  0  0  0  0
   -7.2220   24.1490  -30.5410 C   0  0  0  0  0  0  0  0  0  0  0  0
   -5.7620   24.4880  -30.3800 C   0  0  0  0  0  0  0  0  0  0  0  0
   -5.1430   25.6360  -30.8180 C   0  0  0  0  0  0  0  0  0  0  0  0
   -3.8830   25.5590  -30.4700 O   0  0  0  0  0  0  0  0  0  0  0  0
   -3.7150   24.4160  -29.8390 C   0  0  0  0  0  0  0  0  0  0  0  0
   -2.4250   23.9450  -29.2750 C   0  0  0  0  0  0  0  0  0  0  0  0
   -1.8510   24.6690  -28.2070 C   0  0  0  0  0  0  0  0  0  0  0  0
   -0.6400   24.2660  -27.6400 C   0  0  0  0  0  0  0  0  0  0  0  0
    0.0210   23.1400  -28.1290 C   0  0  0  0  0  0  0  0  0  0  0  0
   -0.5260   22.4150  -29.1870 C   0  0  0  0  0  0  0  0  0  0  0  0
   -1.7410   22.8040  -29.7660 C   0  0  0  0  0  0  0  0  0  0  0  0
   -2.3720   21.7360  -31.2340 Br  0  0  0  0  0  0  0  0  0  0  0  0
   -4.8610   23.7040  -29.7600 N   0  0  0  0  0  0  0  0  0  0  0  0
   -6.2680   22.7070  -32.3170 C   0  0  0  0  0  0  0  0  0  0  0  0
   -5.7270   21.2950  -32.0660 C   0  0  0  0  0  0  0  0  0  0  0  0
   -7.1988   15.7518  -32.8543 H   0  0  0  0  0  0  0  0  0  0  0  0
   -6.0190   15.8611  -35.0512 H   0  0  0  0  0  0  0  0  0  0  0  0
   -5.2077   18.0535  -35.9281 H   0  0  0  0  0  0  0  0  0  0  0  0
   -5.5760   20.1396  -34.6090 H   0  0  0  0  0  0  0  0  0  0  0  0
   -8.8229   20.8438  -32.5682 H   0  0  0  0  0  0  0  0  0  0  0  0
   -8.5179   19.7813  -31.1429 H   0  0  0  0  0  0  0  0  0  0  0  0
   -9.1234   22.1407  -30.5152 H   0  0  0  0  0  0  0  0  0  0  0  0
   -7.4888   21.6208  -29.9282 H   0  0  0  0  0  0  0  0  0  0  0  0
   -8.1950   23.3980  -32.1560 H   0  0  0  0  0  0  0  0  0  0  0  0
   -7.7485   25.0428  -30.9071 H   0  0  0  0  0  0  0  0  0  0  0  0
   -7.5883   23.8223  -29.5566 H   0  0  0  0  0  0  0  0  0  0  0  0
   -5.6190   26.4659  -31.3607 H   0  0  0  0  0  0  0  0  0  0  0  0
   -2.3637   25.5607  -27.8172 H   0  0  0  0  0  0  0  0  0  0  0  0
   -0.2069   24.8379  -26.8061 H   0  0  0  0  0  0  0  0  0  0  0  0
    0.9741   22.8236  -27.6801 H   0  0  0  0  0  0  0  0  0  0  0  0
    0.0014   21.5292  -29.5707 H   0  0  0  0  0  0  0  0  0  0  0  0
   -6.5406   22.7927  -33.3792 H   0  0  0  0  0  0  0  0  0  0  0  0
   -5.4748   23.4147  -32.0340 H   0  0  0  0  0  0  0  0  0  0  0  0
   -4.9229   21.0759  -32.7839 H   0  0  0  0  0  0  0  0  0  0  0  0
   -5.3283   21.2279  -31.0430 H   0  0  0  0  0  0  0  0  0  0  0  0
  1  2  1  0
  2  3  2  0
  3  4  1  0
  4  5  2  0
  5  6  1  0
  6  7  2  0
  7  8  1  0
  8  9  1  0
  9 10  1  0
 10 11  1  0
 11 12  1  0
 12 13  1  0
 13 14  2  0
 14 15  1  0
 15 16  1  0
 16 17  1  0
 17 18  2  0
 18 19  1  0
 19 20  2  0
 20 21  1  0
 21 22  2  0
 22 23  1  0
 16 24  2  0
 11 25  1  0
 25 26  1  0
  7  2  1  0
 26  8  1  0
 24 13  1  0
 22 17  1  0
  3 27  1  0
  4 28  1  0
  5 29  1  0
  6 30  1  0
  9 31  1  0
  9 32  1  0
 10 33  1  0
 10 34  1  0
 11 35  1  0
 12 36  1  0
 12 37  1  0
 14 38  1  0
 18 39  1  0
 19 40  1  0
 20 41  1  0
 21 42  1  0
 25 43  1  0
 25 44  1  0
 26 45  1  0
 26 46  1  0
M  CHG  1  11   1
M  END
>  <UniqueID>  (45) 
41

>  <SMILES>  (45) 
Fc1ccccc1N1CC[NH+](Cc2coc(-c3ccccc3Br)n2)CC1

>  <Energy>  (45) 
96.86965479063454

>  <Genealogy>  (45) 
Fc1ccccc1N1CC[NH+](Cc2coc(-c3ccccc3Br)n2)CC1 (protonated)
Fc1ccccc1N1CC[NH+](Cc2coc(-c3ccccc3Br)n2)CC1 (3D coordinates assigned)
Fc1ccccc1N1CC[NH+](Cc2coc(-c3ccccc3Br)n2)CC1 (nonaromatic ring conformer: 96.86965479063454 kcal/mol)

>  <smiles>  (45) 
Fc1ccccc1N1CCN(Cc2coc(-c3ccccc3Br)n2)CC1

>  <score_type>  (45) 
oracle

>  <origin>  (45) 
adgpu

>  <m_score__min__energy>  (45) 
-8.6600000000000001

>  <m_primary>  (45) 
energy

$$$$
45:0
     RDKit          3D

 59 63  0  0  0  0  0  0  0  0999 V2000
    1.9970   26.6880  -37.4460 C   0  0  0  0  0  0  0  0  0  0  0  0
    1.7490   25.3020  -37.6610 O   0  0  0  0  0  0  0  0  0  0  0  0
    2.2410   24.2710  -36.8450 C   0  0  0  0  0  0  0  0  0  0  0  0
    1.3900   23.3790  -36.1630 C   0  0  0  0  0  0  0  0  0  0  0  0
    1.9240   22.3600  -35.3550 C   0  0  0  0  0  0  0  0  0  0  0  0
    1.0230   21.4300  -34.6440 C   0  0  0  0  0  0  0  0  0  0  0  0
    1.4330   20.3580  -33.9390 N   0  0  0  0  0  0  0  0  0  0  0  0
    0.3400   19.7870  -33.4590 N   0  0  0  0  0  0  0  0  0  0  0  0
   -0.6980   20.5310  -33.8890 C   0  0  0  0  0  0  0  0  0  0  0  0
   -2.1130   20.2480  -33.5830 C   0  0  0  0  0  0  0  0  0  0  0  0
   -2.6250   18.9460  -33.6920 C   0  0  0  0  0  0  0  0  0  0  0  0
   -3.9660   18.6840  -33.4000 C   0  0  0  0  0  0  0  0  0  0  0  0
   -4.8230   19.7220  -32.9920 C   0  0  0  0  0  0  0  0  0  0  0  0
   -6.2490   19.4450  -32.6780 C   0  0  0  0  0  0  0  0  0  0  0  0
   -6.7230   18.1240  -32.6130 C   0  0  0  0  0  0  0  0  0  0  0  0
   -8.0680   17.8670  -32.3310 C   0  0  0  0  0  0  0  0  0  0  0  0
   -8.9530   18.9220  -32.1070 C   0  0  0  0  0  0  0  0  0  0  0  0
   -8.4950   20.2470  -32.1510 C   0  0  0  0  0  0  0  0  0  0  0  0
   -9.4470   21.3910  -31.9470 C   0  0  0  0  0  0  0  0  0  0  0  0
   -8.6850   22.6080  -31.6340 N   0  0  0  0  0  0  0  0  0  0  0  0
   -8.0000   22.4940  -30.3410 C   0  0  0  0  0  0  0  0  0  0  0  0
   -6.7400   23.3170  -30.3420 C   0  0  0  0  0  0  0  0  0  0  0  0
   -6.8170   24.7190  -30.3940 C   0  0  0  0  0  0  0  0  0  0  0  0
   -5.6490   25.4880  -30.4230 C   0  0  0  0  0  0  0  0  0  0  0  0
   -4.3980   24.8640  -30.4020 C   0  0  0  0  0  0  0  0  0  0  0  0
   -4.3140   23.4700  -30.3530 C   0  0  0  0  0  0  0  0  0  0  0  0
   -5.4780   22.6970  -30.3250 C   0  0  0  0  0  0  0  0  0  0  0  0
   -7.1470   20.5030  -32.4480 C   0  0  0  0  0  0  0  0  0  0  0  0
   -4.3080   21.0260  -32.8840 C   0  0  0  0  0  0  0  0  0  0  0  0
   -2.9660   21.2860  -33.1780 C   0  0  0  0  0  0  0  0  0  0  0  0
   -0.2840   21.5410  -34.6170 O   0  0  0  0  0  0  0  0  0  0  0  0
    3.3170   22.2370  -35.2340 C   0  0  0  0  0  0  0  0  0  0  0  0
    4.1630   23.1190  -35.9090 C   0  0  0  0  0  0  0  0  0  0  0  0
    3.6300   24.1320  -36.7100 C   0  0  0  0  0  0  0  0  0  0  0  0
    4.4850   25.0020  -37.3760 O   0  0  0  0  0  0  0  0  0  0  0  0
    2.0333   26.8907  -36.3654 H   0  0  0  0  0  0  0  0  0  0  0  0
    2.9587   26.9637  -37.9033 H   0  0  0  0  0  0  0  0  0  0  0  0
    1.1905   27.2800  -37.9033 H   0  0  0  0  0  0  0  0  0  0  0  0
    0.2993   23.4807  -36.2635 H   0  0  0  0  0  0  0  0  0  0  0  0
   -1.9653   18.1251  -34.0099 H   0  0  0  0  0  0  0  0  0  0  0  0
   -4.3543   17.6587  -33.4898 H   0  0  0  0  0  0  0  0  0  0  0  0
   -6.0312   17.2863  -32.7851 H   0  0  0  0  0  0  0  0  0  0  0  0
   -8.4298   16.8292  -32.2856 H   0  0  0  0  0  0  0  0  0  0  0  0
  -10.0123   18.7142  -31.8954 H   0  0  0  0  0  0  0  0  0  0  0  0
  -10.0323   21.5499  -32.8647 H   0  0  0  0  0  0  0  0  0  0  0  0
  -10.1284   21.1591  -31.1152 H   0  0  0  0  0  0  0  0  0  0  0  0
   -9.3670   23.4010  -31.5660 H   0  0  0  0  0  0  0  0  0  0  0  0
   -8.6675   22.8536  -29.5440 H   0  0  0  0  0  0  0  0  0  0  0  0
   -7.7382   21.4399  -30.1669 H   0  0  0  0  0  0  0  0  0  0  0  0
   -7.7994   25.2136  -30.4120 H   0  0  0  0  0  0  0  0  0  0  0  0
   -5.7148   26.5853  -30.4624 H   0  0  0  0  0  0  0  0  0  0  0  0
   -3.4803   25.4701  -30.4240 H   0  0  0  0  0  0  0  0  0  0  0  0
   -3.3294   22.9799  -30.3364 H   0  0  0  0  0  0  0  0  0  0  0  0
   -5.4067   21.5999  -30.2895 H   0  0  0  0  0  0  0  0  0  0  0  0
   -6.7893   21.5418  -32.5014 H   0  0  0  0  0  0  0  0  0  0  0  0
   -4.9661   21.8480  -32.5657 H   0  0  0  0  0  0  0  0  0  0  0  0
   -2.5763   22.3110  -33.0912 H   0  0  0  0  0  0  0  0  0  0  0  0
    3.7440   21.4423  -34.6046 H   0  0  0  0  0  0  0  0  0  0  0  0
    5.2537   23.0159  -35.8097 H   0  0  0  0  0  0  0  0  0  0  0  0
  1  2  1  0
  2  3  1  0
  3  4  2  0
  4  5  1  0
  5  6  1  0
  6  7  2  0
  7  8  1  0
  8  9  2  0
  9 10  1  0
 10 11  2  0
 11 12  1  0
 12 13  2  0
 13 14  1  0
 14 15  2  0
 15 16  1  0
 16 17  2  0
 17 18  1  0
 18 19  1  0
 19 20  1  0
 20 21  1  0
 21 22  1  0
 22 23  2  0
 23 24  1  0
 24 25  2  0
 25 26  1  0
 26 27  2  0
 18 28  2  0
 13 29  1  0
 29 30  2  0
  9 31  1  0
  5 32  2  0
 32 33  1  0
 33 34  2  0
 34 35  1  0
 34  3  1  0
 31  6  1  0
 30 10  1  0
 28 14  1  0
 27 22  1  0
  1 36  1  0
  1 37  1  0
  1 38  1  0
  4 39  1  0
 11 40  1  0
 12 41  1  0
 15 42  1  0
 16 43  1  0
 17 44  1  0
 19 45  1  0
 19 46  1  0
 20 47  1  0
 21 48  1  0
 21 49  1  0
 23 50  1  0
 24 51  1  0
 25 52  1  0
 26 53  1  0
 27 54  1  0
 28 55  1  0
 29 56  1  0
 30 57  1  0
 32 58  1  0
 33 59  1  0
M  CHG  1  35  -1
M  END
>  <UniqueID>  (46) 
42

>  <SMILES>  (46) 
COc1cc(-c2nnc(-c3ccc(-c4cccc(CNCc5ccccc5)c4)cc3)o2)ccc1[O-]

>  <Energy>  (46) 
103.21426272780859

>  <Genealogy>  (46) 
COc1cc(-c2nnc(-c3ccc(-c4cccc(CNCc5ccccc5)c4)cc3)o2)ccc1[O-] (protonated)
COc1cc(-c2nnc(-c3ccc(-c4cccc(CNCc5ccccc5)c4)cc3)o2)ccc1[O-] (3D coordinates assigned)
COc1cc(-c2nnc(-c3ccc(-c4cccc(CNCc5ccccc5)c4)cc3)o2)ccc1[O-] (optimized conformer: 103.21426272780859 kcal/mol)

>  <smiles>  (46) 
COc1cc(-c2nnc(-c3ccc(-c4cccc(CNCc5ccccc5)c4)cc3)o2)ccc1O

>  <score_type>  (46) 
oracle

>  <origin>  (46) 
adgpu

>  <m_score__min__energy>  (46) 
-10.66

>  <m_primary>  (46) 
energy

$$$$
46:0
     RDKit          3D

 43 46  0  0  0  0  0  0  0  0999 V2000
   -0.5210   22.8170  -26.5690 O   0  0  0  0  0  0  0  0  0  0  0  0
   -0.2790   22.8750  -28.0530 S   0  0  0  0  0  0  0  0  0  0  0  0
    0.5570   24.0840  -28.3730 O   0  0  0  0  0  0  0  0  0  0  0  0
    0.5380   21.4370  -28.5790 N   0  0  0  0  0  0  0  0  0  0  0  0
    0.2410   20.2360  -28.1860 C   0  0  0  0  0  0  0  0  0  0  0  0
   -0.7430   19.9260  -27.3090 N   0  0  0  0  0  0  0  0  0  0  0  0
   -0.8220   18.5880  -27.0840 C   0  0  0  0  0  0  0  0  0  0  0  0
    0.1050   17.8230  -27.7860 C   0  0  0  0  0  0  0  0  0  0  0  0
    1.0510   18.8630  -28.7140 S   0  0  0  0  0  0  0  0  0  0  0  0
   -1.8240   22.9840  -28.8870 C   0  0  0  0  0  0  0  0  0  0  0  0
   -2.6110   21.8410  -29.0790 C   0  0  0  0  0  0  0  0  0  0  0  0
   -3.8410   21.9330  -29.7380 C   0  0  0  0  0  0  0  0  0  0  0  0
   -4.3000   23.1760  -30.2150 C   0  0  0  0  0  0  0  0  0  0  0  0
   -3.5270   24.3260  -29.9760 C   0  0  0  0  0  0  0  0  0  0  0  0
   -2.2900   24.2270  -29.3330 C   0  0  0  0  0  0  0  0  0  0  0  0
   -4.0020   25.5750  -30.3830 O   0  0  0  0  0  0  0  0  0  0  0  0
   -5.3700   25.7650  -30.7390 C   0  0  0  0  0  0  0  0  0  0  0  0
   -5.8670   24.5930  -31.5870 C   0  0  0  0  0  0  0  0  0  0  0  0
   -5.5450   23.3130  -30.9420 N   0  0  0  0  0  0  0  0  0  0  0  0
   -6.3440   22.1720  -31.2880 C   0  0  0  0  0  0  0  0  0  0  0  0
   -5.9440   21.3130  -32.3200 C   0  0  0  0  0  0  0  0  0  0  0  0
   -6.7290   20.2080  -32.6600 C   0  0  0  0  0  0  0  0  0  0  0  0
   -7.9400   19.9610  -31.9890 C   0  0  0  0  0  0  0  0  0  0  0  0
   -8.7620   18.7430  -32.3210 C   0  0  0  0  0  0  0  0  0  0  0  0
   -9.2840   18.1750  -31.1710 F   0  0  0  0  0  0  0  0  0  0  0  0
   -7.9890   17.7900  -32.9610 F   0  0  0  0  0  0  0  0  0  0  0  0
   -9.8030   19.1100  -33.1540 F   0  0  0  0  0  0  0  0  0  0  0  0
   -8.3260   20.8190  -30.9420 C   0  0  0  0  0  0  0  0  0  0  0  0
   -7.5390   21.9230  -30.6040 C   0  0  0  0  0  0  0  0  0  0  0  0
   -1.3800   20.6130  -26.8470 H   0  0  0  0  0  0  0  0  0  0  0  0
   -1.5609   18.1443  -26.4005 H   0  0  0  0  0  0  0  0  0  0  0  0
    0.2030   16.7282  -27.7423 H   0  0  0  0  0  0  0  0  0  0  0  0
   -2.2597   20.8663  -28.7095 H   0  0  0  0  0  0  0  0  0  0  0  0
   -4.4526   21.0305  -29.8844 H   0  0  0  0  0  0  0  0  0  0  0  0
   -1.6801   25.1290  -29.1767 H   0  0  0  0  0  0  0  0  0  0  0  0
   -5.9767   25.8335  -29.8240 H   0  0  0  0  0  0  0  0  0  0  0  0
   -5.4616   26.6927  -31.3230 H   0  0  0  0  0  0  0  0  0  0  0  0
   -6.9574   24.6720  -31.7087 H   0  0  0  0  0  0  0  0  0  0  0  0
   -5.3703   24.6300  -32.5678 H   0  0  0  0  0  0  0  0  0  0  0  0
   -5.0086   21.5091  -32.8646 H   0  0  0  0  0  0  0  0  0  0  0  0
   -6.3975   19.5269  -33.4577 H   0  0  0  0  0  0  0  0  0  0  0  0
   -9.2538   20.6190  -30.3859 H   0  0  0  0  0  0  0  0  0  0  0  0
   -7.8600   22.5986  -29.7975 H   0  0  0  0  0  0  0  0  0  0  0  0
  1  2  2  0
  2  3  2  0
  2  4  1  0
  4  5  2  3
  5  6  1  0
  6  7  1  0
  7  8  2  0
  8  9  1  0
  2 10  1  0
 10 11  2  0
 11 12  1  0
 12 13  2  0
 13 14  1  0
 14 15  2  0
 14 16  1  0
 16 17  1  0
 17 18  1  0
 18 19  1  0
 19 20  1  0
 20 21  2  0
 21 22  1  0
 22 23  2  0
 23 24  1  0
 24 25  1  0
 24 26  1  0
 24 27  1  0
 23 28  1  0
 28 29  2  0
  9  5  1  0
 15 10  1  0
 29 20  1  0
 19 13  1  0
  6 30  1  0
  7 31  1  0
  8 32  1  0
 11 33  1  0
 12 34  1  0
 15 35  1  0
 17 36  1  0
 17 37  1  0
 18 38  1  0
 18 39  1  0
 21 40  1  0
 22 41  1  0
 28 42  1  0
 29 43  1  0
M  END
>  <UniqueID>  (47) 
43

>  <SMILES>  (47) 
O=S(=O)(N=c1[nH]ccs1)c1ccc2c(c1)OCCN2c1ccc(C(F)(F)F)cc1

>  <Energy>  (47) 
90.38584942368989

>  <Genealogy>  (47) 
O=S(=O)(N=c1[nH]ccs1)c1ccc2c(c1)OCCN2c1ccc(C(F)(F)F)cc1 (3D coordinates assigned)
O=S(=O)(N=c1[nH]ccs1)c1ccc2c(c1)OCCN2c1ccc(C(F)(F)F)cc1 (nonaromatic ring conformer: 90.38584942368989 kcal/mol)

>  <smiles>  (47) 
O=S(=O)(N=c1[nH]ccs1)c1ccc2c(c1)OCCN2c1ccc(C(F)(F)F)cc1

>  <score_type>  (47) 
oracle

>  <origin>  (47) 
adgpu

>  <m_score__min__energy>  (47) 
-10.300000000000001

>  <m_primary>  (47) 
energy

$$$$
47:0
     RDKit          3D

 41 43  0  0  0  0  0  0  0  0999 V2000
    0.1585   21.2321  -30.1280 H   0  0  0  0  0  0  0  0  0  0  0  0
   -0.6380   21.3160  -29.3740 C   0  0  0  0  0  0  0  0  0  0  0  0
   -1.3050   22.5310  -29.2000 C   0  0  0  0  0  0  0  0  0  0  0  0
   -1.0363   23.3973  -29.8223 H   0  0  0  0  0  0  0  0  0  0  0  0
   -2.3170   22.6510  -28.2340 C   0  0  0  0  0  0  0  0  0  0  0  0
   -3.0630   23.9450  -28.0740 C   0  0  0  0  0  0  0  0  0  0  0  0
   -2.8207   24.3876  -27.0965 H   0  0  0  0  0  0  0  0  0  0  0  0
   -4.1439   23.7506  -28.1356 H   0  0  0  0  0  0  0  0  0  0  0  0
   -2.6700   24.8950  -29.1600 C   0  0  0  0  0  0  0  0  0  0  0  0
   -1.6110   25.5690  -29.0470 O   0  0  0  0  0  0  0  0  0  0  0  0
   -3.5040   25.0240  -30.3180 N   0  0  0  0  0  0  0  0  0  0  0  0
   -4.5060   24.0930  -30.7550 C   0  0  0  0  0  0  0  0  0  0  0  0
   -4.1080   22.9850  -31.5130 C   0  0  0  0  0  0  0  0  0  0  0  0
   -3.0475   22.8540  -31.7742 H   0  0  0  0  0  0  0  0  0  0  0  0
   -5.0500   22.0440  -31.9400 C   0  0  0  0  0  0  0  0  0  0  0  0
   -4.7290   21.1821  -32.5435 H   0  0  0  0  0  0  0  0  0  0  0  0
   -6.4010   22.1950  -31.6020 C   0  0  0  0  0  0  0  0  0  0  0  0
   -7.5940   21.0220  -32.1460 S   0  0  0  0  0  0  0  0  0  0  0  0
   -8.9060   21.7230  -32.3560 O   0  0  0  0  0  0  0  0  0  0  0  0
   -7.7760   19.9370  -31.1220 O   0  0  0  0  0  0  0  0  0  0  0  0
   -7.0860   20.3060  -33.6440 N   0  0  0  0  0  0  0  0  0  0  0  0
   -6.4810   19.1610  -33.7400 C   0  0  0  0  0  0  0  0  0  0  0  0
   -6.0940   18.6380  -34.9180 N   0  0  0  0  0  0  0  0  0  0  0  0
   -5.5210   17.5010  -34.6450 O   0  0  0  0  0  0  0  0  0  0  0  0
   -5.5250   17.2660  -33.3520 C   0  0  0  0  0  0  0  0  0  0  0  0
   -4.9310   16.0600  -32.7080 C   0  0  0  0  0  0  0  0  0  0  0  0
   -4.9829   16.1653  -31.6143 H   0  0  0  0  0  0  0  0  0  0  0  0
   -5.4916   15.1655  -33.0172 H   0  0  0  0  0  0  0  0  0  0  0  0
   -3.8802   15.9592  -33.0172 H   0  0  0  0  0  0  0  0  0  0  0  0
   -6.1360   18.3160  -32.7010 C   0  0  0  0  0  0  0  0  0  0  0  0
   -6.3069   18.4489  -31.6225 H   0  0  0  0  0  0  0  0  0  0  0  0
   -6.7980   23.2860  -30.8180 C   0  0  0  0  0  0  0  0  0  0  0  0
   -7.8551   23.4026  -30.5372 H   0  0  0  0  0  0  0  0  0  0  0  0
   -5.8570   24.2270  -30.3910 C   0  0  0  0  0  0  0  0  0  0  0  0
   -6.1749   25.0758  -29.7677 H   0  0  0  0  0  0  0  0  0  0  0  0
   -2.6670   21.5310  -27.4620 C   0  0  0  0  0  0  0  0  0  0  0  0
   -3.4723   21.6113  -26.7170 H   0  0  0  0  0  0  0  0  0  0  0  0
   -1.9980   20.3130  -27.6340 C   0  0  0  0  0  0  0  0  0  0  0  0
   -2.4660   18.9380  -26.6410 Cl  0  0  0  0  0  0  0  0  0  0  0  0
   -0.9780   20.2050  -28.5940 C   0  0  0  0  0  0  0  0  0  0  0  0
   -0.1160   18.6920  -28.8430 Cl  0  0  0  0  0  0  0  0  0  0  0  0
  1  2  1  0
  2  3  2  0
  3  4  1  0
  3  5  1  0
  5  6  1  0
  6  7  1  0
  6  8  1  0
  6  9  1  0
  9 10  2  0
  9 11  1  0
 11 12  1  0
 12 13  2  0
 13 14  1  0
 13 15  1  0
 15 16  1  0
 15 17  2  0
 17 18  1  0
 18 19  2  0
 18 20  2  0
 18 21  1  0
 21 22  2  0
 22 23  1  0
 23 24  1  0
 24 25  1  0
 25 26  1  0
 26 27  1  0
 26 28  1  0
 26 29  1  0
 25 30  2  0
 30 31  1  0
 17 32  1  0
 32 33  1  0
 32 34  2  0
 34 35  1  0
  5 36  2  0
 36 37  1  0
 36 38  1  0
 38 39  1  0
 38 40  2  0
 40 41  1  0
 40  2  1  0
 34 12  1  0
 30 22  1  0
M  CHG  2  11  -1  23  -1
M  END
>  <UniqueID>  (48) 
44

>  <SMILES>  (48) 
Cc1c/c(=N\S(=O)(=O)c2ccc([N-]C(=O)Cc3ccc(Cl)c(Cl)c3)cc2)[n-]o1

>  <Energy>  (48) 
78.51274704853874

>  <Genealogy>  (48) 
Cc1cc(=NS(=O)(=O)c2ccc([N-]C(=O)Cc3ccc(Cl)c(Cl)c3)cc2)[n-]o1 (protonated)
Cc1c/c(=N\S(=O)(=O)c2ccc([N-]C(=O)Cc3ccc(Cl)c(Cl)c3)cc2)[n-]o1 (cis-trans isomerization)
Cc1c/c(=N\S(=O)(=O)c2ccc([N-]C(=O)Cc3ccc(Cl)c(Cl)c3)cc2)[n-]o1 (3D coordinates assigned)
Cc1c/c(=N\S(=O)(=O)c2ccc([N-]C(=O)Cc3ccc(Cl)c(Cl)c3)cc2)[n-]o1 (optimized conformer: 78.51274704853874 kcal/mol)

>  <smiles>  (48) 
Cc1cc(=NS(=O)(=O)c2ccc(NC(=O)Cc3ccc(Cl)c(Cl)c3)cc2)[nH]o1

>  <score_type>  (48) 
oracle

>  <origin>  (48) 
adgpu

>  <m_score__min__energy>  (48) 
-11.51

>  <m_primary>  (48) 
energy

$$$$
48:0
     RDKit          3D

 53 56  0  0  0  0  0  0  0  0999 V2000
   -0.9571   20.3339  -27.8095 H   0  0  0  0  0  0  0  0  0  0  0  0
   -0.5710   20.0770  -28.8070 C   0  0  0  0  0  0  0  0  0  0  0  0
   -0.1110   18.7830  -29.0670 C   0  0  0  0  0  0  0  0  0  0  0  0
   -0.1330   18.0227  -28.2724 H   0  0  0  0  0  0  0  0  0  0  0  0
    0.3770   18.4530  -30.3350 C   0  0  0  0  0  0  0  0  0  0  0  0
    0.7470   17.4359  -30.5316 H   0  0  0  0  0  0  0  0  0  0  0  0
    0.3970   19.4170  -31.3620 C   0  0  0  0  0  0  0  0  0  0  0  0
    0.9150   19.1110  -32.6680 N   0  0  0  0  0  0  0  0  0  0  0  0
    1.4690   18.2320  -32.7910 H   0  0  0  0  0  0  0  0  0  0  0  0
    0.7680   19.9720  -33.8090 C   0  0  0  0  0  0  0  0  0  0  0  0
    1.5410   21.1440  -33.8910 C   0  0  0  0  0  0  0  0  0  0  0  0
    2.1963   21.4231  -33.0527 H   0  0  0  0  0  0  0  0  0  0  0  0
    1.4860   21.9560  -35.0230 C   0  0  0  0  0  0  0  0  0  0  0  0
    2.0894   22.8745  -35.0707 H   0  0  0  0  0  0  0  0  0  0  0  0
    0.6660   21.6040  -36.0950 C   0  0  0  0  0  0  0  0  0  0  0  0
    0.6251   22.2441  -36.9887 H   0  0  0  0  0  0  0  0  0  0  0  0
   -0.1030   20.4400  -36.0350 C   0  0  0  0  0  0  0  0  0  0  0  0
   -0.7426   20.1671  -36.8873 H   0  0  0  0  0  0  0  0  0  0  0  0
   -0.0700   19.6110  -34.8970 C   0  0  0  0  0  0  0  0  0  0  0  0
   -0.9410   18.4100  -34.8540 C   0  0  0  0  0  0  0  0  0  0  0  0
   -0.7650   17.4700  -35.6770 O   0  0  0  0  0  0  0  0  0  0  0  0
   -1.9300   18.2830  -33.8240 N   0  0  0  0  0  0  0  0  0  0  0  0
   -2.8310   19.3050  -33.3750 C   0  0  0  0  0  0  0  0  0  0  0  0
   -2.4770   20.6660  -33.3790 C   0  0  0  0  0  0  0  0  0  0  0  0
   -1.4890   20.9736  -33.7521 H   0  0  0  0  0  0  0  0  0  0  0  0
   -3.3750   21.6300  -32.9110 C   0  0  0  0  0  0  0  0  0  0  0  0
   -3.0975   22.6942  -32.9321 H   0  0  0  0  0  0  0  0  0  0  0  0
   -4.6280   21.2440  -32.4150 C   0  0  0  0  0  0  0  0  0  0  0  0
   -5.7600   22.4520  -31.8180 S   0  0  0  0  0  0  0  0  0  0  0  0
   -6.4290   21.8850  -30.5990 O   0  0  0  0  0  0  0  0  0  0  0  0
   -6.8210   22.7670  -32.8340 O   0  0  0  0  0  0  0  0  0  0  0  0
   -4.9400   23.9120  -31.3570 N   0  0  0  0  0  0  0  0  0  0  0  0
   -4.0030   24.1050  -30.4730 C   0  0  0  0  0  0  0  0  0  0  0  0
   -3.4970   25.2990  -30.2670 O   0  0  0  0  0  0  0  0  0  0  0  0
   -2.5910   25.2800  -29.3360 N   0  0  0  0  0  0  0  0  0  0  0  0
   -2.4950   24.0080  -28.9040 C   0  0  0  0  0  0  0  0  0  0  0  0
   -1.5680   23.5790  -27.8130 C   0  0  0  0  0  0  0  0  0  0  0  0
   -2.0276   23.7917  -26.8365 H   0  0  0  0  0  0  0  0  0  0  0  0
   -1.3743   22.4997  -27.8997 H   0  0  0  0  0  0  0  0  0  0  0  0
   -0.6198   24.1299  -27.8997 H   0  0  0  0  0  0  0  0  0  0  0  0
   -3.3740   23.2000  -29.6130 C   0  0  0  0  0  0  0  0  0  0  0  0
   -3.6080   21.7410  -29.3580 C   0  0  0  0  0  0  0  0  0  0  0  0
   -3.6373   21.5584  -28.2737 H   0  0  0  0  0  0  0  0  0  0  0  0
   -4.5660   21.4394  -29.8066 H   0  0  0  0  0  0  0  0  0  0  0  0
   -2.7924   21.1549  -29.8066 H   0  0  0  0  0  0  0  0  0  0  0  0
   -4.9770   19.8870  -32.3960 C   0  0  0  0  0  0  0  0  0  0  0  0
   -5.9608   19.5786  -32.0126 H   0  0  0  0  0  0  0  0  0  0  0  0
   -4.0780   18.9250  -32.8630 C   0  0  0  0  0  0  0  0  0  0  0  0
   -4.3518   17.8602  -32.8283 H   0  0  0  0  0  0  0  0  0  0  0  0
   -0.0530   20.7180  -31.0850 C   0  0  0  0  0  0  0  0  0  0  0  0
   -0.0223   21.4859  -31.8720 H   0  0  0  0  0  0  0  0  0  0  0  0
   -0.5400   21.0440  -29.8150 C   0  0  0  0  0  0  0  0  0  0  0  0
   -0.8991   22.0632  -29.6095 H   0  0  0  0  0  0  0  0  0  0  0  0
  1  2  1  0
  2  3  2  0
  3  4  1  0
  3  5  1  0
  5  6  1  0
  5  7  2  0
  7  8  1  0
  8  9  1  0
  8 10  1  0
 10 11  2  0
 11 12  1  0
 11 13  1  0
 13 14  1  0
 13 15  2  0
 15 16  1  0
 15 17  1  0
 17 18  1  0
 17 19  2  0
 19 20  1  0
 20 21  2  0
 20 22  1  0
 22 23  1  0
 23 24  2  0
 24 25  1  0
 24 26  1  0
 26 27  1  0
 26 28  2  0
 28 29  1  0
 29 30  2  0
 29 31  2  0
 29 32  1  0
 32 33  2  0
 33 34  1  0
 34 35  1  0
 35 36  1  0
 36 37  1  0
 37 38  1  0
 37 39  1  0
 37 40  1  0
 36 41  2  0
 41 42  1  0
 42 43  1  0
 42 44  1  0
 42 45  1  0
 28 46  1  0
 46 47  1  0
 46 48  2  0
 48 49  1  0
  7 50  1  0
 50 51  1  0
 50 52  2  0
 52 53  1  0
 52  2  1  0
 19 10  1  0
 48 23  1  0
 41 33  1  0
M  CHG  2  22  -1  35  -1
M  END
>  <UniqueID>  (49) 
45

>  <SMILES>  (49) 
Cc1[n-]o/c(=N/S(=O)(=O)c2ccc([N-]C(=O)c3ccccc3Nc3ccccc3)cc2)c1C

>  <Energy>  (49) 
109.85848139931088

>  <Genealogy>  (49) 
Cc1[n-]oc(=NS(=O)(=O)c2ccc([N-]C(=O)c3ccccc3Nc3ccccc3)cc2)c1C (protonated)
Cc1[n-]o/c(=N/S(=O)(=O)c2ccc([N-]C(=O)c3ccccc3Nc3ccccc3)cc2)c1C (cis-trans isomerization)
Cc1[n-]o/c(=N/S(=O)(=O)c2ccc([N-]C(=O)c3ccccc3Nc3ccccc3)cc2)c1C (3D coordinates assigned)
Cc1[n-]o/c(=N/S(=O)(=O)c2ccc([N-]C(=O)c3ccccc3Nc3ccccc3)cc2)c1C (optimized conformer: 109.85848139931088 kcal/mol)

>  <smiles>  (49) 
Cc1[nH]oc(=NS(=O)(=O)c2ccc(NC(=O)c3ccccc3Nc3ccccc3)cc2)c1C

>  <score_type>  (49) 
oracle

>  <origin>  (49) 
adgpu

>  <m_score__min__energy>  (49) 
-11.470000000000001

>  <m_primary>  (49) 
energy

$$$$
49:0
     RDKit          3D

 29 31  0  0  0  0  0  0  0  0999 V2000
   -4.6320   25.9350  -31.3860 H   0  0  0  0  0  0  0  0  0  0  0  0
   -4.9500   24.9610  -31.1780 N   0  0  0  0  0  0  0  0  0  0  0  0
   -4.3700   24.2140  -30.2890 C   0  0  0  0  0  0  0  0  0  0  0  0
   -4.8370   22.9060  -30.0550 C   0  0  0  0  0  0  0  0  0  0  0  0
   -5.9960   22.3520  -30.7900 C   0  0  0  0  0  0  0  0  0  0  0  0
   -7.2790   22.4630  -30.2290 C   0  0  0  0  0  0  0  0  0  0  0  0
   -7.4091   22.9609  -29.2568 H   0  0  0  0  0  0  0  0  0  0  0  0
   -8.3910   21.9450  -30.8980 C   0  0  0  0  0  0  0  0  0  0  0  0
   -9.3917   22.0304  -30.4494 H   0  0  0  0  0  0  0  0  0  0  0  0
   -8.2320   21.3190  -32.1360 C   0  0  0  0  0  0  0  0  0  0  0  0
   -9.1078   20.9084  -32.6598 H   0  0  0  0  0  0  0  0  0  0  0  0
   -6.9630   21.2130  -32.7110 C   0  0  0  0  0  0  0  0  0  0  0  0
   -6.8437   20.7233  -33.6887 H   0  0  0  0  0  0  0  0  0  0  0  0
   -5.8420   21.7280  -32.0470 C   0  0  0  0  0  0  0  0  0  0  0  0
   -4.2730   21.6190  -32.8380 Cl  0  0  0  0  0  0  0  0  0  0  0  0
   -4.1720   22.1040  -29.1230 C   0  0  0  0  0  0  0  0  0  0  0  0
   -4.5128   21.0733  -28.9453 H   0  0  0  0  0  0  0  0  0  0  0  0
   -3.0760   22.6060  -28.4160 C   0  0  0  0  0  0  0  0  0  0  0  0
   -2.4110   21.8100  -27.4720 C   0  0  0  0  0  0  0  0  0  0  0  0
   -2.7524   20.7814  -27.2840 H   0  0  0  0  0  0  0  0  0  0  0  0
   -1.3180   22.3190  -26.7710 C   0  0  0  0  0  0  0  0  0  0  0  0
   -0.7991   21.6907  -26.0321 H   0  0  0  0  0  0  0  0  0  0  0  0
   -0.8810   23.6240  -27.0050 C   0  0  0  0  0  0  0  0  0  0  0  0
   -0.0186   24.0185  -26.4476 H   0  0  0  0  0  0  0  0  0  0  0  0
   -1.5310   24.4350  -27.9430 C   0  0  0  0  0  0  0  0  0  0  0  0
   -0.9200   26.0690  -28.1830 Cl  0  0  0  0  0  0  0  0  0  0  0  0
   -2.6400   23.9300  -28.6610 C   0  0  0  0  0  0  0  0  0  0  0  0
   -3.2970   24.6930  -29.5890 N   0  0  0  0  0  0  0  0  0  0  0  0
   -2.9770   25.6680  -29.7830 H   0  0  0  0  0  0  0  0  0  0  0  0
  1  2  1  0
  2  3  2  0
  3  4  1  0
  4  5  1  0
  5  6  2  0
  6  7  1  0
  6  8  1  0
  8  9  1  0
  8 10  2  0
 10 11  1  0
 10 12  1  0
 12 13  1  0
 12 14  2  0
 14 15  1  0
  4 16  2  0
 16 17  1  0
 16 18  1  0
 18 19  2  0
 19 20  1  0
 19 21  1  0
 21 22  1  0
 21 23  2  0
 23 24  1  0
 23 25  1  0
 25 26  1  0
 25 27  2  0
 27 28  1  0
 28 29  1  0
 28  3  1  0
 14  5  1  0
 27 18  1  0
M  END
>  <UniqueID>  (50) 
46

>  <SMILES>  (50) 
[H]/N=c1\[nH]c2c(Cl)cccc2cc1-c1ccccc1Cl

>  <Energy>  (50) 
46.17469445234119

>  <Genealogy>  (50) 
[H]/N=c1\[nH]c2c(Cl)cccc2cc1-c1ccccc1Cl (cis-trans isomerization)
[H]/N=c1\[nH]c2c(Cl)cccc2cc1-c1ccccc1Cl (3D coordinates assigned)
[H]/N=c1\[nH]c2c(Cl)cccc2cc1-c1ccccc1Cl (optimized conformer: 46.17469445234119 kcal/mol)

>  <smiles>  (50) 
N=c1[nH]c2c(Cl)cccc2cc1-c1ccccc1Cl

>  <score_type>  (50) 
oracle

>  <origin>  (50) 
adgpu

>  <m_score__min__energy>  (50) 
-8.2699999999999996

>  <m_primary>  (50) 
energy

$$$$
