0:0
     RDKit          3D

 30 32  0  0  0  0  0  0  0  0999 V2000
   -1.9620   25.5130  -28.9430 O   0  0  0  0  0  0  0  0  0  0  0  0
   -2.8220   24.7630  -29.4770 C   0  0  0  0  0  0  0  0  0  0  0  0
   -3.7410   25.2870  -30.4420 N   0  0  0  0  0  0  0  0  0  0  0  0
   -5.1690   24.9950  -30.4340 C   0  0  0  0  0  0  0  0  0  0  0  0
   -5.4380   23.7190  -31.1620 C   0  0  0  0  0  0  0  0  0  0  0  0
   -6.5270   22.9530  -30.9610 N   0  0  0  0  0  0  0  0  0  0  0  0
   -6.2980   21.9320  -31.8170 C   0  0  0  0  0  0  0  0  0  0  0  0
   -7.2180   20.7830  -31.9890 C   0  0  0  0  0  0  0  0  0  0  0  0
   -6.7130   19.4700  -31.9480 C   0  0  0  0  0  0  0  0  0  0  0  0
   -7.5670   18.3750  -32.1090 C   0  0  0  0  0  0  0  0  0  0  0  0
   -8.9330   18.5750  -32.3110 C   0  0  0  0  0  0  0  0  0  0  0  0
   -9.4490   19.8720  -32.3530 C   0  0  0  0  0  0  0  0  0  0  0  0
   -8.6030   20.9750  -32.1940 C   0  0  0  0  0  0  0  0  0  0  0  0
   -9.1400   22.2190  -32.2410 F   0  0  0  0  0  0  0  0  0  0  0  0
   -5.1370   22.0790  -32.4870 N   0  0  0  0  0  0  0  0  0  0  0  0
   -4.6350   23.1950  -32.0530 O   0  0  0  0  0  0  0  0  0  0  0  0
   -2.8840   23.3420  -29.1100 C   0  0  0  0  0  0  0  0  0  0  0  0
   -3.3710   22.8270  -27.9140 C   0  0  0  0  0  0  0  0  0  0  0  0
   -3.3000   21.4300  -27.8470 C   0  0  0  0  0  0  0  0  0  0  0  0
   -2.7590   20.8420  -28.9830 C   0  0  0  0  0  0  0  0  0  0  0  0
   -2.3700   22.0630  -30.0730 S   0  0  0  0  0  0  0  0  0  0  0  0
   -5.5147   24.9000  -29.3941 H   0  0  0  0  0  0  0  0  0  0  0  0
   -5.7059   25.8142  -30.9346 H   0  0  0  0  0  0  0  0  0  0  0  0
   -5.6374   19.3040  -31.7879 H   0  0  0  0  0  0  0  0  0  0  0  0
   -7.1610   17.3532  -32.0764 H   0  0  0  0  0  0  0  0  0  0  0  0
   -9.6030   17.7117  -32.4371 H   0  0  0  0  0  0  0  0  0  0  0  0
  -10.5263   20.0273  -32.5119 H   0  0  0  0  0  0  0  0  0  0  0  0
   -3.7713   23.4531  -27.1030 H   0  0  0  0  0  0  0  0  0  0  0  0
   -3.6411   20.8520  -26.9755 H   0  0  0  0  0  0  0  0  0  0  0  0
   -2.6105   19.7638  -29.1425 H   0  0  0  0  0  0  0  0  0  0  0  0
  1  2  2  0
  2  3  1  0
  3  4  1  0
  4  5  1  0
  5  6  2  0
  6  7  1  0
  7  8  1  0
  8  9  2  0
  9 10  1  0
 10 11  2  0
 11 12  1  0
 12 13  2  0
 13 14  1  0
  7 15  2  0
 15 16  1  0
  2 17  1  0
 17 18  2  0
 18 19  1  0
 19 20  2  0
 20 21  1  0
 16  5  1  0
 21 17  1  0
 13  8  1  0
  4 22  1  0
  4 23  1  0
  9 24  1  0
 10 25  1  0
 11 26  1  0
 12 27  1  0
 18 28  1  0
 19 29  1  0
 20 30  1  0
M  CHG  1   3  -1
M  END
>  <UniqueID>  (1) 
1

>  <SMILES>  (1) 
O=C([N-]Cc1nc(-c2ccccc2F)no1)c1cccs1

>  <Energy>  (1) 
89.12503451803401

>  <Genealogy>  (1) 
O=C([N-]Cc1nc(-c2ccccc2F)no1)c1cccs1 (protonated)
O=C([N-]Cc1nc(-c2ccccc2F)no1)c1cccs1 (3D coordinates assigned)
O=C([N-]Cc1nc(-c2ccccc2F)no1)c1cccs1 (optimized conformer: 89.12503451803401 kcal/mol)

>  <smiles>  (1) 
O=C(NCc1nc(-c2ccccc2F)no1)c1cccs1

>  <score_type>  (1) 
oracle

>  <origin>  (1) 
adgpu

>  <m_score__min__energy>  (1) 
-10.199999999999999

>  <m_primary>  (1) 
energy

$$$$
1:0
     RDKit          3D

 29 31  0  0  0  0  0  0  0  0999 V2000
   -1.1990   25.3170  -27.5760 C   0  0  0  0  0  0  0  0  0  0  0  0
   -2.3590   24.5400  -28.1260 C   0  0  0  0  0  0  0  0  0  0  0  0
   -2.8190   23.3910  -27.4610 C   0  0  0  0  0  0  0  0  0  0  0  0
   -3.8760   22.6430  -27.9890 C   0  0  0  0  0  0  0  0  0  0  0  0
   -4.4720   23.0300  -29.1920 C   0  0  0  0  0  0  0  0  0  0  0  0
   -5.4990   22.3130  -29.7200 N   0  0  0  0  0  0  0  0  0  0  0  0
   -6.0810   22.6680  -30.8990 C   0  0  0  0  0  0  0  0  0  0  0  0
   -7.2150   21.8760  -31.4180 C   0  0  0  0  0  0  0  0  0  0  0  0
   -8.5220   22.2560  -31.0640 C   0  0  0  0  0  0  0  0  0  0  0  0
   -9.6230   21.5420  -31.5420 C   0  0  0  0  0  0  0  0  0  0  0  0
   -9.4330   20.4350  -32.3700 C   0  0  0  0  0  0  0  0  0  0  0  0
   -8.1400   20.0320  -32.7130 C   0  0  0  0  0  0  0  0  0  0  0  0
   -7.0270   20.7400  -32.2400 C   0  0  0  0  0  0  0  0  0  0  0  0
   -5.4260   20.1210  -32.6320 Cl  0  0  0  0  0  0  0  0  0  0  0  0
   -5.6230   23.8170  -31.5650 C   0  0  0  0  0  0  0  0  0  0  0  0
   -4.5970   24.5370  -31.0400 N   0  0  0  0  0  0  0  0  0  0  0  0
   -4.0060   24.1720  -29.8730 C   0  0  0  0  0  0  0  0  0  0  0  0
   -2.9480   24.9190  -29.3430 C   0  0  0  0  0  0  0  0  0  0  0  0
   -1.2314   25.2953  -26.4767 H   0  0  0  0  0  0  0  0  0  0  0  0
   -0.2578   24.8664  -27.9241 H   0  0  0  0  0  0  0  0  0  0  0  0
   -1.2575   26.3588  -27.9241 H   0  0  0  0  0  0  0  0  0  0  0  0
   -2.3447   23.0779  -26.5192 H   0  0  0  0  0  0  0  0  0  0  0  0
   -4.2380   21.7505  -27.4576 H   0  0  0  0  0  0  0  0  0  0  0  0
   -8.6784   23.1228  -30.4051 H   0  0  0  0  0  0  0  0  0  0  0  0
  -10.6413   21.8527  -31.2654 H   0  0  0  0  0  0  0  0  0  0  0  0
  -10.3017   19.8793  -32.7529 H   0  0  0  0  0  0  0  0  0  0  0  0
   -7.9947   19.1533  -33.3585 H   0  0  0  0  0  0  0  0  0  0  0  0
   -6.0932   24.1327  -32.5080 H   0  0  0  0  0  0  0  0  0  0  0  0
   -2.5773   25.8043  -29.8805 H   0  0  0  0  0  0  0  0  0  0  0  0
  1  2  1  0
  2  3  2  0
  3  4  1  0
  4  5  2  0
  5  6  1  0
  6  7  2  0
  7  8  1  0
  8  9  2  0
  9 10  1  0
 10 11  2  0
 11 12  1  0
 12 13  2  0
 13 14  1  0
  7 15  1  0
 15 16  2  0
 16 17  1  0
 17 18  2  0
 18  2  1  0
 17  5  1  0
 13  8  1  0
  1 19  1  0
  1 20  1  0
  1 21  1  0
  3 22  1  0
  4 23  1  0
  9 24  1  0
 10 25  1  0
 11 26  1  0
 12 27  1  0
 15 28  1  0
 18 29  1  0
M  END
>  <UniqueID>  (2) 
2

>  <SMILES>  (2) 
Cc1ccc2nc(-c3ccccc3Cl)cnc2c1

>  <Energy>  (2) 
41.98627280599446

>  <Genealogy>  (2) 
Cc1ccc2nc(-c3ccccc3Cl)cnc2c1 (3D coordinates assigned)
Cc1ccc2nc(-c3ccccc3Cl)cnc2c1 (optimized conformer: 41.98627280599446 kcal/mol)

>  <smiles>  (2) 
Cc1ccc2nc(-c3ccccc3Cl)cnc2c1

>  <score_type>  (2) 
oracle

>  <origin>  (2) 
adgpu

>  <m_score__min__energy>  (2) 
-7.2999999999999998

>  <m_primary>  (2) 
energy

$$$$
2:0
     RDKit          3D

 28 30  0  0  0  0  0  0  0  0999 V2000
   -1.6620   18.0620  -26.7290 O   0  0  0  0  0  0  0  0  0  0  0  0
   -1.1030   18.9040  -27.4850 C   0  0  0  0  0  0  0  0  0  0  0  0
   -1.8220   20.0260  -27.8990 C   0  0  0  0  0  0  0  0  0  0  0  0
   -1.2060   20.9690  -28.7400 C   0  0  0  0  0  0  0  0  0  0  0  0
   -1.9210   22.1820  -29.2100 C   0  0  0  0  0  0  0  0  0  0  0  0
   -1.4180   23.4530  -28.8810 C   0  0  0  0  0  0  0  0  0  0  0  0
   -2.0680   24.6120  -29.3170 C   0  0  0  0  0  0  0  0  0  0  0  0
   -1.5580   25.8590  -28.9730 O   0  0  0  0  0  0  0  0  0  0  0  0
   -3.2240   24.5160  -30.0980 C   0  0  0  0  0  0  0  0  0  0  0  0
   -3.8640   25.6750  -30.5260 O   0  0  0  0  0  0  0  0  0  0  0  0
   -3.7320   23.2550  -30.4470 C   0  0  0  0  0  0  0  0  0  0  0  0
   -4.8760   23.1310  -31.2330 O   0  0  0  0  0  0  0  0  0  0  0  0
   -3.0800   22.0960  -30.0070 C   0  0  0  0  0  0  0  0  0  0  0  0
    0.0570   20.7840  -29.1180 O   0  0  0  0  0  0  0  0  0  0  0  0
    0.7820   19.7320  -28.7510 C   0  0  0  0  0  0  0  0  0  0  0  0
    2.1010   19.6200  -29.2000 C   0  0  0  0  0  0  0  0  0  0  0  0
    2.8800   18.5230  -28.8280 C   0  0  0  0  0  0  0  0  0  0  0  0
    4.1900   18.4180  -29.2800 O   0  0  0  0  0  0  0  0  0  0  0  0
    2.3450   17.5310  -28.0030 C   0  0  0  0  0  0  0  0  0  0  0  0
    1.0270   17.6260  -27.5420 C   0  0  0  0  0  0  0  0  0  0  0  0
    0.5320   16.6180  -26.7210 O   0  0  0  0  0  0  0  0  0  0  0  0
    0.2290   18.7340  -27.9130 C   0  0  0  0  0  0  0  0  0  0  0  0
   -2.8616   20.1712  -27.5702 H   0  0  0  0  0  0  0  0  0  0  0  0
   -0.5041   23.5367  -28.2746 H   0  0  0  0  0  0  0  0  0  0  0  0
   -5.4060   23.9370  -31.5430 H   0  0  0  0  0  0  0  0  0  0  0  0
   -3.4766   21.1088  -30.2864 H   0  0  0  0  0  0  0  0  0  0  0  0
    2.5268   20.3994  -29.8490 H   0  0  0  0  0  0  0  0  0  0  0  0
    2.9640   16.6690  -27.7136 H   0  0  0  0  0  0  0  0  0  0  0  0
  1  2  2  0
  2  3  1  0
  3  4  2  0
  4  5  1  0
  5  6  2  0
  6  7  1  0
  7  8  1  0
  7  9  2  0
  9 10  1  0
  9 11  1  0
 11 12  1  0
 11 13  2  0
  4 14  1  0
 14 15  1  0
 15 16  2  0
 16 17  1  0
 17 18  1  0
 17 19  2  0
 19 20  1  0
 20 21  1  0
 20 22  2  0
 22  2  1  0
 13  5  1  0
 22 15  1  0
  3 23  1  0
  6 24  1  0
 12 25  1  0
 13 26  1  0
 16 27  1  0
 19 28  1  0
M  CHG  4   8  -1  10  -1  18  -1  21  -1
M  END
>  <UniqueID>  (3) 
3

>  <SMILES>  (3) 
O=c1cc(-c2cc([O-])c([O-])c(O)c2)oc2cc([O-])cc([O-])c12

>  <Energy>  (3) 
42.240862483550906

>  <Genealogy>  (3) 
O=c1cc(-c2cc([O-])c([O-])c(O)c2)oc2cc([O-])cc([O-])c12 (protonated)
O=c1cc(-c2cc([O-])c([O-])c(O)c2)oc2cc([O-])cc([O-])c12 (3D coordinates assigned)
O=c1cc(-c2cc([O-])c([O-])c(O)c2)oc2cc([O-])cc([O-])c12 (optimized conformer: 42.240862483550906 kcal/mol)

>  <smiles>  (3) 
O=c1cc(-c2cc(O)c(O)c(O)c2)oc2cc(O)cc(O)c12

>  <score_type>  (3) 
oracle

>  <origin>  (3) 
adgpu

>  <m_score__min__energy>  (3) 
-11.140000000000001

>  <m_primary>  (3) 
energy

$$$$
3:0
     RDKit          3D

 12 12  0  0  0  0  0  0  0  0999 V2000
   -4.6110   25.2870  -30.8470 N   0  0  0  0  0  0  0  0  0  0  0  0
   -5.3020   24.3950  -31.1010 C   0  0  0  0  0  0  0  0  0  0  0  0
   -6.1620   23.2840  -31.4170 C   0  0  0  0  0  0  0  0  0  0  0  0
   -7.4270   23.1130  -30.8420 C   0  0  0  0  0  0  0  0  0  0  0  0
   -8.0880   21.9720  -31.2880 C   0  0  0  0  0  0  0  0  0  0  0  0
   -7.1000   21.1760  -32.3970 S   0  0  0  0  0  0  0  0  0  0  0  0
   -5.8330   22.2750  -32.3140 C   0  0  0  0  0  0  0  0  0  0  0  0
   -4.6170   22.1730  -33.0560 N   0  0  0  0  0  0  0  0  0  0  0  0
   -7.8566   23.8120  -30.1093 H   0  0  0  0  0  0  0  0  0  0  0  0
   -9.0887   21.6445  -30.9695 H   0  0  0  0  0  0  0  0  0  0  0  0
   -4.5280   22.6480  -33.9810 H   0  0  0  0  0  0  0  0  0  0  0  0
   -3.8070   21.6270  -32.6870 H   0  0  0  0  0  0  0  0  0  0  0  0
  1  2  3  0
  2  3  1  0
  3  4  1  0
  4  5  2  0
  5  6  1  0
  6  7  1  0
  7  8  1  0
  7  3  2  0
  4  9  1  0
  5 10  1  0
  8 11  1  0
  8 12  1  0
M  END
>  <UniqueID>  (4) 
4

>  <SMILES>  (4) 
N#Cc1ccsc1N

>  <Energy>  (4) 
35.331013845684055

>  <Genealogy>  (4) 
N#Cc1ccsc1N (3D coordinates assigned)
N#Cc1ccsc1N (optimized conformer: 35.331013845684055 kcal/mol)

>  <smiles>  (4) 
N#Cc1ccsc1N

>  <score_type>  (4) 
oracle

>  <origin>  (4) 
adgpu

>  <m_score__min__energy>  (4) 
-4.3200000000000003

>  <m_primary>  (4) 
energy

$$$$
4:0
     RDKit          3D

 33 35  0  0  0  0  0  0  0  0999 V2000
   -8.2700   12.1150  -35.5510 C   0  0  0  0  0  0  0  0  0  0  0  0
   -7.3860   13.1300  -34.9150 C   0  0  0  0  0  0  0  0  0  0  0  0
   -7.6050   14.4580  -34.9670 N   0  0  0  0  0  0  0  0  0  0  0  0
   -6.5700   14.9280  -34.2370 C   0  0  0  0  0  0  0  0  0  0  0  0
   -6.3310   16.3640  -33.9760 C   0  0  0  0  0  0  0  0  0  0  0  0
   -5.4390   17.0950  -34.7790 C   0  0  0  0  0  0  0  0  0  0  0  0
   -5.2130   18.4520  -34.5320 C   0  0  0  0  0  0  0  0  0  0  0  0
   -5.8830   19.1070  -33.4880 C   0  0  0  0  0  0  0  0  0  0  0  0
   -5.6170   20.4990  -33.2400 N   0  0  0  0  0  0  0  0  0  0  0  0
   -6.4480   21.3380  -32.4210 C   0  0  0  0  0  0  0  0  0  0  0  0
   -7.6520   21.0180  -32.2210 O   0  0  0  0  0  0  0  0  0  0  0  0
   -5.9260   22.6020  -31.8520 C   0  0  0  0  0  0  0  0  0  0  0  0
   -6.7930   23.6290  -31.4390 C   0  0  0  0  0  0  0  0  0  0  0  0
   -6.2780   24.8160  -30.9120 C   0  0  0  0  0  0  0  0  0  0  0  0
   -4.8940   24.9720  -30.8060 C   0  0  0  0  0  0  0  0  0  0  0  0
   -4.4120   26.0350  -30.3320 O   0  0  0  0  0  0  0  0  0  0  0  0
   -4.0640   23.9780  -31.2160 N   0  0  0  0  0  0  0  0  0  0  0  0
   -4.5410   22.8150  -31.7330 C   0  0  0  0  0  0  0  0  0  0  0  0
   -6.7590   18.3720  -32.6710 C   0  0  0  0  0  0  0  0  0  0  0  0
   -6.9860   17.0140  -32.9170 C   0  0  0  0  0  0  0  0  0  0  0  0
   -5.7810   13.9380  -33.7700 N   0  0  0  0  0  0  0  0  0  0  0  0
   -6.3210   12.8420  -34.2090 O   0  0  0  0  0  0  0  0  0  0  0  0
   -8.7787   11.5309  -34.7700 H   0  0  0  0  0  0  0  0  0  0  0  0
   -9.0195   12.6219  -36.1765 H   0  0  0  0  0  0  0  0  0  0  0  0
   -7.6650   11.4422  -36.1765 H   0  0  0  0  0  0  0  0  0  0  0  0
   -4.9151   16.5959  -35.6075 H   0  0  0  0  0  0  0  0  0  0  0  0
   -4.5043   19.0106  -35.1611 H   0  0  0  0  0  0  0  0  0  0  0  0
   -4.8410   20.9500  -33.7770 H   0  0  0  0  0  0  0  0  0  0  0  0
   -7.8812   23.4973  -31.5312 H   0  0  0  0  0  0  0  0  0  0  0  0
   -6.9549   25.6187  -30.5842 H   0  0  0  0  0  0  0  0  0  0  0  0
   -3.8385   22.0346  -32.0608 H   0  0  0  0  0  0  0  0  0  0  0  0
   -7.2696   18.8681  -31.8324 H   0  0  0  0  0  0  0  0  0  0  0  0
   -7.6818   16.4515  -32.2772 H   0  0  0  0  0  0  0  0  0  0  0  0
  1  2  1  0
  2  3  2  0
  3  4  1  0
  4  5  1  0
  5  6  2  0
  6  7  1  0
  7  8  2  0
  8  9  1  0
  9 10  1  0
 10 11  2  0
 10 12  1  0
 12 13  1  0
 13 14  2  0
 14 15  1  0
 15 16  2  0
 15 17  1  0
 17 18  1  0
  8 19  1  0
 19 20  2  0
  4 21  2  0
 21 22  1  0
 22  2  1  0
 20  5  1  0
 18 12  2  0
  1 23  1  0
  1 24  1  0
  1 25  1  0
  6 26  1  0
  7 27  1  0
  9 28  1  0
 13 29  1  0
 14 30  1  0
 18 31  1  0
 19 32  1  0
 20 33  1  0
M  CHG  1  17  -1
M  END
>  <UniqueID>  (5) 
5

>  <SMILES>  (5) 
Cc1nc(-c2ccc(NC(=O)c3ccc(=O)[n-]c3)cc2)no1

>  <Energy>  (5) 
74.09453976742535

>  <Genealogy>  (5) 
Cc1nc(-c2ccc(NC(=O)c3ccc(=O)[n-]c3)cc2)no1 (protonated)
Cc1nc(-c2ccc(NC(=O)c3ccc(=O)[n-]c3)cc2)no1 (3D coordinates assigned)
Cc1nc(-c2ccc(NC(=O)c3ccc(=O)[n-]c3)cc2)no1 (optimized conformer: 74.09453976742535 kcal/mol)

>  <smiles>  (5) 
Cc1nc(-c2ccc(NC(=O)c3ccc(=O)[nH]c3)cc2)no1

>  <score_type>  (5) 
oracle

>  <origin>  (5) 
adgpu

>  <m_score__min__energy>  (5) 
-8.5399999999999991

>  <m_primary>  (5) 
energy

$$$$
5:0
     RDKit          3D

 35 37  0  0  0  0  0  0  0  0999 V2000
   -2.4947   19.7056  -29.7862 H   0  0  0  0  0  0  0  0  0  0  0  0
   -1.9200   20.6070  -29.5270 C   0  0  0  0  0  0  0  0  0  0  0  0
   -1.4740   21.4330  -30.5090 N   0  0  0  0  0  0  0  0  0  0  0  0
   -0.7780   22.5600  -30.2100 C   0  0  0  0  0  0  0  0  0  0  0  0
   -0.4062   23.2070  -31.0182 H   0  0  0  0  0  0  0  0  0  0  0  0
   -0.5340   22.8980  -28.8780 C   0  0  0  0  0  0  0  0  0  0  0  0
    0.2540   24.0560  -28.5630 N   0  0  0  0  0  0  0  0  0  0  0  0
   -0.0630   25.1100  -27.8600 C   0  0  0  0  0  0  0  0  0  0  0  0
    0.9530   25.9230  -27.4650 N   0  0  0  0  0  0  0  0  0  0  0  0
    0.7600   26.9760  -26.6320 C   0  0  0  0  0  0  0  0  0  0  0  0
    1.6050   27.6198  -26.3464 H   0  0  0  0  0  0  0  0  0  0  0  0
   -0.5190   27.2350  -26.1410 C   0  0  0  0  0  0  0  0  0  0  0  0
   -0.7690   28.3870  -25.2210 C   0  0  0  0  0  0  0  0  0  0  0  0
   -0.6950   28.0459  -24.1778 H   0  0  0  0  0  0  0  0  0  0  0  0
   -0.0202   29.1717  -25.4042 H   0  0  0  0  0  0  0  0  0  0  0  0
   -1.7757   28.7908  -25.4042 H   0  0  0  0  0  0  0  0  0  0  0  0
   -1.5590   26.4840  -26.5860 N   0  0  0  0  0  0  0  0  0  0  0  0
   -1.3880   25.4450  -27.4490 C   0  0  0  0  0  0  0  0  0  0  0  0
   -2.6100   24.8610  -28.0250 C   0  0  0  0  0  0  0  0  0  0  0  0
   -3.4510   24.2910  -27.2790 O   0  0  0  0  0  0  0  0  0  0  0  0
   -2.8190   24.9360  -29.4410 N   0  0  0  0  0  0  0  0  0  0  0  0
   -3.9910   24.5200  -30.1560 C   0  0  0  0  0  0  0  0  0  0  0  0
   -5.2100   25.2190  -30.0660 C   0  0  0  0  0  0  0  0  0  0  0  0
   -5.2794   26.1228  -29.4429 H   0  0  0  0  0  0  0  0  0  0  0  0
   -6.3330   24.7670  -30.7670 C   0  0  0  0  0  0  0  0  0  0  0  0
   -7.2801   25.3228  -30.7027 H   0  0  0  0  0  0  0  0  0  0  0  0
   -6.2550   23.6110  -31.5490 C   0  0  0  0  0  0  0  0  0  0  0  0
   -7.1374   23.2624  -32.1057 H   0  0  0  0  0  0  0  0  0  0  0  0
   -5.0540   22.8980  -31.6230 C   0  0  0  0  0  0  0  0  0  0  0  0
   -4.9580   21.4400  -32.5930 Cl  0  0  0  0  0  0  0  0  0  0  0  0
   -3.9300   23.3470  -30.9210 C   0  0  0  0  0  0  0  0  0  0  0  0
   -2.9915   22.7752  -30.9698 H   0  0  0  0  0  0  0  0  0  0  0  0
   -0.9630   22.0100  -27.8830 C   0  0  0  0  0  0  0  0  0  0  0  0
   -0.7383   22.2167  -26.8262 H   0  0  0  0  0  0  0  0  0  0  0  0
   -1.6570   20.8930  -28.2250 N   0  0  0  0  0  0  0  0  0  0  0  0
  1  2  1  0
  2  3  2  0
  3  4  1  0
  4  5  1  0
  4  6  2  0
  6  7  1  0
  7  8  2  0
  8  9  1  0
  9 10  1  0
 10 11  1  0
 10 12  2  0
 12 13  1  0
 13 14  1  0
 13 15  1  0
 13 16  1  0
 12 17  1  0
 17 18  2  0
 18 19  1  0
 19 20  2  0
 19 21  1  0
 21 22  1  0
 22 23  2  0
 23 24  1  0
 23 25  1  0
 25 26  1  0
 25 27  2  0
 27 28  1  0
 27 29  1  0
 29 30  1  0
 29 31  2  0
 31 32  1  0
  6 33  1  0
 33 34  1  0
 33 35  2  0
 35  2  1  0
 18  8  1  0
 31 22  1  0
M  CHG  2   9  -1  21  -1
M  END
>  <UniqueID>  (6) 
6

>  <SMILES>  (6) 
Cc1c[n-]/c(=N/c2cncnc2)c(C(=O)[N-]c2cccc(Cl)c2)n1

>  <Energy>  (6) 
63.00282551057302

>  <Genealogy>  (6) 
Cc1c[n-]c(=Nc2cncnc2)c(C(=O)[N-]c2cccc(Cl)c2)n1 (protonated)
Cc1c[n-]/c(=N/c2cncnc2)c(C(=O)[N-]c2cccc(Cl)c2)n1 (cis-trans isomerization)
Cc1c[n-]/c(=N/c2cncnc2)c(C(=O)[N-]c2cccc(Cl)c2)n1 (3D coordinates assigned)
Cc1c[n-]/c(=N/c2cncnc2)c(C(=O)[N-]c2cccc(Cl)c2)n1 (optimized conformer: 63.00282551057302 kcal/mol)

>  <smiles>  (6) 
Cc1c[nH]c(=Nc2cncnc2)c(C(=O)Nc2cccc(Cl)c2)n1

>  <score_type>  (6) 
oracle

>  <origin>  (6) 
adgpu

>  <m_score__min__energy>  (6) 
-8.75

>  <m_primary>  (6) 
energy

$$$$
6:0
     RDKit          3D

 44 45  0  0  0  0  0  0  0  0999 V2000
   -0.8740   26.4440  -27.8720 C   0  0  0  0  0  0  0  0  0  0  0  0
   -1.5800   25.8510  -28.9570 O   0  0  0  0  0  0  0  0  0  0  0  0
   -1.9020   24.4880  -29.0480 C   0  0  0  0  0  0  0  0  0  0  0  0
   -1.1550   23.4930  -28.3830 C   0  0  0  0  0  0  0  0  0  0  0  0
   -1.5150   22.1480  -28.4920 C   0  0  0  0  0  0  0  0  0  0  0  0
   -2.6290   21.7790  -29.2460 C   0  0  0  0  0  0  0  0  0  0  0  0
   -3.3810   22.7570  -29.9020 C   0  0  0  0  0  0  0  0  0  0  0  0
   -3.0050   24.1090  -29.8320 C   0  0  0  0  0  0  0  0  0  0  0  0
   -3.7850   25.1260  -30.4750 N   0  0  0  0  0  0  0  0  0  0  0  0
   -5.1960   25.3350  -30.3250 C   0  0  0  0  0  0  0  0  0  0  0  0
   -5.6630   26.4800  -30.5670 O   0  0  0  0  0  0  0  0  0  0  0  0
   -6.1530   24.2110  -29.9920 C   0  0  0  0  0  0  0  0  0  0  0  0
   -6.2720   23.1930  -31.0620 N   0  0  2  0  0  0  0  0  0  0  0  0
   -6.5010   23.8050  -32.3890 C   0  0  0  0  0  0  0  0  0  0  0  0
   -7.2810   22.1970  -30.7370 C   0  0  0  0  0  0  0  0  0  0  0  0
   -8.0190   22.3470  -29.7180 O   0  0  0  0  0  0  0  0  0  0  0  0
   -7.3590   20.9140  -31.4790 C   0  0  0  0  0  0  0  0  0  0  0  0
   -8.6060   20.2630  -31.5530 C   0  0  0  0  0  0  0  0  0  0  0  0
   -8.7250   19.0300  -32.1950 C   0  0  0  0  0  0  0  0  0  0  0  0
   -7.6020   18.4290  -32.7720 C   0  0  0  0  0  0  0  0  0  0  0  0
   -6.3610   19.0710  -32.7320 C   0  0  0  0  0  0  0  0  0  0  0  0
   -6.2260   20.3290  -32.1040 C   0  0  0  0  0  0  0  0  0  0  0  0
   -5.0010   21.0210  -32.1130 O   0  0  0  0  0  0  0  0  0  0  0  0
   -3.9730   20.8470  -33.0900 C   0  0  0  0  0  0  0  0  0  0  0  0
   -1.2973   26.0884  -26.9210 H   0  0  0  0  0  0  0  0  0  0  0  0
    0.1880   26.1631  -27.9284 H   0  0  0  0  0  0  0  0  0  0  0  0
   -0.9673   27.5386  -27.9284 H   0  0  0  0  0  0  0  0  0  0  0  0
   -0.2838   23.7782  -27.7750 H   0  0  0  0  0  0  0  0  0  0  0  0
   -0.9184   21.3775  -27.9818 H   0  0  0  0  0  0  0  0  0  0  0  0
   -2.9150   20.7197  -29.3240 H   0  0  0  0  0  0  0  0  0  0  0  0
   -4.2728   22.4667  -30.4768 H   0  0  0  0  0  0  0  0  0  0  0  0
   -5.7992   23.7133  -29.0771 H   0  0  0  0  0  0  0  0  0  0  0  0
   -7.1480   24.6628  -29.8662 H   0  0  0  0  0  0  0  0  0  0  0  0
   -5.3420   22.7240  -31.1140 H   0  0  0  0  0  0  0  0  0  0  0  0
   -6.8838   24.8281  -32.2598 H   0  0  0  0  0  0  0  0  0  0  0  0
   -5.5535   23.8358  -32.9470 H   0  0  0  0  0  0  0  0  0  0  0  0
   -7.2359   23.2063  -32.9470 H   0  0  0  0  0  0  0  0  0  0  0  0
   -9.4932   20.7306  -31.1010 H   0  0  0  0  0  0  0  0  0  0  0  0
   -9.7034   18.5301  -32.2473 H   0  0  0  0  0  0  0  0  0  0  0  0
   -7.6955   17.4472  -33.2592 H   0  0  0  0  0  0  0  0  0  0  0  0
   -5.4837   18.5934  -33.1926 H   0  0  0  0  0  0  0  0  0  0  0  0
   -3.0100   20.6840  -32.5840 H   0  0  0  0  0  0  0  0  0  0  0  0
   -4.2087   19.9760  -33.7191 H   0  0  0  0  0  0  0  0  0  0  0  0
   -3.9089   21.7471  -33.7191 H   0  0  0  0  0  0  0  0  0  0  0  0
  1  2  1  0
  2  3  1  0
  3  4  2  0
  4  5  1  0
  5  6  2  0
  6  7  1  0
  7  8  2  0
  8  9  1  0
  9 10  1  0
 10 11  2  0
 10 12  1  0
 12 13  1  0
 13 14  1  0
 13 15  1  0
 15 16  2  0
 15 17  1  0
 17 18  2  0
 18 19  1  0
 19 20  2  0
 20 21  1  0
 21 22  2  0
 22 23  1  0
 23 24  1  0
  8  3  1  0
 22 17  1  0
  1 25  1  0
  1 26  1  0
  1 27  1  0
  4 28  1  0
  5 29  1  0
  6 30  1  0
  7 31  1  0
 12 32  1  0
 12 33  1  0
 13 34  1  6
 14 35  1  0
 14 36  1  0
 14 37  1  0
 18 38  1  0
 19 39  1  0
 20 40  1  0
 21 41  1  0
 24 42  1  0
 24 43  1  0
 24 44  1  0
M  CHG  2   9  -1  13   1
M  END
>  <UniqueID>  (7) 
7

>  <SMILES>  (7) 
COc1ccccc1[N-]C(=O)C[N@H+](C)C(=O)c1ccccc1OC

>  <Energy>  (7) 
59.0109670657197

>  <Genealogy>  (7) 
COc1ccccc1[N-]C(=O)C[NH+](C)C(=O)c1ccccc1OC (protonated)
COc1ccccc1[N-]C(=O)C[N@H+](C)C(=O)c1ccccc1OC (chirality)
COc1ccccc1[N-]C(=O)C[N@H+](C)C(=O)c1ccccc1OC (3D coordinates assigned)
COc1ccccc1[N-]C(=O)C[N@H+](C)C(=O)c1ccccc1OC (optimized conformer: 59.0109670657197 kcal/mol)

>  <smiles>  (7) 
COc1ccccc1NC(=O)CN(C)C(=O)c1ccccc1OC

>  <score_type>  (7) 
oracle

>  <origin>  (7) 
adgpu

>  <m_score__min__energy>  (7) 
-9.2899999999999991

>  <m_primary>  (7) 
energy

$$$$
7:0
     RDKit          3D

 36 37  0  0  0  0  0  0  0  0999 V2000
    1.3110   24.3410  -26.5060 C   0  0  0  0  0  0  0  0  0  0  0  0
    0.6310   24.6690  -27.6950 O   0  0  0  0  0  0  0  0  0  0  0  0
   -0.5780   24.1210  -28.0440 C   0  0  0  0  0  0  0  0  0  0  0  0
   -1.0200   22.8780  -27.5930 C   0  0  0  0  0  0  0  0  0  0  0  0
   -2.2390   22.3640  -27.9670 C   0  0  0  0  0  0  0  0  0  0  0  0
   -2.7890   21.0790  -27.5430 C   0  0  0  0  0  0  0  0  0  0  0  0
   -1.8780   19.9380  -27.5620 C   0  0  0  0  0  0  0  0  0  0  0  0
   -0.9130   19.8540  -28.5760 C   0  0  0  0  0  0  0  0  0  0  0  0
   -0.0460   18.7970  -28.6110 N   0  0  0  0  0  0  0  0  0  0  0  0
   -0.1280   17.8260  -27.6540 C   0  0  0  0  0  0  0  0  0  0  0  0
    0.6960   16.8060  -27.6750 N   0  0  0  0  0  0  0  0  0  0  0  0
   -1.0410   17.8760  -26.6670 N   0  0  0  0  0  0  0  0  0  0  0  0
   -1.8960   18.9070  -26.6210 C   0  0  0  0  0  0  0  0  0  0  0  0
   -2.7580   18.9260  -25.6780 N   0  0  0  0  0  0  0  0  0  0  0  0
   -3.0270   23.1430  -28.8240 C   0  0  0  0  0  0  0  0  0  0  0  0
   -2.6110   24.3750  -29.2820 C   0  0  0  0  0  0  0  0  0  0  0  0
   -3.4280   25.1340  -30.1430 O   0  0  0  0  0  0  0  0  0  0  0  0
   -4.7820   24.7890  -30.2350 C   0  0  0  0  0  0  0  0  0  0  0  0
   -1.3860   24.8730  -28.8960 C   0  0  0  0  0  0  0  0  0  0  0  0
   -0.9510   26.1090  -29.3460 O   0  0  0  0  0  0  0  0  0  0  0  0
    0.6995   24.6360  -25.6405 H   0  0  0  0  0  0  0  0  0  0  0  0
    1.4921   23.2565  -26.4744 H   0  0  0  0  0  0  0  0  0  0  0  0
    2.2725   24.8744  -26.4744 H   0  0  0  0  0  0  0  0  0  0  0  0
   -0.3761   22.2929  -26.9199 H   0  0  0  0  0  0  0  0  0  0  0  0
   -3.1546   21.1966  -26.5122 H   0  0  0  0  0  0  0  0  0  0  0  0
   -3.5679   20.8397  -28.2819 H   0  0  0  0  0  0  0  0  0  0  0  0
   -0.8534   20.6392  -29.3441 H   0  0  0  0  0  0  0  0  0  0  0  0
    0.6870   18.7320  -29.3800 H   0  0  0  0  0  0  0  0  0  0  0  0
    1.3850   16.8250  -28.4700 H   0  0  0  0  0  0  0  0  0  0  0  0
   -1.0670   17.0960  -25.9450 H   0  0  0  0  0  0  0  0  0  0  0  0
   -2.8650   18.2270  -24.9350 H   0  0  0  0  0  0  0  0  0  0  0  0
   -4.0081   22.7599  -29.1414 H   0  0  0  0  0  0  0  0  0  0  0  0
   -5.2026   24.6818  -29.2242 H   0  0  0  0  0  0  0  0  0  0  0  0
   -5.3253   25.5774  -30.7765 H   0  0  0  0  0  0  0  0  0  0  0  0
   -4.8818   23.8367  -30.7765 H   0  0  0  0  0  0  0  0  0  0  0  0
   -1.2440   26.4590  -30.2510 H   0  0  0  0  0  0  0  0  0  0  0  0
  1  2  1  0
  2  3  1  0
  3  4  2  0
  4  5  1  0
  5  6  1  0
  6  7  1  0
  7  8  2  0
  8  9  1  0
  9 10  1  0
 10 11  2  3
 10 12  1  0
 12 13  1  0
 13 14  2  3
  5 15  2  0
 15 16  1  0
 16 17  1  0
 17 18  1  0
 16 19  2  0
 19 20  1  0
 19  3  1  0
 13  7  1  0
  1 21  1  0
  1 22  1  0
  1 23  1  0
  4 24  1  0
  6 25  1  0
  6 26  1  0
  8 27  1  0
  9 28  1  0
 11 29  1  0
 12 30  1  0
 14 31  1  0
 15 32  1  0
 18 33  1  0
 18 34  1  0
 18 35  1  0
 20 36  1  0
M  END
>  <smiles>  (8) 
COc1cc(Cc2c[nH]c(=N)[nH]c2=N)cc(OC)c1O

>  <score_type>  (8) 
oracle

>  <origin>  (8) 
adgpu

>  <m_score__min__energy>  (8) 
-7.96

>  <m_primary>  (8) 
energy

$$$$
8:0
     RDKit          3D

 29 31  0  0  0  0  0  0  0  0999 V2000
   -5.7130   25.6910  -30.8390 S   0  0  0  0  0  0  0  0  0  0  0  0
   -4.6420   24.5830  -30.2810 C   0  0  0  0  0  0  0  0  0  0  0  0
   -3.4860   24.9320  -29.6810 N   0  0  0  0  0  0  0  0  0  0  0  0
   -2.8800   23.7520  -29.4160 C   0  0  0  0  0  0  0  0  0  0  0  0
   -1.5630   23.6410  -28.7430 C   0  0  0  0  0  0  0  0  0  0  0  0
   -0.9490   22.3910  -28.5360 C   0  0  0  0  0  0  0  0  0  0  0  0
    0.2950   22.3090  -27.8990 C   0  0  0  0  0  0  0  0  0  0  0  0
    0.9380   23.4690  -27.4640 C   0  0  0  0  0  0  0  0  0  0  0  0
    0.3400   24.7140  -27.6650 C   0  0  0  0  0  0  0  0  0  0  0  0
   -0.9020   24.8040  -28.3000 C   0  0  0  0  0  0  0  0  0  0  0  0
   -3.6790   22.7140  -29.8640 C   0  0  0  0  0  0  0  0  0  0  0  0
   -4.7840   23.2460  -30.4150 N   0  0  0  0  0  0  0  0  0  0  0  0
   -5.8930   22.5170  -30.9670 C   0  0  0  0  0  0  0  0  0  0  0  0
   -7.1530   22.5970  -30.3530 C   0  0  0  0  0  0  0  0  0  0  0  0
   -8.2370   21.8800  -30.8660 C   0  0  0  0  0  0  0  0  0  0  0  0
   -8.0720   21.0770  -31.9960 C   0  0  0  0  0  0  0  0  0  0  0  0
   -6.8240   20.9910  -32.6180 C   0  0  0  0  0  0  0  0  0  0  0  0
   -5.7310   21.7050  -32.1100 C   0  0  0  0  0  0  0  0  0  0  0  0
   -4.1920   21.6050  -32.9550 Cl  0  0  0  0  0  0  0  0  0  0  0  0
   -1.4499   21.4730  -28.8770 H   0  0  0  0  0  0  0  0  0  0  0  0
    0.7668   21.3280  -27.7409 H   0  0  0  0  0  0  0  0  0  0  0  0
    1.9151   23.4020  -26.9632 H   0  0  0  0  0  0  0  0  0  0  0  0
    0.8479   25.6276  -27.3225 H   0  0  0  0  0  0  0  0  0  0  0  0
   -1.3664   25.7891  -28.4549 H   0  0  0  0  0  0  0  0  0  0  0  0
   -3.4498   21.6412  -29.7833 H   0  0  0  0  0  0  0  0  0  0  0  0
   -7.2877   23.2282  -29.4623 H   0  0  0  0  0  0  0  0  0  0  0  0
   -9.2210   21.9483  -30.3792 H   0  0  0  0  0  0  0  0  0  0  0  0
   -8.9258   20.5112  -32.3972 H   0  0  0  0  0  0  0  0  0  0  0  0
   -6.6991   20.3600  -33.5103 H   0  0  0  0  0  0  0  0  0  0  0  0
  1  2  2  0
  2  3  1  0
  3  4  1  0
  4  5  1  0
  5  6  2  0
  6  7  1  0
  7  8  2  0
  8  9  1  0
  9 10  2  0
  4 11  2  0
 11 12  1  0
 12 13  1  0
 13 14  2  0
 14 15  1  0
 15 16  2  0
 16 17  1  0
 17 18  2  0
 18 19  1  0
 12  2  1  0
 18 13  1  0
 10  5  1  0
  6 20  1  0
  7 21  1  0
  8 22  1  0
  9 23  1  0
 10 24  1  0
 11 25  1  0
 14 26  1  0
 15 27  1  0
 16 28  1  0
 17 29  1  0
M  CHG  1   3  -1
M  END
>  <UniqueID>  (9) 
8

>  <SMILES>  (9) 
S=c1[n-]c(-c2ccccc2)cn1-c1ccccc1Cl

>  <Energy>  (9) 
70.93795800117894

>  <Genealogy>  (9) 
S=c1[n-]c(-c2ccccc2)cn1-c1ccccc1Cl (protonated)
S=c1[n-]c(-c2ccccc2)cn1-c1ccccc1Cl (3D coordinates assigned)
S=c1[n-]c(-c2ccccc2)cn1-c1ccccc1Cl (optimized conformer: 70.93795800117894 kcal/mol)

>  <smiles>  (9) 
S=c1[nH]c(-c2ccccc2)cn1-c1ccccc1Cl

>  <score_type>  (9) 
oracle

>  <origin>  (9) 
adgpu

>  <m_score__min__energy>  (9) 
-7.9199999999999999

>  <m_primary>  (9) 
energy

$$$$
9:0
     RDKit          3D

 34 36  0  0  0  0  0  0  0  0999 V2000
   -0.7950   16.9770  -26.7030 H   0  0  0  0  0  0  0  0  0  0  0  0
   -0.4610   17.9070  -27.0420 N   0  0  0  0  0  0  0  0  0  0  0  0
   -1.2640   18.9140  -27.1300 C   0  0  0  0  0  0  0  0  0  0  0  0
   -0.8700   20.1290  -27.5640 N   0  0  0  0  0  0  0  0  0  0  0  0
   -1.8970   21.0230  -27.5650 C   0  0  0  0  0  0  0  0  0  0  0  0
   -1.7010   22.4280  -28.0120 C   0  0  0  0  0  0  0  0  0  0  0  0
   -0.5800   23.1760  -27.6140 C   0  0  0  0  0  0  0  0  0  0  0  0
    0.1777   22.7186  -26.9608 H   0  0  0  0  0  0  0  0  0  0  0  0
   -0.4210   24.4940  -28.0410 C   0  0  0  0  0  0  0  0  0  0  0  0
    0.4586   25.0694  -27.7165 H   0  0  0  0  0  0  0  0  0  0  0  0
   -1.3670   25.0900  -28.8760 C   0  0  0  0  0  0  0  0  0  0  0  0
   -1.1900   26.4190  -29.2380 O   0  0  0  0  0  0  0  0  0  0  0  0
   -2.4870   24.3510  -29.3150 C   0  0  0  0  0  0  0  0  0  0  0  0
   -3.4930   24.9070  -30.1840 N   0  0  0  0  0  0  0  0  0  0  0  0
   -3.2020   25.6620  -30.8470 H   0  0  0  0  0  0  0  0  0  0  0  0
   -4.9330   24.6910  -30.0370 C   0  0  0  0  0  0  0  0  0  0  0  0
   -5.1575   24.4691  -28.9833 H   0  0  0  0  0  0  0  0  0  0  0  0
   -5.4583   25.6019  -30.3599 H   0  0  0  0  0  0  0  0  0  0  0  0
   -5.3980   23.5400  -30.8930 C   0  0  0  0  0  0  0  0  0  0  0  0
   -4.4720   22.7740  -31.6250 C   0  0  0  0  0  0  0  0  0  0  0  0
   -3.3976   22.9986  -31.5532 H   0  0  0  0  0  0  0  0  0  0  0  0
   -4.9110   21.7290  -32.4430 C   0  0  0  0  0  0  0  0  0  0  0  0
   -4.1809   21.1248  -33.0016 H   0  0  0  0  0  0  0  0  0  0  0  0
   -6.2750   21.4510  -32.5520 C   0  0  0  0  0  0  0  0  0  0  0  0
   -6.6181   20.6255  -33.1930 H   0  0  0  0  0  0  0  0  0  0  0  0
   -7.2040   22.2200  -31.8480 C   0  0  0  0  0  0  0  0  0  0  0  0
   -8.2785   22.0026  -31.9387 H   0  0  0  0  0  0  0  0  0  0  0  0
   -6.7700   23.2660  -31.0280 C   0  0  0  0  0  0  0  0  0  0  0  0
   -7.5061   23.8777  -30.4857 H   0  0  0  0  0  0  0  0  0  0  0  0
   -2.6460   23.0300  -28.8640 C   0  0  0  0  0  0  0  0  0  0  0  0
   -3.5272   22.4542  -29.1833 H   0  0  0  0  0  0  0  0  0  0  0  0
   -3.1210   20.4960  -27.1300 C   0  0  0  0  0  0  0  0  0  0  0  0
   -4.0701   21.0477  -27.0604 H   0  0  0  0  0  0  0  0  0  0  0  0
   -2.8930   18.8760  -26.7320 S   0  0  0  0  0  0  0  0  0  0  0  0
  1  2  1  0
  2  3  2  0
  3  4  1  0
  4  5  1  0
  5  6  1  0
  6  7  2  0
  7  8  1  0
  7  9  1  0
  9 10  1  0
  9 11  2  0
 11 12  1  0
 11 13  1  0
 13 14  1  0
 14 15  1  0
 14 16  1  0
 16 17  1  0
 16 18  1  0
 16 19  1  0
 19 20  2  0
 20 21  1  0
 20 22  1  0
 22 23  1  0
 22 24  2  0
 24 25  1  0
 24 26  1  0
 26 27  1  0
 26 28  2  0
 28 29  1  0
 13 30  2  0
 30 31  1  0
  5 32  2  0
 32 33  1  0
 32 34  1  0
 34  3  1  0
 30  6  1  0
 28 19  1  0
M  CHG  2   4  -1  12  -1
M  END
>  <UniqueID>  (10) 
9

>  <SMILES>  (10) 
[H]/N=c1/[n-]c(-c2ccc([O-])c(NCc3ccccc3)c2)cs1

>  <Energy>  (10) 
72.70000083992797

>  <Genealogy>  (10) 
N=c1[n-]c(-c2ccc([O-])c(NCc3ccccc3)c2)cs1 (protonated)
[H]/N=c1/[n-]c(-c2ccc([O-])c(NCc3ccccc3)c2)cs1 (cis-trans isomerization)
[H]/N=c1/[n-]c(-c2ccc([O-])c(NCc3ccccc3)c2)cs1 (3D coordinates assigned)
[H]/N=c1/[n-]c(-c2ccc([O-])c(NCc3ccccc3)c2)cs1 (optimized conformer: 72.70000083992797 kcal/mol)

>  <smiles>  (10) 
N=c1[nH]c(-c2ccc(O)c(NCc3ccccc3)c2)cs1

>  <score_type>  (10) 
oracle

>  <origin>  (10) 
adgpu

>  <m_score__min__energy>  (10) 
-11.07

>  <m_primary>  (10) 
energy

$$$$
10:0
     RDKit          3D

 23 24  0  0  0  0  0  0  0  0999 V2000
   -5.3190   25.2950  -30.4590 Br  0  0  0  0  0  0  0  0  0  0  0  0
   -6.3880   23.7540  -30.8030 C   0  0  0  0  0  0  0  0  0  0  0  0
   -7.2340   23.1320  -29.8970 C   0  0  0  0  0  0  0  0  0  0  0  0
   -7.8870   22.0140  -30.4280 C   0  0  0  0  0  0  0  0  0  0  0  0
   -7.5600   21.7650  -31.7580 C   0  0  0  0  0  0  0  0  0  0  0  0
   -8.0600   20.6060  -32.5810 C   0  0  1  0  0  0  0  0  0  0  0  0
   -6.8810   19.8800  -33.2860 C   0  0  0  0  0  0  0  0  0  0  0  0
   -6.3630   18.7210  -32.4750 C   0  0  0  0  0  0  0  0  0  0  0  0
   -7.2310   17.8940  -31.8800 C   0  0  0  0  0  0  0  0  0  0  0  0
   -8.7040   18.1770  -31.9840 C   0  0  0  0  0  0  0  0  0  0  0  0
   -8.9550   19.6680  -31.7120 C   0  0  0  0  0  0  0  0  0  0  0  0
   -6.4420   22.9240  -32.2620 S   0  0  0  0  0  0  0  0  0  0  0  0
   -7.3774   23.4825  -28.8642 H   0  0  0  0  0  0  0  0  0  0  0  0
   -8.5890   21.3935  -29.8516 H   0  0  0  0  0  0  0  0  0  0  0  0
   -8.7048   20.9789  -33.3904 H   0  0  0  0  0  0  0  0  0  0  0  0
   -7.2273   19.5045  -34.2602 H   0  0  0  0  0  0  0  0  0  0  0  0
   -6.0608   20.6032  -33.4056 H   0  0  0  0  0  0  0  0  0  0  0  0
   -5.2803   18.5557  -32.3727 H   0  0  0  0  0  0  0  0  0  0  0  0
   -6.8709   17.0175  -31.3214 H   0  0  0  0  0  0  0  0  0  0  0  0
   -9.0564   17.9235  -32.9947 H   0  0  0  0  0  0  0  0  0  0  0  0
   -9.2487   17.5709  -31.2452 H   0  0  0  0  0  0  0  0  0  0  0  0
  -10.0102   19.8910  -31.9286 H   0  0  0  0  0  0  0  0  0  0  0  0
   -8.7031   19.8569  -30.6580 H   0  0  0  0  0  0  0  0  0  0  0  0
  1  2  1  0
  2  3  2  0
  3  4  1  0
  4  5  2  0
  5  6  1  0
  6  7  1  0
  7  8  1  0
  8  9  2  0
  9 10  1  0
 10 11  1  0
  5 12  1  0
 12  2  1  0
 11  6  1  0
  3 13  1  0
  4 14  1  0
  6 15  1  6
  7 16  1  0
  7 17  1  0
  8 18  1  0
  9 19  1  0
 10 20  1  0
 10 21  1  0
 11 22  1  0
 11 23  1  0
M  END
>  <UniqueID>  (11) 
10

>  <SMILES>  (11) 
Brc1ccc([C@H]2CC=CCC2)s1

>  <Energy>  (11) 
50.53811213493638

>  <Genealogy>  (11) 
Brc1ccc([C@H]2CC=CCC2)s1 (chirality)
Brc1ccc([C@H]2CC=CCC2)s1 (3D coordinates assigned)
Brc1ccc([C@H]2CC=CCC2)s1 (nonaromatic ring conformer: 50.53811213493638 kcal/mol)

>  <smiles>  (11) 
Brc1ccc(C2CC=CCC2)s1

>  <score_type>  (11) 
oracle

>  <origin>  (11) 
adgpu

>  <m_score__min__energy>  (11) 
-6.8799999999999999

>  <m_primary>  (11) 
energy

$$$$
11:0
     RDKit          3D

 26 27  0  0  0  0  0  0  0  0999 V2000
   -0.6750   27.4580  -24.2150 C   0  0  0  0  0  0  0  0  0  0  0  0
   -0.9600   26.5010  -25.3340 C   0  0  0  0  0  0  0  0  0  0  0  0
   -1.2560   25.1580  -25.0560 C   0  0  0  0  0  0  0  0  0  0  0  0
   -1.4860   24.2570  -26.0970 C   0  0  0  0  0  0  0  0  0  0  0  0
   -1.4030   24.6780  -27.4350 C   0  0  0  0  0  0  0  0  0  0  0  0
   -1.6480   23.7030  -28.5230 C   0  0  0  0  0  0  0  0  0  0  0  0
   -1.0270   22.4430  -28.4790 C   0  0  0  0  0  0  0  0  0  0  0  0
   -1.2470   21.5100  -29.4970 C   0  0  0  0  0  0  0  0  0  0  0  0
   -2.0840   21.8290  -30.5690 C   0  0  0  0  0  0  0  0  0  0  0  0
   -2.6960   23.0830  -30.6300 C   0  0  0  0  0  0  0  0  0  0  0  0
   -2.4780   24.0240  -29.6160 C   0  0  0  0  0  0  0  0  0  0  0  0
   -3.0720   25.2770  -29.7140 O   0  0  0  0  0  0  0  0  0  0  0  0
   -1.1040   26.0250  -27.7170 C   0  0  0  0  0  0  0  0  0  0  0  0
   -1.0550   26.4710  -29.0380 O   0  0  0  0  0  0  0  0  0  0  0  0
   -0.8720   26.9250  -26.6670 C   0  0  0  0  0  0  0  0  0  0  0  0
   -0.8262   26.9504  -23.2509 H   0  0  0  0  0  0  0  0  0  0  0  0
    0.3659   27.8064  -24.2867 H   0  0  0  0  0  0  0  0  0  0  0  0
   -1.3557   28.3191  -24.2867 H   0  0  0  0  0  0  0  0  0  0  0  0
   -1.3071   24.8134  -24.0126 H   0  0  0  0  0  0  0  0  0  0  0  0
   -1.7340   23.2100  -25.8683 H   0  0  0  0  0  0  0  0  0  0  0  0
   -0.3640   22.1893  -27.6388 H   0  0  0  0  0  0  0  0  0  0  0  0
   -0.7607   20.5243  -29.4537 H   0  0  0  0  0  0  0  0  0  0  0  0
   -2.2613   21.0918  -31.3659 H   0  0  0  0  0  0  0  0  0  0  0  0
   -3.3515   23.3323  -31.4774 H   0  0  0  0  0  0  0  0  0  0  0  0
   -1.6370   26.0630  -29.7600 H   0  0  0  0  0  0  0  0  0  0  0  0
   -0.6190   27.9718  -26.8912 H   0  0  0  0  0  0  0  0  0  0  0  0
  1  2  1  0
  2  3  2  0
  3  4  1  0
  4  5  2  0
  5  6  1  0
  6  7  2  0
  7  8  1  0
  8  9  2  0
  9 10  1  0
 10 11  2  0
 11 12  1  0
  5 13  1  0
 13 14  1  0
 13 15  2  0
 15  2  1  0
 11  6  1  0
  1 16  1  0
  1 17  1  0
  1 18  1  0
  3 19  1  0
  4 20  1  0
  7 21  1  0
  8 22  1  0
  9 23  1  0
 10 24  1  0
 14 25  1  0
 15 26  1  0
M  CHG  1  12  -1
M  END
>  <UniqueID>  (12) 
11

>  <SMILES>  (12) 
Cc1ccc(-c2ccccc2[O-])c(O)c1

>  <Energy>  (12) 
33.29393951075386

>  <Genealogy>  (12) 
Cc1ccc(-c2ccccc2[O-])c(O)c1 (protonated)
Cc1ccc(-c2ccccc2[O-])c(O)c1 (3D coordinates assigned)
Cc1ccc(-c2ccccc2[O-])c(O)c1 (optimized conformer: 33.29393951075386 kcal/mol)

>  <smiles>  (12) 
Cc1ccc(-c2ccccc2O)c(O)c1

>  <score_type>  (12) 
oracle

>  <origin>  (12) 
adgpu

>  <m_score__min__energy>  (12) 
-9.1699999999999999

>  <m_primary>  (12) 
energy

$$$$
12:0
     RDKit          3D

 25 26  0  0  0  0  0  0  0  0999 V2000
   -4.8320   24.9050  -30.2550 C   0  0  0  0  0  0  0  0  0  0  0  0
   -5.9030   23.9440  -30.6780 C   0  0  0  0  0  0  0  0  0  0  0  0
   -6.2510   23.8250  -32.0330 C   0  0  0  0  0  0  0  0  0  0  0  0
   -7.2740   22.9550  -32.4230 C   0  0  0  0  0  0  0  0  0  0  0  0
   -7.9630   22.2060  -31.4630 C   0  0  0  0  0  0  0  0  0  0  0  0
   -9.2710   21.0880  -31.9660 S   0  0  0  0  0  0  0  0  0  0  0  0
   -8.1140   19.8200  -32.4720 C   0  0  0  0  0  0  0  0  0  0  0  0
   -8.1820   18.5370  -31.9150 C   0  0  0  0  0  0  0  0  0  0  0  0
   -7.2640   17.5670  -32.3220 C   0  0  0  0  0  0  0  0  0  0  0  0
   -6.2970   17.8840  -33.2780 C   0  0  0  0  0  0  0  0  0  0  0  0
   -6.2630   19.1740  -33.8140 C   0  0  0  0  0  0  0  0  0  0  0  0
   -7.1650   20.1060  -33.4040 N   0  0  0  0  0  0  0  0  0  0  0  0
   -7.6340   22.3370  -30.1100 C   0  0  0  0  0  0  0  0  0  0  0  0
   -6.6120   23.2060  -29.7170 C   0  0  0  0  0  0  0  0  0  0  0  0
   -4.7879   24.9446  -29.1566 H   0  0  0  0  0  0  0  0  0  0  0  0
   -3.8615   24.5691  -30.6491 H   0  0  0  0  0  0  0  0  0  0  0  0
   -5.0611   25.9061  -30.6491 H   0  0  0  0  0  0  0  0  0  0  0  0
   -5.7172   24.4180  -32.7902 H   0  0  0  0  0  0  0  0  0  0  0  0
   -7.5375   22.8594  -33.4867 H   0  0  0  0  0  0  0  0  0  0  0  0
   -8.9500   18.2961  -31.1653 H   0  0  0  0  0  0  0  0  0  0  0  0
   -7.3025   16.5558  -31.8907 H   0  0  0  0  0  0  0  0  0  0  0  0
   -5.5698   17.1265  -33.6057 H   0  0  0  0  0  0  0  0  0  0  0  0
   -5.5062   19.4360  -34.5681 H   0  0  0  0  0  0  0  0  0  0  0  0
   -8.1806   21.7549  -29.3534 H   0  0  0  0  0  0  0  0  0  0  0  0
   -6.3624   23.3119  -28.6509 H   0  0  0  0  0  0  0  0  0  0  0  0
  1  2  1  0
  2  3  2  0
  3  4  1  0
  4  5  2  0
  5  6  1  0
  6  7  1  0
  7  8  2  0
  8  9  1  0
  9 10  2  0
 10 11  1  0
 11 12  2  0
  5 13  1  0
 13 14  2  0
 14  2  1  0
 12  7  1  0
  1 15  1  0
  1 16  1  0
  1 17  1  0
  3 18  1  0
  4 19  1  0
  8 20  1  0
  9 21  1  0
 10 22  1  0
 11 23  1  0
 13 24  1  0
 14 25  1  0
M  END
>  <UniqueID>  (13) 
12

>  <SMILES>  (13) 
Cc1ccc(Sc2ccccn2)cc1

>  <Energy>  (13) 
21.06025535113488

>  <Genealogy>  (13) 
Cc1ccc(Sc2ccccn2)cc1 (3D coordinates assigned)
Cc1ccc(Sc2ccccn2)cc1 (optimized conformer: 21.06025535113488 kcal/mol)

>  <smiles>  (13) 
Cc1ccc(Sc2ccccn2)cc1

>  <score_type>  (13) 
oracle

>  <origin>  (13) 
adgpu

>  <m_score__min__energy>  (13) 
-6.4800000000000004

>  <m_primary>  (13) 
energy

$$$$
13:0
     RDKit          3D

 25 26  0  0  0  0  0  0  0  0999 V2000
   -4.2320   25.3000  -30.8450 N   0  0  0  0  0  0  0  0  0  0  0  0
   -5.0600   24.4920  -30.8640 C   0  0  0  0  0  0  0  0  0  0  0  0
   -6.1100   23.4660  -30.8880 C   0  0  0  0  0  0  0  0  0  0  0  0
   -6.8960   23.5050  -32.2010 C   0  0  0  0  0  0  0  0  0  0  0  0
   -8.6540   23.0500  -31.9640 S   0  0  0  0  0  0  0  0  0  0  0  0
   -8.3790   21.2880  -32.1340 C   0  0  0  0  0  0  0  0  0  0  0  0
   -9.1230   20.3470  -31.5280 N   0  0  0  0  0  0  0  0  0  0  0  0
   -8.6130   19.1820  -31.8960 N   0  0  0  0  0  0  0  0  0  0  0  0
   -7.5750   19.4610  -32.7120 C   0  0  0  0  0  0  0  0  0  0  0  0
   -6.7210   18.4450  -33.3560 C   0  0  0  0  0  0  0  0  0  0  0  0
   -5.7640   18.8170  -34.3170 C   0  0  0  0  0  0  0  0  0  0  0  0
   -4.9590   17.8470  -34.9220 C   0  0  0  0  0  0  0  0  0  0  0  0
   -5.1000   16.5010  -34.5740 C   0  0  0  0  0  0  0  0  0  0  0  0
   -6.0480   16.1230  -33.6190 C   0  0  0  0  0  0  0  0  0  0  0  0
   -6.8550   17.0890  -33.0120 C   0  0  0  0  0  0  0  0  0  0  0  0
   -7.4260   20.7560  -32.8590 O   0  0  0  0  0  0  0  0  0  0  0  0
   -5.6453   22.4751  -30.7779 H   0  0  0  0  0  0  0  0  0  0  0  0
   -6.8070   23.6632  -30.0602 H   0  0  0  0  0  0  0  0  0  0  0  0
   -6.8456   24.5230  -32.6147 H   0  0  0  0  0  0  0  0  0  0  0  0
   -6.4458   22.7729  -32.8876 H   0  0  0  0  0  0  0  0  0  0  0  0
   -5.6483   19.8753  -34.5938 H   0  0  0  0  0  0  0  0  0  0  0  0
   -4.2129   18.1441  -35.6737 H   0  0  0  0  0  0  0  0  0  0  0  0
   -4.4655   15.7396  -35.0512 H   0  0  0  0  0  0  0  0  0  0  0  0
   -6.1590   15.0635  -33.3448 H   0  0  0  0  0  0  0  0  0  0  0  0
   -7.5993   16.7863  -32.2607 H   0  0  0  0  0  0  0  0  0  0  0  0
  1  2  3  0
  2  3  1  0
  3  4  1  0
  4  5  1  0
  5  6  1  0
  6  7  2  0
  7  8  1  0
  8  9  2  0
  9 10  1  0
 10 11  2  0
 11 12  1  0
 12 13  2  0
 13 14  1  0
 14 15  2  0
  9 16  1  0
 16  6  1  0
 15 10  1  0
  3 17  1  0
  3 18  1  0
  4 19  1  0
  4 20  1  0
 11 21  1  0
 12 22  1  0
 13 23  1  0
 14 24  1  0
 15 25  1  0
M  END
>  <UniqueID>  (14) 
13

>  <SMILES>  (14) 
N#CCCSc1nnc(-c2ccccc2)o1

>  <Energy>  (14) 
53.83193385183833

>  <Genealogy>  (14) 
N#CCCSc1nnc(-c2ccccc2)o1 (3D coordinates assigned)
N#CCCSc1nnc(-c2ccccc2)o1 (optimized conformer: 53.83193385183833 kcal/mol)

>  <smiles>  (14) 
N#CCCSc1nnc(-c2ccccc2)o1

>  <score_type>  (14) 
oracle

>  <origin>  (14) 
adgpu

>  <m_score__min__energy>  (14) 
-7.1600000000000001

>  <m_primary>  (14) 
energy

$$$$
14:0
     RDKit          3D

 33 34  0  0  0  0  0  0  0  0999 V2000
   -2.3800   24.3260  -29.0040 C   0  0  0  0  0  0  0  0  0  0  0  0
   -3.1660   24.9220  -30.0310 O   0  0  0  0  0  0  0  0  0  0  0  0
   -4.4350   24.4690  -30.4210 C   0  0  0  0  0  0  0  0  0  0  0  0
   -5.6210   25.1240  -30.0370 C   0  0  0  0  0  0  0  0  0  0  0  0
   -6.8630   24.6330  -30.4510 C   0  0  0  0  0  0  0  0  0  0  0  0
   -6.9390   23.4910  -31.2630 C   0  0  0  0  0  0  0  0  0  0  0  0
   -8.2780   22.9440  -31.6750 C   0  0  0  0  0  0  0  0  0  0  0  0
   -8.4920   21.6360  -31.0460 N   0  0  0  0  0  0  0  0  0  0  0  0
   -9.1050   20.7050  -31.9990 C   0  0  0  0  0  0  0  0  0  0  0  0
   -8.0750   19.7180  -32.4760 C   0  0  0  0  0  0  0  0  0  0  0  0
   -7.1120   20.0960  -33.4230 C   0  0  0  0  0  0  0  0  0  0  0  0
   -6.1420   19.1730  -33.8240 C   0  0  0  0  0  0  0  0  0  0  0  0
   -6.1300   17.9230  -33.2910 N   0  0  0  0  0  0  0  0  0  0  0  0
   -7.0430   17.5340  -32.3620 C   0  0  0  0  0  0  0  0  0  0  0  0
   -8.0280   18.4260  -31.9320 C   0  0  0  0  0  0  0  0  0  0  0  0
   -5.7580   22.8310  -31.6320 C   0  0  0  0  0  0  0  0  0  0  0  0
   -4.5170   23.3210  -31.2180 C   0  0  0  0  0  0  0  0  0  0  0  0
   -2.7736   24.6245  -28.0212 H   0  0  0  0  0  0  0  0  0  0  0  0
   -2.4223   23.2309  -29.0988 H   0  0  0  0  0  0  0  0  0  0  0  0
   -1.3369   24.6622  -29.0988 H   0  0  0  0  0  0  0  0  0  0  0  0
   -5.5701   26.0256  -29.4088 H   0  0  0  0  0  0  0  0  0  0  0  0
   -7.7853   25.1446  -30.1386 H   0  0  0  0  0  0  0  0  0  0  0  0
   -9.0702   23.6373  -31.3559 H   0  0  0  0  0  0  0  0  0  0  0  0
   -8.3048   22.8312  -32.7689 H   0  0  0  0  0  0  0  0  0  0  0  0
   -7.5540   21.2510  -30.7810 H   0  0  0  0  0  0  0  0  0  0  0  0
   -9.9276   20.1660  -31.5063 H   0  0  0  0  0  0  0  0  0  0  0  0
   -9.4960   21.2684  -32.8591 H   0  0  0  0  0  0  0  0  0  0  0  0
   -7.1200   21.1110  -33.8469 H   0  0  0  0  0  0  0  0  0  0  0  0
   -5.3876   19.4587  -34.5718 H   0  0  0  0  0  0  0  0  0  0  0  0
   -7.0060   16.5154  -31.9484 H   0  0  0  0  0  0  0  0  0  0  0  0
   -8.7614   18.1176  -31.1724 H   0  0  0  0  0  0  0  0  0  0  0  0
   -5.8090   21.9228  -32.2506 H   0  0  0  0  0  0  0  0  0  0  0  0
   -3.5965   22.8004  -31.5208 H   0  0  0  0  0  0  0  0  0  0  0  0
  1  2  1  0
  2  3  1  0
  3  4  2  0
  4  5  1  0
  5  6  2  0
  6  7  1  0
  7  8  1  0
  8  9  1  0
  9 10  1  0
 10 11  2  0
 11 12  1  0
 12 13  2  0
 13 14  1  0
 14 15  2  0
  6 16  1  0
 16 17  2  0
 17  3  1  0
 15 10  1  0
  1 18  1  0
  1 19  1  0
  1 20  1  0
  4 21  1  0
  5 22  1  0
  7 23  1  0
  7 24  1  0
  8 25  1  0
  9 26  1  0
  9 27  1  0
 11 28  1  0
 12 29  1  0
 14 30  1  0
 15 31  1  0
 16 32  1  0
 17 33  1  0
M  END
>  <UniqueID>  (15) 
14

>  <SMILES>  (15) 
COc1ccc(CNCc2ccncc2)cc1

>  <Energy>  (15) 
31.03106929239903

>  <Genealogy>  (15) 
COc1ccc(CNCc2ccncc2)cc1 (3D coordinates assigned)
COc1ccc(CNCc2ccncc2)cc1 (optimized conformer: 31.03106929239903 kcal/mol)

>  <smiles>  (15) 
COc1ccc(CNCc2ccncc2)cc1

>  <score_type>  (15) 
oracle

>  <origin>  (15) 
adgpu

>  <m_score__min__energy>  (15) 
-7.0199999999999996

>  <m_primary>  (15) 
energy

$$$$
15:0
     RDKit          3D

 26 27  0  0  0  0  0  0  0  0999 V2000
   -2.2420   24.1920  -29.3340 C   0  0  0  0  0  0  0  0  0  0  0  0
   -3.1710   24.9170  -30.1350 O   0  0  0  0  0  0  0  0  0  0  0  0
   -4.5070   24.5410  -30.3400 C   0  0  0  0  0  0  0  0  0  0  0  0
   -5.5120   25.4150  -29.9150 C   0  0  0  0  0  0  0  0  0  0  0  0
   -6.8560   25.0850  -30.0900 C   0  0  0  0  0  0  0  0  0  0  0  0
   -7.2090   23.8790  -30.6970 C   0  0  0  0  0  0  0  0  0  0  0  0
   -6.2200   22.9850  -31.1420 C   0  0  0  0  0  0  0  0  0  0  0  0
   -6.6030   21.7410  -31.7670 N   0  0  0  0  0  0  0  0  0  0  0  0
   -7.6640   20.9630  -31.4570 C   0  0  0  0  0  0  0  0  0  0  0  0
   -7.6450   19.8650  -32.2880 C   0  0  0  0  0  0  0  0  0  0  0  0
   -8.6600   18.7740  -32.3630 C   0  0  0  0  0  0  0  0  0  0  0  0
   -6.5490   20.0410  -33.1050 C   0  0  0  0  0  0  0  0  0  0  0  0
   -5.9250   21.1850  -32.7630 N   0  0  0  0  0  0  0  0  0  0  0  0
   -4.8640   23.3240  -30.9540 C   0  0  0  0  0  0  0  0  0  0  0  0
   -2.4626   24.3641  -28.2702 H   0  0  0  0  0  0  0  0  0  0  0  0
   -2.3257   23.1180  -29.5567 H   0  0  0  0  0  0  0  0  0  0  0  0
   -1.2206   24.5341  -29.5567 H   0  0  0  0  0  0  0  0  0  0  0  0
   -5.2411   26.3692  -29.4395 H   0  0  0  0  0  0  0  0  0  0  0  0
   -7.6397   25.7773  -29.7486 H   0  0  0  0  0  0  0  0  0  0  0  0
   -8.2713   23.6257  -30.8284 H   0  0  0  0  0  0  0  0  0  0  0  0
   -8.4117   21.1706  -30.6774 H   0  0  0  0  0  0  0  0  0  0  0  0
   -8.9449   18.4677  -31.3457 H   0  0  0  0  0  0  0  0  0  0  0  0
   -9.5493   19.1367  -32.8993 H   0  0  0  0  0  0  0  0  0  0  0  0
   -8.2341   17.9132  -32.8993 H   0  0  0  0  0  0  0  0  0  0  0  0
   -6.2344   19.3573  -33.9073 H   0  0  0  0  0  0  0  0  0  0  0  0
   -4.0777   22.6319  -31.2898 H   0  0  0  0  0  0  0  0  0  0  0  0
  1  2  1  0
  2  3  1  0
  3  4  2  0
  4  5  1  0
  5  6  2  0
  6  7  1  0
  7  8  1  0
  8  9  1  0
  9 10  2  0
 10 11  1  0
 10 12  1  0
 12 13  2  0
  7 14  2  0
 14  3  1  0
 13  8  1  0
  1 15  1  0
  1 16  1  0
  1 17  1  0
  4 18  1  0
  5 19  1  0
  6 20  1  0
  9 21  1  0
 11 22  1  0
 11 23  1  0
 11 24  1  0
 12 25  1  0
 14 26  1  0
M  END
>  <UniqueID>  (16) 
15

>  <SMILES>  (16) 
COc1cccc(-n2cc(C)cn2)c1

>  <Energy>  (16) 
57.00607201847158

>  <Genealogy>  (16) 
COc1cccc(-n2cc(C)cn2)c1 (3D coordinates assigned)
COc1cccc(-n2cc(C)cn2)c1 (optimized conformer: 57.00607201847158 kcal/mol)

>  <smiles>  (16) 
COc1cccc(-n2cc(C)cn2)c1

>  <score_type>  (16) 
oracle

>  <origin>  (16) 
adgpu

>  <m_score__min__energy>  (16) 
-6.2300000000000004

>  <m_primary>  (16) 
energy

$$$$
16:0
     RDKit          3D

 41 43  0  0  0  0  0  0  0  0999 V2000
   -6.4660   25.6210  -29.5070 C   0  0  0  0  0  0  0  0  0  0  0  0
   -5.7870   25.3020  -30.8370 C   0  0  0  0  0  0  0  0  0  0  0  0
   -5.5690   23.8540  -30.9840 N   0  0  0  0  0  0  0  0  0  0  0  0
   -4.2850   23.2850  -30.6470 C   0  0  0  0  0  0  0  0  0  0  0  0
   -3.7180   23.5140  -29.3810 C   0  0  0  0  0  0  0  0  0  0  0  0
   -2.4790   22.9610  -29.0480 C   0  0  0  0  0  0  0  0  0  0  0  0
   -1.7760   22.1870  -29.9830 C   0  0  0  0  0  0  0  0  0  0  0  0
   -0.4650   21.5600  -29.6120 C   0  0  0  0  0  0  0  0  0  0  0  0
   -2.3410   21.9500  -31.2450 C   0  0  0  0  0  0  0  0  0  0  0  0
   -3.5810   22.5030  -31.5770 C   0  0  0  0  0  0  0  0  0  0  0  0
   -6.6430   23.0030  -31.4390 C   0  0  0  0  0  0  0  0  0  0  0  0
   -7.9300   23.4450  -31.4190 N   0  0  0  0  0  0  0  0  0  0  0  0
   -8.9480   22.6560  -31.8440 C   0  0  0  0  0  0  0  0  0  0  0  0
   -8.6870   21.3710  -32.3150 C   0  0  0  0  0  0  0  0  0  0  0  0
   -7.3580   20.9220  -32.3470 C   0  0  0  0  0  0  0  0  0  0  0  0
   -6.9970   19.5620  -32.8240 C   0  0  0  0  0  0  0  0  0  0  0  0
   -6.0760   19.3710  -33.8730 C   0  0  0  0  0  0  0  0  0  0  0  0
   -5.7440   18.0810  -34.2990 C   0  0  0  0  0  0  0  0  0  0  0  0
   -6.3190   16.9670  -33.6820 C   0  0  0  0  0  0  0  0  0  0  0  0
   -5.8990   15.3490  -34.2170 Cl  0  0  0  0  0  0  0  0  0  0  0  0
   -7.2250   17.1440  -32.6310 C   0  0  0  0  0  0  0  0  0  0  0  0
   -7.5580   18.4310  -32.2020 C   0  0  0  0  0  0  0  0  0  0  0  0
   -6.3750   21.7530  -31.9040 N   0  0  0  0  0  0  0  0  0  0  0  0
   -5.8115   25.3135  -28.6781 H   0  0  0  0  0  0  0  0  0  0  0  0
   -6.6559   26.7026  -29.4424 H   0  0  0  0  0  0  0  0  0  0  0  0
   -7.4197   25.0767  -29.4424 H   0  0  0  0  0  0  0  0  0  0  0  0
   -6.4251   25.6551  -31.6605 H   0  0  0  0  0  0  0  0  0  0  0  0
   -4.8105   25.8077  -30.8621 H   0  0  0  0  0  0  0  0  0  0  0  0
   -4.2541   24.1334  -28.6469 H   0  0  0  0  0  0  0  0  0  0  0  0
   -2.0531   23.1333  -28.0486 H   0  0  0  0  0  0  0  0  0  0  0  0
   -0.3759   21.5174  -28.5164 H   0  0  0  0  0  0  0  0  0  0  0  0
   -0.4163   20.5411  -30.0237 H   0  0  0  0  0  0  0  0  0  0  0  0
    0.3587   22.1616  -30.0237 H   0  0  0  0  0  0  0  0  0  0  0  0
   -1.8059   21.3264  -31.9763 H   0  0  0  0  0  0  0  0  0  0  0  0
   -4.0088   22.3243  -32.5745 H   0  0  0  0  0  0  0  0  0  0  0  0
   -9.9816   23.0313  -31.8168 H   0  0  0  0  0  0  0  0  0  0  0  0
   -9.5068   20.7212  -32.6551 H   0  0  0  0  0  0  0  0  0  0  0  0
   -5.6148   20.2427  -34.3603 H   0  0  0  0  0  0  0  0  0  0  0  0
   -5.0279   17.9429  -35.1225 H   0  0  0  0  0  0  0  0  0  0  0  0
   -7.6760   16.2682  -32.1415 H   0  0  0  0  0  0  0  0  0  0  0  0
   -8.2655   18.5618  -31.3700 H   0  0  0  0  0  0  0  0  0  0  0  0
  1  2  1  0
  2  3  1  0
  3  4  1  0
  4  5  2  0
  5  6  1  0
  6  7  2  0
  7  8  1  0
  7  9  1  0
  9 10  2  0
  3 11  1  0
 11 12  2  0
 12 13  1  0
 13 14  2  0
 14 15  1  0
 15 16  1  0
 16 17  2  0
 17 18  1  0
 18 19  2  0
 19 20  1  0
 19 21  1  0
 21 22  2  0
 15 23  2  0
 10  4  1  0
 23 11  1  0
 22 16  1  0
  1 24  1  0
  1 25  1  0
  1 26  1  0
  2 27  1  0
  2 28  1  0
  5 29  1  0
  6 30  1  0
  8 31  1  0
  8 32  1  0
  8 33  1  0
  9 34  1  0
 10 35  1  0
 13 36  1  0
 14 37  1  0
 17 38  1  0
 18 39  1  0
 21 40  1  0
 22 41  1  0
M  END
>  <UniqueID>  (17) 
16

>  <SMILES>  (17) 
CCN(c1ccc(C)cc1)c1nccc(-c2ccc(Cl)cc2)n1

>  <Energy>  (17) 
49.85936616297839

>  <Genealogy>  (17) 
CCN(c1ccc(C)cc1)c1nccc(-c2ccc(Cl)cc2)n1 (3D coordinates assigned)
CCN(c1ccc(C)cc1)c1nccc(-c2ccc(Cl)cc2)n1 (optimized conformer: 49.85936616297839 kcal/mol)

>  <smiles>  (17) 
CCN(c1ccc(C)cc1)c1nccc(-c2ccc(Cl)cc2)n1

>  <score_type>  (17) 
oracle

>  <origin>  (17) 
adgpu

>  <m_score__min__energy>  (17) 
-8.4299999999999997

>  <m_primary>  (17) 
energy

$$$$
17:0
     RDKit          3D

 39 40  0  0  0  0  0  0  0  0999 V2000
   -4.4230   15.0270  -33.4960 C   0  0  0  0  0  0  0  0  0  0  0  0
   -5.1720   16.3270  -33.4970 C   0  0  0  0  0  0  0  0  0  0  0  0
   -4.9520   17.2670  -34.5110 C   0  0  0  0  0  0  0  0  0  0  0  0
   -5.6290   18.4860  -34.4980 C   0  0  0  0  0  0  0  0  0  0  0  0
   -6.5380   18.7930  -33.4740 C   0  0  0  0  0  0  0  0  0  0  0  0
   -7.2340   20.0510  -33.5390 N   0  0  0  0  0  0  0  0  0  0  0  0
   -7.0310   21.1470  -32.6260 C   0  0  0  0  0  0  0  0  0  0  0  0
   -8.1290   21.6480  -31.8910 C   0  0  0  0  0  0  0  0  0  0  0  0
   -9.4970   21.0330  -32.0330 C   0  0  0  0  0  0  0  0  0  0  0  0
   -7.9460   22.7200  -31.0070 C   0  0  0  0  0  0  0  0  0  0  0  0
   -6.6830   23.3010  -30.8390 C   0  0  0  0  0  0  0  0  0  0  0  0
   -6.5120   24.4850  -29.9340 C   0  0  0  0  0  0  0  0  0  0  0  0
   -5.5940   22.8030  -31.5610 C   0  0  0  0  0  0  0  0  0  0  0  0
   -5.7430   21.7090  -32.4270 C   0  0  0  0  0  0  0  0  0  0  0  0
   -4.5230   21.1680  -33.1250 C   0  0  0  0  0  0  0  0  0  0  0  0
   -6.7140   17.8750  -32.4050 C   0  0  0  0  0  0  0  0  0  0  0  0
   -7.5970   18.1800  -31.2250 C   0  0  0  0  0  0  0  0  0  0  0  0
   -6.0390   16.6420  -32.4410 C   0  0  0  0  0  0  0  0  0  0  0  0
   -4.2403   14.7099  -32.4587 H   0  0  0  0  0  0  0  0  0  0  0  0
   -5.0180   14.2606  -34.0143 H   0  0  0  0  0  0  0  0  0  0  0  0
   -3.4616   15.1574  -34.0143 H   0  0  0  0  0  0  0  0  0  0  0  0
   -4.2423   17.0431  -35.3211 H   0  0  0  0  0  0  0  0  0  0  0  0
   -5.4482   19.2162  -35.3006 H   0  0  0  0  0  0  0  0  0  0  0  0
   -7.9940   20.1520  -34.2490 H   0  0  0  0  0  0  0  0  0  0  0  0
   -9.9191   20.8432  -31.0351 H   0  0  0  0  0  0  0  0  0  0  0  0
  -10.1536   21.7225  -32.5838 H   0  0  0  0  0  0  0  0  0  0  0  0
   -9.4171   20.0842  -32.5838 H   0  0  0  0  0  0  0  0  0  0  0  0
   -8.8038   23.1092  -30.4390 H   0  0  0  0  0  0  0  0  0  0  0  0
   -6.5596   24.1551  -28.8857 H   0  0  0  0  0  0  0  0  0  0  0  0
   -5.5366   24.9557  -30.1263 H   0  0  0  0  0  0  0  0  0  0  0  0
   -7.3144   25.2124  -30.1263 H   0  0  0  0  0  0  0  0  0  0  0  0
   -4.6070   23.2753  -31.4486 H   0  0  0  0  0  0  0  0  0  0  0  0
   -3.7866   20.8414  -32.3759 H   0  0  0  0  0  0  0  0  0  0  0  0
   -4.8098   20.3127  -33.7544 H   0  0  0  0  0  0  0  0  0  0  0  0
   -4.0816   21.9547  -33.7544 H   0  0  0  0  0  0  0  0  0  0  0  0
   -7.0436   17.9888  -30.2938 H   0  0  0  0  0  0  0  0  0  0  0  0
   -7.9032   19.2360  -31.2594 H   0  0  0  0  0  0  0  0  0  0  0  0
   -8.4896   17.5381  -31.2594 H   0  0  0  0  0  0  0  0  0  0  0  0
   -6.1932   15.9150  -31.6300 H   0  0  0  0  0  0  0  0  0  0  0  0
  1  2  1  0
  2  3  2  0
  3  4  1  0
  4  5  2  0
  5  6  1  0
  6  7  1  0
  7  8  2  0
  8  9  1  0
  8 10  1  0
 10 11  2  0
 11 12  1  0
 11 13  1  0
 13 14  2  0
 14 15  1  0
  5 16  1  0
 16 17  1  0
 16 18  2  0
 18  2  1  0
 14  7  1  0
  1 19  1  0
  1 20  1  0
  1 21  1  0
  3 22  1  0
  4 23  1  0
  6 24  1  0
  9 25  1  0
  9 26  1  0
  9 27  1  0
 10 28  1  0
 12 29  1  0
 12 30  1  0
 12 31  1  0
 13 32  1  0
 15 33  1  0
 15 34  1  0
 15 35  1  0
 17 36  1  0
 17 37  1  0
 17 38  1  0
 18 39  1  0
M  END
>  <UniqueID>  (18) 
17

>  <SMILES>  (18) 
Cc1ccc(Nc2c(C)cc(C)cc2C)c(C)c1

>  <Energy>  (18) 
46.55029033606167

>  <Genealogy>  (18) 
Cc1ccc(Nc2c(C)cc(C)cc2C)c(C)c1 (3D coordinates assigned)
Cc1ccc(Nc2c(C)cc(C)cc2C)c(C)c1 (optimized conformer: 46.55029033606167 kcal/mol)

>  <smiles>  (18) 
Cc1ccc(Nc2c(C)cc(C)cc2C)c(C)c1

>  <score_type>  (18) 
oracle

>  <origin>  (18) 
adgpu

>  <m_score__min__energy>  (18) 
-7.8200000000000003

>  <m_primary>  (18) 
energy

$$$$
18:0
     RDKit          3D

 30 31  0  0  0  0  0  0  0  0999 V2000
   -6.4890   25.6750  -29.3610 C   0  0  0  0  0  0  0  0  0  0  0  0
   -5.7360   25.5300  -30.6790 C   0  0  0  0  0  0  0  0  0  0  0  0
   -5.9260   24.1550  -31.2490 C   0  0  0  0  0  0  0  0  0  0  0  0
   -7.2090   23.6660  -31.5270 C   0  0  0  0  0  0  0  0  0  0  0  0
   -7.3560   22.3700  -32.0260 C   0  0  0  0  0  0  0  0  0  0  0  0
   -6.2280   21.5630  -32.2280 C   0  0  0  0  0  0  0  0  0  0  0  0
   -6.3740   20.1920  -32.7660 C   0  0  0  0  0  0  0  0  0  0  0  0
   -5.4940   19.7690  -33.7770 C   0  0  0  0  0  0  0  0  0  0  0  0
   -5.5770   18.4760  -34.2960 C   0  0  0  0  0  0  0  0  0  0  0  0
   -6.5390   17.5890  -33.8120 C   0  0  0  0  0  0  0  0  0  0  0  0
   -7.4310   17.9970  -32.8180 C   0  0  0  0  0  0  0  0  0  0  0  0
   -7.3740   19.3020  -32.2980 C   0  0  0  0  0  0  0  0  0  0  0  0
   -8.3720   19.7070  -31.2440 C   0  0  0  0  0  0  0  0  0  0  0  0
   -4.9610   22.0920  -31.9380 C   0  0  0  0  0  0  0  0  0  0  0  0
   -4.8420   23.3570  -31.4550 N   0  0  0  0  0  0  0  0  0  0  0  0
   -5.7898   25.5404  -28.5225 H   0  0  0  0  0  0  0  0  0  0  0  0
   -6.9404   26.6766  -29.3048 H   0  0  0  0  0  0  0  0  0  0  0  0
   -7.2800   24.9127  -29.3048 H   0  0  0  0  0  0  0  0  0  0  0  0
   -6.1152   26.2736  -31.3954 H   0  0  0  0  0  0  0  0  0  0  0  0
   -4.6638   25.6913  -30.4937 H   0  0  0  0  0  0  0  0  0  0  0  0
   -8.0929   24.2974  -31.3537 H   0  0  0  0  0  0  0  0  0  0  0  0
   -8.3582   21.9821  -32.2608 H   0  0  0  0  0  0  0  0  0  0  0  0
   -4.7330   20.4633  -34.1627 H   0  0  0  0  0  0  0  0  0  0  0  0
   -4.8833   18.1560  -35.0874 H   0  0  0  0  0  0  0  0  0  0  0  0
   -6.5949   16.5666  -34.2140 H   0  0  0  0  0  0  0  0  0  0  0  0
   -8.1847   17.2913  -32.4386 H   0  0  0  0  0  0  0  0  0  0  0  0
   -7.9427   19.5328  -30.2463 H   0  0  0  0  0  0  0  0  0  0  0  0
   -8.6132   20.7742  -31.3582 H   0  0  0  0  0  0  0  0  0  0  0  0
   -9.2886   19.1097  -31.3582 H   0  0  0  0  0  0  0  0  0  0  0  0
   -4.0612   21.4810  -32.1021 H   0  0  0  0  0  0  0  0  0  0  0  0
  1  2  1  0
  2  3  1  0
  3  4  2  0
  4  5  1  0
  5  6  2  0
  6  7  1  0
  7  8  2  0
  8  9  1  0
  9 10  2  0
 10 11  1  0
 11 12  2  0
 12 13  1  0
  6 14  1  0
 14 15  2  0
 15  3  1  0
 12  7  1  0
  1 16  1  0
  1 17  1  0
  1 18  1  0
  2 19  1  0
  2 20  1  0
  4 21  1  0
  5 22  1  0
  8 23  1  0
  9 24  1  0
 10 25  1  0
 11 26  1  0
 13 27  1  0
 13 28  1  0
 13 29  1  0
 14 30  1  0
M  END
>  <UniqueID>  (19) 
18

>  <SMILES>  (19) 
CCc1ccc(-c2ccccc2C)cn1

>  <Energy>  (19) 
34.57239829874461

>  <Genealogy>  (19) 
CCc1ccc(-c2ccccc2C)cn1 (3D coordinates assigned)
CCc1ccc(-c2ccccc2C)cn1 (optimized conformer: 34.57239829874461 kcal/mol)

>  <smiles>  (19) 
CCc1ccc(-c2ccccc2C)cn1

>  <score_type>  (19) 
oracle

>  <origin>  (19) 
adgpu

>  <m_score__min__energy>  (19) 
-7.0300000000000002

>  <m_primary>  (19) 
energy

$$$$
19:0
     RDKit          3D

 35 36  0  0  0  0  0  0  0  0999 V2000
   -8.3640   18.5910  -32.2570 C   0  0  0  0  0  0  0  0  0  0  0  0
   -7.1310   18.1710  -33.0510 C   0  0  0  0  0  0  0  0  0  0  0  0
   -6.4700   19.3780  -33.7260 C   0  0  0  0  0  0  0  0  0  0  0  0
   -5.6880   20.1450  -32.7560 N   0  0  0  0  0  0  0  0  0  0  0  0
   -6.0700   21.4280  -32.2220 C   0  0  0  0  0  0  0  0  0  0  0  0
   -7.4180   21.8320  -32.1410 C   0  0  0  0  0  0  0  0  0  0  0  0
   -7.7490   23.0800  -31.6080 C   0  0  0  0  0  0  0  0  0  0  0  0
   -6.7460   23.9440  -31.1640 C   0  0  0  0  0  0  0  0  0  0  0  0
   -5.4020   23.5740  -31.2610 C   0  0  0  0  0  0  0  0  0  0  0  0
   -4.4230   24.4650  -30.7950 O   0  0  0  0  0  0  0  0  0  0  0  0
   -3.8050   24.4080  -29.5370 C   0  0  0  0  0  0  0  0  0  0  0  0
   -4.6110   24.3060  -28.3970 C   0  0  0  0  0  0  0  0  0  0  0  0
   -4.0340   24.2610  -27.1240 C   0  0  0  0  0  0  0  0  0  0  0  0
   -2.6450   24.3280  -26.9810 C   0  0  0  0  0  0  0  0  0  0  0  0
   -1.8300   24.4510  -28.1130 C   0  0  0  0  0  0  0  0  0  0  0  0
   -0.4000   24.5360  -27.9660 C   0  0  0  0  0  0  0  0  0  0  0  0
    0.7490   24.6050  -27.8480 N   0  0  0  0  0  0  0  0  0  0  0  0
   -2.4080   24.4980  -29.3890 C   0  0  0  0  0  0  0  0  0  0  0  0
   -5.0700   22.3080  -31.7780 C   0  0  0  0  0  0  0  0  0  0  0  0
   -8.1494   18.5179  -31.1806 H   0  0  0  0  0  0  0  0  0  0  0  0
   -8.6262   19.6292  -32.5089 H   0  0  0  0  0  0  0  0  0  0  0  0
   -9.2054   17.9288  -32.5089 H   0  0  0  0  0  0  0  0  0  0  0  0
   -6.4077   17.7006  -32.3687 H   0  0  0  0  0  0  0  0  0  0  0  0
   -7.4439   17.4626  -33.8322 H   0  0  0  0  0  0  0  0  0  0  0  0
   -5.8053   19.0247  -34.5281 H   0  0  0  0  0  0  0  0  0  0  0  0
   -7.2553   20.0267  -34.1413 H   0  0  0  0  0  0  0  0  0  0  0  0
   -4.7810   19.7280  -32.4420 H   0  0  0  0  0  0  0  0  0  0  0  0
   -8.2130   21.1614  -32.4992 H   0  0  0  0  0  0  0  0  0  0  0  0
   -8.8040   23.3833  -31.5378 H   0  0  0  0  0  0  0  0  0  0  0  0
   -7.0152   24.9208  -30.7357 H   0  0  0  0  0  0  0  0  0  0  0  0
   -5.7049   24.2610  -28.5032 H   0  0  0  0  0  0  0  0  0  0  0  0
   -4.6741   24.1727  -26.2338 H   0  0  0  0  0  0  0  0  0  0  0  0
   -2.1924   24.2841  -25.9794 H   0  0  0  0  0  0  0  0  0  0  0  0
   -1.7682   24.6055  -30.2773 H   0  0  0  0  0  0  0  0  0  0  0  0
   -4.0143   22.0041  -31.8350 H   0  0  0  0  0  0  0  0  0  0  0  0
  1  2  1  0
  2  3  1  0
  3  4  1  0
  4  5  1  0
  5  6  2  0
  6  7  1  0
  7  8  2  0
  8  9  1  0
  9 10  1  0
 10 11  1  0
 11 12  2  0
 12 13  1  0
 13 14  2  0
 14 15  1  0
 15 16  1  0
 16 17  3  0
 15 18  2  0
  9 19  2  0
 19  5  1  0
 18 11  1  0
  1 20  1  0
  1 21  1  0
  1 22  1  0
  2 23  1  0
  2 24  1  0
  3 25  1  0
  3 26  1  0
  4 27  1  0
  6 28  1  0
  7 29  1  0
  8 30  1  0
 12 31  1  0
 13 32  1  0
 14 33  1  0
 18 34  1  0
 19 35  1  0
M  END
>  <UniqueID>  (20) 
19

>  <SMILES>  (20) 
CCCNc1cccc(Oc2cccc(C#N)c2)c1

>  <Energy>  (20) 
35.70468332015851

>  <Genealogy>  (20) 
CCCNc1cccc(Oc2cccc(C#N)c2)c1 (3D coordinates assigned)
CCCNc1cccc(Oc2cccc(C#N)c2)c1 (optimized conformer: 35.70468332015851 kcal/mol)

>  <smiles>  (20) 
CCCNc1cccc(Oc2cccc(C#N)c2)c1

>  <score_type>  (20) 
oracle

>  <origin>  (20) 
adgpu

>  <m_score__min__energy>  (20) 
-7.25

>  <m_primary>  (20) 
energy

$$$$
20:0
     RDKit          3D

 32 34  0  0  0  0  0  0  0  0999 V2000
   -5.1020   26.2110  -31.4780 H   0  0  0  0  0  0  0  0  0  0  0  0
   -4.6190   25.9830  -30.5800 N   0  0  0  0  0  0  0  0  0  0  0  0
   -4.1940   24.7870  -30.3250 C   0  0  0  0  0  0  0  0  0  0  0  0
   -4.3740   23.7900  -31.2460 N   0  0  0  0  0  0  0  0  0  0  0  0
   -3.9170   22.5510  -30.9440 C   0  0  0  0  0  0  0  0  0  0  0  0
   -3.2980   22.2690  -29.7770 C   0  0  0  0  0  0  0  0  0  0  0  0
   -2.9670   20.9640  -29.7200 N   0  0  0  0  0  0  0  0  0  0  0  0
   -3.4210   20.4880  -30.9130 C   0  0  0  0  0  0  0  0  0  0  0  0
   -3.3279   19.4355  -31.2190 H   0  0  0  0  0  0  0  0  0  0  0  0
   -4.0000   21.4420  -31.6870 N   0  0  0  0  0  0  0  0  0  0  0  0
   -4.6640   21.2600  -32.9750 C   0  0  0  0  0  0  0  0  0  0  0  0
   -4.8658   22.2442  -33.4230 H   0  0  0  0  0  0  0  0  0  0  0  0
   -4.0103   20.6748  -33.6385 H   0  0  0  0  0  0  0  0  0  0  0  0
   -5.9660   20.5210  -32.7850 C   0  0  0  0  0  0  0  0  0  0  0  0
   -6.0000   19.1300  -32.9810 C   0  0  0  0  0  0  0  0  0  0  0  0
   -5.0910   18.6012  -33.3035 H   0  0  0  0  0  0  0  0  0  0  0  0
   -7.1800   18.4150  -32.7690 C   0  0  0  0  0  0  0  0  0  0  0  0
   -7.2003   17.3276  -32.9336 H   0  0  0  0  0  0  0  0  0  0  0  0
   -8.3330   19.0770  -32.3490 C   0  0  0  0  0  0  0  0  0  0  0  0
   -9.2619   18.5111  -32.1850 H   0  0  0  0  0  0  0  0  0  0  0  0
   -8.3110   20.4580  -32.1360 C   0  0  0  0  0  0  0  0  0  0  0  0
   -9.2231   20.9741  -31.8016 H   0  0  0  0  0  0  0  0  0  0  0  0
   -7.1270   21.1940  -32.3470 C   0  0  0  0  0  0  0  0  0  0  0  0
   -7.0730   22.5810  -32.1320 O   0  0  0  0  0  0  0  0  0  0  0  0
   -8.2120   23.4220  -31.9840 C   0  0  0  0  0  0  0  0  0  0  0  0
   -8.4186   23.5746  -30.9144 H   0  0  0  0  0  0  0  0  0  0  0  0
   -8.0153   24.3932  -32.4616 H   0  0  0  0  0  0  0  0  0  0  0  0
   -9.0822   22.9481  -32.4616 H   0  0  0  0  0  0  0  0  0  0  0  0
   -3.1080   23.2680  -28.8340 C   0  0  0  0  0  0  0  0  0  0  0  0
   -2.5370   23.0300  -27.7370 O   0  0  0  0  0  0  0  0  0  0  0  0
   -3.5630   24.5240  -29.1310 N   0  0  0  0  0  0  0  0  0  0  0  0
   -3.4310   25.2930  -28.4350 H   0  0  0  0  0  0  0  0  0  0  0  0
  1  2  1  0
  2  3  2  0
  3  4  1  0
  4  5  1  0
  5  6  2  0
  6  7  1  0
  7  8  2  0
  8  9  1  0
  8 10  1  0
 10 11  1  0
 11 12  1  0
 11 13  1  0
 11 14  1  0
 14 15  2  0
 15 16  1  0
 15 17  1  0
 17 18  1  0
 17 19  2  0
 19 20  1  0
 19 21  1  0
 21 22  1  0
 21 23  2  0
 23 24  1  0
 24 25  1  0
 25 26  1  0
 25 27  1  0
 25 28  1  0
  6 29  1  0
 29 30  2  0
 29 31  1  0
 31 32  1  0
 31  3  1  0
 10  5  1  0
 23 14  1  0
M  CHG  1   4  -1
M  END
>  <UniqueID>  (21) 
20

>  <SMILES>  (21) 
[H]/N=c1\[n-]c2c(ncn2Cc2ccccc2OC)c(=O)[nH]1

>  <Energy>  (21) 
72.90097279180681

>  <Genealogy>  (21) 
COc1ccccc1Cn1cnc2c(=O)[nH]c(=N)[n-]c21 (protonated)
[H]/N=c1\[n-]c2c(ncn2Cc2ccccc2OC)c(=O)[nH]1 (cis-trans isomerization)
[H]/N=c1\[n-]c2c(ncn2Cc2ccccc2OC)c(=O)[nH]1 (3D coordinates assigned)
[H]/N=c1\[n-]c2c(ncn2Cc2ccccc2OC)c(=O)[nH]1 (optimized conformer: 72.90097279180681 kcal/mol)

>  <smiles>  (21) 
COc1ccccc1Cn1cnc2c(=O)[nH]c(=N)[nH]c21

>  <score_type>  (21) 
oracle

>  <origin>  (21) 
adgpu

>  <m_score__min__energy>  (21) 
-7.7699999999999996

>  <m_primary>  (21) 
energy

$$$$
21:0
     RDKit          3D

 24 26  0  0  0  0  0  0  0  0999 V2000
   -4.6180   25.6800  -30.8330 O   0  0  0  0  0  0  0  0  0  0  0  0
   -4.6020   24.4310  -30.6680 C   0  0  0  0  0  0  0  0  0  0  0  0
   -5.6160   23.6520  -31.1480 N   0  0  0  0  0  0  0  0  0  0  0  0
   -5.6070   22.2860  -30.9740 C   0  0  0  0  0  0  0  0  0  0  0  0
   -6.7090   21.4390  -31.4940 C   0  0  0  0  0  0  0  0  0  0  0  0
   -8.0220   21.9450  -31.5380 C   0  0  0  0  0  0  0  0  0  0  0  0
   -9.0680   21.1590  -32.0300 C   0  0  0  0  0  0  0  0  0  0  0  0
   -8.8160   19.8650  -32.4920 C   0  0  0  0  0  0  0  0  0  0  0  0
   -7.5150   19.3550  -32.4660 C   0  0  0  0  0  0  0  0  0  0  0  0
   -7.1980   17.7370  -33.0630 Cl  0  0  0  0  0  0  0  0  0  0  0  0
   -6.4650   20.1380  -31.9720 C   0  0  0  0  0  0  0  0  0  0  0  0
   -4.5580   21.6920  -30.3260 N   0  0  0  0  0  0  0  0  0  0  0  0
   -3.5430   22.4490  -29.8440 C   0  0  0  0  0  0  0  0  0  0  0  0
   -2.4250   21.9610  -29.1660 C   0  0  0  0  0  0  0  0  0  0  0  0
   -1.5480   22.9800  -28.7910 C   0  0  0  0  0  0  0  0  0  0  0  0
   -2.1700   24.4690  -29.3090 S   0  0  0  0  0  0  0  0  0  0  0  0
   -3.5520   23.8140  -30.0040 C   0  0  0  0  0  0  0  0  0  0  0  0
   -6.3890   24.1140  -31.6770 H   0  0  0  0  0  0  0  0  0  0  0  0
   -8.2262   22.9658  -31.1828 H   0  0  0  0  0  0  0  0  0  0  0  0
  -10.0919   21.5604  -32.0534 H   0  0  0  0  0  0  0  0  0  0  0  0
   -9.6413   19.2476  -32.8762 H   0  0  0  0  0  0  0  0  0  0  0  0
   -5.4421   19.7336  -31.9573 H   0  0  0  0  0  0  0  0  0  0  0  0
   -2.2546   20.8956  -28.9518 H   0  0  0  0  0  0  0  0  0  0  0  0
   -0.6031   22.8390  -28.2458 H   0  0  0  0  0  0  0  0  0  0  0  0
  1  2  2  0
  2  3  1  0
  3  4  1  0
  4  5  1  0
  5  6  2  0
  6  7  1  0
  7  8  2  0
  8  9  1  0
  9 10  1  0
  9 11  2  0
  4 12  2  0
 12 13  1  0
 13 14  1  0
 14 15  2  0
 15 16  1  0
 16 17  1  0
 17  2  1  0
 11  5  1  0
 17 13  2  0
  3 18  1  0
  6 19  1  0
  7 20  1  0
  8 21  1  0
 11 22  1  0
 14 23  1  0
 15 24  1  0
M  END
>  <UniqueID>  (22) 
21

>  <SMILES>  (22) 
O=c1[nH]c(-c2cccc(Cl)c2)nc2ccsc12

>  <Energy>  (22) 
63.51626828451755

>  <Genealogy>  (22) 
O=c1[nH]c(-c2cccc(Cl)c2)nc2ccsc12 (3D coordinates assigned)
O=c1[nH]c(-c2cccc(Cl)c2)nc2ccsc12 (optimized conformer: 63.51626828451755 kcal/mol)

>  <smiles>  (22) 
O=c1[nH]c(-c2cccc(Cl)c2)nc2ccsc12

>  <score_type>  (22) 
oracle

>  <origin>  (22) 
adgpu

>  <m_score__min__energy>  (22) 
-7.04

>  <m_primary>  (22) 
energy

$$$$
22:0
     RDKit          3D

 21 22  0  0  0  0  0  0  0  0999 V2000
   -3.7580   24.4000  -27.0410 N   0  0  0  0  0  0  0  0  0  0  0  0
   -4.2530   24.1380  -28.0540 C   0  0  0  0  0  0  0  0  0  0  0  0
   -4.8690   23.8120  -29.3110 C   0  0  0  0  0  0  0  0  0  0  0  0
   -5.7150   22.7840  -29.4900 N   0  0  0  0  0  0  0  0  0  0  0  0
   -6.0390   22.8560  -30.8030 C   0  0  0  0  0  0  0  0  0  0  0  0
   -6.9640   21.9050  -31.4610 C   0  0  0  0  0  0  0  0  0  0  0  0
   -8.3550   22.0360  -31.2990 C   0  0  0  0  0  0  0  0  0  0  0  0
   -9.2270   21.1360  -31.9220 C   0  0  0  0  0  0  0  0  0  0  0  0
   -8.7200   20.1010  -32.7110 C   0  0  0  0  0  0  0  0  0  0  0  0
   -7.3400   19.9620  -32.8780 C   0  0  0  0  0  0  0  0  0  0  0  0
   -6.4640   20.8580  -32.2570 C   0  0  0  0  0  0  0  0  0  0  0  0
   -5.4380   23.8780  -31.4580 N   0  0  0  0  0  0  0  0  0  0  0  0
   -4.7040   24.4710  -30.5030 C   0  0  0  0  0  0  0  0  0  0  0  0
   -3.8840   25.6160  -30.7290 N   0  0  0  0  0  0  0  0  0  0  0  0
   -8.7595   22.8500  -30.6795 H   0  0  0  0  0  0  0  0  0  0  0  0
  -10.3137   21.2439  -31.7901 H   0  0  0  0  0  0  0  0  0  0  0  0
   -9.4072   19.3954  -33.2008 H   0  0  0  0  0  0  0  0  0  0  0  0
   -6.9416   19.1462  -33.4991 H   0  0  0  0  0  0  0  0  0  0  0  0
   -5.3783   20.7436  -32.3916 H   0  0  0  0  0  0  0  0  0  0  0  0
   -3.2760   25.6800  -31.5760 H   0  0  0  0  0  0  0  0  0  0  0  0
   -3.8860   26.4050  -30.0460 H   0  0  0  0  0  0  0  0  0  0  0  0
  1  2  3  0
  2  3  1  0
  3  4  1  0
  4  5  2  0
  5  6  1  0
  6  7  2  0
  7  8  1  0
  8  9  2  0
  9 10  1  0
 10 11  2  0
  5 12  1  0
 12 13  1  0
 13 14  1  0
 13  3  2  0
 11  6  1  0
  7 15  1  0
  8 16  1  0
  9 17  1  0
 10 18  1  0
 11 19  1  0
 14 20  1  0
 14 21  1  0
M  CHG  1  12  -1
M  END
>  <UniqueID>  (23) 
22

>  <SMILES>  (23) 
N#Cc1nc(-c2ccccc2)[n-]c1N

>  <Energy>  (23) 
49.11408681634016

>  <Genealogy>  (23) 
N#Cc1nc(-c2ccccc2)[n-]c1N (protonated)
N#Cc1nc(-c2ccccc2)[n-]c1N (3D coordinates assigned)
N#Cc1nc(-c2ccccc2)[n-]c1N (optimized conformer: 49.11408681634016 kcal/mol)

>  <smiles>  (23) 
N#Cc1nc(-c2ccccc2)[nH]c1N

>  <score_type>  (23) 
oracle

>  <origin>  (23) 
adgpu

>  <m_score__min__energy>  (23) 
-7.6699999999999999

>  <m_primary>  (23) 
energy

$$$$
23:0
     RDKit          3D

 45 47  0  0  0  0  0  0  0  0999 V2000
   -5.5400   25.9390  -30.4680 C   0  0  0  0  0  0  0  0  0  0  0  0
   -4.1510   25.6300  -30.4620 O   0  0  0  0  0  0  0  0  0  0  0  0
   -3.6040   24.4370  -29.9640 C   0  0  0  0  0  0  0  0  0  0  0  0
   -4.2950   23.2120  -30.0270 C   0  0  0  0  0  0  0  0  0  0  0  0
   -3.7160   22.0490  -29.5110 C   0  0  0  0  0  0  0  0  0  0  0  0
   -2.4460   22.0900  -28.9170 C   0  0  0  0  0  0  0  0  0  0  0  0
   -1.8510   20.8610  -28.3440 C   0  0  0  0  0  0  0  0  0  0  0  0
   -2.0160   20.5210  -27.0040 C   0  0  0  0  0  0  0  0  0  0  0  0
   -1.2830   19.0350  -26.7380 S   0  0  0  0  0  0  0  0  0  0  0  0
   -0.7340   18.8000  -28.3060 C   0  0  0  0  0  0  0  0  0  0  0  0
   -1.1120   19.8970  -29.0770 C   0  0  0  0  0  0  0  0  0  0  0  0
   -0.7090   20.0340  -30.4970 C   0  0  0  0  0  0  0  0  0  0  0  0
   -1.6110   20.5240  -31.4490 C   0  0  0  0  0  0  0  0  0  0  0  0
   -1.2520   20.6250  -32.8070 C   0  0  0  0  0  0  0  0  0  0  0  0
   -2.1780   21.0750  -33.7610 O   0  0  0  0  0  0  0  0  0  0  0  0
   -3.4850   21.5580  -33.4670 C   0  0  0  0  0  0  0  0  0  0  0  0
    0.0610   20.2620  -33.2040 C   0  0  0  0  0  0  0  0  0  0  0  0
    0.5230   20.3370  -34.5320 O   0  0  0  0  0  0  0  0  0  0  0  0
    0.4910   21.4810  -35.3790 C   0  0  0  0  0  0  0  0  0  0  0  0
    0.9750   19.7990  -32.2430 C   0  0  0  0  0  0  0  0  0  0  0  0
    2.2680   19.4520  -32.6720 O   0  0  0  0  0  0  0  0  0  0  0  0
    3.1530   18.5920  -31.9610 C   0  0  0  0  0  0  0  0  0  0  0  0
    0.5860   19.6870  -30.8970 C   0  0  0  0  0  0  0  0  0  0  0  0
   -1.7490   23.3090  -28.8740 C   0  0  0  0  0  0  0  0  0  0  0  0
   -2.3280   24.4740  -29.3880 C   0  0  0  0  0  0  0  0  0  0  0  0
   -1.6280   25.6730  -29.3220 O   0  0  0  0  0  0  0  0  0  0  0  0
   -5.9022   26.0196  -29.4325 H   0  0  0  0  0  0  0  0  0  0  0  0
   -5.7007   26.8949  -30.9881 H   0  0  0  0  0  0  0  0  0  0  0  0
   -6.0908   25.1414  -30.9881 H   0  0  0  0  0  0  0  0  0  0  0  0
   -5.2946   23.1699  -30.4841 H   0  0  0  0  0  0  0  0  0  0  0  0
   -4.2602   21.0949  -29.5712 H   0  0  0  0  0  0  0  0  0  0  0  0
   -2.5386   21.1246  -26.2473 H   0  0  0  0  0  0  0  0  0  0  0  0
   -0.1702   17.9263  -28.6650 H   0  0  0  0  0  0  0  0  0  0  0  0
   -2.6169   20.8353  -31.1310 H   0  0  0  0  0  0  0  0  0  0  0  0
   -3.6207   21.6081  -32.3766 H   0  0  0  0  0  0  0  0  0  0  0  0
   -3.6106   22.5619  -33.8987 H   0  0  0  0  0  0  0  0  0  0  0  0
   -4.2333   20.8770  -33.8987 H   0  0  0  0  0  0  0  0  0  0  0  0
    0.4655   22.3923  -34.7635 H   0  0  0  0  0  0  0  0  0  0  0  0
    1.3892   21.4924  -36.0139 H   0  0  0  0  0  0  0  0  0  0  0  0
   -0.4064   21.4421  -36.0139 H   0  0  0  0  0  0  0  0  0  0  0  0
    3.0095   18.7314  -30.8793 H   0  0  0  0  0  0  0  0  0  0  0  0
    2.9406   17.5461  -32.2273 H   0  0  0  0  0  0  0  0  0  0  0  0
    4.1924   18.8343  -32.2273 H   0  0  0  0  0  0  0  0  0  0  0  0
    1.3071   19.3228  -30.1504 H   0  0  0  0  0  0  0  0  0  0  0  0
   -0.7418   23.3476  -28.4335 H   0  0  0  0  0  0  0  0  0  0  0  0
  1  2  1  0
  2  3  1  0
  3  4  2  0
  4  5  1  0
  5  6  2  0
  6  7  1  0
  7  8  2  0
  8  9  1  0
  9 10  1  0
 10 11  2  0
 11 12  1  0
 12 13  2  0
 13 14  1  0
 14 15  1  0
 15 16  1  0
 14 17  2  0
 17 18  1  0
 18 19  1  0
 17 20  1  0
 20 21  1  0
 21 22  1  0
 20 23  2  0
  6 24  1  0
 24 25  2  0
 25 26  1  0
 25  3  1  0
 11  7  1  0
 23 12  1  0
  1 27  1  0
  1 28  1  0
  1 29  1  0
  4 30  1  0
  5 31  1  0
  8 32  1  0
 10 33  1  0
 13 34  1  0
 16 35  1  0
 16 36  1  0
 16 37  1  0
 19 38  1  0
 19 39  1  0
 19 40  1  0
 22 41  1  0
 22 42  1  0
 22 43  1  0
 23 44  1  0
 24 45  1  0
M  CHG  1  26  -1
M  END
>  <UniqueID>  (24) 
23

>  <SMILES>  (24) 
COc1ccc(-c2cscc2-c2cc(OC)c(OC)c(OC)c2)cc1[O-]

>  <Energy>  (24) 
82.74541603882969

>  <Genealogy>  (24) 
COc1ccc(-c2cscc2-c2cc(OC)c(OC)c(OC)c2)cc1[O-] (protonated)
COc1ccc(-c2cscc2-c2cc(OC)c(OC)c(OC)c2)cc1[O-] (3D coordinates assigned)
COc1ccc(-c2cscc2-c2cc(OC)c(OC)c(OC)c2)cc1[O-] (optimized conformer: 82.74541603882969 kcal/mol)

>  <smiles>  (24) 
COc1ccc(-c2cscc2-c2cc(OC)c(OC)c(OC)c2)cc1O

>  <score_type>  (24) 
oracle

>  <origin>  (24) 
adgpu

>  <m_score__min__energy>  (24) 
-10.34

>  <m_primary>  (24) 
energy

$$$$
24:0
     RDKit          3D

 39 41  0  0  0  0  0  0  0  0999 V2000
   -0.0810   24.5460  -28.7410 O   0  0  0  0  0  0  0  0  0  0  0  0
   -1.0700   25.2760  -28.4570 C   0  0  0  0  0  0  0  0  0  0  0  0
   -2.2180   25.2960  -29.3170 N   0  0  0  0  0  0  0  0  0  0  0  0
   -2.9860   24.1610  -29.7430 C   0  0  0  0  0  0  0  0  0  0  0  0
   -2.3820   22.9350  -30.0730 C   0  0  0  0  0  0  0  0  0  0  0  0
   -3.1640   21.8610  -30.5050 C   0  0  0  0  0  0  0  0  0  0  0  0
   -4.5480   22.0050  -30.6310 C   0  0  0  0  0  0  0  0  0  0  0  0
   -5.1570   23.2310  -30.3340 C   0  0  0  0  0  0  0  0  0  0  0  0
   -6.9010   23.4070  -30.5000 S   0  0  0  0  0  0  0  0  0  0  0  0
   -7.2470   24.8690  -30.5120 O   0  0  0  0  0  0  0  0  0  0  0  0
   -7.5770   22.7250  -29.3450 O   0  0  0  0  0  0  0  0  0  0  0  0
   -7.4250   22.6690  -31.9800 N   0  0  0  0  0  0  0  0  0  0  0  0
   -7.5060   21.2580  -32.2160 C   0  0  0  0  0  0  0  0  0  0  0  0
   -6.5100   20.6500  -32.9920 C   0  0  0  0  0  0  0  0  0  0  0  0
   -6.5480   19.2750  -33.2420 C   0  0  0  0  0  0  0  0  0  0  0  0
   -7.5830   18.4960  -32.7180 C   0  0  0  0  0  0  0  0  0  0  0  0
   -7.6190   17.1620  -32.9620 F   0  0  0  0  0  0  0  0  0  0  0  0
   -8.5810   19.0920  -31.9440 C   0  0  0  0  0  0  0  0  0  0  0  0
   -8.5470   20.4690  -31.6920 C   0  0  0  0  0  0  0  0  0  0  0  0
   -4.3720   24.3050  -29.8930 C   0  0  0  0  0  0  0  0  0  0  0  0
   -1.0660   26.0720  -27.2060 C   0  0  0  0  0  0  0  0  0  0  0  0
   -1.6220   25.5460  -26.0240 C   0  0  0  0  0  0  0  0  0  0  0  0
   -1.6180   26.2980  -24.8450 C   0  0  0  0  0  0  0  0  0  0  0  0
   -1.0590   27.5780  -24.8310 C   0  0  0  0  0  0  0  0  0  0  0  0
   -0.5020   28.1090  -25.9960 C   0  0  0  0  0  0  0  0  0  0  0  0
    0.0410   29.3520  -25.9810 F   0  0  0  0  0  0  0  0  0  0  0  0
   -0.5040   27.3620  -27.1790 C   0  0  0  0  0  0  0  0  0  0  0  0
   -1.2910   22.8212  -29.9908 H   0  0  0  0  0  0  0  0  0  0  0  0
   -2.6886   20.8989  -30.7467 H   0  0  0  0  0  0  0  0  0  0  0  0
   -5.1605   21.1541  -30.9640 H   0  0  0  0  0  0  0  0  0  0  0  0
   -5.6931   21.2585  -33.4071 H   0  0  0  0  0  0  0  0  0  0  0  0
   -5.7621   18.8057  -33.8520 H   0  0  0  0  0  0  0  0  0  0  0  0
   -9.3955   18.4785  -31.5315 H   0  0  0  0  0  0  0  0  0  0  0  0
   -9.3357   20.9351  -31.0831 H   0  0  0  0  0  0  0  0  0  0  0  0
   -4.8479   25.2696  -29.6625 H   0  0  0  0  0  0  0  0  0  0  0  0
   -2.0620   24.5378  -26.0281 H   0  0  0  0  0  0  0  0  0  0  0  0
   -2.0561   25.8805  -23.9264 H   0  0  0  0  0  0  0  0  0  0  0  0
   -1.0576   28.1675  -23.9023 H   0  0  0  0  0  0  0  0  0  0  0  0
   -0.0636   27.7856  -28.0937 H   0  0  0  0  0  0  0  0  0  0  0  0
  1  2  2  0
  2  3  1  0
  3  4  1  0
  4  5  2  0
  5  6  1  0
  6  7  2  0
  7  8  1  0
  8  9  1  0
  9 10  2  0
  9 11  2  0
  9 12  1  0
 12 13  1  0
 13 14  2  0
 14 15  1  0
 15 16  2  0
 16 17  1  0
 16 18  1  0
 18 19  2  0
  8 20  2  0
  2 21  1  0
 21 22  2  0
 22 23  1  0
 23 24  2  0
 24 25  1  0
 25 26  1  0
 25 27  2  0
 20  4  1  0
 27 21  1  0
 19 13  1  0
  5 28  1  0
  6 29  1  0
  7 30  1  0
 14 31  1  0
 15 32  1  0
 18 33  1  0
 19 34  1  0
 20 35  1  0
 22 36  1  0
 23 37  1  0
 24 38  1  0
 27 39  1  0
M  CHG  2   3  -1  12  -1
M  END
>  <UniqueID>  (25) 
24

>  <SMILES>  (25) 
O=C([N-]c1cccc(S(=O)(=O)[N-]c2ccc(F)cc2)c1)c1cccc(F)c1

>  <Energy>  (25) 
50.568982247154

>  <Genealogy>  (25) 
O=C([N-]c1cccc(S(=O)(=O)[N-]c2ccc(F)cc2)c1)c1cccc(F)c1 (protonated)
O=C([N-]c1cccc(S(=O)(=O)[N-]c2ccc(F)cc2)c1)c1cccc(F)c1 (3D coordinates assigned)
O=C([N-]c1cccc(S(=O)(=O)[N-]c2ccc(F)cc2)c1)c1cccc(F)c1 (optimized conformer: 50.568982247154 kcal/mol)

>  <smiles>  (25) 
O=C(Nc1cccc(S(=O)(=O)Nc2ccc(F)cc2)c1)c1cccc(F)c1

>  <score_type>  (25) 
oracle

>  <origin>  (25) 
adgpu

>  <m_score__min__energy>  (25) 
-10.390000000000001

>  <m_primary>  (25) 
energy

$$$$
25:0
     RDKit          3D

 22 23  0  0  0  0  0  0  0  0999 V2000
   -9.1050   18.3700  -31.9610 C   0  0  0  0  0  0  0  0  0  0  0  0
   -9.1950   19.7240  -32.3920 O   0  0  0  0  0  0  0  0  0  0  0  0
   -8.2690   20.7250  -32.0590 C   0  0  0  0  0  0  0  0  0  0  0  0
   -8.5950   21.8040  -31.2190 C   0  0  0  0  0  0  0  0  0  0  0  0
   -7.6380   22.7740  -30.9160 C   0  0  0  0  0  0  0  0  0  0  0  0
   -6.3350   22.6850  -31.4330 C   0  0  0  0  0  0  0  0  0  0  0  0
   -5.3480   23.7250  -31.0660 C   0  0  0  0  0  0  0  0  0  0  0  0
   -4.0700   23.5270  -30.5830 C   0  0  0  0  0  0  0  0  0  0  0  0
   -3.4650   24.7190  -30.4350 N   0  0  0  0  0  0  0  0  0  0  0  0
   -4.3040   25.6700  -30.8170 N   0  0  0  0  0  0  0  0  0  0  0  0
   -5.4550   25.0940  -31.2110 C   0  0  0  0  0  0  0  0  0  0  0  0
   -6.0120   21.6070  -32.2900 C   0  0  0  0  0  0  0  0  0  0  0  0
   -4.4460   21.4690  -33.0820 Cl  0  0  0  0  0  0  0  0  0  0  0  0
   -6.9790   20.6400  -32.5900 C   0  0  0  0  0  0  0  0  0  0  0  0
   -9.1026   18.3346  -30.8616 H   0  0  0  0  0  0  0  0  0  0  0  0
   -9.9676   17.8051  -32.3442 H   0  0  0  0  0  0  0  0  0  0  0  0
   -8.1752   17.9242  -32.3442 H   0  0  0  0  0  0  0  0  0  0  0  0
   -9.6084   21.8843  -30.7987 H   0  0  0  0  0  0  0  0  0  0  0  0
   -7.9075   23.6183  -30.2645 H   0  0  0  0  0  0  0  0  0  0  0  0
   -3.6185   22.5501  -30.3555 H   0  0  0  0  0  0  0  0  0  0  0  0
   -6.3394   25.6284  -31.5882 H   0  0  0  0  0  0  0  0  0  0  0  0
   -6.7198   19.8014  -33.2530 H   0  0  0  0  0  0  0  0  0  0  0  0
  1  2  1  0
  2  3  1  0
  3  4  2  0
  4  5  1  0
  5  6  2  0
  6  7  1  0
  7  8  1  0
  8  9  2  0
  9 10  1  0
 10 11  1  0
  6 12  1  0
 12 13  1  0
 12 14  2  0
 14  3  1  0
 11  7  2  0
  1 15  1  0
  1 16  1  0
  1 17  1  0
  4 18  1  0
  5 19  1  0
  8 20  1  0
 11 21  1  0
 14 22  1  0
M  CHG  1  10  -1
M  END
>  <UniqueID>  (26) 
25

>  <SMILES>  (26) 
COc1ccc(-c2cn[n-]c2)c(Cl)c1

>  <Energy>  (26) 
57.55468696815687

>  <Genealogy>  (26) 
COc1ccc(-c2cn[n-]c2)c(Cl)c1 (protonated)
COc1ccc(-c2cn[n-]c2)c(Cl)c1 (3D coordinates assigned)
COc1ccc(-c2cn[n-]c2)c(Cl)c1 (optimized conformer: 57.55468696815687 kcal/mol)

>  <smiles>  (26) 
COc1ccc(-c2cn[nH]c2)c(Cl)c1

>  <score_type>  (26) 
oracle

>  <origin>  (26) 
adgpu

>  <m_score__min__energy>  (26) 
-8.1799999999999997

>  <m_primary>  (26) 
energy

$$$$
26:0
     RDKit          3D

 45 48  0  0  0  0  0  0  0  0999 V2000
   -0.6310   20.7830  -32.5290 F   0  0  0  0  0  0  0  0  0  0  0  0
   -1.9010   20.4230  -32.8360 C   0  0  0  0  0  0  0  0  0  0  0  0
   -2.2550   19.0710  -32.8750 C   0  0  0  0  0  0  0  0  0  0  0  0
   -3.5640   18.6970  -33.1960 C   0  0  0  0  0  0  0  0  0  0  0  0
   -4.5310   19.6790  -33.4720 C   0  0  0  0  0  0  0  0  0  0  0  0
   -5.9280   19.2830  -33.8620 C   0  0  0  0  0  0  0  0  0  0  0  0
   -6.8220   19.3780  -32.7000 N   0  0  0  0  0  0  0  0  0  0  0  0
   -7.2430   18.1580  -32.0020 C   0  0  0  0  0  0  0  0  0  0  0  0
   -6.4820   16.9770  -32.5350 C   0  0  0  0  0  0  0  0  0  0  0  0
   -6.8620   16.3870  -33.7530 C   0  0  0  0  0  0  0  0  0  0  0  0
   -6.1370   15.3080  -34.2680 C   0  0  0  0  0  0  0  0  0  0  0  0
   -5.0270   14.8150  -33.5750 C   0  0  0  0  0  0  0  0  0  0  0  0
   -4.6370   15.4030  -32.3680 C   0  0  0  0  0  0  0  0  0  0  0  0
   -5.3590   16.4820  -31.8490 C   0  0  0  0  0  0  0  0  0  0  0  0
   -7.3750   20.6500  -32.3130 C   0  0  0  0  0  0  0  0  0  0  0  0
   -8.7610   20.8540  -32.3530 C   0  0  0  0  0  0  0  0  0  0  0  0
   -9.3040   22.0830  -31.9720 C   0  0  0  0  0  0  0  0  0  0  0  0
   -8.4680   23.1190  -31.5480 C   0  0  0  0  0  0  0  0  0  0  0  0
   -7.0760   22.9320  -31.4980 C   0  0  0  0  0  0  0  0  0  0  0  0
   -6.1890   24.0290  -31.0560 C   0  0  0  0  0  0  0  0  0  0  0  0
   -4.9250   24.2100  -31.4890 N   0  0  0  0  0  0  0  0  0  0  0  0
   -4.5010   25.2950  -30.8600 N   0  0  0  0  0  0  0  0  0  0  0  0
   -5.4670   25.7490  -30.0820 N   0  0  0  0  0  0  0  0  0  0  0  0
   -6.5420   24.9870  -30.1760 N   0  0  0  0  0  0  0  0  0  0  0  0
   -6.5360   21.6920  -31.8810 C   0  0  0  0  0  0  0  0  0  0  0  0
   -4.1660   21.0350  -33.4450 C   0  0  0  0  0  0  0  0  0  0  0  0
   -2.8560   21.4040  -33.1250 C   0  0  0  0  0  0  0  0  0  0  0  0
   -1.5026   18.2999  -32.6528 H   0  0  0  0  0  0  0  0  0  0  0  0
   -3.8372   17.6321  -33.2325 H   0  0  0  0  0  0  0  0  0  0  0  0
   -6.2888   19.9549  -34.6547 H   0  0  0  0  0  0  0  0  0  0  0  0
   -5.9198   18.2452  -34.2264 H   0  0  0  0  0  0  0  0  0  0  0  0
   -7.0428   18.2657  -30.9258 H   0  0  0  0  0  0  0  0  0  0  0  0
   -8.3192   17.9997  -32.1653 H   0  0  0  0  0  0  0  0  0  0  0  0
   -7.7322   16.7753  -34.3025 H   0  0  0  0  0  0  0  0  0  0  0  0
   -6.4401   14.8464  -35.2194 H   0  0  0  0  0  0  0  0  0  0  0  0
   -4.4601   13.9637  -33.9799 H   0  0  0  0  0  0  0  0  0  0  0  0
   -3.7613   15.0164  -31.8261 H   0  0  0  0  0  0  0  0  0  0  0  0
   -5.0475   16.9450  -30.9011 H   0  0  0  0  0  0  0  0  0  0  0  0
   -9.4243   20.0422  -32.6861 H   0  0  0  0  0  0  0  0  0  0  0  0
  -10.3928   22.2357  -32.0058 H   0  0  0  0  0  0  0  0  0  0  0  0
   -8.9014   24.0857  -31.2519 H   0  0  0  0  0  0  0  0  0  0  0  0
   -5.3910   26.5960  -29.4780 H   0  0  0  0  0  0  0  0  0  0  0  0
   -5.4479   21.5357  -31.8424 H   0  0  0  0  0  0  0  0  0  0  0  0
   -4.9129   21.8088  -33.6763 H   0  0  0  0  0  0  0  0  0  0  0  0
   -2.5756   22.4674  -33.1004 H   0  0  0  0  0  0  0  0  0  0  0  0
  1  2  1  0
  2  3  2  0
  3  4  1  0
  4  5  2  0
  5  6  1  0
  6  7  1  0
  7  8  1  0
  8  9  1  0
  9 10  2  0
 10 11  1  0
 11 12  2  0
 12 13  1  0
 13 14  2  0
  7 15  1  0
 15 16  2  0
 16 17  1  0
 17 18  2  0
 18 19  1  0
 19 20  1  0
 20 21  1  0
 21 22  2  0
 22 23  1  0
 23 24  1  0
 19 25  2  0
  5 26  1  0
 26 27  2  0
 27  2  1  0
 14  9  1  0
 25 15  1  0
 24 20  2  0
  3 28  1  0
  4 29  1  0
  6 30  1  0
  6 31  1  0
  8 32  1  0
  8 33  1  0
 10 34  1  0
 11 35  1  0
 12 36  1  0
 13 37  1  0
 14 38  1  0
 16 39  1  0
 17 40  1  0
 18 41  1  0
 23 42  1  0
 25 43  1  0
 26 44  1  0
 27 45  1  0
M  END
>  <UniqueID>  (27) 
26

>  <SMILES>  (27) 
Fc1ccc(CN(Cc2ccccc2)c2cccc(-c3nn[nH]n3)c2)cc1

>  <Energy>  (27) 
88.73425831247619

>  <Genealogy>  (27) 
Fc1ccc(CN(Cc2ccccc2)c2cccc(-c3nn[nH]n3)c2)cc1 (3D coordinates assigned)
Fc1ccc(CN(Cc2ccccc2)c2cccc(-c3nn[nH]n3)c2)cc1 (optimized conformer: 88.73425831247619 kcal/mol)

>  <smiles>  (27) 
Fc1ccc(CN(Cc2ccccc2)c2cccc(-c3nn[nH]n3)c2)cc1

>  <score_type>  (27) 
oracle

>  <origin>  (27) 
adgpu

>  <m_score__min__energy>  (27) 
-10.07

>  <m_primary>  (27) 
energy

$$$$
27:0
     RDKit          3D

 27 29  0  0  0  0  0  0  0  0999 V2000
   -5.3540   15.0860  -32.4930 F   0  0  0  0  0  0  0  0  0  0  0  0
   -5.6340   16.3860  -32.7600 C   0  0  0  0  0  0  0  0  0  0  0  0
   -5.4550   16.8890  -34.0510 C   0  0  0  0  0  0  0  0  0  0  0  0
   -5.7440   18.2290  -34.3280 C   0  0  0  0  0  0  0  0  0  0  0  0
   -6.2090   19.0780  -33.3150 C   0  0  0  0  0  0  0  0  0  0  0  0
   -6.4940   20.4140  -33.6360 O   0  0  0  0  0  0  0  0  0  0  0  0
   -6.6850   21.4330  -32.6960 C   0  0  0  0  0  0  0  0  0  0  0  0
   -5.6180   22.2950  -32.4130 C   0  0  0  0  0  0  0  0  0  0  0  0
   -5.7750   23.3280  -31.4840 C   0  0  0  0  0  0  0  0  0  0  0  0
   -4.7510   24.1790  -31.2140 N   0  0  0  0  0  0  0  0  0  0  0  0
   -4.8950   25.1870  -30.3140 C   0  0  0  0  0  0  0  0  0  0  0  0
   -6.1150   25.3530  -29.6530 C   0  0  0  0  0  0  0  0  0  0  0  0
   -7.1430   24.5040  -29.9180 N   0  0  0  0  0  0  0  0  0  0  0  0
   -7.0060   23.4950  -30.8190 C   0  0  0  0  0  0  0  0  0  0  0  0
   -8.0660   22.6230  -31.0800 C   0  0  0  0  0  0  0  0  0  0  0  0
   -7.9110   21.5880  -32.0100 C   0  0  0  0  0  0  0  0  0  0  0  0
   -9.2390   20.4590  -32.2470 Cl  0  0  0  0  0  0  0  0  0  0  0  0
   -6.3990   18.5620  -32.0190 C   0  0  0  0  0  0  0  0  0  0  0  0
   -6.1090   17.2220  -31.7450 C   0  0  0  0  0  0  0  0  0  0  0  0
   -5.0862   16.2301  -34.8509 H   0  0  0  0  0  0  0  0  0  0  0  0
   -5.6054   18.6188  -35.3472 H   0  0  0  0  0  0  0  0  0  0  0  0
   -4.6531   22.1588  -32.9234 H   0  0  0  0  0  0  0  0  0  0  0  0
   -4.0564   25.8681  -30.1071 H   0  0  0  0  0  0  0  0  0  0  0  0
   -6.2427   26.1657  -28.9228 H   0  0  0  0  0  0  0  0  0  0  0  0
   -9.0237   22.7498  -30.5540 H   0  0  0  0  0  0  0  0  0  0  0  0
   -6.7770   19.2155  -31.2190 H   0  0  0  0  0  0  0  0  0  0  0  0
   -6.2547   16.8250  -30.7296 H   0  0  0  0  0  0  0  0  0  0  0  0
  1  2  1  0
  2  3  2  0
  3  4  1  0
  4  5  2  0
  5  6  1  0
  6  7  1  0
  7  8  2  0
  8  9  1  0
  9 10  2  0
 10 11  1  0
 11 12  2  0
 12 13  1  0
 13 14  2  0
 14 15  1  0
 15 16  2  0
 16 17  1  0
  5 18  1  0
 18 19  2  0
 19  2  1  0
 16  7  1  0
 14  9  1  0
  3 20  1  0
  4 21  1  0
  8 22  1  0
 11 23  1  0
 12 24  1  0
 15 25  1  0
 18 26  1  0
 19 27  1  0
M  END
>  <UniqueID>  (28) 
27

>  <SMILES>  (28) 
Fc1ccc(Oc2cc3nccnc3cc2Cl)cc1

>  <Energy>  (28) 
42.724327186484324

>  <Genealogy>  (28) 
Fc1ccc(Oc2cc3nccnc3cc2Cl)cc1 (3D coordinates assigned)
Fc1ccc(Oc2cc3nccnc3cc2Cl)cc1 (optimized conformer: 42.724327186484324 kcal/mol)

>  <smiles>  (28) 
Fc1ccc(Oc2cc3nccnc3cc2Cl)cc1

>  <score_type>  (28) 
oracle

>  <origin>  (28) 
adgpu

>  <m_score__min__energy>  (28) 
-7.4100000000000001

>  <m_primary>  (28) 
energy

$$$$
28:0
     RDKit          3D

 25 27  0  0  0  0  0  0  0  0999 V2000
   -3.8570   25.6750  -30.3530 O   0  0  0  0  0  0  0  0  0  0  0  0
   -4.6970   24.6580  -30.7890 C   0  0  0  0  0  0  0  0  0  0  0  0
   -6.0980   24.8610  -30.8100 C   0  0  0  0  0  0  0  0  0  0  0  0
   -6.9590   23.8380  -31.2500 C   0  0  0  0  0  0  0  0  0  0  0  0
   -6.3790   22.6400  -31.6550 C   0  0  0  0  0  0  0  0  0  0  0  0
   -6.9570   21.5570  -32.0980 O   0  0  0  0  0  0  0  0  0  0  0  0
   -5.9770   20.7010  -32.3480 C   0  0  0  0  0  0  0  0  0  0  0  0
   -6.2030   19.3380  -32.8700 C   0  0  0  0  0  0  0  0  0  0  0  0
   -5.7390   18.9860  -34.1490 C   0  0  0  0  0  0  0  0  0  0  0  0
   -5.9500   17.6960  -34.6470 C   0  0  0  0  0  0  0  0  0  0  0  0
   -6.6260   16.7460  -33.8760 C   0  0  0  0  0  0  0  0  0  0  0  0
   -6.8290   15.4650  -34.3860 O   0  0  0  0  0  0  0  0  0  0  0  0
   -7.0920   17.0890  -32.6010 C   0  0  0  0  0  0  0  0  0  0  0  0
   -6.8820   18.3780  -32.0990 C   0  0  0  0  0  0  0  0  0  0  0  0
   -4.7420   21.2060  -32.0750 N   0  0  0  0  0  0  0  0  0  0  0  0
   -5.0330   22.4410  -31.6360 C   0  0  0  0  0  0  0  0  0  0  0  0
   -4.1490   23.4280  -31.2070 C   0  0  0  0  0  0  0  0  0  0  0  0
   -6.5161   25.8237  -30.4806 H   0  0  0  0  0  0  0  0  0  0  0  0
   -8.0495   23.9804  -31.2728 H   0  0  0  0  0  0  0  0  0  0  0  0
   -5.2071   19.7288  -34.7617 H   0  0  0  0  0  0  0  0  0  0  0  0
   -5.5827   17.4282  -35.6487 H   0  0  0  0  0  0  0  0  0  0  0  0
   -6.0910   14.7710  -34.3820 H   0  0  0  0  0  0  0  0  0  0  0  0
   -7.6245   16.3432  -31.9925 H   0  0  0  0  0  0  0  0  0  0  0  0
   -7.2498   18.6416  -31.0964 H   0  0  0  0  0  0  0  0  0  0  0  0
   -3.0629   23.2543  -31.1947 H   0  0  0  0  0  0  0  0  0  0  0  0
  1  2  1  0
  2  3  2  0
  3  4  1  0
  4  5  2  0
  5  6  1  0
  6  7  1  0
  7  8  1  0
  8  9  2  0
  9 10  1  0
 10 11  2  0
 11 12  1  0
 11 13  1  0
 13 14  2  0
  7 15  2  0
 15 16  1  0
 16 17  2  0
 17  2  1  0
 16  5  1  0
 14  8  1  0
  3 18  1  0
  4 19  1  0
  9 20  1  0
 10 21  1  0
 12 22  1  0
 13 23  1  0
 14 24  1  0
 17 25  1  0
M  CHG  1   1  -1
M  END
>  <UniqueID>  (29) 
28

>  <SMILES>  (29) 
[O-]c1ccc2oc(-c3ccc(O)cc3)nc2c1

>  <Energy>  (29) 
65.21460744461788

>  <Genealogy>  (29) 
[O-]c1ccc2oc(-c3ccc(O)cc3)nc2c1 (protonated)
[O-]c1ccc2oc(-c3ccc(O)cc3)nc2c1 (3D coordinates assigned)
[O-]c1ccc2oc(-c3ccc(O)cc3)nc2c1 (optimized conformer: 65.21460744461788 kcal/mol)

>  <smiles>  (29) 
Oc1ccc(-c2nc3cc(O)ccc3o2)cc1

>  <score_type>  (29) 
oracle

>  <origin>  (29) 
adgpu

>  <m_score__min__energy>  (29) 
-9.1400000000000006

>  <m_primary>  (29) 
energy

$$$$
29:0
     RDKit          3D

 36 38  0  0  1  0  0  0  0  0999 V2000
   -9.1020   19.1520  -31.5910 C   0  0  0  0  0  0  0  0  0  0  0  0
   -8.6710   20.0800  -32.8050 C   0  0  0  0  0  0  0  0  0  0  0  0
   -8.4490   21.2950  -32.1060 N   0  0  0  0  0  0  0  0  0  0  0  0
   -7.3320   21.6580  -31.6550 C   0  0  0  0  0  0  0  0  0  0  0  0
   -7.3160   22.8740  -31.0130 N   0  0  0  0  0  0  0  0  0  0  0  0
   -6.1890   23.3880  -30.5490 C   0  0  0  0  0  0  0  0  0  0  0  0
   -6.1570   24.6020  -29.9060 C   0  0  0  0  0  0  0  0  0  0  0  0
   -7.2370   25.2850  -29.7310 N   0  0  0  0  0  0  0  0  0  0  0  0
   -4.9810   25.0900  -29.4490 N   0  0  0  0  0  0  0  0  0  0  0  0
   -3.8720   24.3610  -29.6440 C   0  0  0  0  0  0  0  0  0  0  0  0
   -2.7380   24.8260  -29.2070 N   0  0  0  0  0  0  0  0  0  0  0  0
   -3.8680   23.1670  -30.2710 N   0  0  0  0  0  0  0  0  0  0  0  0
   -5.0300   22.6450  -30.7420 C   0  0  0  0  0  0  0  0  0  0  0  0
   -5.0450   21.4640  -31.3650 N   0  0  0  0  0  0  0  0  0  0  0  0
   -6.2080   20.9260  -31.8440 C   0  0  0  0  0  0  0  0  0  0  0  0
   -6.0710   19.6480  -32.4850 C   0  0  0  0  0  0  0  0  0  0  0  0
   -6.0950   18.4040  -31.9120 C   0  0  0  0  0  0  0  0  0  0  0  0
   -5.9270   17.2300  -32.6180 C   0  0  0  0  0  0  0  0  0  0  0  0
   -5.7220   17.2660  -33.9770 C   0  0  0  0  0  0  0  0  0  0  0  0
   -5.6910   18.5010  -34.5920 C   0  0  0  0  0  0  0  0  0  0  0  0
   -5.8600   19.6690  -33.8780 C   0  0  0  0  0  0  0  0  0  0  0  0
   -8.8675   19.6569  -30.6423 H   0  0  0  0  0  0  0  0  0  0  0  0
  -10.1831   18.9564  -31.6448 H   0  0  0  0  0  0  0  0  0  0  0  0
   -8.5540   18.1998  -31.6448 H   0  0  0  0  0  0  0  0  0  0  0  0
   -7.7560   19.7157  -33.2949 H   0  0  0  0  0  0  0  0  0  0  0  0
   -9.3980   20.1404  -33.6283 H   0  0  0  0  0  0  0  0  0  0  0  0
   -8.1960   23.4180  -30.8760 H   0  0  0  0  0  0  0  0  0  0  0  0
   -7.2710   26.2120  -29.2500 H   0  0  0  0  0  0  0  0  0  0  0  0
   -5.0010   26.0070  -28.9720 H   0  0  0  0  0  0  0  0  0  0  0  0
   -2.6900   25.7410  -28.7180 H   0  0  0  0  0  0  0  0  0  0  0  0
   -2.9870   22.6250  -30.4060 H   0  0  0  0  0  0  0  0  0  0  0  0
   -6.2576   18.3368  -30.8262 H   0  0  0  0  0  0  0  0  0  0  0  0
   -5.9572   16.2641  -32.0926 H   0  0  0  0  0  0  0  0  0  0  0  0
   -5.5870   16.3402  -34.5555 H   0  0  0  0  0  0  0  0  0  0  0  0
   -5.5275   18.5553  -35.6784 H   0  0  0  0  0  0  0  0  0  0  0  0
   -5.8295   20.6339  -34.4054 H   0  0  0  0  0  0  0  0  0  0  0  0
  1  2  1  0
  2  3  1  0
  3  4  2  0
  4  5  1  0
  5  6  1  0
  6  7  1  0
  7  8  2  3
  7  9  1  0
  9 10  1  0
 10 11  2  3
 10 12  1  0
 12 13  1  0
 13 14  1  0
 14 15  2  0
 15 16  1  0
 16 17  2  0
 17 18  1  0
 18 19  2  0
 19 20  1  0
 20 21  2  0
 15  4  1  0
 21 16  1  0
 13  6  2  0
  1 22  1  0
  1 23  1  0
  1 24  1  0
  2 25  1  0
  2 26  1  0
  5 27  1  0
  8 28  1  0
  9 29  1  0
 11 30  1  0
 12 31  1  0
 17 32  1  0
 18 33  1  0
 19 34  1  0
 20 35  1  0
 21 36  1  0
M  END
>  <smiles>  (30) 
CCN=c1[nH]c2c(=N)[nH]c(=N)[nH]c2nc1-c1ccccc1

>  <score_type>  (30) 
oracle

>  <origin>  (30) 
adgpu

>  <m_score__min__energy>  (30) 
-7.4400000000000004

>  <m_primary>  (30) 
energy

$$$$
30:0
     RDKit          3D

 34 36  0  0  0  0  0  0  0  0999 V2000
   -3.5570   22.5380  -27.8780 C   0  0  0  0  0  0  0  0  0  0  0  0
   -4.0770   23.0570  -29.1950 C   0  0  0  0  0  0  0  0  0  0  0  0
   -4.4960   24.3910  -29.2900 C   0  0  0  0  0  0  0  0  0  0  0  0
   -4.9770   24.8740  -30.5080 C   0  0  0  0  0  0  0  0  0  0  0  0
   -5.3570   26.0700  -30.6040 O   0  0  0  0  0  0  0  0  0  0  0  0
   -5.0400   24.0800  -31.5700 O   0  0  0  0  0  0  0  0  0  0  0  0
   -4.6560   22.8070  -31.5400 C   0  0  0  0  0  0  0  0  0  0  0  0
   -4.7510   22.0350  -32.7020 C   0  0  0  0  0  0  0  0  0  0  0  0
   -4.3470   20.6870  -32.6970 C   0  0  0  0  0  0  0  0  0  0  0  0
   -4.4160   19.8720  -33.8380 O   0  0  0  0  0  0  0  0  0  0  0  0
   -5.5990   19.2460  -34.3370 C   0  0  0  0  0  0  0  0  0  0  0  0
   -6.6900   19.2590  -33.3000 C   0  0  0  0  0  0  0  0  0  0  0  0
   -6.9760   18.1060  -32.5490 C   0  0  0  0  0  0  0  0  0  0  0  0
   -7.9960   18.1230  -31.5930 C   0  0  0  0  0  0  0  0  0  0  0  0
   -8.7420   19.2860  -31.3840 C   0  0  0  0  0  0  0  0  0  0  0  0
   -8.4730   20.4340  -32.1360 C   0  0  0  0  0  0  0  0  0  0  0  0
   -9.4140   21.8920  -31.8780 Cl  0  0  0  0  0  0  0  0  0  0  0  0
   -7.4530   20.4210  -33.0940 C   0  0  0  0  0  0  0  0  0  0  0  0
   -3.8590   20.1250  -31.5130 C   0  0  0  0  0  0  0  0  0  0  0  0
   -3.7600   20.8870  -30.3460 C   0  0  0  0  0  0  0  0  0  0  0  0
   -4.1560   22.2380  -30.3440 C   0  0  0  0  0  0  0  0  0  0  0  0
   -4.0716   23.0516  -27.0526 H   0  0  0  0  0  0  0  0  0  0  0  0
   -3.7445   21.4562  -27.8104 H   0  0  0  0  0  0  0  0  0  0  0  0
   -2.4756   22.7276  -27.8104 H   0  0  0  0  0  0  0  0  0  0  0  0
   -4.4462   25.0518  -28.4120 H   0  0  0  0  0  0  0  0  0  0  0  0
   -5.1440   22.4843  -33.6259 H   0  0  0  0  0  0  0  0  0  0  0  0
   -5.9441   19.7876  -35.2301 H   0  0  0  0  0  0  0  0  0  0  0  0
   -5.3650   18.2011  -34.5888 H   0  0  0  0  0  0  0  0  0  0  0  0
   -6.3951   17.1866  -32.7140 H   0  0  0  0  0  0  0  0  0  0  0  0
   -8.2117   17.2192  -31.0042 H   0  0  0  0  0  0  0  0  0  0  0  0
   -9.5409   19.2985  -30.6279 H   0  0  0  0  0  0  0  0  0  0  0  0
   -7.2477   21.3238  -33.6880 H   0  0  0  0  0  0  0  0  0  0  0  0
   -3.5492   19.0696  -31.5003 H   0  0  0  0  0  0  0  0  0  0  0  0
   -3.3709   20.4292  -29.4246 H   0  0  0  0  0  0  0  0  0  0  0  0
  1  2  1  0
  2  3  2  0
  3  4  1  0
  4  5  2  0
  4  6  1  0
  6  7  1  0
  7  8  2  0
  8  9  1  0
  9 10  1  0
 10 11  1  0
 11 12  1  0
 12 13  2  0
 13 14  1  0
 14 15  2  0
 15 16  1  0
 16 17  1  0
 16 18  2  0
  9 19  2  0
 19 20  1  0
 20 21  2  0
 21  2  1  0
 21  7  1  0
 18 12  1  0
  1 22  1  0
  1 23  1  0
  1 24  1  0
  3 25  1  0
  8 26  1  0
 11 27  1  0
 11 28  1  0
 13 29  1  0
 14 30  1  0
 15 31  1  0
 18 32  1  0
 19 33  1  0
 20 34  1  0
M  END
>  <UniqueID>  (31) 
29

>  <SMILES>  (31) 
Cc1cc(=O)oc2cc(OCc3cccc(Cl)c3)ccc12

>  <Energy>  (31) 
41.5199228169529

>  <Genealogy>  (31) 
Cc1cc(=O)oc2cc(OCc3cccc(Cl)c3)ccc12 (3D coordinates assigned)
Cc1cc(=O)oc2cc(OCc3cccc(Cl)c3)ccc12 (optimized conformer: 41.5199228169529 kcal/mol)

>  <smiles>  (31) 
Cc1cc(=O)oc2cc(OCc3cccc(Cl)c3)ccc12

>  <score_type>  (31) 
oracle

>  <origin>  (31) 
adgpu

>  <m_score__min__energy>  (31) 
-8.2300000000000004

>  <m_primary>  (31) 
energy

$$$$
31:0
     RDKit          3D

 36 37  0  0  0  0  0  0  0  0999 V2000
   -0.4480   26.7220  -23.3370 C   0  0  0  0  0  0  0  0  0  0  0  0
   -1.4060   26.5110  -24.3680 O   0  0  0  0  0  0  0  0  0  0  0  0
   -1.2280   25.6350  -25.4490 C   0  0  0  0  0  0  0  0  0  0  0  0
   -0.5490   24.4320  -25.2220 C   0  0  0  0  0  0  0  0  0  0  0  0
   -0.3610   23.5190  -26.2630 C   0  0  0  0  0  0  0  0  0  0  0  0
   -0.8390   23.8060  -27.5430 C   0  0  0  0  0  0  0  0  0  0  0  0
   -1.4950   25.0160  -27.7990 C   0  0  0  0  0  0  0  0  0  0  0  0
   -1.9860   25.2660  -29.1220 N   0  0  0  0  0  0  0  0  0  0  0  0
   -3.0980   24.6160  -29.7480 C   0  0  0  0  0  0  0  0  0  0  0  0
   -3.3450   23.4150  -29.4610 O   0  0  0  0  0  0  0  0  0  0  0  0
   -3.8880   25.3000  -30.7270 N   0  0  0  0  0  0  0  0  0  0  0  0
   -5.3370   25.4420  -30.6430 C   0  0  0  0  0  0  0  0  0  0  0  0
   -6.0070   24.1240  -30.9180 C   0  0  0  0  0  0  0  0  0  0  0  0
   -5.6900   23.3870  -32.0700 C   0  0  0  0  0  0  0  0  0  0  0  0
   -6.3330   22.1740  -32.3310 C   0  0  0  0  0  0  0  0  0  0  0  0
   -7.2940   21.6760  -31.4400 C   0  0  0  0  0  0  0  0  0  0  0  0
   -8.0140   20.3940  -31.7410 C   0  0  0  0  0  0  0  0  0  0  0  0
   -7.6290   22.4230  -30.3000 C   0  0  0  0  0  0  0  0  0  0  0  0
   -6.9860   23.6370  -30.0390 C   0  0  0  0  0  0  0  0  0  0  0  0
   -1.7100   25.9200  -26.7420 C   0  0  0  0  0  0  0  0  0  0  0  0
   -0.9349   26.6148  -22.3565 H   0  0  0  0  0  0  0  0  0  0  0  0
    0.3589   25.9800  -23.4288 H   0  0  0  0  0  0  0  0  0  0  0  0
   -0.0275   27.7343  -23.4288 H   0  0  0  0  0  0  0  0  0  0  0  0
   -0.1612   24.2041  -24.2182 H   0  0  0  0  0  0  0  0  0  0  0  0
    0.1650   22.5717  -26.0735 H   0  0  0  0  0  0  0  0  0  0  0  0
   -0.6994   23.0772  -28.3550 H   0  0  0  0  0  0  0  0  0  0  0  0
   -5.6102   25.7845  -29.6340 H   0  0  0  0  0  0  0  0  0  0  0  0
   -5.6689   26.1756  -31.3925 H   0  0  0  0  0  0  0  0  0  0  0  0
   -4.9316   23.7662  -32.7708 H   0  0  0  0  0  0  0  0  0  0  0  0
   -6.0838   21.6071  -33.2401 H   0  0  0  0  0  0  0  0  0  0  0  0
   -8.2917   19.8995  -30.7985 H   0  0  0  0  0  0  0  0  0  0  0  0
   -8.9221   20.6113  -32.3225 H   0  0  0  0  0  0  0  0  0  0  0  0
   -7.3559   19.7317  -32.3225 H   0  0  0  0  0  0  0  0  0  0  0  0
   -8.4004   22.0520  -29.6091 H   0  0  0  0  0  0  0  0  0  0  0  0
   -7.2492   24.2132  -29.1397 H   0  0  0  0  0  0  0  0  0  0  0  0
   -2.2582   26.8556  -26.9266 H   0  0  0  0  0  0  0  0  0  0  0  0
  1  2  1  0
  2  3  1  0
  3  4  2  0
  4  5  1  0
  5  6  2  0
  6  7  1  0
  7  8  1  0
  8  9  1  0
  9 10  2  0
  9 11  1  0
 11 12  1  0
 12 13  1  0
 13 14  2  0
 14 15  1  0
 15 16  2  0
 16 17  1  0
 16 18  1  0
 18 19  2  0
  7 20  2  0
 20  3  1  0
 19 13  1  0
  1 21  1  0
  1 22  1  0
  1 23  1  0
  4 24  1  0
  5 25  1  0
  6 26  1  0
 12 27  1  0
 12 28  1  0
 14 29  1  0
 15 30  1  0
 17 31  1  0
 17 32  1  0
 17 33  1  0
 18 34  1  0
 19 35  1  0
 20 36  1  0
M  CHG  2   8  -1  11  -1
M  END
>  <UniqueID>  (32) 
30

>  <SMILES>  (32) 
COc1cccc([N-]C(=O)[N-]Cc2ccc(C)cc2)c1

>  <Energy>  (32) 
35.67491133371543

>  <Genealogy>  (32) 
COc1cccc([N-]C(=O)[N-]Cc2ccc(C)cc2)c1 (protonated)
COc1cccc([N-]C(=O)[N-]Cc2ccc(C)cc2)c1 (3D coordinates assigned)
COc1cccc([N-]C(=O)[N-]Cc2ccc(C)cc2)c1 (optimized conformer: 35.67491133371543 kcal/mol)

>  <smiles>  (32) 
COc1cccc(NC(=O)NCc2ccc(C)cc2)c1

>  <score_type>  (32) 
oracle

>  <origin>  (32) 
adgpu

>  <m_score__min__energy>  (32) 
-10.26

>  <m_primary>  (32) 
energy

$$$$
32:0
     RDKit          3D

 30 31  0  0  0  0  0  0  0  0999 V2000
   -8.2850   20.2650  -32.2720 C   0  0  0  0  0  0  0  0  0  0  0  0
   -7.5000   21.3990  -31.6830 C   0  0  0  0  0  0  0  0  0  0  0  0
   -6.3600   21.8860  -32.3400 C   0  0  0  0  0  0  0  0  0  0  0  0
   -5.6490   22.9680  -31.8120 C   0  0  0  0  0  0  0  0  0  0  0  0
   -6.0810   23.5840  -30.6300 C   0  0  0  0  0  0  0  0  0  0  0  0
   -5.2020   24.9580  -29.9660 S   0  0  0  0  0  0  0  0  0  0  0  0
   -6.1170   26.1360  -29.7760 O   0  0  0  0  0  0  0  0  0  0  0  0
   -4.1080   25.3390  -30.9240 O   0  0  0  0  0  0  0  0  0  0  0  0
   -4.5000   24.5330  -28.4370 N   0  0  0  0  0  0  0  0  0  0  0  0
   -3.6700   23.3760  -28.2270 C   0  0  0  0  0  0  0  0  0  0  0  0
   -3.8740   22.1730  -28.9330 C   0  0  0  0  0  0  0  0  0  0  0  0
   -3.0420   21.0720  -28.7080 C   0  0  0  0  0  0  0  0  0  0  0  0
   -2.0030   21.1550  -27.7760 C   0  0  0  0  0  0  0  0  0  0  0  0
   -0.8690   19.6480  -27.4720 Br  0  0  0  0  0  0  0  0  0  0  0  0
   -1.7970   22.3400  -27.0670 C   0  0  0  0  0  0  0  0  0  0  0  0
   -2.6270   23.4440  -27.2890 C   0  0  0  0  0  0  0  0  0  0  0  0
   -7.2260   23.1070  -29.9780 C   0  0  0  0  0  0  0  0  0  0  0  0
   -7.9370   22.0260  -30.5060 C   0  0  0  0  0  0  0  0  0  0  0  0
   -8.7088   19.6528  -31.4622 H   0  0  0  0  0  0  0  0  0  0  0  0
   -9.0995   20.6664  -32.8929 H   0  0  0  0  0  0  0  0  0  0  0  0
   -7.6225   19.6440  -32.8929 H   0  0  0  0  0  0  0  0  0  0  0  0
   -6.0239   21.4143  -33.2751 H   0  0  0  0  0  0  0  0  0  0  0  0
   -4.7487   23.3364  -32.3256 H   0  0  0  0  0  0  0  0  0  0  0  0
   -4.6410   25.2050  -27.6490 H   0  0  0  0  0  0  0  0  0  0  0  0
   -4.6920   22.1001  -29.6648 H   0  0  0  0  0  0  0  0  0  0  0  0
   -3.2053   20.1380  -29.2657 H   0  0  0  0  0  0  0  0  0  0  0  0
   -0.9807   22.4056  -26.3326 H   0  0  0  0  0  0  0  0  0  0  0  0
   -2.4613   24.3732  -26.7241 H   0  0  0  0  0  0  0  0  0  0  0  0
   -7.5662   23.5850  -29.0476 H   0  0  0  0  0  0  0  0  0  0  0  0
   -8.8429   21.6651  -29.9970 H   0  0  0  0  0  0  0  0  0  0  0  0
  1  2  1  0
  2  3  2  0
  3  4  1  0
  4  5  2  0
  5  6  1  0
  6  7  2  0
  6  8  2  0
  6  9  1  0
  9 10  1  0
 10 11  2  0
 11 12  1  0
 12 13  2  0
 13 14  1  0
 13 15  1  0
 15 16  2  0
  5 17  1  0
 17 18  2  0
 18  2  1  0
 16 10  1  0
  1 19  1  0
  1 20  1  0
  1 21  1  0
  3 22  1  0
  4 23  1  0
  9 24  1  0
 11 25  1  0
 12 26  1  0
 15 27  1  0
 16 28  1  0
 17 29  1  0
 18 30  1  0
M  END
>  <UniqueID>  (33) 
31

>  <SMILES>  (33) 
Cc1ccc(S(=O)(=O)Nc2ccc(Br)cc2)cc1

>  <Energy>  (33) 
32.13944080638602

>  <Genealogy>  (33) 
Cc1ccc(S(=O)(=O)Nc2ccc(Br)cc2)cc1 (3D coordinates assigned)
Cc1ccc(S(=O)(=O)Nc2ccc(Br)cc2)cc1 (optimized conformer: 32.13944080638602 kcal/mol)

>  <smiles>  (33) 
Cc1ccc(S(=O)(=O)Nc2ccc(Br)cc2)cc1

>  <score_type>  (33) 
oracle

>  <origin>  (33) 
adgpu

>  <m_score__min__energy>  (33) 
-8.1699999999999999

>  <m_primary>  (33) 
energy

$$$$
33:0
     RDKit          3D

 31 32  0  0  0  0  0  0  0  0999 V2000
   -2.2730   25.4130  -28.9580 O   0  0  0  0  0  0  0  0  0  0  0  0
   -3.0150   24.6610  -29.6480 C   0  0  0  0  0  0  0  0  0  0  0  0
   -3.8390   25.2240  -30.6740 N   0  0  0  0  0  0  0  0  0  0  0  0
   -5.2160   25.6600  -30.4630 C   0  0  0  0  0  0  0  0  0  0  0  0
   -5.9750   24.6740  -29.5700 C   0  0  0  0  0  0  0  0  0  0  0  0
   -6.5300   23.5220  -30.3680 C   0  0  0  0  0  0  0  0  0  0  0  0
   -5.9720   23.1920  -31.6140 C   0  0  0  0  0  0  0  0  0  0  0  0
   -6.4600   22.0990  -32.3370 C   0  0  0  0  0  0  0  0  0  0  0  0
   -7.5020   21.3230  -31.8170 C   0  0  0  0  0  0  0  0  0  0  0  0
   -8.1100   19.9490  -32.7230 Cl  0  0  0  0  0  0  0  0  0  0  0  0
   -8.0540   21.6410  -30.5730 C   0  0  0  0  0  0  0  0  0  0  0  0
   -7.5700   22.7330  -29.8490 C   0  0  0  0  0  0  0  0  0  0  0  0
   -3.0370   23.2020  -29.3930 C   0  0  0  0  0  0  0  0  0  0  0  0
   -3.1280   22.7080  -28.0770 C   0  0  0  0  0  0  0  0  0  0  0  0
   -3.1570   21.3300  -27.8400 C   0  0  0  0  0  0  0  0  0  0  0  0
   -3.0970   20.4320  -28.9080 C   0  0  0  0  0  0  0  0  0  0  0  0
   -3.0090   20.9110  -30.2170 C   0  0  0  0  0  0  0  0  0  0  0  0
   -2.9790   22.2880  -30.4610 C   0  0  0  0  0  0  0  0  0  0  0  0
   -5.2101   26.6493  -29.9821 H   0  0  0  0  0  0  0  0  0  0  0  0
   -5.7211   25.7081  -31.4390 H   0  0  0  0  0  0  0  0  0  0  0  0
   -5.2879   24.2816  -28.8059 H   0  0  0  0  0  0  0  0  0  0  0  0
   -6.8158   25.2076  -29.1028 H   0  0  0  0  0  0  0  0  0  0  0  0
   -5.1481   23.7955  -32.0226 H   0  0  0  0  0  0  0  0  0  0  0  0
   -6.0243   21.8489  -33.3156 H   0  0  0  0  0  0  0  0  0  0  0  0
   -8.8716   21.0298  -30.1631 H   0  0  0  0  0  0  0  0  0  0  0  0
   -8.0050   22.9762  -28.8684 H   0  0  0  0  0  0  0  0  0  0  0  0
   -3.1765   23.4097  -27.2313 H   0  0  0  0  0  0  0  0  0  0  0  0
   -3.2273   20.9523  -26.8093 H   0  0  0  0  0  0  0  0  0  0  0  0
   -3.1190   19.3487  -28.7184 H   0  0  0  0  0  0  0  0  0  0  0  0
   -2.9632   20.2036  -31.0581 H   0  0  0  0  0  0  0  0  0  0  0  0
   -2.9096   22.6586  -31.4944 H   0  0  0  0  0  0  0  0  0  0  0  0
  1  2  2  0
  2  3  1  0
  3  4  1  0
  4  5  1  0
  5  6  1  0
  6  7  2  0
  7  8  1  0
  8  9  2  0
  9 10  1  0
  9 11  1  0
 11 12  2  0
  2 13  1  0
 13 14  2  0
 14 15  1  0
 15 16  2  0
 16 17  1  0
 17 18  2  0
 12  6  1  0
 18 13  1  0
  4 19  1  0
  4 20  1  0
  5 21  1  0
  5 22  1  0
  7 23  1  0
  8 24  1  0
 11 25  1  0
 12 26  1  0
 14 27  1  0
 15 28  1  0
 16 29  1  0
 17 30  1  0
 18 31  1  0
M  CHG  1   3  -1
M  END
>  <UniqueID>  (34) 
32

>  <SMILES>  (34) 
O=C([N-]CCc1ccc(Cl)cc1)c1ccccc1

>  <Energy>  (34) 
27.336462633278884

>  <Genealogy>  (34) 
O=C([N-]CCc1ccc(Cl)cc1)c1ccccc1 (protonated)
O=C([N-]CCc1ccc(Cl)cc1)c1ccccc1 (3D coordinates assigned)
O=C([N-]CCc1ccc(Cl)cc1)c1ccccc1 (optimized conformer: 27.336462633278884 kcal/mol)

>  <smiles>  (34) 
O=C(NCCc1ccc(Cl)cc1)c1ccccc1

>  <score_type>  (34) 
oracle

>  <origin>  (34) 
adgpu

>  <m_score__min__energy>  (34) 
-8.9299999999999997

>  <m_primary>  (34) 
energy

$$$$
34:0
     RDKit          3D

 33 33  0  0  0  0  0  0  0  0999 V2000
   -4.4330   23.8930  -29.0490 C   0  0  0  0  0  0  0  0  0  0  0  0
   -3.6030   24.9230  -29.7380 C   0  0  0  0  0  0  0  0  0  0  0  0
   -3.9820   25.3870  -30.8460 O   0  0  0  0  0  0  0  0  0  0  0  0
   -2.3330   25.2890  -29.1830 N   0  0  0  0  0  0  0  0  0  0  0  0
   -1.7910   24.8530  -27.9280 C   0  0  0  0  0  0  0  0  0  0  0  0
   -1.5100   23.5040  -27.6690 C   0  0  0  0  0  0  0  0  0  0  0  0
   -0.9800   23.1220  -26.4360 C   0  0  0  0  0  0  0  0  0  0  0  0
   -0.7040   24.0770  -25.4440 C   0  0  0  0  0  0  0  0  0  0  0  0
   -0.1620   23.6020  -24.1230 C   0  0  0  0  0  0  0  0  0  0  0  0
   -0.9130   25.4520  -25.7270 C   0  0  0  0  0  0  0  0  0  0  0  0
   -0.5440   26.7230  -24.5350 S   0  0  0  0  0  0  0  0  0  0  0  0
   -1.6350   26.7900  -23.5020 O   0  0  0  0  0  0  0  0  0  0  0  0
   -0.4800   28.0380  -25.2640 O   0  0  0  0  0  0  0  0  0  0  0  0
    0.9750   26.4470  -23.7110 N   0  0  0  0  0  0  0  0  0  0  0  0
    1.3880   27.6610  -22.9900 C   0  0  0  0  0  0  0  0  0  0  0  0
    2.0060   26.0630  -24.6880 C   0  0  0  0  0  0  0  0  0  0  0  0
   -1.4780   25.8140  -26.9620 C   0  0  0  0  0  0  0  0  0  0  0  0
   -4.3364   24.0128  -27.9598 H   0  0  0  0  0  0  0  0  0  0  0  0
   -5.4867   24.0168  -29.3395 H   0  0  0  0  0  0  0  0  0  0  0  0
   -4.0880   22.8897  -29.3395 H   0  0  0  0  0  0  0  0  0  0  0  0
   -1.7079   22.7447  -28.4399 H   0  0  0  0  0  0  0  0  0  0  0  0
   -0.7758   22.0593  -26.2385 H   0  0  0  0  0  0  0  0  0  0  0  0
   -0.7146   24.0863  -23.3044 H   0  0  0  0  0  0  0  0  0  0  0  0
   -0.2796   22.5108  -24.0495 H   0  0  0  0  0  0  0  0  0  0  0  0
    0.9044   23.8617  -24.0495 H   0  0  0  0  0  0  0  0  0  0  0  0
    0.8630   25.6600  -23.0330 H   0  0  0  0  0  0  0  0  0  0  0  0
    1.3272   27.4824  -21.9063 H   0  0  0  0  0  0  0  0  0  0  0  0
    2.4231   27.9149  -23.2623 H   0  0  0  0  0  0  0  0  0  0  0  0
    0.7225   28.4934  -23.2623 H   0  0  0  0  0  0  0  0  0  0  0  0
    2.9082   25.7270  -24.1560 H   0  0  0  0  0  0  0  0  0  0  0  0
    1.6268   25.2458  -25.3192 H   0  0  0  0  0  0  0  0  0  0  0  0
    2.2537   26.9291  -25.3192 H   0  0  0  0  0  0  0  0  0  0  0  0
   -1.6780   26.8749  -27.1728 H   0  0  0  0  0  0  0  0  0  0  0  0
  1  2  1  0
  2  3  2  0
  2  4  1  0
  4  5  1  0
  5  6  2  0
  6  7  1  0
  7  8  2  0
  8  9  1  0
  8 10  1  0
 10 11  1  0
 11 12  2  0
 11 13  2  0
 11 14  1  0
 14 15  1  0
 14 16  1  0
 10 17  2  0
 17  5  1  0
  1 18  1  0
  1 19  1  0
  1 20  1  0
  6 21  1  0
  7 22  1  0
  9 23  1  0
  9 24  1  0
  9 25  1  0
 14 26  1  0
 15 27  1  0
 15 28  1  0
 15 29  1  0
 16 30  1  0
 16 31  1  0
 16 32  1  0
 17 33  1  0
M  CHG  2   4  -1  14   1
M  END
>  <UniqueID>  (35) 
33

>  <SMILES>  (35) 
CC(=O)[N-]c1ccc(C)c(S(=O)(=O)[NH+](C)C)c1

>  <Energy>  (35) 
32.994286523172306

>  <Genealogy>  (35) 
CC(=O)[N-]c1ccc(C)c(S(=O)(=O)[NH+](C)C)c1 (protonated)
CC(=O)[N-]c1ccc(C)c(S(=O)(=O)[NH+](C)C)c1 (3D coordinates assigned)
CC(=O)[N-]c1ccc(C)c(S(=O)(=O)[NH+](C)C)c1 (optimized conformer: 32.994286523172306 kcal/mol)

>  <smiles>  (35) 
CC(=O)Nc1ccc(C)c(S(=O)(=O)N(C)C)c1

>  <score_type>  (35) 
oracle

>  <origin>  (35) 
adgpu

>  <m_score__min__energy>  (35) 
-8.4100000000000001

>  <m_primary>  (35) 
energy

$$$$
35:0
     RDKit          3D

 44 46  0  0  0  0  0  0  0  0999 V2000
   -3.8680   25.1600  -30.8240 O   0  0  0  0  0  0  0  0  0  0  0  0
   -4.7300   24.3350  -30.4180 C   0  0  0  0  0  0  0  0  0  0  0  0
   -5.9860   24.8300  -29.7800 C   0  0  0  0  0  0  0  0  0  0  0  0
   -6.9800   23.8340  -29.9160 O   0  0  0  0  0  0  0  0  0  0  0  0
   -7.4580   23.7710  -31.2460 C   0  0  0  0  0  0  0  0  0  0  0  0
   -7.7000   22.3390  -31.6480 C   0  0  0  0  0  0  0  0  0  0  0  0
   -6.7660   21.6510  -32.4390 C   0  0  0  0  0  0  0  0  0  0  0  0
   -7.0040   20.3240  -32.8150 C   0  0  0  0  0  0  0  0  0  0  0  0
   -8.1740   19.6790  -32.4040 C   0  0  0  0  0  0  0  0  0  0  0  0
   -9.1140   20.3620  -31.6300 C   0  0  0  0  0  0  0  0  0  0  0  0
   -8.8800   21.6880  -31.2510 C   0  0  0  0  0  0  0  0  0  0  0  0
   -4.5640   22.9260  -30.6390 N   0  0  0  0  0  0  0  0  0  0  0  0
   -3.3950   22.3310  -31.2320 C   0  0  0  0  0  0  0  0  0  0  0  0
   -3.4410   21.8150  -32.5400 C   0  0  0  0  0  0  0  0  0  0  0  0
   -2.3120   21.2170  -33.1060 C   0  0  0  0  0  0  0  0  0  0  0  0
   -1.1250   21.1330  -32.3790 C   0  0  0  0  0  0  0  0  0  0  0  0
   -1.0560   21.6630  -31.0900 C   0  0  0  0  0  0  0  0  0  0  0  0
   -2.1760   22.2810  -30.5170 C   0  0  0  0  0  0  0  0  0  0  0  0
   -2.0330   22.9550  -28.8540 S   0  0  0  0  0  0  0  0  0  0  0  0
   -1.9460   21.3360  -28.0830 C   0  0  0  0  0  0  0  0  0  0  0  0
   -3.1100   20.7500  -27.5670 C   0  0  0  0  0  0  0  0  0  0  0  0
   -3.0510   19.4940  -26.9540 C   0  0  0  0  0  0  0  0  0  0  0  0
   -1.8300   18.8230  -26.8500 C   0  0  0  0  0  0  0  0  0  0  0  0
   -0.6660   19.4070  -27.3580 C   0  0  0  0  0  0  0  0  0  0  0  0
   -0.7240   20.6610  -27.9730 C   0  0  0  0  0  0  0  0  0  0  0  0
   -5.8061   25.0318  -28.7137 H   0  0  0  0  0  0  0  0  0  0  0  0
   -6.3150   25.7602  -30.2664 H   0  0  0  0  0  0  0  0  0  0  0  0
   -8.4009   24.3328  -31.3196 H   0  0  0  0  0  0  0  0  0  0  0  0
   -6.7049   24.2086  -31.9178 H   0  0  0  0  0  0  0  0  0  0  0  0
   -5.8446   22.1563  -32.7641 H   0  0  0  0  0  0  0  0  0  0  0  0
   -6.2697   19.7882  -33.4345 H   0  0  0  0  0  0  0  0  0  0  0  0
   -8.3543   18.6324  -32.6906 H   0  0  0  0  0  0  0  0  0  0  0  0
  -10.0399   19.8567  -31.3178 H   0  0  0  0  0  0  0  0  0  0  0  0
   -9.6223   22.2227  -30.6402 H   0  0  0  0  0  0  0  0  0  0  0  0
   -5.3970   22.3250  -30.4640 H   0  0  0  0  0  0  0  0  0  0  0  0
   -4.3724   21.8828  -33.1213 H   0  0  0  0  0  0  0  0  0  0  0  0
   -2.3597   20.8116  -34.1274 H   0  0  0  0  0  0  0  0  0  0  0  0
   -0.2423   20.6486  -32.8220 H   0  0  0  0  0  0  0  0  0  0  0  0
   -0.1174   21.5954  -30.5204 H   0  0  0  0  0  0  0  0  0  0  0  0
   -4.0715   21.2787  -27.6442 H   0  0  0  0  0  0  0  0  0  0  0  0
   -3.9666   19.0343  -26.5536 H   0  0  0  0  0  0  0  0  0  0  0  0
   -1.7846   17.8351  -26.3683 H   0  0  0  0  0  0  0  0  0  0  0  0
    0.2957   18.8797  -27.2738 H   0  0  0  0  0  0  0  0  0  0  0  0
    0.1932   21.1190  -28.3718 H   0  0  0  0  0  0  0  0  0  0  0  0
  1  2  2  0
  2  3  1  0
  3  4  1  0
  4  5  1  0
  5  6  1  0
  6  7  2  0
  7  8  1  0
  8  9  2  0
  9 10  1  0
 10 11  2  0
  2 12  1  0
 12 13  1  0
 13 14  2  0
 14 15  1  0
 15 16  2  0
 16 17  1  0
 17 18  2  0
 18 19  1  0
 19 20  1  0
 20 21  2  0
 21 22  1  0
 22 23  2  0
 23 24  1  0
 24 25  2  0
 11  6  1  0
 18 13  1  0
 25 20  1  0
  3 26  1  0
  3 27  1  0
  5 28  1  0
  5 29  1  0
  7 30  1  0
  8 31  1  0
  9 32  1  0
 10 33  1  0
 11 34  1  0
 12 35  1  0
 14 36  1  0
 15 37  1  0
 16 38  1  0
 17 39  1  0
 21 40  1  0
 22 41  1  0
 23 42  1  0
 24 43  1  0
 25 44  1  0
M  END
>  <UniqueID>  (36) 
34

>  <SMILES>  (36) 
O=C(COCc1ccccc1)Nc1ccccc1Sc1ccccc1

>  <Energy>  (36) 
44.33620910258559

>  <Genealogy>  (36) 
O=C(COCc1ccccc1)Nc1ccccc1Sc1ccccc1 (3D coordinates assigned)
O=C(COCc1ccccc1)Nc1ccccc1Sc1ccccc1 (optimized conformer: 44.33620910258559 kcal/mol)

>  <smiles>  (36) 
O=C(COCc1ccccc1)Nc1ccccc1Sc1ccccc1

>  <score_type>  (36) 
oracle

>  <origin>  (36) 
adgpu

>  <m_score__min__energy>  (36) 
-9.5500000000000007

>  <m_primary>  (36) 
energy

$$$$
36:0
     RDKit          3D

 24 24  0  0  0  0  0  0  0  0999 V2000
   -6.9310   23.7490  -30.6310 C   0  0  0  0  0  0  0  0  0  0  0  0
   -6.0570   24.5730  -31.2140 C   0  0  0  0  0  0  0  0  0  0  0  0
   -5.2550   25.5510  -30.4030 C   0  0  0  0  0  0  0  0  0  0  0  0
   -3.8590   25.2830  -30.5250 O   0  0  0  0  0  0  0  0  0  0  0  0
   -3.1890   24.1820  -29.9620 C   0  0  0  0  0  0  0  0  0  0  0  0
   -3.6130   22.8540  -30.1750 C   0  0  0  0  0  0  0  0  0  0  0  0
   -2.9170   21.7910  -29.5960 C   0  0  0  0  0  0  0  0  0  0  0  0
   -1.7980   22.0370  -28.8020 C   0  0  0  0  0  0  0  0  0  0  0  0
   -1.3690   23.3470  -28.5820 C   0  0  0  0  0  0  0  0  0  0  0  0
   -2.0620   24.4290  -29.1610 C   0  0  0  0  0  0  0  0  0  0  0  0
   -1.6610   25.7600  -28.9650 O   0  0  0  0  0  0  0  0  0  0  0  0
   -0.9270   26.2230  -27.8360 C   0  0  0  0  0  0  0  0  0  0  0  0
   -7.5093   23.0396  -31.2411 H   0  0  0  0  0  0  0  0  0  0  0  0
   -7.0727   23.7796  -29.5406 H   0  0  0  0  0  0  0  0  0  0  0  0
   -5.9220   24.5352  -32.3050 H   0  0  0  0  0  0  0  0  0  0  0  0
   -5.4595   26.5706  -30.7616 H   0  0  0  0  0  0  0  0  0  0  0  0
   -5.5426   25.4530  -29.3458 H   0  0  0  0  0  0  0  0  0  0  0  0
   -4.4959   22.6547  -30.8000 H   0  0  0  0  0  0  0  0  0  0  0  0
   -3.2524   20.7574  -29.7668 H   0  0  0  0  0  0  0  0  0  0  0  0
   -1.2519   21.1971  -28.3478 H   0  0  0  0  0  0  0  0  0  0  0  0
   -0.4859   23.5357  -27.9538 H   0  0  0  0  0  0  0  0  0  0  0  0
   -1.4335   25.9035  -26.9133 H   0  0  0  0  0  0  0  0  0  0  0  0
    0.0889   25.8019  -27.8613 H   0  0  0  0  0  0  0  0  0  0  0  0
   -0.8695   27.3212  -27.8613 H   0  0  0  0  0  0  0  0  0  0  0  0
  1  2  2  0
  2  3  1  0
  3  4  1  0
  4  5  1  0
  5  6  2  0
  6  7  1  0
  7  8  2  0
  8  9  1  0
  9 10  2  0
 10 11  1  0
 11 12  1  0
 10  5  1  0
  1 13  1  0
  1 14  1  0
  2 15  1  0
  3 16  1  0
  3 17  1  0
  6 18  1  0
  7 19  1  0
  8 20  1  0
  9 21  1  0
 12 22  1  0
 12 23  1  0
 12 24  1  0
M  END
>  <UniqueID>  (37) 
35

>  <SMILES>  (37) 
C=CCOc1ccccc1OC

>  <Energy>  (37) 
19.088228904807256

>  <Genealogy>  (37) 
C=CCOc1ccccc1OC (3D coordinates assigned)
C=CCOc1ccccc1OC (optimized conformer: 19.088228904807256 kcal/mol)

>  <smiles>  (37) 
C=CCOc1ccccc1OC

>  <score_type>  (37) 
oracle

>  <origin>  (37) 
adgpu

>  <m_score__min__energy>  (37) 
-5.6100000000000003

>  <m_primary>  (37) 
energy

$$$$
37:0
     RDKit          3D

 24 25  0  0  0  0  0  0  0  0999 V2000
   -7.0792   20.4931  -33.5119 H   0  0  0  0  0  0  0  0  0  0  0  0
   -6.9400   21.2310  -32.7080 C   0  0  0  0  0  0  0  0  0  0  0  0
   -5.7350   21.8410  -32.5460 N   0  0  0  0  0  0  0  0  0  0  0  0
   -5.5070   22.7540  -31.5630 C   0  0  0  0  0  0  0  0  0  0  0  0
   -4.3240   23.2970  -31.4820 N   0  0  0  0  0  0  0  0  0  0  0  0
   -3.8510   24.2110  -30.4800 C   0  0  0  0  0  0  0  0  0  0  0  0
   -3.9980   25.4460  -30.6760 O   0  0  0  0  0  0  0  0  0  0  0  0
   -3.1080   23.7390  -29.2810 C   0  0  0  0  0  0  0  0  0  0  0  0
   -3.4820   22.5350  -28.6540 C   0  0  0  0  0  0  0  0  0  0  0  0
   -4.3255   21.9517  -29.0519 H   0  0  0  0  0  0  0  0  0  0  0  0
   -2.7900   22.0750  -27.5300 C   0  0  0  0  0  0  0  0  0  0  0  0
   -3.0927   21.1352  -27.0451 H   0  0  0  0  0  0  0  0  0  0  0  0
   -1.7150   22.8070  -27.0220 C   0  0  0  0  0  0  0  0  0  0  0  0
   -1.1711   22.4432  -26.1378 H   0  0  0  0  0  0  0  0  0  0  0  0
   -1.3300   24.0010  -27.6360 C   0  0  0  0  0  0  0  0  0  0  0  0
   -0.4816   24.5745  -27.2344 H   0  0  0  0  0  0  0  0  0  0  0  0
   -2.0190   24.4710  -28.7600 C   0  0  0  0  0  0  0  0  0  0  0  0
   -1.6210   25.6710  -29.3380 O   0  0  0  0  0  0  0  0  0  0  0  0
   -6.5650   23.1030  -30.6960 C   0  0  0  0  0  0  0  0  0  0  0  0
   -6.4115   23.8553  -29.9083 H   0  0  0  0  0  0  0  0  0  0  0  0
   -7.8080   22.4850  -30.8470 C   0  0  0  0  0  0  0  0  0  0  0  0
   -8.6364   22.7429  -30.1708 H   0  0  0  0  0  0  0  0  0  0  0  0
   -7.9990   21.5410  -31.8550 C   0  0  0  0  0  0  0  0  0  0  0  0
   -8.9740   21.0462  -31.9762 H   0  0  0  0  0  0  0  0  0  0  0  0
  1  2  1  0
  2  3  1  0
  3  4  1  0
  4  5  2  0
  5  6  1  0
  6  7  2  0
  6  8  1  0
  8  9  2  0
  9 10  1  0
  9 11  1  0
 11 12  1  0
 11 13  2  0
 13 14  1  0
 13 15  1  0
 15 16  1  0
 15 17  2  0
 17 18  1  0
  4 19  1  0
 19 20  1  0
 19 21  2  0
 21 22  1  0
 21 23  1  0
 23 24  1  0
 23  2  2  0
 17  8  1  0
M  CHG  2   3  -1  18  -1
M  END
>  <UniqueID>  (38) 
36

>  <SMILES>  (38) 
O=C(/N=c1\cccc[n-]1)c1ccccc1[O-]

>  <Energy>  (38) 
37.61727061446566

>  <Genealogy>  (38) 
O=C(N=c1cccc[n-]1)c1ccccc1[O-] (protonated)
O=C(/N=c1\cccc[n-]1)c1ccccc1[O-] (cis-trans isomerization)
O=C(/N=c1\cccc[n-]1)c1ccccc1[O-] (3D coordinates assigned)
O=C(/N=c1\cccc[n-]1)c1ccccc1[O-] (optimized conformer: 37.61727061446566 kcal/mol)

>  <smiles>  (38) 
O=C(N=c1cccc[nH]1)c1ccccc1O

>  <score_type>  (38) 
oracle

>  <origin>  (38) 
adgpu

>  <m_score__min__energy>  (38) 
-10.199999999999999

>  <m_primary>  (38) 
energy

$$$$
38:0
     RDKit          3D

 27 28  0  0  0  0  0  0  0  0999 V2000
   -2.3790   25.6710  -25.9770 C   0  0  0  0  0  0  0  0  0  0  0  0
   -1.8120   24.6330  -26.9340 C   0  0  0  0  0  0  0  0  0  0  0  0
   -1.6060   25.3620  -28.5930 S   0  0  0  0  0  0  0  0  0  0  0  0
   -3.0010   24.4750  -29.2830 C   0  0  0  0  0  0  0  0  0  0  0  0
   -3.5190   23.3550  -28.6370 C   0  0  0  0  0  0  0  0  0  0  0  0
   -4.6040   22.6860  -29.2010 C   0  0  0  0  0  0  0  0  0  0  0  0
   -5.1590   23.1610  -30.4000 C   0  0  0  0  0  0  0  0  0  0  0  0
   -6.3130   22.4890  -31.0530 C   0  0  0  0  0  0  0  0  0  0  0  0
   -7.6120   23.0320  -30.9890 C   0  0  0  0  0  0  0  0  0  0  0  0
   -8.6810   22.3870  -31.6180 C   0  0  0  0  0  0  0  0  0  0  0  0
   -8.4690   21.1990  -32.3210 C   0  0  0  0  0  0  0  0  0  0  0  0
   -7.1850   20.6570  -32.4010 C   0  0  0  0  0  0  0  0  0  0  0  0
   -6.1120   21.2980  -31.7760 C   0  0  0  0  0  0  0  0  0  0  0  0
   -4.6030   24.2580  -30.9860 N   0  0  0  0  0  0  0  0  0  0  0  0
   -3.5620   24.8940  -30.4450 N   0  0  0  0  0  0  0  0  0  0  0  0
   -2.2029   25.3487  -24.9401 H   0  0  0  0  0  0  0  0  0  0  0  0
   -1.8838   26.6380  -26.1495 H   0  0  0  0  0  0  0  0  0  0  0  0
   -3.4602   25.7768  -26.1495 H   0  0  0  0  0  0  0  0  0  0  0  0
   -0.8349   24.2903  -26.5627 H   0  0  0  0  0  0  0  0  0  0  0  0
   -2.5062   23.7821  -26.9969 H   0  0  0  0  0  0  0  0  0  0  0  0
   -3.0772   23.0027  -27.6932 H   0  0  0  0  0  0  0  0  0  0  0  0
   -5.0216   21.7940  -28.7112 H   0  0  0  0  0  0  0  0  0  0  0  0
   -7.7859   23.9695  -30.4405 H   0  0  0  0  0  0  0  0  0  0  0  0
   -9.6920   22.8164  -31.5590 H   0  0  0  0  0  0  0  0  0  0  0  0
   -9.3127   20.6910  -32.8110 H   0  0  0  0  0  0  0  0  0  0  0  0
   -7.0174   19.7230  -32.9574 H   0  0  0  0  0  0  0  0  0  0  0  0
   -5.1020   20.8684  -31.8496 H   0  0  0  0  0  0  0  0  0  0  0  0
  1  2  1  0
  2  3  1  0
  3  4  1  0
  4  5  2  0
  5  6  1  0
  6  7  2  0
  7  8  1  0
  8  9  2  0
  9 10  1  0
 10 11  2  0
 11 12  1  0
 12 13  2  0
  7 14  1  0
 14 15  2  0
 15  4  1  0
 13  8  1  0
  1 16  1  0
  1 17  1  0
  1 18  1  0
  2 19  1  0
  2 20  1  0
  5 21  1  0
  6 22  1  0
  9 23  1  0
 10 24  1  0
 11 25  1  0
 12 26  1  0
 13 27  1  0
M  END
>  <UniqueID>  (39) 
37

>  <SMILES>  (39) 
CCSc1ccc(-c2ccccc2)nn1

>  <Energy>  (39) 
25.71936245019437

>  <Genealogy>  (39) 
CCSc1ccc(-c2ccccc2)nn1 (3D coordinates assigned)
CCSc1ccc(-c2ccccc2)nn1 (optimized conformer: 25.71936245019437 kcal/mol)

>  <smiles>  (39) 
CCSc1ccc(-c2ccccc2)nn1

>  <score_type>  (39) 
oracle

>  <origin>  (39) 
adgpu

>  <m_score__min__energy>  (39) 
-6.8099999999999996

>  <m_primary>  (39) 
energy

$$$$
39:0
     RDKit          3D

 53 56  0  0  0  0  0  0  0  0999 V2000
    1.0570   17.5900  -27.8190 C   0  0  0  0  0  0  0  0  0  0  0  0
   -0.0270   18.6250  -27.8640 C   0  0  0  0  0  0  0  0  0  0  0  0
    0.1460   19.7950  -28.6140 C   0  0  0  0  0  0  0  0  0  0  0  0
   -0.8390   20.7840  -28.6130 C   0  0  0  0  0  0  0  0  0  0  0  0
   -1.9960   20.6360  -27.8420 C   0  0  0  0  0  0  0  0  0  0  0  0
   -2.9210   21.6890  -27.8410 O   0  0  0  0  0  0  0  0  0  0  0  0
   -2.6210   23.0320  -28.1190 C   0  0  0  0  0  0  0  0  0  0  0  0
   -1.7580   23.8780  -27.4290 C   0  0  0  0  0  0  0  0  0  0  0  0
   -0.8280   23.5680  -26.3250 C   0  0  0  0  0  0  0  0  0  0  0  0
   -0.6130   22.3590  -26.0400 O   0  0  0  0  0  0  0  0  0  0  0  0
   -0.1200   24.6000  -25.6060 N   0  0  0  0  0  0  0  0  0  0  0  0
   -0.5310   26.0100  -25.6480 C   0  0  0  0  0  0  0  0  0  0  0  0
   -0.5220   26.6060  -24.2310 C   0  0  0  0  0  0  0  0  0  0  0  0
    0.6690   26.2420  -23.4230 N   0  0  0  0  0  0  0  0  0  0  0  0
    1.6850   25.4660  -24.1510 C   0  0  0  0  0  0  0  0  0  0  0  0
    1.0590   24.2330  -24.8130 C   0  0  0  0  0  0  0  0  0  0  0  0
   -1.7770   25.0550  -28.1590 C   0  0  0  0  0  0  0  0  0  0  0  0
   -2.5930   24.9160  -29.2210 N   0  0  0  0  0  0  0  0  0  0  0  0
   -3.1110   23.6970  -29.1870 N   0  0  0  0  0  0  0  0  0  0  0  0
   -3.9500   23.1730  -30.2320 C   0  0  0  0  0  0  0  0  0  0  0  0
   -3.7430   21.8590  -30.6890 C   0  0  0  0  0  0  0  0  0  0  0  0
   -4.5490   21.3240  -31.6980 C   0  0  0  0  0  0  0  0  0  0  0  0
   -5.5580   22.0980  -32.2720 C   0  0  0  0  0  0  0  0  0  0  0  0
   -5.7590   23.4130  -31.8420 C   0  0  0  0  0  0  0  0  0  0  0  0
   -4.9580   23.9540  -30.8310 C   0  0  0  0  0  0  0  0  0  0  0  0
   -5.1380   25.2520  -30.4820 F   0  0  0  0  0  0  0  0  0  0  0  0
   -2.2030   19.4360  -27.1160 C   0  0  0  0  0  0  0  0  0  0  0  0
   -3.4630   19.1750  -26.3390 C   0  0  0  0  0  0  0  0  0  0  0  0
   -1.1950   18.4570  -27.1080 C   0  0  0  0  0  0  0  0  0  0  0  0
    1.2996   17.3584  -26.7714 H   0  0  0  0  0  0  0  0  0  0  0  0
    0.7131   16.6766  -28.3263 H   0  0  0  0  0  0  0  0  0  0  0  0
    1.9536   17.9758  -28.3263 H   0  0  0  0  0  0  0  0  0  0  0  0
    1.0621   19.9352  -29.2065 H   0  0  0  0  0  0  0  0  0  0  0  0
   -0.7037   21.6883  -29.2245 H   0  0  0  0  0  0  0  0  0  0  0  0
    0.1674   26.5736  -26.2841 H   0  0  0  0  0  0  0  0  0  0  0  0
   -1.5490   26.0759  -26.0595 H   0  0  0  0  0  0  0  0  0  0  0  0
   -0.5575   27.7020  -24.3180 H   0  0  0  0  0  0  0  0  0  0  0  0
   -1.3962   26.1902  -23.7087 H   0  0  0  0  0  0  0  0  0  0  0  0
    1.1200   27.1150  -23.0650 H   0  0  0  0  0  0  0  0  0  0  0  0
    0.3620   25.6850  -22.5900 H   0  0  0  0  0  0  0  0  0  0  0  0
    2.1363   26.1017  -24.9270 H   0  0  0  0  0  0  0  0  0  0  0  0
    2.4511   25.1310  -23.4362 H   0  0  0  0  0  0  0  0  0  0  0  0
    1.8032   23.7626  -25.4725 H   0  0  0  0  0  0  0  0  0  0  0  0
    0.7452   23.5343  -24.0235 H   0  0  0  0  0  0  0  0  0  0  0  0
   -1.2115   25.9648  -27.9092 H   0  0  0  0  0  0  0  0  0  0  0  0
   -2.9410   21.2479  -30.2492 H   0  0  0  0  0  0  0  0  0  0  0  0
   -4.3875   20.2911  -32.0400 H   0  0  0  0  0  0  0  0  0  0  0  0
   -6.1949   21.6739  -33.0623 H   0  0  0  0  0  0  0  0  0  0  0  0
   -6.5501   24.0245  -32.3005 H   0  0  0  0  0  0  0  0  0  0  0  0
   -3.2454   19.2201  -25.2617 H   0  0  0  0  0  0  0  0  0  0  0  0
   -4.2150   19.9364  -26.5934 H   0  0  0  0  0  0  0  0  0  0  0  0
   -3.8507   18.1775  -26.5934 H   0  0  0  0  0  0  0  0  0  0  0  0
   -1.3242   17.5485  -26.5015 H   0  0  0  0  0  0  0  0  0  0  0  0
  1  2  1  0
  2  3  2  0
  3  4  1  0
  4  5  2  0
  5  6  1  0
  6  7  1  0
  7  8  2  0
  8  9  1  0
  9 10  2  0
  9 11  1  0
 11 12  1  0
 12 13  1  0
 13 14  1  0
 14 15  1  0
 15 16  1  0
  8 17  1  0
 17 18  2  0
 18 19  1  0
 19 20  1  0
 20 21  2  0
 21 22  1  0
 22 23  2  0
 23 24  1  0
 24 25  2  0
 25 26  1  0
  5 27  1  0
 27 28  1  0
 27 29  2  0
 29  2  1  0
 19  7  1  0
 25 20  1  0
 16 11  1  0
  1 30  1  0
  1 31  1  0
  1 32  1  0
  3 33  1  0
  4 34  1  0
 12 35  1  0
 12 36  1  0
 13 37  1  0
 13 38  1  0
 14 39  1  0
 14 40  1  0
 15 41  1  0
 15 42  1  0
 16 43  1  0
 16 44  1  0
 17 45  1  0
 21 46  1  0
 22 47  1  0
 23 48  1  0
 24 49  1  0
 28 50  1  0
 28 51  1  0
 28 52  1  0
 29 53  1  0
M  CHG  1  14   1
M  END
>  <UniqueID>  (40) 
38

>  <SMILES>  (40) 
Cc1ccc(Oc2c(C(=O)N3CC[NH2+]CC3)cnn2-c2ccccc2F)c(C)c1

>  <Energy>  (40) 
107.44656694549559

>  <Genealogy>  (40) 
Cc1ccc(Oc2c(C(=O)N3CC[NH2+]CC3)cnn2-c2ccccc2F)c(C)c1 (protonated)
Cc1ccc(Oc2c(C(=O)N3CC[NH2+]CC3)cnn2-c2ccccc2F)c(C)c1 (3D coordinates assigned)
Cc1ccc(Oc2c(C(=O)N3CC[NH2+]CC3)cnn2-c2ccccc2F)c(C)c1 (nonaromatic ring conformer: 107.44656694549559 kcal/mol)

>  <smiles>  (40) 
Cc1ccc(Oc2c(C(=O)N3CCNCC3)cnn2-c2ccccc2F)c(C)c1

>  <score_type>  (40) 
oracle

>  <origin>  (40) 
adgpu

>  <m_score__min__energy>  (40) 
-9.0399999999999991

>  <m_primary>  (40) 
energy

$$$$
40:0
     RDKit          3D

 35 38  0  0  0  0  0  0  0  0999 V2000
   -5.0400   26.2860  -31.0840 H   0  0  0  0  0  0  0  0  0  0  0  0
   -4.2370   25.6730  -30.8220 N   0  0  0  0  0  0  0  0  0  0  0  0
   -4.3420   24.3840  -30.8260 C   0  0  0  0  0  0  0  0  0  0  0  0
   -3.2750   23.6190  -30.4800 N   0  0  0  0  0  0  0  0  0  0  0  0
   -3.3530   22.2620  -30.4680 C   0  0  0  0  0  0  0  0  0  0  0  0
   -2.1560   21.4770  -30.1090 C   0  0  0  0  0  0  0  0  0  0  0  0
   -0.9550   21.4700  -30.8120 C   0  0  0  0  0  0  0  0  0  0  0  0
   -0.7591   22.0542  -31.7233 H   0  0  0  0  0  0  0  0  0  0  0  0
   -0.0620   20.6450  -30.2190 N   0  0  0  0  0  0  0  0  0  0  0  0
    0.9150   20.4530  -30.5330 H   0  0  0  0  0  0  0  0  0  0  0  0
   -0.6810   20.1430  -29.1360 C   0  0  0  0  0  0  0  0  0  0  0  0
   -0.1420   19.2720  -28.1910 C   0  0  0  0  0  0  0  0  0  0  0  0
    0.8818   18.8838  -28.2965 H   0  0  0  0  0  0  0  0  0  0  0  0
   -0.9470   18.9050  -27.0990 C   0  0  0  0  0  0  0  0  0  0  0  0
   -0.5568   18.2096  -26.3413 H   0  0  0  0  0  0  0  0  0  0  0  0
   -2.2540   19.4240  -26.9690 C   0  0  0  0  0  0  0  0  0  0  0  0
   -2.8723   19.1368  -26.1057 H   0  0  0  0  0  0  0  0  0  0  0  0
   -2.7710   20.3060  -27.9360 C   0  0  0  0  0  0  0  0  0  0  0  0
   -3.7826   20.7263  -27.8360 H   0  0  0  0  0  0  0  0  0  0  0  0
   -1.9610   20.6320  -29.0270 C   0  0  0  0  0  0  0  0  0  0  0  0
   -4.5490   21.6400  -30.8510 C   0  0  0  0  0  0  0  0  0  0  0  0
   -4.6227   20.5430  -30.8838 H   0  0  0  0  0  0  0  0  0  0  0  0
   -5.6510   22.4390  -31.1920 C   0  0  0  0  0  0  0  0  0  0  0  0
   -6.9510   21.8420  -31.5980 C   0  0  0  0  0  0  0  0  0  0  0  0
   -7.0100   20.6370  -32.3250 C   0  0  0  0  0  0  0  0  0  0  0  0
   -6.0791   20.1236  -32.6075 H   0  0  0  0  0  0  0  0  0  0  0  0
   -8.2430   20.0890  -32.6900 C   0  0  0  0  0  0  0  0  0  0  0  0
   -8.2781   19.1509  -33.2633 H   0  0  0  0  0  0  0  0  0  0  0  0
   -9.4300   20.7290  -32.3290 C   0  0  0  0  0  0  0  0  0  0  0  0
  -10.3989   20.2975  -32.6206 H   0  0  0  0  0  0  0  0  0  0  0  0
   -9.3860   21.9180  -31.5970 C   0  0  0  0  0  0  0  0  0  0  0  0
  -10.3214   22.4201  -31.3088 H   0  0  0  0  0  0  0  0  0  0  0  0
   -8.1560   22.4710  -31.2300 C   0  0  0  0  0  0  0  0  0  0  0  0
   -8.1290   23.4048  -30.6492 H   0  0  0  0  0  0  0  0  0  0  0  0
   -5.5140   23.7930  -31.1760 N   0  0  0  0  0  0  0  0  0  0  0  0
  1  2  1  0
  2  3  2  0
  3  4  1  0
  4  5  2  0
  5  6  1  0
  6  7  2  0
  7  8  1  0
  7  9  1  0
  9 10  1  0
  9 11  1  0
 11 12  2  0
 12 13  1  0
 12 14  1  0
 14 15  1  0
 14 16  2  0
 16 17  1  0
 16 18  1  0
 18 19  1  0
 18 20  2  0
  5 21  1  0
 21 22  1  0
 21 23  2  0
 23 24  1  0
 24 25  2  0
 25 26  1  0
 25 27  1  0
 27 28  1  0
 27 29  2  0
 29 30  1  0
 29 31  1  0
 31 32  1  0
 31 33  2  0
 33 34  1  0
 23 35  1  0
 35  3  1  0
 20  6  1  0
 33 24  1  0
 20 11  1  0
M  CHG  1  35  -1
M  END
>  <UniqueID>  (41) 
39

>  <SMILES>  (41) 
[H]/N=c1/nc(-c2c[nH]c3ccccc23)cc(-c2ccccc2)[n-]1

>  <Energy>  (41) 
80.99301091874867

>  <Genealogy>  (41) 
N=c1nc(-c2c[nH]c3ccccc23)cc(-c2ccccc2)[n-]1 (protonated)
[H]/N=c1/nc(-c2c[nH]c3ccccc23)cc(-c2ccccc2)[n-]1 (cis-trans isomerization)
[H]/N=c1/nc(-c2c[nH]c3ccccc23)cc(-c2ccccc2)[n-]1 (3D coordinates assigned)
[H]/N=c1/nc(-c2c[nH]c3ccccc23)cc(-c2ccccc2)[n-]1 (optimized conformer: 80.99301091874867 kcal/mol)

>  <smiles>  (41) 
N=c1nc(-c2c[nH]c3ccccc23)cc(-c2ccccc2)[nH]1

>  <score_type>  (41) 
oracle

>  <origin>  (41) 
adgpu

>  <m_score__min__energy>  (41) 
-9.6799999999999997

>  <m_primary>  (41) 
energy

$$$$
41:0
     RDKit          3D

 18 18  0  0  0  0  0  0  0  0999 V2000
   -6.1260   26.0380  -29.7780 C   0  0  0  0  0  0  0  0  0  0  0  0
   -5.9970   24.6470  -30.3330 C   0  0  0  0  0  0  0  0  0  0  0  0
   -7.1110   23.7920  -30.3590 C   0  0  0  0  0  0  0  0  0  0  0  0
   -7.0000   22.4960  -30.8740 C   0  0  0  0  0  0  0  0  0  0  0  0
   -8.1390   21.6310  -30.8960 N   0  0  0  0  0  0  0  0  0  0  0  0
   -5.7690   22.0490  -31.3680 C   0  0  0  0  0  0  0  0  0  0  0  0
   -4.6510   22.8890  -31.3500 C   0  0  0  0  0  0  0  0  0  0  0  0
   -3.1300   22.2720  -31.9840 Cl  0  0  0  0  0  0  0  0  0  0  0  0
   -4.7600   24.1950  -30.8320 C   0  0  0  0  0  0  0  0  0  0  0  0
   -3.6580   25.0550  -30.8010 O   0  0  0  0  0  0  0  0  0  0  0  0
   -6.1221   25.9960  -28.6788 H   0  0  0  0  0  0  0  0  0  0  0  0
   -5.2808   26.6509  -30.1245 H   0  0  0  0  0  0  0  0  0  0  0  0
   -7.0695   26.4850  -30.1245 H   0  0  0  0  0  0  0  0  0  0  0  0
   -8.0783   24.1442  -29.9714 H   0  0  0  0  0  0  0  0  0  0  0  0
   -8.8050   21.6010  -30.0910 H   0  0  0  0  0  0  0  0  0  0  0  0
   -8.3270   21.0140  -31.7180 H   0  0  0  0  0  0  0  0  0  0  0  0
   -5.6804   21.0302  -31.7731 H   0  0  0  0  0  0  0  0  0  0  0  0
   -3.3860   25.6280  -31.5900 H   0  0  0  0  0  0  0  0  0  0  0  0
  1  2  1  0
  2  3  2  0
  3  4  1  0
  4  5  1  0
  4  6  2  0
  6  7  1  0
  7  8  1  0
  7  9  2  0
  9 10  1  0
  9  2  1  0
  1 11  1  0
  1 12  1  0
  1 13  1  0
  3 14  1  0
  5 15  1  0
  5 16  1  0
  6 17  1  0
 10 18  1  0
M  END
>  <UniqueID>  (42) 
40

>  <SMILES>  (42) 
Cc1cc(N)cc(Cl)c1O

>  <Energy>  (42) 
16.16407554854496

>  <Genealogy>  (42) 
Cc1cc(N)cc(Cl)c1O (3D coordinates assigned)
Cc1cc(N)cc(Cl)c1O (optimized conformer: 16.16407554854496 kcal/mol)

>  <smiles>  (42) 
Cc1cc(N)cc(Cl)c1O

>  <score_type>  (42) 
oracle

>  <origin>  (42) 
adgpu

>  <m_score__min__energy>  (42) 
-5.0599999999999996

>  <m_primary>  (42) 
energy

$$$$
42:0
     RDKit          3D

 23 24  0  0  0  0  0  0  0  0999 V2000
   -7.1180   18.7820  -33.4750 N   0  0  0  0  0  0  0  0  0  0  0  0
   -7.5330   19.9570  -32.7780 C   0  0  0  0  0  0  0  0  0  0  0  0
   -6.5970   20.8130  -32.2870 N   0  0  0  0  0  0  0  0  0  0  0  0
   -6.9260   21.9530  -31.6140 C   0  0  0  0  0  0  0  0  0  0  0  0
   -5.8430   22.8340  -31.1050 C   0  0  0  0  0  0  0  0  0  0  0  0
   -4.5050   22.3990  -31.1560 C   0  0  0  0  0  0  0  0  0  0  0  0
   -3.4730   23.2190  -30.6870 C   0  0  0  0  0  0  0  0  0  0  0  0
   -3.7610   24.4830  -30.1710 C   0  0  0  0  0  0  0  0  0  0  0  0
   -2.7350   25.2950  -29.7060 O   0  0  0  0  0  0  0  0  0  0  0  0
   -5.0830   24.9320  -30.1250 C   0  0  0  0  0  0  0  0  0  0  0  0
   -6.1200   24.1160  -30.5910 C   0  0  0  0  0  0  0  0  0  0  0  0
   -8.2840   22.2520  -31.4040 C   0  0  0  0  0  0  0  0  0  0  0  0
   -9.2640   21.3890  -31.8980 C   0  0  0  0  0  0  0  0  0  0  0  0
   -8.8940   20.2360  -32.5920 C   0  0  0  0  0  0  0  0  0  0  0  0
   -9.8500   19.4010  -33.0680 F   0  0  0  0  0  0  0  0  0  0  0  0
   -7.0850   18.7770  -34.5190 H   0  0  0  0  0  0  0  0  0  0  0  0
   -6.8410   17.9150  -32.9630 H   0  0  0  0  0  0  0  0  0  0  0  0
   -4.2691   21.4066  -31.5678 H   0  0  0  0  0  0  0  0  0  0  0  0
   -2.4318   22.8663  -30.7251 H   0  0  0  0  0  0  0  0  0  0  0  0
   -5.3095   25.9299  -29.7213 H   0  0  0  0  0  0  0  0  0  0  0  0
   -7.1581   24.4780  -30.5557 H   0  0  0  0  0  0  0  0  0  0  0  0
   -8.5722   23.1600  -30.8540 H   0  0  0  0  0  0  0  0  0  0  0  0
  -10.3283   21.6179  -31.7402 H   0  0  0  0  0  0  0  0  0  0  0  0
  1  2  1  0
  2  3  2  0
  3  4  1  0
  4  5  1  0
  5  6  2  0
  6  7  1  0
  7  8  2  0
  8  9  1  0
  8 10  1  0
 10 11  2  0
  4 12  2  0
 12 13  1  0
 13 14  2  0
 14 15  1  0
 14  2  1  0
 11  5  1  0
  1 16  1  0
  1 17  1  0
  6 18  1  0
  7 19  1  0
 10 20  1  0
 11 21  1  0
 12 22  1  0
 13 23  1  0
M  CHG  1   9  -1
M  END
>  <UniqueID>  (43) 
41

>  <SMILES>  (43) 
Nc1nc(-c2ccc([O-])cc2)ccc1F

>  <Energy>  (43) 
27.613743667931505

>  <Genealogy>  (43) 
Nc1nc(-c2ccc([O-])cc2)ccc1F (protonated)
Nc1nc(-c2ccc([O-])cc2)ccc1F (3D coordinates assigned)
Nc1nc(-c2ccc([O-])cc2)ccc1F (optimized conformer: 27.613743667931505 kcal/mol)

>  <smiles>  (43) 
Nc1nc(-c2ccc(O)cc2)ccc1F

>  <score_type>  (43) 
oracle

>  <origin>  (43) 
adgpu

>  <m_score__min__energy>  (43) 
-9.1600000000000001

>  <m_primary>  (43) 
energy

$$$$
43:0
     RDKit          3D

 21 22  0  0  0  0  0  0  0  0999 V2000
   -4.5780   22.1370  -33.0970 O   0  0  0  0  0  0  0  0  0  0  0  0
   -5.2260   21.8880  -31.7640 S   0  0  0  0  0  0  0  0  0  0  0  0
   -4.2720   21.0990  -30.9110 O   0  0  0  0  0  0  0  0  0  0  0  0
   -6.7230   20.9920  -31.9950 C   0  0  0  0  0  0  0  0  0  0  0  0
   -6.6950   19.6010  -32.1660 C   0  0  0  0  0  0  0  0  0  0  0  0
   -7.8870   18.8890  -32.3310 C   0  0  0  0  0  0  0  0  0  0  0  0
   -9.1120   19.5630  -32.3190 C   0  0  0  0  0  0  0  0  0  0  0  0
   -9.1450   20.9480  -32.1400 C   0  0  0  0  0  0  0  0  0  0  0  0
   -7.9550   21.6630  -31.9760 C   0  0  0  0  0  0  0  0  0  0  0  0
   -5.5780   23.4170  -30.9880 C   0  0  0  0  0  0  0  0  0  0  0  0
   -4.8710   24.5470  -31.2040 N   0  0  0  0  0  0  0  0  0  0  0  0
   -5.3650   25.5910  -30.4880 C   0  0  0  0  0  0  0  0  0  0  0  0
   -6.4720   25.2960  -29.7010 C   0  0  0  0  0  0  0  0  0  0  0  0
   -6.8420   23.6680  -29.9120 S   0  0  0  0  0  0  0  0  0  0  0  0
   -5.7327   19.0681  -32.1704 H   0  0  0  0  0  0  0  0  0  0  0  0
   -7.8610   17.7982  -32.4703 H   0  0  0  0  0  0  0  0  0  0  0  0
  -10.0495   19.0028  -32.4505 H   0  0  0  0  0  0  0  0  0  0  0  0
  -10.1093   21.4771  -32.1281 H   0  0  0  0  0  0  0  0  0  0  0  0
   -7.9846   22.7531  -31.8319 H   0  0  0  0  0  0  0  0  0  0  0  0
   -4.9210   26.5966  -30.5283 H   0  0  0  0  0  0  0  0  0  0  0  0
   -7.0117   26.0029  -29.0536 H   0  0  0  0  0  0  0  0  0  0  0  0
  1  2  2  0
  2  3  2  0
  2  4  1  0
  4  5  2  0
  5  6  1  0
  6  7  2  0
  7  8  1  0
  8  9  2  0
  2 10  1  0
 10 11  2  0
 11 12  1  0
 12 13  2  0
 13 14  1  0
  9  4  1  0
 14 10  1  0
  5 15  1  0
  6 16  1  0
  7 17  1  0
  8 18  1  0
  9 19  1  0
 12 20  1  0
 13 21  1  0
M  END
>  <UniqueID>  (44) 
42

>  <SMILES>  (44) 
O=S(=O)(c1ccccc1)c1nccs1

>  <Energy>  (44) 
53.17761762485517

>  <Genealogy>  (44) 
O=S(=O)(c1ccccc1)c1nccs1 (3D coordinates assigned)
O=S(=O)(c1ccccc1)c1nccs1 (optimized conformer: 53.17761762485517 kcal/mol)

>  <smiles>  (44) 
O=S(=O)(c1ccccc1)c1nccs1

>  <score_type>  (44) 
oracle

>  <origin>  (44) 
adgpu

>  <m_score__min__energy>  (44) 
-6.4500000000000002

>  <m_primary>  (44) 
energy

$$$$
44:0
     RDKit          3D

 38 40  0  0  0  0  0  0  0  0999 V2000
   -2.4205   21.0433  -30.5452 H   0  0  0  0  0  0  0  0  0  0  0  0
   -2.9490   22.0080  -30.5470 C   0  0  0  0  0  0  0  0  0  0  0  0
   -2.5200   23.0150  -29.7450 N   0  0  0  0  0  0  0  0  0  0  0  0
   -3.1600   24.2140  -29.7130 C   0  0  0  0  0  0  0  0  0  0  0  0
   -2.7370   25.1880  -28.9610 N   0  0  0  0  0  0  0  0  0  0  0  0
   -1.6530   25.1430  -28.0180 C   0  0  0  0  0  0  0  0  0  0  0  0
   -0.4380   24.5710  -28.4180 C   0  0  0  0  0  0  0  0  0  0  0  0
   -0.3403   24.1473  -29.4284 H   0  0  0  0  0  0  0  0  0  0  0  0
    0.6510   24.5350  -27.5420 C   0  0  0  0  0  0  0  0  0  0  0  0
    1.5959   24.0693  -27.8586 H   0  0  0  0  0  0  0  0  0  0  0  0
    0.5400   25.0900  -26.2650 C   0  0  0  0  0  0  0  0  0  0  0  0
    1.3946   25.0528  -25.5734 H   0  0  0  0  0  0  0  0  0  0  0  0
   -0.6570   25.6930  -25.8650 C   0  0  0  0  0  0  0  0  0  0  0  0
   -0.7840   26.4190  -24.2730 Cl  0  0  0  0  0  0  0  0  0  0  0  0
   -1.7490   25.7300  -26.7410 C   0  0  0  0  0  0  0  0  0  0  0  0
   -2.6844   26.2188  -26.4310 H   0  0  0  0  0  0  0  0  0  0  0  0
   -4.2360   24.4190  -30.5150 N   0  0  0  0  0  0  0  0  0  0  0  0
   -4.7030   23.4460  -31.3420 C   0  0  0  0  0  0  0  0  0  0  0  0
   -6.1390   23.7930  -32.2960 Cl  0  0  0  0  0  0  0  0  0  0  0  0
   -4.0620   22.1920  -31.3770 C   0  0  0  0  0  0  0  0  0  0  0  0
   -4.5160   21.0980  -32.2650 C   0  0  0  0  0  0  0  0  0  0  0  0
   -4.4800   21.2550  -33.5160 O   0  0  0  0  0  0  0  0  0  0  0  0
   -4.9720   19.8520  -31.7150 N   0  0  0  0  0  0  0  0  0  0  0  0
   -4.9050   19.6850  -30.6860 H   0  0  0  0  0  0  0  0  0  0  0  0
   -5.4120   18.7680  -32.5440 C   0  0  0  0  0  0  0  0  0  0  0  0
   -6.7790   18.4380  -32.5830 C   0  0  0  0  0  0  0  0  0  0  0  0
   -7.9500   19.3250  -31.6150 Cl  0  0  0  0  0  0  0  0  0  0  0  0
   -7.2230   17.3760  -33.3770 C   0  0  0  0  0  0  0  0  0  0  0  0
   -8.2924   17.1196  -33.4013 H   0  0  0  0  0  0  0  0  0  0  0  0
   -6.3150   16.6410  -34.1380 C   0  0  0  0  0  0  0  0  0  0  0  0
   -6.6677   15.7982  -34.7506 H   0  0  0  0  0  0  0  0  0  0  0  0
   -4.9580   16.9730  -34.1240 C   0  0  0  0  0  0  0  0  0  0  0  0
   -4.2463   16.3877  -34.7248 H   0  0  0  0  0  0  0  0  0  0  0  0
   -4.4960   18.0490  -33.3480 C   0  0  0  0  0  0  0  0  0  0  0  0
   -3.0300   18.3930  -33.3770 C   0  0  0  0  0  0  0  0  0  0  0  0
   -2.6537   18.4813  -32.3472 H   0  0  0  0  0  0  0  0  0  0  0  0
   -2.4776   17.6001  -33.9025 H   0  0  0  0  0  0  0  0  0  0  0  0
   -2.8880   19.3489  -33.9025 H   0  0  0  0  0  0  0  0  0  0  0  0
  1  2  1  0
  2  3  1  0
  3  4  1  0
  4  5  2  0
  5  6  1  0
  6  7  2  0
  7  8  1  0
  7  9  1  0
  9 10  1  0
  9 11  2  0
 11 12  1  0
 11 13  1  0
 13 14  1  0
 13 15  2  0
 15 16  1  0
  4 17  1  0
 17 18  2  0
 18 19  1  0
 18 20  1  0
 20 21  1  0
 21 22  2  0
 21 23  1  0
 23 24  1  0
 23 25  1  0
 25 26  2  0
 26 27  1  0
 26 28  1  0
 28 29  1  0
 28 30  2  0
 30 31  1  0
 30 32  1  0
 32 33  1  0
 32 34  2  0
 34 35  1  0
 35 36  1  0
 35 37  1  0
 35 38  1  0
 20  2  2  0
 34 25  1  0
 15  6  1  0
M  CHG  1   3  -1
M  END
>  <UniqueID>  (45) 
43

>  <SMILES>  (45) 
Cc1cccc(Cl)c1NC(=O)c1c[n-]/c(=N\c2cccc(Cl)c2)nc1Cl

>  <Energy>  (45) 
59.36729456364356

>  <Genealogy>  (45) 
Cc1cccc(Cl)c1NC(=O)c1c[n-]c(=Nc2cccc(Cl)c2)nc1Cl (protonated)
Cc1cccc(Cl)c1NC(=O)c1c[n-]/c(=N\c2cccc(Cl)c2)nc1Cl (cis-trans isomerization)
Cc1cccc(Cl)c1NC(=O)c1c[n-]/c(=N\c2cccc(Cl)c2)nc1Cl (3D coordinates assigned)
Cc1cccc(Cl)c1NC(=O)c1c[n-]/c(=N\c2cccc(Cl)c2)nc1Cl (optimized conformer: 59.36729456364356 kcal/mol)

>  <smiles>  (45) 
Cc1cccc(Cl)c1NC(=O)c1c[nH]c(=Nc2cccc(Cl)c2)nc1Cl

>  <score_type>  (45) 
oracle

>  <origin>  (45) 
adgpu

>  <m_score__min__energy>  (45) 
-9.6699999999999999

>  <m_primary>  (45) 
energy

$$$$
45:0
     RDKit          3D

 46 49  0  0  0  0  0  0  0  0999 V2000
   -1.3554   28.2570  -24.4546 H   0  0  0  0  0  0  0  0  0  0  0  0
   -1.1740   27.5540  -25.2810 C   0  0  0  0  0  0  0  0  0  0  0  0
   -0.4930   27.9800  -26.4250 C   0  0  0  0  0  0  0  0  0  0  0  0
   -0.1468   29.0213  -26.5019 H   0  0  0  0  0  0  0  0  0  0  0  0
   -0.2510   27.0850  -27.4720 C   0  0  0  0  0  0  0  0  0  0  0  0
    0.2718   27.4281  -28.3770 H   0  0  0  0  0  0  0  0  0  0  0  0
   -0.6750   25.7450  -27.3710 C   0  0  0  0  0  0  0  0  0  0  0  0
   -0.4790   24.8000  -28.4370 N   0  0  0  0  0  0  0  0  0  0  0  0
   -1.4010   24.2140  -29.1420 C   0  0  0  0  0  0  0  0  0  0  0  0
   -1.0380   23.3040  -30.0810 N   0  0  0  0  0  0  0  0  0  0  0  0
   -1.9760   22.6880  -30.8490 C   0  0  0  0  0  0  0  0  0  0  0  0
   -1.5800   21.7180  -31.8430 N   0  0  0  0  0  0  0  0  0  0  0  0
   -0.1760   21.2910  -31.9590 C   0  0  0  0  0  0  0  0  0  0  0  0
    0.4706   22.0769  -31.5415 H   0  0  0  0  0  0  0  0  0  0  0  0
   -0.0595   20.3472  -31.4062 H   0  0  0  0  0  0  0  0  0  0  0  0
    0.2290   21.0390  -33.4290 C   0  0  0  0  0  0  0  0  0  0  0  0
    0.7166   21.9471  -33.8131 H   0  0  0  0  0  0  0  0  0  0  0  0
    0.8970   20.1650  -33.4277 H   0  0  0  0  0  0  0  0  0  0  0  0
   -0.9020   20.7080  -34.3200 N   0  0  0  0  0  0  0  0  0  0  0  0
   -0.5610   20.0760  -35.0830 H   0  0  0  0  0  0  0  0  0  0  0  0
   -1.2610   21.5830  -34.7700 H   0  0  0  0  0  0  0  0  0  0  0  0
   -2.0010   20.0400  -33.6130 C   0  0  0  0  0  0  0  0  0  0  0  0
   -2.7689   19.7329  -34.3382 H   0  0  0  0  0  0  0  0  0  0  0  0
   -1.6117   19.1545  -33.0892 H   0  0  0  0  0  0  0  0  0  0  0  0
   -2.6190   21.0000  -32.5940 C   0  0  0  0  0  0  0  0  0  0  0  0
   -3.2478   21.7303  -33.1244 H   0  0  0  0  0  0  0  0  0  0  0  0
   -3.2206   20.4141  -31.8835 H   0  0  0  0  0  0  0  0  0  0  0  0
   -3.2860   23.0000  -30.6730 N   0  0  0  0  0  0  0  0  0  0  0  0
   -3.6620   23.9240  -29.7510 C   0  0  0  0  0  0  0  0  0  0  0  0
   -4.9150   24.2180  -29.5580 N   0  0  0  0  0  0  0  0  0  0  0  0
   -6.0420   23.7180  -30.3000 C   0  0  0  0  0  0  0  0  0  0  0  0
   -6.1890   24.1050  -31.6390 C   0  0  0  0  0  0  0  0  0  0  0  0
   -5.4611   24.7940  -32.0923 H   0  0  0  0  0  0  0  0  0  0  0  0
   -7.2560   23.6200  -32.4020 C   0  0  0  0  0  0  0  0  0  0  0  0
   -7.3735   23.9408  -33.4476 H   0  0  0  0  0  0  0  0  0  0  0  0
   -8.1730   22.7290  -31.8390 C   0  0  0  0  0  0  0  0  0  0  0  0
   -9.0173   22.3568  -32.4378 H   0  0  0  0  0  0  0  0  0  0  0  0
   -8.0170   22.3110  -30.5150 C   0  0  0  0  0  0  0  0  0  0  0  0
   -8.7335   21.6018  -30.0750 H   0  0  0  0  0  0  0  0  0  0  0  0
   -6.9510   22.7930  -29.7480 C   0  0  0  0  0  0  0  0  0  0  0  0
   -6.8218   22.4491  -28.7111 H   0  0  0  0  0  0  0  0  0  0  0  0
   -2.7160   24.5240  -28.9860 N   0  0  0  0  0  0  0  0  0  0  0  0
   -1.3840   25.3370  -26.2340 C   0  0  0  0  0  0  0  0  0  0  0  0
   -1.7546   24.3038  -26.1629 H   0  0  0  0  0  0  0  0  0  0  0  0
   -1.6240   26.2350  -25.1880 C   0  0  0  0  0  0  0  0  0  0  0  0
   -2.1676   25.9018  -24.2916 H   0  0  0  0  0  0  0  0  0  0  0  0
  1  2  1  0
  2  3  2  0
  3  4  1  0
  3  5  1  0
  5  6  1  0
  5  7  2  0
  7  8  1  0
  8  9  2  0
  9 10  1  0
 10 11  2  0
 11 12  1  0
 12 13  1  0
 13 14  1  0
 13 15  1  0
 13 16  1  0
 16 17  1  0
 16 18  1  0
 16 19  1  0
 19 20  1  0
 19 21  1  0
 19 22  1  0
 22 23  1  0
 22 24  1  0
 22 25  1  0
 25 26  1  0
 25 27  1  0
 11 28  1  0
 28 29  1  0
 29 30  2  0
 30 31  1  0
 31 32  2  0
 32 33  1  0
 32 34  1  0
 34 35  1  0
 34 36  2  0
 36 37  1  0
 36 38  1  0
 38 39  1  0
 38 40  2  0
 40 41  1  0
 29 42  1  0
  7 43  1  0
 43 44  1  0
 43 45  2  0
 45 46  1  0
 45  2  1  0
 42  9  1  0
 25 12  1  0
 40 31  1  0
M  CHG  3  19   1  28  -1  42  -1
M  END
>  <UniqueID>  (46) 
44

>  <SMILES>  (46) 
c1ccc(/N=c2/nc(N3CC[NH2+]CC3)[n-]/c(=N\c3ccccc3)[n-]2)cc1

>  <Energy>  (46) 
66.38793370834036

>  <Genealogy>  (46) 
c1ccc(N=c2nc(N3CC[NH2+]CC3)[n-]c(=Nc3ccccc3)[n-]2)cc1 (protonated)
c1ccc(/N=c2/nc(N3CC[NH2+]CC3)[n-]/c(=N\c3ccccc3)[n-]2)cc1 (cis-trans isomerization)
c1ccc(/N=c2/nc(N3CC[NH2+]CC3)[n-]/c(=N\c3ccccc3)[n-]2)cc1 (3D coordinates assigned)
c1ccc(/N=c2/nc(N3CC[NH2+]CC3)[n-]/c(=N\c3ccccc3)[n-]2)cc1 (nonaromatic ring conformer: 66.38793370834036 kcal/mol)

>  <smiles>  (46) 
c1ccc(N=c2nc(N3CCNCC3)[nH]c(=Nc3ccccc3)[nH]2)cc1

>  <score_type>  (46) 
oracle

>  <origin>  (46) 
adgpu

>  <m_score__min__energy>  (46) 
-8.8499999999999996

>  <m_primary>  (46) 
energy

$$$$
46:0
     RDKit          3D

 49 53  0  0  0  0  0  0  0  0999 V2000
   -0.3821   21.3923  -27.7713 H   0  0  0  0  0  0  0  0  0  0  0  0
   -0.1060   20.9010  -28.7160 C   0  0  0  0  0  0  0  0  0  0  0  0
    1.0090   20.1730  -28.9150 N   0  0  0  0  0  0  0  0  0  0  0  0
    0.9970   19.7600  -30.1720 N   0  0  0  0  0  0  0  0  0  0  0  0
    2.0090   18.8880  -30.7510 C   0  0  0  0  0  0  0  0  0  0  0  0
    2.5763   18.3992  -29.9453 H   0  0  0  0  0  0  0  0  0  0  0  0
    1.5214   18.1226  -31.3726 H   0  0  0  0  0  0  0  0  0  0  0  0
    2.6939   19.4834  -31.3726 H   0  0  0  0  0  0  0  0  0  0  0  0
   -0.1180   20.1890  -30.7890 C   0  0  0  0  0  0  0  0  0  0  0  0
   -0.3976   19.9815  -31.8324 H   0  0  0  0  0  0  0  0  0  0  0  0
   -0.8540   20.9370  -29.8850 C   0  0  0  0  0  0  0  0  0  0  0  0
   -2.1620   21.6100  -30.1110 C   0  0  0  0  0  0  0  0  0  0  0  0
   -3.3510   20.8650  -30.1710 C   0  0  0  0  0  0  0  0  0  0  0  0
   -3.3139   19.7735  -30.0397 H   0  0  0  0  0  0  0  0  0  0  0  0
   -4.5800   21.4900  -30.3950 C   0  0  0  0  0  0  0  0  0  0  0  0
   -5.5009   20.8884  -30.3992 H   0  0  0  0  0  0  0  0  0  0  0  0
   -4.6580   22.8820  -30.6160 C   0  0  0  0  0  0  0  0  0  0  0  0
   -5.8730   23.5850  -30.8940 C   0  0  0  0  0  0  0  0  0  0  0  0
   -6.9930   23.0340  -31.2890 N   0  0  0  0  0  0  0  0  0  0  0  0
   -7.2430   21.7180  -31.7980 C   0  0  0  0  0  0  0  0  0  0  0  0
   -6.4790   21.2390  -32.8680 C   0  0  0  0  0  0  0  0  0  0  0  0
   -5.7225   21.8870  -33.3348 H   0  0  0  0  0  0  0  0  0  0  0  0
   -6.6740   19.9390  -33.3460 C   0  0  0  0  0  0  0  0  0  0  0  0
   -6.0783   19.5728  -34.1952 H   0  0  0  0  0  0  0  0  0  0  0  0
   -7.6280   19.0980  -32.7460 C   0  0  0  0  0  0  0  0  0  0  0  0
   -7.8440   17.7860  -33.1910 O   0  0  0  0  0  0  0  0  0  0  0  0
   -6.8740   16.7740  -33.2390 C   0  0  0  0  0  0  0  0  0  0  0  0
   -5.8940   16.7330  -32.2410 C   0  0  0  0  0  0  0  0  0  0  0  0
   -5.8903   17.4942  -31.4469 H   0  0  0  0  0  0  0  0  0  0  0  0
   -4.9190   15.7300  -32.2470 C   0  0  0  0  0  0  0  0  0  0  0  0
   -4.1461   15.7103  -31.4646 H   0  0  0  0  0  0  0  0  0  0  0  0
   -4.9260   14.7530  -33.2460 C   0  0  0  0  0  0  0  0  0  0  0  0
   -4.1565   13.9670  -33.2523 H   0  0  0  0  0  0  0  0  0  0  0  0
   -5.9110   14.7750  -34.2370 C   0  0  0  0  0  0  0  0  0  0  0  0
   -5.9188   14.0035  -35.0211 H   0  0  0  0  0  0  0  0  0  0  0  0
   -6.8870   15.7770  -34.2330 C   0  0  0  0  0  0  0  0  0  0  0  0
   -7.6669   15.7860  -35.0087 H   0  0  0  0  0  0  0  0  0  0  0  0
   -8.3470   19.5600  -31.6380 C   0  0  0  0  0  0  0  0  0  0  0  0
   -9.0688   18.8962  -31.1397 H   0  0  0  0  0  0  0  0  0  0  0  0
   -8.1540   20.8600  -31.1600 C   0  0  0  0  0  0  0  0  0  0  0  0
   -8.7168   21.2114  -30.2826 H   0  0  0  0  0  0  0  0  0  0  0  0
   -5.8740   24.9830  -30.7850 C   0  0  0  0  0  0  0  0  0  0  0  0
   -6.8211   25.5364  -30.8670 H   0  0  0  0  0  0  0  0  0  0  0  0
   -4.6860   25.6750  -30.5740 C   0  0  0  0  0  0  0  0  0  0  0  0
   -4.6927   26.7738  -30.5223 H   0  0  0  0  0  0  0  0  0  0  0  0
   -3.5210   24.9990  -30.4320 N   0  0  0  0  0  0  0  0  0  0  0  0
   -3.4710   23.6420  -30.4400 C   0  0  0  0  0  0  0  0  0  0  0  0
   -2.2420   23.0080  -30.2250 C   0  0  0  0  0  0  0  0  0  0  0  0
   -1.3264   23.6123  -30.1442 H   0  0  0  0  0  0  0  0  0  0  0  0
  1  2  1  0
  2  3  2  0
  3  4  1  0
  4  5  1  0
  5  6  1  0
  5  7  1  0
  5  8  1  0
  4  9  1  0
  9 10  1  0
  9 11  2  0
 11 12  1  0
 12 13  2  0
 13 14  1  0
 13 15  1  0
 15 16  1  0
 15 17  2  0
 17 18  1  0
 18 19  2  0
 19 20  1  0
 20 21  2  0
 21 22  1  0
 21 23  1  0
 23 24  1  0
 23 25  2  0
 25 26  1  0
 26 27  1  0
 27 28  2  0
 28 29  1  0
 28 30  1  0
 30 31  1  0
 30 32  2  0
 32 33  1  0
 32 34  1  0
 34 35  1  0
 34 36  2  0
 36 37  1  0
 25 38  1  0
 38 39  1  0
 38 40  2  0
 40 41  1  0
 18 42  1  0
 42 43  1  0
 42 44  2  0
 44 45  1  0
 44 46  1  0
 46 47  1  0
 47 48  2  0
 48 49  1  0
 11  2  1  0
 48 12  1  0
 47 17  1  0
 40 20  1  0
 36 27  1  0
M  CHG  1  46  -1
M  END
>  <UniqueID>  (47) 
45

>  <SMILES>  (47) 
Cn1cc(-c2ccc3/c(=N\c4ccc(Oc5ccccc5)cc4)cc[n-]c3c2)cn1

>  <Energy>  (47) 
116.69905260910784

>  <Genealogy>  (47) 
Cn1cc(-c2ccc3c(=Nc4ccc(Oc5ccccc5)cc4)cc[n-]c3c2)cn1 (protonated)
Cn1cc(-c2ccc3/c(=N\c4ccc(Oc5ccccc5)cc4)cc[n-]c3c2)cn1 (cis-trans isomerization)
Cn1cc(-c2ccc3/c(=N\c4ccc(Oc5ccccc5)cc4)cc[n-]c3c2)cn1 (3D coordinates assigned)
Cn1cc(-c2ccc3/c(=N\c4ccc(Oc5ccccc5)cc4)cc[n-]c3c2)cn1 (optimized conformer: 116.69905260910784 kcal/mol)

>  <smiles>  (47) 
Cn1cc(-c2ccc3c(=Nc4ccc(Oc5ccccc5)cc4)cc[nH]c3c2)cn1

>  <score_type>  (47) 
oracle

>  <origin>  (47) 
adgpu

>  <m_score__min__energy>  (47) 
-10.49

>  <m_primary>  (47) 
energy

$$$$
47:0
     RDKit          3D

 42 45  0  0  0  0  0  0  0  0999 V2000
   -3.8500   25.3020  -30.3180 O   0  0  0  0  0  0  0  0  0  0  0  0
   -4.6190   24.2550  -30.8220 C   0  0  0  0  0  0  0  0  0  0  0  0
   -6.0090   24.3010  -30.7010 C   0  0  0  0  0  0  0  0  0  0  0  0
   -6.7920   23.2600  -31.2060 C   0  0  0  0  0  0  0  0  0  0  0  0
   -6.1870   22.1650  -31.8290 C   0  0  0  0  0  0  0  0  0  0  0  0
   -4.7850   22.0950  -31.9490 C   0  0  0  0  0  0  0  0  0  0  0  0
   -4.1220   20.9460  -32.6160 C   0  0  0  0  0  0  0  0  0  0  0  0
   -4.7940   19.7340  -32.8430 C   0  0  0  0  0  0  0  0  0  0  0  0
   -4.1330   18.6740  -33.4810 C   0  0  0  0  0  0  0  0  0  0  0  0
   -4.8360   17.3910  -33.7390 C   0  0  0  0  0  0  0  0  0  0  0  0
   -4.1090   16.2170  -34.0110 C   0  0  0  0  0  0  0  0  0  0  0  0
   -4.7730   15.0120  -34.2540 C   0  0  0  0  0  0  0  0  0  0  0  0
   -6.1690   14.9620  -34.2280 C   0  0  0  0  0  0  0  0  0  0  0  0
   -7.0000   13.4470  -34.5320 Cl  0  0  0  0  0  0  0  0  0  0  0  0
   -6.9030   16.1220  -33.9600 C   0  0  0  0  0  0  0  0  0  0  0  0
   -6.2420   17.3290  -33.7160 C   0  0  0  0  0  0  0  0  0  0  0  0
   -2.7950   18.8430  -33.8720 C   0  0  0  0  0  0  0  0  0  0  0  0
   -2.1360   20.0560  -33.6090 C   0  0  0  0  0  0  0  0  0  0  0  0
   -0.7210   20.2770  -34.0000 C   0  0  0  0  0  0  0  0  0  0  0  0
    0.3070   19.5800  -33.3350 C   0  0  0  0  0  0  0  0  0  0  0  0
    1.6440   19.7710  -33.6980 C   0  0  0  0  0  0  0  0  0  0  0  0
    1.9720   20.6510  -34.7310 C   0  0  0  0  0  0  0  0  0  0  0  0
    0.9630   21.3380  -35.4080 C   0  0  0  0  0  0  0  0  0  0  0  0
   -0.3760   21.1520  -35.0500 C   0  0  0  0  0  0  0  0  0  0  0  0
   -2.8220   21.0620  -32.9990 N   0  0  0  0  0  0  0  0  0  0  0  0
   -4.0090   23.1570  -31.4470 C   0  0  0  0  0  0  0  0  0  0  0  0
   -3.0740   25.6890  -30.8420 H   0  0  0  0  0  0  0  0  0  0  0  0
   -6.4888   25.1587  -30.2070 H   0  0  0  0  0  0  0  0  0  0  0  0
   -7.8872   23.3023  -31.1130 H   0  0  0  0  0  0  0  0  0  0  0  0
   -6.8103   21.3515  -32.2287 H   0  0  0  0  0  0  0  0  0  0  0  0
   -5.8390   19.6159  -32.5204 H   0  0  0  0  0  0  0  0  0  0  0  0
   -3.0097   16.2484  -34.0324 H   0  0  0  0  0  0  0  0  0  0  0  0
   -4.1952   14.1004  -34.4663 H   0  0  0  0  0  0  0  0  0  0  0  0
   -8.0022   16.0843  -33.9412 H   0  0  0  0  0  0  0  0  0  0  0  0
   -6.8250   18.2375  -33.5044 H   0  0  0  0  0  0  0  0  0  0  0  0
   -2.2634   18.0270  -34.3835 H   0  0  0  0  0  0  0  0  0  0  0  0
    0.0561   18.8803  -32.5241 H   0  0  0  0  0  0  0  0  0  0  0  0
    2.4394   19.2264  -33.1681 H   0  0  0  0  0  0  0  0  0  0  0  0
    3.0248   20.8029  -35.0112 H   0  0  0  0  0  0  0  0  0  0  0  0
    1.2217   22.0274  -36.2252 H   0  0  0  0  0  0  0  0  0  0  0  0
   -1.1660   21.6926  -35.5919 H   0  0  0  0  0  0  0  0  0  0  0  0
   -2.9139   23.1256  -31.5458 H   0  0  0  0  0  0  0  0  0  0  0  0
  1  2  1  0
  2  3  2  0
  3  4  1  0
  4  5  2  0
  5  6  1  0
  6  7  1  0
  7  8  2  0
  8  9  1  0
  9 10  1  0
 10 11  2  0
 11 12  1  0
 12 13  2  0
 13 14  1  0
 13 15  1  0
 15 16  2  0
  9 17  2  0
 17 18  1  0
 18 19  1  0
 19 20  2  0
 20 21  1  0
 21 22  2  0
 22 23  1  0
 23 24  2  0
 18 25  2  0
  6 26  2  0
 26  2  1  0
 25  7  1  0
 16 10  1  0
 24 19  1  0
  1 27  1  0
  3 28  1  0
  4 29  1  0
  5 30  1  0
  8 31  1  0
 11 32  1  0
 12 33  1  0
 15 34  1  0
 16 35  1  0
 17 36  1  0
 20 37  1  0
 21 38  1  0
 22 39  1  0
 23 40  1  0
 24 41  1  0
 26 42  1  0
M  END
>  <UniqueID>  (48) 
46

>  <SMILES>  (48) 
Oc1cccc(-c2cc(-c3ccc(Cl)cc3)cc(-c3ccccc3)n2)c1

>  <Energy>  (48) 
59.99827953653885

>  <Genealogy>  (48) 
Oc1cccc(-c2cc(-c3ccc(Cl)cc3)cc(-c3ccccc3)n2)c1 (3D coordinates assigned)
Oc1cccc(-c2cc(-c3ccc(Cl)cc3)cc(-c3ccccc3)n2)c1 (optimized conformer: 59.99827953653885 kcal/mol)

>  <smiles>  (48) 
Oc1cccc(-c2cc(-c3ccc(Cl)cc3)cc(-c3ccccc3)n2)c1

>  <score_type>  (48) 
oracle

>  <origin>  (48) 
adgpu

>  <m_score__min__energy>  (48) 
-9.3499999999999996

>  <m_primary>  (48) 
energy

$$$$
48:0
     RDKit          3D

 22 23  0  0  0  0  0  0  0  0999 V2000
   -7.0350   16.1090  -34.0700 F   0  0  0  0  0  0  0  0  0  0  0  0
   -6.8620   17.3660  -33.5910 C   0  0  0  0  0  0  0  0  0  0  0  0
   -5.9540   18.2300  -34.2090 C   0  0  0  0  0  0  0  0  0  0  0  0
   -5.7730   19.5270  -33.7170 C   0  0  0  0  0  0  0  0  0  0  0  0
   -6.5030   19.9730  -32.5980 C   0  0  0  0  0  0  0  0  0  0  0  0
   -6.3130   21.3500  -32.0750 C   0  0  0  0  0  0  0  0  0  0  0  0
   -5.0200   21.8560  -31.8390 C   0  0  0  0  0  0  0  0  0  0  0  0
   -4.8450   23.1520  -31.3460 C   0  0  0  0  0  0  0  0  0  0  0  0
   -5.9540   23.9590  -31.0820 C   0  0  0  0  0  0  0  0  0  0  0  0
   -5.7300   25.5850  -30.4630 Cl  0  0  0  0  0  0  0  0  0  0  0  0
   -7.2430   23.4680  -31.3100 C   0  0  0  0  0  0  0  0  0  0  0  0
   -7.4230   22.1720  -31.8040 C   0  0  0  0  0  0  0  0  0  0  0  0
   -7.4140   19.0930  -31.9860 C   0  0  0  0  0  0  0  0  0  0  0  0
   -7.5910   17.7980  -32.4810 C   0  0  0  0  0  0  0  0  0  0  0  0
   -5.3806   17.8897  -35.0839 H   0  0  0  0  0  0  0  0  0  0  0  0
   -5.0563   20.2025  -34.2069 H   0  0  0  0  0  0  0  0  0  0  0  0
   -4.1415   21.2266  -32.0442 H   0  0  0  0  0  0  0  0  0  0  0  0
   -3.8308   23.5376  -31.1653 H   0  0  0  0  0  0  0  0  0  0  0  0
   -8.1171   24.1021  -31.1005 H   0  0  0  0  0  0  0  0  0  0  0  0
   -8.4399   21.7922  -31.9821 H   0  0  0  0  0  0  0  0  0  0  0  0
   -7.9914   19.4266  -31.1112 H   0  0  0  0  0  0  0  0  0  0  0  0
   -8.3060   17.1177  -31.9953 H   0  0  0  0  0  0  0  0  0  0  0  0
  1  2  1  0
  2  3  2  0
  3  4  1  0
  4  5  2  0
  5  6  1  0
  6  7  2  0
  7  8  1  0
  8  9  2  0
  9 10  1  0
  9 11  1  0
 11 12  2  0
  5 13  1  0
 13 14  2  0
 14  2  1  0
 12  6  1  0
  3 15  1  0
  4 16  1  0
  7 17  1  0
  8 18  1  0
 11 19  1  0
 12 20  1  0
 13 21  1  0
 14 22  1  0
M  END
>  <UniqueID>  (49) 
47

>  <SMILES>  (49) 
Fc1ccc(-c2ccc(Cl)cc2)cc1

>  <Energy>  (49) 
28.094528441839163

>  <Genealogy>  (49) 
Fc1ccc(-c2ccc(Cl)cc2)cc1 (3D coordinates assigned)
Fc1ccc(-c2ccc(Cl)cc2)cc1 (optimized conformer: 28.094528441839163 kcal/mol)

>  <smiles>  (49) 
Fc1ccc(-c2ccc(Cl)cc2)cc1

>  <score_type>  (49) 
oracle

>  <origin>  (49) 
adgpu

>  <m_score__min__energy>  (49) 
-6.3499999999999996

>  <m_primary>  (49) 
energy

$$$$
