0:0
     RDKit          3D

 32 33  0  0  0  0  0  0  0  0999 V2000
   -2.7120   21.8820  -32.5240 C   0  0  0  0  0  0  0  0  0  0  0  0
   -3.6460   22.7410  -31.8770 O   0  0  0  0  0  0  0  0  0  0  0  0
   -5.0100   22.4570  -31.7100 C   0  0  0  0  0  0  0  0  0  0  0  0
   -5.5660   21.2380  -32.1490 C   0  0  0  0  0  0  0  0  0  0  0  0
   -6.9240   20.9710  -31.9650 C   0  0  0  0  0  0  0  0  0  0  0  0
   -7.7460   21.9140  -31.3480 C   0  0  0  0  0  0  0  0  0  0  0  0
   -9.4490   21.5720  -31.1090 Cl  0  0  0  0  0  0  0  0  0  0  0  0
   -7.2090   23.1280  -30.9120 C   0  0  0  0  0  0  0  0  0  0  0  0
   -5.8450   23.4050  -31.0810 C   0  0  0  0  0  0  0  0  0  0  0  0
   -5.2210   24.9280  -30.4260 S   0  0  0  0  0  0  0  0  0  0  0  0
   -5.6650   25.0390  -28.9960 O   0  0  0  0  0  0  0  0  0  0  0  0
   -5.7330   26.1200  -31.1840 O   0  0  0  0  0  0  0  0  0  0  0  0
   -3.4860   24.9260  -30.4790 N   0  0  0  0  0  0  0  0  0  0  0  0
   -2.6350   24.5630  -29.3840 C   0  0  0  0  0  0  0  0  0  0  0  0
   -2.0460   25.4730  -28.7450 O   0  0  0  0  0  0  0  0  0  0  0  0
   -2.4480   23.1620  -28.9690 C   0  0  0  0  0  0  0  0  0  0  0  0
   -3.3160   22.5680  -28.0390 C   0  0  0  0  0  0  0  0  0  0  0  0
   -3.1090   21.2500  -27.6250 C   0  0  0  0  0  0  0  0  0  0  0  0
   -2.0380   20.5140  -28.1390 C   0  0  0  0  0  0  0  0  0  0  0  0
   -1.1820   21.0910  -29.0810 C   0  0  0  0  0  0  0  0  0  0  0  0
   -1.3900   22.4080  -29.5020 C   0  0  0  0  0  0  0  0  0  0  0  0
   -2.1248   21.3420  -31.7666 H   0  0  0  0  0  0  0  0  0  0  0  0
   -3.2529   21.1592  -33.1525 H   0  0  0  0  0  0  0  0  0  0  0  0
   -2.0369   22.4814  -33.1525 H   0  0  0  0  0  0  0  0  0  0  0  0
   -4.9248   20.4914  -32.6404 H   0  0  0  0  0  0  0  0  0  0  0  0
   -7.3466   20.0149  -32.3074 H   0  0  0  0  0  0  0  0  0  0  0  0
   -7.8616   23.8724  -30.4323 H   0  0  0  0  0  0  0  0  0  0  0  0
   -4.1624   23.1427  -27.6348 H   0  0  0  0  0  0  0  0  0  0  0  0
   -3.7900   20.7908  -26.8933 H   0  0  0  0  0  0  0  0  0  0  0  0
   -1.8688   19.4806  -27.8022 H   0  0  0  0  0  0  0  0  0  0  0  0
   -0.3440   20.5086  -29.4916 H   0  0  0  0  0  0  0  0  0  0  0  0
   -0.7225   22.8551  -30.2534 H   0  0  0  0  0  0  0  0  0  0  0  0
  1  2  1  0
  2  3  1  0
  3  4  2  0
  4  5  1  0
  5  6  2  0
  6  7  1  0
  6  8  1  0
  8  9  2  0
  9 10  1  0
 10 11  2  0
 10 12  2  0
 10 13  1  0
 13 14  1  0
 14 15  2  0
 14 16  1  0
 16 17  2  0
 17 18  1  0
 18 19  2  0
 19 20  1  0
 20 21  2  0
  9  3  1  0
 21 16  1  0
  1 22  1  0
  1 23  1  0
  1 24  1  0
  4 25  1  0
  5 26  1  0
  8 27  1  0
 17 28  1  0
 18 29  1  0
 19 30  1  0
 20 31  1  0
 21 32  1  0
M  CHG  1  13  -1
M  END
>  <UniqueID>  (1) 
1

>  <SMILES>  (1) 
COc1ccc(Cl)cc1S(=O)(=O)[N-]C(=O)c1ccccc1

>  <Energy>  (1) 
37.84421161733342

>  <Genealogy>  (1) 
COc1ccc(Cl)cc1S(=O)(=O)[N-]C(=O)c1ccccc1 (protonated)
COc1ccc(Cl)cc1S(=O)(=O)[N-]C(=O)c1ccccc1 (3D coordinates assigned)
COc1ccc(Cl)cc1S(=O)(=O)[N-]C(=O)c1ccccc1 (optimized conformer: 37.84421161733342 kcal/mol)

>  <smiles>  (1) 
COc1ccc(Cl)cc1S(=O)(=O)NC(=O)c1ccccc1

>  <score_type>  (1) 
oracle

>  <origin>  (1) 
adgpu

>  <m_score__min__energy>  (1) 
-9.2100000000000009

>  <m_primary>  (1) 
energy

$$$$
1:0
     RDKit          3D

 28 29  0  0  0  0  0  0  0  0999 V2000
   -6.4589   26.0620  -30.3000 H   0  0  0  0  0  0  0  0  0  0  0  0
   -6.1780   25.0290  -30.5530 C   0  0  0  0  0  0  0  0  0  0  0  0
   -7.1700   24.0600  -30.7200 C   0  0  0  0  0  0  0  0  0  0  0  0
   -8.2292   24.3302  -30.5975 H   0  0  0  0  0  0  0  0  0  0  0  0
   -6.8160   22.7460  -31.0430 C   0  0  0  0  0  0  0  0  0  0  0  0
   -8.1740   21.4210  -31.2670 Br  0  0  0  0  0  0  0  0  0  0  0  0
   -5.4700   22.4030  -31.1990 C   0  0  0  0  0  0  0  0  0  0  0  0
   -5.1960   21.3682  -31.4520 H   0  0  0  0  0  0  0  0  0  0  0  0
   -4.4650   23.3700  -31.0350 C   0  0  0  0  0  0  0  0  0  0  0  0
   -3.0200   22.9650  -31.1910 C   0  0  0  0  0  0  0  0  0  0  0  0
   -2.4039   23.8656  -31.3302 H   0  0  0  0  0  0  0  0  0  0  0  0
   -2.9264   22.3048  -32.0659 H   0  0  0  0  0  0  0  0  0  0  0  0
   -2.5630   22.2480  -30.0050 N   0  0  0  0  0  0  0  0  0  0  0  0
   -1.2220   22.2980  -29.5140 C   0  0  0  0  0  0  0  0  0  0  0  0
   -0.3090   21.6490  -30.0970 O   0  0  0  0  0  0  0  0  0  0  0  0
   -0.9380   23.0930  -28.3550 N   0  0  0  0  0  0  0  0  0  0  0  0
   -0.9660   24.3910  -28.2920 C   0  0  0  0  0  0  0  0  0  0  0  0
   -1.2730   25.2070  -29.3200 N   0  0  0  0  0  0  0  0  0  0  0  0
   -1.1900   26.4220  -28.8580 O   0  0  0  0  0  0  0  0  0  0  0  0
   -0.8510   26.4230  -27.5880 C   0  0  0  0  0  0  0  0  0  0  0  0
   -0.6520   27.6510  -26.7660 C   0  0  0  0  0  0  0  0  0  0  0  0
   -0.6945   27.3886  -25.6986 H   0  0  0  0  0  0  0  0  0  0  0  0
    0.3292   28.0915  -26.9965 H   0  0  0  0  0  0  0  0  0  0  0  0
   -1.4439   28.3788  -26.9965 H   0  0  0  0  0  0  0  0  0  0  0  0
   -0.6870   25.1220  -27.1600 C   0  0  0  0  0  0  0  0  0  0  0  0
   -0.4034   24.7588  -26.1612 H   0  0  0  0  0  0  0  0  0  0  0  0
   -4.8290   24.6920  -30.7060 C   0  0  0  0  0  0  0  0  0  0  0  0
   -3.8610   25.6770  -30.5320 O   0  0  0  0  0  0  0  0  0  0  0  0
  1  2  1  0
  2  3  2  0
  3  4  1  0
  3  5  1  0
  5  6  1  0
  5  7  2  0
  7  8  1  0
  7  9  1  0
  9 10  1  0
 10 11  1  0
 10 12  1  0
 10 13  1  0
 13 14  1  0
 14 15  2  0
 14 16  1  0
 16 17  2  0
 17 18  1  0
 18 19  1  0
 19 20  1  0
 20 21  1  0
 21 22  1  0
 21 23  1  0
 21 24  1  0
 20 25  2  0
 25 26  1  0
  9 27  2  0
 27 28  1  0
 27  2  1  0
 25 17  1  0
M  CHG  3  13  -1  18  -1  28  -1
M  END
>  <UniqueID>  (2) 
2

>  <SMILES>  (2) 
Cc1c/c(=N/C(=O)[N-]Cc2cc(Br)ccc2[O-])[n-]o1

>  <Energy>  (2) 
58.29473977564777

>  <Genealogy>  (2) 
Cc1cc(=NC(=O)[N-]Cc2cc(Br)ccc2[O-])[n-]o1 (protonated)
Cc1c/c(=N/C(=O)[N-]Cc2cc(Br)ccc2[O-])[n-]o1 (cis-trans isomerization)
Cc1c/c(=N/C(=O)[N-]Cc2cc(Br)ccc2[O-])[n-]o1 (3D coordinates assigned)
Cc1c/c(=N/C(=O)[N-]Cc2cc(Br)ccc2[O-])[n-]o1 (optimized conformer: 58.29473977564777 kcal/mol)

>  <smiles>  (2) 
Cc1cc(=NC(=O)NCc2cc(Br)ccc2O)[nH]o1

>  <score_type>  (2) 
oracle

>  <origin>  (2) 
adgpu

>  <m_score__min__energy>  (2) 
-11.710000000000001

>  <m_primary>  (2) 
energy

$$$$
2:0
     RDKit          3D

 42 45  0  0  0  0  0  0  0  0999 V2000
   -8.1020   23.7419  -31.6247 H   0  0  0  0  0  0  0  0  0  0  0  0
   -7.3930   22.9130  -31.7670 C   0  0  0  0  0  0  0  0  0  0  0  0
   -7.6830   21.7340  -32.3470 N   0  0  0  0  0  0  0  0  0  0  0  0
   -6.5870   20.9910  -32.3410 N   0  0  0  0  0  0  0  0  0  0  0  0
   -6.5620   19.6480  -32.8500 C   0  0  0  0  0  0  0  0  0  0  0  0
   -5.8970   19.3710  -34.0560 C   0  0  0  0  0  0  0  0  0  0  0  0
   -5.3780   20.1785  -34.5933 H   0  0  0  0  0  0  0  0  0  0  0  0
   -5.8920   18.0740  -34.5760 C   0  0  0  0  0  0  0  0  0  0  0  0
   -5.3594   17.8606  -35.5145 H   0  0  0  0  0  0  0  0  0  0  0  0
   -6.5630   17.0470  -33.9050 C   0  0  0  0  0  0  0  0  0  0  0  0
   -6.5531   16.0253  -34.3124 H   0  0  0  0  0  0  0  0  0  0  0  0
   -7.2460   17.3190  -32.7170 C   0  0  0  0  0  0  0  0  0  0  0  0
   -7.7788   16.5122  -32.1925 H   0  0  0  0  0  0  0  0  0  0  0  0
   -7.2530   18.6160  -32.1940 C   0  0  0  0  0  0  0  0  0  0  0  0
   -7.8020   18.8289  -31.2649 H   0  0  0  0  0  0  0  0  0  0  0  0
   -5.5700   21.6890  -31.7790 C   0  0  0  0  0  0  0  0  0  0  0  0
   -4.1530   21.2080  -31.6430 C   0  0  0  0  0  0  0  0  0  0  0  0
   -3.8961   21.1208  -30.5770 H   0  0  0  0  0  0  0  0  0  0  0  0
   -4.0515   20.2251  -32.1262 H   0  0  0  0  0  0  0  0  0  0  0  0
   -3.4741   21.9260  -32.1262 H   0  0  0  0  0  0  0  0  0  0  0  0
   -6.0650   22.9220  -31.3770 C   0  0  0  0  0  0  0  0  0  0  0  0
   -5.3560   24.0320  -30.7000 C   0  0  0  0  0  0  0  0  0  0  0  0
   -5.2700   25.1560  -31.2600 O   0  0  0  0  0  0  0  0  0  0  0  0
   -4.8300   23.8830  -29.3750 N   0  0  0  0  0  0  0  0  0  0  0  0
   -3.7260   24.4160  -28.9380 C   0  0  0  0  0  0  0  0  0  0  0  0
   -3.2080   24.2130  -27.6800 C   0  0  0  0  0  0  0  0  0  0  0  0
   -3.6054   23.5764  -26.8757 H   0  0  0  0  0  0  0  0  0  0  0  0
   -2.0640   25.0020  -27.6650 C   0  0  0  0  0  0  0  0  0  0  0  0
   -1.1080   25.1610  -26.5430 C   0  0  0  0  0  0  0  0  0  0  0  0
   -1.4830   25.8900  -25.3980 C   0  0  0  0  0  0  0  0  0  0  0  0
   -2.4856   26.3391  -25.3417 H   0  0  0  0  0  0  0  0  0  0  0  0
   -0.5920   26.0480  -24.3320 C   0  0  0  0  0  0  0  0  0  0  0  0
   -0.8961   26.6188  -23.4422 H   0  0  0  0  0  0  0  0  0  0  0  0
    0.6820   25.4830  -24.3950 C   0  0  0  0  0  0  0  0  0  0  0  0
    1.3816   25.6086  -23.5555 H   0  0  0  0  0  0  0  0  0  0  0  0
    1.0690   24.7580  -25.5240 C   0  0  0  0  0  0  0  0  0  0  0  0
    2.0742   24.3139  -25.5727 H   0  0  0  0  0  0  0  0  0  0  0  0
    0.1820   24.5950  -26.5930 C   0  0  0  0  0  0  0  0  0  0  0  0
    0.4931   24.0214  -27.4785 H   0  0  0  0  0  0  0  0  0  0  0  0
   -1.9370   25.6380  -28.8510 N   0  0  0  0  0  0  0  0  0  0  0  0
   -2.9510   25.2800  -29.6210 N   0  0  0  0  0  0  0  0  0  0  0  0
   -3.1080   25.6540  -30.5830 H   0  0  0  0  0  0  0  0  0  0  0  0
  1  2  1  0
  2  3  2  0
  3  4  1  0
  4  5  1  0
  5  6  2  0
  6  7  1  0
  6  8  1  0
  8  9  1  0
  8 10  2  0
 10 11  1  0
 10 12  1  0
 12 13  1  0
 12 14  2  0
 14 15  1  0
  4 16  1  0
 16 17  1  0
 17 18  1  0
 17 19  1  0
 17 20  1  0
 16 21  2  0
 21 22  1  0
 22 23  2  0
 22 24  1  0
 24 25  2  0
 25 26  1  0
 26 27  1  0
 26 28  2  0
 28 29  1  0
 29 30  2  0
 30 31  1  0
 30 32  1  0
 32 33  1  0
 32 34  2  0
 34 35  1  0
 34 36  1  0
 36 37  1  0
 36 38  2  0
 38 39  1  0
 28 40  1  0
 40 41  1  0
 41 42  1  0
 21  2  1  0
 41 25  1  0
 14  5  1  0
 38 29  1  0
M  CHG  1  40  -1
M  END
>  <UniqueID>  (3) 
3

>  <SMILES>  (3) 
Cc1c(C(=O)/N=c2/cc(-c3ccccc3)[n-][nH]2)cnn1-c1ccccc1

>  <Energy>  (3) 
122.19779766079627

>  <Genealogy>  (3) 
Cc1c(C(=O)N=c2cc(-c3ccccc3)[n-][nH]2)cnn1-c1ccccc1 (protonated)
Cc1c(C(=O)/N=c2/cc(-c3ccccc3)[n-][nH]2)cnn1-c1ccccc1 (cis-trans isomerization)
Cc1c(C(=O)/N=c2/cc(-c3ccccc3)[n-][nH]2)cnn1-c1ccccc1 (3D coordinates assigned)
Cc1c(C(=O)/N=c2/cc(-c3ccccc3)[n-][nH]2)cnn1-c1ccccc1 (optimized conformer: 122.19779766079627 kcal/mol)

>  <smiles>  (3) 
Cc1c(C(=O)N=c2cc(-c3ccccc3)[nH][nH]2)cnn1-c1ccccc1

>  <score_type>  (3) 
oracle

>  <origin>  (3) 
adgpu

>  <m_score__min__energy>  (3) 
-11.6

>  <m_primary>  (3) 
energy

$$$$
3:0
     RDKit          3D

 51 53  0  0  0  0  0  0  0  0999 V2000
   -8.7250   19.4300  -31.2130 C   0  0  0  0  0  0  0  0  0  0  0  0
   -7.3930   19.4190  -31.8360 N   0  0  0  0  0  0  0  0  0  0  0  0
   -6.6890   18.1450  -31.5450 C   0  0  0  0  0  0  0  0  0  0  0  0
   -5.6220   17.7750  -32.5960 C   0  0  0  0  0  0  0  0  0  0  0  0
   -5.1340   18.9640  -33.3070 N   0  0  0  0  0  0  0  0  0  0  0  0
   -3.7220   19.1540  -33.5240 C   0  0  0  0  0  0  0  0  0  0  0  0
   -2.9030   18.0330  -33.7450 C   0  0  0  0  0  0  0  0  0  0  0  0
   -1.5490   18.1900  -34.0500 C   0  0  0  0  0  0  0  0  0  0  0  0
   -0.9990   19.4660  -34.1520 C   0  0  0  0  0  0  0  0  0  0  0  0
   -1.7980   20.5920  -33.9390 C   0  0  0  0  0  0  0  0  0  0  0  0
   -3.1530   20.4500  -33.6050 C   0  0  0  0  0  0  0  0  0  0  0  0
   -3.9290   21.6320  -33.3640 N   0  0  0  0  0  0  0  0  0  0  0  0
   -4.0100   22.2500  -32.0710 C   0  0  0  0  0  0  0  0  0  0  0  0
   -3.2060   21.9000  -31.1630 O   0  0  0  0  0  0  0  0  0  0  0  0
   -4.9670   23.2960  -31.8090 N   0  0  0  0  0  0  0  0  0  0  0  0
   -6.1670   23.4380  -32.6550 C   0  0  0  0  0  0  0  0  0  0  0  0
   -7.3870   22.6910  -32.0750 C   0  0  0  0  0  0  0  0  0  0  0  0
   -7.7270   23.0430  -30.6180 C   0  0  0  0  0  0  0  0  0  0  0  0
   -6.5840   22.7830  -29.6210 C   0  0  0  0  0  0  0  0  0  0  0  0
   -5.5790   23.9380  -29.4420 C   0  0  0  0  0  0  0  0  0  0  0  0
   -4.7100   24.2160  -30.6830 C   0  0  0  0  0  0  0  0  0  0  0  0
   -6.0940   19.9470  -33.8300 C   0  0  0  0  0  0  0  0  0  0  0  0
   -7.4950   19.6780  -33.2820 C   0  0  0  0  0  0  0  0  0  0  0  0
   -8.6178   19.4291  -30.1182 H   0  0  0  0  0  0  0  0  0  0  0  0
   -9.2694   20.3327  -31.5274 H   0  0  0  0  0  0  0  0  0  0  0  0
   -9.2842   18.5364  -31.5274 H   0  0  0  0  0  0  0  0  0  0  0  0
   -6.1959   18.2359  -30.5659 H   0  0  0  0  0  0  0  0  0  0  0  0
   -7.4463   17.3473  -31.5595 H   0  0  0  0  0  0  0  0  0  0  0  0
   -4.7753   17.2881  -32.0901 H   0  0  0  0  0  0  0  0  0  0  0  0
   -6.0807   17.0968  -33.3306 H   0  0  0  0  0  0  0  0  0  0  0  0
   -3.3325   17.0226  -33.6771 H   0  0  0  0  0  0  0  0  0  0  0  0
   -0.9159   17.3048  -34.2099 H   0  0  0  0  0  0  0  0  0  0  0  0
    0.0657   19.5870  -34.4006 H   0  0  0  0  0  0  0  0  0  0  0  0
   -1.3614   21.5972  -34.0339 H   0  0  0  0  0  0  0  0  0  0  0  0
   -4.2510   22.1790  -34.1930 H   0  0  0  0  0  0  0  0  0  0  0  0
   -6.4147   24.5063  -32.7405 H   0  0  0  0  0  0  0  0  0  0  0  0
   -5.9394   22.9975  -33.6369 H   0  0  0  0  0  0  0  0  0  0  0  0
   -8.2619   22.9298  -32.6976 H   0  0  0  0  0  0  0  0  0  0  0  0
   -7.1271   21.6222  -32.0822 H   0  0  0  0  0  0  0  0  0  0  0  0
   -7.9871   24.1109  -30.5732 H   0  0  0  0  0  0  0  0  0  0  0  0
   -8.5592   22.3877  -30.3213 H   0  0  0  0  0  0  0  0  0  0  0  0
   -7.0331   22.5703  -28.6396 H   0  0  0  0  0  0  0  0  0  0  0  0
   -6.0068   21.9445  -30.0379 H   0  0  0  0  0  0  0  0  0  0  0  0
   -6.1426   24.8520  -29.2036 H   0  0  0  0  0  0  0  0  0  0  0  0
   -4.8929   23.6384  -28.6361 H   0  0  0  0  0  0  0  0  0  0  0  0
   -4.9086   25.2433  -31.0223 H   0  0  0  0  0  0  0  0  0  0  0  0
   -3.6629   24.0674  -30.3806 H   0  0  0  0  0  0  0  0  0  0  0  0
   -5.7766   20.9566  -33.5301 H   0  0  0  0  0  0  0  0  0  0  0  0
   -6.1215   19.8657  -34.9266 H   0  0  0  0  0  0  0  0  0  0  0  0
   -8.1359   20.5547  -33.4570 H   0  0  0  0  0  0  0  0  0  0  0  0
   -7.9357   18.8071  -33.7892 H   0  0  0  0  0  0  0  0  0  0  0  0
  1  2  1  0
  2  3  1  0
  3  4  1  0
  4  5  1  0
  5  6  1  0
  6  7  2  0
  7  8  1  0
  8  9  2  0
  9 10  1  0
 10 11  2  0
 11 12  1  0
 12 13  1  0
 13 14  2  0
 13 15  1  0
 15 16  1  0
 16 17  1  0
 17 18  1  0
 18 19  1  0
 19 20  1  0
 20 21  1  0
  5 22  1  0
 22 23  1  0
 23  2  1  0
 11  6  1  0
 21 15  1  0
  1 24  1  0
  1 25  1  0
  1 26  1  0
  3 27  1  0
  3 28  1  0
  4 29  1  0
  4 30  1  0
  7 31  1  0
  8 32  1  0
  9 33  1  0
 10 34  1  0
 12 35  1  0
 16 36  1  0
 16 37  1  0
 17 38  1  0
 17 39  1  0
 18 40  1  0
 18 41  1  0
 19 42  1  0
 19 43  1  0
 20 44  1  0
 20 45  1  0
 21 46  1  0
 21 47  1  0
 22 48  1  0
 22 49  1  0
 23 50  1  0
 23 51  1  0
M  END
>  <UniqueID>  (4) 
4

>  <SMILES>  (4) 
CN1CCN(c2ccccc2NC(=O)N2CCCCCC2)CC1

>  <Energy>  (4) 
69.7027309153454

>  <Genealogy>  (4) 
CN1CCN(c2ccccc2NC(=O)N2CCCCCC2)CC1 (3D coordinates assigned)
CN1CCN(c2ccccc2NC(=O)N2CCCCCC2)CC1 (nonaromatic ring conformer: 69.7027309153454 kcal/mol)

>  <smiles>  (4) 
CN1CCN(c2ccccc2NC(=O)N2CCCCCC2)CC1

>  <score_type>  (4) 
oracle

>  <origin>  (4) 
adgpu

>  <m_score__min__energy>  (4) 
-5.9400000000000004

>  <m_primary>  (4) 
energy

$$$$
4:0
     RDKit          3D

 40 42  0  0  0  0  0  0  0  0999 V2000
   -1.3840   16.4570  -32.6480 O   0  0  0  0  0  0  0  0  0  0  0  0
   -2.2110   17.3380  -33.0080 C   0  0  0  0  0  0  0  0  0  0  0  0
   -3.5860   16.9820  -33.1960 N   0  0  0  0  0  0  0  0  0  0  0  0
   -4.7020   17.8810  -33.1580 C   0  0  0  0  0  0  0  0  0  0  0  0
   -5.0850   18.5410  -34.3330 C   0  0  0  0  0  0  0  0  0  0  0  0
   -6.1350   19.4670  -34.3190 C   0  0  0  0  0  0  0  0  0  0  0  0
   -6.7920   19.7740  -33.1130 C   0  0  0  0  0  0  0  0  0  0  0  0
   -7.8330   20.7580  -33.0320 N   0  0  0  0  0  0  0  0  0  0  0  0
   -8.1840   21.7580  -31.6600 S   0  0  0  0  0  0  0  0  0  0  0  0
   -9.4150   22.5730  -31.9500 O   0  0  0  0  0  0  0  0  0  0  0  0
   -8.4490   20.8720  -30.4760 O   0  0  0  0  0  0  0  0  0  0  0  0
   -6.8160   22.8030  -31.2850 C   0  0  0  0  0  0  0  0  0  0  0  0
   -5.5260   22.4370  -31.6870 C   0  0  0  0  0  0  0  0  0  0  0  0
   -4.4410   23.2730  -31.4120 C   0  0  0  0  0  0  0  0  0  0  0  0
   -4.6360   24.4780  -30.7330 C   0  0  0  0  0  0  0  0  0  0  0  0
   -3.5490   25.3020  -30.4670 O   0  0  0  0  0  0  0  0  0  0  0  0
   -5.9260   24.8470  -30.3210 C   0  0  0  0  0  0  0  0  0  0  0  0
   -6.1480   26.0420  -29.6420 O   0  0  0  0  0  0  0  0  0  0  0  0
   -7.0110   24.0060  -30.5970 C   0  0  0  0  0  0  0  0  0  0  0  0
   -6.4030   19.1160  -31.9390 C   0  0  0  0  0  0  0  0  0  0  0  0
   -5.3680   18.1780  -31.9560 C   0  0  0  0  0  0  0  0  0  0  0  0
   -1.7450   18.7250  -33.2700 C   0  0  0  0  0  0  0  0  0  0  0  0
   -2.1670   19.7770  -32.4330 C   0  0  0  0  0  0  0  0  0  0  0  0
   -1.7540   21.0900  -32.6750 C   0  0  0  0  0  0  0  0  0  0  0  0
   -0.9160   21.3750  -33.7550 C   0  0  0  0  0  0  0  0  0  0  0  0
   -0.4910   20.3480  -34.5950 C   0  0  0  0  0  0  0  0  0  0  0  0
   -0.8990   19.0300  -34.3600 C   0  0  0  0  0  0  0  0  0  0  0  0
   -0.4740   18.0670  -35.2140 F   0  0  0  0  0  0  0  0  0  0  0  0
   -4.5564   18.3299  -35.2743 H   0  0  0  0  0  0  0  0  0  0  0  0
   -6.4473   19.9560  -35.2535 H   0  0  0  0  0  0  0  0  0  0  0  0
   -5.3662   21.4886  -32.2209 H   0  0  0  0  0  0  0  0  0  0  0  0
   -3.4296   22.9813  -31.7313 H   0  0  0  0  0  0  0  0  0  0  0  0
   -5.4000   26.5470  -29.1860 H   0  0  0  0  0  0  0  0  0  0  0  0
   -8.0219   24.2924  -30.2714 H   0  0  0  0  0  0  0  0  0  0  0  0
   -6.9182   19.3404  -30.9934 H   0  0  0  0  0  0  0  0  0  0  0  0
   -5.0731   17.6701  -31.0259 H   0  0  0  0  0  0  0  0  0  0  0  0
   -2.8282   19.5626  -31.5805 H   0  0  0  0  0  0  0  0  0  0  0  0
   -2.0901   21.9014  -32.0127 H   0  0  0  0  0  0  0  0  0  0  0  0
   -0.5918   22.4093  -33.9423 H   0  0  0  0  0  0  0  0  0  0  0  0
    0.1679   20.5739  -35.4464 H   0  0  0  0  0  0  0  0  0  0  0  0
  1  2  2  0
  2  3  1  0
  3  4  1  0
  4  5  2  0
  5  6  1  0
  6  7  2  0
  7  8  1  0
  8  9  1  0
  9 10  2  0
  9 11  2  0
  9 12  1  0
 12 13  2  0
 13 14  1  0
 14 15  2  0
 15 16  1  0
 15 17  1  0
 17 18  1  0
 17 19  2  0
  7 20  1  0
 20 21  2  0
  2 22  1  0
 22 23  2  0
 23 24  1  0
 24 25  2  0
 25 26  1  0
 26 27  2  0
 27 28  1  0
 21  4  1  0
 27 22  1  0
 19 12  1  0
  5 29  1  0
  6 30  1  0
 13 31  1  0
 14 32  1  0
 18 33  1  0
 19 34  1  0
 20 35  1  0
 21 36  1  0
 23 37  1  0
 24 38  1  0
 25 39  1  0
 26 40  1  0
M  CHG  3   3  -1   8  -1  16  -1
M  END
>  <UniqueID>  (5) 
5

>  <SMILES>  (5) 
O=C([N-]c1ccc([N-]S(=O)(=O)c2ccc([O-])c(O)c2)cc1)c1ccccc1F

>  <Energy>  (5) 
52.58291017231406

>  <Genealogy>  (5) 
O=C([N-]c1ccc([N-]S(=O)(=O)c2ccc([O-])c(O)c2)cc1)c1ccccc1F (protonated)
O=C([N-]c1ccc([N-]S(=O)(=O)c2ccc([O-])c(O)c2)cc1)c1ccccc1F (3D coordinates assigned)
O=C([N-]c1ccc([N-]S(=O)(=O)c2ccc([O-])c(O)c2)cc1)c1ccccc1F (optimized conformer: 52.58291017231406 kcal/mol)

>  <smiles>  (5) 
O=C(Nc1ccc(NS(=O)(=O)c2ccc(O)c(O)c2)cc1)c1ccccc1F

>  <score_type>  (5) 
oracle

>  <origin>  (5) 
adgpu

>  <m_score__min__energy>  (5) 
-10.76

>  <m_primary>  (5) 
energy

$$$$
5:0
     RDKit          3D

 54 57  0  0  0  0  0  0  0  0999 V2000
   -5.8510   26.0700  -31.2720 O   0  0  0  0  0  0  0  0  0  0  0  0
   -5.3320   24.9780  -30.3800 S   0  0  0  0  0  0  0  0  0  0  0  0
   -5.7340   25.2870  -28.9640 O   0  0  0  0  0  0  0  0  0  0  0  0
   -3.6050   24.9140  -30.4620 N   0  0  0  0  0  0  0  0  0  0  0  0
   -2.8610   24.2080  -29.4710 C   0  0  0  0  0  0  0  0  0  0  0  0
   -3.2930   22.9440  -29.0590 C   0  0  0  0  0  0  0  0  0  0  0  0
   -2.5260   22.1870  -28.1630 C   0  0  0  0  0  0  0  0  0  0  0  0
   -1.3400   22.7370  -27.6210 C   0  0  0  0  0  0  0  0  0  0  0  0
   -0.9240   24.0140  -28.0300 C   0  0  0  0  0  0  0  0  0  0  0  0
   -1.6780   24.7470  -28.9490 C   0  0  0  0  0  0  0  0  0  0  0  0
   -1.2470   26.0080  -29.3410 O   0  0  0  0  0  0  0  0  0  0  0  0
   -0.4440   21.9370  -26.7040 C   0  0  0  0  0  0  0  0  0  0  0  0
   -1.1620   20.7420  -26.0700 C   0  0  0  0  0  0  0  0  0  0  0  0
   -1.9330   19.9590  -27.1320 C   0  0  0  0  0  0  0  0  0  0  0  0
   -3.0330   20.8300  -27.7410 C   0  0  0  0  0  0  0  0  0  0  0  0
   -6.0130   23.4300  -30.8780 C   0  0  0  0  0  0  0  0  0  0  0  0
   -7.3580   23.1300  -30.6310 C   0  0  0  0  0  0  0  0  0  0  0  0
   -7.8950   21.9150  -31.0590 C   0  0  0  0  0  0  0  0  0  0  0  0
   -7.0960   20.9860  -31.7320 C   0  0  0  0  0  0  0  0  0  0  0  0
   -7.6690   19.7980  -32.1710 O   0  0  0  0  0  0  0  0  0  0  0  0
   -5.7350   21.2640  -31.9640 C   0  0  0  0  0  0  0  0  0  0  0  0
   -4.6920   20.1090  -32.8120 S   0  0  0  0  0  0  0  0  0  0  0  0
   -4.6490   18.8180  -32.0430 O   0  0  0  0  0  0  0  0  0  0  0  0
   -5.2890   19.8260  -34.1640 O   0  0  0  0  0  0  0  0  0  0  0  0
   -3.0720   20.7380  -33.0260 N   0  0  0  0  0  0  0  0  0  0  0  0
   -2.4170   20.8910  -31.7110 C   0  0  0  0  0  0  0  0  0  0  0  0
   -0.8960   21.1470  -31.8230 C   0  0  0  0  0  0  0  0  0  0  0  0
   -0.4740   21.4930  -33.2510 C   0  0  0  0  0  0  0  0  0  0  0  0
   -0.9220   20.4030  -34.2350 C   0  0  0  0  0  0  0  0  0  0  0  0
   -2.3060   19.8190  -33.8860 C   0  0  0  0  0  0  0  0  0  0  0  0
   -5.2050   22.4930  -31.5420 C   0  0  0  0  0  0  0  0  0  0  0  0
   -4.2423   22.5404  -29.4410 H   0  0  0  0  0  0  0  0  0  0  0  0
    0.0043   24.4411  -27.6229 H   0  0  0  0  0  0  0  0  0  0  0  0
    0.4123   21.5648  -27.2856 H   0  0  0  0  0  0  0  0  0  0  0  0
   -0.1240   22.6027  -25.8889 H   0  0  0  0  0  0  0  0  0  0  0  0
   -0.4193   20.0806  -25.6000 H   0  0  0  0  0  0  0  0  0  0  0  0
   -1.8709   21.1115  -25.3144 H   0  0  0  0  0  0  0  0  0  0  0  0
   -1.2391   19.6438  -27.9252 H   0  0  0  0  0  0  0  0  0  0  0  0
   -2.3941   19.0779  -26.6619 H   0  0  0  0  0  0  0  0  0  0  0  0
   -3.4425   20.3161  -28.6232 H   0  0  0  0  0  0  0  0  0  0  0  0
   -3.8028   20.9847  -26.9706 H   0  0  0  0  0  0  0  0  0  0  0  0
   -7.9929   23.8534  -30.0985 H   0  0  0  0  0  0  0  0  0  0  0  0
   -8.9536   21.6869  -30.8656 H   0  0  0  0  0  0  0  0  0  0  0  0
   -2.8782   21.7403  -31.1857 H   0  0  0  0  0  0  0  0  0  0  0  0
   -2.5536   19.9475  -31.1622 H   0  0  0  0  0  0  0  0  0  0  0  0
   -0.6276   21.9838  -31.1614 H   0  0  0  0  0  0  0  0  0  0  0  0
   -0.3749   20.2235  -31.5305 H   0  0  0  0  0  0  0  0  0  0  0  0
   -0.9332   22.4498  -33.5402 H   0  0  0  0  0  0  0  0  0  0  0  0
    0.6230   21.5670  -33.2847 H   0  0  0  0  0  0  0  0  0  0  0  0
   -0.9677   20.8374  -35.2446 H   0  0  0  0  0  0  0  0  0  0  0  0
   -0.1911   19.5829  -34.1779 H   0  0  0  0  0  0  0  0  0  0  0  0
   -2.8674   19.6466  -34.8161 H   0  0  0  0  0  0  0  0  0  0  0  0
   -2.1578   18.8750  -33.3411 H   0  0  0  0  0  0  0  0  0  0  0  0
   -4.1468   22.7245  -31.7332 H   0  0  0  0  0  0  0  0  0  0  0  0
  1  2  2  0
  2  3  2  0
  2  4  1  0
  4  5  1  0
  5  6  2  0
  6  7  1  0
  7  8  2  0
  8  9  1  0
  9 10  2  0
 10 11  1  0
  8 12  1  0
 12 13  1  0
 13 14  1  0
 14 15  1  0
  2 16  1  0
 16 17  2  0
 17 18  1  0
 18 19  2  0
 19 20  1  0
 19 21  1  0
 21 22  1  0
 22 23  2  0
 22 24  2  0
 22 25  1  0
 25 26  1  0
 26 27  1  0
 27 28  1  0
 28 29  1  0
 29 30  1  0
 21 31  2  0
 10  5  1  0
 31 16  1  0
 15  7  1  0
 30 25  1  0
  6 32  1  0
  9 33  1  0
 12 34  1  0
 12 35  1  0
 13 36  1  0
 13 37  1  0
 14 38  1  0
 14 39  1  0
 15 40  1  0
 15 41  1  0
 17 42  1  0
 18 43  1  0
 26 44  1  0
 26 45  1  0
 27 46  1  0
 27 47  1  0
 28 48  1  0
 28 49  1  0
 29 50  1  0
 29 51  1  0
 30 52  1  0
 30 53  1  0
 31 54  1  0
M  CHG  3   4  -1  11  -1  20  -1
M  END
>  <UniqueID>  (6) 
6

>  <SMILES>  (6) 
O=S(=O)([N-]c1cc2c(cc1[O-])CCCC2)c1ccc([O-])c(S(=O)(=O)N2CCCCC2)c1

>  <Energy>  (6) 
65.44557643701403

>  <Genealogy>  (6) 
O=S(=O)([N-]c1cc2c(cc1[O-])CCCC2)c1ccc([O-])c(S(=O)(=O)N2CCCCC2)c1 (protonated)
O=S(=O)([N-]c1cc2c(cc1[O-])CCCC2)c1ccc([O-])c(S(=O)(=O)N2CCCCC2)c1 (3D coordinates assigned)
O=S(=O)([N-]c1cc2c(cc1[O-])CCCC2)c1ccc([O-])c(S(=O)(=O)N2CCCCC2)c1 (nonaromatic ring conformer: 65.44557643701403 kcal/mol)

>  <smiles>  (6) 
O=S(=O)(Nc1cc2c(cc1O)CCCC2)c1ccc(O)c(S(=O)(=O)N2CCCCC2)c1

>  <score_type>  (6) 
oracle

>  <origin>  (6) 
adgpu

>  <m_score__min__energy>  (6) 
-15.26

>  <m_primary>  (6) 
energy

$$$$
6:0
     RDKit          3D

 57 60  0  0  0  0  0  0  0  0999 V2000
   -2.7510   17.4780  -33.1930 C   0  0  0  0  0  0  0  0  0  0  0  0
   -4.2030   17.6940  -33.2860 N   0  0  0  0  0  0  0  0  0  0  0  0
   -4.9280   16.4200  -33.1330 C   0  0  0  0  0  0  0  0  0  0  0  0
   -6.4250   16.5530  -33.4990 C   0  0  0  0  0  0  0  0  0  0  0  0
   -6.8760   17.9510  -33.6390 N   0  0  0  0  0  0  0  0  0  0  0  0
   -7.1960   18.7290  -32.1010 S   0  0  0  0  0  0  0  0  0  0  0  0
   -6.4450   18.0120  -31.0130 O   0  0  0  0  0  0  0  0  0  0  0  0
   -8.6640   18.6210  -31.7920 O   0  0  0  0  0  0  0  0  0  0  0  0
   -6.7450   20.4350  -32.0860 C   0  0  0  0  0  0  0  0  0  0  0  0
   -5.4090   20.8130  -32.2760 C   0  0  0  0  0  0  0  0  0  0  0  0
   -5.0390   22.1590  -32.2100 C   0  0  0  0  0  0  0  0  0  0  0  0
   -6.0110   23.1490  -31.9780 C   0  0  0  0  0  0  0  0  0  0  0  0
   -5.6670   24.5380  -31.8650 N   0  0  0  0  0  0  0  0  0  0  0  0
   -5.0180   25.1580  -30.7490 C   0  0  0  0  0  0  0  0  0  0  0  0
   -5.6520   26.0080  -30.0710 O   0  0  0  0  0  0  0  0  0  0  0  0
   -3.6350   24.8960  -30.4770 N   0  0  0  0  0  0  0  0  0  0  0  0
   -3.1130   23.9030  -29.5800 C   0  0  0  0  0  0  0  0  0  0  0  0
   -3.7750   22.6850  -29.3770 C   0  0  0  0  0  0  0  0  0  0  0  0
   -3.2210   21.7150  -28.5490 C   0  0  0  0  0  0  0  0  0  0  0  0
   -2.0090   21.9440  -27.8920 C   0  0  0  0  0  0  0  0  0  0  0  0
   -1.3840   20.6190  -26.9190 Cl  0  0  0  0  0  0  0  0  0  0  0  0
   -1.3280   23.1760  -28.0650 C   0  0  0  0  0  0  0  0  0  0  0  0
    0.1750   23.5380  -27.1820 S   0  0  0  0  0  0  0  0  0  0  0  0
    1.0440   22.3100  -27.1520 O   0  0  0  0  0  0  0  0  0  0  0  0
    0.9640   24.6250  -27.8550 O   0  0  0  0  0  0  0  0  0  0  0  0
   -0.2580   24.0820  -25.5270 C   0  0  0  0  0  0  0  0  0  0  0  0
    0.9130   24.0830  -24.5560 C   0  0  0  0  0  0  0  0  0  0  0  0
   -0.1750   23.0310  -24.4310 C   0  0  0  0  0  0  0  0  0  0  0  0
   -1.8720   24.1330  -28.9650 C   0  0  0  0  0  0  0  0  0  0  0  0
   -1.2030   25.3170  -29.2860 O   0  0  0  0  0  0  0  0  0  0  0  0
   -7.3430   22.7680  -31.7840 C   0  0  0  0  0  0  0  0  0  0  0  0
   -7.7120   21.4220  -31.8480 C   0  0  0  0  0  0  0  0  0  0  0  0
   -6.0320   18.7660  -34.5400 C   0  0  0  0  0  0  0  0  0  0  0  0
   -4.5550   18.3330  -34.5590 C   0  0  0  0  0  0  0  0  0  0  0  0
   -2.4539   17.4338  -32.1348 H   0  0  0  0  0  0  0  0  0  0  0  0
   -2.4888   16.5310  -33.6873 H   0  0  0  0  0  0  0  0  0  0  0  0
   -2.2245   18.3077  -33.6873 H   0  0  0  0  0  0  0  0  0  0  0  0
   -4.4675   15.6689  -33.7916 H   0  0  0  0  0  0  0  0  0  0  0  0
   -4.8636   16.1191  -32.0769 H   0  0  0  0  0  0  0  0  0  0  0  0
   -6.5971   16.0346  -34.4538 H   0  0  0  0  0  0  0  0  0  0  0  0
   -7.0001   16.1092  -32.6730 H   0  0  0  0  0  0  0  0  0  0  0  0
   -4.6471   20.0458  -32.4783 H   0  0  0  0  0  0  0  0  0  0  0  0
   -3.9848   22.4451  -32.3398 H   0  0  0  0  0  0  0  0  0  0  0  0
   -4.7373   22.4952  -29.8749 H   0  0  0  0  0  0  0  0  0  0  0  0
   -3.7426   20.7566  -28.4095 H   0  0  0  0  0  0  0  0  0  0  0  0
   -1.0286   24.8005  -25.8431 H   0  0  0  0  0  0  0  0  0  0  0  0
    1.9165   23.7975  -24.9044 H   0  0  0  0  0  0  0  0  0  0  0  0
    1.3595   24.8244  -23.8770 H   0  0  0  0  0  0  0  0  0  0  0  0
    0.0407   21.9836  -24.6888 H   0  0  0  0  0  0  0  0  0  0  0  0
   -0.8426   22.6951  -23.6238 H   0  0  0  0  0  0  0  0  0  0  0  0
   -1.6120   26.0680  -29.8220 H   0  0  0  0  0  0  0  0  0  0  0  0
   -8.1056   23.5339  -31.5795 H   0  0  0  0  0  0  0  0  0  0  0  0
   -8.7652   21.1355  -31.7111 H   0  0  0  0  0  0  0  0  0  0  0  0
   -6.4321   18.6827  -35.5613 H   0  0  0  0  0  0  0  0  0  0  0  0
   -6.0608   19.7989  -34.1627 H   0  0  0  0  0  0  0  0  0  0  0  0
   -4.3950   17.6198  -35.3811 H   0  0  0  0  0  0  0  0  0  0  0  0
   -3.9206   19.2196  -34.7055 H   0  0  0  0  0  0  0  0  0  0  0  0
  1  2  1  0
  2  3  1  0
  3  4  1  0
  4  5  1  0
  5  6  1  0
  6  7  2  0
  6  8  2  0
  6  9  1  0
  9 10  2  0
 10 11  1  0
 11 12  2  0
 12 13  1  0
 13 14  1  0
 14 15  2  0
 14 16  1  0
 16 17  1  0
 17 18  2  0
 18 19  1  0
 19 20  2  0
 20 21  1  0
 20 22  1  0
 22 23  1  0
 23 24  2  0
 23 25  2  0
 23 26  1  0
 26 27  1  0
 27 28  1  0
 22 29  2  0
 29 30  1  0
 12 31  1  0
 31 32  2  0
  5 33  1  0
 33 34  1  0
 34  2  1  0
 32  9  1  0
 29 17  1  0
 28 26  1  0
  1 35  1  0
  1 36  1  0
  1 37  1  0
  3 38  1  0
  3 39  1  0
  4 40  1  0
  4 41  1  0
 10 42  1  0
 11 43  1  0
 18 44  1  0
 19 45  1  0
 26 46  1  0
 27 47  1  0
 27 48  1  0
 28 49  1  0
 28 50  1  0
 30 51  1  0
 31 52  1  0
 32 53  1  0
 33 54  1  0
 33 55  1  0
 34 56  1  0
 34 57  1  0
M  CHG  2  13  -1  16  -1
M  END
>  <UniqueID>  (7) 
7

>  <SMILES>  (7) 
CN1CCN(S(=O)(=O)c2ccc([N-]C(=O)[N-]c3ccc(Cl)c(S(=O)(=O)C4CC4)c3O)cc2)CC1

>  <Energy>  (7) 
344.2305949855651

>  <Genealogy>  (7) 
CN1CCN(S(=O)(=O)c2ccc([N-]C(=O)[N-]c3ccc(Cl)c(S(=O)(=O)C4CC4)c3O)cc2)CC1 (protonated)
CN1CCN(S(=O)(=O)c2ccc([N-]C(=O)[N-]c3ccc(Cl)c(S(=O)(=O)C4CC4)c3O)cc2)CC1 (3D coordinates assigned)
CN1CCN(S(=O)(=O)c2ccc([N-]C(=O)[N-]c3ccc(Cl)c(S(=O)(=O)C4CC4)c3O)cc2)CC1 (nonaromatic ring conformer: 344.2305949855651 kcal/mol)

>  <smiles>  (7) 
CN1CCN(S(=O)(=O)c2ccc(NC(=O)Nc3ccc(Cl)c(S(=O)(=O)C4CC4)c3O)cc2)CC1

>  <score_type>  (7) 
oracle

>  <origin>  (7) 
adgpu

>  <m_score__min__energy>  (7) 
-14.25

>  <m_primary>  (7) 
energy

$$$$
7:0
     RDKit          3D

 41 43  0  0  0  0  0  0  0  0999 V2000
   -5.5840   26.1820  -31.0930 H   0  0  0  0  0  0  0  0  0  0  0  0
   -4.7460   26.0450  -30.4850 N   0  0  0  0  0  0  0  0  0  0  0  0
   -4.1240   24.9120  -30.4380 C   0  0  0  0  0  0  0  0  0  0  0  0
   -3.0390   24.7730  -29.6350 N   0  0  0  0  0  0  0  0  0  0  0  0
   -2.3640   23.5940  -29.5560 C   0  0  0  0  0  0  0  0  0  0  0  0
   -1.2040   23.5060  -28.7160 N   0  0  0  0  0  0  0  0  0  0  0  0
   -0.3210   24.4880  -28.6180 N   0  0  0  0  0  0  0  0  0  0  0  0
    0.6230   24.1020  -27.7380 C   0  0  0  0  0  0  0  0  0  0  0  0
    1.8290   24.9120  -27.4020 C   0  0  0  0  0  0  0  0  0  0  0  0
    1.9316   24.9809  -26.3090 H   0  0  0  0  0  0  0  0  0  0  0  0
    2.7233   24.4307  -27.8246 H   0  0  0  0  0  0  0  0  0  0  0  0
    1.7218   25.9219  -27.8246 H   0  0  0  0  0  0  0  0  0  0  0  0
    0.3430   22.8360  -27.2640 C   0  0  0  0  0  0  0  0  0  0  0  0
    0.9281   22.2367  -26.5509 H   0  0  0  0  0  0  0  0  0  0  0  0
   -0.8400   22.4940  -27.8900 C   0  0  0  0  0  0  0  0  0  0  0  0
   -1.5960   21.2220  -27.6540 C   0  0  0  0  0  0  0  0  0  0  0  0
   -1.6975   21.0512  -26.5721 H   0  0  0  0  0  0  0  0  0  0  0  0
   -2.5948   21.2994  -28.1083 H   0  0  0  0  0  0  0  0  0  0  0  0
   -1.0507   20.3817  -28.1083 H   0  0  0  0  0  0  0  0  0  0  0  0
   -2.7780   22.5140  -30.3460 C   0  0  0  0  0  0  0  0  0  0  0  0
   -2.2244   21.5637  -30.3271 H   0  0  0  0  0  0  0  0  0  0  0  0
   -3.9100   22.6630  -31.1620 C   0  0  0  0  0  0  0  0  0  0  0  0
   -4.3880   21.5800  -31.9890 N   0  0  0  0  0  0  0  0  0  0  0  0
   -5.7180   20.9910  -31.7830 C   0  0  0  0  0  0  0  0  0  0  0  0
   -5.6402   20.1603  -31.0661 H   0  0  0  0  0  0  0  0  0  0  0  0
   -6.3955   21.7639  -31.3910 H   0  0  0  0  0  0  0  0  0  0  0  0
   -6.2770   20.4630  -33.1120 C   0  0  0  0  0  0  0  0  0  0  0  0
   -7.2239   19.9416  -32.9084 H   0  0  0  0  0  0  0  0  0  0  0  0
   -6.4118   21.3316  -33.7734 H   0  0  0  0  0  0  0  0  0  0  0  0
   -5.3630   19.5220  -33.8090 N   0  0  0  0  0  0  0  0  0  0  0  0
   -5.8280   18.1320  -33.6870 C   0  0  0  0  0  0  0  0  0  0  0  0
   -5.9166   17.8671  -32.6231 H   0  0  0  0  0  0  0  0  0  0  0  0
   -6.8093   18.0296  -34.1733 H   0  0  0  0  0  0  0  0  0  0  0  0
   -5.1058   17.4597  -34.1733 H   0  0  0  0  0  0  0  0  0  0  0  0
   -3.9410   19.6250  -33.4080 C   0  0  0  0  0  0  0  0  0  0  0  0
   -3.7754   18.9940  -32.5223 H   0  0  0  0  0  0  0  0  0  0  0  0
   -3.3244   19.2915  -34.2557 H   0  0  0  0  0  0  0  0  0  0  0  0
   -3.5420   21.0640  -33.0710 C   0  0  0  0  0  0  0  0  0  0  0  0
   -2.4896   21.0847  -32.7517 H   0  0  0  0  0  0  0  0  0  0  0  0
   -3.6741   21.6933  -33.9635 H   0  0  0  0  0  0  0  0  0  0  0  0
   -4.5520   23.8630  -31.1880 N   0  0  0  0  0  0  0  0  0  0  0  0
  1  2  1  0
  2  3  2  0
  3  4  1  0
  4  5  2  0
  5  6  1  0
  6  7  1  0
  7  8  2  0
  8  9  1  0
  9 10  1  0
  9 11  1  0
  9 12  1  0
  8 13  1  0
 13 14  1  0
 13 15  2  0
 15 16  1  0
 16 17  1  0
 16 18  1  0
 16 19  1  0
  5 20  1  0
 20 21  1  0
 20 22  2  0
 22 23  1  0
 23 24  1  0
 24 25  1  0
 24 26  1  0
 24 27  1  0
 27 28  1  0
 27 29  1  0
 27 30  1  0
 30 31  1  0
 31 32  1  0
 31 33  1  0
 31 34  1  0
 30 35  1  0
 35 36  1  0
 35 37  1  0
 35 38  1  0
 38 39  1  0
 38 40  1  0
 22 41  1  0
 41  3  1  0
 15  6  1  0
 38 23  1  0
M  CHG  1  41  -1
M  END
>  <UniqueID>  (8) 
8

>  <SMILES>  (8) 
[H]/N=c1/nc(-n2nc(C)cc2C)cc(N2CCN(C)CC2)[n-]1

>  <Energy>  (8) 
82.68443660267822

>  <Genealogy>  (8) 
Cc1cc(C)n(-c2cc(N3CCN(C)CC3)[n-]c(=N)n2)n1 (protonated)
[H]/N=c1/nc(-n2nc(C)cc2C)cc(N2CCN(C)CC2)[n-]1 (cis-trans isomerization)
[H]/N=c1/nc(-n2nc(C)cc2C)cc(N2CCN(C)CC2)[n-]1 (3D coordinates assigned)
[H]/N=c1/nc(-n2nc(C)cc2C)cc(N2CCN(C)CC2)[n-]1 (nonaromatic ring conformer: 82.68443660267822 kcal/mol)

>  <smiles>  (8) 
Cc1cc(C)n(-c2cc(N3CCN(C)CC3)[nH]c(=N)n2)n1

>  <score_type>  (8) 
oracle

>  <origin>  (8) 
adgpu

>  <m_score__min__energy>  (8) 
-8.1999999999999993

>  <m_primary>  (8) 
energy

$$$$
8:0
     RDKit          3D

 81 86  0  0  0  0  0  0  0  0999 V2000
   -1.7010   25.8950  -26.3920 C   0  0  0  0  0  0  0  0  0  0  0  0
   -1.5920   25.6600  -27.7940 O   0  0  0  0  0  0  0  0  0  0  0  0
   -1.8850   24.4350  -28.4150 C   0  0  0  0  0  0  0  0  0  0  0  0
   -3.0610   23.7090  -28.1390 C   0  0  0  0  0  0  0  0  0  0  0  0
   -3.3060   22.4950  -28.7870 C   0  0  0  0  0  0  0  0  0  0  0  0
   -2.3900   21.9880  -29.7260 C   0  0  0  0  0  0  0  0  0  0  0  0
   -2.6170   20.6630  -30.4170 C   0  0  0  0  0  0  0  0  0  0  0  0
   -2.7250   20.8210  -31.8750 N   0  0  0  0  0  0  0  0  0  0  0  0
   -3.5960   21.6460  -32.5050 C   0  0  0  0  0  0  0  0  0  0  0  0
   -4.5290   22.6140  -31.8320 C   0  0  0  0  0  0  0  0  0  0  0  0
   -5.9420   22.0930  -31.8560 C   0  0  0  0  0  0  0  0  0  0  0  0
   -6.1850   20.7170  -31.6990 C   0  0  0  0  0  0  0  0  0  0  0  0
   -7.4950   20.2180  -31.7370 C   0  0  0  0  0  0  0  0  0  0  0  0
   -7.7390   18.7430  -31.6070 C   0  0  0  0  0  0  0  0  0  0  0  0
   -8.5660   21.0990  -31.9710 C   0  0  0  0  0  0  0  0  0  0  0  0
   -8.3340   22.4750  -32.1380 C   0  0  0  0  0  0  0  0  0  0  0  0
   -9.4830   23.4180  -32.3530 C   0  0  0  0  0  0  0  0  0  0  0  0
   -7.0250   22.9690  -32.0530 C   0  0  0  0  0  0  0  0  0  0  0  0
   -3.5030   21.5460  -33.8420 N   0  0  0  0  0  0  0  0  0  0  0  0
   -2.5830   20.6340  -34.0950 N   0  0  0  0  0  0  0  0  0  0  0  0
   -2.1060   20.1870  -32.9140 C   0  0  0  0  0  0  0  0  0  0  0  0
   -1.0480   19.0870  -32.9080 C   0  0  2  0  0  0  0  0  0  0  0  0
   -1.1860   17.9150  -33.8970 C   0  0  0  0  0  0  0  0  0  0  0  0
   -2.3680   17.0550  -33.5470 C   0  0  0  0  0  0  0  0  0  0  0  0
   -2.3440   15.9010  -32.7710 C   0  0  0  0  0  0  0  0  0  0  0  0
   -3.5990   15.4250  -32.5930 N   0  0  0  0  0  0  0  0  0  0  0  0
   -4.4140   16.2730  -33.2410 C   0  0  0  0  0  0  0  0  0  0  0  0
   -5.8060   16.2100  -33.3250 C   0  0  0  0  0  0  0  0  0  0  0  0
   -6.4670   17.2190  -34.0480 C   0  0  0  0  0  0  0  0  0  0  0  0
   -5.7340   18.2590  -34.6600 C   0  0  0  0  0  0  0  0  0  0  0  0
   -4.3310   18.3000  -34.5570 C   0  0  0  0  0  0  0  0  0  0  0  0
   -3.7010   17.2840  -33.8360 C   0  0  0  0  0  0  0  0  0  0  0  0
   -0.8950   18.5750  -31.5400 N   0  0  0  0  0  0  0  0  0  0  0  0
    0.1020   19.0580  -30.6220 C   0  0  0  0  0  0  0  0  0  0  0  0
    0.8010   20.0710  -30.9090 O   0  0  0  0  0  0  0  0  0  0  0  0
    0.2950   18.3800  -29.2960 C   0  0  0  0  0  0  0  0  0  0  0  0
   -0.3540   19.1620  -28.1820 C   0  0  0  0  0  0  0  0  0  0  0  0
    0.0840   20.4610  -27.8710 C   0  0  0  0  0  0  0  0  0  0  0  0
   -0.5330   21.1870  -26.8460 C   0  0  0  0  0  0  0  0  0  0  0  0
   -1.5890   20.6210  -26.1220 C   0  0  0  0  0  0  0  0  0  0  0  0
   -2.0210   19.3260  -26.4180 C   0  0  0  0  0  0  0  0  0  0  0  0
   -1.4140   18.5980  -27.4480 C   0  0  0  0  0  0  0  0  0  0  0  0
   -1.2140   22.7100  -29.9880 C   0  0  0  0  0  0  0  0  0  0  0  0
   -0.9670   23.9240  -29.3400 C   0  0  0  0  0  0  0  0  0  0  0  0
   -1.2999   25.0303  -25.8430 H   0  0  0  0  0  0  0  0  0  0  0  0
   -1.1288   26.7959  -26.1257 H   0  0  0  0  0  0  0  0  0  0  0  0
   -2.7584   26.0401  -26.1257 H   0  0  0  0  0  0  0  0  0  0  0  0
   -3.7882   24.0989  -27.4115 H   0  0  0  0  0  0  0  0  0  0  0  0
   -4.2231   21.9314  -28.5606 H   0  0  0  0  0  0  0  0  0  0  0  0
   -1.7726   19.9947  -30.1925 H   0  0  0  0  0  0  0  0  0  0  0  0
   -3.5631   20.2411  -30.0470 H   0  0  0  0  0  0  0  0  0  0  0  0
   -4.2130   22.7538  -30.7877 H   0  0  0  0  0  0  0  0  0  0  0  0
   -4.4953   23.5720  -32.3715 H   0  0  0  0  0  0  0  0  0  0  0  0
   -5.3419   20.0274  -31.5453 H   0  0  0  0  0  0  0  0  0  0  0  0
   -7.7840   18.4712  -30.5420 H   0  0  0  0  0  0  0  0  0  0  0  0
   -8.6921   18.4849  -32.0918 H   0  0  0  0  0  0  0  0  0  0  0  0
   -6.9198   18.1917  -32.0918 H   0  0  0  0  0  0  0  0  0  0  0  0
   -9.5929   20.7082  -32.0237 H   0  0  0  0  0  0  0  0  0  0  0  0
   -9.8783   23.7424  -31.3791 H   0  0  0  0  0  0  0  0  0  0  0  0
   -9.1363   24.2954  -32.9187 H   0  0  0  0  0  0  0  0  0  0  0  0
  -10.2759   22.9069  -32.9187 H   0  0  0  0  0  0  0  0  0  0  0  0
   -6.8431   24.0503  -32.1410 H   0  0  0  0  0  0  0  0  0  0  0  0
   -0.1514   19.6010  -33.2848 H   0  0  0  0  0  0  0  0  0  0  0  0
   -1.3196   18.3148  -34.9130 H   0  0  0  0  0  0  0  0  0  0  0  0
   -0.2754   17.3002  -33.8431 H   0  0  0  0  0  0  0  0  0  0  0  0
   -1.4338   15.4400  -32.3599 H   0  0  0  0  0  0  0  0  0  0  0  0
   -3.8710   14.5750  -32.0490 H   0  0  0  0  0  0  0  0  0  0  0  0
   -6.3678   15.3973  -32.8413 H   0  0  0  0  0  0  0  0  0  0  0  0
   -7.5632   17.1978  -34.1374 H   0  0  0  0  0  0  0  0  0  0  0  0
   -6.2634   19.0429  -35.2214 H   0  0  0  0  0  0  0  0  0  0  0  0
   -3.7500   19.1060  -35.0290 H   0  0  0  0  0  0  0  0  0  0  0  0
   -1.5050   17.7760  -31.2470 H   0  0  0  0  0  0  0  0  0  0  0  0
   -0.1534   17.3764  -29.3379 H   0  0  0  0  0  0  0  0  0  0  0  0
    1.3741   18.3155  -29.0925 H   0  0  0  0  0  0  0  0  0  0  0  0
    0.9151   20.9087  -28.4356 H   0  0  0  0  0  0  0  0  0  0  0  0
   -0.1876   22.2041  -26.6088 H   0  0  0  0  0  0  0  0  0  0  0  0
   -2.0779   21.1952  -25.3212 H   0  0  0  0  0  0  0  0  0  0  0  0
   -2.8415   18.8765  -25.8394 H   0  0  0  0  0  0  0  0  0  0  0  0
   -1.7662   17.5830  -27.6842 H   0  0  0  0  0  0  0  0  0  0  0  0
   -0.4816   22.3172  -30.7087 H   0  0  0  0  0  0  0  0  0  0  0  0
   -0.0444   24.4817  -29.5587 H   0  0  0  0  0  0  0  0  0  0  0  0
  1  2  1  0
  2  3  1  0
  3  4  2  0
  4  5  1  0
  5  6  2  0
  6  7  1  0
  7  8  1  0
  8  9  1  0
  9 10  1  0
 10 11  1  0
 11 12  2  0
 12 13  1  0
 13 14  1  0
 13 15  2  0
 15 16  1  0
 16 17  1  0
 16 18  2  0
  9 19  2  0
 19 20  1  0
 20 21  2  0
 21 22  1  0
 22 23  1  0
 23 24  1  0
 24 25  2  0
 25 26  1  0
 26 27  1  0
 27 28  2  0
 28 29  1  0
 29 30  2  0
 30 31  1  0
 31 32  2  0
 22 33  1  0
 33 34  1  0
 34 35  2  0
 34 36  1  0
 36 37  1  0
 37 38  2  0
 38 39  1  0
 39 40  2  0
 40 41  1  0
 41 42  2  0
  6 43  1  0
 43 44  2  0
 44  3  1  0
 21  8  1  0
 32 24  1  0
 42 37  1  0
 18 11  1  0
 32 27  1  0
  1 45  1  0
  1 46  1  0
  1 47  1  0
  4 48  1  0
  5 49  1  0
  7 50  1  0
  7 51  1  0
 10 52  1  0
 10 53  1  0
 12 54  1  0
 14 55  1  0
 14 56  1  0
 14 57  1  0
 15 58  1  0
 17 59  1  0
 17 60  1  0
 17 61  1  0
 18 62  1  0
 22 63  1  6
 23 64  1  0
 23 65  1  0
 25 66  1  0
 26 67  1  0
 28 68  1  0
 29 69  1  0
 30 70  1  0
 31 71  1  0
 33 72  1  0
 36 73  1  0
 36 74  1  0
 38 75  1  0
 39 76  1  0
 40 77  1  0
 41 78  1  0
 42 79  1  0
 43 80  1  0
 44 81  1  0
M  END
>  <UniqueID>  (9) 
9

>  <SMILES>  (9) 
COc1ccc(Cn2c(Cc3cc(C)cc(C)c3)nnc2[C@H](Cc2c[nH]c3ccccc23)NC(=O)Cc2ccccc2)cc1

>  <Energy>  (9) 
153.65049345447878

>  <Genealogy>  (9) 
COc1ccc(Cn2c(Cc3cc(C)cc(C)c3)nnc2[C@H](Cc2c[nH]c3ccccc23)NC(=O)Cc2ccccc2)cc1 (chirality)
COc1ccc(Cn2c(Cc3cc(C)cc(C)c3)nnc2[C@H](Cc2c[nH]c3ccccc23)NC(=O)Cc2ccccc2)cc1 (3D coordinates assigned)
COc1ccc(Cn2c(Cc3cc(C)cc(C)c3)nnc2[C@H](Cc2c[nH]c3ccccc23)NC(=O)Cc2ccccc2)cc1 (optimized conformer: 153.65049345447878 kcal/mol)

>  <smiles>  (9) 
COc1ccc(Cn2c(Cc3cc(C)cc(C)c3)nnc2C(Cc2c[nH]c3ccccc23)NC(=O)Cc2ccccc2)cc1

>  <score_type>  (9) 
oracle

>  <origin>  (9) 
adgpu

>  <m_score__min__energy>  (9) 
-12.24

>  <m_primary>  (9) 
energy

$$$$
9:0
     RDKit          3D

 45 47  0  0  0  0  0  0  0  0999 V2000
   -0.2570   24.4390  -25.8600 C   0  0  0  0  0  0  0  0  0  0  0  0
    0.4250   23.7320  -27.3970 S   0  0  0  0  0  0  0  0  0  0  0  0
   -0.8450   22.4610  -27.5330 C   0  0  0  0  0  0  0  0  0  0  0  0
   -0.8220   21.3730  -26.6480 C   0  0  0  0  0  0  0  0  0  0  0  0
   -1.7720   20.3490  -26.7630 C   0  0  0  0  0  0  0  0  0  0  0  0
   -2.7420   20.3990  -27.7670 C   0  0  0  0  0  0  0  0  0  0  0  0
   -2.7670   21.4750  -28.6600 C   0  0  0  0  0  0  0  0  0  0  0  0
   -1.8290   22.5140  -28.5430 C   0  0  0  0  0  0  0  0  0  0  0  0
   -1.8110   23.5530  -29.5250 N   0  0  0  0  0  0  0  0  0  0  0  0
   -2.3820   24.8540  -29.3150 C   0  0  0  0  0  0  0  0  0  0  0  0
   -1.9500   25.5980  -28.3930 O   0  0  0  0  0  0  0  0  0  0  0  0
   -3.4930   25.2940  -30.1080 N   0  0  0  0  0  0  0  0  0  0  0  0
   -4.5870   24.4480  -30.4910 C   0  0  0  0  0  0  0  0  0  0  0  0
   -5.8960   24.8300  -30.1750 C   0  0  0  0  0  0  0  0  0  0  0  0
   -6.9690   23.9860  -30.4840 C   0  0  0  0  0  0  0  0  0  0  0  0
   -6.7370   22.7540  -31.1110 C   0  0  0  0  0  0  0  0  0  0  0  0
   -5.4320   22.3760  -31.4600 C   0  0  0  0  0  0  0  0  0  0  0  0
   -5.1190   20.8130  -32.2290 S   0  0  0  0  0  0  0  0  0  0  0  0
   -4.3200   19.9590  -31.2810 O   0  0  0  0  0  0  0  0  0  0  0  0
   -4.2900   21.0240  -33.4680 O   0  0  0  0  0  0  0  0  0  0  0  0
   -6.5870   19.9670  -32.6730 N   0  0  0  0  0  0  0  0  0  0  0  0
   -7.5250   19.8570  -31.5560 C   0  0  0  0  0  0  0  0  0  0  0  0
   -8.3780   18.6270  -31.8260 C   0  0  0  0  0  0  0  0  0  0  0  0
   -7.5860   17.7950  -32.8230 C   0  0  0  0  0  0  0  0  0  0  0  0
   -6.3230   18.5950  -33.1070 C   0  0  0  0  0  0  0  0  0  0  0  0
   -4.3690   23.2450  -31.1830 C   0  0  0  0  0  0  0  0  0  0  0  0
    0.2126   23.9522  -24.9925 H   0  0  0  0  0  0  0  0  0  0  0  0
   -0.0510   25.5191  -25.8303 H   0  0  0  0  0  0  0  0  0  0  0  0
   -1.3438   24.2720  -25.8303 H   0  0  0  0  0  0  0  0  0  0  0  0
   -0.0554   21.3233  -25.8607 H   0  0  0  0  0  0  0  0  0  0  0  0
   -1.7537   19.5030  -26.0602 H   0  0  0  0  0  0  0  0  0  0  0  0
   -3.4853   19.5930  -27.8551 H   0  0  0  0  0  0  0  0  0  0  0  0
   -3.5242   21.5078  -29.4572 H   0  0  0  0  0  0  0  0  0  0  0  0
   -6.0819   25.7959  -29.6826 H   0  0  0  0  0  0  0  0  0  0  0  0
   -7.9962   24.2901  -30.2343 H   0  0  0  0  0  0  0  0  0  0  0  0
   -7.5801   22.0822  -31.3298 H   0  0  0  0  0  0  0  0  0  0  0  0
   -6.9766   19.7386  -30.6098 H   0  0  0  0  0  0  0  0  0  0  0  0
   -8.1467   20.7603  -31.4690 H   0  0  0  0  0  0  0  0  0  0  0  0
   -8.5417   18.0611  -30.8971 H   0  0  0  0  0  0  0  0  0  0  0  0
   -9.3707   18.8961  -32.2161 H   0  0  0  0  0  0  0  0  0  0  0  0
   -7.3319   16.8159  -32.3907 H   0  0  0  0  0  0  0  0  0  0  0  0
   -8.1610   17.6006  -33.7404 H   0  0  0  0  0  0  0  0  0  0  0  0
   -5.4749   18.1764  -32.5453 H   0  0  0  0  0  0  0  0  0  0  0  0
   -6.0655   18.5611  -34.1759 H   0  0  0  0  0  0  0  0  0  0  0  0
   -3.3523   22.9826  -31.5109 H   0  0  0  0  0  0  0  0  0  0  0  0
  1  2  1  0
  2  3  1  0
  3  4  2  0
  4  5  1  0
  5  6  2  0
  6  7  1  0
  7  8  2  0
  8  9  1  0
  9 10  1  0
 10 11  2  0
 10 12  1  0
 12 13  1  0
 13 14  2  0
 14 15  1  0
 15 16  2  0
 16 17  1  0
 17 18  1  0
 18 19  2  0
 18 20  2  0
 18 21  1  0
 21 22  1  0
 22 23  1  0
 23 24  1  0
 24 25  1  0
 17 26  2  0
  8  3  1  0
 26 13  1  0
 25 21  1  0
  1 27  1  0
  1 28  1  0
  1 29  1  0
  4 30  1  0
  5 31  1  0
  6 32  1  0
  7 33  1  0
 14 34  1  0
 15 35  1  0
 16 36  1  0
 22 37  1  0
 22 38  1  0
 23 39  1  0
 23 40  1  0
 24 41  1  0
 24 42  1  0
 25 43  1  0
 25 44  1  0
 26 45  1  0
M  CHG  2   9  -1  12  -1
M  END
>  <UniqueID>  (10) 
10

>  <SMILES>  (10) 
CSc1ccccc1[N-]C(=O)[N-]c1cccc(S(=O)(=O)N2CCCC2)c1

>  <Energy>  (10) 
52.69146471343408

>  <Genealogy>  (10) 
CSc1ccccc1[N-]C(=O)[N-]c1cccc(S(=O)(=O)N2CCCC2)c1 (protonated)
CSc1ccccc1[N-]C(=O)[N-]c1cccc(S(=O)(=O)N2CCCC2)c1 (3D coordinates assigned)
CSc1ccccc1[N-]C(=O)[N-]c1cccc(S(=O)(=O)N2CCCC2)c1 (nonaromatic ring conformer: 52.69146471343408 kcal/mol)

>  <smiles>  (10) 
CSc1ccccc1NC(=O)Nc1cccc(S(=O)(=O)N2CCCC2)c1

>  <score_type>  (10) 
oracle

>  <origin>  (10) 
adgpu

>  <m_score__min__energy>  (10) 
-11.76

>  <m_primary>  (10) 
energy

$$$$
10:0
     RDKit          3D

 57 60  0  0  0  0  0  0  0  0999 V2000
   -0.0340   22.3850  -29.1450 O   0  0  0  0  0  0  0  0  0  0  0  0
   -1.3930   21.9750  -29.6530 S   0  0  0  0  0  0  0  0  0  0  0  0
   -2.1430   21.3050  -28.5320 O   0  0  0  0  0  0  0  0  0  0  0  0
   -2.2480   23.3740  -30.2040 N   0  0  0  0  0  0  0  0  0  0  0  0
   -3.5920   23.2620  -30.6780 C   0  0  0  0  0  0  0  0  0  0  0  0
   -4.0960   22.0240  -31.0960 C   0  0  0  0  0  0  0  0  0  0  0  0
   -5.3950   21.9200  -31.6210 C   0  0  0  0  0  0  0  0  0  0  0  0
   -6.1910   23.0810  -31.7440 C   0  0  0  0  0  0  0  0  0  0  0  0
   -5.6810   24.3190  -31.3160 C   0  0  0  0  0  0  0  0  0  0  0  0
   -4.3910   24.4080  -30.7820 C   0  0  0  0  0  0  0  0  0  0  0  0
   -3.8920   25.6430  -30.3930 O   0  0  0  0  0  0  0  0  0  0  0  0
   -7.5570   23.0050  -32.3870 C   0  0  0  0  0  0  0  0  0  0  0  0
   -8.5830   22.1910  -31.5610 C   0  0  0  0  0  0  0  0  0  0  0  0
   -8.4910   20.6580  -31.6870 C   0  0  0  0  0  0  0  0  0  0  0  0
   -7.1170   20.0560  -31.3140 C   0  0  0  0  0  0  0  0  0  0  0  0
   -5.9090   20.5840  -32.1170 C   0  0  0  0  0  0  0  0  0  0  0  0
   -1.2280   20.8740  -31.0160 C   0  0  0  0  0  0  0  0  0  0  0  0
   -1.0930   19.4960  -30.7860 C   0  0  0  0  0  0  0  0  0  0  0  0
   -1.0920   18.5980  -31.8600 C   0  0  0  0  0  0  0  0  0  0  0  0
   -1.2300   19.0700  -33.1720 C   0  0  0  0  0  0  0  0  0  0  0  0
   -1.3430   17.9480  -34.5270 S   0  0  0  0  0  0  0  0  0  0  0  0
   -0.4870   18.4620  -35.6570 O   0  0  0  0  0  0  0  0  0  0  0  0
   -0.8330   16.5920  -34.1120 O   0  0  0  0  0  0  0  0  0  0  0  0
   -3.0200   17.8490  -35.0200 N   0  0  0  0  0  0  0  0  0  0  0  0
   -3.9100   18.6100  -34.1080 C   0  0  0  0  0  0  0  0  0  0  0  0
   -4.9180   17.7380  -33.3410 C   0  0  0  0  0  0  0  0  0  0  0  0
   -4.2540   16.4600  -32.8310 C   0  0  0  0  0  0  0  0  0  0  0  0
   -3.6080   15.6510  -33.9670 C   0  0  0  0  0  0  0  0  0  0  0  0
   -3.4430   16.4580  -35.2650 C   0  0  0  0  0  0  0  0  0  0  0  0
   -1.3560   20.4490  -33.4030 C   0  0  0  0  0  0  0  0  0  0  0  0
   -1.3550   21.3460  -32.3290 C   0  0  0  0  0  0  0  0  0  0  0  0
   -3.4687   21.1243  -31.0124 H   0  0  0  0  0  0  0  0  0  0  0  0
   -6.3004   25.2240  -31.4015 H   0  0  0  0  0  0  0  0  0  0  0  0
   -7.9417   24.0282  -32.5096 H   0  0  0  0  0  0  0  0  0  0  0  0
   -7.4334   22.4881  -33.3501 H   0  0  0  0  0  0  0  0  0  0  0  0
   -8.4427   22.4502  -30.5012 H   0  0  0  0  0  0  0  0  0  0  0  0
   -9.5695   22.4621  -31.9652 H   0  0  0  0  0  0  0  0  0  0  0  0
   -9.2495   20.2145  -31.0251 H   0  0  0  0  0  0  0  0  0  0  0  0
   -8.6515   20.4255  -32.7501 H   0  0  0  0  0  0  0  0  0  0  0  0
   -6.9335   20.2685  -30.2504 H   0  0  0  0  0  0  0  0  0  0  0  0
   -7.1871   18.9844  -31.5520 H   0  0  0  0  0  0  0  0  0  0  0  0
   -5.0942   19.8485  -32.0454 H   0  0  0  0  0  0  0  0  0  0  0  0
   -6.2468   20.7303  -33.1536 H   0  0  0  0  0  0  0  0  0  0  0  0
   -0.9875   19.1201  -29.7576 H   0  0  0  0  0  0  0  0  0  0  0  0
   -0.9826   17.5195  -31.6734 H   0  0  0  0  0  0  0  0  0  0  0  0
   -3.2828   19.1386  -33.3751 H   0  0  0  0  0  0  0  0  0  0  0  0
   -4.4977   19.2947  -34.7372 H   0  0  0  0  0  0  0  0  0  0  0  0
   -5.3089   18.3074  -32.4849 H   0  0  0  0  0  0  0  0  0  0  0  0
   -5.7354   17.4619  -34.0234 H   0  0  0  0  0  0  0  0  0  0  0  0
   -3.4762   16.7310  -32.1019 H   0  0  0  0  0  0  0  0  0  0  0  0
   -5.0326   15.8345  -32.3701 H   0  0  0  0  0  0  0  0  0  0  0  0
   -2.6146   15.3142  -33.6357 H   0  0  0  0  0  0  0  0  0  0  0  0
   -4.2768   14.8064  -34.1891 H   0  0  0  0  0  0  0  0  0  0  0  0
   -2.6855   15.9650  -35.8920 H   0  0  0  0  0  0  0  0  0  0  0  0
   -4.4235   16.4915  -35.7625 H   0  0  0  0  0  0  0  0  0  0  0  0
   -1.4558   20.8256  -34.4317 H   0  0  0  0  0  0  0  0  0  0  0  0
   -1.4543   22.4254  -32.5163 H   0  0  0  0  0  0  0  0  0  0  0  0
  1  2  2  0
  2  3  2  0
  2  4  1  0
  4  5  1  0
  5  6  2  0
  6  7  1  0
  7  8  2  0
  8  9  1  0
  9 10  2  0
 10 11  1  0
  8 12  1  0
 12 13  1  0
 13 14  1  0
 14 15  1  0
 15 16  1  0
  2 17  1  0
 17 18  2  0
 18 19  1  0
 19 20  2  0
 20 21  1  0
 21 22  2  0
 21 23  2  0
 21 24  1  0
 24 25  1  0
 25 26  1  0
 26 27  1  0
 27 28  1  0
 28 29  1  0
 20 30  1  0
 30 31  2  0
 10  5  1  0
 31 17  1  0
 16  7  1  0
 29 24  1  0
  6 32  1  0
  9 33  1  0
 12 34  1  0
 12 35  1  0
 13 36  1  0
 13 37  1  0
 14 38  1  0
 14 39  1  0
 15 40  1  0
 15 41  1  0
 16 42  1  0
 16 43  1  0
 18 44  1  0
 19 45  1  0
 25 46  1  0
 25 47  1  0
 26 48  1  0
 26 49  1  0
 27 50  1  0
 27 51  1  0
 28 52  1  0
 28 53  1  0
 29 54  1  0
 29 55  1  0
 30 56  1  0
 31 57  1  0
M  CHG  2   4  -1  11  -1
M  END
>  <UniqueID>  (11) 
11

>  <SMILES>  (11) 
O=S(=O)([N-]c1cc2c(cc1[O-])CCCCC2)c1ccc(S(=O)(=O)N2CCCCC2)cc1

>  <Energy>  (11) 
80.59986109870802

>  <Genealogy>  (11) 
O=S(=O)([N-]c1cc2c(cc1[O-])CCCCC2)c1ccc(S(=O)(=O)N2CCCCC2)cc1 (protonated)
O=S(=O)([N-]c1cc2c(cc1[O-])CCCCC2)c1ccc(S(=O)(=O)N2CCCCC2)cc1 (3D coordinates assigned)
O=S(=O)([N-]c1cc2c(cc1[O-])CCCCC2)c1ccc(S(=O)(=O)N2CCCCC2)cc1 (nonaromatic ring conformer: 80.59986109870802 kcal/mol)

>  <smiles>  (11) 
O=S(=O)(Nc1cc2c(cc1O)CCCCC2)c1ccc(S(=O)(=O)N2CCCCC2)cc1

>  <score_type>  (11) 
oracle

>  <origin>  (11) 
adgpu

>  <m_score__min__energy>  (11) 
-12.83

>  <m_primary>  (11) 
energy

$$$$
11:0
     RDKit          3D

 49 52  0  0  0  0  0  0  0  0999 V2000
   -0.8670   18.1740  -27.0990 C   0  0  0  0  0  0  0  0  0  0  0  0
   -1.3360   19.4970  -27.6080 C   0  0  0  0  0  0  0  0  0  0  0  0
   -2.5330   20.0450  -27.2650 N   0  0  0  0  0  0  0  0  0  0  0  0
   -2.4900   21.2230  -27.9140 C   0  0  0  0  0  0  0  0  0  0  0  0
   -3.4570   22.2250  -27.9340 C   0  0  0  0  0  0  0  0  0  0  0  0
   -3.1710   23.4070  -28.6570 C   0  0  0  0  0  0  0  0  0  0  0  0
   -4.1620   24.4390  -28.7100 N   0  0  0  0  0  0  0  0  0  0  0  0
   -5.1310   24.7930  -30.1070 S   0  0  0  0  0  0  0  0  0  0  0  0
   -4.2420   25.3310  -31.1990 O   0  0  0  0  0  0  0  0  0  0  0  0
   -6.1240   25.8660  -29.7430 O   0  0  0  0  0  0  0  0  0  0  0  0
   -6.0200   23.3810  -30.6790 C   0  0  0  0  0  0  0  0  0  0  0  0
   -7.3950   23.4680  -30.9430 C   0  0  0  0  0  0  0  0  0  0  0  0
   -8.0990   22.3420  -31.3830 C   0  0  0  0  0  0  0  0  0  0  0  0
   -7.4400   21.1130  -31.5450 C   0  0  0  0  0  0  0  0  0  0  0  0
   -8.3390   19.6870  -32.0770 S   0  0  0  0  0  0  0  0  0  0  0  0
   -9.4870   20.1230  -32.9460 O   0  0  0  0  0  0  0  0  0  0  0  0
   -8.9090   18.9820  -30.8750 O   0  0  0  0  0  0  0  0  0  0  0  0
   -7.3260   18.5800  -32.9710 N   0  0  0  0  0  0  0  0  0  0  0  0
   -6.5840   17.7040  -32.0410 C   0  0  0  0  0  0  0  0  0  0  0  0
   -5.4780   16.8910  -32.7520 C   0  0  0  0  0  0  0  0  0  0  0  0
   -5.6470   16.9110  -34.2750 C   0  0  0  0  0  0  0  0  0  0  0  0
   -5.6850   18.3540  -34.8090 C   0  0  0  0  0  0  0  0  0  0  0  0
   -6.4020   19.3220  -33.8460 C   0  0  0  0  0  0  0  0  0  0  0  0
   -6.0650   21.0260  -31.2810 C   0  0  0  0  0  0  0  0  0  0  0  0
   -5.3570   22.1560  -30.8540 C   0  0  0  0  0  0  0  0  0  0  0  0
   -1.9400   23.5270  -29.3620 C   0  0  0  0  0  0  0  0  0  0  0  0
   -0.9940   22.4850  -29.3330 C   0  0  0  0  0  0  0  0  0  0  0  0
   -1.3110   21.3490  -28.5890 C   0  0  0  0  0  0  0  0  0  0  0  0
   -0.6010   20.2710  -28.3960 O   0  0  0  0  0  0  0  0  0  0  0  0
   -0.8700   18.1823  -25.9990 H   0  0  0  0  0  0  0  0  0  0  0  0
   -1.5393   17.3824  -27.4615 H   0  0  0  0  0  0  0  0  0  0  0  0
    0.1538   17.9826  -27.4615 H   0  0  0  0  0  0  0  0  0  0  0  0
   -4.4131   22.1013  -27.4043 H   0  0  0  0  0  0  0  0  0  0  0  0
   -7.9210   24.4240  -30.8037 H   0  0  0  0  0  0  0  0  0  0  0  0
   -9.1739   22.4199  -31.6031 H   0  0  0  0  0  0  0  0  0  0  0  0
   -6.1191   18.3278  -31.2633 H   0  0  0  0  0  0  0  0  0  0  0  0
   -7.3006   16.9894  -31.6100 H   0  0  0  0  0  0  0  0  0  0  0  0
   -4.4989   17.3226  -32.4967 H   0  0  0  0  0  0  0  0  0  0  0  0
   -5.5501   15.8468  -32.4136 H   0  0  0  0  0  0  0  0  0  0  0  0
   -4.8025   16.3789  -34.7373 H   0  0  0  0  0  0  0  0  0  0  0  0
   -6.5982   16.4197  -34.5276 H   0  0  0  0  0  0  0  0  0  0  0  0
   -4.6522   18.7031  -34.9557 H   0  0  0  0  0  0  0  0  0  0  0  0
   -6.2475   18.3456  -35.7543 H   0  0  0  0  0  0  0  0  0  0  0  0
   -5.6537   19.8398  -33.2280 H   0  0  0  0  0  0  0  0  0  0  0  0
   -6.9754   20.0534  -34.4344 H   0  0  0  0  0  0  0  0  0  0  0  0
   -5.5415   20.0672  -31.4098 H   0  0  0  0  0  0  0  0  0  0  0  0
   -4.2776   22.0836  -30.6550 H   0  0  0  0  0  0  0  0  0  0  0  0
   -1.7263   24.4418  -29.9343 H   0  0  0  0  0  0  0  0  0  0  0  0
   -0.0409   22.5639  -29.8766 H   0  0  0  0  0  0  0  0  0  0  0  0
  1  2  1  0
  2  3  2  0
  3  4  1  0
  4  5  2  0
  5  6  1  0
  6  7  1  0
  7  8  1  0
  8  9  2  0
  8 10  2  0
  8 11  1  0
 11 12  2  0
 12 13  1  0
 13 14  2  0
 14 15  1  0
 15 16  2  0
 15 17  2  0
 15 18  1  0
 18 19  1  0
 19 20  1  0
 20 21  1  0
 21 22  1  0
 22 23  1  0
 14 24  1  0
 24 25  2  0
  6 26  2  0
 26 27  1  0
 27 28  2  0
 28 29  1  0
 29  2  1  0
 28  4  1  0
 25 11  1  0
 23 18  1  0
  1 30  1  0
  1 31  1  0
  1 32  1  0
  5 33  1  0
 12 34  1  0
 13 35  1  0
 19 36  1  0
 19 37  1  0
 20 38  1  0
 20 39  1  0
 21 40  1  0
 21 41  1  0
 22 42  1  0
 22 43  1  0
 23 44  1  0
 23 45  1  0
 24 46  1  0
 25 47  1  0
 26 48  1  0
 27 49  1  0
M  CHG  1   7  -1
M  END
>  <UniqueID>  (12) 
12

>  <SMILES>  (12) 
Cc1nc2cc([N-]S(=O)(=O)c3ccc(S(=O)(=O)N4CCCCC4)cc3)ccc2o1

>  <Energy>  (12) 
97.7626179474253

>  <Genealogy>  (12) 
Cc1nc2cc([N-]S(=O)(=O)c3ccc(S(=O)(=O)N4CCCCC4)cc3)ccc2o1 (protonated)
Cc1nc2cc([N-]S(=O)(=O)c3ccc(S(=O)(=O)N4CCCCC4)cc3)ccc2o1 (3D coordinates assigned)
Cc1nc2cc([N-]S(=O)(=O)c3ccc(S(=O)(=O)N4CCCCC4)cc3)ccc2o1 (nonaromatic ring conformer: 97.7626179474253 kcal/mol)

>  <smiles>  (12) 
Cc1nc2cc(NS(=O)(=O)c3ccc(S(=O)(=O)N4CCCCC4)cc3)ccc2o1

>  <score_type>  (12) 
oracle

>  <origin>  (12) 
adgpu

>  <m_score__min__energy>  (12) 
-11.74

>  <m_primary>  (12) 
energy

$$$$
12:0
     RDKit          3D

 58 61  0  0  0  0  0  0  0  0999 V2000
   -4.7439   16.6082  -35.7476 H   0  0  0  0  0  0  0  0  0  0  0  0
   -4.2570   17.3260  -35.0710 C   0  0  0  0  0  0  0  0  0  0  0  0
   -2.8720   17.2940  -34.9030 C   0  0  0  0  0  0  0  0  0  0  0  0
   -2.2712   16.5466  -35.4420 H   0  0  0  0  0  0  0  0  0  0  0  0
   -2.2440   18.2120  -34.0490 C   0  0  0  0  0  0  0  0  0  0  0  0
   -0.4920   18.2120  -33.8610 S   0  0  0  0  0  0  0  0  0  0  0  0
    0.0530   19.5010  -34.4160 O   0  0  0  0  0  0  0  0  0  0  0  0
    0.1320   17.0650  -34.6150 O   0  0  0  0  0  0  0  0  0  0  0  0
   -0.0660   18.0920  -32.1840 N   0  0  0  0  0  0  0  0  0  0  0  0
   -0.2130   19.1390  -31.2160 C   0  0  0  0  0  0  0  0  0  0  0  0
    0.0210   18.8350  -29.8670 C   0  0  0  0  0  0  0  0  0  0  0  0
    0.3019   17.8108  -29.5806 H   0  0  0  0  0  0  0  0  0  0  0  0
   -0.0990   19.8200  -28.8830 C   0  0  0  0  0  0  0  0  0  0  0  0
    0.0865   19.5694  -27.8281 H   0  0  0  0  0  0  0  0  0  0  0  0
   -0.4560   21.1280  -29.2410 C   0  0  0  0  0  0  0  0  0  0  0  0
   -0.6160   22.3550  -27.9870 S   0  0  0  0  0  0  0  0  0  0  0  0
   -1.5940   21.8590  -26.9580 O   0  0  0  0  0  0  0  0  0  0  0  0
    0.7390   22.5770  -27.3690 O   0  0  0  0  0  0  0  0  0  0  0  0
   -1.2000   23.8280  -28.6950 N   0  0  0  0  0  0  0  0  0  0  0  0
   -2.3510   24.0760  -29.2540 C   0  0  0  0  0  0  0  0  0  0  0  0
   -2.6440   25.2700  -29.7150 O   0  0  0  0  0  0  0  0  0  0  0  0
   -3.8340   25.2980  -30.2370 N   0  0  0  0  0  0  0  0  0  0  0  0
   -4.3530   24.0600  -30.1100 C   0  0  0  0  0  0  0  0  0  0  0  0
   -5.6950   23.6720  -30.6460 C   0  0  0  0  0  0  0  0  0  0  0  0
   -6.3808   23.4737  -29.8091 H   0  0  0  0  0  0  0  0  0  0  0  0
   -6.0949   24.4913  -31.2615 H   0  0  0  0  0  0  0  0  0  0  0  0
   -5.5960   22.7657  -31.2615 H   0  0  0  0  0  0  0  0  0  0  0  0
   -3.4380   23.2270  -29.4800 C   0  0  0  0  0  0  0  0  0  0  0  0
   -3.5950   21.7470  -29.2800 C   0  0  0  0  0  0  0  0  0  0  0  0
   -3.6188   21.5230  -28.2033 H   0  0  0  0  0  0  0  0  0  0  0  0
   -4.5338   21.4117  -29.7451 H   0  0  0  0  0  0  0  0  0  0  0  0
   -2.7475   21.2222  -29.7451 H   0  0  0  0  0  0  0  0  0  0  0  0
   -0.6800   21.4420  -30.5920 C   0  0  0  0  0  0  0  0  0  0  0  0
   -0.9561   22.4677  -30.8780 H   0  0  0  0  0  0  0  0  0  0  0  0
   -0.5530   20.4540  -31.5750 C   0  0  0  0  0  0  0  0  0  0  0  0
   -0.7199   20.7079  -32.6322 H   0  0  0  0  0  0  0  0  0  0  0  0
   -3.0160   19.1560  -33.3560 C   0  0  0  0  0  0  0  0  0  0  0  0
   -2.5258   19.8729  -32.6809 H   0  0  0  0  0  0  0  0  0  0  0  0
   -4.4090   19.1920  -33.5180 C   0  0  0  0  0  0  0  0  0  0  0  0
   -5.3490   20.3780  -32.6040 S   0  0  0  0  0  0  0  0  0  0  0  0
   -4.9510   20.2870  -31.1560 O   0  0  0  0  0  0  0  0  0  0  0  0
   -5.0490   21.7710  -33.0920 O   0  0  0  0  0  0  0  0  0  0  0  0
   -7.0580   20.0470  -32.7540 N   0  0  0  0  0  0  0  0  0  0  0  0
   -7.8470   21.2180  -32.3420 C   0  0  0  0  0  0  0  0  0  0  0  0
   -7.5260   21.5359  -31.3390 H   0  0  0  0  0  0  0  0  0  0  0  0
   -7.6847   22.0289  -33.0674 H   0  0  0  0  0  0  0  0  0  0  0  0
   -9.3550   20.8720  -32.3080 C   0  0  0  0  0  0  0  0  0  0  0  0
   -9.7098   20.9176  -31.2678 H   0  0  0  0  0  0  0  0  0  0  0  0
   -9.8923   21.5991  -32.9346 H   0  0  0  0  0  0  0  0  0  0  0  0
   -9.5970   19.5730  -32.8220 O   0  0  0  0  0  0  0  0  0  0  0  0
   -8.9410   18.6140  -32.0180 C   0  0  0  0  0  0  0  0  0  0  0  0
   -9.3610   18.6537  -31.0021 H   0  0  0  0  0  0  0  0  0  0  0  0
   -9.0961   17.6238  -32.4714 H   0  0  0  0  0  0  0  0  0  0  0  0
   -7.4210   18.8740  -31.9410 C   0  0  0  0  0  0  0  0  0  0  0  0
   -7.1374   19.0570  -30.8941 H   0  0  0  0  0  0  0  0  0  0  0  0
   -6.8886   17.9930  -32.3289 H   0  0  0  0  0  0  0  0  0  0  0  0
   -5.0290   18.2690  -34.3810 C   0  0  0  0  0  0  0  0  0  0  0  0
   -6.3730   18.2680  -34.5590 F   0  0  0  0  0  0  0  0  0  0  0  0
  1  2  1  0
  2  3  2  0
  3  4  1  0
  3  5  1  0
  5  6  1  0
  6  7  2  0
  6  8  2  0
  6  9  1  0
  9 10  1  0
 10 11  2  0
 11 12  1  0
 11 13  1  0
 13 14  1  0
 13 15  2  0
 15 16  1  0
 16 17  2  0
 16 18  2  0
 16 19  1  0
 19 20  2  0
 20 21  1  0
 21 22  1  0
 22 23  1  0
 23 24  1  0
 24 25  1  0
 24 26  1  0
 24 27  1  0
 23 28  2  0
 28 29  1  0
 29 30  1  0
 29 31  1  0
 29 32  1  0
 15 33  1  0
 33 34  1  0
 33 35  2  0
 35 36  1  0
  5 37  2  0
 37 38  1  0
 37 39  1  0
 39 40  1  0
 40 41  2  0
 40 42  2  0
 40 43  1  0
 43 44  1  0
 44 45  1  0
 44 46  1  0
 44 47  1  0
 47 48  1  0
 47 49  1  0
 47 50  1  0
 50 51  1  0
 51 52  1  0
 51 53  1  0
 51 54  1  0
 54 55  1  0
 54 56  1  0
 39 57  2  0
 57 58  1  0
 57  2  1  0
 35 10  1  0
 54 43  1  0
 28 20  1  0
M  CHG  2   9  -1  22  -1
M  END
>  <UniqueID>  (13) 
13

>  <SMILES>  (13) 
Cc1[n-]o/c(=N/S(=O)(=O)c2ccc([N-]S(=O)(=O)c3ccc(F)c(S(=O)(=O)N4CCOCC4)c3)cc2)c1C

>  <Energy>  (13) 
112.9614673784658

>  <Genealogy>  (13) 
Cc1[n-]oc(=NS(=O)(=O)c2ccc([N-]S(=O)(=O)c3ccc(F)c(S(=O)(=O)N4CCOCC4)c3)cc2)c1C (protonated)
Cc1[n-]o/c(=N/S(=O)(=O)c2ccc([N-]S(=O)(=O)c3ccc(F)c(S(=O)(=O)N4CCOCC4)c3)cc2)c1C (cis-trans isomerization)
Cc1[n-]o/c(=N/S(=O)(=O)c2ccc([N-]S(=O)(=O)c3ccc(F)c(S(=O)(=O)N4CCOCC4)c3)cc2)c1C (3D coordinates assigned)
Cc1[n-]o/c(=N/S(=O)(=O)c2ccc([N-]S(=O)(=O)c3ccc(F)c(S(=O)(=O)N4CCOCC4)c3)cc2)c1C (nonaromatic ring conformer: 112.9614673784658 kcal/mol)

>  <smiles>  (13) 
Cc1[nH]oc(=NS(=O)(=O)c2ccc(NS(=O)(=O)c3ccc(F)c(S(=O)(=O)N4CCOCC4)c3)cc2)c1C

>  <score_type>  (13) 
oracle

>  <origin>  (13) 
adgpu

>  <m_score__min__energy>  (13) 
-12.140000000000001

>  <m_primary>  (13) 
energy

$$$$
13:0
     RDKit          3D

 57 60  0  0  0  0  0  0  0  0999 V2000
   -1.1770   24.9000  -29.2960 O   0  0  0  0  0  0  0  0  0  0  0  0
   -1.9060   23.8710  -29.3270 C   0  0  0  0  0  0  0  0  0  0  0  0
   -3.2160   23.9110  -28.7420 N   0  0  0  0  0  0  0  0  0  0  0  0
   -4.4630   23.8300  -29.4470 C   0  0  0  0  0  0  0  0  0  0  0  0
   -5.4250   22.8500  -29.1360 C   0  0  0  0  0  0  0  0  0  0  0  0
   -6.6200   22.7830  -29.8590 C   0  0  0  0  0  0  0  0  0  0  0  0
   -6.8610   23.6810  -30.9020 C   0  0  0  0  0  0  0  0  0  0  0  0
   -5.9030   24.6430  -31.2310 C   0  0  0  0  0  0  0  0  0  0  0  0
   -4.7040   24.7140  -30.5120 C   0  0  0  0  0  0  0  0  0  0  0  0
   -3.7550   25.6720  -30.8540 O   0  0  0  0  0  0  0  0  0  0  0  0
   -1.4410   22.6380  -30.0190 C   0  0  0  0  0  0  0  0  0  0  0  0
   -1.8400   22.3960  -31.3480 C   0  0  0  0  0  0  0  0  0  0  0  0
   -1.4140   21.2500  -32.0240 C   0  0  0  0  0  0  0  0  0  0  0  0
   -0.5850   20.3200  -31.3930 C   0  0  0  0  0  0  0  0  0  0  0  0
   -0.1700   19.1640  -32.1320 N   0  0  0  0  0  0  0  0  0  0  0  0
   -0.7520   18.7130  -33.7010 S   0  0  0  0  0  0  0  0  0  0  0  0
   -1.1050   19.9390  -34.4960 O   0  0  0  0  0  0  0  0  0  0  0  0
    0.3070   17.9340  -34.4340 O   0  0  0  0  0  0  0  0  0  0  0  0
   -2.1910   17.7190  -33.4980 C   0  0  0  0  0  0  0  0  0  0  0  0
   -2.0620   16.3400  -33.2920 C   0  0  0  0  0  0  0  0  0  0  0  0
   -3.2010   15.5390  -33.1700 C   0  0  0  0  0  0  0  0  0  0  0  0
   -4.4730   16.1090  -33.2610 C   0  0  0  0  0  0  0  0  0  0  0  0
   -4.6150   17.4900  -33.4710 C   0  0  0  0  0  0  0  0  0  0  0  0
   -6.2080   18.2330  -33.6050 S   0  0  0  0  0  0  0  0  0  0  0  0
   -7.2220   17.1330  -33.7670 O   0  0  0  0  0  0  0  0  0  0  0  0
   -6.2360   19.1070  -34.8290 O   0  0  0  0  0  0  0  0  0  0  0  0
   -6.5680   19.1730  -32.1640 N   0  0  0  0  0  0  0  0  0  0  0  0
   -7.5920   18.5280  -31.3210 C   0  0  0  0  0  0  0  0  0  0  0  0
   -8.9930   18.5710  -31.9610 C   0  0  0  0  0  0  0  0  0  0  0  0
   -9.2870   19.9010  -32.6760 C   0  0  0  0  0  0  0  0  0  0  0  0
   -8.3280   21.0080  -32.2420 C   0  0  0  0  0  0  0  0  0  0  0  0
   -6.8590   20.5980  -32.4730 C   0  0  0  0  0  0  0  0  0  0  0  0
   -3.4690   18.2900  -33.5880 C   0  0  0  0  0  0  0  0  0  0  0  0
   -0.1830   20.5460  -30.0670 C   0  0  0  0  0  0  0  0  0  0  0  0
   -0.6050   21.6910  -29.3810 C   0  0  0  0  0  0  0  0  0  0  0  0
   -0.1820   21.8730  -28.0680 O   0  0  0  0  0  0  0  0  0  0  0  0
   -5.2359   22.1349  -28.3218 H   0  0  0  0  0  0  0  0  0  0  0  0
   -7.3723   22.0214  -29.6060 H   0  0  0  0  0  0  0  0  0  0  0  0
   -7.8052   23.6304  -31.4641 H   0  0  0  0  0  0  0  0  0  0  0  0
   -6.0911   25.3457  -32.0562 H   0  0  0  0  0  0  0  0  0  0  0  0
   -2.4943   23.1174  -31.8593 H   0  0  0  0  0  0  0  0  0  0  0  0
   -1.7343   21.0787  -33.0623 H   0  0  0  0  0  0  0  0  0  0  0  0
   -1.0622   15.8861  -33.2260 H   0  0  0  0  0  0  0  0  0  0  0  0
   -3.0954   14.4571  -33.0019 H   0  0  0  0  0  0  0  0  0  0  0  0
   -5.3663   15.4739  -33.1678 H   0  0  0  0  0  0  0  0  0  0  0  0
   -7.3082   17.4771  -31.1626 H   0  0  0  0  0  0  0  0  0  0  0  0
   -7.6405   19.0804  -30.3710 H   0  0  0  0  0  0  0  0  0  0  0  0
   -9.0685   17.7547  -32.6944 H   0  0  0  0  0  0  0  0  0  0  0  0
   -9.7285   18.4640  -31.1501 H   0  0  0  0  0  0  0  0  0  0  0  0
   -9.1878   19.7504  -33.7611 H   0  0  0  0  0  0  0  0  0  0  0  0
  -10.3079   20.2118  -32.4092 H   0  0  0  0  0  0  0  0  0  0  0  0
   -8.5424   21.9165  -32.8239 H   0  0  0  0  0  0  0  0  0  0  0  0
   -8.4727   21.1917  -31.1671 H   0  0  0  0  0  0  0  0  0  0  0  0
   -6.6124   20.7792  -33.5296 H   0  0  0  0  0  0  0  0  0  0  0  0
   -6.2503   21.2015  -31.7836 H   0  0  0  0  0  0  0  0  0  0  0  0
   -3.5731   19.3728  -33.7515 H   0  0  0  0  0  0  0  0  0  0  0  0
    0.4689   19.8174  -29.5629 H   0  0  0  0  0  0  0  0  0  0  0  0
  1  2  2  0
  2  3  1  0
  3  4  1  0
  4  5  2  0
  5  6  1  0
  6  7  2  0
  7  8  1  0
  8  9  2  0
  9 10  1  0
  2 11  1  0
 11 12  2  0
 12 13  1  0
 13 14  2  0
 14 15  1  0
 15 16  1  0
 16 17  2  0
 16 18  2  0
 16 19  1  0
 19 20  2  0
 20 21  1  0
 21 22  2  0
 22 23  1  0
 23 24  1  0
 24 25  2  0
 24 26  2  0
 24 27  1  0
 27 28  1  0
 28 29  1  0
 29 30  1  0
 30 31  1  0
 31 32  1  0
 23 33  2  0
 14 34  1  0
 34 35  2  0
 35 36  1  0
  9  4  1  0
 35 11  1  0
 33 19  1  0
 32 27  1  0
  5 37  1  0
  6 38  1  0
  7 39  1  0
  8 40  1  0
 12 41  1  0
 13 42  1  0
 20 43  1  0
 21 44  1  0
 22 45  1  0
 28 46  1  0
 28 47  1  0
 29 48  1  0
 29 49  1  0
 30 50  1  0
 30 51  1  0
 31 52  1  0
 31 53  1  0
 32 54  1  0
 32 55  1  0
 33 56  1  0
 34 57  1  0
M  CHG  4   3  -1  10  -1  15  -1  36  -1
M  END
>  <UniqueID>  (14) 
14

>  <SMILES>  (14) 
O=C([N-]c1ccccc1[O-])c1ccc([N-]S(=O)(=O)c2cccc(S(=O)(=O)N3CCCCC3)c2)cc1[O-]

>  <Energy>  (14) 
79.85239257782429

>  <Genealogy>  (14) 
O=C([N-]c1ccccc1[O-])c1ccc([N-]S(=O)(=O)c2cccc(S(=O)(=O)N3CCCCC3)c2)cc1[O-] (protonated)
O=C([N-]c1ccccc1[O-])c1ccc([N-]S(=O)(=O)c2cccc(S(=O)(=O)N3CCCCC3)c2)cc1[O-] (3D coordinates assigned)
O=C([N-]c1ccccc1[O-])c1ccc([N-]S(=O)(=O)c2cccc(S(=O)(=O)N3CCCCC3)c2)cc1[O-] (nonaromatic ring conformer: 79.85239257782429 kcal/mol)

>  <smiles>  (14) 
O=C(Nc1ccccc1O)c1ccc(NS(=O)(=O)c2cccc(S(=O)(=O)N3CCCCC3)c2)cc1O

>  <score_type>  (14) 
oracle

>  <origin>  (14) 
adgpu

>  <m_score__min__energy>  (14) 
-16.690000000000001

>  <m_primary>  (14) 
energy

$$$$
14:0
     RDKit          3D

 56 59  0  0  0  0  0  0  0  0999 V2000
   -3.8220   25.1020  -30.4610 O   0  0  0  0  0  0  0  0  0  0  0  0
   -3.9680   23.8650  -30.6640 C   0  0  0  0  0  0  0  0  0  0  0  0
   -4.7260   23.4080  -31.7920 N   0  0  0  0  0  0  0  0  0  0  0  0
   -5.9830   22.7180  -31.7480 C   0  0  0  0  0  0  0  0  0  0  0  0
   -7.2050   23.4050  -31.6240 C   0  0  0  0  0  0  0  0  0  0  0  0
   -8.4070   22.6970  -31.6010 C   0  0  0  0  0  0  0  0  0  0  0  0
   -8.4060   21.3040  -31.7120 C   0  0  0  0  0  0  0  0  0  0  0  0
   -7.1960   20.6100  -31.8550 C   0  0  0  0  0  0  0  0  0  0  0  0
   -7.1920   18.8480  -31.9750 S   0  0  0  0  0  0  0  0  0  0  0  0
   -6.1580   18.2910  -31.0340 O   0  0  0  0  0  0  0  0  0  0  0  0
   -8.5360   18.3200  -31.5510 O   0  0  0  0  0  0  0  0  0  0  0  0
   -6.8410   18.3060  -33.6030 N   0  0  0  0  0  0  0  0  0  0  0  0
   -5.7250   19.0630  -34.1930 C   0  0  0  0  0  0  0  0  0  0  0  0
   -4.5450   18.1170  -34.3940 C   0  0  0  0  0  0  0  0  0  0  0  0
   -4.9370   16.8320  -33.7000 C   0  0  0  0  0  0  0  0  0  0  0  0
   -6.4480   16.8910  -33.6160 C   0  0  0  0  0  0  0  0  0  0  0  0
   -5.9900   21.3250  -31.8900 C   0  0  0  0  0  0  0  0  0  0  0  0
   -3.4000   22.8880  -29.7060 C   0  0  0  0  0  0  0  0  0  0  0  0
   -3.1550   21.5590  -30.1000 C   0  0  0  0  0  0  0  0  0  0  0  0
   -2.6270   20.6360  -29.1940 C   0  0  0  0  0  0  0  0  0  0  0  0
   -2.3370   21.0240  -27.8790 C   0  0  0  0  0  0  0  0  0  0  0  0
   -1.7060   19.8600  -26.7160 S   0  0  0  0  0  0  0  0  0  0  0  0
   -1.6130   20.4890  -25.3520 O   0  0  0  0  0  0  0  0  0  0  0  0
   -2.6480   18.6880  -26.6440 O   0  0  0  0  0  0  0  0  0  0  0  0
   -0.1260   19.3220  -27.2340 N   0  0  0  0  0  0  0  0  0  0  0  0
   -0.1910   17.9770  -27.8490 C   0  0  0  0  0  0  0  0  0  0  0  0
   -0.0360   18.0270  -29.3780 C   0  0  0  0  0  0  0  0  0  0  0  0
    1.1820   18.6280  -29.7950 O   0  0  0  0  0  0  0  0  0  0  0  0
    1.6030   19.7060  -28.9660 C   0  0  0  0  0  0  0  0  0  0  0  0
    0.4810   20.3340  -28.1210 C   0  0  0  0  0  0  0  0  0  0  0  0
   -2.5810   22.3410  -27.4780 C   0  0  0  0  0  0  0  0  0  0  0  0
   -3.1050   23.2690  -28.3840 C   0  0  0  0  0  0  0  0  0  0  0  0
   -7.2125   24.5021  -31.5451 H   0  0  0  0  0  0  0  0  0  0  0  0
   -9.3592   23.2375  -31.4951 H   0  0  0  0  0  0  0  0  0  0  0  0
   -9.3564   20.7507  -31.6871 H   0  0  0  0  0  0  0  0  0  0  0  0
   -6.0332   19.4817  -35.1624 H   0  0  0  0  0  0  0  0  0  0  0  0
   -5.4355   19.8867  -33.5240 H   0  0  0  0  0  0  0  0  0  0  0  0
   -4.3732   17.9385  -35.4657 H   0  0  0  0  0  0  0  0  0  0  0  0
   -3.6125   18.5341  -33.9859 H   0  0  0  0  0  0  0  0  0  0  0  0
   -4.6141   15.9593  -34.2867 H   0  0  0  0  0  0  0  0  0  0  0  0
   -4.4671   16.7312  -32.7106 H   0  0  0  0  0  0  0  0  0  0  0  0
   -6.8914   16.3873  -34.4876 H   0  0  0  0  0  0  0  0  0  0  0  0
   -6.8027   16.3849  -32.7060 H   0  0  0  0  0  0  0  0  0  0  0  0
   -5.0411   20.7866  -32.0303 H   0  0  0  0  0  0  0  0  0  0  0  0
   -3.3811   21.2447  -31.1296 H   0  0  0  0  0  0  0  0  0  0  0  0
   -2.4382   19.6007  -29.5140 H   0  0  0  0  0  0  0  0  0  0  0  0
    0.6165   17.3576  -27.4315 H   0  0  0  0  0  0  0  0  0  0  0  0
   -1.1802   17.5515  -27.6245 H   0  0  0  0  0  0  0  0  0  0  0  0
   -0.0703   16.9987  -29.7672 H   0  0  0  0  0  0  0  0  0  0  0  0
   -0.8577   18.6437  -29.7712 H   0  0  0  0  0  0  0  0  0  0  0  0
    2.3796   19.3316  -28.2829 H   0  0  0  0  0  0  0  0  0  0  0  0
    1.9682   20.4955  -29.6392 H   0  0  0  0  0  0  0  0  0  0  0  0
    0.8999   21.1468  -27.5096 H   0  0  0  0  0  0  0  0  0  0  0  0
   -0.2943   20.7275  -28.7949 H   0  0  0  0  0  0  0  0  0  0  0  0
   -2.3599   22.6488  -26.4453 H   0  0  0  0  0  0  0  0  0  0  0  0
   -3.2878   24.3044  -28.0606 H   0  0  0  0  0  0  0  0  0  0  0  0
  1  2  2  0
  2  3  1  0
  3  4  1  0
  4  5  2  0
  5  6  1  0
  6  7  2  0
  7  8  1  0
  8  9  1  0
  9 10  2  0
  9 11  2  0
  9 12  1  0
 12 13  1  0
 13 14  1  0
 14 15  1  0
 15 16  1  0
  8 17  2  0
  2 18  1  0
 18 19  2  0
 19 20  1  0
 20 21  2  0
 21 22  1  0
 22 23  2  0
 22 24  2  0
 22 25  1  0
 25 26  1  0
 26 27  1  0
 27 28  1  0
 28 29  1  0
 29 30  1  0
 21 31  1  0
 31 32  2  0
 17  4  1  0
 32 18  1  0
 16 12  1  0
 30 25  1  0
  5 33  1  0
  6 34  1  0
  7 35  1  0
 13 36  1  0
 13 37  1  0
 14 38  1  0
 14 39  1  0
 15 40  1  0
 15 41  1  0
 16 42  1  0
 16 43  1  0
 17 44  1  0
 19 45  1  0
 20 46  1  0
 26 47  1  0
 26 48  1  0
 27 49  1  0
 27 50  1  0
 29 51  1  0
 29 52  1  0
 30 53  1  0
 30 54  1  0
 31 55  1  0
 32 56  1  0
M  CHG  1   3  -1
M  END
>  <UniqueID>  (15) 
15

>  <SMILES>  (15) 
O=C([N-]c1cccc(S(=O)(=O)N2CCCC2)c1)c1ccc(S(=O)(=O)N2CCOCC2)cc1

>  <Energy>  (15) 
75.20607337660029

>  <Genealogy>  (15) 
O=C([N-]c1cccc(S(=O)(=O)N2CCCC2)c1)c1ccc(S(=O)(=O)N2CCOCC2)cc1 (protonated)
O=C([N-]c1cccc(S(=O)(=O)N2CCCC2)c1)c1ccc(S(=O)(=O)N2CCOCC2)cc1 (3D coordinates assigned)
O=C([N-]c1cccc(S(=O)(=O)N2CCCC2)c1)c1ccc(S(=O)(=O)N2CCOCC2)cc1 (nonaromatic ring conformer: 75.20607337660029 kcal/mol)

>  <smiles>  (15) 
O=C(Nc1cccc(S(=O)(=O)N2CCCC2)c1)c1ccc(S(=O)(=O)N2CCOCC2)cc1

>  <score_type>  (15) 
oracle

>  <origin>  (15) 
adgpu

>  <m_score__min__energy>  (15) 
-12.710000000000001

>  <m_primary>  (15) 
energy

$$$$
15:0
     RDKit          3D

 43 45  0  0  0  0  0  0  0  0999 V2000
   -2.0890   24.8790  -26.6500 C   0  0  0  0  0  0  0  0  0  0  0  0
   -2.8130   24.3430  -27.8480 C   0  0  0  0  0  0  0  0  0  0  0  0
   -2.0970   23.9370  -28.9840 C   0  0  0  0  0  0  0  0  0  0  0  0
   -2.7700   23.4040  -30.0880 C   0  0  0  0  0  0  0  0  0  0  0  0
   -4.1650   23.2650  -30.0640 C   0  0  0  0  0  0  0  0  0  0  0  0
   -5.0200   22.6160  -31.4590 S   0  0  0  0  0  0  0  0  0  0  0  0
   -5.4410   23.7520  -32.3480 O   0  0  0  0  0  0  0  0  0  0  0  0
   -6.2500   21.8670  -31.0230 O   0  0  0  0  0  0  0  0  0  0  0  0
   -3.9810   21.5220  -32.3620 C   0  0  0  0  0  0  0  0  0  0  0  0
   -2.7060   21.8720  -32.6820 N   0  0  0  0  0  0  0  0  0  0  0  0
   -2.1010   20.9310  -33.4380 C   0  0  0  0  0  0  0  0  0  0  0  0
   -0.4630   21.0830  -34.0380 S   0  0  0  0  0  0  0  0  0  0  0  0
   -0.0400   19.6410  -34.9890 C   0  0  0  0  0  0  0  0  0  0  0  0
   -0.3610   22.3020  -34.9090 O   0  0  0  0  0  0  0  0  0  0  0  0
    0.4840   21.2270  -32.8800 O   0  0  0  0  0  0  0  0  0  0  0  0
   -3.1150   19.6300  -33.7670 S   0  0  0  0  0  0  0  0  0  0  0  0
   -4.3820   20.2870  -32.8760 C   0  0  0  0  0  0  0  0  0  0  0  0
   -5.6690   19.6720  -32.7180 N   0  0  0  0  0  0  0  0  0  0  0  0
   -6.7950   20.0980  -33.5570 C   0  0  0  0  0  0  0  0  0  0  0  0
   -8.0280   20.3620  -32.6960 C   0  0  0  0  0  0  0  0  0  0  0  0
   -8.6560   18.8510  -31.8680 S   0  0  0  0  0  0  0  0  0  0  0  0
   -7.1090   17.8710  -31.8230 C   0  0  0  0  0  0  0  0  0  0  0  0
   -5.8730   18.7430  -31.6010 C   0  0  0  0  0  0  0  0  0  0  0  0
   -4.8780   23.6450  -28.9200 C   0  0  0  0  0  0  0  0  0  0  0  0
   -4.2060   24.1770  -27.8150 C   0  0  0  0  0  0  0  0  0  0  0  0
   -2.5781   24.5169  -25.7337 H   0  0  0  0  0  0  0  0  0  0  0  0
   -1.0444   24.5349  -26.6686 H   0  0  0  0  0  0  0  0  0  0  0  0
   -2.1132   25.9786  -26.6686 H   0  0  0  0  0  0  0  0  0  0  0  0
   -1.0019   24.0383  -29.0065 H   0  0  0  0  0  0  0  0  0  0  0  0
   -2.2032   23.0929  -30.9779 H   0  0  0  0  0  0  0  0  0  0  0  0
    0.2033   18.8115  -34.3087 H   0  0  0  0  0  0  0  0  0  0  0  0
   -0.8927   19.3570  -35.6233 H   0  0  0  0  0  0  0  0  0  0  0  0
    0.8310   19.8626  -35.6233 H   0  0  0  0  0  0  0  0  0  0  0  0
   -6.5212   21.0200  -34.0909 H   0  0  0  0  0  0  0  0  0  0  0  0
   -7.0262   19.2996  -34.2774 H   0  0  0  0  0  0  0  0  0  0  0  0
   -7.7661   21.1017  -31.9251 H   0  0  0  0  0  0  0  0  0  0  0  0
   -8.8233   20.7289  -33.3615 H   0  0  0  0  0  0  0  0  0  0  0  0
   -7.1775   17.1402  -31.0037 H   0  0  0  0  0  0  0  0  0  0  0  0
   -6.9982   17.3742  -32.7981 H   0  0  0  0  0  0  0  0  0  0  0  0
   -6.0036   19.3204  -30.6739 H   0  0  0  0  0  0  0  0  0  0  0  0
   -4.9931   18.0867  -31.5298 H   0  0  0  0  0  0  0  0  0  0  0  0
   -5.9710   23.5245  -28.8906 H   0  0  0  0  0  0  0  0  0  0  0  0
   -4.7713   24.4663  -26.9168 H   0  0  0  0  0  0  0  0  0  0  0  0
  1  2  1  0
  2  3  2  0
  3  4  1  0
  4  5  2  0
  5  6  1  0
  6  7  2  0
  6  8  2  0
  6  9  1  0
  9 10  1  0
 10 11  2  0
 11 12  1  0
 12 13  1  0
 12 14  2  0
 12 15  2  0
 11 16  1  0
 16 17  1  0
 17 18  1  0
 18 19  1  0
 19 20  1  0
 20 21  1  0
 21 22  1  0
 22 23  1  0
  5 24  1  0
 24 25  2  0
 25  2  1  0
 17  9  2  0
 23 18  1  0
  1 26  1  0
  1 27  1  0
  1 28  1  0
  3 29  1  0
  4 30  1  0
 13 31  1  0
 13 32  1  0
 13 33  1  0
 19 34  1  0
 19 35  1  0
 20 36  1  0
 20 37  1  0
 22 38  1  0
 22 39  1  0
 23 40  1  0
 23 41  1  0
 24 42  1  0
 25 43  1  0
M  END
>  <UniqueID>  (16) 
16

>  <SMILES>  (16) 
Cc1ccc(S(=O)(=O)c2nc(S(C)(=O)=O)sc2N2CCSCC2)cc1

>  <Energy>  (16) 
75.28599673759244

>  <Genealogy>  (16) 
Cc1ccc(S(=O)(=O)c2nc(S(C)(=O)=O)sc2N2CCSCC2)cc1 (3D coordinates assigned)
Cc1ccc(S(=O)(=O)c2nc(S(C)(=O)=O)sc2N2CCSCC2)cc1 (nonaromatic ring conformer: 75.28599673759244 kcal/mol)

>  <smiles>  (16) 
Cc1ccc(S(=O)(=O)c2nc(S(C)(=O)=O)sc2N2CCSCC2)cc1

>  <score_type>  (16) 
oracle

>  <origin>  (16) 
adgpu

>  <m_score__min__energy>  (16) 
-8.7899999999999991

>  <m_primary>  (16) 
energy

$$$$
16:0
     RDKit          3D

 42 44  0  0  0  0  0  0  0  0999 V2000
   -6.8640   17.2930  -33.5500 C   0  0  0  0  0  0  0  0  0  0  0  0
   -6.8030   18.6170  -32.8490 C   0  0  0  0  0  0  0  0  0  0  0  0
   -5.5810   19.2980  -32.7470 C   0  0  0  0  0  0  0  0  0  0  0  0
   -5.5110   20.5260  -32.0800 C   0  0  0  0  0  0  0  0  0  0  0  0
   -6.6620   21.0930  -31.5190 C   0  0  0  0  0  0  0  0  0  0  0  0
   -6.5620   22.3610  -30.8530 N   0  0  0  0  0  0  0  0  0  0  0  0
   -5.5310   23.3350  -31.0690 C   0  0  0  0  0  0  0  0  0  0  0  0
   -5.6910   24.1980  -31.9720 O   0  0  0  0  0  0  0  0  0  0  0  0
   -4.3190   23.3790  -30.2200 C   0  0  0  0  0  0  0  0  0  0  0  0
   -3.9410   22.2400  -29.4910 C   0  0  0  0  0  0  0  0  0  0  0  0
   -2.7670   22.2380  -28.7400 C   0  0  0  0  0  0  0  0  0  0  0  0
   -1.9440   23.3700  -28.7070 C   0  0  0  0  0  0  0  0  0  0  0  0
   -0.4140   23.3110  -27.8260 S   0  0  0  0  0  0  0  0  0  0  0  0
    0.6170   24.0910  -28.5910 O   0  0  0  0  0  0  0  0  0  0  0  0
    0.0540   21.8910  -27.6710 O   0  0  0  0  0  0  0  0  0  0  0  0
   -0.5960   24.0140  -26.2500 N   0  0  0  0  0  0  0  0  0  0  0  0
   -0.6270   25.4210  -25.9700 C   0  0  0  0  0  0  0  0  0  0  0  0
   -1.1620   25.9370  -24.7740 C   0  0  0  0  0  0  0  0  0  0  0  0
   -1.1910   27.3180  -24.5550 C   0  0  0  0  0  0  0  0  0  0  0  0
   -0.6860   28.1930  -25.5200 C   0  0  0  0  0  0  0  0  0  0  0  0
   -0.7220   29.9250  -25.2430 Cl  0  0  0  0  0  0  0  0  0  0  0  0
   -0.1480   27.6860  -26.7070 C   0  0  0  0  0  0  0  0  0  0  0  0
   -0.1180   26.3060  -26.9280 C   0  0  0  0  0  0  0  0  0  0  0  0
   -2.3380   24.5310  -29.3940 C   0  0  0  0  0  0  0  0  0  0  0  0
   -1.5570   25.6810  -29.3410 O   0  0  0  0  0  0  0  0  0  0  0  0
   -3.5200   24.5360  -30.1480 C   0  0  0  0  0  0  0  0  0  0  0  0
   -3.8780   25.6850  -30.8470 O   0  0  0  0  0  0  0  0  0  0  0  0
   -7.8790   20.3930  -31.5890 C   0  0  0  0  0  0  0  0  0  0  0  0
   -7.9490   19.1650  -32.2530 C   0  0  0  0  0  0  0  0  0  0  0  0
   -6.9012   16.4849  -32.8047 H   0  0  0  0  0  0  0  0  0  0  0  0
   -7.7650   17.2527  -34.1798 H   0  0  0  0  0  0  0  0  0  0  0  0
   -5.9706   17.1701  -34.1798 H   0  0  0  0  0  0  0  0  0  0  0  0
   -4.6738   18.8648  -33.1933 H   0  0  0  0  0  0  0  0  0  0  0  0
   -4.5468   21.0487  -31.9959 H   0  0  0  0  0  0  0  0  0  0  0  0
   -4.5764   21.3424  -29.5128 H   0  0  0  0  0  0  0  0  0  0  0  0
   -2.4851   21.3409  -28.1693 H   0  0  0  0  0  0  0  0  0  0  0  0
   -1.5582   25.2520  -24.0099 H   0  0  0  0  0  0  0  0  0  0  0  0
   -1.6126   27.7164  -23.6204 H   0  0  0  0  0  0  0  0  0  0  0  0
    0.2517   28.3733  -27.4671 H   0  0  0  0  0  0  0  0  0  0  0  0
    0.3090   25.9123  -27.8622 H   0  0  0  0  0  0  0  0  0  0  0  0
   -8.7803   20.8135  -31.1191 H   0  0  0  0  0  0  0  0  0  0  0  0
   -8.9063   18.6261  -32.3085 H   0  0  0  0  0  0  0  0  0  0  0  0
  1  2  1  0
  2  3  2  0
  3  4  1  0
  4  5  2  0
  5  6  1  0
  6  7  1  0
  7  8  2  0
  7  9  1  0
  9 10  2  0
 10 11  1  0
 11 12  2  0
 12 13  1  0
 13 14  2  0
 13 15  2  0
 13 16  1  0
 16 17  1  0
 17 18  2  0
 18 19  1  0
 19 20  2  0
 20 21  1  0
 20 22  1  0
 22 23  2  0
 12 24  1  0
 24 25  1  0
 24 26  2  0
 26 27  1  0
  5 28  1  0
 28 29  2  0
 29  2  1  0
 26  9  1  0
 23 17  1  0
  1 30  1  0
  1 31  1  0
  1 32  1  0
  3 33  1  0
  4 34  1  0
 10 35  1  0
 11 36  1  0
 18 37  1  0
 19 38  1  0
 22 39  1  0
 23 40  1  0
 28 41  1  0
 29 42  1  0
M  CHG  4   6  -1  16  -1  25  -1  27  -1
M  END
>  <UniqueID>  (17) 
17

>  <SMILES>  (17) 
Cc1ccc([N-]C(=O)c2ccc(S(=O)(=O)[N-]c3ccc(Cl)cc3)c([O-])c2[O-])cc1

>  <Energy>  (17) 
54.166911589077316

>  <Genealogy>  (17) 
Cc1ccc([N-]C(=O)c2ccc(S(=O)(=O)[N-]c3ccc(Cl)cc3)c([O-])c2[O-])cc1 (protonated)
Cc1ccc([N-]C(=O)c2ccc(S(=O)(=O)[N-]c3ccc(Cl)cc3)c([O-])c2[O-])cc1 (3D coordinates assigned)
Cc1ccc([N-]C(=O)c2ccc(S(=O)(=O)[N-]c3ccc(Cl)cc3)c([O-])c2[O-])cc1 (optimized conformer: 54.166911589077316 kcal/mol)

>  <smiles>  (17) 
Cc1ccc(NC(=O)c2ccc(S(=O)(=O)Nc3ccc(Cl)cc3)c(O)c2O)cc1

>  <score_type>  (17) 
oracle

>  <origin>  (17) 
adgpu

>  <m_score__min__energy>  (17) 
-16.050000000000001

>  <m_primary>  (17) 
energy

$$$$
17:0
     RDKit          3D

 43 44  0  0  0  0  0  0  0  0999 V2000
   -0.3580   23.3850  -24.7630 C   0  0  0  0  0  0  0  0  0  0  0  0
   -1.0940   23.3160  -26.1030 C   0  0  0  0  0  0  0  0  0  0  0  0
   -1.3760   24.6330  -26.7080 N   0  0  0  0  0  0  0  0  0  0  0  0
   -2.6240   25.3020  -26.2770 C   0  0  0  0  0  0  0  0  0  0  0  0
   -3.9160   24.5970  -26.7140 C   0  0  0  0  0  0  0  0  0  0  0  0
   -0.9820   24.7640  -28.4080 S   0  0  0  0  0  0  0  0  0  0  0  0
    0.4690   24.4290  -28.6150 O   0  0  0  0  0  0  0  0  0  0  0  0
   -1.2240   26.1620  -28.9070 O   0  0  0  0  0  0  0  0  0  0  0  0
   -1.9550   23.6280  -29.3380 C   0  0  0  0  0  0  0  0  0  0  0  0
   -1.4660   22.3500  -29.6380 C   0  0  0  0  0  0  0  0  0  0  0  0
   -2.2360   21.4610  -30.3940 C   0  0  0  0  0  0  0  0  0  0  0  0
   -3.5030   21.8410  -30.8730 C   0  0  0  0  0  0  0  0  0  0  0  0
   -4.3100   20.8860  -31.6700 C   0  0  0  0  0  0  0  0  0  0  0  0
   -4.2950   19.6620  -31.3650 O   0  0  0  0  0  0  0  0  0  0  0  0
   -5.0900   21.3270  -32.7930 N   0  0  0  0  0  0  0  0  0  0  0  0
   -5.9630   20.4230  -33.5380 C   0  0  0  0  0  0  0  0  0  0  0  0
   -7.2620   20.2550  -32.8170 C   0  0  0  0  0  0  0  0  0  0  0  0
   -7.9160   19.0590  -32.5940 C   0  0  0  0  0  0  0  0  0  0  0  0
   -9.0690   19.3900  -31.9160 C   0  0  0  0  0  0  0  0  0  0  0  0
   -9.0480   20.7630  -31.7680 C   0  0  0  0  0  0  0  0  0  0  0  0
   -7.9580   21.2490  -32.3160 O   0  0  0  0  0  0  0  0  0  0  0  0
   -3.9890   23.1240  -30.5620 C   0  0  0  0  0  0  0  0  0  0  0  0
   -3.2170   24.0110  -29.8060 C   0  0  0  0  0  0  0  0  0  0  0  0
   -1.0858   23.3168  -23.9410 H   0  0  0  0  0  0  0  0  0  0  0  0
    0.3542   22.5497  -24.6924 H   0  0  0  0  0  0  0  0  0  0  0  0
    0.1866   24.3381  -24.6924 H   0  0  0  0  0  0  0  0  0  0  0  0
   -0.4761   22.7386  -26.8064 H   0  0  0  0  0  0  0  0  0  0  0  0
   -2.0679   22.8447  -25.9044 H   0  0  0  0  0  0  0  0  0  0  0  0
   -2.6200   25.3591  -25.1785 H   0  0  0  0  0  0  0  0  0  0  0  0
   -2.6301   26.2890  -26.7627 H   0  0  0  0  0  0  0  0  0  0  0  0
   -4.4837   24.2872  -25.8242 H   0  0  0  0  0  0  0  0  0  0  0  0
   -4.5252   25.2877  -27.3155 H   0  0  0  0  0  0  0  0  0  0  0  0
   -3.6648   23.7109  -27.3155 H   0  0  0  0  0  0  0  0  0  0  0  0
   -0.4726   22.0448  -29.2775 H   0  0  0  0  0  0  0  0  0  0  0  0
   -1.8479   20.4560  -30.6161 H   0  0  0  0  0  0  0  0  0  0  0  0
   -4.9990   22.3070  -33.1410 H   0  0  0  0  0  0  0  0  0  0  0  0
   -6.1528   20.8416  -34.5374 H   0  0  0  0  0  0  0  0  0  0  0  0
   -5.4725   19.4428  -33.6304 H   0  0  0  0  0  0  0  0  0  0  0  0
   -7.5858   18.0537  -32.8945 H   0  0  0  0  0  0  0  0  0  0  0  0
   -9.8493   18.6995  -31.5635 H   0  0  0  0  0  0  0  0  0  0  0  0
   -9.8256   21.3586  -31.2675 H   0  0  0  0  0  0  0  0  0  0  0  0
   -4.9839   23.4316  -30.9163 H   0  0  0  0  0  0  0  0  0  0  0  0
   -3.6035   25.0152  -29.5778 H   0  0  0  0  0  0  0  0  0  0  0  0
  1  2  1  0
  2  3  1  0
  3  4  1  0
  4  5  1  0
  3  6  1  0
  6  7  2  0
  6  8  2  0
  6  9  1  0
  9 10  2  0
 10 11  1  0
 11 12  2  0
 12 13  1  0
 13 14  2  0
 13 15  1  0
 15 16  1  0
 16 17  1  0
 17 18  2  0
 18 19  1  0
 19 20  2  0
 20 21  1  0
 12 22  1  0
 22 23  2  0
 23  9  1  0
 21 17  1  0
  1 24  1  0
  1 25  1  0
  1 26  1  0
  2 27  1  0
  2 28  1  0
  4 29  1  0
  4 30  1  0
  5 31  1  0
  5 32  1  0
  5 33  1  0
 10 34  1  0
 11 35  1  0
 15 36  1  0
 16 37  1  0
 16 38  1  0
 18 39  1  0
 19 40  1  0
 20 41  1  0
 22 42  1  0
 23 43  1  0
M  END
>  <UniqueID>  (18) 
18

>  <SMILES>  (18) 
CCN(CC)S(=O)(=O)c1ccc(C(=O)NCc2ccco2)cc1

>  <Energy>  (18) 
73.62302683204965

>  <Genealogy>  (18) 
CCN(CC)S(=O)(=O)c1ccc(C(=O)NCc2ccco2)cc1 (3D coordinates assigned)
CCN(CC)S(=O)(=O)c1ccc(C(=O)NCc2ccco2)cc1 (optimized conformer: 73.62302683204965 kcal/mol)

>  <smiles>  (18) 
CCN(CC)S(=O)(=O)c1ccc(C(=O)NCc2ccco2)cc1

>  <score_type>  (18) 
oracle

>  <origin>  (18) 
adgpu

>  <m_score__min__energy>  (18) 
-7.8600000000000003

>  <m_primary>  (18) 
energy

$$$$
18:0
     RDKit          3D

 58 61  0  0  0  0  0  0  0  0999 V2000
   -4.0370   25.1900  -30.5170 O   0  0  0  0  0  0  0  0  0  0  0  0
   -3.6720   23.9840  -30.4710 C   0  0  0  0  0  0  0  0  0  0  0  0
   -4.1230   23.0660  -31.4790 N   0  0  0  0  0  0  0  0  0  0  0  0
   -5.4530   22.5510  -31.6270 C   0  0  0  0  0  0  0  0  0  0  0  0
   -6.5090   23.4550  -31.7970 C   0  0  0  0  0  0  0  0  0  0  0  0
   -7.8150   22.9910  -31.9740 C   0  0  0  0  0  0  0  0  0  0  0  0
   -8.0750   21.6180  -31.9950 C   0  0  0  0  0  0  0  0  0  0  0  0
   -7.0260   20.7020  -31.8440 C   0  0  0  0  0  0  0  0  0  0  0  0
   -7.3340   18.9700  -31.9270 S   0  0  0  0  0  0  0  0  0  0  0  0
   -8.7900   18.6960  -31.6680 O   0  0  0  0  0  0  0  0  0  0  0  0
   -6.5190   18.2750  -30.8710 O   0  0  0  0  0  0  0  0  0  0  0  0
   -6.8690   18.3810  -33.5030 N   0  0  0  0  0  0  0  0  0  0  0  0
   -6.5780   16.9490  -33.4710 C   0  0  0  0  0  0  0  0  0  0  0  0
   -5.5910   16.6830  -34.5950 C   0  0  0  0  0  0  0  0  0  0  0  0
   -4.9770   18.0350  -34.9220 C   0  0  0  0  0  0  0  0  0  0  0  0
   -5.6390   19.0180  -33.9700 C   0  0  0  0  0  0  0  0  0  0  0  0
   -5.7150   21.1690  -31.6720 C   0  0  0  0  0  0  0  0  0  0  0  0
   -2.7260   23.5410  -29.4140 C   0  0  0  0  0  0  0  0  0  0  0  0
   -2.8030   22.2210  -28.9240 C   0  0  0  0  0  0  0  0  0  0  0  0
   -1.9280   21.7700  -27.9290 C   0  0  0  0  0  0  0  0  0  0  0  0
   -2.0660   20.1190  -27.3330 S   0  0  0  0  0  0  0  0  0  0  0  0
   -1.4870   20.0590  -25.9460 O   0  0  0  0  0  0  0  0  0  0  0  0
   -3.5100   19.7040  -27.2790 O   0  0  0  0  0  0  0  0  0  0  0  0
   -1.1870   19.0440  -28.3940 N   0  0  0  0  0  0  0  0  0  0  0  0
   -0.1230   18.3160  -27.6550 C   0  0  0  0  0  0  0  0  0  0  0  0
    1.2770   18.9010  -27.8910 C   0  0  0  0  0  0  0  0  0  0  0  0
    1.6420   18.8850  -29.3860 C   0  0  0  0  0  0  0  0  0  0  0  0
    0.4140   19.0390  -30.2990 C   0  0  0  0  0  0  0  0  0  0  0  0
   -0.7150   19.7870  -29.5820 C   0  0  0  0  0  0  0  0  0  0  0  0
   -0.9600   22.6380  -27.4120 C   0  0  0  0  0  0  0  0  0  0  0  0
   -0.8670   23.9460  -27.8880 C   0  0  0  0  0  0  0  0  0  0  0  0
   -1.7370   24.4020  -28.8840 C   0  0  0  0  0  0  0  0  0  0  0  0
   -1.5950   25.7090  -29.3410 O   0  0  0  0  0  0  0  0  0  0  0  0
   -6.3091   24.5367  -31.7911 H   0  0  0  0  0  0  0  0  0  0  0  0
   -8.6402   23.7078  -32.0971 H   0  0  0  0  0  0  0  0  0  0  0  0
   -9.1049   21.2561  -32.1303 H   0  0  0  0  0  0  0  0  0  0  0  0
   -6.1345   16.6731  -32.5029 H   0  0  0  0  0  0  0  0  0  0  0  0
   -7.4946   16.3543  -33.5981 H   0  0  0  0  0  0  0  0  0  0  0  0
   -4.8142   15.9771  -34.2660 H   0  0  0  0  0  0  0  0  0  0  0  0
   -6.0807   16.2335  -35.4714 H   0  0  0  0  0  0  0  0  0  0  0  0
   -3.8894   18.0137  -34.7587 H   0  0  0  0  0  0  0  0  0  0  0  0
   -5.1359   18.3134  -35.9743 H   0  0  0  0  0  0  0  0  0  0  0  0
   -4.9742   19.2294  -33.1195 H   0  0  0  0  0  0  0  0  0  0  0  0
   -5.8520   19.9739  -34.4708 H   0  0  0  0  0  0  0  0  0  0  0  0
   -4.8872   20.4515  -31.5717 H   0  0  0  0  0  0  0  0  0  0  0  0
   -3.5618   21.5357  -29.3297 H   0  0  0  0  0  0  0  0  0  0  0  0
   -0.3468   18.3649  -26.5791 H   0  0  0  0  0  0  0  0  0  0  0  0
   -0.1142   17.2802  -28.0251 H   0  0  0  0  0  0  0  0  0  0  0  0
    1.2981   19.9390  -27.5276 H   0  0  0  0  0  0  0  0  0  0  0  0
    2.0082   18.2848  -27.3473 H   0  0  0  0  0  0  0  0  0  0  0  0
    2.3364   19.7140  -29.5875 H   0  0  0  0  0  0  0  0  0  0  0  0
    2.0988   17.9088  -29.6058 H   0  0  0  0  0  0  0  0  0  0  0  0
    0.7034   19.6018  -31.1987 H   0  0  0  0  0  0  0  0  0  0  0  0
    0.0521   18.0364  -30.5705 H   0  0  0  0  0  0  0  0  0  0  0  0
   -0.3451   20.7728  -29.2636 H   0  0  0  0  0  0  0  0  0  0  0  0
   -1.5579   19.8926  -30.2809 H   0  0  0  0  0  0  0  0  0  0  0  0
   -0.2711   22.2884  -26.6289 H   0  0  0  0  0  0  0  0  0  0  0  0
   -0.1041   24.6237  -27.4772 H   0  0  0  0  0  0  0  0  0  0  0  0
  1  2  2  0
  2  3  1  0
  3  4  1  0
  4  5  2  0
  5  6  1  0
  6  7  2  0
  7  8  1  0
  8  9  1  0
  9 10  2  0
  9 11  2  0
  9 12  1  0
 12 13  1  0
 13 14  1  0
 14 15  1  0
 15 16  1  0
  8 17  2  0
  2 18  1  0
 18 19  2  0
 19 20  1  0
 20 21  1  0
 21 22  2  0
 21 23  2  0
 21 24  1  0
 24 25  1  0
 25 26  1  0
 26 27  1  0
 27 28  1  0
 28 29  1  0
 20 30  2  0
 30 31  1  0
 31 32  2  0
 32 33  1  0
 17  4  1  0
 32 18  1  0
 16 12  1  0
 29 24  1  0
  5 34  1  0
  6 35  1  0
  7 36  1  0
 13 37  1  0
 13 38  1  0
 14 39  1  0
 14 40  1  0
 15 41  1  0
 15 42  1  0
 16 43  1  0
 16 44  1  0
 17 45  1  0
 19 46  1  0
 25 47  1  0
 25 48  1  0
 26 49  1  0
 26 50  1  0
 27 51  1  0
 27 52  1  0
 28 53  1  0
 28 54  1  0
 29 55  1  0
 29 56  1  0
 30 57  1  0
 31 58  1  0
M  CHG  2   3  -1  33  -1
M  END
>  <UniqueID>  (19) 
19

>  <SMILES>  (19) 
O=C([N-]c1cccc(S(=O)(=O)N2CCCC2)c1)c1cc(S(=O)(=O)N2CCCCC2)ccc1[O-]

>  <Energy>  (19) 
71.98647616839587

>  <Genealogy>  (19) 
O=C([N-]c1cccc(S(=O)(=O)N2CCCC2)c1)c1cc(S(=O)(=O)N2CCCCC2)ccc1[O-] (protonated)
O=C([N-]c1cccc(S(=O)(=O)N2CCCC2)c1)c1cc(S(=O)(=O)N2CCCCC2)ccc1[O-] (3D coordinates assigned)
O=C([N-]c1cccc(S(=O)(=O)N2CCCC2)c1)c1cc(S(=O)(=O)N2CCCCC2)ccc1[O-] (nonaromatic ring conformer: 71.98647616839587 kcal/mol)

>  <smiles>  (19) 
O=C(Nc1cccc(S(=O)(=O)N2CCCC2)c1)c1cc(S(=O)(=O)N2CCCCC2)ccc1O

>  <score_type>  (19) 
oracle

>  <origin>  (19) 
adgpu

>  <m_score__min__energy>  (19) 
-15.300000000000001

>  <m_primary>  (19) 
energy

$$$$
19:0
     RDKit          3D

 44 47  0  0  0  0  0  0  0  0999 V2000
   -4.2430   17.2920  -35.2800 C   0  0  0  0  0  0  0  0  0  0  0  0
   -5.2510   17.7520  -34.2690 C   0  0  0  0  0  0  0  0  0  0  0  0
   -6.3020   16.9120  -33.8740 C   0  0  0  0  0  0  0  0  0  0  0  0
   -7.2240   17.3450  -32.9180 C   0  0  0  0  0  0  0  0  0  0  0  0
   -7.1020   18.6140  -32.3460 C   0  0  0  0  0  0  0  0  0  0  0  0
   -6.0490   19.4680  -32.7230 C   0  0  0  0  0  0  0  0  0  0  0  0
   -5.9190   20.8220  -32.1230 C   0  0  0  0  0  0  0  0  0  0  0  0
   -4.8320   21.6520  -32.4540 C   0  0  0  0  0  0  0  0  0  0  0  0
   -4.7110   22.9240  -31.8860 C   0  0  0  0  0  0  0  0  0  0  0  0
   -5.6740   23.3860  -30.9810 C   0  0  0  0  0  0  0  0  0  0  0  0
   -5.5390   24.9930  -30.2730 S   0  0  0  0  0  0  0  0  0  0  0  0
   -6.4260   25.1210  -29.0650 O   0  0  0  0  0  0  0  0  0  0  0  0
   -5.9540   26.0120  -31.2950 O   0  0  0  0  0  0  0  0  0  0  0  0
   -3.8960   25.2950  -29.8050 N   0  0  0  0  0  0  0  0  0  0  0  0
   -2.9850   24.3070  -29.3010 C   0  0  0  0  0  0  0  0  0  0  0  0
   -3.3870   22.9790  -29.0550 C   0  0  0  0  0  0  0  0  0  0  0  0
   -2.4660   22.0410  -28.5660 C   0  0  0  0  0  0  0  0  0  0  0  0
   -2.8410   20.7130  -28.3210 C   0  0  0  0  0  0  0  0  0  0  0  0
   -1.9000   19.8040  -27.8340 C   0  0  0  0  0  0  0  0  0  0  0  0
   -0.5880   20.2310  -27.5980 C   0  0  0  0  0  0  0  0  0  0  0  0
    0.2710   19.4210  -27.1590 O   0  0  0  0  0  0  0  0  0  0  0  0
   -0.2360   21.5220  -27.8440 N   0  0  0  0  0  0  0  0  0  0  0  0
   -1.1320   22.4300  -28.3190 C   0  0  0  0  0  0  0  0  0  0  0  0
   -0.7330   23.7470  -28.5660 C   0  0  0  0  0  0  0  0  0  0  0  0
   -1.6550   24.6810  -29.0550 C   0  0  0  0  0  0  0  0  0  0  0  0
   -1.2390   25.9860  -29.2960 O   0  0  0  0  0  0  0  0  0  0  0  0
   -6.7570   22.5660  -30.6420 C   0  0  0  0  0  0  0  0  0  0  0  0
   -6.8790   21.2940  -31.2070 C   0  0  0  0  0  0  0  0  0  0  0  0
   -5.1230   19.0210  -33.6840 C   0  0  0  0  0  0  0  0  0  0  0  0
   -3.3606   16.8893  -34.7610 H   0  0  0  0  0  0  0  0  0  0  0  0
   -4.6874   16.5076  -35.9102 H   0  0  0  0  0  0  0  0  0  0  0  0
   -3.9417   18.1417  -35.9102 H   0  0  0  0  0  0  0  0  0  0  0  0
   -6.4007   15.9103  -34.3177 H   0  0  0  0  0  0  0  0  0  0  0  0
   -8.0494   16.6843  -32.6143 H   0  0  0  0  0  0  0  0  0  0  0  0
   -7.8341   18.9477  -31.5959 H   0  0  0  0  0  0  0  0  0  0  0  0
   -4.0714   21.2974  -33.1652 H   0  0  0  0  0  0  0  0  0  0  0  0
   -3.8563   23.5637  -32.1511 H   0  0  0  0  0  0  0  0  0  0  0  0
   -4.4271   22.6768  -29.2472 H   0  0  0  0  0  0  0  0  0  0  0  0
   -3.8743   20.3877  -28.5120 H   0  0  0  0  0  0  0  0  0  0  0  0
   -2.1873   18.7606  -27.6373 H   0  0  0  0  0  0  0  0  0  0  0  0
    0.3071   24.0502  -28.3759 H   0  0  0  0  0  0  0  0  0  0  0  0
   -7.5140   22.9242  -29.9288 H   0  0  0  0  0  0  0  0  0  0  0  0
   -7.7322   20.6557  -30.9340 H   0  0  0  0  0  0  0  0  0  0  0  0
   -4.2889   19.6742  -33.9800 H   0  0  0  0  0  0  0  0  0  0  0  0
  1  2  1  0
  2  3  2  0
  3  4  1  0
  4  5  2  0
  5  6  1  0
  6  7  1  0
  7  8  2  0
  8  9  1  0
  9 10  2  0
 10 11  1  0
 11 12  2  0
 11 13  2  0
 11 14  1  0
 14 15  1  0
 15 16  2  0
 16 17  1  0
 17 18  1  0
 18 19  2  0
 19 20  1  0
 20 21  2  0
 20 22  1  0
 22 23  1  0
 23 24  1  0
 24 25  2  0
 25 26  1  0
 10 27  1  0
 27 28  2  0
  6 29  2  0
 29  2  1  0
 28  7  1  0
 25 15  1  0
 23 17  2  0
  1 30  1  0
  1 31  1  0
  1 32  1  0
  3 33  1  0
  4 34  1  0
  5 35  1  0
  8 36  1  0
  9 37  1  0
 16 38  1  0
 18 39  1  0
 19 40  1  0
 24 41  1  0
 27 42  1  0
 28 43  1  0
 29 44  1  0
M  CHG  3  14  -1  22  -1  26  -1
M  END
>  <UniqueID>  (20) 
20

>  <SMILES>  (20) 
Cc1cccc(-c2ccc(S(=O)(=O)[N-]c3cc4ccc(=O)[n-]c4cc3[O-])cc2)c1

>  <Energy>  (20) 
59.95579024214228

>  <Genealogy>  (20) 
Cc1cccc(-c2ccc(S(=O)(=O)[N-]c3cc4ccc(=O)[n-]c4cc3[O-])cc2)c1 (protonated)
Cc1cccc(-c2ccc(S(=O)(=O)[N-]c3cc4ccc(=O)[n-]c4cc3[O-])cc2)c1 (3D coordinates assigned)
Cc1cccc(-c2ccc(S(=O)(=O)[N-]c3cc4ccc(=O)[n-]c4cc3[O-])cc2)c1 (optimized conformer: 59.95579024214228 kcal/mol)

>  <smiles>  (20) 
Cc1cccc(-c2ccc(S(=O)(=O)Nc3cc4ccc(=O)[nH]c4cc3O)cc2)c1

>  <score_type>  (20) 
oracle

>  <origin>  (20) 
adgpu

>  <m_score__min__energy>  (20) 
-14.56

>  <m_primary>  (20) 
energy

$$$$
20:0
     RDKit          3D

 38 40  0  0  0  0  0  0  0  0999 V2000
   -6.5290   15.0280  -34.1940 C   0  0  0  0  0  0  0  0  0  0  0  0
   -5.1750   14.3380  -34.0140 C   0  0  0  0  0  0  0  0  0  0  0  0
   -4.6840   14.4900  -32.5750 C   0  0  0  0  0  0  0  0  0  0  0  0
   -3.9350   15.0640  -35.1500 S   0  0  0  0  0  0  0  0  0  0  0  0
   -3.9760   16.6940  -34.4090 C   0  0  0  0  0  0  0  0  0  0  0  0
   -4.9180   17.6240  -34.7120 N   0  0  0  0  0  0  0  0  0  0  0  0
   -4.5300   18.6470  -33.9290 C   0  0  0  0  0  0  0  0  0  0  0  0
   -5.1440   19.8900  -33.8210 C   0  0  0  0  0  0  0  0  0  0  0  0
   -4.5730   20.8200  -32.9380 C   0  0  0  0  0  0  0  0  0  0  0  0
   -3.4140   20.4920  -32.1880 C   0  0  0  0  0  0  0  0  0  0  0  0
   -2.8090   21.4740  -31.2520 C   0  0  0  0  0  0  0  0  0  0  0  0
   -3.5910   22.4970  -30.6850 C   0  0  0  0  0  0  0  0  0  0  0  0
   -3.0210   23.4200  -29.8030 C   0  0  0  0  0  0  0  0  0  0  0  0
   -1.6630   23.3340  -29.4710 C   0  0  0  0  0  0  0  0  0  0  0  0
   -0.9410   24.5050  -28.3740 S   0  0  0  0  0  0  0  0  0  0  0  0
   -1.2290   26.1040  -28.9630 N   0  0  0  0  0  0  0  0  0  0  0  0
    0.5390   24.2650  -28.2750 O   0  0  0  0  0  0  0  0  0  0  0  0
   -1.5440   24.3620  -27.0050 O   0  0  0  0  0  0  0  0  0  0  0  0
   -0.8760   22.3230  -30.0390 C   0  0  0  0  0  0  0  0  0  0  0  0
   -1.4440   21.3980  -30.9200 C   0  0  0  0  0  0  0  0  0  0  0  0
   -2.8480   19.2090  -32.3520 C   0  0  0  0  0  0  0  0  0  0  0  0
   -3.4400   18.3500  -33.2180 N   0  0  0  0  0  0  0  0  0  0  0  0
   -3.0650   17.1190  -33.5020 N   0  0  0  0  0  0  0  0  0  0  0  0
   -6.9621   15.2487  -33.2072 H   0  0  0  0  0  0  0  0  0  0  0  0
   -6.3913   15.9659  -34.7521 H   0  0  0  0  0  0  0  0  0  0  0  0
   -7.2069   14.3654  -34.7521 H   0  0  0  0  0  0  0  0  0  0  0  0
   -5.3030   13.2700  -34.2441 H   0  0  0  0  0  0  0  0  0  0  0  0
   -5.4992   14.2377  -31.8809 H   0  0  0  0  0  0  0  0  0  0  0  0
   -3.8341   13.8129  -32.4041 H   0  0  0  0  0  0  0  0  0  0  0  0
   -4.3653   15.5289  -32.4041 H   0  0  0  0  0  0  0  0  0  0  0  0
   -6.0431   20.1352  -34.4054 H   0  0  0  0  0  0  0  0  0  0  0  0
   -5.0294   21.8146  -32.8262 H   0  0  0  0  0  0  0  0  0  0  0  0
   -4.6590   22.5712  -30.9376 H   0  0  0  0  0  0  0  0  0  0  0  0
   -3.6417   24.2171  -29.3679 H   0  0  0  0  0  0  0  0  0  0  0  0
   -1.2190   26.0500  -30.0080 H   0  0  0  0  0  0  0  0  0  0  0  0
    0.1935   22.2570  -29.7905 H   0  0  0  0  0  0  0  0  0  0  0  0
   -0.8191   20.6050  -31.3568 H   0  0  0  0  0  0  0  0  0  0  0  0
   -1.9490   18.9136  -31.7911 H   0  0  0  0  0  0  0  0  0  0  0  0
  1  2  1  0
  2  3  1  0
  2  4  1  0
  4  5  1  0
  5  6  1  0
  6  7  2  0
  7  8  1  0
  8  9  2  0
  9 10  1  0
 10 11  1  0
 11 12  2  0
 12 13  1  0
 13 14  2  0
 14 15  1  0
 15 16  1  0
 15 17  2  0
 15 18  2  0
 14 19  1  0
 19 20  2  0
 10 21  2  0
 21 22  1  0
 22 23  1  0
 23  5  2  0
 22  7  1  0
 20 11  1  0
  1 24  1  0
  1 25  1  0
  1 26  1  0
  2 27  1  0
  3 28  1  0
  3 29  1  0
  3 30  1  0
  8 31  1  0
  9 32  1  0
 12 33  1  0
 13 34  1  0
 16 35  1  0
 19 36  1  0
 20 37  1  0
 21 38  1  0
M  CHG  1  16  -1
M  END
>  <UniqueID>  (21) 
21

>  <SMILES>  (21) 
CC(C)Sc1nc2ccc(-c3ccc(S([NH-])(=O)=O)cc3)cn2n1

>  <Energy>  (21) 
75.31611417349424

>  <Genealogy>  (21) 
CC(C)Sc1nc2ccc(-c3ccc(S([NH-])(=O)=O)cc3)cn2n1 (protonated)
CC(C)Sc1nc2ccc(-c3ccc(S([NH-])(=O)=O)cc3)cn2n1 (3D coordinates assigned)
CC(C)Sc1nc2ccc(-c3ccc(S([NH-])(=O)=O)cc3)cn2n1 (optimized conformer: 75.31611417349424 kcal/mol)

>  <smiles>  (21) 
CC(C)Sc1nc2ccc(-c3ccc(S(N)(=O)=O)cc3)cn2n1

>  <score_type>  (21) 
oracle

>  <origin>  (21) 
adgpu

>  <m_score__min__energy>  (21) 
-9.8399999999999999

>  <m_primary>  (21) 
energy

$$$$
21:0
     RDKit          3D

 51 54  0  0  0  0  0  0  0  0999 V2000
    4.3830   19.9630  -34.5060 C   0  0  0  0  0  0  0  0  0  0  0  0
    3.3160   20.8350  -34.8660 O   0  0  0  0  0  0  0  0  0  0  0  0
    1.9740   20.6330  -34.5110 C   0  0  0  0  0  0  0  0  0  0  0  0
    1.6610   19.5500  -33.6820 C   0  0  0  0  0  0  0  0  0  0  0  0
    0.3400   19.3050  -33.3010 C   0  0  0  0  0  0  0  0  0  0  0  0
   -0.6930   20.1530  -33.7330 C   0  0  0  0  0  0  0  0  0  0  0  0
   -2.0980   19.8920  -33.3480 C   0  0  0  0  0  0  0  0  0  0  0  0
   -2.9520   19.0400  -34.0190 C   0  0  0  0  0  0  0  0  0  0  0  0
   -4.0960   19.0170  -33.2410 C   0  0  0  0  0  0  0  0  0  0  0  0
   -5.3340   18.2670  -33.5210 C   0  0  0  0  0  0  0  0  0  0  0  0
   -5.3530   17.0230  -33.3260 O   0  0  0  0  0  0  0  0  0  0  0  0
   -6.5370   18.9190  -33.9480 N   0  0  0  0  0  0  0  0  0  0  0  0
   -7.4010   19.7160  -33.1250 C   0  0  0  0  0  0  0  0  0  0  0  0
   -8.6510   19.2330  -32.6940 C   0  0  0  0  0  0  0  0  0  0  0  0
   -9.4710   20.0250  -31.8870 C   0  0  0  0  0  0  0  0  0  0  0  0
   -9.0460   21.2940  -31.4880 C   0  0  0  0  0  0  0  0  0  0  0  0
   -7.7950   21.7700  -31.8890 C   0  0  0  0  0  0  0  0  0  0  0  0
   -6.9670   20.9830  -32.7020 C   0  0  0  0  0  0  0  0  0  0  0  0
   -5.7170   21.4550  -33.1000 O   0  0  0  0  0  0  0  0  0  0  0  0
   -3.9440   19.8330  -32.1790 N   0  0  0  0  0  0  0  0  0  0  0  0
   -2.7310   20.3610  -32.2460 N   0  0  0  0  0  0  0  0  0  0  0  0
   -2.2620   21.3420  -31.3060 C   0  0  0  0  0  0  0  0  0  0  0  0
   -3.0830   22.4250  -30.9580 C   0  0  0  0  0  0  0  0  0  0  0  0
   -2.6320   23.3910  -30.0540 C   0  0  0  0  0  0  0  0  0  0  0  0
   -1.3480   23.2970  -29.5020 C   0  0  0  0  0  0  0  0  0  0  0  0
   -0.7910   24.5280  -28.3740 S   0  0  0  0  0  0  0  0  0  0  0  0
   -1.2430   26.0910  -28.9550 N   0  0  0  0  0  0  0  0  0  0  0  0
    0.7050   24.4720  -28.2360 O   0  0  0  0  0  0  0  0  0  0  0  0
   -1.4130   24.2890  -27.0280 O   0  0  0  0  0  0  0  0  0  0  0  0
   -0.5150   22.2310  -29.8680 C   0  0  0  0  0  0  0  0  0  0  0  0
   -0.9680   21.2600  -30.7660 C   0  0  0  0  0  0  0  0  0  0  0  0
   -0.3830   21.2300  -34.5780 C   0  0  0  0  0  0  0  0  0  0  0  0
    0.9390   21.4750  -34.9600 C   0  0  0  0  0  0  0  0  0  0  0  0
    4.4547   19.9044  -33.4099 H   0  0  0  0  0  0  0  0  0  0  0  0
    4.1908   18.9601  -34.9150 H   0  0  0  0  0  0  0  0  0  0  0  0
    5.3275   20.3510  -34.9150 H   0  0  0  0  0  0  0  0  0  0  0  0
    2.4627   18.8856  -33.3272 H   0  0  0  0  0  0  0  0  0  0  0  0
    0.1071   18.4428  -32.6588 H   0  0  0  0  0  0  0  0  0  0  0  0
   -2.7653   18.5011  -34.9596 H   0  0  0  0  0  0  0  0  0  0  0  0
   -8.9832   18.2282  -32.9939 H   0  0  0  0  0  0  0  0  0  0  0  0
  -10.4532   19.6485  -31.5652 H   0  0  0  0  0  0  0  0  0  0  0  0
   -9.6961   21.9189  -30.8580 H   0  0  0  0  0  0  0  0  0  0  0  0
   -7.4584   22.7661  -31.5656 H   0  0  0  0  0  0  0  0  0  0  0  0
   -5.1070   20.9070  -33.6950 H   0  0  0  0  0  0  0  0  0  0  0  0
   -4.0868   22.5144  -31.3988 H   0  0  0  0  0  0  0  0  0  0  0  0
   -3.2882   24.2286  -29.7749 H   0  0  0  0  0  0  0  0  0  0  0  0
   -1.2050   26.0500  -29.9990 H   0  0  0  0  0  0  0  0  0  0  0  0
    0.4987   22.1581  -29.4472 H   0  0  0  0  0  0  0  0  0  0  0  0
   -0.3077   20.4277  -31.0511 H   0  0  0  0  0  0  0  0  0  0  0  0
   -1.1869   21.8865  -34.9425 H   0  0  0  0  0  0  0  0  0  0  0  0
    1.1715   22.3286  -35.6137 H   0  0  0  0  0  0  0  0  0  0  0  0
  1  2  1  0
  2  3  1  0
  3  4  2  0
  4  5  1  0
  5  6  2  0
  6  7  1  0
  7  8  2  0
  8  9  1  0
  9 10  1  0
 10 11  2  0
 10 12  1  0
 12 13  1  0
 13 14  2  0
 14 15  1  0
 15 16  2  0
 16 17  1  0
 17 18  2  0
 18 19  1  0
  9 20  2  0
 20 21  1  0
 21 22  1  0
 22 23  2  0
 23 24  1  0
 24 25  2  0
 25 26  1  0
 26 27  1  0
 26 28  2  0
 26 29  2  0
 25 30  1  0
 30 31  2  0
  6 32  1  0
 32 33  2  0
 33  3  1  0
 21  7  1  0
 31 22  1  0
 18 13  1  0
  1 34  1  0
  1 35  1  0
  1 36  1  0
  4 37  1  0
  5 38  1  0
  8 39  1  0
 14 40  1  0
 15 41  1  0
 16 42  1  0
 17 43  1  0
 19 44  1  0
 23 45  1  0
 24 46  1  0
 27 47  1  0
 30 48  1  0
 31 49  1  0
 32 50  1  0
 33 51  1  0
M  CHG  2  12  -1  27  -1
M  END
>  <UniqueID>  (22) 
22

>  <SMILES>  (22) 
COc1ccc(-c2cc(C(=O)[N-]c3ccccc3O)nn2-c2ccc(S([NH-])(=O)=O)cc2)cc1

>  <Energy>  (22) 
98.42010214471017

>  <Genealogy>  (22) 
COc1ccc(-c2cc(C(=O)[N-]c3ccccc3O)nn2-c2ccc(S([NH-])(=O)=O)cc2)cc1 (protonated)
COc1ccc(-c2cc(C(=O)[N-]c3ccccc3O)nn2-c2ccc(S([NH-])(=O)=O)cc2)cc1 (3D coordinates assigned)
COc1ccc(-c2cc(C(=O)[N-]c3ccccc3O)nn2-c2ccc(S([NH-])(=O)=O)cc2)cc1 (optimized conformer: 98.42010214471017 kcal/mol)

>  <smiles>  (22) 
COc1ccc(-c2cc(C(=O)Nc3ccccc3O)nn2-c2ccc(S(N)(=O)=O)cc2)cc1

>  <score_type>  (22) 
oracle

>  <origin>  (22) 
adgpu

>  <m_score__min__energy>  (22) 
-10.800000000000001

>  <m_primary>  (22) 
energy

$$$$
22:0
     RDKit          3D

 50 53  0  0  0  0  0  0  0  0999 V2000
   -6.8210   15.7840  -34.1910 C   0  0  0  0  0  0  0  0  0  0  0  0
   -6.3350   17.0380  -33.5070 C   0  0  0  0  0  0  0  0  0  0  0  0
   -6.9440   17.4340  -32.3050 C   0  0  0  0  0  0  0  0  0  0  0  0
   -6.5070   18.5720  -31.6300 C   0  0  0  0  0  0  0  0  0  0  0  0
   -5.4600   19.3330  -32.1440 C   0  0  0  0  0  0  0  0  0  0  0  0
   -4.8520   18.9820  -33.3620 C   0  0  0  0  0  0  0  0  0  0  0  0
   -3.7430   19.7440  -33.8720 N   0  0  0  0  0  0  0  0  0  0  0  0
   -2.3860   19.6930  -33.4180 C   0  0  0  0  0  0  0  0  0  0  0  0
   -1.4990   19.2840  -34.2130 O   0  0  0  0  0  0  0  0  0  0  0  0
   -1.9850   20.2090  -32.0930 C   0  0  0  0  0  0  0  0  0  0  0  0
   -2.5390   21.3380  -31.4810 C   0  0  0  0  0  0  0  0  0  0  0  0
   -1.9560   21.3940  -30.2360 C   0  0  0  0  0  0  0  0  0  0  0  0
   -2.1490   22.2640  -29.1600 C   0  0  0  0  0  0  0  0  0  0  0  0
   -3.1370   23.3030  -29.2630 N   0  0  0  0  0  0  0  0  0  0  0  0
   -2.9520   24.6600  -29.6810 C   0  0  0  0  0  0  0  0  0  0  0  0
   -1.9290   25.2800  -29.2740 O   0  0  0  0  0  0  0  0  0  0  0  0
   -3.8970   25.3030  -30.5410 N   0  0  0  0  0  0  0  0  0  0  0  0
   -5.3420   25.3100  -30.3360 C   0  0  0  0  0  0  0  0  0  0  0  0
   -6.0070   24.1130  -30.9730 C   0  0  0  0  0  0  0  0  0  0  0  0
   -7.2950   23.7180  -30.5820 C   0  0  0  0  0  0  0  0  0  0  0  0
   -7.9150   22.6340  -31.2070 C   0  0  0  0  0  0  0  0  0  0  0  0
   -7.2370   21.9490  -32.2140 C   0  0  0  0  0  0  0  0  0  0  0  0
   -5.9880   22.3380  -32.5800 N   0  0  0  0  0  0  0  0  0  0  0  0
   -5.3610   23.3920  -31.9890 C   0  0  0  0  0  0  0  0  0  0  0  0
   -1.4200   21.9900  -27.9790 C   0  0  0  0  0  0  0  0  0  0  0  0
   -0.5310   20.8910  -27.9380 C   0  0  0  0  0  0  0  0  0  0  0  0
   -0.3880   20.0700  -29.0240 N   0  0  0  0  0  0  0  0  0  0  0  0
   -1.0920   20.3360  -30.1470 C   0  0  0  0  0  0  0  0  0  0  0  0
   -1.1070   19.5940  -31.2640 N   0  0  0  0  0  0  0  0  0  0  0  0
   -5.2910   17.8290  -34.0570 C   0  0  0  0  0  0  0  0  0  0  0  0
   -4.6380   17.4250  -35.3610 C   0  0  0  0  0  0  0  0  0  0  0  0
   -7.1090   15.0409  -33.4328 H   0  0  0  0  0  0  0  0  0  0  0  0
   -7.6916   16.0230  -34.8194 H   0  0  0  0  0  0  0  0  0  0  0  0
   -6.0167   15.3739  -34.8194 H   0  0  0  0  0  0  0  0  0  0  0  0
   -7.7733   16.8405  -31.8928 H   0  0  0  0  0  0  0  0  0  0  0  0
   -6.9906   18.8703  -30.6881 H   0  0  0  0  0  0  0  0  0  0  0  0
   -5.1057   20.2162  -31.5923 H   0  0  0  0  0  0  0  0  0  0  0  0
   -3.2808   22.0315  -31.9038 H   0  0  0  0  0  0  0  0  0  0  0  0
   -5.5480   25.2981  -29.2555 H   0  0  0  0  0  0  0  0  0  0  0  0
   -5.7488   26.2169  -30.8073 H   0  0  0  0  0  0  0  0  0  0  0  0
   -7.8174   24.2629  -29.7819 H   0  0  0  0  0  0  0  0  0  0  0  0
   -8.9272   22.3241  -30.9080 H   0  0  0  0  0  0  0  0  0  0  0  0
   -7.7139   21.0924  -32.7129 H   0  0  0  0  0  0  0  0  0  0  0  0
   -4.3480   23.6785  -32.3079 H   0  0  0  0  0  0  0  0  0  0  0  0
   -1.5445   22.6310  -27.0938 H   0  0  0  0  0  0  0  0  0  0  0  0
    0.0507   20.6941  -27.0254 H   0  0  0  0  0  0  0  0  0  0  0  0
   -0.5690   18.7110  -31.4270 H   0  0  0  0  0  0  0  0  0  0  0  0
   -3.7198   16.8569  -35.1507 H   0  0  0  0  0  0  0  0  0  0  0  0
   -5.3323   16.7984  -35.9401 H   0  0  0  0  0  0  0  0  0  0  0  0
   -4.3872   18.3260  -35.9401 H   0  0  0  0  0  0  0  0  0  0  0  0
  1  2  1  0
  2  3  2  0
  3  4  1  0
  4  5  2  0
  5  6  1  0
  6  7  1  0
  7  8  1  0
  8  9  2  0
  8 10  1  0
 10 11  2  0
 11 12  1  0
 12 13  2  0
 13 14  1  0
 14 15  1  0
 15 16  2  0
 15 17  1  0
 17 18  1  0
 18 19  1  0
 19 20  2  0
 20 21  1  0
 21 22  2  0
 22 23  1  0
 23 24  2  0
 13 25  1  0
 25 26  2  0
 26 27  1  0
 27 28  2  0
 28 29  1  0
  6 30  2  0
 30 31  1  0
 30  2  1  0
 29 10  1  0
 28 12  1  0
 24 19  1  0
  1 32  1  0
  1 33  1  0
  1 34  1  0
  3 35  1  0
  4 36  1  0
  5 37  1  0
 11 38  1  0
 18 39  1  0
 18 40  1  0
 20 41  1  0
 21 42  1  0
 22 43  1  0
 24 44  1  0
 25 45  1  0
 26 46  1  0
 29 47  1  0
 31 48  1  0
 31 49  1  0
 31 50  1  0
M  CHG  3   7  -1  14  -1  17  -1
M  END
>  <UniqueID>  (23) 
23

>  <SMILES>  (23) 
Cc1cccc([N-]C(=O)c2cc3c([N-]C(=O)[N-]Cc4cccnc4)ccnc3[nH]2)c1C

>  <Energy>  (23) 
101.24959223688303

>  <Genealogy>  (23) 
Cc1cccc([N-]C(=O)c2cc3c([N-]C(=O)[N-]Cc4cccnc4)ccnc3[nH]2)c1C (protonated)
Cc1cccc([N-]C(=O)c2cc3c([N-]C(=O)[N-]Cc4cccnc4)ccnc3[nH]2)c1C (3D coordinates assigned)
Cc1cccc([N-]C(=O)c2cc3c([N-]C(=O)[N-]Cc4cccnc4)ccnc3[nH]2)c1C (optimized conformer: 101.24959223688303 kcal/mol)

>  <smiles>  (23) 
Cc1cccc(NC(=O)c2cc3c(NC(=O)NCc4cccnc4)ccnc3[nH]2)c1C

>  <score_type>  (23) 
oracle

>  <origin>  (23) 
adgpu

>  <m_score__min__energy>  (23) 
-11.76

>  <m_primary>  (23) 
energy

$$$$
23:0
     RDKit          3D

 44 46  0  0  0  0  0  0  0  0999 V2000
   -3.0590   21.1670  -29.7900 O   0  0  0  0  0  0  0  0  0  0  0  0
   -2.9360   22.3250  -30.7420 S   0  0  0  0  0  0  0  0  0  0  0  0
   -2.4440   21.8480  -32.0800 O   0  0  0  0  0  0  0  0  0  0  0  0
   -1.8150   23.4910  -30.1160 N   0  0  0  0  0  0  0  0  0  0  0  0
   -1.6210   23.8010  -28.7310 C   0  0  0  0  0  0  0  0  0  0  0  0
   -1.7030   22.8170  -27.7290 C   0  0  0  0  0  0  0  0  0  0  0  0
   -1.4730   23.1540  -26.3930 C   0  0  0  0  0  0  0  0  0  0  0  0
   -1.1720   24.4720  -26.0430 C   0  0  0  0  0  0  0  0  0  0  0  0
   -1.1020   25.4570  -27.0300 C   0  0  0  0  0  0  0  0  0  0  0  0
   -1.3200   25.1250  -28.3690 C   0  0  0  0  0  0  0  0  0  0  0  0
   -1.2320   26.1120  -29.3440 O   0  0  0  0  0  0  0  0  0  0  0  0
   -4.5120   23.0970  -30.9320 C   0  0  0  0  0  0  0  0  0  0  0  0
   -5.6330   22.3070  -31.2170 C   0  0  0  0  0  0  0  0  0  0  0  0
   -6.9090   22.8780  -31.2790 C   0  0  0  0  0  0  0  0  0  0  0  0
   -8.3230   21.8520  -31.5250 S   0  0  0  0  0  0  0  0  0  0  0  0
   -9.4770   22.7090  -31.9690 O   0  0  0  0  0  0  0  0  0  0  0  0
   -8.7020   21.2020  -30.2220 O   0  0  0  0  0  0  0  0  0  0  0  0
   -8.0170   20.6000  -32.7120 N   0  0  0  0  0  0  0  0  0  0  0  0
   -6.6290   20.0870  -32.6280 C   0  0  0  0  0  0  0  0  0  0  0  0
   -6.5270   18.5960  -32.9570 C   0  0  0  0  0  0  0  0  0  0  0  0
   -7.3780   17.7980  -31.9710 C   0  0  0  0  0  0  0  0  0  0  0  0
   -8.8080   18.3590  -31.8370 C   0  0  0  0  0  0  0  0  0  0  0  0
   -9.0870   19.5770  -32.7380 C   0  0  0  0  0  0  0  0  0  0  0  0
   -7.0580   24.2610  -31.1000 C   0  0  0  0  0  0  0  0  0  0  0  0
   -5.9400   25.0610  -30.8580 C   0  0  0  0  0  0  0  0  0  0  0  0
   -4.6680   24.4850  -30.7700 C   0  0  0  0  0  0  0  0  0  0  0  0
   -3.5680   25.3000  -30.5220 O   0  0  0  0  0  0  0  0  0  0  0  0
   -1.9489   21.7792  -27.9983 H   0  0  0  0  0  0  0  0  0  0  0  0
   -1.5291   22.3790  -25.6144 H   0  0  0  0  0  0  0  0  0  0  0  0
   -0.9902   24.7340  -24.9902 H   0  0  0  0  0  0  0  0  0  0  0  0
   -0.8746   26.4968  -26.7524 H   0  0  0  0  0  0  0  0  0  0  0  0
   -5.5092   21.2284  -31.3936 H   0  0  0  0  0  0  0  0  0  0  0  0
   -6.0036   20.6473  -33.3386 H   0  0  0  0  0  0  0  0  0  0  0  0
   -6.2884   20.2213  -31.5907 H   0  0  0  0  0  0  0  0  0  0  0  0
   -6.8901   18.4206  -33.9804 H   0  0  0  0  0  0  0  0  0  0  0  0
   -5.4779   18.2743  -32.8801 H   0  0  0  0  0  0  0  0  0  0  0  0
   -7.4388   16.7565  -32.3198 H   0  0  0  0  0  0  0  0  0  0  0  0
   -6.8981   17.8663  -30.9836 H   0  0  0  0  0  0  0  0  0  0  0  0
   -9.5189   17.5623  -32.1015 H   0  0  0  0  0  0  0  0  0  0  0  0
   -8.9221   18.6982  -30.7968 H   0  0  0  0  0  0  0  0  0  0  0  0
   -9.2026   19.2229  -33.7730 H   0  0  0  0  0  0  0  0  0  0  0  0
   -9.9979   20.0578  -32.3519 H   0  0  0  0  0  0  0  0  0  0  0  0
   -8.0581   24.7163  -31.1504 H   0  0  0  0  0  0  0  0  0  0  0  0
   -6.0594   26.1477  -30.7361 H   0  0  0  0  0  0  0  0  0  0  0  0
  1  2  2  0
  2  3  2  0
  2  4  1  0
  4  5  1  0
  5  6  2  0
  6  7  1  0
  7  8  2  0
  8  9  1  0
  9 10  2  0
 10 11  1  0
  2 12  1  0
 12 13  2  0
 13 14  1  0
 14 15  1  0
 15 16  2  0
 15 17  2  0
 15 18  1  0
 18 19  1  0
 19 20  1  0
 20 21  1  0
 21 22  1  0
 22 23  1  0
 14 24  2  0
 24 25  1  0
 25 26  2  0
 26 27  1  0
 10  5  1  0
 26 12  1  0
 23 18  1  0
  6 28  1  0
  7 29  1  0
  8 30  1  0
  9 31  1  0
 13 32  1  0
 19 33  1  0
 19 34  1  0
 20 35  1  0
 20 36  1  0
 21 37  1  0
 21 38  1  0
 22 39  1  0
 22 40  1  0
 23 41  1  0
 23 42  1  0
 24 43  1  0
 25 44  1  0
M  CHG  3   4  -1  11  -1  27  -1
M  END
>  <UniqueID>  (24) 
24

>  <SMILES>  (24) 
O=S(=O)([N-]c1ccccc1[O-])c1cc(S(=O)(=O)N2CCCCC2)ccc1[O-]

>  <Energy>  (24) 
56.868460993020335

>  <Genealogy>  (24) 
O=S(=O)([N-]c1ccccc1[O-])c1cc(S(=O)(=O)N2CCCCC2)ccc1[O-] (protonated)
O=S(=O)([N-]c1ccccc1[O-])c1cc(S(=O)(=O)N2CCCCC2)ccc1[O-] (3D coordinates assigned)
O=S(=O)([N-]c1ccccc1[O-])c1cc(S(=O)(=O)N2CCCCC2)ccc1[O-] (nonaromatic ring conformer: 56.868460993020335 kcal/mol)

>  <smiles>  (24) 
O=S(=O)(Nc1ccccc1O)c1cc(S(=O)(=O)N2CCCCC2)ccc1O

>  <score_type>  (24) 
oracle

>  <origin>  (24) 
adgpu

>  <m_score__min__energy>  (24) 
-16.690000000000001

>  <m_primary>  (24) 
energy

$$$$
24:0
     RDKit          3D

 46 49  0  0  1  0  0  0  0  0999 V2000
   -9.8630   21.1850  -31.9730 C   0  0  0  0  0  0  0  0  0  0  0  0
   -8.4300   20.8080  -31.9950 C   0  0  0  0  0  0  0  0  0  0  0  0
   -7.7120   21.0480  -30.9870 O   0  0  0  0  0  0  0  0  0  0  0  0
   -7.9250   20.1820  -33.1730 N   0  0  0  0  0  0  0  0  0  0  0  0
   -6.5230   19.8380  -33.1340 C   0  0  0  0  0  0  0  0  0  0  0  0
   -6.0940   18.5360  -33.2990 C   0  0  0  0  0  0  0  0  0  0  0  0
   -4.7360   18.2880  -33.2480 C   0  0  0  0  0  0  0  0  0  0  0  0
   -3.8290   19.3070  -33.0390 C   0  0  0  0  0  0  0  0  0  0  0  0
   -2.0650   19.0370  -32.9650 S   0  0  0  0  0  0  0  0  0  0  0  0
   -1.3290   19.7460  -31.5260 C   0  0  0  0  0  0  0  0  0  0  0  0
   -1.5480   21.0540  -31.2750 N   0  0  0  0  0  0  0  0  0  0  0  0
   -1.0300   21.6830  -30.2030 C   0  0  0  0  0  0  0  0  0  0  0  0
   -1.3260   23.0640  -30.0390 N   0  0  0  0  0  0  0  0  0  0  0  0
   -2.4860   23.5710  -29.9420 C   0  0  0  0  0  0  0  0  0  0  0  0
   -3.6710   22.8670  -29.9790 C   0  0  0  0  0  0  0  0  0  0  0  0
   -4.6610   23.8160  -29.8390 C   0  0  0  0  0  0  0  0  0  0  0  0
   -6.1150   23.5090  -29.8230 C   0  0  0  0  0  0  0  0  0  0  0  0
   -4.0720   25.0400  -29.7240 N   0  0  0  0  0  0  0  0  0  0  0  0
   -2.7430   24.8890  -29.7870 N   0  0  0  0  0  0  0  0  0  0  0  0
   -0.2450   20.9670  -29.3210 C   0  0  0  0  0  0  0  0  0  0  0  0
    0.4010   21.3280  -28.1710 C   0  0  0  0  0  0  0  0  0  0  0  0
    1.0250   20.2030  -27.7190 N   0  0  0  0  0  0  0  0  0  0  0  0
    0.7570   19.1850  -28.5860 C   0  0  0  0  0  0  0  0  0  0  0  0
    1.2760   17.8020  -28.4100 C   0  0  0  0  0  0  0  0  0  0  0  0
   -0.0300   19.6460  -29.5820 N   0  0  0  0  0  0  0  0  0  0  0  0
   -0.5590   19.0570  -30.6540 N   0  0  0  0  0  0  0  0  0  0  0  0
   -4.3050   20.5980  -32.8790 C   0  0  0  0  0  0  0  0  0  0  0  0
   -5.6600   20.8960  -32.9230 C   0  0  0  0  0  0  0  0  0  0  0  0
  -10.2027   21.2744  -30.9306 H   0  0  0  0  0  0  0  0  0  0  0  0
   -9.9965   22.1488  -32.4860 H   0  0  0  0  0  0  0  0  0  0  0  0
  -10.4535   20.4116  -32.4860 H   0  0  0  0  0  0  0  0  0  0  0  0
   -8.5110   19.9780  -34.0120 H   0  0  0  0  0  0  0  0  0  0  0  0
   -6.8126   17.7201  -33.4662 H   0  0  0  0  0  0  0  0  0  0  0  0
   -4.3705   17.2585  -33.3764 H   0  0  0  0  0  0  0  0  0  0  0  0
   -3.7990   21.7807  -30.0953 H   0  0  0  0  0  0  0  0  0  0  0  0
   -6.4628   23.4356  -28.7820 H   0  0  0  0  0  0  0  0  0  0  0  0
   -6.6647   24.3109  -30.3376 H   0  0  0  0  0  0  0  0  0  0  0  0
   -6.2937   22.5533  -30.3376 H   0  0  0  0  0  0  0  0  0  0  0  0
   -4.5980   25.9570  -29.6030 H   0  0  0  0  0  0  0  0  0  0  0  0
   -2.0620   25.6680  -29.7230 H   0  0  0  0  0  0  0  0  0  0  0  0
    0.4145   22.3243  -27.7049 H   0  0  0  0  0  0  0  0  0  0  0  0
    1.3608   17.5760  -27.3368 H   0  0  0  0  0  0  0  0  0  0  0  0
    0.5846   17.0881  -28.8815 H   0  0  0  0  0  0  0  0  0  0  0  0
    2.2664   17.7192  -28.8815 H   0  0  0  0  0  0  0  0  0  0  0  0
   -3.5859   21.4134  -32.7117 H   0  0  0  0  0  0  0  0  0  0  0  0
   -6.0287   21.9246  -32.7960 H   0  0  0  0  0  0  0  0  0  0  0  0
  1  2  1  0
  2  3  2  0
  2  4  1  0
  4  5  1  0
  5  6  2  0
  6  7  1  0
  7  8  2  0
  8  9  1  0
  9 10  1  0
 10 11  1  0
 11 12  2  0
 12 13  1  0
 13 14  2  0
 14 15  1  0
 15 16  2  0
 16 17  1  0
 16 18  1  0
 18 19  1  0
 12 20  1  0
 20 21  2  0
 21 22  1  0
 22 23  2  0
 23 24  1  0
 23 25  1  0
 25 26  1  0
  8 27  1  0
 27 28  2  0
 28  5  1  0
 26 10  2  0
 19 14  1  0
 25 20  1  0
  1 29  1  0
  1 30  1  0
  1 31  1  0
  4 32  1  0
  6 33  1  0
  7 34  1  0
 15 35  1  0
 17 36  1  0
 17 37  1  0
 17 38  1  0
 18 39  1  0
 19 40  1  0
 21 41  1  0
 24 42  1  0
 24 43  1  0
 24 44  1  0
 27 45  1  0
 28 46  1  0
M  END
>  <smiles>  (25) 
CC(=O)Nc1ccc(Sc2nc(N=c3cc(C)[nH][nH]3)c3cnc(C)n3n2)cc1

>  <score_type>  (25) 
oracle

>  <origin>  (25) 
adgpu

>  <m_score__min__energy>  (25) 
-9.6500000000000004

>  <m_primary>  (25) 
energy

$$$$
25:0
     RDKit          3D

 58 61  0  0  0  0  0  0  0  0999 V2000
   -4.1756   15.0309  -36.1793 H   0  0  0  0  0  0  0  0  0  0  0  0
   -3.0950   15.2260  -36.1140 C   0  0  0  0  0  0  0  0  0  0  0  0
   -2.1960   14.3700  -36.7560 C   0  0  0  0  0  0  0  0  0  0  0  0
   -2.5722   13.5030  -37.3188 H   0  0  0  0  0  0  0  0  0  0  0  0
   -0.8190   14.6110  -36.6860 C   0  0  0  0  0  0  0  0  0  0  0  0
    0.2990   13.5240  -37.5050 S   0  0  0  0  0  0  0  0  0  0  0  0
   -0.4390   12.6810  -38.5080 O   0  0  0  0  0  0  0  0  0  0  0  0
    1.3340   14.3470  -38.2200 O   0  0  0  0  0  0  0  0  0  0  0  0
    1.0710   12.4890  -36.3270 N   0  0  0  0  0  0  0  0  0  0  0  0
    2.2420   13.1580  -35.7130 C   0  0  0  0  0  0  0  0  0  0  0  0
    3.0891   12.4562  -35.7089 H   0  0  0  0  0  0  0  0  0  0  0  0
    2.4685   14.0553  -36.3076 H   0  0  0  0  0  0  0  0  0  0  0  0
    1.9630   13.6070  -34.2670 C   0  0  0  0  0  0  0  0  0  0  0  0
    2.8748   14.0704  -33.8621 H   0  0  0  0  0  0  0  0  0  0  0  0
    1.1214   14.3145  -34.2995 H   0  0  0  0  0  0  0  0  0  0  0  0
    1.5840   12.5370  -33.4160 O   0  0  0  0  0  0  0  0  0  0  0  0
    0.7810   11.5510  -34.0540 C   0  0  0  0  0  0  0  0  0  0  0  0
    1.4256   10.6991  -34.3162 H   0  0  0  0  0  0  0  0  0  0  0  0
   -0.0136   11.2839  -33.3417 H   0  0  0  0  0  0  0  0  0  0  0  0
    0.0790   12.0350  -35.3340 C   0  0  0  0  0  0  0  0  0  0  0  0
   -0.5074   11.2077  -35.7602 H   0  0  0  0  0  0  0  0  0  0  0  0
   -0.5819   12.8770  -35.0807 H   0  0  0  0  0  0  0  0  0  0  0  0
   -0.3470   15.7180  -35.9700 C   0  0  0  0  0  0  0  0  0  0  0  0
    0.7341   15.9130  -35.9128 H   0  0  0  0  0  0  0  0  0  0  0  0
   -1.2450   16.5770  -35.3270 C   0  0  0  0  0  0  0  0  0  0  0  0
   -0.8657   17.4478  -34.7722 H   0  0  0  0  0  0  0  0  0  0  0  0
   -2.6290   16.3350  -35.3850 C   0  0  0  0  0  0  0  0  0  0  0  0
   -3.5910   17.2410  -34.7100 C   0  0  0  0  0  0  0  0  0  0  0  0
   -4.8000   17.2410  -35.0710 O   0  0  0  0  0  0  0  0  0  0  0  0
   -3.1740   18.0780  -33.6170 N   0  0  0  0  0  0  0  0  0  0  0  0
   -2.3640   17.7610  -33.0390 H   0  0  0  0  0  0  0  0  0  0  0  0
   -3.9030   19.2360  -33.1730 C   0  0  0  0  0  0  0  0  0  0  0  0
   -5.0360   19.0680  -32.3630 C   0  0  0  0  0  0  0  0  0  0  0  0
   -5.3658   18.0551  -32.0886 H   0  0  0  0  0  0  0  0  0  0  0  0
   -5.7490   20.1790  -31.9020 C   0  0  0  0  0  0  0  0  0  0  0  0
   -6.6423   20.0358  -31.2763 H   0  0  0  0  0  0  0  0  0  0  0  0
   -5.3300   21.4730  -32.2340 C   0  0  0  0  0  0  0  0  0  0  0  0
   -6.2340   22.8660  -31.6450 S   0  0  0  0  0  0  0  0  0  0  0  0
   -7.1480   23.3210  -32.7470 O   0  0  0  0  0  0  0  0  0  0  0  0
   -7.0750   22.5010  -30.4540 O   0  0  0  0  0  0  0  0  0  0  0  0
   -5.1750   24.1810  -31.2440 N   0  0  0  0  0  0  0  0  0  0  0  0
   -4.1340   24.2060  -30.4610 C   0  0  0  0  0  0  0  0  0  0  0  0
   -3.4290   25.3010  -30.2980 O   0  0  0  0  0  0  0  0  0  0  0  0
   -2.4420   25.1130  -29.4730 N   0  0  0  0  0  0  0  0  0  0  0  0
   -2.4990   23.8290  -29.0730 C   0  0  0  0  0  0  0  0  0  0  0  0
   -1.5450   23.2310  -28.0900 C   0  0  0  0  0  0  0  0  0  0  0  0
   -1.8889   23.4466  -27.0676 H   0  0  0  0  0  0  0  0  0  0  0  0
   -1.4990   22.1422  -28.2395 H   0  0  0  0  0  0  0  0  0  0  0  0
   -0.5450   23.6642  -28.2395 H   0  0  0  0  0  0  0  0  0  0  0  0
   -3.5690   23.1910  -29.6860 C   0  0  0  0  0  0  0  0  0  0  0  0
   -4.0160   21.7840  -29.4170 C   0  0  0  0  0  0  0  0  0  0  0  0
   -4.0689   21.6174  -28.3310 H   0  0  0  0  0  0  0  0  0  0  0  0
   -5.0094   21.6236  -29.8614 H   0  0  0  0  0  0  0  0  0  0  0  0
   -3.2974   21.0797  -29.8614 H   0  0  0  0  0  0  0  0  0  0  0  0
   -4.1910   21.6480  -33.0310 C   0  0  0  0  0  0  0  0  0  0  0  0
   -3.8583   22.6623  -33.2964 H   0  0  0  0  0  0  0  0  0  0  0  0
   -3.4760   20.5380  -33.4900 C   0  0  0  0  0  0  0  0  0  0  0  0
   -2.5741   20.6837  -34.1027 H   0  0  0  0  0  0  0  0  0  0  0  0
  1  2  1  0
  2  3  2  0
  3  4  1  0
  3  5  1  0
  5  6  1  0
  6  7  2  0
  6  8  2  0
  6  9  1  0
  9 10  1  0
 10 11  1  0
 10 12  1  0
 10 13  1  0
 13 14  1  0
 13 15  1  0
 13 16  1  0
 16 17  1  0
 17 18  1  0
 17 19  1  0
 17 20  1  0
 20 21  1  0
 20 22  1  0
  5 23  2  0
 23 24  1  0
 23 25  1  0
 25 26  1  0
 25 27  2  0
 27 28  1  0
 28 29  2  0
 28 30  1  0
 30 31  1  0
 30 32  1  0
 32 33  2  0
 33 34  1  0
 33 35  1  0
 35 36  1  0
 35 37  2  0
 37 38  1  0
 38 39  2  0
 38 40  2  0
 38 41  1  0
 41 42  2  0
 42 43  1  0
 43 44  1  0
 44 45  1  0
 45 46  1  0
 46 47  1  0
 46 48  1  0
 46 49  1  0
 45 50  2  0
 50 51  1  0
 51 52  1  0
 51 53  1  0
 51 54  1  0
 37 55  1  0
 55 56  1  0
 55 57  2  0
 57 58  1  0
 27  2  1  0
 57 32  1  0
 20  9  1  0
 50 42  1  0
M  CHG  1  44  -1
M  END
>  <UniqueID>  (26) 
25

>  <SMILES>  (26) 
Cc1[n-]o/c(=N/S(=O)(=O)c2ccc(NC(=O)c3ccc(S(=O)(=O)N4CCOCC4)cc3)cc2)c1C

>  <Energy>  (26) 
118.347191061089

>  <Genealogy>  (26) 
Cc1[n-]oc(=NS(=O)(=O)c2ccc(NC(=O)c3ccc(S(=O)(=O)N4CCOCC4)cc3)cc2)c1C (protonated)
Cc1[n-]o/c(=N/S(=O)(=O)c2ccc(NC(=O)c3ccc(S(=O)(=O)N4CCOCC4)cc3)cc2)c1C (cis-trans isomerization)
Cc1[n-]o/c(=N/S(=O)(=O)c2ccc(NC(=O)c3ccc(S(=O)(=O)N4CCOCC4)cc3)cc2)c1C (3D coordinates assigned)
Cc1[n-]o/c(=N/S(=O)(=O)c2ccc(NC(=O)c3ccc(S(=O)(=O)N4CCOCC4)cc3)cc2)c1C (nonaromatic ring conformer: 118.347191061089 kcal/mol)

>  <smiles>  (26) 
Cc1[nH]oc(=NS(=O)(=O)c2ccc(NC(=O)c3ccc(S(=O)(=O)N4CCOCC4)cc3)cc2)c1C

>  <score_type>  (26) 
oracle

>  <origin>  (26) 
adgpu

>  <m_score__min__energy>  (26) 
-9.7100000000000009

>  <m_primary>  (26) 
energy

$$$$
26:0
     RDKit          3D

 64 67  0  0  0  0  0  0  0  0999 V2000
   -0.0790   23.1860  -25.3270 C   0  0  0  0  0  0  0  0  0  0  0  0
   -0.5640   23.1690  -26.7530 C   0  0  0  0  0  0  0  0  0  0  0  0
   -0.5640   21.9370  -27.4260 C   0  0  0  0  0  0  0  0  0  0  0  0
   -1.0470   21.8300  -28.7260 C   0  0  0  0  0  0  0  0  0  0  0  0
   -1.5580   22.9520  -29.3870 C   0  0  0  0  0  0  0  0  0  0  0  0
   -2.1020   22.8360  -30.7140 N   0  0  0  0  0  0  0  0  0  0  0  0
   -1.6690   21.8570  -31.6670 C   0  0  0  0  0  0  0  0  0  0  0  0
   -0.5960   21.2210  -31.4810 O   0  0  0  0  0  0  0  0  0  0  0  0
   -2.4240   21.6730  -32.8710 N   0  0  0  0  0  0  0  0  0  0  0  0
   -3.1960   20.5130  -33.2200 C   0  0  0  0  0  0  0  0  0  0  0  0
   -2.6320   19.5650  -34.0810 C   0  0  0  0  0  0  0  0  0  0  0  0
   -3.3520   18.4230  -34.4440 C   0  0  0  0  0  0  0  0  0  0  0  0
   -4.6470   18.2280  -33.9600 C   0  0  0  0  0  0  0  0  0  0  0  0
   -5.2380   19.1850  -33.1260 C   0  0  0  0  0  0  0  0  0  0  0  0
   -6.8680   18.9340  -32.5050 S   0  0  0  0  0  0  0  0  0  0  0  0
   -6.7790   18.2950  -31.1460 O   0  0  0  0  0  0  0  0  0  0  0  0
   -7.6200   18.0050  -33.4190 O   0  0  0  0  0  0  0  0  0  0  0  0
   -7.7010   20.4630  -32.3800 N   0  0  0  0  0  0  0  0  0  0  0  0
   -9.1400   20.2340  -32.1250 C   0  0  0  0  0  0  0  0  0  0  0  0
   -9.8670   21.5020  -31.6250 C   0  0  0  0  0  0  0  0  0  0  0  0
   -9.0740   22.7690  -31.9520 C   0  0  0  0  0  0  0  0  0  0  0  0
   -7.6600   22.7080  -31.3460 C   0  0  0  0  0  0  0  0  0  0  0  0
   -7.0960   21.2760  -31.3110 C   0  0  0  0  0  0  0  0  0  0  0  0
   -4.5150   20.3300  -32.7630 C   0  0  0  0  0  0  0  0  0  0  0  0
   -1.5930   24.1880  -28.7220 C   0  0  0  0  0  0  0  0  0  0  0  0
   -2.1390   25.2850  -29.3800 O   0  0  0  0  0  0  0  0  0  0  0  0
   -1.0730   24.3240  -27.4120 C   0  0  0  0  0  0  0  0  0  0  0  0
   -1.0810   25.9450  -26.6510 S   0  0  0  0  0  0  0  0  0  0  0  0
   -0.9450   26.9810  -27.7340 O   0  0  0  0  0  0  0  0  0  0  0  0
   -2.3950   26.2090  -25.9730 O   0  0  0  0  0  0  0  0  0  0  0  0
    0.2070   26.1810  -25.4820 N   0  0  0  0  0  0  0  0  0  0  0  0
   -0.1960   25.8960  -24.0900 C   0  0  0  0  0  0  0  0  0  0  0  0
   -0.5710   27.1660  -23.3050 C   0  0  0  0  0  0  0  0  0  0  0  0
   -0.9750   28.1960  -24.1760 O   0  0  0  0  0  0  0  0  0  0  0  0
    0.1270   28.6350  -24.9460 C   0  0  0  0  0  0  0  0  0  0  0  0
    0.8930   27.4750  -25.6240 C   0  0  0  0  0  0  0  0  0  0  0  0
   -0.9421   23.1557  -24.6458 H   0  0  0  0  0  0  0  0  0  0  0  0
    0.5611   22.3097  -25.1469 H   0  0  0  0  0  0  0  0  0  0  0  0
    0.4982   24.1049  -25.1469 H   0  0  0  0  0  0  0  0  0  0  0  0
   -0.1759   21.0422  -26.9173 H   0  0  0  0  0  0  0  0  0  0  0  0
   -1.0270   20.8565  -29.2378 H   0  0  0  0  0  0  0  0  0  0  0  0
   -2.8110   23.5360  -31.0290 H   0  0  0  0  0  0  0  0  0  0  0  0
   -1.6164   19.7192  -34.4744 H   0  0  0  0  0  0  0  0  0  0  0  0
   -2.8974   17.6767  -35.1122 H   0  0  0  0  0  0  0  0  0  0  0  0
   -5.2044   17.3203  -34.2345 H   0  0  0  0  0  0  0  0  0  0  0  0
   -9.6145   19.9022  -33.0603 H   0  0  0  0  0  0  0  0  0  0  0  0
   -9.2200   19.4725  -31.3353 H   0  0  0  0  0  0  0  0  0  0  0  0
  -10.8531   21.5628  -32.1087 H   0  0  0  0  0  0  0  0  0  0  0  0
   -9.9704   21.4321  -30.5321 H   0  0  0  0  0  0  0  0  0  0  0  0
   -8.9929   22.8705  -33.0443 H   0  0  0  0  0  0  0  0  0  0  0  0
   -9.6020   23.6330  -31.5222 H   0  0  0  0  0  0  0  0  0  0  0  0
   -6.9896   23.3367  -31.9503 H   0  0  0  0  0  0  0  0  0  0  0  0
   -7.7247   23.0677  -30.3085 H   0  0  0  0  0  0  0  0  0  0  0  0
   -6.0060   21.3115  -31.4546 H   0  0  0  0  0  0  0  0  0  0  0  0
   -7.3328   20.8214  -30.3377 H   0  0  0  0  0  0  0  0  0  0  0  0
   -4.9807   21.0894  -32.1177 H   0  0  0  0  0  0  0  0  0  0  0  0
   -1.0664   25.2236  -24.1069 H   0  0  0  0  0  0  0  0  0  0  0  0
    0.6655   25.4362  -23.5836 H   0  0  0  0  0  0  0  0  0  0  0  0
   -1.3964   26.9327  -22.6163 H   0  0  0  0  0  0  0  0  0  0  0  0
    0.3128   27.5063  -22.7455 H   0  0  0  0  0  0  0  0  0  0  0  0
   -0.2410   29.3159  -25.7277 H   0  0  0  0  0  0  0  0  0  0  0  0
    0.8276   29.1351  -24.2612 H   0  0  0  0  0  0  0  0  0  0  0  0
    0.9983   27.7016  -26.6952 H   0  0  0  0  0  0  0  0  0  0  0  0
    1.8710   27.3884  -25.1281 H   0  0  0  0  0  0  0  0  0  0  0  0
  1  2  1  0
  2  3  2  0
  3  4  1  0
  4  5  2  0
  5  6  1  0
  6  7  1  0
  7  8  2  0
  7  9  1  0
  9 10  1  0
 10 11  2  0
 11 12  1  0
 12 13  2  0
 13 14  1  0
 14 15  1  0
 15 16  2  0
 15 17  2  0
 15 18  1  0
 18 19  1  0
 19 20  1  0
 20 21  1  0
 21 22  1  0
 22 23  1  0
 14 24  2  0
  5 25  1  0
 25 26  1  0
 25 27  2  0
 27 28  1  0
 28 29  2  0
 28 30  2  0
 28 31  1  0
 31 32  1  0
 32 33  1  0
 33 34  1  0
 34 35  1  0
 35 36  1  0
 27  2  1  0
 36 31  1  0
 24 10  1  0
 23 18  1  0
  1 37  1  0
  1 38  1  0
  1 39  1  0
  3 40  1  0
  4 41  1  0
  6 42  1  0
 11 43  1  0
 12 44  1  0
 13 45  1  0
 19 46  1  0
 19 47  1  0
 20 48  1  0
 20 49  1  0
 21 50  1  0
 21 51  1  0
 22 52  1  0
 22 53  1  0
 23 54  1  0
 23 55  1  0
 24 56  1  0
 32 57  1  0
 32 58  1  0
 33 59  1  0
 33 60  1  0
 35 61  1  0
 35 62  1  0
 36 63  1  0
 36 64  1  0
M  CHG  2   9  -1  26  -1
M  END
>  <UniqueID>  (27) 
26

>  <SMILES>  (27) 
Cc1ccc(NC(=O)[N-]c2cccc(S(=O)(=O)N3CCCCC3)c2)c([O-])c1S(=O)(=O)N1CCOCC1

>  <Energy>  (27) 
91.5293564030764

>  <Genealogy>  (27) 
Cc1ccc(NC(=O)[N-]c2cccc(S(=O)(=O)N3CCCCC3)c2)c([O-])c1S(=O)(=O)N1CCOCC1 (protonated)
Cc1ccc(NC(=O)[N-]c2cccc(S(=O)(=O)N3CCCCC3)c2)c([O-])c1S(=O)(=O)N1CCOCC1 (3D coordinates assigned)
Cc1ccc(NC(=O)[N-]c2cccc(S(=O)(=O)N3CCCCC3)c2)c([O-])c1S(=O)(=O)N1CCOCC1 (nonaromatic ring conformer: 91.5293564030764 kcal/mol)

>  <smiles>  (27) 
Cc1ccc(NC(=O)Nc2cccc(S(=O)(=O)N3CCCCC3)c2)c(O)c1S(=O)(=O)N1CCOCC1

>  <score_type>  (27) 
oracle

>  <origin>  (27) 
adgpu

>  <m_score__min__energy>  (27) 
-15.289999999999999

>  <m_primary>  (27) 
energy

$$$$
27:0
     RDKit          3D

 53 56  0  0  0  0  0  0  0  0999 V2000
   -6.9620   15.6620  -34.0860 C   0  0  0  0  0  0  0  0  0  0  0  0
   -6.3390   16.9590  -33.6640 C   0  0  0  0  0  0  0  0  0  0  0  0
   -5.7320   17.7940  -34.6160 C   0  0  0  0  0  0  0  0  0  0  0  0
   -5.1180   18.9850  -34.2190 C   0  0  0  0  0  0  0  0  0  0  0  0
   -5.0890   19.3430  -32.8660 C   0  0  0  0  0  0  0  0  0  0  0  0
   -4.2960   20.8680  -32.3590 S   0  0  0  0  0  0  0  0  0  0  0  0
   -5.8520   21.6520  -31.9120 C   0  0  0  0  0  0  0  0  0  0  0  0
   -6.9970   21.1370  -32.4390 N   0  0  0  0  0  0  0  0  0  0  0  0
   -8.2240   21.6220  -32.1170 C   0  0  0  0  0  0  0  0  0  0  0  0
   -8.3430   22.6700  -31.2070 C   0  0  0  0  0  0  0  0  0  0  0  0
   -7.1920   23.2200  -30.6450 C   0  0  0  0  0  0  0  0  0  0  0  0
   -5.9260   22.7330  -31.0030 C   0  0  0  0  0  0  0  0  0  0  0  0
   -4.7290   23.3360  -30.3830 C   0  0  0  0  0  0  0  0  0  0  0  0
   -4.2910   24.4260  -30.8390 O   0  0  0  0  0  0  0  0  0  0  0  0
   -4.0710   22.6940  -29.2800 N   0  0  0  0  0  0  0  0  0  0  0  0
   -2.9690   23.2750  -28.5680 C   0  0  0  0  0  0  0  0  0  0  0  0
   -1.6250   23.1630  -28.8920 C   0  0  0  0  0  0  0  0  0  0  0  0
   -1.0540   22.3590  -30.0210 C   0  0  0  0  0  0  0  0  0  0  0  0
   -0.9120   23.9570  -28.0550 N   0  0  0  0  0  0  0  0  0  0  0  0
    0.5390   24.1530  -28.0890 C   0  0  0  0  0  0  0  0  0  0  0  0
   -1.7500   24.5460  -27.2030 N   0  0  0  0  0  0  0  0  0  0  0  0
   -1.3810   25.4440  -26.1430 C   0  0  0  0  0  0  0  0  0  0  0  0
   -1.2470   26.8200  -26.3930 C   0  0  0  0  0  0  0  0  0  0  0  0
   -0.8990   27.6940  -25.3590 C   0  0  0  0  0  0  0  0  0  0  0  0
   -0.6860   27.2010  -24.0680 C   0  0  0  0  0  0  0  0  0  0  0  0
   -0.8260   25.8360  -23.8090 C   0  0  0  0  0  0  0  0  0  0  0  0
   -1.1750   24.9590  -24.8410 C   0  0  0  0  0  0  0  0  0  0  0  0
   -3.0060   24.1630  -27.5120 C   0  0  0  0  0  0  0  0  0  0  0  0
   -4.0420   24.5880  -26.9350 O   0  0  0  0  0  0  0  0  0  0  0  0
   -5.6870   18.5110  -31.9120 C   0  0  0  0  0  0  0  0  0  0  0  0
   -6.3010   17.3190  -32.3080 C   0  0  0  0  0  0  0  0  0  0  0  0
   -7.2407   15.0818  -33.1940 H   0  0  0  0  0  0  0  0  0  0  0  0
   -7.8607   15.8653  -34.6868 H   0  0  0  0  0  0  0  0  0  0  0  0
   -6.2416   15.0875  -34.6868 H   0  0  0  0  0  0  0  0  0  0  0  0
   -5.7398   17.5095  -35.6785 H   0  0  0  0  0  0  0  0  0  0  0  0
   -4.6568   19.6422  -34.9709 H   0  0  0  0  0  0  0  0  0  0  0  0
   -9.1245   21.1870  -32.5751 H   0  0  0  0  0  0  0  0  0  0  0  0
   -9.3350   23.0595  -30.9347 H   0  0  0  0  0  0  0  0  0  0  0  0
   -7.2768   24.0402  -29.9170 H   0  0  0  0  0  0  0  0  0  0  0  0
   -4.4570   21.7930  -28.9200 H   0  0  0  0  0  0  0  0  0  0  0  0
   -0.4621   21.5255  -29.6149 H   0  0  0  0  0  0  0  0  0  0  0  0
   -1.8727   21.9607  -30.6383 H   0  0  0  0  0  0  0  0  0  0  0  0
   -0.4082   23.0008  -30.6383 H   0  0  0  0  0  0  0  0  0  0  0  0
    0.9261   24.2053  -27.0607 H   0  0  0  0  0  0  0  0  0  0  0  0
    1.0106   23.3104  -28.6159 H   0  0  0  0  0  0  0  0  0  0  0  0
    0.7701   25.0905  -28.6159 H   0  0  0  0  0  0  0  0  0  0  0  0
   -1.4167   27.2114  -27.4069 H   0  0  0  0  0  0  0  0  0  0  0  0
   -0.7927   28.7700  -25.5611 H   0  0  0  0  0  0  0  0  0  0  0  0
   -0.4080   27.8889  -23.2559 H   0  0  0  0  0  0  0  0  0  0  0  0
   -0.6616   25.4501  -22.7921 H   0  0  0  0  0  0  0  0  0  0  0  0
   -1.2886   23.8850  -24.6322 H   0  0  0  0  0  0  0  0  0  0  0  0
   -5.6738   18.7955  -30.8495 H   0  0  0  0  0  0  0  0  0  0  0  0
   -6.7562   16.6605  -31.5536 H   0  0  0  0  0  0  0  0  0  0  0  0
  1  2  1  0
  2  3  2  0
  3  4  1  0
  4  5  2  0
  5  6  1  0
  6  7  1  0
  7  8  2  0
  8  9  1  0
  9 10  2  0
 10 11  1  0
 11 12  2  0
 12 13  1  0
 13 14  2  0
 13 15  1  0
 15 16  1  0
 16 17  2  0
 17 18  1  0
 17 19  1  0
 19 20  1  0
 19 21  1  0
 21 22  1  0
 22 23  2  0
 23 24  1  0
 24 25  2  0
 25 26  1  0
 26 27  2  0
 21 28  1  0
 28 29  2  0
  5 30  1  0
 30 31  2  0
 31  2  1  0
 12  7  1  0
 28 16  1  0
 27 22  1  0
  1 32  1  0
  1 33  1  0
  1 34  1  0
  3 35  1  0
  4 36  1  0
  9 37  1  0
 10 38  1  0
 11 39  1  0
 15 40  1  0
 18 41  1  0
 18 42  1  0
 18 43  1  0
 20 44  1  0
 20 45  1  0
 20 46  1  0
 23 47  1  0
 24 48  1  0
 25 49  1  0
 26 50  1  0
 27 51  1  0
 30 52  1  0
 31 53  1  0
M  END
>  <UniqueID>  (28) 
27

>  <SMILES>  (28) 
Cc1ccc(Sc2ncccc2C(=O)Nc2c(C)n(C)n(-c3ccccc3)c2=O)cc1

>  <Energy>  (28) 
101.97770932082814

>  <Genealogy>  (28) 
Cc1ccc(Sc2ncccc2C(=O)Nc2c(C)n(C)n(-c3ccccc3)c2=O)cc1 (3D coordinates assigned)
Cc1ccc(Sc2ncccc2C(=O)Nc2c(C)n(C)n(-c3ccccc3)c2=O)cc1 (optimized conformer: 101.97770932082814 kcal/mol)

>  <smiles>  (28) 
Cc1ccc(Sc2ncccc2C(=O)Nc2c(C)n(C)n(-c3ccccc3)c2=O)cc1

>  <score_type>  (28) 
oracle

>  <origin>  (28) 
adgpu

>  <m_score__min__energy>  (28) 
-9.8200000000000003

>  <m_primary>  (28) 
energy

$$$$
28:0
     RDKit          3D

 46 48  0  0  0  0  0  0  0  0999 V2000
   -9.1670   18.6570  -31.9690 C   0  0  0  0  0  0  0  0  0  0  0  0
   -8.5910   20.0450  -31.8980 C   0  0  0  0  0  0  0  0  0  0  0  0
   -9.0480   20.9440  -30.9200 C   0  0  0  0  0  0  0  0  0  0  0  0
   -8.5200   22.2330  -30.8430 C   0  0  0  0  0  0  0  0  0  0  0  0
   -7.5330   22.6380  -31.7400 C   0  0  0  0  0  0  0  0  0  0  0  0
   -7.0690   21.7560  -32.7190 C   0  0  0  0  0  0  0  0  0  0  0  0
   -7.5930   20.4520  -32.8110 C   0  0  0  0  0  0  0  0  0  0  0  0
   -7.1450   19.5320  -33.8190 N   0  0  0  0  0  0  0  0  0  0  0  0
   -5.6400   18.6710  -33.8000 S   0  0  0  0  0  0  0  0  0  0  0  0
   -5.1320   18.5350  -35.2060 O   0  0  0  0  0  0  0  0  0  0  0  0
   -5.8600   17.2980  -33.2290 O   0  0  0  0  0  0  0  0  0  0  0  0
   -4.4550   19.5670  -32.8530 C   0  0  0  0  0  0  0  0  0  0  0  0
   -4.7140   19.8470  -31.5060 C   0  0  0  0  0  0  0  0  0  0  0  0
   -3.7720   20.5380  -30.7370 C   0  0  0  0  0  0  0  0  0  0  0  0
   -2.5520   20.9390  -31.3000 C   0  0  0  0  0  0  0  0  0  0  0  0
   -1.6020   21.6540  -30.4910 N   0  0  0  0  0  0  0  0  0  0  0  0
   -0.8590   21.0610  -29.4170 C   0  0  0  0  0  0  0  0  0  0  0  0
   -1.1210   19.8900  -29.0280 O   0  0  0  0  0  0  0  0  0  0  0  0
    0.1880   21.8180  -28.7950 N   0  0  0  0  0  0  0  0  0  0  0  0
    0.0840   23.1480  -28.2620 C   0  0  0  0  0  0  0  0  0  0  0  0
    0.8370   23.4770  -27.1310 C   0  0  0  0  0  0  0  0  0  0  0  0
    0.7720   24.7610  -26.5820 C   0  0  0  0  0  0  0  0  0  0  0  0
   -0.0400   25.7520  -27.1650 C   0  0  0  0  0  0  0  0  0  0  0  0
   -0.0970   27.1060  -26.5590 C   0  0  0  0  0  0  0  0  0  0  0  0
   -0.8900   27.3460  -25.6090 O   0  0  0  0  0  0  0  0  0  0  0  0
    0.7170   28.1320  -27.0230 O   0  0  0  0  0  0  0  0  0  0  0  0
   -0.7760   25.4270  -28.3270 C   0  0  0  0  0  0  0  0  0  0  0  0
   -1.5750   26.3730  -28.9610 O   0  0  0  0  0  0  0  0  0  0  0  0
   -0.7070   24.1380  -28.8690 C   0  0  0  0  0  0  0  0  0  0  0  0
   -2.3070   20.6810  -32.6610 C   0  0  0  0  0  0  0  0  0  0  0  0
   -3.2520   19.9950  -33.4310 C   0  0  0  0  0  0  0  0  0  0  0  0
   -9.3261   18.2735  -30.9504 H   0  0  0  0  0  0  0  0  0  0  0  0
  -10.1276   18.6856  -32.5043 H   0  0  0  0  0  0  0  0  0  0  0  0
   -8.4685   17.9971  -32.5043 H   0  0  0  0  0  0  0  0  0  0  0  0
   -9.8273   20.6295  -30.2102 H   0  0  0  0  0  0  0  0  0  0  0  0
   -8.8829   22.9304  -30.0737 H   0  0  0  0  0  0  0  0  0  0  0  0
   -7.1183   23.6549  -31.6769 H   0  0  0  0  0  0  0  0  0  0  0  0
   -6.2891   22.0822  -33.4228 H   0  0  0  0  0  0  0  0  0  0  0  0
   -5.6614   19.5225  -31.0509 H   0  0  0  0  0  0  0  0  0  0  0  0
   -3.9896   20.7684  -29.6836 H   0  0  0  0  0  0  0  0  0  0  0  0
   -1.5180   22.6860  -30.6230 H   0  0  0  0  0  0  0  0  0  0  0  0
    1.4864   22.7188  -26.6690 H   0  0  0  0  0  0  0  0  0  0  0  0
    1.3618   24.9995  -25.6847 H   0  0  0  0  0  0  0  0  0  0  0  0
   -1.2773   23.8981  -29.7785 H   0  0  0  0  0  0  0  0  0  0  0  0
   -1.3677   21.0204  -33.1219 H   0  0  0  0  0  0  0  0  0  0  0  0
   -3.0505   19.7909  -34.4929 H   0  0  0  0  0  0  0  0  0  0  0  0
  1  2  1  0
  2  3  2  0
  3  4  1  0
  4  5  2  0
  5  6  1  0
  6  7  2  0
  7  8  1  0
  8  9  1  0
  9 10  2  0
  9 11  2  0
  9 12  1  0
 12 13  2  0
 13 14  1  0
 14 15  2  0
 15 16  1  0
 16 17  1  0
 17 18  2  0
 17 19  1  0
 19 20  1  0
 20 21  2  0
 21 22  1  0
 22 23  2  0
 23 24  1  0
 24 25  2  0
 24 26  1  0
 23 27  1  0
 27 28  1  0
 27 29  2  0
 15 30  1  0
 30 31  2  0
  7  2  1  0
 31 12  1  0
 29 20  1  0
  1 32  1  0
  1 33  1  0
  1 34  1  0
  3 35  1  0
  4 36  1  0
  5 37  1  0
  6 38  1  0
 13 39  1  0
 14 40  1  0
 16 41  1  0
 21 42  1  0
 22 43  1  0
 29 44  1  0
 30 45  1  0
 31 46  1  0
M  CHG  4   8  -1  19  -1  26  -1  28  -1
M  END
>  <UniqueID>  (29) 
28

>  <SMILES>  (29) 
Cc1ccccc1[N-]S(=O)(=O)c1ccc(NC(=O)[N-]c2ccc(C(=O)[O-])c([O-])c2)cc1

>  <Energy>  (29) 
61.2748112868875

>  <Genealogy>  (29) 
Cc1ccccc1[N-]S(=O)(=O)c1ccc(NC(=O)[N-]c2ccc(C(=O)[O-])c([O-])c2)cc1 (protonated)
Cc1ccccc1[N-]S(=O)(=O)c1ccc(NC(=O)[N-]c2ccc(C(=O)[O-])c([O-])c2)cc1 (3D coordinates assigned)
Cc1ccccc1[N-]S(=O)(=O)c1ccc(NC(=O)[N-]c2ccc(C(=O)[O-])c([O-])c2)cc1 (optimized conformer: 61.2748112868875 kcal/mol)

>  <smiles>  (29) 
Cc1ccccc1NS(=O)(=O)c1ccc(NC(=O)Nc2ccc(C(=O)O)c(O)c2)cc1

>  <score_type>  (29) 
oracle

>  <origin>  (29) 
adgpu

>  <m_score__min__energy>  (29) 
-11.68

>  <m_primary>  (29) 
energy

$$$$
29:0
     RDKit          3D

 42 44  0  0  0  0  0  0  0  0999 V2000
   -3.8650   21.9000  -32.2490 O   0  0  0  0  0  0  0  0  0  0  0  0
   -4.1590   22.7850  -31.4020 C   0  0  0  0  0  0  0  0  0  0  0  0
   -5.5220   23.1970  -31.2250 N   0  0  0  0  0  0  0  0  0  0  0  0
   -6.6910   22.3920  -31.4370 C   0  0  0  0  0  0  0  0  0  0  0  0
   -7.9310   23.0300  -31.5620 C   0  0  0  0  0  0  0  0  0  0  0  0
   -9.0890   22.2840  -31.7910 C   0  0  0  0  0  0  0  0  0  0  0  0
   -9.0150   20.8950  -31.9200 C   0  0  0  0  0  0  0  0  0  0  0  0
   -7.7740   20.2470  -31.8430 C   0  0  0  0  0  0  0  0  0  0  0  0
   -7.6780   18.4930  -32.0090 S   0  0  0  0  0  0  0  0  0  0  0  0
   -9.0650   17.9230  -31.9070 O   0  0  0  0  0  0  0  0  0  0  0  0
   -6.8780   17.9440  -30.8590 O   0  0  0  0  0  0  0  0  0  0  0  0
   -6.9530   17.9660  -33.5130 N   0  0  0  0  0  0  0  0  0  0  0  0
   -6.3930   16.5990  -33.4750 C   0  0  0  0  0  0  0  0  0  0  0  0
   -4.9290   16.5510  -33.0180 C   0  0  0  0  0  0  0  0  0  0  0  0
   -4.0740   17.5210  -33.8250 C   0  0  0  0  0  0  0  0  0  0  0  0
   -4.6370   18.9320  -33.7050 C   0  0  0  0  0  0  0  0  0  0  0  0
   -6.0990   18.9790  -34.1660 C   0  0  0  0  0  0  0  0  0  0  0  0
   -6.6160   20.9950  -31.5880 C   0  0  0  0  0  0  0  0  0  0  0  0
   -3.0970   23.3980  -30.5730 C   0  0  0  0  0  0  0  0  0  0  0  0
   -3.1800   24.7300  -30.1060 C   0  0  0  0  0  0  0  0  0  0  0  0
   -4.2200   25.5870  -30.4720 O   0  0  0  0  0  0  0  0  0  0  0  0
   -2.2050   25.2180  -29.2960 N   0  0  0  0  0  0  0  0  0  0  0  0
   -1.1360   24.4640  -28.9380 C   0  0  0  0  0  0  0  0  0  0  0  0
   -0.2500   24.9460  -28.1880 O   0  0  0  0  0  0  0  0  0  0  0  0
   -1.0220   23.1920  -29.3920 N   0  0  0  0  0  0  0  0  0  0  0  0
   -1.9680   22.6430  -30.1950 C   0  0  0  0  0  0  0  0  0  0  0  0
   -1.8320   21.4500  -30.5760 O   0  0  0  0  0  0  0  0  0  0  0  0
   -7.9934   24.1251  -31.4793 H   0  0  0  0  0  0  0  0  0  0  0  0
  -10.0618   22.7913  -31.8700 H   0  0  0  0  0  0  0  0  0  0  0  0
   -9.9316   20.3088  -32.0822 H   0  0  0  0  0  0  0  0  0  0  0  0
   -6.9949   15.9951  -32.7800 H   0  0  0  0  0  0  0  0  0  0  0  0
   -6.4248   16.2071  -34.5023 H   0  0  0  0  0  0  0  0  0  0  0  0
   -4.8751   16.8234  -31.9536 H   0  0  0  0  0  0  0  0  0  0  0  0
   -4.5458   15.5318  -33.1742 H   0  0  0  0  0  0  0  0  0  0  0  0
   -3.0435   17.5056  -33.4406 H   0  0  0  0  0  0  0  0  0  0  0  0
   -4.0811   17.2169  -34.8821 H   0  0  0  0  0  0  0  0  0  0  0  0
   -4.5800   19.2544  -32.6549 H   0  0  0  0  0  0  0  0  0  0  0  0
   -4.0449   19.6023  -34.3454 H   0  0  0  0  0  0  0  0  0  0  0  0
   -6.5045   19.9759  -33.9384 H   0  0  0  0  0  0  0  0  0  0  0  0
   -6.1064   18.7634  -35.2446 H   0  0  0  0  0  0  0  0  0  0  0  0
   -5.6437   20.4872  -31.5055 H   0  0  0  0  0  0  0  0  0  0  0  0
   -5.1310   25.2630  -30.7660 H   0  0  0  0  0  0  0  0  0  0  0  0
  1  2  2  0
  2  3  1  0
  3  4  1  0
  4  5  2  0
  5  6  1  0
  6  7  2  0
  7  8  1  0
  8  9  1  0
  9 10  2  0
  9 11  2  0
  9 12  1  0
 12 13  1  0
 13 14  1  0
 14 15  1  0
 15 16  1  0
 16 17  1  0
  8 18  2  0
  2 19  1  0
 19 20  2  0
 20 21  1  0
 20 22  1  0
 22 23  1  0
 23 24  2  0
 23 25  1  0
 25 26  1  0
 26 27  2  0
 18  4  1  0
 26 19  1  0
 17 12  1  0
  5 28  1  0
  6 29  1  0
  7 30  1  0
 13 31  1  0
 13 32  1  0
 14 33  1  0
 14 34  1  0
 15 35  1  0
 15 36  1  0
 16 37  1  0
 16 38  1  0
 17 39  1  0
 17 40  1  0
 18 41  1  0
 21 42  1  0
M  CHG  3   3  -1  22  -1  25  -1
M  END
>  <UniqueID>  (30) 
29

>  <SMILES>  (30) 
O=C([N-]c1cccc(S(=O)(=O)N2CCCCC2)c1)c1c(O)[n-]c(=O)[n-]c1=O

>  <Energy>  (30) 
56.02807039235774

>  <Genealogy>  (30) 
O=C([N-]c1cccc(S(=O)(=O)N2CCCCC2)c1)c1c(O)[n-]c(=O)[n-]c1=O (protonated)
O=C([N-]c1cccc(S(=O)(=O)N2CCCCC2)c1)c1c(O)[n-]c(=O)[n-]c1=O (3D coordinates assigned)
O=C([N-]c1cccc(S(=O)(=O)N2CCCCC2)c1)c1c(O)[n-]c(=O)[n-]c1=O (nonaromatic ring conformer: 56.02807039235774 kcal/mol)

>  <smiles>  (30) 
O=C(Nc1cccc(S(=O)(=O)N2CCCCC2)c1)c1c(O)[nH]c(=O)[nH]c1=O

>  <score_type>  (30) 
oracle

>  <origin>  (30) 
adgpu

>  <m_score__min__energy>  (30) 
-12.039999999999999

>  <m_primary>  (30) 
energy

$$$$
30:0
     RDKit          3D

 38 39  0  0  0  0  0  0  0  0999 V2000
   -9.1860   19.9900  -32.3530 C   0  0  0  0  0  0  0  0  0  0  0  0
   -9.1050   21.2820  -31.7570 O   0  0  0  0  0  0  0  0  0  0  0  0
   -7.9060   21.9450  -31.4570 C   0  0  0  0  0  0  0  0  0  0  0  0
   -7.8230   22.6450  -30.2510 C   0  0  0  0  0  0  0  0  0  0  0  0
   -6.6560   23.3270  -29.9060 C   0  0  0  0  0  0  0  0  0  0  0  0
   -5.5490   23.3180  -30.7630 C   0  0  0  0  0  0  0  0  0  0  0  0
   -4.0920   24.2050  -30.3040 S   0  0  0  0  0  0  0  0  0  0  0  0
   -4.3040   25.6640  -30.5910 O   0  0  0  0  0  0  0  0  0  0  0  0
   -2.9020   23.7200  -31.0810 O   0  0  0  0  0  0  0  0  0  0  0  0
   -3.7720   24.0080  -28.6120 N   0  0  0  0  0  0  0  0  0  0  0  0
   -2.8960   23.0260  -28.0360 C   0  0  0  0  0  0  0  0  0  0  0  0
   -3.3090   21.6910  -27.8560 C   0  0  0  0  0  0  0  0  0  0  0  0
   -2.4470   20.7540  -27.2820 C   0  0  0  0  0  0  0  0  0  0  0  0
   -1.1650   21.1340  -26.8810 C   0  0  0  0  0  0  0  0  0  0  0  0
   -0.7450   22.4550  -27.0460 C   0  0  0  0  0  0  0  0  0  0  0  0
   -1.6020   23.4070  -27.6200 C   0  0  0  0  0  0  0  0  0  0  0  0
   -1.0660   25.0850  -27.7580 S   0  0  0  0  0  0  0  0  0  0  0  0
   -1.4200   25.6620  -29.3460 N   0  0  0  0  0  0  0  0  0  0  0  0
   -1.7810   25.9440  -26.7500 O   0  0  0  0  0  0  0  0  0  0  0  0
    0.4130   25.1800  -27.5060 O   0  0  0  0  0  0  0  0  0  0  0  0
   -5.6180   22.6260  -31.9880 C   0  0  0  0  0  0  0  0  0  0  0  0
   -4.5070   22.6550  -32.8470 O   0  0  0  0  0  0  0  0  0  0  0  0
   -3.6510   21.5470  -33.1030 C   0  0  0  0  0  0  0  0  0  0  0  0
   -6.7980   21.9330  -32.3250 C   0  0  0  0  0  0  0  0  0  0  0  0
   -9.2340   19.2247  -31.5643 H   0  0  0  0  0  0  0  0  0  0  0  0
  -10.0897   19.9302  -32.9774 H   0  0  0  0  0  0  0  0  0  0  0  0
   -8.2969   19.8178  -32.9774 H   0  0  0  0  0  0  0  0  0  0  0  0
   -8.6850   22.6586  -29.5677 H   0  0  0  0  0  0  0  0  0  0  0  0
   -6.6052   23.8757  -28.9540 H   0  0  0  0  0  0  0  0  0  0  0  0
   -4.3177   21.3845  -28.1699 H   0  0  0  0  0  0  0  0  0  0  0  0
   -2.7790   19.7142  -27.1456 H   0  0  0  0  0  0  0  0  0  0  0  0
   -0.4858   20.3925  -26.4350 H   0  0  0  0  0  0  0  0  0  0  0  0
    0.2641   22.7518  -26.7241 H   0  0  0  0  0  0  0  0  0  0  0  0
   -2.3550   25.2770  -29.6090 H   0  0  0  0  0  0  0  0  0  0  0  0
   -3.3165   21.1140  -32.1488 H   0  0  0  0  0  0  0  0  0  0  0  0
   -4.1983   20.7863  -33.6790 H   0  0  0  0  0  0  0  0  0  0  0  0
   -2.7768   21.8845  -33.6790 H   0  0  0  0  0  0  0  0  0  0  0  0
   -6.8535   21.3786  -33.2734 H   0  0  0  0  0  0  0  0  0  0  0  0
  1  2  1  0
  2  3  1  0
  3  4  2  0
  4  5  1  0
  5  6  2  0
  6  7  1  0
  7  8  2  0
  7  9  2  0
  7 10  1  0
 10 11  1  0
 11 12  2  0
 12 13  1  0
 13 14  2  0
 14 15  1  0
 15 16  2  0
 16 17  1  0
 17 18  1  0
 17 19  2  0
 17 20  2  0
  6 21  1  0
 21 22  1  0
 22 23  1  0
 21 24  2  0
 24  3  1  0
 16 11  1  0
  1 25  1  0
  1 26  1  0
  1 27  1  0
  4 28  1  0
  5 29  1  0
 12 30  1  0
 13 31  1  0
 14 32  1  0
 15 33  1  0
 18 34  1  0
 23 35  1  0
 23 36  1  0
 23 37  1  0
 24 38  1  0
M  CHG  2  10  -1  18  -1
M  END
>  <UniqueID>  (31) 
30

>  <SMILES>  (31) 
COc1ccc(S(=O)(=O)[N-]c2ccccc2S([NH-])(=O)=O)c(OC)c1

>  <Energy>  (31) 
41.72606884336857

>  <Genealogy>  (31) 
COc1ccc(S(=O)(=O)[N-]c2ccccc2S([NH-])(=O)=O)c(OC)c1 (protonated)
COc1ccc(S(=O)(=O)[N-]c2ccccc2S([NH-])(=O)=O)c(OC)c1 (3D coordinates assigned)
COc1ccc(S(=O)(=O)[N-]c2ccccc2S([NH-])(=O)=O)c(OC)c1 (optimized conformer: 41.72606884336857 kcal/mol)

>  <smiles>  (31) 
COc1ccc(S(=O)(=O)Nc2ccccc2S(N)(=O)=O)c(OC)c1

>  <score_type>  (31) 
oracle

>  <origin>  (31) 
adgpu

>  <m_score__min__energy>  (31) 
-10.93

>  <m_primary>  (31) 
energy

$$$$
31:0
     RDKit          3D

 56 59  0  0  0  0  0  0  0  0999 V2000
   -3.9690   24.7890  -30.5480 O   0  0  0  0  0  0  0  0  0  0  0  0
   -4.2700   23.7550  -29.8910 C   0  0  0  0  0  0  0  0  0  0  0  0
   -3.6860   23.5330  -28.5930 N   0  0  0  0  0  0  0  0  0  0  0  0
   -2.8340   24.4800  -27.9260 C   0  0  0  0  0  0  0  0  0  0  0  0
   -3.1580   24.9020  -26.6290 C   0  0  0  0  0  0  0  0  0  0  0  0
   -2.3580   25.8380  -25.9680 C   0  0  0  0  0  0  0  0  0  0  0  0
   -1.2270   26.3730  -26.5980 C   0  0  0  0  0  0  0  0  0  0  0  0
   -0.2190   27.5630  -25.7650 S   0  0  0  0  0  0  0  0  0  0  0  0
   -0.9310   28.0220  -24.5230 O   0  0  0  0  0  0  0  0  0  0  0  0
   -0.0290   28.7560  -26.6600 O   0  0  0  0  0  0  0  0  0  0  0  0
    1.3480   26.9310  -25.3200 N   0  0  0  0  0  0  0  0  0  0  0  0
    1.7790   27.4060  -24.0070 C   0  0  0  0  0  0  0  0  0  0  0  0
    2.7540   26.3670  -23.4730 C   0  0  0  0  0  0  0  0  0  0  0  0
    2.4710   25.1020  -24.2710 C   0  0  0  0  0  0  0  0  0  0  0  0
    1.3470   25.4720  -25.2270 C   0  0  0  0  0  0  0  0  0  0  0  0
   -0.9200   25.9810  -27.9090 C   0  0  0  0  0  0  0  0  0  0  0  0
   -1.7190   25.0440  -28.5710 C   0  0  0  0  0  0  0  0  0  0  0  0
   -5.2210   22.7830  -30.4820 C   0  0  0  0  0  0  0  0  0  0  0  0
   -4.7380   21.5820  -31.0320 C   0  0  0  0  0  0  0  0  0  0  0  0
   -5.6170   20.6510  -31.5900 C   0  0  0  0  0  0  0  0  0  0  0  0
   -6.9940   20.9010  -31.6040 C   0  0  0  0  0  0  0  0  0  0  0  0
   -8.0990   19.7100  -32.2840 S   0  0  0  0  0  0  0  0  0  0  0  0
   -8.7780   18.9560  -31.1730 O   0  0  0  0  0  0  0  0  0  0  0  0
   -9.1490   20.4180  -33.0940 O   0  0  0  0  0  0  0  0  0  0  0  0
   -7.2080   18.6170  -33.3130 N   0  0  0  0  0  0  0  0  0  0  0  0
   -6.2870   19.3430  -34.1880 C   0  0  0  0  0  0  0  0  0  0  0  0
   -5.1480   18.3880  -34.5060 C   0  0  0  0  0  0  0  0  0  0  0  0
   -5.1970   17.3260  -33.4180 C   0  0  0  0  0  0  0  0  0  0  0  0
   -6.3670   17.7140  -32.5270 C   0  0  0  0  0  0  0  0  0  0  0  0
   -7.4860   22.0830  -31.0380 C   0  0  0  0  0  0  0  0  0  0  0  0
   -6.6080   23.0180  -30.4810 C   0  0  0  0  0  0  0  0  0  0  0  0
   -3.8360   22.6170  -28.1150 H   0  0  0  0  0  0  0  0  0  0  0  0
   -4.0481   24.4936  -26.1281 H   0  0  0  0  0  0  0  0  0  0  0  0
   -2.6178   26.1563  -24.9476 H   0  0  0  0  0  0  0  0  0  0  0  0
    2.2769   28.3824  -24.1003 H   0  0  0  0  0  0  0  0  0  0  0  0
    0.9226   27.5350  -23.3288 H   0  0  0  0  0  0  0  0  0  0  0  0
    3.7918   26.6967  -23.6289 H   0  0  0  0  0  0  0  0  0  0  0  0
    2.6299   26.2060  -22.3920 H   0  0  0  0  0  0  0  0  0  0  0  0
    3.3657   24.7914  -24.8304 H   0  0  0  0  0  0  0  0  0  0  0  0
    2.1941   24.2601  -23.6195 H   0  0  0  0  0  0  0  0  0  0  0  0
    1.5277   25.0275  -26.2169 H   0  0  0  0  0  0  0  0  0  0  0  0
    0.3778   25.0959  -24.8677 H   0  0  0  0  0  0  0  0  0  0  0  0
   -0.0463   26.4129  -28.4190 H   0  0  0  0  0  0  0  0  0  0  0  0
   -1.4743   24.7465  -29.6013 H   0  0  0  0  0  0  0  0  0  0  0  0
   -3.6579   21.3740  -31.0226 H   0  0  0  0  0  0  0  0  0  0  0  0
   -5.2254   19.7174  -32.0202 H   0  0  0  0  0  0  0  0  0  0  0  0
   -6.8000   19.6437  -35.1134 H   0  0  0  0  0  0  0  0  0  0  0  0
   -5.9149   20.2570  -33.7020 H   0  0  0  0  0  0  0  0  0  0  0  0
   -5.2932   17.9317  -35.4963 H   0  0  0  0  0  0  0  0  0  0  0  0
   -4.1766   18.9034  -34.5317 H   0  0  0  0  0  0  0  0  0  0  0  0
   -5.3618   16.3315  -33.8582 H   0  0  0  0  0  0  0  0  0  0  0  0
   -4.2536   17.2738  -32.8547 H   0  0  0  0  0  0  0  0  0  0  0  0
   -6.9374   16.8190  -32.2381 H   0  0  0  0  0  0  0  0  0  0  0  0
   -6.0189   18.1989  -31.6031 H   0  0  0  0  0  0  0  0  0  0  0  0
   -8.5687   22.2773  -31.0314 H   0  0  0  0  0  0  0  0  0  0  0  0
   -7.0047   23.9438  -30.0389 H   0  0  0  0  0  0  0  0  0  0  0  0
  1  2  2  0
  2  3  1  0
  3  4  1  0
  4  5  2  0
  5  6  1  0
  6  7  2  0
  7  8  1  0
  8  9  2  0
  8 10  2  0
  8 11  1  0
 11 12  1  0
 12 13  1  0
 13 14  1  0
 14 15  1  0
  7 16  1  0
 16 17  2  0
  2 18  1  0
 18 19  2  0
 19 20  1  0
 20 21  2  0
 21 22  1  0
 22 23  2  0
 22 24  2  0
 22 25  1  0
 25 26  1  0
 26 27  1  0
 27 28  1  0
 28 29  1  0
 21 30  1  0
 30 31  2  0
 17  4  1  0
 31 18  1  0
 15 11  1  0
 29 25  1  0
  3 32  1  0
  5 33  1  0
  6 34  1  0
 12 35  1  0
 12 36  1  0
 13 37  1  0
 13 38  1  0
 14 39  1  0
 14 40  1  0
 15 41  1  0
 15 42  1  0
 16 43  1  0
 17 44  1  0
 19 45  1  0
 20 46  1  0
 26 47  1  0
 26 48  1  0
 27 49  1  0
 27 50  1  0
 28 51  1  0
 28 52  1  0
 29 53  1  0
 29 54  1  0
 30 55  1  0
 31 56  1  0
M  END
>  <UniqueID>  (32) 
31

>  <SMILES>  (32) 
O=C(Nc1ccc(S(=O)(=O)N2CCCC2)cc1)c1ccc(S(=O)(=O)N2CCCC2)cc1

>  <Energy>  (32) 
66.44304200847566

>  <Genealogy>  (32) 
O=C(Nc1ccc(S(=O)(=O)N2CCCC2)cc1)c1ccc(S(=O)(=O)N2CCCC2)cc1 (3D coordinates assigned)
O=C(Nc1ccc(S(=O)(=O)N2CCCC2)cc1)c1ccc(S(=O)(=O)N2CCCC2)cc1 (nonaromatic ring conformer: 66.44304200847566 kcal/mol)

>  <smiles>  (32) 
O=C(Nc1ccc(S(=O)(=O)N2CCCC2)cc1)c1ccc(S(=O)(=O)N2CCCC2)cc1

>  <score_type>  (32) 
oracle

>  <origin>  (32) 
adgpu

>  <m_score__min__energy>  (32) 
-9.6899999999999995

>  <m_primary>  (32) 
energy

$$$$
32:0
     RDKit          3D

 43 45  0  0  0  0  0  0  0  0999 V2000
    0.6560   23.9230  -28.8170 N   0  0  0  0  0  0  0  0  0  0  0  0
   -0.1010   23.0790  -28.5890 C   0  0  0  0  0  0  0  0  0  0  0  0
   -1.0280   22.0210  -28.2750 C   0  0  0  0  0  0  0  0  0  0  0  0
   -0.9470   21.4250  -27.0090 C   0  0  0  0  0  0  0  0  0  0  0  0
   -1.8200   20.3930  -26.6550 C   0  0  0  0  0  0  0  0  0  0  0  0
   -2.7750   19.9440  -27.5670 C   0  0  0  0  0  0  0  0  0  0  0  0
   -2.8630   20.5300  -28.8320 C   0  0  0  0  0  0  0  0  0  0  0  0
   -2.0020   21.5770  -29.1960 C   0  0  0  0  0  0  0  0  0  0  0  0
   -2.1820   22.2740  -30.8540 S   0  0  0  0  0  0  0  0  0  0  0  0
   -3.9810   22.4430  -30.7790 C   0  0  0  0  0  0  0  0  0  0  0  0
   -4.7690   21.3730  -31.2280 C   0  0  0  0  0  0  0  0  0  0  0  0
   -6.1570   21.4350  -31.1670 C   0  0  0  0  0  0  0  0  0  0  0  0
   -6.7830   22.5720  -30.6630 C   0  0  0  0  0  0  0  0  0  0  0  0
   -6.0280   23.6790  -30.2530 C   0  0  0  0  0  0  0  0  0  0  0  0
   -6.7170   24.8170  -29.7150 N   0  0  0  0  0  0  0  0  0  0  0  0
   -4.6110   23.6440  -30.3530 C   0  0  0  0  0  0  0  0  0  0  0  0
   -3.8330   24.8970  -30.1700 C   0  0  0  0  0  0  0  0  0  0  0  0
   -4.3130   25.9860  -30.5850 O   0  0  0  0  0  0  0  0  0  0  0  0
   -2.5230   24.8680  -29.5940 N   0  0  0  0  0  0  0  0  0  0  0  0
   -2.1590   25.3090  -28.2790 C   0  0  0  0  0  0  0  0  0  0  0  0
   -1.1020   26.2170  -28.1450 C   0  0  0  0  0  0  0  0  0  0  0  0
   -0.6910   26.6450  -26.8810 C   0  0  0  0  0  0  0  0  0  0  0  0
   -1.3150   26.1520  -25.7200 C   0  0  0  0  0  0  0  0  0  0  0  0
   -0.8640   26.6150  -24.3850 C   0  0  0  0  0  0  0  0  0  0  0  0
   -0.1990   25.7360  -23.4730 N   0  0  0  0  0  0  0  0  0  0  0  0
   -1.0520   27.8140  -24.0450 O   0  0  0  0  0  0  0  0  0  0  0  0
   -2.3670   25.2280  -25.8580 C   0  0  0  0  0  0  0  0  0  0  0  0
   -2.7790   24.8030  -27.1250 C   0  0  0  0  0  0  0  0  0  0  0  0
   -0.1910   21.7720  -26.2892 H   0  0  0  0  0  0  0  0  0  0  0  0
   -1.7541   19.9347  -25.6572 H   0  0  0  0  0  0  0  0  0  0  0  0
   -3.4590   19.1283  -27.2901 H   0  0  0  0  0  0  0  0  0  0  0  0
   -3.6140   20.1676  -29.5494 H   0  0  0  0  0  0  0  0  0  0  0  0
   -4.2829   20.4734  -31.6335 H   0  0  0  0  0  0  0  0  0  0  0  0
   -6.7609   20.5849  -31.5173 H   0  0  0  0  0  0  0  0  0  0  0  0
   -7.8799   22.6015  -30.5860 H   0  0  0  0  0  0  0  0  0  0  0  0
   -6.4330   25.7940  -29.9460 H   0  0  0  0  0  0  0  0  0  0  0  0
   -7.4610   24.6940  -28.9910 H   0  0  0  0  0  0  0  0  0  0  0  0
   -0.5913   26.5963  -29.0424 H   0  0  0  0  0  0  0  0  0  0  0  0
    0.1279   27.3741  -26.7920 H   0  0  0  0  0  0  0  0  0  0  0  0
    0.0560   26.0720  -22.5180 H   0  0  0  0  0  0  0  0  0  0  0  0
    0.1110   24.7800  -23.7550 H   0  0  0  0  0  0  0  0  0  0  0  0
   -2.8698   24.8365  -24.9614 H   0  0  0  0  0  0  0  0  0  0  0  0
   -3.5927   24.0687  -27.2181 H   0  0  0  0  0  0  0  0  0  0  0  0
  1  2  3  0
  2  3  1  0
  3  4  2  0
  4  5  1  0
  5  6  2  0
  6  7  1  0
  7  8  2  0
  8  9  1  0
  9 10  1  0
 10 11  2  0
 11 12  1  0
 12 13  2  0
 13 14  1  0
 14 15  1  0
 14 16  2  0
 16 17  1  0
 17 18  2  0
 17 19  1  0
 19 20  1  0
 20 21  2  0
 21 22  1  0
 22 23  2  0
 23 24  1  0
 24 25  1  0
 24 26  2  0
 23 27  1  0
 27 28  2  0
  8  3  1  0
 16 10  1  0
 28 20  1  0
  4 29  1  0
  5 30  1  0
  6 31  1  0
  7 32  1  0
 11 33  1  0
 12 34  1  0
 13 35  1  0
 15 36  1  0
 15 37  1  0
 21 38  1  0
 22 39  1  0
 25 40  1  0
 25 41  1  0
 27 42  1  0
 28 43  1  0
M  CHG  1  19  -1
M  END
>  <UniqueID>  (33) 
32

>  <SMILES>  (33) 
N#Cc1ccccc1Sc1cccc(N)c1C(=O)[N-]c1ccc(C(N)=O)cc1

>  <Energy>  (33) 
58.86106791490509

>  <Genealogy>  (33) 
N#Cc1ccccc1Sc1cccc(N)c1C(=O)[N-]c1ccc(C(N)=O)cc1 (protonated)
N#Cc1ccccc1Sc1cccc(N)c1C(=O)[N-]c1ccc(C(N)=O)cc1 (3D coordinates assigned)
N#Cc1ccccc1Sc1cccc(N)c1C(=O)[N-]c1ccc(C(N)=O)cc1 (optimized conformer: 58.86106791490509 kcal/mol)

>  <smiles>  (33) 
N#Cc1ccccc1Sc1cccc(N)c1C(=O)Nc1ccc(C(N)=O)cc1

>  <score_type>  (33) 
oracle

>  <origin>  (33) 
adgpu

>  <m_score__min__energy>  (33) 
-10.75

>  <m_primary>  (33) 
energy

$$$$
33:0
     RDKit          3D

 37 39  0  0  0  0  0  0  0  0999 V2000
   -2.0670   24.4470  -28.9880 C   0  0  0  0  0  0  0  0  0  0  0  0
   -3.3680   24.4780  -29.7170 C   0  0  0  0  0  0  0  0  0  0  0  0
   -4.1430   23.3880  -29.9010 N   0  0  0  0  0  0  0  0  0  0  0  0
   -5.1760   23.8710  -30.6180 C   0  0  0  0  0  0  0  0  0  0  0  0
   -6.3130   23.0590  -31.0730 C   0  0  0  0  0  0  0  0  0  0  0  0
   -7.5050   23.5540  -31.5930 C   0  0  0  0  0  0  0  0  0  0  0  0
   -8.4090   22.5490  -31.9530 C   0  0  0  0  0  0  0  0  0  0  0  0
   -7.9250   21.2710  -31.7160 C   0  0  0  0  0  0  0  0  0  0  0  0
   -8.7730   19.7710  -32.0610 S   0  0  0  0  0  0  0  0  0  0  0  0
  -10.0840   20.0910  -32.7220 O   0  0  0  0  0  0  0  0  0  0  0  0
   -9.0580   19.0650  -30.7650 O   0  0  0  0  0  0  0  0  0  0  0  0
   -7.8280   18.7270  -33.0980 N   0  0  0  0  0  0  0  0  0  0  0  0
   -7.3360   17.5330  -32.3540 C   0  0  0  0  0  0  0  0  0  0  0  0
   -5.8510   17.6340  -31.9720 C   0  0  0  0  0  0  0  0  0  0  0  0
   -4.9690   17.8080  -33.2190 C   0  0  0  0  0  0  0  0  0  0  0  0
   -5.6690   18.6010  -34.3380 C   0  0  0  0  0  0  0  0  0  0  0  0
   -6.7640   19.5110  -33.7700 C   0  0  0  0  0  0  0  0  0  0  0  0
   -6.3820   21.3760  -31.0570 S   0  0  0  0  0  0  0  0  0  0  0  0
   -4.9900   25.2180  -30.8470 C   0  0  0  0  0  0  0  0  0  0  0  0
   -3.8610   25.5590  -30.2780 O   0  0  0  0  0  0  0  0  0  0  0  0
   -2.2539   24.4515  -27.9040 H   0  0  0  0  0  0  0  0  0  0  0  0
   -1.5152   23.5355  -29.2612 H   0  0  0  0  0  0  0  0  0  0  0  0
   -1.4724   25.3312  -29.2612 H   0  0  0  0  0  0  0  0  0  0  0  0
   -7.7152   24.6274  -31.7093 H   0  0  0  0  0  0  0  0  0  0  0  0
   -9.4021   22.7516  -32.3803 H   0  0  0  0  0  0  0  0  0  0  0  0
   -8.4830   18.3870  -33.8410 H   0  0  0  0  0  0  0  0  0  0  0  0
   -7.9283   17.4250  -31.4334 H   0  0  0  0  0  0  0  0  0  0  0  0
   -7.4467   16.6628  -33.0177 H   0  0  0  0  0  0  0  0  0  0  0  0
   -5.7090   18.4994  -31.3080 H   0  0  0  0  0  0  0  0  0  0  0  0
   -5.5572   16.7039  -31.4634 H   0  0  0  0  0  0  0  0  0  0  0  0
   -4.0524   18.3428  -32.9295 H   0  0  0  0  0  0  0  0  0  0  0  0
   -4.7486   16.8045  -33.6118 H   0  0  0  0  0  0  0  0  0  0  0  0
   -4.9237   19.2191  -34.8601 H   0  0  0  0  0  0  0  0  0  0  0  0
   -6.1350   17.8865  -35.0325 H   0  0  0  0  0  0  0  0  0  0  0  0
   -6.3133   20.2002  -33.0408 H   0  0  0  0  0  0  0  0  0  0  0  0
   -7.2187   20.0656  -34.6040 H   0  0  0  0  0  0  0  0  0  0  0  0
   -5.6654   25.8833  -31.4048 H   0  0  0  0  0  0  0  0  0  0  0  0
  1  2  1  0
  2  3  2  0
  3  4  1  0
  4  5  1  0
  5  6  2  0
  6  7  1  0
  7  8  2  0
  8  9  1  0
  9 10  2  0
  9 11  2  0
  9 12  1  0
 12 13  1  0
 13 14  1  0
 14 15  1  0
 15 16  1  0
 16 17  1  0
  8 18  1  0
  4 19  2  0
 19 20  1  0
 20  2  1  0
 18  5  1  0
 17 12  1  0
  1 21  1  0
  1 22  1  0
  1 23  1  0
  6 24  1  0
  7 25  1  0
 12 26  1  0
 13 27  1  0
 13 28  1  0
 14 29  1  0
 14 30  1  0
 15 31  1  0
 15 32  1  0
 16 33  1  0
 16 34  1  0
 17 35  1  0
 17 36  1  0
 19 37  1  0
M  CHG  1  12   1
M  END
>  <UniqueID>  (34) 
33

>  <SMILES>  (34) 
Cc1nc(-c2ccc(S(=O)(=O)[NH+]3CCCCC3)s2)co1

>  <Energy>  (34) 
95.54629968800815

>  <Genealogy>  (34) 
Cc1nc(-c2ccc(S(=O)(=O)[NH+]3CCCCC3)s2)co1 (protonated)
Cc1nc(-c2ccc(S(=O)(=O)[NH+]3CCCCC3)s2)co1 (3D coordinates assigned)
Cc1nc(-c2ccc(S(=O)(=O)[NH+]3CCCCC3)s2)co1 (nonaromatic ring conformer: 95.54629968800815 kcal/mol)

>  <smiles>  (34) 
Cc1nc(-c2ccc(S(=O)(=O)N3CCCCC3)s2)co1

>  <score_type>  (34) 
oracle

>  <origin>  (34) 
adgpu

>  <m_score__min__energy>  (34) 
-8.1999999999999993

>  <m_primary>  (34) 
energy

$$$$
34:0
     RDKit          3D

 36 39  0  0  0  0  0  0  0  0999 V2000
   -1.6490   25.2950  -29.1510 O   0  0  0  0  0  0  0  0  0  0  0  0
   -1.5380   24.0430  -29.0810 C   0  0  0  0  0  0  0  0  0  0  0  0
   -0.4380   23.5280  -28.5350 O   0  0  0  0  0  0  0  0  0  0  0  0
   -0.2360   22.2200  -28.4180 C   0  0  0  0  0  0  0  0  0  0  0  0
    0.9440   21.7450  -27.8340 C   0  0  0  0  0  0  0  0  0  0  0  0
    1.1600   20.3690  -27.7090 C   0  0  0  0  0  0  0  0  0  0  0  0
    0.1980   19.4620  -28.1690 C   0  0  0  0  0  0  0  0  0  0  0  0
   -0.9840   19.9270  -28.7550 C   0  0  0  0  0  0  0  0  0  0  0  0
   -1.2050   21.3070  -28.8810 C   0  0  0  0  0  0  0  0  0  0  0  0
   -2.3720   21.8100  -29.4600 C   0  0  0  0  0  0  0  0  0  0  0  0
   -2.5570   23.1960  -29.5700 C   0  0  0  0  0  0  0  0  0  0  0  0
   -3.8000   23.7200  -30.1830 C   0  0  0  0  0  0  0  0  0  0  0  0
   -3.9060   24.9020  -30.8240 N   0  0  0  0  0  0  0  0  0  0  0  0
   -5.1650   25.0040  -31.2180 N   0  0  0  0  0  0  0  0  0  0  0  0
   -5.7780   23.8830  -30.8010 C   0  0  0  0  0  0  0  0  0  0  0  0
   -7.5120   23.5280  -31.0710 S   0  0  0  0  0  0  0  0  0  0  0  0
   -7.2350   22.5560  -32.5940 C   0  0  0  0  0  0  0  0  0  0  0  0
   -7.4690   21.0820  -32.3530 C   0  0  0  0  0  0  0  0  0  0  0  0
   -8.7730   20.6050  -32.1090 C   0  0  0  0  0  0  0  0  0  0  0  0
   -9.8290   21.4570  -32.0670 F   0  0  0  0  0  0  0  0  0  0  0  0
   -9.0010   19.2410  -31.9110 C   0  0  0  0  0  0  0  0  0  0  0  0
   -7.9390   18.3380  -31.9540 C   0  0  0  0  0  0  0  0  0  0  0  0
   -6.6420   18.7950  -32.1960 C   0  0  0  0  0  0  0  0  0  0  0  0
   -6.3990   20.1590  -32.3960 C   0  0  0  0  0  0  0  0  0  0  0  0
   -4.7400   20.6710  -32.6980 Cl  0  0  0  0  0  0  0  0  0  0  0  0
   -4.9510   23.0890  -30.1690 O   0  0  0  0  0  0  0  0  0  0  0  0
    1.7025   22.4551  -27.4728 H   0  0  0  0  0  0  0  0  0  0  0  0
    2.0877   19.9986  -27.2483 H   0  0  0  0  0  0  0  0  0  0  0  0
    0.3721   18.3804  -28.0694 H   0  0  0  0  0  0  0  0  0  0  0  0
   -1.7384   19.2126  -29.1162 H   0  0  0  0  0  0  0  0  0  0  0  0
   -3.1451   21.1202  -29.8293 H   0  0  0  0  0  0  0  0  0  0  0  0
   -7.9272   22.9062  -33.3739 H   0  0  0  0  0  0  0  0  0  0  0  0
   -6.1908   22.6953  -32.9106 H   0  0  0  0  0  0  0  0  0  0  0  0
  -10.0217   18.8779  -31.7205 H   0  0  0  0  0  0  0  0  0  0  0  0
   -8.1233   17.2650  -31.7972 H   0  0  0  0  0  0  0  0  0  0  0  0
   -5.8070   18.0797  -32.2297 H   0  0  0  0  0  0  0  0  0  0  0  0
  1  2  2  0
  2  3  1  0
  3  4  1  0
  4  5  2  0
  5  6  1  0
  6  7  2  0
  7  8  1  0
  8  9  2  0
  9 10  1  0
 10 11  2  0
 11 12  1  0
 12 13  2  0
 13 14  1  0
 14 15  2  0
 15 16  1  0
 16 17  1  0
 17 18  1  0
 18 19  2  0
 19 20  1  0
 19 21  1  0
 21 22  2  0
 22 23  1  0
 23 24  2  0
 24 25  1  0
 15 26  1  0
 11  2  1  0
 26 12  1  0
  9  4  1  0
 24 18  1  0
  5 27  1  0
  6 28  1  0
  7 29  1  0
  8 30  1  0
 10 31  1  0
 17 32  1  0
 17 33  1  0
 21 34  1  0
 22 35  1  0
 23 36  1  0
M  END
>  <UniqueID>  (35) 
34

>  <SMILES>  (35) 
O=c1oc2ccccc2cc1-c1nnc(SCc2c(F)cccc2Cl)o1

>  <Energy>  (35) 
78.7197787907561

>  <Genealogy>  (35) 
O=c1oc2ccccc2cc1-c1nnc(SCc2c(F)cccc2Cl)o1 (3D coordinates assigned)
O=c1oc2ccccc2cc1-c1nnc(SCc2c(F)cccc2Cl)o1 (optimized conformer: 78.7197787907561 kcal/mol)

>  <smiles>  (35) 
O=c1oc2ccccc2cc1-c1nnc(SCc2c(F)cccc2Cl)o1

>  <score_type>  (35) 
oracle

>  <origin>  (35) 
adgpu

>  <m_score__min__energy>  (35) 
-9.2899999999999991

>  <m_primary>  (35) 
energy

$$$$
35:0
     RDKit          3D

 62 65  0  0  0  0  0  0  0  0999 V2000
   -1.5800   21.0340  -26.3010 O   0  0  0  0  0  0  0  0  0  0  0  0
   -1.9180   20.7580  -27.7400 S   0  0  0  0  0  0  0  0  0  0  0  0
   -2.9830   19.7000  -27.7940 O   0  0  0  0  0  0  0  0  0  0  0  0
   -0.4740   20.2490  -28.5590 N   0  0  0  0  0  0  0  0  0  0  0  0
   -0.4600   19.4410  -29.7400 C   0  0  0  0  0  0  0  0  0  0  0  0
    0.3550   18.3030  -29.7720 C   0  0  0  0  0  0  0  0  0  0  0  0
    0.3870   17.4910  -30.9080 C   0  0  0  0  0  0  0  0  0  0  0  0
   -0.4190   17.7920  -32.0090 C   0  0  0  0  0  0  0  0  0  0  0  0
   -1.2680   18.9090  -31.9730 C   0  0  0  0  0  0  0  0  0  0  0  0
   -2.3160   19.2740  -33.3410 S   0  0  0  0  0  0  0  0  0  0  0  0
   -1.6420   18.8100  -34.6050 O   0  0  0  0  0  0  0  0  0  0  0  0
   -2.5330   20.7600  -33.4350 O   0  0  0  0  0  0  0  0  0  0  0  0
   -3.8430   18.4510  -33.1520 N   0  0  0  0  0  0  0  0  0  0  0  0
   -4.7670   18.8570  -34.2350 C   0  0  0  0  0  0  0  0  0  0  0  0
   -5.9880   17.9180  -34.3540 C   0  0  0  0  0  0  0  0  0  0  0  0
   -6.1860   17.0870  -33.0850 C   0  0  0  0  0  0  0  0  0  0  0  0
   -4.9290   16.2600  -32.7700 C   0  0  0  0  0  0  0  0  0  0  0  0
   -3.6310   16.9950  -33.1570 C   0  0  0  0  0  0  0  0  0  0  0  0
   -1.2800   19.7350  -30.8400 C   0  0  0  0  0  0  0  0  0  0  0  0
   -2.5130   22.2150  -28.5250 C   0  0  0  0  0  0  0  0  0  0  0  0
   -2.0770   23.4820  -28.1180 C   0  0  0  0  0  0  0  0  0  0  0  0
   -2.5380   24.6260  -28.7780 C   0  0  0  0  0  0  0  0  0  0  0  0
   -3.4400   24.5140  -29.8420 C   0  0  0  0  0  0  0  0  0  0  0  0
   -3.8650   25.6640  -30.4970 O   0  0  0  0  0  0  0  0  0  0  0  0
   -3.8980   23.2440  -30.2400 C   0  0  0  0  0  0  0  0  0  0  0  0
   -5.0270   23.0440  -31.5840 S   0  0  0  0  0  0  0  0  0  0  0  0
   -4.2670   22.5150  -32.7680 O   0  0  0  0  0  0  0  0  0  0  0  0
   -5.6540   24.3630  -31.9470 O   0  0  0  0  0  0  0  0  0  0  0  0
   -6.2780   21.9130  -31.1230 N   0  0  0  0  0  0  0  0  0  0  0  0
   -7.5920   22.5810  -31.1870 C   0  0  0  0  0  0  0  0  0  0  0  0
   -8.6990   21.6230  -30.7320 C   0  0  0  0  0  0  0  0  0  0  0  0
   -8.6920   20.3580  -31.5950 C   0  0  0  0  0  0  0  0  0  0  0  0
   -7.3010   19.7200  -31.6010 C   0  0  0  0  0  0  0  0  0  0  0  0
   -6.2420   20.7460  -32.0220 C   0  0  0  0  0  0  0  0  0  0  0  0
   -3.4250   22.1020  -29.5810 C   0  0  0  0  0  0  0  0  0  0  0  0
    0.9729   18.0473  -28.8986 H   0  0  0  0  0  0  0  0  0  0  0  0
    1.0483   16.6124  -30.9360 H   0  0  0  0  0  0  0  0  0  0  0  0
   -0.3881   17.1534  -32.9041 H   0  0  0  0  0  0  0  0  0  0  0  0
   -5.1249   19.8767  -34.0296 H   0  0  0  0  0  0  0  0  0  0  0  0
   -4.2127   18.8063  -35.1838 H   0  0  0  0  0  0  0  0  0  0  0  0
   -6.8891   18.5246  -34.5275 H   0  0  0  0  0  0  0  0  0  0  0  0
   -5.8108   17.2283  -35.1924 H   0  0  0  0  0  0  0  0  0  0  0  0
   -6.3942   17.7616  -32.2414 H   0  0  0  0  0  0  0  0  0  0  0  0
   -7.0293   16.3987  -33.2433 H   0  0  0  0  0  0  0  0  0  0  0  0
   -4.9067   16.0479  -31.6909 H   0  0  0  0  0  0  0  0  0  0  0  0
   -4.9795   15.3339  -33.3614 H   0  0  0  0  0  0  0  0  0  0  0  0
   -2.8419   16.7415  -32.4338 H   0  0  0  0  0  0  0  0  0  0  0  0
   -3.3327   16.6821  -34.1685 H   0  0  0  0  0  0  0  0  0  0  0  0
   -1.9356   20.6179  -30.8134 H   0  0  0  0  0  0  0  0  0  0  0  0
   -1.3719   23.5777  -27.2792 H   0  0  0  0  0  0  0  0  0  0  0  0
   -2.1895   25.6193  -28.4588 H   0  0  0  0  0  0  0  0  0  0  0  0
   -7.5829   23.4632  -30.5300 H   0  0  0  0  0  0  0  0  0  0  0  0
   -7.7878   22.8864  -32.2255 H   0  0  0  0  0  0  0  0  0  0  0  0
   -8.5307   21.3465  -29.6807 H   0  0  0  0  0  0  0  0  0  0  0  0
   -9.6726   22.1239  -30.8376 H   0  0  0  0  0  0  0  0  0  0  0  0
   -9.4183   19.6387  -31.1886 H   0  0  0  0  0  0  0  0  0  0  0  0
   -8.9629   20.6296  -32.6259 H   0  0  0  0  0  0  0  0  0  0  0  0
   -7.0671   19.3518  -30.5912 H   0  0  0  0  0  0  0  0  0  0  0  0
   -7.2946   18.8867  -32.3191 H   0  0  0  0  0  0  0  0  0  0  0  0
   -5.2463   20.2810  -31.9739 H   0  0  0  0  0  0  0  0  0  0  0  0
   -6.4524   21.0779  -33.0494 H   0  0  0  0  0  0  0  0  0  0  0  0
   -3.7734   21.1074  -29.8962 H   0  0  0  0  0  0  0  0  0  0  0  0
  1  2  2  0
  2  3  2  0
  2  4  1  0
  4  5  1  0
  5  6  2  0
  6  7  1  0
  7  8  2  0
  8  9  1  0
  9 10  1  0
 10 11  2  0
 10 12  2  0
 10 13  1  0
 13 14  1  0
 14 15  1  0
 15 16  1  0
 16 17  1  0
 17 18  1  0
  9 19  2  0
  2 20  1  0
 20 21  2  0
 21 22  1  0
 22 23  2  0
 23 24  1  0
 23 25  1  0
 25 26  1  0
 26 27  2  0
 26 28  2  0
 26 29  1  0
 29 30  1  0
 30 31  1  0
 31 32  1  0
 32 33  1  0
 33 34  1  0
 25 35  2  0
 19  5  1  0
 35 20  1  0
 18 13  1  0
 34 29  1  0
  6 36  1  0
  7 37  1  0
  8 38  1  0
 14 39  1  0
 14 40  1  0
 15 41  1  0
 15 42  1  0
 16 43  1  0
 16 44  1  0
 17 45  1  0
 17 46  1  0
 18 47  1  0
 18 48  1  0
 19 49  1  0
 21 50  1  0
 22 51  1  0
 30 52  1  0
 30 53  1  0
 31 54  1  0
 31 55  1  0
 32 56  1  0
 32 57  1  0
 33 58  1  0
 33 59  1  0
 34 60  1  0
 34 61  1  0
 35 62  1  0
M  CHG  2   4  -1  24  -1
M  END
>  <UniqueID>  (36) 
35

>  <SMILES>  (36) 
O=S(=O)([N-]c1cccc(S(=O)(=O)N2CCCCC2)c1)c1ccc([O-])c(S(=O)(=O)N2CCCCC2)c1

>  <Energy>  (36) 
66.38408167030705

>  <Genealogy>  (36) 
O=S(=O)([N-]c1cccc(S(=O)(=O)N2CCCCC2)c1)c1ccc([O-])c(S(=O)(=O)N2CCCCC2)c1 (protonated)
O=S(=O)([N-]c1cccc(S(=O)(=O)N2CCCCC2)c1)c1ccc([O-])c(S(=O)(=O)N2CCCCC2)c1 (3D coordinates assigned)
O=S(=O)([N-]c1cccc(S(=O)(=O)N2CCCCC2)c1)c1ccc([O-])c(S(=O)(=O)N2CCCCC2)c1 (nonaromatic ring conformer: 66.38408167030705 kcal/mol)

>  <smiles>  (36) 
O=S(=O)(Nc1cccc(S(=O)(=O)N2CCCCC2)c1)c1ccc(O)c(S(=O)(=O)N2CCCCC2)c1

>  <score_type>  (36) 
oracle

>  <origin>  (36) 
adgpu

>  <m_score__min__energy>  (36) 
-13.880000000000001

>  <m_primary>  (36) 
energy

$$$$
36:0
     RDKit          3D

 45 47  0  0  0  0  0  0  0  0999 V2000
   -3.5160   25.2960  -30.5120 O   0  0  0  0  0  0  0  0  0  0  0  0
   -4.5780   24.7230  -30.1540 C   0  0  0  0  0  0  0  0  0  0  0  0
   -5.6830   24.6820  -31.0630 N   0  0  0  0  0  0  0  0  0  0  0  0
   -6.3830   23.5030  -31.4840 C   0  0  0  0  0  0  0  0  0  0  0  0
   -7.7580   23.3340  -31.2430 C   0  0  0  0  0  0  0  0  0  0  0  0
   -8.4040   22.1650  -31.6500 C   0  0  0  0  0  0  0  0  0  0  0  0
   -7.6840   21.1490  -32.2820 C   0  0  0  0  0  0  0  0  0  0  0  0
   -6.3070   21.2930  -32.4990 C   0  0  0  0  0  0  0  0  0  0  0  0
   -5.4110   20.0120  -33.3120 S   0  0  0  0  0  0  0  0  0  0  0  0
   -6.1140   19.6230  -34.5830 O   0  0  0  0  0  0  0  0  0  0  0  0
   -4.0490   20.5390  -33.6680 O   0  0  0  0  0  0  0  0  0  0  0  0
   -5.2330   18.6190  -32.2630 N   0  0  0  0  0  0  0  0  0  0  0  0
   -6.4980   18.2640  -31.5900 C   0  0  0  0  0  0  0  0  0  0  0  0
   -7.5130   17.5980  -32.5360 C   0  0  0  0  0  0  0  0  0  0  0  0
   -6.8620   16.6160  -33.5270 C   0  0  0  0  0  0  0  0  0  0  0  0
   -5.4460   16.2340  -33.1040 C   0  0  0  0  0  0  0  0  0  0  0  0
   -4.5650   17.4870  -32.9550 C   0  0  0  0  0  0  0  0  0  0  0  0
   -5.6610   22.4700  -32.0930 C   0  0  0  0  0  0  0  0  0  0  0  0
   -4.7090   24.2120  -28.8170 N   0  0  0  0  0  0  0  0  0  0  0  0
   -3.5930   23.8920  -27.9670 C   0  0  0  0  0  0  0  0  0  0  0  0
   -3.0590   22.5950  -27.9930 C   0  0  0  0  0  0  0  0  0  0  0  0
   -1.9600   22.2650  -27.1910 C   0  0  0  0  0  0  0  0  0  0  0  0
   -1.3090   20.6360  -27.2230 Cl  0  0  0  0  0  0  0  0  0  0  0  0
   -1.3790   23.2340  -26.3680 C   0  0  0  0  0  0  0  0  0  0  0  0
   -1.8910   24.5350  -26.3500 C   0  0  0  0  0  0  0  0  0  0  0  0
   -1.1460   25.7550  -25.3330 Cl  0  0  0  0  0  0  0  0  0  0  0  0
   -2.9900   24.8660  -27.1500 C   0  0  0  0  0  0  0  0  0  0  0  0
   -8.3265   24.1252  -30.7323 H   0  0  0  0  0  0  0  0  0  0  0  0
   -9.4828   22.0440  -31.4724 H   0  0  0  0  0  0  0  0  0  0  0  0
   -8.1987   20.2339  -32.6101 H   0  0  0  0  0  0  0  0  0  0  0  0
   -6.2750   17.5678  -30.7681 H   0  0  0  0  0  0  0  0  0  0  0  0
   -6.9507   19.1974  -31.2242 H   0  0  0  0  0  0  0  0  0  0  0  0
   -8.2476   17.0478  -31.9297 H   0  0  0  0  0  0  0  0  0  0  0  0
   -7.9828   18.3974  -33.1278 H   0  0  0  0  0  0  0  0  0  0  0  0
   -7.4755   15.7045  -33.5790 H   0  0  0  0  0  0  0  0  0  0  0  0
   -6.8026   17.1111  -34.5075 H   0  0  0  0  0  0  0  0  0  0  0  0
   -5.4875   15.7053  -32.1403 H   0  0  0  0  0  0  0  0  0  0  0  0
   -5.0093   15.5851  -33.8774 H   0  0  0  0  0  0  0  0  0  0  0  0
   -3.6678   17.2122  -32.3810 H   0  0  0  0  0  0  0  0  0  0  0  0
   -4.3291   17.8319  -33.9726 H   0  0  0  0  0  0  0  0  0  0  0  0
   -4.5787   22.5821  -32.2544 H   0  0  0  0  0  0  0  0  0  0  0  0
   -5.6700   24.1530  -28.4110 H   0  0  0  0  0  0  0  0  0  0  0  0
   -3.5066   21.8326  -28.6476 H   0  0  0  0  0  0  0  0  0  0  0  0
   -0.5186   22.9729  -25.7342 H   0  0  0  0  0  0  0  0  0  0  0  0
   -3.3846   25.8927  -27.1402 H   0  0  0  0  0  0  0  0  0  0  0  0
  1  2  2  0
  2  3  1  0
  3  4  1  0
  4  5  2  0
  5  6  1  0
  6  7  2  0
  7  8  1  0
  8  9  1  0
  9 10  2  0
  9 11  2  0
  9 12  1  0
 12 13  1  0
 13 14  1  0
 14 15  1  0
 15 16  1  0
 16 17  1  0
  8 18  2  0
  2 19  1  0
 19 20  1  0
 20 21  2  0
 21 22  1  0
 22 23  1  0
 22 24  2  0
 24 25  1  0
 25 26  1  0
 25 27  2  0
 18  4  1  0
 27 20  1  0
 17 12  1  0
  5 28  1  0
  6 29  1  0
  7 30  1  0
 13 31  1  0
 13 32  1  0
 14 33  1  0
 14 34  1  0
 15 35  1  0
 15 36  1  0
 16 37  1  0
 16 38  1  0
 17 39  1  0
 17 40  1  0
 18 41  1  0
 19 42  1  0
 21 43  1  0
 24 44  1  0
 27 45  1  0
M  CHG  1   3  -1
M  END
>  <UniqueID>  (37) 
36

>  <SMILES>  (37) 
O=C([N-]c1cccc(S(=O)(=O)N2CCCCC2)c1)Nc1cc(Cl)cc(Cl)c1

>  <Energy>  (37) 
59.79655178022821

>  <Genealogy>  (37) 
O=C([N-]c1cccc(S(=O)(=O)N2CCCCC2)c1)Nc1cc(Cl)cc(Cl)c1 (protonated)
O=C([N-]c1cccc(S(=O)(=O)N2CCCCC2)c1)Nc1cc(Cl)cc(Cl)c1 (3D coordinates assigned)
O=C([N-]c1cccc(S(=O)(=O)N2CCCCC2)c1)Nc1cc(Cl)cc(Cl)c1 (nonaromatic ring conformer: 59.79655178022821 kcal/mol)

>  <smiles>  (37) 
O=C(Nc1cc(Cl)cc(Cl)c1)Nc1cccc(S(=O)(=O)N2CCCCC2)c1

>  <score_type>  (37) 
oracle

>  <origin>  (37) 
adgpu

>  <m_score__min__energy>  (37) 
-11.74

>  <m_primary>  (37) 
energy

$$$$
37:0
     RDKit          3D

 57 60  0  0  0  0  0  0  0  0999 V2000
   -5.3670   26.0030  -30.4420 O   0  0  0  0  0  0  0  0  0  0  0  0
   -4.9710   24.8200  -30.6010 C   0  0  0  0  0  0  0  0  0  0  0  0
   -5.2850   24.1530  -31.8310 N   0  0  0  0  0  0  0  0  0  0  0  0
   -5.7550   22.8050  -31.9650 C   0  0  0  0  0  0  0  0  0  0  0  0
   -4.8700   21.7210  -32.0860 C   0  0  0  0  0  0  0  0  0  0  0  0
   -5.3630   20.4150  -32.1660 C   0  0  0  0  0  0  0  0  0  0  0  0
   -6.7450   20.1770  -32.1310 C   0  0  0  0  0  0  0  0  0  0  0  0
   -7.3720   18.5270  -32.2080 S   0  0  0  0  0  0  0  0  0  0  0  0
   -7.0920   17.8360  -30.8990 O   0  0  0  0  0  0  0  0  0  0  0  0
   -8.8630   18.5760  -32.3980 O   0  0  0  0  0  0  0  0  0  0  0  0
   -6.6640   17.6010  -33.5090 N   0  0  0  0  0  0  0  0  0  0  0  0
   -6.0480   18.4490  -34.5350 C   0  0  0  0  0  0  0  0  0  0  0  0
   -4.9380   17.6240  -35.1760 C   0  0  0  0  0  0  0  0  0  0  0  0
   -4.6920   16.4590  -34.2270 C   0  0  0  0  0  0  0  0  0  0  0  0
   -5.6050   16.7070  -33.0380 C   0  0  0  0  0  0  0  0  0  0  0  0
   -7.6270   21.2590  -31.9940 C   0  0  0  0  0  0  0  0  0  0  0  0
   -7.1330   22.5630  -31.9040 C   0  0  0  0  0  0  0  0  0  0  0  0
   -4.1250   24.1900  -29.5590 C   0  0  0  0  0  0  0  0  0  0  0  0
   -4.6180   23.1040  -28.8170 C   0  0  0  0  0  0  0  0  0  0  0  0
   -3.8620   22.5560  -27.7770 C   0  0  0  0  0  0  0  0  0  0  0  0
   -2.6130   23.0920  -27.4600 C   0  0  0  0  0  0  0  0  0  0  0  0
   -2.1010   24.1720  -28.1910 C   0  0  0  0  0  0  0  0  0  0  0  0
   -0.5610   24.9070  -27.7270 S   0  0  0  0  0  0  0  0  0  0  0  0
   -0.5360   26.3360  -28.2000 O   0  0  0  0  0  0  0  0  0  0  0  0
    0.5580   24.1650  -28.4080 O   0  0  0  0  0  0  0  0  0  0  0  0
   -0.3110   24.8410  -25.9960 N   0  0  0  0  0  0  0  0  0  0  0  0
   -1.2870   25.7090  -25.3040 C   0  0  0  0  0  0  0  0  0  0  0  0
   -0.7850   26.0920  -23.8990 C   0  0  0  0  0  0  0  0  0  0  0  0
    0.4560   26.7850  -23.8900 O   0  0  0  0  0  0  0  0  0  0  0  0
    1.2300   26.5850  -25.0650 C   0  0  0  0  0  0  0  0  0  0  0  0
    1.0900   25.1700  -25.6530 C   0  0  0  0  0  0  0  0  0  0  0  0
   -2.8590   24.7160  -29.2390 C   0  0  0  0  0  0  0  0  0  0  0  0
   -3.7852   21.9002  -32.1179 H   0  0  0  0  0  0  0  0  0  0  0  0
   -4.6641   19.5705  -32.2568 H   0  0  0  0  0  0  0  0  0  0  0  0
   -7.4210   17.0270  -33.9520 H   0  0  0  0  0  0  0  0  0  0  0  0
   -6.7948   18.7323  -35.2913 H   0  0  0  0  0  0  0  0  0  0  0  0
   -5.6494   19.3754  -34.0959 H   0  0  0  0  0  0  0  0  0  0  0  0
   -5.2550   17.2550  -36.1626 H   0  0  0  0  0  0  0  0  0  0  0  0
   -4.0269   18.2202  -35.3325 H   0  0  0  0  0  0  0  0  0  0  0  0
   -4.9450   15.5058  -34.7142 H   0  0  0  0  0  0  0  0  0  0  0  0
   -3.6362   16.3933  -33.9252 H   0  0  0  0  0  0  0  0  0  0  0  0
   -6.0366   15.7586  -32.6856 H   0  0  0  0  0  0  0  0  0  0  0  0
   -5.0526   17.1518  -32.1972 H   0  0  0  0  0  0  0  0  0  0  0  0
   -8.7118   21.0803  -31.9573 H   0  0  0  0  0  0  0  0  0  0  0  0
   -7.8309   23.4048  -31.7845 H   0  0  0  0  0  0  0  0  0  0  0  0
   -5.6054   22.6821  -29.0560 H   0  0  0  0  0  0  0  0  0  0  0  0
   -4.2524   21.7001  -27.2069 H   0  0  0  0  0  0  0  0  0  0  0  0
   -2.0279   22.6646  -26.6324 H   0  0  0  0  0  0  0  0  0  0  0  0
   -1.4364   26.6248  -25.8948 H   0  0  0  0  0  0  0  0  0  0  0  0
   -2.2339   25.1589  -25.2003 H   0  0  0  0  0  0  0  0  0  0  0  0
   -1.5420   26.7349  -23.4261 H   0  0  0  0  0  0  0  0  0  0  0  0
   -0.6237   25.1499  -23.3545 H   0  0  0  0  0  0  0  0  0  0  0  0
    0.9062   27.3121  -25.8242 H   0  0  0  0  0  0  0  0  0  0  0  0
    2.2856   26.7188  -24.7862 H   0  0  0  0  0  0  0  0  0  0  0  0
    1.7024   25.1034  -26.5643 H   0  0  0  0  0  0  0  0  0  0  0  0
    1.4269   24.4533  -24.8896 H   0  0  0  0  0  0  0  0  0  0  0  0
   -2.4597   25.5626  -29.8168 H   0  0  0  0  0  0  0  0  0  0  0  0
  1  2  2  0
  2  3  1  0
  3  4  1  0
  4  5  2  0
  5  6  1  0
  6  7  2  0
  7  8  1  0
  8  9  2  0
  8 10  2  0
  8 11  1  0
 11 12  1  0
 12 13  1  0
 13 14  1  0
 14 15  1  0
  7 16  1  0
 16 17  2  0
  2 18  1  0
 18 19  2  0
 19 20  1  0
 20 21  2  0
 21 22  1  0
 22 23  1  0
 23 24  2  0
 23 25  2  0
 23 26  1  0
 26 27  1  0
 27 28  1  0
 28 29  1  0
 29 30  1  0
 30 31  1  0
 22 32  2  0
 17  4  1  0
 32 18  1  0
 15 11  1  0
 31 26  1  0
  5 33  1  0
  6 34  1  0
 11 35  1  0
 12 36  1  0
 12 37  1  0
 13 38  1  0
 13 39  1  0
 14 40  1  0
 14 41  1  0
 15 42  1  0
 15 43  1  0
 16 44  1  0
 17 45  1  0
 19 46  1  0
 20 47  1  0
 21 48  1  0
 27 49  1  0
 27 50  1  0
 28 51  1  0
 28 52  1  0
 30 53  1  0
 30 54  1  0
 31 55  1  0
 31 56  1  0
 32 57  1  0
M  CHG  2   3  -1  11   1
M  END
>  <UniqueID>  (38) 
37

>  <SMILES>  (38) 
O=C([N-]c1ccc(S(=O)(=O)[NH+]2CCCC2)cc1)c1cccc(S(=O)(=O)N2CCOCC2)c1

>  <Energy>  (38) 
77.3782574413109

>  <Genealogy>  (38) 
O=C([N-]c1ccc(S(=O)(=O)[NH+]2CCCC2)cc1)c1cccc(S(=O)(=O)N2CCOCC2)c1 (protonated)
O=C([N-]c1ccc(S(=O)(=O)[NH+]2CCCC2)cc1)c1cccc(S(=O)(=O)N2CCOCC2)c1 (3D coordinates assigned)
O=C([N-]c1ccc(S(=O)(=O)[NH+]2CCCC2)cc1)c1cccc(S(=O)(=O)N2CCOCC2)c1 (nonaromatic ring conformer: 77.3782574413109 kcal/mol)

>  <smiles>  (38) 
O=C(Nc1ccc(S(=O)(=O)N2CCCC2)cc1)c1cccc(S(=O)(=O)N2CCOCC2)c1

>  <score_type>  (38) 
oracle

>  <origin>  (38) 
adgpu

>  <m_score__min__energy>  (38) 
-11.800000000000001

>  <m_primary>  (38) 
energy

$$$$
38:0
     RDKit          3D

 67 71  0  0  0  0  0  0  0  0999 V2000
    0.5880   21.8960  -34.1750 O   0  0  0  0  0  0  0  0  0  0  0  0
    0.5310   20.5900  -33.4360 S   0  0  0  0  0  0  0  0  0  0  0  0
    1.9240   20.0790  -33.2160 O   0  0  0  0  0  0  0  0  0  0  0  0
   -0.3780   19.4440  -34.3670 N   0  0  0  0  0  0  0  0  0  0  0  0
   -1.6880   19.0210  -33.9770 C   0  0  0  0  0  0  0  0  0  0  0  0
   -2.7330   19.9450  -33.8200 C   0  0  0  0  0  0  0  0  0  0  0  0
   -4.0250   19.5010  -33.5300 C   0  0  0  0  0  0  0  0  0  0  0  0
   -4.2980   18.1280  -33.4480 C   0  0  0  0  0  0  0  0  0  0  0  0
   -5.9540   17.5670  -33.2020 S   0  0  0  0  0  0  0  0  0  0  0  0
   -5.9240   16.2800  -32.4240 O   0  0  0  0  0  0  0  0  0  0  0  0
   -6.5870   17.2890  -34.5380 O   0  0  0  0  0  0  0  0  0  0  0  0
   -6.9270   18.7450  -32.3520 N   0  0  0  0  0  0  0  0  0  0  0  0
   -7.2510   19.8890  -33.2200 C   0  0  0  0  0  0  0  0  0  0  0  0
   -8.0890   20.9220  -32.4380 C   0  0  0  0  0  0  0  0  0  0  0  0
   -8.4400   20.4570  -31.1440 O   0  0  0  0  0  0  0  0  0  0  0  0
   -9.0950   19.2050  -31.2440 C   0  0  0  0  0  0  0  0  0  0  0  0
   -8.1670   18.1300  -31.8490 C   0  0  0  0  0  0  0  0  0  0  0  0
   -3.2470   17.2070  -33.5780 C   0  0  0  0  0  0  0  0  0  0  0  0
   -1.9460   17.6540  -33.8170 C   0  0  0  0  0  0  0  0  0  0  0  0
   -0.2830   20.8390  -31.9030 C   0  0  0  0  0  0  0  0  0  0  0  0
   -1.0390   21.9470  -31.5460 C   0  0  0  0  0  0  0  0  0  0  0  0
   -1.6220   21.8180  -30.2730 C   0  0  0  0  0  0  0  0  0  0  0  0
   -2.6790   23.0400  -29.5770 S   0  0  0  0  0  0  0  0  0  0  0  0
   -1.8550   24.1180  -28.9270 O   0  0  0  0  0  0  0  0  0  0  0  0
   -3.5340   22.3890  -28.5220 O   0  0  0  0  0  0  0  0  0  0  0  0
   -3.6700   23.7090  -30.8530 N   0  0  0  0  0  0  0  0  0  0  0  0
   -4.6370   24.7180  -30.3430 C   0  0  0  0  0  0  0  0  0  0  0  0
   -6.1160   24.3190  -30.5270 C   0  0  0  0  0  0  0  0  0  0  0  0
   -6.3420   22.8460  -30.1870 C   0  0  0  0  0  0  0  0  0  0  0  0
   -5.4120   21.9080  -30.9800 C   0  0  0  0  0  0  0  0  0  0  0  0
   -4.2720   22.6560  -31.6990 C   0  0  0  0  0  0  0  0  0  0  0  0
   -1.3200   20.6070  -29.6490 C   0  0  0  0  0  0  0  0  0  0  0  0
   -1.8470   20.0600  -28.0260 S   0  0  0  0  0  0  0  0  0  0  0  0
   -0.8800   21.3110  -27.1840 C   0  0  0  0  0  0  0  0  0  0  0  0
   -1.1970   21.6820  -25.8720 C   0  0  0  0  0  0  0  0  0  0  0  0
   -0.4420   22.6710  -25.2380 C   0  0  0  0  0  0  0  0  0  0  0  0
    0.6290   23.2600  -25.9110 C   0  0  0  0  0  0  0  0  0  0  0  0
    0.9270   22.8520  -27.2140 C   0  0  0  0  0  0  0  0  0  0  0  0
    0.1760   21.8900  -27.8160 N   0  0  0  0  0  0  0  0  0  0  0  0
   -0.3510   19.6940  -30.6700 S   0  0  0  0  0  0  0  0  0  0  0  0
   -2.5338   21.0216  -33.9257 H   0  0  0  0  0  0  0  0  0  0  0  0
   -4.8313   20.2309  -33.3653 H   0  0  0  0  0  0  0  0  0  0  0  0
   -6.3189   20.3610  -33.5641 H   0  0  0  0  0  0  0  0  0  0  0  0
   -7.8300   19.5340  -34.0853 H   0  0  0  0  0  0  0  0  0  0  0  0
   -7.5043   21.8480  -32.3353 H   0  0  0  0  0  0  0  0  0  0  0  0
   -9.0193   21.0966  -32.9984 H   0  0  0  0  0  0  0  0  0  0  0  0
   -9.4077   18.8836  -30.2396 H   0  0  0  0  0  0  0  0  0  0  0  0
   -9.9661   19.3221  -31.9055 H   0  0  0  0  0  0  0  0  0  0  0  0
   -7.9162   17.3904  -31.0744 H   0  0  0  0  0  0  0  0  0  0  0  0
   -8.6868   17.6403  -32.6857 H   0  0  0  0  0  0  0  0  0  0  0  0
   -3.4489   16.1292  -33.4913 H   0  0  0  0  0  0  0  0  0  0  0  0
   -1.1206   16.9296  -33.8798 H   0  0  0  0  0  0  0  0  0  0  0  0
   -1.1680   22.8301  -32.1891 H   0  0  0  0  0  0  0  0  0  0  0  0
   -4.4494   24.8649  -29.2691 H   0  0  0  0  0  0  0  0  0  0  0  0
   -4.4794   25.6349  -30.9299 H   0  0  0  0  0  0  0  0  0  0  0  0
   -6.7390   24.9388  -29.8654 H   0  0  0  0  0  0  0  0  0  0  0  0
   -6.3890   24.4772  -31.5808 H   0  0  0  0  0  0  0  0  0  0  0  0
   -6.1577   22.6997  -29.1125 H   0  0  0  0  0  0  0  0  0  0  0  0
   -7.3785   22.5958  -30.4573 H   0  0  0  0  0  0  0  0  0  0  0  0
   -4.9693   21.1817  -30.2825 H   0  0  0  0  0  0  0  0  0  0  0  0
   -6.0216   21.4168  -31.7527 H   0  0  0  0  0  0  0  0  0  0  0  0
   -3.4904   21.9316  -31.9717 H   0  0  0  0  0  0  0  0  0  0  0  0
   -4.6976   23.1422  -32.5892 H   0  0  0  0  0  0  0  0  0  0  0  0
   -2.0332   21.1989  -25.3452 H   0  0  0  0  0  0  0  0  0  0  0  0
   -0.6904   22.9841  -24.2132 H   0  0  0  0  0  0  0  0  0  0  0  0
    1.2328   24.0378  -25.4208 H   0  0  0  0  0  0  0  0  0  0  0  0
    1.7696   23.3090  -27.7536 H   0  0  0  0  0  0  0  0  0  0  0  0
  1  2  2  0
  2  3  2  0
  2  4  1  0
  4  5  1  0
  5  6  2  0
  6  7  1  0
  7  8  2  0
  8  9  1  0
  9 10  2  0
  9 11  2  0
  9 12  1  0
 12 13  1  0
 13 14  1  0
 14 15  1  0
 15 16  1  0
 16 17  1  0
  8 18  1  0
 18 19  2  0
  2 20  1  0
 20 21  2  0
 21 22  1  0
 22 23  1  0
 23 24  2  0
 23 25  2  0
 23 26  1  0
 26 27  1  0
 27 28  1  0
 28 29  1  0
 29 30  1  0
 30 31  1  0
 22 32  2  0
 32 33  1  0
 33 34  1  0
 34 35  2  0
 35 36  1  0
 36 37  2  0
 37 38  1  0
 38 39  2  0
 32 40  1  0
 19  5  1  0
 40 20  1  0
 17 12  1  0
 31 26  1  0
 39 34  1  0
  6 41  1  0
  7 42  1  0
 13 43  1  0
 13 44  1  0
 14 45  1  0
 14 46  1  0
 16 47  1  0
 16 48  1  0
 17 49  1  0
 17 50  1  0
 18 51  1  0
 19 52  1  0
 21 53  1  0
 27 54  1  0
 27 55  1  0
 28 56  1  0
 28 57  1  0
 29 58  1  0
 29 59  1  0
 30 60  1  0
 30 61  1  0
 31 62  1  0
 31 63  1  0
 35 64  1  0
 36 65  1  0
 37 66  1  0
 38 67  1  0
M  CHG  1   4  -1
M  END
>  <UniqueID>  (39) 
38

>  <SMILES>  (39) 
O=S(=O)([N-]c1ccc(S(=O)(=O)N2CCOCC2)cc1)c1cc(S(=O)(=O)N2CCCCC2)c(Sc2ccccn2)s1

>  <Energy>  (39) 
111.86136861620275

>  <Genealogy>  (39) 
O=S(=O)([N-]c1ccc(S(=O)(=O)N2CCOCC2)cc1)c1cc(S(=O)(=O)N2CCCCC2)c(Sc2ccccn2)s1 (protonated)
O=S(=O)([N-]c1ccc(S(=O)(=O)N2CCOCC2)cc1)c1cc(S(=O)(=O)N2CCCCC2)c(Sc2ccccn2)s1 (3D coordinates assigned)
O=S(=O)([N-]c1ccc(S(=O)(=O)N2CCOCC2)cc1)c1cc(S(=O)(=O)N2CCCCC2)c(Sc2ccccn2)s1 (nonaromatic ring conformer: 111.86136861620275 kcal/mol)

>  <smiles>  (39) 
O=S(=O)(Nc1ccc(S(=O)(=O)N2CCOCC2)cc1)c1cc(S(=O)(=O)N2CCCCC2)c(Sc2ccccn2)s1

>  <score_type>  (39) 
oracle

>  <origin>  (39) 
adgpu

>  <m_score__min__energy>  (39) 
-12.869999999999999

>  <m_primary>  (39) 
energy

$$$$
39:0
     RDKit          3D

 59 62  0  0  0  0  0  0  0  0999 V2000
   -9.0710   21.1200  -31.2950 C   0  0  0  0  0  0  0  0  0  0  0  0
   -7.8340   20.5260  -31.9130 C   0  0  0  0  0  0  0  0  0  0  0  0
   -7.7510   19.1310  -32.0710 C   0  0  0  0  0  0  0  0  0  0  0  0
   -6.6230   18.5420  -32.6410 C   0  0  0  0  0  0  0  0  0  0  0  0
   -5.5590   19.3350  -33.1020 C   0  0  0  0  0  0  0  0  0  0  0  0
   -4.3310   18.7210  -33.6770 C   0  0  0  0  0  0  0  0  0  0  0  0
   -4.2830   17.4650  -33.8480 O   0  0  0  0  0  0  0  0  0  0  0  0
   -3.2100   19.5060  -34.1060 N   0  0  0  0  0  0  0  0  0  0  0  0
   -2.1380   20.0030  -33.2890 C   0  0  0  0  0  0  0  0  0  0  0  0
   -2.4340   20.3770  -31.9710 C   0  0  0  0  0  0  0  0  0  0  0  0
   -1.4420   20.9050  -31.1350 C   0  0  0  0  0  0  0  0  0  0  0  0
   -1.8520   21.4170  -29.5020 S   0  0  0  0  0  0  0  0  0  0  0  0
   -1.0600   20.6140  -28.5080 O   0  0  0  0  0  0  0  0  0  0  0  0
   -3.3150   21.1920  -29.2530 O   0  0  0  0  0  0  0  0  0  0  0  0
   -1.4760   23.1020  -29.3390 N   0  0  0  0  0  0  0  0  0  0  0  0
   -1.2240   23.7370  -28.0790 C   0  0  0  0  0  0  0  0  0  0  0  0
   -0.8160   22.9430  -27.0010 C   0  0  0  0  0  0  0  0  0  0  0  0
   -0.5800   23.5150  -25.7480 C   0  0  0  0  0  0  0  0  0  0  0  0
   -0.7400   24.8890  -25.5640 C   0  0  0  0  0  0  0  0  0  0  0  0
   -1.1220   25.6960  -26.6400 C   0  0  0  0  0  0  0  0  0  0  0  0
   -1.3420   25.1360  -27.9050 C   0  0  0  0  0  0  0  0  0  0  0  0
   -1.6370   25.9920  -28.9640 O   0  0  0  0  0  0  0  0  0  0  0  0
   -0.1390   21.0730  -31.6290 C   0  0  0  0  0  0  0  0  0  0  0  0
    0.1640   20.7140  -32.9480 C   0  0  0  0  0  0  0  0  0  0  0  0
   -0.8300   20.1940  -33.7860 C   0  0  0  0  0  0  0  0  0  0  0  0
   -0.5130   19.9030  -35.1070 O   0  0  0  0  0  0  0  0  0  0  0  0
   -5.6390   20.7330  -32.9480 C   0  0  0  0  0  0  0  0  0  0  0  0
   -6.7530   21.3370  -32.3370 C   0  0  0  0  0  0  0  0  0  0  0  0
   -6.7670   23.0990  -32.1310 S   0  0  0  0  0  0  0  0  0  0  0  0
   -5.6040   23.6850  -32.8870 O   0  0  0  0  0  0  0  0  0  0  0  0
   -8.0350   23.6710  -32.7030 O   0  0  0  0  0  0  0  0  0  0  0  0
   -6.6490   23.4710  -30.4210 N   0  0  0  0  0  0  0  0  0  0  0  0
   -5.3620   23.0300  -29.8460 C   0  0  0  0  0  0  0  0  0  0  0  0
   -4.1870   23.9330  -30.2940 C   0  0  0  0  0  0  0  0  0  0  0  0
   -4.6040   25.1810  -30.8260 O   0  0  0  0  0  0  0  0  0  0  0  0
   -5.6260   25.7350  -30.0280 C   0  0  0  0  0  0  0  0  0  0  0  0
   -6.9200   24.9030  -30.1490 C   0  0  0  0  0  0  0  0  0  0  0  0
   -8.9885   21.0804  -30.1988 H   0  0  0  0  0  0  0  0  0  0  0  0
   -9.1755   22.1665  -31.6172 H   0  0  0  0  0  0  0  0  0  0  0  0
   -9.9531   20.5473  -31.6172 H   0  0  0  0  0  0  0  0  0  0  0  0
   -8.5866   18.4965  -31.7407 H   0  0  0  0  0  0  0  0  0  0  0  0
   -6.5658   17.4471  -32.7304 H   0  0  0  0  0  0  0  0  0  0  0  0
   -3.4580   20.2543  -31.5885 H   0  0  0  0  0  0  0  0  0  0  0  0
   -0.6801   21.8605  -27.1411 H   0  0  0  0  0  0  0  0  0  0  0  0
   -0.2675   22.8810  -24.9052 H   0  0  0  0  0  0  0  0  0  0  0  0
   -0.5659   25.3364  -24.5743 H   0  0  0  0  0  0  0  0  0  0  0  0
   -1.2507   26.7784  -26.4921 H   0  0  0  0  0  0  0  0  0  0  0  0
   -2.0760   25.6740  -29.8150 H   0  0  0  0  0  0  0  0  0  0  0  0
    0.6455   21.4874  -30.9788 H   0  0  0  0  0  0  0  0  0  0  0  0
    1.1884   20.8411  -33.3280 H   0  0  0  0  0  0  0  0  0  0  0  0
   -4.8150   21.3641  -33.3123 H   0  0  0  0  0  0  0  0  0  0  0  0
   -5.4344   23.0597  -28.7488 H   0  0  0  0  0  0  0  0  0  0  0  0
   -5.1618   22.0093  -30.2040 H   0  0  0  0  0  0  0  0  0  0  0  0
   -3.5424   24.1234  -29.4232 H   0  0  0  0  0  0  0  0  0  0  0  0
   -3.6565   23.3998  -31.0966 H   0  0  0  0  0  0  0  0  0  0  0  0
   -5.2994   25.7450  -28.9777 H   0  0  0  0  0  0  0  0  0  0  0  0
   -5.8294   26.7596  -30.3727 H   0  0  0  0  0  0  0  0  0  0  0  0
   -7.4808   24.9833  -29.2061 H   0  0  0  0  0  0  0  0  0  0  0  0
   -7.4965   25.3017  -30.9967 H   0  0  0  0  0  0  0  0  0  0  0  0
  1  2  1  0
  2  3  2  0
  3  4  1  0
  4  5  2  0
  5  6  1  0
  6  7  2  0
  6  8  1  0
  8  9  1  0
  9 10  2  0
 10 11  1  0
 11 12  1  0
 12 13  2  0
 12 14  2  0
 12 15  1  0
 15 16  1  0
 16 17  2  0
 17 18  1  0
 18 19  2  0
 19 20  1  0
 20 21  2  0
 21 22  1  0
 11 23  2  0
 23 24  1  0
 24 25  2  0
 25 26  1  0
  5 27  1  0
 27 28  2  0
 28 29  1  0
 29 30  2  0
 29 31  2  0
 29 32  1  0
 32 33  1  0
 33 34  1  0
 34 35  1  0
 35 36  1  0
 36 37  1  0
 28  2  1  0
 37 32  1  0
 25  9  1  0
 21 16  1  0
  1 38  1  0
  1 39  1  0
  1 40  1  0
  3 41  1  0
  4 42  1  0
 10 43  1  0
 17 44  1  0
 18 45  1  0
 19 46  1  0
 20 47  1  0
 22 48  1  0
 23 49  1  0
 24 50  1  0
 27 51  1  0
 33 52  1  0
 33 53  1  0
 34 54  1  0
 34 55  1  0
 36 56  1  0
 36 57  1  0
 37 58  1  0
 37 59  1  0
M  CHG  3   8  -1  15  -1  26  -1
M  END
>  <UniqueID>  (40) 
39

>  <SMILES>  (40) 
Cc1ccc(C(=O)[N-]c2cc(S(=O)(=O)[N-]c3ccccc3O)ccc2[O-])cc1S(=O)(=O)N1CCOCC1

>  <Energy>  (40) 
95.1897057185766

>  <Genealogy>  (40) 
Cc1ccc(C(=O)[N-]c2cc(S(=O)(=O)[N-]c3ccccc3O)ccc2[O-])cc1S(=O)(=O)N1CCOCC1 (protonated)
Cc1ccc(C(=O)[N-]c2cc(S(=O)(=O)[N-]c3ccccc3O)ccc2[O-])cc1S(=O)(=O)N1CCOCC1 (3D coordinates assigned)
Cc1ccc(C(=O)[N-]c2cc(S(=O)(=O)[N-]c3ccccc3O)ccc2[O-])cc1S(=O)(=O)N1CCOCC1 (nonaromatic ring conformer: 95.1897057185766 kcal/mol)

>  <smiles>  (40) 
Cc1ccc(C(=O)Nc2cc(S(=O)(=O)Nc3ccccc3O)ccc2O)cc1S(=O)(=O)N1CCOCC1

>  <score_type>  (40) 
oracle

>  <origin>  (40) 
adgpu

>  <m_score__min__energy>  (40) 
-14.630000000000001

>  <m_primary>  (40) 
energy

$$$$
40:0
     RDKit          3D

 36 38  0  0  0  0  0  0  0  0999 V2000
   -6.4120   15.2930  -34.2280 C   0  0  0  0  0  0  0  0  0  0  0  0
   -7.2360   16.4540  -34.1780 O   0  0  0  0  0  0  0  0  0  0  0  0
   -6.8760   17.6520  -33.5460 C   0  0  0  0  0  0  0  0  0  0  0  0
   -7.7540   18.3560  -32.7000 C   0  0  0  0  0  0  0  0  0  0  0  0
   -7.3450   19.5460  -32.0900 C   0  0  0  0  0  0  0  0  0  0  0  0
   -6.0490   20.0480  -32.3060 C   0  0  0  0  0  0  0  0  0  0  0  0
   -5.6140   21.2820  -31.7110 N   0  0  0  0  0  0  0  0  0  0  0  0
   -4.2860   21.8130  -31.8490 C   0  0  0  0  0  0  0  0  0  0  0  0
   -3.5260   21.3920  -32.7630 O   0  0  0  0  0  0  0  0  0  0  0  0
   -3.8040   22.8830  -30.9600 C   0  0  0  0  0  0  0  0  0  0  0  0
   -3.0150   22.7320  -29.8370 C   0  0  0  0  0  0  0  0  0  0  0  0
   -2.8270   24.0260  -29.3810 C   0  0  0  0  0  0  0  0  0  0  0  0
   -2.0190   24.4590  -28.2150 C   0  0  0  0  0  0  0  0  0  0  0  0
   -1.9820   23.6410  -27.0710 C   0  0  0  0  0  0  0  0  0  0  0  0
   -1.2410   24.0190  -25.9480 C   0  0  0  0  0  0  0  0  0  0  0  0
   -0.5220   25.2150  -25.9550 C   0  0  0  0  0  0  0  0  0  0  0  0
   -0.5350   26.0300  -27.0880 C   0  0  0  0  0  0  0  0  0  0  0  0
   -1.2710   25.6570  -28.2200 C   0  0  0  0  0  0  0  0  0  0  0  0
   -1.2230   26.4740  -29.3440 O   0  0  0  0  0  0  0  0  0  0  0  0
   -3.4630   24.8840  -30.2050 N   0  0  0  0  0  0  0  0  0  0  0  0
   -4.0590   24.1900  -31.1630 N   0  0  0  0  0  0  0  0  0  0  0  0
   -5.1860   19.3560  -33.1670 C   0  0  0  0  0  0  0  0  0  0  0  0
   -5.5940   18.1650  -33.7740 C   0  0  0  0  0  0  0  0  0  0  0  0
   -6.1788   14.9645  -33.2044 H   0  0  0  0  0  0  0  0  0  0  0  0
   -6.9429   14.4892  -34.7591 H   0  0  0  0  0  0  0  0  0  0  0  0
   -5.4780   15.5288  -34.7591 H   0  0  0  0  0  0  0  0  0  0  0  0
   -8.7670   17.9679  -32.5179 H   0  0  0  0  0  0  0  0  0  0  0  0
   -8.0412   20.0929  -31.4371 H   0  0  0  0  0  0  0  0  0  0  0  0
   -6.3340   21.8730  -31.2360 H   0  0  0  0  0  0  0  0  0  0  0  0
   -2.6255   21.7988  -29.4042 H   0  0  0  0  0  0  0  0  0  0  0  0
   -2.5420   22.6943  -27.0603 H   0  0  0  0  0  0  0  0  0  0  0  0
   -1.2245   23.3732  -25.0577 H   0  0  0  0  0  0  0  0  0  0  0  0
    0.0548   25.5153  -25.0678 H   0  0  0  0  0  0  0  0  0  0  0  0
    0.0358   26.9703  -27.0920 H   0  0  0  0  0  0  0  0  0  0  0  0
   -4.1799   19.7534  -33.3665 H   0  0  0  0  0  0  0  0  0  0  0  0
   -4.9012   17.6260  -34.4369 H   0  0  0  0  0  0  0  0  0  0  0  0
  1  2  1  0
  2  3  1  0
  3  4  2  0
  4  5  1  0
  5  6  2  0
  6  7  1  0
  7  8  1  0
  8  9  2  0
  8 10  1  0
 10 11  1  0
 11 12  2  0
 12 13  1  0
 13 14  2  0
 14 15  1  0
 15 16  2  0
 16 17  1  0
 17 18  2  0
 18 19  1  0
 12 20  1  0
 20 21  1  0
  6 22  1  0
 22 23  2  0
 23  3  1  0
 21 10  2  0
 18 13  1  0
  1 24  1  0
  1 25  1  0
  1 26  1  0
  4 27  1  0
  5 28  1  0
  7 29  1  0
 11 30  1  0
 14 31  1  0
 15 32  1  0
 16 33  1  0
 17 34  1  0
 22 35  1  0
 23 36  1  0
M  CHG  2  19  -1  20  -1
M  END
>  <UniqueID>  (41) 
40

>  <SMILES>  (41) 
COc1ccc(NC(=O)c2cc(-c3ccccc3[O-])[n-]n2)cc1

>  <Energy>  (41) 
74.6054482548566

>  <Genealogy>  (41) 
COc1ccc(NC(=O)c2cc(-c3ccccc3[O-])[n-]n2)cc1 (protonated)
COc1ccc(NC(=O)c2cc(-c3ccccc3[O-])[n-]n2)cc1 (3D coordinates assigned)
COc1ccc(NC(=O)c2cc(-c3ccccc3[O-])[n-]n2)cc1 (optimized conformer: 74.6054482548566 kcal/mol)

>  <smiles>  (41) 
COc1ccc(NC(=O)c2cc(-c3ccccc3O)[nH]n2)cc1

>  <score_type>  (41) 
oracle

>  <origin>  (41) 
adgpu

>  <m_score__min__energy>  (41) 
-12.42

>  <m_primary>  (41) 
energy

$$$$
41:0
     RDKit          3D

 63 67  0  0  0  0  0  0  0  0999 V2000
   -5.7920   18.5020  -35.3900 O   0  0  0  0  0  0  0  0  0  0  0  0
   -5.3860   18.2120  -33.9710 S   0  0  0  0  0  0  0  0  0  0  0  0
   -5.3000   16.7190  -33.8080 O   0  0  0  0  0  0  0  0  0  0  0  0
   -3.8020   18.9270  -33.6660 C   0  0  0  0  0  0  0  0  0  0  0  0
   -2.6620   18.4180  -34.3020 C   0  0  0  0  0  0  0  0  0  0  0  0
   -1.4090   18.9790  -34.0510 C   0  0  0  0  0  0  0  0  0  0  0  0
   -1.2850   20.0510  -33.1640 C   0  0  0  0  0  0  0  0  0  0  0  0
   -2.4160   20.5760  -32.5180 C   0  0  0  0  0  0  0  0  0  0  0  0
   -2.2570   21.6790  -31.6060 N   0  0  0  0  0  0  0  0  0  0  0  0
   -2.3780   21.5430  -30.1530 C   0  0  0  0  0  0  0  0  0  0  0  0
   -2.5240   22.8880  -29.5040 C   0  0  0  0  0  0  0  0  0  0  0  0
   -1.6200   23.4670  -28.6370 C   0  0  0  0  0  0  0  0  0  0  0  0
   -2.1260   24.6470  -28.2170 N   0  0  0  0  0  0  0  0  0  0  0  0
   -1.5260   25.5690  -27.2840 C   0  0  0  0  0  0  0  0  0  0  0  0
   -1.9440   25.5810  -25.9400 C   0  0  0  0  0  0  0  0  0  0  0  0
   -1.3730   26.4690  -25.0240 C   0  0  0  0  0  0  0  0  0  0  0  0
   -0.3810   27.3590  -25.4380 C   0  0  0  0  0  0  0  0  0  0  0  0
    0.0410   27.3650  -26.7680 C   0  0  0  0  0  0  0  0  0  0  0  0
   -0.5270   26.4780  -27.6890 C   0  0  0  0  0  0  0  0  0  0  0  0
   -3.3080   24.8450  -28.7820 N   0  0  0  0  0  0  0  0  0  0  0  0
   -3.5740   23.7950  -29.5860 C   0  0  0  0  0  0  0  0  0  0  0  0
   -4.8260   23.6760  -30.3640 C   0  0  0  0  0  0  0  0  0  0  0  0
   -6.0100   24.2400  -29.8600 C   0  0  0  0  0  0  0  0  0  0  0  0
   -7.2030   24.1480  -30.5850 C   0  0  0  0  0  0  0  0  0  0  0  0
   -7.2240   23.5030  -31.8250 C   0  0  0  0  0  0  0  0  0  0  0  0
   -8.4200   23.4160  -32.5350 O   0  0  0  0  0  0  0  0  0  0  0  0
   -6.0430   22.9560  -32.3430 C   0  0  0  0  0  0  0  0  0  0  0  0
   -4.8500   23.0480  -31.6210 C   0  0  0  0  0  0  0  0  0  0  0  0
   -3.6770   20.0050  -32.7780 C   0  0  0  0  0  0  0  0  0  0  0  0
   -6.5970   18.8450  -32.8830 N   0  0  0  0  0  0  0  0  0  0  0  0
   -7.6070   17.8160  -32.5860 C   0  0  0  0  0  0  0  0  0  0  0  0
   -8.5250   18.2840  -31.4410 C   0  0  0  0  0  0  0  0  0  0  0  0
   -8.5810   19.8170  -31.3220 C   0  0  0  0  0  0  0  0  0  0  0  0
   -8.4970   20.4810  -32.6990 C   0  0  0  0  0  0  0  0  0  0  0  0
   -7.2230   20.0510  -33.4630 C   0  0  0  0  0  0  0  0  0  0  0  0
   -2.7549   17.5738  -35.0011 H   0  0  0  0  0  0  0  0  0  0  0  0
   -0.5169   18.5761  -34.5528 H   0  0  0  0  0  0  0  0  0  0  0  0
   -0.2940   20.4872  -32.9701 H   0  0  0  0  0  0  0  0  0  0  0  0
   -2.0590   22.6260  -32.0070 H   0  0  0  0  0  0  0  0  0  0  0  0
   -3.2625   20.9319  -29.9201 H   0  0  0  0  0  0  0  0  0  0  0  0
   -1.4680   21.0610  -29.7662 H   0  0  0  0  0  0  0  0  0  0  0  0
   -0.6513   23.0399  -28.3384 H   0  0  0  0  0  0  0  0  0  0  0  0
   -2.7278   24.8846  -25.6073 H   0  0  0  0  0  0  0  0  0  0  0  0
   -1.7059   26.4663  -23.9756 H   0  0  0  0  0  0  0  0  0  0  0  0
    0.0685   28.0561  -24.7155 H   0  0  0  0  0  0  0  0  0  0  0  0
    0.8217   28.0684  -27.0930 H   0  0  0  0  0  0  0  0  0  0  0  0
   -0.1918   26.4898  -28.7366 H   0  0  0  0  0  0  0  0  0  0  0  0
   -5.9989   24.7572  -28.8892 H   0  0  0  0  0  0  0  0  0  0  0  0
   -8.1271   24.5845  -30.1781 H   0  0  0  0  0  0  0  0  0  0  0  0
   -9.0750   24.1890  -32.5650 H   0  0  0  0  0  0  0  0  0  0  0  0
   -6.0547   22.4526  -33.3210 H   0  0  0  0  0  0  0  0  0  0  0  0
   -3.9241   22.6263  -32.0391 H   0  0  0  0  0  0  0  0  0  0  0  0
   -4.5713   20.4081  -32.2803 H   0  0  0  0  0  0  0  0  0  0  0  0
   -8.2132   17.6321  -33.4853 H   0  0  0  0  0  0  0  0  0  0  0  0
   -7.0966   16.8907  -32.2805 H   0  0  0  0  0  0  0  0  0  0  0  0
   -9.5415   17.9069  -31.6269 H   0  0  0  0  0  0  0  0  0  0  0  0
   -8.1141   17.8898  -30.4998 H   0  0  0  0  0  0  0  0  0  0  0  0
   -9.5274   20.1055  -30.8413 H   0  0  0  0  0  0  0  0  0  0  0  0
   -7.7233   20.1519  -30.7201 H   0  0  0  0  0  0  0  0  0  0  0  0
   -9.3804   20.1936  -33.2881 H   0  0  0  0  0  0  0  0  0  0  0  0
   -8.4588   21.5706  -32.5532 H   0  0  0  0  0  0  0  0  0  0  0  0
   -7.4925   19.8407  -34.5086 H   0  0  0  0  0  0  0  0  0  0  0  0
   -6.4959   20.8732  -33.3910 H   0  0  0  0  0  0  0  0  0  0  0  0
  1  2  2  0
  2  3  2  0
  2  4  1  0
  4  5  2  0
  5  6  1  0
  6  7  2  0
  7  8  1  0
  8  9  1  0
  9 10  1  0
 10 11  1  0
 11 12  2  0
 12 13  1  0
 13 14  1  0
 14 15  2  0
 15 16  1  0
 16 17  2  0
 17 18  1  0
 18 19  2  0
 13 20  1  0
 20 21  2  0
 21 22  1  0
 22 23  2  0
 23 24  1  0
 24 25  2  0
 25 26  1  0
 25 27  1  0
 27 28  2  0
  8 29  2  0
  2 30  1  0
 30 31  1  0
 31 32  1  0
 32 33  1  0
 33 34  1  0
 34 35  1  0
 29  4  1  0
 35 30  1  0
 21 11  1  0
 28 22  1  0
 19 14  1  0
  5 36  1  0
  6 37  1  0
  7 38  1  0
  9 39  1  0
 10 40  1  0
 10 41  1  0
 12 42  1  0
 15 43  1  0
 16 44  1  0
 17 45  1  0
 18 46  1  0
 19 47  1  0
 23 48  1  0
 24 49  1  0
 26 50  1  0
 27 51  1  0
 28 52  1  0
 29 53  1  0
 31 54  1  0
 31 55  1  0
 32 56  1  0
 32 57  1  0
 33 58  1  0
 33 59  1  0
 34 60  1  0
 34 61  1  0
 35 62  1  0
 35 63  1  0
M  END
>  <UniqueID>  (42) 
41

>  <SMILES>  (42) 
O=S(=O)(c1cccc(NCc2cn(-c3ccccc3)nc2-c2ccc(O)cc2)c1)N1CCCCC1

>  <Energy>  (42) 
105.55443995664075

>  <Genealogy>  (42) 
O=S(=O)(c1cccc(NCc2cn(-c3ccccc3)nc2-c2ccc(O)cc2)c1)N1CCCCC1 (3D coordinates assigned)
O=S(=O)(c1cccc(NCc2cn(-c3ccccc3)nc2-c2ccc(O)cc2)c1)N1CCCCC1 (nonaromatic ring conformer: 105.55443995664075 kcal/mol)

>  <smiles>  (42) 
O=S(=O)(c1cccc(NCc2cn(-c3ccccc3)nc2-c2ccc(O)cc2)c1)N1CCCCC1

>  <score_type>  (42) 
oracle

>  <origin>  (42) 
adgpu

>  <m_score__min__energy>  (42) 
-10.74

>  <m_primary>  (42) 
energy

$$$$
42:0
     RDKit          3D

 20 21  0  0  0  0  0  0  0  0999 V2000
   -4.9681   20.2974  -30.1156 H   0  0  0  0  0  0  0  0  0  0  0  0
   -4.2160   20.7580  -30.7730 C   0  0  0  0  0  0  0  0  0  0  0  0
   -3.9750   20.1820  -31.9590 C   0  0  0  0  0  0  0  0  0  0  0  0
   -4.8590   18.7090  -32.4780 S   0  0  0  0  0  0  0  0  0  0  0  0
   -3.9260   18.7790  -34.0120 C   0  0  0  0  0  0  0  0  0  0  0  0
   -4.1020   17.9440  -34.9360 O   0  0  0  0  0  0  0  0  0  0  0  0
   -2.9780   19.8300  -34.1330 N   0  0  0  0  0  0  0  0  0  0  0  0
   -3.0010   20.6240  -32.9630 C   0  0  0  0  0  0  0  0  0  0  0  0
   -2.2290   21.6100  -32.8210 O   0  0  0  0  0  0  0  0  0  0  0  0
   -3.5300   21.9740  -30.3000 C   0  0  0  0  0  0  0  0  0  0  0  0
   -2.3770   21.8610  -29.4950 C   0  0  0  0  0  0  0  0  0  0  0  0
   -1.7230   20.2810  -29.0670 Cl  0  0  0  0  0  0  0  0  0  0  0  0
   -1.7280   23.0170  -29.0380 C   0  0  0  0  0  0  0  0  0  0  0  0
   -0.5850   22.9180  -28.2520 O   0  0  0  0  0  0  0  0  0  0  0  0
   -2.2270   24.2790  -29.3680 C   0  0  0  0  0  0  0  0  0  0  0  0
   -1.7119   25.1824  -29.0095 H   0  0  0  0  0  0  0  0  0  0  0  0
   -3.3770   24.3990  -30.1510 C   0  0  0  0  0  0  0  0  0  0  0  0
   -3.8610   25.6660  -30.4620 O   0  0  0  0  0  0  0  0  0  0  0  0
   -4.0360   23.2540  -30.6160 C   0  0  0  0  0  0  0  0  0  0  0  0
   -5.6350   23.4590  -31.6660 Br  0  0  0  0  0  0  0  0  0  0  0  0
  1  2  1  0
  2  3  2  0
  3  4  1  0
  4  5  1  0
  5  6  2  0
  5  7  1  0
  7  8  1  0
  8  9  2  0
  2 10  1  0
 10 11  2  0
 11 12  1  0
 11 13  1  0
 13 14  1  0
 13 15  2  0
 15 16  1  0
 15 17  1  0
 17 18  1  0
 17 19  2  0
 19 20  1  0
  8  3  1  0
 19 10  1  0
M  CHG  3   7  -1  14  -1  18  -1
M  END
>  <UniqueID>  (43) 
42

>  <SMILES>  (43) 
O=C1[N-]C(=O)/C(=C\c2c(Cl)c([O-])cc([O-])c2Br)S1

>  <Energy>  (43) 
50.67722741291314

>  <Genealogy>  (43) 
O=C1[N-]C(=O)C(=Cc2c(Cl)c([O-])cc([O-])c2Br)S1 (protonated)
O=C1[N-]C(=O)/C(=C\c2c(Cl)c([O-])cc([O-])c2Br)S1 (cis-trans isomerization)
O=C1[N-]C(=O)/C(=C\c2c(Cl)c([O-])cc([O-])c2Br)S1 (3D coordinates assigned)
O=C1[N-]C(=O)/C(=C\c2c(Cl)c([O-])cc([O-])c2Br)S1 (nonaromatic ring conformer: 50.67722741291314 kcal/mol)

>  <smiles>  (43) 
O=C1NC(=O)C(=Cc2c(Cl)c(O)cc(O)c2Br)S1

>  <score_type>  (43) 
oracle

>  <origin>  (43) 
adgpu

>  <m_score__min__energy>  (43) 
-9.6999999999999993

>  <m_primary>  (43) 
energy

$$$$
43:0
     RDKit          3D

 53 56  0  0  0  0  0  0  0  0999 V2000
   -1.9570   25.2170  -29.2270 N   0  0  0  0  0  0  0  0  0  0  0  0
   -3.5010   24.5670  -29.6590 S   0  0  0  0  0  0  0  0  0  0  0  0
   -4.2360   24.1210  -28.4270 O   0  0  0  0  0  0  0  0  0  0  0  0
   -4.2910   25.6560  -30.3300 O   0  0  0  0  0  0  0  0  0  0  0  0
   -3.3230   23.2010  -30.7710 C   0  0  0  0  0  0  0  0  0  0  0  0
   -2.0560   22.6070  -30.8920 C   0  0  0  0  0  0  0  0  0  0  0  0
   -1.8750   21.4710  -31.6850 C   0  0  0  0  0  0  0  0  0  0  0  0
   -2.9590   20.9090  -32.3580 C   0  0  0  0  0  0  0  0  0  0  0  0
   -4.2220   21.4950  -32.2580 C   0  0  0  0  0  0  0  0  0  0  0  0
   -4.4100   22.6590  -31.5000 C   0  0  0  0  0  0  0  0  0  0  0  0
   -5.7180   23.2460  -31.4850 N   0  0  0  0  0  0  0  0  0  0  0  0
   -6.8130   22.8990  -32.3480 C   0  0  0  0  0  0  0  0  0  0  0  0
   -7.2610   23.7820  -33.1280 O   0  0  0  0  0  0  0  0  0  0  0  0
   -7.4460   21.5530  -32.3360 C   0  0  0  0  0  0  0  0  0  0  0  0
   -6.7220   20.4210  -32.7400 C   0  0  0  0  0  0  0  0  0  0  0  0
   -7.3260   19.1550  -32.7690 C   0  0  0  0  0  0  0  0  0  0  0  0
   -6.5750   17.9680  -33.2530 C   0  0  0  0  0  0  0  0  0  0  0  0
   -7.2030   16.7140  -33.3520 C   0  0  0  0  0  0  0  0  0  0  0  0
   -6.4980   15.6040  -33.8250 C   0  0  0  0  0  0  0  0  0  0  0  0
   -5.1550   15.7300  -34.2060 C   0  0  0  0  0  0  0  0  0  0  0  0
   -4.2660   14.3440  -34.8290 S   0  0  0  0  0  0  0  0  0  0  0  0
   -3.3700   14.7770  -35.9570 O   0  0  0  0  0  0  0  0  0  0  0  0
   -5.2530   13.3340  -35.3430 O   0  0  0  0  0  0  0  0  0  0  0  0
   -3.3060   13.6350  -33.5460 N   0  0  0  0  0  0  0  0  0  0  0  0
   -3.8030   12.2960  -33.2090 C   0  0  0  0  0  0  0  0  0  0  0  0
   -4.7530   12.4220  -32.0240 C   0  0  0  0  0  0  0  0  0  0  0  0
   -4.5670   13.8300  -31.4950 C   0  0  0  0  0  0  0  0  0  0  0  0
   -3.4330   14.4230  -32.3160 C   0  0  0  0  0  0  0  0  0  0  0  0
   -4.5200   16.9730  -34.1010 C   0  0  0  0  0  0  0  0  0  0  0  0
   -5.2230   18.0860  -33.6300 C   0  0  0  0  0  0  0  0  0  0  0  0
   -8.6560   19.0410  -32.3430 C   0  0  0  0  0  0  0  0  0  0  0  0
   -9.3360   20.1380  -31.9180 N   0  0  0  0  0  0  0  0  0  0  0  0
   -8.7740   21.3750  -31.9000 C   0  0  0  0  0  0  0  0  0  0  0  0
   -9.4630   22.3550  -31.5090 O   0  0  0  0  0  0  0  0  0  0  0  0
   -1.5720   25.6880  -30.0760 H   0  0  0  0  0  0  0  0  0  0  0  0
   -1.1979   23.0404  -30.3573 H   0  0  0  0  0  0  0  0  0  0  0  0
   -0.8763   21.0196  -31.7784 H   0  0  0  0  0  0  0  0  0  0  0  0
   -2.8190   20.0041  -32.9676 H   0  0  0  0  0  0  0  0  0  0  0  0
   -5.0772   21.0393  -32.7786 H   0  0  0  0  0  0  0  0  0  0  0  0
   -5.6684   20.5274  -33.0375 H   0  0  0  0  0  0  0  0  0  0  0  0
   -8.2566   16.6059  -33.0551 H   0  0  0  0  0  0  0  0  0  0  0  0
   -6.9990   14.6275  -33.8986 H   0  0  0  0  0  0  0  0  0  0  0  0
   -4.3378   11.8701  -34.0707 H   0  0  0  0  0  0  0  0  0  0  0  0
   -2.9631   11.6336  -32.9524 H   0  0  0  0  0  0  0  0  0  0  0  0
   -5.7928   12.2687  -32.3484 H   0  0  0  0  0  0  0  0  0  0  0  0
   -4.5405   11.6677  -31.2521 H   0  0  0  0  0  0  0  0  0  0  0  0
   -5.4876   14.4167  -31.6301 H   0  0  0  0  0  0  0  0  0  0  0  0
   -4.3396   13.8360  -30.4188 H   0  0  0  0  0  0  0  0  0  0  0  0
   -3.6599   15.4701  -32.5649 H   0  0  0  0  0  0  0  0  0  0  0  0
   -2.4929   14.3964  -31.7456 H   0  0  0  0  0  0  0  0  0  0  0  0
   -3.4636   17.0746  -34.3902 H   0  0  0  0  0  0  0  0  0  0  0  0
   -4.7171   19.0598  -33.5534 H   0  0  0  0  0  0  0  0  0  0  0  0
   -9.1518   18.0591  -32.3527 H   0  0  0  0  0  0  0  0  0  0  0  0
  1  2  1  0
  2  3  2  0
  2  4  2  0
  2  5  1  0
  5  6  2  0
  6  7  1  0
  7  8  2  0
  8  9  1  0
  9 10  2  0
 10 11  1  0
 11 12  1  0
 12 13  2  0
 12 14  1  0
 14 15  2  0
 15 16  1  0
 16 17  1  0
 17 18  2  0
 18 19  1  0
 19 20  2  0
 20 21  1  0
 21 22  2  0
 21 23  2  0
 21 24  1  0
 24 25  1  0
 25 26  1  0
 26 27  1  0
 27 28  1  0
 20 29  1  0
 29 30  2  0
 16 31  2  0
 31 32  1  0
 32 33  1  0
 33 34  2  0
 10  5  1  0
 33 14  1  0
 30 17  1  0
 28 24  1  0
  1 35  1  0
  6 36  1  0
  7 37  1  0
  8 38  1  0
  9 39  1  0
 15 40  1  0
 18 41  1  0
 19 42  1  0
 25 43  1  0
 25 44  1  0
 26 45  1  0
 26 46  1  0
 27 47  1  0
 27 48  1  0
 28 49  1  0
 28 50  1  0
 29 51  1  0
 30 52  1  0
 31 53  1  0
M  CHG  3   1  -1  11  -1  32  -1
M  END
>  <UniqueID>  (44) 
43

>  <SMILES>  (44) 
[NH-]S(=O)(=O)c1ccccc1[N-]C(=O)c1cc(-c2ccc(S(=O)(=O)N3CCCC3)cc2)c[n-]c1=O

>  <Energy>  (44) 
75.20918740146251

>  <Genealogy>  (44) 
[NH-]S(=O)(=O)c1ccccc1[N-]C(=O)c1cc(-c2ccc(S(=O)(=O)N3CCCC3)cc2)c[n-]c1=O (protonated)
[NH-]S(=O)(=O)c1ccccc1[N-]C(=O)c1cc(-c2ccc(S(=O)(=O)N3CCCC3)cc2)c[n-]c1=O (3D coordinates assigned)
[NH-]S(=O)(=O)c1ccccc1[N-]C(=O)c1cc(-c2ccc(S(=O)(=O)N3CCCC3)cc2)c[n-]c1=O (nonaromatic ring conformer: 75.20918740146251 kcal/mol)

>  <smiles>  (44) 
NS(=O)(=O)c1ccccc1NC(=O)c1cc(-c2ccc(S(=O)(=O)N3CCCC3)cc2)c[nH]c1=O

>  <score_type>  (44) 
oracle

>  <origin>  (44) 
adgpu

>  <m_score__min__energy>  (44) 
-13.539999999999999

>  <m_primary>  (44) 
energy

$$$$
44:0
     RDKit          3D

 47 49  0  0  0  0  0  0  0  0999 V2000
   -3.0790   23.2740  -27.6390 O   0  0  0  0  0  0  0  0  0  0  0  0
   -2.9130   24.4630  -28.0270 C   0  0  0  0  0  0  0  0  0  0  0  0
   -3.5550   24.9190  -29.2280 N   0  0  0  0  0  0  0  0  0  0  0  0
   -4.7210   24.2990  -29.7980 C   0  0  0  0  0  0  0  0  0  0  0  0
   -5.2770   24.8240  -30.9730 C   0  0  0  0  0  0  0  0  0  0  0  0
   -6.4200   24.2500  -31.5360 C   0  0  0  0  0  0  0  0  0  0  0  0
   -7.0320   23.1490  -30.9220 C   0  0  0  0  0  0  0  0  0  0  0  0
   -8.4680   22.4140  -31.6380 S   0  0  0  0  0  0  0  0  0  0  0  0
   -9.3910   21.9590  -30.5420 O   0  0  0  0  0  0  0  0  0  0  0  0
   -9.1960   23.4400  -32.4620 O   0  0  0  0  0  0  0  0  0  0  0  0
   -8.0440   21.0480  -32.6440 N   0  0  0  0  0  0  0  0  0  0  0  0
   -8.9940   19.9370  -32.4310 C   0  0  0  0  0  0  0  0  0  0  0  0
   -8.4240   18.8580  -31.4780 C   0  0  0  0  0  0  0  0  0  0  0  0
   -7.4940   17.8390  -32.1650 C   0  0  0  0  0  0  0  0  0  0  0  0
   -6.8710   18.3360  -33.4930 C   0  0  0  0  0  0  0  0  0  0  0  0
   -6.0810   19.6520  -33.4020 C   0  0  0  0  0  0  0  0  0  0  0  0
   -6.6420   20.6610  -32.3820 C   0  0  0  0  0  0  0  0  0  0  0  0
   -6.4950   22.6340  -29.7340 C   0  0  0  0  0  0  0  0  0  0  0  0
   -5.3510   23.2070  -29.1720 C   0  0  0  0  0  0  0  0  0  0  0  0
   -1.9930   25.3510  -27.2750 C   0  0  0  0  0  0  0  0  0  0  0  0
   -1.9730   25.2950  -25.8690 C   0  0  0  0  0  0  0  0  0  0  0  0
   -1.1110   26.1150  -25.1370 C   0  0  0  0  0  0  0  0  0  0  0  0
   -0.2630   27.0060  -25.7980 C   0  0  0  0  0  0  0  0  0  0  0  0
   -0.2830   27.0840  -27.1910 C   0  0  0  0  0  0  0  0  0  0  0  0
   -1.1480   26.2700  -27.9330 C   0  0  0  0  0  0  0  0  0  0  0  0
   -1.1730   26.4060  -29.3180 O   0  0  0  0  0  0  0  0  0  0  0  0
   -3.0840   25.6740  -29.7760 H   0  0  0  0  0  0  0  0  0  0  0  0
   -4.8097   25.6949  -31.4558 H   0  0  0  0  0  0  0  0  0  0  0  0
   -6.8407   24.6638  -32.4643 H   0  0  0  0  0  0  0  0  0  0  0  0
   -9.9202   20.3407  -31.9962 H   0  0  0  0  0  0  0  0  0  0  0  0
   -9.1842   19.4624  -33.4050 H   0  0  0  0  0  0  0  0  0  0  0  0
   -7.8553   19.3641  -30.6840 H   0  0  0  0  0  0  0  0  0  0  0  0
   -9.2835   18.2916  -31.0902 H   0  0  0  0  0  0  0  0  0  0  0  0
   -6.6760   17.5969  -31.4705 H   0  0  0  0  0  0  0  0  0  0  0  0
   -8.1151   16.9666  -32.4165 H   0  0  0  0  0  0  0  0  0  0  0  0
   -6.1882   17.5555  -33.8600 H   0  0  0  0  0  0  0  0  0  0  0  0
   -7.7170   18.5376  -34.1666 H   0  0  0  0  0  0  0  0  0  0  0  0
   -5.0460   19.4130  -33.1162 H   0  0  0  0  0  0  0  0  0  0  0  0
   -6.1531   20.1307  -34.3898 H   0  0  0  0  0  0  0  0  0  0  0  0
   -6.5869   20.2101  -31.3802 H   0  0  0  0  0  0  0  0  0  0  0  0
   -6.0342   21.5742  -32.4632 H   0  0  0  0  0  0  0  0  0  0  0  0
   -6.9759   21.7756  -29.2422 H   0  0  0  0  0  0  0  0  0  0  0  0
   -4.9405   22.8024  -28.2351 H   0  0  0  0  0  0  0  0  0  0  0  0
   -2.6422   24.5992  -25.3417 H   0  0  0  0  0  0  0  0  0  0  0  0
   -1.1002   26.0588  -24.0385 H   0  0  0  0  0  0  0  0  0  0  0  0
    0.4205   27.6461  -25.2208 H   0  0  0  0  0  0  0  0  0  0  0  0
    0.3842   27.7886  -27.7091 H   0  0  0  0  0  0  0  0  0  0  0  0
  1  2  2  0
  2  3  1  0
  3  4  1  0
  4  5  2  0
  5  6  1  0
  6  7  2  0
  7  8  1  0
  8  9  2  0
  8 10  2  0
  8 11  1  0
 11 12  1  0
 12 13  1  0
 13 14  1  0
 14 15  1  0
 15 16  1  0
 16 17  1  0
  7 18  1  0
 18 19  2  0
  2 20  1  0
 20 21  2  0
 21 22  1  0
 22 23  2  0
 23 24  1  0
 24 25  2  0
 25 26  1  0
 19  4  1  0
 25 20  1  0
 17 11  1  0
  3 27  1  0
  5 28  1  0
  6 29  1  0
 12 30  1  0
 12 31  1  0
 13 32  1  0
 13 33  1  0
 14 34  1  0
 14 35  1  0
 15 36  1  0
 15 37  1  0
 16 38  1  0
 16 39  1  0
 17 40  1  0
 17 41  1  0
 18 42  1  0
 19 43  1  0
 21 44  1  0
 22 45  1  0
 23 46  1  0
 24 47  1  0
M  CHG  1  26  -1
M  END
>  <UniqueID>  (45) 
44

>  <SMILES>  (45) 
O=C(Nc1ccc(S(=O)(=O)N2CCCCCC2)cc1)c1ccccc1[O-]

>  <Energy>  (45) 
62.764811135494

>  <Genealogy>  (45) 
O=C(Nc1ccc(S(=O)(=O)N2CCCCCC2)cc1)c1ccccc1[O-] (protonated)
O=C(Nc1ccc(S(=O)(=O)N2CCCCCC2)cc1)c1ccccc1[O-] (3D coordinates assigned)
O=C(Nc1ccc(S(=O)(=O)N2CCCCCC2)cc1)c1ccccc1[O-] (nonaromatic ring conformer: 62.764811135494 kcal/mol)

>  <smiles>  (45) 
O=C(Nc1ccc(S(=O)(=O)N2CCCCCC2)cc1)c1ccccc1O

>  <score_type>  (45) 
oracle

>  <origin>  (45) 
adgpu

>  <m_score__min__energy>  (45) 
-11.06

>  <m_primary>  (45) 
energy

$$$$
45:0
     RDKit          3D

 41 43  0  0  0  0  0  0  0  0999 V2000
   -3.9070   25.3750  -30.0910 O   0  0  0  0  0  0  0  0  0  0  0  0
   -3.7930   24.1720  -29.7260 C   0  0  0  0  0  0  0  0  0  0  0  0
   -2.8770   23.8350  -28.6700 N   0  0  0  0  0  0  0  0  0  0  0  0
   -2.3420   24.8060  -27.7570 C   0  0  0  0  0  0  0  0  0  0  0  0
   -2.6800   24.7280  -26.3970 C   0  0  0  0  0  0  0  0  0  0  0  0
   -2.1800   25.6640  -25.4870 C   0  0  0  0  0  0  0  0  0  0  0  0
   -1.3500   26.6950  -25.9310 C   0  0  0  0  0  0  0  0  0  0  0  0
   -1.0260   26.8000  -27.2860 C   0  0  0  0  0  0  0  0  0  0  0  0
   -1.5280   25.8690  -28.2030 C   0  0  0  0  0  0  0  0  0  0  0  0
   -1.2360   26.0250  -29.5540 O   0  0  0  0  0  0  0  0  0  0  0  0
   -4.5750   23.1200  -30.4210 C   0  0  0  0  0  0  0  0  0  0  0  0
   -3.9980   21.8720  -30.7230 C   0  0  0  0  0  0  0  0  0  0  0  0
   -4.7460   20.8840  -31.3710 C   0  0  0  0  0  0  0  0  0  0  0  0
   -6.0780   21.1270  -31.7280 C   0  0  0  0  0  0  0  0  0  0  0  0
   -7.0190   19.8680  -32.5210 S   0  0  0  0  0  0  0  0  0  0  0  0
   -7.6000   20.4150  -33.7950 O   0  0  0  0  0  0  0  0  0  0  0  0
   -8.1510   19.4400  -31.6240 O   0  0  0  0  0  0  0  0  0  0  0  0
   -5.9810   18.5150  -32.8880 N   0  0  0  0  0  0  0  0  0  0  0  0
   -6.7320   17.2610  -32.9170 C   0  0  0  0  0  0  0  0  0  0  0  0
   -5.9820   16.3280  -33.8540 C   0  0  0  0  0  0  0  0  0  0  0  0
   -5.1060   17.2330  -34.7080 C   0  0  0  0  0  0  0  0  0  0  0  0
   -5.3880   18.6450  -34.2190 C   0  0  0  0  0  0  0  0  0  0  0  0
   -6.6630   22.3600  -31.4150 C   0  0  0  0  0  0  0  0  0  0  0  0
   -5.9190   23.3490  -30.7660 C   0  0  0  0  0  0  0  0  0  0  0  0
   -2.4410   22.8860  -28.6810 H   0  0  0  0  0  0  0  0  0  0  0  0
   -3.3433   23.9244  -26.0446 H   0  0  0  0  0  0  0  0  0  0  0  0
   -2.4406   25.5882  -24.4210 H   0  0  0  0  0  0  0  0  0  0  0  0
   -0.9504   27.4260  -25.2127 H   0  0  0  0  0  0  0  0  0  0  0  0
   -0.3750   27.6160  -27.6330 H   0  0  0  0  0  0  0  0  0  0  0  0
   -2.9519   21.6727  -30.4475 H   0  0  0  0  0  0  0  0  0  0  0  0
   -4.2860   19.9117  -31.6013 H   0  0  0  0  0  0  0  0  0  0  0  0
   -6.7829   16.8255  -31.9082 H   0  0  0  0  0  0  0  0  0  0  0  0
   -7.7639   17.4241  -33.2613 H   0  0  0  0  0  0  0  0  0  0  0  0
   -5.3629   15.6224  -33.2805 H   0  0  0  0  0  0  0  0  0  0  0  0
   -6.6680   15.7250  -34.4670 H   0  0  0  0  0  0  0  0  0  0  0  0
   -4.0438   16.9826  -34.5698 H   0  0  0  0  0  0  0  0  0  0  0  0
   -5.3235   17.1200  -35.7804 H   0  0  0  0  0  0  0  0  0  0  0  0
   -4.4528   19.2214  -34.1633 H   0  0  0  0  0  0  0  0  0  0  0  0
   -6.0650   19.1750  -34.9052 H   0  0  0  0  0  0  0  0  0  0  0  0
   -7.7131   22.5511  -31.6812 H   0  0  0  0  0  0  0  0  0  0  0  0
   -6.3881   24.3139  -30.5232 H   0  0  0  0  0  0  0  0  0  0  0  0
  1  2  2  0
  2  3  1  0
  3  4  1  0
  4  5  2  0
  5  6  1  0
  6  7  2  0
  7  8  1  0
  8  9  2  0
  9 10  1  0
  2 11  1  0
 11 12  2  0
 12 13  1  0
 13 14  2  0
 14 15  1  0
 15 16  2  0
 15 17  2  0
 15 18  1  0
 18 19  1  0
 19 20  1  0
 20 21  1  0
 21 22  1  0
 14 23  1  0
 23 24  2  0
  9  4  1  0
 24 11  1  0
 22 18  1  0
  3 25  1  0
  5 26  1  0
  6 27  1  0
  7 28  1  0
  8 29  1  0
 12 30  1  0
 13 31  1  0
 19 32  1  0
 19 33  1  0
 20 34  1  0
 20 35  1  0
 21 36  1  0
 21 37  1  0
 22 38  1  0
 22 39  1  0
 23 40  1  0
 24 41  1  0
M  CHG  1  10  -1
M  END
>  <UniqueID>  (46) 
45

>  <SMILES>  (46) 
O=C(Nc1ccccc1[O-])c1ccc(S(=O)(=O)N2CCCC2)cc1

>  <Energy>  (46) 
50.125811646775375

>  <Genealogy>  (46) 
O=C(Nc1ccccc1[O-])c1ccc(S(=O)(=O)N2CCCC2)cc1 (protonated)
O=C(Nc1ccccc1[O-])c1ccc(S(=O)(=O)N2CCCC2)cc1 (3D coordinates assigned)
O=C(Nc1ccccc1[O-])c1ccc(S(=O)(=O)N2CCCC2)cc1 (nonaromatic ring conformer: 50.125811646775375 kcal/mol)

>  <smiles>  (46) 
O=C(Nc1ccccc1O)c1ccc(S(=O)(=O)N2CCCC2)cc1

>  <score_type>  (46) 
oracle

>  <origin>  (46) 
adgpu

>  <m_score__min__energy>  (46) 
-11.66

>  <m_primary>  (46) 
energy

$$$$
46:0
     RDKit          3D

 27 29  0  0  0  0  0  0  0  0999 V2000
   -6.2293   24.4232  -30.5975 H   0  0  0  0  0  0  0  0  0  0  0  0
   -5.5280   23.6700  -30.2090 C   0  0  0  0  0  0  0  0  0  0  0  0
   -5.7680   22.3730  -30.4500 C   0  0  0  0  0  0  0  0  0  0  0  0
   -5.0520   21.6398  -30.0503 H   0  0  0  0  0  0  0  0  0  0  0  0
   -6.9310   21.8520  -31.2180 C   0  0  0  0  0  0  0  0  0  0  0  0
   -6.7500   20.6970  -31.9960 C   0  0  0  0  0  0  0  0  0  0  0  0
   -5.7681   20.2020  -32.0257 H   0  0  0  0  0  0  0  0  0  0  0  0
   -7.8170   20.1770  -32.7320 C   0  0  0  0  0  0  0  0  0  0  0  0
   -7.6739   19.2730  -33.3422 H   0  0  0  0  0  0  0  0  0  0  0  0
   -9.0310   20.7850  -32.6960 N   0  0  0  0  0  0  0  0  0  0  0  0
   -9.2440   21.9020  -31.9540 C   0  0  0  0  0  0  0  0  0  0  0  0
  -10.2388   22.3714  -31.9437 H   0  0  0  0  0  0  0  0  0  0  0  0
   -8.2040   22.4580  -31.2030 C   0  0  0  0  0  0  0  0  0  0  0  0
   -8.3780   23.3637  -30.6034 H   0  0  0  0  0  0  0  0  0  0  0  0
   -4.3540   24.1170  -29.4400 C   0  0  0  0  0  0  0  0  0  0  0  0
   -4.2870   23.9870  -28.0880 N   0  0  0  0  0  0  0  0  0  0  0  0
   -3.0840   24.5060  -27.8040 C   0  0  0  0  0  0  0  0  0  0  0  0
   -2.4840   24.6310  -26.5540 C   0  0  0  0  0  0  0  0  0  0  0  0
   -2.9920   24.2872  -25.6409 H   0  0  0  0  0  0  0  0  0  0  0  0
   -1.2020   25.2140  -26.5010 C   0  0  0  0  0  0  0  0  0  0  0  0
   -0.6943   25.3320  -25.5323 H   0  0  0  0  0  0  0  0  0  0  0  0
   -0.5650   25.6480  -27.6860 C   0  0  0  0  0  0  0  0  0  0  0  0
    0.4362   26.1007  -27.6345 H   0  0  0  0  0  0  0  0  0  0  0  0
   -1.2050   25.5040  -28.9320 C   0  0  0  0  0  0  0  0  0  0  0  0
   -0.7226   25.8383  -29.8624 H   0  0  0  0  0  0  0  0  0  0  0  0
   -2.4710   24.9230  -28.9440 C   0  0  0  0  0  0  0  0  0  0  0  0
   -3.2570   24.6890  -30.0060 N   0  0  0  0  0  0  0  0  0  0  0  0
  1  2  1  0
  2  3  2  0
  3  4  1  0
  3  5  1  0
  5  6  2  0
  6  7  1  0
  6  8  1  0
  8  9  1  0
  8 10  2  0
 10 11  1  0
 11 12  1  0
 11 13  2  0
 13 14  1  0
  2 15  1  0
 15 16  2  0
 16 17  1  0
 17 18  2  0
 18 19  1  0
 18 20  1  0
 20 21  1  0
 20 22  2  0
 22 23  1  0
 22 24  1  0
 24 25  1  0
 24 26  2  0
 26 27  1  0
 13  5  1  0
 27 15  1  0
 26 17  1  0
M  CHG  1  27  -1
M  END
>  <UniqueID>  (47) 
46

>  <SMILES>  (47) 
C(=C/c1nc2ccccc2[n-]1)\c1ccncc1

>  <Energy>  (47) 
66.89422131314119

>  <Genealogy>  (47) 
C(=Cc1nc2ccccc2[n-]1)c1ccncc1 (protonated)
C(=C/c1nc2ccccc2[n-]1)\c1ccncc1 (cis-trans isomerization)
C(=C/c1nc2ccccc2[n-]1)\c1ccncc1 (3D coordinates assigned)
C(=C/c1nc2ccccc2[n-]1)\c1ccncc1 (optimized conformer: 66.89422131314119 kcal/mol)

>  <smiles>  (47) 
C(=Cc1nc2ccccc2[nH]1)c1ccncc1

>  <score_type>  (47) 
oracle

>  <origin>  (47) 
adgpu

>  <m_score__min__energy>  (47) 
-6.9000000000000004

>  <m_primary>  (47) 
energy

$$$$
47:0
     RDKit          3D

 52 55  0  0  0  0  0  0  0  0999 V2000
   -4.8210   18.9850  -33.8340 C   0  0  0  0  0  0  0  0  0  0  0  0
   -5.4190   20.0390  -33.0870 O   0  0  0  0  0  0  0  0  0  0  0  0
   -6.7750   20.0850  -32.7250 C   0  0  0  0  0  0  0  0  0  0  0  0
   -7.5740   18.9270  -32.6690 C   0  0  0  0  0  0  0  0  0  0  0  0
   -8.9160   19.0150  -32.2920 C   0  0  0  0  0  0  0  0  0  0  0  0
   -9.4720   20.2510  -31.9630 C   0  0  0  0  0  0  0  0  0  0  0  0
   -8.6910   21.4070  -32.0190 C   0  0  0  0  0  0  0  0  0  0  0  0
   -7.3390   21.3340  -32.4100 C   0  0  0  0  0  0  0  0  0  0  0  0
   -6.5260   22.4730  -32.5010 O   0  0  0  0  0  0  0  0  0  0  0  0
   -6.7880   23.7150  -31.8540 C   0  0  0  0  0  0  0  0  0  0  0  0
   -5.6550   24.0270  -30.9380 C   0  0  0  0  0  0  0  0  0  0  0  0
   -5.5170   23.5630  -29.6520 C   0  0  0  0  0  0  0  0  0  0  0  0
   -4.3620   24.1730  -29.2000 C   0  0  0  0  0  0  0  0  0  0  0  0
   -3.7040   24.0450  -27.8750 C   0  0  0  0  0  0  0  0  0  0  0  0
   -4.2700   24.6130  -26.8990 O   0  0  0  0  0  0  0  0  0  0  0  0
   -2.5130   23.2440  -27.6230 N   0  0  0  0  0  0  0  0  0  0  0  0
   -2.7920   21.7900  -27.7370 C   0  0  0  0  0  0  0  0  0  0  0  0
   -2.7110   21.2600  -29.1750 C   0  0  0  0  0  0  0  0  0  0  0  0
   -1.5560   21.8120  -29.8890 N   0  0  0  0  0  0  0  0  0  0  0  0
   -1.3480   21.4390  -31.2660 C   0  0  0  0  0  0  0  0  0  0  0  0
   -2.3880   21.5210  -32.2100 C   0  0  0  0  0  0  0  0  0  0  0  0
   -2.1600   21.1060  -33.5240 C   0  0  0  0  0  0  0  0  0  0  0  0
   -0.9060   20.6180  -33.8900 C   0  0  0  0  0  0  0  0  0  0  0  0
    0.1040   20.5460  -32.9310 C   0  0  0  0  0  0  0  0  0  0  0  0
   -0.1400   20.9440  -31.6530 N   0  0  0  0  0  0  0  0  0  0  0  0
   -0.5830   22.6230  -29.1520 C   0  0  0  0  0  0  0  0  0  0  0  0
   -1.3000   23.7230  -28.3470 C   0  0  0  0  0  0  0  0  0  0  0  0
   -3.8530   24.9340  -30.1950 N   0  0  0  0  0  0  0  0  0  0  0  0
   -4.6560   24.8280  -31.2140 O   0  0  0  0  0  0  0  0  0  0  0  0
   -4.3984   18.2402  -33.1436 H   0  0  0  0  0  0  0  0  0  0  0  0
   -5.5824   18.5070  -34.4678 H   0  0  0  0  0  0  0  0  0  0  0  0
   -4.0201   19.3934  -34.4678 H   0  0  0  0  0  0  0  0  0  0  0  0
   -7.1395   17.9489  -32.9232 H   0  0  0  0  0  0  0  0  0  0  0  0
   -9.5360   18.1071  -32.2545 H   0  0  0  0  0  0  0  0  0  0  0  0
  -10.5272   20.3152  -31.6590 H   0  0  0  0  0  0  0  0  0  0  0  0
   -9.1331   22.3795  -31.7567 H   0  0  0  0  0  0  0  0  0  0  0  0
   -6.8848   24.5110  -32.6070 H   0  0  0  0  0  0  0  0  0  0  0  0
   -7.7246   23.6479  -31.2810 H   0  0  0  0  0  0  0  0  0  0  0  0
   -6.1734   22.8675  -29.1084 H   0  0  0  0  0  0  0  0  0  0  0  0
   -2.2970   23.3810  -26.6060 H   0  0  0  0  0  0  0  0  0  0  0  0
   -2.0584   21.2460  -27.1240 H   0  0  0  0  0  0  0  0  0  0  0  0
   -3.8245   21.6316  -27.3924 H   0  0  0  0  0  0  0  0  0  0  0  0
   -2.6230   20.1639  -29.1471 H   0  0  0  0  0  0  0  0  0  0  0  0
   -3.6235   21.5673  -29.7070 H   0  0  0  0  0  0  0  0  0  0  0  0
   -3.3740   21.9093  -31.9152 H   0  0  0  0  0  0  0  0  0  0  0  0
   -2.9677   21.1640  -34.2684 H   0  0  0  0  0  0  0  0  0  0  0  0
   -0.7156   20.2935  -34.9236 H   0  0  0  0  0  0  0  0  0  0  0  0
    1.0988   20.1671  -33.2081 H   0  0  0  0  0  0  0  0  0  0  0  0
   -0.0214   21.9765  -28.4616 H   0  0  0  0  0  0  0  0  0  0  0  0
    0.1032   23.0963  -29.8697 H   0  0  0  0  0  0  0  0  0  0  0  0
   -0.5931   24.1293  -27.6087 H   0  0  0  0  0  0  0  0  0  0  0  0
   -1.6361   24.4816  -29.0692 H   0  0  0  0  0  0  0  0  0  0  0  0
  1  2  1  0
  2  3  1  0
  3  4  2  0
  4  5  1  0
  5  6  2  0
  6  7  1  0
  7  8  2  0
  8  9  1  0
  9 10  1  0
 10 11  1  0
 11 12  2  0
 12 13  1  0
 13 14  1  0
 14 15  2  0
 14 16  1  0
 16 17  1  0
 17 18  1  0
 18 19  1  0
 19 20  1  0
 20 21  2  0
 21 22  1  0
 22 23  2  0
 23 24  1  0
 24 25  2  0
 19 26  1  0
 26 27  1  0
 13 28  2  0
 28 29  1  0
  8  3  1  0
 29 11  1  0
 27 16  1  0
 25 20  1  0
  1 30  1  0
  1 31  1  0
  1 32  1  0
  4 33  1  0
  5 34  1  0
  6 35  1  0
  7 36  1  0
 10 37  1  0
 10 38  1  0
 12 39  1  0
 16 40  1  0
 17 41  1  0
 17 42  1  0
 18 43  1  0
 18 44  1  0
 21 45  1  0
 22 46  1  0
 23 47  1  0
 24 48  1  0
 26 49  1  0
 26 50  1  0
 27 51  1  0
 27 52  1  0
M  CHG  1  16   1
M  END
>  <UniqueID>  (48) 
47

>  <SMILES>  (48) 
COc1ccccc1OCc1cc(C(=O)[NH+]2CCN(c3ccccn3)CC2)no1

>  <Energy>  (48) 
98.31563219273853

>  <Genealogy>  (48) 
COc1ccccc1OCc1cc(C(=O)[NH+]2CCN(c3ccccn3)CC2)no1 (protonated)
COc1ccccc1OCc1cc(C(=O)[NH+]2CCN(c3ccccn3)CC2)no1 (3D coordinates assigned)
COc1ccccc1OCc1cc(C(=O)[NH+]2CCN(c3ccccn3)CC2)no1 (nonaromatic ring conformer: 98.31563219273853 kcal/mol)

>  <smiles>  (48) 
COc1ccccc1OCc1cc(C(=O)N2CCN(c3ccccn3)CC2)no1

>  <score_type>  (48) 
oracle

>  <origin>  (48) 
adgpu

>  <m_score__min__energy>  (48) 
-8.2799999999999994

>  <m_primary>  (48) 
energy

$$$$
48:0
     RDKit          3D

 56 59  0  0  0  0  0  0  0  0999 V2000
   -9.1660   23.1450  -32.3130 C   0  0  0  0  0  0  0  0  0  0  0  0
   -9.0410   21.6610  -31.9830 C   0  0  0  0  0  0  0  0  0  0  0  0
   -8.3320   21.4510  -30.6420 C   0  0  0  0  0  0  0  0  0  0  0  0
   -7.3370   22.5430  -30.4000 C   0  0  0  0  0  0  0  0  0  0  0  0
   -7.6110   23.7070  -29.7580 N   0  0  0  0  0  0  0  0  0  0  0  0
   -6.5160   24.4650  -29.7930 N   0  0  0  0  0  0  0  0  0  0  0  0
   -6.4320   25.8000  -29.2150 C   0  0  0  0  0  0  0  0  0  0  0  0
   -5.5540   23.8010  -30.4670 C   0  0  0  0  0  0  0  0  0  0  0  0
   -4.2550   24.1610  -30.8090 C   0  0  0  0  0  0  0  0  0  0  0  0
   -3.7620   25.2680  -30.4700 O   0  0  0  0  0  0  0  0  0  0  0  0
   -3.5210   23.2690  -31.5370 N   0  0  0  0  0  0  0  0  0  0  0  0
   -4.0350   22.0550  -31.9300 C   0  0  0  0  0  0  0  0  0  0  0  0
   -3.2080   21.1180  -32.7290 C   0  0  0  0  0  0  0  0  0  0  0  0
   -1.9590   21.5210  -33.2370 C   0  0  0  0  0  0  0  0  0  0  0  0
   -1.1790   20.6340  -33.9840 C   0  0  0  0  0  0  0  0  0  0  0  0
   -1.6290   19.3360  -34.2270 C   0  0  0  0  0  0  0  0  0  0  0  0
   -2.8620   18.9110  -33.7160 C   0  0  0  0  0  0  0  0  0  0  0  0
   -3.4240   17.2640  -34.0090 S   0  0  0  0  0  0  0  0  0  0  0  0
   -2.4750   16.5790  -34.9520 O   0  0  0  0  0  0  0  0  0  0  0  0
   -3.4040   16.5070  -32.7090 O   0  0  0  0  0  0  0  0  0  0  0  0
   -5.0430   17.2140  -34.6730 N   0  0  0  0  0  0  0  0  0  0  0  0
   -5.6760   18.5450  -34.7730 C   0  0  0  0  0  0  0  0  0  0  0  0
   -6.3730   19.0120  -33.4770 C   0  0  0  0  0  0  0  0  0  0  0  0
   -6.9500   17.8590  -32.6280 C   0  0  0  0  0  0  0  0  0  0  0  0
   -8.2310   18.2900  -31.9060 C   0  0  0  0  0  0  0  0  0  0  0  0
   -7.2010   16.6210  -33.4920 C   0  0  0  0  0  0  0  0  0  0  0  0
   -5.8780   16.1310  -34.1010 C   0  0  0  0  0  0  0  0  0  0  0  0
   -3.6550   19.8080  -32.9870 C   0  0  0  0  0  0  0  0  0  0  0  0
   -5.3190   21.7190  -31.5880 N   0  0  0  0  0  0  0  0  0  0  0  0
   -6.0410   22.6010  -30.8600 C   0  0  0  0  0  0  0  0  0  0  0  0
   -9.2149   23.7253  -31.3798 H   0  0  0  0  0  0  0  0  0  0  0  0
   -8.2917   23.4653  -32.8986 H   0  0  0  0  0  0  0  0  0  0  0  0
  -10.0816   23.3146  -32.8986 H   0  0  0  0  0  0  0  0  0  0  0  0
  -10.0469   21.2189  -31.9304 H   0  0  0  0  0  0  0  0  0  0  0  0
   -8.4461   21.1771  -32.7717 H   0  0  0  0  0  0  0  0  0  0  0  0
   -9.0778   21.4547  -29.8334 H   0  0  0  0  0  0  0  0  0  0  0  0
   -7.8039   20.4864  -30.6653 H   0  0  0  0  0  0  0  0  0  0  0  0
   -6.4367   25.7254  -28.1175 H   0  0  0  0  0  0  0  0  0  0  0  0
   -5.5016   26.2848  -29.5456 H   0  0  0  0  0  0  0  0  0  0  0  0
   -7.2943   26.3976  -29.5456 H   0  0  0  0  0  0  0  0  0  0  0  0
   -1.5943   22.5408  -33.0449 H   0  0  0  0  0  0  0  0  0  0  0  0
   -0.2068   20.9605  -34.3818 H   0  0  0  0  0  0  0  0  0  0  0  0
   -1.0139   18.6445  -34.8215 H   0  0  0  0  0  0  0  0  0  0  0  0
   -4.8979   19.2788  -35.0302 H   0  0  0  0  0  0  0  0  0  0  0  0
   -6.4581   18.4666  -35.5425 H   0  0  0  0  0  0  0  0  0  0  0  0
   -5.6391   19.5584  -32.8664 H   0  0  0  0  0  0  0  0  0  0  0  0
   -7.2222   19.6421  -33.7799 H   0  0  0  0  0  0  0  0  0  0  0  0
   -6.2046   17.5981  -31.8623 H   0  0  0  0  0  0  0  0  0  0  0  0
   -8.0744   18.2373  -30.8185 H   0  0  0  0  0  0  0  0  0  0  0  0
   -8.4827   19.3223  -32.1906 H   0  0  0  0  0  0  0  0  0  0  0  0
   -9.0555   17.6198  -32.1906 H   0  0  0  0  0  0  0  0  0  0  0  0
   -7.6335   15.8236  -32.8698 H   0  0  0  0  0  0  0  0  0  0  0  0
   -7.8985   16.8802  -34.3022 H   0  0  0  0  0  0  0  0  0  0  0  0
   -5.2994   15.6271  -33.3128 H   0  0  0  0  0  0  0  0  0  0  0  0
   -6.1384   15.4566  -34.9301 H   0  0  0  0  0  0  0  0  0  0  0  0
   -4.6374   19.4849  -32.6123 H   0  0  0  0  0  0  0  0  0  0  0  0
  1  2  1  0
  2  3  1  0
  3  4  1  0
  4  5  2  0
  5  6  1  0
  6  7  1  0
  6  8  1  0
  8  9  1  0
  9 10  2  0
  9 11  1  0
 11 12  1  0
 12 13  1  0
 13 14  2  0
 14 15  1  0
 15 16  2  0
 16 17  1  0
 17 18  1  0
 18 19  2  0
 18 20  2  0
 18 21  1  0
 21 22  1  0
 22 23  1  0
 23 24  1  0
 24 25  1  0
 24 26  1  0
 26 27  1  0
 17 28  2  0
 12 29  2  0
 29 30  1  0
 30  4  1  0
 30  8  2  0
 28 13  1  0
 27 21  1  0
  1 31  1  0
  1 32  1  0
  1 33  1  0
  2 34  1  0
  2 35  1  0
  3 36  1  0
  3 37  1  0
  7 38  1  0
  7 39  1  0
  7 40  1  0
 14 41  1  0
 15 42  1  0
 16 43  1  0
 22 44  1  0
 22 45  1  0
 23 46  1  0
 23 47  1  0
 24 48  1  0
 25 49  1  0
 25 50  1  0
 25 51  1  0
 26 52  1  0
 26 53  1  0
 27 54  1  0
 27 55  1  0
 28 56  1  0
M  CHG  1  11  -1
M  END
>  <UniqueID>  (49) 
48

>  <SMILES>  (49) 
CCCc1nn(C)c2c(=O)[n-]c(-c3cccc(S(=O)(=O)N4CCC(C)CC4)c3)nc12

>  <Energy>  (49) 
102.78748463499524

>  <Genealogy>  (49) 
CCCc1nn(C)c2c(=O)[n-]c(-c3cccc(S(=O)(=O)N4CCC(C)CC4)c3)nc12 (protonated)
CCCc1nn(C)c2c(=O)[n-]c(-c3cccc(S(=O)(=O)N4CCC(C)CC4)c3)nc12 (3D coordinates assigned)
CCCc1nn(C)c2c(=O)[n-]c(-c3cccc(S(=O)(=O)N4CCC(C)CC4)c3)nc12 (nonaromatic ring conformer: 102.78748463499524 kcal/mol)

>  <smiles>  (49) 
CCCc1nn(C)c2c(=O)[nH]c(-c3cccc(S(=O)(=O)N4CCC(C)CC4)c3)nc12

>  <score_type>  (49) 
oracle

>  <origin>  (49) 
adgpu

>  <m_score__min__energy>  (49) 
-10.869999999999999

>  <m_primary>  (49) 
energy

$$$$
