0:0
     RDKit          3D

 44 46  0  0  0  0  0  0  0  0999 V2000
   -5.3070   24.0130  -29.2380 O   0  0  0  0  0  0  0  0  0  0  0  0
   -4.3490   24.2090  -30.3770 S   0  0  0  0  0  0  0  0  0  0  0  0
   -4.2160   25.6790  -30.6570 O   0  0  0  0  0  0  0  0  0  0  0  0
   -4.9940   23.4200  -31.7780 N   0  0  0  0  0  0  0  0  0  0  0  0
   -6.3000   22.8280  -31.8550 C   0  0  0  0  0  0  0  0  0  0  0  0
   -7.4220   23.6660  -31.8170 C   0  0  0  0  0  0  0  0  0  0  0  0
   -8.7110   23.1270  -31.8840 C   0  0  0  0  0  0  0  0  0  0  0  0
   -8.8900   21.7460  -31.9910 C   0  0  0  0  0  0  0  0  0  0  0  0
   -7.7760   20.8940  -32.0410 C   0  0  0  0  0  0  0  0  0  0  0  0
   -7.9940   19.1470  -32.1950 S   0  0  0  0  0  0  0  0  0  0  0  0
   -8.2830   18.5630  -30.8380 O   0  0  0  0  0  0  0  0  0  0  0  0
   -9.1800   18.8760  -33.0780 O   0  0  0  0  0  0  0  0  0  0  0  0
   -6.5790   18.3720  -32.8630 N   0  0  0  0  0  0  0  0  0  0  0  0
   -6.1620   19.0460  -34.1020 C   0  0  0  0  0  0  0  0  0  0  0  0
   -4.7710   18.5440  -34.5380 C   0  0  0  0  0  0  0  0  0  0  0  0
   -4.4620   17.1340  -34.0000 C   0  0  0  0  0  0  0  0  0  0  0  0
   -5.7290   16.2730  -33.9530 C   0  0  0  0  0  0  0  0  0  0  0  0
   -6.8420   16.9370  -33.1090 C   0  0  0  0  0  0  0  0  0  0  0  0
   -6.4850   21.4370  -31.9720 C   0  0  0  0  0  0  0  0  0  0  0  0
   -2.7540   23.5460  -30.0060 C   0  0  0  0  0  0  0  0  0  0  0  0
   -2.4830   22.2080  -30.3340 C   0  0  0  0  0  0  0  0  0  0  0  0
   -1.2500   21.6330  -30.0080 C   0  0  0  0  0  0  0  0  0  0  0  0
   -0.9030   19.8040  -30.4460 Br  0  0  0  0  0  0  0  0  0  0  0  0
   -0.2800   22.3930  -29.3480 C   0  0  0  0  0  0  0  0  0  0  0  0
   -0.5390   23.7270  -29.0200 C   0  0  0  0  0  0  0  0  0  0  0  0
   -1.7670   24.3100  -29.3530 C   0  0  0  0  0  0  0  0  0  0  0  0
   -1.9910   25.6450  -29.0310 O   0  0  0  0  0  0  0  0  0  0  0  0
   -7.2885   24.7547  -31.7340 H   0  0  0  0  0  0  0  0  0  0  0  0
   -9.5862   23.7927  -31.8523 H   0  0  0  0  0  0  0  0  0  0  0  0
   -9.9055   21.3256  -32.0361 H   0  0  0  0  0  0  0  0  0  0  0  0
   -6.8917   18.8304  -34.8964 H   0  0  0  0  0  0  0  0  0  0  0  0
   -6.1126   20.1301  -33.9221 H   0  0  0  0  0  0  0  0  0  0  0  0
   -4.7325   18.5193  -35.6370 H   0  0  0  0  0  0  0  0  0  0  0  0
   -4.0202   19.2334  -34.1246 H   0  0  0  0  0  0  0  0  0  0  0  0
   -3.7239   16.6519  -34.6579 H   0  0  0  0  0  0  0  0  0  0  0  0
   -4.0649   17.2284  -32.9785 H   0  0  0  0  0  0  0  0  0  0  0  0
   -6.0988   16.1269  -34.9786 H   0  0  0  0  0  0  0  0  0  0  0  0
   -5.4723   15.3111  -33.4853 H   0  0  0  0  0  0  0  0  0  0  0  0
   -7.7980   16.8392  -33.6443 H   0  0  0  0  0  0  0  0  0  0  0  0
   -6.8739   16.4286  -32.1341 H   0  0  0  0  0  0  0  0  0  0  0  0
   -5.6101   20.7713  -32.0096 H   0  0  0  0  0  0  0  0  0  0  0  0
   -3.2458   21.6074  -30.8511 H   0  0  0  0  0  0  0  0  0  0  0  0
    0.6881   21.9409  -29.0865 H   0  0  0  0  0  0  0  0  0  0  0  0
    0.2256   24.3210  -28.4980 H   0  0  0  0  0  0  0  0  0  0  0  0
  1  2  2  0
  2  3  2  0
  2  4  1  0
  4  5  1  0
  5  6  2  0
  6  7  1  0
  7  8  2  0
  8  9  1  0
  9 10  1  0
 10 11  2  0
 10 12  2  0
 10 13  1  0
 13 14  1  0
 14 15  1  0
 15 16  1  0
 16 17  1  0
 17 18  1  0
  9 19  2  0
  2 20  1  0
 20 21  2  0
 21 22  1  0
 22 23  1  0
 22 24  2  0
 24 25  1  0
 25 26  2  0
 26 27  1  0
 19  5  1  0
 26 20  1  0
 18 13  1  0
  6 28  1  0
  7 29  1  0
  8 30  1  0
 14 31  1  0
 14 32  1  0
 15 33  1  0
 15 34  1  0
 16 35  1  0
 16 36  1  0
 17 37  1  0
 17 38  1  0
 18 39  1  0
 18 40  1  0
 19 41  1  0
 21 42  1  0
 24 43  1  0
 25 44  1  0
M  CHG  2   4  -1  27  -1
M  END
>  <UniqueID>  (1) 
1

>  <SMILES>  (1) 
O=S(=O)([N-]c1cccc(S(=O)(=O)N2CCCCC2)c1)c1cc(Br)ccc1[O-]

>  <Energy>  (1) 
50.95670155886976

>  <Genealogy>  (1) 
O=S(=O)([N-]c1cccc(S(=O)(=O)N2CCCCC2)c1)c1cc(Br)ccc1[O-] (protonated)
O=S(=O)([N-]c1cccc(S(=O)(=O)N2CCCCC2)c1)c1cc(Br)ccc1[O-] (3D coordinates assigned)
O=S(=O)([N-]c1cccc(S(=O)(=O)N2CCCCC2)c1)c1cc(Br)ccc1[O-] (nonaromatic ring conformer: 50.95670155886976 kcal/mol)

>  <smiles>  (1) 
O=S(=O)(Nc1cccc(S(=O)(=O)N2CCCCC2)c1)c1cc(Br)ccc1O

>  <score_type>  (1) 
oracle

>  <origin>  (1) 
adgpu

>  <m_score__min__energy>  (1) 
-14.880000000000001

>  <m_primary>  (1) 
energy

$$$$
1:0
     RDKit          3D

 72 76  0  0  0  0  0  0  0  0999 V2000
   -1.7700   24.6490  -29.4340 O   0  0  0  0  0  0  0  0  0  0  0  0
   -2.0950   23.4980  -29.8290 C   0  0  0  0  0  0  0  0  0  0  0  0
   -1.1830   22.4110  -29.6030 N   0  0  0  0  0  0  0  0  0  0  0  0
   -0.9180   21.3320  -30.5130 C   0  0  0  0  0  0  0  0  0  0  0  0
   -0.4960   21.5810  -31.8310 C   0  0  0  0  0  0  0  0  0  0  0  0
   -0.3810   20.5320  -32.7510 C   0  0  0  0  0  0  0  0  0  0  0  0
    0.0430   20.8890  -34.4210 S   0  0  0  0  0  0  0  0  0  0  0  0
   -1.1750   20.7810  -35.2990 O   0  0  0  0  0  0  0  0  0  0  0  0
    0.5610   22.2990  -34.4910 O   0  0  0  0  0  0  0  0  0  0  0  0
    1.2710   19.7720  -34.9580 N   0  0  0  0  0  0  0  0  0  0  0  0
    2.4420   19.7830  -34.0440 C   0  0  0  0  0  0  0  0  0  0  0  0
    2.4770   18.5730  -33.0990 C   0  0  0  0  0  0  0  0  0  0  0  0
    2.5040   17.2540  -33.8910 C   0  0  0  0  0  0  0  0  0  0  0  0
    1.7450   17.3450  -35.2270 C   0  0  0  0  0  0  0  0  0  0  0  0
    0.6720   18.4380  -35.1800 C   0  0  0  0  0  0  0  0  0  0  0  0
   -0.6240   19.2170  -32.3360 C   0  0  0  0  0  0  0  0  0  0  0  0
   -0.9900   18.9550  -31.0130 C   0  0  0  0  0  0  0  0  0  0  0  0
   -1.1340   20.0080  -30.0990 C   0  0  0  0  0  0  0  0  0  0  0  0
   -1.5770   19.7310  -28.7690 N   0  0  0  0  0  0  0  0  0  0  0  0
   -0.8870   18.8170  -27.8810 C   0  0  0  0  0  0  0  0  0  0  0  0
   -1.6350   18.8980  -26.5560 C   0  0  0  0  0  0  0  0  0  0  0  0
   -2.9640   19.5920  -26.8600 C   0  0  0  0  0  0  0  0  0  0  0  0
   -2.7810   20.2980  -28.1970 C   0  0  0  0  0  0  0  0  0  0  0  0
   -3.4180   23.2930  -30.4760 C   0  0  0  0  0  0  0  0  0  0  0  0
   -3.8590   22.0010  -30.7920 C   0  0  0  0  0  0  0  0  0  0  0  0
   -5.0410   21.8210  -31.5100 C   0  0  0  0  0  0  0  0  0  0  0  0
   -5.5140   20.2160  -32.0540 S   0  0  0  0  0  0  0  0  0  0  0  0
   -4.9410   19.1810  -31.1220 O   0  0  0  0  0  0  0  0  0  0  0  0
   -7.0160   20.1340  -32.0290 O   0  0  0  0  0  0  0  0  0  0  0  0
   -4.9220   19.9540  -33.6820 N   0  0  0  0  0  0  0  0  0  0  0  0
   -3.4790   19.6080  -33.7030 C   0  0  0  0  0  0  0  0  0  0  0  0
   -3.1790   18.2060  -34.2600 C   0  0  0  0  0  0  0  0  0  0  0  0
   -4.1670   17.1810  -33.7060 C   0  0  0  0  0  0  0  0  0  0  0  0
   -5.6280   17.5660  -34.0020 C   0  0  0  0  0  0  0  0  0  0  0  0
   -5.7880   19.0320  -34.4430 C   0  0  0  0  0  0  0  0  0  0  0  0
   -5.7890   22.9490  -31.8560 C   0  0  0  0  0  0  0  0  0  0  0  0
   -5.3820   24.1620  -31.4950 O   0  0  0  0  0  0  0  0  0  0  0  0
   -4.2490   24.3760  -30.8320 C   0  0  0  0  0  0  0  0  0  0  0  0
   -3.9260   25.5590  -30.5410 O   0  0  0  0  0  0  0  0  0  0  0  0
   -0.2543   22.6082  -32.1417 H   0  0  0  0  0  0  0  0  0  0  0  0
    3.3599   19.7810  -34.6502 H   0  0  0  0  0  0  0  0  0  0  0  0
    2.3639   20.6856  -33.4201 H   0  0  0  0  0  0  0  0  0  0  0  0
    3.3778   18.6335  -32.4706 H   0  0  0  0  0  0  0  0  0  0  0  0
    1.5703   18.5889  -32.4763 H   0  0  0  0  0  0  0  0  0  0  0  0
    3.5515   16.9903  -34.0991 H   0  0  0  0  0  0  0  0  0  0  0  0
    2.0049   16.4892  -33.2779 H   0  0  0  0  0  0  0  0  0  0  0  0
    2.4593   17.5774  -36.0306 H   0  0  0  0  0  0  0  0  0  0  0  0
    1.2518   16.3798  -35.4145 H   0  0  0  0  0  0  0  0  0  0  0  0
    0.1261   18.4451  -36.1349 H   0  0  0  0  0  0  0  0  0  0  0  0
   -0.0083   18.2200  -34.3435 H   0  0  0  0  0  0  0  0  0  0  0  0
   -0.5266   18.3884  -33.0529 H   0  0  0  0  0  0  0  0  0  0  0  0
   -1.1657   17.9190  -30.6878 H   0  0  0  0  0  0  0  0  0  0  0  0
   -0.9215   17.7927  -28.2804 H   0  0  0  0  0  0  0  0  0  0  0  0
    0.1751   19.0801  -27.7679 H   0  0  0  0  0  0  0  0  0  0  0  0
   -1.8140   17.8889  -26.1565 H   0  0  0  0  0  0  0  0  0  0  0  0
   -1.0565   19.4511  -25.8014 H   0  0  0  0  0  0  0  0  0  0  0  0
   -3.7739   18.8508  -26.9283 H   0  0  0  0  0  0  0  0  0  0  0  0
   -3.2346   20.3033  -26.0658 H   0  0  0  0  0  0  0  0  0  0  0  0
   -3.6440   20.1104  -28.8527 H   0  0  0  0  0  0  0  0  0  0  0  0
   -2.7028   21.3886  -28.0767 H   0  0  0  0  0  0  0  0  0  0  0  0
   -3.2718   21.1272  -30.4732 H   0  0  0  0  0  0  0  0  0  0  0  0
   -2.9553   20.3472  -34.3269 H   0  0  0  0  0  0  0  0  0  0  0  0
   -3.1351   19.6152  -32.6581 H   0  0  0  0  0  0  0  0  0  0  0  0
   -3.2594   18.2286  -35.3568 H   0  0  0  0  0  0  0  0  0  0  0  0
   -2.1621   17.9158  -33.9573 H   0  0  0  0  0  0  0  0  0  0  0  0
   -3.9580   16.2032  -34.1645 H   0  0  0  0  0  0  0  0  0  0  0  0
   -4.0409   17.1449  -32.6139 H   0  0  0  0  0  0  0  0  0  0  0  0
   -6.0058   16.9156  -34.8047 H   0  0  0  0  0  0  0  0  0  0  0  0
   -6.1962   17.4401  -33.0686 H   0  0  0  0  0  0  0  0  0  0  0  0
   -5.5315   19.1084  -35.5100 H   0  0  0  0  0  0  0  0  0  0  0  0
   -6.8315   19.3238  -34.2533 H   0  0  0  0  0  0  0  0  0  0  0  0
   -6.7199   22.8329  -32.4303 H   0  0  0  0  0  0  0  0  0  0  0  0
  1  2  2  0
  2  3  1  0
  3  4  1  0
  4  5  2  0
  5  6  1  0
  6  7  1  0
  7  8  2  0
  7  9  2  0
  7 10  1  0
 10 11  1  0
 11 12  1  0
 12 13  1  0
 13 14  1  0
 14 15  1  0
  6 16  2  0
 16 17  1  0
 17 18  2  0
 18 19  1  0
 19 20  1  0
 20 21  1  0
 21 22  1  0
 22 23  1  0
  2 24  1  0
 24 25  2  0
 25 26  1  0
 26 27  1  0
 27 28  2  0
 27 29  2  0
 27 30  1  0
 30 31  1  0
 31 32  1  0
 32 33  1  0
 33 34  1  0
 34 35  1  0
 26 36  2  0
 36 37  1  0
 37 38  1  0
 38 39  2  0
 18  4  1  0
 23 19  1  0
 38 24  1  0
 15 10  1  0
 35 30  1  0
  5 40  1  0
 11 41  1  0
 11 42  1  0
 12 43  1  0
 12 44  1  0
 13 45  1  0
 13 46  1  0
 14 47  1  0
 14 48  1  0
 15 49  1  0
 15 50  1  0
 16 51  1  0
 17 52  1  0
 20 53  1  0
 20 54  1  0
 21 55  1  0
 21 56  1  0
 22 57  1  0
 22 58  1  0
 23 59  1  0
 23 60  1  0
 25 61  1  0
 31 62  1  0
 31 63  1  0
 32 64  1  0
 32 65  1  0
 33 66  1  0
 33 67  1  0
 34 68  1  0
 34 69  1  0
 35 70  1  0
 35 71  1  0
 36 72  1  0
M  CHG  1   3  -1
M  END
>  <UniqueID>  (2) 
2

>  <SMILES>  (2) 
O=C([N-]c1cc(S(=O)(=O)N2CCCCC2)ccc1N1CCCC1)c1cc(S(=O)(=O)N2CCCCC2)coc1=O

>  <Energy>  (2) 
99.94287987688875

>  <Genealogy>  (2) 
O=C([N-]c1cc(S(=O)(=O)N2CCCCC2)ccc1N1CCCC1)c1cc(S(=O)(=O)N2CCCCC2)coc1=O (protonated)
O=C([N-]c1cc(S(=O)(=O)N2CCCCC2)ccc1N1CCCC1)c1cc(S(=O)(=O)N2CCCCC2)coc1=O (3D coordinates assigned)
O=C([N-]c1cc(S(=O)(=O)N2CCCCC2)ccc1N1CCCC1)c1cc(S(=O)(=O)N2CCCCC2)coc1=O (nonaromatic ring conformer: 99.94287987688875 kcal/mol)

>  <smiles>  (2) 
O=C(Nc1cc(S(=O)(=O)N2CCCCC2)ccc1N1CCCC1)c1cc(S(=O)(=O)N2CCCCC2)coc1=O

>  <score_type>  (2) 
oracle

>  <origin>  (2) 
adgpu

>  <m_score__min__energy>  (2) 
-11.869999999999999

>  <m_primary>  (2) 
energy

$$$$
2:0
     RDKit          3D

 40 42  0  0  0  0  0  0  0  0999 V2000
   -9.3910   23.7880  -32.7050 O   0  0  0  0  0  0  0  0  0  0  0  0
   -8.6610   23.0730  -31.9690 C   0  0  0  0  0  0  0  0  0  0  0  0
   -9.1330   21.7700  -31.5940 N   0  0  0  0  0  0  0  0  0  0  0  0
   -8.4590   20.5260  -31.8320 C   0  0  0  0  0  0  0  0  0  0  0  0
   -9.1240   19.2930  -31.7220 C   0  0  0  0  0  0  0  0  0  0  0  0
   -8.4430   18.1010  -31.9820 C   0  0  0  0  0  0  0  0  0  0  0  0
   -7.0990   18.1300  -32.3630 C   0  0  0  0  0  0  0  0  0  0  0  0
   -6.4300   19.3560  -32.4890 C   0  0  0  0  0  0  0  0  0  0  0  0
   -4.7470   19.4030  -33.0080 S   0  0  0  0  0  0  0  0  0  0  0  0
   -4.0190   18.2240  -32.4260 O   0  0  0  0  0  0  0  0  0  0  0  0
   -4.6760   19.3170  -34.5070 O   0  0  0  0  0  0  0  0  0  0  0  0
   -4.0110   20.8810  -32.4440 N   0  0  0  0  0  0  0  0  0  0  0  0
   -3.8500   20.8900  -30.9890 C   0  0  0  0  0  0  0  0  0  0  0  0
   -2.6680   21.8000  -30.6860 C   0  0  0  0  0  0  0  0  0  0  0  0
   -1.8990   21.9160  -31.9930 C   0  0  0  0  0  0  0  0  0  0  0  0
   -2.6660   21.0640  -32.9940 C   0  0  0  0  0  0  0  0  0  0  0  0
   -7.1180   20.5500  -32.2360 C   0  0  0  0  0  0  0  0  0  0  0  0
   -7.3250   23.5720  -31.5650 C   0  0  0  0  0  0  0  0  0  0  0  0
   -7.1800   24.3540  -30.4070 C   0  0  0  0  0  0  0  0  0  0  0  0
   -5.9210   24.8260  -30.0330 C   0  0  0  0  0  0  0  0  0  0  0  0
   -4.8130   24.5230  -30.8280 C   0  0  0  0  0  0  0  0  0  0  0  0
   -3.6700   24.9400  -30.5050 O   0  0  0  0  0  0  0  0  0  0  0  0
   -4.9680   23.7780  -31.9540 N   0  0  0  0  0  0  0  0  0  0  0  0
   -6.1830   23.3040  -32.3390 C   0  0  0  0  0  0  0  0  0  0  0  0
  -10.1843   19.2661  -31.4302 H   0  0  0  0  0  0  0  0  0  0  0  0
   -8.9659   17.1379  -31.8866 H   0  0  0  0  0  0  0  0  0  0  0  0
   -6.5649   17.1897  -32.5644 H   0  0  0  0  0  0  0  0  0  0  0  0
   -4.6160   21.6870  -32.7310 H   0  0  0  0  0  0  0  0  0  0  0  0
   -4.7604   21.2784  -30.5091 H   0  0  0  0  0  0  0  0  0  0  0  0
   -3.6768   19.8744  -30.6035 H   0  0  0  0  0  0  0  0  0  0  0  0
   -3.0189   22.7894  -30.3573 H   0  0  0  0  0  0  0  0  0  0  0  0
   -2.0401   21.3977  -29.8774 H   0  0  0  0  0  0  0  0  0  0  0  0
   -1.8644   22.9635  -32.3269 H   0  0  0  0  0  0  0  0  0  0  0  0
   -0.8574   21.5793  -31.8845 H   0  0  0  0  0  0  0  0  0  0  0  0
   -2.7199   21.5764  -33.9659 H   0  0  0  0  0  0  0  0  0  0  0  0
   -2.1682   20.0964  -33.1549 H   0  0  0  0  0  0  0  0  0  0  0  0
   -6.6011   21.5136  -32.3555 H   0  0  0  0  0  0  0  0  0  0  0  0
   -8.0608   24.5948  -29.7936 H   0  0  0  0  0  0  0  0  0  0  0  0
   -5.8024   25.4304  -29.1216 H   0  0  0  0  0  0  0  0  0  0  0  0
   -6.2723   22.7086  -33.2596 H   0  0  0  0  0  0  0  0  0  0  0  0
  1  2  2  0
  2  3  1  0
  3  4  1  0
  4  5  2  0
  5  6  1  0
  6  7  2  0
  7  8  1  0
  8  9  1  0
  9 10  2  0
  9 11  2  0
  9 12  1  0
 12 13  1  0
 13 14  1  0
 14 15  1  0
 15 16  1  0
  8 17  2  0
  2 18  1  0
 18 19  1  0
 19 20  2  0
 20 21  1  0
 21 22  2  0
 21 23  1  0
 23 24  1  0
 17  4  1  0
 24 18  2  0
 16 12  1  0
  5 25  1  0
  6 26  1  0
  7 27  1  0
 12 28  1  0
 13 29  1  0
 13 30  1  0
 14 31  1  0
 14 32  1  0
 15 33  1  0
 15 34  1  0
 16 35  1  0
 16 36  1  0
 17 37  1  0
 19 38  1  0
 20 39  1  0
 24 40  1  0
M  CHG  3   3  -1  12   1  23  -1
M  END
>  <UniqueID>  (3) 
3

>  <SMILES>  (3) 
O=C([N-]c1cccc(S(=O)(=O)[NH+]2CCCC2)c1)c1ccc(=O)[n-]c1

>  <Energy>  (3) 
49.79902208542685

>  <Genealogy>  (3) 
O=C([N-]c1cccc(S(=O)(=O)[NH+]2CCCC2)c1)c1ccc(=O)[n-]c1 (protonated)
O=C([N-]c1cccc(S(=O)(=O)[NH+]2CCCC2)c1)c1ccc(=O)[n-]c1 (3D coordinates assigned)
O=C([N-]c1cccc(S(=O)(=O)[NH+]2CCCC2)c1)c1ccc(=O)[n-]c1 (nonaromatic ring conformer: 49.79902208542685 kcal/mol)

>  <smiles>  (3) 
O=C(Nc1cccc(S(=O)(=O)N2CCCC2)c1)c1ccc(=O)[nH]c1

>  <score_type>  (3) 
oracle

>  <origin>  (3) 
adgpu

>  <m_score__min__energy>  (3) 
-10.16

>  <m_primary>  (3) 
energy

$$$$
3:0
     RDKit          3D

 51 54  0  0  0  0  0  0  0  0999 V2000
   -0.8790   26.5400  -25.2850 C   0  0  0  0  0  0  0  0  0  0  0  0
   -1.0410   25.4120  -26.2610 C   0  0  0  0  0  0  0  0  0  0  0  0
   -1.4020   25.6770  -27.5890 C   0  0  0  0  0  0  0  0  0  0  0  0
   -1.6080   24.6270  -28.4870 C   0  0  0  0  0  0  0  0  0  0  0  0
   -1.4620   23.2990  -28.0700 C   0  0  0  0  0  0  0  0  0  0  0  0
   -1.7200   22.2430  -29.0050 N   0  0  0  0  0  0  0  0  0  0  0  0
   -3.1050   21.9840  -29.4200 C   0  0  0  0  0  0  0  0  0  0  0  0
   -3.1670   20.8460  -30.4400 C   0  0  0  0  0  0  0  0  0  0  0  0
   -2.1360   21.0500  -31.4650 N   0  0  0  0  0  0  0  0  0  0  0  0
   -2.4580   20.9720  -32.8600 C   0  0  0  0  0  0  0  0  0  0  0  0
   -1.8680   20.1300  -33.5910 O   0  0  0  0  0  0  0  0  0  0  0  0
   -3.4560   21.9130  -33.4690 C   0  0  0  0  0  0  0  0  0  0  0  0
   -4.7860   21.6930  -32.9080 N   0  0  0  0  0  0  0  0  0  0  0  0
   -5.5700   22.6280  -32.1580 C   0  0  0  0  0  0  0  0  0  0  0  0
   -5.1510   23.7470  -31.7530 O   0  0  0  0  0  0  0  0  0  0  0  0
   -6.9040   22.0850  -31.9310 C   0  0  0  0  0  0  0  0  0  0  0  0
   -7.9960   22.6150  -31.2410 C   0  0  0  0  0  0  0  0  0  0  0  0
   -9.1740   21.8470  -31.1820 C   0  0  0  0  0  0  0  0  0  0  0  0
   -9.2360   20.5790  -31.8060 C   0  0  0  0  0  0  0  0  0  0  0  0
   -8.1210   20.0670  -32.4950 C   0  0  0  0  0  0  0  0  0  0  0  0
   -6.9650   20.8460  -32.5390 C   0  0  0  0  0  0  0  0  0  0  0  0
   -5.6670   20.5950  -33.1600 C   0  0  0  0  0  0  0  0  0  0  0  0
   -5.3590   19.5740  -33.8340 O   0  0  0  0  0  0  0  0  0  0  0  0
   -0.7450   21.3220  -31.0730 C   0  0  0  0  0  0  0  0  0  0  0  0
   -0.6050   21.4580  -29.5490 C   0  0  0  0  0  0  0  0  0  0  0  0
   -1.1040   23.0190  -26.7330 C   0  0  0  0  0  0  0  0  0  0  0  0
   -1.0090   21.6030  -26.2290 C   0  0  0  0  0  0  0  0  0  0  0  0
   -0.9170   24.0820  -25.8330 C   0  0  0  0  0  0  0  0  0  0  0  0
   -0.9353   26.1479  -24.2588 H   0  0  0  0  0  0  0  0  0  0  0  0
    0.0976   27.0219  -25.4403 H   0  0  0  0  0  0  0  0  0  0  0  0
   -1.6805   27.2772  -25.4403 H   0  0  0  0  0  0  0  0  0  0  0  0
   -1.5237   26.7170  -27.9259 H   0  0  0  0  0  0  0  0  0  0  0  0
   -1.8867   24.8453  -29.5285 H   0  0  0  0  0  0  0  0  0  0  0  0
   -3.6998   21.7083  -28.5367 H   0  0  0  0  0  0  0  0  0  0  0  0
   -3.5078   22.8953  -29.8862 H   0  0  0  0  0  0  0  0  0  0  0  0
   -2.9924   19.8870  -29.9303 H   0  0  0  0  0  0  0  0  0  0  0  0
   -4.1589   20.8337  -30.9154 H   0  0  0  0  0  0  0  0  0  0  0  0
   -3.1458   22.9486  -33.2658 H   0  0  0  0  0  0  0  0  0  0  0  0
   -3.4962   21.7308  -34.5531 H   0  0  0  0  0  0  0  0  0  0  0  0
   -7.9375   23.6019  -30.7586 H   0  0  0  0  0  0  0  0  0  0  0  0
  -10.0529   22.2356  -30.6467 H   0  0  0  0  0  0  0  0  0  0  0  0
  -10.1627   19.9888  -31.7522 H   0  0  0  0  0  0  0  0  0  0  0  0
   -8.1599   19.0824  -32.9840 H   0  0  0  0  0  0  0  0  0  0  0  0
   -0.1082   20.4940  -31.4178 H   0  0  0  0  0  0  0  0  0  0  0  0
   -0.4364   22.2720  -31.5338 H   0  0  0  0  0  0  0  0  0  0  0  0
   -0.6090   20.4569  -29.0931 H   0  0  0  0  0  0  0  0  0  0  0  0
    0.3405   21.9714  -29.3200 H   0  0  0  0  0  0  0  0  0  0  0  0
   -1.0091   21.6045  -25.1290 H   0  0  0  0  0  0  0  0  0  0  0  0
   -1.8704   21.0250  -26.5949 H   0  0  0  0  0  0  0  0  0  0  0  0
   -0.0781   21.1452  -26.5949 H   0  0  0  0  0  0  0  0  0  0  0  0
   -0.6709   23.8689  -24.7823 H   0  0  0  0  0  0  0  0  0  0  0  0
  1  2  1  0
  2  3  2  0
  3  4  1  0
  4  5  2  0
  5  6  1  0
  6  7  1  0
  7  8  1  0
  8  9  1  0
  9 10  1  0
 10 11  2  0
 10 12  1  0
 12 13  1  0
 13 14  1  0
 14 15  2  0
 14 16  1  0
 16 17  2  0
 17 18  1  0
 18 19  2  0
 19 20  1  0
 20 21  2  0
 21 22  1  0
 22 23  2  0
  9 24  1  0
 24 25  1  0
  5 26  1  0
 26 27  1  0
 26 28  2  0
 28  2  1  0
 25  6  1  0
 22 13  1  0
 21 16  1  0
  1 29  1  0
  1 30  1  0
  1 31  1  0
  3 32  1  0
  4 33  1  0
  7 34  1  0
  7 35  1  0
  8 36  1  0
  8 37  1  0
 12 38  1  0
 12 39  1  0
 17 40  1  0
 18 41  1  0
 19 42  1  0
 20 43  1  0
 24 44  1  0
 24 45  1  0
 25 46  1  0
 25 47  1  0
 27 48  1  0
 27 49  1  0
 27 50  1  0
 28 51  1  0
M  END
>  <UniqueID>  (4) 
4

>  <SMILES>  (4) 
Cc1ccc(N2CCN(C(=O)CN3C(=O)c4ccccc4C3=O)CC2)c(C)c1

>  <Energy>  (4) 
93.44748970558496

>  <Genealogy>  (4) 
Cc1ccc(N2CCN(C(=O)CN3C(=O)c4ccccc4C3=O)CC2)c(C)c1 (3D coordinates assigned)
Cc1ccc(N2CCN(C(=O)CN3C(=O)c4ccccc4C3=O)CC2)c(C)c1 (nonaromatic ring conformer: 93.44748970558496 kcal/mol)

>  <smiles>  (4) 
Cc1ccc(N2CCN(C(=O)CN3C(=O)c4ccccc4C3=O)CC2)c(C)c1

>  <score_type>  (4) 
oracle

>  <origin>  (4) 
adgpu

>  <m_score__min__energy>  (4) 
-9.5099999999999998

>  <m_primary>  (4) 
energy

$$$$
4:0
     RDKit          3D

 53 56  0  0  0  0  0  0  0  0999 V2000
    0.1860   20.1820  -35.8960 N   0  0  0  0  0  0  0  0  0  0  0  0
   -0.2520   21.1290  -34.9230 C   0  0  0  0  0  0  0  0  0  0  0  0
    0.2370   22.2920  -34.9360 O   0  0  0  0  0  0  0  0  0  0  0  0
   -1.2650   20.7540  -33.9080 C   0  0  0  0  0  0  0  0  0  0  0  0
   -1.2690   21.3610  -32.6400 C   0  0  0  0  0  0  0  0  0  0  0  0
   -2.2340   21.0160  -31.6740 C   0  0  0  0  0  0  0  0  0  0  0  0
   -2.2270   21.6740  -30.3420 C   0  0  0  0  0  0  0  0  0  0  0  0
   -1.5110   22.8150  -29.9760 C   0  0  0  0  0  0  0  0  0  0  0  0
   -1.7090   23.1980  -28.6430 C   0  0  0  0  0  0  0  0  0  0  0  0
   -2.5770   22.3710  -27.9460 C   0  0  0  0  0  0  0  0  0  0  0  0
   -3.0960   21.1610  -28.9900 S   0  0  0  0  0  0  0  0  0  0  0  0
   -3.1910   20.0370  -31.9900 C   0  0  0  0  0  0  0  0  0  0  0  0
   -3.1830   19.4070  -33.2390 C   0  0  0  0  0  0  0  0  0  0  0  0
   -4.1800   18.3630  -33.5590 C   0  0  0  0  0  0  0  0  0  0  0  0
   -3.7170   17.0630  -33.8220 C   0  0  0  0  0  0  0  0  0  0  0  0
   -4.6150   16.0370  -34.1190 C   0  0  0  0  0  0  0  0  0  0  0  0
   -5.9850   16.2930  -34.1480 C   0  0  0  0  0  0  0  0  0  0  0  0
   -6.4640   17.5780  -33.8810 C   0  0  0  0  0  0  0  0  0  0  0  0
   -5.5750   18.6290  -33.5880 C   0  0  0  0  0  0  0  0  0  0  0  0
   -6.1610   19.9820  -33.2460 C   0  0  0  0  0  0  0  0  0  0  0  0
   -7.5220   19.8500  -32.7060 N   0  0  0  0  0  0  0  0  0  0  0  0
   -8.1600   21.1410  -32.3810 C   0  0  0  0  0  0  0  0  0  0  0  0
   -7.9210   21.6160  -30.9330 C   0  0  0  0  0  0  0  0  0  0  0  0
   -6.8550   22.6790  -30.8440 C   0  0  0  0  0  0  0  0  0  0  0  0
   -7.1100   23.8900  -30.1740 C   0  0  0  0  0  0  0  0  0  0  0  0
   -6.1150   24.8690  -30.0860 C   0  0  0  0  0  0  0  0  0  0  0  0
   -4.8560   24.6420  -30.6550 C   0  0  0  0  0  0  0  0  0  0  0  0
   -3.8670   25.6150  -30.5630 O   0  0  0  0  0  0  0  0  0  0  0  0
   -4.5930   23.4360  -31.3150 C   0  0  0  0  0  0  0  0  0  0  0  0
   -5.5880   22.4590  -31.4090 C   0  0  0  0  0  0  0  0  0  0  0  0
   -2.2360   19.7840  -34.2010 C   0  0  0  0  0  0  0  0  0  0  0  0
   -0.4570   19.4370  -36.2430 H   0  0  0  0  0  0  0  0  0  0  0  0
   -0.5070   22.1167  -32.3987 H   0  0  0  0  0  0  0  0  0  0  0  0
   -0.8538   23.3615  -30.6684 H   0  0  0  0  0  0  0  0  0  0  0  0
   -1.2209   24.0740  -28.1909 H   0  0  0  0  0  0  0  0  0  0  0  0
   -2.8740   22.4869  -26.8932 H   0  0  0  0  0  0  0  0  0  0  0  0
   -3.9547   19.7630  -31.2473 H   0  0  0  0  0  0  0  0  0  0  0  0
   -2.6378   16.8521  -33.7936 H   0  0  0  0  0  0  0  0  0  0  0  0
   -4.2411   15.0244  -34.3306 H   0  0  0  0  0  0  0  0  0  0  0  0
   -6.6902   15.4818  -34.3815 H   0  0  0  0  0  0  0  0  0  0  0  0
   -7.5469   17.7702  -33.9000 H   0  0  0  0  0  0  0  0  0  0  0  0
   -5.5226   20.4702  -32.4949 H   0  0  0  0  0  0  0  0  0  0  0  0
   -6.2076   20.5842  -34.1653 H   0  0  0  0  0  0  0  0  0  0  0  0
   -8.1100   19.3270  -33.3960 H   0  0  0  0  0  0  0  0  0  0  0  0
   -7.7617   21.9048  -33.0651 H   0  0  0  0  0  0  0  0  0  0  0  0
   -9.2447   20.9950  -32.4915 H   0  0  0  0  0  0  0  0  0  0  0  0
   -8.8617   22.0252  -30.5359 H   0  0  0  0  0  0  0  0  0  0  0  0
   -7.5792   20.7492  -30.3483 H   0  0  0  0  0  0  0  0  0  0  0  0
   -8.0952   24.0672  -29.7180 H   0  0  0  0  0  0  0  0  0  0  0  0
   -6.3217   25.8179  -29.5694 H   0  0  0  0  0  0  0  0  0  0  0  0
   -3.6030   23.2571  -31.7598 H   0  0  0  0  0  0  0  0  0  0  0  0
   -5.3777   21.5124  -31.9284 H   0  0  0  0  0  0  0  0  0  0  0  0
   -2.2540   19.3148  -35.1958 H   0  0  0  0  0  0  0  0  0  0  0  0
  1  2  1  0
  2  3  2  0
  2  4  1  0
  4  5  2  0
  5  6  1  0
  6  7  1  0
  7  8  2  0
  8  9  1  0
  9 10  2  0
 10 11  1  0
  6 12  2  0
 12 13  1  0
 13 14  1  0
 14 15  2  0
 15 16  1  0
 16 17  2  0
 17 18  1  0
 18 19  2  0
 19 20  1  0
 20 21  1  0
 21 22  1  0
 22 23  1  0
 23 24  1  0
 24 25  2  0
 25 26  1  0
 26 27  2  0
 27 28  1  0
 27 29  1  0
 29 30  2  0
 13 31  2  0
 31  4  1  0
 11  7  1  0
 19 14  1  0
 30 24  1  0
  1 32  1  0
  5 33  1  0
  8 34  1  0
  9 35  1  0
 10 36  1  0
 12 37  1  0
 15 38  1  0
 16 39  1  0
 17 40  1  0
 18 41  1  0
 20 42  1  0
 20 43  1  0
 21 44  1  0
 22 45  1  0
 22 46  1  0
 23 47  1  0
 23 48  1  0
 25 49  1  0
 26 50  1  0
 29 51  1  0
 30 52  1  0
 31 53  1  0
M  CHG  2   1  -1  28  -1
M  END
>  <UniqueID>  (5) 
5

>  <SMILES>  (5) 
[NH-]C(=O)c1cc(-c2cccs2)cc(-c2ccccc2CNCCc2ccc([O-])cc2)c1

>  <Energy>  (5) 
91.26323869479404

>  <Genealogy>  (5) 
[NH-]C(=O)c1cc(-c2cccs2)cc(-c2ccccc2CNCCc2ccc([O-])cc2)c1 (protonated)
[NH-]C(=O)c1cc(-c2cccs2)cc(-c2ccccc2CNCCc2ccc([O-])cc2)c1 (3D coordinates assigned)
[NH-]C(=O)c1cc(-c2cccs2)cc(-c2ccccc2CNCCc2ccc([O-])cc2)c1 (optimized conformer: 91.26323869479404 kcal/mol)

>  <smiles>  (5) 
NC(=O)c1cc(-c2cccs2)cc(-c2ccccc2CNCCc2ccc(O)cc2)c1

>  <score_type>  (5) 
oracle

>  <origin>  (5) 
adgpu

>  <m_score__min__energy>  (5) 
-15.25

>  <m_primary>  (5) 
energy

$$$$
5:0
     RDKit          3D

 59 62  0  0  0  0  0  0  0  0999 V2000
   -9.5600   19.5720  -32.9320 O   0  0  0  0  0  0  0  0  0  0  0  0
   -8.4210   19.8530  -32.4740 C   0  0  0  0  0  0  0  0  0  0  0  0
   -7.9890   21.1670  -32.0120 C   0  0  0  0  0  0  0  0  0  0  0  0
   -8.6670   22.3840  -31.9690 C   0  0  0  0  0  0  0  0  0  0  0  0
   -7.9860   23.5010  -31.4510 C   0  0  0  0  0  0  0  0  0  0  0  0
   -6.6570   23.3780  -30.9860 C   0  0  0  0  0  0  0  0  0  0  0  0
   -5.7520   24.9050  -30.2820 Br  0  0  0  0  0  0  0  0  0  0  0  0
   -5.9980   22.1360  -31.0370 C   0  0  0  0  0  0  0  0  0  0  0  0
   -6.6930   21.0460  -31.5600 C   0  0  0  0  0  0  0  0  0  0  0  0
   -6.2910   19.6550  -31.7310 C   0  0  0  0  0  0  0  0  0  0  0  0
   -5.1800   19.1640  -31.3990 O   0  0  0  0  0  0  0  0  0  0  0  0
   -7.3610   18.9070  -32.3160 N   0  0  0  0  0  0  0  0  0  0  0  0
   -7.4580   17.4530  -32.4350 C   0  0  0  0  0  0  0  0  0  0  0  0
   -6.1380   16.8430  -32.9230 C   0  0  0  0  0  0  0  0  0  0  0  0
   -5.4650   17.6990  -34.0050 C   0  0  0  0  0  0  0  0  0  0  0  0
   -4.1110   17.0990  -34.4180 C   0  0  0  0  0  0  0  0  0  0  0  0
   -3.0050   18.1560  -34.5900 C   0  0  0  0  0  0  0  0  0  0  0  0
   -2.0080   18.3460  -33.4110 C   0  0  0  0  0  0  0  0  0  0  0  0
   -1.5810   19.7380  -33.0950 N   0  0  0  0  0  0  0  0  0  0  0  0
   -2.6650   20.7540  -33.2030 C   0  0  0  0  0  0  0  0  0  0  0  0
   -3.2300   21.1880  -31.8420 C   0  0  0  0  0  0  0  0  0  0  0  0
   -2.1540   21.6100  -30.9350 N   0  0  0  0  0  0  0  0  0  0  0  0
   -2.4510   22.4640  -29.8070 C   0  0  0  0  0  0  0  0  0  0  0  0
   -3.5270   22.1690  -28.9500 C   0  0  0  0  0  0  0  0  0  0  0  0
   -3.8150   22.9970  -27.8620 C   0  0  0  0  0  0  0  0  0  0  0  0
   -3.0330   24.1280  -27.6150 C   0  0  0  0  0  0  0  0  0  0  0  0
   -1.9630   24.4350  -28.4590 C   0  0  0  0  0  0  0  0  0  0  0  0
   -0.9860   25.8590  -28.1520 Cl  0  0  0  0  0  0  0  0  0  0  0  0
   -1.6710   23.6080  -29.5500 C   0  0  0  0  0  0  0  0  0  0  0  0
   -0.7710   21.2180  -31.2330 C   0  0  0  0  0  0  0  0  0  0  0  0
   -0.7520   19.8210  -31.8630 C   0  0  0  0  0  0  0  0  0  0  0  0
   -9.7029   22.4687  -32.3291 H   0  0  0  0  0  0  0  0  0  0  0  0
   -8.4916   24.4770  -31.4076 H   0  0  0  0  0  0  0  0  0  0  0  0
   -4.9649   22.0279  -30.6750 H   0  0  0  0  0  0  0  0  0  0  0  0
   -7.7062   17.0290  -31.4508 H   0  0  0  0  0  0  0  0  0  0  0  0
   -8.2415   17.2169  -33.1701 H   0  0  0  0  0  0  0  0  0  0  0  0
   -5.4529   16.7518  -32.0673 H   0  0  0  0  0  0  0  0  0  0  0  0
   -6.3640   15.8607  -33.3635 H   0  0  0  0  0  0  0  0  0  0  0  0
   -6.1215   17.7464  -34.8864 H   0  0  0  0  0  0  0  0  0  0  0  0
   -5.2929   18.7066  -33.5985 H   0  0  0  0  0  0  0  0  0  0  0  0
   -3.7944   16.3850  -33.6434 H   0  0  0  0  0  0  0  0  0  0  0  0
   -4.2534   16.6138  -35.3949 H   0  0  0  0  0  0  0  0  0  0  0  0
   -2.4176   17.8778  -35.4775 H   0  0  0  0  0  0  0  0  0  0  0  0
   -3.5401   19.1142  -34.6636 H   0  0  0  0  0  0  0  0  0  0  0  0
   -2.4812   17.9325  -32.5082 H   0  0  0  0  0  0  0  0  0  0  0  0
   -1.0888   17.8348  -33.7332 H   0  0  0  0  0  0  0  0  0  0  0  0
   -0.9160   19.9810  -33.8710 H   0  0  0  0  0  0  0  0  0  0  0  0
   -2.2619   21.6416  -33.7126 H   0  0  0  0  0  0  0  0  0  0  0  0
   -3.4897   20.2915  -33.7652 H   0  0  0  0  0  0  0  0  0  0  0  0
   -3.9240   22.0281  -31.9921 H   0  0  0  0  0  0  0  0  0  0  0  0
   -3.7528   20.3318  -31.3907 H   0  0  0  0  0  0  0  0  0  0  0  0
   -4.1464   21.2796  -29.1379 H   0  0  0  0  0  0  0  0  0  0  0  0
   -4.6592   22.7578  -27.1986 H   0  0  0  0  0  0  0  0  0  0  0  0
   -3.2598   24.7767  -26.7561 H   0  0  0  0  0  0  0  0  0  0  0  0
   -0.8267   23.8533  -30.2110 H   0  0  0  0  0  0  0  0  0  0  0  0
   -0.3295   21.9411  -31.9346 H   0  0  0  0  0  0  0  0  0  0  0  0
   -0.1883   21.2038  -30.3001 H   0  0  0  0  0  0  0  0  0  0  0  0
    0.2865   19.5641  -32.1191 H   0  0  0  0  0  0  0  0  0  0  0  0
   -1.1744   19.1188  -31.1292 H   0  0  0  0  0  0  0  0  0  0  0  0
  1  2  2  0
  2  3  1  0
  3  4  2  0
  4  5  1  0
  5  6  2  0
  6  7  1  0
  6  8  1  0
  8  9  2  0
  9 10  1  0
 10 11  2  0
 10 12  1  0
 12 13  1  0
 13 14  1  0
 14 15  1  0
 15 16  1  0
 16 17  1  0
 17 18  1  0
 18 19  1  0
 19 20  1  0
 20 21  1  0
 21 22  1  0
 22 23  1  0
 23 24  2  0
 24 25  1  0
 25 26  2  0
 26 27  1  0
 27 28  1  0
 27 29  2  0
 22 30  1  0
 30 31  1  0
 12  2  1  0
 31 19  1  0
  9  3  1  0
 29 23  1  0
  4 32  1  0
  5 33  1  0
  8 34  1  0
 13 35  1  0
 13 36  1  0
 14 37  1  0
 14 38  1  0
 15 39  1  0
 15 40  1  0
 16 41  1  0
 16 42  1  0
 17 43  1  0
 17 44  1  0
 18 45  1  0
 18 46  1  0
 19 47  1  0
 20 48  1  0
 20 49  1  0
 21 50  1  0
 21 51  1  0
 24 52  1  0
 25 53  1  0
 26 54  1  0
 29 55  1  0
 30 56  1  0
 30 57  1  0
 31 58  1  0
 31 59  1  0
M  CHG  1  19   1
M  END
>  <UniqueID>  (6) 
6

>  <SMILES>  (6) 
O=C1c2ccc(Br)cc2C(=O)N1CCCCCC[NH+]1CCN(c2cccc(Cl)c2)CC1

>  <Energy>  (6) 
103.48663754863529

>  <Genealogy>  (6) 
O=C1c2ccc(Br)cc2C(=O)N1CCCCCC[NH+]1CCN(c2cccc(Cl)c2)CC1 (protonated)
O=C1c2ccc(Br)cc2C(=O)N1CCCCCC[NH+]1CCN(c2cccc(Cl)c2)CC1 (3D coordinates assigned)
O=C1c2ccc(Br)cc2C(=O)N1CCCCCC[NH+]1CCN(c2cccc(Cl)c2)CC1 (nonaromatic ring conformer: 103.48663754863529 kcal/mol)

>  <smiles>  (6) 
O=C1c2ccc(Br)cc2C(=O)N1CCCCCCN1CCN(c2cccc(Cl)c2)CC1

>  <score_type>  (6) 
oracle

>  <origin>  (6) 
adgpu

>  <m_score__min__energy>  (6) 
-9.0700000000000003

>  <m_primary>  (6) 
energy

$$$$
6:0
     RDKit          3D

 44 46  0  0  0  0  0  0  0  0999 V2000
   -7.6850   21.5350  -30.8100 N   0  0  0  0  0  0  0  0  0  0  0  0
   -6.6780   22.5510  -30.7020 C   0  0  0  0  0  0  0  0  0  0  0  0
   -7.0080   23.7650  -30.0800 C   0  0  0  0  0  0  0  0  0  0  0  0
   -6.0760   24.8020  -29.9900 C   0  0  0  0  0  0  0  0  0  0  0  0
   -6.4420   25.9950  -29.3660 O   0  0  0  0  0  0  0  0  0  0  0  0
   -4.7950   24.6320  -30.5340 C   0  0  0  0  0  0  0  0  0  0  0  0
   -3.8550   25.6540  -30.4620 O   0  0  0  0  0  0  0  0  0  0  0  0
   -4.4540   23.4270  -31.1540 C   0  0  0  0  0  0  0  0  0  0  0  0
   -5.3730   22.3660  -31.2210 C   0  0  0  0  0  0  0  0  0  0  0  0
   -4.8560   20.8200  -31.9200 S   0  0  0  0  0  0  0  0  0  0  0  0
   -4.6400   21.0030  -33.3960 O   0  0  0  0  0  0  0  0  0  0  0  0
   -5.9030   19.7640  -31.7000 O   0  0  0  0  0  0  0  0  0  0  0  0
   -3.3700   20.2790  -31.2060 N   0  0  0  0  0  0  0  0  0  0  0  0
   -2.5430   21.0650  -30.3370 C   0  0  0  0  0  0  0  0  0  0  0  0
   -1.4760   21.7810  -30.8920 C   0  0  0  0  0  0  0  0  0  0  0  0
   -0.7060   22.6350  -30.0980 C   0  0  0  0  0  0  0  0  0  0  0  0
   -0.9910   22.7760  -28.7340 C   0  0  0  0  0  0  0  0  0  0  0  0
   -0.0940   23.9340  -27.7520 S   0  0  0  0  0  0  0  0  0  0  0  0
    1.2430   24.1940  -28.3880 O   0  0  0  0  0  0  0  0  0  0  0  0
    0.1460   23.3460  -26.3880 O   0  0  0  0  0  0  0  0  0  0  0  0
   -0.9580   25.4520  -27.5940 N   0  0  0  0  0  0  0  0  0  0  0  0
   -0.5230   26.1940  -26.4040 C   0  0  0  0  0  0  0  0  0  0  0  0
   -1.5650   26.0110  -25.3070 C   0  0  0  0  0  0  0  0  0  0  0  0
   -2.7310   25.2940  -25.9540 C   0  0  0  0  0  0  0  0  0  0  0  0
   -2.3990   25.2260  -27.4360 C   0  0  0  0  0  0  0  0  0  0  0  0
   -2.0270   22.0240  -28.1640 C   0  0  0  0  0  0  0  0  0  0  0  0
   -2.8020   21.1780  -28.9590 C   0  0  0  0  0  0  0  0  0  0  0  0
   -7.4630   20.5610  -31.1060 H   0  0  0  0  0  0  0  0  0  0  0  0
   -8.6930   21.7760  -30.6880 H   0  0  0  0  0  0  0  0  0  0  0  0
   -8.0143   23.9020  -29.6575 H   0  0  0  0  0  0  0  0  0  0  0  0
   -5.7550   26.6370  -28.9890 H   0  0  0  0  0  0  0  0  0  0  0  0
   -3.4535   23.3074  -31.5952 H   0  0  0  0  0  0  0  0  0  0  0  0
   -1.2419   21.6706  -31.9611 H   0  0  0  0  0  0  0  0  0  0  0  0
    0.1263   23.1981  -30.5455 H   0  0  0  0  0  0  0  0  0  0  0  0
    0.4478   25.8071  -26.0608 H   0  0  0  0  0  0  0  0  0  0  0  0
   -0.4166   27.2618  -26.6459 H   0  0  0  0  0  0  0  0  0  0  0  0
   -1.1529   25.4066  -24.4855 H   0  0  0  0  0  0  0  0  0  0  0  0
   -1.8731   26.9764  -24.8790 H   0  0  0  0  0  0  0  0  0  0  0  0
   -2.8377   24.2814  -25.5377 H   0  0  0  0  0  0  0  0  0  0  0  0
   -3.6812   25.8180  -25.7738 H   0  0  0  0  0  0  0  0  0  0  0  0
   -2.6662   24.2353  -27.8323 H   0  0  0  0  0  0  0  0  0  0  0  0
   -2.9661   25.9901  -27.9878 H   0  0  0  0  0  0  0  0  0  0  0  0
   -2.2303   22.1007  -27.0857 H   0  0  0  0  0  0  0  0  0  0  0  0
   -3.6189   20.5971  -28.5059 H   0  0  0  0  0  0  0  0  0  0  0  0
  1  2  1  0
  2  3  2  0
  3  4  1  0
  4  5  1  0
  4  6  2  0
  6  7  1  0
  6  8  1  0
  8  9  2  0
  9 10  1  0
 10 11  2  0
 10 12  2  0
 10 13  1  0
 13 14  1  0
 14 15  2  0
 15 16  1  0
 16 17  2  0
 17 18  1  0
 18 19  2  0
 18 20  2  0
 18 21  1  0
 21 22  1  0
 22 23  1  0
 23 24  1  0
 24 25  1  0
 17 26  1  0
 26 27  2  0
  9  2  1  0
 27 14  1  0
 25 21  1  0
  1 28  1  0
  1 29  1  0
  3 30  1  0
  5 31  1  0
  8 32  1  0
 15 33  1  0
 16 34  1  0
 22 35  1  0
 22 36  1  0
 23 37  1  0
 23 38  1  0
 24 39  1  0
 24 40  1  0
 25 41  1  0
 25 42  1  0
 26 43  1  0
 27 44  1  0
M  CHG  2   7  -1  13  -1
M  END
>  <UniqueID>  (7) 
7

>  <SMILES>  (7) 
Nc1cc(O)c([O-])cc1S(=O)(=O)[N-]c1ccc(S(=O)(=O)N2CCCC2)cc1

>  <Energy>  (7) 
49.8748541752546

>  <Genealogy>  (7) 
Nc1cc(O)c([O-])cc1S(=O)(=O)[N-]c1ccc(S(=O)(=O)N2CCCC2)cc1 (protonated)
Nc1cc(O)c([O-])cc1S(=O)(=O)[N-]c1ccc(S(=O)(=O)N2CCCC2)cc1 (3D coordinates assigned)
Nc1cc(O)c([O-])cc1S(=O)(=O)[N-]c1ccc(S(=O)(=O)N2CCCC2)cc1 (nonaromatic ring conformer: 49.8748541752546 kcal/mol)

>  <smiles>  (7) 
Nc1cc(O)c(O)cc1S(=O)(=O)Nc1ccc(S(=O)(=O)N2CCCC2)cc1

>  <score_type>  (7) 
oracle

>  <origin>  (7) 
adgpu

>  <m_score__min__energy>  (7) 
-11.32

>  <m_primary>  (7) 
energy

$$$$
7:0
     RDKit          3D

 38 39  0  0  0  0  0  0  0  0999 V2000
    0.4330   21.9510  -35.5140 C   0  0  0  0  0  0  0  0  0  0  0  0
   -0.0460   21.8980  -34.1730 O   0  0  0  0  0  0  0  0  0  0  0  0
   -1.1690   21.1650  -33.7630 C   0  0  0  0  0  0  0  0  0  0  0  0
   -1.9780   21.5650  -32.6820 C   0  0  0  0  0  0  0  0  0  0  0  0
   -3.0920   20.8030  -32.3150 C   0  0  0  0  0  0  0  0  0  0  0  0
   -3.4180   19.6340  -33.0250 C   0  0  0  0  0  0  0  0  0  0  0  0
   -4.5730   18.8450  -32.7080 N   0  0  0  0  0  0  0  0  0  0  0  0
   -6.1650   19.0920  -33.3530 S   0  0  0  0  0  0  0  0  0  0  0  0
   -7.0380   17.9380  -32.9480 O   0  0  0  0  0  0  0  0  0  0  0  0
   -6.0750   19.1410  -34.8520 O   0  0  0  0  0  0  0  0  0  0  0  0
   -6.8510   20.6150  -32.7750 C   0  0  0  0  0  0  0  0  0  0  0  0
   -6.0270   21.7380  -32.6160 C   0  0  0  0  0  0  0  0  0  0  0  0
   -6.5490   22.9430  -32.1150 C   0  0  0  0  0  0  0  0  0  0  0  0
   -5.7230   24.0950  -31.8920 N   0  0  0  0  0  0  0  0  0  0  0  0
   -5.1660   24.6340  -30.3400 S   0  0  0  0  0  0  0  0  0  0  0  0
   -4.9970   23.2260  -29.2690 C   0  0  0  0  0  0  0  0  0  0  0  0
   -3.8280   25.3030  -30.4820 O   0  0  0  0  0  0  0  0  0  0  0  0
   -6.1580   25.5920  -29.7450 O   0  0  0  0  0  0  0  0  0  0  0  0
   -7.9120   23.0260  -31.8130 C   0  0  0  0  0  0  0  0  0  0  0  0
   -8.7440   21.9190  -31.9950 C   0  0  0  0  0  0  0  0  0  0  0  0
   -8.2210   20.7110  -32.4720 C   0  0  0  0  0  0  0  0  0  0  0  0
   -9.0570   19.6090  -32.6460 O   0  0  0  0  0  0  0  0  0  0  0  0
   -2.6060   19.2360  -34.0930 C   0  0  0  0  0  0  0  0  0  0  0  0
   -1.4910   19.9960  -34.4600 C   0  0  0  0  0  0  0  0  0  0  0  0
    1.5263   22.0720  -35.5083 H   0  0  0  0  0  0  0  0  0  0  0  0
    0.1700   21.0183  -36.0344 H   0  0  0  0  0  0  0  0  0  0  0  0
   -0.0275   22.8037  -36.0344 H   0  0  0  0  0  0  0  0  0  0  0  0
   -1.7328   22.4806  -32.1239 H   0  0  0  0  0  0  0  0  0  0  0  0
   -3.7163   21.1199  -31.4666 H   0  0  0  0  0  0  0  0  0  0  0  0
   -4.9624   21.6755  -32.8857 H   0  0  0  0  0  0  0  0  0  0  0  0
   -5.0366   23.5561  -28.2204 H   0  0  0  0  0  0  0  0  0  0  0  0
   -5.8166   22.5182  -29.4618 H   0  0  0  0  0  0  0  0  0  0  0  0
   -4.0331   22.7322  -29.4618 H   0  0  0  0  0  0  0  0  0  0  0  0
   -8.3311   23.9682  -31.4301 H   0  0  0  0  0  0  0  0  0  0  0  0
   -9.8163   21.9967  -31.7623 H   0  0  0  0  0  0  0  0  0  0  0  0
   -8.9100   18.9470  -33.4000 H   0  0  0  0  0  0  0  0  0  0  0  0
   -2.8468   18.3176  -34.6485 H   0  0  0  0  0  0  0  0  0  0  0  0
   -0.8627   19.6721  -35.3028 H   0  0  0  0  0  0  0  0  0  0  0  0
  1  2  1  0
  2  3  1  0
  3  4  2  0
  4  5  1  0
  5  6  2  0
  6  7  1  0
  7  8  1  0
  8  9  2  0
  8 10  2  0
  8 11  1  0
 11 12  2  0
 12 13  1  0
 13 14  1  0
 14 15  1  0
 15 16  1  0
 15 17  2  0
 15 18  2  0
 13 19  2  0
 19 20  1  0
 20 21  2  0
 21 22  1  0
  6 23  1  0
 23 24  2  0
 24  3  1  0
 21 11  1  0
  1 25  1  0
  1 26  1  0
  1 27  1  0
  4 28  1  0
  5 29  1  0
 12 30  1  0
 16 31  1  0
 16 32  1  0
 16 33  1  0
 19 34  1  0
 20 35  1  0
 22 36  1  0
 23 37  1  0
 24 38  1  0
M  CHG  2   7  -1  14  -1
M  END
>  <UniqueID>  (8) 
8

>  <SMILES>  (8) 
COc1ccc([N-]S(=O)(=O)c2cc([N-]S(C)(=O)=O)ccc2O)cc1

>  <Energy>  (8) 
38.95857071824933

>  <Genealogy>  (8) 
COc1ccc([N-]S(=O)(=O)c2cc([N-]S(C)(=O)=O)ccc2O)cc1 (protonated)
COc1ccc([N-]S(=O)(=O)c2cc([N-]S(C)(=O)=O)ccc2O)cc1 (3D coordinates assigned)
COc1ccc([N-]S(=O)(=O)c2cc([N-]S(C)(=O)=O)ccc2O)cc1 (optimized conformer: 38.95857071824933 kcal/mol)

>  <smiles>  (8) 
COc1ccc(NS(=O)(=O)c2cc(NS(C)(=O)=O)ccc2O)cc1

>  <score_type>  (8) 
oracle

>  <origin>  (8) 
adgpu

>  <m_score__min__energy>  (8) 
-9.3399999999999999

>  <m_primary>  (8) 
energy

$$$$
8:0
     RDKit          3D

 41 43  0  0  0  0  0  0  0  0999 V2000
   -0.0510   24.1730  -28.9440 O   0  0  0  0  0  0  0  0  0  0  0  0
   -1.2130   24.5450  -29.2550 C   0  0  0  0  0  0  0  0  0  0  0  0
   -1.6020   25.8490  -28.9740 O   0  0  0  0  0  0  0  0  0  0  0  0
   -2.1350   23.6360  -29.9750 C   0  0  0  0  0  0  0  0  0  0  0  0
   -1.7430   22.2980  -30.1570 C   0  0  0  0  0  0  0  0  0  0  0  0
   -2.5990   21.3650  -30.7620 C   0  0  0  0  0  0  0  0  0  0  0  0
   -2.1600   20.0010  -30.9100 N   0  0  0  0  0  0  0  0  0  0  0  0
   -1.4910   19.4710  -32.1000 C   0  0  0  0  0  0  0  0  0  0  0  0
   -2.4780   18.7790  -33.0040 C   0  0  0  0  0  0  0  0  0  0  0  0
   -2.1330   17.5860  -33.6580 C   0  0  0  0  0  0  0  0  0  0  0  0
   -3.0490   16.9550  -34.5020 C   0  0  0  0  0  0  0  0  0  0  0  0
   -4.3220   17.5000  -34.6890 C   0  0  0  0  0  0  0  0  0  0  0  0
   -4.6950   18.6720  -34.0210 C   0  0  0  0  0  0  0  0  0  0  0  0
   -5.9770   19.1940  -34.2440 O   0  0  0  0  0  0  0  0  0  0  0  0
   -6.8980   19.5450  -33.2450 C   0  0  0  0  0  0  0  0  0  0  0  0
   -6.9630   20.8800  -32.8280 C   0  0  0  0  0  0  0  0  0  0  0  0
   -7.8780   21.2700  -31.8450 C   0  0  0  0  0  0  0  0  0  0  0  0
   -8.7420   20.3280  -31.2790 C   0  0  0  0  0  0  0  0  0  0  0  0
   -8.6980   18.9980  -31.7040 C   0  0  0  0  0  0  0  0  0  0  0  0
   -7.7850   18.6050  -32.6870 C   0  0  0  0  0  0  0  0  0  0  0  0
   -3.7630   19.3170  -33.1870 C   0  0  0  0  0  0  0  0  0  0  0  0
   -3.8650   21.7890  -31.2020 C   0  0  0  0  0  0  0  0  0  0  0  0
   -4.2560   23.1190  -31.0450 C   0  0  0  0  0  0  0  0  0  0  0  0
   -3.4010   24.0530  -30.4560 C   0  0  0  0  0  0  0  0  0  0  0  0
   -3.8280   25.3820  -30.4020 O   0  0  0  0  0  0  0  0  0  0  0  0
   -0.7468   21.9766  -29.8189 H   0  0  0  0  0  0  0  0  0  0  0  0
   -2.3710   19.3230  -30.1440 H   0  0  0  0  0  0  0  0  0  0  0  0
   -1.0194   20.3000  -32.6481 H   0  0  0  0  0  0  0  0  0  0  0  0
   -0.7315   18.7414  -31.7824 H   0  0  0  0  0  0  0  0  0  0  0  0
   -1.1365   17.1461  -33.5049 H   0  0  0  0  0  0  0  0  0  0  0  0
   -2.7679   16.0267  -35.0209 H   0  0  0  0  0  0  0  0  0  0  0  0
   -5.0349   17.0052  -35.3649 H   0  0  0  0  0  0  0  0  0  0  0  0
   -6.2905   21.6263  -33.2761 H   0  0  0  0  0  0  0  0  0  0  0  0
   -7.9179   22.3191  -31.5168 H   0  0  0  0  0  0  0  0  0  0  0  0
   -9.4557   20.6337  -30.4998 H   0  0  0  0  0  0  0  0  0  0  0  0
   -9.3832   18.2584  -31.2642 H   0  0  0  0  0  0  0  0  0  0  0  0
   -7.7596   17.5586  -33.0253 H   0  0  0  0  0  0  0  0  0  0  0  0
   -4.0426   20.2493  -32.6745 H   0  0  0  0  0  0  0  0  0  0  0  0
   -4.5506   21.0687  -31.6723 H   0  0  0  0  0  0  0  0  0  0  0  0
   -5.2512   23.4363  -31.3898 H   0  0  0  0  0  0  0  0  0  0  0  0
   -3.4850   26.0530  -29.7300 H   0  0  0  0  0  0  0  0  0  0  0  0
  1  2  2  0
  2  3  1  0
  2  4  1  0
  4  5  2  0
  5  6  1  0
  6  7  1  0
  7  8  1  0
  8  9  1  0
  9 10  2  0
 10 11  1  0
 11 12  2  0
 12 13  1  0
 13 14  1  0
 14 15  1  0
 15 16  2  0
 16 17  1  0
 17 18  2  0
 18 19  1  0
 19 20  2  0
 13 21  2  0
  6 22  2  0
 22 23  1  0
 23 24  2  0
 24 25  1  0
 24  4  1  0
 21  9  1  0
 20 15  1  0
  5 26  1  0
  7 27  1  0
  8 28  1  0
  8 29  1  0
 10 30  1  0
 11 31  1  0
 12 32  1  0
 16 33  1  0
 17 34  1  0
 18 35  1  0
 19 36  1  0
 20 37  1  0
 21 38  1  0
 22 39  1  0
 23 40  1  0
 25 41  1  0
M  CHG  1   3  -1
M  END
>  <UniqueID>  (9) 
9

>  <SMILES>  (9) 
O=C([O-])c1cc(NCc2cccc(Oc3ccccc3)c2)ccc1O

>  <Energy>  (9) 
54.8105555613732

>  <Genealogy>  (9) 
O=C([O-])c1cc(NCc2cccc(Oc3ccccc3)c2)ccc1O (protonated)
O=C([O-])c1cc(NCc2cccc(Oc3ccccc3)c2)ccc1O (3D coordinates assigned)
O=C([O-])c1cc(NCc2cccc(Oc3ccccc3)c2)ccc1O (optimized conformer: 54.8105555613732 kcal/mol)

>  <smiles>  (9) 
O=C(O)c1cc(NCc2cccc(Oc3ccccc3)c2)ccc1O

>  <score_type>  (9) 
oracle

>  <origin>  (9) 
adgpu

>  <m_score__min__energy>  (9) 
-10.359999999999999

>  <m_primary>  (9) 
energy

$$$$
9:0
     RDKit          3D

 65 68  0  0  0  0  0  0  0  0999 V2000
    2.1210   19.2800  -33.6550 C   0  0  0  0  0  0  0  0  0  0  0  0
    0.7490   19.8340  -33.3760 C   0  0  0  0  0  0  0  0  0  0  0  0
    0.1040   20.5520  -34.3970 C   0  0  0  0  0  0  0  0  0  0  0  0
   -1.1380   21.1480  -34.1790 C   0  0  0  0  0  0  0  0  0  0  0  0
   -1.7550   21.0630  -32.9240 C   0  0  0  0  0  0  0  0  0  0  0  0
   -3.0590   21.7200  -32.6850 C   0  0  0  0  0  0  0  0  0  0  0  0
   -4.0520   21.4170  -33.4030 O   0  0  0  0  0  0  0  0  0  0  0  0
   -3.1900   22.7350  -31.6760 N   0  0  0  0  0  0  0  0  0  0  0  0
   -4.4580   23.2160  -31.2090 C   0  0  0  0  0  0  0  0  0  0  0  0
   -5.6030   22.4340  -31.4180 C   0  0  0  0  0  0  0  0  0  0  0  0
   -6.8620   22.8840  -30.9970 C   0  0  0  0  0  0  0  0  0  0  0  0
   -8.2910   21.8780  -31.2400 S   0  0  0  0  0  0  0  0  0  0  0  0
   -9.1150   21.8770  -29.9830 O   0  0  0  0  0  0  0  0  0  0  0  0
   -9.1290   22.4680  -32.3420 O   0  0  0  0  0  0  0  0  0  0  0  0
   -7.8640   20.2350  -31.6560 N   0  0  0  0  0  0  0  0  0  0  0  0
   -9.0750   19.4130  -31.8120 C   0  0  0  0  0  0  0  0  0  0  0  0
   -8.6980   17.9220  -31.9340 C   0  0  0  0  0  0  0  0  0  0  0  0
   -7.2470   17.7190  -32.4020 C   0  0  0  0  0  0  0  0  0  0  0  0
   -6.8460   18.7800  -33.4320 C   0  0  0  0  0  0  0  0  0  0  0  0
   -7.0520   20.2140  -32.8900 C   0  0  0  0  0  0  0  0  0  0  0  0
   -6.9760   24.1330  -30.3730 C   0  0  0  0  0  0  0  0  0  0  0  0
   -5.8430   24.9280  -30.1780 C   0  0  0  0  0  0  0  0  0  0  0  0
   -4.5870   24.4790  -30.5990 C   0  0  0  0  0  0  0  0  0  0  0  0
   -3.4800   25.3050  -30.4330 O   0  0  0  0  0  0  0  0  0  0  0  0
   -1.1230   20.3380  -31.9040 C   0  0  0  0  0  0  0  0  0  0  0  0
    0.1160   19.7100  -32.1110 C   0  0  0  0  0  0  0  0  0  0  0  0
    0.7960   18.7810  -30.7550 S   0  0  0  0  0  0  0  0  0  0  0  0
    2.1560   19.3390  -30.4320 O   0  0  0  0  0  0  0  0  0  0  0  0
    0.9880   17.3370  -31.1310 O   0  0  0  0  0  0  0  0  0  0  0  0
   -0.2040   18.8850  -29.3210 N   0  0  0  0  0  0  0  0  0  0  0  0
   -0.0920   20.2210  -28.7120 C   0  0  0  0  0  0  0  0  0  0  0  0
   -1.0290   20.3680  -27.4920 C   0  0  0  0  0  0  0  0  0  0  0  0
   -1.7040   19.0440  -27.1050 C   0  0  0  0  0  0  0  0  0  0  0  0
   -0.6880   17.8970  -27.0740 C   0  0  0  0  0  0  0  0  0  0  0  0
    0.1820   17.8420  -28.3510 C   0  0  0  0  0  0  0  0  0  0  0  0
    2.6333   19.0731  -32.7038 H   0  0  0  0  0  0  0  0  0  0  0  0
    2.0297   18.3483  -34.2325 H   0  0  0  0  0  0  0  0  0  0  0  0
    2.7023   20.0139  -34.2325 H   0  0  0  0  0  0  0  0  0  0  0  0
    0.5851   20.6454  -35.3818 H   0  0  0  0  0  0  0  0  0  0  0  0
   -1.6362   21.6882  -34.9975 H   0  0  0  0  0  0  0  0  0  0  0  0
   -2.3370   23.2710  -31.4000 H   0  0  0  0  0  0  0  0  0  0  0  0
   -5.5123   21.4580  -31.9172 H   0  0  0  0  0  0  0  0  0  0  0  0
   -9.7238   19.5526  -30.9348 H   0  0  0  0  0  0  0  0  0  0  0  0
   -9.6036   19.7243  -32.7251 H   0  0  0  0  0  0  0  0  0  0  0  0
   -8.8217   17.4450  -30.9505 H   0  0  0  0  0  0  0  0  0  0  0  0
   -9.3593   17.4701  -32.6880 H   0  0  0  0  0  0  0  0  0  0  0  0
   -6.5761   17.7901  -31.5332 H   0  0  0  0  0  0  0  0  0  0  0  0
   -7.1670   16.7278  -32.8723 H   0  0  0  0  0  0  0  0  0  0  0  0
   -5.7846   18.6450  -33.6874 H   0  0  0  0  0  0  0  0  0  0  0  0
   -7.4852   18.6546  -34.3184 H   0  0  0  0  0  0  0  0  0  0  0  0
   -6.0679   20.6553  -32.6736 H   0  0  0  0  0  0  0  0  0  0  0  0
   -7.5902   20.7900  -33.6572 H   0  0  0  0  0  0  0  0  0  0  0  0
   -7.9604   24.4893  -30.0354 H   0  0  0  0  0  0  0  0  0  0  0  0
   -5.9395   25.9100  -29.6918 H   0  0  0  0  0  0  0  0  0  0  0  0
   -1.6082   20.2593  -30.9199 H   0  0  0  0  0  0  0  0  0  0  0  0
    0.9466   20.3792  -28.3860 H   0  0  0  0  0  0  0  0  0  0  0  0
   -0.3848   20.9686  -29.4639 H   0  0  0  0  0  0  0  0  0  0  0  0
   -0.4392   20.7266  -26.6356 H   0  0  0  0  0  0  0  0  0  0  0  0
   -1.8221   21.0801  -27.7640 H   0  0  0  0  0  0  0  0  0  0  0  0
   -2.1577   19.1495  -26.1085 H   0  0  0  0  0  0  0  0  0  0  0  0
   -2.4729   18.8104  -27.8562 H   0  0  0  0  0  0  0  0  0  0  0  0
   -0.0290   18.0329  -26.2038 H   0  0  0  0  0  0  0  0  0  0  0  0
   -1.2506   16.9538  -27.0119 H   0  0  0  0  0  0  0  0  0  0  0  0
    1.2356   17.9883  -28.0709 H   0  0  0  0  0  0  0  0  0  0  0  0
    0.0323   16.8609  -28.8254 H   0  0  0  0  0  0  0  0  0  0  0  0
  1  2  1  0
  2  3  2  0
  3  4  1  0
  4  5  2  0
  5  6  1  0
  6  7  2  0
  6  8  1  0
  8  9  1  0
  9 10  2  0
 10 11  1  0
 11 12  1  0
 12 13  2  0
 12 14  2  0
 12 15  1  0
 15 16  1  0
 16 17  1  0
 17 18  1  0
 18 19  1  0
 19 20  1  0
 11 21  2  0
 21 22  1  0
 22 23  2  0
 23 24  1  0
  5 25  1  0
 25 26  2  0
 26 27  1  0
 27 28  2  0
 27 29  2  0
 27 30  1  0
 30 31  1  0
 31 32  1  0
 32 33  1  0
 33 34  1  0
 34 35  1  0
 26  2  1  0
 35 30  1  0
 23  9  1  0
 20 15  1  0
  1 36  1  0
  1 37  1  0
  1 38  1  0
  3 39  1  0
  4 40  1  0
  8 41  1  0
 10 42  1  0
 16 43  1  0
 16 44  1  0
 17 45  1  0
 17 46  1  0
 18 47  1  0
 18 48  1  0
 19 49  1  0
 19 50  1  0
 20 51  1  0
 20 52  1  0
 21 53  1  0
 22 54  1  0
 25 55  1  0
 31 56  1  0
 31 57  1  0
 32 58  1  0
 32 59  1  0
 33 60  1  0
 33 61  1  0
 34 62  1  0
 34 63  1  0
 35 64  1  0
 35 65  1  0
M  CHG  1  24  -1
M  END
>  <UniqueID>  (10) 
10

>  <SMILES>  (10) 
Cc1ccc(C(=O)Nc2cc(S(=O)(=O)N3CCCCC3)ccc2[O-])cc1S(=O)(=O)N1CCCCC1

>  <Energy>  (10) 
82.14075699654718

>  <Genealogy>  (10) 
Cc1ccc(C(=O)Nc2cc(S(=O)(=O)N3CCCCC3)ccc2[O-])cc1S(=O)(=O)N1CCCCC1 (protonated)
Cc1ccc(C(=O)Nc2cc(S(=O)(=O)N3CCCCC3)ccc2[O-])cc1S(=O)(=O)N1CCCCC1 (3D coordinates assigned)
Cc1ccc(C(=O)Nc2cc(S(=O)(=O)N3CCCCC3)ccc2[O-])cc1S(=O)(=O)N1CCCCC1 (nonaromatic ring conformer: 82.14075699654718 kcal/mol)

>  <smiles>  (10) 
Cc1ccc(C(=O)Nc2cc(S(=O)(=O)N3CCCCC3)ccc2O)cc1S(=O)(=O)N1CCCCC1

>  <score_type>  (10) 
oracle

>  <origin>  (10) 
adgpu

>  <m_score__min__energy>  (10) 
-14.76

>  <m_primary>  (10) 
energy

$$$$
10:0
     RDKit          3D

 60 63  0  0  0  0  0  0  0  0999 V2000
    0.0750   21.2930  -28.3080 C   0  0  0  0  0  0  0  0  0  0  0  0
   -0.9980   21.6230  -29.2600 N   0  0  0  0  0  0  0  0  0  0  0  0
   -2.1990   20.7940  -28.9900 C   0  0  0  0  0  0  0  0  0  0  0  0
   -3.1070   20.6950  -30.2210 C   0  0  0  0  0  0  0  0  0  0  0  0
   -2.3790   19.9760  -31.3760 C   0  0  0  0  0  0  0  0  0  0  0  0
   -3.1020   20.4390  -32.9550 S   0  0  0  0  0  0  0  0  0  0  0  0
   -2.1490   21.3410  -33.6930 O   0  0  0  0  0  0  0  0  0  0  0  0
   -3.3120   19.2160  -33.8020 O   0  0  0  0  0  0  0  0  0  0  0  0
   -4.6260   21.3180  -32.6780 C   0  0  0  0  0  0  0  0  0  0  0  0
   -5.8910   20.7240  -32.9070 C   0  0  0  0  0  0  0  0  0  0  0  0
   -6.0960   19.0760  -33.4920 Cl  0  0  0  0  0  0  0  0  0  0  0  0
   -7.0560   21.4580  -32.6730 C   0  0  0  0  0  0  0  0  0  0  0  0
   -6.9900   22.7730  -32.2250 C   0  0  0  0  0  0  0  0  0  0  0  0
   -5.7510   23.3780  -31.9790 C   0  0  0  0  0  0  0  0  0  0  0  0
   -5.6740   24.7580  -31.5890 N   0  0  0  0  0  0  0  0  0  0  0  0
   -5.0120   25.2450  -30.4160 C   0  0  0  0  0  0  0  0  0  0  0  0
   -5.6980   25.6710  -29.4520 O   0  0  0  0  0  0  0  0  0  0  0  0
   -3.5820   25.2570  -30.3200 N   0  0  0  0  0  0  0  0  0  0  0  0
   -2.8420   24.7970  -29.1820 C   0  0  0  0  0  0  0  0  0  0  0  0
   -3.4340   23.8780  -28.3110 C   0  0  0  0  0  0  0  0  0  0  0  0
   -2.7520   23.4460  -27.1710 C   0  0  0  0  0  0  0  0  0  0  0  0
   -1.4770   23.9490  -26.8710 C   0  0  0  0  0  0  0  0  0  0  0  0
   -0.8700   24.8730  -27.7470 C   0  0  0  0  0  0  0  0  0  0  0  0
   -1.5630   25.3000  -28.8900 C   0  0  0  0  0  0  0  0  0  0  0  0
    0.4570   25.5120  -27.4080 C   0  0  0  0  0  0  0  0  0  0  0  0
    1.2510   24.7230  -26.4450 N   0  0  0  0  0  0  0  0  0  0  0  0
    1.9110   23.5770  -27.0920 C   0  0  0  0  0  0  0  0  0  0  0  0
    0.4420   24.3260  -25.2750 C   0  0  0  0  0  0  0  0  0  0  0  0
   -0.7480   23.4350  -25.6580 C   0  0  0  0  0  0  0  0  0  0  0  0
   -4.5670   22.6460  -32.1950 C   0  0  0  0  0  0  0  0  0  0  0  0
   -3.3250   23.2250  -31.9210 O   0  0  0  0  0  0  0  0  0  0  0  0
   -0.8530   20.2320  -31.3480 C   0  0  0  0  0  0  0  0  0  0  0  0
   -0.5140   21.5640  -30.6640 C   0  0  0  0  0  0  0  0  0  0  0  0
   -0.2988   21.4080  -27.2799 H   0  0  0  0  0  0  0  0  0  0  0  0
    0.3988   20.2537  -28.4663 H   0  0  0  0  0  0  0  0  0  0  0  0
    0.9269   21.9707  -28.4663 H   0  0  0  0  0  0  0  0  0  0  0  0
   -1.8767   19.7824  -28.7023 H   0  0  0  0  0  0  0  0  0  0  0  0
   -2.7701   21.2708  -28.1797 H   0  0  0  0  0  0  0  0  0  0  0  0
   -4.0132   20.1299  -29.9574 H   0  0  0  0  0  0  0  0  0  0  0  0
   -3.3738   21.7109  -30.5476 H   0  0  0  0  0  0  0  0  0  0  0  0
   -2.5154   18.8930  -31.2397 H   0  0  0  0  0  0  0  0  0  0  0  0
   -8.0369   20.9907  -32.8450 H   0  0  0  0  0  0  0  0  0  0  0  0
   -7.9174   23.3419  -32.0627 H   0  0  0  0  0  0  0  0  0  0  0  0
   -4.4421   23.4930  -28.5243 H   0  0  0  0  0  0  0  0  0  0  0  0
   -3.2179   22.7061  -26.5036 H   0  0  0  0  0  0  0  0  0  0  0  0
   -1.1003   26.0359  -29.5641 H   0  0  0  0  0  0  0  0  0  0  0  0
    1.0394   25.6221  -28.3347 H   0  0  0  0  0  0  0  0  0  0  0  0
    0.2427   26.4833  -26.9382 H   0  0  0  0  0  0  0  0  0  0  0  0
    2.3028   22.8966  -26.3216 H   0  0  0  0  0  0  0  0  0  0  0  0
    1.1833   23.0408  -27.7189 H   0  0  0  0  0  0  0  0  0  0  0  0
    2.7399   23.9373  -27.7189 H   0  0  0  0  0  0  0  0  0  0  0  0
    1.0843   23.7741  -24.5729 H   0  0  0  0  0  0  0  0  0  0  0  0
    0.0399   25.2432  -24.8200 H   0  0  0  0  0  0  0  0  0  0  0  0
   -0.3774   22.4214  -25.8707 H   0  0  0  0  0  0  0  0  0  0  0  0
   -1.4544   23.4347  -24.8148 H   0  0  0  0  0  0  0  0  0  0  0  0
   -3.2260   24.1760  -31.5870 H   0  0  0  0  0  0  0  0  0  0  0  0
   -0.3642   19.4142  -30.7982 H   0  0  0  0  0  0  0  0  0  0  0  0
   -0.4936   20.2782  -32.3866 H   0  0  0  0  0  0  0  0  0  0  0  0
    0.5783   21.6935  -30.6662 H   0  0  0  0  0  0  0  0  0  0  0  0
   -1.0178   22.3651  -31.2248 H   0  0  0  0  0  0  0  0  0  0  0  0
  1  2  1  0
  2  3  1  0
  3  4  1  0
  4  5  1  0
  5  6  1  0
  6  7  2  0
  6  8  2  0
  6  9  1  0
  9 10  2  0
 10 11  1  0
 10 12  1  0
 12 13  2  0
 13 14  1  0
 14 15  1  0
 15 16  1  0
 16 17  2  0
 16 18  1  0
 18 19  1  0
 19 20  2  0
 20 21  1  0
 21 22  2  0
 22 23  1  0
 23 24  2  0
 23 25  1  0
 25 26  1  0
 26 27  1  0
 26 28  1  0
 28 29  1  0
 14 30  2  0
 30 31  1  0
  5 32  1  0
 32 33  1  0
 33  2  1  0
 30  9  1  0
 24 19  1  0
 29 22  1  0
  1 34  1  0
  1 35  1  0
  1 36  1  0
  3 37  1  0
  3 38  1  0
  4 39  1  0
  4 40  1  0
  5 41  1  0
 12 42  1  0
 13 43  1  0
 20 44  1  0
 21 45  1  0
 24 46  1  0
 25 47  1  0
 25 48  1  0
 27 49  1  0
 27 50  1  0
 27 51  1  0
 28 52  1  0
 28 53  1  0
 29 54  1  0
 29 55  1  0
 31 56  1  0
 32 57  1  0
 32 58  1  0
 33 59  1  0
 33 60  1  0
M  CHG  2  15  -1  18  -1
M  END
>  <UniqueID>  (11) 
11

>  <SMILES>  (11) 
CN1CCC(S(=O)(=O)c2c(Cl)ccc([N-]C(=O)[N-]c3ccc4c(c3)CN(C)CC4)c2O)CC1

>  <Energy>  (11) 
81.33302438603742

>  <Genealogy>  (11) 
CN1CCC(S(=O)(=O)c2c(Cl)ccc([N-]C(=O)[N-]c3ccc4c(c3)CN(C)CC4)c2O)CC1 (protonated)
CN1CCC(S(=O)(=O)c2c(Cl)ccc([N-]C(=O)[N-]c3ccc4c(c3)CN(C)CC4)c2O)CC1 (3D coordinates assigned)
CN1CCC(S(=O)(=O)c2c(Cl)ccc([N-]C(=O)[N-]c3ccc4c(c3)CN(C)CC4)c2O)CC1 (nonaromatic ring conformer: 81.33302438603742 kcal/mol)

>  <smiles>  (11) 
CN1CCC(S(=O)(=O)c2c(Cl)ccc(NC(=O)Nc3ccc4c(c3)CN(C)CC4)c2O)CC1

>  <score_type>  (11) 
oracle

>  <origin>  (11) 
adgpu

>  <m_score__min__energy>  (11) 
-14.35

>  <m_primary>  (11) 
energy

$$$$
11:0
     RDKit          3D

 72 75  0  0  0  0  0  0  0  0999 V2000
   -2.2830   22.4280  -31.1660 H   0  0  0  0  0  0  0  0  0  0  0  0
   -1.4710   21.9650  -31.6320 N   0  0  0  0  0  0  0  0  0  0  0  0
   -1.9870   21.4890  -33.2090 S   0  0  0  0  0  0  0  0  0  0  0  0
   -3.1840   22.2950  -33.6220 O   0  0  0  0  0  0  0  0  0  0  0  0
   -0.8710   21.7400  -34.1800 O   0  0  0  0  0  0  0  0  0  0  0  0
   -2.4140   19.7830  -33.1990 C   0  0  0  0  0  0  0  0  0  0  0  0
   -3.6080   19.3650  -33.8000 C   0  0  0  0  0  0  0  0  0  0  0  0
   -4.2925   20.1092  -34.2332 H   0  0  0  0  0  0  0  0  0  0  0  0
   -3.9340   18.0070  -33.8520 C   0  0  0  0  0  0  0  0  0  0  0  0
   -4.8736   17.6883  -34.3269 H   0  0  0  0  0  0  0  0  0  0  0  0
   -3.0700   17.0470  -33.3020 C   0  0  0  0  0  0  0  0  0  0  0  0
   -3.3980   15.6520  -33.4290 N   0  0  0  0  0  0  0  0  0  0  0  0
   -3.1310   15.1690  -34.3190 H   0  0  0  0  0  0  0  0  0  0  0  0
   -3.8390   14.8170  -32.3480 C   0  0  0  0  0  0  0  0  0  0  0  0
   -3.1140   13.6360  -32.1140 O   0  0  0  0  0  0  0  0  0  0  0  0
   -3.6950   12.3420  -31.9540 C   0  0  0  0  0  0  0  0  0  0  0  0
   -3.7966   12.1157  -30.8823 H   0  0  0  0  0  0  0  0  0  0  0  0
   -4.6874   12.3245  -32.4282 H   0  0  0  0  0  0  0  0  0  0  0  0
   -3.0487   11.5887  -32.4282 H   0  0  0  0  0  0  0  0  0  0  0  0
   -4.8810   15.1290  -31.6150 N   0  0  0  0  0  0  0  0  0  0  0  0
   -5.0890   14.5650  -30.7610 H   0  0  0  0  0  0  0  0  0  0  0  0
   -5.8180   16.1880  -31.8960 C   0  0  0  0  0  0  0  0  0  0  0  0
   -6.3670   16.2940  -33.1850 C   0  0  0  0  0  0  0  0  0  0  0  0
   -6.1428   15.5246  -33.9385 H   0  0  0  0  0  0  0  0  0  0  0  0
   -7.1970   17.3710  -33.5180 C   0  0  0  0  0  0  0  0  0  0  0  0
   -7.6243   17.4432  -34.5290 H   0  0  0  0  0  0  0  0  0  0  0  0
   -7.4840   18.3570  -32.5650 C   0  0  0  0  0  0  0  0  0  0  0  0
   -8.4690   19.7920  -32.9990 S   0  0  0  0  0  0  0  0  0  0  0  0
   -7.3940   20.9370  -32.1370 C   0  0  0  0  0  0  0  0  0  0  0  0
   -7.8960   21.6630  -31.0480 C   0  0  0  0  0  0  0  0  0  0  0  0
   -8.9267   21.4930  -30.7034 H   0  0  0  0  0  0  0  0  0  0  0  0
   -7.0910   22.6010  -30.4000 C   0  0  0  0  0  0  0  0  0  0  0  0
   -7.4993   23.1921  -29.5670 H   0  0  0  0  0  0  0  0  0  0  0  0
   -5.7630   22.7920  -30.8080 C   0  0  0  0  0  0  0  0  0  0  0  0
   -4.7420   23.9590  -29.9730 S   0  0  0  0  0  0  0  0  0  0  0  0
   -3.5380   24.2490  -30.8270 O   0  0  0  0  0  0  0  0  0  0  0  0
   -5.4950   25.2470  -29.7750 O   0  0  0  0  0  0  0  0  0  0  0  0
   -4.1960   23.3410  -28.4410 N   0  0  0  0  0  0  0  0  0  0  0  0
   -2.8960   22.2060  -28.6570 S   0  0  0  0  0  0  0  0  0  0  0  0
   -3.2820   21.1550  -29.6610 O   0  0  0  0  0  0  0  0  0  0  0  0
   -2.6330   21.5330  -27.3370 O   0  0  0  0  0  0  0  0  0  0  0  0
   -1.4700   23.0330  -29.2180 N   0  0  0  0  0  0  0  0  0  0  0  0
   -1.6630   23.3790  -30.1870 H   0  0  0  0  0  0  0  0  0  0  0  0
   -1.1850   24.1890  -28.3640 C   0  0  0  0  0  0  0  0  0  0  0  0
   -0.3978   24.8005  -28.8292 H   0  0  0  0  0  0  0  0  0  0  0  0
   -2.1010   24.7868  -28.2472 H   0  0  0  0  0  0  0  0  0  0  0  0
   -0.7140   23.7180  -26.9890 C   0  0  0  0  0  0  0  0  0  0  0  0
   -1.3601   22.8966  -26.6456 H   0  0  0  0  0  0  0  0  0  0  0  0
    0.3269   23.3708  -27.0664 H   0  0  0  0  0  0  0  0  0  0  0  0
   -0.7810   24.8510  -25.9980 C   0  0  0  0  0  0  0  0  0  0  0  0
   -0.3350   24.6700  -24.6770 C   0  0  0  0  0  0  0  0  0  0  0  0
    0.1299   23.7181  -24.3808 H   0  0  0  0  0  0  0  0  0  0  0  0
   -0.4810   25.6990  -23.7360 C   0  0  0  0  0  0  0  0  0  0  0  0
   -0.1296   25.5520  -22.7040 H   0  0  0  0  0  0  0  0  0  0  0  0
   -1.0720   26.9120  -24.1050 C   0  0  0  0  0  0  0  0  0  0  0  0
   -1.1834   27.7185  -23.3653 H   0  0  0  0  0  0  0  0  0  0  0  0
   -1.5210   27.0970  -25.4170 C   0  0  0  0  0  0  0  0  0  0  0  0
   -1.9842   28.0507  -25.7101 H   0  0  0  0  0  0  0  0  0  0  0  0
   -1.3810   26.0680  -26.3580 C   0  0  0  0  0  0  0  0  0  0  0  0
   -1.7438   26.2150  -27.3860 H   0  0  0  0  0  0  0  0  0  0  0  0
   -5.2550   22.0480  -31.8860 C   0  0  0  0  0  0  0  0  0  0  0  0
   -4.2100   22.1833  -32.2016 H   0  0  0  0  0  0  0  0  0  0  0  0
   -6.0740   21.1360  -32.5590 C   0  0  0  0  0  0  0  0  0  0  0  0
   -5.6812   20.5750  -33.4198 H   0  0  0  0  0  0  0  0  0  0  0  0
   -6.9410   18.2610  -31.2800 C   0  0  0  0  0  0  0  0  0  0  0  0
   -7.1823   19.0227  -30.5239 H   0  0  0  0  0  0  0  0  0  0  0  0
   -6.0920   17.1990  -30.9540 C   0  0  0  0  0  0  0  0  0  0  0  0
   -5.6347   17.1526  -29.9547 H   0  0  0  0  0  0  0  0  0  0  0  0
   -1.8730   17.4730  -32.6990 C   0  0  0  0  0  0  0  0  0  0  0  0
   -1.1862   16.7310  -32.2656 H   0  0  0  0  0  0  0  0  0  0  0  0
   -1.5490   18.8320  -32.6460 C   0  0  0  0  0  0  0  0  0  0  0  0
   -0.6120   19.1545  -32.1685 H   0  0  0  0  0  0  0  0  0  0  0  0
  1  2  1  0
  2  3  1  0
  3  4  2  0
  3  5  2  0
  3  6  1  0
  6  7  2  0
  7  8  1  0
  7  9  1  0
  9 10  1  0
  9 11  2  0
 11 12  1  0
 12 13  1  0
 12 14  1  0
 14 15  1  0
 15 16  1  0
 16 17  1  0
 16 18  1  0
 16 19  1  0
 14 20  2  0
 20 21  1  0
 20 22  1  0
 22 23  2  0
 23 24  1  0
 23 25  1  0
 25 26  1  0
 25 27  2  0
 27 28  1  0
 28 29  1  0
 29 30  2  0
 30 31  1  0
 30 32  1  0
 32 33  1  0
 32 34  2  0
 34 35  1  0
 35 36  2  0
 35 37  2  0
 35 38  1  0
 38 39  1  0
 39 40  2  0
 39 41  2  0
 39 42  1  0
 42 43  1  0
 42 44  1  0
 44 45  1  0
 44 46  1  0
 44 47  1  0
 47 48  1  0
 47 49  1  0
 47 50  1  0
 50 51  2  0
 51 52  1  0
 51 53  1  0
 53 54  1  0
 53 55  2  0
 55 56  1  0
 55 57  1  0
 57 58  1  0
 57 59  2  0
 59 60  1  0
 34 61  1  0
 61 62  1  0
 61 63  2  0
 63 64  1  0
 27 65  1  0
 65 66  1  0
 65 67  2  0
 67 68  1  0
 11 69  1  0
 69 70  1  0
 69 71  2  0
 71 72  1  0
 71  6  1  0
 67 22  1  0
 63 29  1  0
 59 50  1  0
M  CHG  3   2  -1  20   1  38  -1
M  END
>  <UniqueID>  (12) 
12

>  <SMILES>  (12) 
CO/C(Nc1ccc(S([NH-])(=O)=O)cc1)=[NH+]/c1ccc(Sc2ccc(S(=O)(=O)[N-]S(=O)(=O)NCCc3ccccc3)cc2)cc1

>  <Energy>  (12) 
66.94751987589905

>  <Genealogy>  (12) 
COC(Nc1ccc(S([NH-])(=O)=O)cc1)=[NH+]c1ccc(Sc2ccc(S(=O)(=O)[N-]S(=O)(=O)NCCc3ccccc3)cc2)cc1 (protonated)
CO/C(Nc1ccc(S([NH-])(=O)=O)cc1)=[NH+]/c1ccc(Sc2ccc(S(=O)(=O)[N-]S(=O)(=O)NCCc3ccccc3)cc2)cc1 (cis-trans isomerization)
CO/C(Nc1ccc(S([NH-])(=O)=O)cc1)=[NH+]/c1ccc(Sc2ccc(S(=O)(=O)[N-]S(=O)(=O)NCCc3ccccc3)cc2)cc1 (3D coordinates assigned)
CO/C(Nc1ccc(S([NH-])(=O)=O)cc1)=[NH+]/c1ccc(Sc2ccc(S(=O)(=O)[N-]S(=O)(=O)NCCc3ccccc3)cc2)cc1 (optimized conformer: 66.94751987589905 kcal/mol)

>  <smiles>  (12) 
COC(=Nc1ccc(Sc2ccc(S(=O)(=O)NS(=O)(=O)NCCc3ccccc3)cc2)cc1)Nc1ccc(S(N)(=O)=O)cc1

>  <score_type>  (12) 
oracle

>  <origin>  (12) 
adgpu

>  <m_score__min__energy>  (12) 
-12.970000000000001

>  <m_primary>  (12) 
energy

$$$$
12:0
     RDKit          3D

 57 60  0  0  0  0  0  0  0  0999 V2000
   -1.1800   18.6260  -33.6940 C   0  0  0  0  0  0  0  0  0  0  0  0
   -2.4260   19.3810  -33.3150 C   0  0  0  0  0  0  0  0  0  0  0  0
   -3.6590   18.9360  -33.8170 C   0  0  0  0  0  0  0  0  0  0  0  0
   -4.8400   19.6040  -33.5010 C   0  0  0  0  0  0  0  0  0  0  0  0
   -4.8190   20.7330  -32.6710 C   0  0  0  0  0  0  0  0  0  0  0  0
   -6.0800   21.4400  -32.3380 C   0  0  0  0  0  0  0  0  0  0  0  0
   -7.2950   20.7330  -32.3720 C   0  0  0  0  0  0  0  0  0  0  0  0
   -8.4850   21.3480  -31.9730 C   0  0  0  0  0  0  0  0  0  0  0  0
   -8.4740   22.6710  -31.5270 C   0  0  0  0  0  0  0  0  0  0  0  0
   -7.2770   23.3910  -31.4980 C   0  0  0  0  0  0  0  0  0  0  0  0
   -6.0830   22.7960  -31.9250 C   0  0  0  0  0  0  0  0  0  0  0  0
   -4.8880   23.5850  -31.9440 N   0  0  0  0  0  0  0  0  0  0  0  0
   -4.3730   24.2630  -30.7930 C   0  0  0  0  0  0  0  0  0  0  0  0
   -4.7830   25.4260  -30.5460 O   0  0  0  0  0  0  0  0  0  0  0  0
   -3.4090   23.6150  -29.9390 N   0  0  0  0  0  0  0  0  0  0  0  0
   -2.6830   24.2210  -28.8480 C   0  0  0  0  0  0  0  0  0  0  0  0
   -3.3180   24.3380  -27.5990 C   0  0  0  0  0  0  0  0  0  0  0  0
   -2.6620   24.9270  -26.5140 C   0  0  0  0  0  0  0  0  0  0  0  0
   -1.3530   25.3880  -26.6560 C   0  0  0  0  0  0  0  0  0  0  0  0
   -0.6920   25.2380  -27.8770 C   0  0  0  0  0  0  0  0  0  0  0  0
   -1.3430   24.6480  -28.9650 C   0  0  0  0  0  0  0  0  0  0  0  0
   -3.5890   21.1940  -32.1770 C   0  0  0  0  0  0  0  0  0  0  0  0
   -2.3940   20.5080  -32.4540 C   0  0  0  0  0  0  0  0  0  0  0  0
   -0.8800   21.1090  -31.7470 S   0  0  0  0  0  0  0  0  0  0  0  0
   -1.2000   22.2900  -30.8740 O   0  0  0  0  0  0  0  0  0  0  0  0
    0.0710   21.5470  -32.8260 O   0  0  0  0  0  0  0  0  0  0  0  0
   -0.0950   19.8980  -30.7730 N   0  0  0  0  0  0  0  0  0  0  0  0
    0.1890   20.3930  -29.4230 C   0  0  0  0  0  0  0  0  0  0  0  0
   -0.9120   20.0400  -28.4600 C   0  0  0  0  0  0  0  0  0  0  0  0
   -0.8080   18.8930  -27.6530 C   0  0  0  0  0  0  0  0  0  0  0  0
   -1.8450   18.5540  -26.7780 C   0  0  0  0  0  0  0  0  0  0  0  0
   -2.9870   19.3550  -26.7010 C   0  0  0  0  0  0  0  0  0  0  0  0
   -3.0960   20.4960  -27.5000 C   0  0  0  0  0  0  0  0  0  0  0  0
   -2.0630   20.8390  -28.3790 C   0  0  0  0  0  0  0  0  0  0  0  0
   -0.6532   18.3068  -32.7826 H   0  0  0  0  0  0  0  0  0  0  0  0
   -1.4536   17.7416  -34.2882 H   0  0  0  0  0  0  0  0  0  0  0  0
   -0.5227   19.2779  -34.2882 H   0  0  0  0  0  0  0  0  0  0  0  0
   -3.6931   18.0496  -34.4674 H   0  0  0  0  0  0  0  0  0  0  0  0
   -5.7966   19.2424  -33.9062 H   0  0  0  0  0  0  0  0  0  0  0  0
   -7.3090   19.6880  -32.7152 H   0  0  0  0  0  0  0  0  0  0  0  0
   -9.4316   20.7889  -32.0104 H   0  0  0  0  0  0  0  0  0  0  0  0
   -9.4093   23.1473  -31.1979 H   0  0  0  0  0  0  0  0  0  0  0  0
   -7.2722   24.4304  -31.1380 H   0  0  0  0  0  0  0  0  0  0  0  0
   -3.2310   22.6010  -30.1140 H   0  0  0  0  0  0  0  0  0  0  0  0
   -4.3439   23.9613  -27.4740 H   0  0  0  0  0  0  0  0  0  0  0  0
   -3.1783   25.0270  -25.5478 H   0  0  0  0  0  0  0  0  0  0  0  0
   -0.8427   25.8685  -25.8082 H   0  0  0  0  0  0  0  0  0  0  0  0
    0.3461   25.5858  -27.9835 H   0  0  0  0  0  0  0  0  0  0  0  0
   -0.8078   24.5161  -29.9169 H   0  0  0  0  0  0  0  0  0  0  0  0
   -3.5597   22.1065  -31.5634 H   0  0  0  0  0  0  0  0  0  0  0  0
    1.1296   19.9455  -29.0693 H   0  0  0  0  0  0  0  0  0  0  0  0
    0.2678   21.4892  -29.4683 H   0  0  0  0  0  0  0  0  0  0  0  0
    0.0907   18.2613  -27.7101 H   0  0  0  0  0  0  0  0  0  0  0  0
   -1.7613   17.6552  -26.1494 H   0  0  0  0  0  0  0  0  0  0  0  0
   -3.8008   19.0873  -26.0110 H   0  0  0  0  0  0  0  0  0  0  0  0
   -3.9957   21.1258  -27.4378 H   0  0  0  0  0  0  0  0  0  0  0  0
   -2.1531   21.7369  -29.0080 H   0  0  0  0  0  0  0  0  0  0  0  0
  1  2  1  0
  2  3  2  0
  3  4  1  0
  4  5  2  0
  5  6  1  0
  6  7  2  0
  7  8  1  0
  8  9  2  0
  9 10  1  0
 10 11  2  0
 11 12  1  0
 12 13  1  0
 13 14  2  0
 13 15  1  0
 15 16  1  0
 16 17  2  0
 17 18  1  0
 18 19  2  0
 19 20  1  0
 20 21  2  0
  5 22  1  0
 22 23  2  0
 23 24  1  0
 24 25  2  0
 24 26  2  0
 24 27  1  0
 27 28  1  0
 28 29  1  0
 29 30  2  0
 30 31  1  0
 31 32  2  0
 32 33  1  0
 33 34  2  0
 23  2  1  0
 34 29  1  0
 11  6  1  0
 21 16  1  0
  1 35  1  0
  1 36  1  0
  1 37  1  0
  3 38  1  0
  4 39  1  0
  7 40  1  0
  8 41  1  0
  9 42  1  0
 10 43  1  0
 15 44  1  0
 17 45  1  0
 18 46  1  0
 19 47  1  0
 20 48  1  0
 21 49  1  0
 22 50  1  0
 28 51  1  0
 28 52  1  0
 30 53  1  0
 31 54  1  0
 32 55  1  0
 33 56  1  0
 34 57  1  0
M  CHG  2  12  -1  27  -1
M  END
>  <UniqueID>  (13) 
13

>  <SMILES>  (13) 
Cc1ccc(-c2ccccc2[N-]C(=O)Nc2ccccc2)cc1S(=O)(=O)[N-]Cc1ccccc1

>  <Energy>  (13) 
75.28774154232704

>  <Genealogy>  (13) 
Cc1ccc(-c2ccccc2[N-]C(=O)Nc2ccccc2)cc1S(=O)(=O)[N-]Cc1ccccc1 (protonated)
Cc1ccc(-c2ccccc2[N-]C(=O)Nc2ccccc2)cc1S(=O)(=O)[N-]Cc1ccccc1 (3D coordinates assigned)
Cc1ccc(-c2ccccc2[N-]C(=O)Nc2ccccc2)cc1S(=O)(=O)[N-]Cc1ccccc1 (optimized conformer: 75.28774154232704 kcal/mol)

>  <smiles>  (13) 
Cc1ccc(-c2ccccc2NC(=O)Nc2ccccc2)cc1S(=O)(=O)NCc1ccccc1

>  <score_type>  (13) 
oracle

>  <origin>  (13) 
adgpu

>  <m_score__min__energy>  (13) 
-12.369999999999999

>  <m_primary>  (13) 
energy

$$$$
13:0
     RDKit          3D

 50 52  0  0  0  0  0  0  0  0999 V2000
   -1.7590   25.6160  -29.0020 N   0  0  0  0  0  0  0  0  0  0  0  0
   -1.0380   24.0690  -28.7320 S   0  0  0  0  0  0  0  0  0  0  0  0
   -1.3810   23.5890  -27.3500 O   0  0  0  0  0  0  0  0  0  0  0  0
    0.4560   24.1890  -28.8450 O   0  0  0  0  0  0  0  0  0  0  0  0
   -1.6380   22.9250  -29.9280 C   0  0  0  0  0  0  0  0  0  0  0  0
   -0.9880   21.6990  -30.1220 C   0  0  0  0  0  0  0  0  0  0  0  0
   -1.4600   20.7960  -31.0790 C   0  0  0  0  0  0  0  0  0  0  0  0
   -2.5780   21.1170  -31.8650 C   0  0  0  0  0  0  0  0  0  0  0  0
   -3.1060   20.1340  -32.8680 C   0  0  0  0  0  0  0  0  0  0  0  0
   -3.8770   19.1060  -32.1740 N   0  0  0  0  0  0  0  0  0  0  0  0
   -5.2220   18.6120  -33.1570 S   0  0  0  0  0  0  0  0  0  0  0  0
   -4.9400   18.9170  -34.6020 O   0  0  0  0  0  0  0  0  0  0  0  0
   -5.4160   17.1280  -33.0150 O   0  0  0  0  0  0  0  0  0  0  0  0
   -6.6870   19.4410  -32.6370 C   0  0  0  0  0  0  0  0  0  0  0  0
   -7.7790   18.7040  -32.1690 C   0  0  0  0  0  0  0  0  0  0  0  0
   -8.9190   19.3600  -31.7010 C   0  0  0  0  0  0  0  0  0  0  0  0
   -8.9760   20.7610  -31.6880 C   0  0  0  0  0  0  0  0  0  0  0  0
  -10.1100   21.4000  -31.1890 O   0  0  0  0  0  0  0  0  0  0  0  0
   -7.8830   21.5080  -32.1670 C   0  0  0  0  0  0  0  0  0  0  0  0
   -7.8630   23.2760  -32.1210 S   0  0  0  0  0  0  0  0  0  0  0  0
   -6.8200   23.7670  -33.0860 O   0  0  0  0  0  0  0  0  0  0  0  0
   -9.1950   23.8390  -32.5340 O   0  0  0  0  0  0  0  0  0  0  0  0
   -7.4600   23.8140  -30.5080 N   0  0  0  0  0  0  0  0  0  0  0  0
   -6.4950   24.9280  -30.5740 C   0  0  0  0  0  0  0  0  0  0  0  0
   -5.7530   25.0810  -29.2370 C   0  0  0  0  0  0  0  0  0  0  0  0
   -5.0210   23.9290  -28.8380 O   0  0  0  0  0  0  0  0  0  0  0  0
   -5.4640   22.7270  -29.4520 C   0  0  0  0  0  0  0  0  0  0  0  0
   -6.9860   22.6870  -29.6720 C   0  0  0  0  0  0  0  0  0  0  0  0
   -6.7430   20.8390  -32.6360 C   0  0  0  0  0  0  0  0  0  0  0  0
   -3.2330   22.3420  -31.6620 C   0  0  0  0  0  0  0  0  0  0  0  0
   -2.7610   23.2440  -30.7040 C   0  0  0  0  0  0  0  0  0  0  0  0
   -1.2420   26.0590  -29.7940 H   0  0  0  0  0  0  0  0  0  0  0  0
   -0.1033   21.4462  -29.5192 H   0  0  0  0  0  0  0  0  0  0  0  0
   -0.9531   19.8295  -31.2168 H   0  0  0  0  0  0  0  0  0  0  0  0
   -3.7532   20.6555  -33.5885 H   0  0  0  0  0  0  0  0  0  0  0  0
   -2.2669   19.6671  -33.4045 H   0  0  0  0  0  0  0  0  0  0  0  0
   -7.7398   17.6047  -32.1695 H   0  0  0  0  0  0  0  0  0  0  0  0
   -9.7775   18.7744  -31.3404 H   0  0  0  0  0  0  0  0  0  0  0  0
  -10.2410   22.4010  -31.2820 H   0  0  0  0  0  0  0  0  0  0  0  0
   -5.7648   24.7269  -31.3717 H   0  0  0  0  0  0  0  0  0  0  0  0
   -7.0420   25.8589  -30.7845 H   0  0  0  0  0  0  0  0  0  0  0  0
   -5.0494   25.9217  -29.3279 H   0  0  0  0  0  0  0  0  0  0  0  0
   -6.5216   25.2475  -28.4678 H   0  0  0  0  0  0  0  0  0  0  0  0
   -4.9665   22.6285  -30.4281 H   0  0  0  0  0  0  0  0  0  0  0  0
   -5.2087   21.8991  -28.7742 H   0  0  0  0  0  0  0  0  0  0  0  0
   -7.2472   21.7418  -30.1704 H   0  0  0  0  0  0  0  0  0  0  0  0
   -7.4717   22.7684  -28.6884 H   0  0  0  0  0  0  0  0  0  0  0  0
   -5.8848   21.4189  -33.0065 H   0  0  0  0  0  0  0  0  0  0  0  0
   -4.1217   22.5932  -32.2595 H   0  0  0  0  0  0  0  0  0  0  0  0
   -3.2724   24.2070  -30.5586 H   0  0  0  0  0  0  0  0  0  0  0  0
  1  2  1  0
  2  3  2  0
  2  4  2  0
  2  5  1  0
  5  6  2  0
  6  7  1  0
  7  8  2  0
  8  9  1  0
  9 10  1  0
 10 11  1  0
 11 12  2  0
 11 13  2  0
 11 14  1  0
 14 15  2  0
 15 16  1  0
 16 17  2  0
 17 18  1  0
 17 19  1  0
 19 20  1  0
 20 21  2  0
 20 22  2  0
 20 23  1  0
 23 24  1  0
 24 25  1  0
 25 26  1  0
 26 27  1  0
 27 28  1  0
 19 29  2  0
  8 30  1  0
 30 31  2  0
 31  5  1  0
 29 14  1  0
 28 23  1  0
  1 32  1  0
  6 33  1  0
  7 34  1  0
  9 35  1  0
  9 36  1  0
 15 37  1  0
 16 38  1  0
 18 39  1  0
 24 40  1  0
 24 41  1  0
 25 42  1  0
 25 43  1  0
 27 44  1  0
 27 45  1  0
 28 46  1  0
 28 47  1  0
 29 48  1  0
 30 49  1  0
 31 50  1  0
M  CHG  2   1  -1  10  -1
M  END
>  <UniqueID>  (14) 
14

>  <SMILES>  (14) 
[NH-]S(=O)(=O)c1ccc(C[N-]S(=O)(=O)c2ccc(O)c(S(=O)(=O)N3CCOCC3)c2)cc1

>  <Energy>  (14) 
61.03209162282831

>  <Genealogy>  (14) 
[NH-]S(=O)(=O)c1ccc(C[N-]S(=O)(=O)c2ccc(O)c(S(=O)(=O)N3CCOCC3)c2)cc1 (protonated)
[NH-]S(=O)(=O)c1ccc(C[N-]S(=O)(=O)c2ccc(O)c(S(=O)(=O)N3CCOCC3)c2)cc1 (3D coordinates assigned)
[NH-]S(=O)(=O)c1ccc(C[N-]S(=O)(=O)c2ccc(O)c(S(=O)(=O)N3CCOCC3)c2)cc1 (nonaromatic ring conformer: 61.03209162282831 kcal/mol)

>  <smiles>  (14) 
NS(=O)(=O)c1ccc(CNS(=O)(=O)c2ccc(O)c(S(=O)(=O)N3CCOCC3)c2)cc1

>  <score_type>  (14) 
oracle

>  <origin>  (14) 
adgpu

>  <m_score__min__energy>  (14) 
-10.859999999999999

>  <m_primary>  (14) 
energy

$$$$
14:0
     RDKit          3D

 52 55  0  0  0  0  0  0  0  0999 V2000
   -3.5923   13.6782  -35.9413 H   0  0  0  0  0  0  0  0  0  0  0  0
   -3.4490   14.0330  -34.9100 C   0  0  0  0  0  0  0  0  0  0  0  0
   -2.8250   15.2060  -34.6230 N   0  0  0  0  0  0  0  0  0  0  0  0
   -2.7710   15.4190  -33.2910 C   0  0  0  0  0  0  0  0  0  0  0  0
   -2.2250   16.4600  -32.7460 N   0  0  0  0  0  0  0  0  0  0  0  0
   -1.4760   17.7250  -33.6630 S   0  0  0  0  0  0  0  0  0  0  0  0
    0.0180   17.5790  -33.5890 O   0  0  0  0  0  0  0  0  0  0  0  0
   -1.8980   17.6120  -35.1000 O   0  0  0  0  0  0  0  0  0  0  0  0
   -1.9840   19.2920  -33.0380 C   0  0  0  0  0  0  0  0  0  0  0  0
   -2.2950   20.3240  -33.9280 C   0  0  0  0  0  0  0  0  0  0  0  0
   -2.2109   20.1563  -35.0119 H   0  0  0  0  0  0  0  0  0  0  0  0
   -2.7120   21.5670  -33.4470 C   0  0  0  0  0  0  0  0  0  0  0  0
   -2.9633   22.3703  -34.1552 H   0  0  0  0  0  0  0  0  0  0  0  0
   -2.8130   21.7990  -32.0630 C   0  0  0  0  0  0  0  0  0  0  0  0
   -3.2390   23.0380  -31.5570 O   0  0  0  0  0  0  0  0  0  0  0  0
   -4.5420   23.3410  -31.1360 C   0  0  0  0  0  0  0  0  0  0  0  0
   -5.5550   22.3640  -31.1010 C   0  0  0  0  0  0  0  0  0  0  0  0
   -5.3263   21.3293  -31.3962 H   0  0  0  0  0  0  0  0  0  0  0  0
   -6.8550   22.7010  -30.6920 C   0  0  0  0  0  0  0  0  0  0  0  0
   -7.9210   21.6450  -30.6080 C   0  0  0  0  0  0  0  0  0  0  0  0
   -7.4898   20.7205  -30.1965 H   0  0  0  0  0  0  0  0  0  0  0  0
   -8.7325   21.9942  -29.9526 H   0  0  0  0  0  0  0  0  0  0  0  0
   -8.4530   21.3820  -31.9460 N   0  0  0  0  0  0  0  0  0  0  0  0
   -9.3840   21.8530  -32.0250 H   0  0  0  0  0  0  0  0  0  0  0  0
   -8.7350   19.6780  -32.1440 S   0  0  0  0  0  0  0  0  0  0  0  0
   -9.0860   19.0630  -30.8170 O   0  0  0  0  0  0  0  0  0  0  0  0
   -9.8850   19.4690  -33.0900 O   0  0  0  0  0  0  0  0  0  0  0  0
   -7.2980   18.9110  -32.8180 C   0  0  0  0  0  0  0  0  0  0  0  0
   -6.4960   19.5830  -33.7530 C   0  0  0  0  0  0  0  0  0  0  0  0
   -6.7555   20.6051  -34.0660 H   0  0  0  0  0  0  0  0  0  0  0  0
   -5.3670   18.9540  -34.2870 C   0  0  0  0  0  0  0  0  0  0  0  0
   -4.7376   19.4832  -35.0176 H   0  0  0  0  0  0  0  0  0  0  0  0
   -5.0370   17.6540  -33.8940 C   0  0  0  0  0  0  0  0  0  0  0  0
   -4.1476   17.1617  -34.3141 H   0  0  0  0  0  0  0  0  0  0  0  0
   -5.8370   16.9790  -32.9670 C   0  0  0  0  0  0  0  0  0  0  0  0
   -5.5779   15.9552  -32.6595 H   0  0  0  0  0  0  0  0  0  0  0  0
   -6.9660   17.6050  -32.4310 C   0  0  0  0  0  0  0  0  0  0  0  0
   -7.5956   17.0716  -31.7037 H   0  0  0  0  0  0  0  0  0  0  0  0
   -7.1370   24.0200  -30.3060 C   0  0  0  0  0  0  0  0  0  0  0  0
   -8.1459   24.2860  -29.9576 H   0  0  0  0  0  0  0  0  0  0  0  0
   -6.1400   24.9960  -30.3630 C   0  0  0  0  0  0  0  0  0  0  0  0
   -6.3715   26.0325  -30.0767 H   0  0  0  0  0  0  0  0  0  0  0  0
   -4.8500   24.6620  -30.7820 C   0  0  0  0  0  0  0  0  0  0  0  0
   -3.8690   25.6440  -30.8400 O   0  0  0  0  0  0  0  0  0  0  0  0
   -2.5230   20.7510  -31.1700 C   0  0  0  0  0  0  0  0  0  0  0  0
   -2.6370   20.9530  -29.7480 C   0  0  0  0  0  0  0  0  0  0  0  0
   -2.7280   21.1140  -28.6060 N   0  0  0  0  0  0  0  0  0  0  0  0
   -2.1040   19.5070  -31.6580 C   0  0  0  0  0  0  0  0  0  0  0  0
   -1.8679   18.6946  -30.9550 H   0  0  0  0  0  0  0  0  0  0  0  0
   -3.4880   14.1780  -32.4210 S   0  0  0  0  0  0  0  0  0  0  0  0
   -3.8930   13.3140  -33.8060 C   0  0  0  0  0  0  0  0  0  0  0  0
   -4.4180   12.3478  -33.8336 H   0  0  0  0  0  0  0  0  0  0  0  0
  1  2  1  0
  2  3  1  0
  3  4  1  0
  4  5  2  0
  5  6  1  0
  6  7  2  0
  6  8  2  0
  6  9  1  0
  9 10  2  0
 10 11  1  0
 10 12  1  0
 12 13  1  0
 12 14  2  0
 14 15  1  0
 15 16  1  0
 16 17  2  0
 17 18  1  0
 17 19  1  0
 19 20  1  0
 20 21  1  0
 20 22  1  0
 20 23  1  0
 23 24  1  0
 23 25  1  0
 25 26  2  0
 25 27  2  0
 25 28  1  0
 28 29  2  0
 29 30  1  0
 29 31  1  0
 31 32  1  0
 31 33  2  0
 33 34  1  0
 33 35  1  0
 35 36  1  0
 35 37  2  0
 37 38  1  0
 19 39  2  0
 39 40  1  0
 39 41  1  0
 41 42  1  0
 41 43  2  0
 43 44  1  0
 14 45  1  0
 45 46  1  0
 46 47  3  0
 45 48  2  0
 48 49  1  0
  4 50  1  0
 50 51  1  0
 51 52  1  0
 51  2  2  0
 48  9  1  0
 43 16  1  0
 37 28  1  0
M  CHG  2   3  -1  44  -1
M  END
>  <UniqueID>  (15) 
15

>  <SMILES>  (15) 
N#Cc1cc(S(=O)(=O)/N=c2\[n-]ccs2)ccc1Oc1cc(CNS(=O)(=O)c2ccccc2)ccc1[O-]

>  <Energy>  (15) 
92.51952093633166

>  <Genealogy>  (15) 
N#Cc1cc(S(=O)(=O)N=c2[n-]ccs2)ccc1Oc1cc(CNS(=O)(=O)c2ccccc2)ccc1[O-] (protonated)
N#Cc1cc(S(=O)(=O)/N=c2\[n-]ccs2)ccc1Oc1cc(CNS(=O)(=O)c2ccccc2)ccc1[O-] (cis-trans isomerization)
N#Cc1cc(S(=O)(=O)/N=c2\[n-]ccs2)ccc1Oc1cc(CNS(=O)(=O)c2ccccc2)ccc1[O-] (3D coordinates assigned)
N#Cc1cc(S(=O)(=O)/N=c2\[n-]ccs2)ccc1Oc1cc(CNS(=O)(=O)c2ccccc2)ccc1[O-] (optimized conformer: 92.51952093633166 kcal/mol)

>  <smiles>  (15) 
N#Cc1cc(S(=O)(=O)N=c2[nH]ccs2)ccc1Oc1cc(CNS(=O)(=O)c2ccccc2)ccc1O

>  <score_type>  (15) 
oracle

>  <origin>  (15) 
adgpu

>  <m_score__min__energy>  (15) 
-14.630000000000001

>  <m_primary>  (15) 
energy

$$$$
15:0
     RDKit          3D

 35 36  0  0  0  0  0  0  0  0999 V2000
   -6.8630   17.8520  -31.9620 C   0  0  0  0  0  0  0  0  0  0  0  0
   -8.3470   18.2160  -31.9230 C   0  0  0  0  0  0  0  0  0  0  0  0
   -8.6590   19.4900  -32.7210 C   0  0  0  0  0  0  0  0  0  0  0  0
   -8.0470   20.7150  -32.0900 C   0  0  0  0  0  0  0  0  0  0  0  0
   -7.0090   21.4050  -32.7360 C   0  0  0  0  0  0  0  0  0  0  0  0
   -6.4590   22.5540  -32.1600 C   0  0  0  0  0  0  0  0  0  0  0  0
   -6.9470   23.0360  -30.9350 C   0  0  0  0  0  0  0  0  0  0  0  0
   -6.3350   24.2530  -30.2960 C   0  0  0  0  0  0  0  0  0  0  0  0
   -5.0250   23.8970  -29.6380 C   0  0  0  0  0  0  0  0  0  0  0  0
   -4.9650   22.8060  -28.7540 C   0  0  0  0  0  0  0  0  0  0  0  0
   -3.7530   22.4400  -28.1620 C   0  0  0  0  0  0  0  0  0  0  0  0
   -2.5840   23.1560  -28.4510 C   0  0  0  0  0  0  0  0  0  0  0  0
   -1.3710   22.8000  -27.8660 O   0  0  0  0  0  0  0  0  0  0  0  0
   -2.6340   24.2360  -29.3360 C   0  0  0  0  0  0  0  0  0  0  0  0
   -3.8450   24.6070  -29.9330 C   0  0  0  0  0  0  0  0  0  0  0  0
   -3.8640   25.6820  -30.8140 O   0  0  0  0  0  0  0  0  0  0  0  0
   -7.9850   22.3440  -30.2890 C   0  0  0  0  0  0  0  0  0  0  0  0
   -8.5340   21.1970  -30.8650 C   0  0  0  0  0  0  0  0  0  0  0  0
   -6.4813   17.7584  -30.9346 H   0  0  0  0  0  0  0  0  0  0  0  0
   -6.7338   16.8955  -32.4897 H   0  0  0  0  0  0  0  0  0  0  0  0
   -6.3059   18.6401  -32.4897 H   0  0  0  0  0  0  0  0  0  0  0  0
   -8.9263   17.3827  -32.3474 H   0  0  0  0  0  0  0  0  0  0  0  0
   -8.6187   18.4029  -30.8736 H   0  0  0  0  0  0  0  0  0  0  0  0
   -8.2595   19.3779  -33.7397 H   0  0  0  0  0  0  0  0  0  0  0  0
   -9.7507   19.6239  -32.7346 H   0  0  0  0  0  0  0  0  0  0  0  0
   -6.6264   21.0397  -33.7005 H   0  0  0  0  0  0  0  0  0  0  0  0
   -5.6399   23.0830  -32.6691 H   0  0  0  0  0  0  0  0  0  0  0  0
   -6.1577   25.0172  -31.0671 H   0  0  0  0  0  0  0  0  0  0  0  0
   -7.0250   24.6409  -29.5321 H   0  0  0  0  0  0  0  0  0  0  0  0
   -5.8781   22.2363  -28.5265 H   0  0  0  0  0  0  0  0  0  0  0  0
   -3.7169   21.5877  -27.4675 H   0  0  0  0  0  0  0  0  0  0  0  0
   -0.5500   22.6090  -28.4270 H   0  0  0  0  0  0  0  0  0  0  0  0
   -1.7166   24.7981  -29.5651 H   0  0  0  0  0  0  0  0  0  0  0  0
   -8.3673   22.7080  -29.3239 H   0  0  0  0  0  0  0  0  0  0  0  0
   -9.3530   20.6679  -30.3559 H   0  0  0  0  0  0  0  0  0  0  0  0
  1  2  1  0
  2  3  1  0
  3  4  1  0
  4  5  2  0
  5  6  1  0
  6  7  2  0
  7  8  1  0
  8  9  1  0
  9 10  2  0
 10 11  1  0
 11 12  2  0
 12 13  1  0
 12 14  1  0
 14 15  2  0
 15 16  1  0
  7 17  1  0
 17 18  2  0
 18  4  1  0
 15  9  1  0
  1 19  1  0
  1 20  1  0
  1 21  1  0
  2 22  1  0
  2 23  1  0
  3 24  1  0
  3 25  1  0
  5 26  1  0
  6 27  1  0
  8 28  1  0
  8 29  1  0
 10 30  1  0
 11 31  1  0
 13 32  1  0
 14 33  1  0
 17 34  1  0
 18 35  1  0
M  CHG  1  16  -1
M  END
>  <UniqueID>  (16) 
16

>  <SMILES>  (16) 
CCCc1ccc(Cc2ccc(O)cc2[O-])cc1

>  <Energy>  (16) 
29.199402751270366

>  <Genealogy>  (16) 
CCCc1ccc(Cc2ccc(O)cc2[O-])cc1 (protonated)
CCCc1ccc(Cc2ccc(O)cc2[O-])cc1 (3D coordinates assigned)
CCCc1ccc(Cc2ccc(O)cc2[O-])cc1 (optimized conformer: 29.199402751270366 kcal/mol)

>  <smiles>  (16) 
CCCc1ccc(Cc2ccc(O)cc2O)cc1

>  <score_type>  (16) 
oracle

>  <origin>  (16) 
adgpu

>  <m_score__min__energy>  (16) 
-9.7200000000000006

>  <m_primary>  (16) 
energy

$$$$
16:0
     RDKit          3D

 45 47  0  0  0  0  0  0  0  0999 V2000
   -4.1220   22.4210  -27.7780 O   0  0  0  0  0  0  0  0  0  0  0  0
   -4.1910   23.5370  -28.3620 C   0  0  0  0  0  0  0  0  0  0  0  0
   -3.3840   24.6350  -27.9060 N   0  0  0  0  0  0  0  0  0  0  0  0
   -2.5340   24.5470  -26.7190 C   0  0  0  0  0  0  0  0  0  0  0  0
   -1.0440   24.5550  -27.0980 C   0  0  1  0  0  0  0  0  0  0  0  0
   -0.3620   23.2210  -26.7880 C   0  0  0  0  0  0  0  0  0  0  0  0
   -0.1630   22.6060  -28.1390 C   0  0  0  0  0  0  0  0  0  0  0  0
   -0.1460   23.8060  -29.0540 C   0  0  0  0  0  0  0  0  0  0  0  0
   -0.9260   24.8270  -28.4800 O   0  0  0  0  0  0  0  0  0  0  0  0
   -5.0800   23.6850  -29.5360 C   0  0  0  0  0  0  0  0  0  0  0  0
   -6.1610   22.8010  -29.6920 C   0  0  0  0  0  0  0  0  0  0  0  0
   -7.0080   22.8970  -30.8050 C   0  0  0  0  0  0  0  0  0  0  0  0
   -8.3550   21.7670  -30.9980 S   0  0  0  0  0  0  0  0  0  0  0  0
   -9.2410   21.8510  -29.7870 O   0  0  0  0  0  0  0  0  0  0  0  0
   -9.1670   22.1750  -32.1970 O   0  0  0  0  0  0  0  0  0  0  0  0
   -7.8290   20.1130  -31.2050 N   0  0  0  0  0  0  0  0  0  0  0  0
   -8.7990   19.3180  -31.9550 C   0  0  0  0  0  0  0  0  0  0  0  0
   -8.0160   18.1840  -32.6000 C   0  0  0  0  0  0  0  0  0  0  0  0
   -6.5650   18.6430  -32.5980 C   0  0  0  0  0  0  0  0  0  0  0  0
   -6.5810   20.0240  -31.9610 C   0  0  0  0  0  0  0  0  0  0  0  0
   -6.7900   23.9040  -31.7530 C   0  0  0  0  0  0  0  0  0  0  0  0
   -5.7330   24.8010  -31.5960 C   0  0  0  0  0  0  0  0  0  0  0  0
   -4.8810   24.7030  -30.4900 C   0  0  0  0  0  0  0  0  0  0  0  0
   -3.8660   25.6410  -30.3390 O   0  0  0  0  0  0  0  0  0  0  0  0
   -3.3850   25.5320  -28.4400 H   0  0  0  0  0  0  0  0  0  0  0  0
   -2.7420   25.4064  -26.0646 H   0  0  0  0  0  0  0  0  0  0  0  0
   -2.7560   23.6018  -26.2019 H   0  0  0  0  0  0  0  0  0  0  0  0
   -0.5454   25.3311  -26.4988 H   0  0  0  0  0  0  0  0  0  0  0  0
    0.6021   23.3806  -26.2831 H   0  0  0  0  0  0  0  0  0  0  0  0
   -0.9525   22.5857  -26.1115 H   0  0  0  0  0  0  0  0  0  0  0  0
    0.7889   22.0570  -28.1880 H   0  0  0  0  0  0  0  0  0  0  0  0
   -0.9376   21.8701  -28.4006 H   0  0  0  0  0  0  0  0  0  0  0  0
    0.8881   24.1586  -29.1816 H   0  0  0  0  0  0  0  0  0  0  0  0
   -0.5560   23.5313  -30.0371 H   0  0  0  0  0  0  0  0  0  0  0  0
   -6.3445   22.0259  -28.9333 H   0  0  0  0  0  0  0  0  0  0  0  0
   -9.5655   18.9140  -31.2772 H   0  0  0  0  0  0  0  0  0  0  0  0
   -9.3153   19.9275  -32.7113 H   0  0  0  0  0  0  0  0  0  0  0  0
   -8.1277   17.2584  -32.0163 H   0  0  0  0  0  0  0  0  0  0  0  0
   -8.3747   17.9655  -33.6167 H   0  0  0  0  0  0  0  0  0  0  0  0
   -5.9438   17.9536  -32.0074 H   0  0  0  0  0  0  0  0  0  0  0  0
   -6.1406   18.6646  -33.6126 H   0  0  0  0  0  0  0  0  0  0  0  0
   -5.7189   20.1431  -31.2882 H   0  0  0  0  0  0  0  0  0  0  0  0
   -6.5173   20.8159  -32.7218 H   0  0  0  0  0  0  0  0  0  0  0  0
   -7.4549   23.9883  -32.6252 H   0  0  0  0  0  0  0  0  0  0  0  0
   -5.5684   25.5893  -32.3453 H   0  0  0  0  0  0  0  0  0  0  0  0
  1  2  2  0
  2  3  1  0
  3  4  1  0
  4  5  1  0
  5  6  1  0
  6  7  1  0
  7  8  1  0
  8  9  1  0
  2 10  1  0
 10 11  2  0
 11 12  1  0
 12 13  1  0
 13 14  2  0
 13 15  2  0
 13 16  1  0
 16 17  1  0
 17 18  1  0
 18 19  1  0
 19 20  1  0
 12 21  2  0
 21 22  1  0
 22 23  2  0
 23 24  1  0
  9  5  1  0
 23 10  1  0
 20 16  1  0
  3 25  1  0
  4 26  1  0
  4 27  1  0
  5 28  1  1
  6 29  1  0
  6 30  1  0
  7 31  1  0
  7 32  1  0
  8 33  1  0
  8 34  1  0
 11 35  1  0
 17 36  1  0
 17 37  1  0
 18 38  1  0
 18 39  1  0
 19 40  1  0
 19 41  1  0
 20 42  1  0
 20 43  1  0
 21 44  1  0
 22 45  1  0
M  CHG  1  24  -1
M  END
>  <UniqueID>  (17) 
17

>  <SMILES>  (17) 
O=C(NC[C@H]1CCCO1)c1cc(S(=O)(=O)N2CCCC2)ccc1[O-]

>  <Energy>  (17) 
47.03601977529542

>  <Genealogy>  (17) 
O=C(NCC1CCCO1)c1cc(S(=O)(=O)N2CCCC2)ccc1[O-] (protonated)
O=C(NC[C@H]1CCCO1)c1cc(S(=O)(=O)N2CCCC2)ccc1[O-] (chirality)
O=C(NC[C@H]1CCCO1)c1cc(S(=O)(=O)N2CCCC2)ccc1[O-] (3D coordinates assigned)
O=C(NC[C@H]1CCCO1)c1cc(S(=O)(=O)N2CCCC2)ccc1[O-] (nonaromatic ring conformer: 47.03601977529542 kcal/mol)

>  <smiles>  (17) 
O=C(NCC1CCCO1)c1cc(S(=O)(=O)N2CCCC2)ccc1O

>  <score_type>  (17) 
oracle

>  <origin>  (17) 
adgpu

>  <m_score__min__energy>  (17) 
-11.44

>  <m_primary>  (17) 
energy

$$$$
17:0
     RDKit          3D

 57 59  0  0  0  0  0  0  0  0999 V2000
   -3.5590   18.8230  -33.1360 C   0  0  0  0  0  0  0  0  0  0  0  0
   -4.8910   18.1020  -33.3810 C   0  0  0  0  0  0  0  0  0  0  0  0
   -5.6700   17.9470  -32.0540 C   0  0  0  0  0  0  0  0  0  0  0  0
   -7.1720   17.7620  -32.3160 C   0  0  0  0  0  0  0  0  0  0  0  0
   -7.7750   18.9020  -33.0520 N   0  0  0  0  0  0  0  0  0  0  0  0
   -8.6710   19.9450  -31.9750 S   0  0  0  0  0  0  0  0  0  0  0  0
   -9.8980   20.4580  -32.6780 O   0  0  0  0  0  0  0  0  0  0  0  0
   -9.0890   19.1820  -30.7490 O   0  0  0  0  0  0  0  0  0  0  0  0
   -7.6500   21.2930  -31.4810 C   0  0  0  0  0  0  0  0  0  0  0  0
   -6.2750   21.1110  -31.2700 C   0  0  0  0  0  0  0  0  0  0  0  0
   -5.4840   22.1790  -30.8360 C   0  0  0  0  0  0  0  0  0  0  0  0
   -6.0610   23.4370  -30.6130 C   0  0  0  0  0  0  0  0  0  0  0  0
   -5.0990   24.7740  -29.9870 S   0  0  0  0  0  0  0  0  0  0  0  0
   -5.9210   26.0310  -30.0300 O   0  0  0  0  0  0  0  0  0  0  0  0
   -3.8640   24.9690  -30.8240 O   0  0  0  0  0  0  0  0  0  0  0  0
   -4.6410   24.4380  -28.3450 N   0  0  0  0  0  0  0  0  0  0  0  0
   -3.9240   23.1620  -28.2820 C   0  0  0  0  0  0  0  0  0  0  0  0
   -2.4150   23.4130  -28.2850 C   0  0  0  0  0  0  0  0  0  0  0  0
   -2.0430   24.2840  -27.1460 N   0  0  0  0  0  0  0  0  0  0  0  0
   -0.9890   23.6790  -26.3060 C   0  0  0  0  0  0  0  0  0  0  0  0
    0.3790   23.6620  -27.0290 C   0  0  0  0  0  0  0  0  0  0  0  0
    0.4340   24.5390  -28.1420 O   0  0  0  0  0  0  0  0  0  0  0  0
   -0.1340   25.7870  -27.8030 C   0  0  0  0  0  0  0  0  0  0  0  0
   -1.6530   25.6500  -27.5770 C   0  0  0  0  0  0  0  0  0  0  0  0
   -7.4310   23.6230  -30.8400 C   0  0  0  0  0  0  0  0  0  0  0  0
   -8.2220   22.5550  -31.2740 C   0  0  0  0  0  0  0  0  0  0  0  0
   -6.8140   19.7040  -33.8400 C   0  0  0  0  0  0  0  0  0  0  0  0
   -5.7290   18.8210  -34.4680 C   0  0  0  0  0  0  0  0  0  0  0  0
   -3.3863   18.9165  -32.0537 H   0  0  0  0  0  0  0  0  0  0  0  0
   -2.7403   18.2449  -33.5893 H   0  0  0  0  0  0  0  0  0  0  0  0
   -3.5954   19.8246  -33.5893 H   0  0  0  0  0  0  0  0  0  0  0  0
   -4.6775   17.0930  -33.7636 H   0  0  0  0  0  0  0  0  0  0  0  0
   -5.2883   17.0684  -31.5133 H   0  0  0  0  0  0  0  0  0  0  0  0
   -5.5283   18.8592  -31.4558 H   0  0  0  0  0  0  0  0  0  0  0  0
   -7.3147   16.8466  -32.9090 H   0  0  0  0  0  0  0  0  0  0  0  0
   -7.6722   17.6987  -31.3384 H   0  0  0  0  0  0  0  0  0  0  0  0
   -5.8183   20.1260  -31.4464 H   0  0  0  0  0  0  0  0  0  0  0  0
   -4.4067   22.0319  -30.6692 H   0  0  0  0  0  0  0  0  0  0  0  0
   -3.9850   25.1970  -28.0500 H   0  0  0  0  0  0  0  0  0  0  0  0
   -4.2038   22.6314  -27.3600 H   0  0  0  0  0  0  0  0  0  0  0  0
   -4.1918   22.5521  -29.1574 H   0  0  0  0  0  0  0  0  0  0  0  0
   -1.8860   22.4526  -28.1969 H   0  0  0  0  0  0  0  0  0  0  0  0
   -2.1338   23.9094  -29.2255 H   0  0  0  0  0  0  0  0  0  0  0  0
   -0.8945   24.2617  -25.3778 H   0  0  0  0  0  0  0  0  0  0  0  0
   -1.2763   22.6392  -26.0909 H   0  0  0  0  0  0  0  0  0  0  0  0
    1.1575   23.9592  -26.3110 H   0  0  0  0  0  0  0  0  0  0  0  0
    0.5350   22.6416  -27.4091 H   0  0  0  0  0  0  0  0  0  0  0  0
    0.3363   26.1594  -26.8810 H   0  0  0  0  0  0  0  0  0  0  0  0
    0.0388   26.4911  -28.6303 H   0  0  0  0  0  0  0  0  0  0  0  0
   -1.9600   26.3660  -26.8004 H   0  0  0  0  0  0  0  0  0  0  0  0
   -2.1531   25.8535  -28.5354 H   0  0  0  0  0  0  0  0  0  0  0  0
   -7.8852   24.6114  -30.6764 H   0  0  0  0  0  0  0  0  0  0  0  0
   -9.2967   22.7061  -31.4535 H   0  0  0  0  0  0  0  0  0  0  0  0
   -7.3570   20.2274  -34.6408 H   0  0  0  0  0  0  0  0  0  0  0  0
   -6.3268   20.4220  -33.1639 H   0  0  0  0  0  0  0  0  0  0  0  0
   -6.2077   18.0663  -35.1093 H   0  0  0  0  0  0  0  0  0  0  0  0
   -5.0571   19.4621  -35.0575 H   0  0  0  0  0  0  0  0  0  0  0  0
  1  2  1  0
  2  3  1  0
  3  4  1  0
  4  5  1  0
  5  6  1  0
  6  7  2  0
  6  8  2  0
  6  9  1  0
  9 10  2  0
 10 11  1  0
 11 12  2  0
 12 13  1  0
 13 14  2  0
 13 15  2  0
 13 16  1  0
 16 17  1  0
 17 18  1  0
 18 19  1  0
 19 20  1  0
 20 21  1  0
 21 22  1  0
 22 23  1  0
 23 24  1  0
 12 25  1  0
 25 26  2  0
  5 27  1  0
 27 28  1  0
 28  2  1  0
 26  9  1  0
 24 19  1  0
  1 29  1  0
  1 30  1  0
  1 31  1  0
  2 32  1  0
  3 33  1  0
  3 34  1  0
  4 35  1  0
  4 36  1  0
 10 37  1  0
 11 38  1  0
 16 39  1  0
 17 40  1  0
 17 41  1  0
 18 42  1  0
 18 43  1  0
 20 44  1  0
 20 45  1  0
 21 46  1  0
 21 47  1  0
 23 48  1  0
 23 49  1  0
 24 50  1  0
 24 51  1  0
 25 52  1  0
 26 53  1  0
 27 54  1  0
 27 55  1  0
 28 56  1  0
 28 57  1  0
M  END
>  <UniqueID>  (18) 
18

>  <SMILES>  (18) 
CC1CCN(S(=O)(=O)c2ccc(S(=O)(=O)NCCN3CCOCC3)cc2)CC1

>  <Energy>  (18) 
68.27986750837232

>  <Genealogy>  (18) 
CC1CCN(S(=O)(=O)c2ccc(S(=O)(=O)NCCN3CCOCC3)cc2)CC1 (3D coordinates assigned)
CC1CCN(S(=O)(=O)c2ccc(S(=O)(=O)NCCN3CCOCC3)cc2)CC1 (nonaromatic ring conformer: 68.27986750837232 kcal/mol)

>  <smiles>  (18) 
CC1CCN(S(=O)(=O)c2ccc(S(=O)(=O)NCCN3CCOCC3)cc2)CC1

>  <score_type>  (18) 
oracle

>  <origin>  (18) 
adgpu

>  <m_score__min__energy>  (18) 
-11.24

>  <m_primary>  (18) 
energy

$$$$
18:0
     RDKit          3D

 44 46  0  0  0  0  0  0  0  0999 V2000
   -1.1780   25.8170  -28.9320 N   0  0  0  0  0  0  0  0  0  0  0  0
   -0.9530   24.4110  -29.0140 C   0  0  0  0  0  0  0  0  0  0  0  0
    0.0600   23.9230  -28.4420 O   0  0  0  0  0  0  0  0  0  0  0  0
   -1.8820   23.5230  -29.7620 C   0  0  0  0  0  0  0  0  0  0  0  0
   -1.5350   22.1730  -29.9650 C   0  0  0  0  0  0  0  0  0  0  0  0
   -2.3780   21.3060  -30.6720 C   0  0  0  0  0  0  0  0  0  0  0  0
   -1.9780   19.9360  -30.8260 N   0  0  0  0  0  0  0  0  0  0  0  0
   -1.1670   19.3920  -31.8770 C   0  0  0  0  0  0  0  0  0  0  0  0
    0.0790   19.5850  -31.8830 O   0  0  0  0  0  0  0  0  0  0  0  0
   -1.7860   18.5130  -32.8920 C   0  0  0  0  0  0  0  0  0  0  0  0
   -3.1780   18.5750  -33.0750 C   0  0  0  0  0  0  0  0  0  0  0  0
   -3.8230   17.7320  -33.9890 C   0  0  0  0  0  0  0  0  0  0  0  0
   -5.5770   17.8130  -34.1930 S   0  0  0  0  0  0  0  0  0  0  0  0
   -5.8890   18.5170  -35.4840 O   0  0  0  0  0  0  0  0  0  0  0  0
   -6.1230   16.4140  -34.2820 O   0  0  0  0  0  0  0  0  0  0  0  0
   -6.3730   18.6530  -32.8830 N   0  0  0  0  0  0  0  0  0  0  0  0
   -7.5590   17.9410  -32.4130 C   0  0  0  0  0  0  0  0  0  0  0  0
   -8.4730   18.9900  -31.7940 C   0  0  0  0  0  0  0  0  0  0  0  0
   -7.9900   20.3230  -32.3490 C   0  0  0  0  0  0  0  0  0  0  0  0
   -6.8440   19.9760  -33.2850 C   0  0  0  0  0  0  0  0  0  0  0  0
   -3.0710   16.8020  -34.7170 C   0  0  0  0  0  0  0  0  0  0  0  0
   -1.6870   16.7390  -34.5560 C   0  0  0  0  0  0  0  0  0  0  0  0
   -1.0300   17.5970  -33.6660 C   0  0  0  0  0  0  0  0  0  0  0  0
    0.3630   17.5320  -33.6060 O   0  0  0  0  0  0  0  0  0  0  0  0
   -3.6070   21.7820  -31.1530 C   0  0  0  0  0  0  0  0  0  0  0  0
   -3.9630   23.1180  -30.9650 C   0  0  0  0  0  0  0  0  0  0  0  0
   -3.1130   23.9900  -30.2770 C   0  0  0  0  0  0  0  0  0  0  0  0
   -3.5170   25.3090  -30.1050 O   0  0  0  0  0  0  0  0  0  0  0  0
   -1.2060   26.4070  -29.7930 H   0  0  0  0  0  0  0  0  0  0  0  0
   -0.5851   21.7928  -29.5611 H   0  0  0  0  0  0  0  0  0  0  0  0
   -3.7697   19.2961  -32.4920 H   0  0  0  0  0  0  0  0  0  0  0  0
   -8.0641   17.4457  -33.2553 H   0  0  0  0  0  0  0  0  0  0  0  0
   -7.2935   17.1625  -31.6827 H   0  0  0  0  0  0  0  0  0  0  0  0
   -9.5187   18.8086  -32.0832 H   0  0  0  0  0  0  0  0  0  0  0  0
   -8.4377   18.9669  -30.6948 H   0  0  0  0  0  0  0  0  0  0  0  0
   -8.7982   20.8267  -32.8996 H   0  0  0  0  0  0  0  0  0  0  0  0
   -7.6734   21.0095  -31.5499 H   0  0  0  0  0  0  0  0  0  0  0  0
   -7.1962   19.9546  -34.3269 H   0  0  0  0  0  0  0  0  0  0  0  0
   -6.0384   20.7226  -33.2249 H   0  0  0  0  0  0  0  0  0  0  0  0
   -3.5732   16.1190  -35.4180 H   0  0  0  0  0  0  0  0  0  0  0  0
   -1.1051   16.0068  -35.1350 H   0  0  0  0  0  0  0  0  0  0  0  0
    0.9220   18.1180  -33.0020 H   0  0  0  0  0  0  0  0  0  0  0  0
   -4.2914   21.1005  -31.6795 H   0  0  0  0  0  0  0  0  0  0  0  0
   -4.9200   23.4885  -31.3611 H   0  0  0  0  0  0  0  0  0  0  0  0
  1  2  1  0
  2  3  2  0
  2  4  1  0
  4  5  2  0
  5  6  1  0
  6  7  1  0
  7  8  1  0
  8  9  2  0
  8 10  1  0
 10 11  2  0
 11 12  1  0
 12 13  1  0
 13 14  2  0
 13 15  2  0
 13 16  1  0
 16 17  1  0
 17 18  1  0
 18 19  1  0
 19 20  1  0
 12 21  2  0
 21 22  1  0
 22 23  2  0
 23 24  1  0
  6 25  2  0
 25 26  1  0
 26 27  2  0
 27 28  1  0
 27  4  1  0
 23 10  1  0
 20 16  1  0
  1 29  1  0
  5 30  1  0
 11 31  1  0
 17 32  1  0
 17 33  1  0
 18 34  1  0
 18 35  1  0
 19 36  1  0
 19 37  1  0
 20 38  1  0
 20 39  1  0
 21 40  1  0
 22 41  1  0
 24 42  1  0
 25 43  1  0
 26 44  1  0
M  CHG  3   1  -1   7  -1  28  -1
M  END
>  <UniqueID>  (19) 
19

>  <SMILES>  (19) 
[NH-]C(=O)c1cc([N-]C(=O)c2cc(S(=O)(=O)N3CCCC3)ccc2O)ccc1[O-]

>  <Energy>  (19) 
57.69878468620659

>  <Genealogy>  (19) 
[NH-]C(=O)c1cc([N-]C(=O)c2cc(S(=O)(=O)N3CCCC3)ccc2O)ccc1[O-] (protonated)
[NH-]C(=O)c1cc([N-]C(=O)c2cc(S(=O)(=O)N3CCCC3)ccc2O)ccc1[O-] (3D coordinates assigned)
[NH-]C(=O)c1cc([N-]C(=O)c2cc(S(=O)(=O)N3CCCC3)ccc2O)ccc1[O-] (nonaromatic ring conformer: 57.69878468620659 kcal/mol)

>  <smiles>  (19) 
NC(=O)c1cc(NC(=O)c2cc(S(=O)(=O)N3CCCC3)ccc2O)ccc1O

>  <score_type>  (19) 
oracle

>  <origin>  (19) 
adgpu

>  <m_score__min__energy>  (19) 
-13.630000000000001

>  <m_primary>  (19) 
energy

$$$$
19:0
     RDKit          3D

 46 47  0  0  1  0  0  0  0  0999 V2000
   -9.0860   19.5740  -32.3870 C   0  0  0  0  0  0  0  0  0  0  0  0
   -8.3840   20.5250  -31.4680 C   0  0  0  0  0  0  0  0  0  0  0  0
   -8.9880   21.9170  -31.6140 C   0  0  0  0  0  0  0  0  0  0  0  0
   -7.8140   23.0590  -32.3300 S   0  0  0  0  0  0  0  0  0  0  0  0
   -6.1260   22.7660  -31.8490 C   0  0  0  0  0  0  0  0  0  0  0  0
   -5.8230   22.9140  -30.5470 N   0  0  0  0  0  0  0  0  0  0  0  0
   -4.6010   22.7470  -30.0420 C   0  0  0  0  0  0  0  0  0  0  0  0
   -4.3260   22.8660  -28.8200 N   0  0  0  0  0  0  0  0  0  0  0  0
   -3.1170   22.7330  -28.1380 C   0  0  0  0  0  0  0  0  0  0  0  0
   -2.7710   21.5050  -27.6010 C   0  0  0  0  0  0  0  0  0  0  0  0
   -1.5710   21.4180  -26.9560 C   0  0  0  0  0  0  0  0  0  0  0  0
   -0.7470   22.5230  -26.8540 C   0  0  0  0  0  0  0  0  0  0  0  0
   -1.0470   23.7540  -27.3700 C   0  0  0  0  0  0  0  0  0  0  0  0
   -0.2250   24.9300  -27.3510 C   0  0  0  0  0  0  0  0  0  0  0  0
    0.7430   24.9190  -28.2180 O   0  0  0  0  0  0  0  0  0  0  0  0
   -0.3010   26.0700  -26.5590 N   0  0  0  0  0  0  0  0  0  0  0  0
   -1.2570   26.3970  -25.5500 C   0  0  0  0  0  0  0  0  0  0  0  0
    0.7650   27.0910  -26.7610 C   0  0  0  0  0  0  0  0  0  0  0  0
   -2.2800   23.8480  -28.0330 C   0  0  0  0  0  0  0  0  0  0  0  0
   -2.7300   25.0120  -28.6100 O   0  0  0  0  0  0  0  0  0  0  0  0
   -3.5930   22.4020  -30.9060 C   0  0  0  0  0  0  0  0  0  0  0  0
   -2.2390   22.1520  -30.5370 C   0  0  0  0  0  0  0  0  0  0  0  0
   -1.1140   21.9380  -30.2520 N   0  0  0  0  0  0  0  0  0  0  0  0
   -3.9210   22.2560  -32.2350 C   0  0  0  0  0  0  0  0  0  0  0  0
   -2.9130   21.8820  -33.1960 N   0  0  0  0  0  0  0  0  0  0  0  0
   -5.1600   22.4290  -32.7250 N   0  0  0  0  0  0  0  0  0  0  0  0
   -9.6360   18.8290  -31.7933 H   0  0  0  0  0  0  0  0  0  0  0  0
   -9.7915   20.1306  -33.0214 H   0  0  0  0  0  0  0  0  0  0  0  0
   -8.3463   19.0638  -33.0214 H   0  0  0  0  0  0  0  0  0  0  0  0
   -8.4998   20.1828  -30.4290 H   0  0  0  0  0  0  0  0  0  0  0  0
   -7.3155   20.5614  -31.7267 H   0  0  0  0  0  0  0  0  0  0  0  0
   -9.8732   21.8577  -32.2643 H   0  0  0  0  0  0  0  0  0  0  0  0
   -9.2650   22.2832  -30.6144 H   0  0  0  0  0  0  0  0  0  0  0  0
   -3.4366   20.6338  -27.6904 H   0  0  0  0  0  0  0  0  0  0  0  0
   -1.2573   20.4608  -26.5139 H   0  0  0  0  0  0  0  0  0  0  0  0
    0.2101   22.4052  -26.3247 H   0  0  0  0  0  0  0  0  0  0  0  0
   -0.8091   26.2438  -24.5571 H   0  0  0  0  0  0  0  0  0  0  0  0
   -1.5585   27.4494  -25.6578 H   0  0  0  0  0  0  0  0  0  0  0  0
   -2.1399   25.7497  -25.6578 H   0  0  0  0  0  0  0  0  0  0  0  0
    1.1289   27.4395  -25.7832 H   0  0  0  0  0  0  0  0  0  0  0  0
    1.5978   26.6450  -27.3245 H   0  0  0  0  0  0  0  0  0  0  0  0
    0.3553   27.9423  -27.3245 H   0  0  0  0  0  0  0  0  0  0  0  0
   -3.6930   25.3210  -28.6530 H   0  0  0  0  0  0  0  0  0  0  0  0
   -2.0060   21.5670  -32.7810 H   0  0  0  0  0  0  0  0  0  0  0  0
   -3.1080   21.9290  -34.1980 H   0  0  0  0  0  0  0  0  0  0  0  0
   -5.3670   22.2980  -33.7390 H   0  0  0  0  0  0  0  0  0  0  0  0
  1  2  1  0
  2  3  1  0
  3  4  1  0
  4  5  1  0
  5  6  2  0
  6  7  1  0
  7  8  2  0
  8  9  1  0
  9 10  2  0
 10 11  1  0
 11 12  2  0
 12 13  1  0
 13 14  1  0
 14 15  2  0
 14 16  1  0
 16 17  1  0
 16 18  1  0
 13 19  2  0
 19 20  1  0
  7 21  1  0
 21 22  1  0
 22 23  3  0
 21 24  2  0
 24 25  1  0
 24 26  1  0
 26  5  1  0
 19  9  1  0
  1 27  1  0
  1 28  1  0
  1 29  1  0
  2 30  1  0
  2 31  1  0
  3 32  1  0
  3 33  1  0
 10 34  1  0
 11 35  1  0
 12 36  1  0
 17 37  1  0
 17 38  1  0
 17 39  1  0
 18 40  1  0
 18 41  1  0
 18 42  1  0
 20 43  1  0
 25 44  1  0
 25 45  1  0
 26 46  1  0
M  END
>  <smiles>  (20) 
CCCSc1nc(=Nc2cccc(C(=O)N(C)C)c2O)c(C#N)c(N)[nH]1

>  <score_type>  (20) 
oracle

>  <origin>  (20) 
adgpu

>  <m_score__min__energy>  (20) 
-8.1699999999999999

>  <m_primary>  (20) 
energy

$$$$
20:0
     RDKit          3D

 49 52  0  0  0  0  0  0  0  0999 V2000
   -6.2070   25.0860  -30.7430 C   0  0  0  0  0  0  0  0  0  0  0  0
   -6.6450   23.6840  -31.0850 C   0  0  0  0  0  0  0  0  0  0  0  0
   -7.9950   23.4560  -31.4070 C   0  0  0  0  0  0  0  0  0  0  0  0
   -8.4460   22.1740  -31.7170 C   0  0  0  0  0  0  0  0  0  0  0  0
   -7.5570   21.0960  -31.7100 C   0  0  0  0  0  0  0  0  0  0  0  0
   -8.1110   19.4740  -32.1140 S   0  0  0  0  0  0  0  0  0  0  0  0
   -8.5670   18.7920  -30.8530 O   0  0  0  0  0  0  0  0  0  0  0  0
   -9.2620   19.5460  -33.0800 O   0  0  0  0  0  0  0  0  0  0  0  0
   -6.7970   18.5770  -32.8310 N   0  0  0  0  0  0  0  0  0  0  0  0
   -6.3530   19.2310  -34.0680 C   0  0  0  0  0  0  0  0  0  0  0  0
   -5.0650   18.5610  -34.5830 C   0  0  0  0  0  0  0  0  0  0  0  0
   -4.9510   17.1340  -34.1930 N   0  0  0  0  0  0  0  0  0  0  0  0
   -4.1410   16.9500  -32.9740 C   0  0  0  0  0  0  0  0  0  0  0  0
   -6.2670   16.4730  -34.0870 C   0  0  0  0  0  0  0  0  0  0  0  0
   -7.2150   17.1880  -33.0970 C   0  0  0  0  0  0  0  0  0  0  0  0
   -6.2150   21.3060  -31.3790 C   0  0  0  0  0  0  0  0  0  0  0  0
   -5.7440   22.5900  -31.0650 C   0  0  0  0  0  0  0  0  0  0  0  0
   -4.0340   22.7900  -30.6350 S   0  0  0  0  0  0  0  0  0  0  0  0
   -3.6060   24.2150  -30.8420 O   0  0  0  0  0  0  0  0  0  0  0  0
   -3.8680   22.4490  -29.1810 O   0  0  0  0  0  0  0  0  0  0  0  0
   -3.0190   21.7560  -31.6480 C   0  0  0  0  0  0  0  0  0  0  0  0
   -3.3850   21.5220  -32.9860 C   0  0  0  0  0  0  0  0  0  0  0  0
   -2.6060   20.6960  -33.8100 C   0  0  0  0  0  0  0  0  0  0  0  0
   -1.4410   20.0950  -33.3200 C   0  0  0  0  0  0  0  0  0  0  0  0
   -1.0570   20.3290  -32.0000 C   0  0  0  0  0  0  0  0  0  0  0  0
    0.0640   19.7890  -31.4590 N   0  0  0  0  0  0  0  0  0  0  0  0
   -0.0180   20.4200  -29.9330 S   0  0  0  0  0  0  0  0  0  0  0  0
   -1.3880   21.3450  -29.8920 N   0  0  0  0  0  0  0  0  0  0  0  0
   -1.8450   21.1650  -31.1580 C   0  0  0  0  0  0  0  0  0  0  0  0
   -6.1706   25.2024  -29.6498 H   0  0  0  0  0  0  0  0  0  0  0  0
   -5.2082   25.2713  -31.1649 H   0  0  0  0  0  0  0  0  0  0  0  0
   -6.9227   25.8069  -31.1649 H   0  0  0  0  0  0  0  0  0  0  0  0
   -8.7024   24.2983  -31.4143 H   0  0  0  0  0  0  0  0  0  0  0  0
   -9.5045   22.0105  -31.9678 H   0  0  0  0  0  0  0  0  0  0  0  0
   -7.1406   19.1415  -34.8307 H   0  0  0  0  0  0  0  0  0  0  0  0
   -6.1517   20.2929  -33.8637 H   0  0  0  0  0  0  0  0  0  0  0  0
   -5.0528   18.6252  -35.6811 H   0  0  0  0  0  0  0  0  0  0  0  0
   -4.2162   19.0925  -34.1280 H   0  0  0  0  0  0  0  0  0  0  0  0
   -4.7754   17.0941  -32.0870 H   0  0  0  0  0  0  0  0  0  0  0  0
   -3.7207   15.9335  -32.9630 H   0  0  0  0  0  0  0  0  0  0  0  0
   -3.3228   17.6852  -32.9630 H   0  0  0  0  0  0  0  0  0  0  0  0
   -6.7377   16.4643  -35.0812 H   0  0  0  0  0  0  0  0  0  0  0  0
   -6.0978   15.4541  -33.7085 H   0  0  0  0  0  0  0  0  0  0  0  0
   -8.2293   17.1985  -33.5225 H   0  0  0  0  0  0  0  0  0  0  0  0
   -7.1864   16.6382  -32.1447 H   0  0  0  0  0  0  0  0  0  0  0  0
   -5.5195   20.4539  -31.3645 H   0  0  0  0  0  0  0  0  0  0  0  0
   -4.2931   21.9924  -33.3911 H   0  0  0  0  0  0  0  0  0  0  0  0
   -2.9138   20.5190  -34.8511 H   0  0  0  0  0  0  0  0  0  0  0  0
   -0.8351   19.4454  -33.9687 H   0  0  0  0  0  0  0  0  0  0  0  0
  1  2  1  0
  2  3  2  0
  3  4  1  0
  4  5  2  0
  5  6  1  0
  6  7  2  0
  6  8  2  0
  6  9  1  0
  9 10  1  0
 10 11  1  0
 11 12  1  0
 12 13  1  0
 12 14  1  0
 14 15  1  0
  5 16  1  0
 16 17  2  0
 17 18  1  0
 18 19  2  0
 18 20  2  0
 18 21  1  0
 21 22  2  0
 22 23  1  0
 23 24  2  0
 24 25  1  0
 25 26  2  0
 26 27  1  0
 27 28  1  0
 28 29  2  0
 17  2  1  0
 29 21  1  0
 15  9  1  0
 29 25  1  0
  1 30  1  0
  1 31  1  0
  1 32  1  0
  3 33  1  0
  4 34  1  0
 10 35  1  0
 10 36  1  0
 11 37  1  0
 11 38  1  0
 13 39  1  0
 13 40  1  0
 13 41  1  0
 14 42  1  0
 14 43  1  0
 15 44  1  0
 15 45  1  0
 16 46  1  0
 22 47  1  0
 23 48  1  0
 24 49  1  0
M  END
>  <UniqueID>  (21) 
20

>  <SMILES>  (21) 
Cc1ccc(S(=O)(=O)N2CCN(C)CC2)cc1S(=O)(=O)c1cccc2nsnc12

>  <Energy>  (21) 
102.04478780928288

>  <Genealogy>  (21) 
Cc1ccc(S(=O)(=O)N2CCN(C)CC2)cc1S(=O)(=O)c1cccc2nsnc12 (3D coordinates assigned)
Cc1ccc(S(=O)(=O)N2CCN(C)CC2)cc1S(=O)(=O)c1cccc2nsnc12 (nonaromatic ring conformer: 102.04478780928288 kcal/mol)

>  <smiles>  (21) 
Cc1ccc(S(=O)(=O)N2CCN(C)CC2)cc1S(=O)(=O)c1cccc2nsnc12

>  <score_type>  (21) 
oracle

>  <origin>  (21) 
adgpu

>  <m_score__min__energy>  (21) 
-10.02

>  <m_primary>  (21) 
energy

$$$$
21:0
     RDKit          3D

 68 71  0  0  0  0  0  0  0  0999 V2000
   -3.0790   17.0000  -33.5400 C   0  0  0  0  0  0  0  0  0  0  0  0
   -4.4530   17.5020  -33.3900 N   0  0  0  0  0  0  0  0  0  0  0  0
   -5.4100   16.5820  -34.0180 C   0  0  0  0  0  0  0  0  0  0  0  0
   -6.8480   16.9940  -33.6540 C   0  0  0  0  0  0  0  0  0  0  0  0
   -7.0120   18.4540  -33.4590 N   0  0  0  0  0  0  0  0  0  0  0  0
   -7.0270   18.9080  -31.7670 S   0  0  0  0  0  0  0  0  0  0  0  0
   -8.4320   19.1750  -31.2990 O   0  0  0  0  0  0  0  0  0  0  0  0
   -6.4380   17.8020  -30.9330 O   0  0  0  0  0  0  0  0  0  0  0  0
   -6.0470   20.3540  -31.5530 C   0  0  0  0  0  0  0  0  0  0  0  0
   -4.6910   20.2350  -31.2290 C   0  0  0  0  0  0  0  0  0  0  0  0
   -3.8800   21.3700  -31.1480 C   0  0  0  0  0  0  0  0  0  0  0  0
   -4.4200   22.6410  -31.3710 C   0  0  0  0  0  0  0  0  0  0  0  0
   -3.5500   23.7810  -31.3640 N   0  0  0  0  0  0  0  0  0  0  0  0
   -3.5980   24.8320  -30.3930 C   0  0  0  0  0  0  0  0  0  0  0  0
   -4.4930   25.7110  -30.4820 O   0  0  0  0  0  0  0  0  0  0  0  0
   -2.6530   24.8960  -29.3160 N   0  0  0  0  0  0  0  0  0  0  0  0
   -2.2060   23.7830  -28.5290 C   0  0  0  0  0  0  0  0  0  0  0  0
   -3.0490   22.6850  -28.2810 C   0  0  0  0  0  0  0  0  0  0  0  0
   -2.6120   21.6300  -27.4770 C   0  0  0  0  0  0  0  0  0  0  0  0
   -1.3260   21.6610  -26.9530 C   0  0  0  0  0  0  0  0  0  0  0  0
   -0.5080   22.7100  -27.2260 N   0  0  0  0  0  0  0  0  0  0  0  0
   -0.8940   23.7590  -27.9980 C   0  0  0  0  0  0  0  0  0  0  0  0
    0.0200   24.8100  -28.1730 O   0  0  0  0  0  0  0  0  0  0  0  0
    1.1500   25.0830  -27.3900 C   0  0  0  0  0  0  0  0  0  0  0  0
    2.4200   24.6450  -27.8130 C   0  0  0  0  0  0  0  0  0  0  0  0
    3.5580   24.9510  -27.0710 C   0  0  0  0  0  0  0  0  0  0  0  0
    3.4470   25.6850  -25.8970 C   0  0  0  0  0  0  0  0  0  0  0  0
    2.1920   26.0810  -25.4300 C   0  0  0  0  0  0  0  0  0  0  0  0
    1.0060   25.7670  -26.1460 C   0  0  0  0  0  0  0  0  0  0  0  0
   -0.3950   26.1640  -25.6090 C   0  0  0  0  0  0  0  0  0  0  0  0
   -1.2110   24.9500  -25.0980 C   0  0  0  0  0  0  0  0  0  0  0  0
   -0.2550   27.1450  -24.4240 C   0  0  0  0  0  0  0  0  0  0  0  0
   -1.2300   26.8240  -26.7370 C   0  0  0  0  0  0  0  0  0  0  0  0
   -5.7850   22.7620  -31.6890 C   0  0  0  0  0  0  0  0  0  0  0  0
   -6.5920   21.6240  -31.7820 C   0  0  0  0  0  0  0  0  0  0  0  0
   -6.0500   19.2510  -34.2410 C   0  0  0  0  0  0  0  0  0  0  0  0
   -4.5800   18.8590  -33.9640 C   0  0  0  0  0  0  0  0  0  0  0  0
   -2.6370   16.8385  -32.5457 H   0  0  0  0  0  0  0  0  0  0  0  0
   -3.0943   16.0494  -34.0932 H   0  0  0  0  0  0  0  0  0  0  0  0
   -2.4779   17.7366  -34.0932 H   0  0  0  0  0  0  0  0  0  0  0  0
   -5.2861   16.6164  -35.1105 H   0  0  0  0  0  0  0  0  0  0  0  0
   -5.2227   15.5607  -33.6548 H   0  0  0  0  0  0  0  0  0  0  0  0
   -7.5182   16.6734  -34.4652 H   0  0  0  0  0  0  0  0  0  0  0  0
   -7.0914   16.5098  -32.6967 H   0  0  0  0  0  0  0  0  0  0  0  0
   -4.2605   19.2412  -31.0367 H   0  0  0  0  0  0  0  0  0  0  0  0
   -2.8119   21.2635  -30.9077 H   0  0  0  0  0  0  0  0  0  0  0  0
   -4.0564   22.6570  -28.7219 H   0  0  0  0  0  0  0  0  0  0  0  0
   -3.2796   20.7829  -27.2609 H   0  0  0  0  0  0  0  0  0  0  0  0
   -0.9705   20.8366  -26.3175 H   0  0  0  0  0  0  0  0  0  0  0  0
    2.5138   24.0562  -28.7374 H   0  0  0  0  0  0  0  0  0  0  0  0
    4.5460   24.6110  -27.4150 H   0  0  0  0  0  0  0  0  0  0  0  0
    4.3516   25.9555  -25.3327 H   0  0  0  0  0  0  0  0  0  0  0  0
    2.1204   26.6470  -24.4895 H   0  0  0  0  0  0  0  0  0  0  0  0
   -1.2133   24.9466  -23.9980 H   0  0  0  0  0  0  0  0  0  0  0  0
   -2.2449   25.0218  -25.4666 H   0  0  0  0  0  0  0  0  0  0  0  0
   -0.7541   24.0197  -25.4666 H   0  0  0  0  0  0  0  0  0  0  0  0
   -0.3342   26.5903  -23.4774 H   0  0  0  0  0  0  0  0  0  0  0  0
    0.7236   27.6448  -24.4754 H   0  0  0  0  0  0  0  0  0  0  0  0
   -1.0547   27.8985  -24.4754 H   0  0  0  0  0  0  0  0  0  0  0  0
   -2.0192   27.4478  -26.2919 H   0  0  0  0  0  0  0  0  0  0  0  0
   -0.5746   27.4508  -27.3596 H   0  0  0  0  0  0  0  0  0  0  0  0
   -1.6885   26.0416  -27.3596 H   0  0  0  0  0  0  0  0  0  0  0  0
   -6.2197   23.7570  -31.8654 H   0  0  0  0  0  0  0  0  0  0  0  0
   -7.6575   21.7262  -32.0356 H   0  0  0  0  0  0  0  0  0  0  0  0
   -6.2577   19.1015  -35.3108 H   0  0  0  0  0  0  0  0  0  0  0  0
   -6.1733   20.3029  -33.9438 H   0  0  0  0  0  0  0  0  0  0  0  0
   -4.0211   18.8950  -34.9108 H   0  0  0  0  0  0  0  0  0  0  0  0
   -4.1776   19.5713  -33.2287 H   0  0  0  0  0  0  0  0  0  0  0  0
  1  2  1  0
  2  3  1  0
  3  4  1  0
  4  5  1  0
  5  6  1  0
  6  7  2  0
  6  8  2  0
  6  9  1  0
  9 10  2  0
 10 11  1  0
 11 12  2  0
 12 13  1  0
 13 14  1  0
 14 15  2  0
 14 16  1  0
 16 17  1  0
 17 18  2  0
 18 19  1  0
 19 20  2  0
 20 21  1  0
 21 22  2  0
 22 23  1  0
 23 24  1  0
 24 25  2  0
 25 26  1  0
 26 27  2  0
 27 28  1  0
 28 29  2  0
 29 30  1  0
 30 31  1  0
 30 32  1  0
 30 33  1  0
 12 34  1  0
 34 35  2  0
  5 36  1  0
 36 37  1  0
 37  2  1  0
 35  9  1  0
 22 17  1  0
 29 24  1  0
  1 38  1  0
  1 39  1  0
  1 40  1  0
  3 41  1  0
  3 42  1  0
  4 43  1  0
  4 44  1  0
 10 45  1  0
 11 46  1  0
 18 47  1  0
 19 48  1  0
 20 49  1  0
 25 50  1  0
 26 51  1  0
 27 52  1  0
 28 53  1  0
 31 54  1  0
 31 55  1  0
 31 56  1  0
 32 57  1  0
 32 58  1  0
 32 59  1  0
 33 60  1  0
 33 61  1  0
 33 62  1  0
 34 63  1  0
 35 64  1  0
 36 65  1  0
 36 66  1  0
 37 67  1  0
 37 68  1  0
M  CHG  2  13  -1  16  -1
M  END
>  <UniqueID>  (22) 
21

>  <SMILES>  (22) 
CN1CCN(S(=O)(=O)c2ccc([N-]C(=O)[N-]c3cccnc3Oc3ccccc3C(C)(C)C)cc2)CC1

>  <Energy>  (22) 
100.893397947156

>  <Genealogy>  (22) 
CN1CCN(S(=O)(=O)c2ccc([N-]C(=O)[N-]c3cccnc3Oc3ccccc3C(C)(C)C)cc2)CC1 (protonated)
CN1CCN(S(=O)(=O)c2ccc([N-]C(=O)[N-]c3cccnc3Oc3ccccc3C(C)(C)C)cc2)CC1 (3D coordinates assigned)
CN1CCN(S(=O)(=O)c2ccc([N-]C(=O)[N-]c3cccnc3Oc3ccccc3C(C)(C)C)cc2)CC1 (nonaromatic ring conformer: 100.893397947156 kcal/mol)

>  <smiles>  (22) 
CN1CCN(S(=O)(=O)c2ccc(NC(=O)Nc3cccnc3Oc3ccccc3C(C)(C)C)cc2)CC1

>  <score_type>  (22) 
oracle

>  <origin>  (22) 
adgpu

>  <m_score__min__energy>  (22) 
-12.98

>  <m_primary>  (22) 
energy

$$$$
22:0
     RDKit          3D

 50 53  0  0  0  0  0  0  0  0999 V2000
    2.6990   15.8410  -26.6290 C   0  0  0  0  0  0  0  0  0  0  0  0
    2.0100   16.8020  -27.5530 C   0  0  0  0  0  0  0  0  0  0  0  0
    0.6250   16.9940  -27.4690 C   0  0  0  0  0  0  0  0  0  0  0  0
   -0.0240   17.8600  -28.3520 C   0  0  0  0  0  0  0  0  0  0  0  0
    0.7000   18.5430  -29.3470 C   0  0  0  0  0  0  0  0  0  0  0  0
   -0.0040   19.4590  -30.2770 C   0  0  0  0  0  0  0  0  0  0  0  0
   -1.2120   20.1010  -30.0620 C   0  0  0  0  0  0  0  0  0  0  0  0
   -1.4200   20.8210  -31.2220 C   0  0  0  0  0  0  0  0  0  0  0  0
   -2.5770   21.6770  -31.5320 C   0  0  0  0  0  0  0  0  0  0  0  0
   -2.9650   21.7720  -32.7290 O   0  0  0  0  0  0  0  0  0  0  0  0
   -3.2380   22.4260  -30.4990 N   0  0  0  0  0  0  0  0  0  0  0  0
   -4.5000   23.0850  -30.6940 C   0  0  0  0  0  0  0  0  0  0  0  0
   -5.6370   22.3140  -30.9750 C   0  0  0  0  0  0  0  0  0  0  0  0
   -6.8820   22.9250  -31.1870 C   0  0  0  0  0  0  0  0  0  0  0  0
   -8.3120   21.9420  -31.5190 S   0  0  0  0  0  0  0  0  0  0  0  0
   -9.3110   22.7710  -32.2780 O   0  0  0  0  0  0  0  0  0  0  0  0
   -8.9410   21.5380  -30.2140 O   0  0  0  0  0  0  0  0  0  0  0  0
   -7.9500   20.5040  -32.4430 N   0  0  0  0  0  0  0  0  0  0  0  0
   -6.6730   20.6100  -33.1480 C   0  0  0  0  0  0  0  0  0  0  0  0
   -6.1780   19.1880  -33.3560 C   0  0  0  0  0  0  0  0  0  0  0  0
   -6.9400   18.3420  -32.3460 C   0  0  0  0  0  0  0  0  0  0  0  0
   -7.8290   19.3210  -31.5940 C   0  0  0  0  0  0  0  0  0  0  0  0
   -6.9850   24.3200  -31.1150 C   0  0  0  0  0  0  0  0  0  0  0  0
   -5.8530   25.0970  -30.8610 C   0  0  0  0  0  0  0  0  0  0  0  0
   -4.6090   24.4890  -30.6640 C   0  0  0  0  0  0  0  0  0  0  0  0
   -3.4880   25.2880  -30.4690 O   0  0  0  0  0  0  0  0  0  0  0  0
   -0.3980   20.6140  -32.0730 N   0  0  0  0  0  0  0  0  0  0  0  0
    0.4620   19.7880  -31.4980 N   0  0  0  0  0  0  0  0  0  0  0  0
    2.0890   18.3310  -29.4380 C   0  0  0  0  0  0  0  0  0  0  0  0
    2.7350   17.4640  -28.5530 C   0  0  0  0  0  0  0  0  0  0  0  0
    2.4953   16.1252  -25.5860 H   0  0  0  0  0  0  0  0  0  0  0  0
    2.3235   14.8234  -26.8118 H   0  0  0  0  0  0  0  0  0  0  0  0
    3.7833   15.8700  -26.8118 H   0  0  0  0  0  0  0  0  0  0  0  0
    0.0447   16.4593  -26.7026 H   0  0  0  0  0  0  0  0  0  0  0  0
   -1.1106   18.0095  -28.2690 H   0  0  0  0  0  0  0  0  0  0  0  0
   -1.8571   20.0494  -29.1725 H   0  0  0  0  0  0  0  0  0  0  0  0
   -2.7090   22.6420  -29.6250 H   0  0  0  0  0  0  0  0  0  0  0  0
   -5.5519   21.2187  -31.0298 H   0  0  0  0  0  0  0  0  0  0  0  0
   -6.8143   21.1093  -34.1179 H   0  0  0  0  0  0  0  0  0  0  0  0
   -5.9480   21.2043  -32.5725 H   0  0  0  0  0  0  0  0  0  0  0  0
   -6.3941   18.8514  -34.3807 H   0  0  0  0  0  0  0  0  0  0  0  0
   -5.0897   19.1096  -33.2165 H   0  0  0  0  0  0  0  0  0  0  0  0
   -7.5495   17.5840  -32.8598 H   0  0  0  0  0  0  0  0  0  0  0  0
   -6.2624   17.7999  -31.6700 H   0  0  0  0  0  0  0  0  0  0  0  0
   -8.8196   18.8767  -31.4171 H   0  0  0  0  0  0  0  0  0  0  0  0
   -7.4011   19.5760  -30.6132 H   0  0  0  0  0  0  0  0  0  0  0  0
   -7.9615   24.8054  -31.2591 H   0  0  0  0  0  0  0  0  0  0  0  0
   -5.9401   26.1926  -30.8156 H   0  0  0  0  0  0  0  0  0  0  0  0
    2.6706   18.8524  -30.2125 H   0  0  0  0  0  0  0  0  0  0  0  0
    3.8191   17.3001  -28.6417 H   0  0  0  0  0  0  0  0  0  0  0  0
  1  2  1  0
  2  3  2  0
  3  4  1  0
  4  5  2  0
  5  6  1  0
  6  7  1  0
  7  8  2  0
  8  9  1  0
  9 10  2  0
  9 11  1  0
 11 12  1  0
 12 13  2  0
 13 14  1  0
 14 15  1  0
 15 16  2  0
 15 17  2  0
 15 18  1  0
 18 19  1  0
 19 20  1  0
 20 21  1  0
 21 22  1  0
 14 23  2  0
 23 24  1  0
 24 25  2  0
 25 26  1  0
  8 27  1  0
 27 28  1  0
  5 29  1  0
 29 30  2  0
 30  2  1  0
 28  6  2  0
 25 12  1  0
 22 18  1  0
  1 31  1  0
  1 32  1  0
  1 33  1  0
  3 34  1  0
  4 35  1  0
  7 36  1  0
 11 37  1  0
 13 38  1  0
 19 39  1  0
 19 40  1  0
 20 41  1  0
 20 42  1  0
 21 43  1  0
 21 44  1  0
 22 45  1  0
 22 46  1  0
 23 47  1  0
 24 48  1  0
 29 49  1  0
 30 50  1  0
M  CHG  2  26  -1  27  -1
M  END
>  <UniqueID>  (23) 
22

>  <SMILES>  (23) 
Cc1ccc(-c2cc(C(=O)Nc3cc(S(=O)(=O)N4CCCC4)ccc3[O-])[n-]n2)cc1

>  <Energy>  (23) 
89.00128760873223

>  <Genealogy>  (23) 
Cc1ccc(-c2cc(C(=O)Nc3cc(S(=O)(=O)N4CCCC4)ccc3[O-])[n-]n2)cc1 (protonated)
Cc1ccc(-c2cc(C(=O)Nc3cc(S(=O)(=O)N4CCCC4)ccc3[O-])[n-]n2)cc1 (3D coordinates assigned)
Cc1ccc(-c2cc(C(=O)Nc3cc(S(=O)(=O)N4CCCC4)ccc3[O-])[n-]n2)cc1 (nonaromatic ring conformer: 89.00128760873223 kcal/mol)

>  <smiles>  (23) 
Cc1ccc(-c2cc(C(=O)Nc3cc(S(=O)(=O)N4CCCC4)ccc3O)[nH]n2)cc1

>  <score_type>  (23) 
oracle

>  <origin>  (23) 
adgpu

>  <m_score__min__energy>  (23) 
-12.369999999999999

>  <m_primary>  (23) 
energy

$$$$
23:0
     RDKit          3D

 61 64  0  0  0  0  0  0  0  0999 V2000
   -3.4740   21.7030  -31.4430 C   0  0  0  0  0  0  0  0  0  0  0  0
   -4.9490   21.9570  -31.5000 C   0  0  0  0  0  0  0  0  0  0  0  0
   -5.7700   20.9450  -31.8840 N   0  0  0  0  0  0  0  0  0  0  0  0
   -7.1160   21.0720  -31.9630 C   0  0  0  0  0  0  0  0  0  0  0  0
   -8.0700   19.5860  -32.2830 S   0  0  0  0  0  0  0  0  0  0  0  0
   -6.6250   18.7010  -32.8940 C   0  0  0  0  0  0  0  0  0  0  0  0
   -6.1310   19.0160  -34.1620 C   0  0  0  0  0  0  0  0  0  0  0  0
   -5.0130   18.3510  -34.6740 C   0  0  0  0  0  0  0  0  0  0  0  0
   -4.3800   17.3700  -33.9150 C   0  0  0  0  0  0  0  0  0  0  0  0
   -4.8820   17.0280  -32.6580 C   0  0  0  0  0  0  0  0  0  0  0  0
   -5.9950   17.6930  -32.1270 C   0  0  0  0  0  0  0  0  0  0  0  0
   -6.4780   17.3250  -30.8360 N   0  0  0  0  0  0  0  0  0  0  0  0
   -7.7180   22.3160  -31.6790 C   0  0  0  0  0  0  0  0  0  0  0  0
   -9.1430   22.5090  -31.7550 N   0  0  0  0  0  0  0  0  0  0  0  0
   -9.6150   23.4590  -32.4110 O   0  0  0  0  0  0  0  0  0  0  0  0
  -10.0110   21.5800  -31.2330 O   0  0  0  0  0  0  0  0  0  0  0  0
   -6.8900   23.3740  -31.2630 C   0  0  0  0  0  0  0  0  0  0  0  0
   -5.5040   23.1960  -31.1380 C   0  0  0  0  0  0  0  0  0  0  0  0
   -4.6840   24.2470  -30.5180 C   0  0  0  0  0  0  0  0  0  0  0  0
   -4.2810   25.2280  -31.1940 O   0  0  0  0  0  0  0  0  0  0  0  0
   -4.4060   24.1540  -29.1190 N   0  0  0  0  0  0  0  0  0  0  0  0
   -3.2580   23.5770  -28.5000 C   0  0  0  0  0  0  0  0  0  0  0  0
   -3.2690   22.2970  -27.9200 C   0  0  0  0  0  0  0  0  0  0  0  0
   -2.1620   21.8510  -27.1920 C   0  0  0  0  0  0  0  0  0  0  0  0
   -1.0490   22.6850  -27.0180 C   0  0  0  0  0  0  0  0  0  0  0  0
   -1.0310   23.9610  -27.5940 C   0  0  0  0  0  0  0  0  0  0  0  0
    0.2790   25.0840  -27.2360 S   0  0  0  0  0  0  0  0  0  0  0  0
   -0.0350   26.4290  -27.8310 O   0  0  0  0  0  0  0  0  0  0  0  0
    1.5530   24.5670  -27.8540 O   0  0  0  0  0  0  0  0  0  0  0  0
    0.4600   25.2070  -25.4960 N   0  0  0  0  0  0  0  0  0  0  0  0
   -0.8560   25.1740  -24.7970 C   0  0  0  0  0  0  0  0  0  0  0  0
   -1.2320   26.4870  -24.0910 C   0  0  0  0  0  0  0  0  0  0  0  0
   -0.8620   27.6990  -24.9470 C   0  0  0  0  0  0  0  0  0  0  0  0
    0.6310   27.7160  -25.3090 C   0  0  0  0  0  0  0  0  0  0  0  0
    1.3160   26.3530  -25.1160 C   0  0  0  0  0  0  0  0  0  0  0  0
   -2.1330   24.3900  -28.3520 C   0  0  0  0  0  0  0  0  0  0  0  0
   -3.1518   21.6475  -30.3927 H   0  0  0  0  0  0  0  0  0  0  0  0
   -3.2459   20.7524  -31.9472 H   0  0  0  0  0  0  0  0  0  0  0  0
   -2.9410   22.5226  -31.9472 H   0  0  0  0  0  0  0  0  0  0  0  0
   -6.6257   19.7936  -34.7625 H   0  0  0  0  0  0  0  0  0  0  0  0
   -4.6337   18.6024  -35.6755 H   0  0  0  0  0  0  0  0  0  0  0  0
   -3.4845   16.8646  -34.3058 H   0  0  0  0  0  0  0  0  0  0  0  0
   -4.3985   16.2279  -32.0783 H   0  0  0  0  0  0  0  0  0  0  0  0
   -7.3510   17.7610  -30.4480 H   0  0  0  0  0  0  0  0  0  0  0  0
   -6.0150   16.5870  -30.2590 H   0  0  0  0  0  0  0  0  0  0  0  0
   -7.3347   24.3534  -31.0327 H   0  0  0  0  0  0  0  0  0  0  0  0
   -4.1480   21.6465  -28.0388 H   0  0  0  0  0  0  0  0  0  0  0  0
   -2.1644   20.8419  -26.7541 H   0  0  0  0  0  0  0  0  0  0  0  0
   -0.1884   22.3365  -26.4281 H   0  0  0  0  0  0  0  0  0  0  0  0
    0.9820   24.3440  -25.2150 H   0  0  0  0  0  0  0  0  0  0  0  0
   -1.6348   24.9474  -25.5400 H   0  0  0  0  0  0  0  0  0  0  0  0
   -0.7763   24.4069  -24.0126 H   0  0  0  0  0  0  0  0  0  0  0  0
   -2.3160   26.4967  -23.9043 H   0  0  0  0  0  0  0  0  0  0  0  0
   -0.6756   26.5457  -23.1439 H   0  0  0  0  0  0  0  0  0  0  0  0
   -1.4518   27.6712  -25.8751 H   0  0  0  0  0  0  0  0  0  0  0  0
   -1.0796   28.6055  -24.3631 H   0  0  0  0  0  0  0  0  0  0  0  0
    0.7318   28.0118  -26.3637 H   0  0  0  0  0  0  0  0  0  0  0  0
    1.1238   28.4287  -24.6314 H   0  0  0  0  0  0  0  0  0  0  0  0
    2.2256   26.3291  -25.7341 H   0  0  0  0  0  0  0  0  0  0  0  0
    1.5396   26.2504  -24.0439 H   0  0  0  0  0  0  0  0  0  0  0  0
   -2.1092   25.3782  -28.8346 H   0  0  0  0  0  0  0  0  0  0  0  0
  1  2  1  0
  2  3  2  0
  3  4  1  0
  4  5  1  0
  5  6  1  0
  6  7  2  0
  7  8  1  0
  8  9  2  0
  9 10  1  0
 10 11  2  0
 11 12  1  0
  4 13  2  0
 13 14  1  0
 14 15  2  0
 14 16  1  0
 13 17  1  0
 17 18  2  0
 18 19  1  0
 19 20  2  0
 19 21  1  0
 21 22  1  0
 22 23  2  0
 23 24  1  0
 24 25  2  0
 25 26  1  0
 26 27  1  0
 27 28  2  0
 27 29  2  0
 27 30  1  0
 30 31  1  0
 31 32  1  0
 32 33  1  0
 33 34  1  0
 34 35  1  0
 26 36  2  0
 18  2  1  0
 36 22  1  0
 11  6  1  0
 35 30  1  0
  1 37  1  0
  1 38  1  0
  1 39  1  0
  7 40  1  0
  8 41  1  0
  9 42  1  0
 10 43  1  0
 12 44  1  0
 12 45  1  0
 17 46  1  0
 23 47  1  0
 24 48  1  0
 25 49  1  0
 30 50  1  0
 31 51  1  0
 31 52  1  0
 32 53  1  0
 32 54  1  0
 33 55  1  0
 33 56  1  0
 34 57  1  0
 34 58  1  0
 35 59  1  0
 35 60  1  0
 36 61  1  0
M  CHG  4  14   1  16  -1  21  -1  30   1
M  END
>  <UniqueID>  (24) 
23

>  <SMILES>  (24) 
Cc1nc(Sc2ccccc2N)c([N+](=O)[O-])cc1C(=O)[N-]c1cccc(S(=O)(=O)[NH+]2CCCCC2)c1

>  <Energy>  (24) 
86.89688370854503

>  <Genealogy>  (24) 
Cc1nc(Sc2ccccc2N)c([N+](=O)[O-])cc1C(=O)[N-]c1cccc(S(=O)(=O)[NH+]2CCCCC2)c1 (protonated)
Cc1nc(Sc2ccccc2N)c([N+](=O)[O-])cc1C(=O)[N-]c1cccc(S(=O)(=O)[NH+]2CCCCC2)c1 (3D coordinates assigned)
Cc1nc(Sc2ccccc2N)c([N+](=O)[O-])cc1C(=O)[N-]c1cccc(S(=O)(=O)[NH+]2CCCCC2)c1 (nonaromatic ring conformer: 86.89688370854503 kcal/mol)

>  <smiles>  (24) 
Cc1nc(Sc2ccccc2N)c([N+](=O)[O-])cc1C(=O)Nc1cccc(S(=O)(=O)N2CCCCC2)c1

>  <score_type>  (24) 
oracle

>  <origin>  (24) 
adgpu

>  <m_score__min__energy>  (24) 
-12.07

>  <m_primary>  (24) 
energy

$$$$
24:0
     RDKit          3D

 26 27  0  0  0  0  0  0  0  0999 V2000
   -1.1990   22.0820  -25.5140 O   0  0  0  0  0  0  0  0  0  0  0  0
   -1.4100   21.5060  -26.8860 S   0  0  0  0  0  0  0  0  0  0  0  0
   -2.3020   20.3010  -26.7810 O   0  0  0  0  0  0  0  0  0  0  0  0
    0.1210   21.0200  -27.5380 N   0  0  0  0  0  0  0  0  0  0  0  0
    0.3370   19.8740  -28.3740 C   0  0  0  0  0  0  0  0  0  0  0  0
    0.7050   18.6230  -27.8470 C   0  0  0  0  0  0  0  0  0  0  0  0
    0.8940   17.5270  -28.6970 C   0  0  0  0  0  0  0  0  0  0  0  0
    1.3480   15.9730  -28.0120 Cl  0  0  0  0  0  0  0  0  0  0  0  0
    0.7210   17.6730  -30.0800 C   0  0  0  0  0  0  0  0  0  0  0  0
    0.9090   16.5850  -30.9240 O   0  0  0  0  0  0  0  0  0  0  0  0
    0.3590   18.9190  -30.6090 C   0  0  0  0  0  0  0  0  0  0  0  0
    0.1380   19.1240  -32.3400 Cl  0  0  0  0  0  0  0  0  0  0  0  0
    0.1700   20.0120  -29.7570 C   0  0  0  0  0  0  0  0  0  0  0  0
   -2.1430   22.7350  -27.9120 C   0  0  0  0  0  0  0  0  0  0  0  0
   -3.4280   22.5430  -28.4390 C   0  0  0  0  0  0  0  0  0  0  0  0
   -4.0010   23.5160  -29.2640 C   0  0  0  0  0  0  0  0  0  0  0  0
   -3.2960   24.6860  -29.5640 C   0  0  0  0  0  0  0  0  0  0  0  0
   -3.8690   25.6490  -30.3850 O   0  0  0  0  0  0  0  0  0  0  0  0
   -2.0140   24.8840  -29.0350 C   0  0  0  0  0  0  0  0  0  0  0  0
   -1.3080   26.0450  -29.3280 O   0  0  0  0  0  0  0  0  0  0  0  0
   -1.4400   23.9110  -28.2080 C   0  0  0  0  0  0  0  0  0  0  0  0
    0.8449   18.5054  -26.7623 H   0  0  0  0  0  0  0  0  0  0  0  0
   -0.1123   20.9885  -30.1773 H   0  0  0  0  0  0  0  0  0  0  0  0
   -3.9865   21.6252  -28.2031 H   0  0  0  0  0  0  0  0  0  0  0  0
   -5.0083   23.3608  -29.6778 H   0  0  0  0  0  0  0  0  0  0  0  0
   -0.4351   24.0697  -27.7896 H   0  0  0  0  0  0  0  0  0  0  0  0
  1  2  2  0
  2  3  2  0
  2  4  1  0
  4  5  1  0
  5  6  2  0
  6  7  1  0
  7  8  1  0
  7  9  2  0
  9 10  1  0
  9 11  1  0
 11 12  1  0
 11 13  2  0
  2 14  1  0
 14 15  2  0
 15 16  1  0
 16 17  2  0
 17 18  1  0
 17 19  1  0
 19 20  1  0
 19 21  2  0
 13  5  1  0
 21 14  1  0
  6 22  1  0
 13 23  1  0
 15 24  1  0
 16 25  1  0
 21 26  1  0
M  CHG  4   4  -1  10  -1  18  -1  20  -1
M  END
>  <UniqueID>  (25) 
24

>  <SMILES>  (25) 
O=S(=O)([N-]c1cc(Cl)c([O-])c(Cl)c1)c1ccc([O-])c([O-])c1

>  <Energy>  (25) 
30.92521718883711

>  <Genealogy>  (25) 
O=S(=O)([N-]c1cc(Cl)c([O-])c(Cl)c1)c1ccc([O-])c([O-])c1 (protonated)
O=S(=O)([N-]c1cc(Cl)c([O-])c(Cl)c1)c1ccc([O-])c([O-])c1 (3D coordinates assigned)
O=S(=O)([N-]c1cc(Cl)c([O-])c(Cl)c1)c1ccc([O-])c([O-])c1 (optimized conformer: 30.92521718883711 kcal/mol)

>  <smiles>  (25) 
O=S(=O)(Nc1cc(Cl)c(O)c(Cl)c1)c1ccc(O)c(O)c1

>  <score_type>  (25) 
oracle

>  <origin>  (25) 
adgpu

>  <m_score__min__energy>  (25) 
-12.359999999999999

>  <m_primary>  (25) 
energy

$$$$
25:0
     RDKit          3D

 51 53  0  0  0  0  0  0  0  0999 V2000
   -1.2040   21.7450  -26.3140 C   0  0  0  0  0  0  0  0  0  0  0  0
   -1.7080   22.6100  -27.4390 C   0  0  0  0  0  0  0  0  0  0  0  0
   -2.7310   22.1010  -28.2530 C   0  0  0  0  0  0  0  0  0  0  0  0
   -3.2700   22.8660  -29.2810 C   0  0  0  0  0  0  0  0  0  0  0  0
   -2.8570   24.1840  -29.4680 C   0  0  0  0  0  0  0  0  0  0  0  0
   -3.4960   24.9630  -30.4890 N   0  0  0  0  0  0  0  0  0  0  0  0
   -4.8910   24.9050  -30.8120 C   0  0  0  0  0  0  0  0  0  0  0  0
   -5.7170   25.4910  -30.0650 O   0  0  0  0  0  0  0  0  0  0  0  0
   -5.3720   24.1920  -31.9610 N   0  0  0  0  0  0  0  0  0  0  0  0
   -6.2900   23.0890  -31.9380 C   0  0  0  0  0  0  0  0  0  0  0  0
   -7.6620   23.2760  -31.6940 C   0  0  0  0  0  0  0  0  0  0  0  0
   -8.5310   22.1840  -31.6870 C   0  0  0  0  0  0  0  0  0  0  0  0
   -8.0360   20.8940  -31.8880 C   0  0  0  0  0  0  0  0  0  0  0  0
   -6.6640   20.6870  -32.0800 C   0  0  0  0  0  0  0  0  0  0  0  0
   -6.0340   19.0510  -32.2840 S   0  0  0  0  0  0  0  0  0  0  0  0
   -6.4390   18.2150  -31.1010 O   0  0  0  0  0  0  0  0  0  0  0  0
   -4.5310   19.1050  -32.3170 O   0  0  0  0  0  0  0  0  0  0  0  0
   -6.6390   18.2940  -33.7370 N   0  0  0  0  0  0  0  0  0  0  0  0
   -5.7010   18.5140  -34.8440 C   0  0  0  0  0  0  0  0  0  0  0  0
   -6.8320   16.8580  -33.5120 C   0  0  0  0  0  0  0  0  0  0  0  0
   -5.7940   21.7890  -32.1010 C   0  0  0  0  0  0  0  0  0  0  0  0
   -1.8140   24.7130  -28.6830 C   0  0  0  0  0  0  0  0  0  0  0  0
   -1.4420   26.0440  -28.8890 O   0  0  0  0  0  0  0  0  0  0  0  0
   -1.1680   23.8960  -27.7170 C   0  0  0  0  0  0  0  0  0  0  0  0
    0.3420   24.4480  -26.9450 S   0  0  0  0  0  0  0  0  0  0  0  0
    1.0410   25.4330  -27.8410 O   0  0  0  0  0  0  0  0  0  0  0  0
    1.2850   23.2960  -26.7370 O   0  0  0  0  0  0  0  0  0  0  0  0
   -0.0430   25.1690  -25.3510 C   0  0  0  0  0  0  0  0  0  0  0  0
   -0.4270   26.6370  -25.4280 C   0  0  0  0  0  0  0  0  0  0  0  0
   -1.4880   25.5910  -25.1340 C   0  0  0  0  0  0  0  0  0  0  0  0
   -1.4713   22.2038  -25.3507 H   0  0  0  0  0  0  0  0  0  0  0  0
   -1.6623   20.7475  -26.3848 H   0  0  0  0  0  0  0  0  0  0  0  0
   -0.1102   21.6518  -26.3848 H   0  0  0  0  0  0  0  0  0  0  0  0
   -3.1112   21.0842  -28.0756 H   0  0  0  0  0  0  0  0  0  0  0  0
   -4.0260   22.4291  -29.9500 H   0  0  0  0  0  0  0  0  0  0  0  0
   -8.0522   24.2875  -31.5078 H   0  0  0  0  0  0  0  0  0  0  0  0
   -9.6075   22.3398  -31.5229 H   0  0  0  0  0  0  0  0  0  0  0  0
   -8.7259   20.0373  -31.8956 H   0  0  0  0  0  0  0  0  0  0  0  0
   -4.7050   18.7476  -34.4397 H   0  0  0  0  0  0  0  0  0  0  0  0
   -5.6424   17.6052  -35.4610 H   0  0  0  0  0  0  0  0  0  0  0  0
   -6.0525   19.3541  -35.4610 H   0  0  0  0  0  0  0  0  0  0  0  0
   -6.8591   16.6566  -32.4309 H   0  0  0  0  0  0  0  0  0  0  0  0
   -7.7810   16.5397  -33.9681 H   0  0  0  0  0  0  0  0  0  0  0  0
   -6.0007   16.3004  -33.9681 H   0  0  0  0  0  0  0  0  0  0  0  0
   -4.7153   21.6304  -32.2465 H   0  0  0  0  0  0  0  0  0  0  0  0
   -0.6540   26.4790  -28.4310 H   0  0  0  0  0  0  0  0  0  0  0  0
    0.6704   24.5615  -24.7748 H   0  0  0  0  0  0  0  0  0  0  0  0
   -0.1058   27.3315  -24.6377 H   0  0  0  0  0  0  0  0  0  0  0  0
   -0.3073   27.4335  -26.1771 H   0  0  0  0  0  0  0  0  0  0  0  0
   -1.9348   25.5276  -24.1308 H   0  0  0  0  0  0  0  0  0  0  0  0
   -2.4544   25.3159  -25.5817 H   0  0  0  0  0  0  0  0  0  0  0  0
  1  2  1  0
  2  3  2  0
  3  4  1  0
  4  5  2  0
  5  6  1  0
  6  7  1  0
  7  8  2  0
  7  9  1  0
  9 10  1  0
 10 11  2  0
 11 12  1  0
 12 13  2  0
 13 14  1  0
 14 15  1  0
 15 16  2  0
 15 17  2  0
 15 18  1  0
 18 19  1  0
 18 20  1  0
 14 21  2  0
  5 22  1  0
 22 23  1  0
 22 24  2  0
 24 25  1  0
 25 26  2  0
 25 27  2  0
 25 28  1  0
 28 29  1  0
 29 30  1  0
 24  2  1  0
 30 28  1  0
 21 10  1  0
  1 31  1  0
  1 32  1  0
  1 33  1  0
  3 34  1  0
  4 35  1  0
 11 36  1  0
 12 37  1  0
 13 38  1  0
 19 39  1  0
 19 40  1  0
 19 41  1  0
 20 42  1  0
 20 43  1  0
 20 44  1  0
 21 45  1  0
 23 46  1  0
 28 47  1  0
 29 48  1  0
 29 49  1  0
 30 50  1  0
 30 51  1  0
M  CHG  2   6  -1   9  -1
M  END
>  <UniqueID>  (26) 
25

>  <SMILES>  (26) 
Cc1ccc([N-]C(=O)[N-]c2cccc(S(=O)(=O)N(C)C)c2)c(O)c1S(=O)(=O)C1CC1

>  <Energy>  (26) 
325.5533302580271

>  <Genealogy>  (26) 
Cc1ccc([N-]C(=O)[N-]c2cccc(S(=O)(=O)N(C)C)c2)c(O)c1S(=O)(=O)C1CC1 (protonated)
Cc1ccc([N-]C(=O)[N-]c2cccc(S(=O)(=O)N(C)C)c2)c(O)c1S(=O)(=O)C1CC1 (3D coordinates assigned)
Cc1ccc([N-]C(=O)[N-]c2cccc(S(=O)(=O)N(C)C)c2)c(O)c1S(=O)(=O)C1CC1 (nonaromatic ring conformer: 325.5533302580271 kcal/mol)

>  <smiles>  (26) 
Cc1ccc(NC(=O)Nc2cccc(S(=O)(=O)N(C)C)c2)c(O)c1S(=O)(=O)C1CC1

>  <score_type>  (26) 
oracle

>  <origin>  (26) 
adgpu

>  <m_score__min__energy>  (26) 
-12.98

>  <m_primary>  (26) 
energy

$$$$
26:0
     RDKit          3D

 44 46  0  0  0  0  0  0  0  0999 V2000
    0.6920   26.3070  -27.8910 H   0  0  0  0  0  0  0  0  0  0  0  0
    0.8080   25.3020  -27.8290 O   0  0  0  0  0  0  0  0  0  0  0  0
   -0.2110   24.4170  -28.1810 C   0  0  0  0  0  0  0  0  0  0  0  0
   -0.0240   23.0460  -27.9710 C   0  0  0  0  0  0  0  0  0  0  0  0
    0.9144   22.6846  -27.5251 H   0  0  0  0  0  0  0  0  0  0  0  0
   -1.0270   22.1280  -28.3260 C   0  0  0  0  0  0  0  0  0  0  0  0
   -0.8060   20.6470  -28.1480 C   0  0  0  0  0  0  0  0  0  0  0  0
   -1.7724   20.1600  -27.9505 H   0  0  0  0  0  0  0  0  0  0  0  0
   -0.1182   20.4938  -27.3034 H   0  0  0  0  0  0  0  0  0  0  0  0
   -0.2100   20.0590  -29.3480 N   0  0  0  0  0  0  0  0  0  0  0  0
   -0.8340   19.8840  -30.4760 C   0  0  0  0  0  0  0  0  0  0  0  0
   -2.1410   20.2350  -30.6100 N   0  0  0  0  0  0  0  0  0  0  0  0
   -2.8230   20.0390  -31.7690 C   0  0  0  0  0  0  0  0  0  0  0  0
   -4.2560   20.4020  -31.7940 C   0  0  0  0  0  0  0  0  0  0  0  0
   -5.2440   19.4320  -32.0330 C   0  0  0  0  0  0  0  0  0  0  0  0
   -4.9508   18.3940  -32.2488 H   0  0  0  0  0  0  0  0  0  0  0  0
   -6.5970   19.7790  -31.9980 C   0  0  0  0  0  0  0  0  0  0  0  0
   -7.3635   19.0171  -32.2030 H   0  0  0  0  0  0  0  0  0  0  0  0
   -6.9810   21.0930  -31.7030 C   0  0  0  0  0  0  0  0  0  0  0  0
   -8.6860   21.5310  -31.6710 S   0  0  0  0  0  0  0  0  0  0  0  0
   -9.1540   21.6510  -30.2480 O   0  0  0  0  0  0  0  0  0  0  0  0
   -8.8850   22.8550  -32.3570 O   0  0  0  0  0  0  0  0  0  0  0  0
   -9.6330   20.2800  -32.5060 C   0  0  0  0  0  0  0  0  0  0  0  0
  -10.1224   19.6335  -31.7627 H   0  0  0  0  0  0  0  0  0  0  0  0
  -10.3974   20.7582  -33.1360 H   0  0  0  0  0  0  0  0  0  0  0  0
   -8.9652   19.6741  -33.1360 H   0  0  0  0  0  0  0  0  0  0  0  0
   -6.0000   22.0600  -31.4490 C   0  0  0  0  0  0  0  0  0  0  0  0
   -6.2962   23.0947  -31.2220 H   0  0  0  0  0  0  0  0  0  0  0  0
   -4.6470   21.7150  -31.4830 C   0  0  0  0  0  0  0  0  0  0  0  0
   -3.8831   22.4759  -31.2650 H   0  0  0  0  0  0  0  0  0  0  0  0
   -2.1420   19.5000  -32.8850 C   0  0  0  0  0  0  0  0  0  0  0  0
   -2.7970   19.3070  -34.2260 C   0  0  0  0  0  0  0  0  0  0  0  0
   -3.8431   18.9988  -34.0822 H   0  0  0  0  0  0  0  0  0  0  0  0
   -2.7672   20.2521  -34.7880 H   0  0  0  0  0  0  0  0  0  0  0  0
   -2.2595   18.5291  -34.7880 H   0  0  0  0  0  0  0  0  0  0  0  0
   -0.8010   19.1310  -32.7150 C   0  0  0  0  0  0  0  0  0  0  0  0
   -0.2492   18.6770  -33.5513 H   0  0  0  0  0  0  0  0  0  0  0  0
   -0.1780   19.3300  -31.5250 N   0  0  0  0  0  0  0  0  0  0  0  0
   -2.2220   22.5980  -28.8910 C   0  0  0  0  0  0  0  0  0  0  0  0
   -3.0108   21.8860  -29.1752 H   0  0  0  0  0  0  0  0  0  0  0  0
   -2.4140   23.9660  -29.0940 C   0  0  0  0  0  0  0  0  0  0  0  0
   -3.3564   24.3280  -29.5310 H   0  0  0  0  0  0  0  0  0  0  0  0
   -1.4130   24.8780  -28.7440 C   0  0  0  0  0  0  0  0  0  0  0  0
   -1.6180   26.2360  -28.9570 O   0  0  0  0  0  0  0  0  0  0  0  0
  1  2  1  0
  2  3  1  0
  3  4  2  0
  4  5  1  0
  4  6  1  0
  6  7  1  0
  7  8  1  0
  7  9  1  0
  7 10  1  0
 10 11  2  0
 11 12  1  0
 12 13  2  0
 13 14  1  0
 14 15  2  0
 15 16  1  0
 15 17  1  0
 17 18  1  0
 17 19  2  0
 19 20  1  0
 20 21  2  0
 20 22  2  0
 20 23  1  0
 23 24  1  0
 23 25  1  0
 23 26  1  0
 19 27  1  0
 27 28  1  0
 27 29  2  0
 29 30  1  0
 13 31  1  0
 31 32  1  0
 32 33  1  0
 32 34  1  0
 32 35  1  0
 31 36  2  0
 36 37  1  0
 36 38  1  0
  6 39  2  0
 39 40  1  0
 39 41  1  0
 41 42  1  0
 41 43  2  0
 43 44  1  0
 43  3  1  0
 38 11  1  0
 29 14  1  0
M  CHG  2  38  -1  44  -1
M  END
>  <UniqueID>  (27) 
26

>  <SMILES>  (27) 
Cc1c[n-]/c(=N/Cc2ccc([O-])c(O)c2)nc1-c1ccc(S(C)(=O)=O)cc1

>  <Energy>  (27) 
49.286782509520485

>  <Genealogy>  (27) 
Cc1c[n-]c(=NCc2ccc([O-])c(O)c2)nc1-c1ccc(S(C)(=O)=O)cc1 (protonated)
Cc1c[n-]/c(=N/Cc2ccc([O-])c(O)c2)nc1-c1ccc(S(C)(=O)=O)cc1 (cis-trans isomerization)
Cc1c[n-]/c(=N/Cc2ccc([O-])c(O)c2)nc1-c1ccc(S(C)(=O)=O)cc1 (3D coordinates assigned)
Cc1c[n-]/c(=N/Cc2ccc([O-])c(O)c2)nc1-c1ccc(S(C)(=O)=O)cc1 (optimized conformer: 49.286782509520485 kcal/mol)

>  <smiles>  (27) 
Cc1c[nH]c(=NCc2ccc(O)c(O)c2)nc1-c1ccc(S(C)(=O)=O)cc1

>  <score_type>  (27) 
oracle

>  <origin>  (27) 
adgpu

>  <m_score__min__energy>  (27) 
-11.27

>  <m_primary>  (27) 
energy

$$$$
27:0
     RDKit          3D

 60 63  0  0  0  0  0  0  0  0999 V2000
    0.7090   22.3140  -27.8210 O   0  0  0  0  0  0  0  0  0  0  0  0
   -0.3400   22.3940  -27.1310 C   0  0  0  0  0  0  0  0  0  0  0  0
   -1.1310   21.2160  -26.9340 N   0  0  0  0  0  0  0  0  0  0  0  0
   -1.3320   20.1670  -27.9320 C   0  0  0  0  0  0  0  0  0  0  0  0
   -2.4990   20.5260  -28.8590 C   0  0  0  0  0  0  0  0  0  0  0  0
   -1.9970   20.8270  -30.2450 C   0  0  0  0  0  0  0  0  0  0  0  0
   -2.9080   21.0290  -31.2970 C   0  0  0  0  0  0  0  0  0  0  0  0
   -2.4430   21.3350  -32.5810 C   0  0  0  0  0  0  0  0  0  0  0  0
   -1.0700   21.4490  -32.8250 C   0  0  0  0  0  0  0  0  0  0  0  0
   -0.6210   21.7490  -34.1100 O   0  0  0  0  0  0  0  0  0  0  0  0
   -0.1580   21.2620  -31.7740 C   0  0  0  0  0  0  0  0  0  0  0  0
   -0.6200   20.9590  -30.4890 C   0  0  0  0  0  0  0  0  0  0  0  0
   -0.6930   23.6870  -26.5060 C   0  0  0  0  0  0  0  0  0  0  0  0
   -0.4440   23.8450  -25.1330 C   0  0  0  0  0  0  0  0  0  0  0  0
   -0.8320   25.0120  -24.4710 C   0  0  0  0  0  0  0  0  0  0  0  0
   -1.4650   26.0370  -25.1720 C   0  0  0  0  0  0  0  0  0  0  0  0
   -1.6920   25.9100  -26.5440 C   0  0  0  0  0  0  0  0  0  0  0  0
   -1.2900   24.7510  -27.2330 C   0  0  0  0  0  0  0  0  0  0  0  0
   -1.4980   24.7020  -28.7010 C   0  0  0  0  0  0  0  0  0  0  0  0
   -0.6310   24.1380  -29.4190 O   0  0  0  0  0  0  0  0  0  0  0  0
   -2.6330   25.2990  -29.3460 N   0  0  0  0  0  0  0  0  0  0  0  0
   -3.8270   24.6440  -29.7990 C   0  0  0  0  0  0  0  0  0  0  0  0
   -4.6240   25.2910  -30.7500 C   0  0  0  0  0  0  0  0  0  0  0  0
   -5.7900   24.6870  -31.2280 C   0  0  0  0  0  0  0  0  0  0  0  0
   -6.1770   23.4250  -30.7530 C   0  0  0  0  0  0  0  0  0  0  0  0
   -7.6310   22.6280  -31.3520 S   0  0  0  0  0  0  0  0  0  0  0  0
   -8.2550   21.8880  -30.1990 O   0  0  0  0  0  0  0  0  0  0  0  0
   -8.5970   23.6690  -31.8530 O   0  0  0  0  0  0  0  0  0  0  0  0
   -7.2370   21.5030  -32.6400 N   0  0  0  0  0  0  0  0  0  0  0  0
   -8.2050   20.3910  -32.6770 C   0  0  0  0  0  0  0  0  0  0  0  0
   -7.5420   19.1400  -32.1040 C   0  0  0  0  0  0  0  0  0  0  0  0
   -6.1570   19.5790  -31.6770 C   0  0  0  0  0  0  0  0  0  0  0  0
   -5.9260   20.8840  -32.4130 C   0  0  0  0  0  0  0  0  0  0  0  0
   -5.3670   22.7640  -29.8190 C   0  0  0  0  0  0  0  0  0  0  0  0
   -4.1900   23.3600  -29.3570 C   0  0  0  0  0  0  0  0  0  0  0  0
   -0.4155   20.0556  -28.5300 H   0  0  0  0  0  0  0  0  0  0  0  0
   -1.5643   19.2239  -27.4157 H   0  0  0  0  0  0  0  0  0  0  0  0
   -3.1997   19.6792  -28.9036 H   0  0  0  0  0  0  0  0  0  0  0  0
   -3.0069   21.4177  -28.4629 H   0  0  0  0  0  0  0  0  0  0  0  0
   -3.9889   20.9463  -31.1102 H   0  0  0  0  0  0  0  0  0  0  0  0
   -3.1597   21.4865  -33.4016 H   0  0  0  0  0  0  0  0  0  0  0  0
   -1.2720   21.9430  -34.8640 H   0  0  0  0  0  0  0  0  0  0  0  0
    0.9220   21.3540  -31.9615 H   0  0  0  0  0  0  0  0  0  0  0  0
    0.0977   20.8236  -29.6665 H   0  0  0  0  0  0  0  0  0  0  0  0
    0.0608   23.0431  -24.5743 H   0  0  0  0  0  0  0  0  0  0  0  0
   -0.6376   25.1224  -23.3940 H   0  0  0  0  0  0  0  0  0  0  0  0
   -1.7861   26.9470  -24.6439 H   0  0  0  0  0  0  0  0  0  0  0  0
   -2.1899   26.7239  -27.0914 H   0  0  0  0  0  0  0  0  0  0  0  0
   -4.3304   26.2828  -31.1242 H   0  0  0  0  0  0  0  0  0  0  0  0
   -6.4063   25.2027  -31.9791 H   0  0  0  0  0  0  0  0  0  0  0  0
   -9.0882   20.6499  -32.0746 H   0  0  0  0  0  0  0  0  0  0  0  0
   -8.5197   20.2046  -33.7144 H   0  0  0  0  0  0  0  0  0  0  0  0
   -8.1102   18.7646  -31.2402 H   0  0  0  0  0  0  0  0  0  0  0  0
   -7.5037   18.3235  -32.8401 H   0  0  0  0  0  0  0  0  0  0  0  0
   -6.1171   19.7345  -30.5888 H   0  0  0  0  0  0  0  0  0  0  0  0
   -5.3899   18.8263  -31.9114 H   0  0  0  0  0  0  0  0  0  0  0  0
   -5.2964   21.5509  -31.8057 H   0  0  0  0  0  0  0  0  0  0  0  0
   -5.4133   20.7029  -33.3692 H   0  0  0  0  0  0  0  0  0  0  0  0
   -5.6593   21.7707  -29.4476 H   0  0  0  0  0  0  0  0  0  0  0  0
   -3.5459   22.8226  -28.6454 H   0  0  0  0  0  0  0  0  0  0  0  0
  1  2  2  0
  2  3  1  0
  3  4  1  0
  4  5  1  0
  5  6  1  0
  6  7  2  0
  7  8  1  0
  8  9  2  0
  9 10  1  0
  9 11  1  0
 11 12  2  0
  2 13  1  0
 13 14  2  0
 14 15  1  0
 15 16  2  0
 16 17  1  0
 17 18  2  0
 18 19  1  0
 19 20  2  0
 19 21  1  0
 21 22  1  0
 22 23  2  0
 23 24  1  0
 24 25  2  0
 25 26  1  0
 26 27  2  0
 26 28  2  0
 26 29  1  0
 29 30  1  0
 30 31  1  0
 31 32  1  0
 32 33  1  0
 25 34  1  0
 34 35  2  0
 12  6  1  0
 18 13  1  0
 35 22  1  0
 33 29  1  0
  4 36  1  0
  4 37  1  0
  5 38  1  0
  5 39  1  0
  7 40  1  0
  8 41  1  0
 10 42  1  0
 11 43  1  0
 12 44  1  0
 14 45  1  0
 15 46  1  0
 16 47  1  0
 17 48  1  0
 23 49  1  0
 24 50  1  0
 30 51  1  0
 30 52  1  0
 31 53  1  0
 31 54  1  0
 32 55  1  0
 32 56  1  0
 33 57  1  0
 33 58  1  0
 34 59  1  0
 35 60  1  0
M  CHG  2   3  -1  21  -1
M  END
>  <UniqueID>  (28) 
27

>  <SMILES>  (28) 
O=C([N-]CCc1ccc(O)cc1)c1ccccc1C(=O)[N-]c1ccc(S(=O)(=O)N2CCCC2)cc1

>  <Energy>  (28) 
75.46170576755716

>  <Genealogy>  (28) 
O=C([N-]CCc1ccc(O)cc1)c1ccccc1C(=O)[N-]c1ccc(S(=O)(=O)N2CCCC2)cc1 (protonated)
O=C([N-]CCc1ccc(O)cc1)c1ccccc1C(=O)[N-]c1ccc(S(=O)(=O)N2CCCC2)cc1 (3D coordinates assigned)
O=C([N-]CCc1ccc(O)cc1)c1ccccc1C(=O)[N-]c1ccc(S(=O)(=O)N2CCCC2)cc1 (nonaromatic ring conformer: 75.46170576755716 kcal/mol)

>  <smiles>  (28) 
O=C(NCCc1ccc(O)cc1)c1ccccc1C(=O)Nc1ccc(S(=O)(=O)N2CCCC2)cc1

>  <score_type>  (28) 
oracle

>  <origin>  (28) 
adgpu

>  <m_score__min__energy>  (28) 
-11.550000000000001

>  <m_primary>  (28) 
energy

$$$$
28:0
     RDKit          3D

 35 36  0  0  0  0  0  0  0  0999 V2000
   -8.6550   18.3130  -31.5930 C   0  0  0  0  0  0  0  0  0  0  0  0
   -7.1710   18.0890  -31.3200 C   0  0  0  0  0  0  0  0  0  0  0  0
   -6.4030   17.9130  -32.6120 C   0  0  0  0  0  0  0  0  0  0  0  0
   -6.4320   18.8870  -33.6380 C   0  0  0  0  0  0  0  0  0  0  0  0
   -7.1710   20.1120  -33.4890 N   0  0  0  0  0  0  0  0  0  0  0  0
   -6.7240   21.1730  -32.6320 C   0  0  0  0  0  0  0  0  0  0  0  0
   -5.3450   21.3730  -32.4690 C   0  0  0  0  0  0  0  0  0  0  0  0
   -4.8690   22.4080  -31.6630 C   0  0  0  0  0  0  0  0  0  0  0  0
   -5.7650   23.2510  -30.9960 C   0  0  0  0  0  0  0  0  0  0  0  0
   -5.1670   24.5740  -30.0010 S   0  0  0  0  0  0  0  0  0  0  0  0
   -3.9030   25.4000  -30.8400 N   0  0  0  0  0  0  0  0  0  0  0  0
   -6.2860   25.5320  -29.7030 O   0  0  0  0  0  0  0  0  0  0  0  0
   -4.6340   24.0380  -28.7020 O   0  0  0  0  0  0  0  0  0  0  0  0
   -7.1440   23.0470  -31.1360 C   0  0  0  0  0  0  0  0  0  0  0  0
   -7.6360   21.9950  -31.9290 C   0  0  0  0  0  0  0  0  0  0  0  0
   -9.1230   21.7820  -32.0140 C   0  0  0  0  0  0  0  0  0  0  0  0
   -5.7290   18.6700  -34.7830 N   0  0  0  0  0  0  0  0  0  0  0  0
   -4.9930   17.5460  -34.9640 C   0  0  0  0  0  0  0  0  0  0  0  0
   -4.3590   17.3770  -36.0380 O   0  0  0  0  0  0  0  0  0  0  0  0
   -4.9360   16.6090  -33.9880 N   0  0  0  0  0  0  0  0  0  0  0  0
   -5.6140   16.7650  -32.8230 C   0  0  0  0  0  0  0  0  0  0  0  0
   -5.5270   15.8720  -31.9380 O   0  0  0  0  0  0  0  0  0  0  0  0
   -9.1952   18.3945  -30.6383 H   0  0  0  0  0  0  0  0  0  0  0  0
   -8.7859   19.2411  -32.1688 H   0  0  0  0  0  0  0  0  0  0  0  0
   -9.0540   17.4649  -32.1688 H   0  0  0  0  0  0  0  0  0  0  0  0
   -6.7696   18.9582  -30.7783 H   0  0  0  0  0  0  0  0  0  0  0  0
   -7.0592   17.1750  -30.7183 H   0  0  0  0  0  0  0  0  0  0  0  0
   -8.1580   20.1530  -33.8260 H   0  0  0  0  0  0  0  0  0  0  0  0
   -4.6332   20.7086  -32.9807 H   0  0  0  0  0  0  0  0  0  0  0  0
   -3.7855   22.5618  -31.5516 H   0  0  0  0  0  0  0  0  0  0  0  0
   -3.0380   25.3010  -30.2620 H   0  0  0  0  0  0  0  0  0  0  0  0
   -7.8487   23.7162  -30.6206 H   0  0  0  0  0  0  0  0  0  0  0  0
   -9.5434   21.7218  -30.9993 H   0  0  0  0  0  0  0  0  0  0  0  0
   -9.5837   22.6233  -32.5524 H   0  0  0  0  0  0  0  0  0  0  0  0
   -9.3290   20.8452  -32.5524 H   0  0  0  0  0  0  0  0  0  0  0  0
  1  2  1  0
  2  3  1  0
  3  4  2  0
  4  5  1  0
  5  6  1  0
  6  7  2  0
  7  8  1  0
  8  9  2  0
  9 10  1  0
 10 11  1  0
 10 12  2  0
 10 13  2  0
  9 14  1  0
 14 15  2  0
 15 16  1  0
  4 17  1  0
 17 18  1  0
 18 19  2  0
 18 20  1  0
 20 21  1  0
 21 22  2  0
 21  3  1  0
 15  6  1  0
  1 23  1  0
  1 24  1  0
  1 25  1  0
  2 26  1  0
  2 27  1  0
  5 28  1  0
  7 29  1  0
  8 30  1  0
 11 31  1  0
 14 32  1  0
 16 33  1  0
 16 34  1  0
 16 35  1  0
M  CHG  3  11  -1  17  -1  20  -1
M  END
>  <UniqueID>  (29) 
28

>  <SMILES>  (29) 
CCc1c(Nc2ccc(S([NH-])(=O)=O)cc2C)[n-]c(=O)[n-]c1=O

>  <Energy>  (29) 
41.365477118836154

>  <Genealogy>  (29) 
CCc1c(Nc2ccc(S([NH-])(=O)=O)cc2C)[n-]c(=O)[n-]c1=O (protonated)
CCc1c(Nc2ccc(S([NH-])(=O)=O)cc2C)[n-]c(=O)[n-]c1=O (3D coordinates assigned)
CCc1c(Nc2ccc(S([NH-])(=O)=O)cc2C)[n-]c(=O)[n-]c1=O (optimized conformer: 41.365477118836154 kcal/mol)

>  <smiles>  (29) 
CCc1c(Nc2ccc(S(N)(=O)=O)cc2C)[nH]c(=O)[nH]c1=O

>  <score_type>  (29) 
oracle

>  <origin>  (29) 
adgpu

>  <m_score__min__energy>  (29) 
-10.85

>  <m_primary>  (29) 
energy

$$$$
29:0
     RDKit          3D

 31 33  0  0  0  0  0  0  0  0999 V2000
   -4.1560   20.3860  -30.4770 O   0  0  0  0  0  0  0  0  0  0  0  0
   -2.9810   20.8090  -30.6470 C   0  0  0  0  0  0  0  0  0  0  0  0
   -2.0380   19.9600  -31.3140 N   0  0  0  0  0  0  0  0  0  0  0  0
   -1.0880   20.3660  -32.3090 C   0  0  0  0  0  0  0  0  0  0  0  0
    0.2630   19.9920  -32.2360 C   0  0  0  0  0  0  0  0  0  0  0  0
    1.1630   20.3950  -33.2280 C   0  0  0  0  0  0  0  0  0  0  0  0
    0.7260   21.1670  -34.3200 C   0  0  0  0  0  0  0  0  0  0  0  0
    1.6810   21.5980  -35.3730 C   0  0  0  0  0  0  0  0  0  0  0  0
    2.6000   20.8210  -36.0550 C   0  0  0  0  0  0  0  0  0  0  0  0
    3.2740   21.5950  -36.9260 N   0  0  0  0  0  0  0  0  0  0  0  0
    2.8210   22.8350  -36.8300 N   0  0  0  0  0  0  0  0  0  0  0  0
    1.8530   22.8680  -35.8950 C   0  0  0  0  0  0  0  0  0  0  0  0
   -0.6350   21.5150  -34.3990 C   0  0  0  0  0  0  0  0  0  0  0  0
   -1.5320   21.1110  -33.4040 C   0  0  0  0  0  0  0  0  0  0  0  0
   -2.6300   22.1780  -30.2010 C   0  0  0  0  0  0  0  0  0  0  0  0
   -1.5080   22.3860  -29.3800 C   0  0  0  0  0  0  0  0  0  0  0  0
   -1.1730   23.6750  -28.9540 C   0  0  0  0  0  0  0  0  0  0  0  0
   -1.9580   24.7670  -29.3340 C   0  0  0  0  0  0  0  0  0  0  0  0
   -1.6170   26.0460  -28.9080 O   0  0  0  0  0  0  0  0  0  0  0  0
   -3.0870   24.5690  -30.1370 C   0  0  0  0  0  0  0  0  0  0  0  0
   -3.8760   25.6500  -30.5110 O   0  0  0  0  0  0  0  0  0  0  0  0
   -3.4250   23.2810  -30.5650 C   0  0  0  0  0  0  0  0  0  0  0  0
    0.6159   19.3785  -31.3939 H   0  0  0  0  0  0  0  0  0  0  0  0
    2.2217   20.1058  -33.1537 H   0  0  0  0  0  0  0  0  0  0  0  0
    2.7554   19.7419  -35.9088 H   0  0  0  0  0  0  0  0  0  0  0  0
    1.2883   23.7626  -35.5937 H   0  0  0  0  0  0  0  0  0  0  0  0
   -0.9970   22.1099  -35.2505 H   0  0  0  0  0  0  0  0  0  0  0  0
   -2.5950   21.3822  -33.4847 H   0  0  0  0  0  0  0  0  0  0  0  0
   -0.8902   21.5300  -29.0710 H   0  0  0  0  0  0  0  0  0  0  0  0
   -0.2890   23.8300  -28.3179 H   0  0  0  0  0  0  0  0  0  0  0  0
   -4.3175   23.1292  -31.1898 H   0  0  0  0  0  0  0  0  0  0  0  0
  1  2  2  0
  2  3  1  0
  3  4  1  0
  4  5  2  0
  5  6  1  0
  6  7  2  0
  7  8  1  0
  8  9  1  0
  9 10  2  0
 10 11  1  0
 11 12  1  0
  7 13  1  0
 13 14  2  0
  2 15  1  0
 15 16  2  0
 16 17  1  0
 17 18  2  0
 18 19  1  0
 18 20  1  0
 20 21  1  0
 20 22  2  0
 14  4  1  0
 22 15  1  0
 12  8  2  0
  5 23  1  0
  6 24  1  0
  9 25  1  0
 12 26  1  0
 13 27  1  0
 14 28  1  0
 16 29  1  0
 17 30  1  0
 22 31  1  0
M  CHG  4   3  -1  11  -1  19  -1  21  -1
M  END
>  <UniqueID>  (30) 
29

>  <SMILES>  (30) 
O=C([N-]c1ccc(-c2cn[n-]c2)cc1)c1ccc([O-])c([O-])c1

>  <Energy>  (30) 
72.89866568666066

>  <Genealogy>  (30) 
O=C([N-]c1ccc(-c2cn[n-]c2)cc1)c1ccc([O-])c([O-])c1 (protonated)
O=C([N-]c1ccc(-c2cn[n-]c2)cc1)c1ccc([O-])c([O-])c1 (3D coordinates assigned)
O=C([N-]c1ccc(-c2cn[n-]c2)cc1)c1ccc([O-])c([O-])c1 (optimized conformer: 72.89866568666066 kcal/mol)

>  <smiles>  (30) 
O=C(Nc1ccc(-c2cn[nH]c2)cc1)c1ccc(O)c(O)c1

>  <score_type>  (30) 
oracle

>  <origin>  (30) 
adgpu

>  <m_score__min__energy>  (30) 
-12.52

>  <m_primary>  (30) 
energy

$$$$
30:0
     RDKit          3D

 48 51  0  0  0  0  0  0  0  0999 V2000
   -0.9410   20.6430  -27.6460 C   0  0  0  0  0  0  0  0  0  0  0  0
   -1.5860   21.8440  -28.2890 C   0  0  0  0  0  0  0  0  0  0  0  0
   -1.9700   22.9110  -27.4620 C   0  0  0  0  0  0  0  0  0  0  0  0
   -2.5820   24.0400  -27.9940 C   0  0  0  0  0  0  0  0  0  0  0  0
   -2.8160   24.1410  -29.3710 C   0  0  0  0  0  0  0  0  0  0  0  0
   -3.4880   25.2840  -29.9250 N   0  0  0  0  0  0  0  0  0  0  0  0
   -4.7800   25.2890  -30.5400 C   0  0  0  0  0  0  0  0  0  0  0  0
   -5.6600   26.0740  -30.0990 O   0  0  0  0  0  0  0  0  0  0  0  0
   -5.0680   24.4100  -31.6350 N   0  0  0  0  0  0  0  0  0  0  0  0
   -5.8750   23.2240  -31.5980 C   0  0  0  0  0  0  0  0  0  0  0  0
   -7.1210   23.2790  -30.9350 C   0  0  0  0  0  0  0  0  0  0  0  0
   -7.9620   22.1540  -30.8860 C   0  0  0  0  0  0  0  0  0  0  0  0
   -7.5470   20.9840  -31.5200 C   0  0  0  0  0  0  0  0  0  0  0  0
   -6.3410   20.9350  -32.1860 C   0  0  0  0  0  0  0  0  0  0  0  0
   -5.4860   22.0330  -32.2540 C   0  0  0  0  0  0  0  0  0  0  0  0
   -6.2170   19.6160  -32.7520 C   0  0  0  0  0  0  0  0  0  0  0  0
   -5.2490   19.1910  -33.4370 O   0  0  0  0  0  0  0  0  0  0  0  0
   -7.3670   18.8470  -32.4190 N   0  0  0  0  0  0  0  0  0  0  0  0
   -7.6040   17.4640  -32.8110 C   0  0  0  0  0  0  0  0  0  0  0  0
   -8.2750   19.6730  -31.6180 C   0  0  0  0  0  0  0  0  0  0  0  0
   -2.4510   23.0750  -30.2160 C   0  0  0  0  0  0  0  0  0  0  0  0
   -2.7370   23.1380  -31.5820 O   0  0  0  0  0  0  0  0  0  0  0  0
   -1.7980   21.9350  -29.6900 C   0  0  0  0  0  0  0  0  0  0  0  0
   -1.3100   20.6220  -30.7910 S   0  0  0  0  0  0  0  0  0  0  0  0
   -0.0600   21.0040  -31.5360 O   0  0  0  0  0  0  0  0  0  0  0  0
   -1.0090   19.3710  -30.0160 O   0  0  0  0  0  0  0  0  0  0  0  0
   -2.6600   20.3020  -31.9250 C   0  0  0  0  0  0  0  0  0  0  0  0
   -2.3400   19.3280  -33.0460 C   0  0  0  0  0  0  0  0  0  0  0  0
   -2.4400   20.8180  -33.3370 C   0  0  0  0  0  0  0  0  0  0  0  0
   -0.9934   20.7406  -26.5516 H   0  0  0  0  0  0  0  0  0  0  0  0
   -1.4707   19.7310  -27.9586 H   0  0  0  0  0  0  0  0  0  0  0  0
    0.1118   20.5809  -27.9586 H   0  0  0  0  0  0  0  0  0  0  0  0
   -1.7843   22.8531  -26.3793 H   0  0  0  0  0  0  0  0  0  0  0  0
   -2.8851   24.8611  -27.3277 H   0  0  0  0  0  0  0  0  0  0  0  0
   -7.4373   24.2146  -30.4507 H   0  0  0  0  0  0  0  0  0  0  0  0
   -8.9266   22.1959  -30.3589 H   0  0  0  0  0  0  0  0  0  0  0  0
   -4.5345   21.9751  -32.8029 H   0  0  0  0  0  0  0  0  0  0  0  0
   -7.7108   16.8409  -31.9108 H   0  0  0  0  0  0  0  0  0  0  0  0
   -8.5253   17.4051  -33.4091 H   0  0  0  0  0  0  0  0  0  0  0  0
   -6.7548   17.1017  -33.4091 H   0  0  0  0  0  0  0  0  0  0  0  0
   -9.2447   19.7966  -32.1224 H   0  0  0  0  0  0  0  0  0  0  0  0
   -8.5072   19.2332  -30.6368 H   0  0  0  0  0  0  0  0  0  0  0  0
   -3.3880   23.8050  -31.9770 H   0  0  0  0  0  0  0  0  0  0  0  0
   -3.4617   20.3909  -31.1771 H   0  0  0  0  0  0  0  0  0  0  0  0
   -1.3617   18.8261  -33.0761 H   0  0  0  0  0  0  0  0  0  0  0  0
   -2.8167   18.4227  -33.4498 H   0  0  0  0  0  0  0  0  0  0  0  0
   -1.5340   21.3936  -33.5775 H   0  0  0  0  0  0  0  0  0  0  0  0
   -3.0190   21.4367  -34.0384 H   0  0  0  0  0  0  0  0  0  0  0  0
  1  2  1  0
  2  3  2  0
  3  4  1  0
  4  5  2  0
  5  6  1  0
  6  7  1  0
  7  8  2  0
  7  9  1  0
  9 10  1  0
 10 11  2  0
 11 12  1  0
 12 13  2  0
 13 14  1  0
 14 15  2  0
 14 16  1  0
 16 17  2  0
 16 18  1  0
 18 19  1  0
 18 20  1  0
  5 21  1  0
 21 22  1  0
 21 23  2  0
 23 24  1  0
 24 25  2  0
 24 26  2  0
 24 27  1  0
 27 28  1  0
 28 29  1  0
 23  2  1  0
 29 27  1  0
 15 10  1  0
 20 13  1  0
  1 30  1  0
  1 31  1  0
  1 32  1  0
  3 33  1  0
  4 34  1  0
 11 35  1  0
 12 36  1  0
 15 37  1  0
 19 38  1  0
 19 39  1  0
 19 40  1  0
 20 41  1  0
 20 42  1  0
 22 43  1  0
 27 44  1  0
 28 45  1  0
 28 46  1  0
 29 47  1  0
 29 48  1  0
M  CHG  2   6  -1   9  -1
M  END
>  <UniqueID>  (31) 
30

>  <SMILES>  (31) 
Cc1ccc([N-]C(=O)[N-]c2ccc3c(c2)C(=O)N(C)C3)c(O)c1S(=O)(=O)C1CC1

>  <Energy>  (31) 
343.7983142238733

>  <Genealogy>  (31) 
Cc1ccc([N-]C(=O)[N-]c2ccc3c(c2)C(=O)N(C)C3)c(O)c1S(=O)(=O)C1CC1 (protonated)
Cc1ccc([N-]C(=O)[N-]c2ccc3c(c2)C(=O)N(C)C3)c(O)c1S(=O)(=O)C1CC1 (3D coordinates assigned)
Cc1ccc([N-]C(=O)[N-]c2ccc3c(c2)C(=O)N(C)C3)c(O)c1S(=O)(=O)C1CC1 (nonaromatic ring conformer: 343.7983142238733 kcal/mol)

>  <smiles>  (31) 
Cc1ccc(NC(=O)Nc2ccc3c(c2)C(=O)N(C)C3)c(O)c1S(=O)(=O)C1CC1

>  <score_type>  (31) 
oracle

>  <origin>  (31) 
adgpu

>  <m_score__min__energy>  (31) 
-13.69

>  <m_primary>  (31) 
energy

$$$$
31:0
     RDKit          3D

 58 61  0  0  0  0  0  0  0  0999 V2000
   -4.2630   24.5040  -30.8530 O   0  0  0  0  0  0  0  0  0  0  0  0
   -4.7580   23.6180  -30.1030 C   0  0  0  0  0  0  0  0  0  0  0  0
   -4.5970   23.7210  -28.6780 N   0  0  0  0  0  0  0  0  0  0  0  0
   -3.5560   24.4860  -28.0470 C   0  0  0  0  0  0  0  0  0  0  0  0
   -2.4000   24.8700  -28.7500 C   0  0  0  0  0  0  0  0  0  0  0  0
   -1.3930   25.5980  -28.1090 C   0  0  0  0  0  0  0  0  0  0  0  0
   -1.5240   25.9480  -26.7580 C   0  0  0  0  0  0  0  0  0  0  0  0
   -0.2660   26.8880  -25.9560 S   0  0  0  0  0  0  0  0  0  0  0  0
   -0.8410   27.5350  -24.7270 O   0  0  0  0  0  0  0  0  0  0  0  0
    0.1830   27.9850  -26.8830 O   0  0  0  0  0  0  0  0  0  0  0  0
    1.1190   25.9150  -25.5060 N   0  0  0  0  0  0  0  0  0  0  0  0
    0.7970   24.4780  -25.4210 C   0  0  0  0  0  0  0  0  0  0  0  0
    0.8180   23.7690  -26.7960 C   0  0  0  0  0  0  0  0  0  0  0  0
    1.3500   24.5720  -27.8310 O   0  0  0  0  0  0  0  0  0  0  0  0
    2.5670   25.1450  -27.4120 C   0  0  0  0  0  0  0  0  0  0  0  0
    2.3150   26.2040  -26.3260 C   0  0  0  0  0  0  0  0  0  0  0  0
   -2.6610   25.5400  -26.0470 C   0  0  0  0  0  0  0  0  0  0  0  0
   -3.6670   24.8100  -26.6870 C   0  0  0  0  0  0  0  0  0  0  0  0
   -5.5410   22.5090  -30.7020 C   0  0  0  0  0  0  0  0  0  0  0  0
   -6.8690   22.7220  -31.1130 C   0  0  0  0  0  0  0  0  0  0  0  0
   -7.6100   21.6860  -31.6870 C   0  0  0  0  0  0  0  0  0  0  0  0
   -7.0300   20.4240  -31.8770 C   0  0  0  0  0  0  0  0  0  0  0  0
   -7.9710   19.1130  -32.5890 S   0  0  0  0  0  0  0  0  0  0  0  0
   -8.4600   18.2140  -31.4870 O   0  0  0  0  0  0  0  0  0  0  0  0
   -9.1780   19.6970  -33.2680 O   0  0  0  0  0  0  0  0  0  0  0  0
   -7.0660   18.1610  -33.7470 N   0  0  0  0  0  0  0  0  0  0  0  0
   -6.4940   16.9270  -33.1760 C   0  0  0  0  0  0  0  0  0  0  0  0
   -5.0690   17.1270  -32.6410 C   0  0  0  0  0  0  0  0  0  0  0  0
   -4.2420   17.7100  -33.6230 O   0  0  0  0  0  0  0  0  0  0  0  0
   -4.7130   19.0080  -33.9090 C   0  0  0  0  0  0  0  0  0  0  0  0
   -6.1090   18.9540  -34.5440 C   0  0  0  0  0  0  0  0  0  0  0  0
   -5.7120   20.2030  -31.4640 C   0  0  0  0  0  0  0  0  0  0  0  0
   -4.9680   21.2380  -30.8880 C   0  0  0  0  0  0  0  0  0  0  0  0
   -5.3430   23.3150  -28.0690 H   0  0  0  0  0  0  0  0  0  0  0  0
   -2.2875   24.5962  -29.8094 H   0  0  0  0  0  0  0  0  0  0  0  0
   -0.4938   25.8975  -28.6674 H   0  0  0  0  0  0  0  0  0  0  0  0
    1.5346   23.9921  -24.7653 H   0  0  0  0  0  0  0  0  0  0  0  0
   -0.2255   24.3939  -25.0242 H   0  0  0  0  0  0  0  0  0  0  0  0
    1.4301   22.8591  -26.7104 H   0  0  0  0  0  0  0  0  0  0  0  0
   -0.2251   23.5432  -27.0622 H   0  0  0  0  0  0  0  0  0  0  0  0
    3.2178   24.3568  -27.0056 H   0  0  0  0  0  0  0  0  0  0  0  0
    3.0503   25.6267  -28.2748 H   0  0  0  0  0  0  0  0  0  0  0  0
    3.1928   26.2437  -25.6643 H   0  0  0  0  0  0  0  0  0  0  0  0
    2.1418   27.1636  -26.8350 H   0  0  0  0  0  0  0  0  0  0  0  0
   -2.7621   25.7951  -24.9818 H   0  0  0  0  0  0  0  0  0  0  0  0
   -4.5523   24.4873  -26.1195 H   0  0  0  0  0  0  0  0  0  0  0  0
   -7.3282   23.7128  -30.9814 H   0  0  0  0  0  0  0  0  0  0  0  0
   -8.6525   21.8612  -31.9910 H   0  0  0  0  0  0  0  0  0  0  0  0
   -7.1366   16.5912  -32.3488 H   0  0  0  0  0  0  0  0  0  0  0  0
   -6.4446   16.1798  -33.9818 H   0  0  0  0  0  0  0  0  0  0  0  0
   -5.1035   17.7862  -31.7611 H   0  0  0  0  0  0  0  0  0  0  0  0
   -4.6540   16.1454  -32.3685 H   0  0  0  0  0  0  0  0  0  0  0  0
   -4.7638   19.5870  -32.9751 H   0  0  0  0  0  0  0  0  0  0  0  0
   -4.0213   19.4855  -34.6186 H   0  0  0  0  0  0  0  0  0  0  0  0
   -6.4936   19.9804  -34.6368 H   0  0  0  0  0  0  0  0  0  0  0  0
   -6.0095   18.4672  -35.5254 H   0  0  0  0  0  0  0  0  0  0  0  0
   -5.2579   19.2094  -31.5929 H   0  0  0  0  0  0  0  0  0  0  0  0
   -3.9281   21.0568  -30.5785 H   0  0  0  0  0  0  0  0  0  0  0  0
  1  2  2  0
  2  3  1  0
  3  4  1  0
  4  5  2  0
  5  6  1  0
  6  7  2  0
  7  8  1  0
  8  9  2  0
  8 10  2  0
  8 11  1  0
 11 12  1  0
 12 13  1  0
 13 14  1  0
 14 15  1  0
 15 16  1  0
  7 17  1  0
 17 18  2  0
  2 19  1  0
 19 20  2  0
 20 21  1  0
 21 22  2  0
 22 23  1  0
 23 24  2  0
 23 25  2  0
 23 26  1  0
 26 27  1  0
 27 28  1  0
 28 29  1  0
 29 30  1  0
 30 31  1  0
 22 32  1  0
 32 33  2  0
 18  4  1  0
 33 19  1  0
 16 11  1  0
 31 26  1  0
  3 34  1  0
  5 35  1  0
  6 36  1  0
 12 37  1  0
 12 38  1  0
 13 39  1  0
 13 40  1  0
 15 41  1  0
 15 42  1  0
 16 43  1  0
 16 44  1  0
 17 45  1  0
 18 46  1  0
 20 47  1  0
 21 48  1  0
 27 49  1  0
 27 50  1  0
 28 51  1  0
 28 52  1  0
 30 53  1  0
 30 54  1  0
 31 55  1  0
 31 56  1  0
 32 57  1  0
 33 58  1  0
M  END
>  <UniqueID>  (32) 
31

>  <SMILES>  (32) 
O=C(Nc1ccc(S(=O)(=O)N2CCOCC2)cc1)c1ccc(S(=O)(=O)N2CCOCC2)cc1

>  <Energy>  (32) 
81.94451848017415

>  <Genealogy>  (32) 
O=C(Nc1ccc(S(=O)(=O)N2CCOCC2)cc1)c1ccc(S(=O)(=O)N2CCOCC2)cc1 (3D coordinates assigned)
O=C(Nc1ccc(S(=O)(=O)N2CCOCC2)cc1)c1ccc(S(=O)(=O)N2CCOCC2)cc1 (nonaromatic ring conformer: 81.94451848017415 kcal/mol)

>  <smiles>  (32) 
O=C(Nc1ccc(S(=O)(=O)N2CCOCC2)cc1)c1ccc(S(=O)(=O)N2CCOCC2)cc1

>  <score_type>  (32) 
oracle

>  <origin>  (32) 
adgpu

>  <m_score__min__energy>  (32) 
-9.9900000000000002

>  <m_primary>  (32) 
energy

$$$$
32:0
     RDKit          3D

 62 67  0  0  0  0  0  0  0  0999 V2000
   -6.2080   19.6420  -32.6990 C   0  0  0  0  0  0  0  0  0  0  0  0
   -4.7770   19.9450  -33.0300 C   0  0  0  0  0  0  0  0  0  0  0  0
   -3.8930   18.8990  -33.3350 C   0  0  0  0  0  0  0  0  0  0  0  0
   -2.5680   19.1740  -33.6810 C   0  0  0  0  0  0  0  0  0  0  0  0
   -2.1170   20.4990  -33.7470 C   0  0  0  0  0  0  0  0  0  0  0  0
   -0.4630   20.8430  -34.2510 S   0  0  0  0  0  0  0  0  0  0  0  0
   -0.0640   19.9470  -35.3910 O   0  0  0  0  0  0  0  0  0  0  0  0
   -0.3870   22.2750  -34.6990 O   0  0  0  0  0  0  0  0  0  0  0  0
    0.6380   20.5960  -32.9300 N   0  0  0  0  0  0  0  0  0  0  0  0
    0.2190   20.2330  -31.6000 C   0  0  0  0  0  0  0  0  0  0  0  0
   -0.4730   21.1410  -30.7800 C   0  0  0  0  0  0  0  0  0  0  0  0
   -0.8300   20.8090  -29.4600 C   0  0  0  0  0  0  0  0  0  0  0  0
   -0.5160   19.5260  -28.9690 C   0  0  0  0  0  0  0  0  0  0  0  0
    0.1460   18.6060  -29.7960 C   0  0  0  0  0  0  0  0  0  0  0  0
    0.5150   18.9560  -31.0970 C   0  0  0  0  0  0  0  0  0  0  0  0
    1.1870   18.0250  -31.8820 O   0  0  0  0  0  0  0  0  0  0  0  0
   -0.8940   19.1630  -27.5890 C   0  0  0  0  0  0  0  0  0  0  0  0
   -0.6170   18.0260  -27.1210 O   0  0  0  0  0  0  0  0  0  0  0  0
   -1.6030   20.1310  -26.7470 C   0  0  0  0  0  0  0  0  0  0  0  0
   -1.8990   21.3520  -27.1920 C   0  0  0  0  0  0  0  0  0  0  0  0
   -1.5130   21.8460  -28.5710 C   0  0  1  0  0  0  0  0  0  0  0  0
   -0.6610   23.0820  -28.4350 C   0  0  0  0  0  0  0  0  0  0  0  0
    0.4830   23.0950  -27.9060 O   0  0  0  0  0  0  0  0  0  0  0  0
   -1.2860   24.2530  -28.9650 N   0  0  0  0  0  0  0  0  0  0  0  0
   -0.9480   25.6270  -28.5940 C   0  0  0  0  0  0  0  0  0  0  0  0
   -0.8600   25.7550  -27.0970 C   0  0  0  0  0  0  0  0  0  0  0  0
    0.3900   25.8000  -26.4560 C   0  0  0  0  0  0  0  0  0  0  0  0
    0.4660   25.9630  -25.0700 C   0  0  0  0  0  0  0  0  0  0  0  0
   -0.7030   26.0880  -24.3140 C   0  0  0  0  0  0  0  0  0  0  0  0
   -1.9490   26.0490  -24.9430 C   0  0  0  0  0  0  0  0  0  0  0  0
   -2.0300   25.8860  -26.3300 C   0  0  0  0  0  0  0  0  0  0  0  0
   -2.5460   23.8010  -29.4460 C   0  0  0  0  0  0  0  0  0  0  0  0
   -3.5290   24.5690  -30.0760 C   0  0  0  0  0  0  0  0  0  0  0  0
   -4.7080   23.9340  -30.4960 C   0  0  0  0  0  0  0  0  0  0  0  0
   -4.8860   22.5530  -30.2870 C   0  0  0  0  0  0  0  0  0  0  0  0
   -3.8830   21.7960  -29.6610 C   0  0  0  0  0  0  0  0  0  0  0  0
   -2.7160   22.4440  -29.2470 C   0  0  0  0  0  0  0  0  0  0  0  0
   -2.9980   21.5460  -33.4490 C   0  0  0  0  0  0  0  0  0  0  0  0
   -4.3210   21.2710  -33.0920 C   0  0  0  0  0  0  0  0  0  0  0  0
   -6.3339   19.6153  -31.6066 H   0  0  0  0  0  0  0  0  0  0  0  0
   -6.8559   20.4229  -33.1238 H   0  0  0  0  0  0  0  0  0  0  0  0
   -6.4838   18.6655  -33.1238 H   0  0  0  0  0  0  0  0  0  0  0  0
   -4.2451   17.8574  -33.3015 H   0  0  0  0  0  0  0  0  0  0  0  0
   -1.8764   18.3478  -33.9024 H   0  0  0  0  0  0  0  0  0  0  0  0
    1.6410   20.8190  -33.1110 H   0  0  0  0  0  0  0  0  0  0  0  0
   -0.7408   22.1308  -31.1781 H   0  0  0  0  0  0  0  0  0  0  0  0
    0.3766   17.5997  -29.4163 H   0  0  0  0  0  0  0  0  0  0  0  0
   -1.8969   19.8437  -25.7266 H   0  0  0  0  0  0  0  0  0  0  0  0
   -2.4496   22.0331  -26.5265 H   0  0  0  0  0  0  0  0  0  0  0  0
    0.0214   25.8955  -29.0392 H   0  0  0  0  0  0  0  0  0  0  0  0
   -1.7324   26.3024  -28.9663 H   0  0  0  0  0  0  0  0  0  0  0  0
    1.3125   25.7065  -27.0478 H   0  0  0  0  0  0  0  0  0  0  0  0
    1.4471   25.9930  -24.5734 H   0  0  0  0  0  0  0  0  0  0  0  0
   -0.6414   26.2171  -23.2233 H   0  0  0  0  0  0  0  0  0  0  0  0
   -2.8683   26.1466  -24.3469 H   0  0  0  0  0  0  0  0  0  0  0  0
   -3.0134   25.8603  -26.8221 H   0  0  0  0  0  0  0  0  0  0  0  0
   -3.3820   25.6469  -30.2390 H   0  0  0  0  0  0  0  0  0  0  0  0
   -5.4974   24.5184  -30.9912 H   0  0  0  0  0  0  0  0  0  0  0  0
   -5.8154   22.0649  -30.6158 H   0  0  0  0  0  0  0  0  0  0  0  0
   -4.0129   20.7157  -29.4998 H   0  0  0  0  0  0  0  0  0  0  0  0
   -2.6478   22.5877  -33.4960 H   0  0  0  0  0  0  0  0  0  0  0  0
   -5.0081   22.0977  -32.8585 H   0  0  0  0  0  0  0  0  0  0  0  0
  1  2  1  0
  2  3  2  0
  3  4  1  0
  4  5  2  0
  5  6  1  0
  6  7  2  0
  6  8  2  0
  6  9  1  0
  9 10  1  0
 10 11  2  0
 11 12  1  0
 12 13  2  0
 13 14  1  0
 14 15  2  0
 15 16  1  0
 13 17  1  0
 17 18  2  0
 17 19  1  0
 19 20  2  0
 21 20  1  1
 21 22  1  0
 22 23  2  0
 22 24  1  0
 24 25  1  0
 25 26  1  0
 26 27  2  0
 27 28  1  0
 28 29  2  0
 29 30  1  0
 30 31  2  0
 24 32  1  0
 32 33  2  0
 33 34  1  0
 34 35  2  0
 35 36  1  0
 36 37  2  0
  5 38  1  0
 38 39  2  0
 39  2  1  0
 15 10  1  0
 37 21  1  0
 21 12  1  0
 31 26  1  0
 37 32  1  0
  1 40  1  0
  1 41  1  0
  1 42  1  0
  3 43  1  0
  4 44  1  0
  9 45  1  0
 11 46  1  0
 14 47  1  0
 19 48  1  0
 20 49  1  0
 25 50  1  0
 25 51  1  0
 27 52  1  0
 28 53  1  0
 29 54  1  0
 30 55  1  0
 31 56  1  0
 33 57  1  0
 34 58  1  0
 35 59  1  0
 36 60  1  0
 38 61  1  0
 39 62  1  0
M  CHG  1  16  -1
M  END
>  <UniqueID>  (33) 
32

>  <SMILES>  (33) 
Cc1ccc(S(=O)(=O)Nc2cc3c(cc2[O-])C(=O)C=C[C@@]32C(=O)N(Cc3ccccc3)c3ccccc32)cc1

>  <Energy>  (33) 
88.99805464629226

>  <Genealogy>  (33) 
Cc1ccc(S(=O)(=O)Nc2cc3c(cc2[O-])C(=O)C=CC32C(=O)N(Cc3ccccc3)c3ccccc32)cc1 (protonated)
Cc1ccc(S(=O)(=O)Nc2cc3c(cc2[O-])C(=O)C=C[C@@]32C(=O)N(Cc3ccccc3)c3ccccc32)cc1 (chirality)
Cc1ccc(S(=O)(=O)Nc2cc3c(cc2[O-])C(=O)C=C[C@@]32C(=O)N(Cc3ccccc3)c3ccccc32)cc1 (3D coordinates assigned)
Cc1ccc(S(=O)(=O)Nc2cc3c(cc2[O-])C(=O)C=C[C@@]32C(=O)N(Cc3ccccc3)c3ccccc32)cc1 (nonaromatic ring conformer: 88.99805464629226 kcal/mol)

>  <smiles>  (33) 
Cc1ccc(S(=O)(=O)Nc2cc3c(cc2O)C(=O)C=CC32C(=O)N(Cc3ccccc3)c3ccccc32)cc1

>  <score_type>  (33) 
oracle

>  <origin>  (33) 
adgpu

>  <m_score__min__energy>  (33) 
-11.42

>  <m_primary>  (33) 
energy

$$$$
33:0
     RDKit          3D

 65 69  0  0  0  0  0  0  0  0999 V2000
   -0.7590   18.0080  -34.2050 C   0  0  0  0  0  0  0  0  0  0  0  0
   -0.8640   19.1780  -33.2740 C   0  0  0  0  0  0  0  0  0  0  0  0
   -0.6500   19.0090  -31.8980 C   0  0  0  0  0  0  0  0  0  0  0  0
   -0.7740   20.0950  -31.0270 C   0  0  0  0  0  0  0  0  0  0  0  0
   -1.1010   21.3660  -31.5180 C   0  0  0  0  0  0  0  0  0  0  0  0
   -1.2390   22.4510  -30.5850 N   0  0  0  0  0  0  0  0  0  0  0  0
   -2.3480   23.0020  -30.1830 C   0  0  0  0  0  0  0  0  0  0  0  0
   -3.5460   22.6360  -30.7140 N   0  0  0  0  0  0  0  0  0  0  0  0
   -4.7060   23.2080  -30.3030 C   0  0  0  0  0  0  0  0  0  0  0  0
   -6.0010   22.7720  -30.8780 C   0  0  0  0  0  0  0  0  0  0  0  0
   -7.0560   23.6880  -31.0430 C   0  0  0  0  0  0  0  0  0  0  0  0
   -8.2740   23.2730  -31.5870 C   0  0  0  0  0  0  0  0  0  0  0  0
   -8.4490   21.9480  -31.9910 C   0  0  0  0  0  0  0  0  0  0  0  0
   -7.3990   21.0290  -31.8660 C   0  0  0  0  0  0  0  0  0  0  0  0
   -7.6080   19.3590  -32.4020 S   0  0  0  0  0  0  0  0  0  0  0  0
   -7.2500   18.4490  -31.2600 O   0  0  0  0  0  0  0  0  0  0  0  0
   -9.0590   19.1280  -32.7280 O   0  0  0  0  0  0  0  0  0  0  0  0
   -6.6270   18.9380  -33.7960 N   0  0  0  0  0  0  0  0  0  0  0  0
   -6.4910   17.4630  -33.9680 C   0  0  0  0  0  0  0  0  0  0  0  0
   -5.0380   16.9630  -33.9730 C   0  0  0  0  0  0  0  0  0  0  0  0
   -4.2590   17.5960  -32.8260 C   0  0  0  0  0  0  0  0  0  0  0  0
   -4.2410   19.1280  -32.9390 C   0  0  0  0  0  0  0  0  0  0  0  0
   -5.3560   19.7000  -33.8400 C   0  0  0  0  0  0  0  0  0  0  0  0
   -6.1920   21.4360  -31.2780 C   0  0  0  0  0  0  0  0  0  0  0  0
   -4.6610   24.1740  -29.3480 N   0  0  0  0  0  0  0  0  0  0  0  0
   -3.5020   24.5650  -28.8200 N   0  0  0  0  0  0  0  0  0  0  0  0
   -2.3260   24.0110  -29.2100 C   0  0  0  0  0  0  0  0  0  0  0  0
   -0.8270   24.5490  -28.4600 S   0  0  0  0  0  0  0  0  0  0  0  0
    0.3340   24.1650  -29.3310 O   0  0  0  0  0  0  0  0  0  0  0  0
   -0.8430   26.0450  -28.3160 O   0  0  0  0  0  0  0  0  0  0  0  0
   -0.6770   23.8180  -26.8650 C   0  0  0  0  0  0  0  0  0  0  0  0
   -0.3810   24.6230  -25.7570 C   0  0  0  0  0  0  0  0  0  0  0  0
   -0.2870   24.0550  -24.4830 C   0  0  0  0  0  0  0  0  0  0  0  0
   -0.4940   22.6830  -24.3100 C   0  0  0  0  0  0  0  0  0  0  0  0
   -0.7960   21.8760  -25.4110 C   0  0  0  0  0  0  0  0  0  0  0  0
   -0.8870   22.4410  -26.6870 C   0  0  0  0  0  0  0  0  0  0  0  0
   -1.3740   21.5220  -32.8920 C   0  0  0  0  0  0  0  0  0  0  0  0
   -1.2510   20.4360  -33.7620 C   0  0  0  0  0  0  0  0  0  0  0  0
   -0.6757   17.0802  -33.6200 H   0  0  0  0  0  0  0  0  0  0  0  0
   -1.6567   17.9623  -34.8391 H   0  0  0  0  0  0  0  0  0  0  0  0
    0.1324   18.1229  -34.8391 H   0  0  0  0  0  0  0  0  0  0  0  0
   -0.3835   18.0176  -31.5028 H   0  0  0  0  0  0  0  0  0  0  0  0
   -0.6137   19.9509  -29.9483 H   0  0  0  0  0  0  0  0  0  0  0  0
   -6.9210   24.7373  -30.7418 H   0  0  0  0  0  0  0  0  0  0  0  0
   -9.0983   23.9929  -31.6975 H   0  0  0  0  0  0  0  0  0  0  0  0
   -9.4140   21.6248  -32.4086 H   0  0  0  0  0  0  0  0  0  0  0  0
   -7.1860   19.2820  -34.6130 H   0  0  0  0  0  0  0  0  0  0  0  0
   -7.0236   16.9684  -33.1423 H   0  0  0  0  0  0  0  0  0  0  0  0
   -6.9139   17.2184  -34.9536 H   0  0  0  0  0  0  0  0  0  0  0  0
   -5.0299   15.8691  -33.8575 H   0  0  0  0  0  0  0  0  0  0  0  0
   -4.5653   17.2439  -34.9257 H   0  0  0  0  0  0  0  0  0  0  0  0
   -4.7310   17.3129  -31.8736 H   0  0  0  0  0  0  0  0  0  0  0  0
   -3.2215   17.2333  -32.8704 H   0  0  0  0  0  0  0  0  0  0  0  0
   -4.3588   19.5514  -31.9306 H   0  0  0  0  0  0  0  0  0  0  0  0
   -3.2822   19.4035  -33.4024 H   0  0  0  0  0  0  0  0  0  0  0  0
   -5.5619   20.7321  -33.5201 H   0  0  0  0  0  0  0  0  0  0  0  0
   -4.9875   19.6385  -34.8746 H   0  0  0  0  0  0  0  0  0  0  0  0
   -5.3858   20.7028  -31.1279 H   0  0  0  0  0  0  0  0  0  0  0  0
   -0.2224   25.7034  -25.8897 H   0  0  0  0  0  0  0  0  0  0  0  0
   -0.0499   24.6883  -23.6154 H   0  0  0  0  0  0  0  0  0  0  0  0
   -0.4192   22.2382  -23.3067 H   0  0  0  0  0  0  0  0  0  0  0  0
   -0.9619   20.7973  -25.2737 H   0  0  0  0  0  0  0  0  0  0  0  0
   -1.1236   21.8054  -27.5531 H   0  0  0  0  0  0  0  0  0  0  0  0
   -1.6852   22.5028  -33.2808 H   0  0  0  0  0  0  0  0  0  0  0  0
   -1.4583   20.5672  -34.8343 H   0  0  0  0  0  0  0  0  0  0  0  0
  1  2  1  0
  2  3  2  0
  3  4  1  0
  4  5  2  0
  5  6  1  0
  6  7  2  3
  7  8  1  0
  8  9  2  0
  9 10  1  0
 10 11  2  0
 11 12  1  0
 12 13  2  0
 13 14  1  0
 14 15  1  0
 15 16  2  0
 15 17  2  0
 15 18  1  0
 18 19  1  0
 19 20  1  0
 20 21  1  0
 21 22  1  0
 22 23  1  0
 14 24  2  0
  9 25  1  0
 25 26  1  0
 26 27  2  0
 27 28  1  0
 28 29  2  0
 28 30  2  0
 28 31  1  0
 31 32  2  0
 32 33  1  0
 33 34  2  0
 34 35  1  0
 35 36  2  0
  5 37  1  0
 37 38  2  0
 38  2  1  0
 27  7  1  0
 36 31  1  0
 24 10  1  0
 23 18  1  0
  1 39  1  0
  1 40  1  0
  1 41  1  0
  3 42  1  0
  4 43  1  0
 11 44  1  0
 12 45  1  0
 13 46  1  0
 18 47  1  0
 19 48  1  0
 19 49  1  0
 20 50  1  0
 20 51  1  0
 21 52  1  0
 21 53  1  0
 22 54  1  0
 22 55  1  0
 23 56  1  0
 23 57  1  0
 24 58  1  0
 32 59  1  0
 33 60  1  0
 34 61  1  0
 35 62  1  0
 36 63  1  0
 37 64  1  0
 38 65  1  0
M  CHG  2  18   1  25  -1
M  END
>  <UniqueID>  (34) 
33

>  <SMILES>  (34) 
Cc1ccc(N=c2nc(-c3cccc(S(=O)(=O)[NH+]4CCCCC4)c3)[n-]nc2S(=O)(=O)c2ccccc2)cc1

>  <Energy>  (34) 
88.26167798630108

>  <Genealogy>  (34) 
Cc1ccc(N=c2nc(-c3cccc(S(=O)(=O)[NH+]4CCCCC4)c3)[n-]nc2S(=O)(=O)c2ccccc2)cc1 (protonated)
Cc1ccc(N=c2nc(-c3cccc(S(=O)(=O)[NH+]4CCCCC4)c3)[n-]nc2S(=O)(=O)c2ccccc2)cc1 (3D coordinates assigned)
Cc1ccc(N=c2nc(-c3cccc(S(=O)(=O)[NH+]4CCCCC4)c3)[n-]nc2S(=O)(=O)c2ccccc2)cc1 (nonaromatic ring conformer: 88.26167798630108 kcal/mol)

>  <smiles>  (34) 
Cc1ccc(N=c2nc(-c3cccc(S(=O)(=O)N4CCCCC4)c3)[nH]nc2S(=O)(=O)c2ccccc2)cc1

>  <score_type>  (34) 
oracle

>  <origin>  (34) 
adgpu

>  <m_score__min__energy>  (34) 
-11.73

>  <m_primary>  (34) 
energy

$$$$
34:0
     RDKit          3D

 59 63  0  0  0  0  0  0  0  0999 V2000
    0.8250   19.1370  -36.2890 C   0  0  0  0  0  0  0  0  0  0  0  0
    0.5630   18.6060  -34.8830 C   0  0  0  0  0  0  0  0  0  0  0  0
   -0.4920   19.4320  -34.1810 C   0  0  0  0  0  0  0  0  0  0  0  0
   -0.1410   20.7250  -33.7580 C   0  0  0  0  0  0  0  0  0  0  0  0
   -1.0680   21.5480  -33.1210 C   0  0  0  0  0  0  0  0  0  0  0  0
   -2.3760   21.1010  -32.8950 C   0  0  0  0  0  0  0  0  0  0  0  0
   -3.3590   21.9810  -32.2220 C   0  0  0  0  0  0  0  0  0  0  0  0
   -3.0910   22.6290  -31.0560 N   0  0  0  0  0  0  0  0  0  0  0  0
   -4.2240   23.3120  -30.8310 C   0  0  0  0  0  0  0  0  0  0  0  0
   -4.5060   24.1610  -29.7640 C   0  0  0  0  0  0  0  0  0  0  0  0
   -5.7720   24.7810  -29.7340 C   0  0  0  0  0  0  0  0  0  0  0  0
   -6.1100   25.6610  -28.6590 N   0  0  0  0  0  0  0  0  0  0  0  0
   -6.7070   24.5310  -30.7670 C   0  0  0  0  0  0  0  0  0  0  0  0
   -6.3830   23.6690  -31.8370 C   0  0  0  0  0  0  0  0  0  0  0  0
   -7.3070   23.4360  -32.9020 N   0  0  0  0  0  0  0  0  0  0  0  0
   -5.1210   23.0770  -31.8280 C   0  0  0  0  0  0  0  0  0  0  0  0
   -4.5990   22.2320  -32.7300 N   0  0  0  0  0  0  0  0  0  0  0  0
   -2.7430   19.8140  -33.3230 C   0  0  0  0  0  0  0  0  0  0  0  0
   -1.8190   18.9730  -33.9690 C   0  0  0  0  0  0  0  0  0  0  0  0
   -2.3300   17.3310  -34.3960 S   0  0  0  0  0  0  0  0  0  0  0  0
   -2.3340   16.4560  -33.1740 O   0  0  0  0  0  0  0  0  0  0  0  0
   -1.3940   16.7230  -35.4080 O   0  0  0  0  0  0  0  0  0  0  0  0
   -3.9220   17.4080  -35.0660 N   0  0  0  0  0  0  0  0  0  0  0  0
   -5.0470   17.6150  -34.2110 C   0  0  0  0  0  0  0  0  0  0  0  0
   -5.6440   18.8780  -34.1350 C   0  0  0  0  0  0  0  0  0  0  0  0
   -6.7220   19.1070  -33.2670 C   0  0  0  0  0  0  0  0  0  0  0  0
   -7.2260   18.0390  -32.4860 C   0  0  0  0  0  0  0  0  0  0  0  0
   -6.6120   16.7800  -32.5620 C   0  0  0  0  0  0  0  0  0  0  0  0
   -5.5300   16.5620  -33.4260 C   0  0  0  0  0  0  0  0  0  0  0  0
   -4.9230   15.3080  -33.4950 O   0  0  0  0  0  0  0  0  0  0  0  0
   -8.3370   18.2510  -31.4830 C   0  0  0  0  0  0  0  0  0  0  0  0
   -9.1640   19.5040  -31.7790 C   0  0  0  0  0  0  0  0  0  0  0  0
   -8.2490   20.7020  -32.0310 C   0  0  0  0  0  0  0  0  0  0  0  0
   -7.3870   20.4650  -33.2740 C   0  0  0  0  0  0  0  0  0  0  0  0
    1.3109   20.1218  -36.2244 H   0  0  0  0  0  0  0  0  0  0  0  0
    1.4819   18.4386  -36.8282 H   0  0  0  0  0  0  0  0  0  0  0  0
   -0.1289   19.2335  -36.8282 H   0  0  0  0  0  0  0  0  0  0  0  0
    0.2182   17.5636  -34.9503 H   0  0  0  0  0  0  0  0  0  0  0  0
    1.4973   18.6656  -34.3055 H   0  0  0  0  0  0  0  0  0  0  0  0
    0.8808   21.0933  -33.9322 H   0  0  0  0  0  0  0  0  0  0  0  0
   -0.7705   22.5551  -32.7936 H   0  0  0  0  0  0  0  0  0  0  0  0
   -3.7657   24.3420  -28.9708 H   0  0  0  0  0  0  0  0  0  0  0  0
   -6.0650   25.3360  -27.6670 H   0  0  0  0  0  0  0  0  0  0  0  0
   -6.4050   26.6460  -28.8500 H   0  0  0  0  0  0  0  0  0  0  0  0
   -7.6953   25.0129  -30.7357 H   0  0  0  0  0  0  0  0  0  0  0  0
   -6.9730   23.1350  -33.8440 H   0  0  0  0  0  0  0  0  0  0  0  0
   -8.3310   23.5710  -32.7540 H   0  0  0  0  0  0  0  0  0  0  0  0
   -3.7695   19.4584  -33.1501 H   0  0  0  0  0  0  0  0  0  0  0  0
   -5.2647   19.6988  -34.7615 H   0  0  0  0  0  0  0  0  0  0  0  0
   -6.9837   15.9548  -31.9367 H   0  0  0  0  0  0  0  0  0  0  0  0
   -3.9780   15.1940  -33.8440 H   0  0  0  0  0  0  0  0  0  0  0  0
   -9.0030   17.3758  -31.5044 H   0  0  0  0  0  0  0  0  0  0  0  0
   -7.8733   18.3830  -30.4943 H   0  0  0  0  0  0  0  0  0  0  0  0
   -9.7827   19.3270  -32.6712 H   0  0  0  0  0  0  0  0  0  0  0  0
   -9.8038   19.7213  -30.9110 H   0  0  0  0  0  0  0  0  0  0  0  0
   -8.8636   21.6016  -32.1826 H   0  0  0  0  0  0  0  0  0  0  0  0
   -7.5898   20.8360  -31.1607 H   0  0  0  0  0  0  0  0  0  0  0  0
   -8.0261   20.5403  -34.1661 H   0  0  0  0  0  0  0  0  0  0  0  0
   -6.5928   21.2261  -33.2801 H   0  0  0  0  0  0  0  0  0  0  0  0
  1  2  1  0
  2  3  1  0
  3  4  2  0
  4  5  1  0
  5  6  2  0
  6  7  1  0
  7  8  2  0
  8  9  1  0
  9 10  2  0
 10 11  1  0
 11 12  1  0
 11 13  2  0
 13 14  1  0
 14 15  1  0
 14 16  2  0
 16 17  1  0
  6 18  1  0
 18 19  2  0
 19 20  1  0
 20 21  2  0
 20 22  2  0
 20 23  1  0
 23 24  1  0
 24 25  2  0
 25 26  1  0
 26 27  2  0
 27 28  1  0
 28 29  2  0
 29 30  1  0
 27 31  1  0
 31 32  1  0
 32 33  1  0
 33 34  1  0
 19  3  1  0
 29 24  1  0
 17  7  1  0
 34 26  1  0
 16  9  1  0
  1 35  1  0
  1 36  1  0
  1 37  1  0
  2 38  1  0
  2 39  1  0
  4 40  1  0
  5 41  1  0
 10 42  1  0
 12 43  1  0
 12 44  1  0
 13 45  1  0
 15 46  1  0
 15 47  1  0
 18 48  1  0
 25 49  1  0
 28 50  1  0
 30 51  1  0
 31 52  1  0
 31 53  1  0
 32 54  1  0
 32 55  1  0
 33 56  1  0
 33 57  1  0
 34 58  1  0
 34 59  1  0
M  CHG  2  17  -1  23  -1
M  END
>  <UniqueID>  (35) 
34

>  <SMILES>  (35) 
CCc1ccc(-c2nc3cc(N)cc(N)c3[n-]2)cc1S(=O)(=O)[N-]c1cc2c(cc1O)CCCC2

>  <Energy>  (35) 
104.50404725391365

>  <Genealogy>  (35) 
CCc1ccc(-c2nc3cc(N)cc(N)c3[n-]2)cc1S(=O)(=O)[N-]c1cc2c(cc1O)CCCC2 (protonated)
CCc1ccc(-c2nc3cc(N)cc(N)c3[n-]2)cc1S(=O)(=O)[N-]c1cc2c(cc1O)CCCC2 (3D coordinates assigned)
CCc1ccc(-c2nc3cc(N)cc(N)c3[n-]2)cc1S(=O)(=O)[N-]c1cc2c(cc1O)CCCC2 (nonaromatic ring conformer: 104.50404725391365 kcal/mol)

>  <smiles>  (35) 
CCc1ccc(-c2nc3cc(N)cc(N)c3[nH]2)cc1S(=O)(=O)Nc1cc2c(cc1O)CCCC2

>  <score_type>  (35) 
oracle

>  <origin>  (35) 
adgpu

>  <m_score__min__energy>  (35) 
-12.460000000000001

>  <m_primary>  (35) 
energy

$$$$
35:0
     RDKit          3D

 51 54  0  0  0  0  0  0  0  0999 V2000
   -2.5980   21.9310  -32.3300 O   0  0  0  0  0  0  0  0  0  0  0  0
   -2.9260   22.3480  -30.9240 S   0  0  0  0  0  0  0  0  0  0  0  0
   -2.8800   21.1310  -30.0440 O   0  0  0  0  0  0  0  0  0  0  0  0
   -1.7360   23.4880  -30.3840 N   0  0  0  0  0  0  0  0  0  0  0  0
   -1.2950   23.6430  -29.0270 C   0  0  0  0  0  0  0  0  0  0  0  0
   -1.0790   22.5360  -28.1850 C   0  0  0  0  0  0  0  0  0  0  0  0
   -0.6470   22.7240  -26.8640 C   0  0  0  0  0  0  0  0  0  0  0  0
   -0.4170   24.0190  -26.3790 C   0  0  0  0  0  0  0  0  0  0  0  0
   -0.6100   25.1240  -27.2220 C   0  0  0  0  0  0  0  0  0  0  0  0
   -1.0480   24.9350  -28.5380 C   0  0  0  0  0  0  0  0  0  0  0  0
   -1.2240   26.0390  -29.3660 O   0  0  0  0  0  0  0  0  0  0  0  0
    0.1150   24.1820  -24.9800 C   0  0  0  0  0  0  0  0  0  0  0  0
   -0.6030   23.2360  -23.9990 C   0  0  0  0  0  0  0  0  0  0  0  0
   -0.8710   21.8070  -24.5470 C   0  0  0  0  0  0  0  0  0  0  0  0
   -0.3370   21.5570  -25.9670 C   0  0  0  0  0  0  0  0  0  0  0  0
   -4.5170   23.1150  -30.9200 C   0  0  0  0  0  0  0  0  0  0  0  0
   -5.6400   22.3160  -31.1740 C   0  0  0  0  0  0  0  0  0  0  0  0
   -6.9250   22.8710  -31.1770 C   0  0  0  0  0  0  0  0  0  0  0  0
   -8.3380   21.8460  -31.4520 S   0  0  0  0  0  0  0  0  0  0  0  0
   -9.3410   22.6010  -32.2780 O   0  0  0  0  0  0  0  0  0  0  0  0
   -8.9740   21.5240  -30.1260 O   0  0  0  0  0  0  0  0  0  0  0  0
   -7.9390   20.3530  -32.2690 N   0  0  0  0  0  0  0  0  0  0  0  0
   -9.0260   19.3810  -32.1950 C   0  0  0  0  0  0  0  0  0  0  0  0
   -8.3840   18.0080  -32.3470 C   0  0  0  0  0  0  0  0  0  0  0  0
   -6.9270   18.2040  -31.9560 C   0  0  0  0  0  0  0  0  0  0  0  0
   -6.7760   19.6940  -31.6760 C   0  0  0  0  0  0  0  0  0  0  0  0
   -7.0830   24.2470  -30.9610 C   0  0  0  0  0  0  0  0  0  0  0  0
   -5.9700   25.0500  -30.7110 C   0  0  0  0  0  0  0  0  0  0  0  0
   -4.6890   24.4920  -30.6790 C   0  0  0  0  0  0  0  0  0  0  0  0
   -3.6040   25.3150  -30.4080 O   0  0  0  0  0  0  0  0  0  0  0  0
   -1.2499   21.5180  -28.5651 H   0  0  0  0  0  0  0  0  0  0  0  0
   -0.4168   26.1403  -26.8481 H   0  0  0  0  0  0  0  0  0  0  0  0
    1.1911   23.9539  -24.9762 H   0  0  0  0  0  0  0  0  0  0  0  0
   -0.0621   25.2188  -24.6579 H   0  0  0  0  0  0  0  0  0  0  0  0
    0.0180   23.1448  -23.0957 H   0  0  0  0  0  0  0  0  0  0  0  0
   -1.5895   23.6826  -23.8055 H   0  0  0  0  0  0  0  0  0  0  0  0
   -0.3943   21.0841  -23.8687 H   0  0  0  0  0  0  0  0  0  0  0  0
   -1.9638   21.6924  -24.5995 H   0  0  0  0  0  0  0  0  0  0  0  0
    0.7529   21.4146  -25.9232 H   0  0  0  0  0  0  0  0  0  0  0  0
   -0.8229   20.6583  -26.3747 H   0  0  0  0  0  0  0  0  0  0  0  0
   -5.5103   21.2420  -31.3730 H   0  0  0  0  0  0  0  0  0  0  0  0
   -9.5387   19.4563  -31.2247 H   0  0  0  0  0  0  0  0  0  0  0  0
   -9.7762   19.5602  -32.9793 H   0  0  0  0  0  0  0  0  0  0  0  0
   -8.8680   17.2798  -31.6796 H   0  0  0  0  0  0  0  0  0  0  0  0
   -8.4863   17.6171  -33.3701 H   0  0  0  0  0  0  0  0  0  0  0  0
   -6.6885   17.6179  -31.0562 H   0  0  0  0  0  0  0  0  0  0  0  0
   -6.2434   17.8671  -32.7492 H   0  0  0  0  0  0  0  0  0  0  0  0
   -6.7497   19.8752  -30.5913 H   0  0  0  0  0  0  0  0  0  0  0  0
   -5.8401   20.0839  -32.1026 H   0  0  0  0  0  0  0  0  0  0  0  0
   -8.0873   24.6948  -30.9887 H   0  0  0  0  0  0  0  0  0  0  0  0
   -6.1013   26.1284  -30.5381 H   0  0  0  0  0  0  0  0  0  0  0  0
  1  2  2  0
  2  3  2  0
  2  4  1  0
  4  5  1  0
  5  6  2  0
  6  7  1  0
  7  8  2  0
  8  9  1  0
  9 10  2  0
 10 11  1  0
  8 12  1  0
 12 13  1  0
 13 14  1  0
 14 15  1  0
  2 16  1  0
 16 17  2  0
 17 18  1  0
 18 19  1  0
 19 20  2  0
 19 21  2  0
 19 22  1  0
 22 23  1  0
 23 24  1  0
 24 25  1  0
 25 26  1  0
 18 27  2  0
 27 28  1  0
 28 29  2  0
 29 30  1  0
 10  5  1  0
 29 16  1  0
 15  7  1  0
 26 22  1  0
  6 31  1  0
  9 32  1  0
 12 33  1  0
 12 34  1  0
 13 35  1  0
 13 36  1  0
 14 37  1  0
 14 38  1  0
 15 39  1  0
 15 40  1  0
 17 41  1  0
 23 42  1  0
 23 43  1  0
 24 44  1  0
 24 45  1  0
 25 46  1  0
 25 47  1  0
 26 48  1  0
 26 49  1  0
 27 50  1  0
 28 51  1  0
M  CHG  3   4  -1  11  -1  30  -1
M  END
>  <UniqueID>  (36) 
35

>  <SMILES>  (36) 
O=S(=O)([N-]c1cc2c(cc1[O-])CCCC2)c1cc(S(=O)(=O)N2CCCC2)ccc1[O-]

>  <Energy>  (36) 
63.26157320126784

>  <Genealogy>  (36) 
O=S(=O)([N-]c1cc2c(cc1[O-])CCCC2)c1cc(S(=O)(=O)N2CCCC2)ccc1[O-] (protonated)
O=S(=O)([N-]c1cc2c(cc1[O-])CCCC2)c1cc(S(=O)(=O)N2CCCC2)ccc1[O-] (3D coordinates assigned)
O=S(=O)([N-]c1cc2c(cc1[O-])CCCC2)c1cc(S(=O)(=O)N2CCCC2)ccc1[O-] (nonaromatic ring conformer: 63.26157320126784 kcal/mol)

>  <smiles>  (36) 
O=S(=O)(Nc1cc2c(cc1O)CCCC2)c1cc(S(=O)(=O)N2CCCC2)ccc1O

>  <score_type>  (36) 
oracle

>  <origin>  (36) 
adgpu

>  <m_score__min__energy>  (36) 
-16.170000000000002

>  <m_primary>  (36) 
energy

$$$$
36:0
     RDKit          3D

 55 58  0  0  0  0  0  0  0  0999 V2000
    0.6350   25.0160  -24.7150 C   0  0  0  0  0  0  0  0  0  0  0  0
   -0.1740   24.9150  -25.9820 C   0  0  0  0  0  0  0  0  0  0  0  0
   -0.8160   23.6990  -26.2650 C   0  0  0  0  0  0  0  0  0  0  0  0
   -1.5530   23.5370  -27.4350 C   0  0  0  0  0  0  0  0  0  0  0  0
   -1.6550   24.5810  -28.3560 C   0  0  0  0  0  0  0  0  0  0  0  0
   -2.4000   24.3730  -29.5660 N   0  0  0  0  0  0  0  0  0  0  0  0
   -2.9930   23.1150  -29.9130 C   0  0  0  0  0  0  0  0  0  0  0  0
   -2.9400   22.1440  -29.1100 O   0  0  0  0  0  0  0  0  0  0  0  0
   -3.6280   22.9710  -31.1880 N   0  0  0  0  0  0  0  0  0  0  0  0
   -4.6150   21.9910  -31.5450 C   0  0  0  0  0  0  0  0  0  0  0  0
   -4.3820   20.6110  -31.4030 C   0  0  0  0  0  0  0  0  0  0  0  0
   -5.3770   19.6900  -31.7420 C   0  0  0  0  0  0  0  0  0  0  0  0
   -6.6230   20.1350  -32.2060 C   0  0  0  0  0  0  0  0  0  0  0  0
   -7.8710   18.9760  -32.6540 S   0  0  0  0  0  0  0  0  0  0  0  0
   -8.3870   18.2850  -31.4210 O   0  0  0  0  0  0  0  0  0  0  0  0
   -9.0120   19.7070  -33.3040 O   0  0  0  0  0  0  0  0  0  0  0  0
   -7.2080   17.8170  -33.7770 N   0  0  0  0  0  0  0  0  0  0  0  0
   -6.1140   18.3970  -34.5540 C   0  0  0  0  0  0  0  0  0  0  0  0
   -5.2210   17.2400  -34.9680 C   0  0  0  0  0  0  0  0  0  0  0  0
   -5.5220   16.1280  -33.9760 C   0  0  0  0  0  0  0  0  0  0  0  0
   -6.6240   16.6730  -33.0780 C   0  0  0  0  0  0  0  0  0  0  0  0
   -6.8620   21.5090  -32.3340 C   0  0  0  0  0  0  0  0  0  0  0  0
   -5.8670   22.4310  -31.9930 C   0  0  0  0  0  0  0  0  0  0  0  0
   -1.0700   25.8270  -28.0630 C   0  0  0  0  0  0  0  0  0  0  0  0
   -1.2450   26.8830  -28.9520 O   0  0  0  0  0  0  0  0  0  0  0  0
   -0.3310   26.0110  -26.8720 C   0  0  0  0  0  0  0  0  0  0  0  0
    0.4170   27.5950  -26.5300 S   0  0  0  0  0  0  0  0  0  0  0  0
    1.8390   27.5940  -27.0120 O   0  0  0  0  0  0  0  0  0  0  0  0
    0.4510   27.8440  -25.0470 O   0  0  0  0  0  0  0  0  0  0  0  0
   -0.4490   28.9620  -27.3080 C   0  0  0  0  0  0  0  0  0  0  0  0
    0.3920   30.2220  -27.4360 C   0  0  0  0  0  0  0  0  0  0  0  0
   -0.7570   30.1750  -26.4410 C   0  0  0  0  0  0  0  0  0  0  0  0
   -0.0335   24.9325  -23.8455 H   0  0  0  0  0  0  0  0  0  0  0  0
    1.3759   24.2034  -24.6873 H   0  0  0  0  0  0  0  0  0  0  0  0
    1.1533   25.9858  -24.6873 H   0  0  0  0  0  0  0  0  0  0  0  0
   -0.7357   22.8639  -25.5535 H   0  0  0  0  0  0  0  0  0  0  0  0
   -2.0580   22.5804  -27.6349 H   0  0  0  0  0  0  0  0  0  0  0  0
   -2.6650   25.2080  -30.1340 H   0  0  0  0  0  0  0  0  0  0  0  0
   -3.4127   20.2553  -31.0236 H   0  0  0  0  0  0  0  0  0  0  0  0
   -5.1819   18.6119  -31.6444 H   0  0  0  0  0  0  0  0  0  0  0  0
   -6.5092   18.9096  -35.4434 H   0  0  0  0  0  0  0  0  0  0  0  0
   -5.5565   19.1397  -33.9645 H   0  0  0  0  0  0  0  0  0  0  0  0
   -5.4582   16.9173  -35.9925 H   0  0  0  0  0  0  0  0  0  0  0  0
   -4.1571   17.5195  -34.9613 H   0  0  0  0  0  0  0  0  0  0  0  0
   -5.8660   15.2255  -34.5025 H   0  0  0  0  0  0  0  0  0  0  0  0
   -4.6297   15.8417  -33.4000 H   0  0  0  0  0  0  0  0  0  0  0  0
   -7.3897   15.9020  -32.9069 H   0  0  0  0  0  0  0  0  0  0  0  0
   -6.2245   16.9703  -32.0972 H   0  0  0  0  0  0  0  0  0  0  0  0
   -7.8352   21.8642  -32.7038 H   0  0  0  0  0  0  0  0  0  0  0  0
   -6.0691   23.5090  -32.0772 H   0  0  0  0  0  0  0  0  0  0  0  0
   -1.0553   28.3331  -27.9765 H   0  0  0  0  0  0  0  0  0  0  0  0
    1.4313   30.2282  -27.0757 H   0  0  0  0  0  0  0  0  0  0  0  0
    0.6752   30.8866  -28.2655 H   0  0  0  0  0  0  0  0  0  0  0  0
   -0.5489   30.1466  -25.3612 H   0  0  0  0  0  0  0  0  0  0  0  0
   -1.6490   30.7906  -26.2527 H   0  0  0  0  0  0  0  0  0  0  0  0
  1  2  1  0
  2  3  2  0
  3  4  1  0
  4  5  2  0
  5  6  1  0
  6  7  1  0
  7  8  2  0
  7  9  1  0
  9 10  1  0
 10 11  2  0
 11 12  1  0
 12 13  2  0
 13 14  1  0
 14 15  2  0
 14 16  2  0
 14 17  1  0
 17 18  1  0
 18 19  1  0
 19 20  1  0
 20 21  1  0
 13 22  1  0
 22 23  2  0
  5 24  1  0
 24 25  1  0
 24 26  2  0
 26 27  1  0
 27 28  2  0
 27 29  2  0
 27 30  1  0
 30 31  1  0
 31 32  1  0
 26  2  1  0
 32 30  1  0
 23 10  1  0
 21 17  1  0
  1 33  1  0
  1 34  1  0
  1 35  1  0
  3 36  1  0
  4 37  1  0
  6 38  1  0
 11 39  1  0
 12 40  1  0
 18 41  1  0
 18 42  1  0
 19 43  1  0
 19 44  1  0
 20 45  1  0
 20 46  1  0
 21 47  1  0
 21 48  1  0
 22 49  1  0
 23 50  1  0
 30 51  1  0
 31 52  1  0
 31 53  1  0
 32 54  1  0
 32 55  1  0
M  CHG  2   9  -1  25  -1
M  END
>  <UniqueID>  (37) 
36

>  <SMILES>  (37) 
Cc1ccc(NC(=O)[N-]c2ccc(S(=O)(=O)N3CCCC3)cc2)c([O-])c1S(=O)(=O)C1CC1

>  <Energy>  (37) 
332.2694610261771

>  <Genealogy>  (37) 
Cc1ccc(NC(=O)[N-]c2ccc(S(=O)(=O)N3CCCC3)cc2)c([O-])c1S(=O)(=O)C1CC1 (protonated)
Cc1ccc(NC(=O)[N-]c2ccc(S(=O)(=O)N3CCCC3)cc2)c([O-])c1S(=O)(=O)C1CC1 (3D coordinates assigned)
Cc1ccc(NC(=O)[N-]c2ccc(S(=O)(=O)N3CCCC3)cc2)c([O-])c1S(=O)(=O)C1CC1 (nonaromatic ring conformer: 332.2694610261771 kcal/mol)

>  <smiles>  (37) 
Cc1ccc(NC(=O)Nc2ccc(S(=O)(=O)N3CCCC3)cc2)c(O)c1S(=O)(=O)C1CC1

>  <score_type>  (37) 
oracle

>  <origin>  (37) 
adgpu

>  <m_score__min__energy>  (37) 
-14.970000000000001

>  <m_primary>  (37) 
energy

$$$$
37:0
     RDKit          3D

 32 34  0  0  0  0  0  0  0  0999 V2000
   -7.9060   20.0990  -33.5230 N   0  0  0  0  0  0  0  0  0  0  0  0
   -8.4250   20.8410  -32.0520 S   0  0  0  0  0  0  0  0  0  0  0  0
   -9.0880   19.8150  -31.1760 O   0  0  0  0  0  0  0  0  0  0  0  0
   -9.4200   21.9230  -32.3630 O   0  0  0  0  0  0  0  0  0  0  0  0
   -7.0370   21.5290  -31.2170 C   0  0  0  0  0  0  0  0  0  0  0  0
   -5.7590   20.9900  -31.4150 C   0  0  0  0  0  0  0  0  0  0  0  0
   -4.6520   21.5420  -30.7630 C   0  0  0  0  0  0  0  0  0  0  0  0
   -4.8090   22.6450  -29.9070 C   0  0  0  0  0  0  0  0  0  0  0  0
   -3.6700   23.2150  -29.2360 N   0  0  0  0  0  0  0  0  0  0  0  0
   -2.9720   22.6720  -28.2110 C   0  0  0  0  0  0  0  0  0  0  0  0
   -3.2400   21.4290  -27.6470 O   0  0  0  0  0  0  0  0  0  0  0  0
   -1.9450   23.5110  -27.8290 C   0  0  0  0  0  0  0  0  0  0  0  0
   -2.0100   24.6090  -28.6470 C   0  0  0  0  0  0  0  0  0  0  0  0
   -3.0770   24.4020  -29.4990 C   0  0  0  0  0  0  0  0  0  0  0  0
   -3.5060   25.2980  -30.4730 O   0  0  0  0  0  0  0  0  0  0  0  0
   -1.0790   25.7740  -28.5660 C   0  0  0  0  0  0  0  0  0  0  0  0
   -0.0400   25.5870  -27.4780 C   0  0  0  0  0  0  0  0  0  0  0  0
    0.0290   24.5020  -26.6740 C   0  0  0  0  0  0  0  0  0  0  0  0
   -0.9210   23.3230  -26.7560 C   0  0  0  0  0  0  0  0  0  0  0  0
   -6.0910   23.1860  -29.7180 C   0  0  0  0  0  0  0  0  0  0  0  0
   -7.1970   22.6340  -30.3710 C   0  0  0  0  0  0  0  0  0  0  0  0
   -8.7530   19.6750  -33.9660 H   0  0  0  0  0  0  0  0  0  0  0  0
   -5.6259   20.1288  -32.0863 H   0  0  0  0  0  0  0  0  0  0  0  0
   -3.6527   21.1103  -30.9212 H   0  0  0  0  0  0  0  0  0  0  0  0
   -0.5664   25.8885  -29.5325 H   0  0  0  0  0  0  0  0  0  0  0  0
   -1.6706   26.6695  -28.3249 H   0  0  0  0  0  0  0  0  0  0  0  0
    0.7044   26.3839  -27.3336 H   0  0  0  0  0  0  0  0  0  0  0  0
    0.8233   24.4728  -25.9136 H   0  0  0  0  0  0  0  0  0  0  0  0
   -0.3419   22.4130  -26.9715 H   0  0  0  0  0  0  0  0  0  0  0  0
   -1.4455   23.2379  -25.7929 H   0  0  0  0  0  0  0  0  0  0  0  0
   -6.2260   24.0504  -29.0513 H   0  0  0  0  0  0  0  0  0  0  0  0
   -8.1961   23.0688  -30.2200 H   0  0  0  0  0  0  0  0  0  0  0  0
  1  2  1  0
  2  3  2  0
  2  4  2  0
  2  5  1  0
  5  6  2  0
  6  7  1  0
  7  8  2  0
  8  9  1  0
  9 10  1  0
 10 11  1  0
 10 12  2  0
 12 13  1  0
 13 14  2  0
 14 15  1  0
 13 16  1  0
 16 17  1  0
 17 18  2  0
 18 19  1  0
  8 20  1  0
 20 21  2  0
 21  5  1  0
 14  9  1  0
 19 12  1  0
  1 22  1  0
  6 23  1  0
  7 24  1  0
 16 25  1  0
 16 26  1  0
 17 27  1  0
 18 28  1  0
 19 29  1  0
 19 30  1  0
 20 31  1  0
 21 32  1  0
M  CHG  3   1  -1  11  -1  15  -1
M  END
>  <UniqueID>  (38) 
37

>  <SMILES>  (38) 
[NH-]S(=O)(=O)c1ccc(-n2c([O-])c3c(c2[O-])CC=CC3)cc1

>  <Energy>  (38) 
71.84311368740656

>  <Genealogy>  (38) 
[NH-]S(=O)(=O)c1ccc(-n2c([O-])c3c(c2[O-])CC=CC3)cc1 (protonated)
[NH-]S(=O)(=O)c1ccc(-n2c([O-])c3c(c2[O-])CC=CC3)cc1 (3D coordinates assigned)
[NH-]S(=O)(=O)c1ccc(-n2c([O-])c3c(c2[O-])CC=CC3)cc1 (nonaromatic ring conformer: 71.84311368740656 kcal/mol)

>  <smiles>  (38) 
NS(=O)(=O)c1ccc(-n2c(O)c3c(c2O)CC=CC3)cc1

>  <score_type>  (38) 
oracle

>  <origin>  (38) 
adgpu

>  <m_score__min__energy>  (38) 
-9.5500000000000007

>  <m_primary>  (38) 
energy

$$$$
38:0
     RDKit          3D

 44 46  0  0  0  0  0  0  0  0999 V2000
   -0.4760   21.9320  -26.9380 C   0  0  0  0  0  0  0  0  0  0  0  0
   -0.4050   22.6930  -25.6180 C   0  0  0  0  0  0  0  0  0  0  0  0
   -0.0920   24.1010  -25.8510 N   0  0  0  0  0  0  0  0  0  0  0  0
   -1.0360   25.1030  -26.2520 C   0  0  0  0  0  0  0  0  0  0  0  0
   -0.9880   26.2370  -25.7100 O   0  0  0  0  0  0  0  0  0  0  0  0
   -2.0780   24.8380  -27.2600 C   0  0  0  0  0  0  0  0  0  0  0  0
   -3.2420   24.2590  -26.8640 N   0  0  0  0  0  0  0  0  0  0  0  0
   -4.2430   23.9940  -27.7430 C   0  0  0  0  0  0  0  0  0  0  0  0
   -4.0880   24.3330  -29.0930 C   0  0  0  0  0  0  0  0  0  0  0  0
   -5.1190   24.0360  -30.0550 N   0  0  0  0  0  0  0  0  0  0  0  0
   -6.2510   24.9220  -30.3430 C   0  0  0  0  0  0  0  0  0  0  0  0
   -7.2570   24.0880  -31.1690 C   0  0  0  0  0  0  0  0  0  0  0  0
   -6.5630   22.7840  -31.3420 C   0  0  0  0  0  0  0  0  0  0  0  0
   -7.0020   21.6750  -32.0640 C   0  0  0  0  0  0  0  0  0  0  0  0
   -6.1680   20.5450  -32.1390 C   0  0  0  0  0  0  0  0  0  0  0  0
   -6.6870   19.1090  -33.0200 S   0  0  0  0  0  0  0  0  0  0  0  0
   -8.1880   19.0910  -33.0820 O   0  0  0  0  0  0  0  0  0  0  0  0
   -6.2250   17.8700  -32.3050 O   0  0  0  0  0  0  0  0  0  0  0  0
   -6.0460   19.1330  -34.6340 N   0  0  0  0  0  0  0  0  0  0  0  0
   -5.5150   17.8150  -34.9750 C   0  0  0  0  0  0  0  0  0  0  0  0
   -4.9140   20.5560  -31.4950 C   0  0  0  0  0  0  0  0  0  0  0  0
   -4.4930   21.6870  -30.7780 C   0  0  0  0  0  0  0  0  0  0  0  0
   -5.3550   22.7890  -30.6980 C   0  0  0  0  0  0  0  0  0  0  0  0
   -2.9300   24.9290  -29.4870 N   0  0  0  0  0  0  0  0  0  0  0  0
   -1.9260   25.2020  -28.6110 C   0  0  0  0  0  0  0  0  0  0  0  0
   -0.8600   25.8130  -29.0210 N   0  0  0  0  0  0  0  0  0  0  0  0
   -0.5764   20.8554  -26.7356 H   0  0  0  0  0  0  0  0  0  0  0  0
   -1.3456   22.2793  -27.5151 H   0  0  0  0  0  0  0  0  0  0  0  0
    0.4429   22.1124  -27.5151 H   0  0  0  0  0  0  0  0  0  0  0  0
   -1.3754   22.6186  -25.1055 H   0  0  0  0  0  0  0  0  0  0  0  0
    0.3887   22.2518  -24.9972 H   0  0  0  0  0  0  0  0  0  0  0  0
   -5.1708   23.5155  -27.3963 H   0  0  0  0  0  0  0  0  0  0  0  0
   -6.7167   25.2615  -29.4061 H   0  0  0  0  0  0  0  0  0  0  0  0
   -5.9273   25.8174  -30.8939 H   0  0  0  0  0  0  0  0  0  0  0  0
   -8.2040   23.9607  -30.6240 H   0  0  0  0  0  0  0  0  0  0  0  0
   -7.5254   24.5619  -32.1247 H   0  0  0  0  0  0  0  0  0  0  0  0
   -7.9812   21.6837  -32.5650 H   0  0  0  0  0  0  0  0  0  0  0  0
   -6.8480   19.3290  -35.2780 H   0  0  0  0  0  0  0  0  0  0  0  0
   -5.2913   17.2598  -34.0521 H   0  0  0  0  0  0  0  0  0  0  0  0
   -6.2601   17.2609  -35.5648 H   0  0  0  0  0  0  0  0  0  0  0  0
   -4.5939   17.9322  -35.5648 H   0  0  0  0  0  0  0  0  0  0  0  0
   -4.2612   19.6726  -31.5547 H   0  0  0  0  0  0  0  0  0  0  0  0
   -3.5077   21.7078  -30.2894 H   0  0  0  0  0  0  0  0  0  0  0  0
   -0.7440   26.0960  -30.0200 H   0  0  0  0  0  0  0  0  0  0  0  0
  1  2  1  0
  2  3  1  0
  3  4  1  0
  4  5  2  0
  4  6  1  0
  6  7  2  0
  7  8  1  0
  8  9  2  0
  9 10  1  0
 10 11  1  0
 11 12  1  0
 12 13  1  0
 13 14  2  0
 14 15  1  0
 15 16  1  0
 16 17  2  0
 16 18  2  0
 16 19  1  0
 19 20  1  0
 15 21  2  0
 21 22  1  0
 22 23  2  0
  9 24  1  0
 24 25  1  0
 25 26  2  3
 25  6  1  0
 23 10  1  0
 23 13  1  0
  1 27  1  0
  1 28  1  0
  1 29  1  0
  2 30  1  0
  2 31  1  0
  8 32  1  0
 11 33  1  0
 11 34  1  0
 12 35  1  0
 12 36  1  0
 14 37  1  0
 19 38  1  0
 20 39  1  0
 20 40  1  0
 20 41  1  0
 21 42  1  0
 22 43  1  0
 26 44  1  0
M  CHG  2   3  -1  24  -1
M  END
>  <UniqueID>  (39) 
38

>  <SMILES>  (39) 
CC[N-]C(=O)c1ncc(N2CCc3cc(S(=O)(=O)NC)ccc32)[n-]c1=N

>  <Energy>  (39) 
64.72179482422612

>  <Genealogy>  (39) 
CC[N-]C(=O)c1ncc(N2CCc3cc(S(=O)(=O)NC)ccc32)[n-]c1=N (protonated)
CC[N-]C(=O)c1ncc(N2CCc3cc(S(=O)(=O)NC)ccc32)[n-]c1=N (3D coordinates assigned)
CC[N-]C(=O)c1ncc(N2CCc3cc(S(=O)(=O)NC)ccc32)[n-]c1=N (nonaromatic ring conformer: 64.72179482422612 kcal/mol)

>  <smiles>  (39) 
CCNC(=O)c1ncc(N2CCc3cc(S(=O)(=O)NC)ccc32)[nH]c1=N

>  <score_type>  (39) 
oracle

>  <origin>  (39) 
adgpu

>  <m_score__min__energy>  (39) 
-10.300000000000001

>  <m_primary>  (39) 
energy

$$$$
39:0
     RDKit          3D

 46 49  0  0  0  0  0  0  0  0999 V2000
   -1.9930   20.8270  -32.9980 O   0  0  0  0  0  0  0  0  0  0  0  0
   -2.6540   21.5590  -32.2090 C   0  0  0  0  0  0  0  0  0  0  0  0
   -3.7980   22.2320  -32.6590 O   0  0  0  0  0  0  0  0  0  0  0  0
   -5.1250   21.8400  -32.4170 C   0  0  0  0  0  0  0  0  0  0  0  0
   -5.6170   20.6150  -32.9110 C   0  0  0  0  0  0  0  0  0  0  0  0
   -6.9410   20.2380  -32.6800 C   0  0  0  0  0  0  0  0  0  0  0  0
   -7.7920   21.0790  -31.9670 C   0  0  0  0  0  0  0  0  0  0  0  0
   -7.3260   22.3040  -31.4880 C   0  0  0  0  0  0  0  0  0  0  0  0
   -5.9940   22.7050  -31.7100 C   0  0  0  0  0  0  0  0  0  0  0  0
   -5.5370   24.0180  -31.1870 C   0  0  0  0  0  0  0  0  0  0  0  0
   -6.3610   24.9260  -30.6230 N   0  0  0  0  0  0  0  0  0  0  0  0
   -5.5140   25.9260  -30.3120 C   0  0  0  0  0  0  0  0  0  0  0  0
   -4.2470   25.6470  -30.6630 N   0  0  0  0  0  0  0  0  0  0  0  0
   -4.2600   24.4470  -31.2140 N   0  0  0  0  0  0  0  0  0  0  0  0
   -2.2580   21.6610  -30.7870 C   0  0  0  0  0  0  0  0  0  0  0  0
   -2.1420   20.5040  -30.0030 C   0  0  0  0  0  0  0  0  0  0  0  0
   -1.7840   20.5960  -28.6600 C   0  0  0  0  0  0  0  0  0  0  0  0
   -1.5250   21.8390  -28.0760 C   0  0  0  0  0  0  0  0  0  0  0  0
   -1.1340   21.8630  -26.3590 Cl  0  0  0  0  0  0  0  0  0  0  0  0
   -1.6090   23.0190  -28.8510 C   0  0  0  0  0  0  0  0  0  0  0  0
   -1.2810   24.6050  -28.1020 S   0  0  0  0  0  0  0  0  0  0  0  0
   -1.9450   24.6400  -26.7540 O   0  0  0  0  0  0  0  0  0  0  0  0
   -1.9020   25.6660  -28.9670 O   0  0  0  0  0  0  0  0  0  0  0  0
    0.4040   25.0080  -27.8520 N   0  0  0  0  0  0  0  0  0  0  0  0
    0.5890   25.9280  -26.7180 C   0  0  0  0  0  0  0  0  0  0  0  0
    2.0820   26.2850  -26.5380 C   0  0  0  0  0  0  0  0  0  0  0  0
    2.9670   25.3920  -27.1950 O   0  0  0  0  0  0  0  0  0  0  0  0
    2.5420   24.0590  -27.0100 C   0  0  0  0  0  0  0  0  0  0  0  0
    1.2670   23.8110  -27.8230 C   0  0  0  0  0  0  0  0  0  0  0  0
   -1.9980   22.9130  -30.2000 C   0  0  0  0  0  0  0  0  0  0  0  0
   -4.9524   19.9509  -33.4830 H   0  0  0  0  0  0  0  0  0  0  0  0
   -7.3127   19.2756  -33.0615 H   0  0  0  0  0  0  0  0  0  0  0  0
   -8.8333   20.7770  -31.7811 H   0  0  0  0  0  0  0  0  0  0  0  0
   -8.0067   22.9642  -30.9306 H   0  0  0  0  0  0  0  0  0  0  0  0
   -5.8236   26.8633  -29.8266 H   0  0  0  0  0  0  0  0  0  0  0  0
   -2.3348   19.5181  -30.4512 H   0  0  0  0  0  0  0  0  0  0  0  0
   -1.7044   19.6818  -28.0534 H   0  0  0  0  0  0  0  0  0  0  0  0
    0.0179   26.8495  -26.9045 H   0  0  0  0  0  0  0  0  0  0  0  0
    0.2318   25.4345  -25.8021 H   0  0  0  0  0  0  0  0  0  0  0  0
    2.2478   27.2957  -26.9393 H   0  0  0  0  0  0  0  0  0  0  0  0
    2.3000   26.2186  -25.4619 H   0  0  0  0  0  0  0  0  0  0  0  0
    3.3318   23.3722  -27.3483 H   0  0  0  0  0  0  0  0  0  0  0  0
    2.3361   23.8848  -25.9436 H   0  0  0  0  0  0  0  0  0  0  0  0
    1.5458   23.5460  -28.8536 H   0  0  0  0  0  0  0  0  0  0  0  0
    0.7071   22.9926  -27.3468 H   0  0  0  0  0  0  0  0  0  0  0  0
   -2.1005   23.8254  -30.8059 H   0  0  0  0  0  0  0  0  0  0  0  0
  1  2  2  0
  2  3  1  0
  3  4  1  0
  4  5  2  0
  5  6  1  0
  6  7  2  0
  7  8  1  0
  8  9  2  0
  9 10  1  0
 10 11  1  0
 11 12  2  0
 12 13  1  0
 13 14  1  0
  2 15  1  0
 15 16  2  0
 16 17  1  0
 17 18  2  0
 18 19  1  0
 18 20  1  0
 20 21  1  0
 21 22  2  0
 21 23  2  0
 21 24  1  0
 24 25  1  0
 25 26  1  0
 26 27  1  0
 27 28  1  0
 28 29  1  0
 20 30  2  0
  9  4  1  0
 14 10  2  0
 30 15  1  0
 29 24  1  0
  5 31  1  0
  6 32  1  0
  7 33  1  0
  8 34  1  0
 12 35  1  0
 16 36  1  0
 17 37  1  0
 25 38  1  0
 25 39  1  0
 26 40  1  0
 26 41  1  0
 28 42  1  0
 28 43  1  0
 29 44  1  0
 29 45  1  0
 30 46  1  0
M  CHG  1  13  -1
M  END
>  <UniqueID>  (40) 
39

>  <SMILES>  (40) 
O=C(Oc1ccccc1-c1nc[n-]n1)c1ccc(Cl)c(S(=O)(=O)N2CCOCC2)c1

>  <Energy>  (40) 
103.26800544173419

>  <Genealogy>  (40) 
O=C(Oc1ccccc1-c1nc[n-]n1)c1ccc(Cl)c(S(=O)(=O)N2CCOCC2)c1 (protonated)
O=C(Oc1ccccc1-c1nc[n-]n1)c1ccc(Cl)c(S(=O)(=O)N2CCOCC2)c1 (3D coordinates assigned)
O=C(Oc1ccccc1-c1nc[n-]n1)c1ccc(Cl)c(S(=O)(=O)N2CCOCC2)c1 (nonaromatic ring conformer: 103.26800544173419 kcal/mol)

>  <smiles>  (40) 
O=C(Oc1ccccc1-c1nc[nH]n1)c1ccc(Cl)c(S(=O)(=O)N2CCOCC2)c1

>  <score_type>  (40) 
oracle

>  <origin>  (40) 
adgpu

>  <m_score__min__energy>  (40) 
-11.34

>  <m_primary>  (40) 
energy

$$$$
40:0
     RDKit          3D

 49 51  0  0  0  0  0  0  0  0999 V2000
    2.2150   24.7600  -25.3990 C   0  0  0  0  0  0  0  0  0  0  0  0
    2.7480   26.1030  -25.2030 N   0  0  0  0  0  0  0  0  0  0  0  0
    1.4530   27.2600  -25.2480 S   0  0  0  0  0  0  0  0  0  0  0  0
    1.8690   28.4330  -26.0920 O   0  0  0  0  0  0  0  0  0  0  0  0
    1.1640   27.7530  -23.8570 O   0  0  0  0  0  0  0  0  0  0  0  0
    0.0090   26.5320  -25.9490 C   0  0  0  0  0  0  0  0  0  0  0  0
   -1.0780   26.1850  -25.1400 C   0  0  0  0  0  0  0  0  0  0  0  0
   -2.2080   25.5870  -25.7000 C   0  0  0  0  0  0  0  0  0  0  0  0
   -2.2630   25.3140  -27.0750 C   0  0  0  0  0  0  0  0  0  0  0  0
   -3.4230   24.6520  -27.6020 N   0  0  0  0  0  0  0  0  0  0  0  0
   -3.3570   23.4740  -28.4310 C   0  0  0  0  0  0  0  0  0  0  0  0
   -2.6600   22.3400  -27.9790 C   0  0  0  0  0  0  0  0  0  0  0  0
   -2.6350   21.1720  -28.7380 C   0  0  0  0  0  0  0  0  0  0  0  0
   -3.3080   21.1140  -29.9540 C   0  0  0  0  0  0  0  0  0  0  0  0
   -4.0230   22.2240  -30.4290 C   0  0  0  0  0  0  0  0  0  0  0  0
   -4.6330   22.1660  -31.7310 N   0  0  0  0  0  0  0  0  0  0  0  0
   -5.0840   20.9490  -32.3530 C   0  0  0  0  0  0  0  0  0  0  0  0
   -6.4020   20.5170  -32.1460 C   0  0  0  0  0  0  0  0  0  0  0  0
   -6.8580   19.3270  -32.7250 C   0  0  0  0  0  0  0  0  0  0  0  0
   -5.9940   18.5520  -33.5070 C   0  0  0  0  0  0  0  0  0  0  0  0
   -6.4620   17.3270  -34.1020 C   0  0  0  0  0  0  0  0  0  0  0  0
   -6.8380   16.3430  -34.5800 N   0  0  0  0  0  0  0  0  0  0  0  0
   -4.6710   18.9670  -33.7040 C   0  0  0  0  0  0  0  0  0  0  0  0
   -4.2150   20.1560  -33.1250 C   0  0  0  0  0  0  0  0  0  0  0  0
   -4.0450   23.4220  -29.6710 C   0  0  0  0  0  0  0  0  0  0  0  0
   -4.7760   24.6090  -30.1740 C   0  0  0  0  0  0  0  0  0  0  0  0
   -4.0730   25.6680  -30.8200 N   0  0  0  0  0  0  0  0  0  0  0  0
   -6.0260   24.6900  -30.0340 O   0  0  0  0  0  0  0  0  0  0  0  0
   -1.1810   25.6940  -27.9030 C   0  0  0  0  0  0  0  0  0  0  0  0
   -1.2350   25.5330  -29.3260 N   0  0  0  0  0  0  0  0  0  0  0  0
   -0.0460   26.2850  -27.3260 C   0  0  0  0  0  0  0  0  0  0  0  0
    2.0295   24.2927  -24.4206 H   0  0  0  0  0  0  0  0  0  0  0  0
    1.2719   24.8184  -25.9621 H   0  0  0  0  0  0  0  0  0  0  0  0
    2.9415   24.1558  -25.9621 H   0  0  0  0  0  0  0  0  0  0  0  0
   -1.0422   26.3841  -24.0588 H   0  0  0  0  0  0  0  0  0  0  0  0
   -3.0626   25.3276  -25.0578 H   0  0  0  0  0  0  0  0  0  0  0  0
   -4.3510   24.9210  -27.2020 H   0  0  0  0  0  0  0  0  0  0  0  0
   -2.1290   22.3752  -27.0163 H   0  0  0  0  0  0  0  0  0  0  0  0
   -2.0817   20.2934  -28.3748 H   0  0  0  0  0  0  0  0  0  0  0  0
   -3.2794   20.1892  -30.5489 H   0  0  0  0  0  0  0  0  0  0  0  0
   -4.7240   23.0580  -32.2690 H   0  0  0  0  0  0  0  0  0  0  0  0
   -7.0823   21.1175  -31.5242 H   0  0  0  0  0  0  0  0  0  0  0  0
   -7.8963   19.0007  -32.5652 H   0  0  0  0  0  0  0  0  0  0  0  0
   -3.9894   18.3570  -34.3150 H   0  0  0  0  0  0  0  0  0  0  0  0
   -3.1721   20.4726  -33.2739 H   0  0  0  0  0  0  0  0  0  0  0  0
   -3.1190   25.5160  -31.2160 H   0  0  0  0  0  0  0  0  0  0  0  0
   -0.3650   25.3460  -29.8720 H   0  0  0  0  0  0  0  0  0  0  0  0
   -2.1180   25.6790  -29.8630 H   0  0  0  0  0  0  0  0  0  0  0  0
    0.8091   26.5569  -27.9623 H   0  0  0  0  0  0  0  0  0  0  0  0
  1  2  1  0
  2  3  1  0
  3  4  2  0
  3  5  2  0
  3  6  1  0
  6  7  2  0
  7  8  1  0
  8  9  2  0
  9 10  1  0
 10 11  1  0
 11 12  2  0
 12 13  1  0
 13 14  2  0
 14 15  1  0
 15 16  1  0
 16 17  1  0
 17 18  2  0
 18 19  1  0
 19 20  2  0
 20 21  1  0
 21 22  3  0
 20 23  1  0
 23 24  2  0
 15 25  2  0
 25 26  1  0
 26 27  1  0
 26 28  2  0
  9 29  1  0
 29 30  1  0
 29 31  2  0
 31  6  1  0
 25 11  1  0
 24 17  1  0
  1 32  1  0
  1 33  1  0
  1 34  1  0
  7 35  1  0
  8 36  1  0
 10 37  1  0
 12 38  1  0
 13 39  1  0
 14 40  1  0
 16 41  1  0
 18 42  1  0
 19 43  1  0
 23 44  1  0
 24 45  1  0
 27 46  1  0
 30 47  1  0
 30 48  1  0
 31 49  1  0
M  CHG  2   2  -1  27  -1
M  END
>  <UniqueID>  (41) 
40

>  <SMILES>  (41) 
C[N-]S(=O)(=O)c1ccc(Nc2cccc(Nc3ccc(C#N)cc3)c2C([NH-])=O)c(N)c1

>  <Energy>  (41) 
67.88941298753905

>  <Genealogy>  (41) 
C[N-]S(=O)(=O)c1ccc(Nc2cccc(Nc3ccc(C#N)cc3)c2C([NH-])=O)c(N)c1 (protonated)
C[N-]S(=O)(=O)c1ccc(Nc2cccc(Nc3ccc(C#N)cc3)c2C([NH-])=O)c(N)c1 (3D coordinates assigned)
C[N-]S(=O)(=O)c1ccc(Nc2cccc(Nc3ccc(C#N)cc3)c2C([NH-])=O)c(N)c1 (optimized conformer: 67.88941298753905 kcal/mol)

>  <smiles>  (41) 
CNS(=O)(=O)c1ccc(Nc2cccc(Nc3ccc(C#N)cc3)c2C(N)=O)c(N)c1

>  <score_type>  (41) 
oracle

>  <origin>  (41) 
adgpu

>  <m_score__min__energy>  (41) 
-11.380000000000001

>  <m_primary>  (41) 
energy

$$$$
41:0
     RDKit          3D

 55 58  0  0  0  0  0  0  0  0999 V2000
   -0.1000   22.7010  -25.1750 C   0  0  0  0  0  0  0  0  0  0  0  0
   -0.0390   22.6080  -26.5950 O   0  0  0  0  0  0  0  0  0  0  0  0
   -0.9260   23.2510  -27.4740 C   0  0  0  0  0  0  0  0  0  0  0  0
   -2.2140   22.7450  -27.7350 C   0  0  0  0  0  0  0  0  0  0  0  0
   -3.0760   23.4230  -28.6070 C   0  0  0  0  0  0  0  0  0  0  0  0
   -4.3700   22.9530  -28.8550 C   0  0  0  0  0  0  0  0  0  0  0  0
   -5.2390   23.6800  -29.6830 C   0  0  0  0  0  0  0  0  0  0  0  0
   -6.6730   23.2380  -29.8460 C   0  0  0  0  0  0  0  0  0  0  0  0
   -6.9180   22.7470  -31.2140 N   0  0  0  0  0  0  0  0  0  0  0  0
   -8.1850   22.0790  -31.5550 C   0  0  0  0  0  0  0  0  0  0  0  0
   -7.9740   20.6350  -31.9400 C   0  0  0  0  0  0  0  0  0  0  0  0
   -7.1290   20.2970  -33.0100 C   0  0  0  0  0  0  0  0  0  0  0  0
   -6.9690   18.9600  -33.3900 C   0  0  0  0  0  0  0  0  0  0  0  0
   -7.6370   17.9510  -32.6940 C   0  0  0  0  0  0  0  0  0  0  0  0
   -8.4590   18.2730  -31.6110 C   0  0  0  0  0  0  0  0  0  0  0  0
   -8.6240   19.6090  -31.2300 C   0  0  0  0  0  0  0  0  0  0  0  0
   -5.9060   22.8840  -32.2270 C   0  0  0  0  0  0  0  0  0  0  0  0
   -6.0010   23.8070  -33.0790 O   0  0  0  0  0  0  0  0  0  0  0  0
   -4.7750   21.9440  -32.3150 C   0  0  0  0  0  0  0  0  0  0  0  0
   -3.8010   21.9170  -33.2990 C   0  0  0  0  0  0  0  0  0  0  0  0
   -2.9600   20.8990  -32.9040 C   0  0  0  0  0  0  0  0  0  0  0  0
   -1.7710   20.3990  -33.6550 C   0  0  0  0  0  0  0  0  0  0  0  0
   -3.4250   20.3560  -31.7650 N   0  0  0  0  0  0  0  0  0  0  0  0
   -4.5230   20.9930  -31.3920 N   0  0  0  0  0  0  0  0  0  0  0  0
   -4.7600   24.8530  -30.2990 C   0  0  0  0  0  0  0  0  0  0  0  0
   -5.4980   25.5200  -31.0730 O   0  0  0  0  0  0  0  0  0  0  0  0
   -3.4940   25.2830  -30.0560 N   0  0  0  0  0  0  0  0  0  0  0  0
   -2.6510   24.6130  -29.2270 C   0  0  0  0  0  0  0  0  0  0  0  0
   -1.3700   25.1110  -28.9780 C   0  0  0  0  0  0  0  0  0  0  0  0
   -0.5010   24.4350  -28.1000 C   0  0  0  0  0  0  0  0  0  0  0  0
    0.7910   24.9090  -27.8190 O   0  0  0  0  0  0  0  0  0  0  0  0
    1.1430   25.6500  -26.6550 C   0  0  0  0  0  0  0  0  0  0  0  0
    0.4514   21.8604  -24.7285 H   0  0  0  0  0  0  0  0  0  0  0  0
    0.3518   23.6498  -24.8499 H   0  0  0  0  0  0  0  0  0  0  0  0
   -1.1502   22.6646  -24.8499 H   0  0  0  0  0  0  0  0  0  0  0  0
   -2.5447   21.8136  -27.2523 H   0  0  0  0  0  0  0  0  0  0  0  0
   -4.7075   22.0104  -28.3994 H   0  0  0  0  0  0  0  0  0  0  0  0
   -6.8849   22.4304  -29.1298 H   0  0  0  0  0  0  0  0  0  0  0  0
   -7.3306   24.0995  -29.6580 H   0  0  0  0  0  0  0  0  0  0  0  0
   -8.8547   22.1204  -30.6834 H   0  0  0  0  0  0  0  0  0  0  0  0
   -8.6243   22.6012  -32.4178 H   0  0  0  0  0  0  0  0  0  0  0  0
   -6.5900   21.0879  -33.5522 H   0  0  0  0  0  0  0  0  0  0  0  0
   -6.3165   18.7038  -34.2377 H   0  0  0  0  0  0  0  0  0  0  0  0
   -7.5161   16.9010  -32.9986 H   0  0  0  0  0  0  0  0  0  0  0  0
   -8.9767   17.4756  -31.0577 H   0  0  0  0  0  0  0  0  0  0  0  0
   -9.2648   19.8584  -30.3714 H   0  0  0  0  0  0  0  0  0  0  0  0
   -3.7179   22.5586  -34.1886 H   0  0  0  0  0  0  0  0  0  0  0  0
   -0.9979   20.0739  -32.9432 H   0  0  0  0  0  0  0  0  0  0  0  0
   -2.0676   19.5494  -34.2876 H   0  0  0  0  0  0  0  0  0  0  0  0
   -1.3713   21.2052  -34.2876 H   0  0  0  0  0  0  0  0  0  0  0  0
   -3.0030   19.5580  -31.2410 H   0  0  0  0  0  0  0  0  0  0  0  0
   -1.0380   26.0368  -29.4707 H   0  0  0  0  0  0  0  0  0  0  0  0
    0.8699   25.0751  -25.7578 H   0  0  0  0  0  0  0  0  0  0  0  0
    2.2268   25.8383  -26.6540 H   0  0  0  0  0  0  0  0  0  0  0  0
    0.6042   26.6090  -26.6540 H   0  0  0  0  0  0  0  0  0  0  0  0
  1  2  1  0
  2  3  1  0
  3  4  2  0
  4  5  1  0
  5  6  1  0
  6  7  2  0
  7  8  1  0
  8  9  1  0
  9 10  1  0
 10 11  1  0
 11 12  2  0
 12 13  1  0
 13 14  2  0
 14 15  1  0
 15 16  2  0
  9 17  1  0
 17 18  2  0
 17 19  1  0
 19 20  1  0
 20 21  2  0
 21 22  1  0
 21 23  1  0
 23 24  1  0
  7 25  1  0
 25 26  2  0
 25 27  1  0
 27 28  1  0
 28 29  1  0
 29 30  2  0
 30 31  1  0
 31 32  1  0
 30  3  1  0
 28  5  2  0
 16 11  1  0
 24 19  2  0
  1 33  1  0
  1 34  1  0
  1 35  1  0
  4 36  1  0
  6 37  1  0
  8 38  1  0
  8 39  1  0
 10 40  1  0
 10 41  1  0
 12 42  1  0
 13 43  1  0
 14 44  1  0
 15 45  1  0
 16 46  1  0
 20 47  1  0
 22 48  1  0
 22 49  1  0
 22 50  1  0
 23 51  1  0
 29 52  1  0
 32 53  1  0
 32 54  1  0
 32 55  1  0
M  CHG  1  27  -1
M  END
>  <UniqueID>  (42) 
41

>  <SMILES>  (42) 
COc1cc2cc(CN(Cc3ccccc3)C(=O)c3cc(C)[nH]n3)c(=O)[n-]c2cc1OC

>  <Energy>  (42) 
89.21036383074465

>  <Genealogy>  (42) 
COc1cc2cc(CN(Cc3ccccc3)C(=O)c3cc(C)[nH]n3)c(=O)[n-]c2cc1OC (protonated)
COc1cc2cc(CN(Cc3ccccc3)C(=O)c3cc(C)[nH]n3)c(=O)[n-]c2cc1OC (3D coordinates assigned)
COc1cc2cc(CN(Cc3ccccc3)C(=O)c3cc(C)[nH]n3)c(=O)[n-]c2cc1OC (optimized conformer: 89.21036383074465 kcal/mol)

>  <smiles>  (42) 
COc1cc2cc(CN(Cc3ccccc3)C(=O)c3cc(C)[nH]n3)c(=O)[nH]c2cc1OC

>  <score_type>  (42) 
oracle

>  <origin>  (42) 
adgpu

>  <m_score__min__energy>  (42) 
-11.31

>  <m_primary>  (42) 
energy

$$$$
42:0
     RDKit          3D

 39 42  0  0  0  0  0  0  0  0999 V2000
   -9.6200   19.5870  -32.6350 O   0  0  0  0  0  0  0  0  0  0  0  0
   -8.6690   20.3610  -32.3530 C   0  0  0  0  0  0  0  0  0  0  0  0
   -7.3930   20.1390  -32.7660 N   0  0  0  0  0  0  0  0  0  0  0  0
   -6.7540   21.1970  -32.2360 C   0  0  0  0  0  0  0  0  0  0  0  0
   -5.4000   21.5110  -32.3230 C   0  0  0  0  0  0  0  0  0  0  0  0
   -4.9560   22.6770  -31.6720 C   0  0  0  0  0  0  0  0  0  0  0  0
   -5.8670   23.4930  -30.9530 C   0  0  0  0  0  0  0  0  0  0  0  0
   -5.3040   24.9310  -30.1070 S   0  0  0  0  0  0  0  0  0  0  0  0
   -6.4820   25.8210  -29.8290 O   0  0  0  0  0  0  0  0  0  0  0  0
   -4.3050   25.6860  -30.9400 O   0  0  0  0  0  0  0  0  0  0  0  0
   -4.5650   24.4740  -28.6060 N   0  0  0  0  0  0  0  0  0  0  0  0
   -3.4170   23.6220  -28.4750 C   0  0  0  0  0  0  0  0  0  0  0  0
   -3.5250   22.2950  -28.0250 C   0  0  0  0  0  0  0  0  0  0  0  0
   -2.3840   21.4930  -27.8720 C   0  0  0  0  0  0  0  0  0  0  0  0
   -1.1160   22.0100  -28.2280 C   0  0  0  0  0  0  0  0  0  0  0  0
   -1.0140   23.3350  -28.6740 C   0  0  0  0  0  0  0  0  0  0  0  0
   -2.1550   24.1370  -28.8020 C   0  0  0  0  0  0  0  0  0  0  0  0
   -2.0410   25.4510  -29.2540 O   0  0  0  0  0  0  0  0  0  0  0  0
    0.1490   21.2050  -28.0380 C   0  0  0  0  0  0  0  0  0  0  0  0
   -0.1190   19.7010  -27.9190 C   0  0  0  0  0  0  0  0  0  0  0  0
   -1.2490   19.4370  -26.9250 C   0  0  0  0  0  0  0  0  0  0  0  0
   -2.5560   20.0580  -27.4280 C   0  0  0  0  0  0  0  0  0  0  0  0
   -7.2340   23.1450  -30.8960 C   0  0  0  0  0  0  0  0  0  0  0  0
   -7.6320   21.9850  -31.5510 C   0  0  0  0  0  0  0  0  0  0  0  0
   -8.8230   21.4570  -31.6300 O   0  0  0  0  0  0  0  0  0  0  0  0
   -4.7018   20.8699  -32.8812 H   0  0  0  0  0  0  0  0  0  0  0  0
   -3.8936   22.9581  -31.7210 H   0  0  0  0  0  0  0  0  0  0  0  0
   -4.5162   21.8801  -27.7899 H   0  0  0  0  0  0  0  0  0  0  0  0
   -0.0268   23.7495  -28.9263 H   0  0  0  0  0  0  0  0  0  0  0  0
   -2.8520   26.0490  -29.3600 H   0  0  0  0  0  0  0  0  0  0  0  0
    0.8088   21.3776  -28.9010 H   0  0  0  0  0  0  0  0  0  0  0  0
    0.6144   21.5348  -27.0975 H   0  0  0  0  0  0  0  0  0  0  0  0
   -0.4038   19.3047  -28.9048 H   0  0  0  0  0  0  0  0  0  0  0  0
    0.7943   19.2037  -27.5605 H   0  0  0  0  0  0  0  0  0  0  0  0
   -1.3841   18.3515  -26.8092 H   0  0  0  0  0  0  0  0  0  0  0  0
   -0.9871   19.8897  -25.9573 H   0  0  0  0  0  0  0  0  0  0  0  0
   -2.9219   19.4668  -28.2804 H   0  0  0  0  0  0  0  0  0  0  0  0
   -3.2717   20.0509  -26.5927 H   0  0  0  0  0  0  0  0  0  0  0  0
   -7.9585   23.7694  -30.3527 H   0  0  0  0  0  0  0  0  0  0  0  0
  1  2  2  0
  2  3  1  0
  3  4  1  0
  4  5  2  0
  5  6  1  0
  6  7  2  0
  7  8  1  0
  8  9  2  0
  8 10  2  0
  8 11  1  0
 11 12  1  0
 12 13  2  0
 13 14  1  0
 14 15  2  0
 15 16  1  0
 16 17  2  0
 17 18  1  0
 15 19  1  0
 19 20  1  0
 20 21  1  0
 21 22  1  0
  7 23  1  0
 23 24  2  0
 24 25  1  0
 25  2  1  0
 24  4  1  0
 17 12  1  0
 22 14  1  0
  5 26  1  0
  6 27  1  0
 13 28  1  0
 16 29  1  0
 18 30  1  0
 19 31  1  0
 19 32  1  0
 20 33  1  0
 20 34  1  0
 21 35  1  0
 21 36  1  0
 22 37  1  0
 22 38  1  0
 23 39  1  0
M  CHG  2   3  -1  11  -1
M  END
>  <UniqueID>  (43) 
42

>  <SMILES>  (43) 
O=c1[n-]c2ccc(S(=O)(=O)[N-]c3cc4c(cc3O)CCCC4)cc2o1

>  <Energy>  (43) 
82.49175070795975

>  <Genealogy>  (43) 
O=c1[n-]c2ccc(S(=O)(=O)[N-]c3cc4c(cc3O)CCCC4)cc2o1 (protonated)
O=c1[n-]c2ccc(S(=O)(=O)[N-]c3cc4c(cc3O)CCCC4)cc2o1 (3D coordinates assigned)
O=c1[n-]c2ccc(S(=O)(=O)[N-]c3cc4c(cc3O)CCCC4)cc2o1 (nonaromatic ring conformer: 82.49175070795975 kcal/mol)

>  <smiles>  (43) 
O=c1[nH]c2ccc(S(=O)(=O)Nc3cc4c(cc3O)CCCC4)cc2o1

>  <score_type>  (43) 
oracle

>  <origin>  (43) 
adgpu

>  <m_score__min__energy>  (43) 
-11.42

>  <m_primary>  (43) 
energy

$$$$
43:0
     RDKit          3D

 33 35  0  0  0  0  0  0  0  0999 V2000
   -5.2670   26.1190  -29.3770 H   0  0  0  0  0  0  0  0  0  0  0  0
   -5.6680   25.4340  -30.0060 O   0  0  0  0  0  0  0  0  0  0  0  0
   -4.9580   24.3110  -30.4280 C   0  0  0  0  0  0  0  0  0  0  0  0
   -5.6550   23.2380  -30.9970 C   0  0  0  0  0  0  0  0  0  0  0  0
   -6.7484   23.2953  -31.1025 H   0  0  0  0  0  0  0  0  0  0  0  0
   -4.9730   22.0860  -31.4360 C   0  0  0  0  0  0  0  0  0  0  0  0
   -5.6950   20.9380  -32.0450 C   0  0  0  0  0  0  0  0  0  0  0  0
   -5.0350   19.9890  -32.7670 N   0  0  0  0  0  0  0  0  0  0  0  0
   -5.8640   19.0300  -33.2250 C   0  0  0  0  0  0  0  0  0  0  0  0
   -5.4410   18.0310  -33.9410 N   0  0  0  0  0  0  0  0  0  0  0  0
   -6.2810   16.9510  -34.4580 C   0  0  0  0  0  0  0  0  0  0  0  0
   -7.3311   17.1567  -34.2031 H   0  0  0  0  0  0  0  0  0  0  0  0
   -6.1566   16.8979  -35.5497 H   0  0  0  0  0  0  0  0  0  0  0  0
   -5.8770   15.6300  -33.8600 C   0  0  0  0  0  0  0  0  0  0  0  0
   -6.4380   14.4360  -34.3480 C   0  0  0  0  0  0  0  0  0  0  0  0
   -7.1755   14.4709  -35.1634 H   0  0  0  0  0  0  0  0  0  0  0  0
   -6.0630   13.2060  -33.8020 C   0  0  0  0  0  0  0  0  0  0  0  0
   -6.5038   12.2755  -34.1891 H   0  0  0  0  0  0  0  0  0  0  0  0
   -5.1280   13.1570  -32.7640 C   0  0  0  0  0  0  0  0  0  0  0  0
   -4.8330   12.1879  -32.3352 H   0  0  0  0  0  0  0  0  0  0  0  0
   -4.5680   14.3380  -32.2710 C   0  0  0  0  0  0  0  0  0  0  0  0
   -3.8319   14.2972  -31.4546 H   0  0  0  0  0  0  0  0  0  0  0  0
   -4.9410   15.5720  -32.8130 C   0  0  0  0  0  0  0  0  0  0  0  0
   -4.5007   16.4998  -32.4189 H   0  0  0  0  0  0  0  0  0  0  0  0
   -7.4570   19.3070  -32.7570 S   0  0  0  0  0  0  0  0  0  0  0  0
   -7.0730   20.7200  -31.9280 C   0  0  0  0  0  0  0  0  0  0  0  0
   -7.7831   21.3625  -31.3868 H   0  0  0  0  0  0  0  0  0  0  0  0
   -3.5720   22.0390  -31.3000 C   0  0  0  0  0  0  0  0  0  0  0  0
   -3.0206   21.1516  -31.6442 H   0  0  0  0  0  0  0  0  0  0  0  0
   -2.8760   23.1090  -30.7320 C   0  0  0  0  0  0  0  0  0  0  0  0
   -1.7821   23.0577  -30.6287 H   0  0  0  0  0  0  0  0  0  0  0  0
   -3.5630   24.2430  -30.2950 C   0  0  0  0  0  0  0  0  0  0  0  0
   -2.8540   25.2980  -29.7300 O   0  0  0  0  0  0  0  0  0  0  0  0
  1  2  1  0
  2  3  1  0
  3  4  2  0
  4  5  1  0
  4  6  1  0
  6  7  1  0
  7  8  1  0
  8  9  1  0
  9 10  2  0
 10 11  1  0
 11 12  1  0
 11 13  1  0
 11 14  1  0
 14 15  2  0
 15 16  1  0
 15 17  1  0
 17 18  1  0
 17 19  2  0
 19 20  1  0
 19 21  1  0
 21 22  1  0
 21 23  2  0
 23 24  1  0
  9 25  1  0
 25 26  1  0
 26 27  1  0
  6 28  2  0
 28 29  1  0
 28 30  1  0
 30 31  1  0
 30 32  2  0
 32 33  1  0
 32  3  1  0
 26  7  2  0
 23 14  1  0
M  CHG  2   8  -1  33  -1
M  END
>  <UniqueID>  (44) 
43

>  <SMILES>  (44) 
[O-]c1ccc(-c2cs/c(=N\Cc3ccccc3)[n-]2)cc1O

>  <Energy>  (44) 
67.97884824025174

>  <Genealogy>  (44) 
[O-]c1ccc(-c2csc(=NCc3ccccc3)[n-]2)cc1O (protonated)
[O-]c1ccc(-c2cs/c(=N\Cc3ccccc3)[n-]2)cc1O (cis-trans isomerization)
[O-]c1ccc(-c2cs/c(=N\Cc3ccccc3)[n-]2)cc1O (3D coordinates assigned)
[O-]c1ccc(-c2cs/c(=N\Cc3ccccc3)[n-]2)cc1O (optimized conformer: 67.97884824025174 kcal/mol)

>  <smiles>  (44) 
Oc1ccc(-c2csc(=NCc3ccccc3)[nH]2)cc1O

>  <score_type>  (44) 
oracle

>  <origin>  (44) 
adgpu

>  <m_score__min__energy>  (44) 
-9.8399999999999999

>  <m_primary>  (44) 
energy

$$$$
44:0
     RDKit          3D

 61 64  0  0  0  0  0  0  0  0999 V2000
    2.6360   21.4010  -36.0880 C   0  0  0  0  0  0  0  0  0  0  0  0
    0.9110   21.2880  -35.6610 S   0  0  0  0  0  0  0  0  0  0  0  0
    0.4550   22.6350  -35.1550 O   0  0  0  0  0  0  0  0  0  0  0  0
    0.0940   20.9140  -36.8640 O   0  0  0  0  0  0  0  0  0  0  0  0
    0.6920   20.1070  -34.4040 N   0  0  0  0  0  0  0  0  0  0  0  0
   -0.1330   20.2860  -33.2490 C   0  0  0  0  0  0  0  0  0  0  0  0
    0.3850   20.7390  -32.1940 O   0  0  0  0  0  0  0  0  0  0  0  0
   -1.5650   19.9340  -33.2520 C   0  0  0  0  0  0  0  0  0  0  0  0
   -2.0560   18.9940  -34.1740 C   0  0  0  0  0  0  0  0  0  0  0  0
   -3.4250   18.7120  -34.2360 C   0  0  0  0  0  0  0  0  0  0  0  0
   -4.3200   19.3560  -33.3660 C   0  0  0  0  0  0  0  0  0  0  0  0
   -6.0450   18.9620  -33.4520 S   0  0  0  0  0  0  0  0  0  0  0  0
   -6.6810   19.7900  -34.5380 O   0  0  0  0  0  0  0  0  0  0  0  0
   -6.2100   17.5110  -33.8260 O   0  0  0  0  0  0  0  0  0  0  0  0
   -6.7750   19.3080  -31.8890 N   0  0  0  0  0  0  0  0  0  0  0  0
   -7.5820   18.1790  -31.3800 C   0  0  0  0  0  0  0  0  0  0  0  0
   -9.0500   18.2430  -31.8610 C   0  0  0  0  0  0  0  0  0  0  0  0
   -9.1720   19.0530  -33.0130 O   0  0  0  0  0  0  0  0  0  0  0  0
   -8.8900   20.4000  -32.6810 C   0  0  0  0  0  0  0  0  0  0  0  0
   -7.5590   20.5590  -31.9050 C   0  0  0  0  0  0  0  0  0  0  0  0
   -3.8240   20.2830  -32.4170 C   0  0  0  0  0  0  0  0  0  0  0  0
   -4.7280   20.9910  -31.5650 N   0  0  0  0  0  0  0  0  0  0  0  0
   -4.9560   22.4040  -31.6250 C   0  0  0  0  0  0  0  0  0  0  0  0
   -5.3130   22.9510  -32.7070 O   0  0  0  0  0  0  0  0  0  0  0  0
   -4.7250   23.1980  -30.4590 N   0  0  0  0  0  0  0  0  0  0  0  0
   -3.6450   22.9770  -29.5410 C   0  0  0  0  0  0  0  0  0  0  0  0
   -3.4390   21.6860  -29.0420 C   0  0  0  0  0  0  0  0  0  0  0  0
   -2.3850   21.4330  -28.1670 C   0  0  0  0  0  0  0  0  0  0  0  0
   -1.5000   22.4590  -27.7990 C   0  0  0  0  0  0  0  0  0  0  0  0
   -0.2200   22.0540  -26.6530 Cl  0  0  0  0  0  0  0  0  0  0  0  0
   -1.6660   23.7620  -28.3280 C   0  0  0  0  0  0  0  0  0  0  0  0
   -0.5700   25.0900  -27.8660 S   0  0  0  0  0  0  0  0  0  0  0  0
   -0.8790   26.3280  -28.6650 O   0  0  0  0  0  0  0  0  0  0  0  0
    0.8550   24.7110  -28.1510 O   0  0  0  0  0  0  0  0  0  0  0  0
   -0.8280   25.4530  -26.1320 C   0  0  0  0  0  0  0  0  0  0  0  0
   -1.3200   26.8590  -25.8040 C   0  0  0  0  0  0  0  0  0  0  0  0
   -2.2890   25.6790  -25.7610 C   0  0  0  0  0  0  0  0  0  0  0  0
   -2.7570   24.0130  -29.1920 C   0  0  0  0  0  0  0  0  0  0  0  0
   -2.9500   25.2890  -29.7190 O   0  0  0  0  0  0  0  0  0  0  0  0
   -2.4480   20.5550  -32.3580 C   0  0  0  0  0  0  0  0  0  0  0  0
    3.2394   21.4405  -35.1691 H   0  0  0  0  0  0  0  0  0  0  0  0
    2.9258   20.5199  -36.6793 H   0  0  0  0  0  0  0  0  0  0  0  0
    2.8084   22.3124  -36.6793 H   0  0  0  0  0  0  0  0  0  0  0  0
   -1.3600   18.4769  -34.8509 H   0  0  0  0  0  0  0  0  0  0  0  0
   -3.8017   17.9833  -34.9688 H   0  0  0  0  0  0  0  0  0  0  0  0
   -7.1351   17.2376  -31.7323 H   0  0  0  0  0  0  0  0  0  0  0  0
   -7.5851   18.2360  -30.2815 H   0  0  0  0  0  0  0  0  0  0  0  0
   -9.3951   17.2259  -32.0985 H   0  0  0  0  0  0  0  0  0  0  0  0
   -9.6622   18.6809  -31.0589 H   0  0  0  0  0  0  0  0  0  0  0  0
   -8.8277   20.9857  -33.6100 H   0  0  0  0  0  0  0  0  0  0  0  0
   -9.6998   20.7575  -32.0279 H   0  0  0  0  0  0  0  0  0  0  0  0
   -6.9602   21.3472  -32.3848 H   0  0  0  0  0  0  0  0  0  0  0  0
   -7.8016   20.8211  -30.8646 H   0  0  0  0  0  0  0  0  0  0  0  0
   -4.1113   20.8685  -29.3416 H   0  0  0  0  0  0  0  0  0  0  0  0
   -2.2448   20.4204  -27.7608 H   0  0  0  0  0  0  0  0  0  0  0  0
   -0.0043   24.8246  -25.7624 H   0  0  0  0  0  0  0  0  0  0  0  0
   -1.0063   27.3478  -24.8698 H   0  0  0  0  0  0  0  0  0  0  0  0
   -1.2993   27.8308  -26.3190 H   0  0  0  0  0  0  0  0  0  0  0  0
   -2.6736   25.3180  -24.7957 H   0  0  0  0  0  0  0  0  0  0  0  0
   -3.2559   25.4488  -26.2323 H   0  0  0  0  0  0  0  0  0  0  0  0
   -2.0609   21.2589  -31.6065 H   0  0  0  0  0  0  0  0  0  0  0  0
  1  2  1  0
  2  3  2  0
  2  4  2  0
  2  5  1  0
  5  6  1  0
  6  7  2  0
  6  8  1  0
  8  9  2  0
  9 10  1  0
 10 11  2  0
 11 12  1  0
 12 13  2  0
 12 14  2  0
 12 15  1  0
 15 16  1  0
 16 17  1  0
 17 18  1  0
 18 19  1  0
 19 20  1  0
 11 21  1  0
 21 22  1  0
 22 23  1  0
 23 24  2  0
 23 25  1  0
 25 26  1  0
 26 27  2  0
 27 28  1  0
 28 29  2  0
 29 30  1  0
 29 31  1  0
 31 32  1  0
 32 33  2  0
 32 34  2  0
 32 35  1  0
 35 36  1  0
 36 37  1  0
 31 38  2  0
 38 39  1  0
 21 40  2  0
 40  8  1  0
 20 15  1  0
 38 26  1  0
 37 35  1  0
  1 41  1  0
  1 42  1  0
  1 43  1  0
  9 44  1  0
 10 45  1  0
 16 46  1  0
 16 47  1  0
 17 48  1  0
 17 49  1  0
 19 50  1  0
 19 51  1  0
 20 52  1  0
 20 53  1  0
 27 54  1  0
 28 55  1  0
 35 56  1  0
 36 57  1  0
 36 58  1  0
 37 59  1  0
 37 60  1  0
 40 61  1  0
M  CHG  4   5  -1  22  -1  25  -1  39  -1
M  END
>  <UniqueID>  (45) 
44

>  <SMILES>  (45) 
CS(=O)(=O)[N-]C(=O)c1ccc(S(=O)(=O)N2CCOCC2)c([N-]C(=O)[N-]c2ccc(Cl)c(S(=O)(=O)C3CC3)c2[O-])c1

>  <Energy>  (45) 
357.3565472424752

>  <Genealogy>  (45) 
CS(=O)(=O)[N-]C(=O)c1ccc(S(=O)(=O)N2CCOCC2)c([N-]C(=O)[N-]c2ccc(Cl)c(S(=O)(=O)C3CC3)c2[O-])c1 (protonated)
CS(=O)(=O)[N-]C(=O)c1ccc(S(=O)(=O)N2CCOCC2)c([N-]C(=O)[N-]c2ccc(Cl)c(S(=O)(=O)C3CC3)c2[O-])c1 (3D coordinates assigned)
CS(=O)(=O)[N-]C(=O)c1ccc(S(=O)(=O)N2CCOCC2)c([N-]C(=O)[N-]c2ccc(Cl)c(S(=O)(=O)C3CC3)c2[O-])c1 (nonaromatic ring conformer: 357.3565472424752 kcal/mol)

>  <smiles>  (45) 
CS(=O)(=O)NC(=O)c1ccc(S(=O)(=O)N2CCOCC2)c(NC(=O)Nc2ccc(Cl)c(S(=O)(=O)C3CC3)c2O)c1

>  <score_type>  (45) 
oracle

>  <origin>  (45) 
adgpu

>  <m_score__min__energy>  (45) 
-16.949999999999999

>  <m_primary>  (45) 
energy

$$$$
45:0
     RDKit          3D

 62 65  0  0  0  0  0  0  0  0999 V2000
   -1.6090   21.5090  -26.5920 C   0  0  0  0  0  0  0  0  0  0  0  0
   -2.1720   22.4260  -27.6460 C   0  0  0  0  0  0  0  0  0  0  0  0
   -3.3440   22.0360  -28.3130 C   0  0  0  0  0  0  0  0  0  0  0  0
   -3.9010   22.8380  -29.3060 C   0  0  0  0  0  0  0  0  0  0  0  0
   -3.3150   24.0660  -29.6330 C   0  0  0  0  0  0  0  0  0  0  0  0
   -3.8560   24.8930  -30.6770 N   0  0  0  0  0  0  0  0  0  0  0  0
   -5.2360   25.2480  -30.8490 C   0  0  0  0  0  0  0  0  0  0  0  0
   -5.7410   26.1180  -30.0930 O   0  0  0  0  0  0  0  0  0  0  0  0
   -6.0640   24.6250  -31.8430 N   0  0  0  0  0  0  0  0  0  0  0  0
   -6.5500   23.2760  -31.7970 C   0  0  0  0  0  0  0  0  0  0  0  0
   -7.8430   23.0520  -31.3140 C   0  0  0  0  0  0  0  0  0  0  0  0
   -8.3690   21.7630  -31.2840 C   0  0  0  0  0  0  0  0  0  0  0  0
   -7.6170   20.6880  -31.7590 C   0  0  0  0  0  0  0  0  0  0  0  0
   -6.3160   20.8880  -32.2510 C   0  0  0  0  0  0  0  0  0  0  0  0
   -5.4300   19.5190  -32.9500 S   0  0  0  0  0  0  0  0  0  0  0  0
   -5.8790   18.2420  -32.2930 O   0  0  0  0  0  0  0  0  0  0  0  0
   -5.7200   19.4490  -34.4240 O   0  0  0  0  0  0  0  0  0  0  0  0
   -3.6550   19.6540  -32.7030 C   0  0  1  0  0  0  0  0  0  0  0  0
   -2.9860   20.4510  -33.8380 C   0  0  0  0  0  0  0  0  0  0  0  0
   -1.5950   20.8740  -33.3740 C   0  0  0  0  0  0  0  0  0  0  0  0
   -1.7320   21.0710  -31.6210 S   0  0  0  0  0  0  0  0  0  0  0  0
   -0.6630   20.3030  -30.8960 O   0  0  0  0  0  0  0  0  0  0  0  0
   -1.7130   22.5200  -31.2210 O   0  0  0  0  0  0  0  0  0  0  0  0
   -3.3270   20.3510  -31.3780 C   0  0  0  0  0  0  0  0  0  0  0  0
   -5.7500   22.1830  -32.1920 C   0  0  0  0  0  0  0  0  0  0  0  0
   -4.4010   22.4080  -32.4780 O   0  0  0  0  0  0  0  0  0  0  0  0
   -2.1460   24.4750  -28.9750 C   0  0  0  0  0  0  0  0  0  0  0  0
   -1.5680   25.6870  -29.3360 O   0  0  0  0  0  0  0  0  0  0  0  0
   -1.5670   23.6710  -27.9660 C   0  0  0  0  0  0  0  0  0  0  0  0
   -0.0580   24.1870  -27.1700 S   0  0  0  0  0  0  0  0  0  0  0  0
    0.4710   25.4170  -27.8540 O   0  0  0  0  0  0  0  0  0  0  0  0
    0.9930   23.1170  -27.2810 O   0  0  0  0  0  0  0  0  0  0  0  0
   -0.4000   24.5390  -25.4870 N   0  0  0  0  0  0  0  0  0  0  0  0
    0.7260   25.2340  -24.8240 C   0  0  0  0  0  0  0  0  0  0  0  0
    0.5230   26.7590  -24.7470 C   0  0  0  0  0  0  0  0  0  0  0  0
   -0.2150   27.2140  -25.8600 O   0  0  0  0  0  0  0  0  0  0  0  0
   -1.5530   26.7480  -25.7880 C   0  0  0  0  0  0  0  0  0  0  0  0
   -1.6710   25.2720  -25.3320 C   0  0  0  0  0  0  0  0  0  0  0  0
   -1.8517   21.9042  -25.5945 H   0  0  0  0  0  0  0  0  0  0  0  0
   -2.0475   20.5066  -26.7059 H   0  0  0  0  0  0  0  0  0  0  0  0
   -0.5167   21.4465  -26.7059 H   0  0  0  0  0  0  0  0  0  0  0  0
   -3.8286   21.0848  -28.0479 H   0  0  0  0  0  0  0  0  0  0  0  0
   -4.8056   22.5047  -29.8357 H   0  0  0  0  0  0  0  0  0  0  0  0
   -8.4477   23.8983  -30.9559 H   0  0  0  0  0  0  0  0  0  0  0  0
   -9.3797   21.5919  -30.8849 H   0  0  0  0  0  0  0  0  0  0  0  0
   -8.0462   19.6753  -31.7483 H   0  0  0  0  0  0  0  0  0  0  0  0
   -3.2661   18.6251  -32.6915 H   0  0  0  0  0  0  0  0  0  0  0  0
   -2.9026   19.8206  -34.7356 H   0  0  0  0  0  0  0  0  0  0  0  0
   -3.5887   21.3379  -34.0835 H   0  0  0  0  0  0  0  0  0  0  0  0
   -0.8542   20.0985  -33.6185 H   0  0  0  0  0  0  0  0  0  0  0  0
   -1.2601   21.7985  -33.8671 H   0  0  0  0  0  0  0  0  0  0  0  0
   -3.3006   19.6224  -30.5543 H   0  0  0  0  0  0  0  0  0  0  0  0
   -4.0829   21.1036  -31.1094 H   0  0  0  0  0  0  0  0  0  0  0  0
   -3.8160   23.0350  -31.9420 H   0  0  0  0  0  0  0  0  0  0  0  0
    0.8289   24.8409  -23.8018 H   0  0  0  0  0  0  0  0  0  0  0  0
    1.6291   25.0497  -25.4244 H   0  0  0  0  0  0  0  0  0  0  0  0
   -0.0232   27.0058  -23.8246 H   0  0  0  0  0  0  0  0  0  0  0  0
    1.5072   27.2503  -24.7466 H   0  0  0  0  0  0  0  0  0  0  0  0
   -2.1029   27.3780  -25.0733 H   0  0  0  0  0  0  0  0  0  0  0  0
   -1.9705   26.8065  -26.8040 H   0  0  0  0  0  0  0  0  0  0  0  0
   -1.9655   25.2508  -24.2724 H   0  0  0  0  0  0  0  0  0  0  0  0
   -2.4241   24.7812  -25.9660 H   0  0  0  0  0  0  0  0  0  0  0  0
  1  2  1  0
  2  3  2  0
  3  4  1  0
  4  5  2  0
  5  6  1  0
  6  7  1  0
  7  8  2  0
  7  9  1  0
  9 10  1  0
 10 11  2  0
 11 12  1  0
 12 13  2  0
 13 14  1  0
 14 15  1  0
 15 16  2  0
 15 17  2  0
 15 18  1  0
 18 19  1  0
 19 20  1  0
 20 21  1  0
 21 22  2  0
 21 23  2  0
 21 24  1  0
 14 25  2  0
 25 26  1  0
  5 27  1  0
 27 28  1  0
 27 29  2  0
 29 30  1  0
 30 31  2  0
 30 32  2  0
 30 33  1  0
 33 34  1  0
 34 35  1  0
 35 36  1  0
 36 37  1  0
 37 38  1  0
 29  2  1  0
 38 33  1  0
 25 10  1  0
 24 18  1  0
  1 39  1  0
  1 40  1  0
  1 41  1  0
  3 42  1  0
  4 43  1  0
 11 44  1  0
 12 45  1  0
 13 46  1  0
 18 47  1  1
 19 48  1  0
 19 49  1  0
 20 50  1  0
 20 51  1  0
 24 52  1  0
 24 53  1  0
 26 54  1  0
 34 55  1  0
 34 56  1  0
 35 57  1  0
 35 58  1  0
 37 59  1  0
 37 60  1  0
 38 61  1  0
 38 62  1  0
M  CHG  3   6  -1   9  -1  28  -1
M  END
>  <UniqueID>  (46) 
45

>  <SMILES>  (46) 
Cc1ccc([N-]C(=O)[N-]c2cccc(S(=O)(=O)[C@H]3CCS(=O)(=O)C3)c2O)c([O-])c1S(=O)(=O)N1CCOCC1

>  <Energy>  (46) 
81.8377245299732

>  <Genealogy>  (46) 
Cc1ccc([N-]C(=O)[N-]c2cccc(S(=O)(=O)C3CCS(=O)(=O)C3)c2O)c([O-])c1S(=O)(=O)N1CCOCC1 (protonated)
Cc1ccc([N-]C(=O)[N-]c2cccc(S(=O)(=O)[C@H]3CCS(=O)(=O)C3)c2O)c([O-])c1S(=O)(=O)N1CCOCC1 (chirality)
Cc1ccc([N-]C(=O)[N-]c2cccc(S(=O)(=O)[C@H]3CCS(=O)(=O)C3)c2O)c([O-])c1S(=O)(=O)N1CCOCC1 (3D coordinates assigned)
Cc1ccc([N-]C(=O)[N-]c2cccc(S(=O)(=O)[C@H]3CCS(=O)(=O)C3)c2O)c([O-])c1S(=O)(=O)N1CCOCC1 (nonaromatic ring conformer: 81.8377245299732 kcal/mol)

>  <smiles>  (46) 
Cc1ccc(NC(=O)Nc2cccc(S(=O)(=O)C3CCS(=O)(=O)C3)c2O)c(O)c1S(=O)(=O)N1CCOCC1

>  <score_type>  (46) 
oracle

>  <origin>  (46) 
adgpu

>  <m_score__min__energy>  (46) 
-16.609999999999999

>  <m_primary>  (46) 
energy

$$$$
46:0
     RDKit          3D

 49 52  0  0  0  0  0  0  0  0999 V2000
   -9.0295   18.9993  -32.4905 H   0  0  0  0  0  0  0  0  0  0  0  0
   -8.6380   19.9830  -32.1920 C   0  0  0  0  0  0  0  0  0  0  0  0
   -7.2630   20.1650  -32.0220 C   0  0  0  0  0  0  0  0  0  0  0  0
   -6.5736   19.3232  -32.1835 H   0  0  0  0  0  0  0  0  0  0  0  0
   -6.7620   21.4150  -31.6470 C   0  0  0  0  0  0  0  0  0  0  0  0
   -5.6796   21.5524  -31.5072 H   0  0  0  0  0  0  0  0  0  0  0  0
   -7.6370   22.4970  -31.4480 C   0  0  0  0  0  0  0  0  0  0  0  0
   -7.1000   23.8380  -31.0120 C   0  0  0  0  0  0  0  0  0  0  0  0
   -7.0121   23.8435  -29.9155 H   0  0  0  0  0  0  0  0  0  0  0  0
   -7.8000   24.6098  -31.3648 H   0  0  0  0  0  0  0  0  0  0  0  0
   -5.7440   24.1390  -31.6090 C   0  0  0  0  0  0  0  0  0  0  0  0
   -5.4990   23.8010  -32.7990 O   0  0  0  0  0  0  0  0  0  0  0  0
   -4.7040   24.8010  -30.8690 N   0  0  0  0  0  0  0  0  0  0  0  0
   -3.9590   24.3160  -29.9180 C   0  0  0  0  0  0  0  0  0  0  0  0
   -4.0130   23.0520  -29.4560 N   0  0  0  0  0  0  0  0  0  0  0  0
   -3.0930   22.9730  -28.5070 N   0  0  0  0  0  0  0  0  0  0  0  0
   -2.5150   24.1900  -28.4300 C   0  0  0  0  0  0  0  0  0  0  0  0
   -1.4300   24.5420  -27.4950 C   0  0  0  0  0  0  0  0  0  0  0  0
   -0.6340   25.6750  -27.7320 C   0  0  0  0  0  0  0  0  0  0  0  0
   -0.8201   26.2986  -28.6188 H   0  0  0  0  0  0  0  0  0  0  0  0
    0.3930   26.0140  -26.8470 C   0  0  0  0  0  0  0  0  0  0  0  0
    1.0082   26.9055  -27.0385 H   0  0  0  0  0  0  0  0  0  0  0  0
    0.6430   25.2250  -25.7180 C   0  0  0  0  0  0  0  0  0  0  0  0
    1.9310   25.6770  -24.6040 S   0  0  0  0  0  0  0  0  0  0  0  0
    2.9900   26.4160  -25.3750 O   0  0  0  0  0  0  0  0  0  0  0  0
    2.5480   24.4450  -24.0020 O   0  0  0  0  0  0  0  0  0  0  0  0
    1.2900   26.7090  -23.3430 N   0  0  0  0  0  0  0  0  0  0  0  0
    1.7660   26.4630  -22.4430 H   0  0  0  0  0  0  0  0  0  0  0  0
   -0.1620   26.5420  -23.2120 C   0  0  0  0  0  0  0  0  0  0  0  0
   -0.4570   25.5408  -23.5594 H   0  0  0  0  0  0  0  0  0  0  0  0
   -0.4690   26.6471  -22.1609 H   0  0  0  0  0  0  0  0  0  0  0  0
   -0.8290   27.6070  -24.0720 C   0  0  0  0  0  0  0  0  0  0  0  0
   -1.2015   27.1662  -25.0085 H   0  0  0  0  0  0  0  0  0  0  0  0
   -1.6930   28.0586  -23.5625 H   0  0  0  0  0  0  0  0  0  0  0  0
    0.2520   28.6350  -24.3630 C   0  0  0  0  0  0  0  0  0  0  0  0
    0.4264   28.7123  -25.4463 H   0  0  0  0  0  0  0  0  0  0  0  0
   -0.0343   29.6368  -24.0104 H   0  0  0  0  0  0  0  0  0  0  0  0
    1.5020   28.1270  -23.6590 C   0  0  0  0  0  0  0  0  0  0  0  0
    2.3750   28.2375  -24.3191 H   0  0  0  0  0  0  0  0  0  0  0  0
    1.6885   28.7031  -22.7407 H   0  0  0  0  0  0  0  0  0  0  0  0
   -0.1510   24.0960  -25.4750 C   0  0  0  0  0  0  0  0  0  0  0  0
    0.0361   23.4757  -24.5861 H   0  0  0  0  0  0  0  0  0  0  0  0
   -1.1800   23.7550  -26.3580 C   0  0  0  0  0  0  0  0  0  0  0  0
   -1.7972   22.8659  -26.1616 H   0  0  0  0  0  0  0  0  0  0  0  0
   -3.0450   25.0200  -29.2990 O   0  0  0  0  0  0  0  0  0  0  0  0
   -9.0190   22.3030  -31.6070 C   0  0  0  0  0  0  0  0  0  0  0  0
   -9.7131   23.1389  -31.4354 H   0  0  0  0  0  0  0  0  0  0  0  0
   -9.5160   21.0500  -31.9830 C   0  0  0  0  0  0  0  0  0  0  0  0
  -10.5985   20.9048  -32.1141 H   0  0  0  0  0  0  0  0  0  0  0  0
  1  2  1  0
  2  3  2  0
  3  4  1  0
  3  5  1  0
  5  6  1  0
  5  7  2  0
  7  8  1  0
  8  9  1  0
  8 10  1  0
  8 11  1  0
 11 12  2  0
 11 13  1  0
 13 14  2  0
 14 15  1  0
 15 16  1  0
 16 17  2  0
 17 18  1  0
 18 19  2  0
 19 20  1  0
 19 21  1  0
 21 22  1  0
 21 23  2  0
 23 24  1  0
 24 25  2  0
 24 26  2  0
 24 27  1  0
 27 28  1  0
 27 29  1  0
 29 30  1  0
 29 31  1  0
 29 32  1  0
 32 33  1  0
 32 34  1  0
 32 35  1  0
 35 36  1  0
 35 37  1  0
 35 38  1  0
 38 39  1  0
 38 40  1  0
 23 41  1  0
 41 42  1  0
 41 43  2  0
 43 44  1  0
 17 45  1  0
  7 46  1  0
 46 47  1  0
 46 48  2  0
 48 49  1  0
 48  2  1  0
 45 14  1  0
 43 18  1  0
 38 27  1  0
M  CHG  2  15  -1  27   1
M  END
>  <UniqueID>  (47) 
46

>  <SMILES>  (47) 
O=C(Cc1ccccc1)/N=c1\[n-]nc(-c2ccc(S(=O)(=O)[NH+]3CCCC3)cc2)o1

>  <Energy>  (47) 
92.71304075843263

>  <Genealogy>  (47) 
O=C(Cc1ccccc1)N=c1[n-]nc(-c2ccc(S(=O)(=O)[NH+]3CCCC3)cc2)o1 (protonated)
O=C(Cc1ccccc1)/N=c1\[n-]nc(-c2ccc(S(=O)(=O)[NH+]3CCCC3)cc2)o1 (cis-trans isomerization)
O=C(Cc1ccccc1)/N=c1\[n-]nc(-c2ccc(S(=O)(=O)[NH+]3CCCC3)cc2)o1 (3D coordinates assigned)
O=C(Cc1ccccc1)/N=c1\[n-]nc(-c2ccc(S(=O)(=O)[NH+]3CCCC3)cc2)o1 (nonaromatic ring conformer: 92.71304075843263 kcal/mol)

>  <smiles>  (47) 
O=C(Cc1ccccc1)N=c1[nH]nc(-c2ccc(S(=O)(=O)N3CCCC3)cc2)o1

>  <score_type>  (47) 
oracle

>  <origin>  (47) 
adgpu

>  <m_score__min__energy>  (47) 
-11.24

>  <m_primary>  (47) 
energy

$$$$
47:0
     RDKit          3D

 38 41  0  0  0  0  0  0  0  0999 V2000
   -8.6560   22.0100  -30.1950 O   0  0  0  0  0  0  0  0  0  0  0  0
   -8.4650   22.0570  -31.6850 S   0  0  0  0  0  0  0  0  0  0  0  0
   -9.7820   22.3740  -32.3360 O   0  0  0  0  0  0  0  0  0  0  0  0
   -7.3260   23.3040  -32.0750 N   0  0  0  0  0  0  0  0  0  0  0  0
   -6.0860   23.5360  -31.3900 C   0  0  0  0  0  0  0  0  0  0  0  0
   -5.7430   24.8480  -31.0600 C   0  0  0  0  0  0  0  0  0  0  0  0
   -4.5540   25.1240  -30.3830 C   0  0  0  0  0  0  0  0  0  0  0  0
   -3.6790   24.0830  -30.0230 C   0  0  0  0  0  0  0  0  0  0  0  0
   -2.4790   24.3570  -29.3390 C   0  0  0  0  0  0  0  0  0  0  0  0
   -2.1480   25.6710  -29.0140 O   0  0  0  0  0  0  0  0  0  0  0  0
   -1.6130   23.3060  -28.9810 C   0  0  0  0  0  0  0  0  0  0  0  0
   -0.4120   23.5650  -28.2950 C   0  0  0  0  0  0  0  0  0  0  0  0
    0.4440   22.5190  -27.9460 C   0  0  0  0  0  0  0  0  0  0  0  0
    0.1130   21.2040  -28.2730 C   0  0  0  0  0  0  0  0  0  0  0  0
   -1.0740   20.9270  -28.9530 C   0  0  0  0  0  0  0  0  0  0  0  0
   -1.9490   21.9690  -29.3140 C   0  0  0  0  0  0  0  0  0  0  0  0
   -3.1470   21.6970  -30.0000 C   0  0  0  0  0  0  0  0  0  0  0  0
   -3.4780   20.3810  -30.3250 O   0  0  0  0  0  0  0  0  0  0  0  0
   -4.0150   22.7480  -30.3570 C   0  0  0  0  0  0  0  0  0  0  0  0
   -5.2170   22.4880  -31.0420 C   0  0  0  0  0  0  0  0  0  0  0  0
   -7.8570   20.4960  -32.2300 C   0  0  0  0  0  0  0  0  0  0  0  0
   -8.4260   19.3140  -31.7340 C   0  0  0  0  0  0  0  0  0  0  0  0
   -7.9320   18.0720  -32.1450 C   0  0  0  0  0  0  0  0  0  0  0  0
   -6.8690   18.0050  -33.0510 C   0  0  0  0  0  0  0  0  0  0  0  0
   -6.3040   19.1810  -33.5520 C   0  0  0  0  0  0  0  0  0  0  0  0
   -6.7960   20.4250  -33.1450 C   0  0  0  0  0  0  0  0  0  0  0  0
   -6.4164   25.6728  -31.3362 H   0  0  0  0  0  0  0  0  0  0  0  0
   -4.2992   26.1635  -30.1290 H   0  0  0  0  0  0  0  0  0  0  0  0
   -0.1457   24.5993  -28.0318 H   0  0  0  0  0  0  0  0  0  0  0  0
    1.3817   22.7322  -27.4119 H   0  0  0  0  0  0  0  0  0  0  0  0
    0.7896   20.3827  -27.9941 H   0  0  0  0  0  0  0  0  0  0  0  0
   -1.3275   19.8875  -29.2085 H   0  0  0  0  0  0  0  0  0  0  0  0
   -5.4788   21.4532  -31.3077 H   0  0  0  0  0  0  0  0  0  0  0  0
   -9.2619   19.3640  -31.0208 H   0  0  0  0  0  0  0  0  0  0  0  0
   -8.3803   17.1463  -31.7550 H   0  0  0  0  0  0  0  0  0  0  0  0
   -6.4778   17.0274  -33.3692 H   0  0  0  0  0  0  0  0  0  0  0  0
   -5.4706   19.1279  -34.2679 H   0  0  0  0  0  0  0  0  0  0  0  0
   -6.3507   21.3489  -33.5427 H   0  0  0  0  0  0  0  0  0  0  0  0
  1  2  2  0
  2  3  2  0
  2  4  1  0
  4  5  1  0
  5  6  2  0
  6  7  1  0
  7  8  2  0
  8  9  1  0
  9 10  1  0
  9 11  2  0
 11 12  1  0
 12 13  2  0
 13 14  1  0
 14 15  2  0
 15 16  1  0
 16 17  2  0
 17 18  1  0
 17 19  1  0
 19 20  2  0
  2 21  1  0
 21 22  2  0
 22 23  1  0
 23 24  2  0
 24 25  1  0
 25 26  2  0
 20  5  1  0
 26 21  1  0
 19  8  1  0
 16 11  1  0
  6 27  1  0
  7 28  1  0
 12 29  1  0
 13 30  1  0
 14 31  1  0
 15 32  1  0
 20 33  1  0
 22 34  1  0
 23 35  1  0
 24 36  1  0
 25 37  1  0
 26 38  1  0
M  CHG  3   4  -1  10  -1  18  -1
M  END
>  <UniqueID>  (48) 
47

>  <SMILES>  (48) 
O=S(=O)([N-]c1ccc2c([O-])c3ccccc3c([O-])c2c1)c1ccccc1

>  <Energy>  (48) 
56.07739018036009

>  <Genealogy>  (48) 
O=S(=O)([N-]c1ccc2c([O-])c3ccccc3c([O-])c2c1)c1ccccc1 (protonated)
O=S(=O)([N-]c1ccc2c([O-])c3ccccc3c([O-])c2c1)c1ccccc1 (3D coordinates assigned)
O=S(=O)([N-]c1ccc2c([O-])c3ccccc3c([O-])c2c1)c1ccccc1 (optimized conformer: 56.07739018036009 kcal/mol)

>  <smiles>  (48) 
O=S(=O)(Nc1ccc2c(O)c3ccccc3c(O)c2c1)c1ccccc1

>  <score_type>  (48) 
oracle

>  <origin>  (48) 
adgpu

>  <m_score__min__energy>  (48) 
-12.029999999999999

>  <m_primary>  (48) 
energy

$$$$
48:0
     RDKit          3D

 62 65  0  0  0  0  0  0  0  0999 V2000
   -4.1630   21.0820  -33.4830 C   0  0  0  0  0  0  0  0  0  0  0  0
   -4.8040   19.7360  -33.3380 C   0  0  0  0  0  0  0  0  0  0  0  0
   -6.1640   19.4860  -33.2860 C   0  0  0  0  0  0  0  0  0  0  0  0
   -7.2230   20.4440  -33.3570 N   0  0  0  0  0  0  0  0  0  0  0  0
   -7.7310   21.3600  -31.9750 S   0  0  0  0  0  0  0  0  0  0  0  0
   -8.0270   20.4110  -30.8410 O   0  0  0  0  0  0  0  0  0  0  0  0
   -8.9900   22.1150  -32.3210 O   0  0  0  0  0  0  0  0  0  0  0  0
   -6.4970   22.5210  -31.4830 C   0  0  0  0  0  0  0  0  0  0  0  0
   -6.6790   23.8860  -31.7380 C   0  0  0  0  0  0  0  0  0  0  0  0
   -5.6870   24.8050  -31.3910 C   0  0  0  0  0  0  0  0  0  0  0  0
   -4.4980   24.3680  -30.7950 C   0  0  0  0  0  0  0  0  0  0  0  0
   -3.5200   25.2990  -30.4690 O   0  0  0  0  0  0  0  0  0  0  0  0
   -4.3030   22.9970  -30.5390 C   0  0  0  0  0  0  0  0  0  0  0  0
   -2.8030   22.3940  -29.8160 S   0  0  0  0  0  0  0  0  0  0  0  0
   -3.0010   20.9660  -29.3920 O   0  0  0  0  0  0  0  0  0  0  0  0
   -1.7050   22.4190  -30.8410 O   0  0  0  0  0  0  0  0  0  0  0  0
   -2.3290   23.3370  -28.4250 N   0  0  0  0  0  0  0  0  0  0  0  0
   -1.3760   24.3890  -28.8140 C   0  0  0  0  0  0  0  0  0  0  0  0
   -0.7820   25.0710  -27.5640 C   0  0  0  0  0  0  0  0  0  0  0  0
   -1.6450   24.8460  -26.3000 C   0  0  0  0  0  0  0  0  0  0  0  0
   -1.2880   25.8570  -25.2020 C   0  0  0  0  0  0  0  0  0  0  0  0
   -3.1420   24.9170  -26.6510 C   0  0  0  0  0  0  0  0  0  0  0  0
   -3.5190   23.9250  -27.7780 C   0  0  0  0  0  0  0  0  0  0  0  0
   -5.3150   22.0850  -30.8750 C   0  0  0  0  0  0  0  0  0  0  0  0
   -6.2750   18.1150  -33.2570 C   0  0  0  0  0  0  0  0  0  0  0  0
   -7.3480   17.4560  -33.2820 O   0  0  0  0  0  0  0  0  0  0  0  0
   -5.0440   17.5680  -33.2500 N   0  0  0  0  0  0  0  0  0  0  0  0
   -4.7550   16.1600  -33.2150 C   0  0  0  0  0  0  0  0  0  0  0  0
   -4.9310   15.4330  -32.0270 C   0  0  0  0  0  0  0  0  0  0  0  0
   -4.6090   14.0730  -31.9810 C   0  0  0  0  0  0  0  0  0  0  0  0
   -4.1010   13.4350  -33.1160 C   0  0  0  0  0  0  0  0  0  0  0  0
   -3.9110   14.1560  -34.2970 C   0  0  0  0  0  0  0  0  0  0  0  0
   -4.2300   15.5160  -34.3470 C   0  0  0  0  0  0  0  0  0  0  0  0
   -4.1460   18.5490  -33.3030 N   0  0  0  0  0  0  0  0  0  0  0  0
   -2.7100   18.3550  -33.5160 C   0  0  0  0  0  0  0  0  0  0  0  0
   -3.9629   21.5021  -32.4863 H   0  0  0  0  0  0  0  0  0  0  0  0
   -3.2168   20.9800  -34.0346 H   0  0  0  0  0  0  0  0  0  0  0  0
   -4.8386   21.7523  -34.0346 H   0  0  0  0  0  0  0  0  0  0  0  0
   -7.5220   20.7950  -34.2960 H   0  0  0  0  0  0  0  0  0  0  0  0
   -7.6073   24.2354  -32.2136 H   0  0  0  0  0  0  0  0  0  0  0  0
   -5.8402   25.8766  -31.5866 H   0  0  0  0  0  0  0  0  0  0  0  0
   -0.5621   23.9402  -29.4024 H   0  0  0  0  0  0  0  0  0  0  0  0
   -1.9058   25.1445  -29.4128 H   0  0  0  0  0  0  0  0  0  0  0  0
    0.2227   24.6616  -27.3826 H   0  0  0  0  0  0  0  0  0  0  0  0
   -0.7488   26.1533  -27.7577 H   0  0  0  0  0  0  0  0  0  0  0  0
   -1.4297   23.8402  -25.9101 H   0  0  0  0  0  0  0  0  0  0  0  0
   -1.4498   25.3989  -24.2151 H   0  0  0  0  0  0  0  0  0  0  0  0
   -0.2323   26.1493  -25.3019 H   0  0  0  0  0  0  0  0  0  0  0  0
   -1.9261   26.7474  -25.3019 H   0  0  0  0  0  0  0  0  0  0  0  0
   -3.7295   24.6750  -25.7531 H   0  0  0  0  0  0  0  0  0  0  0  0
   -3.3607   25.9349  -27.0060 H   0  0  0  0  0  0  0  0  0  0  0  0
   -4.1254   23.1142  -27.3480 H   0  0  0  0  0  0  0  0  0  0  0  0
   -4.0794   24.4813  -28.5438 H   0  0  0  0  0  0  0  0  0  0  0  0
   -5.1774   21.0154  -30.6579 H   0  0  0  0  0  0  0  0  0  0  0  0
   -5.3232   15.9345  -31.1300 H   0  0  0  0  0  0  0  0  0  0  0  0
   -4.7557   13.5048  -31.0506 H   0  0  0  0  0  0  0  0  0  0  0  0
   -3.8507   12.3645  -33.0792 H   0  0  0  0  0  0  0  0  0  0  0  0
   -3.5097   13.6529  -35.1891 H   0  0  0  0  0  0  0  0  0  0  0  0
   -4.0693   16.0833  -35.2756 H   0  0  0  0  0  0  0  0  0  0  0  0
   -2.2010   18.2862  -32.5433 H   0  0  0  0  0  0  0  0  0  0  0  0
   -2.5455   17.4265  -34.0824 H   0  0  0  0  0  0  0  0  0  0  0  0
   -2.3050   19.2066  -34.0824 H   0  0  0  0  0  0  0  0  0  0  0  0
  1  2  1  0
  2  3  2  0
  3  4  1  0
  4  5  1  0
  5  6  2  0
  5  7  2  0
  5  8  1  0
  8  9  2  0
  9 10  1  0
 10 11  2  0
 11 12  1  0
 11 13  1  0
 13 14  1  0
 14 15  2  0
 14 16  2  0
 14 17  1  0
 17 18  1  0
 18 19  1  0
 19 20  1  0
 20 21  1  0
 20 22  1  0
 22 23  1  0
 13 24  2  0
  3 25  1  0
 25 26  2  0
 25 27  1  0
 27 28  1  0
 28 29  2  0
 29 30  1  0
 30 31  2  0
 31 32  1  0
 32 33  2  0
 27 34  1  0
 34 35  1  0
 34  2  1  0
 24  8  1  0
 33 28  1  0
 23 17  1  0
  1 36  1  0
  1 37  1  0
  1 38  1  0
  4 39  1  0
  9 40  1  0
 10 41  1  0
 18 42  1  0
 18 43  1  0
 19 44  1  0
 19 45  1  0
 20 46  1  0
 21 47  1  0
 21 48  1  0
 21 49  1  0
 22 50  1  0
 22 51  1  0
 23 52  1  0
 23 53  1  0
 24 54  1  0
 29 55  1  0
 30 56  1  0
 31 57  1  0
 32 58  1  0
 33 59  1  0
 35 60  1  0
 35 61  1  0
 35 62  1  0
M  CHG  1  12  -1
M  END
>  <UniqueID>  (49) 
48

>  <SMILES>  (49) 
Cc1c(NS(=O)(=O)c2ccc([O-])c(S(=O)(=O)N3CCC(C)CC3)c2)c(=O)n(-c2ccccc2)n1C

>  <Energy>  (49) 
113.94921450679209

>  <Genealogy>  (49) 
Cc1c(NS(=O)(=O)c2ccc([O-])c(S(=O)(=O)N3CCC(C)CC3)c2)c(=O)n(-c2ccccc2)n1C (protonated)
Cc1c(NS(=O)(=O)c2ccc([O-])c(S(=O)(=O)N3CCC(C)CC3)c2)c(=O)n(-c2ccccc2)n1C (3D coordinates assigned)
Cc1c(NS(=O)(=O)c2ccc([O-])c(S(=O)(=O)N3CCC(C)CC3)c2)c(=O)n(-c2ccccc2)n1C (nonaromatic ring conformer: 113.94921450679209 kcal/mol)

>  <smiles>  (49) 
Cc1c(NS(=O)(=O)c2ccc(O)c(S(=O)(=O)N3CCC(C)CC3)c2)c(=O)n(-c2ccccc2)n1C

>  <score_type>  (49) 
oracle

>  <origin>  (49) 
adgpu

>  <m_score__min__energy>  (49) 
-13.390000000000001

>  <m_primary>  (49) 
energy

$$$$
