0:0
     RDKit          3D

 46 48  0  0  0  0  0  0  0  0999 V2000
   -2.7780   20.5460  -27.3910 C   0  0  0  0  0  0  0  0  0  0  0  0
   -2.4960   21.9360  -27.8800 C   0  0  0  0  0  0  0  0  0  0  0  0
   -1.3560   22.6190  -27.4350 C   0  0  0  0  0  0  0  0  0  0  0  0
   -1.0730   23.8990  -27.9130 C   0  0  0  0  0  0  0  0  0  0  0  0
   -1.9090   24.5030  -28.8570 C   0  0  0  0  0  0  0  0  0  0  0  0
   -1.5920   25.7730  -29.3260 O   0  0  0  0  0  0  0  0  0  0  0  0
   -3.0470   23.8200  -29.3330 C   0  0  0  0  0  0  0  0  0  0  0  0
   -3.9460   24.4410  -30.3380 C   0  0  0  0  0  0  0  0  0  0  0  0
   -4.5150   25.5320  -30.0700 O   0  0  0  0  0  0  0  0  0  0  0  0
   -4.2420   23.8040  -31.5890 N   0  0  0  0  0  0  0  0  0  0  0  0
   -5.0750   22.6500  -31.7770 C   0  0  0  0  0  0  0  0  0  0  0  0
   -6.4120   22.8360  -32.1490 C   0  0  0  0  0  0  0  0  0  0  0  0
   -7.2500   21.7350  -32.3460 C   0  0  0  0  0  0  0  0  0  0  0  0
   -6.7550   20.4320  -32.1890 C   0  0  0  0  0  0  0  0  0  0  0  0
   -7.8090   19.0400  -32.4510 S   0  0  0  0  0  0  0  0  0  0  0  0
   -9.1160   19.5110  -33.0270 O   0  0  0  0  0  0  0  0  0  0  0  0
   -8.0940   18.3820  -31.1300 O   0  0  0  0  0  0  0  0  0  0  0  0
   -7.0800   17.8760  -33.5330 N   0  0  0  0  0  0  0  0  0  0  0  0
   -6.1160   18.5440  -34.4340 C   0  0  0  0  0  0  0  0  0  0  0  0
   -5.1620   17.5350  -35.0820 C   0  0  0  0  0  0  0  0  0  0  0  0
   -4.3170   16.8110  -34.0190 C   0  0  0  0  0  0  0  0  0  0  0  0
   -5.0070   16.7590  -32.6460 C   0  0  0  0  0  0  0  0  0  0  0  0
   -6.5350   16.7100  -32.7940 C   0  0  0  0  0  0  0  0  0  0  0  0
   -5.4120   20.2450  -31.8350 C   0  0  0  0  0  0  0  0  0  0  0  0
   -4.5730   21.3450  -31.6410 C   0  0  0  0  0  0  0  0  0  0  0  0
   -3.3340   22.5370  -28.8320 C   0  0  0  0  0  0  0  0  0  0  0  0
   -2.7797   20.5376  -26.2910 H   0  0  0  0  0  0  0  0  0  0  0  0
   -3.7607   20.2192  -27.7617 H   0  0  0  0  0  0  0  0  0  0  0  0
   -2.0003   19.8621  -27.7617 H   0  0  0  0  0  0  0  0  0  0  0  0
   -0.6821   22.1445  -26.7065 H   0  0  0  0  0  0  0  0  0  0  0  0
   -0.1866   24.4363  -27.5448 H   0  0  0  0  0  0  0  0  0  0  0  0
   -6.8049   23.8541  -32.2869 H   0  0  0  0  0  0  0  0  0  0  0  0
   -8.3024   21.8910  -32.6254 H   0  0  0  0  0  0  0  0  0  0  0  0
   -6.6710   19.0701  -35.2247 H   0  0  0  0  0  0  0  0  0  0  0  0
   -5.5191   19.2506  -33.8386 H   0  0  0  0  0  0  0  0  0  0  0  0
   -5.7501   16.7921  -35.6408 H   0  0  0  0  0  0  0  0  0  0  0  0
   -4.4843   18.0782  -35.7570 H   0  0  0  0  0  0  0  0  0  0  0  0
   -4.1313   15.7814  -34.3586 H   0  0  0  0  0  0  0  0  0  0  0  0
   -3.3804   17.3752  -33.8987 H   0  0  0  0  0  0  0  0  0  0  0  0
   -4.6695   15.8605  -32.1086 H   0  0  0  0  0  0  0  0  0  0  0  0
   -4.7401   17.6682  -32.0873 H   0  0  0  0  0  0  0  0  0  0  0  0
   -6.8061   15.7923  -33.3366 H   0  0  0  0  0  0  0  0  0  0  0  0
   -6.9660   16.7289  -31.7821 H   0  0  0  0  0  0  0  0  0  0  0  0
   -5.0163   19.2264  -31.7092 H   0  0  0  0  0  0  0  0  0  0  0  0
   -3.5157   21.1888  -31.3809 H   0  0  0  0  0  0  0  0  0  0  0  0
   -4.2244   21.9994  -29.1901 H   0  0  0  0  0  0  0  0  0  0  0  0
  1  2  1  0
  2  3  2  0
  3  4  1  0
  4  5  2  0
  5  6  1  0
  5  7  1  0
  7  8  1  0
  8  9  2  0
  8 10  1  0
 10 11  1  0
 11 12  2  0
 12 13  1  0
 13 14  2  0
 14 15  1  0
 15 16  2  0
 15 17  2  0
 15 18  1  0
 18 19  1  0
 19 20  1  0
 20 21  1  0
 21 22  1  0
 22 23  1  0
 14 24  1  0
 24 25  2  0
  7 26  2  0
 26  2  1  0
 25 11  1  0
 23 18  1  0
  1 27  1  0
  1 28  1  0
  1 29  1  0
  3 30  1  0
  4 31  1  0
 12 32  1  0
 13 33  1  0
 19 34  1  0
 19 35  1  0
 20 36  1  0
 20 37  1  0
 21 38  1  0
 21 39  1  0
 22 40  1  0
 22 41  1  0
 23 42  1  0
 23 43  1  0
 24 44  1  0
 25 45  1  0
 26 46  1  0
M  CHG  2   6  -1  10  -1
M  END
>  <UniqueID>  (1) 
1

>  <SMILES>  (1) 
Cc1ccc([O-])c(C(=O)[N-]c2ccc(S(=O)(=O)N3CCCCC3)cc2)c1

>  <Energy>  (1) 
58.73253645092976

>  <Genealogy>  (1) 
Cc1ccc([O-])c(C(=O)[N-]c2ccc(S(=O)(=O)N3CCCCC3)cc2)c1 (protonated)
Cc1ccc([O-])c(C(=O)[N-]c2ccc(S(=O)(=O)N3CCCCC3)cc2)c1 (3D coordinates assigned)
Cc1ccc([O-])c(C(=O)[N-]c2ccc(S(=O)(=O)N3CCCCC3)cc2)c1 (nonaromatic ring conformer: 58.73253645092976 kcal/mol)

>  <smiles>  (1) 
Cc1ccc(O)c(C(=O)Nc2ccc(S(=O)(=O)N3CCCCC3)cc2)c1

>  <score_type>  (1) 
oracle

>  <origin>  (1) 
adgpu

>  <m_score__min__energy>  (1) 
-13.630000000000001

>  <m_primary>  (1) 
energy

$$$$
1:0
     RDKit          3D

 63 65  0  0  0  0  0  0  0  0999 V2000
   -7.1520   22.5560  -30.1230 C   0  0  0  0  0  0  0  0  0  0  0  0
   -7.2850   22.8850  -31.6270 C   0  0  0  0  0  0  0  0  0  0  0  0
   -8.7720   23.1630  -31.9410 C   0  0  0  0  0  0  0  0  0  0  0  0
   -6.7830   21.6600  -32.4390 C   0  0  0  0  0  0  0  0  0  0  0  0
   -5.5520   21.9260  -33.0570 O   0  0  0  0  0  0  0  0  0  0  0  0
   -6.4300   24.1450  -31.9240 C   0  0  0  0  0  0  0  0  0  0  0  0
   -5.0170   23.9090  -31.6480 N   0  0  0  0  0  0  0  0  0  0  0  0
   -4.3290   24.4610  -30.5210 C   0  0  0  0  0  0  0  0  0  0  0  0
   -4.5170   25.6700  -30.2260 O   0  0  0  0  0  0  0  0  0  0  0  0
   -3.4260   23.6470  -29.6810 C   0  0  0  0  0  0  0  0  0  0  0  0
   -3.6850   22.2800  -29.5020 C   0  0  0  0  0  0  0  0  0  0  0  0
   -2.7930   21.4780  -28.7800 C   0  0  0  0  0  0  0  0  0  0  0  0
   -1.6120   22.0320  -28.2540 C   0  0  0  0  0  0  0  0  0  0  0  0
   -0.6300   21.2410  -27.5720 N   0  0  0  0  0  0  0  0  0  0  0  0
   -0.0630   19.6760  -28.0600 S   0  0  0  0  0  0  0  0  0  0  0  0
    1.3050   19.4410  -27.4820 O   0  0  0  0  0  0  0  0  0  0  0  0
   -1.0040   18.6010  -27.5890 O   0  0  0  0  0  0  0  0  0  0  0  0
   -0.0140   19.6240  -29.8200 C   0  0  0  0  0  0  0  0  0  0  0  0
    1.1940   19.3300  -30.4640 C   0  0  0  0  0  0  0  0  0  0  0  0
    1.2690   19.3360  -31.8580 C   0  0  0  0  0  0  0  0  0  0  0  0
    0.1380   19.6460  -32.6190 C   0  0  0  0  0  0  0  0  0  0  0  0
   -1.0790   19.9360  -31.9870 C   0  0  0  0  0  0  0  0  0  0  0  0
   -2.4940   20.3670  -32.9510 S   0  0  0  0  0  0  0  0  0  0  0  0
   -2.0990   20.4440  -34.3980 O   0  0  0  0  0  0  0  0  0  0  0  0
   -2.9880   21.7240  -32.5310 O   0  0  0  0  0  0  0  0  0  0  0  0
   -3.7910   19.2120  -32.7460 N   0  0  0  0  0  0  0  0  0  0  0  0
   -4.6350   19.5900  -31.5980 C   0  0  0  0  0  0  0  0  0  0  0  0
   -5.8360   18.6310  -31.4270 C   0  0  0  0  0  0  0  0  0  0  0  0
   -5.8190   17.4920  -32.4510 C   0  0  0  0  0  0  0  0  0  0  0  0
   -5.6770   18.0430  -33.8770 C   0  0  0  0  0  0  0  0  0  0  0  0
   -4.5950   19.1360  -33.9790 C   0  0  0  0  0  0  0  0  0  0  0  0
   -1.1530   19.9160  -30.5850 C   0  0  0  0  0  0  0  0  0  0  0  0
   -1.3670   23.3990  -28.4150 C   0  0  0  0  0  0  0  0  0  0  0  0
   -2.2540   24.2040  -29.1360 C   0  0  0  0  0  0  0  0  0  0  0  0
   -1.9370   25.5450  -29.3390 O   0  0  0  0  0  0  0  0  0  0  0  0
   -7.4987   23.4137  -29.5280 H   0  0  0  0  0  0  0  0  0  0  0  0
   -7.7640   21.6734  -29.8852 H   0  0  0  0  0  0  0  0  0  0  0  0
   -6.0986   22.3466  -29.8852 H   0  0  0  0  0  0  0  0  0  0  0  0
   -9.3321   23.2677  -31.0001 H   0  0  0  0  0  0  0  0  0  0  0  0
   -8.8563   24.0925  -32.5232 H   0  0  0  0  0  0  0  0  0  0  0  0
   -9.1864   22.3268  -32.5232 H   0  0  0  0  0  0  0  0  0  0  0  0
   -6.6645   20.8037  -31.7587 H   0  0  0  0  0  0  0  0  0  0  0  0
   -7.5227   21.4366  -33.2219 H   0  0  0  0  0  0  0  0  0  0  0  0
   -5.0200   22.4460  -32.3950 H   0  0  0  0  0  0  0  0  0  0  0  0
   -6.5470   24.4148  -32.9840 H   0  0  0  0  0  0  0  0  0  0  0  0
   -6.7778   24.9599  -31.2721 H   0  0  0  0  0  0  0  0  0  0  0  0
   -4.5948   21.8353  -29.9317 H   0  0  0  0  0  0  0  0  0  0  0  0
   -3.0163   20.4123  -28.6238 H   0  0  0  0  0  0  0  0  0  0  0  0
    2.0882   19.0932  -29.8687 H   0  0  0  0  0  0  0  0  0  0  0  0
    2.2190   19.0966  -32.3581 H   0  0  0  0  0  0  0  0  0  0  0  0
    0.2034   19.6624  -33.7169 H   0  0  0  0  0  0  0  0  0  0  0  0
   -4.0247   19.5627  -30.6832 H   0  0  0  0  0  0  0  0  0  0  0  0
   -5.0283   20.6008  -31.7813 H   0  0  0  0  0  0  0  0  0  0  0  0
   -5.8027   18.1987  -30.4161 H   0  0  0  0  0  0  0  0  0  0  0  0
   -6.7566   19.2122  -31.5845 H   0  0  0  0  0  0  0  0  0  0  0  0
   -4.9705   16.8260  -32.2356 H   0  0  0  0  0  0  0  0  0  0  0  0
   -6.7674   16.9393  -32.3794 H   0  0  0  0  0  0  0  0  0  0  0  0
   -5.4082   17.2157  -34.5503 H   0  0  0  0  0  0  0  0  0  0  0  0
   -6.6390   18.4957  -34.1592 H   0  0  0  0  0  0  0  0  0  0  0  0
   -3.9315   18.9052  -34.8255 H   0  0  0  0  0  0  0  0  0  0  0  0
   -5.0940   20.1050  -34.1278 H   0  0  0  0  0  0  0  0  0  0  0  0
   -2.1086   20.1303  -30.0842 H   0  0  0  0  0  0  0  0  0  0  0  0
   -0.4662   23.8462  -27.9694 H   0  0  0  0  0  0  0  0  0  0  0  0
  1  2  1  0
  2  3  1  0
  2  4  1  0
  4  5  1  0
  2  6  1  0
  6  7  1  0
  7  8  1  0
  8  9  2  0
  8 10  1  0
 10 11  2  0
 11 12  1  0
 12 13  2  0
 13 14  1  0
 14 15  1  0
 15 16  2  0
 15 17  2  0
 15 18  1  0
 18 19  2  0
 19 20  1  0
 20 21  2  0
 21 22  1  0
 22 23  1  0
 23 24  2  0
 23 25  2  0
 23 26  1  0
 26 27  1  0
 27 28  1  0
 28 29  1  0
 29 30  1  0
 30 31  1  0
 22 32  2  0
 13 33  1  0
 33 34  2  0
 34 35  1  0
 34 10  1  0
 32 18  1  0
 31 26  1  0
  1 36  1  0
  1 37  1  0
  1 38  1  0
  3 39  1  0
  3 40  1  0
  3 41  1  0
  4 42  1  0
  4 43  1  0
  5 44  1  0
  6 45  1  0
  6 46  1  0
 11 47  1  0
 12 48  1  0
 19 49  1  0
 20 50  1  0
 21 51  1  0
 27 52  1  0
 27 53  1  0
 28 54  1  0
 28 55  1  0
 29 56  1  0
 29 57  1  0
 30 58  1  0
 30 59  1  0
 31 60  1  0
 31 61  1  0
 32 62  1  0
 33 63  1  0
M  CHG  3   7  -1  14  -1  35  -1
M  END
>  <UniqueID>  (2) 
2

>  <SMILES>  (2) 
CC(C)(CO)C[N-]C(=O)c1ccc([N-]S(=O)(=O)c2cccc(S(=O)(=O)N3CCCCC3)c2)cc1[O-]

>  <Energy>  (2) 
73.40819149962351

>  <Genealogy>  (2) 
CC(C)(CO)C[N-]C(=O)c1ccc([N-]S(=O)(=O)c2cccc(S(=O)(=O)N3CCCCC3)c2)cc1[O-] (protonated)
CC(C)(CO)C[N-]C(=O)c1ccc([N-]S(=O)(=O)c2cccc(S(=O)(=O)N3CCCCC3)c2)cc1[O-] (3D coordinates assigned)
CC(C)(CO)C[N-]C(=O)c1ccc([N-]S(=O)(=O)c2cccc(S(=O)(=O)N3CCCCC3)c2)cc1[O-] (nonaromatic ring conformer: 73.40819149962351 kcal/mol)

>  <smiles>  (2) 
CC(C)(CO)CNC(=O)c1ccc(NS(=O)(=O)c2cccc(S(=O)(=O)N3CCCCC3)c2)cc1O

>  <score_type>  (2) 
oracle

>  <origin>  (2) 
adgpu

>  <m_score__min__energy>  (2) 
-13.880000000000001

>  <m_primary>  (2) 
energy

$$$$
2:0
     RDKit          3D

 44 46  0  0  0  0  0  0  0  0999 V2000
   -1.6380   25.4100  -27.7260 C   0  0  0  0  0  0  0  0  0  0  0  0
   -1.6820   24.2310  -28.6580 C   0  0  0  0  0  0  0  0  0  0  0  0
   -0.7940   23.1590  -28.4750 C   0  0  0  0  0  0  0  0  0  0  0  0
   -0.8250   22.0580  -29.3340 C   0  0  0  0  0  0  0  0  0  0  0  0
   -1.7410   22.0150  -30.3900 C   0  0  0  0  0  0  0  0  0  0  0  0
   -1.7570   20.6440  -31.4940 S   0  0  0  0  0  0  0  0  0  0  0  0
   -1.5540   21.1940  -33.1210 N   0  0  0  0  0  0  0  0  0  0  0  0
   -3.0690   19.9180  -31.3910 O   0  0  0  0  0  0  0  0  0  0  0  0
   -0.6380   19.7060  -31.1410 O   0  0  0  0  0  0  0  0  0  0  0  0
   -2.6260   23.0830  -30.5840 C   0  0  0  0  0  0  0  0  0  0  0  0
   -2.6220   24.1850  -29.7090 C   0  0  0  0  0  0  0  0  0  0  0  0
   -3.5160   25.2920  -29.9050 N   0  0  0  0  0  0  0  0  0  0  0  0
   -4.8830   25.2090  -30.3200 C   0  0  0  0  0  0  0  0  0  0  0  0
   -5.7980   25.7240  -29.6210 O   0  0  0  0  0  0  0  0  0  0  0  0
   -5.1910   24.6140  -31.5850 N   0  0  0  0  0  0  0  0  0  0  0  0
   -5.9860   23.4330  -31.7670 C   0  0  0  0  0  0  0  0  0  0  0  0
   -7.3180   23.4670  -31.3580 C   0  0  0  0  0  0  0  0  0  0  0  0
   -8.1180   22.3350  -31.4720 C   0  0  0  0  0  0  0  0  0  0  0  0
   -7.6170   21.1640  -32.0440 C   0  0  0  0  0  0  0  0  0  0  0  0
   -8.6960   19.7720  -32.0500 Cl  0  0  0  0  0  0  0  0  0  0  0  0
   -6.2930   21.1300  -32.5540 C   0  0  0  0  0  0  0  0  0  0  0  0
   -5.6690   19.6950  -33.4120 S   0  0  0  0  0  0  0  0  0  0  0  0
   -6.4560   19.4100  -34.6610 O   0  0  0  0  0  0  0  0  0  0  0  0
   -4.2480   19.9410  -33.8340 O   0  0  0  0  0  0  0  0  0  0  0  0
   -5.7260   18.2960  -32.2920 C   0  0  0  0  0  0  0  0  0  0  0  0
   -5.0980   17.0180  -32.8240 C   0  0  0  0  0  0  0  0  0  0  0  0
   -6.6130   17.1520  -32.7540 C   0  0  0  0  0  0  0  0  0  0  0  0
   -5.4660   22.2730  -32.3780 C   0  0  0  0  0  0  0  0  0  0  0  0
   -4.1340   22.2960  -32.8070 O   0  0  0  0  0  0  0  0  0  0  0  0
   -1.6512   25.0551  -26.6849 H   0  0  0  0  0  0  0  0  0  0  0  0
   -0.7178   25.9852  -27.9056 H   0  0  0  0  0  0  0  0  0  0  0  0
   -2.5128   26.0522  -27.9056 H   0  0  0  0  0  0  0  0  0  0  0  0
   -0.0683   23.1864  -27.6488 H   0  0  0  0  0  0  0  0  0  0  0  0
   -0.1268   21.2222  -29.1794 H   0  0  0  0  0  0  0  0  0  0  0  0
   -2.4910   21.1430  -33.5790 H   0  0  0  0  0  0  0  0  0  0  0  0
   -3.3308   23.0601  -31.4282 H   0  0  0  0  0  0  0  0  0  0  0  0
   -7.7390   24.3945  -30.9426 H   0  0  0  0  0  0  0  0  0  0  0  0
   -9.1556   22.3625  -31.1079 H   0  0  0  0  0  0  0  0  0  0  0  0
   -5.6257   18.8839  -31.3677 H   0  0  0  0  0  0  0  0  0  0  0  0
   -4.5900   17.0193  -33.7997 H   0  0  0  0  0  0  0  0  0  0  0  0
   -4.3622   16.2949  -32.4422 H   0  0  0  0  0  0  0  0  0  0  0  0
   -7.1999   17.2500  -33.6792 H   0  0  0  0  0  0  0  0  0  0  0  0
   -7.4258   16.5657  -32.3006 H   0  0  0  0  0  0  0  0  0  0  0  0
   -3.5370   21.4830  -32.8500 H   0  0  0  0  0  0  0  0  0  0  0  0
  1  2  1  0
  2  3  2  0
  3  4  1  0
  4  5  2  0
  5  6  1  0
  6  7  1  0
  6  8  2  0
  6  9  2  0
  5 10  1  0
 10 11  2  0
 11 12  1  0
 12 13  1  0
 13 14  2  0
 13 15  1  0
 15 16  1  0
 16 17  2  0
 17 18  1  0
 18 19  2  0
 19 20  1  0
 19 21  1  0
 21 22  1  0
 22 23  2  0
 22 24  2  0
 22 25  1  0
 25 26  1  0
 26 27  1  0
 21 28  2  0
 28 29  1  0
 11  2  1  0
 28 16  1  0
 27 25  1  0
  1 30  1  0
  1 31  1  0
  1 32  1  0
  3 33  1  0
  4 34  1  0
  7 35  1  0
 10 36  1  0
 17 37  1  0
 18 38  1  0
 25 39  1  0
 26 40  1  0
 26 41  1  0
 27 42  1  0
 27 43  1  0
 29 44  1  0
M  CHG  3   7  -1  12  -1  15  -1
M  END
>  <UniqueID>  (3) 
3

>  <SMILES>  (3) 
Cc1ccc(S([NH-])(=O)=O)cc1[N-]C(=O)[N-]c1ccc(Cl)c(S(=O)(=O)C2CC2)c1O

>  <Energy>  (3) 
323.27531839066097

>  <Genealogy>  (3) 
Cc1ccc(S([NH-])(=O)=O)cc1[N-]C(=O)[N-]c1ccc(Cl)c(S(=O)(=O)C2CC2)c1O (protonated)
Cc1ccc(S([NH-])(=O)=O)cc1[N-]C(=O)[N-]c1ccc(Cl)c(S(=O)(=O)C2CC2)c1O (3D coordinates assigned)
Cc1ccc(S([NH-])(=O)=O)cc1[N-]C(=O)[N-]c1ccc(Cl)c(S(=O)(=O)C2CC2)c1O (nonaromatic ring conformer: 323.27531839066097 kcal/mol)

>  <smiles>  (3) 
Cc1ccc(S(N)(=O)=O)cc1NC(=O)Nc1ccc(Cl)c(S(=O)(=O)C2CC2)c1O

>  <score_type>  (3) 
oracle

>  <origin>  (3) 
adgpu

>  <m_score__min__energy>  (3) 
-12.06

>  <m_primary>  (3) 
energy

$$$$
3:0
     RDKit          3D

 61 64  0  0  0  0  0  0  0  0999 V2000
   -1.3420   13.9010  -32.1500 C   0  0  0  0  0  0  0  0  0  0  0  0
   -2.0260   15.0680  -32.7740 C   0  0  0  0  0  0  0  0  0  0  0  0
   -3.2650   15.0440  -33.3900 C   0  0  0  0  0  0  0  0  0  0  0  0
   -3.4930   16.3590  -33.7450 C   0  0  0  0  0  0  0  0  0  0  0  0
   -4.6690   16.8440  -34.4910 C   0  0  0  0  0  0  0  0  0  0  0  0
   -4.5920   17.0370  -35.7350 O   0  0  0  0  0  0  0  0  0  0  0  0
   -5.9150   17.0200  -33.8060 N   0  0  0  0  0  0  0  0  0  0  0  0
   -6.4450   18.2520  -33.2960 C   0  0  0  0  0  0  0  0  0  0  0  0
   -7.0170   18.2580  -32.0190 C   0  0  0  0  0  0  0  0  0  0  0  0
   -7.5290   19.4400  -31.4750 C   0  0  0  0  0  0  0  0  0  0  0  0
   -7.4590   20.6390  -32.1990 C   0  0  0  0  0  0  0  0  0  0  0  0
   -8.0880   22.1360  -31.5060 S   0  0  0  0  0  0  0  0  0  0  0  0
   -8.2670   21.9600  -30.0230 O   0  0  0  0  0  0  0  0  0  0  0  0
   -9.4360   22.4280  -32.1040 O   0  0  0  0  0  0  0  0  0  0  0  0
   -7.0160   23.4860  -31.8080 N   0  0  0  0  0  0  0  0  0  0  0  0
   -6.9190   24.3410  -30.6070 C   0  0  0  0  0  0  0  0  0  0  0  0
   -5.6890   25.2590  -30.6830 C   0  0  0  0  0  0  0  0  0  0  0  0
   -4.4190   24.4950  -30.7830 N   0  0  0  0  0  0  0  0  0  0  0  0
   -3.6950   24.4900  -29.5040 C   0  0  0  0  0  0  0  0  0  0  0  0
   -4.5940   23.1100  -31.2770 C   0  0  0  0  0  0  0  0  0  0  0  0
   -5.7050   23.0370  -32.3330 C   0  0  0  0  0  0  0  0  0  0  0  0
   -6.8710   20.6410  -33.4700 C   0  0  0  0  0  0  0  0  0  0  0  0
   -6.3560   19.4590  -34.0120 C   0  0  0  0  0  0  0  0  0  0  0  0
   -2.4410   17.1060  -33.3360 N   0  0  0  0  0  0  0  0  0  0  0  0
   -2.3070   18.5340  -33.3970 C   0  0  0  0  0  0  0  0  0  0  0  0
   -3.2060   19.3360  -32.6760 C   0  0  0  0  0  0  0  0  0  0  0  0
   -3.0710   20.7250  -32.6710 C   0  0  0  0  0  0  0  0  0  0  0  0
   -2.0290   21.3270  -33.3750 C   0  0  0  0  0  0  0  0  0  0  0  0
   -1.1260   20.5440  -34.0950 C   0  0  0  0  0  0  0  0  0  0  0  0
   -1.2570   19.1440  -34.1240 C   0  0  0  0  0  0  0  0  0  0  0  0
   -0.1230   18.1780  -35.0870 S   0  0  0  0  0  0  0  0  0  0  0  0
    1.2110   17.5370  -34.0940 C   0  0  0  0  0  0  0  0  0  0  0  0
   -0.8580   17.0250  -35.7140 O   0  0  0  0  0  0  0  0  0  0  0  0
    0.4810   19.0340  -36.1630 O   0  0  0  0  0  0  0  0  0  0  0  0
   -1.5530   16.3280  -32.7340 N   0  0  0  0  0  0  0  0  0  0  0  0
   -1.3933   13.9885  -31.0547 H   0  0  0  0  0  0  0  0  0  0  0  0
   -1.8387   12.9722  -32.4673 H   0  0  0  0  0  0  0  0  0  0  0  0
   -0.2889   13.8805  -32.4673 H   0  0  0  0  0  0  0  0  0  0  0  0
   -3.9190   14.1757  -33.5584 H   0  0  0  0  0  0  0  0  0  0  0  0
   -7.0643   17.3250  -31.4382 H   0  0  0  0  0  0  0  0  0  0  0  0
   -7.9883   19.4293  -30.4756 H   0  0  0  0  0  0  0  0  0  0  0  0
   -7.8255   24.9595  -30.5315 H   0  0  0  0  0  0  0  0  0  0  0  0
   -6.8195   23.6939  -29.7230 H   0  0  0  0  0  0  0  0  0  0  0  0
   -5.7839   25.9045  -31.5686 H   0  0  0  0  0  0  0  0  0  0  0  0
   -5.6533   25.8502  -29.7561 H   0  0  0  0  0  0  0  0  0  0  0  0
   -4.4169   24.4950  -28.6740 H   0  0  0  0  0  0  0  0  0  0  0  0
   -3.0693   23.5875  -29.4404 H   0  0  0  0  0  0  0  0  0  0  0  0
   -3.0569   25.3838  -29.4404 H   0  0  0  0  0  0  0  0  0  0  0  0
   -3.6498   22.7660  -31.7244 H   0  0  0  0  0  0  0  0  0  0  0  0
   -4.8755   22.4691  -30.4285 H   0  0  0  0  0  0  0  0  0  0  0  0
   -5.4269   23.6778  -33.1828 H   0  0  0  0  0  0  0  0  0  0  0  0
   -5.8089   21.9850  -32.6373 H   0  0  0  0  0  0  0  0  0  0  0  0
   -6.8139   21.5770  -34.0450 H   0  0  0  0  0  0  0  0  0  0  0  0
   -5.8791   19.4736  -35.0031 H   0  0  0  0  0  0  0  0  0  0  0  0
   -4.0237   18.8655  -32.1103 H   0  0  0  0  0  0  0  0  0  0  0  0
   -3.7869   21.3450  -32.1115 H   0  0  0  0  0  0  0  0  0  0  0  0
   -1.9185   22.4214  -33.3628 H   0  0  0  0  0  0  0  0  0  0  0  0
   -0.3043   21.0260  -34.6449 H   0  0  0  0  0  0  0  0  0  0  0  0
    0.9646   17.6554  -33.0285 H   0  0  0  0  0  0  0  0  0  0  0  0
    1.3569   16.4705  -34.3203 H   0  0  0  0  0  0  0  0  0  0  0  0
    2.1348   18.0895  -34.3203 H   0  0  0  0  0  0  0  0  0  0  0  0
  1  2  1  0
  2  3  1  0
  3  4  2  0
  4  5  1  0
  5  6  2  0
  5  7  1  0
  7  8  1  0
  8  9  2  0
  9 10  1  0
 10 11  2  0
 11 12  1  0
 12 13  2  0
 12 14  2  0
 12 15  1  0
 15 16  1  0
 16 17  1  0
 17 18  1  0
 18 19  1  0
 18 20  1  0
 20 21  1  0
 11 22  1  0
 22 23  2  0
  4 24  1  0
 24 25  1  0
 25 26  2  0
 26 27  1  0
 27 28  2  0
 28 29  1  0
 29 30  2  0
 30 31  1  0
 31 32  1  0
 31 33  2  0
 31 34  2  0
 24 35  1  0
 35  2  2  0
 23  8  1  0
 30 25  1  0
 21 15  1  0
  1 36  1  0
  1 37  1  0
  1 38  1  0
  3 39  1  0
  9 40  1  0
 10 41  1  0
 16 42  1  0
 16 43  1  0
 17 44  1  0
 17 45  1  0
 19 46  1  0
 19 47  1  0
 19 48  1  0
 20 49  1  0
 20 50  1  0
 21 51  1  0
 21 52  1  0
 22 53  1  0
 23 54  1  0
 26 55  1  0
 27 56  1  0
 28 57  1  0
 29 58  1  0
 32 59  1  0
 32 60  1  0
 32 61  1  0
M  CHG  1   7  -1
M  END
>  <UniqueID>  (4) 
4

>  <SMILES>  (4) 
Cc1cc(C(=O)[N-]c2ccc(S(=O)(=O)N3CCN(C)CC3)cc2)n(-c2ccccc2S(C)(=O)=O)n1

>  <Energy>  (4) 
110.8719100281613

>  <Genealogy>  (4) 
Cc1cc(C(=O)[N-]c2ccc(S(=O)(=O)N3CCN(C)CC3)cc2)n(-c2ccccc2S(C)(=O)=O)n1 (protonated)
Cc1cc(C(=O)[N-]c2ccc(S(=O)(=O)N3CCN(C)CC3)cc2)n(-c2ccccc2S(C)(=O)=O)n1 (3D coordinates assigned)
Cc1cc(C(=O)[N-]c2ccc(S(=O)(=O)N3CCN(C)CC3)cc2)n(-c2ccccc2S(C)(=O)=O)n1 (nonaromatic ring conformer: 110.8719100281613 kcal/mol)

>  <smiles>  (4) 
Cc1cc(C(=O)Nc2ccc(S(=O)(=O)N3CCN(C)CC3)cc2)n(-c2ccccc2S(C)(=O)=O)n1

>  <score_type>  (4) 
oracle

>  <origin>  (4) 
adgpu

>  <m_score__min__energy>  (4) 
-12.91

>  <m_primary>  (4) 
energy

$$$$
4:0
     RDKit          3D

 59 63  0  0  0  0  0  0  0  0999 V2000
    2.0740   26.3590  -36.8670 N   0  0  0  0  0  0  0  0  0  0  0  0
    2.0160   25.0330  -36.3360 C   0  0  0  0  0  0  0  0  0  0  0  0
    3.1880   24.3870  -35.9150 C   0  0  0  0  0  0  0  0  0  0  0  0
    3.1310   23.0820  -35.4130 C   0  0  0  0  0  0  0  0  0  0  0  0
    1.9010   22.4170  -35.3230 C   0  0  0  0  0  0  0  0  0  0  0  0
    1.8400   20.7430  -34.7870 S   0  0  0  0  0  0  0  0  0  0  0  0
    3.0230   20.4330  -33.9090 O   0  0  0  0  0  0  0  0  0  0  0  0
    1.8800   19.8220  -35.9760 O   0  0  0  0  0  0  0  0  0  0  0  0
    0.3470   20.5140  -33.8900 C   0  0  0  0  0  0  0  0  0  0  0  0
    0.2580   20.9390  -32.5490 C   0  0  0  0  0  0  0  0  0  0  0  0
   -0.9530   20.8350  -31.8470 C   0  0  0  0  0  0  0  0  0  0  0  0
   -2.0570   20.3140  -32.5110 C   0  0  0  0  0  0  0  0  0  0  0  0
   -3.6330   20.1250  -31.9560 S   0  0  0  0  0  0  0  0  0  0  0  0
   -4.1650   19.5170  -33.4480 C   0  0  0  0  0  0  0  0  0  0  0  0
   -5.3720   19.1290  -33.7380 N   0  0  0  0  0  0  0  0  0  0  0  0
   -6.5480   19.2360  -32.9200 C   0  0  0  0  0  0  0  0  0  0  0  0
   -7.2770   18.0740  -32.6410 C   0  0  0  0  0  0  0  0  0  0  0  0
   -8.4780   18.1470  -31.9320 C   0  0  0  0  0  0  0  0  0  0  0  0
   -8.9700   19.3850  -31.5110 C   0  0  0  0  0  0  0  0  0  0  0  0
   -8.2650   20.5620  -31.8050 C   0  0  0  0  0  0  0  0  0  0  0  0
   -8.9060   22.1280  -31.3000 S   0  0  0  0  0  0  0  0  0  0  0  0
   -9.6880   22.7300  -32.4330 O   0  0  0  0  0  0  0  0  0  0  0  0
   -9.8460   21.9260  -30.1440 O   0  0  0  0  0  0  0  0  0  0  0  0
   -7.6340   23.2360  -30.8400 N   0  0  0  0  0  0  0  0  0  0  0  0
   -6.7540   22.6270  -29.8200 C   0  0  0  0  0  0  0  0  0  0  0  0
   -5.3880   23.3160  -29.7690 C   0  0  0  0  0  0  0  0  0  0  0  0
   -4.6440   23.1300  -31.0990 C   0  0  0  0  0  0  0  0  0  0  0  0
   -5.5970   23.0830  -32.3120 C   0  0  0  0  0  0  0  0  0  0  0  0
   -6.9330   23.7890  -32.0240 C   0  0  0  0  0  0  0  0  0  0  0  0
   -7.0590   20.4860  -32.5150 C   0  0  0  0  0  0  0  0  0  0  0  0
   -3.1540   19.4380  -34.3420 N   0  0  0  0  0  0  0  0  0  0  0  0
   -1.9850   19.8940  -33.8260 C   0  0  0  0  0  0  0  0  0  0  0  0
   -0.7840   19.9840  -34.5330 C   0  0  0  0  0  0  0  0  0  0  0  0
    0.7320   23.0630  -35.7430 C   0  0  0  0  0  0  0  0  0  0  0  0
    0.7880   24.3660  -36.2470 C   0  0  0  0  0  0  0  0  0  0  0  0
    1.2710   26.7550  -37.4200 H   0  0  0  0  0  0  0  0  0  0  0  0
    2.9080   26.9640  -36.6960 H   0  0  0  0  0  0  0  0  0  0  0  0
    4.1547   24.9079  -35.9797 H   0  0  0  0  0  0  0  0  0  0  0  0
    4.0531   22.5776  -35.0886 H   0  0  0  0  0  0  0  0  0  0  0  0
    1.1447   21.3555  -32.0487 H   0  0  0  0  0  0  0  0  0  0  0  0
   -1.0263   21.1577  -30.7980 H   0  0  0  0  0  0  0  0  0  0  0  0
   -6.9018   17.0979  -32.9821 H   0  0  0  0  0  0  0  0  0  0  0  0
   -9.0378   17.2278  -31.7045 H   0  0  0  0  0  0  0  0  0  0  0  0
   -9.9131   19.4372  -30.9472 H   0  0  0  0  0  0  0  0  0  0  0  0
   -7.2353   22.7155  -28.8348 H   0  0  0  0  0  0  0  0  0  0  0  0
   -6.5968   21.5717  -30.0876 H   0  0  0  0  0  0  0  0  0  0  0  0
   -5.5309   24.3903  -29.5809 H   0  0  0  0  0  0  0  0  0  0  0  0
   -4.7919   22.8665  -28.9611 H   0  0  0  0  0  0  0  0  0  0  0  0
   -3.9457   23.9694  -31.2322 H   0  0  0  0  0  0  0  0  0  0  0  0
   -4.1163   22.1659  -31.0530 H   0  0  0  0  0  0  0  0  0  0  0  0
   -5.1104   23.5784  -33.1651 H   0  0  0  0  0  0  0  0  0  0  0  0
   -5.8120   22.0273  -32.5340 H   0  0  0  0  0  0  0  0  0  0  0  0
   -6.7351   24.8566  -31.8479 H   0  0  0  0  0  0  0  0  0  0  0  0
   -7.5843   23.6321  -32.8965 H   0  0  0  0  0  0  0  0  0  0  0  0
   -6.5081   21.4067  -32.7576 H   0  0  0  0  0  0  0  0  0  0  0  0
   -3.2660   19.0920  -35.3170 H   0  0  0  0  0  0  0  0  0  0  0  0
   -0.7245   19.6450  -35.5778 H   0  0  0  0  0  0  0  0  0  0  0  0
   -0.2350   22.5430  -35.6762 H   0  0  0  0  0  0  0  0  0  0  0  0
   -0.1344   24.8681  -36.5742 H   0  0  0  0  0  0  0  0  0  0  0  0
  1  2  1  0
  2  3  2  0
  3  4  1  0
  4  5  2  0
  5  6  1  0
  6  7  2  0
  6  8  2  0
  6  9  1  0
  9 10  2  0
 10 11  1  0
 11 12  2  0
 12 13  1  0
 13 14  1  0
 14 15  2  3
 15 16  1  0
 16 17  2  0
 17 18  1  0
 18 19  2  0
 19 20  1  0
 20 21  1  0
 21 22  2  0
 21 23  2  0
 21 24  1  0
 24 25  1  0
 25 26  1  0
 26 27  1  0
 27 28  1  0
 28 29  1  0
 20 30  2  0
 14 31  1  0
 31 32  1  0
 32 33  2  0
  5 34  1  0
 34 35  2  0
 35  2  1  0
 33  9  1  0
 32 12  1  0
 30 16  1  0
 29 24  1  0
  1 36  1  0
  1 37  1  0
  3 38  1  0
  4 39  1  0
 10 40  1  0
 11 41  1  0
 17 42  1  0
 18 43  1  0
 19 44  1  0
 25 45  1  0
 25 46  1  0
 26 47  1  0
 26 48  1  0
 27 49  1  0
 27 50  1  0
 28 51  1  0
 28 52  1  0
 29 53  1  0
 29 54  1  0
 30 55  1  0
 31 56  1  0
 33 57  1  0
 34 58  1  0
 35 59  1  0
M  END
>  <UniqueID>  (5) 
5

>  <SMILES>  (5) 
Nc1ccc(S(=O)(=O)c2ccc3sc(=Nc4cccc(S(=O)(=O)N5CCCCC5)c4)[nH]c3c2)cc1

>  <Energy>  (5) 
112.3555536867904

>  <Genealogy>  (5) 
Nc1ccc(S(=O)(=O)c2ccc3sc(=Nc4cccc(S(=O)(=O)N5CCCCC5)c4)[nH]c3c2)cc1 (3D coordinates assigned)
Nc1ccc(S(=O)(=O)c2ccc3sc(=Nc4cccc(S(=O)(=O)N5CCCCC5)c4)[nH]c3c2)cc1 (nonaromatic ring conformer: 112.3555536867904 kcal/mol)

>  <smiles>  (5) 
Nc1ccc(S(=O)(=O)c2ccc3sc(=Nc4cccc(S(=O)(=O)N5CCCCC5)c4)[nH]c3c2)cc1

>  <score_type>  (5) 
oracle

>  <origin>  (5) 
adgpu

>  <m_score__min__energy>  (5) 
-11.07

>  <m_primary>  (5) 
energy

$$$$
5:0
     RDKit          3D

 57 60  0  0  0  0  0  0  0  0999 V2000
   -3.5030   25.2800  -30.4570 O   0  0  0  0  0  0  0  0  0  0  0  0
   -3.3060   24.0630  -30.1960 C   0  0  0  0  0  0  0  0  0  0  0  0
   -4.1690   23.0850  -30.7950 N   0  0  0  0  0  0  0  0  0  0  0  0
   -3.8150   22.1490  -31.8230 C   0  0  0  0  0  0  0  0  0  0  0  0
   -2.4740   21.9420  -32.1940 C   0  0  0  0  0  0  0  0  0  0  0  0
   -2.1480   21.0000  -33.1800 C   0  0  0  0  0  0  0  0  0  0  0  0
   -0.4690   20.7070  -33.6240 S   0  0  0  0  0  0  0  0  0  0  0  0
    0.0420   21.9110  -34.3710 O   0  0  0  0  0  0  0  0  0  0  0  0
   -0.3940   19.5040  -34.5280 O   0  0  0  0  0  0  0  0  0  0  0  0
    0.4430   20.4350  -32.1480 N   0  0  0  0  0  0  0  0  0  0  0  0
   -0.3490   19.8050  -31.0720 C   0  0  0  0  0  0  0  0  0  0  0  0
   -0.4990   18.2830  -31.2520 C   0  0  0  0  0  0  0  0  0  0  0  0
    0.8620   17.6190  -31.4450 C   0  0  0  0  0  0  0  0  0  0  0  0
    1.6040   18.2700  -32.6110 C   0  0  0  0  0  0  0  0  0  0  0  0
    1.7450   19.7790  -32.3740 C   0  0  0  0  0  0  0  0  0  0  0  0
   -3.1670   20.2690  -33.8010 C   0  0  0  0  0  0  0  0  0  0  0  0
   -4.5020   20.4960  -33.4640 C   0  0  0  0  0  0  0  0  0  0  0  0
   -4.8330   21.4450  -32.4880 C   0  0  0  0  0  0  0  0  0  0  0  0
   -6.2080   21.6880  -32.1660 N   0  0  0  0  0  0  0  0  0  0  0  0
   -6.9540   20.6120  -31.4990 C   0  0  0  0  0  0  0  0  0  0  0  0
   -8.4550   20.9090  -31.5070 C   0  0  0  0  0  0  0  0  0  0  0  0
   -8.7020   22.2260  -31.0420 O   0  0  0  0  0  0  0  0  0  0  0  0
   -8.2000   23.1540  -31.9840 C   0  0  0  0  0  0  0  0  0  0  0  0
   -6.6680   23.0800  -32.0690 C   0  0  0  0  0  0  0  0  0  0  0  0
   -2.2610   23.6980  -29.2110 C   0  0  0  0  0  0  0  0  0  0  0  0
   -2.0940   22.3510  -28.8270 C   0  0  0  0  0  0  0  0  0  0  0  0
   -1.1420   21.9980  -27.8650 C   0  0  0  0  0  0  0  0  0  0  0  0
   -0.3610   22.9850  -27.2600 C   0  0  0  0  0  0  0  0  0  0  0  0
   -0.5180   24.3240  -27.6250 C   0  0  0  0  0  0  0  0  0  0  0  0
   -1.4620   24.6890  -28.5980 C   0  0  0  0  0  0  0  0  0  0  0  0
   -1.6050   26.0330  -28.9580 O   0  0  0  0  0  0  0  0  0  0  0  0
   -1.6763   22.5227  -31.7076 H   0  0  0  0  0  0  0  0  0  0  0  0
    0.1494   19.9974  -30.1104 H   0  0  0  0  0  0  0  0  0  0  0  0
   -1.3577   20.2426  -31.1046 H   0  0  0  0  0  0  0  0  0  0  0  0
   -0.9819   17.8608  -30.3584 H   0  0  0  0  0  0  0  0  0  0  0  0
   -1.1114   18.0942  -32.1460 H   0  0  0  0  0  0  0  0  0  0  0  0
    1.4561   17.7337  -30.5264 H   0  0  0  0  0  0  0  0  0  0  0  0
    0.7135   16.5514  -31.6643 H   0  0  0  0  0  0  0  0  0  0  0  0
    2.6044   17.8214  -32.7007 H   0  0  0  0  0  0  0  0  0  0  0  0
    1.0332   18.1042  -33.5366 H   0  0  0  0  0  0  0  0  0  0  0  0
    2.3803   19.9404  -31.4906 H   0  0  0  0  0  0  0  0  0  0  0  0
    2.1919   20.2208  -33.2768 H   0  0  0  0  0  0  0  0  0  0  0  0
   -2.9145   19.5121  -34.5582 H   0  0  0  0  0  0  0  0  0  0  0  0
   -5.2980   19.9273  -33.9669 H   0  0  0  0  0  0  0  0  0  0  0  0
   -6.7706   19.6645  -32.0269 H   0  0  0  0  0  0  0  0  0  0  0  0
   -6.6134   20.5397  -30.4556 H   0  0  0  0  0  0  0  0  0  0  0  0
   -8.8385   20.8093  -32.5331 H   0  0  0  0  0  0  0  0  0  0  0  0
   -8.9630   20.1952  -30.8419 H   0  0  0  0  0  0  0  0  0  0  0  0
   -8.6262   22.9288  -32.9728 H   0  0  0  0  0  0  0  0  0  0  0  0
   -8.4841   24.1670  -31.6628 H   0  0  0  0  0  0  0  0  0  0  0  0
   -6.3309   23.6321  -32.9587 H   0  0  0  0  0  0  0  0  0  0  0  0
   -6.2465   23.5233  -31.1547 H   0  0  0  0  0  0  0  0  0  0  0  0
   -2.7180   21.5713  -29.2882 H   0  0  0  0  0  0  0  0  0  0  0  0
   -1.0085   20.9427  -27.5849 H   0  0  0  0  0  0  0  0  0  0  0  0
    0.3789   22.7075  -26.4948 H   0  0  0  0  0  0  0  0  0  0  0  0
    0.1017   25.0972  -27.1473 H   0  0  0  0  0  0  0  0  0  0  0  0
   -2.5110   26.4830  -28.9710 H   0  0  0  0  0  0  0  0  0  0  0  0
  1  2  2  0
  2  3  1  0
  3  4  1  0
  4  5  2  0
  5  6  1  0
  6  7  1  0
  7  8  2  0
  7  9  2  0
  7 10  1  0
 10 11  1  0
 11 12  1  0
 12 13  1  0
 13 14  1  0
 14 15  1  0
  6 16  2  0
 16 17  1  0
 17 18  2  0
 18 19  1  0
 19 20  1  0
 20 21  1  0
 21 22  1  0
 22 23  1  0
 23 24  1  0
  2 25  1  0
 25 26  2  0
 26 27  1  0
 27 28  2  0
 28 29  1  0
 29 30  2  0
 30 31  1  0
 18  4  1  0
 24 19  1  0
 30 25  1  0
 15 10  1  0
  5 32  1  0
 11 33  1  0
 11 34  1  0
 12 35  1  0
 12 36  1  0
 13 37  1  0
 13 38  1  0
 14 39  1  0
 14 40  1  0
 15 41  1  0
 15 42  1  0
 16 43  1  0
 17 44  1  0
 20 45  1  0
 20 46  1  0
 21 47  1  0
 21 48  1  0
 23 49  1  0
 23 50  1  0
 24 51  1  0
 24 52  1  0
 26 53  1  0
 27 54  1  0
 28 55  1  0
 29 56  1  0
 31 57  1  0
M  CHG  1   3  -1
M  END
>  <UniqueID>  (6) 
6

>  <SMILES>  (6) 
O=C([N-]c1cc(S(=O)(=O)N2CCCCC2)ccc1N1CCOCC1)c1ccccc1O

>  <Energy>  (6) 
74.56150212383702

>  <Genealogy>  (6) 
O=C([N-]c1cc(S(=O)(=O)N2CCCCC2)ccc1N1CCOCC1)c1ccccc1O (protonated)
O=C([N-]c1cc(S(=O)(=O)N2CCCCC2)ccc1N1CCOCC1)c1ccccc1O (3D coordinates assigned)
O=C([N-]c1cc(S(=O)(=O)N2CCCCC2)ccc1N1CCOCC1)c1ccccc1O (nonaromatic ring conformer: 74.56150212383702 kcal/mol)

>  <smiles>  (6) 
O=C(Nc1cc(S(=O)(=O)N2CCCCC2)ccc1N1CCOCC1)c1ccccc1O

>  <score_type>  (6) 
oracle

>  <origin>  (6) 
adgpu

>  <m_score__min__energy>  (6) 
-10.93

>  <m_primary>  (6) 
energy

$$$$
6:0
     RDKit          3D

 53 55  0  0  0  0  0  0  0  0999 V2000
   -6.8380   19.7500  -33.3770 C   0  0  0  0  0  0  0  0  0  0  0  0
   -7.4180   20.1580  -32.0160 C   0  0  0  0  0  0  0  0  0  0  0  0
   -8.5910   19.2460  -31.6310 C   0  0  0  0  0  0  0  0  0  0  0  0
   -7.7960   21.6560  -31.9660 C   0  0  0  0  0  0  0  0  0  0  0  0
   -6.6860   22.5500  -31.4660 C   0  0  0  0  0  0  0  0  0  0  0  0
   -6.9820   23.6770  -30.6820 C   0  0  0  0  0  0  0  0  0  0  0  0
   -5.9590   24.5240  -30.2500 C   0  0  0  0  0  0  0  0  0  0  0  0
   -4.6250   24.2620  -30.6050 C   0  0  0  0  0  0  0  0  0  0  0  0
   -3.5550   25.1230  -30.1880 N   0  0  0  0  0  0  0  0  0  0  0  0
   -2.4440   24.7280  -29.3720 C   0  0  0  0  0  0  0  0  0  0  0  0
   -1.6620   25.6160  -28.9390 O   0  0  0  0  0  0  0  0  0  0  0  0
   -2.2210   23.3140  -28.9930 C   0  0  0  0  0  0  0  0  0  0  0  0
   -2.8600   22.7660  -27.8700 C   0  0  0  0  0  0  0  0  0  0  0  0
   -2.6630   21.4260  -27.5300 C   0  0  0  0  0  0  0  0  0  0  0  0
   -1.8280   20.6170  -28.3060 C   0  0  0  0  0  0  0  0  0  0  0  0
   -1.6630   19.2830  -27.9540 O   0  0  0  0  0  0  0  0  0  0  0  0
   -1.1740   21.1550  -29.4310 C   0  0  0  0  0  0  0  0  0  0  0  0
   -0.1440   20.1500  -30.4620 S   0  0  0  0  0  0  0  0  0  0  0  0
    1.1690   19.9180  -29.7650 O   0  0  0  0  0  0  0  0  0  0  0  0
   -0.7920   18.8110  -30.6760 O   0  0  0  0  0  0  0  0  0  0  0  0
    0.1530   20.9030  -32.0100 N   0  0  0  0  0  0  0  0  0  0  0  0
    1.0890   20.0980  -32.8060 C   0  0  0  0  0  0  0  0  0  0  0  0
    1.3540   20.7880  -34.1620 C   0  0  0  0  0  0  0  0  0  0  0  0
    0.5220   21.9180  -34.3600 O   0  0  0  0  0  0  0  0  0  0  0  0
   -0.8330   21.5510  -34.1900 C   0  0  0  0  0  0  0  0  0  0  0  0
   -1.1090   21.0870  -32.7460 C   0  0  0  0  0  0  0  0  0  0  0  0
   -1.3630   22.5070  -29.7560 C   0  0  0  0  0  0  0  0  0  0  0  0
   -4.3250   23.1180  -31.3530 C   0  0  0  0  0  0  0  0  0  0  0  0
   -5.3480   22.2710  -31.7890 C   0  0  0  0  0  0  0  0  0  0  0  0
   -5.9472   19.1233  -33.2230 H   0  0  0  0  0  0  0  0  0  0  0  0
   -7.5923   19.1825  -33.9418 H   0  0  0  0  0  0  0  0  0  0  0  0
   -6.5588   20.6517  -33.9418 H   0  0  0  0  0  0  0  0  0  0  0  0
   -6.6294   20.0217  -31.2613 H   0  0  0  0  0  0  0  0  0  0  0  0
   -8.6658   19.1878  -30.5351 H   0  0  0  0  0  0  0  0  0  0  0  0
   -9.5252   19.6573  -32.0410 H   0  0  0  0  0  0  0  0  0  0  0  0
   -8.4226   18.2392  -32.0410 H   0  0  0  0  0  0  0  0  0  0  0  0
   -8.0698   21.9784  -32.9814 H   0  0  0  0  0  0  0  0  0  0  0  0
   -8.6290   21.7519  -31.2540 H   0  0  0  0  0  0  0  0  0  0  0  0
   -8.0247   23.8937  -30.4068 H   0  0  0  0  0  0  0  0  0  0  0  0
   -6.1986   25.3999  -29.6292 H   0  0  0  0  0  0  0  0  0  0  0  0
   -3.5195   23.3954  -27.2544 H   0  0  0  0  0  0  0  0  0  0  0  0
   -3.1672   21.0052  -26.6475 H   0  0  0  0  0  0  0  0  0  0  0  0
    2.0373   19.9936  -32.2584 H   0  0  0  0  0  0  0  0  0  0  0  0
    0.6514   19.1047  -32.9845 H   0  0  0  0  0  0  0  0  0  0  0  0
    2.4048   21.1117  -34.1952 H   0  0  0  0  0  0  0  0  0  0  0  0
    1.1329   20.0625  -34.9587 H   0  0  0  0  0  0  0  0  0  0  0  0
   -1.4706   22.4184  -34.4160 H   0  0  0  0  0  0  0  0  0  0  0  0
   -1.0558   20.7171  -34.8719 H   0  0  0  0  0  0  0  0  0  0  0  0
   -1.7192   21.8451  -32.2332 H   0  0  0  0  0  0  0  0  0  0  0  0
   -1.6436   20.1262  -32.7786 H   0  0  0  0  0  0  0  0  0  0  0  0
   -0.8331   22.9388  -30.6178 H   0  0  0  0  0  0  0  0  0  0  0  0
   -3.2787   22.8840  -31.5992 H   0  0  0  0  0  0  0  0  0  0  0  0
   -5.1038   21.3814  -32.3881 H   0  0  0  0  0  0  0  0  0  0  0  0
  1  2  1  0
  2  3  1  0
  2  4  1  0
  4  5  1  0
  5  6  2  0
  6  7  1  0
  7  8  2  0
  8  9  1  0
  9 10  1  0
 10 11  2  0
 10 12  1  0
 12 13  2  0
 13 14  1  0
 14 15  2  0
 15 16  1  0
 15 17  1  0
 17 18  1  0
 18 19  2  0
 18 20  2  0
 18 21  1  0
 21 22  1  0
 22 23  1  0
 23 24  1  0
 24 25  1  0
 25 26  1  0
 17 27  2  0
  8 28  1  0
 28 29  2  0
 29  5  1  0
 27 12  1  0
 26 21  1  0
  1 30  1  0
  1 31  1  0
  1 32  1  0
  2 33  1  0
  3 34  1  0
  3 35  1  0
  3 36  1  0
  4 37  1  0
  4 38  1  0
  6 39  1  0
  7 40  1  0
 13 41  1  0
 14 42  1  0
 22 43  1  0
 22 44  1  0
 23 45  1  0
 23 46  1  0
 25 47  1  0
 25 48  1  0
 26 49  1  0
 26 50  1  0
 27 51  1  0
 28 52  1  0
 29 53  1  0
M  CHG  2   9  -1  16  -1
M  END
>  <UniqueID>  (7) 
7

>  <SMILES>  (7) 
CC(C)Cc1ccc([N-]C(=O)c2ccc([O-])c(S(=O)(=O)N3CCOCC3)c2)cc1

>  <Energy>  (7) 
62.96242728096996

>  <Genealogy>  (7) 
CC(C)Cc1ccc([N-]C(=O)c2ccc([O-])c(S(=O)(=O)N3CCOCC3)c2)cc1 (protonated)
CC(C)Cc1ccc([N-]C(=O)c2ccc([O-])c(S(=O)(=O)N3CCOCC3)c2)cc1 (3D coordinates assigned)
CC(C)Cc1ccc([N-]C(=O)c2ccc([O-])c(S(=O)(=O)N3CCOCC3)c2)cc1 (nonaromatic ring conformer: 62.96242728096996 kcal/mol)

>  <smiles>  (7) 
CC(C)Cc1ccc(NC(=O)c2ccc(O)c(S(=O)(=O)N3CCOCC3)c2)cc1

>  <score_type>  (7) 
oracle

>  <origin>  (7) 
adgpu

>  <m_score__min__energy>  (7) 
-12.529999999999999

>  <m_primary>  (7) 
energy

$$$$
7:0
     RDKit          3D

 47 49  0  0  0  0  0  0  0  0999 V2000
    0.0430   26.2670  -27.3990 C   0  0  0  0  0  0  0  0  0  0  0  0
   -0.9680   25.3010  -27.9280 C   0  0  0  0  0  0  0  0  0  0  0  0
   -1.1020   24.0340  -27.3550 C   0  0  0  0  0  0  0  0  0  0  0  0
   -2.0790   23.1480  -27.8330 C   0  0  0  0  0  0  0  0  0  0  0  0
   -2.2290   21.8090  -27.1570 C   0  0  0  0  0  0  0  0  0  0  0  0
   -2.9010   23.5410  -28.9240 C   0  0  0  0  0  0  0  0  0  0  0  0
   -3.9910   22.6300  -29.4700 C   0  0  0  0  0  0  0  0  0  0  0  0
   -4.1210   22.7460  -30.9240 N   0  0  0  0  0  0  0  0  0  0  0  0
   -4.3450   21.6350  -31.8160 C   0  0  0  0  0  0  0  0  0  0  0  0
   -5.6430   21.3860  -32.2830 C   0  0  0  0  0  0  0  0  0  0  0  0
   -5.8990   20.3080  -33.1360 C   0  0  0  0  0  0  0  0  0  0  0  0
   -4.8580   19.4700  -33.5480 C   0  0  0  0  0  0  0  0  0  0  0  0
   -5.1910   18.0950  -34.6050 S   0  0  0  0  0  0  0  0  0  0  0  0
   -6.0940   18.5390  -35.7220 O   0  0  0  0  0  0  0  0  0  0  0  0
   -3.9030   17.6130  -35.2130 O   0  0  0  0  0  0  0  0  0  0  0  0
   -5.9630   16.7790  -33.7420 N   0  0  0  0  0  0  0  0  0  0  0  0
   -5.1030   16.2620  -32.6670 C   0  0  0  0  0  0  0  0  0  0  0  0
   -5.7470   16.5930  -31.3240 C   0  0  0  0  0  0  0  0  0  0  0  0
   -6.9180   17.4900  -31.6480 C   0  0  0  0  0  0  0  0  0  0  0  0
   -7.2090   17.2230  -33.1110 C   0  0  0  0  0  0  0  0  0  0  0  0
   -3.5550   19.7230  -33.1020 C   0  0  0  0  0  0  0  0  0  0  0  0
   -3.3000   20.7920  -32.2370 C   0  0  0  0  0  0  0  0  0  0  0  0
   -2.7490   24.8490  -29.4380 C   0  0  0  0  0  0  0  0  0  0  0  0
   -3.4990   25.2750  -30.3570 O   0  0  0  0  0  0  0  0  0  0  0  0
   -1.7970   25.6770  -28.9350 N   0  0  0  0  0  0  0  0  0  0  0  0
    0.0256   26.2504  -26.2993 H   0  0  0  0  0  0  0  0  0  0  0  0
    1.0441   25.9813  -27.7543 H   0  0  0  0  0  0  0  0  0  0  0  0
   -0.1969   27.2800  -27.7543 H   0  0  0  0  0  0  0  0  0  0  0  0
   -0.4415   23.7311  -26.5291 H   0  0  0  0  0  0  0  0  0  0  0  0
   -2.2137   21.9455  -26.0656 H   0  0  0  0  0  0  0  0  0  0  0  0
   -3.1839   21.3522  -27.4561 H   0  0  0  0  0  0  0  0  0  0  0  0
   -1.3988   21.1522  -27.4561 H   0  0  0  0  0  0  0  0  0  0  0  0
   -3.7440   21.5884  -29.2169 H   0  0  0  0  0  0  0  0  0  0  0  0
   -4.9468   22.9319  -29.0168 H   0  0  0  0  0  0  0  0  0  0  0  0
   -4.1800   23.7150  -31.3170 H   0  0  0  0  0  0  0  0  0  0  0  0
   -6.4683   22.0451  -31.9754 H   0  0  0  0  0  0  0  0  0  0  0  0
   -6.9248   20.1181  -33.4849 H   0  0  0  0  0  0  0  0  0  0  0  0
   -4.9983   15.1717  -32.7687 H   0  0  0  0  0  0  0  0  0  0  0  0
   -4.1066   16.7239  -32.7290 H   0  0  0  0  0  0  0  0  0  0  0  0
   -6.0923   15.6747  -30.8265 H   0  0  0  0  0  0  0  0  0  0  0  0
   -5.0367   17.0804  -30.6400 H   0  0  0  0  0  0  0  0  0  0  0  0
   -7.7879   17.2333  -31.0257 H   0  0  0  0  0  0  0  0  0  0  0  0
   -6.6988   18.5500  -31.4524 H   0  0  0  0  0  0  0  0  0  0  0  0
   -7.9751   16.4390  -33.2031 H   0  0  0  0  0  0  0  0  0  0  0  0
   -7.5842   18.1338  -33.6005 H   0  0  0  0  0  0  0  0  0  0  0  0
   -2.7280   19.0779  -33.4336 H   0  0  0  0  0  0  0  0  0  0  0  0
   -2.2747   20.9752  -31.8831 H   0  0  0  0  0  0  0  0  0  0  0  0
  1  2  1  0
  2  3  2  0
  3  4  1  0
  4  5  1  0
  4  6  2  0
  6  7  1  0
  7  8  1  0
  8  9  1  0
  9 10  2  0
 10 11  1  0
 11 12  2  0
 12 13  1  0
 13 14  2  0
 13 15  2  0
 13 16  1  0
 16 17  1  0
 17 18  1  0
 18 19  1  0
 19 20  1  0
 12 21  1  0
 21 22  2  0
  6 23  1  0
 23 24  2  0
 23 25  1  0
 25  2  1  0
 22  9  1  0
 20 16  1  0
  1 26  1  0
  1 27  1  0
  1 28  1  0
  3 29  1  0
  5 30  1  0
  5 31  1  0
  5 32  1  0
  7 33  1  0
  7 34  1  0
  8 35  1  0
 10 36  1  0
 11 37  1  0
 17 38  1  0
 17 39  1  0
 18 40  1  0
 18 41  1  0
 19 42  1  0
 19 43  1  0
 20 44  1  0
 20 45  1  0
 21 46  1  0
 22 47  1  0
M  CHG  1  25  -1
M  END
>  <UniqueID>  (8) 
8

>  <SMILES>  (8) 
Cc1cc(C)c(CNc2ccc(S(=O)(=O)N3CCCC3)cc2)c(=O)[n-]1

>  <Energy>  (8) 
50.723884222744104

>  <Genealogy>  (8) 
Cc1cc(C)c(CNc2ccc(S(=O)(=O)N3CCCC3)cc2)c(=O)[n-]1 (protonated)
Cc1cc(C)c(CNc2ccc(S(=O)(=O)N3CCCC3)cc2)c(=O)[n-]1 (3D coordinates assigned)
Cc1cc(C)c(CNc2ccc(S(=O)(=O)N3CCCC3)cc2)c(=O)[n-]1 (nonaromatic ring conformer: 50.723884222744104 kcal/mol)

>  <smiles>  (8) 
Cc1cc(C)c(CNc2ccc(S(=O)(=O)N3CCCC3)cc2)c(=O)[nH]1

>  <score_type>  (8) 
oracle

>  <origin>  (8) 
adgpu

>  <m_score__min__energy>  (8) 
-10.17

>  <m_primary>  (8) 
energy

$$$$
8:0
     RDKit          3D

 66 69  0  0  0  0  0  0  0  0999 V2000
    3.2730   19.3030  -28.2170 C   0  0  0  0  0  0  0  0  0  0  0  0
    2.5160   18.0520  -27.8540 C   0  0  0  0  0  0  0  0  0  0  0  0
    3.2100   16.9490  -27.3260 C   0  0  0  0  0  0  0  0  0  0  0  0
    2.5260   15.7810  -26.9650 C   0  0  0  0  0  0  0  0  0  0  0  0
    3.3900   14.3940  -26.3060 S   0  0  0  0  0  0  0  0  0  0  0  0
    4.1740   13.5390  -27.5880 N   0  0  0  0  0  0  0  0  0  0  0  0
    2.4320   13.4650  -25.6150 O   0  0  0  0  0  0  0  0  0  0  0  0
    4.4100   14.8680  -25.3120 O   0  0  0  0  0  0  0  0  0  0  0  0
    1.1390   15.7130  -27.1300 C   0  0  0  0  0  0  0  0  0  0  0  0
    0.4380   16.7970  -27.6620 C   0  0  0  0  0  0  0  0  0  0  0  0
    1.1120   17.9770  -28.0210 C   0  0  0  0  0  0  0  0  0  0  0  0
    0.3860   19.0750  -28.6020 N   0  0  0  0  0  0  0  0  0  0  0  0
   -0.7110   19.7350  -27.9430 C   0  0  0  0  0  0  0  0  0  0  0  0
   -0.9990   19.4510  -26.7470 O   0  0  0  0  0  0  0  0  0  0  0  0
   -1.5410   20.7200  -28.6680 C   0  0  0  0  0  0  0  0  0  0  0  0
   -2.3980   21.5350  -27.9120 C   0  0  0  0  0  0  0  0  0  0  0  0
   -3.2410   22.4650  -28.5310 C   0  0  0  0  0  0  0  0  0  0  0  0
   -4.2470   23.5370  -27.4910 S   0  0  0  0  0  0  0  0  0  0  0  0
   -3.0130   24.8870  -27.4050 C   0  0  0  0  0  0  0  0  0  0  0  0
   -1.6150   24.3460  -27.2550 C   0  0  0  0  0  0  0  0  0  0  0  0
   -1.1800   23.8320  -26.0210 C   0  0  0  0  0  0  0  0  0  0  0  0
    0.1350   23.3790  -25.8700 C   0  0  0  0  0  0  0  0  0  0  0  0
    1.0220   23.4300  -26.9480 C   0  0  0  0  0  0  0  0  0  0  0  0
    0.5970   23.9390  -28.1780 C   0  0  0  0  0  0  0  0  0  0  0  0
   -0.7170   24.3980  -28.3330 C   0  0  0  0  0  0  0  0  0  0  0  0
   -3.2750   22.5470  -29.9330 C   0  0  0  0  0  0  0  0  0  0  0  0
   -4.3690   23.6850  -30.7970 S   0  0  0  0  0  0  0  0  0  0  0  0
   -5.5380   22.3960  -31.2360 C   0  0  0  0  0  0  0  0  0  0  0  0
   -5.1050   21.2850  -31.9610 C   0  0  0  0  0  0  0  0  0  0  0  0
   -6.0070   20.2770  -32.3020 C   0  0  0  0  0  0  0  0  0  0  0  0
   -7.3600   20.3700  -31.9330 C   0  0  0  0  0  0  0  0  0  0  0  0
   -8.4500   19.0490  -32.3900 S   0  0  0  0  0  0  0  0  0  0  0  0
   -7.6760   17.9780  -33.1120 O   0  0  0  0  0  0  0  0  0  0  0  0
   -9.0780   18.4360  -31.1690 O   0  0  0  0  0  0  0  0  0  0  0  0
   -9.6470   19.6380  -33.4070 F   0  0  0  0  0  0  0  0  0  0  0  0
   -7.8120   21.5190  -31.2340 C   0  0  0  0  0  0  0  0  0  0  0  0
   -9.2540   21.6960  -30.8410 C   0  0  0  0  0  0  0  0  0  0  0  0
   -6.8830   22.5060  -30.8640 C   0  0  0  0  0  0  0  0  0  0  0  0
   -2.4140   21.7490  -30.6930 C   0  0  0  0  0  0  0  0  0  0  0  0
   -1.5210   20.8530  -30.0810 C   0  0  0  0  0  0  0  0  0  0  0  0
   -0.5400   20.1490  -30.9380 C   0  0  0  0  0  0  0  0  0  0  0  0
   -0.7260   18.9510  -31.2780 O   0  0  0  0  0  0  0  0  0  0  0  0
    0.6350   20.7870  -31.3200 O   0  0  0  0  0  0  0  0  0  0  0  0
    3.5866   19.8212  -27.2988 H   0  0  0  0  0  0  0  0  0  0  0  0
    4.1610   19.0356  -28.8086 H   0  0  0  0  0  0  0  0  0  0  0  0
    2.6241   19.9656  -28.8086 H   0  0  0  0  0  0  0  0  0  0  0  0
    4.3008   17.0038  -27.1951 H   0  0  0  0  0  0  0  0  0  0  0  0
    5.0800   13.1770  -27.2110 H   0  0  0  0  0  0  0  0  0  0  0  0
    0.5975   14.8008  -26.8392 H   0  0  0  0  0  0  0  0  0  0  0  0
   -0.6509   16.7269  -27.8013 H   0  0  0  0  0  0  0  0  0  0  0  0
    0.6560   19.3920  -29.5600 H   0  0  0  0  0  0  0  0  0  0  0  0
   -2.4072   21.4413  -26.8160 H   0  0  0  0  0  0  0  0  0  0  0  0
   -3.0691   25.4823  -28.3283 H   0  0  0  0  0  0  0  0  0  0  0  0
   -3.2400   25.5076  -26.5256 H   0  0  0  0  0  0  0  0  0  0  0  0
   -1.8763   23.7858  -25.1707 H   0  0  0  0  0  0  0  0  0  0  0  0
    0.4711   22.9820  -24.9008 H   0  0  0  0  0  0  0  0  0  0  0  0
    2.0544   23.0697  -26.8287 H   0  0  0  0  0  0  0  0  0  0  0  0
    1.2960   23.9792  -29.0264 H   0  0  0  0  0  0  0  0  0  0  0  0
   -1.0465   24.8005  -29.3022 H   0  0  0  0  0  0  0  0  0  0  0  0
   -4.0507   21.2040  -32.2641 H   0  0  0  0  0  0  0  0  0  0  0  0
   -5.6557   19.4001  -32.8656 H   0  0  0  0  0  0  0  0  0  0  0  0
   -9.3365   21.7061  -29.7441 H   0  0  0  0  0  0  0  0  0  0  0  0
   -9.6303   22.6471  -31.2458 H   0  0  0  0  0  0  0  0  0  0  0  0
   -9.8491   20.8642  -31.2458 H   0  0  0  0  0  0  0  0  0  0  0  0
   -7.2160   23.3740  -30.2760 H   0  0  0  0  0  0  0  0  0  0  0  0
   -2.4362   21.8241  -31.7902 H   0  0  0  0  0  0  0  0  0  0  0  0
  1  2  1  0
  2  3  2  0
  3  4  1  0
  4  5  1  0
  5  6  1  0
  5  7  2  0
  5  8  2  0
  4  9  2  0
  9 10  1  0
 10 11  2  0
 11 12  1  0
 12 13  1  0
 13 14  2  0
 13 15  1  0
 15 16  2  0
 16 17  1  0
 17 18  1  0
 18 19  1  0
 19 20  1  0
 20 21  2  0
 21 22  1  0
 22 23  2  0
 23 24  1  0
 24 25  2  0
 17 26  2  0
 26 27  1  0
 27 28  1  0
 28 29  2  0
 29 30  1  0
 30 31  2  0
 31 32  1  0
 32 33  2  0
 32 34  2  0
 32 35  1  0
 31 36  1  0
 36 37  1  0
 36 38  2  0
 26 39  1  0
 39 40  2  0
 40 41  1  0
 41 42  2  0
 41 43  1  0
 11  2  1  0
 40 15  1  0
 25 20  1  0
 38 28  1  0
  1 44  1  0
  1 45  1  0
  1 46  1  0
  3 47  1  0
  6 48  1  0
  9 49  1  0
 10 50  1  0
 12 51  1  0
 16 52  1  0
 19 53  1  0
 19 54  1  0
 21 55  1  0
 22 56  1  0
 23 57  1  0
 24 58  1  0
 25 59  1  0
 29 60  1  0
 30 61  1  0
 37 62  1  0
 37 63  1  0
 37 64  1  0
 38 65  1  0
 39 66  1  0
M  CHG  2   6  -1  43  -1
M  END
>  <UniqueID>  (9) 
9

>  <SMILES>  (9) 
Cc1cc(S([NH-])(=O)=O)ccc1NC(=O)c1cc(SCc2ccccc2)c(Sc2ccc(S(=O)(=O)F)c(C)c2)cc1C(=O)[O-]

>  <Energy>  (9) 
76.78574132128003

>  <Genealogy>  (9) 
Cc1cc(S([NH-])(=O)=O)ccc1NC(=O)c1cc(SCc2ccccc2)c(Sc2ccc(S(=O)(=O)F)c(C)c2)cc1C(=O)[O-] (protonated)
Cc1cc(S([NH-])(=O)=O)ccc1NC(=O)c1cc(SCc2ccccc2)c(Sc2ccc(S(=O)(=O)F)c(C)c2)cc1C(=O)[O-] (3D coordinates assigned)
Cc1cc(S([NH-])(=O)=O)ccc1NC(=O)c1cc(SCc2ccccc2)c(Sc2ccc(S(=O)(=O)F)c(C)c2)cc1C(=O)[O-] (optimized conformer: 76.78574132128003 kcal/mol)

>  <smiles>  (9) 
Cc1cc(S(N)(=O)=O)ccc1NC(=O)c1cc(SCc2ccccc2)c(Sc2ccc(S(=O)(=O)F)c(C)c2)cc1C(=O)O

>  <score_type>  (9) 
oracle

>  <origin>  (9) 
adgpu

>  <m_score__min__energy>  (9) 
-11.85

>  <m_primary>  (9) 
energy

$$$$
9:0
     RDKit          3D

 43 45  0  0  0  0  0  0  0  0999 V2000
   -1.0090   21.5050  -31.7300 O   0  0  0  0  0  0  0  0  0  0  0  0
   -1.7920   22.1580  -30.9880 C   0  0  0  0  0  0  0  0  0  0  0  0
   -2.7400   23.0540  -31.5810 N   0  0  0  0  0  0  0  0  0  0  0  0
   -4.0160   23.4070  -31.0300 C   0  0  0  0  0  0  0  0  0  0  0  0
   -5.1440   22.6830  -31.4390 C   0  0  0  0  0  0  0  0  0  0  0  0
   -6.4140   23.0010  -30.9380 C   0  0  0  0  0  0  0  0  0  0  0  0
   -7.8320   22.0840  -31.4380 S   0  0  0  0  0  0  0  0  0  0  0  0
   -8.7980   23.0230  -32.1050 O   0  0  0  0  0  0  0  0  0  0  0  0
   -8.4900   21.4710  -30.2330 O   0  0  0  0  0  0  0  0  0  0  0  0
   -7.3400   20.8270  -32.5530 N   0  0  0  0  0  0  0  0  0  0  0  0
   -6.2600   19.9770  -31.9910 C   0  0  0  0  0  0  0  0  0  0  0  0
   -6.6480   18.4970  -31.8230 C   0  0  0  0  0  0  0  0  0  0  0  0
   -8.0440   18.3770  -31.2180 C   0  0  0  0  0  0  0  0  0  0  0  0
   -9.1050   19.1020  -32.0660 C   0  0  0  0  0  0  0  0  0  0  0  0
   -8.4970   20.0830  -33.0870 C   0  0  0  0  0  0  0  0  0  0  0  0
   -6.5550   24.0550  -30.0260 C   0  0  0  0  0  0  0  0  0  0  0  0
   -5.4410   24.8020  -29.6390 C   0  0  0  0  0  0  0  0  0  0  0  0
   -4.1740   24.4950  -30.1480 C   0  0  0  0  0  0  0  0  0  0  0  0
   -3.0940   25.2970  -29.7980 O   0  0  0  0  0  0  0  0  0  0  0  0
   -1.6840   22.0310  -29.5090 C   0  0  0  0  0  0  0  0  0  0  0  0
   -2.2900   20.9340  -28.8630 C   0  0  0  0  0  0  0  0  0  0  0  0
   -2.2080   20.7860  -27.4750 C   0  0  0  0  0  0  0  0  0  0  0  0
   -2.9680   19.4120  -26.6930 Cl  0  0  0  0  0  0  0  0  0  0  0  0
   -1.5210   21.7310  -26.7110 C   0  0  0  0  0  0  0  0  0  0  0  0
   -0.9180   22.8240  -27.3320 C   0  0  0  0  0  0  0  0  0  0  0  0
   -0.9930   22.9830  -28.7200 C   0  0  0  0  0  0  0  0  0  0  0  0
   -0.3800   24.0910  -29.2920 O   0  0  0  0  0  0  0  0  0  0  0  0
   -5.0320   21.8588  -32.1588 H   0  0  0  0  0  0  0  0  0  0  0  0
   -5.3915   20.0322  -32.6639 H   0  0  0  0  0  0  0  0  0  0  0  0
   -6.0430   20.3642  -30.9845 H   0  0  0  0  0  0  0  0  0  0  0  0
   -6.6362   18.0055  -32.8070 H   0  0  0  0  0  0  0  0  0  0  0  0
   -5.9251   18.0134  -31.1496 H   0  0  0  0  0  0  0  0  0  0  0  0
   -8.3110   17.3121  -31.1498 H   0  0  0  0  0  0  0  0  0  0  0  0
   -8.0247   18.8472  -30.2237 H   0  0  0  0  0  0  0  0  0  0  0  0
   -9.6918   18.3483  -32.6115 H   0  0  0  0  0  0  0  0  0  0  0  0
   -9.7286   19.6908  -31.3772 H   0  0  0  0  0  0  0  0  0  0  0  0
   -8.1704   19.5130  -33.9693 H   0  0  0  0  0  0  0  0  0  0  0  0
   -9.2742   20.8196  -33.3388 H   0  0  0  0  0  0  0  0  0  0  0  0
   -7.5463   24.2947  -29.6137 H   0  0  0  0  0  0  0  0  0  0  0  0
   -5.5596   25.6355  -28.9310 H   0  0  0  0  0  0  0  0  0  0  0  0
   -2.8338   20.1856  -29.4581 H   0  0  0  0  0  0  0  0  0  0  0  0
   -1.4554   21.6133  -25.6193 H   0  0  0  0  0  0  0  0  0  0  0  0
   -0.3791   23.5671  -26.7259 H   0  0  0  0  0  0  0  0  0  0  0  0
  1  2  2  0
  2  3  1  0
  3  4  1  0
  4  5  2  0
  5  6  1  0
  6  7  1  0
  7  8  2  0
  7  9  2  0
  7 10  1  0
 10 11  1  0
 11 12  1  0
 12 13  1  0
 13 14  1  0
 14 15  1  0
  6 16  2  0
 16 17  1  0
 17 18  2  0
 18 19  1  0
  2 20  1  0
 20 21  2  0
 21 22  1  0
 22 23  1  0
 22 24  2  0
 24 25  1  0
 25 26  2  0
 26 27  1  0
 18  4  1  0
 26 20  1  0
 15 10  1  0
  5 28  1  0
 11 29  1  0
 11 30  1  0
 12 31  1  0
 12 32  1  0
 13 33  1  0
 13 34  1  0
 14 35  1  0
 14 36  1  0
 15 37  1  0
 15 38  1  0
 16 39  1  0
 17 40  1  0
 21 41  1  0
 24 42  1  0
 25 43  1  0
M  CHG  3   3  -1  19  -1  27  -1
M  END
>  <UniqueID>  (10) 
10

>  <SMILES>  (10) 
O=C([N-]c1cc(S(=O)(=O)N2CCCCC2)ccc1[O-])c1cc(Cl)ccc1[O-]

>  <Energy>  (10) 
60.07836442373216

>  <Genealogy>  (10) 
O=C([N-]c1cc(S(=O)(=O)N2CCCCC2)ccc1[O-])c1cc(Cl)ccc1[O-] (protonated)
O=C([N-]c1cc(S(=O)(=O)N2CCCCC2)ccc1[O-])c1cc(Cl)ccc1[O-] (3D coordinates assigned)
O=C([N-]c1cc(S(=O)(=O)N2CCCCC2)ccc1[O-])c1cc(Cl)ccc1[O-] (nonaromatic ring conformer: 60.07836442373216 kcal/mol)

>  <smiles>  (10) 
O=C(Nc1cc(S(=O)(=O)N2CCCCC2)ccc1O)c1cc(Cl)ccc1O

>  <score_type>  (10) 
oracle

>  <origin>  (10) 
adgpu

>  <m_score__min__energy>  (10) 
-15.66

>  <m_primary>  (10) 
energy

$$$$
10:0
     RDKit          3D

 56 59  0  0  0  0  0  0  0  0999 V2000
   -5.0100   24.8900  -28.7670 O   0  0  0  0  0  0  0  0  0  0  0  0
   -4.1640   24.3350  -29.5150 C   0  0  0  0  0  0  0  0  0  0  0  0
   -4.4260   24.2610  -30.9220 N   0  0  0  0  0  0  0  0  0  0  0  0
   -4.9270   23.1040  -31.6080 C   0  0  0  0  0  0  0  0  0  0  0  0
   -4.0250   22.1310  -32.0470 C   0  0  0  0  0  0  0  0  0  0  0  0
   -4.4870   20.9510  -32.6370 C   0  0  0  0  0  0  0  0  0  0  0  0
   -5.8670   20.7060  -32.7620 C   0  0  0  0  0  0  0  0  0  0  0  0
   -6.3460   19.4500  -33.2950 N   0  0  0  0  0  0  0  0  0  0  0  0
   -7.5800   18.8310  -32.7920 C   0  0  0  0  0  0  0  0  0  0  0  0
   -7.4060   17.2990  -32.6760 C   0  0  0  0  0  0  0  0  0  0  0  0
   -6.2540   16.8030  -33.3410 O   0  0  0  0  0  0  0  0  0  0  0  0
   -6.1380   17.3850  -34.6240 C   0  0  0  0  0  0  0  0  0  0  0  0
   -5.7240   18.8540  -34.4850 C   0  0  0  0  0  0  0  0  0  0  0  0
   -6.7700   21.7040  -32.3510 C   0  0  0  0  0  0  0  0  0  0  0  0
   -6.3050   22.8910  -31.7760 C   0  0  0  0  0  0  0  0  0  0  0  0
   -2.9630   23.7020  -28.9260 C   0  0  0  0  0  0  0  0  0  0  0  0
   -3.0500   22.3980  -28.4120 C   0  0  0  0  0  0  0  0  0  0  0  0
   -1.9380   21.7860  -27.8200 C   0  0  0  0  0  0  0  0  0  0  0  0
   -2.0650   20.1510  -27.1770 S   0  0  0  0  0  0  0  0  0  0  0  0
   -3.5130   19.7520  -27.0930 O   0  0  0  0  0  0  0  0  0  0  0  0
   -1.4820   20.1260  -25.7910 O   0  0  0  0  0  0  0  0  0  0  0  0
   -1.1940   19.0370  -28.2010 N   0  0  0  0  0  0  0  0  0  0  0  0
   -0.8450   19.7030  -29.4750 C   0  0  0  0  0  0  0  0  0  0  0  0
    0.2250   18.9310  -30.2780 C   0  0  0  0  0  0  0  0  0  0  0  0
    0.3430   17.4800  -29.8090 C   0  0  0  0  0  0  0  0  0  0  0  0
    0.6600   17.4080  -28.3060 C   0  0  0  0  0  0  0  0  0  0  0  0
    0.0140   18.5550  -27.5100 C   0  0  0  0  0  0  0  0  0  0  0  0
   -0.7230   22.4770  -27.7510 C   0  0  0  0  0  0  0  0  0  0  0  0
   -0.6250   23.7760  -28.2570 C   0  0  0  0  0  0  0  0  0  0  0  0
   -1.7380   24.3930  -28.8400 C   0  0  0  0  0  0  0  0  0  0  0  0
   -1.6110   25.6840  -29.3420 O   0  0  0  0  0  0  0  0  0  0  0  0
   -2.9439   22.2949  -31.9274 H   0  0  0  0  0  0  0  0  0  0  0  0
   -3.7655   20.2075  -33.0068 H   0  0  0  0  0  0  0  0  0  0  0  0
   -7.8152   19.2452  -31.8005 H   0  0  0  0  0  0  0  0  0  0  0  0
   -8.3987   19.0449  -33.4949 H   0  0  0  0  0  0  0  0  0  0  0  0
   -7.3310   17.0378  -31.6101 H   0  0  0  0  0  0  0  0  0  0  0  0
   -8.2797   16.8389  -33.1607 H   0  0  0  0  0  0  0  0  0  0  0  0
   -5.3768   16.8432  -35.2046 H   0  0  0  0  0  0  0  0  0  0  0  0
   -7.1066   17.3252  -35.1419 H   0  0  0  0  0  0  0  0  0  0  0  0
   -4.6297   18.9150  -34.3913 H   0  0  0  0  0  0  0  0  0  0  0  0
   -6.0578   19.4051  -35.3765 H   0  0  0  0  0  0  0  0  0  0  0  0
   -7.8510   21.5491  -32.4832 H   0  0  0  0  0  0  0  0  0  0  0  0
   -7.0215   23.6610  -31.4540 H   0  0  0  0  0  0  0  0  0  0  0  0
   -4.0023   21.8511  -28.4751 H   0  0  0  0  0  0  0  0  0  0  0  0
   -1.7538   19.7861  -30.0891 H   0  0  0  0  0  0  0  0  0  0  0  0
   -0.4277   20.6908  -29.2299 H   0  0  0  0  0  0  0  0  0  0  0  0
   -0.0517   18.9407  -31.3426 H   0  0  0  0  0  0  0  0  0  0  0  0
    1.1957   19.4237  -30.1199 H   0  0  0  0  0  0  0  0  0  0  0  0
   -0.6083   16.9620  -30.0007 H   0  0  0  0  0  0  0  0  0  0  0  0
    1.1633   16.9996  -30.3625 H   0  0  0  0  0  0  0  0  0  0  0  0
    0.2858   16.4514  -27.9124 H   0  0  0  0  0  0  0  0  0  0  0  0
    1.7505   17.4951  -28.1908 H   0  0  0  0  0  0  0  0  0  0  0  0
   -0.2607   18.1924  -26.5085 H   0  0  0  0  0  0  0  0  0  0  0  0
    0.7334   19.3828  -27.4257 H   0  0  0  0  0  0  0  0  0  0  0  0
    0.1566   21.9967  -27.2976 H   0  0  0  0  0  0  0  0  0  0  0  0
    0.3313   24.3162  -28.1968 H   0  0  0  0  0  0  0  0  0  0  0  0
  1  2  2  0
  2  3  1  0
  3  4  1  0
  4  5  2  0
  5  6  1  0
  6  7  2  0
  7  8  1  0
  8  9  1  0
  9 10  1  0
 10 11  1  0
 11 12  1  0
 12 13  1  0
  7 14  1  0
 14 15  2  0
  2 16  1  0
 16 17  2  0
 17 18  1  0
 18 19  1  0
 19 20  2  0
 19 21  2  0
 19 22  1  0
 22 23  1  0
 23 24  1  0
 24 25  1  0
 25 26  1  0
 26 27  1  0
 18 28  2  0
 28 29  1  0
 29 30  2  0
 30 31  1  0
 15  4  1  0
 30 16  1  0
 13  8  1  0
 27 22  1  0
  5 32  1  0
  6 33  1  0
  9 34  1  0
  9 35  1  0
 10 36  1  0
 10 37  1  0
 12 38  1  0
 12 39  1  0
 13 40  1  0
 13 41  1  0
 14 42  1  0
 15 43  1  0
 17 44  1  0
 23 45  1  0
 23 46  1  0
 24 47  1  0
 24 48  1  0
 25 49  1  0
 25 50  1  0
 26 51  1  0
 26 52  1  0
 27 53  1  0
 27 54  1  0
 28 55  1  0
 29 56  1  0
M  CHG  2   3  -1  31  -1
M  END
>  <UniqueID>  (11) 
11

>  <SMILES>  (11) 
O=C([N-]c1ccc(N2CCOCC2)cc1)c1cc(S(=O)(=O)N2CCCCC2)ccc1[O-]

>  <Energy>  (11) 
77.34991219166486

>  <Genealogy>  (11) 
O=C([N-]c1ccc(N2CCOCC2)cc1)c1cc(S(=O)(=O)N2CCCCC2)ccc1[O-] (protonated)
O=C([N-]c1ccc(N2CCOCC2)cc1)c1cc(S(=O)(=O)N2CCCCC2)ccc1[O-] (3D coordinates assigned)
O=C([N-]c1ccc(N2CCOCC2)cc1)c1cc(S(=O)(=O)N2CCCCC2)ccc1[O-] (nonaromatic ring conformer: 77.34991219166486 kcal/mol)

>  <smiles>  (11) 
O=C(Nc1ccc(N2CCOCC2)cc1)c1cc(S(=O)(=O)N2CCCCC2)ccc1O

>  <score_type>  (11) 
oracle

>  <origin>  (11) 
adgpu

>  <m_score__min__energy>  (11) 
-13.69

>  <m_primary>  (11) 
energy

$$$$
11:0
     RDKit          3D

 51 54  0  0  0  0  0  0  0  0999 V2000
   -9.5140   19.4550  -32.7250 C   0  0  0  0  0  0  0  0  0  0  0  0
   -8.5570   18.6960  -31.8100 C   0  0  0  0  0  0  0  0  0  0  0  0
   -7.2310   18.4590  -32.4800 C   0  0  0  0  0  0  0  0  0  0  0  0
   -6.9250   17.2880  -32.8290 O   0  0  0  0  0  0  0  0  0  0  0  0
   -6.2550   19.5060  -32.6120 N   0  0  0  0  0  0  0  0  0  0  0  0
   -4.9690   19.3110  -33.2840 C   0  0  0  0  0  0  0  0  0  0  0  0
   -4.1090   20.5490  -32.9330 C   0  0  0  0  0  0  0  0  0  0  0  0
   -5.0370   21.3990  -32.1400 C   0  0  0  0  0  0  0  0  0  0  0  0
   -4.7920   22.6660  -31.6100 C   0  0  0  0  0  0  0  0  0  0  0  0
   -5.8270   23.3180  -30.9160 C   0  0  0  0  0  0  0  0  0  0  0  0
   -5.5020   24.8560  -30.1230 S   0  0  0  0  0  0  0  0  0  0  0  0
   -6.7750   25.6270  -29.9090 O   0  0  0  0  0  0  0  0  0  0  0  0
   -4.5780   25.6630  -30.9930 O   0  0  0  0  0  0  0  0  0  0  0  0
   -4.7470   24.5690  -28.5860 N   0  0  0  0  0  0  0  0  0  0  0  0
   -3.6480   23.6540  -28.4250 C   0  0  0  0  0  0  0  0  0  0  0  0
   -3.8490   22.3710  -27.8870 C   0  0  0  0  0  0  0  0  0  0  0  0
   -2.7920   21.4540  -27.7940 C   0  0  0  0  0  0  0  0  0  0  0  0
   -1.5070   21.8260  -28.2480 C   0  0  0  0  0  0  0  0  0  0  0  0
   -1.2960   23.1250  -28.7320 C   0  0  0  0  0  0  0  0  0  0  0  0
   -2.3560   24.0300  -28.8280 C   0  0  0  0  0  0  0  0  0  0  0  0
   -2.1190   25.3010  -29.3430 O   0  0  0  0  0  0  0  0  0  0  0  0
   -0.3260   20.8920  -28.1250 C   0  0  0  0  0  0  0  0  0  0  0  0
   -0.7490   19.4260  -27.9880 C   0  0  0  0  0  0  0  0  0  0  0  0
   -1.8290   19.2820  -26.9170 C   0  0  0  0  0  0  0  0  0  0  0  0
   -3.0910   20.0490  -27.3220 C   0  0  0  0  0  0  0  0  0  0  0  0
   -7.0910   22.7010  -30.7990 C   0  0  0  0  0  0  0  0  0  0  0  0
   -7.3110   21.4270  -31.3440 C   0  0  0  0  0  0  0  0  0  0  0  0
   -6.2470   20.7790  -31.9800 C   0  0  0  0  0  0  0  0  0  0  0  0
  -10.2311   20.0237  -32.1148 H   0  0  0  0  0  0  0  0  0  0  0  0
   -8.9422   20.1479  -33.3598 H   0  0  0  0  0  0  0  0  0  0  0  0
  -10.0584   18.7405  -33.3598 H   0  0  0  0  0  0  0  0  0  0  0  0
   -8.3956   19.2835  -30.8942 H   0  0  0  0  0  0  0  0  0  0  0  0
   -9.0050   17.7198  -31.5728 H   0  0  0  0  0  0  0  0  0  0  0  0
   -4.4835   18.3934  -32.9203 H   0  0  0  0  0  0  0  0  0  0  0  0
   -5.0959   19.2052  -34.3715 H   0  0  0  0  0  0  0  0  0  0  0  0
   -3.2308   20.2619  -32.3361 H   0  0  0  0  0  0  0  0  0  0  0  0
   -3.7103   21.0610  -33.8212 H   0  0  0  0  0  0  0  0  0  0  0  0
   -3.8095   23.1452  -31.7324 H   0  0  0  0  0  0  0  0  0  0  0  0
   -4.9910   25.2230  -27.8090 H   0  0  0  0  0  0  0  0  0  0  0  0
   -4.8499   22.0821  -27.5338 H   0  0  0  0  0  0  0  0  0  0  0  0
   -0.2861   23.4345  -29.0391 H   0  0  0  0  0  0  0  0  0  0  0  0
    0.3008   20.9958  -29.0230 H   0  0  0  0  0  0  0  0  0  0  0  0
    0.2244   21.1676  -27.2134 H   0  0  0  0  0  0  0  0  0  0  0  0
   -1.1440   19.0711  -28.9513 H   0  0  0  0  0  0  0  0  0  0  0  0
    0.1263   18.8276  -27.6953 H   0  0  0  0  0  0  0  0  0  0  0  0
   -2.0764   18.2174  -26.7932 H   0  0  0  0  0  0  0  0  0  0  0  0
   -1.4495   19.6954  -25.9709 H   0  0  0  0  0  0  0  0  0  0  0  0
   -3.5892   19.5025  -28.1363 H   0  0  0  0  0  0  0  0  0  0  0  0
   -3.7334   20.1263  -26.4324 H   0  0  0  0  0  0  0  0  0  0  0  0
   -7.9079   23.2217  -30.2778 H   0  0  0  0  0  0  0  0  0  0  0  0
   -8.2987   20.9482  -31.2727 H   0  0  0  0  0  0  0  0  0  0  0  0
  1  2  1  0
  2  3  1  0
  3  4  2  0
  3  5  1  0
  5  6  1  0
  6  7  1  0
  7  8  1  0
  8  9  2  0
  9 10  1  0
 10 11  1  0
 11 12  2  0
 11 13  2  0
 11 14  1  0
 14 15  1  0
 15 16  2  0
 16 17  1  0
 17 18  2  0
 18 19  1  0
 19 20  2  0
 20 21  1  0
 18 22  1  0
 22 23  1  0
 23 24  1  0
 24 25  1  0
 10 26  2  0
 26 27  1  0
 27 28  2  0
 28  5  1  0
 28  8  1  0
 20 15  1  0
 25 17  1  0
  1 29  1  0
  1 30  1  0
  1 31  1  0
  2 32  1  0
  2 33  1  0
  6 34  1  0
  6 35  1  0
  7 36  1  0
  7 37  1  0
  9 38  1  0
 14 39  1  0
 16 40  1  0
 19 41  1  0
 22 42  1  0
 22 43  1  0
 23 44  1  0
 23 45  1  0
 24 46  1  0
 24 47  1  0
 25 48  1  0
 25 49  1  0
 26 50  1  0
 27 51  1  0
M  CHG  1  21  -1
M  END
>  <UniqueID>  (12) 
12

>  <SMILES>  (12) 
CCC(=O)N1CCc2cc(S(=O)(=O)Nc3cc4c(cc3[O-])CCCC4)ccc21

>  <Energy>  (12) 
70.72114032181936

>  <Genealogy>  (12) 
CCC(=O)N1CCc2cc(S(=O)(=O)Nc3cc4c(cc3[O-])CCCC4)ccc21 (protonated)
CCC(=O)N1CCc2cc(S(=O)(=O)Nc3cc4c(cc3[O-])CCCC4)ccc21 (3D coordinates assigned)
CCC(=O)N1CCc2cc(S(=O)(=O)Nc3cc4c(cc3[O-])CCCC4)ccc21 (nonaromatic ring conformer: 70.72114032181936 kcal/mol)

>  <smiles>  (12) 
CCC(=O)N1CCc2cc(S(=O)(=O)Nc3cc4c(cc3O)CCCC4)ccc21

>  <score_type>  (12) 
oracle

>  <origin>  (12) 
adgpu

>  <m_score__min__energy>  (12) 
-14.609999999999999

>  <m_primary>  (12) 
energy

$$$$
12:0
     RDKit          3D

 39 41  0  0  0  0  0  0  0  0999 V2000
   -7.0740   17.7010  -32.8240 C   0  0  0  0  0  0  0  0  0  0  0  0
   -8.0320   18.2910  -31.7760 C   0  0  0  0  0  0  0  0  0  0  0  0
   -7.9840   19.7720  -31.6520 N   0  0  0  0  0  0  0  0  0  0  0  0
   -6.6700   20.3280  -32.0650 C   0  0  0  0  0  0  0  0  0  0  0  0
   -6.7590   21.7950  -32.5430 C   0  0  0  0  0  0  0  0  0  0  0  0
   -7.8110   22.5610  -31.8390 N   0  0  0  0  0  0  0  0  0  0  0  0
   -7.4530   22.8820  -30.4400 C   0  0  0  0  0  0  0  0  0  0  0  0
   -6.1430   23.6070  -30.3830 C   0  0  0  0  0  0  0  0  0  0  0  0
   -5.7050   24.5680  -31.2670 C   0  0  0  0  0  0  0  0  0  0  0  0
   -4.5290   24.9700  -30.8560 O   0  0  0  0  0  0  0  0  0  0  0  0
   -4.2480   24.2930  -29.7640 C   0  0  0  0  0  0  0  0  0  0  0  0
   -3.0070   24.4680  -29.0030 C   0  0  0  0  0  0  0  0  0  0  0  0
   -2.6630   23.7970  -27.8470 C   0  0  0  0  0  0  0  0  0  0  0  0
   -1.4210   24.2820  -27.4940 C   0  0  0  0  0  0  0  0  0  0  0  0
   -1.0870   25.2150  -28.4550 C   0  0  0  0  0  0  0  0  0  0  0  0
   -2.0520   25.3030  -29.3420 O   0  0  0  0  0  0  0  0  0  0  0  0
   -5.2230   23.4250  -29.4160 N   0  0  0  0  0  0  0  0  0  0  0  0
   -9.1550   21.9360  -31.9620 C   0  0  0  0  0  0  0  0  0  0  0  0
   -9.1090   20.4400  -32.3340 C   0  0  0  0  0  0  0  0  0  0  0  0
   -6.2437   17.1896  -32.3150 H   0  0  0  0  0  0  0  0  0  0  0  0
   -7.6175   16.9809  -33.4534 H   0  0  0  0  0  0  0  0  0  0  0  0
   -6.6755   18.5104  -33.4534 H   0  0  0  0  0  0  0  0  0  0  0  0
   -9.0579   18.0035  -32.0497 H   0  0  0  0  0  0  0  0  0  0  0  0
   -7.7135   17.8880  -30.8033 H   0  0  0  0  0  0  0  0  0  0  0  0
   -8.0950   19.9660  -30.6280 H   0  0  0  0  0  0  0  0  0  0  0  0
   -5.9835   20.2799  -31.2068 H   0  0  0  0  0  0  0  0  0  0  0  0
   -6.3098   19.7267  -32.9128 H   0  0  0  0  0  0  0  0  0  0  0  0
   -5.7893   22.2828  -32.3648 H   0  0  0  0  0  0  0  0  0  0  0  0
   -7.0165   21.7815  -33.6123 H   0  0  0  0  0  0  0  0  0  0  0  0
   -8.2372   23.5178  -30.0031 H   0  0  0  0  0  0  0  0  0  0  0  0
   -7.3635   21.9436  -29.8730 H   0  0  0  0  0  0  0  0  0  0  0  0
   -6.2440   24.9308  -32.1546 H   0  0  0  0  0  0  0  0  0  0  0  0
   -3.2550   23.0354  -27.3183 H   0  0  0  0  0  0  0  0  0  0  0  0
   -0.8185   23.9853  -26.6228 H   0  0  0  0  0  0  0  0  0  0  0  0
   -0.1537   25.7969  -28.4750 H   0  0  0  0  0  0  0  0  0  0  0  0
   -9.6757   22.0388  -30.9985 H   0  0  0  0  0  0  0  0  0  0  0  0
   -9.6785   22.4552  -32.7783 H   0  0  0  0  0  0  0  0  0  0  0  0
  -10.0519   19.9622  -32.0296 H   0  0  0  0  0  0  0  0  0  0  0  0
   -8.9708   20.3480  -33.4214 H   0  0  0  0  0  0  0  0  0  0  0  0
  1  2  1  0
  2  3  1  0
  3  4  1  0
  4  5  1  0
  5  6  1  0
  6  7  1  0
  7  8  1  0
  8  9  2  0
  9 10  1  0
 10 11  1  0
 11 12  1  0
 12 13  2  0
 13 14  1  0
 14 15  2  0
 15 16  1  0
 11 17  2  0
  6 18  1  0
 18 19  1  0
 19  3  1  0
 17  8  1  0
 16 12  1  0
  1 20  1  0
  1 21  1  0
  1 22  1  0
  2 23  1  0
  2 24  1  0
  3 25  1  0
  4 26  1  0
  4 27  1  0
  5 28  1  0
  5 29  1  0
  7 30  1  0
  7 31  1  0
  9 32  1  0
 13 33  1  0
 14 34  1  0
 15 35  1  0
 18 36  1  0
 18 37  1  0
 19 38  1  0
 19 39  1  0
M  CHG  1   3   1
M  END
>  <UniqueID>  (13) 
13

>  <SMILES>  (13) 
CC[NH+]1CCN(Cc2coc(-c3ccco3)n2)CC1

>  <Energy>  (13) 
108.47269598734069

>  <Genealogy>  (13) 
CC[NH+]1CCN(Cc2coc(-c3ccco3)n2)CC1 (protonated)
CC[NH+]1CCN(Cc2coc(-c3ccco3)n2)CC1 (3D coordinates assigned)
CC[NH+]1CCN(Cc2coc(-c3ccco3)n2)CC1 (nonaromatic ring conformer: 108.47269598734069 kcal/mol)

>  <smiles>  (13) 
CCN1CCN(Cc2coc(-c3ccco3)n2)CC1

>  <score_type>  (13) 
oracle

>  <origin>  (13) 
adgpu

>  <m_score__min__energy>  (13) 
-7.1900000000000004

>  <m_primary>  (13) 
energy

$$$$
13:0
     RDKit          3D

 43 45  0  0  0  0  0  0  0  0999 V2000
   -3.8630   25.3970  -30.4700 N   0  0  0  0  0  0  0  0  0  0  0  0
   -3.4940   24.0200  -30.4150 C   0  0  0  0  0  0  0  0  0  0  0  0
   -2.4440   23.6890  -29.8020 O   0  0  0  0  0  0  0  0  0  0  0  0
   -4.3320   22.9900  -31.0720 C   0  0  0  0  0  0  0  0  0  0  0  0
   -3.7840   22.1410  -32.0500 C   0  0  0  0  0  0  0  0  0  0  0  0
   -4.5740   21.1690  -32.6720 C   0  0  0  0  0  0  0  0  0  0  0  0
   -5.9280   21.0290  -32.3340 C   0  0  0  0  0  0  0  0  0  0  0  0
   -6.7330   20.0160  -32.9700 N   0  0  0  0  0  0  0  0  0  0  0  0
   -8.1890   20.1950  -33.1040 C   0  0  0  0  0  0  0  0  0  0  0  0
   -8.9370   19.7700  -31.8360 C   0  0  0  0  0  0  0  0  0  0  0  0
   -9.6960   20.8250  -31.3580 F   0  0  0  0  0  0  0  0  0  0  0  0
   -9.7610   18.6910  -32.0960 F   0  0  0  0  0  0  0  0  0  0  0  0
   -8.0220   19.4030  -30.8660 F   0  0  0  0  0  0  0  0  0  0  0  0
   -6.1660   18.7090  -33.1400 C   0  0  0  0  0  0  0  0  0  0  0  0
   -6.0750   17.8350  -32.0480 C   0  0  0  0  0  0  0  0  0  0  0  0
   -5.5260   16.5610  -32.2110 C   0  0  0  0  0  0  0  0  0  0  0  0
   -5.0580   16.1500  -33.4670 C   0  0  0  0  0  0  0  0  0  0  0  0
   -4.3910   14.5350  -33.6720 S   0  0  0  0  0  0  0  0  0  0  0  0
   -3.3810   14.5490  -34.7870 O   0  0  0  0  0  0  0  0  0  0  0  0
   -5.4900   13.5740  -34.0350 O   0  0  0  0  0  0  0  0  0  0  0  0
   -3.6520   14.0210  -32.1240 C   0  0  0  0  0  0  0  0  0  0  0  0
   -3.5610   12.5170  -31.9350 C   0  0  0  0  0  0  0  0  0  0  0  0
   -4.5940   13.3200  -31.1610 C   0  0  0  0  0  0  0  0  0  0  0  0
   -5.1550   17.0210  -34.5620 C   0  0  0  0  0  0  0  0  0  0  0  0
   -5.7040   18.2960  -34.3980 C   0  0  0  0  0  0  0  0  0  0  0  0
   -6.4760   21.8700  -31.3510 C   0  0  0  0  0  0  0  0  0  0  0  0
   -5.6870   22.8410  -30.7280 C   0  0  0  0  0  0  0  0  0  0  0  0
   -3.4870   26.0230  -31.2170 H   0  0  0  0  0  0  0  0  0  0  0  0
   -2.7246   22.2423  -32.3282 H   0  0  0  0  0  0  0  0  0  0  0  0
   -4.1301   20.5093  -33.4321 H   0  0  0  0  0  0  0  0  0  0  0  0
   -8.3999   21.2562  -33.3022 H   0  0  0  0  0  0  0  0  0  0  0  0
   -8.5353   19.5598  -33.9326 H   0  0  0  0  0  0  0  0  0  0  0  0
   -6.4371   18.1535  -31.0593 H   0  0  0  0  0  0  0  0  0  0  0  0
   -5.4606   15.8780  -31.3512 H   0  0  0  0  0  0  0  0  0  0  0  0
   -2.9485   14.8632  -32.0475 H   0  0  0  0  0  0  0  0  0  0  0  0
   -3.8813   11.8409  -32.7414 H   0  0  0  0  0  0  0  0  0  0  0  0
   -2.7595   11.8140  -31.6641 H   0  0  0  0  0  0  0  0  0  0  0  0
   -5.6619   13.2250  -31.4072 H   0  0  0  0  0  0  0  0  0  0  0  0
   -4.8499   13.4389  -30.0978 H   0  0  0  0  0  0  0  0  0  0  0  0
   -4.7983   16.7001  -35.5519 H   0  0  0  0  0  0  0  0  0  0  0  0
   -5.7739   18.9776  -35.2585 H   0  0  0  0  0  0  0  0  0  0  0  0
   -7.5340   21.7635  -31.0695 H   0  0  0  0  0  0  0  0  0  0  0  0
   -6.1301   23.4943  -29.9619 H   0  0  0  0  0  0  0  0  0  0  0  0
  1  2  1  0
  2  3  2  0
  2  4  1  0
  4  5  2  0
  5  6  1  0
  6  7  2  0
  7  8  1  0
  8  9  1  0
  9 10  1  0
 10 11  1  0
 10 12  1  0
 10 13  1  0
  8 14  1  0
 14 15  2  0
 15 16  1  0
 16 17  2  0
 17 18  1  0
 18 19  2  0
 18 20  2  0
 18 21  1  0
 21 22  1  0
 22 23  1  0
 17 24  1  0
 24 25  2  0
  7 26  1  0
 26 27  2  0
 27  4  1  0
 25 14  1  0
 23 21  1  0
  1 28  1  0
  5 29  1  0
  6 30  1  0
  9 31  1  0
  9 32  1  0
 15 33  1  0
 16 34  1  0
 21 35  1  0
 22 36  1  0
 22 37  1  0
 23 38  1  0
 23 39  1  0
 24 40  1  0
 25 41  1  0
 26 42  1  0
 27 43  1  0
M  CHG  1   1  -1
M  END
>  <UniqueID>  (14) 
14

>  <SMILES>  (14) 
[NH-]C(=O)c1ccc(N(CC(F)(F)F)c2ccc(S(=O)(=O)C3CC3)cc2)cc1

>  <Energy>  (14) 
316.7245336220582

>  <Genealogy>  (14) 
[NH-]C(=O)c1ccc(N(CC(F)(F)F)c2ccc(S(=O)(=O)C3CC3)cc2)cc1 (protonated)
[NH-]C(=O)c1ccc(N(CC(F)(F)F)c2ccc(S(=O)(=O)C3CC3)cc2)cc1 (3D coordinates assigned)
[NH-]C(=O)c1ccc(N(CC(F)(F)F)c2ccc(S(=O)(=O)C3CC3)cc2)cc1 (nonaromatic ring conformer: 316.7245336220582 kcal/mol)

>  <smiles>  (14) 
NC(=O)c1ccc(N(CC(F)(F)F)c2ccc(S(=O)(=O)C3CC3)cc2)cc1

>  <score_type>  (14) 
oracle

>  <origin>  (14) 
adgpu

>  <m_score__min__energy>  (14) 
-10.359999999999999

>  <m_primary>  (14) 
energy

$$$$
14:0
     RDKit          3D

 50 53  0  0  0  0  0  0  0  0999 V2000
   -4.3020   22.0510  -33.1270 O   0  0  0  0  0  0  0  0  0  0  0  0
   -5.0120   20.7900  -32.7170 S   0  0  0  0  0  0  0  0  0  0  0  0
   -4.2330   20.1490  -31.6020 O   0  0  0  0  0  0  0  0  0  0  0  0
   -5.1000   19.7220  -34.0810 N   0  0  0  0  0  0  0  0  0  0  0  0
   -5.1960   18.2890  -34.0290 C   0  0  0  0  0  0  0  0  0  0  0  0
   -6.4560   17.7300  -33.7580 C   0  0  0  0  0  0  0  0  0  0  0  0
   -6.6210   16.3410  -33.6730 C   0  0  0  0  0  0  0  0  0  0  0  0
   -5.5300   15.4960  -33.8850 C   0  0  0  0  0  0  0  0  0  0  0  0
   -4.2770   16.0380  -34.1820 C   0  0  0  0  0  0  0  0  0  0  0  0
   -4.0980   17.4250  -34.2590 C   0  0  0  0  0  0  0  0  0  0  0  0
   -2.8390   17.9080  -34.5750 O   0  0  0  0  0  0  0  0  0  0  0  0
   -6.6490   21.1660  -32.1500 C   0  0  0  0  0  0  0  0  0  0  0  0
   -7.6790   20.2800  -32.5110 C   0  0  0  0  0  0  0  0  0  0  0  0
   -8.9960   20.5330  -32.1440 C   0  0  0  0  0  0  0  0  0  0  0  0
   -9.3090   21.6740  -31.4080 C   0  0  0  0  0  0  0  0  0  0  0  0
   -8.3060   22.5550  -31.0200 C   0  0  0  0  0  0  0  0  0  0  0  0
   -6.9670   22.3150  -31.3660 C   0  0  0  0  0  0  0  0  0  0  0  0
   -5.7740   23.5010  -30.8090 S   0  0  0  0  0  0  0  0  0  0  0  0
   -5.3510   24.3590  -31.9640 O   0  0  0  0  0  0  0  0  0  0  0  0
   -6.3770   24.4020  -29.7750 O   0  0  0  0  0  0  0  0  0  0  0  0
   -4.3810   22.6700  -30.2030 N   0  0  0  0  0  0  0  0  0  0  0  0
   -3.4120   23.1920  -29.2840 C   0  0  0  0  0  0  0  0  0  0  0  0
   -2.8970   22.4220  -28.2340 C   0  0  0  0  0  0  0  0  0  0  0  0
   -1.8600   22.9140  -27.4260 C   0  0  0  0  0  0  0  0  0  0  0  0
   -1.3470   24.2110  -27.6640 C   0  0  0  0  0  0  0  0  0  0  0  0
   -1.9270   25.0060  -28.6580 C   0  0  0  0  0  0  0  0  0  0  0  0
   -2.9510   24.5030  -29.4640 C   0  0  0  0  0  0  0  0  0  0  0  0
   -3.4870   25.3040  -30.4700 O   0  0  0  0  0  0  0  0  0  0  0  0
   -0.2410   24.7880  -26.8110 C   0  0  0  0  0  0  0  0  0  0  0  0
    0.6030   23.6860  -26.1640 C   0  0  0  0  0  0  0  0  0  0  0  0
   -0.3050   22.7050  -25.4220 C   0  0  0  0  0  0  0  0  0  0  0  0
   -1.2430   21.9860  -26.4020 C   0  0  0  0  0  0  0  0  0  0  0  0
   -7.3233   18.3904  -33.6108 H   0  0  0  0  0  0  0  0  0  0  0  0
   -7.6088   15.9170  -33.4396 H   0  0  0  0  0  0  0  0  0  0  0  0
   -5.6567   14.4054  -33.8183 H   0  0  0  0  0  0  0  0  0  0  0  0
   -3.4221   15.3684  -34.3572 H   0  0  0  0  0  0  0  0  0  0  0  0
   -7.4402   19.3761  -33.0906 H   0  0  0  0  0  0  0  0  0  0  0  0
   -9.7918   19.8316  -32.4350 H   0  0  0  0  0  0  0  0  0  0  0  0
  -10.3542   21.8785  -31.1328 H   0  0  0  0  0  0  0  0  0  0  0  0
   -8.5646   23.4501  -30.4353 H   0  0  0  0  0  0  0  0  0  0  0  0
   -3.3095   21.4208  -28.0403 H   0  0  0  0  0  0  0  0  0  0  0  0
   -1.5734   26.0370  -28.8064 H   0  0  0  0  0  0  0  0  0  0  0  0
    0.4089   25.4115  -27.4425 H   0  0  0  0  0  0  0  0  0  0  0  0
   -0.6998   25.3861  -26.0099 H   0  0  0  0  0  0  0  0  0  0  0  0
    1.1611   23.1480  -26.9444 H   0  0  0  0  0  0  0  0  0  0  0  0
    1.3066   24.1397  -25.4505 H   0  0  0  0  0  0  0  0  0  0  0  0
    0.3160   21.9595  -24.9038 H   0  0  0  0  0  0  0  0  0  0  0  0
   -0.9134   23.2655  -24.6969 H   0  0  0  0  0  0  0  0  0  0  0  0
   -0.6682   21.2126  -26.9325 H   0  0  0  0  0  0  0  0  0  0  0  0
   -2.0661   21.5569  -25.8117 H   0  0  0  0  0  0  0  0  0  0  0  0
  1  2  2  0
  2  3  2  0
  2  4  1  0
  4  5  1  0
  5  6  2  0
  6  7  1  0
  7  8  2  0
  8  9  1  0
  9 10  2  0
 10 11  1  0
  2 12  1  0
 12 13  2  0
 13 14  1  0
 14 15  2  0
 15 16  1  0
 16 17  2  0
 17 18  1  0
 18 19  2  0
 18 20  2  0
 18 21  1  0
 21 22  1  0
 22 23  2  0
 23 24  1  0
 24 25  2  0
 25 26  1  0
 26 27  2  0
 27 28  1  0
 25 29  1  0
 29 30  1  0
 30 31  1  0
 31 32  1  0
 10  5  1  0
 17 12  1  0
 27 22  1  0
 32 24  1  0
  6 33  1  0
  7 34  1  0
  8 35  1  0
  9 36  1  0
 13 37  1  0
 14 38  1  0
 15 39  1  0
 16 40  1  0
 23 41  1  0
 26 42  1  0
 29 43  1  0
 29 44  1  0
 30 45  1  0
 30 46  1  0
 31 47  1  0
 31 48  1  0
 32 49  1  0
 32 50  1  0
M  CHG  4   4  -1  11  -1  21  -1  28  -1
M  END
>  <UniqueID>  (15) 
15

>  <SMILES>  (15) 
O=S(=O)([N-]c1ccccc1[O-])c1ccccc1S(=O)(=O)[N-]c1cc2c(cc1[O-])CCCC2

>  <Energy>  (15) 
70.82624071447577

>  <Genealogy>  (15) 
O=S(=O)([N-]c1ccccc1[O-])c1ccccc1S(=O)(=O)[N-]c1cc2c(cc1[O-])CCCC2 (protonated)
O=S(=O)([N-]c1ccccc1[O-])c1ccccc1S(=O)(=O)[N-]c1cc2c(cc1[O-])CCCC2 (3D coordinates assigned)
O=S(=O)([N-]c1ccccc1[O-])c1ccccc1S(=O)(=O)[N-]c1cc2c(cc1[O-])CCCC2 (nonaromatic ring conformer: 70.82624071447577 kcal/mol)

>  <smiles>  (15) 
O=S(=O)(Nc1ccccc1O)c1ccccc1S(=O)(=O)Nc1cc2c(cc1O)CCCC2

>  <score_type>  (15) 
oracle

>  <origin>  (15) 
adgpu

>  <m_score__min__energy>  (15) 
-16.120000000000001

>  <m_primary>  (15) 
energy

$$$$
15:0
     RDKit          3D

 63 66  0  0  0  0  0  0  0  0999 V2000
   -5.7400   18.4900  -31.7140 C   0  0  0  0  0  0  0  0  0  0  0  0
   -5.2680   18.9790  -33.1010 C   0  0  0  0  0  0  0  0  0  0  0  0
   -4.9610   17.7150  -33.9420 C   0  0  0  0  0  0  0  0  0  0  0  0
   -6.4200   19.7260  -33.8140 C   0  0  0  0  0  0  0  0  0  0  0  0
   -4.0370   19.9130  -32.9450 C   0  0  0  0  0  0  0  0  0  0  0  0
   -2.9030   19.7850  -33.7890 C   0  0  0  0  0  0  0  0  0  0  0  0
   -1.7790   20.5980  -33.6290 C   0  0  0  0  0  0  0  0  0  0  0  0
   -1.7480   21.5580  -32.6250 C   0  0  0  0  0  0  0  0  0  0  0  0
   -2.8460   21.7210  -31.7840 C   0  0  0  0  0  0  0  0  0  0  0  0
   -4.0000   20.9280  -31.9440 C   0  0  0  0  0  0  0  0  0  0  0  0
   -5.0950   21.1040  -31.0840 O   0  0  0  0  0  0  0  0  0  0  0  0
   -6.2970   21.7560  -31.3950 C   0  0  0  0  0  0  0  0  0  0  0  0
   -7.4810   21.0810  -31.4150 N   0  0  0  0  0  0  0  0  0  0  0  0
   -8.6590   21.7030  -31.6950 C   0  0  0  0  0  0  0  0  0  0  0  0
   -8.6780   23.0750  -31.9610 C   0  0  0  0  0  0  0  0  0  0  0  0
   -7.4800   23.7930  -31.9420 C   0  0  0  0  0  0  0  0  0  0  0  0
   -6.2720   23.1350  -31.6540 C   0  0  0  0  0  0  0  0  0  0  0  0
   -5.0240   23.8380  -31.5370 N   0  0  0  0  0  0  0  0  0  0  0  0
   -4.7970   25.0540  -30.8230 C   0  0  0  0  0  0  0  0  0  0  0  0
   -5.7230   25.8970  -30.6850 O   0  0  0  0  0  0  0  0  0  0  0  0
   -3.5020   25.2980  -30.2690 N   0  0  0  0  0  0  0  0  0  0  0  0
   -2.7710   24.4330  -29.3900 C   0  0  0  0  0  0  0  0  0  0  0  0
   -1.3660   24.4690  -29.3130 C   0  0  0  0  0  0  0  0  0  0  0  0
   -0.6860   23.5800  -28.4750 C   0  0  0  0  0  0  0  0  0  0  0  0
   -1.3970   22.6460  -27.7100 C   0  0  0  0  0  0  0  0  0  0  0  0
   -0.5350   21.5520  -26.6300 S   0  0  0  0  0  0  0  0  0  0  0  0
   -1.2060   21.5360  -25.2780 O   0  0  0  0  0  0  0  0  0  0  0  0
    0.8740   22.0640  -26.4570 O   0  0  0  0  0  0  0  0  0  0  0  0
   -0.5000   19.9360  -27.3140 N   0  0  0  0  0  0  0  0  0  0  0  0
    0.7450   19.7070  -28.0700 C   0  0  0  0  0  0  0  0  0  0  0  0
    0.3880   19.4830  -29.5320 C   0  0  0  0  0  0  0  0  0  0  0  0
   -1.0490   19.9240  -29.6580 C   0  0  0  0  0  0  0  0  0  0  0  0
   -1.6060   19.7530  -28.2630 C   0  0  0  0  0  0  0  0  0  0  0  0
   -2.7950   22.5990  -27.8000 C   0  0  0  0  0  0  0  0  0  0  0  0
   -3.4750   23.4780  -28.6470 C   0  0  0  0  0  0  0  0  0  0  0  0
   -5.2053   19.0440  -30.9284 H   0  0  0  0  0  0  0  0  0  0  0  0
   -6.8217   18.6626  -31.6129 H   0  0  0  0  0  0  0  0  0  0  0  0
   -5.5292   17.4151  -31.6129 H   0  0  0  0  0  0  0  0  0  0  0  0
   -4.7554   16.8686  -33.2702 H   0  0  0  0  0  0  0  0  0  0  0  0
   -5.8275   17.4774  -34.5765 H   0  0  0  0  0  0  0  0  0  0  0  0
   -4.0820   17.9014  -34.5765 H   0  0  0  0  0  0  0  0  0  0  0  0
   -7.0941   20.1631  -33.0626 H   0  0  0  0  0  0  0  0  0  0  0  0
   -6.0039   20.5266  -34.4432 H   0  0  0  0  0  0  0  0  0  0  0  0
   -6.9812   19.0194  -34.4432 H   0  0  0  0  0  0  0  0  0  0  0  0
   -2.9097   19.0282  -34.5872 H   0  0  0  0  0  0  0  0  0  0  0  0
   -0.9155   20.4781  -34.2998 H   0  0  0  0  0  0  0  0  0  0  0  0
   -0.8565   22.1890  -32.4945 H   0  0  0  0  0  0  0  0  0  0  0  0
   -2.8122   22.4772  -30.9859 H   0  0  0  0  0  0  0  0  0  0  0  0
   -9.5955   21.1262  -31.7119 H   0  0  0  0  0  0  0  0  0  0  0  0
   -9.6273   23.5845  -32.1832 H   0  0  0  0  0  0  0  0  0  0  0  0
   -7.4821   24.8727  -32.1523 H   0  0  0  0  0  0  0  0  0  0  0  0
   -0.8019   25.1980  -29.9133 H   0  0  0  0  0  0  0  0  0  0  0  0
    0.4119   23.6140  -28.4161 H   0  0  0  0  0  0  0  0  0  0  0  0
    1.4014   20.5850  -27.9787 H   0  0  0  0  0  0  0  0  0  0  0  0
    1.2714   18.8271  -27.6716 H   0  0  0  0  0  0  0  0  0  0  0  0
    1.0358   20.0868  -30.1845 H   0  0  0  0  0  0  0  0  0  0  0  0
    0.5250   18.4340  -29.8335 H   0  0  0  0  0  0  0  0  0  0  0  0
   -1.1092   20.9749  -29.9773 H   0  0  0  0  0  0  0  0  0  0  0  0
   -1.6055   19.3461  -30.4105 H   0  0  0  0  0  0  0  0  0  0  0  0
   -2.3873   20.5047  -28.0770 H   0  0  0  0  0  0  0  0  0  0  0  0
   -2.0519   18.7542  -28.1464 H   0  0  0  0  0  0  0  0  0  0  0  0
   -3.3586   21.8678  -27.2019 H   0  0  0  0  0  0  0  0  0  0  0  0
   -4.5703   23.4192  -28.7305 H   0  0  0  0  0  0  0  0  0  0  0  0
  1  2  1  0
  2  3  1  0
  2  4  1  0
  2  5  1  0
  5  6  2  0
  6  7  1  0
  7  8  2  0
  8  9  1  0
  9 10  2  0
 10 11  1  0
 11 12  1  0
 12 13  2  0
 13 14  1  0
 14 15  2  0
 15 16  1  0
 16 17  2  0
 17 18  1  0
 18 19  1  0
 19 20  2  0
 19 21  1  0
 21 22  1  0
 22 23  2  0
 23 24  1  0
 24 25  2  0
 25 26  1  0
 26 27  2  0
 26 28  2  0
 26 29  1  0
 29 30  1  0
 30 31  1  0
 31 32  1  0
 32 33  1  0
 25 34  1  0
 34 35  2  0
 10  5  1  0
 17 12  1  0
 35 22  1  0
 33 29  1  0
  1 36  1  0
  1 37  1  0
  1 38  1  0
  3 39  1  0
  3 40  1  0
  3 41  1  0
  4 42  1  0
  4 43  1  0
  4 44  1  0
  6 45  1  0
  7 46  1  0
  8 47  1  0
  9 48  1  0
 14 49  1  0
 15 50  1  0
 16 51  1  0
 23 52  1  0
 24 53  1  0
 30 54  1  0
 30 55  1  0
 31 56  1  0
 31 57  1  0
 32 58  1  0
 32 59  1  0
 33 60  1  0
 33 61  1  0
 34 62  1  0
 35 63  1  0
M  CHG  2  18  -1  21  -1
M  END
>  <UniqueID>  (16) 
16

>  <SMILES>  (16) 
CC(C)(C)c1ccccc1Oc1ncccc1[N-]C(=O)[N-]c1ccc(S(=O)(=O)N2CCCC2)cc1

>  <Energy>  (16) 
84.69291263402945

>  <Genealogy>  (16) 
CC(C)(C)c1ccccc1Oc1ncccc1[N-]C(=O)[N-]c1ccc(S(=O)(=O)N2CCCC2)cc1 (protonated)
CC(C)(C)c1ccccc1Oc1ncccc1[N-]C(=O)[N-]c1ccc(S(=O)(=O)N2CCCC2)cc1 (3D coordinates assigned)
CC(C)(C)c1ccccc1Oc1ncccc1[N-]C(=O)[N-]c1ccc(S(=O)(=O)N2CCCC2)cc1 (nonaromatic ring conformer: 84.69291263402945 kcal/mol)

>  <smiles>  (16) 
CC(C)(C)c1ccccc1Oc1ncccc1NC(=O)Nc1ccc(S(=O)(=O)N2CCCC2)cc1

>  <score_type>  (16) 
oracle

>  <origin>  (16) 
adgpu

>  <m_score__min__energy>  (16) 
-13.31

>  <m_primary>  (16) 
energy

$$$$
16:0
     RDKit          3D

 44 47  0  0  0  0  0  0  0  0999 V2000
   -3.8730   21.6970  -29.1620 C   0  0  0  0  0  0  0  0  0  0  0  0
   -4.0830   23.0340  -29.7260 N   0  0  0  0  0  0  0  0  0  0  0  0
   -3.4710   24.1740  -29.3260 C   0  0  0  0  0  0  0  0  0  0  0  0
   -2.5260   24.2920  -28.1940 C   0  0  0  0  0  0  0  0  0  0  0  0
   -2.9430   24.9460  -27.0270 C   0  0  0  0  0  0  0  0  0  0  0  0
   -2.0690   25.0990  -25.9530 C   0  0  0  0  0  0  0  0  0  0  0  0
   -0.7670   24.6070  -26.0310 C   0  0  0  0  0  0  0  0  0  0  0  0
   -0.3150   23.9530  -27.1930 C   0  0  0  0  0  0  0  0  0  0  0  0
    1.1010   23.4200  -27.2640 C   0  0  0  0  0  0  0  0  0  0  0  0
    1.8350   24.1700  -28.1640 F   0  0  0  0  0  0  0  0  0  0  0  0
    1.6920   23.5000  -26.0140 F   0  0  0  0  0  0  0  0  0  0  0  0
    1.1350   22.0970  -27.6720 F   0  0  0  0  0  0  0  0  0  0  0  0
   -1.2060   23.7950  -28.2850 C   0  0  0  0  0  0  0  0  0  0  0  0
   -0.6900   22.9370  -29.7440 Cl  0  0  0  0  0  0  0  0  0  0  0  0
   -3.8670   25.2310  -30.0550 N   0  0  0  0  0  0  0  0  0  0  0  0
   -4.7530   24.7840  -30.9280 N   0  0  0  0  0  0  0  0  0  0  0  0
   -4.9010   23.4560  -30.7310 C   0  0  0  0  0  0  0  0  0  0  0  0
   -5.8800   22.6290  -31.5720 C   0  0  0  0  0  0  0  0  0  0  0  0
   -5.1720   21.4250  -32.2040 C   0  0  0  0  0  0  0  0  0  0  0  0
   -3.8280   21.5190  -32.6210 C   0  0  0  0  0  0  0  0  0  0  0  0
   -3.2060   20.4500  -33.2700 C   0  0  0  0  0  0  0  0  0  0  0  0
   -3.9250   19.2850  -33.5510 C   0  0  0  0  0  0  0  0  0  0  0  0
   -3.1440   17.9460  -34.3720 Cl  0  0  0  0  0  0  0  0  0  0  0  0
   -5.2740   19.1990  -33.1990 C   0  0  0  0  0  0  0  0  0  0  0  0
   -5.8990   20.2670  -32.5500 C   0  0  0  0  0  0  0  0  0  0  0  0
   -6.7110   23.4350  -32.5900 C   0  0  0  0  0  0  0  0  0  0  0  0
   -7.9930   23.0570  -31.8590 C   0  0  0  0  0  0  0  0  0  0  0  0
   -7.1870   22.2520  -30.8470 C   0  0  0  0  0  0  0  0  0  0  0  0
   -3.8824   21.7568  -28.0637 H   0  0  0  0  0  0  0  0  0  0  0  0
   -4.6768   21.0262  -29.4996 H   0  0  0  0  0  0  0  0  0  0  0  0
   -2.9023   21.3050  -29.4996 H   0  0  0  0  0  0  0  0  0  0  0  0
   -3.9673   25.3412  -26.9585 H   0  0  0  0  0  0  0  0  0  0  0  0
   -2.4076   25.6101  -25.0397 H   0  0  0  0  0  0  0  0  0  0  0  0
   -0.0860   24.7310  -25.1761 H   0  0  0  0  0  0  0  0  0  0  0  0
   -3.2635   22.4442  -32.4331 H   0  0  0  0  0  0  0  0  0  0  0  0
   -2.1478   20.5252  -33.5606 H   0  0  0  0  0  0  0  0  0  0  0  0
   -5.8454   18.2887  -33.4332 H   0  0  0  0  0  0  0  0  0  0  0  0
   -6.9698   20.2039  -32.3063 H   0  0  0  0  0  0  0  0  0  0  0  0
   -6.4965   24.5139  -32.5885 H   0  0  0  0  0  0  0  0  0  0  0  0
   -6.6096   23.2370  -33.6673 H   0  0  0  0  0  0  0  0  0  0  0  0
   -8.5302   23.9131  -31.4248 H   0  0  0  0  0  0  0  0  0  0  0  0
   -8.8246   22.5875  -32.4049 H   0  0  0  0  0  0  0  0  0  0  0  0
   -7.2534   22.6330  -29.8172 H   0  0  0  0  0  0  0  0  0  0  0  0
   -7.4310   21.1959  -30.6598 H   0  0  0  0  0  0  0  0  0  0  0  0
  1  2  1  0
  2  3  1  0
  3  4  1  0
  4  5  2  0
  5  6  1  0
  6  7  2  0
  7  8  1  0
  8  9  1  0
  9 10  1  0
  9 11  1  0
  9 12  1  0
  8 13  2  0
 13 14  1  0
  3 15  2  0
 15 16  1  0
 16 17  2  0
 17 18  1  0
 18 19  1  0
 19 20  2  0
 20 21  1  0
 21 22  2  0
 22 23  1  0
 22 24  1  0
 24 25  2  0
 18 26  1  0
 26 27  1  0
 27 28  1  0
 17  2  1  0
 28 18  1  0
 13  4  1  0
 25 19  1  0
  1 29  1  0
  1 30  1  0
  1 31  1  0
  5 32  1  0
  6 33  1  0
  7 34  1  0
 20 35  1  0
 21 36  1  0
 24 37  1  0
 25 38  1  0
 26 39  1  0
 26 40  1  0
 27 41  1  0
 27 42  1  0
 28 43  1  0
 28 44  1  0
M  END
>  <UniqueID>  (17) 
17

>  <SMILES>  (17) 
Cn1c(-c2cccc(C(F)(F)F)c2Cl)nnc1C1(c2ccc(Cl)cc2)CCC1

>  <Energy>  (17) 
161.3019309160091

>  <Genealogy>  (17) 
Cn1c(-c2cccc(C(F)(F)F)c2Cl)nnc1C1(c2ccc(Cl)cc2)CCC1 (3D coordinates assigned)
Cn1c(-c2cccc(C(F)(F)F)c2Cl)nnc1C1(c2ccc(Cl)cc2)CCC1 (nonaromatic ring conformer: 161.3019309160091 kcal/mol)

>  <smiles>  (17) 
Cn1c(-c2cccc(C(F)(F)F)c2Cl)nnc1C1(c2ccc(Cl)cc2)CCC1

>  <score_type>  (17) 
oracle

>  <origin>  (17) 
adgpu

>  <m_score__min__energy>  (17) 
-8.8300000000000001

>  <m_primary>  (17) 
energy

$$$$
17:0
     RDKit          3D

 59 62  0  0  0  0  0  0  0  0999 V2000
   -0.8310   23.5350  -29.2490 O   0  0  0  0  0  0  0  0  0  0  0  0
   -1.7960   24.3420  -29.3150 C   0  0  0  0  0  0  0  0  0  0  0  0
   -1.5720   25.7150  -28.9660 N   0  0  0  0  0  0  0  0  0  0  0  0
   -0.8960   26.1980  -27.7580 C   0  0  2  0  0  0  0  0  0  0  0  0
    0.4160   25.4220  -27.4990 C   0  0  0  0  0  0  0  0  0  0  0  0
    0.2320   24.2190  -26.5510 C   0  0  0  0  0  0  0  0  0  0  0  0
   -1.1200   23.6340  -26.6820 N   0  0  1  0  0  0  0  0  0  0  0  0
   -1.2330   22.3640  -25.9230 C   0  0  0  0  0  0  0  0  0  0  0  0
   -0.9880   21.1560  -26.7980 C   0  0  0  0  0  0  0  0  0  0  0  0
    0.0300   21.1710  -27.7670 C   0  0  0  0  0  0  0  0  0  0  0  0
    0.2420   20.0550  -28.5830 C   0  0  0  0  0  0  0  0  0  0  0  0
   -0.5590   18.9190  -28.4390 C   0  0  0  0  0  0  0  0  0  0  0  0
   -1.5730   18.8960  -27.4780 C   0  0  0  0  0  0  0  0  0  0  0  0
   -1.7880   20.0100  -26.6600 C   0  0  0  0  0  0  0  0  0  0  0  0
   -2.1600   24.5910  -26.2170 C   0  0  0  0  0  0  0  0  0  0  0  0
   -1.8460   26.0670  -26.5620 C   0  0  0  0  0  0  0  0  0  0  0  0
   -3.1080   23.8530  -29.7780 C   0  0  0  0  0  0  0  0  0  0  0  0
   -3.1790   22.9640  -30.8600 C   0  0  0  0  0  0  0  0  0  0  0  0
   -4.4180   22.5080  -31.3170 C   0  0  0  0  0  0  0  0  0  0  0  0
   -5.6010   22.9290  -30.6940 C   0  0  0  0  0  0  0  0  0  0  0  0
   -7.1680   22.3700  -31.2860 S   0  0  0  0  0  0  0  0  0  0  0  0
   -7.7920   23.4540  -32.1210 O   0  0  0  0  0  0  0  0  0  0  0  0
   -8.0710   22.1100  -30.1130 O   0  0  0  0  0  0  0  0  0  0  0  0
   -7.0480   20.9130  -32.2440 N   0  0  0  0  0  0  0  0  0  0  0  0
   -8.3420   20.2510  -32.4020 C   0  0  0  0  0  0  0  0  0  0  0  0
   -8.0430   18.7810  -32.6550 C   0  0  0  0  0  0  0  0  0  0  0  0
   -6.6240   18.5650  -32.1490 C   0  0  0  0  0  0  0  0  0  0  0  0
   -6.1720   19.9200  -31.6260 C   0  0  0  0  0  0  0  0  0  0  0  0
   -5.5270   23.7840  -29.5850 C   0  0  0  0  0  0  0  0  0  0  0  0
   -4.2880   24.2400  -29.1270 C   0  0  0  0  0  0  0  0  0  0  0  0
   -0.6282   27.2553  -27.9007 H   0  0  0  0  0  0  0  0  0  0  0  0
    0.8002   25.0533  -28.4615 H   0  0  0  0  0  0  0  0  0  0  0  0
    1.1171   26.1170  -27.0138 H   0  0  0  0  0  0  0  0  0  0  0  0
    0.9802   23.4511  -26.7971 H   0  0  0  0  0  0  0  0  0  0  0  0
    0.3601   24.5694  -25.5162 H   0  0  0  0  0  0  0  0  0  0  0  0
   -1.3010   23.4250  -27.6930 H   0  0  0  0  0  0  0  0  0  0  0  0
   -0.4921   22.3694  -25.1099 H   0  0  0  0  0  0  0  0  0  0  0  0
   -2.2574   22.2948  -25.5284 H   0  0  0  0  0  0  0  0  0  0  0  0
    0.6622   22.0636  -27.8840 H   0  0  0  0  0  0  0  0  0  0  0  0
    1.0405   20.0715  -29.3393 H   0  0  0  0  0  0  0  0  0  0  0  0
   -0.3912   18.0427  -29.0824 H   0  0  0  0  0  0  0  0  0  0  0  0
   -2.2026   18.0012  -27.3647 H   0  0  0  0  0  0  0  0  0  0  0  0
   -2.5876   19.9884  -25.9049 H   0  0  0  0  0  0  0  0  0  0  0  0
   -3.1166   24.3202  -26.6878 H   0  0  0  0  0  0  0  0  0  0  0  0
   -2.1967   24.5180  -25.1200 H   0  0  0  0  0  0  0  0  0  0  0  0
   -2.7881   26.5821  -26.8011 H   0  0  0  0  0  0  0  0  0  0  0  0
   -1.3507   26.5175  -25.6892 H   0  0  0  0  0  0  0  0  0  0  0  0
   -2.2552   22.6242  -31.3511 H   0  0  0  0  0  0  0  0  0  0  0  0
   -4.4654   21.8151  -32.1700 H   0  0  0  0  0  0  0  0  0  0  0  0
   -8.9423   20.3654  -31.4874 H   0  0  0  0  0  0  0  0  0  0  0  0
   -8.9165   20.6900  -33.2310 H   0  0  0  0  0  0  0  0  0  0  0  0
   -8.7497   18.1439  -32.1031 H   0  0  0  0  0  0  0  0  0  0  0  0
   -8.1423   18.5203  -33.7190 H   0  0  0  0  0  0  0  0  0  0  0  0
   -6.6126   17.8175  -31.3421 H   0  0  0  0  0  0  0  0  0  0  0  0
   -5.9596   18.1894  -32.9411 H   0  0  0  0  0  0  0  0  0  0  0  0
   -6.2682   19.9566  -30.5308 H   0  0  0  0  0  0  0  0  0  0  0  0
   -5.1168   20.1108  -31.8714 H   0  0  0  0  0  0  0  0  0  0  0  0
   -6.4488   24.0973  -29.0730 H   0  0  0  0  0  0  0  0  0  0  0  0
   -4.2383   24.9052  -28.2523 H   0  0  0  0  0  0  0  0  0  0  0  0
  1  2  2  0
  2  3  1  0
  3  4  1  0
  4  5  1  0
  5  6  1  0
  6  7  1  0
  7  8  1  0
  8  9  1  0
  9 10  2  0
 10 11  1  0
 11 12  2  0
 12 13  1  0
 13 14  2  0
  7 15  1  0
 15 16  1  0
  2 17  1  0
 17 18  2  0
 18 19  1  0
 19 20  2  0
 20 21  1  0
 21 22  2  0
 21 23  2  0
 21 24  1  0
 24 25  1  0
 25 26  1  0
 26 27  1  0
 27 28  1  0
 20 29  1  0
 29 30  2  0
 16  4  1  0
 30 17  1  0
 14  9  1  0
 28 24  1  0
  4 31  1  6
  5 32  1  0
  5 33  1  0
  6 34  1  0
  6 35  1  0
  7 36  1  6
  8 37  1  0
  8 38  1  0
 10 39  1  0
 11 40  1  0
 12 41  1  0
 13 42  1  0
 14 43  1  0
 15 44  1  0
 15 45  1  0
 16 46  1  0
 16 47  1  0
 18 48  1  0
 19 49  1  0
 25 50  1  0
 25 51  1  0
 26 52  1  0
 26 53  1  0
 27 54  1  0
 27 55  1  0
 28 56  1  0
 28 57  1  0
 29 58  1  0
 30 59  1  0
M  CHG  2   3  -1   7   1
M  END
>  <UniqueID>  (18) 
18

>  <SMILES>  (18) 
O=C([N-]C1CC[NH+](Cc2ccccc2)CC1)c1ccc(S(=O)(=O)N2CCCC2)cc1

>  <Energy>  (18) 
73.35131752002947

>  <Genealogy>  (18) 
O=C([N-]C1CC[NH+](Cc2ccccc2)CC1)c1ccc(S(=O)(=O)N2CCCC2)cc1 (protonated)
O=C([N-]C1CC[NH+](Cc2ccccc2)CC1)c1ccc(S(=O)(=O)N2CCCC2)cc1 (3D coordinates assigned)
O=C([N-]C1CC[NH+](Cc2ccccc2)CC1)c1ccc(S(=O)(=O)N2CCCC2)cc1 (nonaromatic ring conformer: 73.35131752002947 kcal/mol)

>  <smiles>  (18) 
O=C(NC1CCN(Cc2ccccc2)CC1)c1ccc(S(=O)(=O)N2CCCC2)cc1

>  <score_type>  (18) 
oracle

>  <origin>  (18) 
adgpu

>  <m_score__min__energy>  (18) 
-11.800000000000001

>  <m_primary>  (18) 
energy

$$$$
18:0
     RDKit          3D

 53 55  0  0  0  0  0  0  0  0999 V2000
   -0.8570   26.4470  -24.3660 C   0  0  0  0  0  0  0  0  0  0  0  0
   -0.4590   26.2280  -25.8220 C   0  0  0  0  0  0  0  0  0  0  0  0
   -1.5790   25.5810  -26.5900 C   0  0  0  0  0  0  0  0  0  0  0  0
   -2.8070   25.3090  -25.9620 C   0  0  0  0  0  0  0  0  0  0  0  0
   -3.8630   24.7500  -26.6880 C   0  0  0  0  0  0  0  0  0  0  0  0
   -3.7190   24.4740  -28.0580 C   0  0  0  0  0  0  0  0  0  0  0  0
   -4.8180   23.8910  -28.7820 N   0  0  0  0  0  0  0  0  0  0  0  0
   -4.9420   23.9320  -30.2150 C   0  0  0  0  0  0  0  0  0  0  0  0
   -4.2590   24.7600  -30.8780 O   0  0  0  0  0  0  0  0  0  0  0  0
   -5.9010   23.0410  -30.9090 C   0  0  0  0  0  0  0  0  0  0  0  0
   -7.5680   23.0610  -30.6670 S   0  0  0  0  0  0  0  0  0  0  0  0
   -7.9450   21.8330  -31.7450 C   0  0  0  0  0  0  0  0  0  0  0  0
   -9.3230   21.3250  -32.0050 C   0  0  0  0  0  0  0  0  0  0  0  0
   -6.7590   21.3500  -32.3050 C   0  0  0  0  0  0  0  0  0  0  0  0
   -6.7130   20.2370  -33.3160 C   0  0  0  0  0  0  0  0  0  0  0  0
   -5.6110   22.0440  -31.8540 C   0  0  0  0  0  0  0  0  0  0  0  0
   -3.9340   21.6430  -32.4050 S   0  0  0  0  0  0  0  0  0  0  0  0
   -3.4840   20.7220  -30.8890 C   0  0  0  0  0  0  0  0  0  0  0  0
   -2.4200   21.4610  -30.1270 C   0  0  0  0  0  0  0  0  0  0  0  0
   -1.7590   22.3480  -30.7290 O   0  0  0  0  0  0  0  0  0  0  0  0
   -2.1290   21.1640  -28.7420 N   0  0  0  0  0  0  0  0  0  0  0  0
   -1.1390   21.9100  -27.9840 C   0  0  0  0  0  0  0  0  0  0  0  0
   -0.8530   21.0650  -26.7500 C   0  0  0  0  0  0  0  0  0  0  0  0
   -2.0320   20.1020  -26.6190 C   0  0  0  0  0  0  0  0  0  0  0  0
   -2.6710   20.0380  -28.0040 C   0  0  0  0  0  0  0  0  0  0  0  0
   -2.4820   24.7280  -28.6800 C   0  0  0  0  0  0  0  0  0  0  0  0
   -1.4270   25.2880  -27.9550 C   0  0  0  0  0  0  0  0  0  0  0  0
   -0.0853   26.0224  -23.7071 H   0  0  0  0  0  0  0  0  0  0  0  0
   -0.9534   27.5252  -24.1704 H   0  0  0  0  0  0  0  0  0  0  0  0
   -1.8194   25.9514  -24.1704 H   0  0  0  0  0  0  0  0  0  0  0  0
   -0.2208   27.1990  -26.2808 H   0  0  0  0  0  0  0  0  0  0  0  0
    0.4183   25.5651  -25.8520 H   0  0  0  0  0  0  0  0  0  0  0  0
   -2.9377   25.5372  -24.8939 H   0  0  0  0  0  0  0  0  0  0  0  0
   -4.8137   24.5246  -26.1827 H   0  0  0  0  0  0  0  0  0  0  0  0
   -5.6120   23.5020  -28.2270 H   0  0  0  0  0  0  0  0  0  0  0  0
   -9.8314   21.1376  -31.0477 H   0  0  0  0  0  0  0  0  0  0  0  0
   -9.8876   22.0741  -32.5795 H   0  0  0  0  0  0  0  0  0  0  0  0
   -9.2663   20.3887  -32.5795 H   0  0  0  0  0  0  0  0  0  0  0  0
   -6.6730   19.2693  -32.7945 H   0  0  0  0  0  0  0  0  0  0  0  0
   -7.6136   20.2768  -33.9464 H   0  0  0  0  0  0  0  0  0  0  0  0
   -5.8188   20.3510  -33.9464 H   0  0  0  0  0  0  0  0  0  0  0  0
   -4.3750   20.6114  -30.2535 H   0  0  0  0  0  0  0  0  0  0  0  0
   -3.0987   19.7316  -31.1728 H   0  0  0  0  0  0  0  0  0  0  0  0
   -0.2230   22.0468  -28.5774 H   0  0  0  0  0  0  0  0  0  0  0  0
   -1.4999   22.9143  -27.7172 H   0  0  0  0  0  0  0  0  0  0  0  0
    0.0854   20.5056  -26.8785 H   0  0  0  0  0  0  0  0  0  0  0  0
   -0.7394   21.6887  -25.8511 H   0  0  0  0  0  0  0  0  0  0  0  0
   -1.6808   19.1056  -26.3125 H   0  0  0  0  0  0  0  0  0  0  0  0
   -2.7493   20.4407  -25.8569 H   0  0  0  0  0  0  0  0  0  0  0  0
   -2.4111   19.0925  -28.5024 H   0  0  0  0  0  0  0  0  0  0  0  0
   -3.7686   20.0826  -27.9459 H   0  0  0  0  0  0  0  0  0  0  0  0
   -2.3450   24.4840  -29.7438 H   0  0  0  0  0  0  0  0  0  0  0  0
   -0.4714   25.5007  -28.4566 H   0  0  0  0  0  0  0  0  0  0  0  0
  1  2  1  0
  2  3  1  0
  3  4  2  0
  4  5  1  0
  5  6  2  0
  6  7  1  0
  7  8  1  0
  8  9  2  0
  8 10  1  0
 10 11  1  0
 11 12  1  0
 12 13  1  0
 12 14  2  0
 14 15  1  0
 14 16  1  0
 16 17  1  0
 17 18  1  0
 18 19  1  0
 19 20  2  0
 19 21  1  0
 21 22  1  0
 22 23  1  0
 23 24  1  0
 24 25  1  0
  6 26  1  0
 26 27  2  0
 27  3  1  0
 16 10  2  0
 25 21  1  0
  1 28  1  0
  1 29  1  0
  1 30  1  0
  2 31  1  0
  2 32  1  0
  4 33  1  0
  5 34  1  0
  7 35  1  0
 13 36  1  0
 13 37  1  0
 13 38  1  0
 15 39  1  0
 15 40  1  0
 15 41  1  0
 18 42  1  0
 18 43  1  0
 22 44  1  0
 22 45  1  0
 23 46  1  0
 23 47  1  0
 24 48  1  0
 24 49  1  0
 25 50  1  0
 25 51  1  0
 26 52  1  0
 27 53  1  0
M  END
>  <UniqueID>  (19) 
19

>  <SMILES>  (19) 
CCc1ccc(NC(=O)c2sc(C)c(C)c2SCC(=O)N2CCCC2)cc1

>  <Energy>  (19) 
73.70705878310002

>  <Genealogy>  (19) 
CCc1ccc(NC(=O)c2sc(C)c(C)c2SCC(=O)N2CCCC2)cc1 (3D coordinates assigned)
CCc1ccc(NC(=O)c2sc(C)c(C)c2SCC(=O)N2CCCC2)cc1 (nonaromatic ring conformer: 73.70705878310002 kcal/mol)

>  <smiles>  (19) 
CCc1ccc(NC(=O)c2sc(C)c(C)c2SCC(=O)N2CCCC2)cc1

>  <score_type>  (19) 
oracle

>  <origin>  (19) 
adgpu

>  <m_score__min__energy>  (19) 
-9.3900000000000006

>  <m_primary>  (19) 
energy

$$$$
19:0
     RDKit          3D

 40 42  0  0  0  0  0  0  0  0999 V2000
   -5.7670   25.4190  -29.7980 C   0  0  0  0  0  0  0  0  0  0  0  0
   -4.4020   25.3310  -30.1870 O   0  0  0  0  0  0  0  0  0  0  0  0
   -3.6550   24.1400  -30.2230 C   0  0  0  0  0  0  0  0  0  0  0  0
   -4.1780   22.9550  -30.7790 C   0  0  0  0  0  0  0  0  0  0  0  0
   -3.4310   21.7650  -30.7630 C   0  0  0  0  0  0  0  0  0  0  0  0
   -3.9590   20.5430  -31.3080 N   0  0  0  0  0  0  0  0  0  0  0  0
   -4.6460   20.4650  -32.5680 C   0  0  0  0  0  0  0  0  0  0  0  0
   -4.4680   21.3660  -33.4340 O   0  0  0  0  0  0  0  0  0  0  0  0
   -5.5250   19.3130  -32.8850 C   0  0  0  0  0  0  0  0  0  0  0  0
   -6.6090   18.9960  -32.0440 C   0  0  0  0  0  0  0  0  0  0  0  0
   -7.4370   17.9070  -32.3340 C   0  0  0  0  0  0  0  0  0  0  0  0
   -7.1900   17.1190  -33.4600 C   0  0  0  0  0  0  0  0  0  0  0  0
   -6.1120   17.4170  -34.2960 C   0  0  0  0  0  0  0  0  0  0  0  0
   -5.2820   18.5050  -34.0130 C   0  0  0  0  0  0  0  0  0  0  0  0
   -2.1740   21.7550  -30.1460 C   0  0  0  0  0  0  0  0  0  0  0  0
   -1.6450   22.9260  -29.6010 C   0  0  0  0  0  0  0  0  0  0  0  0
   -2.3600   24.1270  -29.6650 C   0  0  0  0  0  0  0  0  0  0  0  0
   -1.7700   25.3050  -29.0960 N   0  0  0  0  0  0  0  0  0  0  0  0
   -0.7870   25.3370  -28.0530 C   0  0  0  0  0  0  0  0  0  0  0  0
    0.2780   24.6820  -28.2040 O   0  0  0  0  0  0  0  0  0  0  0  0
   -0.9650   26.1590  -26.8430 C   0  0  0  0  0  0  0  0  0  0  0  0
   -1.5960   25.7580  -25.6800 C   0  0  0  0  0  0  0  0  0  0  0  0
   -1.5280   26.8390  -24.8270 C   0  0  0  0  0  0  0  0  0  0  0  0
   -0.8580   27.8280  -25.5170 C   0  0  0  0  0  0  0  0  0  0  0  0
   -0.5330   27.3920  -26.7120 O   0  0  0  0  0  0  0  0  0  0  0  0
   -5.8358   25.4234  -28.7002 H   0  0  0  0  0  0  0  0  0  0  0  0
   -6.2027   26.3471  -30.1965 H   0  0  0  0  0  0  0  0  0  0  0  0
   -6.3183   24.5545  -30.1965 H   0  0  0  0  0  0  0  0  0  0  0  0
   -5.1812   22.9619  -31.2301 H   0  0  0  0  0  0  0  0  0  0  0  0
   -3.7260   19.6490  -30.8190 H   0  0  0  0  0  0  0  0  0  0  0  0
   -6.8059   19.6094  -31.1524 H   0  0  0  0  0  0  0  0  0  0  0  0
   -8.2845   17.6707  -31.6738 H   0  0  0  0  0  0  0  0  0  0  0  0
   -7.8439   16.2644  -33.6882 H   0  0  0  0  0  0  0  0  0  0  0  0
   -5.9155   16.7931  -35.1804 H   0  0  0  0  0  0  0  0  0  0  0  0
   -4.4335   18.7319  -34.6753 H   0  0  0  0  0  0  0  0  0  0  0  0
   -1.5999   20.8184  -30.0905 H   0  0  0  0  0  0  0  0  0  0  0  0
   -0.6574   22.9045  -29.1170 H   0  0  0  0  0  0  0  0  0  0  0  0
   -2.0565   24.7798  -25.4774 H   0  0  0  0  0  0  0  0  0  0  0  0
   -1.9270   26.9004  -23.8038 H   0  0  0  0  0  0  0  0  0  0  0  0
   -0.6305   28.8304  -25.1252 H   0  0  0  0  0  0  0  0  0  0  0  0
  1  2  1  0
  2  3  1  0
  3  4  2  0
  4  5  1  0
  5  6  1  0
  6  7  1  0
  7  8  2  0
  7  9  1  0
  9 10  2  0
 10 11  1  0
 11 12  2  0
 12 13  1  0
 13 14  2  0
  5 15  2  0
 15 16  1  0
 16 17  2  0
 17 18  1  0
 18 19  1  0
 19 20  2  0
 19 21  1  0
 21 22  2  0
 22 23  1  0
 23 24  2  0
 24 25  1  0
 17  3  1  0
 25 21  1  0
 14  9  1  0
  1 26  1  0
  1 27  1  0
  1 28  1  0
  4 29  1  0
  6 30  1  0
 10 31  1  0
 11 32  1  0
 12 33  1  0
 13 34  1  0
 14 35  1  0
 15 36  1  0
 16 37  1  0
 22 38  1  0
 23 39  1  0
 24 40  1  0
M  CHG  1  18  -1
M  END
>  <UniqueID>  (20) 
20

>  <SMILES>  (20) 
COc1cc(NC(=O)c2ccccc2)ccc1[N-]C(=O)c1ccco1

>  <Energy>  (20) 
78.51559165270602

>  <Genealogy>  (20) 
COc1cc(NC(=O)c2ccccc2)ccc1[N-]C(=O)c1ccco1 (protonated)
COc1cc(NC(=O)c2ccccc2)ccc1[N-]C(=O)c1ccco1 (3D coordinates assigned)
COc1cc(NC(=O)c2ccccc2)ccc1[N-]C(=O)c1ccco1 (optimized conformer: 78.51559165270602 kcal/mol)

>  <smiles>  (20) 
COc1cc(NC(=O)c2ccccc2)ccc1NC(=O)c1ccco1

>  <score_type>  (20) 
oracle

>  <origin>  (20) 
adgpu

>  <m_score__min__energy>  (20) 
-10.210000000000001

>  <m_primary>  (20) 
energy

$$$$
20:0
     RDKit          3D

 48 50  0  0  0  0  0  0  0  0999 V2000
   -5.3750   25.5720  -30.5390 C   0  0  0  0  0  0  0  0  0  0  0  0
   -3.9700   25.3470  -30.8430 N   0  0  0  0  0  0  0  0  0  0  0  0
   -3.1220   24.5390  -30.0230 C   0  0  0  0  0  0  0  0  0  0  0  0
   -2.2170   25.0740  -29.3280 O   0  0  0  0  0  0  0  0  0  0  0  0
   -3.3530   23.1270  -29.9620 N   0  0  0  0  0  0  0  0  0  0  0  0
   -2.6090   22.1740  -29.1870 C   0  0  0  0  0  0  0  0  0  0  0  0
   -2.6430   22.2030  -27.7790 C   0  0  0  0  0  0  0  0  0  0  0  0
   -1.8810   21.3010  -27.0330 C   0  0  0  0  0  0  0  0  0  0  0  0
   -1.0600   20.3780  -27.6800 C   0  0  0  0  0  0  0  0  0  0  0  0
   -0.9970   20.3550  -29.0730 C   0  0  0  0  0  0  0  0  0  0  0  0
   -1.7710   21.2420  -29.8370 C   0  0  0  0  0  0  0  0  0  0  0  0
   -1.6580   21.1650  -31.6010 S   0  0  0  0  0  0  0  0  0  0  0  0
   -0.2620   21.5340  -32.0180 O   0  0  0  0  0  0  0  0  0  0  0  0
   -2.6260   22.1200  -32.2410 O   0  0  0  0  0  0  0  0  0  0  0  0
   -2.0030   19.5550  -32.1410 N   0  0  0  0  0  0  0  0  0  0  0  0
   -3.2300   19.2240  -32.7950 C   0  0  0  0  0  0  0  0  0  0  0  0
   -3.1870   18.5170  -34.0020 C   0  0  0  0  0  0  0  0  0  0  0  0
   -4.3680   18.1690  -34.6570 C   0  0  0  0  0  0  0  0  0  0  0  0
   -5.6010   18.5350  -34.1160 C   0  0  0  0  0  0  0  0  0  0  0  0
   -5.6640   19.2770  -32.9260 C   0  0  0  0  0  0  0  0  0  0  0  0
   -6.9850   19.6250  -32.3680 C   0  0  0  0  0  0  0  0  0  0  0  0
   -7.7370   18.6980  -31.9630 O   0  0  0  0  0  0  0  0  0  0  0  0
   -7.4280   20.9910  -32.2890 N   0  0  0  0  0  0  0  0  0  0  0  0
   -6.5540   22.1420  -32.4500 C   0  0  0  0  0  0  0  0  0  0  0  0
   -7.4470   23.3640  -32.2860 C   0  0  0  0  0  0  0  0  0  0  0  0
   -8.7310   22.8620  -31.6300 C   0  0  0  0  0  0  0  0  0  0  0  0
   -8.7710   21.3590  -31.8760 C   0  0  0  0  0  0  0  0  0  0  0  0
   -4.4670   19.6390  -32.2670 C   0  0  0  0  0  0  0  0  0  0  0  0
   -4.4800   20.4370  -31.1210 O   0  0  0  0  0  0  0  0  0  0  0  0
   -5.5151   25.5944  -29.4482 H   0  0  0  0  0  0  0  0  0  0  0  0
   -5.6940   26.5327  -30.9695 H   0  0  0  0  0  0  0  0  0  0  0  0
   -5.9781   24.7590  -30.9695 H   0  0  0  0  0  0  0  0  0  0  0  0
   -3.2744   22.9415  -27.2633 H   0  0  0  0  0  0  0  0  0  0  0  0
   -1.9285   21.3187  -25.9342 H   0  0  0  0  0  0  0  0  0  0  0  0
   -0.4615   19.6674  -27.0911 H   0  0  0  0  0  0  0  0  0  0  0  0
   -0.3350   19.6355  -29.5772 H   0  0  0  0  0  0  0  0  0  0  0  0
   -2.2167   18.2343  -34.4363 H   0  0  0  0  0  0  0  0  0  0  0  0
   -4.3275   17.6055  -35.6009 H   0  0  0  0  0  0  0  0  0  0  0  0
   -6.5302   18.2400  -34.6255 H   0  0  0  0  0  0  0  0  0  0  0  0
   -5.7669   22.1363  -31.6816 H   0  0  0  0  0  0  0  0  0  0  0  0
   -6.0505   22.1356  -33.4280 H   0  0  0  0  0  0  0  0  0  0  0  0
   -6.9574   24.1119  -31.6449 H   0  0  0  0  0  0  0  0  0  0  0  0
   -7.6508   23.8468  -33.2532 H   0  0  0  0  0  0  0  0  0  0  0  0
   -8.7155   23.0719  -30.5503 H   0  0  0  0  0  0  0  0  0  0  0  0
   -9.6177   23.3615  -32.0476 H   0  0  0  0  0  0  0  0  0  0  0  0
   -9.0477   20.8269  -30.9539 H   0  0  0  0  0  0  0  0  0  0  0  0
   -9.5171   21.0929  -32.6392 H   0  0  0  0  0  0  0  0  0  0  0  0
   -3.8960   21.2560  -31.0120 H   0  0  0  0  0  0  0  0  0  0  0  0
  1  2  1  0
  2  3  1  0
  3  4  2  0
  3  5  1  0
  5  6  1  0
  6  7  2  0
  7  8  1  0
  8  9  2  0
  9 10  1  0
 10 11  2  0
 11 12  1  0
 12 13  2  0
 12 14  2  0
 12 15  1  0
 15 16  1  0
 16 17  2  0
 17 18  1  0
 18 19  2  0
 19 20  1  0
 20 21  1  0
 21 22  2  0
 21 23  1  0
 23 24  1  0
 24 25  1  0
 25 26  1  0
 26 27  1  0
 20 28  2  0
 28 29  1  0
 11  6  1  0
 28 16  1  0
 27 23  1  0
  1 30  1  0
  1 31  1  0
  1 32  1  0
  7 33  1  0
  8 34  1  0
  9 35  1  0
 10 36  1  0
 17 37  1  0
 18 38  1  0
 19 39  1  0
 24 40  1  0
 24 41  1  0
 25 42  1  0
 25 43  1  0
 26 44  1  0
 26 45  1  0
 27 46  1  0
 27 47  1  0
 29 48  1  0
M  CHG  3   2  -1   5  -1  15  -1
M  END
>  <UniqueID>  (21) 
21

>  <SMILES>  (21) 
C[N-]C(=O)[N-]c1ccccc1S(=O)(=O)[N-]c1cccc(C(=O)N2CCCC2)c1O

>  <Energy>  (21) 
67.28565381982237

>  <Genealogy>  (21) 
C[N-]C(=O)[N-]c1ccccc1S(=O)(=O)[N-]c1cccc(C(=O)N2CCCC2)c1O (protonated)
C[N-]C(=O)[N-]c1ccccc1S(=O)(=O)[N-]c1cccc(C(=O)N2CCCC2)c1O (3D coordinates assigned)
C[N-]C(=O)[N-]c1ccccc1S(=O)(=O)[N-]c1cccc(C(=O)N2CCCC2)c1O (nonaromatic ring conformer: 67.28565381982237 kcal/mol)

>  <smiles>  (21) 
CNC(=O)Nc1ccccc1S(=O)(=O)Nc1cccc(C(=O)N2CCCC2)c1O

>  <score_type>  (21) 
oracle

>  <origin>  (21) 
adgpu

>  <m_score__min__energy>  (21) 
-12.4

>  <m_primary>  (21) 
energy

$$$$
21:0
     RDKit          3D

 39 41  0  0  0  0  0  0  0  0999 V2000
   -3.8420   24.4900  -27.1040 C   0  0  0  0  0  0  0  0  0  0  0  0
   -3.5860   23.8050  -28.2220 C   0  0  0  0  0  0  0  0  0  0  0  0
   -2.7040   24.3660  -29.2950 C   0  0  0  0  0  0  0  0  0  0  0  0
   -3.4820   24.6450  -30.4560 O   0  0  0  0  0  0  0  0  0  0  0  0
   -4.5770   23.8800  -30.8850 C   0  0  0  0  0  0  0  0  0  0  0  0
   -4.4210   22.5800  -31.4040 C   0  0  0  0  0  0  0  0  0  0  0  0
   -5.5330   21.8460  -31.8230 C   0  0  0  0  0  0  0  0  0  0  0  0
   -5.3640   20.6200  -32.3120 O   0  0  0  0  0  0  0  0  0  0  0  0
   -6.3710   19.8580  -32.7360 C   0  0  0  0  0  0  0  0  0  0  0  0
   -6.0670   18.5040  -33.2630 C   0  0  0  0  0  0  0  0  0  0  0  0
   -4.9680   18.3250  -34.1220 C   0  0  0  0  0  0  0  0  0  0  0  0
   -4.6660   17.0610  -34.6380 C   0  0  0  0  0  0  0  0  0  0  0  0
   -5.4630   15.9620  -34.3090 C   0  0  0  0  0  0  0  0  0  0  0  0
   -6.5660   16.1270  -33.4690 C   0  0  0  0  0  0  0  0  0  0  0  0
   -6.8710   17.3890  -32.9490 C   0  0  0  0  0  0  0  0  0  0  0  0
   -7.6880   20.3480  -32.6610 C   0  0  0  0  0  0  0  0  0  0  0  0
   -7.9140   21.6280  -32.1560 C   0  0  0  0  0  0  0  0  0  0  0  0
   -9.0930   22.0690  -32.0860 O   0  0  0  0  0  0  0  0  0  0  0  0
   -6.8240   22.4040  -31.7290 C   0  0  0  0  0  0  0  0  0  0  0  0
   -6.9820   23.7000  -31.2100 C   0  0  0  0  0  0  0  0  0  0  0  0
   -5.8600   24.4410  -30.7890 C   0  0  0  0  0  0  0  0  0  0  0  0
   -5.9780   25.7390  -30.2660 O   0  0  0  0  0  0  0  0  0  0  0  0
   -6.4810   26.0450  -28.9690 C   0  0  0  0  0  0  0  0  0  0  0  0
   -4.4930   24.0567  -26.3304 H   0  0  0  0  0  0  0  0  0  0  0  0
   -3.4018   25.4873  -26.9571 H   0  0  0  0  0  0  0  0  0  0  0  0
   -4.0320   22.8086  -28.3574 H   0  0  0  0  0  0  0  0  0  0  0  0
   -2.2361   25.2945  -28.9360 H   0  0  0  0  0  0  0  0  0  0  0  0
   -1.9229   23.6333  -29.5461 H   0  0  0  0  0  0  0  0  0  0  0  0
   -3.4159   22.1395  -31.4799 H   0  0  0  0  0  0  0  0  0  0  0  0
   -4.3401   19.1874  -34.3905 H   0  0  0  0  0  0  0  0  0  0  0  0
   -3.7999   16.9319  -35.3037 H   0  0  0  0  0  0  0  0  0  0  0  0
   -5.2218   14.9671  -34.7115 H   0  0  0  0  0  0  0  0  0  0  0  0
   -7.1967   15.2622  -33.2155 H   0  0  0  0  0  0  0  0  0  0  0  0
   -7.7437   17.5125  -32.2908 H   0  0  0  0  0  0  0  0  0  0  0  0
   -8.5313   19.7271  -32.9976 H   0  0  0  0  0  0  0  0  0  0  0  0
   -7.9877   24.1388  -31.1319 H   0  0  0  0  0  0  0  0  0  0  0  0
   -5.8037   25.6330  -28.2064 H   0  0  0  0  0  0  0  0  0  0  0  0
   -6.5471   27.1365  -28.8495 H   0  0  0  0  0  0  0  0  0  0  0  0
   -7.4807   25.6019  -28.8495 H   0  0  0  0  0  0  0  0  0  0  0  0
  1  2  2  0
  2  3  1  0
  3  4  1  0
  4  5  1  0
  5  6  2  0
  6  7  1  0
  7  8  1  0
  8  9  1  0
  9 10  1  0
 10 11  2  0
 11 12  1  0
 12 13  2  0
 13 14  1  0
 14 15  2  0
  9 16  2  0
 16 17  1  0
 17 18  2  0
 17 19  1  0
 19 20  1  0
 20 21  2  0
 21 22  1  0
 22 23  1  0
 21  5  1  0
 19  7  2  0
 15 10  1  0
  1 24  1  0
  1 25  1  0
  2 26  1  0
  3 27  1  0
  3 28  1  0
  6 29  1  0
 11 30  1  0
 12 31  1  0
 13 32  1  0
 14 33  1  0
 15 34  1  0
 16 35  1  0
 20 36  1  0
 23 37  1  0
 23 38  1  0
 23 39  1  0
M  END
>  <UniqueID>  (22) 
22

>  <SMILES>  (22) 
C=CCOc1cc2oc(-c3ccccc3)cc(=O)c2cc1OC

>  <Energy>  (22) 
46.238554611000495

>  <Genealogy>  (22) 
C=CCOc1cc2oc(-c3ccccc3)cc(=O)c2cc1OC (3D coordinates assigned)
C=CCOc1cc2oc(-c3ccccc3)cc(=O)c2cc1OC (optimized conformer: 46.238554611000495 kcal/mol)

>  <smiles>  (22) 
C=CCOc1cc2oc(-c3ccccc3)cc(=O)c2cc1OC

>  <score_type>  (22) 
oracle

>  <origin>  (22) 
adgpu

>  <m_score__min__energy>  (22) 
-7.8499999999999996

>  <m_primary>  (22) 
energy

$$$$
22:0
     RDKit          3D

 52 55  0  0  0  0  0  0  0  0999 V2000
   -6.0200   23.6300  -30.0070 O   0  0  0  0  0  0  0  0  0  0  0  0
   -5.1220   23.8320  -30.8650 C   0  0  0  0  0  0  0  0  0  0  0  0
   -5.3310   23.3310  -32.2710 C   0  0  0  0  0  0  0  0  0  0  0  0
   -6.6580   22.7150  -32.3940 N   0  0  0  0  0  0  0  0  0  0  0  0
   -7.7880   23.4440  -32.2080 C   0  0  0  0  0  0  0  0  0  0  0  0
   -8.8710   22.6330  -31.9300 C   0  0  0  0  0  0  0  0  0  0  0  0
   -8.3710   21.3550  -31.9370 C   0  0  0  0  0  0  0  0  0  0  0  0
   -9.0160   20.1730  -31.5940 C   0  0  0  0  0  0  0  0  0  0  0  0
   -8.2630   18.9960  -31.5790 C   0  0  0  0  0  0  0  0  0  0  0  0
   -6.9110   19.0130  -31.9630 C   0  0  0  0  0  0  0  0  0  0  0  0
   -6.2760   20.2090  -32.3780 C   0  0  0  0  0  0  0  0  0  0  0  0
   -4.6980   20.1030  -33.1940 S   0  0  0  0  0  0  0  0  0  0  0  0
   -4.7690   19.0430  -34.2580 O   0  0  0  0  0  0  0  0  0  0  0  0
   -4.4070   21.4350  -33.8270 O   0  0  0  0  0  0  0  0  0  0  0  0
   -3.3850   19.7000  -32.0950 N   0  0  0  0  0  0  0  0  0  0  0  0
   -2.9600   20.8740  -31.2880 C   0  0  0  0  0  0  0  0  0  0  0  0
   -1.6940   21.5560  -31.8350 C   0  0  0  0  0  0  0  0  0  0  0  0
   -1.6430   21.4390  -33.2370 O   0  0  0  0  0  0  0  0  0  0  0  0
   -1.3970   20.0920  -33.5990 C   0  0  0  0  0  0  0  0  0  0  0  0
   -2.2460   19.0720  -32.8020 C   0  0  0  0  0  0  0  0  0  0  0  0
   -7.0300   21.4090  -32.2620 C   0  0  0  0  0  0  0  0  0  0  0  0
   -3.9490   24.5570  -30.4720 N   0  0  0  0  0  0  0  0  0  0  0  0
   -2.7370   23.9610  -29.9260 C   0  0  0  0  0  0  0  0  0  0  0  0
   -2.3730   24.6600  -28.6500 C   0  0  0  0  0  0  0  0  0  0  0  0
   -1.1850   25.4050  -28.5630 C   0  0  0  0  0  0  0  0  0  0  0  0
   -0.8290   26.0260  -27.3620 C   0  0  0  0  0  0  0  0  0  0  0  0
   -1.6500   25.9000  -26.2370 C   0  0  0  0  0  0  0  0  0  0  0  0
   -1.2000   26.6780  -24.7310 Cl  0  0  0  0  0  0  0  0  0  0  0  0
   -2.8270   25.1470  -26.3120 C   0  0  0  0  0  0  0  0  0  0  0  0
   -3.1850   24.5240  -27.5110 C   0  0  0  0  0  0  0  0  0  0  0  0
   -5.2547   24.1744  -32.9731 H   0  0  0  0  0  0  0  0  0  0  0  0
   -4.5619   22.5799  -32.5041 H   0  0  0  0  0  0  0  0  0  0  0  0
   -7.8352   24.5412  -32.2707 H   0  0  0  0  0  0  0  0  0  0  0  0
   -9.9094   22.9442  -31.7434 H   0  0  0  0  0  0  0  0  0  0  0  0
  -10.0867   20.1641  -31.3420 H   0  0  0  0  0  0  0  0  0  0  0  0
   -8.7307   18.0512  -31.2650 H   0  0  0  0  0  0  0  0  0  0  0  0
   -6.3336   18.0770  -31.9407 H   0  0  0  0  0  0  0  0  0  0  0  0
   -3.7680   18.9980  -31.4210 H   0  0  0  0  0  0  0  0  0  0  0  0
   -3.7784   21.6089  -31.2812 H   0  0  0  0  0  0  0  0  0  0  0  0
   -2.7254   20.5095  -30.2770 H   0  0  0  0  0  0  0  0  0  0  0  0
   -1.7079   22.6210  -31.5600 H   0  0  0  0  0  0  0  0  0  0  0  0
   -0.8088   21.0667  -31.4027 H   0  0  0  0  0  0  0  0  0  0  0  0
   -1.6232   19.9724  -34.6688 H   0  0  0  0  0  0  0  0  0  0  0  0
   -0.3417   19.8834  -33.3691 H   0  0  0  0  0  0  0  0  0  0  0  0
   -2.6387   18.3193  -33.5014 H   0  0  0  0  0  0  0  0  0  0  0  0
   -1.5924   18.6210  -32.0408 H   0  0  0  0  0  0  0  0  0  0  0  0
   -2.9111   22.8939  -29.7238 H   0  0  0  0  0  0  0  0  0  0  0  0
   -1.9161   24.0653  -30.6507 H   0  0  0  0  0  0  0  0  0  0  0  0
   -0.5323   25.5001  -29.4433 H   0  0  0  0  0  0  0  0  0  0  0  0
    0.0983   26.6146  -27.3019 H   0  0  0  0  0  0  0  0  0  0  0  0
   -3.4713   25.0452  -25.4263 H   0  0  0  0  0  0  0  0  0  0  0  0
   -4.1060   23.9248  -27.5633 H   0  0  0  0  0  0  0  0  0  0  0  0
  1  2  2  0
  2  3  1  0
  3  4  1  0
  4  5  1  0
  5  6  2  0
  6  7  1  0
  7  8  2  0
  8  9  1  0
  9 10  2  0
 10 11  1  0
 11 12  1  0
 12 13  2  0
 12 14  2  0
 12 15  1  0
 15 16  1  0
 16 17  1  0
 17 18  1  0
 18 19  1  0
 19 20  1  0
 11 21  2  0
  2 22  1  0
 22 23  1  0
 23 24  1  0
 24 25  2  0
 25 26  1  0
 26 27  2  0
 27 28  1  0
 27 29  1  0
 29 30  2  0
 21  4  1  0
 30 24  1  0
 21  7  1  0
 20 15  1  0
  3 31  1  0
  3 32  1  0
  5 33  1  0
  6 34  1  0
  8 35  1  0
  9 36  1  0
 10 37  1  0
 15 38  1  0
 16 39  1  0
 16 40  1  0
 17 41  1  0
 17 42  1  0
 19 43  1  0
 19 44  1  0
 20 45  1  0
 20 46  1  0
 23 47  1  0
 23 48  1  0
 25 49  1  0
 26 50  1  0
 29 51  1  0
 30 52  1  0
M  CHG  2  15   1  22  -1
M  END
>  <UniqueID>  (23) 
23

>  <SMILES>  (23) 
O=C(Cn1ccc2cccc(S(=O)(=O)[NH+]3CCOCC3)c21)[N-]Cc1ccc(Cl)cc1

>  <Energy>  (23) 
108.80536140216884

>  <Genealogy>  (23) 
O=C(Cn1ccc2cccc(S(=O)(=O)[NH+]3CCOCC3)c21)[N-]Cc1ccc(Cl)cc1 (protonated)
O=C(Cn1ccc2cccc(S(=O)(=O)[NH+]3CCOCC3)c21)[N-]Cc1ccc(Cl)cc1 (3D coordinates assigned)
O=C(Cn1ccc2cccc(S(=O)(=O)[NH+]3CCOCC3)c21)[N-]Cc1ccc(Cl)cc1 (nonaromatic ring conformer: 108.80536140216884 kcal/mol)

>  <smiles>  (23) 
O=C(Cn1ccc2cccc(S(=O)(=O)N3CCOCC3)c21)NCc1ccc(Cl)cc1

>  <score_type>  (23) 
oracle

>  <origin>  (23) 
adgpu

>  <m_score__min__energy>  (23) 
-10.58

>  <m_primary>  (23) 
energy

$$$$
23:0
     RDKit          3D

 58 61  0  0  0  0  0  0  0  0999 V2000
   -7.9280   21.8560  -31.0850 C   0  0  0  0  0  0  0  0  0  0  0  0
   -7.1700   21.6980  -32.2800 O   0  0  0  0  0  0  0  0  0  0  0  0
   -5.7670   21.7190  -32.4090 C   0  0  0  0  0  0  0  0  0  0  0  0
   -5.1780   20.7260  -33.2280 C   0  0  0  0  0  0  0  0  0  0  0  0
   -6.0160   19.6780  -33.9240 C   0  0  0  0  0  0  0  0  0  0  0  0
   -5.6280   18.3230  -33.4800 N   0  0  0  0  0  0  0  0  0  0  0  0
   -5.8160   18.1620  -32.0190 C   0  0  0  0  0  0  0  0  0  0  0  0
   -5.7750   16.6790  -31.5890 C   0  0  0  0  0  0  0  0  0  0  0  0
   -5.1230   15.8450  -32.6040 N   0  0  0  0  0  0  0  0  0  0  0  0
   -5.8540   15.8920  -33.8820 C   0  0  0  0  0  0  0  0  0  0  0  0
   -6.3960   17.2990  -34.2080 C   0  0  0  0  0  0  0  0  0  0  0  0
   -3.7840   20.6680  -33.3690 C   0  0  0  0  0  0  0  0  0  0  0  0
   -2.9690   21.5870  -32.7190 C   0  0  0  0  0  0  0  0  0  0  0  0
   -1.6210   21.5100  -32.8500 F   0  0  0  0  0  0  0  0  0  0  0  0
   -3.5330   22.5800  -31.9220 C   0  0  0  0  0  0  0  0  0  0  0  0
   -4.9280   22.6760  -31.7690 C   0  0  0  0  0  0  0  0  0  0  0  0
   -5.4850   23.6920  -30.9210 N   0  0  0  0  0  0  0  0  0  0  0  0
   -5.0150   25.0360  -30.7830 C   0  0  0  0  0  0  0  0  0  0  0  0
   -5.7000   26.0020  -31.2180 O   0  0  0  0  0  0  0  0  0  0  0  0
   -3.8040   25.2780  -30.0600 N   0  0  0  0  0  0  0  0  0  0  0  0
   -3.1550   24.3390  -29.1920 C   0  0  0  0  0  0  0  0  0  0  0  0
   -3.8630   23.2010  -28.8060 C   0  0  0  0  0  0  0  0  0  0  0  0
   -3.2690   22.2440  -27.9900 C   0  0  0  0  0  0  0  0  0  0  0  0
   -1.9620   22.4130  -27.5270 C   0  0  0  0  0  0  0  0  0  0  0  0
   -1.3150   21.1260  -26.5130 Cl  0  0  0  0  0  0  0  0  0  0  0  0
   -1.2170   23.5600  -27.9030 C   0  0  0  0  0  0  0  0  0  0  0  0
    0.4170   23.8570  -27.2450 S   0  0  0  0  0  0  0  0  0  0  0  0
    1.1910   24.7820  -28.1420 O   0  0  0  0  0  0  0  0  0  0  0  0
    1.1710   22.5580  -27.2100 O   0  0  0  0  0  0  0  0  0  0  0  0
    0.4200   24.5630  -25.5930 C   0  0  0  0  0  0  0  0  0  0  0  0
   -0.3470   23.8090  -24.5180 C   0  0  0  0  0  0  0  0  0  0  0  0
   -0.9330   25.0710  -25.1270 C   0  0  0  0  0  0  0  0  0  0  0  0
   -1.8090   24.4960  -28.7960 C   0  0  0  0  0  0  0  0  0  0  0  0
   -1.0770   25.5520  -29.3470 O   0  0  0  0  0  0  0  0  0  0  0  0
   -7.2711   21.7191  -30.2133 H   0  0  0  0  0  0  0  0  0  0  0  0
   -8.3659   22.8647  -31.0593 H   0  0  0  0  0  0  0  0  0  0  0  0
   -8.7325   21.1062  -31.0593 H   0  0  0  0  0  0  0  0  0  0  0  0
   -7.0766   19.8466  -33.6860 H   0  0  0  0  0  0  0  0  0  0  0  0
   -5.8525   19.7562  -35.0090 H   0  0  0  0  0  0  0  0  0  0  0  0
   -5.0152   18.7054  -31.4961 H   0  0  0  0  0  0  0  0  0  0  0  0
   -6.8063   18.5636  -31.7581 H   0  0  0  0  0  0  0  0  0  0  0  0
   -5.2168   16.5955  -30.6448 H   0  0  0  0  0  0  0  0  0  0  0  0
   -6.8094   16.3263  -31.4637 H   0  0  0  0  0  0  0  0  0  0  0  0
   -4.1490   16.2010  -32.7540 H   0  0  0  0  0  0  0  0  0  0  0  0
   -5.1730   15.5820  -34.6883 H   0  0  0  0  0  0  0  0  0  0  0  0
   -6.7173   15.2159  -33.7953 H   0  0  0  0  0  0  0  0  0  0  0  0
   -6.3085   17.4802  -35.2894 H   0  0  0  0  0  0  0  0  0  0  0  0
   -7.4507   17.3566  -33.9008 H   0  0  0  0  0  0  0  0  0  0  0  0
   -3.3317   19.8883  -33.9995 H   0  0  0  0  0  0  0  0  0  0  0  0
   -2.8793   23.2984  -31.4056 H   0  0  0  0  0  0  0  0  0  0  0  0
   -4.8984   23.0594  -29.1493 H   0  0  0  0  0  0  0  0  0  0  0  0
   -3.8346   21.3443  -27.7062 H   0  0  0  0  0  0  0  0  0  0  0  0
    1.4405   24.9679  -25.6619 H   0  0  0  0  0  0  0  0  0  0  0  0
   -0.7937   22.8298  -24.7453 H   0  0  0  0  0  0  0  0  0  0  0  0
   -0.1234   23.4695  -23.4958 H   0  0  0  0  0  0  0  0  0  0  0  0
   -1.8046   25.0056  -25.7949 H   0  0  0  0  0  0  0  0  0  0  0  0
   -1.3100   26.0241  -24.7277 H   0  0  0  0  0  0  0  0  0  0  0  0
   -0.1360   25.7900  -29.0700 H   0  0  0  0  0  0  0  0  0  0  0  0
  1  2  1  0
  2  3  1  0
  3  4  2  0
  4  5  1  0
  5  6  1  0
  6  7  1  0
  7  8  1  0
  8  9  1  0
  9 10  1  0
 10 11  1  0
  4 12  1  0
 12 13  2  0
 13 14  1  0
 13 15  1  0
 15 16  2  0
 16 17  1  0
 17 18  1  0
 18 19  2  0
 18 20  1  0
 20 21  1  0
 21 22  2  0
 22 23  1  0
 23 24  2  0
 24 25  1  0
 24 26  1  0
 26 27  1  0
 27 28  2  0
 27 29  2  0
 27 30  1  0
 30 31  1  0
 31 32  1  0
 26 33  2  0
 33 34  1  0
 16  3  1  0
 33 21  1  0
 11  6  1  0
 32 30  1  0
  1 35  1  0
  1 36  1  0
  1 37  1  0
  5 38  1  0
  5 39  1  0
  7 40  1  0
  7 41  1  0
  8 42  1  0
  8 43  1  0
  9 44  1  0
 10 45  1  0
 10 46  1  0
 11 47  1  0
 11 48  1  0
 12 49  1  0
 15 50  1  0
 22 51  1  0
 23 52  1  0
 30 53  1  0
 31 54  1  0
 31 55  1  0
 32 56  1  0
 32 57  1  0
 34 58  1  0
M  CHG  2  17  -1  20  -1
M  END
>  <UniqueID>  (24) 
24

>  <SMILES>  (24) 
COc1c(CN2CCNCC2)cc(F)cc1[N-]C(=O)[N-]c1ccc(Cl)c(S(=O)(=O)C2CC2)c1O

>  <Energy>  (24) 
349.67078342420996

>  <Genealogy>  (24) 
COc1c(CN2CCNCC2)cc(F)cc1[N-]C(=O)[N-]c1ccc(Cl)c(S(=O)(=O)C2CC2)c1O (protonated)
COc1c(CN2CCNCC2)cc(F)cc1[N-]C(=O)[N-]c1ccc(Cl)c(S(=O)(=O)C2CC2)c1O (3D coordinates assigned)
COc1c(CN2CCNCC2)cc(F)cc1[N-]C(=O)[N-]c1ccc(Cl)c(S(=O)(=O)C2CC2)c1O (nonaromatic ring conformer: 349.67078342420996 kcal/mol)

>  <smiles>  (24) 
COc1c(CN2CCNCC2)cc(F)cc1NC(=O)Nc1ccc(Cl)c(S(=O)(=O)C2CC2)c1O

>  <score_type>  (24) 
oracle

>  <origin>  (24) 
adgpu

>  <m_score__min__energy>  (24) 
-14.039999999999999

>  <m_primary>  (24) 
energy

$$$$
24:0
     RDKit          3D

 64 67  0  0  0  0  0  0  0  0999 V2000
   -1.1010   22.8400  -30.3970 O   0  0  0  0  0  0  0  0  0  0  0  0
   -1.5590   23.0010  -29.2300 C   0  0  0  0  0  0  0  0  0  0  0  0
   -0.6280   22.8760  -28.0610 C   0  0  0  0  0  0  0  0  0  0  0  0
   -0.4280   21.4750  -27.7090 N   0  0  0  0  0  0  0  0  0  0  0  0
   -1.1620   20.3900  -28.2800 C   0  0  0  0  0  0  0  0  0  0  0  0
   -2.0680   19.8160  -27.6120 O   0  0  0  0  0  0  0  0  0  0  0  0
   -0.8280   19.9080  -29.6320 C   0  0  0  0  0  0  0  0  0  0  0  0
    0.4150   19.2980  -29.8800 C   0  0  0  0  0  0  0  0  0  0  0  0
    0.7280   18.8290  -31.1580 C   0  0  0  0  0  0  0  0  0  0  0  0
   -0.1870   18.9760  -32.2040 C   0  0  0  0  0  0  0  0  0  0  0  0
   -1.4220   19.5990  -31.9790 C   0  0  0  0  0  0  0  0  0  0  0  0
   -2.5640   19.7930  -33.3140 S   0  0  0  0  0  0  0  0  0  0  0  0
   -3.1800   21.1610  -33.2220 O   0  0  0  0  0  0  0  0  0  0  0  0
   -1.8270   19.7040  -34.6240 O   0  0  0  0  0  0  0  0  0  0  0  0
   -3.8270   18.5830  -33.2780 N   0  0  0  0  0  0  0  0  0  0  0  0
   -4.6360   18.6380  -34.5090 C   0  0  0  0  0  0  0  0  0  0  0  0
   -5.5310   17.3870  -34.6370 C   0  0  0  0  0  0  0  0  0  0  0  0
   -5.6510   16.7290  -33.3920 O   0  0  0  0  0  0  0  0  0  0  0  0
   -4.3960   16.2030  -32.9920 C   0  0  0  0  0  0  0  0  0  0  0  0
   -3.2560   17.2390  -33.1030 C   0  0  0  0  0  0  0  0  0  0  0  0
   -1.7430   20.0560  -30.6910 C   0  0  0  0  0  0  0  0  0  0  0  0
   -2.9260   23.3940  -29.0320 N   0  0  0  0  0  0  0  0  0  0  0  0
   -3.9610   23.2800  -30.0260 C   0  0  0  0  0  0  0  0  0  0  0  0
   -4.5650   22.0410  -30.3130 C   0  0  0  0  0  0  0  0  0  0  0  0
   -5.5900   21.9490  -31.2660 C   0  0  0  0  0  0  0  0  0  0  0  0
   -6.3080   20.3830  -31.6460 S   0  0  0  0  0  0  0  0  0  0  0  0
   -5.3610   19.2870  -31.2390 O   0  0  0  0  0  0  0  0  0  0  0  0
   -6.5040   20.3030  -33.1360 O   0  0  0  0  0  0  0  0  0  0  0  0
   -7.8570   20.2200  -30.8430 N   0  0  0  0  0  0  0  0  0  0  0  0
   -8.7320   19.2250  -31.4930 C   0  0  0  0  0  0  0  0  0  0  0  0
   -9.4520   19.8010  -32.7240 C   0  0  0  0  0  0  0  0  0  0  0  0
  -10.1810   20.9610  -32.3790 O   0  0  0  0  0  0  0  0  0  0  0  0
   -9.2920   21.9650  -31.9290 C   0  0  0  0  0  0  0  0  0  0  0  0
   -8.5390   21.5170  -30.6620 C   0  0  0  0  0  0  0  0  0  0  0  0
   -6.0250   23.1040  -31.9300 C   0  0  0  0  0  0  0  0  0  0  0  0
   -5.4450   24.3410  -31.6390 C   0  0  0  0  0  0  0  0  0  0  0  0
   -4.4210   24.4350  -30.6890 C   0  0  0  0  0  0  0  0  0  0  0  0
   -3.8580   25.6780  -30.4150 O   0  0  0  0  0  0  0  0  0  0  0  0
    0.3418   23.3247  -28.3221 H   0  0  0  0  0  0  0  0  0  0  0  0
   -1.0702   23.3976  -27.1993 H   0  0  0  0  0  0  0  0  0  0  0  0
    1.1441   19.1898  -29.0635 H   0  0  0  0  0  0  0  0  0  0  0  0
    1.6974   18.3426  -31.3416 H   0  0  0  0  0  0  0  0  0  0  0  0
    0.0630   18.6014  -33.2076 H   0  0  0  0  0  0  0  0  0  0  0  0
   -5.2725   19.5348  -34.4818 H   0  0  0  0  0  0  0  0  0  0  0  0
   -3.9573   18.6743  -35.3739 H   0  0  0  0  0  0  0  0  0  0  0  0
   -6.5300   17.6916  -34.9822 H   0  0  0  0  0  0  0  0  0  0  0  0
   -5.0718   16.6961  -35.3593 H   0  0  0  0  0  0  0  0  0  0  0  0
   -4.4702   15.8713  -31.9458 H   0  0  0  0  0  0  0  0  0  0  0  0
   -4.1544   15.3678  -33.6659 H   0  0  0  0  0  0  0  0  0  0  0  0
   -2.6492   17.2155  -32.1858 H   0  0  0  0  0  0  0  0  0  0  0  0
   -2.6233   16.9950  -33.9691 H   0  0  0  0  0  0  0  0  0  0  0  0
   -2.7170   20.5333  -30.5081 H   0  0  0  0  0  0  0  0  0  0  0  0
   -3.1770   23.8130  -28.1060 H   0  0  0  0  0  0  0  0  0  0  0  0
   -4.2298   21.1363  -29.7847 H   0  0  0  0  0  0  0  0  0  0  0  0
   -8.1196   18.3678  -31.8096 H   0  0  0  0  0  0  0  0  0  0  0  0
   -9.4984   18.9220  -30.7644 H   0  0  0  0  0  0  0  0  0  0  0  0
   -8.7065   20.0579  -33.4910 H   0  0  0  0  0  0  0  0  0  0  0  0
  -10.1519   19.0453  -33.1100 H   0  0  0  0  0  0  0  0  0  0  0  0
   -8.5617   22.1795  -32.7231 H   0  0  0  0  0  0  0  0  0  0  0  0
   -9.8771   22.8642  -31.6861 H   0  0  0  0  0  0  0  0  0  0  0  0
   -7.7874   22.2794  -30.4094 H   0  0  0  0  0  0  0  0  0  0  0  0
   -9.2783   21.3982  -29.8562 H   0  0  0  0  0  0  0  0  0  0  0  0
   -6.8249   23.0363  -32.6820 H   0  0  0  0  0  0  0  0  0  0  0  0
   -5.7944   25.2454  -32.1586 H   0  0  0  0  0  0  0  0  0  0  0  0
  1  2  2  0
  2  3  1  0
  3  4  1  0
  4  5  1  0
  5  6  2  0
  5  7  1  0
  7  8  2  0
  8  9  1  0
  9 10  2  0
 10 11  1  0
 11 12  1  0
 12 13  2  0
 12 14  2  0
 12 15  1  0
 15 16  1  0
 16 17  1  0
 17 18  1  0
 18 19  1  0
 19 20  1  0
 11 21  2  0
  2 22  1  0
 22 23  1  0
 23 24  2  0
 24 25  1  0
 25 26  1  0
 26 27  2  0
 26 28  2  0
 26 29  1  0
 29 30  1  0
 30 31  1  0
 31 32  1  0
 32 33  1  0
 33 34  1  0
 25 35  2  0
 35 36  1  0
 36 37  2  0
 37 38  1  0
 21  7  1  0
 37 23  1  0
 20 15  1  0
 34 29  1  0
  3 39  1  0
  3 40  1  0
  8 41  1  0
  9 42  1  0
 10 43  1  0
 16 44  1  0
 16 45  1  0
 17 46  1  0
 17 47  1  0
 19 48  1  0
 19 49  1  0
 20 50  1  0
 20 51  1  0
 21 52  1  0
 22 53  1  0
 24 54  1  0
 30 55  1  0
 30 56  1  0
 31 57  1  0
 31 58  1  0
 33 59  1  0
 33 60  1  0
 34 61  1  0
 34 62  1  0
 35 63  1  0
 36 64  1  0
M  CHG  2   4  -1  38  -1
M  END
>  <UniqueID>  (25) 
25

>  <SMILES>  (25) 
O=C(C[N-]C(=O)c1cccc(S(=O)(=O)N2CCOCC2)c1)Nc1cc(S(=O)(=O)N2CCOCC2)ccc1[O-]

>  <Energy>  (25) 
80.92002837511076

>  <Genealogy>  (25) 
O=C(C[N-]C(=O)c1cccc(S(=O)(=O)N2CCOCC2)c1)Nc1cc(S(=O)(=O)N2CCOCC2)ccc1[O-] (protonated)
O=C(C[N-]C(=O)c1cccc(S(=O)(=O)N2CCOCC2)c1)Nc1cc(S(=O)(=O)N2CCOCC2)ccc1[O-] (3D coordinates assigned)
O=C(C[N-]C(=O)c1cccc(S(=O)(=O)N2CCOCC2)c1)Nc1cc(S(=O)(=O)N2CCOCC2)ccc1[O-] (nonaromatic ring conformer: 80.92002837511076 kcal/mol)

>  <smiles>  (25) 
O=C(CNC(=O)c1cccc(S(=O)(=O)N2CCOCC2)c1)Nc1cc(S(=O)(=O)N2CCOCC2)ccc1O

>  <score_type>  (25) 
oracle

>  <origin>  (25) 
adgpu

>  <m_score__min__energy>  (25) 
-14.800000000000001

>  <m_primary>  (25) 
energy

$$$$
25:0
     RDKit          3D

 41 43  0  0  0  0  0  0  0  0999 V2000
   -1.5090   20.0050  -27.5900 N   0  0  0  0  0  0  0  0  0  0  0  0
   -1.5330   20.2370  -28.7230 C   0  0  0  0  0  0  0  0  0  0  0  0
   -1.5640   20.5270  -30.1330 C   0  0  0  0  0  0  0  0  0  0  0  0
   -0.8350   19.7540  -30.9780 N   0  0  0  0  0  0  0  0  0  0  0  0
   -0.8050   19.9710  -32.3190 C   0  0  0  0  0  0  0  0  0  0  0  0
   -0.0810   19.1840  -33.0550 N   0  0  0  0  0  0  0  0  0  0  0  0
   -1.5620   21.0420  -32.8520 C   0  0  0  0  0  0  0  0  0  0  0  0
   -1.6020   21.3560  -34.2500 N   0  0  0  0  0  0  0  0  0  0  0  0
   -2.2880   21.8120  -31.9980 N   0  0  0  0  0  0  0  0  0  0  0  0
   -2.3110   21.5960  -30.6560 C   0  0  0  0  0  0  0  0  0  0  0  0
   -3.1190   22.4310  -29.8060 N   0  0  0  0  0  0  0  0  0  0  0  0
   -4.2590   23.1600  -30.2870 C   0  0  0  0  0  0  0  0  0  0  0  0
   -5.4300   22.4610  -30.6140 C   0  0  0  0  0  0  0  0  0  0  0  0
   -6.5570   23.1420  -31.0950 C   0  0  0  0  0  0  0  0  0  0  0  0
   -8.0210   22.2490  -31.5260 S   0  0  0  0  0  0  0  0  0  0  0  0
   -8.9900   23.1880  -32.1890 O   0  0  0  0  0  0  0  0  0  0  0  0
   -8.6640   21.7290  -30.2710 O   0  0  0  0  0  0  0  0  0  0  0  0
   -7.7050   20.9080  -32.6000 N   0  0  0  0  0  0  0  0  0  0  0  0
   -7.9730   19.6190  -31.9660 C   0  0  0  0  0  0  0  0  0  0  0  0
   -7.1110   18.5960  -32.6900 C   0  0  0  0  0  0  0  0  0  0  0  0
   -6.0180   19.4040  -33.3750 C   0  0  0  0  0  0  0  0  0  0  0  0
   -6.3050   20.8550  -33.0170 C   0  0  0  0  0  0  0  0  0  0  0  0
   -6.5220   24.5380  -31.2130 C   0  0  0  0  0  0  0  0  0  0  0  0
   -5.3680   25.2440  -30.8620 C   0  0  0  0  0  0  0  0  0  0  0  0
   -4.2420   24.5640  -30.3910 C   0  0  0  0  0  0  0  0  0  0  0  0
   -3.1220   25.2920  -30.0020 O   0  0  0  0  0  0  0  0  0  0  0  0
    0.0230   19.2500  -34.0880 H   0  0  0  0  0  0  0  0  0  0  0  0
   -1.9870   20.7160  -34.9760 H   0  0  0  0  0  0  0  0  0  0  0  0
   -1.2300   22.2730  -34.5790 H   0  0  0  0  0  0  0  0  0  0  0  0
   -2.9780   22.3830  -28.7720 H   0  0  0  0  0  0  0  0  0  0  0  0
   -5.4645   21.3683  -30.4919 H   0  0  0  0  0  0  0  0  0  0  0  0
   -7.7044   19.6564  -30.9000 H   0  0  0  0  0  0  0  0  0  0  0  0
   -9.0396   19.3577  -32.0296 H   0  0  0  0  0  0  0  0  0  0  0  0
   -6.6731   17.8852  -31.9737 H   0  0  0  0  0  0  0  0  0  0  0  0
   -7.6951   18.0037  -33.4097 H   0  0  0  0  0  0  0  0  0  0  0  0
   -5.0271   19.1044  -33.0030 H   0  0  0  0  0  0  0  0  0  0  0  0
   -6.0117   19.2443  -34.4633 H   0  0  0  0  0  0  0  0  0  0  0  0
   -5.6506   21.1806  -32.1950 H   0  0  0  0  0  0  0  0  0  0  0  0
   -6.1181   21.5212  -33.8721 H   0  0  0  0  0  0  0  0  0  0  0  0
   -7.4051   25.0795  -31.5829 H   0  0  0  0  0  0  0  0  0  0  0  0
   -5.3462   26.3397  -30.9570 H   0  0  0  0  0  0  0  0  0  0  0  0
  1  2  3  0
  2  3  1  0
  3  4  1  0
  4  5  1  0
  5  6  2  3
  5  7  1  0
  7  8  1  0
  7  9  2  0
  9 10  1  0
 10 11  1  0
 11 12  1  0
 12 13  2  0
 13 14  1  0
 14 15  1  0
 15 16  2  0
 15 17  2  0
 15 18  1  0
 18 19  1  0
 19 20  1  0
 20 21  1  0
 21 22  1  0
 14 23  2  0
 23 24  1  0
 24 25  2  0
 25 26  1  0
 10  3  2  0
 25 12  1  0
 22 18  1  0
  6 27  1  0
  8 28  1  0
  8 29  1  0
 11 30  1  0
 13 31  1  0
 19 32  1  0
 19 33  1  0
 20 34  1  0
 20 35  1  0
 21 36  1  0
 21 37  1  0
 22 38  1  0
 22 39  1  0
 23 40  1  0
 24 41  1  0
M  CHG  2   4  -1  26  -1
M  END
>  <UniqueID>  (26) 
26

>  <SMILES>  (26) 
N#Cc1[n-]c(=N)c(N)nc1Nc1cc(S(=O)(=O)N2CCCC2)ccc1[O-]

>  <Energy>  (26) 
52.763236066022486

>  <Genealogy>  (26) 
N#Cc1[n-]c(=N)c(N)nc1Nc1cc(S(=O)(=O)N2CCCC2)ccc1[O-] (protonated)
N#Cc1[n-]c(=N)c(N)nc1Nc1cc(S(=O)(=O)N2CCCC2)ccc1[O-] (3D coordinates assigned)
N#Cc1[n-]c(=N)c(N)nc1Nc1cc(S(=O)(=O)N2CCCC2)ccc1[O-] (nonaromatic ring conformer: 52.763236066022486 kcal/mol)

>  <smiles>  (26) 
N#Cc1[nH]c(=N)c(N)nc1Nc1cc(S(=O)(=O)N2CCCC2)ccc1O

>  <score_type>  (26) 
oracle

>  <origin>  (26) 
adgpu

>  <m_score__min__energy>  (26) 
-12.130000000000001

>  <m_primary>  (26) 
energy

$$$$
26:0
     RDKit          3D

 58 61  0  0  0  0  0  0  0  0999 V2000
   -1.8600   25.3040  -29.3090 O   0  0  0  0  0  0  0  0  0  0  0  0
   -2.7860   24.5370  -29.6720 C   0  0  0  0  0  0  0  0  0  0  0  0
   -3.9370   25.1030  -30.3100 N   0  0  0  0  0  0  0  0  0  0  0  0
   -5.1370   24.3820  -30.6410 C   0  0  0  0  0  0  0  0  0  0  0  0
   -5.7000   23.5200  -29.6870 C   0  0  0  0  0  0  0  0  0  0  0  0
   -6.8310   22.7540  -29.9970 C   0  0  0  0  0  0  0  0  0  0  0  0
   -7.4040   22.8330  -31.2740 C   0  0  0  0  0  0  0  0  0  0  0  0
   -8.7680   21.8060  -31.7140 S   0  0  0  0  0  0  0  0  0  0  0  0
   -9.3000   21.1760  -30.4560 O   0  0  0  0  0  0  0  0  0  0  0  0
   -9.8610   22.6460  -32.3200 O   0  0  0  0  0  0  0  0  0  0  0  0
   -8.2320   20.5620  -32.8270 N   0  0  0  0  0  0  0  0  0  0  0  0
   -8.9900   19.3050  -32.6670 C   0  0  0  0  0  0  0  0  0  0  0  0
   -8.4360   18.4240  -31.5270 C   0  0  0  0  0  0  0  0  0  0  0  0
   -7.0440   18.2090  -31.6800 O   0  0  0  0  0  0  0  0  0  0  0  0
   -6.3620   19.4430  -31.6010 C   0  0  0  0  0  0  0  0  0  0  0  0
   -6.7670   20.3560  -32.7700 C   0  0  0  0  0  0  0  0  0  0  0  0
   -6.8560   23.7090  -32.2260 C   0  0  0  0  0  0  0  0  0  0  0  0
   -5.7260   24.4770  -31.9150 C   0  0  0  0  0  0  0  0  0  0  0  0
   -2.6850   23.1330  -29.3790 N   0  0  0  0  0  0  0  0  0  0  0  0
   -2.4930   22.0620  -30.3240 C   0  0  0  0  0  0  0  0  0  0  0  0
   -1.5740   21.0220  -30.1030 C   0  0  0  0  0  0  0  0  0  0  0  0
   -1.4760   19.9650  -31.0160 C   0  0  0  0  0  0  0  0  0  0  0  0
   -2.3410   19.8920  -32.1130 C   0  0  0  0  0  0  0  0  0  0  0  0
   -2.2920   18.4930  -33.1900 S   0  0  0  0  0  0  0  0  0  0  0  0
   -2.0470   18.9590  -34.6040 O   0  0  0  0  0  0  0  0  0  0  0  0
   -1.1310   17.6270  -32.7940 O   0  0  0  0  0  0  0  0  0  0  0  0
   -3.7700   17.5520  -33.1520 N   0  0  0  0  0  0  0  0  0  0  0  0
   -4.8500   18.1410  -33.9700 C   0  0  0  0  0  0  0  0  0  0  0  0
   -5.0290   17.4350  -35.3230 C   0  0  0  0  0  0  0  0  0  0  0  0
   -3.8060   16.8910  -35.7590 O   0  0  0  0  0  0  0  0  0  0  0  0
   -3.4480   15.8030  -34.9340 C   0  0  0  0  0  0  0  0  0  0  0  0
   -3.5420   16.1230  -33.4240 C   0  0  0  0  0  0  0  0  0  0  0  0
   -3.2600   20.9280  -32.3390 C   0  0  0  0  0  0  0  0  0  0  0  0
   -3.3260   22.0100  -31.4590 C   0  0  0  0  0  0  0  0  0  0  0  0
   -5.2488   23.4453  -28.6866 H   0  0  0  0  0  0  0  0  0  0  0  0
   -7.2699   22.0899  -29.2378 H   0  0  0  0  0  0  0  0  0  0  0  0
  -10.0390   19.5510  -32.4453 H   0  0  0  0  0  0  0  0  0  0  0  0
   -8.8983   18.7368  -33.6044 H   0  0  0  0  0  0  0  0  0  0  0  0
   -8.6187   18.9246  -30.5647 H   0  0  0  0  0  0  0  0  0  0  0  0
   -8.9459   17.4498  -31.5585 H   0  0  0  0  0  0  0  0  0  0  0  0
   -6.6152   19.9367  -30.6512 H   0  0  0  0  0  0  0  0  0  0  0  0
   -5.2793   19.2559  -31.6534 H   0  0  0  0  0  0  0  0  0  0  0  0
   -6.2751   21.3320  -32.6460 H   0  0  0  0  0  0  0  0  0  0  0  0
   -6.4541   19.8706  -33.7062 H   0  0  0  0  0  0  0  0  0  0  0  0
   -7.3168   23.7924  -33.2214 H   0  0  0  0  0  0  0  0  0  0  0  0
   -5.2988   25.1553  -32.6683 H   0  0  0  0  0  0  0  0  0  0  0  0
   -0.9305   21.0384  -29.2111 H   0  0  0  0  0  0  0  0  0  0  0  0
   -0.7131   19.1862  -30.8696 H   0  0  0  0  0  0  0  0  0  0  0  0
   -5.7937   18.0694  -33.4093 H   0  0  0  0  0  0  0  0  0  0  0  0
   -4.5747   19.1857  -34.1770 H   0  0  0  0  0  0  0  0  0  0  0  0
   -5.7671   16.6266  -35.2150 H   0  0  0  0  0  0  0  0  0  0  0  0
   -5.3774   18.1688  -36.0647 H   0  0  0  0  0  0  0  0  0  0  0  0
   -4.1207   14.9612  -35.1550 H   0  0  0  0  0  0  0  0  0  0  0  0
   -2.3969   15.5619  -35.1510 H   0  0  0  0  0  0  0  0  0  0  0  0
   -4.3752   15.5472  -32.9948 H   0  0  0  0  0  0  0  0  0  0  0  0
   -2.5779   15.8512  -32.9693 H   0  0  0  0  0  0  0  0  0  0  0  0
   -3.9295   20.8877  -33.2109 H   0  0  0  0  0  0  0  0  0  0  0  0
   -4.0344   22.8288  -31.6535 H   0  0  0  0  0  0  0  0  0  0  0  0
  1  2  2  0
  2  3  1  0
  3  4  1  0
  4  5  2  0
  5  6  1  0
  6  7  2  0
  7  8  1  0
  8  9  2  0
  8 10  2  0
  8 11  1  0
 11 12  1  0
 12 13  1  0
 13 14  1  0
 14 15  1  0
 15 16  1  0
  7 17  1  0
 17 18  2  0
  2 19  1  0
 19 20  1  0
 20 21  2  0
 21 22  1  0
 22 23  2  0
 23 24  1  0
 24 25  2  0
 24 26  2  0
 24 27  1  0
 27 28  1  0
 28 29  1  0
 29 30  1  0
 30 31  1  0
 31 32  1  0
 23 33  1  0
 33 34  2  0
 18  4  1  0
 34 20  1  0
 16 11  1  0
 32 27  1  0
  5 35  1  0
  6 36  1  0
 12 37  1  0
 12 38  1  0
 13 39  1  0
 13 40  1  0
 15 41  1  0
 15 42  1  0
 16 43  1  0
 16 44  1  0
 17 45  1  0
 18 46  1  0
 21 47  1  0
 22 48  1  0
 28 49  1  0
 28 50  1  0
 29 51  1  0
 29 52  1  0
 31 53  1  0
 31 54  1  0
 32 55  1  0
 32 56  1  0
 33 57  1  0
 34 58  1  0
M  CHG  2   3  -1  19  -1
M  END
>  <UniqueID>  (27) 
27

>  <SMILES>  (27) 
O=C([N-]c1ccc(S(=O)(=O)N2CCOCC2)cc1)[N-]c1ccc(S(=O)(=O)N2CCOCC2)cc1

>  <Energy>  (27) 
84.22955383170863

>  <Genealogy>  (27) 
O=C([N-]c1ccc(S(=O)(=O)N2CCOCC2)cc1)[N-]c1ccc(S(=O)(=O)N2CCOCC2)cc1 (protonated)
O=C([N-]c1ccc(S(=O)(=O)N2CCOCC2)cc1)[N-]c1ccc(S(=O)(=O)N2CCOCC2)cc1 (3D coordinates assigned)
O=C([N-]c1ccc(S(=O)(=O)N2CCOCC2)cc1)[N-]c1ccc(S(=O)(=O)N2CCOCC2)cc1 (nonaromatic ring conformer: 84.22955383170863 kcal/mol)

>  <smiles>  (27) 
O=C(Nc1ccc(S(=O)(=O)N2CCOCC2)cc1)Nc1ccc(S(=O)(=O)N2CCOCC2)cc1

>  <score_type>  (27) 
oracle

>  <origin>  (27) 
adgpu

>  <m_score__min__energy>  (27) 
-12

>  <m_primary>  (27) 
energy

$$$$
27:0
     RDKit          3D

 54 57  0  0  0  0  0  0  0  0999 V2000
   -9.1640   18.4340  -31.8680 C   0  0  0  0  0  0  0  0  0  0  0  0
   -8.6200   19.8380  -31.9300 C   0  0  0  0  0  0  0  0  0  0  0  0
   -9.4630   20.9080  -31.5810 C   0  0  0  0  0  0  0  0  0  0  0  0
   -8.9930   22.2210  -31.6010 C   0  0  0  0  0  0  0  0  0  0  0  0
   -7.6730   22.4860  -31.9610 C   0  0  0  0  0  0  0  0  0  0  0  0
   -6.8200   21.4390  -32.3080 C   0  0  0  0  0  0  0  0  0  0  0  0
   -7.2750   20.1080  -32.3030 C   0  0  0  0  0  0  0  0  0  0  0  0
   -6.3020   19.0200  -32.7020 C   0  0  0  0  0  0  0  0  0  0  0  0
   -6.1100   18.9450  -34.5210 S   0  0  0  0  0  0  0  0  0  0  0  0
   -4.4340   18.2990  -34.4800 C   0  0  0  0  0  0  0  0  0  0  0  0
   -4.0150   17.2900  -35.2670 N   0  0  0  0  0  0  0  0  0  0  0  0
   -2.7170   17.1780  -35.0250 N   0  0  0  0  0  0  0  0  0  0  0  0
   -2.3420   18.0890  -34.1400 N   0  0  0  0  0  0  0  0  0  0  0  0
   -3.3960   18.8000  -33.7780 N   0  0  0  0  0  0  0  0  0  0  0  0
   -3.3310   19.9490  -32.9120 C   0  0  0  0  0  0  0  0  0  0  0  0
   -3.8760   21.1700  -33.3400 C   0  0  0  0  0  0  0  0  0  0  0  0
   -3.8180   22.3020  -32.5220 C   0  0  0  0  0  0  0  0  0  0  0  0
   -3.1960   22.2400  -31.2640 C   0  0  0  0  0  0  0  0  0  0  0  0
   -3.1350   23.4310  -30.3820 C   0  0  0  0  0  0  0  0  0  0  0  0
   -3.6380   24.5190  -30.7760 O   0  0  0  0  0  0  0  0  0  0  0  0
   -2.5270   23.3590  -29.0810 N   0  0  0  0  0  0  0  0  0  0  0  0
   -2.2500   24.5600  -28.2840 C   0  0  0  0  0  0  0  0  0  0  0  0
   -0.7380   24.7010  -28.0400 C   0  0  0  0  0  0  0  0  0  0  0  0
   -0.3980   26.0140  -27.3050 C   0  0  0  0  0  0  0  0  0  0  0  0
   -1.5410   26.5330  -26.4100 C   0  0  0  0  0  0  0  0  0  0  0  0
   -2.3690   25.3820  -25.8320 C   0  0  0  0  0  0  0  0  0  0  0  0
   -3.0190   24.5220  -26.9370 C   0  0  0  0  0  0  0  0  0  0  0  0
   -2.6430   21.0210  -30.8390 C   0  0  0  0  0  0  0  0  0  0  0  0
   -2.7010   19.8900  -31.6590 C   0  0  0  0  0  0  0  0  0  0  0  0
   -9.2809   18.1322  -30.8167 H   0  0  0  0  0  0  0  0  0  0  0  0
  -10.1415   18.3970  -32.3710 H   0  0  0  0  0  0  0  0  0  0  0  0
   -8.4666   17.7480  -32.3710 H   0  0  0  0  0  0  0  0  0  0  0  0
  -10.5044   20.7073  -31.2891 H   0  0  0  0  0  0  0  0  0  0  0  0
   -9.6655   23.0489  -31.3321 H   0  0  0  0  0  0  0  0  0  0  0  0
   -7.3037   23.5221  -31.9714 H   0  0  0  0  0  0  0  0  0  0  0  0
   -5.7790   21.6565  -32.5890 H   0  0  0  0  0  0  0  0  0  0  0  0
   -5.3231   19.2279  -32.2454 H   0  0  0  0  0  0  0  0  0  0  0  0
   -6.6940   18.0539  -32.3512 H   0  0  0  0  0  0  0  0  0  0  0  0
   -4.3534   21.2365  -34.3288 H   0  0  0  0  0  0  0  0  0  0  0  0
   -4.2624   23.2477  -32.8657 H   0  0  0  0  0  0  0  0  0  0  0  0
   -2.3520   22.4170  -28.6650 H   0  0  0  0  0  0  0  0  0  0  0  0
   -2.5988   25.4370  -28.8490 H   0  0  0  0  0  0  0  0  0  0  0  0
   -0.3947   23.8522  -27.4304 H   0  0  0  0  0  0  0  0  0  0  0  0
   -0.2331   24.7147  -29.0172 H   0  0  0  0  0  0  0  0  0  0  0  0
    0.4864   25.8407  -26.6743 H   0  0  0  0  0  0  0  0  0  0  0  0
   -0.2186   26.7783  -28.0755 H   0  0  0  0  0  0  0  0  0  0  0  0
   -1.1102   27.1144  -25.5815 H   0  0  0  0  0  0  0  0  0  0  0  0
   -2.2036   27.1593  -27.0254 H   0  0  0  0  0  0  0  0  0  0  0  0
   -1.7116   24.7420  -25.2251 H   0  0  0  0  0  0  0  0  0  0  0  0
   -3.1753   25.8172  -25.2233 H   0  0  0  0  0  0  0  0  0  0  0  0
   -3.0591   23.4795  -26.5884 H   0  0  0  0  0  0  0  0  0  0  0  0
   -4.0198   24.9383  -27.1241 H   0  0  0  0  0  0  0  0  0  0  0  0
   -2.1602   20.9555  -29.8528 H   0  0  0  0  0  0  0  0  0  0  0  0
   -2.2493   18.9463  -31.3195 H   0  0  0  0  0  0  0  0  0  0  0  0
  1  2  1  0
  2  3  2  0
  3  4  1  0
  4  5  2  0
  5  6  1  0
  6  7  2  0
  7  8  1  0
  8  9  1  0
  9 10  1  0
 10 11  2  0
 11 12  1  0
 12 13  2  0
 13 14  1  0
 14 15  1  0
 15 16  2  0
 16 17  1  0
 17 18  2  0
 18 19  1  0
 19 20  2  0
 19 21  1  0
 21 22  1  0
 22 23  1  0
 23 24  1  0
 24 25  1  0
 25 26  1  0
 26 27  1  0
 18 28  1  0
 28 29  2  0
  7  2  1  0
 14 10  1  0
 29 15  1  0
 27 22  1  0
  1 30  1  0
  1 31  1  0
  1 32  1  0
  3 33  1  0
  4 34  1  0
  5 35  1  0
  6 36  1  0
  8 37  1  0
  8 38  1  0
 16 39  1  0
 17 40  1  0
 21 41  1  0
 22 42  1  0
 23 43  1  0
 23 44  1  0
 24 45  1  0
 24 46  1  0
 25 47  1  0
 25 48  1  0
 26 49  1  0
 26 50  1  0
 27 51  1  0
 27 52  1  0
 28 53  1  0
 29 54  1  0
M  END
>  <UniqueID>  (28) 
28

>  <SMILES>  (28) 
Cc1ccccc1CSc1nnnn1-c1ccc(C(=O)NC2CCCCC2)cc1

>  <Energy>  (28) 
102.94236207295678

>  <Genealogy>  (28) 
Cc1ccccc1CSc1nnnn1-c1ccc(C(=O)NC2CCCCC2)cc1 (3D coordinates assigned)
Cc1ccccc1CSc1nnnn1-c1ccc(C(=O)NC2CCCCC2)cc1 (nonaromatic ring conformer: 102.94236207295678 kcal/mol)

>  <smiles>  (28) 
Cc1ccccc1CSc1nnnn1-c1ccc(C(=O)NC2CCCCC2)cc1

>  <score_type>  (28) 
oracle

>  <origin>  (28) 
adgpu

>  <m_score__min__energy>  (28) 
-10.42

>  <m_primary>  (28) 
energy

$$$$
28:0
     RDKit          3D

 71 74  0  0  0  0  0  0  0  0999 V2000
    1.8920   13.2000  -31.9370 C   0  0  0  0  0  0  0  0  0  0  0  0
    0.6550   14.0010  -32.2290 C   0  0  0  0  0  0  0  0  0  0  0  0
   -0.2930   13.4650  -33.1140 C   0  0  0  0  0  0  0  0  0  0  0  0
   -1.4510   14.1730  -33.4330 C   0  0  0  0  0  0  0  0  0  0  0  0
   -1.6720   15.4530  -32.9010 C   0  0  0  0  0  0  0  0  0  0  0  0
   -2.8570   16.2090  -33.2130 N   0  0  0  0  0  0  0  0  0  0  0  0
   -4.1710   15.9010  -32.7170 C   0  0  0  0  0  0  0  0  0  0  0  0
   -4.4290   14.7580  -32.2510 O   0  0  0  0  0  0  0  0  0  0  0  0
   -5.2370   16.9140  -32.7580 C   0  0  0  0  0  0  0  0  0  0  0  0
   -5.9780   17.1900  -31.6010 C   0  0  0  0  0  0  0  0  0  0  0  0
   -6.9720   18.1730  -31.6200 C   0  0  0  0  0  0  0  0  0  0  0  0
   -7.2670   18.8490  -32.8090 C   0  0  0  0  0  0  0  0  0  0  0  0
   -8.5840   20.0670  -32.8430 S   0  0  0  0  0  0  0  0  0  0  0  0
   -7.5710   21.3180  -32.0510 C   0  0  0  0  0  0  0  0  0  0  0  0
   -8.1000   22.1190  -31.0320 C   0  0  0  0  0  0  0  0  0  0  0  0
   -7.2940   23.0710  -30.4000 C   0  0  0  0  0  0  0  0  0  0  0  0
   -5.9510   23.2190  -30.7750 C   0  0  0  0  0  0  0  0  0  0  0  0
   -4.9400   24.4170  -29.9700 S   0  0  0  0  0  0  0  0  0  0  0  0
   -5.7670   25.2050  -28.9920 O   0  0  0  0  0  0  0  0  0  0  0  0
   -4.3900   25.3620  -31.0020 O   0  0  0  0  0  0  0  0  0  0  0  0
   -3.6290   23.6190  -29.1420 N   0  0  0  0  0  0  0  0  0  0  0  0
   -4.1150   22.4100  -28.4660 C   0  0  0  0  0  0  0  0  0  0  0  0
   -2.9250   21.6060  -27.9090 C   0  0  0  0  0  0  0  0  0  0  0  0
   -1.7670   22.4530  -27.5370 N   0  0  0  0  0  0  0  0  0  0  0  0
   -0.7460   22.5030  -28.5980 C   0  0  0  0  0  0  0  0  0  0  0  0
   -2.1750   23.8020  -27.1030 C   0  0  0  0  0  0  0  0  0  0  0  0
   -3.0080   24.5440  -28.1730 C   0  0  0  0  0  0  0  0  0  0  0  0
   -5.4290   22.4270  -31.8060 C   0  0  0  0  0  0  0  0  0  0  0  0
   -6.2370   21.4840  -32.4450 C   0  0  0  0  0  0  0  0  0  0  0  0
   -6.5380   18.5680  -33.9720 C   0  0  0  0  0  0  0  0  0  0  0  0
   -5.5110   17.6180  -33.9420 C   0  0  0  0  0  0  0  0  0  0  0  0
   -0.7510   15.9710  -31.9820 C   0  0  0  0  0  0  0  0  0  0  0  0
    0.3960   15.2490  -31.6120 C   0  0  0  0  0  0  0  0  0  0  0  0
    1.4860   15.9610  -30.4050 S   0  0  0  0  0  0  0  0  0  0  0  0
    1.9710   14.9040  -29.4490 O   0  0  0  0  0  0  0  0  0  0  0  0
    2.6630   16.5560  -31.1240 O   0  0  0  0  0  0  0  0  0  0  0  0
    0.6570   17.2030  -29.4950 N   0  0  0  0  0  0  0  0  0  0  0  0
    0.8920   16.9960  -28.0590 C   0  0  0  0  0  0  0  0  0  0  0  0
    1.1610   18.5210  -29.9010 C   0  0  0  0  0  0  0  0  0  0  0  0
    2.0247   13.1141  -30.8484 H   0  0  0  0  0  0  0  0  0  0  0  0
    1.7903   12.1958  -32.3744 H   0  0  0  0  0  0  0  0  0  0  0  0
    2.7667   13.7036  -32.3744 H   0  0  0  0  0  0  0  0  0  0  0  0
   -0.1205   12.4749  -33.5612 H   0  0  0  0  0  0  0  0  0  0  0  0
   -2.1967   13.7253  -34.1064 H   0  0  0  0  0  0  0  0  0  0  0  0
   -2.7570   17.0370  -33.8420 H   0  0  0  0  0  0  0  0  0  0  0  0
   -5.7769   16.6315  -30.6749 H   0  0  0  0  0  0  0  0  0  0  0  0
   -7.5228   18.4152  -30.6991 H   0  0  0  0  0  0  0  0  0  0  0  0
   -9.1504   21.9994  -30.7283 H   0  0  0  0  0  0  0  0  0  0  0  0
   -7.7148   23.7057  -29.6062 H   0  0  0  0  0  0  0  0  0  0  0  0
   -4.7802   22.6974  -27.6384 H   0  0  0  0  0  0  0  0  0  0  0  0
   -4.6658   21.7885  -29.1874 H   0  0  0  0  0  0  0  0  0  0  0  0
   -3.2603   21.0608  -27.0144 H   0  0  0  0  0  0  0  0  0  0  0  0
   -2.5889   20.9273  -28.7067 H   0  0  0  0  0  0  0  0  0  0  0  0
    0.2541   22.5520  -28.1425 H   0  0  0  0  0  0  0  0  0  0  0  0
   -0.8209   21.6001  -29.2218 H   0  0  0  0  0  0  0  0  0  0  0  0
   -0.9088   23.3942  -29.2218 H   0  0  0  0  0  0  0  0  0  0  0  0
   -2.7785   23.7102  -26.1879 H   0  0  0  0  0  0  0  0  0  0  0  0
   -1.2599   24.3869  -26.9285 H   0  0  0  0  0  0  0  0  0  0  0  0
   -3.8025   25.1144  -27.6696 H   0  0  0  0  0  0  0  0  0  0  0  0
   -2.3278   25.2061  -28.7289 H   0  0  0  0  0  0  0  0  0  0  0  0
   -4.3797   22.5482  -32.1131 H   0  0  0  0  0  0  0  0  0  0  0  0
   -5.8250   20.8702  -33.2595 H   0  0  0  0  0  0  0  0  0  0  0  0
   -6.7730   19.0943  -34.9089 H   0  0  0  0  0  0  0  0  0  0  0  0
   -4.9174   17.4223  -34.8471 H   0  0  0  0  0  0  0  0  0  0  0  0
   -0.9292   16.9629  -31.5411 H   0  0  0  0  0  0  0  0  0  0  0  0
    0.1903   17.6141  -27.4798 H   0  0  0  0  0  0  0  0  0  0  0  0
    0.7371   15.9355  -27.8112 H   0  0  0  0  0  0  0  0  0  0  0  0
    1.9245   17.2834  -27.8112 H   0  0  0  0  0  0  0  0  0  0  0  0
    1.3893   19.1180  -29.0057 H   0  0  0  0  0  0  0  0  0  0  0  0
    2.0745   18.3954  -30.5007 H   0  0  0  0  0  0  0  0  0  0  0  0
    0.3967   19.0370  -30.5007 H   0  0  0  0  0  0  0  0  0  0  0  0
  1  2  1  0
  2  3  2  0
  3  4  1  0
  4  5  2  0
  5  6  1  0
  6  7  1  0
  7  8  2  0
  7  9  1  0
  9 10  2  0
 10 11  1  0
 11 12  2  0
 12 13  1  0
 13 14  1  0
 14 15  2  0
 15 16  1  0
 16 17  2  0
 17 18  1  0
 18 19  2  0
 18 20  2  0
 18 21  1  0
 21 22  1  0
 22 23  1  0
 23 24  1  0
 24 25  1  0
 24 26  1  0
 26 27  1  0
 17 28  1  0
 28 29  2  0
 12 30  1  0
 30 31  2  0
  5 32  1  0
 32 33  2  0
 33 34  1  0
 34 35  2  0
 34 36  2  0
 34 37  1  0
 37 38  1  0
 37 39  1  0
 33  2  1  0
 31  9  1  0
 29 14  1  0
 27 21  1  0
  1 40  1  0
  1 41  1  0
  1 42  1  0
  3 43  1  0
  4 44  1  0
  6 45  1  0
 10 46  1  0
 11 47  1  0
 15 48  1  0
 16 49  1  0
 22 50  1  0
 22 51  1  0
 23 52  1  0
 23 53  1  0
 25 54  1  0
 25 55  1  0
 25 56  1  0
 26 57  1  0
 26 58  1  0
 27 59  1  0
 27 60  1  0
 28 61  1  0
 29 62  1  0
 30 63  1  0
 31 64  1  0
 32 65  1  0
 38 66  1  0
 38 67  1  0
 38 68  1  0
 39 69  1  0
 39 70  1  0
 39 71  1  0
M  END
>  <UniqueID>  (29) 
29

>  <SMILES>  (29) 
Cc1ccc(NC(=O)c2ccc(Sc3ccc(S(=O)(=O)N4CCN(C)CC4)cc3)cc2)cc1S(=O)(=O)N(C)C

>  <Energy>  (29) 
87.12369443521226

>  <Genealogy>  (29) 
Cc1ccc(NC(=O)c2ccc(Sc3ccc(S(=O)(=O)N4CCN(C)CC4)cc3)cc2)cc1S(=O)(=O)N(C)C (3D coordinates assigned)
Cc1ccc(NC(=O)c2ccc(Sc3ccc(S(=O)(=O)N4CCN(C)CC4)cc3)cc2)cc1S(=O)(=O)N(C)C (nonaromatic ring conformer: 87.12369443521226 kcal/mol)

>  <smiles>  (29) 
Cc1ccc(NC(=O)c2ccc(Sc3ccc(S(=O)(=O)N4CCN(C)CC4)cc3)cc2)cc1S(=O)(=O)N(C)C

>  <score_type>  (29) 
oracle

>  <origin>  (29) 
adgpu

>  <m_score__min__energy>  (29) 
-11.65

>  <m_primary>  (29) 
energy

$$$$
29:0
     RDKit          3D

 52 56  0  0  0  0  0  0  0  0999 V2000
   -4.5100   13.3510  -31.4720 C   0  0  0  0  0  0  0  0  0  0  0  0
   -5.1840   13.4400  -32.7230 O   0  0  0  0  0  0  0  0  0  0  0  0
   -4.5670   13.2800  -33.9750 C   0  0  0  0  0  0  0  0  0  0  0  0
   -4.3210   12.0070  -34.5200 C   0  0  0  0  0  0  0  0  0  0  0  0
   -3.6740   11.8950  -35.7510 C   0  0  0  0  0  0  0  0  0  0  0  0
   -3.2840   13.0080  -36.4200 N   0  0  0  0  0  0  0  0  0  0  0  0
   -3.5080   14.2540  -35.9270 C   0  0  0  0  0  0  0  0  0  0  0  0
   -4.1630   14.4240  -34.6950 C   0  0  0  0  0  0  0  0  0  0  0  0
   -4.4120   15.7920  -34.1780 C   0  0  0  0  0  0  0  0  0  0  0  0
   -3.3440   16.5880  -33.7380 C   0  0  0  0  0  0  0  0  0  0  0  0
   -3.5720   17.8800  -33.2580 C   0  0  0  0  0  0  0  0  0  0  0  0
   -4.8810   18.4080  -33.2110 C   0  0  0  0  0  0  0  0  0  0  0  0
   -5.2110   19.8010  -32.7030 C   0  0  1  0  0  0  0  0  0  0  0  0
   -6.3930   19.9200  -31.7360 C   0  0  2  0  0  0  0  0  0  0  0  0
   -7.2370   21.1690  -31.8720 C   0  0  0  0  0  0  0  0  0  0  0  0
   -6.7770   22.2980  -32.5770 C   0  0  0  0  0  0  0  0  0  0  0  0
   -7.5980   23.4210  -32.7240 C   0  0  0  0  0  0  0  0  0  0  0  0
   -8.8940   23.4160  -32.2030 C   0  0  0  0  0  0  0  0  0  0  0  0
   -9.3790   22.2800  -31.5510 C   0  0  0  0  0  0  0  0  0  0  0  0
   -8.5610   21.1550  -31.4030 C   0  0  0  0  0  0  0  0  0  0  0  0
   -4.9440   20.0780  -31.2210 C   0  0  2  0  0  0  0  0  0  0  0  0
   -4.4570   21.4700  -30.8830 C   0  0  0  0  0  0  0  0  0  0  0  0
   -3.1780   21.9190  -31.2640 C   0  0  0  0  0  0  0  0  0  0  0  0
   -2.7390   23.1940  -30.9000 C   0  0  0  0  0  0  0  0  0  0  0  0
   -3.5530   24.0210  -30.1210 C   0  0  0  0  0  0  0  0  0  0  0  0
   -3.1160   25.2900  -29.7620 O   0  0  0  0  0  0  0  0  0  0  0  0
   -4.8020   23.5630  -29.6930 C   0  0  0  0  0  0  0  0  0  0  0  0
   -5.2430   22.2880  -30.0550 C   0  0  0  0  0  0  0  0  0  0  0  0
   -5.9430   17.6080  -33.6610 C   0  0  0  0  0  0  0  0  0  0  0  0
   -5.7130   16.3160  -34.1420 C   0  0  0  0  0  0  0  0  0  0  0  0
   -5.2398   13.4474  -30.6546 H   0  0  0  0  0  0  0  0  0  0  0  0
   -4.0023   12.3780  -31.3974 H   0  0  0  0  0  0  0  0  0  0  0  0
   -3.7672   14.1589  -31.3974 H   0  0  0  0  0  0  0  0  0  0  0  0
   -4.6374   11.1036  -33.9780 H   0  0  0  0  0  0  0  0  0  0  0  0
   -3.4797   10.9009  -36.1800 H   0  0  0  0  0  0  0  0  0  0  0  0
   -3.1748   15.1349  -36.4953 H   0  0  0  0  0  0  0  0  0  0  0  0
   -2.3185   16.1916  -33.7712 H   0  0  0  0  0  0  0  0  0  0  0  0
   -2.7247   18.4913  -32.9137 H   0  0  0  0  0  0  0  0  0  0  0  0
   -4.9277   20.2918  -33.6458 H   0  0  0  0  0  0  0  0  0  0  0  0
   -7.2472   19.2896  -31.4481 H   0  0  0  0  0  0  0  0  0  0  0  0
   -5.7675   22.2968  -33.0140 H   0  0  0  0  0  0  0  0  0  0  0  0
   -7.2221   24.3102  -33.2512 H   0  0  0  0  0  0  0  0  0  0  0  0
   -9.5321   24.3060  -32.3061 H   0  0  0  0  0  0  0  0  0  0  0  0
  -10.4047   22.2700  -31.1537 H   0  0  0  0  0  0  0  0  0  0  0  0
   -8.9577   20.2522  -30.9155 H   0  0  0  0  0  0  0  0  0  0  0  0
   -4.3570   19.6047  -30.4201 H   0  0  0  0  0  0  0  0  0  0  0  0
   -2.5205   21.2616  -31.8519 H   0  0  0  0  0  0  0  0  0  0  0  0
   -1.7503   23.5481  -31.2272 H   0  0  0  0  0  0  0  0  0  0  0  0
   -5.4391   24.2078  -29.0698 H   0  0  0  0  0  0  0  0  0  0  0  0
   -6.2134   21.9218  -29.6887 H   0  0  0  0  0  0  0  0  0  0  0  0
   -6.9693   18.0029  -33.6348 H   0  0  0  0  0  0  0  0  0  0  0  0
   -6.5576   15.7059  -34.4947 H   0  0  0  0  0  0  0  0  0  0  0  0
  1  2  1  0
  2  3  1  0
  3  4  2  0
  4  5  1  0
  5  6  2  0
  6  7  1  0
  7  8  2  0
  8  9  1  0
  9 10  2  0
 10 11  1  0
 11 12  2  0
 12 13  1  0
 13 14  1  0
 14 15  1  0
 15 16  2  0
 16 17  1  0
 17 18  2  0
 18 19  1  0
 19 20  2  0
 14 21  1  0
 21 22  1  0
 22 23  2  0
 23 24  1  0
 24 25  2  0
 25 26  1  0
 25 27  1  0
 27 28  2  0
 12 29  1  0
 29 30  2  0
  8  3  1  0
 30  9  1  0
 21 13  1  0
 28 22  1  0
 20 15  1  0
  1 31  1  0
  1 32  1  0
  1 33  1  0
  4 34  1  0
  5 35  1  0
  7 36  1  0
 10 37  1  0
 11 38  1  0
 13 39  1  6
 14 40  1  1
 16 41  1  0
 17 42  1  0
 18 43  1  0
 19 44  1  0
 20 45  1  0
 21 46  1  1
 23 47  1  0
 24 48  1  0
 27 49  1  0
 28 50  1  0
 29 51  1  0
 30 52  1  0
M  CHG  1  26  -1
M  END
>  <UniqueID>  (30) 
30

>  <SMILES>  (30) 
COc1ccncc1-c1ccc([C@@H]2C(c3ccc([O-])cc3)[C@H]2c2ccccc2)cc1

>  <Energy>  (30) 
339.2258207017794

>  <Genealogy>  (30) 
COc1ccncc1-c1ccc(C2C(c3ccccc3)C2c2ccc([O-])cc2)cc1 (protonated)
COc1ccncc1-c1ccc([C@@H]2C(c3ccc([O-])cc3)[C@H]2c2ccccc2)cc1 (chirality)
COc1ccncc1-c1ccc([C@@H]2C(c3ccc([O-])cc3)[C@H]2c2ccccc2)cc1 (3D coordinates assigned)
COc1ccncc1-c1ccc([C@@H]2C(c3ccc([O-])cc3)[C@H]2c2ccccc2)cc1 (nonaromatic ring conformer: 339.2258207017794 kcal/mol)

>  <smiles>  (30) 
COc1ccncc1-c1ccc(C2C(c3ccccc3)C2c2ccc(O)cc2)cc1

>  <score_type>  (30) 
oracle

>  <origin>  (30) 
adgpu

>  <m_score__min__energy>  (30) 
-10.49

>  <m_primary>  (30) 
energy

$$$$
30:0
     RDKit          3D

 58 61  0  0  0  0  0  0  0  0999 V2000
    0.0480   22.9270  -26.5380 C   0  0  0  0  0  0  0  0  0  0  0  0
    0.1070   22.1340  -27.8390 C   0  0  0  0  0  0  0  0  0  0  0  0
   -0.8020   20.9880  -27.7770 N   0  0  0  0  0  0  0  0  0  0  0  0
   -0.5000   19.6740  -27.6960 C   0  0  0  0  0  0  0  0  0  0  0  0
    0.8790   19.0990  -27.8310 C   0  0  0  0  0  0  0  0  0  0  0  0
    1.3530   19.2400  -29.2090 N   0  0  0  0  0  0  0  0  0  0  0  0
    0.4630   19.4360  -30.3160 C   0  0  0  0  0  0  0  0  0  0  0  0
   -0.1100   20.9460  -30.7840 S   0  0  0  0  0  0  0  0  0  0  0  0
   -1.0340   20.3760  -32.0670 C   0  0  0  0  0  0  0  0  0  0  0  0
   -0.9550   18.9880  -32.1130 C   0  0  0  0  0  0  0  0  0  0  0  0
   -0.0900   18.4530  -31.1430 C   0  0  0  0  0  0  0  0  0  0  0  0
    0.1320   17.0390  -30.9880 C   0  0  0  0  0  0  0  0  0  0  0  0
    0.3060   15.9030  -30.8640 N   0  0  0  0  0  0  0  0  0  0  0  0
   -1.6840   18.1850  -33.1590 C   0  0  0  0  0  0  0  0  0  0  0  0
   -2.8330   18.9940  -33.7950 C   0  0  0  0  0  0  0  0  0  0  0  0
   -2.3680   20.4060  -34.1780 C   0  0  0  0  0  0  0  0  0  0  0  0
   -1.9330   21.2010  -32.9350 C   0  0  0  0  0  0  0  0  0  0  0  0
   -1.6100   18.9200  -27.5800 N   0  0  0  0  0  0  0  0  0  0  0  0
   -2.6430   19.7510  -27.5690 N   0  0  0  0  0  0  0  0  0  0  0  0
   -2.1460   20.9980  -27.6890 C   0  0  0  0  0  0  0  0  0  0  0  0
   -3.1700   22.4720  -27.7620 S   0  0  0  0  0  0  0  0  0  0  0  0
   -2.6220   22.9460  -29.4400 C   0  0  0  0  0  0  0  0  0  0  0  0
   -2.9950   24.3730  -29.7230 C   0  0  0  0  0  0  0  0  0  0  0  0
   -2.3810   25.2980  -29.1300 O   0  0  0  0  0  0  0  0  0  0  0  0
   -3.9390   24.7110  -30.7470 N   0  0  0  0  0  0  0  0  0  0  0  0
   -4.9720   23.8460  -31.2390 C   0  0  0  0  0  0  0  0  0  0  0  0
   -4.6540   22.6340  -31.8780 C   0  0  0  0  0  0  0  0  0  0  0  0
   -5.6690   21.7760  -32.3080 C   0  0  0  0  0  0  0  0  0  0  0  0
   -7.0060   22.1100  -32.0890 C   0  0  0  0  0  0  0  0  0  0  0  0
   -7.3330   23.3000  -31.4330 C   0  0  0  0  0  0  0  0  0  0  0  0
   -6.3160   24.1760  -30.9980 C   0  0  0  0  0  0  0  0  0  0  0  0
   -6.6050   25.3820  -30.3360 O   0  0  0  0  0  0  0  0  0  0  0  0
   -6.2230   25.6750  -28.9940 C   0  0  0  0  0  0  0  0  0  0  0  0
    0.0995   22.2352  -25.6843 H   0  0  0  0  0  0  0  0  0  0  0  0
    0.8967   23.6256  -26.4956 H   0  0  0  0  0  0  0  0  0  0  0  0
   -0.8947   23.4923  -26.4956 H   0  0  0  0  0  0  0  0  0  0  0  0
   -0.1871   22.7857  -28.6749 H   0  0  0  0  0  0  0  0  0  0  0  0
    1.1337   21.7688  -27.9893 H   0  0  0  0  0  0  0  0  0  0  0  0
    1.5631   19.6330  -27.1550 H   0  0  0  0  0  0  0  0  0  0  0  0
    0.8498   18.0311  -27.5690 H   0  0  0  0  0  0  0  0  0  0  0  0
    2.3410   18.9810  -29.4360 H   0  0  0  0  0  0  0  0  0  0  0  0
   -0.9729   17.8948  -33.9464 H   0  0  0  0  0  0  0  0  0  0  0  0
   -2.1152   17.2971  -32.6734 H   0  0  0  0  0  0  0  0  0  0  0  0
   -3.1819   18.4731  -34.6988 H   0  0  0  0  0  0  0  0  0  0  0  0
   -3.6474   19.0813  -33.0607 H   0  0  0  0  0  0  0  0  0  0  0  0
   -1.5173   20.3286  -34.8710 H   0  0  0  0  0  0  0  0  0  0  0  0
   -3.2075   20.9335  -34.6544 H   0  0  0  0  0  0  0  0  0  0  0  0
   -1.3953   22.1057  -33.2549 H   0  0  0  0  0  0  0  0  0  0  0  0
   -2.8290   21.4735  -32.3581 H   0  0  0  0  0  0  0  0  0  0  0  0
   -1.5299   22.8349  -29.5106 H   0  0  0  0  0  0  0  0  0  0  0  0
   -3.1139   22.2934  -30.1763 H   0  0  0  0  0  0  0  0  0  0  0  0
   -3.6009   22.3605  -32.0399 H   0  0  0  0  0  0  0  0  0  0  0  0
   -5.4141   20.8362  -32.8197 H   0  0  0  0  0  0  0  0  0  0  0  0
   -7.8039   21.4356  -32.4332 H   0  0  0  0  0  0  0  0  0  0  0  0
   -8.3882   23.5549  -31.2550 H   0  0  0  0  0  0  0  0  0  0  0  0
   -6.8993   25.1562  -28.2987 H   0  0  0  0  0  0  0  0  0  0  0  0
   -5.1909   25.3348  -28.8240 H   0  0  0  0  0  0  0  0  0  0  0  0
   -6.2841   26.7601  -28.8240 H   0  0  0  0  0  0  0  0  0  0  0  0
  1  2  1  0
  2  3  1  0
  3  4  1  0
  4  5  1  0
  5  6  1  0
  6  7  1  0
  7  8  1  0
  8  9  1  0
  9 10  2  0
 10 11  1  0
 11 12  1  0
 12 13  3  0
 10 14  1  0
 14 15  1  0
 15 16  1  0
 16 17  1  0
  4 18  2  0
 18 19  1  0
 19 20  2  0
 20 21  1  0
 21 22  1  0
 22 23  1  0
 23 24  2  0
 23 25  1  0
 25 26  1  0
 26 27  2  0
 27 28  1  0
 28 29  2  0
 29 30  1  0
 30 31  2  0
 31 32  1  0
 32 33  1  0
 20  3  1  0
 31 26  1  0
 11  7  2  0
 17  9  1  0
  1 34  1  0
  1 35  1  0
  1 36  1  0
  2 37  1  0
  2 38  1  0
  5 39  1  0
  5 40  1  0
  6 41  1  0
 14 42  1  0
 14 43  1  0
 15 44  1  0
 15 45  1  0
 16 46  1  0
 16 47  1  0
 17 48  1  0
 17 49  1  0
 22 50  1  0
 22 51  1  0
 27 52  1  0
 28 53  1  0
 29 54  1  0
 30 55  1  0
 33 56  1  0
 33 57  1  0
 33 58  1  0
M  CHG  1  25  -1
M  END
>  <UniqueID>  (31) 
31

>  <SMILES>  (31) 
CCn1c(CNc2sc3c(c2C#N)CCCC3)nnc1SCC(=O)[N-]c1ccccc1OC

>  <Energy>  (31) 
118.9578911353403

>  <Genealogy>  (31) 
CCn1c(CNc2sc3c(c2C#N)CCCC3)nnc1SCC(=O)[N-]c1ccccc1OC (protonated)
CCn1c(CNc2sc3c(c2C#N)CCCC3)nnc1SCC(=O)[N-]c1ccccc1OC (3D coordinates assigned)
CCn1c(CNc2sc3c(c2C#N)CCCC3)nnc1SCC(=O)[N-]c1ccccc1OC (nonaromatic ring conformer: 118.9578911353403 kcal/mol)

>  <smiles>  (31) 
CCn1c(CNc2sc3c(c2C#N)CCCC3)nnc1SCC(=O)Nc1ccccc1OC

>  <score_type>  (31) 
oracle

>  <origin>  (31) 
adgpu

>  <m_score__min__energy>  (31) 
-11.82

>  <m_primary>  (31) 
energy

$$$$
31:0
     RDKit          3D

 62 65  0  0  0  0  0  0  0  0999 V2000
   -1.6680   21.5100  -26.5900 C   0  0  0  0  0  0  0  0  0  0  0  0
   -2.2120   22.4650  -27.6250 C   0  0  0  0  0  0  0  0  0  0  0  0
   -3.4370   22.1590  -28.2380 C   0  0  0  0  0  0  0  0  0  0  0  0
   -3.9900   23.0100  -29.1900 C   0  0  0  0  0  0  0  0  0  0  0  0
   -3.3390   24.2000  -29.5350 C   0  0  0  0  0  0  0  0  0  0  0  0
   -3.9100   25.1090  -30.4890 N   0  0  0  0  0  0  0  0  0  0  0  0
   -5.2390   25.6490  -30.4440 C   0  0  0  0  0  0  0  0  0  0  0  0
   -5.3870   26.8950  -30.3360 O   0  0  0  0  0  0  0  0  0  0  0  0
   -6.4020   24.8130  -30.5190 N   0  0  0  0  0  0  0  0  0  0  0  0
   -6.4480   23.4910  -31.0710 C   0  0  0  0  0  0  0  0  0  0  0  0
   -5.4430   23.0860  -31.9560 C   0  0  0  0  0  0  0  0  0  0  0  0
   -5.4320   21.7850  -32.4670 C   0  0  0  0  0  0  0  0  0  0  0  0
   -6.4410   20.8800  -32.1060 C   0  0  0  0  0  0  0  0  0  0  0  0
   -6.4480   19.2370  -32.7410 S   0  0  0  0  0  0  0  0  0  0  0  0
   -7.8660   18.8580  -33.0690 O   0  0  0  0  0  0  0  0  0  0  0  0
   -5.9190   18.2790  -31.7080 O   0  0  0  0  0  0  0  0  0  0  0  0
   -5.4660   19.1650  -34.1900 N   0  0  0  0  0  0  0  0  0  0  0  0
   -4.0410   19.0930  -33.8470 C   0  0  0  0  0  0  0  0  0  0  0  0
   -3.6450   17.6230  -33.7830 C   0  0  0  0  0  0  0  0  0  0  0  0
   -4.7340   16.8780  -34.5320 C   0  0  0  0  0  0  0  0  0  0  0  0
   -5.7500   17.9370  -34.9420 C   0  0  0  0  0  0  0  0  0  0  0  0
   -7.4710   21.2960  -31.2530 C   0  0  0  0  0  0  0  0  0  0  0  0
   -7.4830   22.5960  -30.7460 C   0  0  0  0  0  0  0  0  0  0  0  0
   -2.1050   24.5120  -28.9480 C   0  0  0  0  0  0  0  0  0  0  0  0
   -1.4540   25.6770  -29.3420 O   0  0  0  0  0  0  0  0  0  0  0  0
   -1.5400   23.6660  -27.9680 C   0  0  0  0  0  0  0  0  0  0  0  0
    0.0150   24.0860  -27.2110 S   0  0  0  0  0  0  0  0  0  0  0  0
    1.0140   24.4080  -28.2870 O   0  0  0  0  0  0  0  0  0  0  0  0
    0.5570   22.9340  -26.4120 O   0  0  0  0  0  0  0  0  0  0  0  0
   -0.2020   25.4730  -26.1730 N   0  0  0  0  0  0  0  0  0  0  0  0
   -0.0620   26.7170  -26.9650 C   0  0  0  0  0  0  0  0  0  0  0  0
   -0.6050   27.9600  -26.2210 C   0  0  0  0  0  0  0  0  0  0  0  0
   -0.7220   27.7070  -24.7170 C   0  0  0  0  0  0  0  0  0  0  0  0
   -1.6290   26.4950  -24.4290 C   0  0  0  0  0  0  0  0  0  0  0  0
   -1.5170   25.4080  -25.5150 C   0  0  0  0  0  0  0  0  0  0  0  0
   -1.8878   21.8959  -25.5836 H   0  0  0  0  0  0  0  0  0  0  0  0
   -2.1403   20.5246  -26.7161 H   0  0  0  0  0  0  0  0  0  0  0  0
   -0.5795   21.4137  -26.7161 H   0  0  0  0  0  0  0  0  0  0  0  0
   -3.9665   21.2350  -27.9624 H   0  0  0  0  0  0  0  0  0  0  0  0
   -4.9424   22.7465  -29.6732 H   0  0  0  0  0  0  0  0  0  0  0  0
   -4.6565   23.7959  -32.2516 H   0  0  0  0  0  0  0  0  0  0  0  0
   -4.6314   21.4707  -33.1528 H   0  0  0  0  0  0  0  0  0  0  0  0
   -3.4456   19.6067  -34.6162 H   0  0  0  0  0  0  0  0  0  0  0  0
   -3.8563   19.5807  -32.8785 H   0  0  0  0  0  0  0  0  0  0  0  0
   -2.6694   17.4661  -34.2663 H   0  0  0  0  0  0  0  0  0  0  0  0
   -3.5484   17.2707  -32.7454 H   0  0  0  0  0  0  0  0  0  0  0  0
   -4.3175   16.3815  -35.4208 H   0  0  0  0  0  0  0  0  0  0  0  0
   -5.1920   16.0948  -33.9100 H   0  0  0  0  0  0  0  0  0  0  0  0
   -5.6667   18.1341  -36.0210 H   0  0  0  0  0  0  0  0  0  0  0  0
   -6.7700   17.5873  -34.7246 H   0  0  0  0  0  0  0  0  0  0  0  0
   -8.2740   20.5949  -30.9815 H   0  0  0  0  0  0  0  0  0  0  0  0
   -8.3041   22.9216  -30.0904 H   0  0  0  0  0  0  0  0  0  0  0  0
    1.0038   26.8761  -27.1856 H   0  0  0  0  0  0  0  0  0  0  0  0
   -0.6528   26.5947  -27.8848 H   0  0  0  0  0  0  0  0  0  0  0  0
    0.0796   28.8044  -26.3891 H   0  0  0  0  0  0  0  0  0  0  0  0
   -1.6082   28.1850  -26.6120 H   0  0  0  0  0  0  0  0  0  0  0  0
    0.2796   27.5122  -24.3061 H   0  0  0  0  0  0  0  0  0  0  0  0
   -1.1660   28.5963  -24.2459 H   0  0  0  0  0  0  0  0  0  0  0  0
   -1.3398   26.0591  -23.4614 H   0  0  0  0  0  0  0  0  0  0  0  0
   -2.6700   26.8502  -24.4153 H   0  0  0  0  0  0  0  0  0  0  0  0
   -1.6416   24.4183  -25.0513 H   0  0  0  0  0  0  0  0  0  0  0  0
   -2.3013   25.5743  -26.2682 H   0  0  0  0  0  0  0  0  0  0  0  0
  1  2  1  0
  2  3  2  0
  3  4  1  0
  4  5  2  0
  5  6  1  0
  6  7  1  0
  7  8  2  0
  7  9  1  0
  9 10  1  0
 10 11  2  0
 11 12  1  0
 12 13  2  0
 13 14  1  0
 14 15  2  0
 14 16  2  0
 14 17  1  0
 17 18  1  0
 18 19  1  0
 19 20  1  0
 20 21  1  0
 13 22  1  0
 22 23  2  0
  5 24  1  0
 24 25  1  0
 24 26  2  0
 26 27  1  0
 27 28  2  0
 27 29  2  0
 27 30  1  0
 30 31  1  0
 31 32  1  0
 32 33  1  0
 33 34  1  0
 34 35  1  0
 26  2  1  0
 35 30  1  0
 23 10  1  0
 21 17  1  0
  1 36  1  0
  1 37  1  0
  1 38  1  0
  3 39  1  0
  4 40  1  0
 11 41  1  0
 12 42  1  0
 18 43  1  0
 18 44  1  0
 19 45  1  0
 19 46  1  0
 20 47  1  0
 20 48  1  0
 21 49  1  0
 21 50  1  0
 22 51  1  0
 23 52  1  0
 31 53  1  0
 31 54  1  0
 32 55  1  0
 32 56  1  0
 33 57  1  0
 33 58  1  0
 34 59  1  0
 34 60  1  0
 35 61  1  0
 35 62  1  0
M  CHG  3   6  -1   9  -1  25  -1
M  END
>  <UniqueID>  (32) 
32

>  <SMILES>  (32) 
Cc1ccc([N-]C(=O)[N-]c2ccc(S(=O)(=O)N3CCCC3)cc2)c([O-])c1S(=O)(=O)N1CCCCC1

>  <Energy>  (32) 
77.18093135198066

>  <Genealogy>  (32) 
Cc1ccc([N-]C(=O)[N-]c2ccc(S(=O)(=O)N3CCCC3)cc2)c([O-])c1S(=O)(=O)N1CCCCC1 (protonated)
Cc1ccc([N-]C(=O)[N-]c2ccc(S(=O)(=O)N3CCCC3)cc2)c([O-])c1S(=O)(=O)N1CCCCC1 (3D coordinates assigned)
Cc1ccc([N-]C(=O)[N-]c2ccc(S(=O)(=O)N3CCCC3)cc2)c([O-])c1S(=O)(=O)N1CCCCC1 (nonaromatic ring conformer: 77.18093135198066 kcal/mol)

>  <smiles>  (32) 
Cc1ccc(NC(=O)Nc2ccc(S(=O)(=O)N3CCCC3)cc2)c(O)c1S(=O)(=O)N1CCCCC1

>  <score_type>  (32) 
oracle

>  <origin>  (32) 
adgpu

>  <m_score__min__energy>  (32) 
-17.550000000000001

>  <m_primary>  (32) 
energy

$$$$
32:0
     RDKit          3D

 37 38  0  0  0  0  0  0  0  0999 V2000
   -6.2100   24.5610  -30.0900 C   0  0  0  0  0  0  0  0  0  0  0  0
   -5.4860   23.3250  -30.5570 C   0  0  0  0  0  0  0  0  0  0  0  0
   -6.1730   22.4000  -31.3630 C   0  0  0  0  0  0  0  0  0  0  0  0
   -5.5470   21.2270  -31.8000 C   0  0  0  0  0  0  0  0  0  0  0  0
   -6.4210   20.0830  -32.8140 S   0  0  0  0  0  0  0  0  0  0  0  0
   -6.5130   18.5120  -31.9880 C   0  0  0  0  0  0  0  0  0  0  0  0
   -5.7100   19.9220  -34.1290 O   0  0  0  0  0  0  0  0  0  0  0  0
   -7.8110   20.5940  -33.0780 O   0  0  0  0  0  0  0  0  0  0  0  0
   -4.2160   20.9830  -31.4500 C   0  0  0  0  0  0  0  0  0  0  0  0
   -3.5150   21.8980  -30.6650 C   0  0  0  0  0  0  0  0  0  0  0  0
   -4.1330   23.0760  -30.2110 C   0  0  0  0  0  0  0  0  0  0  0  0
   -3.3430   24.0340  -29.4010 C   0  0  0  0  0  0  0  0  0  0  0  0
   -3.5370   25.2720  -29.5430 O   0  0  0  0  0  0  0  0  0  0  0  0
   -2.3360   23.5630  -28.4900 N   0  0  0  0  0  0  0  0  0  0  0  0
   -1.5980   24.4340  -27.6200 C   0  0  0  0  0  0  0  0  0  0  0  0
   -1.4670   24.0950  -26.2650 C   0  0  0  0  0  0  0  0  0  0  0  0
   -0.7610   24.9300  -25.3850 C   0  0  0  0  0  0  0  0  0  0  0  0
   -0.6190   24.5690  -24.0090 N   0  0  0  0  0  0  0  0  0  0  0  0
   -0.1970   26.1190  -25.8650 C   0  0  0  0  0  0  0  0  0  0  0  0
   -0.3470   26.4770  -27.2060 C   0  0  0  0  0  0  0  0  0  0  0  0
   -1.0550   25.6480  -28.0830 C   0  0  0  0  0  0  0  0  0  0  0  0
   -1.2380   26.0530  -29.4010 O   0  0  0  0  0  0  0  0  0  0  0  0
   -6.2237   24.5844  -28.9903 H   0  0  0  0  0  0  0  0  0  0  0  0
   -5.6925   25.4544  -30.4694 H   0  0  0  0  0  0  0  0  0  0  0  0
   -7.2424   24.5465  -30.4694 H   0  0  0  0  0  0  0  0  0  0  0  0
   -7.2148   22.6007  -31.6535 H   0  0  0  0  0  0  0  0  0  0  0  0
   -6.5038   18.6691  -30.8993 H   0  0  0  0  0  0  0  0  0  0  0  0
   -7.4427   17.9998  -32.2767 H   0  0  0  0  0  0  0  0  0  0  0  0
   -5.6495   17.8948  -32.2767 H   0  0  0  0  0  0  0  0  0  0  0  0
   -3.7189   20.0646  -31.7955 H   0  0  0  0  0  0  0  0  0  0  0  0
   -2.4672   21.6957  -30.3982 H   0  0  0  0  0  0  0  0  0  0  0  0
   -2.0510   22.5590  -28.5250 H   0  0  0  0  0  0  0  0  0  0  0  0
   -1.9216   23.1666  -25.8889 H   0  0  0  0  0  0  0  0  0  0  0  0
   -0.0730   25.1690  -23.3520 H   0  0  0  0  0  0  0  0  0  0  0  0
   -1.0600   23.6990  -23.6370 H   0  0  0  0  0  0  0  0  0  0  0  0
    0.3661   26.7729  -25.1829 H   0  0  0  0  0  0  0  0  0  0  0  0
    0.0934   27.4151  -27.5748 H   0  0  0  0  0  0  0  0  0  0  0  0
  1  2  1  0
  2  3  2  0
  3  4  1  0
  4  5  1  0
  5  6  1  0
  5  7  2  0
  5  8  2  0
  4  9  2  0
  9 10  1  0
 10 11  2  0
 11 12  1  0
 12 13  2  0
 12 14  1  0
 14 15  1  0
 15 16  2  0
 16 17  1  0
 17 18  1  0
 17 19  2  0
 19 20  1  0
 20 21  2  0
 21 22  1  0
 11  2  1  0
 21 15  1  0
  1 23  1  0
  1 24  1  0
  1 25  1  0
  3 26  1  0
  6 27  1  0
  6 28  1  0
  6 29  1  0
  9 30  1  0
 10 31  1  0
 14 32  1  0
 16 33  1  0
 18 34  1  0
 18 35  1  0
 19 36  1  0
 20 37  1  0
M  CHG  1  22  -1
M  END
>  <UniqueID>  (33) 
33

>  <SMILES>  (33) 
Cc1cc(S(C)(=O)=O)ccc1C(=O)Nc1cc(N)ccc1[O-]

>  <Energy>  (33) 
44.21433352336509

>  <Genealogy>  (33) 
Cc1cc(S(C)(=O)=O)ccc1C(=O)Nc1cc(N)ccc1[O-] (protonated)
Cc1cc(S(C)(=O)=O)ccc1C(=O)Nc1cc(N)ccc1[O-] (3D coordinates assigned)
Cc1cc(S(C)(=O)=O)ccc1C(=O)Nc1cc(N)ccc1[O-] (optimized conformer: 44.21433352336509 kcal/mol)

>  <smiles>  (33) 
Cc1cc(S(C)(=O)=O)ccc1C(=O)Nc1cc(N)ccc1O

>  <score_type>  (33) 
oracle

>  <origin>  (33) 
adgpu

>  <m_score__min__energy>  (33) 
-10.470000000000001

>  <m_primary>  (33) 
energy

$$$$
33:0
     RDKit          3D

 34 35  0  0  0  0  0  0  0  0999 V2000
   -1.4880   20.4640  -32.0680 C   0  0  0  0  0  0  0  0  0  0  0  0
   -2.4610   19.8200  -33.0500 C   0  0  0  0  0  0  0  0  0  0  0  0
   -3.3480   20.8250  -33.6360 N   0  0  0  0  0  0  0  0  0  0  0  0
   -4.4950   21.3970  -32.9750 C   0  0  0  0  0  0  0  0  0  0  0  0
   -5.7760   20.8210  -33.0720 C   0  0  0  0  0  0  0  0  0  0  0  0
   -6.8620   21.4010  -32.4130 C   0  0  0  0  0  0  0  0  0  0  0  0
   -6.6890   22.5560  -31.6470 C   0  0  0  0  0  0  0  0  0  0  0  0
   -7.7850   23.1140  -30.9990 O   0  0  0  0  0  0  0  0  0  0  0  0
   -5.4170   23.1390  -31.5330 C   0  0  0  0  0  0  0  0  0  0  0  0
   -5.1910   24.5960  -30.5640 S   0  0  0  0  0  0  0  0  0  0  0  0
   -5.8380   25.7560  -31.2670 O   0  0  0  0  0  0  0  0  0  0  0  0
   -5.8240   24.3880  -29.2160 O   0  0  0  0  0  0  0  0  0  0  0  0
   -3.4990   24.9230  -30.3570 N   0  0  0  0  0  0  0  0  0  0  0  0
   -2.6250   24.2310  -29.4560 C   0  0  0  0  0  0  0  0  0  0  0  0
   -2.8670   22.9030  -29.0550 C   0  0  0  0  0  0  0  0  0  0  0  0
   -1.9900   22.2630  -28.1740 C   0  0  0  0  0  0  0  0  0  0  0  0
   -0.8690   22.9370  -27.6860 C   0  0  0  0  0  0  0  0  0  0  0  0
   -0.6210   24.2550  -28.0790 C   0  0  0  0  0  0  0  0  0  0  0  0
   -1.4960   24.9010  -28.9600 C   0  0  0  0  0  0  0  0  0  0  0  0
   -1.2370   26.2130  -29.3430 O   0  0  0  0  0  0  0  0  0  0  0  0
   -4.3270   22.5540  -32.1960 C   0  0  0  0  0  0  0  0  0  0  0  0
   -1.8109   20.2503  -31.0384 H   0  0  0  0  0  0  0  0  0  0  0  0
   -0.4799   20.0542  -32.2286 H   0  0  0  0  0  0  0  0  0  0  0  0
   -1.4713   21.5521  -32.2286 H   0  0  0  0  0  0  0  0  0  0  0  0
   -1.8913   19.3294  -33.8530 H   0  0  0  0  0  0  0  0  0  0  0  0
   -3.0720   19.0825  -32.5089 H   0  0  0  0  0  0  0  0  0  0  0  0
   -3.1180   21.1530  -34.6030 H   0  0  0  0  0  0  0  0  0  0  0  0
   -5.9222   19.9094  -33.6700 H   0  0  0  0  0  0  0  0  0  0  0  0
   -7.8597   20.9455  -32.4977 H   0  0  0  0  0  0  0  0  0  0  0  0
   -3.7489   22.3674  -29.4361 H   0  0  0  0  0  0  0  0  0  0  0  0
   -2.1838   21.2254  -27.8645 H   0  0  0  0  0  0  0  0  0  0  0  0
   -0.1813   22.4309  -26.9925 H   0  0  0  0  0  0  0  0  0  0  0  0
    0.2630   24.7854  -27.6954 H   0  0  0  0  0  0  0  0  0  0  0  0
   -3.3288   23.0070  -32.1045 H   0  0  0  0  0  0  0  0  0  0  0  0
  1  2  1  0
  2  3  1  0
  3  4  1  0
  4  5  2  0
  5  6  1  0
  6  7  2  0
  7  8  1  0
  7  9  1  0
  9 10  1  0
 10 11  2  0
 10 12  2  0
 10 13  1  0
 13 14  1  0
 14 15  2  0
 15 16  1  0
 16 17  2  0
 17 18  1  0
 18 19  2  0
 19 20  1  0
  9 21  2  0
 21  4  1  0
 19 14  1  0
  1 22  1  0
  1 23  1  0
  1 24  1  0
  2 25  1  0
  2 26  1  0
  3 27  1  0
  5 28  1  0
  6 29  1  0
 15 30  1  0
 16 31  1  0
 17 32  1  0
 18 33  1  0
 21 34  1  0
M  CHG  3   8  -1  13  -1  20  -1
M  END
>  <UniqueID>  (34) 
34

>  <SMILES>  (34) 
CCNc1ccc([O-])c(S(=O)(=O)[N-]c2ccccc2[O-])c1

>  <Energy>  (34) 
36.93602723599276

>  <Genealogy>  (34) 
CCNc1ccc([O-])c(S(=O)(=O)[N-]c2ccccc2[O-])c1 (protonated)
CCNc1ccc([O-])c(S(=O)(=O)[N-]c2ccccc2[O-])c1 (3D coordinates assigned)
CCNc1ccc([O-])c(S(=O)(=O)[N-]c2ccccc2[O-])c1 (optimized conformer: 36.93602723599276 kcal/mol)

>  <smiles>  (34) 
CCNc1ccc(O)c(S(=O)(=O)Nc2ccccc2O)c1

>  <score_type>  (34) 
oracle

>  <origin>  (34) 
adgpu

>  <m_score__min__energy>  (34) 
-13.52

>  <m_primary>  (34) 
energy

$$$$
34:0
     RDKit          3D

 50 53  0  0  0  0  0  0  0  0999 V2000
   -4.2170   18.6390  -34.0690 C   0  0  0  0  0  0  0  0  0  0  0  0
   -4.4510   19.8570  -33.2140 C   0  0  0  0  0  0  0  0  0  0  0  0
   -5.7510   20.0960  -32.7440 C   0  0  0  0  0  0  0  0  0  0  0  0
   -6.0270   21.1910  -31.9320 C   0  0  0  0  0  0  0  0  0  0  0  0
   -5.0090   22.0830  -31.5720 C   0  0  0  0  0  0  0  0  0  0  0  0
   -5.2710   23.1920  -30.6970 N   0  0  0  0  0  0  0  0  0  0  0  0
   -4.8600   24.5490  -30.8970 C   0  0  0  0  0  0  0  0  0  0  0  0
   -5.5840   25.3480  -31.5510 O   0  0  0  0  0  0  0  0  0  0  0  0
   -3.5720   24.9590  -30.4300 N   0  0  0  0  0  0  0  0  0  0  0  0
   -2.8610   24.3700  -29.3320 C   0  0  0  0  0  0  0  0  0  0  0  0
   -3.3970   23.2300  -28.7310 C   0  0  0  0  0  0  0  0  0  0  0  0
   -2.7550   22.6340  -27.6480 C   0  0  0  0  0  0  0  0  0  0  0  0
   -1.5650   23.1680  -27.1460 C   0  0  0  0  0  0  0  0  0  0  0  0
   -0.8430   22.3700  -25.7520 Cl  0  0  0  0  0  0  0  0  0  0  0  0
   -1.0070   24.3270  -27.7340 C   0  0  0  0  0  0  0  0  0  0  0  0
    0.4950   25.0380  -27.1000 S   0  0  0  0  0  0  0  0  0  0  0  0
    0.8230   26.3070  -27.8340 O   0  0  0  0  0  0  0  0  0  0  0  0
    1.6400   24.0850  -27.3020 O   0  0  0  0  0  0  0  0  0  0  0  0
    0.2580   25.4270  -25.3670 C   0  0  0  0  0  0  0  0  0  0  0  0
   -0.0940   26.8710  -25.0520 C   0  0  0  0  0  0  0  0  0  0  0  0
   -1.1700   25.7980  -25.0060 C   0  0  0  0  0  0  0  0  0  0  0  0
   -1.6870   24.9480  -28.8050 C   0  0  0  0  0  0  0  0  0  0  0  0
   -1.2290   26.1580  -29.3160 O   0  0  0  0  0  0  0  0  0  0  0  0
   -3.6950   21.8540  -32.0230 C   0  0  0  0  0  0  0  0  0  0  0  0
   -2.6610   22.7020  -31.6210 O   0  0  0  0  0  0  0  0  0  0  0  0
   -3.4110   20.7640  -32.8800 C   0  0  0  0  0  0  0  0  0  0  0  0
   -1.7440   20.5340  -33.4660 S   0  0  0  0  0  0  0  0  0  0  0  0
   -1.7130   19.5710  -34.6220 O   0  0  0  0  0  0  0  0  0  0  0  0
   -1.1860   21.8410  -33.9550 O   0  0  0  0  0  0  0  0  0  0  0  0
   -0.7350   19.9540  -32.1040 C   0  0  0  0  0  0  0  0  0  0  0  0
   -0.2640   21.0100  -31.1180 C   0  0  0  0  0  0  0  0  0  0  0  0
   -1.4070   20.0800  -30.7460 C   0  0  0  0  0  0  0  0  0  0  0  0
   -4.0490   17.7645  -33.4232 H   0  0  0  0  0  0  0  0  0  0  0  0
   -5.0976   18.4621  -34.7040 H   0  0  0  0  0  0  0  0  0  0  0  0
   -3.3336   18.8010  -34.7040 H   0  0  0  0  0  0  0  0  0  0  0  0
   -6.5632   19.4080  -33.0215 H   0  0  0  0  0  0  0  0  0  0  0  0
   -7.0523   21.3576  -31.5699 H   0  0  0  0  0  0  0  0  0  0  0  0
   -4.3332   22.7991  -29.1154 H   0  0  0  0  0  0  0  0  0  0  0  0
   -3.1882   21.7356  -27.1840 H   0  0  0  0  0  0  0  0  0  0  0  0
    1.0105   24.7193  -24.9890 H   0  0  0  0  0  0  0  0  0  0  0  0
    0.2622   27.3332  -24.1195 H   0  0  0  0  0  0  0  0  0  0  0  0
    0.0244   27.8322  -25.5735 H   0  0  0  0  0  0  0  0  0  0  0  0
   -1.5925   25.4838  -24.0402 H   0  0  0  0  0  0  0  0  0  0  0  0
   -2.1529   25.6612  -25.4805 H   0  0  0  0  0  0  0  0  0  0  0  0
   -2.8230   23.6350  -31.2630 H   0  0  0  0  0  0  0  0  0  0  0  0
   -0.2316   19.1564  -32.6701 H   0  0  0  0  0  0  0  0  0  0  0  0
    0.7135   20.9047  -30.6246 H   0  0  0  0  0  0  0  0  0  0  0  0
   -0.1291   22.1011  -31.1526 H   0  0  0  0  0  0  0  0  0  0  0  0
   -1.2568   19.3014  -29.9836 H   0  0  0  0  0  0  0  0  0  0  0  0
   -2.4419   20.2190  -30.4000 H   0  0  0  0  0  0  0  0  0  0  0  0
  1  2  1  0
  2  3  2  0
  3  4  1  0
  4  5  2  0
  5  6  1  0
  6  7  1  0
  7  8  2  0
  7  9  1  0
  9 10  1  0
 10 11  2  0
 11 12  1  0
 12 13  2  0
 13 14  1  0
 13 15  1  0
 15 16  1  0
 16 17  2  0
 16 18  2  0
 16 19  1  0
 19 20  1  0
 20 21  1  0
 15 22  2  0
 22 23  1  0
  5 24  1  0
 24 25  1  0
 24 26  2  0
 26 27  1  0
 27 28  2  0
 27 29  2  0
 27 30  1  0
 30 31  1  0
 31 32  1  0
 26  2  1  0
 32 30  1  0
 22 10  1  0
 21 19  1  0
  1 33  1  0
  1 34  1  0
  1 35  1  0
  3 36  1  0
  4 37  1  0
 11 38  1  0
 12 39  1  0
 19 40  1  0
 20 41  1  0
 20 42  1  0
 21 43  1  0
 21 44  1  0
 25 45  1  0
 30 46  1  0
 31 47  1  0
 31 48  1  0
 32 49  1  0
 32 50  1  0
M  CHG  3   6  -1   9  -1  23  -1
M  END
>  <UniqueID>  (35) 
35

>  <SMILES>  (35) 
Cc1ccc([N-]C(=O)[N-]c2ccc(Cl)c(S(=O)(=O)C3CC3)c2[O-])c(O)c1S(=O)(=O)C1CC1

>  <Energy>  (35) 
594.6200723962555

>  <Genealogy>  (35) 
Cc1ccc([N-]C(=O)[N-]c2ccc(Cl)c(S(=O)(=O)C3CC3)c2[O-])c(O)c1S(=O)(=O)C1CC1 (protonated)
Cc1ccc([N-]C(=O)[N-]c2ccc(Cl)c(S(=O)(=O)C3CC3)c2[O-])c(O)c1S(=O)(=O)C1CC1 (3D coordinates assigned)
Cc1ccc([N-]C(=O)[N-]c2ccc(Cl)c(S(=O)(=O)C3CC3)c2[O-])c(O)c1S(=O)(=O)C1CC1 (nonaromatic ring conformer: 594.6200723962555 kcal/mol)

>  <smiles>  (35) 
Cc1ccc(NC(=O)Nc2ccc(Cl)c(S(=O)(=O)C3CC3)c2O)c(O)c1S(=O)(=O)C1CC1

>  <score_type>  (35) 
oracle

>  <origin>  (35) 
adgpu

>  <m_score__min__energy>  (35) 
-16.59

>  <m_primary>  (35) 
energy

$$$$
35:0
     RDKit          3D

 38 40  0  0  0  0  0  0  0  0999 V2000
   -8.3500   23.1130  -31.9680 C   0  0  0  0  0  0  0  0  0  0  0  0
   -9.3500   22.1940  -32.3460 O   0  0  0  0  0  0  0  0  0  0  0  0
   -9.7100   21.3740  -31.2480 C   0  0  0  0  0  0  0  0  0  0  0  0
   -8.8790   20.0870  -31.2450 C   0  0  0  0  0  0  0  0  0  0  0  0
   -7.5570   20.3320  -31.7280 O   0  0  0  0  0  0  0  0  0  0  0  0
   -6.7450   19.4070  -32.4060 C   0  0  0  0  0  0  0  0  0  0  0  0
   -7.2680   18.2760  -33.0580 C   0  0  0  0  0  0  0  0  0  0  0  0
   -6.4200   17.3880  -33.7210 C   0  0  0  0  0  0  0  0  0  0  0  0
   -5.0410   17.6060  -33.7480 C   0  0  0  0  0  0  0  0  0  0  0  0
   -4.2350   16.6930  -34.4190 O   0  0  0  0  0  0  0  0  0  0  0  0
   -4.4950   18.7380  -33.1020 C   0  0  0  0  0  0  0  0  0  0  0  0
   -3.1130   19.0190  -33.0800 C   0  0  0  0  0  0  0  0  0  0  0  0
   -2.2830   18.2550  -33.6440 O   0  0  0  0  0  0  0  0  0  0  0  0
   -2.6500   20.1570  -32.4150 C   0  0  0  0  0  0  0  0  0  0  0  0
   -1.2820   20.4090  -32.3490 O   0  0  0  0  0  0  0  0  0  0  0  0
   -3.5780   21.0130  -31.7930 C   0  0  0  0  0  0  0  0  0  0  0  0
   -3.1640   22.2440  -31.0810 C   0  0  0  0  0  0  0  0  0  0  0  0
   -2.0520   22.2040  -30.2230 C   0  0  0  0  0  0  0  0  0  0  0  0
   -1.6560   23.3470  -29.5230 C   0  0  0  0  0  0  0  0  0  0  0  0
   -2.3750   24.5390  -29.6610 C   0  0  0  0  0  0  0  0  0  0  0  0
   -1.9750   25.6720  -28.9620 O   0  0  0  0  0  0  0  0  0  0  0  0
   -3.4970   24.5840  -30.4950 C   0  0  0  0  0  0  0  0  0  0  0  0
   -4.2240   25.7620  -30.6240 O   0  0  0  0  0  0  0  0  0  0  0  0
   -3.8940   23.4410  -31.1990 C   0  0  0  0  0  0  0  0  0  0  0  0
   -4.8720   20.7100  -31.8210 O   0  0  0  0  0  0  0  0  0  0  0  0
   -5.3610   19.6360  -32.4340 C   0  0  0  0  0  0  0  0  0  0  0  0
   -8.2947   23.1639  -30.8706 H   0  0  0  0  0  0  0  0  0  0  0  0
   -7.3798   22.7848  -32.3692 H   0  0  0  0  0  0  0  0  0  0  0  0
   -8.5953   24.1074  -32.3692 H   0  0  0  0  0  0  0  0  0  0  0  0
   -9.5306   21.9231  -30.3119 H   0  0  0  0  0  0  0  0  0  0  0  0
  -10.7744   21.1103  -31.3346 H   0  0  0  0  0  0  0  0  0  0  0  0
   -8.8207   19.6985  -30.2176 H   0  0  0  0  0  0  0  0  0  0  0  0
   -9.3643   19.3541  -31.9063 H   0  0  0  0  0  0  0  0  0  0  0  0
   -8.3521   18.0902  -33.0453 H   0  0  0  0  0  0  0  0  0  0  0  0
   -6.8421   16.5074  -34.2274 H   0  0  0  0  0  0  0  0  0  0  0  0
   -1.4893   21.2667  -30.1014 H   0  0  0  0  0  0  0  0  0  0  0  0
   -0.7773   23.3092  -28.8623 H   0  0  0  0  0  0  0  0  0  0  0  0
   -4.7814   23.4789  -31.8479 H   0  0  0  0  0  0  0  0  0  0  0  0
  1  2  1  0
  2  3  1  0
  3  4  1  0
  4  5  1  0
  5  6  1  0
  6  7  2  0
  7  8  1  0
  8  9  2  0
  9 10  1  0
  9 11  1  0
 11 12  1  0
 12 13  2  0
 12 14  1  0
 14 15  1  0
 14 16  2  0
 16 17  1  0
 17 18  2  0
 18 19  1  0
 19 20  2  0
 20 21  1  0
 20 22  1  0
 22 23  1  0
 22 24  2  0
 16 25  1  0
 25 26  1  0
 26  6  1  0
 26 11  2  0
 24 17  1  0
  1 27  1  0
  1 28  1  0
  1 29  1  0
  3 30  1  0
  3 31  1  0
  4 32  1  0
  4 33  1  0
  7 34  1  0
  8 35  1  0
 18 36  1  0
 19 37  1  0
 24 38  1  0
M  CHG  4  10  -1  15  -1  21  -1  23  -1
M  END
>  <UniqueID>  (36) 
36

>  <SMILES>  (36) 
COCCOc1ccc([O-])c2c(=O)c([O-])c(-c3ccc([O-])c([O-])c3)oc12

>  <Energy>  (36) 
54.65299826623758

>  <Genealogy>  (36) 
COCCOc1ccc([O-])c2c(=O)c([O-])c(-c3ccc([O-])c([O-])c3)oc12 (protonated)
COCCOc1ccc([O-])c2c(=O)c([O-])c(-c3ccc([O-])c([O-])c3)oc12 (3D coordinates assigned)
COCCOc1ccc([O-])c2c(=O)c([O-])c(-c3ccc([O-])c([O-])c3)oc12 (optimized conformer: 54.65299826623758 kcal/mol)

>  <smiles>  (36) 
COCCOc1ccc(O)c2c(=O)c(O)c(-c3ccc(O)c(O)c3)oc12

>  <score_type>  (36) 
oracle

>  <origin>  (36) 
adgpu

>  <m_score__min__energy>  (36) 
-11.81

>  <m_primary>  (36) 
energy

$$$$
36:0
     RDKit          3D

 51 54  0  0  0  0  0  0  0  0999 V2000
   -1.3140   21.4870  -27.0120 C   0  0  0  0  0  0  0  0  0  0  0  0
   -1.9170   22.5180  -27.9300 C   0  0  0  0  0  0  0  0  0  0  0  0
   -2.9900   22.1340  -28.7510 C   0  0  0  0  0  0  0  0  0  0  0  0
   -3.6060   23.0540  -29.5920 C   0  0  0  0  0  0  0  0  0  0  0  0
   -3.1780   24.3820  -29.6250 C   0  0  0  0  0  0  0  0  0  0  0  0
   -3.8650   25.2940  -30.4920 N   0  0  0  0  0  0  0  0  0  0  0  0
   -5.2620   25.2520  -30.8130 C   0  0  0  0  0  0  0  0  0  0  0  0
   -6.1030   25.8350  -30.0790 O   0  0  0  0  0  0  0  0  0  0  0  0
   -5.7200   24.5480  -31.9710 N   0  0  0  0  0  0  0  0  0  0  0  0
   -6.3620   23.2640  -31.9780 C   0  0  0  0  0  0  0  0  0  0  0  0
   -7.7570   23.2050  -31.8770 C   0  0  0  0  0  0  0  0  0  0  0  0
   -8.4140   21.9730  -31.8440 C   0  0  0  0  0  0  0  0  0  0  0  0
   -7.6850   20.7760  -31.8880 C   0  0  0  0  0  0  0  0  0  0  0  0
   -6.2790   20.8240  -31.9920 C   0  0  0  0  0  0  0  0  0  0  0  0
   -5.6260   22.0660  -32.0070 C   0  0  0  0  0  0  0  0  0  0  0  0
   -5.4550   19.5560  -31.9760 C   0  0  0  0  0  0  0  0  0  0  0  0
   -6.2240   18.3600  -32.3740 N   0  0  0  0  0  0  0  0  0  0  0  0
   -6.4120   18.2870  -33.8340 C   0  0  0  0  0  0  0  0  0  0  0  0
   -7.4960   18.2680  -31.6320 C   0  0  0  0  0  0  0  0  0  0  0  0
   -8.4230   19.4630  -31.9040 C   0  0  0  0  0  0  0  0  0  0  0  0
   -2.0600   24.7730  -28.8630 C   0  0  0  0  0  0  0  0  0  0  0  0
   -1.5780   26.0740  -28.9730 O   0  0  0  0  0  0  0  0  0  0  0  0
   -1.4190   23.8480  -28.0080 C   0  0  0  0  0  0  0  0  0  0  0  0
   -0.0530   24.3770  -26.9890 S   0  0  0  0  0  0  0  0  0  0  0  0
    0.8990   25.2340  -27.7750 O   0  0  0  0  0  0  0  0  0  0  0  0
    0.7160   23.1730  -26.5200 O   0  0  0  0  0  0  0  0  0  0  0  0
   -0.5980   25.3030  -25.5480 C   0  0  0  0  0  0  0  0  0  0  0  0
   -0.9580   26.7510  -25.8510 C   0  0  0  0  0  0  0  0  0  0  0  0
   -2.0540   25.7510  -25.5240 C   0  0  0  0  0  0  0  0  0  0  0  0
   -1.4863   21.7816  -25.9663 H   0  0  0  0  0  0  0  0  0  0  0  0
   -1.7830   20.5098  -27.1997 H   0  0  0  0  0  0  0  0  0  0  0  0
   -0.2324   21.4167  -27.1997 H   0  0  0  0  0  0  0  0  0  0  0  0
   -3.3470   21.0938  -28.7284 H   0  0  0  0  0  0  0  0  0  0  0  0
   -4.4374   22.7326  -30.2366 H   0  0  0  0  0  0  0  0  0  0  0  0
   -8.3402   24.1361  -31.8232 H   0  0  0  0  0  0  0  0  0  0  0  0
   -9.5119   21.9414  -31.7830 H   0  0  0  0  0  0  0  0  0  0  0  0
   -4.5272   22.1029  -32.0418 H   0  0  0  0  0  0  0  0  0  0  0  0
   -4.6119   19.6776  -32.6720 H   0  0  0  0  0  0  0  0  0  0  0  0
   -5.1159   19.3984  -30.9415 H   0  0  0  0  0  0  0  0  0  0  0  0
   -7.4164   17.8970  -34.0553 H   0  0  0  0  0  0  0  0  0  0  0  0
   -6.3050   19.2920  -34.2682 H   0  0  0  0  0  0  0  0  0  0  0  0
   -5.6548   17.6175  -34.2682 H   0  0  0  0  0  0  0  0  0  0  0  0
   -8.0134   17.3447  -31.9317 H   0  0  0  0  0  0  0  0  0  0  0  0
   -7.2575   18.2673  -30.5582 H   0  0  0  0  0  0  0  0  0  0  0  0
   -8.8888   19.3314  -32.8918 H   0  0  0  0  0  0  0  0  0  0  0  0
   -9.1773   19.4919  -31.1039 H   0  0  0  0  0  0  0  0  0  0  0  0
    0.0477   24.7728  -24.8325 H   0  0  0  0  0  0  0  0  0  0  0  0
   -0.7037   27.5428  -25.1311 H   0  0  0  0  0  0  0  0  0  0  0  0
   -0.7605   27.4432  -26.6828 H   0  0  0  0  0  0  0  0  0  0  0  0
   -2.5927   25.8189  -24.5674 H   0  0  0  0  0  0  0  0  0  0  0  0
   -2.9777   25.4197  -26.0209 H   0  0  0  0  0  0  0  0  0  0  0  0
  1  2  1  0
  2  3  2  0
  3  4  1  0
  4  5  2  0
  5  6  1  0
  6  7  1  0
  7  8  2  0
  7  9  1  0
  9 10  1  0
 10 11  2  0
 11 12  1  0
 12 13  2  0
 13 14  1  0
 14 15  2  0
 14 16  1  0
 16 17  1  0
 17 18  1  0
 17 19  1  0
 19 20  1  0
  5 21  1  0
 21 22  1  0
 21 23  2  0
 23 24  1  0
 24 25  2  0
 24 26  2  0
 24 27  1  0
 27 28  1  0
 28 29  1  0
 23  2  1  0
 29 27  1  0
 15 10  1  0
 20 13  1  0
  1 30  1  0
  1 31  1  0
  1 32  1  0
  3 33  1  0
  4 34  1  0
 11 35  1  0
 12 36  1  0
 15 37  1  0
 16 38  1  0
 16 39  1  0
 18 40  1  0
 18 41  1  0
 18 42  1  0
 19 43  1  0
 19 44  1  0
 20 45  1  0
 20 46  1  0
 27 47  1  0
 28 48  1  0
 28 49  1  0
 29 50  1  0
 29 51  1  0
M  CHG  3   6  -1   9  -1  22  -1
M  END
>  <UniqueID>  (37) 
37

>  <SMILES>  (37) 
Cc1ccc([N-]C(=O)[N-]c2ccc3c(c2)CN(C)CC3)c([O-])c1S(=O)(=O)C1CC1

>  <Energy>  (37) 
334.04015446958573

>  <Genealogy>  (37) 
Cc1ccc([N-]C(=O)[N-]c2ccc3c(c2)CN(C)CC3)c([O-])c1S(=O)(=O)C1CC1 (protonated)
Cc1ccc([N-]C(=O)[N-]c2ccc3c(c2)CN(C)CC3)c([O-])c1S(=O)(=O)C1CC1 (3D coordinates assigned)
Cc1ccc([N-]C(=O)[N-]c2ccc3c(c2)CN(C)CC3)c([O-])c1S(=O)(=O)C1CC1 (nonaromatic ring conformer: 334.04015446958573 kcal/mol)

>  <smiles>  (37) 
Cc1ccc(NC(=O)Nc2ccc3c(c2)CN(C)CC3)c(O)c1S(=O)(=O)C1CC1

>  <score_type>  (37) 
oracle

>  <origin>  (37) 
adgpu

>  <m_score__min__energy>  (37) 
-16.289999999999999

>  <m_primary>  (37) 
energy

$$$$
37:0
     RDKit          3D

 57 60  0  0  0  0  0  0  0  0999 V2000
   -8.0740   19.0500  -33.0190 O   0  0  0  0  0  0  0  0  0  0  0  0
   -6.8630   18.8760  -32.7120 C   0  0  0  0  0  0  0  0  0  0  0  0
   -6.2090   19.8110  -31.8380 N   0  0  0  0  0  0  0  0  0  0  0  0
   -6.6520   21.1640  -31.6420 C   0  0  0  0  0  0  0  0  0  0  0  0
   -7.9560   21.5240  -32.0150 C   0  0  0  0  0  0  0  0  0  0  0  0
   -8.4170   22.8270  -31.8100 C   0  0  0  0  0  0  0  0  0  0  0  0
   -7.5830   23.7820  -31.2230 C   0  0  0  0  0  0  0  0  0  0  0  0
   -6.2840   23.4350  -30.8330 C   0  0  0  0  0  0  0  0  0  0  0  0
   -5.2440   24.6200  -30.0470 S   0  0  0  0  0  0  0  0  0  0  0  0
   -4.4020   25.3040  -31.0880 O   0  0  0  0  0  0  0  0  0  0  0  0
   -6.0870   25.6560  -29.3550 O   0  0  0  0  0  0  0  0  0  0  0  0
   -4.2080   23.8070  -28.9020 N   0  0  0  0  0  0  0  0  0  0  0  0
   -4.2250   24.4760  -27.6010 C   0  0  0  0  0  0  0  0  0  0  0  0
   -2.8870   24.1750  -26.9420 C   0  0  0  0  0  0  0  0  0  0  0  0
   -1.9660   23.7520  -28.0750 C   0  0  0  0  0  0  0  0  0  0  0  0
   -2.8130   23.8320  -29.3360 C   0  0  0  0  0  0  0  0  0  0  0  0
   -5.8250   22.1250  -31.0320 C   0  0  0  0  0  0  0  0  0  0  0  0
   -6.1470   17.6800  -33.2190 C   0  0  0  0  0  0  0  0  0  0  0  0
   -6.8690   16.5480  -33.6420 C   0  0  0  0  0  0  0  0  0  0  0  0
   -6.2020   15.4190  -34.1260 C   0  0  0  0  0  0  0  0  0  0  0  0
   -4.8040   15.4080  -34.2070 C   0  0  0  0  0  0  0  0  0  0  0  0
   -3.9500   13.9820  -34.7920 S   0  0  0  0  0  0  0  0  0  0  0  0
   -4.8120   13.2340  -35.7740 O   0  0  0  0  0  0  0  0  0  0  0  0
   -2.6960   14.4230  -35.4940 O   0  0  0  0  0  0  0  0  0  0  0  0
   -3.5370   12.9430  -33.4500 N   0  0  0  0  0  0  0  0  0  0  0  0
   -2.3760   13.4950  -32.7240 C   0  0  0  0  0  0  0  0  0  0  0  0
   -2.3120   12.9300  -31.2960 C   0  0  0  0  0  0  0  0  0  0  0  0
   -3.4570   13.2160  -30.5030 O   0  0  0  0  0  0  0  0  0  0  0  0
   -4.6210   13.5120  -31.2640 C   0  0  0  0  0  0  0  0  0  0  0  0
   -4.7080   12.7100  -32.5750 C   0  0  0  0  0  0  0  0  0  0  0  0
   -4.0780   16.5310  -33.7920 C   0  0  0  0  0  0  0  0  0  0  0  0
   -4.7430   17.6600  -33.3070 C   0  0  0  0  0  0  0  0  0  0  0  0
   -5.4370   19.4560  -31.2280 H   0  0  0  0  0  0  0  0  0  0  0  0
   -8.6198   20.7753  -32.4719 H   0  0  0  0  0  0  0  0  0  0  0  0
   -9.4387   23.1015  -32.1114 H   0  0  0  0  0  0  0  0  0  0  0  0
   -7.9476   24.8080  -31.0671 H   0  0  0  0  0  0  0  0  0  0  0  0
   -4.3477   25.5611  -27.7334 H   0  0  0  0  0  0  0  0  0  0  0  0
   -5.0619   24.1203  -26.9820 H   0  0  0  0  0  0  0  0  0  0  0  0
   -2.4941   25.0720  -26.4410 H   0  0  0  0  0  0  0  0  0  0  0  0
   -2.9759   23.3933  -26.1732 H   0  0  0  0  0  0  0  0  0  0  0  0
   -1.1052   24.4332  -28.1458 H   0  0  0  0  0  0  0  0  0  0  0  0
   -1.5616   22.7412  -27.9175 H   0  0  0  0  0  0  0  0  0  0  0  0
   -2.6004   24.7654  -29.8778 H   0  0  0  0  0  0  0  0  0  0  0  0
   -2.5933   22.9958  -30.0161 H   0  0  0  0  0  0  0  0  0  0  0  0
   -4.8110   21.8467  -30.7088 H   0  0  0  0  0  0  0  0  0  0  0  0
   -7.9678   16.5520  -33.5912 H   0  0  0  0  0  0  0  0  0  0  0  0
   -6.7768   14.5367  -34.4441 H   0  0  0  0  0  0  0  0  0  0  0  0
   -1.4537   13.2273  -33.2603 H   0  0  0  0  0  0  0  0  0  0  0  0
   -2.4801   14.5886  -32.6682 H   0  0  0  0  0  0  0  0  0  0  0  0
   -2.2026   11.8375  -31.3621 H   0  0  0  0  0  0  0  0  0  0  0  0
   -1.4571   13.4155  -30.8026 H   0  0  0  0  0  0  0  0  0  0  0  0
   -5.5062   13.2809  -30.6533 H   0  0  0  0  0  0  0  0  0  0  0  0
   -4.5727   14.5771  -31.5347 H   0  0  0  0  0  0  0  0  0  0  0  0
   -4.7615   11.6385  -32.3322 H   0  0  0  0  0  0  0  0  0  0  0  0
   -5.6062   13.0424  -33.1161 H   0  0  0  0  0  0  0  0  0  0  0  0
   -2.9794   16.5244  -33.8480 H   0  0  0  0  0  0  0  0  0  0  0  0
   -4.1641   18.5405  -32.9914 H   0  0  0  0  0  0  0  0  0  0  0  0
  1  2  2  0
  2  3  1  0
  3  4  1  0
  4  5  2  0
  5  6  1  0
  6  7  2  0
  7  8  1  0
  8  9  1  0
  9 10  2  0
  9 11  2  0
  9 12  1  0
 12 13  1  0
 13 14  1  0
 14 15  1  0
 15 16  1  0
  8 17  2  0
  2 18  1  0
 18 19  2  0
 19 20  1  0
 20 21  2  0
 21 22  1  0
 22 23  2  0
 22 24  2  0
 22 25  1  0
 25 26  1  0
 26 27  1  0
 27 28  1  0
 28 29  1  0
 29 30  1  0
 21 31  1  0
 31 32  2  0
 17  4  1  0
 32 18  1  0
 16 12  1  0
 30 25  1  0
  3 33  1  0
  5 34  1  0
  6 35  1  0
  7 36  1  0
 13 37  1  0
 13 38  1  0
 14 39  1  0
 14 40  1  0
 15 41  1  0
 15 42  1  0
 16 43  1  0
 16 44  1  0
 17 45  1  0
 19 46  1  0
 20 47  1  0
 26 48  1  0
 26 49  1  0
 27 50  1  0
 27 51  1  0
 29 52  1  0
 29 53  1  0
 30 54  1  0
 30 55  1  0
 31 56  1  0
 32 57  1  0
M  END
>  <UniqueID>  (38) 
38

>  <SMILES>  (38) 
O=C(Nc1cccc(S(=O)(=O)N2CCCC2)c1)c1ccc(S(=O)(=O)N2CCOCC2)cc1

>  <Energy>  (38) 
77.14981658992598

>  <Genealogy>  (38) 
O=C(Nc1cccc(S(=O)(=O)N2CCCC2)c1)c1ccc(S(=O)(=O)N2CCOCC2)cc1 (3D coordinates assigned)
O=C(Nc1cccc(S(=O)(=O)N2CCCC2)c1)c1ccc(S(=O)(=O)N2CCOCC2)cc1 (nonaromatic ring conformer: 77.14981658992598 kcal/mol)

>  <smiles>  (38) 
O=C(Nc1cccc(S(=O)(=O)N2CCCC2)c1)c1ccc(S(=O)(=O)N2CCOCC2)cc1

>  <score_type>  (38) 
oracle

>  <origin>  (38) 
adgpu

>  <m_score__min__energy>  (38) 
-10.529999999999999

>  <m_primary>  (38) 
energy

$$$$
38:0
     RDKit          3D

 58 61  0  0  0  0  0  0  0  0999 V2000
   -3.0290   21.2410  -29.1690 C   0  0  0  0  0  0  0  0  0  0  0  0
   -1.8430   21.0750  -30.0590 C   0  0  0  0  0  0  0  0  0  0  0  0
   -0.6360   20.6760  -29.6130 N   0  0  0  0  0  0  0  0  0  0  0  0
    0.1700   20.6830  -30.6350 O   0  0  0  0  0  0  0  0  0  0  0  0
   -0.4450   21.0790  -31.7250 C   0  0  0  0  0  0  0  0  0  0  0  0
    0.2050   21.1810  -33.0650 C   0  0  0  0  0  0  0  0  0  0  0  0
   -1.7650   21.3430  -31.4150 C   0  0  0  0  0  0  0  0  0  0  0  0
   -2.8280   21.8530  -32.3450 C   0  0  0  0  0  0  0  0  0  0  0  0
   -3.6310   22.8340  -31.6880 O   0  0  0  0  0  0  0  0  0  0  0  0
   -5.0150   22.7630  -31.4420 C   0  0  0  0  0  0  0  0  0  0  0  0
   -5.7870   21.6280  -31.7740 C   0  0  0  0  0  0  0  0  0  0  0  0
   -7.1660   21.6190  -31.5580 C   0  0  0  0  0  0  0  0  0  0  0  0
   -7.8000   22.7400  -31.0280 C   0  0  0  0  0  0  0  0  0  0  0  0
   -7.0560   23.8750  -30.7060 C   0  0  0  0  0  0  0  0  0  0  0  0
   -5.6630   23.8910  -30.8930 C   0  0  0  0  0  0  0  0  0  0  0  0
   -4.9120   25.1120  -30.5340 C   0  0  0  0  0  0  0  0  0  0  0  0
   -5.5350   26.2020  -30.4440 O   0  0  0  0  0  0  0  0  0  0  0  0
   -3.4920   25.1160  -30.3270 N   0  0  0  0  0  0  0  0  0  0  0  0
   -2.7500   24.6100  -29.2060 C   0  0  0  0  0  0  0  0  0  0  0  0
   -3.3530   24.2960  -27.9730 C   0  0  0  0  0  0  0  0  0  0  0  0
   -2.5680   23.9010  -26.8840 C   0  0  0  0  0  0  0  0  0  0  0  0
   -1.1720   23.8530  -26.9960 C   0  0  0  0  0  0  0  0  0  0  0  0
   -0.1770   23.4710  -25.5900 S   0  0  0  0  0  0  0  0  0  0  0  0
   -0.7880   22.3160  -24.8450 O   0  0  0  0  0  0  0  0  0  0  0  0
    1.1900   23.0540  -26.0630 O   0  0  0  0  0  0  0  0  0  0  0  0
   -0.0380   24.8630  -24.5460 N   0  0  0  0  0  0  0  0  0  0  0  0
    1.2520   25.5410  -24.7580 C   0  0  0  0  0  0  0  0  0  0  0  0
    1.3800   26.7640  -23.8200 C   0  0  0  0  0  0  0  0  0  0  0  0
    0.1520   27.1070  -23.2010 O   0  0  0  0  0  0  0  0  0  0  0  0
   -0.8720   27.1870  -24.1730 C   0  0  0  0  0  0  0  0  0  0  0  0
   -1.1560   25.7990  -24.7870 C   0  0  0  0  0  0  0  0  0  0  0  0
   -0.5700   24.1660  -28.2220 C   0  0  0  0  0  0  0  0  0  0  0  0
   -1.3560   24.5380  -29.3160 C   0  0  0  0  0  0  0  0  0  0  0  0
   -2.7078   21.1960  -28.1179 H   0  0  0  0  0  0  0  0  0  0  0  0
   -3.5023   22.2141  -29.3665 H   0  0  0  0  0  0  0  0  0  0  0  0
   -3.7513   20.4352  -29.3665 H   0  0  0  0  0  0  0  0  0  0  0  0
    1.2843   21.3504  -32.9370 H   0  0  0  0  0  0  0  0  0  0  0  0
    0.0441   20.2466  -33.6227 H   0  0  0  0  0  0  0  0  0  0  0  0
   -0.2344   22.0212  -33.6227 H   0  0  0  0  0  0  0  0  0  0  0  0
   -2.3518   22.3053  -33.2274 H   0  0  0  0  0  0  0  0  0  0  0  0
   -3.4684   21.0130  -32.6520 H   0  0  0  0  0  0  0  0  0  0  0  0
   -5.2972   20.7432  -32.2067 H   0  0  0  0  0  0  0  0  0  0  0  0
   -7.7540   20.7234  -31.8073 H   0  0  0  0  0  0  0  0  0  0  0  0
   -8.8876   22.7303  -30.8633 H   0  0  0  0  0  0  0  0  0  0  0  0
   -7.5631   24.7640  -30.3028 H   0  0  0  0  0  0  0  0  0  0  0  0
   -4.4458   24.3615  -27.8653 H   0  0  0  0  0  0  0  0  0  0  0  0
   -3.0498   23.6264  -25.9340 H   0  0  0  0  0  0  0  0  0  0  0  0
   -0.0880   24.5190  -23.5580 H   0  0  0  0  0  0  0  0  0  0  0  0
    2.0703   24.8364  -24.5483 H   0  0  0  0  0  0  0  0  0  0  0  0
    1.3066   25.8849  -25.8014 H   0  0  0  0  0  0  0  0  0  0  0  0
    2.1166   26.5317  -23.0367 H   0  0  0  0  0  0  0  0  0  0  0  0
    1.6956   27.6218  -24.4321 H   0  0  0  0  0  0  0  0  0  0  0  0
   -1.7896   27.5663  -23.6996 H   0  0  0  0  0  0  0  0  0  0  0  0
   -0.5450   27.8663  -24.9740 H   0  0  0  0  0  0  0  0  0  0  0  0
   -2.0705   25.3880  -24.3346 H   0  0  0  0  0  0  0  0  0  0  0  0
   -1.2779   25.9198  -25.8735 H   0  0  0  0  0  0  0  0  0  0  0  0
    0.5243   24.1188  -28.3236 H   0  0  0  0  0  0  0  0  0  0  0  0
   -0.8736   24.7772  -30.2752 H   0  0  0  0  0  0  0  0  0  0  0  0
  1  2  1  0
  2  3  2  0
  3  4  1  0
  4  5  1  0
  5  6  1  0
  5  7  2  0
  7  8  1  0
  8  9  1  0
  9 10  1  0
 10 11  2  0
 11 12  1  0
 12 13  2  0
 13 14  1  0
 14 15  2  0
 15 16  1  0
 16 17  2  0
 16 18  1  0
 18 19  1  0
 19 20  2  0
 20 21  1  0
 21 22  2  0
 22 23  1  0
 23 24  2  0
 23 25  2  0
 23 26  1  0
 26 27  1  0
 27 28  1  0
 28 29  1  0
 29 30  1  0
 30 31  1  0
 22 32  1  0
 32 33  2  0
  7  2  1  0
 15 10  1  0
 33 19  1  0
 31 26  1  0
  1 34  1  0
  1 35  1  0
  1 36  1  0
  6 37  1  0
  6 38  1  0
  6 39  1  0
  8 40  1  0
  8 41  1  0
 11 42  1  0
 12 43  1  0
 13 44  1  0
 14 45  1  0
 20 46  1  0
 21 47  1  0
 26 48  1  0
 27 49  1  0
 27 50  1  0
 28 51  1  0
 28 52  1  0
 30 53  1  0
 30 54  1  0
 31 55  1  0
 31 56  1  0
 32 57  1  0
 33 58  1  0
M  CHG  2  18  -1  26   1
M  END
>  <UniqueID>  (39) 
39

>  <SMILES>  (39) 
Cc1noc(C)c1COc1ccccc1C(=O)[N-]c1ccc(S(=O)(=O)[NH+]2CCOCC2)cc1

>  <Energy>  (39) 
102.53542181557944

>  <Genealogy>  (39) 
Cc1noc(C)c1COc1ccccc1C(=O)[N-]c1ccc(S(=O)(=O)[NH+]2CCOCC2)cc1 (protonated)
Cc1noc(C)c1COc1ccccc1C(=O)[N-]c1ccc(S(=O)(=O)[NH+]2CCOCC2)cc1 (3D coordinates assigned)
Cc1noc(C)c1COc1ccccc1C(=O)[N-]c1ccc(S(=O)(=O)[NH+]2CCOCC2)cc1 (nonaromatic ring conformer: 102.53542181557944 kcal/mol)

>  <smiles>  (39) 
Cc1noc(C)c1COc1ccccc1C(=O)Nc1ccc(S(=O)(=O)N2CCOCC2)cc1

>  <score_type>  (39) 
oracle

>  <origin>  (39) 
adgpu

>  <m_score__min__energy>  (39) 
-11.289999999999999

>  <m_primary>  (39) 
energy

$$$$
39:0
     RDKit          3D

 60 63  0  0  0  0  0  0  0  0999 V2000
   -3.1240   24.5850  -27.8360 O   0  0  0  0  0  0  0  0  0  0  0  0
   -2.5720   24.5000  -29.2330 S   0  0  0  0  0  0  0  0  0  0  0  0
   -1.4280   25.4690  -29.3390 O   0  0  0  0  0  0  0  0  0  0  0  0
   -3.7810   24.9420  -30.3970 N   0  0  0  0  0  0  0  0  0  0  0  0
   -4.9470   24.1770  -30.7290 C   0  0  0  0  0  0  0  0  0  0  0  0
   -5.0530   23.4550  -31.9320 C   0  0  0  0  0  0  0  0  0  0  0  0
   -6.2200   22.7490  -32.2330 C   0  0  0  0  0  0  0  0  0  0  0  0
   -7.2820   22.7190  -31.3200 C   0  0  0  0  0  0  0  0  0  0  0  0
   -8.7640   21.8490  -31.7180 S   0  0  0  0  0  0  0  0  0  0  0  0
   -9.7240   22.8200  -32.3470 O   0  0  0  0  0  0  0  0  0  0  0  0
   -9.3930   21.3530  -30.4440 O   0  0  0  0  0  0  0  0  0  0  0  0
   -8.5250   20.5050  -32.8200 N   0  0  0  0  0  0  0  0  0  0  0  0
   -7.1110   20.1040  -32.9920 C   0  0  0  0  0  0  0  0  0  0  0  0
   -6.6370   19.0580  -31.9650 C   0  0  0  0  0  0  0  0  0  0  0  0
   -7.6090   17.8840  -31.8670 C   0  0  0  0  0  0  0  0  0  0  0  0
   -9.0150   18.3900  -31.5610 C   0  0  0  0  0  0  0  0  0  0  0  0
   -9.4710   19.3850  -32.6350 C   0  0  0  0  0  0  0  0  0  0  0  0
   -7.1740   23.4260  -30.1110 C   0  0  0  0  0  0  0  0  0  0  0  0
   -6.0110   24.1430  -29.8160 C   0  0  0  0  0  0  0  0  0  0  0  0
   -1.9800   22.8740  -29.5780 C   0  0  0  0  0  0  0  0  0  0  0  0
   -1.1480   22.2190  -28.6610 C   0  0  0  0  0  0  0  0  0  0  0  0
   -0.6430   20.9500  -28.9520 C   0  0  0  0  0  0  0  0  0  0  0  0
   -0.9510   20.3330  -30.1670 C   0  0  0  0  0  0  0  0  0  0  0  0
   -1.7820   20.9780  -31.0940 C   0  0  0  0  0  0  0  0  0  0  0  0
   -2.1500   20.2150  -32.6440 S   0  0  0  0  0  0  0  0  0  0  0  0
   -2.7900   18.8780  -32.3940 O   0  0  0  0  0  0  0  0  0  0  0  0
   -3.1350   21.0670  -33.3970 O   0  0  0  0  0  0  0  0  0  0  0  0
   -0.7130   19.9970  -33.6170 N   0  0  0  0  0  0  0  0  0  0  0  0
   -0.8690   20.5860  -34.9650 C   0  0  0  0  0  0  0  0  0  0  0  0
   -0.1070   21.9150  -35.1100 C   0  0  0  0  0  0  0  0  0  0  0  0
    1.2840   21.8030  -34.8460 O   0  0  0  0  0  0  0  0  0  0  0  0
    1.6140   20.8020  -33.8870 C   0  0  0  0  0  0  0  0  0  0  0  0
    0.4770   20.4980  -32.8990 C   0  0  0  0  0  0  0  0  0  0  0  0
   -2.3000   22.2440  -30.7910 C   0  0  0  0  0  0  0  0  0  0  0  0
   -4.2113   23.4465  -32.6401 H   0  0  0  0  0  0  0  0  0  0  0  0
   -6.3054   22.2145  -33.1906 H   0  0  0  0  0  0  0  0  0  0  0  0
   -6.9897   19.6812  -34.0002 H   0  0  0  0  0  0  0  0  0  0  0  0
   -6.4994   21.0055  -32.8398 H   0  0  0  0  0  0  0  0  0  0  0  0
   -5.6503   18.6797  -32.2705 H   0  0  0  0  0  0  0  0  0  0  0  0
   -6.5843   19.5436  -30.9794 H   0  0  0  0  0  0  0  0  0  0  0  0
   -7.6186   17.3392  -32.8226 H   0  0  0  0  0  0  0  0  0  0  0  0
   -7.2837   17.2146  -31.0570 H   0  0  0  0  0  0  0  0  0  0  0  0
   -9.7099   17.5376  -31.5382 H   0  0  0  0  0  0  0  0  0  0  0  0
   -9.0069   18.8975  -30.5851 H   0  0  0  0  0  0  0  0  0  0  0  0
   -9.5713   18.8489  -33.5902 H   0  0  0  0  0  0  0  0  0  0  0  0
  -10.4285   19.8130  -32.3033 H   0  0  0  0  0  0  0  0  0  0  0  0
   -8.0079   23.4153  -29.3937 H   0  0  0  0  0  0  0  0  0  0  0  0
   -5.9298   24.6840  -28.8617 H   0  0  0  0  0  0  0  0  0  0  0  0
   -0.8916   22.7059  -27.7085 H   0  0  0  0  0  0  0  0  0  0  0  0
   -0.0009   20.4347  -28.2225 H   0  0  0  0  0  0  0  0  0  0  0  0
   -0.5405   19.3387  -30.3970 H   0  0  0  0  0  0  0  0  0  0  0  0
   -0.4839   19.8737  -35.7096 H   0  0  0  0  0  0  0  0  0  0  0  0
   -1.9382   20.7907  -35.1226 H   0  0  0  0  0  0  0  0  0  0  0  0
   -0.2376   22.2806  -36.1392 H   0  0  0  0  0  0  0  0  0  0  0  0
   -0.5226   22.6089  -34.3645 H   0  0  0  0  0  0  0  0  0  0  0  0
    1.8652   19.8754  -34.4239 H   0  0  0  0  0  0  0  0  0  0  0  0
    2.4595   21.1863  -33.2975 H   0  0  0  0  0  0  0  0  0  0  0  0
    0.8148   19.7352  -32.1821 H   0  0  0  0  0  0  0  0  0  0  0  0
    0.2090   21.4242  -32.3695 H   0  0  0  0  0  0  0  0  0  0  0  0
   -2.9629   22.7484  -31.5095 H   0  0  0  0  0  0  0  0  0  0  0  0
  1  2  2  0
  2  3  2  0
  2  4  1  0
  4  5  1  0
  5  6  2  0
  6  7  1  0
  7  8  2  0
  8  9  1  0
  9 10  2  0
  9 11  2  0
  9 12  1  0
 12 13  1  0
 13 14  1  0
 14 15  1  0
 15 16  1  0
 16 17  1  0
  8 18  1  0
 18 19  2  0
  2 20  1  0
 20 21  2  0
 21 22  1  0
 22 23  2  0
 23 24  1  0
 24 25  1  0
 25 26  2  0
 25 27  2  0
 25 28  1  0
 28 29  1  0
 29 30  1  0
 30 31  1  0
 31 32  1  0
 32 33  1  0
 24 34  2  0
 19  5  1  0
 34 20  1  0
 17 12  1  0
 33 28  1  0
  6 35  1  0
  7 36  1  0
 13 37  1  0
 13 38  1  0
 14 39  1  0
 14 40  1  0
 15 41  1  0
 15 42  1  0
 16 43  1  0
 16 44  1  0
 17 45  1  0
 17 46  1  0
 18 47  1  0
 19 48  1  0
 21 49  1  0
 22 50  1  0
 23 51  1  0
 29 52  1  0
 29 53  1  0
 30 54  1  0
 30 55  1  0
 32 56  1  0
 32 57  1  0
 33 58  1  0
 33 59  1  0
 34 60  1  0
M  CHG  1   4  -1
M  END
>  <UniqueID>  (40) 
40

>  <SMILES>  (40) 
O=S(=O)([N-]c1ccc(S(=O)(=O)N2CCCCC2)cc1)c1cccc(S(=O)(=O)N2CCOCC2)c1

>  <Energy>  (40) 
79.33320909700238

>  <Genealogy>  (40) 
O=S(=O)([N-]c1ccc(S(=O)(=O)N2CCCCC2)cc1)c1cccc(S(=O)(=O)N2CCOCC2)c1 (protonated)
O=S(=O)([N-]c1ccc(S(=O)(=O)N2CCCCC2)cc1)c1cccc(S(=O)(=O)N2CCOCC2)c1 (3D coordinates assigned)
O=S(=O)([N-]c1ccc(S(=O)(=O)N2CCCCC2)cc1)c1cccc(S(=O)(=O)N2CCOCC2)c1 (nonaromatic ring conformer: 79.33320909700238 kcal/mol)

>  <smiles>  (40) 
O=S(=O)(Nc1ccc(S(=O)(=O)N2CCCCC2)cc1)c1cccc(S(=O)(=O)N2CCOCC2)c1

>  <score_type>  (40) 
oracle

>  <origin>  (40) 
adgpu

>  <m_score__min__energy>  (40) 
-12.81

>  <m_primary>  (40) 
energy

$$$$
40:0
     RDKit          3D

 41 44  0  0  0  0  0  0  0  0999 V2000
    0.1440   20.4730  -27.4630 C   0  0  0  0  0  0  0  0  0  0  0  0
   -0.0370   21.9510  -27.6940 C   0  0  0  0  0  0  0  0  0  0  0  0
    1.0830   22.7930  -27.6650 C   0  0  0  0  0  0  0  0  0  0  0  0
    0.9180   24.1630  -27.8790 C   0  0  0  0  0  0  0  0  0  0  0  0
    1.9180   24.9270  -27.8540 O   0  0  0  0  0  0  0  0  0  0  0  0
   -0.2880   24.6680  -28.1070 O   0  0  0  0  0  0  0  0  0  0  0  0
   -1.3850   23.9180  -28.1460 C   0  0  0  0  0  0  0  0  0  0  0  0
   -2.6210   24.5260  -28.3930 C   0  0  0  0  0  0  0  0  0  0  0  0
   -3.7990   23.7590  -28.4400 C   0  0  0  0  0  0  0  0  0  0  0  0
   -5.0880   24.3560  -28.6760 N   0  0  0  0  0  0  0  0  0  0  0  0
   -5.7340   24.6920  -30.2530 S   0  0  0  0  0  0  0  0  0  0  0  0
   -4.6500   25.3090  -31.0900 O   0  0  0  0  0  0  0  0  0  0  0  0
   -6.8640   25.6750  -30.1110 O   0  0  0  0  0  0  0  0  0  0  0  0
   -6.2980   23.2090  -31.0470 C   0  0  0  0  0  0  0  0  0  0  0  0
   -7.6710   22.9120  -31.0160 C   0  0  0  0  0  0  0  0  0  0  0  0
   -8.1730   21.7770  -31.6480 C   0  0  0  0  0  0  0  0  0  0  0  0
   -7.3160   20.9070  -32.3170 C   0  0  0  0  0  0  0  0  0  0  0  0
   -5.9390   21.1600  -32.3490 C   0  0  0  0  0  0  0  0  0  0  0  0
   -5.0810   20.2700  -33.0130 C   0  0  0  0  0  0  0  0  0  0  0  0
   -3.7060   20.5030  -33.0390 C   0  0  0  0  0  0  0  0  0  0  0  0
   -3.1750   21.6230  -32.4020 C   0  0  0  0  0  0  0  0  0  0  0  0
   -4.0150   22.5220  -31.7370 C   0  0  0  0  0  0  0  0  0  0  0  0
   -5.4100   22.3130  -31.7050 C   0  0  0  0  0  0  0  0  0  0  0  0
   -3.7180   22.3750  -28.2270 C   0  0  0  0  0  0  0  0  0  0  0  0
   -2.4900   21.7580  -27.9830 C   0  0  0  0  0  0  0  0  0  0  0  0
   -1.3070   22.5210  -27.9400 C   0  0  0  0  0  0  0  0  0  0  0  0
    0.1687   20.2712  -26.3820 H   0  0  0  0  0  0  0  0  0  0  0  0
   -0.6938   19.9253  -27.9192 H   0  0  0  0  0  0  0  0  0  0  0  0
    1.0892   20.1436  -27.9192 H   0  0  0  0  0  0  0  0  0  0  0  0
    2.0839   22.3780  -27.4752 H   0  0  0  0  0  0  0  0  0  0  0  0
   -2.6717   25.6133  -28.5518 H   0  0  0  0  0  0  0  0  0  0  0  0
   -5.7090   24.5580  -27.8600 H   0  0  0  0  0  0  0  0  0  0  0  0
   -8.3594   23.5858  -30.4848 H   0  0  0  0  0  0  0  0  0  0  0  0
   -9.2523   21.5667  -31.6185 H   0  0  0  0  0  0  0  0  0  0  0  0
   -7.7219   20.0181  -32.8220 H   0  0  0  0  0  0  0  0  0  0  0  0
   -5.4951   19.3836  -33.5158 H   0  0  0  0  0  0  0  0  0  0  0  0
   -3.0399   19.8018  -33.5630 H   0  0  0  0  0  0  0  0  0  0  0  0
   -2.0897   21.8009  -32.4223 H   0  0  0  0  0  0  0  0  0  0  0  0
   -3.5840   23.4003  -31.2342 H   0  0  0  0  0  0  0  0  0  0  0  0
   -4.6347   21.7676  -28.2526 H   0  0  0  0  0  0  0  0  0  0  0  0
   -2.4460   20.6705  -27.8235 H   0  0  0  0  0  0  0  0  0  0  0  0
  1  2  1  0
  2  3  2  0
  3  4  1  0
  4  5  2  0
  4  6  1  0
  6  7  1  0
  7  8  2  0
  8  9  1  0
  9 10  1  0
 10 11  1  0
 11 12  2  0
 11 13  2  0
 11 14  1  0
 14 15  2  0
 15 16  1  0
 16 17  2  0
 17 18  1  0
 18 19  2  0
 19 20  1  0
 20 21  2  0
 21 22  1  0
 22 23  2  0
  9 24  2  0
 24 25  1  0
 25 26  2  0
 26  2  1  0
 26  7  1  0
 23 14  1  0
 23 18  1  0
  1 27  1  0
  1 28  1  0
  1 29  1  0
  3 30  1  0
  8 31  1  0
 10 32  1  0
 15 33  1  0
 16 34  1  0
 17 35  1  0
 19 36  1  0
 20 37  1  0
 21 38  1  0
 22 39  1  0
 24 40  1  0
 25 41  1  0
M  END
>  <UniqueID>  (41) 
41

>  <SMILES>  (41) 
Cc1cc(=O)oc2cc(NS(=O)(=O)c3cccc4ccccc34)ccc12

>  <Energy>  (41) 
60.28039104190435

>  <Genealogy>  (41) 
Cc1cc(=O)oc2cc(NS(=O)(=O)c3cccc4ccccc34)ccc12 (3D coordinates assigned)
Cc1cc(=O)oc2cc(NS(=O)(=O)c3cccc4ccccc34)ccc12 (optimized conformer: 60.28039104190435 kcal/mol)

>  <smiles>  (41) 
Cc1cc(=O)oc2cc(NS(=O)(=O)c3cccc4ccccc34)ccc12

>  <score_type>  (41) 
oracle

>  <origin>  (41) 
adgpu

>  <m_score__min__energy>  (41) 
-10.970000000000001

>  <m_primary>  (41) 
energy

$$$$
41:0
     RDKit          3D

 58 61  0  0  0  0  0  0  0  0999 V2000
   -3.9140   25.6780  -30.2350 O   0  0  0  0  0  0  0  0  0  0  0  0
   -3.5410   24.4740  -30.2970 C   0  0  0  0  0  0  0  0  0  0  0  0
   -4.1070   23.6130  -31.2940 N   0  0  0  0  0  0  0  0  0  0  0  0
   -5.3890   22.9850  -31.1790 C   0  0  0  0  0  0  0  0  0  0  0  0
   -5.6350   21.8300  -31.9330 C   0  0  0  0  0  0  0  0  0  0  0  0
   -6.8600   21.1570  -31.8250 C   0  0  0  0  0  0  0  0  0  0  0  0
   -7.1690   19.7020  -32.7700 S   0  0  0  0  0  0  0  0  0  0  0  0
   -8.5610   19.2070  -32.4950 O   0  0  0  0  0  0  0  0  0  0  0  0
   -7.0740   20.0580  -34.2280 O   0  0  0  0  0  0  0  0  0  0  0  0
   -5.9750   18.4800  -32.3840 N   0  0  0  0  0  0  0  0  0  0  0  0
   -6.5160   17.1110  -32.4710 C   0  0  0  0  0  0  0  0  0  0  0  0
   -6.5280   16.5780  -33.9110 C   0  0  0  0  0  0  0  0  0  0  0  0
   -5.2410   16.6640  -34.4880 O   0  0  0  0  0  0  0  0  0  0  0  0
   -4.8510   18.0180  -34.5700 C   0  0  0  0  0  0  0  0  0  0  0  0
   -4.7370   18.6400  -33.1700 C   0  0  0  0  0  0  0  0  0  0  0  0
   -7.8510   21.6560  -30.9730 C   0  0  0  0  0  0  0  0  0  0  0  0
   -7.6240   22.8250  -30.2410 C   0  0  0  0  0  0  0  0  0  0  0  0
   -6.4080   23.5080  -30.3520 C   0  0  0  0  0  0  0  0  0  0  0  0
   -6.2580   24.7110  -29.6620 O   0  0  0  0  0  0  0  0  0  0  0  0
   -2.5490   23.9570  -29.3170 C   0  0  0  0  0  0  0  0  0  0  0  0
   -2.6980   22.6520  -28.8060 C   0  0  0  0  0  0  0  0  0  0  0  0
   -1.7840   22.1330  -27.8800 C   0  0  0  0  0  0  0  0  0  0  0  0
   -1.9920   20.4960  -27.2640 S   0  0  0  0  0  0  0  0  0  0  0  0
   -3.4520   20.2360  -27.0090 O   0  0  0  0  0  0  0  0  0  0  0  0
   -1.2360   20.3770  -25.9700 O   0  0  0  0  0  0  0  0  0  0  0  0
   -1.3720   19.3490  -28.4350 N   0  0  0  0  0  0  0  0  0  0  0  0
   -0.6570   18.2290  -27.7850 C   0  0  0  0  0  0  0  0  0  0  0  0
    0.8730   18.4010  -27.8200 C   0  0  0  0  0  0  0  0  0  0  0  0
    1.2140   19.7670  -27.7460 O   0  0  0  0  0  0  0  0  0  0  0  0
    0.8340   20.4330  -28.9390 C   0  0  0  0  0  0  0  0  0  0  0  0
   -0.5580   20.0120  -29.4690 C   0  0  0  0  0  0  0  0  0  0  0  0
   -0.7030   22.9130  -27.4620 C   0  0  0  0  0  0  0  0  0  0  0  0
   -0.5410   24.2070  -27.9560 C   0  0  0  0  0  0  0  0  0  0  0  0
   -1.4530   24.7350  -28.8750 C   0  0  0  0  0  0  0  0  0  0  0  0
   -1.2570   26.0350  -29.3300 O   0  0  0  0  0  0  0  0  0  0  0  0
   -4.8609   21.4483  -32.6150 H   0  0  0  0  0  0  0  0  0  0  0  0
   -5.8952   16.4457  -31.8530 H   0  0  0  0  0  0  0  0  0  0  0  0
   -7.5561   17.1375  -32.1140 H   0  0  0  0  0  0  0  0  0  0  0  0
   -6.8506   15.5264  -33.9037 H   0  0  0  0  0  0  0  0  0  0  0  0
   -7.2233   17.1873  -34.5070 H   0  0  0  0  0  0  0  0  0  0  0  0
   -3.8750   18.0821  -35.0734 H   0  0  0  0  0  0  0  0  0  0  0  0
   -5.6133   18.5700  -35.1394 H   0  0  0  0  0  0  0  0  0  0  0  0
   -3.9109   18.1518  -32.6322 H   0  0  0  0  0  0  0  0  0  0  0  0
   -4.5541   19.7175  -33.2943 H   0  0  0  0  0  0  0  0  0  0  0  0
   -8.8110   21.1273  -30.8789 H   0  0  0  0  0  0  0  0  0  0  0  0
   -8.4076   23.2110  -29.5724 H   0  0  0  0  0  0  0  0  0  0  0  0
   -5.3960   25.2410  -29.6650 H   0  0  0  0  0  0  0  0  0  0  0  0
   -3.5437   22.0324  -29.1389 H   0  0  0  0  0  0  0  0  0  0  0  0
   -0.9803   18.1669  -26.7354 H   0  0  0  0  0  0  0  0  0  0  0  0
   -0.9012   17.3116  -28.3407 H   0  0  0  0  0  0  0  0  0  0  0  0
    1.3175   17.8693  -26.9658 H   0  0  0  0  0  0  0  0  0  0  0  0
    1.2580   17.9869  -28.7636 H   0  0  0  0  0  0  0  0  0  0  0  0
    0.8184   21.5153  -28.7429 H   0  0  0  0  0  0  0  0  0  0  0  0
    1.5688   20.1572  -29.7097 H   0  0  0  0  0  0  0  0  0  0  0  0
   -1.0904   20.9094  -29.8171 H   0  0  0  0  0  0  0  0  0  0  0  0
   -0.4037   19.2941  -30.2880 H   0  0  0  0  0  0  0  0  0  0  0  0
    0.0218   22.5057  -26.7418 H   0  0  0  0  0  0  0  0  0  0  0  0
    0.3106   24.8169  -27.6202 H   0  0  0  0  0  0  0  0  0  0  0  0
  1  2  2  0
  2  3  1  0
  3  4  1  0
  4  5  2  0
  5  6  1  0
  6  7  1  0
  7  8  2  0
  7  9  2  0
  7 10  1  0
 10 11  1  0
 11 12  1  0
 12 13  1  0
 13 14  1  0
 14 15  1  0
  6 16  2  0
 16 17  1  0
 17 18  2  0
 18 19  1  0
  2 20  1  0
 20 21  2  0
 21 22  1  0
 22 23  1  0
 23 24  2  0
 23 25  2  0
 23 26  1  0
 26 27  1  0
 27 28  1  0
 28 29  1  0
 29 30  1  0
 30 31  1  0
 22 32  2  0
 32 33  1  0
 33 34  2  0
 34 35  1  0
 18  4  1  0
 34 20  1  0
 15 10  1  0
 31 26  1  0
  5 36  1  0
 11 37  1  0
 11 38  1  0
 12 39  1  0
 12 40  1  0
 14 41  1  0
 14 42  1  0
 15 43  1  0
 15 44  1  0
 16 45  1  0
 17 46  1  0
 19 47  1  0
 21 48  1  0
 27 49  1  0
 27 50  1  0
 28 51  1  0
 28 52  1  0
 30 53  1  0
 30 54  1  0
 31 55  1  0
 31 56  1  0
 32 57  1  0
 33 58  1  0
M  CHG  2   3  -1  35  -1
M  END
>  <UniqueID>  (42) 
42

>  <SMILES>  (42) 
O=C([N-]c1cc(S(=O)(=O)N2CCOCC2)ccc1O)c1cc(S(=O)(=O)N2CCOCC2)ccc1[O-]

>  <Energy>  (42) 
85.62995933518715

>  <Genealogy>  (42) 
O=C([N-]c1cc(S(=O)(=O)N2CCOCC2)ccc1O)c1cc(S(=O)(=O)N2CCOCC2)ccc1[O-] (protonated)
O=C([N-]c1cc(S(=O)(=O)N2CCOCC2)ccc1O)c1cc(S(=O)(=O)N2CCOCC2)ccc1[O-] (3D coordinates assigned)
O=C([N-]c1cc(S(=O)(=O)N2CCOCC2)ccc1O)c1cc(S(=O)(=O)N2CCOCC2)ccc1[O-] (nonaromatic ring conformer: 85.62995933518715 kcal/mol)

>  <smiles>  (42) 
O=C(Nc1cc(S(=O)(=O)N2CCOCC2)ccc1O)c1cc(S(=O)(=O)N2CCOCC2)ccc1O

>  <score_type>  (42) 
oracle

>  <origin>  (42) 
adgpu

>  <m_score__min__energy>  (42) 
-13.98

>  <m_primary>  (42) 
energy

$$$$
42:0
     RDKit          3D

 49 52  0  0  0  0  0  0  0  0999 V2000
   -3.5460   15.6380  -34.5230 C   0  0  0  0  0  0  0  0  0  0  0  0
   -4.5740   16.5530  -33.9490 C   0  0  0  0  0  0  0  0  0  0  0  0
   -5.2550   17.5390  -34.6300 C   0  0  0  0  0  0  0  0  0  0  0  0
   -6.0530   18.0870  -33.6520 C   0  0  0  0  0  0  0  0  0  0  0  0
   -6.8810   19.0680  -33.8370 N   0  0  0  0  0  0  0  0  0  0  0  0
   -7.8600   19.7300  -32.5700 S   0  0  0  0  0  0  0  0  0  0  0  0
   -7.9940   18.7180  -31.4660 O   0  0  0  0  0  0  0  0  0  0  0  0
   -9.2280   20.0380  -33.1110 O   0  0  0  0  0  0  0  0  0  0  0  0
   -7.1320   21.2170  -31.9730 C   0  0  0  0  0  0  0  0  0  0  0  0
   -5.8450   21.6000  -32.3770 C   0  0  0  0  0  0  0  0  0  0  0  0
   -5.2820   22.7860  -31.8970 C   0  0  0  0  0  0  0  0  0  0  0  0
   -5.9990   23.5980  -31.0080 C   0  0  0  0  0  0  0  0  0  0  0  0
   -5.2680   25.0700  -30.3750 S   0  0  0  0  0  0  0  0  0  0  0  0
   -5.6690   25.2880  -28.9430 O   0  0  0  0  0  0  0  0  0  0  0  0
   -5.7330   26.2360  -31.2000 O   0  0  0  0  0  0  0  0  0  0  0  0
   -3.5390   24.9610  -30.4660 N   0  0  0  0  0  0  0  0  0  0  0  0
   -2.7140   24.1790  -29.5910 C   0  0  0  0  0  0  0  0  0  0  0  0
   -3.0300   22.8460  -29.2660 C   0  0  0  0  0  0  0  0  0  0  0  0
   -2.1810   22.1010  -28.4360 C   0  0  0  0  0  0  0  0  0  0  0  0
   -1.0230   22.6890  -27.9090 C   0  0  0  0  0  0  0  0  0  0  0  0
   -0.7220   24.0240  -28.2050 C   0  0  0  0  0  0  0  0  0  0  0  0
   -1.5580   24.7620  -29.0490 C   0  0  0  0  0  0  0  0  0  0  0  0
   -1.2370   26.0820  -29.3490 O   0  0  0  0  0  0  0  0  0  0  0  0
   -0.1630   21.8770  -26.9780 C   0  0  0  0  0  0  0  0  0  0  0  0
    0.0310   20.4450  -27.5100 C   0  0  0  0  0  0  0  0  0  0  0  0
   -1.2360   19.8060  -28.1420 C   0  0  0  0  0  0  0  0  0  0  0  0
   -2.4990   20.6790  -28.0600 C   0  0  0  0  0  0  0  0  0  0  0  0
   -7.2890   23.2220  -30.6140 C   0  0  0  0  0  0  0  0  0  0  0  0
   -7.8540   22.0360  -31.0950 C   0  0  0  0  0  0  0  0  0  0  0  0
   -5.8540   17.4670  -32.4720 N   0  0  0  0  0  0  0  0  0  0  0  0
   -4.9550   16.5510  -32.6910 O   0  0  0  0  0  0  0  0  0  0  0  0
   -2.9950   15.1476  -33.7070 H   0  0  0  0  0  0  0  0  0  0  0  0
   -4.0395   14.8748  -35.1427 H   0  0  0  0  0  0  0  0  0  0  0  0
   -2.8452   16.2166  -35.1427 H   0  0  0  0  0  0  0  0  0  0  0  0
   -5.1794   17.8184  -35.6912 H   0  0  0  0  0  0  0  0  0  0  0  0
   -5.2770   20.9656  -33.0734 H   0  0  0  0  0  0  0  0  0  0  0  0
   -4.2727   23.0829  -32.2182 H   0  0  0  0  0  0  0  0  0  0  0  0
   -3.9468   22.3874  -29.6650 H   0  0  0  0  0  0  0  0  0  0  0  0
    0.1740   24.4934  -27.7727 H   0  0  0  0  0  0  0  0  0  0  0  0
    0.8201   22.3612  -26.8829 H   0  0  0  0  0  0  0  0  0  0  0  0
   -0.6628   21.8216  -25.9997 H   0  0  0  0  0  0  0  0  0  0  0  0
    0.8202   20.4688  -28.2759 H   0  0  0  0  0  0  0  0  0  0  0  0
    0.2886   19.8242  -26.6393 H   0  0  0  0  0  0  0  0  0  0  0  0
   -1.0262   19.6040  -29.2028 H   0  0  0  0  0  0  0  0  0  0  0  0
   -1.4479   18.8943  -27.5642 H   0  0  0  0  0  0  0  0  0  0  0  0
   -3.2584   20.2830  -28.7503 H   0  0  0  0  0  0  0  0  0  0  0  0
   -2.8787   20.6599  -27.0278 H   0  0  0  0  0  0  0  0  0  0  0  0
   -7.8598   23.8610  -29.9242 H   0  0  0  0  0  0  0  0  0  0  0  0
   -8.8681   21.7456  -30.7829 H   0  0  0  0  0  0  0  0  0  0  0  0
  1  2  1  0
  2  3  2  0
  3  4  1  0
  4  5  2  3
  5  6  1  0
  6  7  2  0
  6  8  2  0
  6  9  1  0
  9 10  2  0
 10 11  1  0
 11 12  2  0
 12 13  1  0
 13 14  2  0
 13 15  2  0
 13 16  1  0
 16 17  1  0
 17 18  2  0
 18 19  1  0
 19 20  2  0
 20 21  1  0
 21 22  2  0
 22 23  1  0
 20 24  1  0
 24 25  1  0
 25 26  1  0
 26 27  1  0
 12 28  1  0
 28 29  2  0
  4 30  1  0
 30 31  1  0
 31  2  1  0
 29  9  1  0
 22 17  1  0
 27 19  1  0
  1 32  1  0
  1 33  1  0
  1 34  1  0
  3 35  1  0
 10 36  1  0
 11 37  1  0
 18 38  1  0
 21 39  1  0
 24 40  1  0
 24 41  1  0
 25 42  1  0
 25 43  1  0
 26 44  1  0
 26 45  1  0
 27 46  1  0
 27 47  1  0
 28 48  1  0
 29 49  1  0
M  CHG  3  16  -1  23  -1  30  -1
M  END
>  <UniqueID>  (43) 
43

>  <SMILES>  (43) 
Cc1cc(=NS(=O)(=O)c2ccc(S(=O)(=O)[N-]c3cc4c(cc3[O-])CCCC4)cc2)[n-]o1

>  <Energy>  (43) 
92.16821056828394

>  <Genealogy>  (43) 
Cc1cc(=NS(=O)(=O)c2ccc(S(=O)(=O)[N-]c3cc4c(cc3[O-])CCCC4)cc2)[n-]o1 (protonated)
Cc1cc(=NS(=O)(=O)c2ccc(S(=O)(=O)[N-]c3cc4c(cc3[O-])CCCC4)cc2)[n-]o1 (3D coordinates assigned)
Cc1cc(=NS(=O)(=O)c2ccc(S(=O)(=O)[N-]c3cc4c(cc3[O-])CCCC4)cc2)[n-]o1 (nonaromatic ring conformer: 92.16821056828394 kcal/mol)

>  <smiles>  (43) 
Cc1cc(=NS(=O)(=O)c2ccc(S(=O)(=O)Nc3cc4c(cc3O)CCCC4)cc2)[nH]o1

>  <score_type>  (43) 
oracle

>  <origin>  (43) 
adgpu

>  <m_score__min__energy>  (43) 
-15.52

>  <m_primary>  (43) 
energy

$$$$
43:0
     RDKit          3D

 50 52  0  0  0  0  0  0  0  0999 V2000
   -0.6680   19.9330  -28.8210 C   0  0  0  0  0  0  0  0  0  0  0  0
   -1.3900   21.1940  -29.2270 C   0  0  0  0  0  0  0  0  0  0  0  0
   -1.9160   22.0300  -28.2310 C   0  0  0  0  0  0  0  0  0  0  0  0
   -2.5930   23.2040  -28.5700 C   0  0  0  0  0  0  0  0  0  0  0  0
   -2.7610   23.5640  -29.9170 C   0  0  0  0  0  0  0  0  0  0  0  0
   -3.4770   24.7400  -30.3080 N   0  0  0  0  0  0  0  0  0  0  0  0
   -5.2030   24.8510  -30.4430 S   0  0  0  0  0  0  0  0  0  0  0  0
   -5.5640   26.0740  -31.2490 O   0  0  0  0  0  0  0  0  0  0  0  0
   -5.8030   24.9760  -29.0670 O   0  0  0  0  0  0  0  0  0  0  0  0
   -5.8050   23.4210  -31.2820 C   0  0  0  0  0  0  0  0  0  0  0  0
   -4.9410   22.6110  -32.0270 C   0  0  0  0  0  0  0  0  0  0  0  0
   -5.4370   21.5080  -32.7270 C   0  0  0  0  0  0  0  0  0  0  0  0
   -6.8120   21.1890  -32.6850 C   0  0  0  0  0  0  0  0  0  0  0  0
   -7.3220   20.0420  -33.3950 N   0  0  0  0  0  0  0  0  0  0  0  0
   -6.9620   18.7250  -33.0620 C   0  0  0  0  0  0  0  0  0  0  0  0
   -6.6630   17.6410  -32.7880 N   0  0  0  0  0  0  0  0  0  0  0  0
   -7.6780   22.0040  -31.9180 C   0  0  0  0  0  0  0  0  0  0  0  0
   -9.0930   21.7280  -31.8300 C   0  0  0  0  0  0  0  0  0  0  0  0
  -10.2270   21.5080  -31.7540 N   0  0  0  0  0  0  0  0  0  0  0  0
   -7.1700   23.1130  -31.2300 C   0  0  0  0  0  0  0  0  0  0  0  0
   -2.2360   22.7380  -30.9150 C   0  0  0  0  0  0  0  0  0  0  0  0
   -1.5720   21.5430  -30.5880 C   0  0  0  0  0  0  0  0  0  0  0  0
   -1.1040   20.6730  -31.6870 C   0  0  0  0  0  0  0  0  0  0  0  0
    0.2120   20.7730  -32.1530 C   0  0  0  0  0  0  0  0  0  0  0  0
    0.6250   19.9640  -33.2120 C   0  0  0  0  0  0  0  0  0  0  0  0
   -0.2490   19.0970  -33.7910 N   0  0  0  0  0  0  0  0  0  0  0  0
   -1.5410   18.9750  -33.3770 C   0  0  0  0  0  0  0  0  0  0  0  0
   -2.4230   18.0430  -34.0550 N   0  0  0  0  0  0  0  0  0  0  0  0
   -1.9290   16.7620  -34.5790 C   0  0  0  0  0  0  0  0  0  0  0  0
   -3.8360   18.4000  -34.2300 C   0  0  0  0  0  0  0  0  0  0  0  0
   -1.9880   19.7740  -32.3050 C   0  0  0  0  0  0  0  0  0  0  0  0
   -0.6312   19.8687  -27.7235 H   0  0  0  0  0  0  0  0  0  0  0  0
   -1.2026   19.0592  -29.2217 H   0  0  0  0  0  0  0  0  0  0  0  0
    0.3562   19.9517  -29.2217 H   0  0  0  0  0  0  0  0  0  0  0  0
   -1.7941   21.7584  -27.1721 H   0  0  0  0  0  0  0  0  0  0  0  0
   -2.9970   23.8504  -27.7770 H   0  0  0  0  0  0  0  0  0  0  0  0
   -3.8664   22.8435  -32.0618 H   0  0  0  0  0  0  0  0  0  0  0  0
   -4.7502   20.8825  -33.3161 H   0  0  0  0  0  0  0  0  0  0  0  0
   -7.9490   20.1670  -34.2180 H   0  0  0  0  0  0  0  0  0  0  0  0
   -7.8498   23.7482  -30.6431 H   0  0  0  0  0  0  0  0  0  0  0  0
   -2.3440   23.0271  -31.9708 H   0  0  0  0  0  0  0  0  0  0  0  0
    0.9134   21.4821  -31.6891 H   0  0  0  0  0  0  0  0  0  0  0  0
    1.6598   20.0273  -33.5797 H   0  0  0  0  0  0  0  0  0  0  0  0
   -1.6727   16.0974  -33.7408 H   0  0  0  0  0  0  0  0  0  0  0  0
   -2.7103   16.2917  -35.1942 H   0  0  0  0  0  0  0  0  0  0  0  0
   -1.0343   16.9381  -35.1942 H   0  0  0  0  0  0  0  0  0  0  0  0
   -4.3088   18.5195  -33.2440 H   0  0  0  0  0  0  0  0  0  0  0  0
   -3.9090   19.3448  -34.7886 H   0  0  0  0  0  0  0  0  0  0  0  0
   -4.3490   17.6033  -34.7886 H   0  0  0  0  0  0  0  0  0  0  0  0
   -3.0272   19.6933  -31.9534 H   0  0  0  0  0  0  0  0  0  0  0  0
  1  2  1  0
  2  3  2  0
  3  4  1  0
  4  5  2  0
  5  6  1  0
  6  7  1  0
  7  8  2  0
  7  9  2  0
  7 10  1  0
 10 11  2  0
 11 12  1  0
 12 13  2  0
 13 14  1  0
 14 15  1  0
 15 16  3  0
 13 17  1  0
 17 18  1  0
 18 19  3  0
 17 20  2  0
  5 21  1  0
 21 22  2  0
 22 23  1  0
 23 24  2  0
 24 25  1  0
 25 26  2  0
 26 27  1  0
 27 28  1  0
 28 29  1  0
 28 30  1  0
 27 31  2  0
 22  2  1  0
 31 23  1  0
 20 10  1  0
  1 32  1  0
  1 33  1  0
  1 34  1  0
  3 35  1  0
  4 36  1  0
 11 37  1  0
 12 38  1  0
 14 39  1  0
 20 40  1  0
 21 41  1  0
 24 42  1  0
 25 43  1  0
 29 44  1  0
 29 45  1  0
 29 46  1  0
 30 47  1  0
 30 48  1  0
 30 49  1  0
 31 50  1  0
M  CHG  1   6  -1
M  END
>  <UniqueID>  (44) 
44

>  <SMILES>  (44) 
Cc1ccc([N-]S(=O)(=O)c2ccc(NC#N)c(C#N)c2)cc1-c1ccnc(N(C)C)c1

>  <Energy>  (44) 
63.58070101789342

>  <Genealogy>  (44) 
Cc1ccc([N-]S(=O)(=O)c2ccc(NC#N)c(C#N)c2)cc1-c1ccnc(N(C)C)c1 (protonated)
Cc1ccc([N-]S(=O)(=O)c2ccc(NC#N)c(C#N)c2)cc1-c1ccnc(N(C)C)c1 (3D coordinates assigned)
Cc1ccc([N-]S(=O)(=O)c2ccc(NC#N)c(C#N)c2)cc1-c1ccnc(N(C)C)c1 (optimized conformer: 63.58070101789342 kcal/mol)

>  <smiles>  (44) 
Cc1ccc(NS(=O)(=O)c2ccc(NC#N)c(C#N)c2)cc1-c1ccnc(N(C)C)c1

>  <score_type>  (44) 
oracle

>  <origin>  (44) 
adgpu

>  <m_score__min__energy>  (44) 
-11.9

>  <m_primary>  (44) 
energy

$$$$
44:0
     RDKit          3D

 35 37  0  0  0  0  0  0  0  0999 V2000
   -4.0990   18.1600  -34.6370 C   0  0  0  0  0  0  0  0  0  0  0  0
   -5.3660   18.1990  -33.8330 C   0  0  0  0  0  0  0  0  0  0  0  0
   -6.0820   17.0210  -33.5900 C   0  0  0  0  0  0  0  0  0  0  0  0
   -7.2770   17.0600  -32.8710 C   0  0  0  0  0  0  0  0  0  0  0  0
   -7.7880   18.2790  -32.3940 C   0  0  0  0  0  0  0  0  0  0  0  0
   -9.0810   18.2750  -31.6230 C   0  0  0  0  0  0  0  0  0  0  0  0
   -7.0790   19.4780  -32.6560 C   0  0  0  0  0  0  0  0  0  0  0  0
   -7.6650   21.0520  -32.0920 S   0  0  0  0  0  0  0  0  0  0  0  0
   -8.9970   21.3650  -32.7140 O   0  0  0  0  0  0  0  0  0  0  0  0
   -7.8430   21.0090  -30.6010 O   0  0  0  0  0  0  0  0  0  0  0  0
   -6.5400   22.2880  -32.5630 N   0  0  0  0  0  0  0  0  0  0  0  0
   -5.3580   22.5950  -31.8130 C   0  0  0  0  0  0  0  0  0  0  0  0
   -4.2900   21.6610  -31.7100 C   0  0  0  0  0  0  0  0  0  0  0  0
   -3.1240   21.9820  -30.9900 C   0  0  0  0  0  0  0  0  0  0  0  0
   -3.0560   23.2390  -30.4020 C   0  0  0  0  0  0  0  0  0  0  0  0
   -2.0850   23.8610  -29.6570 C   0  0  0  0  0  0  0  0  0  0  0  0
   -2.5290   25.1020  -29.3440 N   0  0  0  0  0  0  0  0  0  0  0  0
   -3.7390   25.2810  -29.8670 N   0  0  0  0  0  0  0  0  0  0  0  0
   -4.0640   24.1490  -30.5130 C   0  0  0  0  0  0  0  0  0  0  0  0
   -5.2310   23.8700  -31.2170 C   0  0  0  0  0  0  0  0  0  0  0  0
   -5.8750   19.4220  -33.3780 C   0  0  0  0  0  0  0  0  0  0  0  0
   -3.2343   18.1334  -33.9576 H   0  0  0  0  0  0  0  0  0  0  0  0
   -4.0948   17.2613  -35.2713 H   0  0  0  0  0  0  0  0  0  0  0  0
   -4.0395   19.0567  -35.2713 H   0  0  0  0  0  0  0  0  0  0  0  0
   -5.7009   16.0606  -33.9675 H   0  0  0  0  0  0  0  0  0  0  0  0
   -7.8250   16.1265  -32.6754 H   0  0  0  0  0  0  0  0  0  0  0  0
   -8.8648   18.2757  -30.5445 H   0  0  0  0  0  0  0  0  0  0  0  0
   -9.6643   19.1713  -31.8806 H   0  0  0  0  0  0  0  0  0  0  0  0
   -9.6587   17.3751  -31.8806 H   0  0  0  0  0  0  0  0  0  0  0  0
   -6.8990   23.0040  -33.2340 H   0  0  0  0  0  0  0  0  0  0  0  0
   -4.3762   20.6787  -32.1976 H   0  0  0  0  0  0  0  0  0  0  0  0
   -2.2963   21.2635  -30.8962 H   0  0  0  0  0  0  0  0  0  0  0  0
   -1.1168   23.4279  -29.3655 H   0  0  0  0  0  0  0  0  0  0  0  0
   -6.0311   24.6195  -31.3070 H   0  0  0  0  0  0  0  0  0  0  0  0
   -5.3248   20.3509  -33.5887 H   0  0  0  0  0  0  0  0  0  0  0  0
  1  2  1  0
  2  3  2  0
  3  4  1  0
  4  5  2  0
  5  6  1  0
  5  7  1  0
  7  8  1  0
  8  9  2  0
  8 10  2  0
  8 11  1  0
 11 12  1  0
 12 13  1  0
 13 14  2  0
 14 15  1  0
 15 16  2  0
 16 17  1  0
 17 18  1  0
 18 19  2  0
 19 20  1  0
  7 21  2  0
 21  2  1  0
 20 12  2  0
 19 15  1  0
  1 22  1  0
  1 23  1  0
  1 24  1  0
  3 25  1  0
  4 26  1  0
  6 27  1  0
  6 28  1  0
  6 29  1  0
 11 30  1  0
 13 31  1  0
 14 32  1  0
 16 33  1  0
 20 34  1  0
 21 35  1  0
M  CHG  1  17  -1
M  END
>  <UniqueID>  (45) 
45

>  <SMILES>  (45) 
Cc1ccc(C)c(S(=O)(=O)Nc2ccc3c[n-]nc3c2)c1

>  <Energy>  (45) 
82.04258446980444

>  <Genealogy>  (45) 
Cc1ccc(C)c(S(=O)(=O)Nc2ccc3c[n-]nc3c2)c1 (protonated)
Cc1ccc(C)c(S(=O)(=O)Nc2ccc3c[n-]nc3c2)c1 (3D coordinates assigned)
Cc1ccc(C)c(S(=O)(=O)Nc2ccc3c[n-]nc3c2)c1 (optimized conformer: 82.04258446980444 kcal/mol)

>  <smiles>  (45) 
Cc1ccc(C)c(S(=O)(=O)Nc2ccc3c[nH]nc3c2)c1

>  <score_type>  (45) 
oracle

>  <origin>  (45) 
adgpu

>  <m_score__min__energy>  (45) 
-10.06

>  <m_primary>  (45) 
energy

$$$$
45:0
     RDKit          3D

 64 67  0  0  0  0  0  0  0  0999 V2000
   -0.3260   21.3490  -30.9420 C   0  0  0  0  0  0  0  0  0  0  0  0
   -1.0490   21.1720  -29.6330 C   0  0  0  0  0  0  0  0  0  0  0  0
   -0.4270   20.4870  -28.5770 C   0  0  0  0  0  0  0  0  0  0  0  0
   -1.0670   20.3230  -27.3890 N   0  0  0  0  0  0  0  0  0  0  0  0
   -2.3210   20.8020  -27.1860 C   0  0  0  0  0  0  0  0  0  0  0  0
   -2.9840   21.4900  -28.2020 C   0  0  0  0  0  0  0  0  0  0  0  0
   -2.3440   21.6990  -29.4410 C   0  0  0  0  0  0  0  0  0  0  0  0
   -2.9260   22.3360  -30.4220 N   0  0  0  0  0  0  0  0  0  0  0  0
   -4.1960   23.0050  -30.3840 C   0  0  0  0  0  0  0  0  0  0  0  0
   -5.3450   22.3030  -30.7660 C   0  0  0  0  0  0  0  0  0  0  0  0
   -6.5980   22.9310  -30.7580 C   0  0  0  0  0  0  0  0  0  0  0  0
   -8.0410   22.0300  -31.2280 S   0  0  0  0  0  0  0  0  0  0  0  0
   -8.9790   21.9600  -30.0540 O   0  0  0  0  0  0  0  0  0  0  0  0
   -8.7430   22.7580  -32.3400 O   0  0  0  0  0  0  0  0  0  0  0  0
   -7.6470   20.4100  -31.7460 N   0  0  0  0  0  0  0  0  0  0  0  0
   -7.1610   20.4170  -33.1320 C   0  0  0  0  0  0  0  0  0  0  0  0
   -6.5460   19.0510  -33.4870 C   0  0  0  0  0  0  0  0  0  0  0  0
   -7.1820   17.8770  -32.7020 C   0  0  0  0  0  0  0  0  0  0  0  0
   -6.3660   17.5180  -31.4490 C   0  0  0  0  0  0  0  0  0  0  0  0
   -8.6500   18.1830  -32.3460 C   0  0  0  0  0  0  0  0  0  0  0  0
   -8.8180   19.5230  -31.5930 C   0  0  0  0  0  0  0  0  0  0  0  0
   -6.6940   24.2770  -30.3830 C   0  0  0  0  0  0  0  0  0  0  0  0
   -5.5470   24.9930  -30.0330 C   0  0  0  0  0  0  0  0  0  0  0  0
   -4.2890   24.3650  -30.0330 C   0  0  0  0  0  0  0  0  0  0  0  0
   -3.1190   25.0830  -29.7470 O   0  0  0  0  0  0  0  0  0  0  0  0
   -2.3270   24.9190  -28.6010 C   0  0  0  0  0  0  0  0  0  0  0  0
   -2.9560   24.8590  -27.3530 C   0  0  0  0  0  0  0  0  0  0  0  0
   -2.2010   24.7150  -26.1850 C   0  0  0  0  0  0  0  0  0  0  0  0
   -0.8030   24.6480  -26.2540 C   0  0  0  0  0  0  0  0  0  0  0  0
    0.1580   24.4470  -24.7920 S   0  0  0  0  0  0  0  0  0  0  0  0
   -0.0440   25.8770  -23.7540 C   0  0  0  0  0  0  0  0  0  0  0  0
    1.6100   24.2890  -25.1430 O   0  0  0  0  0  0  0  0  0  0  0  0
   -0.2990   23.2190  -24.0560 O   0  0  0  0  0  0  0  0  0  0  0  0
   -0.1690   24.7190  -27.5000 C   0  0  0  0  0  0  0  0  0  0  0  0
   -0.9230   24.8590  -28.6680 C   0  0  0  0  0  0  0  0  0  0  0  0
    0.7257   21.6065  -30.7481 H   0  0  0  0  0  0  0  0  0  0  0  0
   -0.3742   20.4125  -31.5171 H   0  0  0  0  0  0  0  0  0  0  0  0
   -0.8014   22.1573  -31.5171 H   0  0  0  0  0  0  0  0  0  0  0  0
    0.5859   20.0799  -28.7120 H   0  0  0  0  0  0  0  0  0  0  0  0
   -0.5860   19.8070  -26.6170 H   0  0  0  0  0  0  0  0  0  0  0  0
   -2.8162   20.6468  -26.2161 H   0  0  0  0  0  0  0  0  0  0  0  0
   -4.0036   21.8686  -28.0372 H   0  0  0  0  0  0  0  0  0  0  0  0
   -5.2640   21.2504  -31.0749 H   0  0  0  0  0  0  0  0  0  0  0  0
   -8.0015   20.6244  -33.8107 H   0  0  0  0  0  0  0  0  0  0  0  0
   -6.3913   21.1956  -33.2384 H   0  0  0  0  0  0  0  0  0  0  0  0
   -6.6891   18.8714  -34.5627 H   0  0  0  0  0  0  0  0  0  0  0  0
   -5.4810   19.0895  -33.2145 H   0  0  0  0  0  0  0  0  0  0  0  0
   -7.1683   16.9951  -33.3594 H   0  0  0  0  0  0  0  0  0  0  0  0
   -6.9449   17.7727  -30.5490 H   0  0  0  0  0  0  0  0  0  0  0  0
   -6.1464   16.4401  -31.4508 H   0  0  0  0  0  0  0  0  0  0  0  0
   -5.4230   18.0843  -31.4508 H   0  0  0  0  0  0  0  0  0  0  0  0
   -9.2353   18.2271  -33.2763 H   0  0  0  0  0  0  0  0  0  0  0  0
   -9.0025   17.3823  -31.6792 H   0  0  0  0  0  0  0  0  0  0  0  0
   -9.7055   20.0398  -31.9869 H   0  0  0  0  0  0  0  0  0  0  0  0
   -8.9248   19.2931  -30.5226 H   0  0  0  0  0  0  0  0  0  0  0  0
   -7.6762   24.7720  -30.3641 H   0  0  0  0  0  0  0  0  0  0  0  0
   -5.6283   26.0544  -29.7557 H   0  0  0  0  0  0  0  0  0  0  0  0
   -4.0522   24.9256  -27.2901 H   0  0  0  0  0  0  0  0  0  0  0  0
   -2.7057   24.6542  -25.2095 H   0  0  0  0  0  0  0  0  0  0  0  0
   -0.0010   25.5725  -22.6979 H   0  0  0  0  0  0  0  0  0  0  0  0
    0.7613   26.5971  -23.9611 H   0  0  0  0  0  0  0  0  0  0  0  0
   -1.0173   26.3459  -23.9611 H   0  0  0  0  0  0  0  0  0  0  0  0
    0.9280   24.6643  -27.5599 H   0  0  0  0  0  0  0  0  0  0  0  0
   -0.4173   24.9225  -29.6428 H   0  0  0  0  0  0  0  0  0  0  0  0
  1  2  1  0
  2  3  2  0
  3  4  1  0
  4  5  1  0
  5  6  2  0
  6  7  1  0
  7  8  2  3
  8  9  1  0
  9 10  2  0
 10 11  1  0
 11 12  1  0
 12 13  2  0
 12 14  2  0
 12 15  1  0
 15 16  1  0
 16 17  1  0
 17 18  1  0
 18 19  1  0
 18 20  1  0
 20 21  1  0
 11 22  2  0
 22 23  1  0
 23 24  2  0
 24 25  1  0
 25 26  1  0
 26 27  2  0
 27 28  1  0
 28 29  2  0
 29 30  1  0
 30 31  1  0
 30 32  2  0
 30 33  2  0
 29 34  1  0
 34 35  2  0
  7  2  1  0
 24  9  1  0
 35 26  1  0
 21 15  1  0
  1 36  1  0
  1 37  1  0
  1 38  1  0
  3 39  1  0
  4 40  1  0
  5 41  1  0
  6 42  1  0
 10 43  1  0
 16 44  1  0
 16 45  1  0
 17 46  1  0
 17 47  1  0
 18 48  1  0
 19 49  1  0
 19 50  1  0
 19 51  1  0
 20 52  1  0
 20 53  1  0
 21 54  1  0
 21 55  1  0
 22 56  1  0
 23 57  1  0
 27 58  1  0
 28 59  1  0
 31 60  1  0
 31 61  1  0
 31 62  1  0
 34 63  1  0
 35 64  1  0
M  END
>  <UniqueID>  (46) 
46

>  <SMILES>  (46) 
Cc1c[nH]ccc1=Nc1cc(S(=O)(=O)N2CCC(C)CC2)ccc1Oc1ccc(S(C)(=O)=O)cc1

>  <Energy>  (46) 
82.28426603066383

>  <Genealogy>  (46) 
Cc1c[nH]ccc1=Nc1cc(S(=O)(=O)N2CCC(C)CC2)ccc1Oc1ccc(S(C)(=O)=O)cc1 (3D coordinates assigned)
Cc1c[nH]ccc1=Nc1cc(S(=O)(=O)N2CCC(C)CC2)ccc1Oc1ccc(S(C)(=O)=O)cc1 (nonaromatic ring conformer: 82.28426603066383 kcal/mol)

>  <smiles>  (46) 
Cc1c[nH]ccc1=Nc1cc(S(=O)(=O)N2CCC(C)CC2)ccc1Oc1ccc(S(C)(=O)=O)cc1

>  <score_type>  (46) 
oracle

>  <origin>  (46) 
adgpu

>  <m_score__min__energy>  (46) 
-11.529999999999999

>  <m_primary>  (46) 
energy

$$$$
46:0
     RDKit          3D

 52 55  0  0  0  0  0  0  0  0999 V2000
    4.1950   18.7380  -30.8430 C   0  0  0  0  0  0  0  0  0  0  0  0
    2.8140   18.1610  -30.9320 C   0  0  0  0  0  0  0  0  0  0  0  0
    2.5790   17.2830  -31.8070 O   0  0  0  0  0  0  0  0  0  0  0  0
    1.7670   18.5810  -30.0290 N   0  0  0  0  0  0  0  0  0  0  0  0
    2.1130   19.2730  -28.7760 C   0  0  0  0  0  0  0  0  0  0  0  0
    0.8980   19.4200  -27.8510 C   0  0  0  0  0  0  0  0  0  0  0  0
   -0.2550   19.9220  -28.6040 N   0  0  0  0  0  0  0  0  0  0  0  0
   -1.2240   20.7510  -27.9430 C   0  0  0  0  0  0  0  0  0  0  0  0
   -1.5750   20.4730  -26.7650 O   0  0  0  0  0  0  0  0  0  0  0  0
   -1.8040   21.9310  -28.6150 C   0  0  0  0  0  0  0  0  0  0  0  0
   -1.5050   23.2250  -28.1590 C   0  0  0  0  0  0  0  0  0  0  0  0
   -2.0760   24.3390  -28.7740 C   0  0  0  0  0  0  0  0  0  0  0  0
   -2.9670   24.1790  -29.8390 C   0  0  0  0  0  0  0  0  0  0  0  0
   -3.4910   25.3060  -30.4580 O   0  0  0  0  0  0  0  0  0  0  0  0
   -3.3020   22.8860  -30.2850 C   0  0  0  0  0  0  0  0  0  0  0  0
   -4.2520   22.6710  -31.3340 N   0  0  0  0  0  0  0  0  0  0  0  0
   -4.1360   21.3650  -32.4700 S   0  0  0  0  0  0  0  0  0  0  0  0
   -4.0410   21.9260  -33.8620 O   0  0  0  0  0  0  0  0  0  0  0  0
   -2.8980   20.5620  -32.1850 O   0  0  0  0  0  0  0  0  0  0  0  0
   -5.5520   20.3090  -32.3040 C   0  0  0  0  0  0  0  0  0  0  0  0
   -5.3650   18.9180  -32.3560 C   0  0  0  0  0  0  0  0  0  0  0  0
   -6.4530   18.0480  -32.2900 C   0  0  0  0  0  0  0  0  0  0  0  0
   -7.7480   18.5500  -32.1730 C   0  0  0  0  0  0  0  0  0  0  0  0
   -7.9640   19.9280  -32.1130 C   0  0  0  0  0  0  0  0  0  0  0  0
   -9.2340   20.4040  -32.0030 N   0  0  0  0  0  0  0  0  0  0  0  0
   -9.4990   21.7340  -31.9390 C   0  0  0  0  0  0  0  0  0  0  0  0
   -8.4570   22.6560  -31.9800 C   0  0  0  0  0  0  0  0  0  0  0  0
   -7.1420   22.2050  -32.0900 C   0  0  0  0  0  0  0  0  0  0  0  0
   -6.8670   20.8260  -32.1680 C   0  0  0  0  0  0  0  0  0  0  0  0
   -2.7050   21.7710  -29.6800 C   0  0  0  0  0  0  0  0  0  0  0  0
   -0.5590   19.3880  -29.9390 C   0  0  0  0  0  0  0  0  0  0  0  0
    0.3690   18.2250  -30.3090 C   0  0  0  0  0  0  0  0  0  0  0  0
    4.4759   18.8554  -29.7860 H   0  0  0  0  0  0  0  0  0  0  0  0
    4.9074   18.0623  -31.3389 H   0  0  0  0  0  0  0  0  0  0  0  0
    4.2149   19.7197  -31.3389 H   0  0  0  0  0  0  0  0  0  0  0  0
    2.8902   18.6959  -28.2536 H   0  0  0  0  0  0  0  0  0  0  0  0
    2.4723   20.2810  -29.0306 H   0  0  0  0  0  0  0  0  0  0  0  0
    0.6502   18.4395  -27.4184 H   0  0  0  0  0  0  0  0  0  0  0  0
    1.1414   20.1337  -27.0502 H   0  0  0  0  0  0  0  0  0  0  0  0
   -0.8165   23.3609  -27.3119 H   0  0  0  0  0  0  0  0  0  0  0  0
   -1.8237   25.3491  -28.4189 H   0  0  0  0  0  0  0  0  0  0  0  0
   -4.3479   18.5097  -32.4499 H   0  0  0  0  0  0  0  0  0  0  0  0
   -6.2885   16.9611  -32.3304 H   0  0  0  0  0  0  0  0  0  0  0  0
   -8.6023   17.8585  -32.1278 H   0  0  0  0  0  0  0  0  0  0  0  0
  -10.5386   22.0835  -31.8546 H   0  0  0  0  0  0  0  0  0  0  0  0
   -8.6695   23.7339  -31.9260 H   0  0  0  0  0  0  0  0  0  0  0  0
   -6.3152   22.9301  -32.1160 H   0  0  0  0  0  0  0  0  0  0  0  0
   -2.9448   20.7608  -30.0433 H   0  0  0  0  0  0  0  0  0  0  0  0
   -1.5997   19.0318  -29.9520 H   0  0  0  0  0  0  0  0  0  0  0  0
   -0.4090   20.1935  -30.6730 H   0  0  0  0  0  0  0  0  0  0  0  0
    0.0944   17.3390  -29.7176 H   0  0  0  0  0  0  0  0  0  0  0  0
    0.2622   18.0087  -31.3822 H   0  0  0  0  0  0  0  0  0  0  0  0
  1  2  1  0
  2  3  2  0
  2  4  1  0
  4  5  1  0
  5  6  1  0
  6  7  1  0
  7  8  1  0
  8  9  2  0
  8 10  1  0
 10 11  2  0
 11 12  1  0
 12 13  2  0
 13 14  1  0
 13 15  1  0
 15 16  1  0
 16 17  1  0
 17 18  2  0
 17 19  2  0
 17 20  1  0
 20 21  2  0
 21 22  1  0
 22 23  2  0
 23 24  1  0
 24 25  2  0
 25 26  1  0
 26 27  2  0
 27 28  1  0
 28 29  2  0
 15 30  2  0
  7 31  1  0
 31 32  1  0
 32  4  1  0
 30 10  1  0
 29 20  1  0
 29 24  1  0
  1 33  1  0
  1 34  1  0
  1 35  1  0
  5 36  1  0
  5 37  1  0
  6 38  1  0
  6 39  1  0
 11 40  1  0
 12 41  1  0
 21 42  1  0
 22 43  1  0
 23 44  1  0
 26 45  1  0
 27 46  1  0
 28 47  1  0
 30 48  1  0
 31 49  1  0
 31 50  1  0
 32 51  1  0
 32 52  1  0
M  CHG  2  14  -1  16  -1
M  END
>  <UniqueID>  (47) 
47

>  <SMILES>  (47) 
CC(=O)N1CCN(C(=O)c2ccc([O-])c([N-]S(=O)(=O)c3cccc4ncccc34)c2)CC1

>  <Energy>  (47) 
71.7383753596088

>  <Genealogy>  (47) 
CC(=O)N1CCN(C(=O)c2ccc([O-])c([N-]S(=O)(=O)c3cccc4ncccc34)c2)CC1 (protonated)
CC(=O)N1CCN(C(=O)c2ccc([O-])c([N-]S(=O)(=O)c3cccc4ncccc34)c2)CC1 (3D coordinates assigned)
CC(=O)N1CCN(C(=O)c2ccc([O-])c([N-]S(=O)(=O)c3cccc4ncccc34)c2)CC1 (nonaromatic ring conformer: 71.7383753596088 kcal/mol)

>  <smiles>  (47) 
CC(=O)N1CCN(C(=O)c2ccc(O)c(NS(=O)(=O)c3cccc4ncccc34)c2)CC1

>  <score_type>  (47) 
oracle

>  <origin>  (47) 
adgpu

>  <m_score__min__energy>  (47) 
-14.43

>  <m_primary>  (47) 
energy

$$$$
47:0
     RDKit          3D

 50 52  0  0  0  0  0  0  0  0999 V2000
   -9.4050   18.2360  -31.9240 C   0  0  0  0  0  0  0  0  0  0  0  0
   -8.3420   19.2830  -32.1180 C   0  0  0  0  0  0  0  0  0  0  0  0
   -8.7040   20.6330  -31.9610 C   0  0  0  0  0  0  0  0  0  0  0  0
   -7.7530   21.6450  -32.0710 C   0  0  0  0  0  0  0  0  0  0  0  0
   -6.4230   21.3280  -32.3460 C   0  0  0  0  0  0  0  0  0  0  0  0
   -5.2080   22.6050  -32.3720 S   0  0  0  0  0  0  0  0  0  0  0  0
   -5.7700   23.7960  -33.0950 O   0  0  0  0  0  0  0  0  0  0  0  0
   -3.9690   22.1460  -33.0890 O   0  0  0  0  0  0  0  0  0  0  0  0
   -4.8210   23.0550  -30.7440 N   0  0  0  0  0  0  0  0  0  0  0  0
   -3.4980   22.9430  -30.2070 C   0  0  0  0  0  0  0  0  0  0  0  0
   -2.8890   21.6830  -30.1680 C   0  0  0  0  0  0  0  0  0  0  0  0
   -3.5900   20.5610  -30.6110 O   0  0  0  0  0  0  0  0  0  0  0  0
   -1.5770   21.5540  -29.7030 C   0  0  0  0  0  0  0  0  0  0  0  0
   -0.8690   22.6780  -29.2760 C   0  0  0  0  0  0  0  0  0  0  0  0
   -1.4700   23.9490  -29.2780 C   0  0  0  0  0  0  0  0  0  0  0  0
   -0.6880   25.1200  -28.8040 C   0  0  0  0  0  0  0  0  0  0  0  0
    0.3980   24.9680  -28.1850 O   0  0  0  0  0  0  0  0  0  0  0  0
   -1.1470   26.4120  -29.0380 O   0  0  0  0  0  0  0  0  0  0  0  0
   -2.8040   24.0720  -29.7290 C   0  0  0  0  0  0  0  0  0  0  0  0
   -3.4530   25.3010  -29.6800 O   0  0  0  0  0  0  0  0  0  0  0  0
   -6.0520   19.9930  -32.5250 C   0  0  0  0  0  0  0  0  0  0  0  0
   -6.9980   18.9550  -32.4480 C   0  0  0  0  0  0  0  0  0  0  0  0
   -6.4560   17.2640  -32.6540 S   0  0  0  0  0  0  0  0  0  0  0  0
   -6.1100   16.7130  -31.2980 O   0  0  0  0  0  0  0  0  0  0  0  0
   -7.5710   16.4380  -33.2300 O   0  0  0  0  0  0  0  0  0  0  0  0
   -5.0930   17.0620  -33.7320 N   0  0  0  0  0  0  0  0  0  0  0  0
   -3.8740   17.7000  -33.2090 C   0  0  0  0  0  0  0  0  0  0  0  0
   -2.8020   17.7840  -34.3090 C   0  0  0  0  0  0  0  0  0  0  0  0
   -2.8400   16.5800  -35.2690 C   0  0  0  0  0  0  0  0  0  0  0  0
   -3.4700   15.3500  -34.6100 C   0  0  0  0  0  0  0  0  0  0  0  0
   -4.9100   15.6550  -34.1540 C   0  0  0  0  0  0  0  0  0  0  0  0
   -9.5688   18.0747  -30.8483 H   0  0  0  0  0  0  0  0  0  0  0  0
  -10.3419   18.5738  -32.3909 H   0  0  0  0  0  0  0  0  0  0  0  0
   -9.0814   17.2940  -32.3909 H   0  0  0  0  0  0  0  0  0  0  0  0
   -9.7515   20.8931  -31.7486 H   0  0  0  0  0  0  0  0  0  0  0  0
   -8.0515   22.6957  -31.9408 H   0  0  0  0  0  0  0  0  0  0  0  0
   -4.1470   20.5820  -31.4570 H   0  0  0  0  0  0  0  0  0  0  0  0
   -1.1010   20.5628  -29.6736 H   0  0  0  0  0  0  0  0  0  0  0  0
    0.1708   22.5685  -28.9341 H   0  0  0  0  0  0  0  0  0  0  0  0
   -4.9992   19.7489  -32.7302 H   0  0  0  0  0  0  0  0  0  0  0  0
   -4.1164   18.7147  -32.8602 H   0  0  0  0  0  0  0  0  0  0  0  0
   -3.4846   17.0980  -32.3748 H   0  0  0  0  0  0  0  0  0  0  0  0
   -2.9658   18.7032  -34.8906 H   0  0  0  0  0  0  0  0  0  0  0  0
   -1.8189   17.7847  -33.8156 H   0  0  0  0  0  0  0  0  0  0  0  0
   -3.4304   16.8505  -36.1568 H   0  0  0  0  0  0  0  0  0  0  0  0
   -1.8053   16.3289  -35.5452 H   0  0  0  0  0  0  0  0  0  0  0  0
   -3.4880   14.5218  -35.3337 H   0  0  0  0  0  0  0  0  0  0  0  0
   -2.8708   15.0741  -33.7297 H   0  0  0  0  0  0  0  0  0  0  0  0
   -5.5946   15.4469  -34.9895 H   0  0  0  0  0  0  0  0  0  0  0  0
   -5.1231   15.0179  -33.2829 H   0  0  0  0  0  0  0  0  0  0  0  0
  1  2  1  0
  2  3  2  0
  3  4  1  0
  4  5  2  0
  5  6  1  0
  6  7  2  0
  6  8  2  0
  6  9  1  0
  9 10  1  0
 10 11  2  0
 11 12  1  0
 11 13  1  0
 13 14  2  0
 14 15  1  0
 15 16  1  0
 16 17  2  0
 16 18  1  0
 15 19  2  0
 19 20  1  0
  5 21  1  0
 21 22  2  0
 22 23  1  0
 23 24  2  0
 23 25  2  0
 23 26  1  0
 26 27  1  0
 27 28  1  0
 28 29  1  0
 29 30  1  0
 30 31  1  0
 22  2  1  0
 31 26  1  0
 19 10  1  0
  1 32  1  0
  1 33  1  0
  1 34  1  0
  3 35  1  0
  4 36  1  0
 12 37  1  0
 13 38  1  0
 14 39  1  0
 21 40  1  0
 27 41  1  0
 27 42  1  0
 28 43  1  0
 28 44  1  0
 29 45  1  0
 29 46  1  0
 30 47  1  0
 30 48  1  0
 31 49  1  0
 31 50  1  0
M  CHG  3   9  -1  18  -1  20  -1
M  END
>  <UniqueID>  (48) 
48

>  <SMILES>  (48) 
Cc1ccc(S(=O)(=O)[N-]c2c(O)ccc(C(=O)[O-])c2[O-])cc1S(=O)(=O)N1CCCCC1

>  <Energy>  (48) 
69.0790463589839

>  <Genealogy>  (48) 
Cc1ccc(S(=O)(=O)[N-]c2c(O)ccc(C(=O)[O-])c2[O-])cc1S(=O)(=O)N1CCCCC1 (protonated)
Cc1ccc(S(=O)(=O)[N-]c2c(O)ccc(C(=O)[O-])c2[O-])cc1S(=O)(=O)N1CCCCC1 (3D coordinates assigned)
Cc1ccc(S(=O)(=O)[N-]c2c(O)ccc(C(=O)[O-])c2[O-])cc1S(=O)(=O)N1CCCCC1 (nonaromatic ring conformer: 69.0790463589839 kcal/mol)

>  <smiles>  (48) 
Cc1ccc(S(=O)(=O)Nc2c(O)ccc(C(=O)O)c2O)cc1S(=O)(=O)N1CCCCC1

>  <score_type>  (48) 
oracle

>  <origin>  (48) 
adgpu

>  <m_score__min__energy>  (48) 
-14.52

>  <m_primary>  (48) 
energy

$$$$
