0:0
     RDKit          3D

 54 56  0  0  0  0  0  0  0  0999 V2000
   -4.1730   25.3810  -30.8300 O   0  0  0  0  0  0  0  0  0  0  0  0
   -3.4510   24.6850  -30.0660 C   0  0  0  0  0  0  0  0  0  0  0  0
   -2.3870   25.2950  -29.3300 N   0  0  0  0  0  0  0  0  0  0  0  0
   -2.1200   25.0290  -27.9200 C   0  0  0  0  0  0  0  0  0  0  0  0
   -0.6590   25.3390  -27.5840 C   0  0  0  0  0  0  0  0  0  0  0  0
    0.2280   24.3180  -28.1860 N   0  0  0  0  0  0  0  0  0  0  0  0
    1.6550   24.5460  -27.8600 C   0  0  0  0  0  0  0  0  0  0  0  0
    2.0910   23.8160  -26.5710 C   0  0  0  0  0  0  0  0  0  0  0  0
    0.9810   23.5750  -25.7340 O   0  0  0  0  0  0  0  0  0  0  0  0
    0.1140   22.6320  -26.3390 C   0  0  0  0  0  0  0  0  0  0  0  0
   -0.1750   22.9450  -27.8270 C   0  0  0  0  0  0  0  0  0  0  0  0
   -3.7160   23.2910  -29.8740 N   0  0  0  0  0  0  0  0  0  0  0  0
   -3.3020   22.2090  -30.7240 C   0  0  0  0  0  0  0  0  0  0  0  0
   -4.2290   21.3220  -31.3030 C   0  0  0  0  0  0  0  0  0  0  0  0
   -3.7950   20.2880  -32.1430 C   0  0  0  0  0  0  0  0  0  0  0  0
   -4.9700   19.1570  -32.8070 S   0  0  0  0  0  0  0  0  0  0  0  0
   -5.0090   19.3200  -34.3010 O   0  0  0  0  0  0  0  0  0  0  0  0
   -4.5630   17.7430  -32.4900 O   0  0  0  0  0  0  0  0  0  0  0  0
   -6.5390   19.5010  -32.1250 N   0  0  0  0  0  0  0  0  0  0  0  0
   -7.4700   18.4050  -32.4390 C   0  0  0  0  0  0  0  0  0  0  0  0
   -8.7950   18.5840  -31.6730 C   0  0  0  0  0  0  0  0  0  0  0  0
   -9.0310   20.0390  -31.2420 C   0  0  0  0  0  0  0  0  0  0  0  0
   -8.5340   21.0170  -32.3090 C   0  0  0  0  0  0  0  0  0  0  0  0
   -7.0450   20.7840  -32.6550 C   0  0  0  0  0  0  0  0  0  0  0  0
   -2.4310   20.1430  -32.4160 C   0  0  0  0  0  0  0  0  0  0  0  0
   -1.5080   21.0370  -31.8700 C   0  0  0  0  0  0  0  0  0  0  0  0
   -1.9390   22.0720  -31.0310 C   0  0  0  0  0  0  0  0  0  0  0  0
   -1.0160   22.9680  -30.4920 O   0  0  0  0  0  0  0  0  0  0  0  0
   -2.7755   25.6601  -27.3020 H   0  0  0  0  0  0  0  0  0  0  0  0
   -2.3147   23.9659  -27.7151 H   0  0  0  0  0  0  0  0  0  0  0  0
   -0.3962   26.3301  -27.9825 H   0  0  0  0  0  0  0  0  0  0  0  0
   -0.5304   25.3293  -26.4916 H   0  0  0  0  0  0  0  0  0  0  0  0
    2.2703   24.1829  -28.6964 H   0  0  0  0  0  0  0  0  0  0  0  0
    1.7921   25.6250  -27.6957 H   0  0  0  0  0  0  0  0  0  0  0  0
    2.5558   22.8559  -26.8395 H   0  0  0  0  0  0  0  0  0  0  0  0
    2.8095   24.4505  -26.0313 H   0  0  0  0  0  0  0  0  0  0  0  0
    0.5779   21.6368  -26.2737 H   0  0  0  0  0  0  0  0  0  0  0  0
   -0.8448   22.6738  -25.8014 H   0  0  0  0  0  0  0  0  0  0  0  0
    0.3824   22.2345  -28.4551 H   0  0  0  0  0  0  0  0  0  0  0  0
   -1.2586   22.8524  -27.9918 H   0  0  0  0  0  0  0  0  0  0  0  0
   -5.3024   21.4415  -31.0944 H   0  0  0  0  0  0  0  0  0  0  0  0
   -7.6745   18.4026  -33.5198 H   0  0  0  0  0  0  0  0  0  0  0  0
   -7.0112   17.4520  -32.1369 H   0  0  0  0  0  0  0  0  0  0  0  0
   -9.6243   18.2695  -32.3237 H   0  0  0  0  0  0  0  0  0  0  0  0
   -8.7412   17.9693  -30.7624 H   0  0  0  0  0  0  0  0  0  0  0  0
  -10.1081   20.1967  -31.0839 H   0  0  0  0  0  0  0  0  0  0  0  0
   -8.4728   20.2230  -30.3122 H   0  0  0  0  0  0  0  0  0  0  0  0
   -9.1358   20.8853  -33.2203 H   0  0  0  0  0  0  0  0  0  0  0  0
   -8.6361   22.0373  -31.9108 H   0  0  0  0  0  0  0  0  0  0  0  0
   -6.9322   20.7836  -33.7492 H   0  0  0  0  0  0  0  0  0  0  0  0
   -6.4617   21.5928  -32.1907 H   0  0  0  0  0  0  0  0  0  0  0  0
   -2.0847   19.3229  -33.0622 H   0  0  0  0  0  0  0  0  0  0  0  0
   -0.4378   20.9279  -32.0998 H   0  0  0  0  0  0  0  0  0  0  0  0
   -1.2920   23.6690  -29.8130 H   0  0  0  0  0  0  0  0  0  0  0  0
  1  2  2  0
  2  3  1  0
  3  4  1  0
  4  5  1  0
  5  6  1  0
  6  7  1  0
  7  8  1  0
  8  9  1  0
  9 10  1  0
 10 11  1  0
  2 12  1  0
 12 13  1  0
 13 14  2  0
 14 15  1  0
 15 16  1  0
 16 17  2  0
 16 18  2  0
 16 19  1  0
 19 20  1  0
 20 21  1  0
 21 22  1  0
 22 23  1  0
 23 24  1  0
 15 25  2  0
 25 26  1  0
 26 27  2  0
 27 28  1  0
 11  6  1  0
 27 13  1  0
 24 19  1  0
  4 29  1  0
  4 30  1  0
  5 31  1  0
  5 32  1  0
  7 33  1  0
  7 34  1  0
  8 35  1  0
  8 36  1  0
 10 37  1  0
 10 38  1  0
 11 39  1  0
 11 40  1  0
 14 41  1  0
 20 42  1  0
 20 43  1  0
 21 44  1  0
 21 45  1  0
 22 46  1  0
 22 47  1  0
 23 48  1  0
 23 49  1  0
 24 50  1  0
 24 51  1  0
 25 52  1  0
 26 53  1  0
 28 54  1  0
M  CHG  2   3  -1  12  -1
M  END
>  <UniqueID>  (1) 
1

>  <SMILES>  (1) 
O=C([N-]CCN1CCOCC1)[N-]c1cc(S(=O)(=O)N2CCCCC2)ccc1O

>  <Energy>  (1) 
68.42891002281043

>  <Genealogy>  (1) 
O=C([N-]CCN1CCOCC1)[N-]c1cc(S(=O)(=O)N2CCCCC2)ccc1O (protonated)
O=C([N-]CCN1CCOCC1)[N-]c1cc(S(=O)(=O)N2CCCCC2)ccc1O (3D coordinates assigned)
O=C([N-]CCN1CCOCC1)[N-]c1cc(S(=O)(=O)N2CCCCC2)ccc1O (nonaromatic ring conformer: 68.42891002281043 kcal/mol)

>  <smiles>  (1) 
O=C(NCCN1CCOCC1)Nc1cc(S(=O)(=O)N2CCCCC2)ccc1O

>  <score_type>  (1) 
oracle

>  <origin>  (1) 
adgpu

>  <m_score__min__energy>  (1) 
-12.08

>  <m_primary>  (1) 
energy

$$$$
1:0
     RDKit          3D

 44 46  0  0  0  0  0  0  0  0999 V2000
   -6.7060   24.6540  -29.9600 C   0  0  0  0  0  0  0  0  0  0  0  0
   -7.5460   24.0910  -30.9630 O   0  0  0  0  0  0  0  0  0  0  0  0
   -7.4660   22.7630  -31.4090 C   0  0  0  0  0  0  0  0  0  0  0  0
   -6.5440   22.3510  -32.3910 C   0  0  0  0  0  0  0  0  0  0  0  0
   -6.5020   21.0160  -32.8010 C   0  0  0  0  0  0  0  0  0  0  0  0
   -7.3820   20.0740  -32.2460 C   0  0  0  0  0  0  0  0  0  0  0  0
   -7.3170   18.6280  -32.6600 C   0  0  0  0  0  0  0  0  0  0  0  0
   -6.0640   18.3610  -33.3870 N   0  0  0  0  0  0  0  0  0  0  0  0
   -6.1300   17.9260  -34.6800 C   0  0  0  0  0  0  0  0  0  0  0  0
   -5.0010   17.6430  -35.3710 N   0  0  0  0  0  0  0  0  0  0  0  0
   -3.7780   17.7770  -34.8050 C   0  0  0  0  0  0  0  0  0  0  0  0
   -3.6550   18.2080  -33.4770 C   0  0  0  0  0  0  0  0  0  0  0  0
   -2.3060   18.3450  -32.8630 C   0  0  0  0  0  0  0  0  0  0  0  0
   -1.7360   17.3460  -32.3460 O   0  0  0  0  0  0  0  0  0  0  0  0
   -1.6260   19.6080  -32.9070 N   0  0  0  0  0  0  0  0  0  0  0  0
   -1.9610   20.7870  -32.1590 C   0  0  0  0  0  0  0  0  0  0  0  0
   -1.2420   21.1750  -31.0150 C   0  0  0  0  0  0  0  0  0  0  0  0
   -1.6150   22.3190  -30.3010 C   0  0  0  0  0  0  0  0  0  0  0  0
   -2.7190   23.0870  -30.7090 C   0  0  0  0  0  0  0  0  0  0  0  0
   -3.1160   24.2990  -29.9550 C   0  0  0  0  0  0  0  0  0  0  0  0
   -3.9110   25.3100  -30.5730 N   0  0  0  0  0  0  0  0  0  0  0  0
   -2.7560   24.4500  -28.7570 O   0  0  0  0  0  0  0  0  0  0  0  0
   -3.4490   22.6790  -31.8400 C   0  0  0  0  0  0  0  0  0  0  0  0
   -3.0760   21.5370  -32.5510 C   0  0  0  0  0  0  0  0  0  0  0  0
   -4.8440   18.5000  -32.7730 C   0  0  0  0  0  0  0  0  0  0  0  0
   -4.7870   18.8910  -31.5740 O   0  0  0  0  0  0  0  0  0  0  0  0
   -8.2960   20.4860  -31.2620 C   0  0  0  0  0  0  0  0  0  0  0  0
   -8.3360   21.8210  -30.8520 C   0  0  0  0  0  0  0  0  0  0  0  0
   -7.0964   24.3923  -28.9655 H   0  0  0  0  0  0  0  0  0  0  0  0
   -5.6864   24.2562  -30.0699 H   0  0  0  0  0  0  0  0  0  0  0  0
   -6.6865   25.7483  -30.0699 H   0  0  0  0  0  0  0  0  0  0  0  0
   -5.8545   23.0830  -32.8367 H   0  0  0  0  0  0  0  0  0  0  0  0
   -5.7745   20.7012  -33.5637 H   0  0  0  0  0  0  0  0  0  0  0  0
   -7.3594   17.9916  -31.7638 H   0  0  0  0  0  0  0  0  0  0  0  0
   -8.1684   18.4058  -33.3201 H   0  0  0  0  0  0  0  0  0  0  0  0
   -7.1101   17.8045  -35.1645 H   0  0  0  0  0  0  0  0  0  0  0  0
   -2.8760   17.5463  -35.3908 H   0  0  0  0  0  0  0  0  0  0  0  0
   -0.3822   20.5764  -30.6796 H   0  0  0  0  0  0  0  0  0  0  0  0
   -1.0395   22.6197  -29.4131 H   0  0  0  0  0  0  0  0  0  0  0  0
   -3.4820   26.0190  -31.2080 H   0  0  0  0  0  0  0  0  0  0  0  0
   -4.3209   23.2646  -32.1669 H   0  0  0  0  0  0  0  0  0  0  0  0
   -3.6633   21.2238  -33.4268 H   0  0  0  0  0  0  0  0  0  0  0  0
   -8.9833   19.7543  -30.8123 H   0  0  0  0  0  0  0  0  0  0  0  0
   -9.0586   22.1338  -30.0839 H   0  0  0  0  0  0  0  0  0  0  0  0
  1  2  1  0
  2  3  1  0
  3  4  2  0
  4  5  1  0
  5  6  2  0
  6  7  1  0
  7  8  1  0
  8  9  1  0
  9 10  2  0
 10 11  1  0
 11 12  2  0
 12 13  1  0
 13 14  2  0
 13 15  1  0
 15 16  1  0
 16 17  2  0
 17 18  1  0
 18 19  2  0
 19 20  1  0
 20 21  1  0
 20 22  2  0
 19 23  1  0
 23 24  2  0
 12 25  1  0
 25 26  2  0
  6 27  1  0
 27 28  2  0
 28  3  1  0
 25  8  1  0
 24 16  1  0
  1 29  1  0
  1 30  1  0
  1 31  1  0
  4 32  1  0
  5 33  1  0
  7 34  1  0
  7 35  1  0
  9 36  1  0
 11 37  1  0
 17 38  1  0
 18 39  1  0
 21 40  1  0
 23 41  1  0
 24 42  1  0
 27 43  1  0
 28 44  1  0
M  CHG  2  15  -1  21  -1
M  END
>  <UniqueID>  (2) 
2

>  <SMILES>  (2) 
COc1ccc(Cn2cncc(C(=O)[N-]c3ccc(C([NH-])=O)cc3)c2=O)cc1

>  <Energy>  (2) 
54.57233412260162

>  <Genealogy>  (2) 
COc1ccc(Cn2cncc(C(=O)[N-]c3ccc(C([NH-])=O)cc3)c2=O)cc1 (protonated)
COc1ccc(Cn2cncc(C(=O)[N-]c3ccc(C([NH-])=O)cc3)c2=O)cc1 (3D coordinates assigned)
COc1ccc(Cn2cncc(C(=O)[N-]c3ccc(C([NH-])=O)cc3)c2=O)cc1 (optimized conformer: 54.57233412260162 kcal/mol)

>  <smiles>  (2) 
COc1ccc(Cn2cncc(C(=O)Nc3ccc(C(N)=O)cc3)c2=O)cc1

>  <score_type>  (2) 
oracle

>  <origin>  (2) 
adgpu

>  <m_score__min__energy>  (2) 
-10.789999999999999

>  <m_primary>  (2) 
energy

$$$$
2:0
     RDKit          3D

 58 62  0  0  0  0  0  0  0  0999 V2000
    4.9300   24.1460  -27.3440 C   0  0  0  0  0  0  0  0  0  0  0  0
    4.1960   23.7940  -26.1750 O   0  0  0  0  0  0  0  0  0  0  0  0
    4.0510   24.6130  -25.0440 C   0  0  0  0  0  0  0  0  0  0  0  0
    5.0830   24.7350  -24.0900 C   0  0  0  0  0  0  0  0  0  0  0  0
    4.9220   25.5540  -22.9710 C   0  0  0  0  0  0  0  0  0  0  0  0
    3.7370   26.2610  -22.7870 C   0  0  0  0  0  0  0  0  0  0  0  0
    2.7050   26.1520  -23.7200 C   0  0  0  0  0  0  0  0  0  0  0  0
    2.8470   25.3320  -24.8560 C   0  0  0  0  0  0  0  0  0  0  0  0
    1.7310   25.2400  -25.8300 C   0  0  0  0  0  0  0  0  0  0  0  0
    1.0050   26.3180  -26.2380 N   0  0  0  0  0  0  0  0  0  0  0  0
    0.1340   25.7650  -27.0980 C   0  0  0  0  0  0  0  0  0  0  0  0
   -0.8700   26.3980  -27.8240 C   0  0  0  0  0  0  0  0  0  0  0  0
   -1.6680   25.6010  -28.6660 C   0  0  0  0  0  0  0  0  0  0  0  0
   -1.4400   24.2000  -28.7720 C   0  0  0  0  0  0  0  0  0  0  0  0
   -2.2650   23.3720  -29.6080 N   0  0  0  0  0  0  0  0  0  0  0  0
   -3.4680   23.8320  -30.2450 C   0  0  0  0  0  0  0  0  0  0  0  0
   -3.6280   25.0650  -30.4620 O   0  0  0  0  0  0  0  0  0  0  0  0
   -4.5040   22.8710  -30.6950 C   0  0  0  0  0  0  0  0  0  0  0  0
   -4.1740   21.5210  -30.9100 C   0  0  0  0  0  0  0  0  0  0  0  0
   -5.1440   20.6130  -31.3430 C   0  0  0  0  0  0  0  0  0  0  0  0
   -6.4580   21.0390  -31.5760 C   0  0  0  0  0  0  0  0  0  0  0  0
   -7.6820   19.8950  -32.1310 S   0  0  0  0  0  0  0  0  0  0  0  0
   -8.3240   19.2460  -30.9370 O   0  0  0  0  0  0  0  0  0  0  0  0
   -8.7480   20.6370  -32.8860 O   0  0  0  0  0  0  0  0  0  0  0  0
   -7.0010   18.6600  -33.1590 N   0  0  0  0  0  0  0  0  0  0  0  0
   -6.3090   17.6430  -32.3570 C   0  0  0  0  0  0  0  0  0  0  0  0
   -5.7660   16.5320  -33.2810 C   0  0  0  0  0  0  0  0  0  0  0  0
   -5.8260   16.8880  -34.6530 O   0  0  0  0  0  0  0  0  0  0  0  0
   -5.2470   18.1630  -34.8460 C   0  0  0  0  0  0  0  0  0  0  0  0
   -6.0760   19.2560  -34.1400 C   0  0  0  0  0  0  0  0  0  0  0  0
   -6.7910   22.3850  -31.3750 C   0  0  0  0  0  0  0  0  0  0  0  0
   -5.8240   23.2950  -30.9390 C   0  0  0  0  0  0  0  0  0  0  0  0
   -0.4200   23.6010  -27.9990 C   0  0  0  0  0  0  0  0  0  0  0  0
    0.3460   24.4260  -27.1820 C   0  0  0  0  0  0  0  0  0  0  0  0
    1.3360   24.1090  -26.3940 O   0  0  0  0  0  0  0  0  0  0  0  0
    5.8863   24.6046  -27.0522 H   0  0  0  0  0  0  0  0  0  0  0  0
    5.1236   23.2428  -27.9412 H   0  0  0  0  0  0  0  0  0  0  0  0
    4.3469   24.8624  -27.9412 H   0  0  0  0  0  0  0  0  0  0  0  0
    6.0225   24.1801  -24.2290 H   0  0  0  0  0  0  0  0  0  0  0  0
    5.7332   25.6409  -22.2331 H   0  0  0  0  0  0  0  0  0  0  0  0
    3.6139   26.9065  -21.9049 H   0  0  0  0  0  0  0  0  0  0  0  0
    1.7710   26.7124  -23.5665 H   0  0  0  0  0  0  0  0  0  0  0  0
   -1.0342   27.4826  -27.7428 H   0  0  0  0  0  0  0  0  0  0  0  0
   -2.4769   26.0660  -29.2486 H   0  0  0  0  0  0  0  0  0  0  0  0
   -1.9110   22.4200  -29.8560 H   0  0  0  0  0  0  0  0  0  0  0  0
   -3.1438   21.1769  -30.7359 H   0  0  0  0  0  0  0  0  0  0  0  0
   -4.8744   19.5584  -31.5017 H   0  0  0  0  0  0  0  0  0  0  0  0
   -5.4726   18.1104  -31.8167 H   0  0  0  0  0  0  0  0  0  0  0  0
   -7.0154   17.2046  -31.6367 H   0  0  0  0  0  0  0  0  0  0  0  0
   -4.7177   16.3323  -33.0140 H   0  0  0  0  0  0  0  0  0  0  0  0
   -6.3965   15.6418  -33.1391 H   0  0  0  0  0  0  0  0  0  0  0  0
   -4.2272   18.1617  -34.4338 H   0  0  0  0  0  0  0  0  0  0  0  0
   -5.2249   18.3797  -35.9242 H   0  0  0  0  0  0  0  0  0  0  0  0
   -5.3949   19.9460  -33.6204 H   0  0  0  0  0  0  0  0  0  0  0  0
   -6.6644   19.7959  -34.8965 H   0  0  0  0  0  0  0  0  0  0  0  0
   -7.8195   22.7275  -31.5614 H   0  0  0  0  0  0  0  0  0  0  0  0
   -6.0962   24.3497  -30.7855 H   0  0  0  0  0  0  0  0  0  0  0  0
   -0.2376   22.5171  -28.0420 H   0  0  0  0  0  0  0  0  0  0  0  0
  1  2  1  0
  2  3  1  0
  3  4  2  0
  4  5  1  0
  5  6  2  0
  6  7  1  0
  7  8  2  0
  8  9  1  0
  9 10  2  0
 10 11  1  0
 11 12  2  0
 12 13  1  0
 13 14  2  0
 14 15  1  0
 15 16  1  0
 16 17  2  0
 16 18  1  0
 18 19  2  0
 19 20  1  0
 20 21  2  0
 21 22  1  0
 22 23  2  0
 22 24  2  0
 22 25  1  0
 25 26  1  0
 26 27  1  0
 27 28  1  0
 28 29  1  0
 29 30  1  0
 21 31  1  0
 31 32  2  0
 14 33  1  0
 33 34  2  0
 34 35  1  0
  8  3  1  0
 35  9  1  0
 34 11  1  0
 32 18  1  0
 30 25  1  0
  1 36  1  0
  1 37  1  0
  1 38  1  0
  4 39  1  0
  5 40  1  0
  6 41  1  0
  7 42  1  0
 12 43  1  0
 13 44  1  0
 15 45  1  0
 19 46  1  0
 20 47  1  0
 26 48  1  0
 26 49  1  0
 27 50  1  0
 27 51  1  0
 29 52  1  0
 29 53  1  0
 30 54  1  0
 30 55  1  0
 31 56  1  0
 32 57  1  0
 33 58  1  0
M  END
>  <UniqueID>  (3) 
3

>  <SMILES>  (3) 
COc1ccccc1-c1nc2ccc(NC(=O)c3ccc(S(=O)(=O)N4CCOCC4)cc3)cc2o1

>  <Energy>  (3) 
114.60920661415757

>  <Genealogy>  (3) 
COc1ccccc1-c1nc2ccc(NC(=O)c3ccc(S(=O)(=O)N4CCOCC4)cc3)cc2o1 (3D coordinates assigned)
COc1ccccc1-c1nc2ccc(NC(=O)c3ccc(S(=O)(=O)N4CCOCC4)cc3)cc2o1 (nonaromatic ring conformer: 114.60920661415757 kcal/mol)

>  <smiles>  (3) 
COc1ccccc1-c1nc2ccc(NC(=O)c3ccc(S(=O)(=O)N4CCOCC4)cc3)cc2o1

>  <score_type>  (3) 
oracle

>  <origin>  (3) 
adgpu

>  <m_score__min__energy>  (3) 
-9.5299999999999994

>  <m_primary>  (3) 
energy

$$$$
3:0
     RDKit          3D

 53 56  0  0  0  0  0  0  0  0999 V2000
   -3.2680   23.2650  -31.6010 O   0  0  0  0  0  0  0  0  0  0  0  0
   -3.8270   23.8740  -30.6480 C   0  0  0  0  0  0  0  0  0  0  0  0
   -3.1180   24.8830  -29.9220 N   0  0  0  0  0  0  0  0  0  0  0  0
   -2.3300   24.6590  -28.7440 C   0  0  0  0  0  0  0  0  0  0  0  0
   -2.5740   23.5080  -27.9920 C   0  0  0  0  0  0  0  0  0  0  0  0
   -1.8490   23.2560  -26.8310 C   0  0  0  0  0  0  0  0  0  0  0  0
   -0.8670   24.1520  -26.3980 C   0  0  0  0  0  0  0  0  0  0  0  0
   -0.0240   23.7760  -24.8990 Cl  0  0  0  0  0  0  0  0  0  0  0  0
   -0.6090   25.3300  -27.1380 C   0  0  0  0  0  0  0  0  0  0  0  0
    0.6170   26.4910  -26.5870 S   0  0  0  0  0  0  0  0  0  0  0  0
    1.9810   25.8660  -26.6680 O   0  0  0  0  0  0  0  0  0  0  0  0
    0.6200   27.7150  -27.4600 O   0  0  0  0  0  0  0  0  0  0  0  0
    0.2650   26.9210  -24.8830 C   0  0  0  0  0  0  0  0  0  0  0  0
   -0.4990   28.2200  -24.6850 C   0  0  0  0  0  0  0  0  0  0  0  0
   -1.2090   26.8840  -24.5180 C   0  0  0  0  0  0  0  0  0  0  0  0
   -1.3770   25.5950  -28.2940 C   0  0  0  0  0  0  0  0  0  0  0  0
   -1.2310   26.8030  -28.9680 O   0  0  0  0  0  0  0  0  0  0  0  0
   -5.1770   23.5630  -30.2740 N   0  0  0  0  0  0  0  0  0  0  0  0
   -5.9280   22.4570  -30.8060 C   0  0  0  0  0  0  0  0  0  0  0  0
   -5.3080   21.2390  -31.1360 C   0  0  0  0  0  0  0  0  0  0  0  0
   -6.0650   20.1750  -31.6340 C   0  0  0  0  0  0  0  0  0  0  0  0
   -7.4500   20.3080  -31.8020 C   0  0  0  0  0  0  0  0  0  0  0  0
   -8.4010   18.9720  -32.4560 S   0  0  0  0  0  0  0  0  0  0  0  0
   -9.5460   19.5230  -33.2600 O   0  0  0  0  0  0  0  0  0  0  0  0
   -8.9740   18.1710  -31.3200 O   0  0  0  0  0  0  0  0  0  0  0  0
   -7.4300   17.9250  -33.4670 N   0  0  0  0  0  0  0  0  0  0  0  0
   -6.4220   18.7120  -34.2030 C   0  0  0  0  0  0  0  0  0  0  0  0
   -5.2690   17.8080  -34.6730 C   0  0  0  0  0  0  0  0  0  0  0  0
   -4.5770   17.1540  -33.6160 O   0  0  0  0  0  0  0  0  0  0  0  0
   -5.3430   17.0120  -32.4280 C   0  0  0  0  0  0  0  0  0  0  0  0
   -6.8460   16.8070  -32.6950 C   0  0  0  0  0  0  0  0  0  0  0  0
   -8.0740   21.5100  -31.4420 C   0  0  0  0  0  0  0  0  0  0  0  0
   -7.3190   22.5740  -30.9420 C   0  0  0  0  0  0  0  0  0  0  0  0
   -3.3450   22.7951  -28.3197 H   0  0  0  0  0  0  0  0  0  0  0  0
   -2.0503   22.3444  -26.2493 H   0  0  0  0  0  0  0  0  0  0  0  0
    1.1880   26.4942  -24.4636 H   0  0  0  0  0  0  0  0  0  0  0  0
   -0.2962   28.8491  -23.8057 H   0  0  0  0  0  0  0  0  0  0  0  0
   -0.6704   29.1222  -25.2905 H   0  0  0  0  0  0  0  0  0  0  0  0
   -1.5198   26.5475  -23.5179 H   0  0  0  0  0  0  0  0  0  0  0  0
   -2.1067   26.4204  -24.9529 H   0  0  0  0  0  0  0  0  0  0  0  0
   -5.6710   24.2430  -29.6530 H   0  0  0  0  0  0  0  0  0  0  0  0
   -4.2224   21.1230  -31.0016 H   0  0  0  0  0  0  0  0  0  0  0  0
   -5.5709   19.2277  -31.8956 H   0  0  0  0  0  0  0  0  0  0  0  0
   -6.8962   19.1784  -35.0791 H   0  0  0  0  0  0  0  0  0  0  0  0
   -6.0170   19.4853  -33.5337 H   0  0  0  0  0  0  0  0  0  0  0  0
   -5.6831   17.0397  -35.3425 H   0  0  0  0  0  0  0  0  0  0  0  0
   -4.5389   18.4597  -35.1753 H   0  0  0  0  0  0  0  0  0  0  0  0
   -4.9653   16.1422  -31.8706 H   0  0  0  0  0  0  0  0  0  0  0  0
   -5.2372   17.9466  -31.8576 H   0  0  0  0  0  0  0  0  0  0  0  0
   -6.9817   15.8746  -33.2626 H   0  0  0  0  0  0  0  0  0  0  0  0
   -7.3600   16.7604  -31.7236 H   0  0  0  0  0  0  0  0  0  0  0  0
   -9.1632   21.6163  -31.5536 H   0  0  0  0  0  0  0  0  0  0  0  0
   -7.8191   23.5101  -30.6530 H   0  0  0  0  0  0  0  0  0  0  0  0
  1  2  2  0
  2  3  1  0
  3  4  1  0
  4  5  2  0
  5  6  1  0
  6  7  2  0
  7  8  1  0
  7  9  1  0
  9 10  1  0
 10 11  2  0
 10 12  2  0
 10 13  1  0
 13 14  1  0
 14 15  1  0
  9 16  2  0
 16 17  1  0
  2 18  1  0
 18 19  1  0
 19 20  2  0
 20 21  1  0
 21 22  2  0
 22 23  1  0
 23 24  2  0
 23 25  2  0
 23 26  1  0
 26 27  1  0
 27 28  1  0
 28 29  1  0
 29 30  1  0
 30 31  1  0
 22 32  1  0
 32 33  2  0
 16  4  1  0
 33 19  1  0
 15 13  1  0
 31 26  1  0
  5 34  1  0
  6 35  1  0
 13 36  1  0
 14 37  1  0
 14 38  1  0
 15 39  1  0
 15 40  1  0
 18 41  1  0
 20 42  1  0
 21 43  1  0
 27 44  1  0
 27 45  1  0
 28 46  1  0
 28 47  1  0
 30 48  1  0
 30 49  1  0
 31 50  1  0
 31 51  1  0
 32 52  1  0
 33 53  1  0
M  CHG  2   3  -1  17  -1
M  END
>  <UniqueID>  (4) 
4

>  <SMILES>  (4) 
O=C([N-]c1ccc(Cl)c(S(=O)(=O)C2CC2)c1[O-])Nc1ccc(S(=O)(=O)N2CCOCC2)cc1

>  <Energy>  (4) 
341.9489246909582

>  <Genealogy>  (4) 
O=C([N-]c1ccc(Cl)c(S(=O)(=O)C2CC2)c1[O-])Nc1ccc(S(=O)(=O)N2CCOCC2)cc1 (protonated)
O=C([N-]c1ccc(Cl)c(S(=O)(=O)C2CC2)c1[O-])Nc1ccc(S(=O)(=O)N2CCOCC2)cc1 (3D coordinates assigned)
O=C([N-]c1ccc(Cl)c(S(=O)(=O)C2CC2)c1[O-])Nc1ccc(S(=O)(=O)N2CCOCC2)cc1 (nonaromatic ring conformer: 341.9489246909582 kcal/mol)

>  <smiles>  (4) 
O=C(Nc1ccc(S(=O)(=O)N2CCOCC2)cc1)Nc1ccc(Cl)c(S(=O)(=O)C2CC2)c1O

>  <score_type>  (4) 
oracle

>  <origin>  (4) 
adgpu

>  <m_score__min__energy>  (4) 
-13.41

>  <m_primary>  (4) 
energy

$$$$
4:0
     RDKit          3D

 83 87  0  0  0  0  0  0  0  0999 V2000
    4.9230   25.5670  -27.4920 C   0  0  0  0  0  0  0  0  0  0  0  0
    4.2100   24.6730  -26.5650 N   0  0  0  0  0  0  0  0  0  0  0  0
    3.6450   25.3960  -25.3930 C   0  0  0  0  0  0  0  0  0  0  0  0
    2.1060   25.4890  -25.3900 C   0  0  0  0  0  0  0  0  0  0  0  0
    1.5820   25.7270  -26.8100 C   0  0  0  0  0  0  0  0  0  0  0  0
   -0.1980   25.9560  -26.8010 S   0  0  0  0  0  0  0  0  0  0  0  0
   -0.6530   26.3390  -25.4200 O   0  0  0  0  0  0  0  0  0  0  0  0
   -0.5490   27.0840  -27.7300 O   0  0  0  0  0  0  0  0  0  0  0  0
   -0.9870   24.4660  -27.3720 C   0  0  0  0  0  0  0  0  0  0  0  0
   -0.9330   23.2520  -26.6410 C   0  0  0  0  0  0  0  0  0  0  0  0
   -0.0940   23.0840  -25.1030 Cl  0  0  0  0  0  0  0  0  0  0  0  0
   -1.5520   22.1070  -27.1470 C   0  0  0  0  0  0  0  0  0  0  0  0
   -2.1890   22.1330  -28.3850 C   0  0  0  0  0  0  0  0  0  0  0  0
   -2.2050   23.3030  -29.1500 C   0  0  0  0  0  0  0  0  0  0  0  0
   -2.8530   23.2780  -30.4310 N   0  0  0  0  0  0  0  0  0  0  0  0
   -3.7860   22.2700  -30.8350 C   0  0  0  0  0  0  0  0  0  0  0  0
   -4.2440   21.4480  -29.9920 O   0  0  0  0  0  0  0  0  0  0  0  0
   -4.2550   22.2560  -32.1860 N   0  0  0  0  0  0  0  0  0  0  0  0
   -5.0400   21.2200  -32.7900 C   0  0  0  0  0  0  0  0  0  0  0  0
   -6.4460   21.2470  -32.7660 C   0  0  0  0  0  0  0  0  0  0  0  0
   -7.1760   20.1770  -33.2880 C   0  0  0  0  0  0  0  0  0  0  0  0
   -6.5140   19.0570  -33.8070 C   0  0  0  0  0  0  0  0  0  0  0  0
   -5.1110   18.9990  -33.8040 C   0  0  0  0  0  0  0  0  0  0  0  0
   -4.4160   17.7830  -34.2930 C   0  0  0  0  0  0  0  0  0  0  0  0
   -3.8590   17.8080  -35.4220 O   0  0  0  0  0  0  0  0  0  0  0  0
   -4.3210   16.5840  -33.5090 N   0  0  0  0  0  0  0  0  0  0  0  0
   -3.1110   15.9840  -33.0300 C   0  0  0  0  0  0  0  0  0  0  0  0
   -1.9210   16.6270  -32.7350 C   0  0  0  0  0  0  0  0  0  0  0  0
   -1.0080   15.6220  -32.4670 C   0  0  0  0  0  0  0  0  0  0  0  0
    0.4370   15.8570  -32.2730 C   0  0  0  0  0  0  0  0  0  0  0  0
    1.0680   15.2700  -31.3580 O   0  0  0  0  0  0  0  0  0  0  0  0
    1.1300   16.7480  -33.1500 N   0  0  0  0  0  0  0  0  0  0  0  0
    1.6490   18.0480  -32.7340 C   0  0  0  0  0  0  0  0  0  0  0  0
    0.9230   18.5790  -31.4870 C   0  0  0  0  0  0  0  0  0  0  0  0
   -0.4440   19.0380  -31.8290 N   0  0  0  0  0  0  0  0  0  0  0  0
   -0.5020   19.6490  -33.1660 C   0  0  0  0  0  0  0  0  0  0  0  0
   -0.2610   21.1430  -33.0130 C   0  0  0  0  0  0  0  0  0  0  0  0
   -0.5100   21.4430  -31.5480 C   0  0  0  0  0  0  0  0  0  0  0  0
   -0.8810   20.1070  -30.9180 C   0  0  0  0  0  0  0  0  0  0  0  0
   -1.6170   14.4120  -32.5380 N   0  0  0  0  0  0  0  0  0  0  0  0
   -1.0070   13.0960  -32.3650 C   0  0  0  0  0  0  0  0  0  0  0  0
   -2.9050   14.6300  -32.8790 C   0  0  0  0  0  0  0  0  0  0  0  0
   -4.3830   20.1010  -33.3210 C   0  0  0  0  0  0  0  0  0  0  0  0
   -1.6400   24.4820  -28.6260 C   0  0  0  0  0  0  0  0  0  0  0  0
   -1.7400   25.6740  -29.3400 O   0  0  0  0  0  0  0  0  0  0  0  0
    1.9930   24.5780  -27.7550 C   0  0  0  0  0  0  0  0  0  0  0  0
    3.2370   23.8100  -27.2650 C   0  0  0  0  0  0  0  0  0  0  0  0
    5.5078   26.3003  -26.9173 H   0  0  0  0  0  0  0  0  0  0  0  0
    5.5992   24.9744  -28.1257 H   0  0  0  0  0  0  0  0  0  0  0  0
    4.1948   26.0944  -28.1257 H   0  0  0  0  0  0  0  0  0  0  0  0
    3.9607   24.8716  -24.4791 H   0  0  0  0  0  0  0  0  0  0  0  0
    4.0240   26.4273  -25.4449 H   0  0  0  0  0  0  0  0  0  0  0  0
    1.6869   24.5489  -25.0019 H   0  0  0  0  0  0  0  0  0  0  0  0
    1.8009   26.3311  -24.7515 H   0  0  0  0  0  0  0  0  0  0  0  0
    2.0408   26.6508  -27.1922 H   0  0  0  0  0  0  0  0  0  0  0  0
   -1.5362   21.1756  -26.5620 H   0  0  0  0  0  0  0  0  0  0  0  0
   -2.6833   21.2262  -28.7638 H   0  0  0  0  0  0  0  0  0  0  0  0
   -2.7220   24.0970  -31.0670 H   0  0  0  0  0  0  0  0  0  0  0  0
   -6.9714   22.1122  -32.3354 H   0  0  0  0  0  0  0  0  0  0  0  0
   -8.2754   20.2139  -33.2916 H   0  0  0  0  0  0  0  0  0  0  0  0
   -7.0958   18.2191  -34.2188 H   0  0  0  0  0  0  0  0  0  0  0  0
   -1.7389   17.7117  -32.7173 H   0  0  0  0  0  0  0  0  0  0  0  0
    2.7206   17.9476  -32.5067 H   0  0  0  0  0  0  0  0  0  0  0  0
    1.4847   18.7610  -33.5554 H   0  0  0  0  0  0  0  0  0  0  0  0
    0.8569   17.7754  -30.7387 H   0  0  0  0  0  0  0  0  0  0  0  0
    1.4906   19.4311  -31.0849 H   0  0  0  0  0  0  0  0  0  0  0  0
    0.2738   19.2102  -33.8106 H   0  0  0  0  0  0  0  0  0  0  0  0
   -1.4842   19.4664  -33.6265 H   0  0  0  0  0  0  0  0  0  0  0  0
    0.7738   21.3960  -33.2872 H   0  0  0  0  0  0  0  0  0  0  0  0
   -0.9184   21.7327  -33.6688 H   0  0  0  0  0  0  0  0  0  0  0  0
    0.3977   21.8506  -31.0791 H   0  0  0  0  0  0  0  0  0  0  0  0
   -1.3036   22.1927  -31.4135 H   0  0  0  0  0  0  0  0  0  0  0  0
   -0.3761   19.9993  -29.9467 H   0  0  0  0  0  0  0  0  0  0  0  0
   -1.9674   20.0499  -30.7550 H   0  0  0  0  0  0  0  0  0  0  0  0
   -0.9055   12.8771  -31.2918 H   0  0  0  0  0  0  0  0  0  0  0  0
   -1.6429   12.3322  -32.8365 H   0  0  0  0  0  0  0  0  0  0  0  0
   -0.0132   13.0877  -32.8365 H   0  0  0  0  0  0  0  0  0  0  0  0
   -3.6689   13.8502  -33.0148 H   0  0  0  0  0  0  0  0  0  0  0  0
   -3.2838   20.0848  -33.3603 H   0  0  0  0  0  0  0  0  0  0  0  0
    1.1535   23.8716  -27.8336 H   0  0  0  0  0  0  0  0  0  0  0  0
    2.2452   25.0262  -28.7274 H   0  0  0  0  0  0  0  0  0  0  0  0
    2.9106   23.0183  -26.5746 H   0  0  0  0  0  0  0  0  0  0  0  0
    3.7406   23.3994  -28.1525 H   0  0  0  0  0  0  0  0  0  0  0  0
  1  2  1  0
  2  3  1  0
  3  4  1  0
  4  5  1  0
  5  6  1  0
  6  7  2  0
  6  8  2  0
  6  9  1  0
  9 10  2  0
 10 11  1  0
 10 12  1  0
 12 13  2  0
 13 14  1  0
 14 15  1  0
 15 16  1  0
 16 17  2  0
 16 18  1  0
 18 19  1  0
 19 20  2  0
 20 21  1  0
 21 22  2  0
 22 23  1  0
 23 24  1  0
 24 25  2  0
 24 26  1  0
 26 27  1  0
 27 28  1  0
 28 29  2  0
 29 30  1  0
 30 31  2  0
 30 32  1  0
 32 33  1  0
 33 34  1  0
 34 35  1  0
 35 36  1  0
 36 37  1  0
 37 38  1  0
 38 39  1  0
 29 40  1  0
 40 41  1  0
 40 42  1  0
 23 43  2  0
 14 44  2  0
 44 45  1  0
  5 46  1  0
 46 47  1  0
 47  2  1  0
 44  9  1  0
 43 19  1  0
 42 27  2  0
 39 35  1  0
  1 48  1  0
  1 49  1  0
  1 50  1  0
  3 51  1  0
  3 52  1  0
  4 53  1  0
  4 54  1  0
  5 55  1  0
 12 56  1  0
 13 57  1  0
 15 58  1  0
 20 59  1  0
 21 60  1  0
 22 61  1  0
 28 62  1  0
 33 63  1  0
 33 64  1  0
 34 65  1  0
 34 66  1  0
 36 67  1  0
 36 68  1  0
 37 69  1  0
 37 70  1  0
 38 71  1  0
 38 72  1  0
 39 73  1  0
 39 74  1  0
 41 75  1  0
 41 76  1  0
 41 77  1  0
 42 78  1  0
 43 79  1  0
 46 80  1  0
 46 81  1  0
 47 82  1  0
 47 83  1  0
M  CHG  4  18  -1  26  -1  32  -1  45  -1
M  END
>  <UniqueID>  (5) 
5

>  <SMILES>  (5) 
CN1CCC(S(=O)(=O)c2c(Cl)ccc(NC(=O)[N-]c3cccc(C(=O)[N-]c4cc(C(=O)[N-]CCN5CCCC5)n(C)c4)c3)c2[O-])CC1

>  <Energy>  (5) 
140.3701480370721

>  <Genealogy>  (5) 
CN1CCC(S(=O)(=O)c2c(Cl)ccc(NC(=O)[N-]c3cccc(C(=O)[N-]c4cc(C(=O)[N-]CCN5CCCC5)n(C)c4)c3)c2[O-])CC1 (protonated)
CN1CCC(S(=O)(=O)c2c(Cl)ccc(NC(=O)[N-]c3cccc(C(=O)[N-]c4cc(C(=O)[N-]CCN5CCCC5)n(C)c4)c3)c2[O-])CC1 (3D coordinates assigned)
CN1CCC(S(=O)(=O)c2c(Cl)ccc(NC(=O)[N-]c3cccc(C(=O)[N-]c4cc(C(=O)[N-]CCN5CCCC5)n(C)c4)c3)c2[O-])CC1 (nonaromatic ring conformer: 140.3701480370721 kcal/mol)

>  <smiles>  (5) 
CN1CCC(S(=O)(=O)c2c(Cl)ccc(NC(=O)Nc3cccc(C(=O)Nc4cc(C(=O)NCCN5CCCC5)n(C)c4)c3)c2O)CC1

>  <score_type>  (5) 
oracle

>  <origin>  (5) 
adgpu

>  <m_score__min__energy>  (5) 
-13.77

>  <m_primary>  (5) 
energy

$$$$
5:0
     RDKit          3D

 49 52  0  0  0  0  0  0  0  0999 V2000
   -8.5700   23.0070  -32.2510 O   0  0  0  0  0  0  0  0  0  0  0  0
   -7.9240   21.7300  -31.7900 S   0  0  0  0  0  0  0  0  0  0  0  0
   -8.6250   21.2880  -30.5360 O   0  0  0  0  0  0  0  0  0  0  0  0
   -6.2290   22.0500  -31.4230 C   0  0  0  0  0  0  0  0  0  0  0  0
   -5.7700   23.3690  -31.3030 C   0  0  0  0  0  0  0  0  0  0  0  0
   -4.4360   23.6230  -30.9720 C   0  0  0  0  0  0  0  0  0  0  0  0
   -3.5460   22.5580  -30.7500 C   0  0  0  0  0  0  0  0  0  0  0  0
   -2.1710   22.7990  -30.4150 N   0  0  0  0  0  0  0  0  0  0  0  0
   -1.7260   23.2060  -29.1130 C   0  0  0  0  0  0  0  0  0  0  0  0
   -1.4460   22.3530  -28.0640 C   0  0  0  0  0  0  0  0  0  0  0  0
   -1.1250   23.1720  -26.9970 C   0  0  0  0  0  0  0  0  0  0  0  0
   -0.7230   22.7020  -25.7490 O   0  0  0  0  0  0  0  0  0  0  0  0
   -1.2250   24.4790  -27.3380 N   0  0  0  0  0  0  0  0  0  0  0  0
   -1.0270   25.6260  -26.4970 C   0  0  0  0  0  0  0  0  0  0  0  0
   -1.3490   25.5650  -25.1300 C   0  0  0  0  0  0  0  0  0  0  0  0
   -1.1410   26.6760  -24.3060 C   0  0  0  0  0  0  0  0  0  0  0  0
   -0.6030   27.8510  -24.8380 C   0  0  0  0  0  0  0  0  0  0  0  0
   -0.2690   27.9170  -26.1930 C   0  0  0  0  0  0  0  0  0  0  0  0
   -0.4760   26.8080  -27.0200 C   0  0  0  0  0  0  0  0  0  0  0  0
   -1.6030   24.4970  -28.6330 C   0  0  0  0  0  0  0  0  0  0  0  0
   -1.8890   25.6590  -29.3430 O   0  0  0  0  0  0  0  0  0  0  0  0
   -3.9980   21.2410  -30.9130 C   0  0  0  0  0  0  0  0  0  0  0  0
   -5.3330   20.9880  -31.2410 C   0  0  0  0  0  0  0  0  0  0  0  0
   -8.1210   20.5050  -33.0280 N   0  0  0  0  0  0  0  0  0  0  0  0
   -6.8350   19.9220  -33.4670 C   0  0  0  0  0  0  0  0  0  0  0  0
   -6.5680   18.5360  -32.8580 C   0  0  0  0  0  0  0  0  0  0  0  0
   -7.1790   18.4260  -31.5950 O   0  0  0  0  0  0  0  0  0  0  0  0
   -8.5830   18.3820  -31.7480 C   0  0  0  0  0  0  0  0  0  0  0  0
   -9.1340   19.4950  -32.6700 C   0  0  0  0  0  0  0  0  0  0  0  0
   -6.4623   24.2074  -31.4700 H   0  0  0  0  0  0  0  0  0  0  0  0
   -4.0812   24.6606  -30.8849 H   0  0  0  0  0  0  0  0  0  0  0  0
   -1.4480   22.6600  -31.1570 H   0  0  0  0  0  0  0  0  0  0  0  0
   -1.4727   21.2534  -28.0748 H   0  0  0  0  0  0  0  0  0  0  0  0
   -1.0370   23.1310  -24.8880 H   0  0  0  0  0  0  0  0  0  0  0  0
   -1.7663   24.6396  -24.7065 H   0  0  0  0  0  0  0  0  0  0  0  0
   -1.4011   26.6248  -23.2384 H   0  0  0  0  0  0  0  0  0  0  0  0
   -0.4424   28.7247  -24.1893 H   0  0  0  0  0  0  0  0  0  0  0  0
    0.1570   28.8416  -26.6097 H   0  0  0  0  0  0  0  0  0  0  0  0
   -0.2061   26.8615  -28.0850 H   0  0  0  0  0  0  0  0  0  0  0  0
   -3.2984   20.4023  -30.7821 H   0  0  0  0  0  0  0  0  0  0  0  0
   -5.6817   19.9512  -31.3567 H   0  0  0  0  0  0  0  0  0  0  0  0
   -6.8484   19.8273  -34.5628 H   0  0  0  0  0  0  0  0  0  0  0  0
   -6.0339   20.5933  -33.1241 H   0  0  0  0  0  0  0  0  0  0  0  0
   -6.9756   17.7627  -33.5258 H   0  0  0  0  0  0  0  0  0  0  0  0
   -5.4825   18.4024  -32.7406 H   0  0  0  0  0  0  0  0  0  0  0  0
   -8.8570   17.4066  -32.1763 H   0  0  0  0  0  0  0  0  0  0  0  0
   -9.0239   18.5365  -30.7521 H   0  0  0  0  0  0  0  0  0  0  0  0
   -9.5071   19.0306  -33.5947 H   0  0  0  0  0  0  0  0  0  0  0  0
   -9.9320   20.0128  -32.1176 H   0  0  0  0  0  0  0  0  0  0  0  0
  1  2  2  0
  2  3  2  0
  2  4  1  0
  4  5  2  0
  5  6  1  0
  6  7  2  0
  7  8  1  0
  8  9  1  0
  9 10  1  0
 10 11  2  0
 11 12  1  0
 11 13  1  0
 13 14  1  0
 14 15  2  0
 15 16  1  0
 16 17  2  0
 17 18  1  0
 18 19  2  0
 13 20  1  0
 20 21  1  0
  7 22  1  0
 22 23  2  0
  2 24  1  0
 24 25  1  0
 25 26  1  0
 26 27  1  0
 27 28  1  0
 28 29  1  0
 23  4  1  0
 29 24  1  0
 20  9  2  0
 19 14  1  0
  5 30  1  0
  6 31  1  0
  8 32  1  0
 10 33  1  0
 12 34  1  0
 15 35  1  0
 16 36  1  0
 17 37  1  0
 18 38  1  0
 19 39  1  0
 22 40  1  0
 23 41  1  0
 25 42  1  0
 25 43  1  0
 26 44  1  0
 26 45  1  0
 28 46  1  0
 28 47  1  0
 29 48  1  0
 29 49  1  0
M  CHG  1  21  -1
M  END
>  <UniqueID>  (6) 
6

>  <SMILES>  (6) 
O=S(=O)(c1ccc(Nc2cc(O)n(-c3ccccc3)c2[O-])cc1)N1CCOCC1

>  <Energy>  (6) 
102.46546701622785

>  <Genealogy>  (6) 
O=S(=O)(c1ccc(Nc2cc(O)n(-c3ccccc3)c2[O-])cc1)N1CCOCC1 (protonated)
O=S(=O)(c1ccc(Nc2cc(O)n(-c3ccccc3)c2[O-])cc1)N1CCOCC1 (3D coordinates assigned)
O=S(=O)(c1ccc(Nc2cc(O)n(-c3ccccc3)c2[O-])cc1)N1CCOCC1 (nonaromatic ring conformer: 102.46546701622785 kcal/mol)

>  <smiles>  (6) 
O=S(=O)(c1ccc(Nc2cc(O)n(-c3ccccc3)c2O)cc1)N1CCOCC1

>  <score_type>  (6) 
oracle

>  <origin>  (6) 
adgpu

>  <m_score__min__energy>  (6) 
-11.67

>  <m_primary>  (6) 
energy

$$$$
6:0
     RDKit          3D

 49 52  0  0  0  0  0  0  0  0999 V2000
    0.7970   20.0370  -28.7400 C   0  0  0  0  0  0  0  0  0  0  0  0
   -0.5120   20.1970  -28.1130 N   0  0  0  0  0  0  0  0  0  0  0  0
   -1.2090   19.2730  -27.4050 C   0  0  0  0  0  0  0  0  0  0  0  0
   -0.7580   18.1290  -27.1180 O   0  0  0  0  0  0  0  0  0  0  0  0
   -2.4470   19.6980  -27.0480 N   0  0  0  0  0  0  0  0  0  0  0  0
   -3.4930   18.9330  -26.3750 C   0  0  0  0  0  0  0  0  0  0  0  0
   -2.5410   20.9290  -27.5980 C   0  0  0  0  0  0  0  0  0  0  0  0
   -3.6270   21.8030  -27.5940 C   0  0  0  0  0  0  0  0  0  0  0  0
   -3.4950   23.0350  -28.2750 C   0  0  0  0  0  0  0  0  0  0  0  0
   -4.6040   23.9530  -28.2780 N   0  0  0  0  0  0  0  0  0  0  0  0
   -5.0680   24.6470  -29.4810 C   0  0  0  0  0  0  0  0  0  0  0  0
   -5.1550   23.6930  -30.6470 C   0  0  0  0  0  0  0  0  0  0  0  0
   -4.3250   23.7810  -31.5440 O   0  0  0  0  0  0  0  0  0  0  0  0
   -6.2000   22.6880  -30.7200 N   0  0  1  0  0  0  0  0  0  0  0  0
   -7.5440   23.3360  -30.8780 C   0  0  0  0  0  0  0  0  0  0  0  0
   -8.4650   22.6830  -31.9320 C   0  0  0  0  0  0  0  0  0  0  0  0
   -8.2730   21.1960  -31.9880 C   0  0  0  0  0  0  0  0  0  0  0  0
   -9.3470   20.3190  -32.1940 C   0  0  0  0  0  0  0  0  0  0  0  0
   -9.1100   18.9470  -32.3270 C   0  0  0  0  0  0  0  0  0  0  0  0
   -7.8040   18.4520  -32.2670 C   0  0  0  0  0  0  0  0  0  0  0  0
   -6.7300   19.3270  -32.0730 C   0  0  0  0  0  0  0  0  0  0  0  0
   -6.9670   20.7030  -31.9280 C   0  0  0  0  0  0  0  0  0  0  0  0
   -5.8530   21.6960  -31.7630 C   0  0  0  0  0  0  0  0  0  0  0  0
   -2.2730   23.3380  -28.9440 C   0  0  0  0  0  0  0  0  0  0  0  0
   -1.2020   22.4250  -28.9360 C   0  0  0  0  0  0  0  0  0  0  0  0
   -1.3730   21.2270  -28.2440 C   0  0  0  0  0  0  0  0  0  0  0  0
    1.5677   19.9428  -27.9608 H   0  0  0  0  0  0  0  0  0  0  0  0
    0.7957   19.1323  -29.3658 H   0  0  0  0  0  0  0  0  0  0  0  0
    1.0137   20.9153  -29.3658 H   0  0  0  0  0  0  0  0  0  0  0  0
   -3.3698   19.0231  -25.2856 H   0  0  0  0  0  0  0  0  0  0  0  0
   -4.4788   19.3248  -26.6662 H   0  0  0  0  0  0  0  0  0  0  0  0
   -3.4184   17.8749  -26.6662 H   0  0  0  0  0  0  0  0  0  0  0  0
   -4.5610   21.5413  -27.0752 H   0  0  0  0  0  0  0  0  0  0  0  0
   -5.1030   24.1210  -27.3730 H   0  0  0  0  0  0  0  0  0  0  0  0
   -6.0630   25.0752  -29.2897 H   0  0  0  0  0  0  0  0  0  0  0  0
   -4.3509   25.4436  -29.7285 H   0  0  0  0  0  0  0  0  0  0  0  0
   -6.2190   22.1640  -29.8120 H   0  0  0  0  0  0  0  0  0  0  0  0
   -8.0574   23.2977  -29.9059 H   0  0  0  0  0  0  0  0  0  0  0  0
   -7.3514   24.3599  -31.2309 H   0  0  0  0  0  0  0  0  0  0  0  0
   -9.5123   22.8982  -31.6733 H   0  0  0  0  0  0  0  0  0  0  0  0
   -8.2100   23.1001  -32.9174 H   0  0  0  0  0  0  0  0  0  0  0  0
  -10.3740   20.7090  -32.2509 H   0  0  0  0  0  0  0  0  0  0  0  0
   -9.9526   18.2564  -32.4791 H   0  0  0  0  0  0  0  0  0  0  0  0
   -7.6206   17.3725  -32.3725 H   0  0  0  0  0  0  0  0  0  0  0  0
   -5.7019   18.9377  -32.0342 H   0  0  0  0  0  0  0  0  0  0  0  0
   -4.9350   21.1661  -31.4689 H   0  0  0  0  0  0  0  0  0  0  0  0
   -5.6960   22.2199  -32.7174 H   0  0  0  0  0  0  0  0  0  0  0  0
   -2.1660   24.2967  -29.4727 H   0  0  0  0  0  0  0  0  0  0  0  0
   -0.2606   22.6494  -29.4588 H   0  0  0  0  0  0  0  0  0  0  0  0
  1  2  1  0
  2  3  1  0
  3  4  2  0
  3  5  1  0
  5  6  1  0
  5  7  1  0
  7  8  2  0
  8  9  1  0
  9 10  1  0
 10 11  1  0
 11 12  1  0
 12 13  2  0
 12 14  1  0
 14 15  1  0
 15 16  1  0
 16 17  1  0
 17 18  2  0
 18 19  1  0
 19 20  2  0
 20 21  1  0
 21 22  2  0
 22 23  1  0
  9 24  2  0
 24 25  1  0
 25 26  2  0
 26  2  1  0
 26  7  1  0
 23 14  1  0
 22 17  1  0
  1 27  1  0
  1 28  1  0
  1 29  1  0
  6 30  1  0
  6 31  1  0
  6 32  1  0
  8 33  1  0
 10 34  1  0
 11 35  1  0
 11 36  1  0
 14 37  1  1
 15 38  1  0
 15 39  1  0
 16 40  1  0
 16 41  1  0
 18 42  1  0
 19 43  1  0
 20 44  1  0
 21 45  1  0
 23 46  1  0
 23 47  1  0
 24 48  1  0
 25 49  1  0
M  CHG  1  14   1
M  END
>  <UniqueID>  (7) 
7

>  <SMILES>  (7) 
Cn1c(=O)n(C)c2cc(NCC(=O)[N@H+]3CCc4ccccc4C3)ccc21

>  <Energy>  (7) 
102.99004399173592

>  <Genealogy>  (7) 
Cn1c(=O)n(C)c2cc(NCC(=O)[NH+]3CCc4ccccc4C3)ccc21 (protonated)
Cn1c(=O)n(C)c2cc(NCC(=O)[N@H+]3CCc4ccccc4C3)ccc21 (chirality)
Cn1c(=O)n(C)c2cc(NCC(=O)[N@H+]3CCc4ccccc4C3)ccc21 (3D coordinates assigned)
Cn1c(=O)n(C)c2cc(NCC(=O)[N@H+]3CCc4ccccc4C3)ccc21 (nonaromatic ring conformer: 102.99004399173592 kcal/mol)

>  <smiles>  (7) 
Cn1c(=O)n(C)c2cc(NCC(=O)N3CCc4ccccc4C3)ccc21

>  <score_type>  (7) 
oracle

>  <origin>  (7) 
adgpu

>  <m_score__min__energy>  (7) 
-8.4000000000000004

>  <m_primary>  (7) 
energy

$$$$
7:0
     RDKit          3D

 59 62  0  0  1  0  0  0  0  0999 V2000
   -4.9530   23.9890  -30.7550 C   0  0  0  0  0  0  0  0  0  0  0  0
   -3.6120   23.6870  -31.1070 O   0  0  0  0  0  0  0  0  0  0  0  0
   -3.2230   22.4000  -31.4800 C   0  0  0  0  0  0  0  0  0  0  0  0
   -4.1360   21.5890  -32.1220 C   0  0  0  0  0  0  0  0  0  0  0  0
   -3.8160   20.2880  -32.5260 C   0  0  0  0  0  0  0  0  0  0  0  0
   -4.7790   19.4820  -33.1820 N   0  0  0  0  0  0  0  0  0  0  0  0
   -4.5250   18.6970  -34.3630 C   0  0  0  0  0  0  0  0  0  0  0  0
   -4.9410   17.2480  -34.1410 C   0  0  0  0  0  0  0  0  0  0  0  0
   -6.1460   17.1080  -33.3830 N   0  0  0  0  0  0  0  0  0  0  0  0
   -6.9470   16.0350  -33.8870 C   0  0  0  0  0  0  0  0  0  0  0  0
   -6.9190   18.3060  -33.2760 C   0  0  0  0  0  0  0  0  0  0  0  0
   -6.1310   19.4330  -32.6350 C   0  0  0  0  0  0  0  0  0  0  0  0
   -2.5340   19.8760  -32.2400 C   0  0  0  0  0  0  0  0  0  0  0  0
   -1.6060   20.6800  -31.5970 C   0  0  0  0  0  0  0  0  0  0  0  0
   -1.9440   21.9590  -31.2080 C   0  0  0  0  0  0  0  0  0  0  0  0
   -1.0440   22.8380  -30.5450 N   0  0  0  0  0  0  0  0  0  0  0  0
   -1.2880   23.4270  -29.4250 C   0  0  0  0  0  0  0  0  0  0  0  0
   -2.4700   23.2080  -28.8200 N   0  0  0  0  0  0  0  0  0  0  0  0
   -2.7960   23.7850  -27.6490 C   0  0  0  0  0  0  0  0  0  0  0  0
   -1.8410   24.6240  -27.0940 C   0  0  0  0  0  0  0  0  0  0  0  0
   -2.1360   25.2140  -25.9290 F   0  0  0  0  0  0  0  0  0  0  0  0
   -0.6300   24.8470  -27.7140 C   0  0  0  0  0  0  0  0  0  0  0  0
    0.2620   25.6280  -27.2020 N   0  0  0  0  0  0  0  0  0  0  0  0
    0.0040   26.2810  -25.9650 C   0  0  0  0  0  0  0  0  0  0  0  0
    0.0960   25.5400  -24.7930 C   0  0  0  0  0  0  0  0  0  0  0  0
   -0.1570   26.1800  -23.5810 C   0  0  0  0  0  0  0  0  0  0  0  0
   -0.4910   27.5210  -23.5690 C   0  0  0  0  0  0  0  0  0  0  0  0
   -0.5810   28.2500  -24.7560 C   0  0  0  0  0  0  0  0  0  0  0  0
   -0.3290   27.6210  -25.9640 C   0  0  0  0  0  0  0  0  0  0  0  0
   -0.4570   28.5920  -27.4460 S   0  0  0  0  0  0  0  0  0  0  0  0
   -0.4170   30.3430  -27.0040 C   0  0  0  0  0  0  0  0  0  0  0  0
   -0.3510   24.2450  -28.8870 N   0  0  0  0  0  0  0  0  0  0  0  0
   -5.0485   24.0105  -29.6594 H   0  0  0  0  0  0  0  0  0  0  0  0
   -5.2277   24.9715  -31.1664 H   0  0  0  0  0  0  0  0  0  0  0  0
   -5.6223   23.2191  -31.1664 H   0  0  0  0  0  0  0  0  0  0  0  0
   -5.1457   21.9767  -32.3223 H   0  0  0  0  0  0  0  0  0  0  0  0
   -5.0983   19.1133  -35.2044 H   0  0  0  0  0  0  0  0  0  0  0  0
   -3.4482   18.7276  -34.5855 H   0  0  0  0  0  0  0  0  0  0  0  0
   -5.0907   16.7748  -35.1227 H   0  0  0  0  0  0  0  0  0  0  0  0
   -4.1384   16.7669  -33.5628 H   0  0  0  0  0  0  0  0  0  0  0  0
   -7.3708   15.4673  -33.0456 H   0  0  0  0  0  0  0  0  0  0  0  0
   -7.7627   16.4437  -34.5015 H   0  0  0  0  0  0  0  0  0  0  0  0
   -6.3233   15.3691  -34.5015 H   0  0  0  0  0  0  0  0  0  0  0  0
   -7.2314   18.6187  -34.2833 H   0  0  0  0  0  0  0  0  0  0  0  0
   -7.7899   18.0937  -32.6385 H   0  0  0  0  0  0  0  0  0  0  0  0
   -6.6377   20.3888  -32.8342 H   0  0  0  0  0  0  0  0  0  0  0  0
   -6.0717   19.2561  -31.5509 H   0  0  0  0  0  0  0  0  0  0  0  0
   -2.2318   18.8605  -32.5358 H   0  0  0  0  0  0  0  0  0  0  0  0
   -0.5950   20.2959  -31.3960 H   0  0  0  0  0  0  0  0  0  0  0  0
   -3.1650   22.5800  -29.2500 H   0  0  0  0  0  0  0  0  0  0  0  0
   -3.7641   23.6019  -27.1600 H   0  0  0  0  0  0  0  0  0  0  0  0
    0.3623   24.4731  -24.8212 H   0  0  0  0  0  0  0  0  0  0  0  0
   -0.0910   25.6194  -22.6368 H   0  0  0  0  0  0  0  0  0  0  0  0
   -0.6889   28.0214  -22.6096 H   0  0  0  0  0  0  0  0  0  0  0  0
   -0.8501   29.3163  -24.7322 H   0  0  0  0  0  0  0  0  0  0  0  0
   -0.4147   30.4447  -25.9087 H   0  0  0  0  0  0  0  0  0  0  0  0
    0.4919   30.8048  -27.4171 H   0  0  0  0  0  0  0  0  0  0  0  0
   -1.3039   30.8458  -27.4171 H   0  0  0  0  0  0  0  0  0  0  0  0
    0.5500   24.3770  -29.4030 H   0  0  0  0  0  0  0  0  0  0  0  0
  1  2  1  0
  2  3  1  0
  3  4  2  0
  4  5  1  0
  5  6  1  0
  6  7  1  0
  7  8  1  0
  8  9  1  0
  9 10  1  0
  9 11  1  0
 11 12  1  0
  5 13  2  0
 13 14  1  0
 14 15  2  0
 15 16  1  0
 16 17  2  0
 17 18  1  0
 18 19  1  0
 19 20  2  0
 20 21  1  0
 20 22  1  0
 22 23  2  0
 23 24  1  0
 24 25  2  0
 25 26  1  0
 26 27  2  0
 27 28  1  0
 28 29  2  0
 29 30  1  0
 30 31  1  0
 22 32  1  0
 15  3  1  0
 32 17  1  0
 12  6  1  0
 29 24  1  0
  1 33  1  0
  1 34  1  0
  1 35  1  0
  4 36  1  0
  7 37  1  0
  7 38  1  0
  8 39  1  0
  8 40  1  0
 10 41  1  0
 10 42  1  0
 10 43  1  0
 11 44  1  0
 11 45  1  0
 12 46  1  0
 12 47  1  0
 13 48  1  0
 14 49  1  0
 18 50  1  0
 19 51  1  0
 25 52  1  0
 26 53  1  0
 27 54  1  0
 28 55  1  0
 31 56  1  0
 31 57  1  0
 31 58  1  0
 32 59  1  0
M  END
>  <smiles>  (8) 
COc1cc(N2CCN(C)CC2)ccc1N=c1[nH]cc(F)c(=Nc2ccccc2SC)[nH]1

>  <score_type>  (8) 
oracle

>  <origin>  (8) 
adgpu

>  <m_score__min__energy>  (8) 
-9.2300000000000004

>  <m_primary>  (8) 
energy

$$$$
8:0
     RDKit          3D

 44 46  0  0  0  0  0  0  0  0999 V2000
   -7.7850   20.3390  -32.2990 H   0  0  0  0  0  0  0  0  0  0  0  0
   -8.7370   20.5440  -32.1090 O   0  0  0  0  0  0  0  0  0  0  0  0
   -8.8200   21.9300  -31.9170 C   0  0  0  0  0  0  0  0  0  0  0  0
   -9.8618   22.2519  -32.0617 H   0  0  0  0  0  0  0  0  0  0  0  0
   -8.1602   22.4258  -32.6443 H   0  0  0  0  0  0  0  0  0  0  0  0
   -8.3680   22.3140  -30.5050 C   0  0  0  0  0  0  0  0  0  0  0  0
   -8.2131   21.3974  -29.9169 H   0  0  0  0  0  0  0  0  0  0  0  0
   -9.1482   22.9419  -30.0501 H   0  0  0  0  0  0  0  0  0  0  0  0
   -7.0790   23.1030  -30.5350 C   0  0  0  0  0  0  0  0  0  0  0  0
   -7.0150   24.3440  -29.8790 C   0  0  0  0  0  0  0  0  0  0  0  0
   -7.9070   24.7388  -29.3706 H   0  0  0  0  0  0  0  0  0  0  0  0
   -5.8290   25.0800  -29.8670 C   0  0  0  0  0  0  0  0  0  0  0  0
   -5.7947   26.0581  -29.3648 H   0  0  0  0  0  0  0  0  0  0  0  0
   -4.6870   24.5770  -30.4910 C   0  0  0  0  0  0  0  0  0  0  0  0
   -3.5020   25.3010  -30.4590 O   0  0  0  0  0  0  0  0  0  0  0  0
   -4.7320   23.3400  -31.1400 C   0  0  0  0  0  0  0  0  0  0  0  0
   -3.8251   22.9407  -31.6176 H   0  0  0  0  0  0  0  0  0  0  0  0
   -5.9300   22.6010  -31.1870 C   0  0  0  0  0  0  0  0  0  0  0  0
   -5.9780   21.3040  -31.8100 N   0  0  0  0  0  0  0  0  0  0  0  0
   -5.0010   20.6900  -32.4170 C   0  0  0  0  0  0  0  0  0  0  0  0
   -3.7980   21.2950  -32.5980 N   0  0  0  0  0  0  0  0  0  0  0  0
   -2.7950   20.6610  -33.2510 C   0  0  0  0  0  0  0  0  0  0  0  0
   -1.4610   21.3150  -33.3900 C   0  0  0  0  0  0  0  0  0  0  0  0
   -1.0465   21.5182  -32.3916 H   0  0  0  0  0  0  0  0  0  0  0  0
   -0.7812   20.6480  -33.9404 H   0  0  0  0  0  0  0  0  0  0  0  0
   -1.5719   22.2609  -33.9404 H   0  0  0  0  0  0  0  0  0  0  0  0
   -2.9910   19.4050  -33.7210 N   0  0  0  0  0  0  0  0  0  0  0  0
   -4.1680   18.7810  -33.5920 N   0  0  0  0  0  0  0  0  0  0  0  0
   -4.3040   17.4000  -34.0970 C   0  0  1  0  0  0  0  0  0  0  0  0
   -5.3163   17.2229  -34.4893 H   0  0  0  0  0  0  0  0  0  0  0  0
   -3.4050   17.1630  -35.3250 C   0  0  0  0  0  0  0  0  0  0  0  0
   -2.3915   16.8958  -34.9913 H   0  0  0  0  0  0  0  0  0  0  0  0
   -3.8197   16.3435  -35.9303 H   0  0  0  0  0  0  0  0  0  0  0  0
   -3.3618   18.0804  -35.9303 H   0  0  0  0  0  0  0  0  0  0  0  0
   -4.1440   16.3990  -32.9220 C   0  0  0  0  0  0  0  0  0  0  0  0
   -3.0976   16.6963  -32.7589 H   0  0  0  0  0  0  0  0  0  0  0  0
   -4.9320   15.1000  -33.0420 C   0  0  0  0  0  0  0  0  0  0  0  0
   -5.5960   14.9377  -33.9038 H   0  0  0  0  0  0  0  0  0  0  0  0
   -4.6725   14.0310  -33.0397 H   0  0  0  0  0  0  0  0  0  0  0  0
   -5.3070   16.1160  -31.9750 C   0  0  0  0  0  0  0  0  0  0  0  0
   -6.2417   16.6888  -32.0654 H   0  0  0  0  0  0  0  0  0  0  0  0
   -5.4306   16.0865  -30.8824 H   0  0  0  0  0  0  0  0  0  0  0  0
   -5.1970   19.4000  -32.9300 C   0  0  0  0  0  0  0  0  0  0  0  0
   -6.3060   18.8190  -32.7700 O   0  0  0  0  0  0  0  0  0  0  0  0
  1  2  1  0
  2  3  1  0
  3  4  1  0
  3  5  1  0
  3  6  1  0
  6  7  1  0
  6  8  1  0
  6  9  1  0
  9 10  2  0
 10 11  1  0
 10 12  1  0
 12 13  1  0
 12 14  2  0
 14 15  1  0
 14 16  1  0
 16 17  1  0
 16 18  2  0
 18 19  1  0
 19 20  2  0
 20 21  1  0
 21 22  2  0
 22 23  1  0
 23 24  1  0
 23 25  1  0
 23 26  1  0
 22 27  1  0
 27 28  1  0
 28 29  1  0
 29 30  1  6
 29 31  1  0
 31 32  1  0
 31 33  1  0
 31 34  1  0
 29 35  1  0
 35 36  1  0
 35 37  1  0
 37 38  1  0
 37 39  1  0
 37 40  1  0
 40 41  1  0
 40 42  1  0
 28 43  1  0
 43 44  2  0
 18  9  1  0
 43 20  1  0
 40 35  1  0
M  CHG  2  15  -1  27  -1
M  END
>  <UniqueID>  (9) 
8

>  <SMILES>  (9) 
Cc1n/c(=N\c2cc([O-])ccc2CCO)c(=O)n([C@@H](C)C2CC2)[n-]1

>  <Energy>  (9) 
318.0525627241537

>  <Genealogy>  (9) 
Cc1nc(=Nc2cc([O-])ccc2CCO)c(=O)n(C(C)C2CC2)[n-]1 (protonated)
Cc1nc(=Nc2cc([O-])ccc2CCO)c(=O)n([C@@H](C)C2CC2)[n-]1 (chirality)
Cc1n/c(=N\c2cc([O-])ccc2CCO)c(=O)n([C@@H](C)C2CC2)[n-]1 (cis-trans isomerization)
Cc1n/c(=N\c2cc([O-])ccc2CCO)c(=O)n([C@@H](C)C2CC2)[n-]1 (3D coordinates assigned)
Cc1n/c(=N\c2cc([O-])ccc2CCO)c(=O)n([C@@H](C)C2CC2)[n-]1 (nonaromatic ring conformer: 318.0525627241537 kcal/mol)

>  <smiles>  (9) 
Cc1nc(=Nc2cc(O)ccc2CCO)c(=O)n(C(C)C2CC2)[nH]1

>  <score_type>  (9) 
oracle

>  <origin>  (9) 
adgpu

>  <m_score__min__energy>  (9) 
-10.26

>  <m_primary>  (9) 
energy

$$$$
9:0
     RDKit          3D

 45 48  0  0  0  0  0  0  0  0999 V2000
   -9.1250   18.8850  -31.5870 C   0  0  0  0  0  0  0  0  0  0  0  0
   -8.0150   19.8140  -31.9640 C   0  0  0  0  0  0  0  0  0  0  0  0
   -7.9760   21.0890  -31.4760 N   0  0  0  0  0  0  0  0  0  0  0  0
   -6.9950   21.9530  -31.7940 N   0  0  0  0  0  0  0  0  0  0  0  0
   -7.0240   23.2900  -31.1940 C   0  0  0  0  0  0  0  0  0  0  0  0
   -5.6400   23.7080  -30.8060 C   0  0  0  0  0  0  0  0  0  0  0  0
   -5.1240   24.7280  -31.3390 O   0  0  0  0  0  0  0  0  0  0  0  0
   -4.9430   22.9760  -29.7920 N   0  0  0  0  0  0  0  0  0  0  0  0
   -3.7680   23.4010  -29.0860 C   0  0  0  0  0  0  0  0  0  0  0  0
   -3.3350   22.7670  -27.9050 C   0  0  0  0  0  0  0  0  0  0  0  0
   -2.1980   23.2280  -27.2350 C   0  0  0  0  0  0  0  0  0  0  0  0
   -1.4930   24.3290  -27.7270 C   0  0  0  0  0  0  0  0  0  0  0  0
   -1.9310   24.9790  -28.8850 C   0  0  0  0  0  0  0  0  0  0  0  0
   -1.2380   26.0850  -29.3670 O   0  0  0  0  0  0  0  0  0  0  0  0
   -3.0700   24.5210  -29.5560 C   0  0  0  0  0  0  0  0  0  0  0  0
   -5.9670   21.5700  -32.6270 C   0  0  0  0  0  0  0  0  0  0  0  0
   -5.0300   22.3610  -32.9240 O   0  0  0  0  0  0  0  0  0  0  0  0
   -5.9880   20.2770  -33.1310 C   0  0  0  0  0  0  0  0  0  0  0  0
   -5.1100   19.6860  -33.9540 N   0  0  0  0  0  0  0  0  0  0  0  0
   -5.6370   18.4400  -34.0910 C   0  0  0  0  0  0  0  0  0  0  0  0
   -5.0330   17.4030  -34.9820 C   0  0  0  0  0  0  0  0  0  0  0  0
   -4.8220   16.1290  -34.2150 C   0  0  0  0  0  0  0  0  0  0  0  0
   -5.8190   15.1380  -34.2010 C   0  0  0  0  0  0  0  0  0  0  0  0
   -5.6380   13.9680  -33.4570 C   0  0  0  0  0  0  0  0  0  0  0  0
   -4.4680   13.7820  -32.7130 C   0  0  0  0  0  0  0  0  0  0  0  0
   -4.2910   12.6180  -31.9750 O   0  0  0  0  0  0  0  0  0  0  0  0
   -3.4780   14.7700  -32.7110 C   0  0  0  0  0  0  0  0  0  0  0  0
   -3.6550   15.9420  -33.4550 C   0  0  0  0  0  0  0  0  0  0  0  0
   -6.7970   18.2370  -33.4110 N   0  0  0  0  0  0  0  0  0  0  0  0
   -6.9840   19.4210  -32.8090 C   0  0  0  0  0  0  0  0  0  0  0  0
   -9.1966   18.8250  -30.4910 H   0  0  0  0  0  0  0  0  0  0  0  0
  -10.0738   19.2621  -31.9964 H   0  0  0  0  0  0  0  0  0  0  0  0
   -8.9209   17.8846  -31.9964 H   0  0  0  0  0  0  0  0  0  0  0  0
   -7.4303   24.0072  -31.9224 H   0  0  0  0  0  0  0  0  0  0  0  0
   -7.6594   23.2689  -30.2964 H   0  0  0  0  0  0  0  0  0  0  0  0
   -3.8935   21.9062  -27.5086 H   0  0  0  0  0  0  0  0  0  0  0  0
   -1.8579   22.7229  -26.3189 H   0  0  0  0  0  0  0  0  0  0  0  0
   -0.5933   24.6847  -27.2035 H   0  0  0  0  0  0  0  0  0  0  0  0
   -3.4197   25.0437  -30.4585 H   0  0  0  0  0  0  0  0  0  0  0  0
   -5.7087   17.2113  -35.8285 H   0  0  0  0  0  0  0  0  0  0  0  0
   -4.0637   17.7660  -35.3543 H   0  0  0  0  0  0  0  0  0  0  0  0
   -6.7446   15.2835  -34.7773 H   0  0  0  0  0  0  0  0  0  0  0  0
   -6.4175   13.1919  -33.4567 H   0  0  0  0  0  0  0  0  0  0  0  0
   -2.5591   14.6256  -32.1239 H   0  0  0  0  0  0  0  0  0  0  0  0
   -2.8774   16.7200  -33.4448 H   0  0  0  0  0  0  0  0  0  0  0  0
  1  2  1  0
  2  3  2  0
  3  4  1  0
  4  5  1  0
  5  6  1  0
  6  7  2  0
  6  8  1  0
  8  9  1  0
  9 10  2  0
 10 11  1  0
 11 12  2  0
 12 13  1  0
 13 14  1  0
 13 15  2  0
  4 16  1  0
 16 17  2  0
 16 18  1  0
 18 19  1  0
 19 20  1  0
 20 21  1  0
 21 22  1  0
 22 23  2  0
 23 24  1  0
 24 25  2  0
 25 26  1  0
 25 27  1  0
 27 28  2  0
 20 29  2  0
 29 30  1  0
 30  2  1  0
 15  9  1  0
 30 18  2  0
 28 22  1  0
  1 31  1  0
  1 32  1  0
  1 33  1  0
  5 34  1  0
  5 35  1  0
 10 36  1  0
 11 37  1  0
 12 38  1  0
 15 39  1  0
 21 40  1  0
 21 41  1  0
 23 42  1  0
 24 43  1  0
 27 44  1  0
 28 45  1  0
M  CHG  4   8  -1  14  -1  19  -1  26  -1
M  END
>  <UniqueID>  (10) 
9

>  <SMILES>  (10) 
Cc1nn(CC(=O)[N-]c2cccc([O-])c2)c(=O)c2[n-]c(Cc3ccc([O-])cc3)nc12

>  <Energy>  (10) 
86.05633733987229

>  <Genealogy>  (10) 
Cc1nn(CC(=O)[N-]c2cccc([O-])c2)c(=O)c2[n-]c(Cc3ccc([O-])cc3)nc12 (protonated)
Cc1nn(CC(=O)[N-]c2cccc([O-])c2)c(=O)c2[n-]c(Cc3ccc([O-])cc3)nc12 (3D coordinates assigned)
Cc1nn(CC(=O)[N-]c2cccc([O-])c2)c(=O)c2[n-]c(Cc3ccc([O-])cc3)nc12 (optimized conformer: 86.05633733987229 kcal/mol)

>  <smiles>  (10) 
Cc1nn(CC(=O)Nc2cccc(O)c2)c(=O)c2[nH]c(Cc3ccc(O)cc3)nc12

>  <score_type>  (10) 
oracle

>  <origin>  (10) 
adgpu

>  <m_score__min__energy>  (10) 
-12.34

>  <m_primary>  (10) 
energy

$$$$
10:0
     RDKit          3D

 36 38  0  0  0  0  0  0  0  0999 V2000
   -7.8240   22.3000  -32.2410 O   0  0  0  0  0  0  0  0  0  0  0  0
   -7.3280   21.1510  -32.0920 C   0  0  0  0  0  0  0  0  0  0  0  0
   -8.1020   19.9530  -32.5630 C   0  0  0  0  0  0  0  0  0  0  0  0
   -7.2670   19.0360  -33.4670 C   0  0  0  0  0  0  0  0  0  0  0  0
   -6.2860   17.8460  -32.5510 S   0  0  0  0  0  0  0  0  0  0  0  0
   -6.8620   16.4760  -32.7660 O   0  0  0  0  0  0  0  0  0  0  0  0
   -6.3550   18.1720  -31.0850 O   0  0  0  0  0  0  0  0  0  0  0  0
   -4.5990   17.8710  -33.0610 C   0  0  0  0  0  0  0  0  0  0  0  0
   -3.8340   16.6850  -33.1400 C   0  0  0  0  0  0  0  0  0  0  0  0
   -2.4870   16.7260  -33.5710 C   0  0  0  0  0  0  0  0  0  0  0  0
   -1.8870   17.9510  -33.9220 C   0  0  0  0  0  0  0  0  0  0  0  0
   -2.6690   19.0960  -33.8220 C   0  0  0  0  0  0  0  0  0  0  0  0
   -2.3420   20.3680  -34.0920 N   0  0  0  0  0  0  0  0  0  0  0  0
   -3.4350   21.0450  -33.8360 O   0  0  0  0  0  0  0  0  0  0  0  0
   -4.4410   20.3130  -33.4230 N   0  0  0  0  0  0  0  0  0  0  0  0
   -3.9600   19.0610  -33.4110 C   0  0  0  0  0  0  0  0  0  0  0  0
   -6.0200   20.9830  -31.5200 N   0  0  0  0  0  0  0  0  0  0  0  0
   -5.2030   22.0650  -31.0420 C   0  0  0  0  0  0  0  0  0  0  0  0
   -3.8230   21.9020  -30.8250 C   0  0  0  0  0  0  0  0  0  0  0  0
   -3.0470   22.9780  -30.3780 C   0  0  0  0  0  0  0  0  0  0  0  0
   -1.3260   22.7460  -30.1090 Cl  0  0  0  0  0  0  0  0  0  0  0  0
   -3.6390   24.2290  -30.1610 C   0  0  0  0  0  0  0  0  0  0  0  0
   -2.8680   25.2980  -29.7140 O   0  0  0  0  0  0  0  0  0  0  0  0
   -5.0080   24.4030  -30.4000 C   0  0  0  0  0  0  0  0  0  0  0  0
   -5.7690   25.9660  -30.1450 Cl  0  0  0  0  0  0  0  0  0  0  0  0
   -5.7820   23.3270  -30.8470 C   0  0  0  0  0  0  0  0  0  0  0  0
   -8.4323   19.3782  -31.6852 H   0  0  0  0  0  0  0  0  0  0  0  0
   -8.9572   20.3163  -33.1517 H   0  0  0  0  0  0  0  0  0  0  0  0
   -7.9484   18.4879  -34.1343 H   0  0  0  0  0  0  0  0  0  0  0  0
   -6.5680   19.6755  -34.0259 H   0  0  0  0  0  0  0  0  0  0  0  0
   -4.2896   15.7225  -32.8642 H   0  0  0  0  0  0  0  0  0  0  0  0
   -1.9045   15.7949  -33.6324 H   0  0  0  0  0  0  0  0  0  0  0  0
   -0.8419   17.9997  -34.2615 H   0  0  0  0  0  0  0  0  0  0  0  0
   -5.5870   20.0330  -31.5620 H   0  0  0  0  0  0  0  0  0  0  0  0
   -3.3515   20.9250  -31.0073 H   0  0  0  0  0  0  0  0  0  0  0  0
   -6.8538   23.4721  -31.0472 H   0  0  0  0  0  0  0  0  0  0  0  0
  1  2  2  0
  2  3  1  0
  3  4  1  0
  4  5  1  0
  5  6  2  0
  5  7  2  0
  5  8  1  0
  8  9  2  0
  9 10  1  0
 10 11  2  0
 11 12  1  0
 12 13  2  0
 13 14  1  0
 14 15  1  0
 15 16  2  0
  2 17  1  0
 17 18  1  0
 18 19  2  0
 19 20  1  0
 20 21  1  0
 20 22  2  0
 22 23  1  0
 22 24  1  0
 24 25  1  0
 24 26  2  0
 16  8  1  0
 26 18  1  0
 16 12  1  0
  3 27  1  0
  3 28  1  0
  4 29  1  0
  4 30  1  0
  9 31  1  0
 10 32  1  0
 11 33  1  0
 17 34  1  0
 19 35  1  0
 26 36  1  0
M  CHG  1  23  -1
M  END
>  <UniqueID>  (11) 
10

>  <SMILES>  (11) 
O=C(CCS(=O)(=O)c1cccc2nonc12)Nc1cc(Cl)c([O-])c(Cl)c1

>  <Energy>  (11) 
78.96656822806335

>  <Genealogy>  (11) 
O=C(CCS(=O)(=O)c1cccc2nonc12)Nc1cc(Cl)c([O-])c(Cl)c1 (protonated)
O=C(CCS(=O)(=O)c1cccc2nonc12)Nc1cc(Cl)c([O-])c(Cl)c1 (3D coordinates assigned)
O=C(CCS(=O)(=O)c1cccc2nonc12)Nc1cc(Cl)c([O-])c(Cl)c1 (optimized conformer: 78.96656822806335 kcal/mol)

>  <smiles>  (11) 
O=C(CCS(=O)(=O)c1cccc2nonc12)Nc1cc(Cl)c(O)c(Cl)c1

>  <score_type>  (11) 
oracle

>  <origin>  (11) 
adgpu

>  <m_score__min__energy>  (11) 
-11.68

>  <m_primary>  (11) 
energy

$$$$
11:0
     RDKit          3D

 56 58  0  0  0  0  0  0  0  0999 V2000
   -0.8460   26.9220  -28.0340 C   0  0  0  0  0  0  0  0  0  0  0  0
   -1.4860   26.0410  -28.9510 O   0  0  0  0  0  0  0  0  0  0  0  0
   -1.8610   24.7200  -28.6580 C   0  0  0  0  0  0  0  0  0  0  0  0
   -1.2030   23.9600  -27.6720 C   0  0  0  0  0  0  0  0  0  0  0  0
   -1.6050   22.6500  -27.4060 C   0  0  0  0  0  0  0  0  0  0  0  0
   -2.6750   22.0800  -28.1090 C   0  0  0  0  0  0  0  0  0  0  0  0
   -3.0840   20.6560  -27.8440 C   0  0  0  0  0  0  0  0  0  0  0  0
   -1.8550   19.7770  -27.6020 C   0  0  0  0  0  0  0  0  0  0  0  0
   -1.1850   19.4540  -28.8620 N   0  0  0  0  0  0  0  0  0  0  0  0
    0.0560   20.0780  -29.2270 C   0  0  0  0  0  0  0  0  0  0  0  0
    0.6660   20.7890  -28.3820 O   0  0  0  0  0  0  0  0  0  0  0  0
    0.6440   19.8840  -30.5730 C   0  0  0  0  0  0  0  0  0  0  0  0
    1.8980   19.2700  -30.7090 C   0  0  0  0  0  0  0  0  0  0  0  0
    2.4670   19.0910  -31.9710 C   0  0  0  0  0  0  0  0  0  0  0  0
    1.7970   19.5230  -33.1210 C   0  0  0  0  0  0  0  0  0  0  0  0
    2.6040   19.2810  -34.6670 Cl  0  0  0  0  0  0  0  0  0  0  0  0
    0.5340   20.1460  -33.0040 C   0  0  0  0  0  0  0  0  0  0  0  0
   -0.3720   20.7510  -34.4020 S   0  0  0  0  0  0  0  0  0  0  0  0
    0.0080   22.1710  -34.7210 O   0  0  0  0  0  0  0  0  0  0  0  0
   -0.0240   19.9020  -35.5950 O   0  0  0  0  0  0  0  0  0  0  0  0
   -2.0870   20.6310  -34.0940 N   0  0  0  0  0  0  0  0  0  0  0  0
   -2.4450   19.2470  -33.7410 C   0  0  0  0  0  0  0  0  0  0  0  0
   -3.9290   19.1590  -33.3280 C   0  0  0  0  0  0  0  0  0  0  0  0
   -4.5830   20.4060  -33.4670 O   0  0  0  0  0  0  0  0  0  0  0  0
   -3.9540   21.3670  -32.6420 C   0  0  0  0  0  0  0  0  0  0  0  0
   -2.4650   21.5450  -33.0040 C   0  0  0  0  0  0  0  0  0  0  0  0
   -0.0230   20.3300  -31.7280 C   0  0  0  0  0  0  0  0  0  0  0  0
   -3.3240   22.8300  -29.1020 C   0  0  0  0  0  0  0  0  0  0  0  0
   -2.9250   24.1530  -29.3770 C   0  0  0  0  0  0  0  0  0  0  0  0
   -3.5580   24.9330  -30.3570 O   0  0  0  0  0  0  0  0  0  0  0  0
   -4.9680   25.0260  -30.5280 C   0  0  0  0  0  0  0  0  0  0  0  0
   -1.0738   26.6084  -27.0045 H   0  0  0  0  0  0  0  0  0  0  0  0
    0.2418   26.8913  -28.1945 H   0  0  0  0  0  0  0  0  0  0  0  0
   -1.2115   27.9470  -28.1945 H   0  0  0  0  0  0  0  0  0  0  0  0
   -0.3677   24.4010  -27.1083 H   0  0  0  0  0  0  0  0  0  0  0  0
   -1.0788   22.0615  -26.6400 H   0  0  0  0  0  0  0  0  0  0  0  0
   -3.7307   20.6255  -26.9547 H   0  0  0  0  0  0  0  0  0  0  0  0
   -3.6250   20.2739  -28.7222 H   0  0  0  0  0  0  0  0  0  0  0  0
   -1.1520   20.3138  -26.9481 H   0  0  0  0  0  0  0  0  0  0  0  0
   -2.1824   18.8395  -27.1288 H   0  0  0  0  0  0  0  0  0  0  0  0
   -1.5970   18.7270  -29.4880 H   0  0  0  0  0  0  0  0  0  0  0  0
    2.4373   18.9268  -29.8138 H   0  0  0  0  0  0  0  0  0  0  0  0
    3.4502   18.6063  -32.0622 H   0  0  0  0  0  0  0  0  0  0  0  0
   -2.2724   18.5958  -34.6106 H   0  0  0  0  0  0  0  0  0  0  0  0
   -1.8213   18.9241  -32.8944 H   0  0  0  0  0  0  0  0  0  0  0  0
   -4.4337   18.4182  -33.9655 H   0  0  0  0  0  0  0  0  0  0  0  0
   -3.9747   18.8625  -32.2697 H   0  0  0  0  0  0  0  0  0  0  0  0
   -4.4680   22.3319  -32.7636 H   0  0  0  0  0  0  0  0  0  0  0  0
   -4.0136   21.0161  -31.6012 H   0  0  0  0  0  0  0  0  0  0  0  0
   -2.2921   22.5827  -33.3253 H   0  0  0  0  0  0  0  0  0  0  0  0
   -1.8536   21.3154  -32.1189 H   0  0  0  0  0  0  0  0  0  0  0  0
   -0.9972   20.8313  -31.6303 H   0  0  0  0  0  0  0  0  0  0  0  0
   -4.1516   22.3809  -29.6707 H   0  0  0  0  0  0  0  0  0  0  0  0
   -5.4555   25.0582  -29.5425 H   0  0  0  0  0  0  0  0  0  0  0  0
   -5.2100   25.9421  -31.0868 H   0  0  0  0  0  0  0  0  0  0  0  0
   -5.3282   24.1497  -31.0868 H   0  0  0  0  0  0  0  0  0  0  0  0
  1  2  1  0
  2  3  1  0
  3  4  2  0
  4  5  1  0
  5  6  2  0
  6  7  1  0
  7  8  1  0
  8  9  1  0
  9 10  1  0
 10 11  2  0
 10 12  1  0
 12 13  2  0
 13 14  1  0
 14 15  2  0
 15 16  1  0
 15 17  1  0
 17 18  1  0
 18 19  2  0
 18 20  2  0
 18 21  1  0
 21 22  1  0
 22 23  1  0
 23 24  1  0
 24 25  1  0
 25 26  1  0
 17 27  2  0
  6 28  1  0
 28 29  2  0
 29 30  1  0
 30 31  1  0
 29  3  1  0
 27 12  1  0
 26 21  1  0
  1 32  1  0
  1 33  1  0
  1 34  1  0
  4 35  1  0
  5 36  1  0
  7 37  1  0
  7 38  1  0
  8 39  1  0
  8 40  1  0
  9 41  1  0
 13 42  1  0
 14 43  1  0
 22 44  1  0
 22 45  1  0
 23 46  1  0
 23 47  1  0
 25 48  1  0
 25 49  1  0
 26 50  1  0
 26 51  1  0
 27 52  1  0
 28 53  1  0
 31 54  1  0
 31 55  1  0
 31 56  1  0
M  END
>  <UniqueID>  (12) 
11

>  <SMILES>  (12) 
COc1ccc(CCNC(=O)c2ccc(Cl)c(S(=O)(=O)N3CCOCC3)c2)cc1OC

>  <Energy>  (12) 
63.52996959309606

>  <Genealogy>  (12) 
COc1ccc(CCNC(=O)c2ccc(Cl)c(S(=O)(=O)N3CCOCC3)c2)cc1OC (3D coordinates assigned)
COc1ccc(CCNC(=O)c2ccc(Cl)c(S(=O)(=O)N3CCOCC3)c2)cc1OC (nonaromatic ring conformer: 63.52996959309606 kcal/mol)

>  <smiles>  (12) 
COc1ccc(CCNC(=O)c2ccc(Cl)c(S(=O)(=O)N3CCOCC3)c2)cc1OC

>  <score_type>  (12) 
oracle

>  <origin>  (12) 
adgpu

>  <m_score__min__energy>  (12) 
-9.8699999999999992

>  <m_primary>  (12) 
energy

$$$$
12:0
     RDKit          3D

 40 43  0  0  0  0  0  0  0  0999 V2000
   -1.6278   24.7126  -25.8251 H   0  0  0  0  0  0  0  0  0  0  0  0
   -1.9170   24.8380  -26.8790 C   0  0  0  0  0  0  0  0  0  0  0  0
   -2.8430   24.1090  -27.5310 N   0  0  0  0  0  0  0  0  0  0  0  0
   -2.8410   24.6330  -28.7780 C   0  0  0  0  0  0  0  0  0  0  0  0
   -3.7090   24.1530  -29.8730 C   0  0  0  0  0  0  0  0  0  0  0  0
   -4.9350   24.7840  -30.1410 C   0  0  0  0  0  0  0  0  0  0  0  0
   -5.2552   25.6411  -29.5304 H   0  0  0  0  0  0  0  0  0  0  0  0
   -5.7490   24.3270  -31.1800 C   0  0  0  0  0  0  0  0  0  0  0  0
   -6.7078   24.8259  -31.3844 H   0  0  0  0  0  0  0  0  0  0  0  0
   -5.3510   23.2400  -31.9600 C   0  0  0  0  0  0  0  0  0  0  0  0
   -5.9985   22.8864  -32.7759 H   0  0  0  0  0  0  0  0  0  0  0  0
   -4.1270   22.5940  -31.7090 C   0  0  0  0  0  0  0  0  0  0  0  0
   -3.7030   21.4370  -32.5380 C   0  0  0  0  0  0  0  0  0  0  0  0
   -2.3500   21.2430  -32.8630 C   0  0  0  0  0  0  0  0  0  0  0  0
   -1.5939   21.9571  -32.5047 H   0  0  0  0  0  0  0  0  0  0  0  0
   -1.9700   20.1790  -33.6170 N   0  0  0  0  0  0  0  0  0  0  0  0
   -2.8690   19.2780  -34.0910 C   0  0  0  0  0  0  0  0  0  0  0  0
   -2.5239   18.4274  -34.6972 H   0  0  0  0  0  0  0  0  0  0  0  0
   -4.2370   19.4270  -33.8110 C   0  0  0  0  0  0  0  0  0  0  0  0
   -5.2300   18.4470  -34.3130 C   0  0  0  0  0  0  0  0  0  0  0  0
   -5.2650   18.1760  -35.5430 O   0  0  0  0  0  0  0  0  0  0  0  0
   -6.2060   17.8460  -33.4500 N   0  0  0  0  0  0  0  0  0  0  0  0
   -7.2360   18.4510  -32.9360 C   0  0  0  0  0  0  0  0  0  0  0  0
   -7.6000   20.0950  -33.0690 S   0  0  0  0  0  0  0  0  0  0  0  0
   -8.9770   19.9740  -32.1070 C   0  0  0  0  0  0  0  0  0  0  0  0
   -9.6560   20.7990  -31.8455 H   0  0  0  0  0  0  0  0  0  0  0  0
   -9.1070   18.6490  -31.7000 C   0  0  0  0  0  0  0  0  0  0  0  0
   -9.9302   18.3047  -31.0568 H   0  0  0  0  0  0  0  0  0  0  0  0
   -8.1380   17.8140  -32.1590 N   0  0  0  0  0  0  0  0  0  0  0  0
   -8.0990   16.7950  -31.9310 H   0  0  0  0  0  0  0  0  0  0  0  0
   -4.6430   20.5110  -33.0180 C   0  0  0  0  0  0  0  0  0  0  0  0
   -5.7073   20.6365  -32.7701 H   0  0  0  0  0  0  0  0  0  0  0  0
   -3.3120   23.0600  -30.6600 C   0  0  0  0  0  0  0  0  0  0  0  0
   -2.3529   22.5620  -30.4545 H   0  0  0  0  0  0  0  0  0  0  0  0
   -1.9810   25.6210  -28.9090 O   0  0  0  0  0  0  0  0  0  0  0  0
   -1.3930   25.7650  -27.7490 C   0  0  0  0  0  0  0  0  0  0  0  0
   -0.3570   26.7910  -27.4380 C   0  0  0  0  0  0  0  0  0  0  0  0
   -0.2559   26.8911  -26.3472 H   0  0  0  0  0  0  0  0  0  0  0  0
    0.6067   26.4813  -27.8686 H   0  0  0  0  0  0  0  0  0  0  0  0
   -0.6573   27.7576  -27.8686 H   0  0  0  0  0  0  0  0  0  0  0  0
  1  2  1  0
  2  3  1  0
  3  4  2  0
  4  5  1  0
  5  6  2  0
  6  7  1  0
  6  8  1  0
  8  9  1  0
  8 10  2  0
 10 11  1  0
 10 12  1  0
 12 13  1  0
 13 14  2  0
 14 15  1  0
 14 16  1  0
 16 17  2  0
 17 18  1  0
 17 19  1  0
 19 20  1  0
 20 21  2  0
 20 22  1  0
 22 23  2  0
 23 24  1  0
 24 25  1  0
 25 26  1  0
 25 27  2  0
 27 28  1  0
 27 29  1  0
 29 30  1  0
 19 31  2  0
 31 32  1  0
 12 33  2  0
 33 34  1  0
  4 35  1  0
 35 36  1  0
 36 37  1  0
 37 38  1  0
 37 39  1  0
 37 40  1  0
 36  2  2  0
 33  5  1  0
 31 13  1  0
 29 23  1  0
M  END
>  <UniqueID>  (13) 
12

>  <SMILES>  (13) 
Cc1cnc(-c2cccc(-c3cncc(C(=O)/N=c4/[nH]ccs4)c3)c2)o1

>  <Energy>  (13) 
117.44335937491587

>  <Genealogy>  (13) 
Cc1cnc(-c2cccc(-c3cncc(C(=O)/N=c4/[nH]ccs4)c3)c2)o1 (cis-trans isomerization)
Cc1cnc(-c2cccc(-c3cncc(C(=O)/N=c4/[nH]ccs4)c3)c2)o1 (3D coordinates assigned)
Cc1cnc(-c2cccc(-c3cncc(C(=O)/N=c4/[nH]ccs4)c3)c2)o1 (optimized conformer: 117.44335937491587 kcal/mol)

>  <smiles>  (13) 
Cc1cnc(-c2cccc(-c3cncc(C(=O)N=c4[nH]ccs4)c3)c2)o1

>  <score_type>  (13) 
oracle

>  <origin>  (13) 
adgpu

>  <m_score__min__energy>  (13) 
-9.0299999999999994

>  <m_primary>  (13) 
energy

$$$$
13:0
     RDKit          3D

 59 62  0  0  0  0  0  0  0  0999 V2000
   -0.9070   19.1840  -32.1330 C   0  0  0  0  0  0  0  0  0  0  0  0
   -0.8740   20.4060  -31.2640 C   0  0  0  0  0  0  0  0  0  0  0  0
   -0.1760   20.3910  -30.0460 C   0  0  0  0  0  0  0  0  0  0  0  0
   -0.1770   21.5200  -29.2210 C   0  0  0  0  0  0  0  0  0  0  0  0
   -0.8870   22.6690  -29.5970 C   0  0  0  0  0  0  0  0  0  0  0  0
   -0.8730   24.1090  -28.5810 S   0  0  0  0  0  0  0  0  0  0  0  0
    0.5520   24.4160  -28.2160 O   0  0  0  0  0  0  0  0  0  0  0  0
   -1.4290   25.2790  -29.3450 O   0  0  0  0  0  0  0  0  0  0  0  0
   -1.7970   23.8500  -27.1130 N   0  0  0  0  0  0  0  0  0  0  0  0
   -2.4290   22.5160  -27.0790 C   0  0  0  0  0  0  0  0  0  0  0  0
   -3.5600   22.3870  -28.1120 C   0  0  0  0  0  0  0  0  0  0  0  0
   -4.3300   23.6340  -28.2050 N   0  0  0  0  0  0  0  0  0  0  0  0
   -4.9990   23.9910  -29.4320 C   0  0  0  0  0  0  0  0  0  0  0  0
   -5.0800   25.2050  -29.7680 O   0  0  0  0  0  0  0  0  0  0  0  0
   -5.5640   22.9640  -30.3310 C   0  0  0  0  0  0  0  0  0  0  0  0
   -4.7360   22.3000  -31.2510 C   0  0  0  0  0  0  0  0  0  0  0  0
   -5.2640   21.3230  -32.0990 C   0  0  0  0  0  0  0  0  0  0  0  0
   -6.6280   21.0100  -32.0530 C   0  0  0  0  0  0  0  0  0  0  0  0
   -7.2820   19.7540  -33.0990 S   0  0  0  0  0  0  0  0  0  0  0  0
   -6.8380   20.0070  -34.5140 O   0  0  0  0  0  0  0  0  0  0  0  0
   -8.7860   19.7910  -33.0570 O   0  0  0  0  0  0  0  0  0  0  0  0
   -6.6900   18.1990  -32.5720 N   0  0  0  0  0  0  0  0  0  0  0  0
   -7.0780   17.1400  -33.5030 C   0  0  0  0  0  0  0  0  0  0  0  0
   -6.0320   16.0440  -33.3700 C   0  0  0  0  0  0  0  0  0  0  0  0
   -4.8170   16.7220  -32.7580 C   0  0  0  0  0  0  0  0  0  0  0  0
   -5.2280   18.1710  -32.5380 C   0  0  0  0  0  0  0  0  0  0  0  0
   -7.4610   21.6810  -31.1470 C   0  0  0  0  0  0  0  0  0  0  0  0
   -6.9340   22.6570  -30.2970 C   0  0  0  0  0  0  0  0  0  0  0  0
   -4.2210   24.5970  -27.1050 C   0  0  0  0  0  0  0  0  0  0  0  0
   -2.7460   24.9650  -26.8640 C   0  0  0  0  0  0  0  0  0  0  0  0
   -1.5950   22.6790  -30.8050 C   0  0  0  0  0  0  0  0  0  0  0  0
   -1.5960   21.5510  -31.6310 C   0  0  0  0  0  0  0  0  0  0  0  0
   -0.9313   18.2846  -31.5002 H   0  0  0  0  0  0  0  0  0  0  0  0
   -1.8048   19.2098  -32.7681 H   0  0  0  0  0  0  0  0  0  0  0  0
   -0.0091   19.1613  -32.7681 H   0  0  0  0  0  0  0  0  0  0  0  0
    0.3733   19.4885  -29.7398 H   0  0  0  0  0  0  0  0  0  0  0  0
    0.3814   21.5066  -28.2734 H   0  0  0  0  0  0  0  0  0  0  0  0
   -1.6640   21.7552  -27.2934 H   0  0  0  0  0  0  0  0  0  0  0  0
   -2.8646   22.3723  -26.0792 H   0  0  0  0  0  0  0  0  0  0  0  0
   -3.1246   22.1584  -29.0960 H   0  0  0  0  0  0  0  0  0  0  0  0
   -4.2360   21.5796  -27.7938 H   0  0  0  0  0  0  0  0  0  0  0  0
   -3.6662   22.5505  -31.3042 H   0  0  0  0  0  0  0  0  0  0  0  0
   -4.6052   20.7974  -32.8059 H   0  0  0  0  0  0  0  0  0  0  0  0
   -8.0727   16.7498  -33.2416 H   0  0  0  0  0  0  0  0  0  0  0  0
   -7.1304   17.5170  -34.5351 H   0  0  0  0  0  0  0  0  0  0  0  0
   -6.3968   15.2407  -32.7130 H   0  0  0  0  0  0  0  0  0  0  0  0
   -5.7981   15.5802  -34.3396 H   0  0  0  0  0  0  0  0  0  0  0  0
   -4.5532   16.2477  -31.8012 H   0  0  0  0  0  0  0  0  0  0  0  0
   -3.9340   16.6425  -33.4091 H   0  0  0  0  0  0  0  0  0  0  0  0
   -4.8639   18.5251  -31.5622 H   0  0  0  0  0  0  0  0  0  0  0  0
   -4.8000   18.8270  -33.3103 H   0  0  0  0  0  0  0  0  0  0  0  0
   -8.5331   21.4385  -31.1050 H   0  0  0  0  0  0  0  0  0  0  0  0
   -7.5961   23.1879  -29.5972 H   0  0  0  0  0  0  0  0  0  0  0  0
   -4.7850   25.5061  -27.3609 H   0  0  0  0  0  0  0  0  0  0  0  0
   -4.6319   24.1447  -26.1903 H   0  0  0  0  0  0  0  0  0  0  0  0
   -2.4837   25.7983  -27.5324 H   0  0  0  0  0  0  0  0  0  0  0  0
   -2.6537   25.2301  -25.8004 H   0  0  0  0  0  0  0  0  0  0  0  0
   -2.1528   23.5782  -31.1054 H   0  0  0  0  0  0  0  0  0  0  0  0
   -2.1652   21.5616  -32.5722 H   0  0  0  0  0  0  0  0  0  0  0  0
  1  2  1  0
  2  3  2  0
  3  4  1  0
  4  5  2  0
  5  6  1  0
  6  7  2  0
  6  8  2  0
  6  9  1  0
  9 10  1  0
 10 11  1  0
 11 12  1  0
 12 13  1  0
 13 14  2  0
 13 15  1  0
 15 16  2  0
 16 17  1  0
 17 18  2  0
 18 19  1  0
 19 20  2  0
 19 21  2  0
 19 22  1  0
 22 23  1  0
 23 24  1  0
 24 25  1  0
 25 26  1  0
 18 27  1  0
 27 28  2  0
 12 29  1  0
 29 30  1  0
  5 31  1  0
 31 32  2  0
 32  2  1  0
 30  9  1  0
 28 15  1  0
 26 22  1  0
  1 33  1  0
  1 34  1  0
  1 35  1  0
  3 36  1  0
  4 37  1  0
 10 38  1  0
 10 39  1  0
 11 40  1  0
 11 41  1  0
 16 42  1  0
 17 43  1  0
 23 44  1  0
 23 45  1  0
 24 46  1  0
 24 47  1  0
 25 48  1  0
 25 49  1  0
 26 50  1  0
 26 51  1  0
 27 52  1  0
 28 53  1  0
 29 54  1  0
 29 55  1  0
 30 56  1  0
 30 57  1  0
 31 58  1  0
 32 59  1  0
M  END
>  <UniqueID>  (14) 
13

>  <SMILES>  (14) 
Cc1ccc(S(=O)(=O)N2CCN(C(=O)c3ccc(S(=O)(=O)N4CCCC4)cc3)CC2)cc1

>  <Energy>  (14) 
72.33013846186061

>  <Genealogy>  (14) 
Cc1ccc(S(=O)(=O)N2CCN(C(=O)c3ccc(S(=O)(=O)N4CCCC4)cc3)CC2)cc1 (3D coordinates assigned)
Cc1ccc(S(=O)(=O)N2CCN(C(=O)c3ccc(S(=O)(=O)N4CCCC4)cc3)CC2)cc1 (nonaromatic ring conformer: 72.33013846186061 kcal/mol)

>  <smiles>  (14) 
Cc1ccc(S(=O)(=O)N2CCN(C(=O)c3ccc(S(=O)(=O)N4CCCC4)cc3)CC2)cc1

>  <score_type>  (14) 
oracle

>  <origin>  (14) 
adgpu

>  <m_score__min__energy>  (14) 
-10.33

>  <m_primary>  (14) 
energy

$$$$
14:0
     RDKit          3D

 43 45  0  0  0  0  0  0  0  0999 V2000
   -1.8480   14.5290  -34.3230 C   0  0  0  0  0  0  0  0  0  0  0  0
   -3.2980   15.2930  -35.0110 S   0  0  0  0  0  0  0  0  0  0  0  0
   -4.4730   14.3670  -34.8570 O   0  0  0  0  0  0  0  0  0  0  0  0
   -3.0820   15.5580  -36.4740 O   0  0  0  0  0  0  0  0  0  0  0  0
   -3.6140   16.8080  -34.1710 C   0  0  0  0  0  0  0  0  0  0  0  0
   -2.5590   17.6590  -33.8310 C   0  0  0  0  0  0  0  0  0  0  0  0
   -2.8120   18.8680  -33.1830 C   0  0  0  0  0  0  0  0  0  0  0  0
   -4.1270   19.2510  -32.8660 C   0  0  0  0  0  0  0  0  0  0  0  0
   -4.3490   20.5750  -32.2390 C   0  0  0  0  0  0  0  0  0  0  0  0
   -3.9790   20.7950  -30.9020 C   0  0  0  0  0  0  0  0  0  0  0  0
   -4.2030   22.0380  -30.3030 C   0  0  0  0  0  0  0  0  0  0  0  0
   -4.7850   23.0800  -31.0360 C   0  0  0  0  0  0  0  0  0  0  0  0
   -5.0910   24.6380  -30.2750 S   0  0  0  0  0  0  0  0  0  0  0  0
   -4.8460   24.5060  -28.5690 N   0  0  0  0  0  0  0  0  0  0  0  0
   -4.1550   25.6720  -30.8360 O   0  0  0  0  0  0  0  0  0  0  0  0
   -6.5040   25.0680  -30.5480 O   0  0  0  0  0  0  0  0  0  0  0  0
   -5.1480   22.8670  -32.3730 C   0  0  0  0  0  0  0  0  0  0  0  0
   -4.9250   21.6250  -32.9730 C   0  0  0  0  0  0  0  0  0  0  0  0
   -5.2000   18.3820  -33.1940 C   0  0  0  0  0  0  0  0  0  0  0  0
   -6.6030   18.6880  -32.8240 C   0  0  0  0  0  0  0  0  0  0  0  0
   -7.2760   19.7740  -33.4130 C   0  0  0  0  0  0  0  0  0  0  0  0
   -8.6020   20.0530  -33.0680 C   0  0  0  0  0  0  0  0  0  0  0  0
   -9.2620   19.2580  -32.1270 C   0  0  0  0  0  0  0  0  0  0  0  0
   -8.5980   18.1850  -31.5270 C   0  0  0  0  0  0  0  0  0  0  0  0
   -7.2720   17.9010  -31.8710 C   0  0  0  0  0  0  0  0  0  0  0  0
   -4.9280   17.1720  -33.8580 C   0  0  0  0  0  0  0  0  0  0  0  0
   -1.9040   14.5585  -33.2248 H   0  0  0  0  0  0  0  0  0  0  0  0
   -1.7900   13.4832  -34.6592 H   0  0  0  0  0  0  0  0  0  0  0  0
   -0.9527   15.0724  -34.6592 H   0  0  0  0  0  0  0  0  0  0  0  0
   -1.5250   17.3743  -34.0754 H   0  0  0  0  0  0  0  0  0  0  0  0
   -1.9737   19.5288  -32.9172 H   0  0  0  0  0  0  0  0  0  0  0  0
   -3.5106   19.9851  -30.3234 H   0  0  0  0  0  0  0  0  0  0  0  0
   -3.9211   22.1984  -29.2519 H   0  0  0  0  0  0  0  0  0  0  0  0
   -5.7420   24.1570  -28.1580 H   0  0  0  0  0  0  0  0  0  0  0  0
   -4.7060   25.4760  -28.2050 H   0  0  0  0  0  0  0  0  0  0  0  0
   -5.6100   23.6804  -32.9518 H   0  0  0  0  0  0  0  0  0  0  0  0
   -5.2020   21.4686  -34.0260 H   0  0  0  0  0  0  0  0  0  0  0  0
   -6.7568   20.4064  -34.1482 H   0  0  0  0  0  0  0  0  0  0  0  0
   -9.1259   20.8986  -33.5375 H   0  0  0  0  0  0  0  0  0  0  0  0
  -10.3059   19.4773  -31.8583 H   0  0  0  0  0  0  0  0  0  0  0  0
   -9.1182   17.5631  -30.7836 H   0  0  0  0  0  0  0  0  0  0  0  0
   -6.7508   17.0581  -31.3935 H   0  0  0  0  0  0  0  0  0  0  0  0
   -5.7577   16.5047  -34.1342 H   0  0  0  0  0  0  0  0  0  0  0  0
  1  2  1  0
  2  3  2  0
  2  4  2  0
  2  5  1  0
  5  6  2  0
  6  7  1  0
  7  8  2  0
  8  9  1  0
  9 10  2  0
 10 11  1  0
 11 12  2  0
 12 13  1  0
 13 14  1  0
 13 15  2  0
 13 16  2  0
 12 17  1  0
 17 18  2  0
  8 19  1  0
 19 20  1  0
 20 21  2  0
 21 22  1  0
 22 23  2  0
 23 24  1  0
 24 25  2  0
 19 26  2  0
 26  5  1  0
 18  9  1  0
 25 20  1  0
  1 27  1  0
  1 28  1  0
  1 29  1  0
  6 30  1  0
  7 31  1  0
 10 32  1  0
 11 33  1  0
 14 34  1  0
 14 35  1  0
 17 36  1  0
 18 37  1  0
 21 38  1  0
 22 39  1  0
 23 40  1  0
 24 41  1  0
 25 42  1  0
 26 43  1  0
M  END
>  <UniqueID>  (15) 
14

>  <SMILES>  (15) 
CS(=O)(=O)c1ccc(-c2ccc(S(N)(=O)=O)cc2)c(-c2ccccc2)c1

>  <Energy>  (15) 
53.74607019635622

>  <Genealogy>  (15) 
CS(=O)(=O)c1ccc(-c2ccc(S(N)(=O)=O)cc2)c(-c2ccccc2)c1 (3D coordinates assigned)
CS(=O)(=O)c1ccc(-c2ccc(S(N)(=O)=O)cc2)c(-c2ccccc2)c1 (optimized conformer: 53.74607019635622 kcal/mol)

>  <smiles>  (15) 
CS(=O)(=O)c1ccc(-c2ccc(S(N)(=O)=O)cc2)c(-c2ccccc2)c1

>  <score_type>  (15) 
oracle

>  <origin>  (15) 
adgpu

>  <m_score__min__energy>  (15) 
-9.7599999999999998

>  <m_primary>  (15) 
energy

$$$$
15:0
     RDKit          3D

 57 59  0  0  0  0  0  0  0  0999 V2000
   -2.9170   15.8790  -32.7540 C   0  0  0  0  0  0  0  0  0  0  0  0
   -4.3590   16.2350  -33.1880 C   0  0  0  0  0  0  0  0  0  0  0  0
   -4.8450   15.1050  -34.1290 C   0  0  0  0  0  0  0  0  0  0  0  0
   -5.2730   16.2330  -31.9460 C   0  0  0  0  0  0  0  0  0  0  0  0
   -4.3760   17.5850  -33.8420 N   0  0  0  0  0  0  0  0  0  0  0  0
   -3.1540   18.3360  -34.2160 C   0  0  0  0  0  0  0  0  0  0  0  0
   -3.2070   19.8180  -33.8090 C   0  0  0  0  0  0  0  0  0  0  0  0
   -2.6400   20.0350  -32.4810 N   0  0  0  0  0  0  0  0  0  0  0  0
   -1.4220   19.6690  -32.0500 C   0  0  0  0  0  0  0  0  0  0  0  0
   -1.2390   20.0170  -30.7620 N   0  0  0  0  0  0  0  0  0  0  0  0
   -2.4130   20.6090  -30.4490 C   0  0  0  0  0  0  0  0  0  0  0  0
   -3.2760   20.6250  -31.4850 N   0  0  0  0  0  0  0  0  0  0  0  0
   -5.6430   18.1860  -34.1990 C   0  0  0  0  0  0  0  0  0  0  0  0
   -6.0890   18.0290  -35.3660 O   0  0  0  0  0  0  0  0  0  0  0  0
   -6.3820   19.0710  -33.2690 C   0  0  0  0  0  0  0  0  0  0  0  0
   -5.9630   20.4060  -33.1290 C   0  0  0  0  0  0  0  0  0  0  0  0
   -6.6000   21.2640  -32.2240 C   0  0  0  0  0  0  0  0  0  0  0  0
   -6.0210   22.9110  -31.9870 S   0  0  0  0  0  0  0  0  0  0  0  0
   -4.6320   23.0510  -32.5460 O   0  0  0  0  0  0  0  0  0  0  0  0
   -6.9400   23.8520  -32.7180 O   0  0  0  0  0  0  0  0  0  0  0  0
   -6.0230   23.2740  -30.2730 N   0  0  0  0  0  0  0  0  0  0  0  0
   -4.7230   22.9550  -29.6380 C   0  0  0  0  0  0  0  0  0  0  0  0
   -3.8360   24.1960  -29.4430 C   0  0  0  0  0  0  0  0  0  0  0  0
   -4.0560   25.1240  -30.4790 O   0  0  0  0  0  0  0  0  0  0  0  0
   -5.3510   25.6920  -30.3620 C   0  0  0  0  0  0  0  0  0  0  0  0
   -6.4490   24.6600  -30.0110 C   0  0  0  0  0  0  0  0  0  0  0  0
   -7.6760   20.7960  -31.4670 C   0  0  0  0  0  0  0  0  0  0  0  0
   -8.1150   19.4790  -31.6100 C   0  0  0  0  0  0  0  0  0  0  0  0
   -7.4790   18.6130  -32.5100 C   0  0  0  0  0  0  0  0  0  0  0  0
   -7.9440   17.3050  -32.6490 O   0  0  0  0  0  0  0  0  0  0  0  0
   -2.8577   15.8644  -31.6557 H   0  0  0  0  0  0  0  0  0  0  0  0
   -2.6494   14.8878  -33.1489 H   0  0  0  0  0  0  0  0  0  0  0  0
   -2.2188   16.6317  -33.1489 H   0  0  0  0  0  0  0  0  0  0  0  0
   -5.2090   14.2586  -33.5281 H   0  0  0  0  0  0  0  0  0  0  0  0
   -5.6607   15.4818  -34.7636 H   0  0  0  0  0  0  0  0  0  0  0  0
   -4.0105   14.7720  -34.7636 H   0  0  0  0  0  0  0  0  0  0  0  0
   -4.6550   16.2344  -31.0360 H   0  0  0  0  0  0  0  0  0  0  0  0
   -5.9099   17.1298  -31.9580 H   0  0  0  0  0  0  0  0  0  0  0  0
   -5.9060   15.3335  -31.9580 H   0  0  0  0  0  0  0  0  0  0  0  0
   -2.2904   17.8679  -33.7209 H   0  0  0  0  0  0  0  0  0  0  0  0
   -3.0703   18.3003  -35.3122 H   0  0  0  0  0  0  0  0  0  0  0  0
   -2.6368   20.4091  -34.5408 H   0  0  0  0  0  0  0  0  0  0  0  0
   -4.2618   20.1293  -33.7861 H   0  0  0  0  0  0  0  0  0  0  0  0
   -0.6724   19.1528  -32.6678 H   0  0  0  0  0  0  0  0  0  0  0  0
   -2.6394   21.0310  -29.4587 H   0  0  0  0  0  0  0  0  0  0  0  0
   -5.1260   20.7803  -33.7368 H   0  0  0  0  0  0  0  0  0  0  0  0
   -4.9140   22.5012  -28.6544 H   0  0  0  0  0  0  0  0  0  0  0  0
   -4.1870   22.2660  -30.3074 H   0  0  0  0  0  0  0  0  0  0  0  0
   -4.0772   24.6659  -28.4781 H   0  0  0  0  0  0  0  0  0  0  0  0
   -2.7806   23.8865  -29.4592 H   0  0  0  0  0  0  0  0  0  0  0  0
   -5.3258   26.4560  -29.5710 H   0  0  0  0  0  0  0  0  0  0  0  0
   -5.6079   26.1159  -31.3440 H   0  0  0  0  0  0  0  0  0  0  0  0
   -6.6969   24.7574  -28.9437 H   0  0  0  0  0  0  0  0  0  0  0  0
   -7.3208   24.8686  -30.6485 H   0  0  0  0  0  0  0  0  0  0  0  0
   -8.1792   21.4675  -30.7557 H   0  0  0  0  0  0  0  0  0  0  0  0
   -8.9654   19.1184  -31.0127 H   0  0  0  0  0  0  0  0  0  0  0  0
   -7.6430   16.7100  -33.4120 H   0  0  0  0  0  0  0  0  0  0  0  0
  1  2  1  0
  2  3  1  0
  2  4  1  0
  2  5  1  0
  5  6  1  0
  6  7  1  0
  7  8  1  0
  8  9  1  0
  9 10  2  0
 10 11  1  0
 11 12  2  0
  5 13  1  0
 13 14  2  0
 13 15  1  0
 15 16  2  0
 16 17  1  0
 17 18  1  0
 18 19  2  0
 18 20  2  0
 18 21  1  0
 21 22  1  0
 22 23  1  0
 23 24  1  0
 24 25  1  0
 25 26  1  0
 17 27  2  0
 27 28  1  0
 28 29  2  0
 29 30  1  0
 12  8  1  0
 29 15  1  0
 26 21  1  0
  1 31  1  0
  1 32  1  0
  1 33  1  0
  3 34  1  0
  3 35  1  0
  3 36  1  0
  4 37  1  0
  4 38  1  0
  4 39  1  0
  6 40  1  0
  6 41  1  0
  7 42  1  0
  7 43  1  0
  9 44  1  0
 11 45  1  0
 16 46  1  0
 22 47  1  0
 22 48  1  0
 23 49  1  0
 23 50  1  0
 25 51  1  0
 25 52  1  0
 26 53  1  0
 26 54  1  0
 27 55  1  0
 28 56  1  0
 30 57  1  0
M  END
>  <UniqueID>  (16) 
15

>  <SMILES>  (16) 
CC(C)(C)N(CCn1cncn1)C(=O)c1cc(S(=O)(=O)N2CCOCC2)ccc1O

>  <Energy>  (16) 
108.65542995689623

>  <Genealogy>  (16) 
CC(C)(C)N(CCn1cncn1)C(=O)c1cc(S(=O)(=O)N2CCOCC2)ccc1O (3D coordinates assigned)
CC(C)(C)N(CCn1cncn1)C(=O)c1cc(S(=O)(=O)N2CCOCC2)ccc1O (nonaromatic ring conformer: 108.65542995689623 kcal/mol)

>  <smiles>  (16) 
CC(C)(C)N(CCn1cncn1)C(=O)c1cc(S(=O)(=O)N2CCOCC2)ccc1O

>  <score_type>  (16) 
oracle

>  <origin>  (16) 
adgpu

>  <m_score__min__energy>  (16) 
-9.1600000000000001

>  <m_primary>  (16) 
energy

$$$$
16:0
     RDKit          3D

 39 40  0  0  0  0  0  0  0  0999 V2000
   -3.6570   17.9400  -33.4060 C   0  0  0  0  0  0  0  0  0  0  0  0
   -4.9450   17.3690  -32.9940 N   0  0  0  0  0  0  0  0  0  0  0  0
   -5.0380   15.9250  -32.7530 C   0  0  0  0  0  0  0  0  0  0  0  0
   -6.1130   18.2180  -32.8550 C   0  0  0  0  0  0  0  0  0  0  0  0
   -6.1550   19.4930  -33.4570 C   0  0  0  0  0  0  0  0  0  0  0  0
   -7.2610   20.3290  -33.2840 C   0  0  0  0  0  0  0  0  0  0  0  0
   -8.3460   19.9160  -32.4980 C   0  0  0  0  0  0  0  0  0  0  0  0
   -9.4810   20.8660  -32.2180 C   0  0  0  0  0  0  0  0  0  0  0  0
   -8.9820   22.1260  -31.6410 N   0  0  0  0  0  0  0  0  0  0  0  0
   -8.1030   21.9130  -30.4780 C   0  0  0  0  0  0  0  0  0  0  0  0
   -6.9010   22.8220  -30.5300 C   0  0  0  0  0  0  0  0  0  0  0  0
   -6.9940   24.1530  -30.0930 C   0  0  0  0  0  0  0  0  0  0  0  0
   -5.8610   24.9720  -30.0830 C   0  0  0  0  0  0  0  0  0  0  0  0
   -4.6290   24.4740  -30.5170 C   0  0  0  0  0  0  0  0  0  0  0  0
   -3.5090   25.2980  -30.4870 O   0  0  0  0  0  0  0  0  0  0  0  0
   -4.5310   23.1520  -30.9790 C   0  0  0  0  0  0  0  0  0  0  0  0
   -3.3150   22.6300  -31.4190 O   0  0  0  0  0  0  0  0  0  0  0  0
   -5.6680   22.3350  -30.9950 C   0  0  0  0  0  0  0  0  0  0  0  0
   -8.3320   18.6340  -31.9300 C   0  0  0  0  0  0  0  0  0  0  0  0
   -7.2260   17.7980  -32.1020 C   0  0  0  0  0  0  0  0  0  0  0  0
   -3.0692   18.2006  -32.5135 H   0  0  0  0  0  0  0  0  0  0  0  0
   -3.1043   17.2026  -34.0066 H   0  0  0  0  0  0  0  0  0  0  0  0
   -3.8323   18.8447  -34.0066 H   0  0  0  0  0  0  0  0  0  0  0  0
   -5.0503   15.7341  -31.6698 H   0  0  0  0  0  0  0  0  0  0  0  0
   -5.9630   15.5368  -33.2043 H   0  0  0  0  0  0  0  0  0  0  0  0
   -4.1704   15.4213  -33.2043 H   0  0  0  0  0  0  0  0  0  0  0  0
   -5.3071   19.8330  -34.0698 H   0  0  0  0  0  0  0  0  0  0  0  0
   -7.2806   21.3170  -33.7673 H   0  0  0  0  0  0  0  0  0  0  0  0
  -10.0081   21.0845  -33.1585 H   0  0  0  0  0  0  0  0  0  0  0  0
  -10.1635   20.3947  -31.4954 H   0  0  0  0  0  0  0  0  0  0  0  0
   -9.8160   22.6610  -31.3040 H   0  0  0  0  0  0  0  0  0  0  0  0
   -8.6692   22.1189  -29.5577 H   0  0  0  0  0  0  0  0  0  0  0  0
   -7.7525   20.8704  -30.4923 H   0  0  0  0  0  0  0  0  0  0  0  0
   -7.9621   24.5530  -29.7572 H   0  0  0  0  0  0  0  0  0  0  0  0
   -5.9392   26.0117  -29.7325 H   0  0  0  0  0  0  0  0  0  0  0  0
   -2.4480   23.1480  -31.3400 H   0  0  0  0  0  0  0  0  0  0  0  0
   -5.5953   21.3050  -31.3742 H   0  0  0  0  0  0  0  0  0  0  0  0
   -9.1963   18.2848  -31.3460 H   0  0  0  0  0  0  0  0  0  0  0  0
   -7.2247   16.7983  -31.6430 H   0  0  0  0  0  0  0  0  0  0  0  0
  1  2  1  0
  2  3  1  0
  2  4  1  0
  4  5  2  0
  5  6  1  0
  6  7  2  0
  7  8  1  0
  8  9  1  0
  9 10  1  0
 10 11  1  0
 11 12  2  0
 12 13  1  0
 13 14  2  0
 14 15  1  0
 14 16  1  0
 16 17  1  0
 16 18  2  0
  7 19  1  0
 19 20  2  0
 20  4  1  0
 18 11  1  0
  1 21  1  0
  1 22  1  0
  1 23  1  0
  3 24  1  0
  3 25  1  0
  3 26  1  0
  5 27  1  0
  6 28  1  0
  8 29  1  0
  8 30  1  0
  9 31  1  0
 10 32  1  0
 10 33  1  0
 12 34  1  0
 13 35  1  0
 17 36  1  0
 18 37  1  0
 19 38  1  0
 20 39  1  0
M  CHG  1  15  -1
M  END
>  <UniqueID>  (17) 
16

>  <SMILES>  (17) 
CN(C)c1ccc(CNCc2ccc([O-])c(O)c2)cc1

>  <Energy>  (17) 
36.662316011670136

>  <Genealogy>  (17) 
CN(C)c1ccc(CNCc2ccc([O-])c(O)c2)cc1 (protonated)
CN(C)c1ccc(CNCc2ccc([O-])c(O)c2)cc1 (3D coordinates assigned)
CN(C)c1ccc(CNCc2ccc([O-])c(O)c2)cc1 (optimized conformer: 36.662316011670136 kcal/mol)

>  <smiles>  (17) 
CN(C)c1ccc(CNCc2ccc(O)c(O)c2)cc1

>  <score_type>  (17) 
oracle

>  <origin>  (17) 
adgpu

>  <m_score__min__energy>  (17) 
-10.380000000000001

>  <m_primary>  (17) 
energy

$$$$
17:0
     RDKit          3D

 65 68  0  0  0  0  0  0  0  0999 V2000
   -6.4340   25.6570  -29.4670 C   0  0  0  0  0  0  0  0  0  0  0  0
   -6.4720   24.4950  -30.2910 O   0  0  0  0  0  0  0  0  0  0  0  0
   -5.3460   23.7490  -30.6690 C   0  0  0  0  0  0  0  0  0  0  0  0
   -5.3790   23.0740  -31.8960 C   0  0  0  0  0  0  0  0  0  0  0  0
   -4.2830   22.3190  -32.3230 C   0  0  0  0  0  0  0  0  0  0  0  0
   -3.1340   22.2200  -31.5180 C   0  0  0  0  0  0  0  0  0  0  0  0
   -1.9730   21.4950  -31.9480 N   0  0  0  0  0  0  0  0  0  0  0  0
   -1.2360   20.5570  -31.1560 C   0  0  0  0  0  0  0  0  0  0  0  0
   -1.6580   20.2080  -30.0180 O   0  0  0  0  0  0  0  0  0  0  0  0
    0.0960   20.0680  -31.6320 C   0  0  0  0  0  0  0  0  0  0  0  0
   -0.0320   19.4100  -32.9420 N   0  0  0  0  0  0  0  0  0  0  0  0
    0.9710   19.6280  -33.9610 C   0  0  0  0  0  0  0  0  0  0  0  0
    1.6930   18.6670  -34.3450 O   0  0  0  0  0  0  0  0  0  0  0  0
    1.1450   20.9480  -34.6050 C   0  0  0  0  0  0  0  0  0  0  0  0
    2.4100   21.5550  -34.6650 C   0  0  0  0  0  0  0  0  0  0  0  0
    2.5590   22.8140  -35.2580 C   0  0  0  0  0  0  0  0  0  0  0  0
    1.4480   23.4740  -35.8030 C   0  0  0  0  0  0  0  0  0  0  0  0
    1.6380   25.0660  -36.5320 S   0  0  0  0  0  0  0  0  0  0  0  0
    2.4550   26.1190  -35.4260 N   0  0  0  0  0  0  0  0  0  0  0  0
    0.2900   25.6380  -36.8700 O   0  0  0  0  0  0  0  0  0  0  0  0
    2.4410   24.9480  -37.7980 O   0  0  0  0  0  0  0  0  0  0  0  0
    0.1860   22.8670  -35.7460 C   0  0  0  0  0  0  0  0  0  0  0  0
    0.0380   21.6060  -35.1620 C   0  0  0  0  0  0  0  0  0  0  0  0
   -1.1360   18.5050  -33.1680 C   0  0  0  0  0  0  0  0  0  0  0  0
   -2.3290   18.9250  -33.8060 C   0  0  0  0  0  0  0  0  0  0  0  0
   -2.4260   20.2710  -34.3130 N   0  0  0  0  0  0  0  0  0  0  0  0
   -3.3770   18.0350  -33.9530 N   0  0  0  0  0  0  0  0  0  0  0  0
   -4.6570   18.4610  -34.5610 C   0  0  0  0  0  0  0  0  0  0  0  0
   -5.6930   18.8040  -33.5150 C   0  0  0  0  0  0  0  0  0  0  0  0
   -6.3850   20.0290  -33.5540 C   0  0  0  0  0  0  0  0  0  0  0  0
   -7.3680   20.3150  -32.6020 C   0  0  0  0  0  0  0  0  0  0  0  0
   -7.6780   19.3760  -31.6130 C   0  0  0  0  0  0  0  0  0  0  0  0
   -7.0100   18.1480  -31.5780 C   0  0  0  0  0  0  0  0  0  0  0  0
   -6.0270   17.8600  -32.5290 C   0  0  0  0  0  0  0  0  0  0  0  0
   -3.2320   16.7360  -33.5170 C   0  0  0  0  0  0  0  0  0  0  0  0
   -4.1600   15.8930  -33.6660 O   0  0  0  0  0  0  0  0  0  0  0  0
   -2.0860   16.3350  -32.9160 N   0  0  0  0  0  0  0  0  0  0  0  0
   -1.0500   17.1810  -32.7230 C   0  0  0  0  0  0  0  0  0  0  0  0
   -0.0190   16.7690  -32.1280 O   0  0  0  0  0  0  0  0  0  0  0  0
   -3.0870   22.9160  -30.3010 C   0  0  0  0  0  0  0  0  0  0  0  0
   -4.1870   23.6670  -29.8710 C   0  0  0  0  0  0  0  0  0  0  0  0
   -6.4438   25.3566  -28.4089 H   0  0  0  0  0  0  0  0  0  0  0  0
   -5.5168   26.2263  -29.6780 H   0  0  0  0  0  0  0  0  0  0  0  0
   -7.3121   26.2850  -29.6780 H   0  0  0  0  0  0  0  0  0  0  0  0
   -6.2760   23.1387  -32.5295 H   0  0  0  0  0  0  0  0  0  0  0  0
   -4.3192   21.8003  -33.2923 H   0  0  0  0  0  0  0  0  0  0  0  0
    0.7836   20.9219  -31.7220 H   0  0  0  0  0  0  0  0  0  0  0  0
    0.4867   19.3398  -30.9060 H   0  0  0  0  0  0  0  0  0  0  0  0
    3.2862   21.0395  -34.2448 H   0  0  0  0  0  0  0  0  0  0  0  0
    3.5511   23.2875  -35.2967 H   0  0  0  0  0  0  0  0  0  0  0  0
    2.4980   27.0620  -35.8760 H   0  0  0  0  0  0  0  0  0  0  0  0
    1.8420   26.2160  -34.5860 H   0  0  0  0  0  0  0  0  0  0  0  0
   -0.6907   23.3848  -36.1622 H   0  0  0  0  0  0  0  0  0  0  0  0
   -0.9518   21.1267  -35.1389 H   0  0  0  0  0  0  0  0  0  0  0  0
   -2.4050   21.1070  -33.6950 H   0  0  0  0  0  0  0  0  0  0  0  0
   -2.7030   20.4700  -35.2980 H   0  0  0  0  0  0  0  0  0  0  0  0
   -4.4758   19.3479  -35.1859 H   0  0  0  0  0  0  0  0  0  0  0  0
   -5.0437   17.6243  -35.1613 H   0  0  0  0  0  0  0  0  0  0  0  0
   -6.1512   20.7650  -34.3374 H   0  0  0  0  0  0  0  0  0  0  0  0
   -7.8977   21.2786  -32.6308 H   0  0  0  0  0  0  0  0  0  0  0  0
   -8.4484   19.6038  -30.8616 H   0  0  0  0  0  0  0  0  0  0  0  0
   -7.2581   17.4088  -30.8021 H   0  0  0  0  0  0  0  0  0  0  0  0
   -5.5117   16.8885  -32.5055 H   0  0  0  0  0  0  0  0  0  0  0  0
   -2.1797   22.8713  -29.6806 H   0  0  0  0  0  0  0  0  0  0  0  0
   -4.1469   24.1951  -28.9069 H   0  0  0  0  0  0  0  0  0  0  0  0
  1  2  1  0
  2  3  1  0
  3  4  2  0
  4  5  1  0
  5  6  2  0
  6  7  1  0
  7  8  1  0
  8  9  2  0
  8 10  1  0
 10 11  1  0
 11 12  1  0
 12 13  2  0
 12 14  1  0
 14 15  2  0
 15 16  1  0
 16 17  2  0
 17 18  1  0
 18 19  1  0
 18 20  2  0
 18 21  2  0
 17 22  1  0
 22 23  2  0
 11 24  1  0
 24 25  2  0
 25 26  1  0
 25 27  1  0
 27 28  1  0
 28 29  1  0
 29 30  2  0
 30 31  1  0
 31 32  2  0
 32 33  1  0
 33 34  2  0
 27 35  1  0
 35 36  2  0
 35 37  1  0
 37 38  1  0
 38 39  2  0
  6 40  1  0
 40 41  2  0
 41  3  1  0
 23 14  1  0
 38 24  1  0
 34 29  1  0
  1 42  1  0
  1 43  1  0
  1 44  1  0
  4 45  1  0
  5 46  1  0
 10 47  1  0
 10 48  1  0
 15 49  1  0
 16 50  1  0
 19 51  1  0
 19 52  1  0
 22 53  1  0
 23 54  1  0
 26 55  1  0
 26 56  1  0
 28 57  1  0
 28 58  1  0
 30 59  1  0
 31 60  1  0
 32 61  1  0
 33 62  1  0
 34 63  1  0
 40 64  1  0
 41 65  1  0
M  CHG  2   7  -1  37  -1
M  END
>  <UniqueID>  (18) 
17

>  <SMILES>  (18) 
COc1ccc([N-]C(=O)CN(C(=O)c2ccc(S(N)(=O)=O)cc2)c2c(N)n(Cc3ccccc3)c(=O)[n-]c2=O)cc1

>  <Energy>  (18) 
84.75421121360144

>  <Genealogy>  (18) 
COc1ccc([N-]C(=O)CN(C(=O)c2ccc(S(N)(=O)=O)cc2)c2c(N)n(Cc3ccccc3)c(=O)[n-]c2=O)cc1 (protonated)
COc1ccc([N-]C(=O)CN(C(=O)c2ccc(S(N)(=O)=O)cc2)c2c(N)n(Cc3ccccc3)c(=O)[n-]c2=O)cc1 (3D coordinates assigned)
COc1ccc([N-]C(=O)CN(C(=O)c2ccc(S(N)(=O)=O)cc2)c2c(N)n(Cc3ccccc3)c(=O)[n-]c2=O)cc1 (optimized conformer: 84.75421121360144 kcal/mol)

>  <smiles>  (18) 
COc1ccc(NC(=O)CN(C(=O)c2ccc(S(N)(=O)=O)cc2)c2c(N)n(Cc3ccccc3)c(=O)[nH]c2=O)cc1

>  <score_type>  (18) 
oracle

>  <origin>  (18) 
adgpu

>  <m_score__min__energy>  (18) 
-10.300000000000001

>  <m_primary>  (18) 
energy

$$$$
18:0
     RDKit          3D

 53 55  0  0  0  0  0  0  0  0999 V2000
    0.0140   21.5000  -31.6420 C   0  0  0  0  0  0  0  0  0  0  0  0
   -1.2000   20.8500  -32.2300 C   0  0  0  0  0  0  0  0  0  0  0  0
   -1.0470   19.9410  -33.2910 C   0  0  0  0  0  0  0  0  0  0  0  0
   -2.1520   19.2880  -33.8300 C   0  0  0  0  0  0  0  0  0  0  0  0
   -3.4290   19.5370  -33.3200 C   0  0  0  0  0  0  0  0  0  0  0  0
   -3.6150   20.4660  -32.2820 C   0  0  0  0  0  0  0  0  0  0  0  0
   -5.0050   20.7560  -31.7810 C   0  0  0  0  0  0  0  0  0  0  0  0
   -2.5000   21.1420  -31.7400 C   0  0  0  0  0  0  0  0  0  0  0  0
   -2.6930   22.0870  -30.6740 N   0  0  0  0  0  0  0  0  0  0  0  0
   -2.9300   21.6850  -29.3210 C   0  0  0  0  0  0  0  0  0  0  0  0
   -2.8620   20.4640  -28.9950 O   0  0  0  0  0  0  0  0  0  0  0  0
   -3.2720   22.7040  -28.2770 C   0  0  0  0  0  0  0  0  0  0  0  0
   -3.3170   24.0420  -28.8650 N   0  0  0  0  0  0  0  0  0  0  0  0
   -3.9990   24.3880  -30.0820 C   0  0  0  0  0  0  0  0  0  0  0  0
   -3.4900   25.2660  -30.8350 O   0  0  0  0  0  0  0  0  0  0  0  0
   -5.2770   23.7560  -30.4730 C   0  0  0  0  0  0  0  0  0  0  0  0
   -5.9800   22.9580  -29.5560 C   0  0  0  0  0  0  0  0  0  0  0  0
   -7.1910   22.3600  -29.9200 C   0  0  0  0  0  0  0  0  0  0  0  0
   -7.6980   22.5300  -31.2140 C   0  0  0  0  0  0  0  0  0  0  0  0
   -9.2190   21.7620  -31.6860 S   0  0  0  0  0  0  0  0  0  0  0  0
  -10.1150   21.6540  -30.4790 O   0  0  0  0  0  0  0  0  0  0  0  0
   -9.9110   22.6370  -32.6980 O   0  0  0  0  0  0  0  0  0  0  0  0
   -8.9840   20.1670  -32.3670 N   0  0  0  0  0  0  0  0  0  0  0  0
   -7.7440   20.0930  -33.1520 C   0  0  0  0  0  0  0  0  0  0  0  0
   -7.2000   18.6870  -32.9700 C   0  0  0  0  0  0  0  0  0  0  0  0
   -7.6470   18.3040  -31.5820 C   0  0  0  0  0  0  0  0  0  0  0  0
   -8.9150   19.1160  -31.3440 C   0  0  0  0  0  0  0  0  0  0  0  0
   -6.9650   23.2750  -32.1500 C   0  0  0  0  0  0  0  0  0  0  0  0
   -5.7660   23.8880  -31.7820 C   0  0  0  0  0  0  0  0  0  0  0  0
   -0.0478   21.4669  -30.5442 H   0  0  0  0  0  0  0  0  0  0  0  0
    0.9147   20.9635  -31.9749 H   0  0  0  0  0  0  0  0  0  0  0  0
    0.0669   22.5471  -31.9749 H   0  0  0  0  0  0  0  0  0  0  0  0
   -0.0448   19.7437  -33.6993 H   0  0  0  0  0  0  0  0  0  0  0  0
   -2.0199   18.5757  -34.6577 H   0  0  0  0  0  0  0  0  0  0  0  0
   -4.2958   19.0014  -33.7344 H   0  0  0  0  0  0  0  0  0  0  0  0
   -5.0057   20.7561  -30.6810 H   0  0  0  0  0  0  0  0  0  0  0  0
   -5.3290   21.7411  -32.1480 H   0  0  0  0  0  0  0  0  0  0  0  0
   -5.6958   19.9826  -32.1480 H   0  0  0  0  0  0  0  0  0  0  0  0
   -2.5760   23.1010  -30.8850 H   0  0  0  0  0  0  0  0  0  0  0  0
   -4.2551   22.4647  -27.8454 H   0  0  0  0  0  0  0  0  0  0  0  0
   -2.5000   22.6847  -27.4936 H   0  0  0  0  0  0  0  0  0  0  0  0
   -5.5758   22.8022  -28.5449 H   0  0  0  0  0  0  0  0  0  0  0  0
   -7.7462   21.7549  -29.1881 H   0  0  0  0  0  0  0  0  0  0  0  0
   -7.9552   20.2839  -34.2145 H   0  0  0  0  0  0  0  0  0  0  0  0
   -7.0163   20.8469  -32.8171 H   0  0  0  0  0  0  0  0  0  0  0  0
   -7.6232   18.0031  -33.7204 H   0  0  0  0  0  0  0  0  0  0  0  0
   -6.1083   18.6343  -33.0945 H   0  0  0  0  0  0  0  0  0  0  0  0
   -7.8608   17.2264  -31.5272 H   0  0  0  0  0  0  0  0  0  0  0  0
   -6.8748   18.5082  -30.8257 H   0  0  0  0  0  0  0  0  0  0  0  0
   -9.7962   18.4622  -31.4215 H   0  0  0  0  0  0  0  0  0  0  0  0
   -8.8973   19.5635  -30.3393 H   0  0  0  0  0  0  0  0  0  0  0  0
   -7.3373   23.3767  -33.1801 H   0  0  0  0  0  0  0  0  0  0  0  0
   -5.2023   24.4767  -32.5207 H   0  0  0  0  0  0  0  0  0  0  0  0
  1  2  1  0
  2  3  2  0
  3  4  1  0
  4  5  2  0
  5  6  1  0
  6  7  1  0
  6  8  2  0
  8  9  1  0
  9 10  1  0
 10 11  2  0
 10 12  1  0
 12 13  1  0
 13 14  1  0
 14 15  2  0
 14 16  1  0
 16 17  2  0
 17 18  1  0
 18 19  2  0
 19 20  1  0
 20 21  2  0
 20 22  2  0
 20 23  1  0
 23 24  1  0
 24 25  1  0
 25 26  1  0
 26 27  1  0
 19 28  1  0
 28 29  2  0
  8  2  1  0
 29 16  1  0
 27 23  1  0
  1 30  1  0
  1 31  1  0
  1 32  1  0
  3 33  1  0
  4 34  1  0
  5 35  1  0
  7 36  1  0
  7 37  1  0
  7 38  1  0
  9 39  1  0
 12 40  1  0
 12 41  1  0
 17 42  1  0
 18 43  1  0
 24 44  1  0
 24 45  1  0
 25 46  1  0
 25 47  1  0
 26 48  1  0
 26 49  1  0
 27 50  1  0
 27 51  1  0
 28 52  1  0
 29 53  1  0
M  CHG  1  13  -1
M  END
>  <UniqueID>  (19) 
18

>  <SMILES>  (19) 
Cc1cccc(C)c1NC(=O)C[N-]C(=O)c1ccc(S(=O)(=O)N2CCCC2)cc1

>  <Energy>  (19) 
60.04814283378132

>  <Genealogy>  (19) 
Cc1cccc(C)c1NC(=O)C[N-]C(=O)c1ccc(S(=O)(=O)N2CCCC2)cc1 (protonated)
Cc1cccc(C)c1NC(=O)C[N-]C(=O)c1ccc(S(=O)(=O)N2CCCC2)cc1 (3D coordinates assigned)
Cc1cccc(C)c1NC(=O)C[N-]C(=O)c1ccc(S(=O)(=O)N2CCCC2)cc1 (nonaromatic ring conformer: 60.04814283378132 kcal/mol)

>  <smiles>  (19) 
Cc1cccc(C)c1NC(=O)CNC(=O)c1ccc(S(=O)(=O)N2CCCC2)cc1

>  <score_type>  (19) 
oracle

>  <origin>  (19) 
adgpu

>  <m_score__min__energy>  (19) 
-11.99

>  <m_primary>  (19) 
energy

$$$$
19:0
     RDKit          3D

 49 51  0  0  0  0  0  0  0  0999 V2000
   -1.6320   25.5680  -29.0500 N   0  0  0  0  0  0  0  0  0  0  0  0
   -2.9430   24.5500  -29.5290 S   0  0  0  0  0  0  0  0  0  0  0  0
   -3.7500   24.1670  -28.3190 O   0  0  0  0  0  0  0  0  0  0  0  0
   -3.8310   25.2970  -30.4840 O   0  0  0  0  0  0  0  0  0  0  0  0
   -2.3110   23.1040  -30.3070 C   0  0  0  0  0  0  0  0  0  0  0  0
   -3.0920   22.4100  -31.2400 C   0  0  0  0  0  0  0  0  0  0  0  0
   -2.6050   21.2440  -31.8370 C   0  0  0  0  0  0  0  0  0  0  0  0
   -1.3290   20.7590  -31.5080 C   0  0  0  0  0  0  0  0  0  0  0  0
   -0.8370   19.4630  -32.0860 C   0  0  0  0  0  0  0  0  0  0  0  0
   -1.9790   18.5730  -32.2860 N   0  0  0  0  0  0  0  0  0  0  0  0
   -2.5920   18.6790  -33.9110 S   0  0  0  0  0  0  0  0  0  0  0  0
   -2.5530   20.0910  -34.4270 O   0  0  0  0  0  0  0  0  0  0  0  0
   -1.7350   17.8150  -34.7940 O   0  0  0  0  0  0  0  0  0  0  0  0
   -4.2490   18.0830  -33.9280 C   0  0  0  0  0  0  0  0  0  0  0  0
   -4.5610   16.8580  -34.5330 C   0  0  0  0  0  0  0  0  0  0  0  0
   -5.8700   16.3680  -34.4930 C   0  0  0  0  0  0  0  0  0  0  0  0
   -6.8730   17.0970  -33.8460 C   0  0  0  0  0  0  0  0  0  0  0  0
   -6.5720   18.3270  -33.2470 C   0  0  0  0  0  0  0  0  0  0  0  0
   -7.8300   19.2440  -32.4110 S   0  0  0  0  0  0  0  0  0  0  0  0
   -9.1570   18.9570  -33.0570 O   0  0  0  0  0  0  0  0  0  0  0  0
   -7.9020   18.7900  -30.9790 O   0  0  0  0  0  0  0  0  0  0  0  0
   -7.5190   20.9630  -32.4470 N   0  0  0  0  0  0  0  0  0  0  0  0
   -6.3630   21.2980  -31.6000 C   0  0  0  0  0  0  0  0  0  0  0  0
   -6.1980   22.8280  -31.4870 C   0  0  0  0  0  0  0  0  0  0  0  0
   -7.0660   23.5060  -32.3750 O   0  0  0  0  0  0  0  0  0  0  0  0
   -8.4130   23.2280  -32.0340 C   0  0  0  0  0  0  0  0  0  0  0  0
   -8.7050   21.7110  -32.0080 C   0  0  0  0  0  0  0  0  0  0  0  0
   -5.2620   18.8210  -33.3010 C   0  0  0  0  0  0  0  0  0  0  0  0
   -0.5520   21.4520  -30.5680 C   0  0  0  0  0  0  0  0  0  0  0  0
   -1.0400   22.6200  -29.9710 C   0  0  0  0  0  0  0  0  0  0  0  0
   -1.2490   26.0020  -29.9200 H   0  0  0  0  0  0  0  0  0  0  0  0
   -4.0922   22.7841  -31.5037 H   0  0  0  0  0  0  0  0  0  0  0  0
   -3.2242   20.7036  -32.5681 H   0  0  0  0  0  0  0  0  0  0  0  0
   -0.3424   19.6523  -33.0502 H   0  0  0  0  0  0  0  0  0  0  0  0
   -0.1158   18.9970  -31.3985 H   0  0  0  0  0  0  0  0  0  0  0  0
   -3.7743   16.2806  -35.0406 H   0  0  0  0  0  0  0  0  0  0  0  0
   -6.1114   15.4073  -34.9713 H   0  0  0  0  0  0  0  0  0  0  0  0
   -7.8997   16.7040  -33.8074 H   0  0  0  0  0  0  0  0  0  0  0  0
   -6.5161   20.8757  -30.5959 H   0  0  0  0  0  0  0  0  0  0  0  0
   -5.4552   20.8760  -32.0558 H   0  0  0  0  0  0  0  0  0  0  0  0
   -6.4263   23.1378  -30.4565 H   0  0  0  0  0  0  0  0  0  0  0  0
   -5.1616   23.0857  -31.7505 H   0  0  0  0  0  0  0  0  0  0  0  0
   -8.6202   23.6462  -31.0379 H   0  0  0  0  0  0  0  0  0  0  0  0
   -9.0573   23.6838  -32.8003 H   0  0  0  0  0  0  0  0  0  0  0  0
   -8.9680   21.4082  -30.9837 H   0  0  0  0  0  0  0  0  0  0  0  0
   -9.5415   21.4928  -32.6881 H   0  0  0  0  0  0  0  0  0  0  0  0
   -5.0269   19.7954  -32.8479 H   0  0  0  0  0  0  0  0  0  0  0  0
    0.4459   21.0756  -30.2987 H   0  0  0  0  0  0  0  0  0  0  0  0
   -0.4241   23.1592  -29.2362 H   0  0  0  0  0  0  0  0  0  0  0  0
  1  2  1  0
  2  3  2  0
  2  4  2  0
  2  5  1  0
  5  6  2  0
  6  7  1  0
  7  8  2  0
  8  9  1  0
  9 10  1  0
 10 11  1  0
 11 12  2  0
 11 13  2  0
 11 14  1  0
 14 15  2  0
 15 16  1  0
 16 17  2  0
 17 18  1  0
 18 19  1  0
 19 20  2  0
 19 21  2  0
 19 22  1  0
 22 23  1  0
 23 24  1  0
 24 25  1  0
 25 26  1  0
 26 27  1  0
 18 28  2  0
  8 29  1  0
 29 30  2  0
 30  5  1  0
 28 14  1  0
 27 22  1  0
  1 31  1  0
  6 32  1  0
  7 33  1  0
  9 34  1  0
  9 35  1  0
 15 36  1  0
 16 37  1  0
 17 38  1  0
 23 39  1  0
 23 40  1  0
 24 41  1  0
 24 42  1  0
 26 43  1  0
 26 44  1  0
 27 45  1  0
 27 46  1  0
 28 47  1  0
 29 48  1  0
 30 49  1  0
M  CHG  2   1  -1  10  -1
M  END
>  <UniqueID>  (20) 
19

>  <SMILES>  (20) 
[NH-]S(=O)(=O)c1ccc(C[N-]S(=O)(=O)c2cccc(S(=O)(=O)N3CCOCC3)c2)cc1

>  <Energy>  (20) 
53.62234271155521

>  <Genealogy>  (20) 
[NH-]S(=O)(=O)c1ccc(C[N-]S(=O)(=O)c2cccc(S(=O)(=O)N3CCOCC3)c2)cc1 (protonated)
[NH-]S(=O)(=O)c1ccc(C[N-]S(=O)(=O)c2cccc(S(=O)(=O)N3CCOCC3)c2)cc1 (3D coordinates assigned)
[NH-]S(=O)(=O)c1ccc(C[N-]S(=O)(=O)c2cccc(S(=O)(=O)N3CCOCC3)c2)cc1 (nonaromatic ring conformer: 53.62234271155521 kcal/mol)

>  <smiles>  (20) 
NS(=O)(=O)c1ccc(CNS(=O)(=O)c2cccc(S(=O)(=O)N3CCOCC3)c2)cc1

>  <score_type>  (20) 
oracle

>  <origin>  (20) 
adgpu

>  <m_score__min__energy>  (20) 
-11.81

>  <m_primary>  (20) 
energy

$$$$
20:0
     RDKit          3D

 63 67  0  0  0  0  0  0  0  0999 V2000
   -0.3110   16.9380  -35.8050 C   0  0  0  0  0  0  0  0  0  0  0  0
    0.0240   18.2200  -35.2830 O   0  0  0  0  0  0  0  0  0  0  0  0
   -0.7490   18.9310  -34.3520 C   0  0  0  0  0  0  0  0  0  0  0  0
   -1.6780   18.2820  -33.5180 C   0  0  0  0  0  0  0  0  0  0  0  0
   -2.4450   19.0090  -32.6070 C   0  0  0  0  0  0  0  0  0  0  0  0
   -2.3070   20.4040  -32.5120 C   0  0  0  0  0  0  0  0  0  0  0  0
   -3.0870   21.1850  -31.5880 N   0  0  0  0  0  0  0  0  0  0  0  0
   -3.0640   22.6480  -31.5500 C   0  0  0  0  0  0  0  0  0  0  0  0
   -4.4340   23.1890  -31.2170 C   0  0  0  0  0  0  0  0  0  0  0  0
   -4.5810   24.4940  -30.7060 C   0  0  0  0  0  0  0  0  0  0  0  0
   -3.4690   25.2930  -30.4680 O   0  0  0  0  0  0  0  0  0  0  0  0
   -5.8540   25.0050  -30.4330 C   0  0  0  0  0  0  0  0  0  0  0  0
   -6.9920   24.2400  -30.6900 C   0  0  0  0  0  0  0  0  0  0  0  0
   -6.8670   22.9460  -31.2270 C   0  0  0  0  0  0  0  0  0  0  0  0
   -7.9860   22.1510  -31.5260 C   0  0  0  0  0  0  0  0  0  0  0  0
   -9.1570   22.5690  -31.3150 O   0  0  0  0  0  0  0  0  0  0  0  0
   -7.7990   20.8790  -32.0680 C   0  0  0  0  0  0  0  0  0  0  0  0
   -6.4920   20.4170  -32.3030 C   0  0  0  0  0  0  0  0  0  0  0  0
   -6.2230   19.0750  -32.8750 C   0  0  0  0  0  0  0  0  0  0  0  0
   -6.7320   17.9060  -32.2800 C   0  0  0  0  0  0  0  0  0  0  0  0
   -6.4380   16.6520  -32.8220 C   0  0  0  0  0  0  0  0  0  0  0  0
   -5.6280   16.5430  -33.9590 C   0  0  0  0  0  0  0  0  0  0  0  0
   -5.3300   15.2940  -34.4990 O   0  0  0  0  0  0  0  0  0  0  0  0
   -5.1120   17.6990  -34.5540 C   0  0  0  0  0  0  0  0  0  0  0  0
   -4.3050   17.6020  -35.6820 O   0  0  0  0  0  0  0  0  0  0  0  0
   -5.4050   18.9560  -34.0140 C   0  0  0  0  0  0  0  0  0  0  0  0
   -5.4580   21.2040  -32.0160 O   0  0  0  0  0  0  0  0  0  0  0  0
   -5.5830   22.4230  -31.4950 C   0  0  0  0  0  0  0  0  0  0  0  0
   -1.3830   21.0510  -33.3440 C   0  0  0  0  0  0  0  0  0  0  0  0
   -0.5960   20.3280  -34.2510 C   0  0  0  0  0  0  0  0  0  0  0  0
    0.5520   21.2160  -35.2650 S   0  0  0  0  0  0  0  0  0  0  0  0
    0.3590   20.7670  -36.6860 O   0  0  0  0  0  0  0  0  0  0  0  0
    0.2800   22.6930  -35.2050 O   0  0  0  0  0  0  0  0  0  0  0  0
    2.1960   20.8670  -34.7740 N   0  0  0  0  0  0  0  0  0  0  0  0
    3.0950   22.0180  -34.9800 C   0  0  0  0  0  0  0  0  0  0  0  0
    3.4770   22.2150  -36.4680 C   0  0  0  0  0  0  0  0  0  0  0  0
    3.1620   21.1000  -37.2820 O   0  0  0  0  0  0  0  0  0  0  0  0
    3.5750   19.9110  -36.6500 C   0  0  0  0  0  0  0  0  0  0  0  0
    2.7080   19.6320  -35.4050 C   0  0  0  0  0  0  0  0  0  0  0  0
   -0.4934   16.2402  -34.9745 H   0  0  0  0  0  0  0  0  0  0  0  0
   -1.2182   17.0189  -36.4219 H   0  0  0  0  0  0  0  0  0  0  0  0
    0.5198   16.5648  -36.4219 H   0  0  0  0  0  0  0  0  0  0  0  0
   -1.8008   17.1909  -33.5849 H   0  0  0  0  0  0  0  0  0  0  0  0
   -3.1631   18.4861  -31.9583 H   0  0  0  0  0  0  0  0  0  0  0  0
   -3.7130   20.6760  -30.9210 H   0  0  0  0  0  0  0  0  0  0  0  0
   -2.3477   22.9792  -30.7837 H   0  0  0  0  0  0  0  0  0  0  0  0
   -2.7626   23.0253  -32.5383 H   0  0  0  0  0  0  0  0  0  0  0  0
   -5.9586   26.0163  -30.0131 H   0  0  0  0  0  0  0  0  0  0  0  0
   -7.9893   24.6497  -30.4722 H   0  0  0  0  0  0  0  0  0  0  0  0
   -8.6647   20.2445  -32.3088 H   0  0  0  0  0  0  0  0  0  0  0  0
   -7.3648   17.9796  -31.3833 H   0  0  0  0  0  0  0  0  0  0  0  0
   -6.8455   15.7446  -32.3524 H   0  0  0  0  0  0  0  0  0  0  0  0
   -4.7190   15.1960  -35.3020 H   0  0  0  0  0  0  0  0  0  0  0  0
   -4.9918   19.8604  -34.4845 H   0  0  0  0  0  0  0  0  0  0  0  0
   -1.2737   22.1439  -33.2842 H   0  0  0  0  0  0  0  0  0  0  0  0
    2.5907   22.9277  -34.6221 H   0  0  0  0  0  0  0  0  0  0  0  0
    4.0217   21.8219  -34.4207 H   0  0  0  0  0  0  0  0  0  0  0  0
    2.9364   23.0920  -36.8536 H   0  0  0  0  0  0  0  0  0  0  0  0
    4.5682   22.3483  -36.5081 H   0  0  0  0  0  0  0  0  0  0  0  0
    3.4760   19.0728  -37.3554 H   0  0  0  0  0  0  0  0  0  0  0  0
    4.6236   20.0205  -36.3362 H   0  0  0  0  0  0  0  0  0  0  0  0
    1.8519   19.0100  -35.7053 H   0  0  0  0  0  0  0  0  0  0  0  0
    3.3441   19.1223  -34.6664 H   0  0  0  0  0  0  0  0  0  0  0  0
  1  2  1  0
  2  3  1  0
  3  4  2  0
  4  5  1  0
  5  6  2  0
  6  7  1  0
  7  8  1  0
  8  9  1  0
  9 10  2  0
 10 11  1  0
 10 12  1  0
 12 13  2  0
 13 14  1  0
 14 15  1  0
 15 16  2  0
 15 17  1  0
 17 18  2  0
 18 19  1  0
 19 20  2  0
 20 21  1  0
 21 22  2  0
 22 23  1  0
 22 24  1  0
 24 25  1  0
 24 26  2  0
 18 27  1  0
 27 28  1  0
  6 29  1  0
 29 30  2  0
 30 31  1  0
 31 32  2  0
 31 33  2  0
 31 34  1  0
 34 35  1  0
 35 36  1  0
 36 37  1  0
 37 38  1  0
 38 39  1  0
 30  3  1  0
 39 34  1  0
 28  9  1  0
 28 14  2  0
 26 19  1  0
  1 40  1  0
  1 41  1  0
  1 42  1  0
  4 43  1  0
  5 44  1  0
  7 45  1  0
  8 46  1  0
  8 47  1  0
 12 48  1  0
 13 49  1  0
 17 50  1  0
 20 51  1  0
 21 52  1  0
 23 53  1  0
 26 54  1  0
 29 55  1  0
 35 56  1  0
 35 57  1  0
 36 58  1  0
 36 59  1  0
 38 60  1  0
 38 61  1  0
 39 62  1  0
 39 63  1  0
M  CHG  2  11  -1  25  -1
M  END
>  <UniqueID>  (21) 
20

>  <SMILES>  (21) 
COc1ccc(NCc2c([O-])ccc3c(=O)cc(-c4ccc(O)c([O-])c4)oc23)cc1S(=O)(=O)N1CCOCC1

>  <Energy>  (21) 
88.21362685029904

>  <Genealogy>  (21) 
COc1ccc(NCc2c([O-])ccc3c(=O)cc(-c4ccc(O)c([O-])c4)oc23)cc1S(=O)(=O)N1CCOCC1 (protonated)
COc1ccc(NCc2c([O-])ccc3c(=O)cc(-c4ccc(O)c([O-])c4)oc23)cc1S(=O)(=O)N1CCOCC1 (3D coordinates assigned)
COc1ccc(NCc2c([O-])ccc3c(=O)cc(-c4ccc(O)c([O-])c4)oc23)cc1S(=O)(=O)N1CCOCC1 (nonaromatic ring conformer: 88.21362685029904 kcal/mol)

>  <smiles>  (21) 
COc1ccc(NCc2c(O)ccc3c(=O)cc(-c4ccc(O)c(O)c4)oc23)cc1S(=O)(=O)N1CCOCC1

>  <score_type>  (21) 
oracle

>  <origin>  (21) 
adgpu

>  <m_score__min__energy>  (21) 
-13.74

>  <m_primary>  (21) 
energy

$$$$
21:0
     RDKit          3D

 50 52  0  0  0  0  0  0  0  0999 V2000
   -0.6654   24.3624  -25.5481 H   0  0  0  0  0  0  0  0  0  0  0  0
   -1.0570   24.2190  -26.5660 C   0  0  0  0  0  0  0  0  0  0  0  0
   -0.1410   24.3370  -27.6720 C   0  0  0  0  0  0  0  0  0  0  0  0
    0.5960   24.4310  -28.5600 N   0  0  0  0  0  0  0  0  0  0  0  0
   -2.3600   23.9440  -26.7110 C   0  0  0  0  0  0  0  0  0  0  0  0
   -2.9570   23.8153  -25.7961 H   0  0  0  0  0  0  0  0  0  0  0  0
   -3.0580   23.8000  -28.0090 C   0  0  0  0  0  0  0  0  0  0  0  0
   -2.5470   22.9900  -29.0360 C   0  0  0  0  0  0  0  0  0  0  0  0
   -1.6120   22.4330  -28.8760 H   0  0  0  0  0  0  0  0  0  0  0  0
   -3.2170   22.8840  -30.2640 C   0  0  0  0  0  0  0  0  0  0  0  0
   -2.6850   21.9750  -31.3360 C   0  0  0  0  0  0  0  0  0  0  0  0
   -2.1815   21.1147  -30.8707 H   0  0  0  0  0  0  0  0  0  0  0  0
   -3.5172   21.6188  -31.9610 H   0  0  0  0  0  0  0  0  0  0  0  0
   -1.9669   22.5261  -31.9610 H   0  0  0  0  0  0  0  0  0  0  0  0
   -4.4140   23.5930  -30.4690 C   0  0  0  0  0  0  0  0  0  0  0  0
   -5.0990   23.4410  -31.6830 O   0  0  0  0  0  0  0  0  0  0  0  0
   -6.1430   22.5280  -31.8900 C   0  0  0  0  0  0  0  0  0  0  0  0
   -5.9290   21.4480  -32.7420 C   0  0  0  0  0  0  0  0  0  0  0  0
   -4.9574   21.3334  -33.2448 H   0  0  0  0  0  0  0  0  0  0  0  0
   -6.9390   20.5090  -32.9630 C   0  0  0  0  0  0  0  0  0  0  0  0
   -6.6960   19.4170  -33.8660 N   0  0  0  0  0  0  0  0  0  0  0  0
   -6.8590   19.5840  -34.8850 H   0  0  0  0  0  0  0  0  0  0  0  0
   -6.1580   18.1440  -33.4670 C   0  0  0  0  0  0  0  0  0  0  0  0
   -5.5000   17.3450  -34.4160 C   0  0  0  0  0  0  0  0  0  0  0  0
   -5.4168   17.6906  -35.4570 H   0  0  0  0  0  0  0  0  0  0  0  0
   -4.9500   16.1140  -34.0480 C   0  0  0  0  0  0  0  0  0  0  0  0
   -4.4451   15.4908  -34.8008 H   0  0  0  0  0  0  0  0  0  0  0  0
   -5.0410   15.6730  -32.7220 C   0  0  0  0  0  0  0  0  0  0  0  0
   -4.4740   14.4050  -32.3430 C   0  0  0  0  0  0  0  0  0  0  0  0
   -4.0180   13.3860  -32.0390 N   0  0  0  0  0  0  0  0  0  0  0  0
   -5.6770   16.4720  -31.7650 C   0  0  0  0  0  0  0  0  0  0  0  0
   -5.7441   16.1302  -30.7216 H   0  0  0  0  0  0  0  0  0  0  0  0
   -6.2270   17.7030  -32.1320 C   0  0  0  0  0  0  0  0  0  0  0  0
   -6.7167   18.3311  -31.3733 H   0  0  0  0  0  0  0  0  0  0  0  0
   -8.1900   20.6960  -32.3440 C   0  0  0  0  0  0  0  0  0  0  0  0
   -9.1370   19.8990  -32.5960 O   0  0  0  0  0  0  0  0  0  0  0  0
   -8.3870   21.7480  -31.4870 N   0  0  0  0  0  0  0  0  0  0  0  0
   -9.6910   21.9260  -30.8340 C   0  0  0  0  0  0  0  0  0  0  0  0
   -9.5597   21.9081  -29.7420 H   0  0  0  0  0  0  0  0  0  0  0  0
  -10.1233   22.8915  -31.1355 H   0  0  0  0  0  0  0  0  0  0  0  0
  -10.3663   21.1117  -31.1355 H   0  0  0  0  0  0  0  0  0  0  0  0
   -7.3890   22.6530  -31.2530 C   0  0  0  0  0  0  0  0  0  0  0  0
   -7.5636   23.4880  -30.5585 H   0  0  0  0  0  0  0  0  0  0  0  0
   -4.8960   24.4640  -29.4670 C   0  0  0  0  0  0  0  0  0  0  0  0
   -6.1420   25.2800  -29.6760 C   0  0  0  0  0  0  0  0  0  0  0  0
   -6.5663   25.5579  -28.6999 H   0  0  0  0  0  0  0  0  0  0  0  0
   -5.8934   26.1908  -30.2405 H   0  0  0  0  0  0  0  0  0  0  0  0
   -6.8775   24.6881  -30.2405 H   0  0  0  0  0  0  0  0  0  0  0  0
   -4.2180   24.5500  -28.2420 C   0  0  0  0  0  0  0  0  0  0  0  0
   -4.6021   25.2148  -27.4543 H   0  0  0  0  0  0  0  0  0  0  0  0
  1  2  1  0
  2  3  1  0
  3  4  3  0
  2  5  2  0
  5  6  1  0
  5  7  1  0
  7  8  2  0
  8  9  1  0
  8 10  1  0
 10 11  1  0
 11 12  1  0
 11 13  1  0
 11 14  1  0
 10 15  2  0
 15 16  1  0
 16 17  1  0
 17 18  1  0
 18 19  1  0
 18 20  2  0
 20 21  1  0
 21 22  1  0
 21 23  1  0
 23 24  2  0
 24 25  1  0
 24 26  1  0
 26 27  1  0
 26 28  2  0
 28 29  1  0
 29 30  3  0
 28 31  1  0
 31 32  1  0
 31 33  2  0
 33 34  1  0
 20 35  1  0
 35 36  2  0
 35 37  1  0
 37 38  1  0
 38 39  1  0
 38 40  1  0
 38 41  1  0
 37 42  1  0
 42 43  1  0
 15 44  1  0
 44 45  1  0
 45 46  1  0
 45 47  1  0
 45 48  1  0
 44 49  2  0
 49 50  1  0
 49  7  1  0
 42 17  2  0
 33 23  1  0
M  END
>  <UniqueID>  (22) 
21

>  <SMILES>  (22) 
Cc1cc(/C=C\C#N)cc(C)c1Oc1cc(Nc2ccc(C#N)cc2)c(=O)n(C)c1

>  <Energy>  (22) 
71.89262930996686

>  <Genealogy>  (22) 
Cc1cc(/C=C\C#N)cc(C)c1Oc1cc(Nc2ccc(C#N)cc2)c(=O)n(C)c1 (cis-trans isomerization)
Cc1cc(/C=C\C#N)cc(C)c1Oc1cc(Nc2ccc(C#N)cc2)c(=O)n(C)c1 (3D coordinates assigned)
Cc1cc(/C=C\C#N)cc(C)c1Oc1cc(Nc2ccc(C#N)cc2)c(=O)n(C)c1 (optimized conformer: 71.89262930996686 kcal/mol)

>  <smiles>  (22) 
Cc1cc(C=CC#N)cc(C)c1Oc1cc(Nc2ccc(C#N)cc2)c(=O)n(C)c1

>  <score_type>  (22) 
oracle

>  <origin>  (22) 
adgpu

>  <m_score__min__energy>  (22) 
-10.06

>  <m_primary>  (22) 
energy

$$$$
22:0
     RDKit          3D

 73 77  0  0  1  0  0  0  0  0999 V2000
   -3.6190   21.5470  -33.3430 C   0  0  0  0  0  0  0  0  0  0  0  0
   -2.5380   20.8890  -32.5310 C   0  0  0  0  0  0  0  0  0  0  0  0
   -1.2920   20.9870  -33.2300 N   0  0  0  0  0  0  0  0  0  0  0  0
   -0.7650   19.9920  -33.8550 C   0  0  0  0  0  0  0  0  0  0  0  0
   -1.4020   18.7700  -33.8710 C   0  0  0  0  0  0  0  0  0  0  0  0
   -0.8470   17.6710  -34.5440 C   0  0  0  0  0  0  0  0  0  0  0  0
   -1.4960   16.4130  -34.5660 N   0  0  0  0  0  0  0  0  0  0  0  0
   -1.6350   15.5670  -33.3650 C   0  0  0  0  0  0  0  0  0  0  0  0
   -3.1410   15.3580  -33.1840 C   0  0  0  0  0  0  0  0  0  0  0  0
   -3.8940   16.0600  -34.1470 N   0  0  0  0  0  0  0  0  0  0  0  0
   -5.2720   16.1450  -33.8960 C   0  0  0  0  0  0  0  0  0  0  0  0
   -5.8170   17.4370  -33.4400 C   0  0  0  0  0  0  0  0  0  0  0  0
   -6.0070   18.5450  -34.2190 C   0  0  0  0  0  0  0  0  0  0  0  0
   -5.7340   18.5450  -35.5410 F   0  0  0  0  0  0  0  0  0  0  0  0
   -6.5160   19.7380  -33.7020 C   0  0  0  0  0  0  0  0  0  0  0  0
   -6.8540   19.8570  -32.3710 C   0  0  0  0  0  0  0  0  0  0  0  0
   -7.3760   21.0670  -31.8440 N   0  0  0  0  0  0  0  0  0  0  0  0
   -6.6380   22.0440  -31.0360 C   0  0  0  0  0  0  0  0  0  0  0  0
   -7.2460   23.3090  -31.6420 C   0  0  2  0  0  0  0  0  0  0  0  0
   -6.8970   24.5260  -30.8370 C   0  0  0  0  0  0  0  0  0  0  0  0
   -6.0960   24.2430  -29.6890 N   0  0  0  0  0  0  0  0  0  0  0  0
   -4.6800   24.4760  -29.7580 C   0  0  0  0  0  0  0  0  0  0  0  0
   -3.8580   24.1820  -28.5700 C   0  0  0  0  0  0  0  0  0  0  0  0
   -4.2100   24.9250  -30.8440 O   0  0  0  0  0  0  0  0  0  0  0  0
   -8.6160   22.9750  -31.6190 O   0  0  0  0  0  0  0  0  0  0  0  0
   -8.6810   21.6260  -31.9570 C   0  0  0  0  0  0  0  0  0  0  0  0
   -9.7130   20.9990  -32.3060 O   0  0  0  0  0  0  0  0  0  0  0  0
   -6.6660   18.7460  -31.5790 C   0  0  0  0  0  0  0  0  0  0  0  0
   -6.1600   17.5570  -32.0880 C   0  0  0  0  0  0  0  0  0  0  0  0
   -6.0010   16.4850  -31.2410 F   0  0  0  0  0  0  0  0  0  0  0  0
   -3.6020   15.8680  -35.5160 C   0  0  0  0  0  0  0  0  0  0  0  0
   -2.0870   15.8330  -35.7640 C   0  0  0  0  0  0  0  0  0  0  0  0
    0.3250   17.9170  -35.1520 N   0  0  0  0  0  0  0  0  0  0  0  0
    0.9290   19.1320  -35.1190 C   0  0  0  0  0  0  0  0  0  0  0  0
    2.1700   19.3260  -35.7830 N   0  0  0  0  0  0  0  0  0  0  0  0
    3.4660   18.6900  -35.6510 C   0  0  0  0  0  0  0  0  0  0  0  0
    4.1460   19.8910  -36.2720 C   0  0  0  0  0  0  0  0  0  0  0  0
    2.7470   20.1590  -36.8200 C   0  0  0  0  0  0  0  0  0  0  0  0
    0.4090   20.1890  -34.4790 N   0  0  0  0  0  0  0  0  0  0  0  0
   -4.3610   21.9987  -32.6681 H   0  0  0  0  0  0  0  0  0  0  0  0
   -3.1764   22.3291  -33.9774 H   0  0  0  0  0  0  0  0  0  0  0  0
   -4.1104   20.7947  -33.9774 H   0  0  0  0  0  0  0  0  0  0  0  0
   -2.4529   21.3925  -31.5567 H   0  0  0  0  0  0  0  0  0  0  0  0
   -2.7892   19.8296  -32.3744 H   0  0  0  0  0  0  0  0  0  0  0  0
   -2.3622   18.6542  -33.3470 H   0  0  0  0  0  0  0  0  0  0  0  0
   -1.1281   14.6021  -33.5136 H   0  0  0  0  0  0  0  0  0  0  0  0
   -1.1788   16.0357  -32.4806 H   0  0  0  0  0  0  0  0  0  0  0  0
   -3.3633   14.2844  -33.2738 H   0  0  0  0  0  0  0  0  0  0  0  0
   -3.4190   15.7419  -32.1914 H   0  0  0  0  0  0  0  0  0  0  0  0
   -5.7908   15.8832  -34.8300 H   0  0  0  0  0  0  0  0  0  0  0  0
   -5.4380   15.4638  -33.0484 H   0  0  0  0  0  0  0  0  0  0  0  0
   -6.6501   20.6009  -34.3709 H   0  0  0  0  0  0  0  0  0  0  0  0
   -6.8559   21.9483  -29.9620 H   0  0  0  0  0  0  0  0  0  0  0  0
   -5.5409   21.9696  -31.0651 H   0  0  0  0  0  0  0  0  0  0  0  0
   -6.8852   23.5767  -32.6461 H   0  0  0  0  0  0  0  0  0  0  0  0
   -6.3439   25.2234  -31.4833 H   0  0  0  0  0  0  0  0  0  0  0  0
   -7.8428   24.9532  -30.4725 H   0  0  0  0  0  0  0  0  0  0  0  0
   -6.5170   23.8680  -28.7910 H   0  0  0  0  0  0  0  0  0  0  0  0
   -4.4405   24.3903  -27.6604 H   0  0  0  0  0  0  0  0  0  0  0  0
   -3.5626   23.1225  -28.5816 H   0  0  0  0  0  0  0  0  0  0  0  0
   -2.9576   24.8138  -28.5816 H   0  0  0  0  0  0  0  0  0  0  0  0
   -6.9244   18.8021  -30.5112 H   0  0  0  0  0  0  0  0  0  0  0  0
   -4.0411   14.9149  -35.8458 H   0  0  0  0  0  0  0  0  0  0  0  0
   -4.0272   16.7093  -36.0829 H   0  0  0  0  0  0  0  0  0  0  0  0
   -1.7418   14.7979  -35.9033 H   0  0  0  0  0  0  0  0  0  0  0  0
   -1.8041   16.3841  -36.6730 H   0  0  0  0  0  0  0  0  0  0  0  0
    0.8300   17.1820  -35.6810 H   0  0  0  0  0  0  0  0  0  0  0  0
    3.7641   18.4983  -34.6097 H   0  0  0  0  0  0  0  0  0  0  0  0
    3.6305   17.6875  -36.0729 H   0  0  0  0  0  0  0  0  0  0  0  0
    4.5316   20.6392  -35.5638 H   0  0  0  0  0  0  0  0  0  0  0  0
    5.0525   19.8355  -36.8926 H   0  0  0  0  0  0  0  0  0  0  0  0
    2.4408   21.2143  -36.7684 H   0  0  0  0  0  0  0  0  0  0  0  0
    2.5202   19.9616  -37.8781 H   0  0  0  0  0  0  0  0  0  0  0  0
  1  2  1  0
  2  3  1  0
  3  4  2  0
  4  5  1  0
  5  6  2  0
  6  7  1  0
  7  8  1  0
  8  9  1  0
  9 10  1  0
 10 11  1  0
 11 12  1  0
 12 13  2  0
 13 14  1  0
 13 15  1  0
 15 16  2  0
 16 17  1  0
 17 18  1  0
 18 19  1  0
 19 20  1  0
 20 21  1  0
 21 22  1  0
 22 23  1  0
 22 24  2  0
 19 25  1  0
 25 26  1  0
 26 27  2  0
 16 28  1  0
 28 29  2  0
 29 30  1  0
 10 31  1  0
 31 32  1  0
  6 33  1  0
 33 34  1  0
 34 35  1  0
 35 36  1  0
 36 37  1  0
 37 38  1  0
 34 39  2  0
 39  4  1  0
 32  7  1  0
 38 35  1  0
 29 12  1  0
 26 17  1  0
  1 40  1  0
  1 41  1  0
  1 42  1  0
  2 43  1  0
  2 44  1  0
  5 45  1  0
  8 46  1  0
  8 47  1  0
  9 48  1  0
  9 49  1  0
 11 50  1  0
 11 51  1  0
 15 52  1  0
 18 53  1  0
 18 54  1  0
 19 55  1  6
 20 56  1  0
 20 57  1  0
 21 58  1  0
 23 59  1  0
 23 60  1  0
 23 61  1  0
 28 62  1  0
 31 63  1  0
 31 64  1  0
 32 65  1  0
 32 66  1  0
 33 67  1  0
 36 68  1  0
 36 69  1  0
 37 70  1  0
 37 71  1  0
 38 72  1  0
 38 73  1  0
M  END
>  <smiles>  (23) 
CCN=c1cc(N2CCN(Cc3c(F)cc(N4CC(CNC(C)=O)OC4=O)cc3F)CC2)[nH]c(N2CCC2)n1

>  <score_type>  (23) 
oracle

>  <origin>  (23) 
adgpu

>  <m_score__min__energy>  (23) 
-9.3000000000000007

>  <m_primary>  (23) 
energy

$$$$
23:0
     RDKit          3D

 51 54  0  0  0  0  0  0  0  0999 V2000
   -2.3840   19.2940  -25.7490 C   0  0  0  0  0  0  0  0  0  0  0  0
   -2.1630   19.6580  -27.1860 C   0  0  0  0  0  0  0  0  0  0  0  0
   -1.0370   19.1840  -27.8800 C   0  0  0  0  0  0  0  0  0  0  0  0
   -0.8390   19.5410  -29.2170 C   0  0  0  0  0  0  0  0  0  0  0  0
   -1.7530   20.3770  -29.8730 C   0  0  0  0  0  0  0  0  0  0  0  0
   -1.4900   20.8040  -31.5590 S   0  0  0  0  0  0  0  0  0  0  0  0
   -1.7650   19.6080  -32.4270 O   0  0  0  0  0  0  0  0  0  0  0  0
   -0.0640   21.2260  -31.7810 O   0  0  0  0  0  0  0  0  0  0  0  0
   -2.5560   22.0950  -32.0100 N   0  0  0  0  0  0  0  0  0  0  0  0
   -3.9860   21.9600  -31.9770 C   0  0  0  0  0  0  0  0  0  0  0  0
   -4.6010   20.8090  -32.5220 C   0  0  0  0  0  0  0  0  0  0  0  0
   -5.9920   20.7520  -32.5410 C   0  0  0  0  0  0  0  0  0  0  0  0
   -6.7650   21.7700  -32.0510 C   0  0  0  0  0  0  0  0  0  0  0  0
   -6.2010   22.9180  -31.4990 C   0  0  0  0  0  0  0  0  0  0  0  0
   -4.7960   23.0100  -31.4460 C   0  0  0  0  0  0  0  0  0  0  0  0
   -4.2330   24.1600  -30.8760 O   0  0  0  0  0  0  0  0  0  0  0  0
   -3.7110   24.2370  -29.5750 C   0  0  0  0  0  0  0  0  0  0  0  0
   -2.3290   24.3640  -29.3280 C   0  0  0  0  0  0  0  0  0  0  0  0
   -1.8530   24.4420  -28.0150 C   0  0  0  0  0  0  0  0  0  0  0  0
   -2.7440   24.3780  -26.9410 C   0  0  0  0  0  0  0  0  0  0  0  0
   -4.1140   24.2340  -27.1800 C   0  0  0  0  0  0  0  0  0  0  0  0
   -4.5930   24.1580  -28.4920 C   0  0  0  0  0  0  0  0  0  0  0  0
   -8.0680   21.4360  -32.1640 N   0  0  0  0  0  0  0  0  0  0  0  0
   -9.2280   22.1620  -31.6550 C   0  0  0  0  0  0  0  0  0  0  0  0
   -8.0450   20.1910  -32.7040 C   0  0  0  0  0  0  0  0  0  0  0  0
   -9.0820   19.5050  -32.9100 O   0  0  0  0  0  0  0  0  0  0  0  0
   -6.7890   19.7540  -32.9740 N   0  0  0  0  0  0  0  0  0  0  0  0
   -6.3860   18.4430  -33.4760 C   0  0  0  0  0  0  0  0  0  0  0  0
   -2.8690   20.8590  -29.1790 C   0  0  0  0  0  0  0  0  0  0  0  0
   -3.0740   20.5050  -27.8410 C   0  0  0  0  0  0  0  0  0  0  0  0
   -1.9220   20.0549  -25.1028 H   0  0  0  0  0  0  0  0  0  0  0  0
   -3.4638   19.2461  -25.5448 H   0  0  0  0  0  0  0  0  0  0  0  0
   -1.9284   18.3139  -25.5448 H   0  0  0  0  0  0  0  0  0  0  0  0
   -0.3115   18.5322  -27.3714 H   0  0  0  0  0  0  0  0  0  0  0  0
    0.0408   19.1630  -29.7583 H   0  0  0  0  0  0  0  0  0  0  0  0
   -2.1300   23.0330  -32.1790 H   0  0  0  0  0  0  0  0  0  0  0  0
   -3.9965   19.9808  -32.9203 H   0  0  0  0  0  0  0  0  0  0  0  0
   -6.8353   23.7305  -31.1150 H   0  0  0  0  0  0  0  0  0  0  0  0
   -1.6227   24.4019  -30.1704 H   0  0  0  0  0  0  0  0  0  0  0  0
   -0.7748   24.5540  -27.8278 H   0  0  0  0  0  0  0  0  0  0  0  0
   -2.3684   24.4408  -25.9090 H   0  0  0  0  0  0  0  0  0  0  0  0
   -4.8162   24.1804  -26.3350 H   0  0  0  0  0  0  0  0  0  0  0  0
   -5.6710   24.0352  -28.6735 H   0  0  0  0  0  0  0  0  0  0  0  0
   -9.2128   22.1525  -30.5551 H   0  0  0  0  0  0  0  0  0  0  0  0
   -9.1961   23.2016  -32.0132 H   0  0  0  0  0  0  0  0  0  0  0  0
  -10.1490   21.6789  -32.0132 H   0  0  0  0  0  0  0  0  0  0  0  0
   -6.1801   17.7731  -32.6281 H   0  0  0  0  0  0  0  0  0  0  0  0
   -7.1957   18.0203  -34.0890 H   0  0  0  0  0  0  0  0  0  0  0  0
   -5.4787   18.5481  -34.0890 H   0  0  0  0  0  0  0  0  0  0  0  0
   -3.5876   21.5186  -29.6875 H   0  0  0  0  0  0  0  0  0  0  0  0
   -3.9507   20.8906  -27.2999 H   0  0  0  0  0  0  0  0  0  0  0  0
  1  2  1  0
  2  3  2  0
  3  4  1  0
  4  5  2  0
  5  6  1  0
  6  7  2  0
  6  8  2  0
  6  9  1  0
  9 10  1  0
 10 11  2  0
 11 12  1  0
 12 13  2  0
 13 14  1  0
 14 15  2  0
 15 16  1  0
 16 17  1  0
 17 18  2  0
 18 19  1  0
 19 20  2  0
 20 21  1  0
 21 22  2  0
 13 23  1  0
 23 24  1  0
 23 25  1  0
 25 26  2  0
 25 27  1  0
 27 28  1  0
  5 29  1  0
 29 30  2  0
 30  2  1  0
 15 10  1  0
 22 17  1  0
 27 12  1  0
  1 31  1  0
  1 32  1  0
  1 33  1  0
  3 34  1  0
  4 35  1  0
  9 36  1  0
 11 37  1  0
 14 38  1  0
 18 39  1  0
 19 40  1  0
 20 41  1  0
 21 42  1  0
 22 43  1  0
 24 44  1  0
 24 45  1  0
 24 46  1  0
 28 47  1  0
 28 48  1  0
 28 49  1  0
 29 50  1  0
 30 51  1  0
M  END
>  <UniqueID>  (24) 
22

>  <SMILES>  (24) 
Cc1ccc(S(=O)(=O)Nc2cc3c(cc2Oc2ccccc2)n(C)c(=O)n3C)cc1

>  <Energy>  (24) 
105.73607461786774

>  <Genealogy>  (24) 
Cc1ccc(S(=O)(=O)Nc2cc3c(cc2Oc2ccccc2)n(C)c(=O)n3C)cc1 (3D coordinates assigned)
Cc1ccc(S(=O)(=O)Nc2cc3c(cc2Oc2ccccc2)n(C)c(=O)n3C)cc1 (optimized conformer: 105.73607461786774 kcal/mol)

>  <smiles>  (24) 
Cc1ccc(S(=O)(=O)Nc2cc3c(cc2Oc2ccccc2)n(C)c(=O)n3C)cc1

>  <score_type>  (24) 
oracle

>  <origin>  (24) 
adgpu

>  <m_score__min__energy>  (24) 
-9.1799999999999997

>  <m_primary>  (24) 
energy

$$$$
24:0
     RDKit          3D

 44 47  0  0  0  0  0  0  0  0999 V2000
    1.1035   18.1397  -30.3753 H   0  0  0  0  0  0  0  0  0  0  0  0
    0.6990   18.8630  -29.6520 C   0  0  0  0  0  0  0  0  0  0  0  0
   -0.5770   19.1090  -29.4460 O   0  0  0  0  0  0  0  0  0  0  0  0
   -0.7450   20.0160  -28.5270 N   0  0  0  0  0  0  0  0  0  0  0  0
    0.4890   20.3710  -28.1230 C   0  0  0  0  0  0  0  0  0  0  0  0
    0.7390   21.2580  -27.2120 N   0  0  0  0  0  0  0  0  0  0  0  0
   -0.5050   22.1230  -26.3700 S   0  0  0  0  0  0  0  0  0  0  0  0
    0.1300   23.0470  -25.3670 O   0  0  0  0  0  0  0  0  0  0  0  0
   -1.3850   21.1460  -25.6430 O   0  0  0  0  0  0  0  0  0  0  0  0
   -1.4840   23.0280  -27.5210 C   0  0  0  0  0  0  0  0  0  0  0  0
   -2.8240   22.6840  -27.7470 C   0  0  0  0  0  0  0  0  0  0  0  0
   -3.2740   21.8416  -27.2013 H   0  0  0  0  0  0  0  0  0  0  0  0
   -3.5890   23.4090  -28.6640 C   0  0  0  0  0  0  0  0  0  0  0  0
   -4.6442   23.1438  -28.8261 H   0  0  0  0  0  0  0  0  0  0  0  0
   -3.0210   24.4710  -29.3780 C   0  0  0  0  0  0  0  0  0  0  0  0
   -3.8190   25.1650  -30.3460 N   0  0  0  0  0  0  0  0  0  0  0  0
   -5.0640   24.7060  -30.8920 C   0  0  0  0  0  0  0  0  0  0  0  0
   -6.0730   25.4520  -30.8010 O   0  0  0  0  0  0  0  0  0  0  0  0
   -5.2070   23.3660  -31.5040 C   0  0  0  0  0  0  0  0  0  0  0  0
   -6.3730   22.7360  -31.9450 C   0  0  0  0  0  0  0  0  0  0  0  0
   -8.0290   23.4230  -31.9100 S   0  0  0  0  0  0  0  0  0  0  0  0
   -8.8080   21.8190  -31.5480 C   0  0  0  0  0  0  0  0  0  0  0  0
   -8.8748   21.6814  -30.4587 H   0  0  0  0  0  0  0  0  0  0  0  0
   -9.8180   21.7953  -31.9832 H   0  0  0  0  0  0  0  0  0  0  0  0
   -8.2021   21.0106  -31.9832 H   0  0  0  0  0  0  0  0  0  0  0  0
   -6.0910   21.5130  -32.4580 N   0  0  0  0  0  0  0  0  0  0  0  0
   -4.7850   21.3540  -32.3420 N   0  0  0  0  0  0  0  0  0  0  0  0
   -4.0560   20.2810  -32.7340 C   0  0  0  0  0  0  0  0  0  0  0  0
   -4.5366   19.4095  -33.2025 H   0  0  0  0  0  0  0  0  0  0  0  0
   -2.6710   20.3160  -32.5240 C   0  0  0  0  0  0  0  0  0  0  0  0
   -2.0369   19.4719  -32.8327 H   0  0  0  0  0  0  0  0  0  0  0  0
   -2.1030   21.4540  -31.9090 C   0  0  0  0  0  0  0  0  0  0  0  0
   -0.6250   21.5420  -31.7010 C   0  0  0  0  0  0  0  0  0  0  0  0
   -0.4066   21.5550  -30.6230 H   0  0  0  0  0  0  0  0  0  0  0  0
   -0.1371   20.6713  -32.1635 H   0  0  0  0  0  0  0  0  0  0  0  0
   -0.2439   22.4644  -32.1635 H   0  0  0  0  0  0  0  0  0  0  0  0
   -2.8980   22.5010  -31.5400 N   0  0  0  0  0  0  0  0  0  0  0  0
   -4.2310   22.4310  -31.7770 C   0  0  0  0  0  0  0  0  0  0  0  0
   -1.6850   24.8340  -29.1270 C   0  0  0  0  0  0  0  0  0  0  0  0
   -1.2409   25.6905  -29.6553 H   0  0  0  0  0  0  0  0  0  0  0  0
   -0.9210   24.1100  -28.2090 C   0  0  0  0  0  0  0  0  0  0  0  0
    0.1267   24.3907  -28.0258 H   0  0  0  0  0  0  0  0  0  0  0  0
    1.4460   19.6620  -28.8110 C   0  0  0  0  0  0  0  0  0  0  0  0
    2.5403   19.7183  -28.7143 H   0  0  0  0  0  0  0  0  0  0  0  0
  1  2  1  0
  2  3  1  0
  3  4  1  0
  4  5  1  0
  5  6  2  0
  6  7  1  0
  7  8  2  0
  7  9  2  0
  7 10  1  0
 10 11  2  0
 11 12  1  0
 11 13  1  0
 13 14  1  0
 13 15  2  0
 15 16  1  0
 16 17  1  0
 17 18  2  0
 17 19  1  0
 19 20  1  0
 20 21  1  0
 21 22  1  0
 22 23  1  0
 22 24  1  0
 22 25  1  0
 20 26  2  0
 26 27  1  0
 27 28  1  0
 28 29  1  0
 28 30  2  0
 30 31  1  0
 30 32  1  0
 32 33  1  0
 33 34  1  0
 33 35  1  0
 33 36  1  0
 32 37  2  0
 37 38  1  0
 15 39  1  0
 39 40  1  0
 39 41  2  0
 41 42  1  0
  5 43  1  0
 43 44  1  0
 43  2  2  0
 41 10  1  0
 38 19  2  0
 38 27  1  0
M  CHG  2   4  -1  16  -1
M  END
>  <UniqueID>  (25) 
23

>  <SMILES>  (25) 
CSc1nn2ccc(C)nc2c1C(=O)[N-]c1ccc(S(=O)(=O)/N=c2/cco[n-]2)cc1

>  <Energy>  (25) 
118.86690819158896

>  <Genealogy>  (25) 
CSc1nn2ccc(C)nc2c1C(=O)[N-]c1ccc(S(=O)(=O)N=c2cco[n-]2)cc1 (protonated)
CSc1nn2ccc(C)nc2c1C(=O)[N-]c1ccc(S(=O)(=O)/N=c2/cco[n-]2)cc1 (cis-trans isomerization)
CSc1nn2ccc(C)nc2c1C(=O)[N-]c1ccc(S(=O)(=O)/N=c2/cco[n-]2)cc1 (3D coordinates assigned)
CSc1nn2ccc(C)nc2c1C(=O)[N-]c1ccc(S(=O)(=O)/N=c2/cco[n-]2)cc1 (optimized conformer: 118.86690819158896 kcal/mol)

>  <smiles>  (25) 
CSc1nn2ccc(C)nc2c1C(=O)Nc1ccc(S(=O)(=O)N=c2cco[nH]2)cc1

>  <score_type>  (25) 
oracle

>  <origin>  (25) 
adgpu

>  <m_score__min__energy>  (25) 
-11.449999999999999

>  <m_primary>  (25) 
energy

$$$$
25:0
     RDKit          3D

 39 41  0  0  0  0  0  0  0  0999 V2000
    0.3450   24.7470  -29.0640 H   0  0  0  0  0  0  0  0  0  0  0  0
    0.3330   23.7470  -28.9150 O   0  0  0  0  0  0  0  0  0  0  0  0
   -0.8170   23.0410  -28.5560 C   0  0  0  0  0  0  0  0  0  0  0  0
   -0.6600   21.7670  -27.9950 C   0  0  0  0  0  0  0  0  0  0  0  0
    0.3502   21.3723  -27.8114 H   0  0  0  0  0  0  0  0  0  0  0  0
   -1.7760   20.9940  -27.6670 C   0  0  0  0  0  0  0  0  0  0  0  0
   -1.6427   19.9925  -27.2320 H   0  0  0  0  0  0  0  0  0  0  0  0
   -3.0600   21.4920  -27.8910 C   0  0  0  0  0  0  0  0  0  0  0  0
   -3.9382   20.8793  -27.6392 H   0  0  0  0  0  0  0  0  0  0  0  0
   -3.2320   22.7660  -28.4340 C   0  0  0  0  0  0  0  0  0  0  0  0
   -4.2472   23.1541  -28.6038 H   0  0  0  0  0  0  0  0  0  0  0  0
   -2.1180   23.5580  -28.7660 C   0  0  0  0  0  0  0  0  0  0  0  0
   -2.3430   24.9230  -29.2960 C   0  0  0  0  0  0  0  0  0  0  0  0
   -1.5580   25.8510  -28.9700 O   0  0  0  0  0  0  0  0  0  0  0  0
   -3.4960   25.2430  -30.0890 N   0  0  0  0  0  0  0  0  0  0  0  0
   -4.5340   24.3340  -30.4820 C   0  0  0  0  0  0  0  0  0  0  0  0
   -4.2690   23.2100  -31.2830 C   0  0  0  0  0  0  0  0  0  0  0  0
   -3.2402   23.0037  -31.6133 H   0  0  0  0  0  0  0  0  0  0  0  0
   -5.3060   22.3530  -31.6620 C   0  0  0  0  0  0  0  0  0  0  0  0
   -5.0890   21.4684  -32.2788 H   0  0  0  0  0  0  0  0  0  0  0  0
   -6.6220   22.6180  -31.2580 C   0  0  0  0  0  0  0  0  0  0  0  0
   -7.9430   21.5640  -31.7520 S   0  0  0  0  0  0  0  0  0  0  0  0
   -8.4480   20.7590  -30.5870 O   0  0  0  0  0  0  0  0  0  0  0  0
   -9.0710   22.4060  -32.2770 O   0  0  0  0  0  0  0  0  0  0  0  0
   -7.4010   20.4920  -33.0030 N   0  0  0  0  0  0  0  0  0  0  0  0
   -6.8890   19.3200  -32.7790 C   0  0  0  0  0  0  0  0  0  0  0  0
   -6.7460   18.8500  -31.5060 N   0  0  0  0  0  0  0  0  0  0  0  0
   -6.2080   17.6290  -31.2460 C   0  0  0  0  0  0  0  0  0  0  0  0
   -6.1073   17.2820  -30.2070 H   0  0  0  0  0  0  0  0  0  0  0  0
   -5.7830   16.8150  -32.2990 C   0  0  0  0  0  0  0  0  0  0  0  0
   -5.3453   15.8265  -32.0960 H   0  0  0  0  0  0  0  0  0  0  0  0
   -5.9200   17.2700  -33.6110 C   0  0  0  0  0  0  0  0  0  0  0  0
   -5.5920   16.6393  -34.4504 H   0  0  0  0  0  0  0  0  0  0  0  0
   -6.4750   18.5290  -33.8560 C   0  0  0  0  0  0  0  0  0  0  0  0
   -6.5854   18.8950  -34.8874 H   0  0  0  0  0  0  0  0  0  0  0  0
   -6.8920   23.7550  -30.4860 C   0  0  0  0  0  0  0  0  0  0  0  0
   -7.9246   23.9753  -30.1775 H   0  0  0  0  0  0  0  0  0  0  0  0
   -5.8540   24.6110  -30.1060 C   0  0  0  0  0  0  0  0  0  0  0  0
   -6.0756   25.5074  -29.5081 H   0  0  0  0  0  0  0  0  0  0  0  0
  1  2  1  0
  2  3  1  0
  3  4  2  0
  4  5  1  0
  4  6  1  0
  6  7  1  0
  6  8  2  0
  8  9  1  0
  8 10  1  0
 10 11  1  0
 10 12  2  0
 12 13  1  0
 13 14  2  0
 13 15  1  0
 15 16  1  0
 16 17  2  0
 17 18  1  0
 17 19  1  0
 19 20  1  0
 19 21  2  0
 21 22  1  0
 22 23  2  0
 22 24  2  0
 22 25  1  0
 25 26  2  0
 26 27  1  0
 27 28  1  0
 28 29  1  0
 28 30  2  0
 30 31  1  0
 30 32  1  0
 32 33  1  0
 32 34  2  0
 34 35  1  0
 21 36  1  0
 36 37  1  0
 36 38  2  0
 38 39  1  0
 12  3  1  0
 38 16  1  0
 34 26  1  0
M  CHG  2  15  -1  27  -1
M  END
>  <UniqueID>  (26) 
24

>  <SMILES>  (26) 
O=C([N-]c1ccc(S(=O)(=O)/N=c2/cccc[n-]2)cc1)c1ccccc1O

>  <Energy>  (26) 
55.07315175459083

>  <Genealogy>  (26) 
O=C([N-]c1ccc(S(=O)(=O)N=c2cccc[n-]2)cc1)c1ccccc1O (protonated)
O=C([N-]c1ccc(S(=O)(=O)/N=c2/cccc[n-]2)cc1)c1ccccc1O (cis-trans isomerization)
O=C([N-]c1ccc(S(=O)(=O)/N=c2/cccc[n-]2)cc1)c1ccccc1O (3D coordinates assigned)
O=C([N-]c1ccc(S(=O)(=O)/N=c2/cccc[n-]2)cc1)c1ccccc1O (optimized conformer: 55.07315175459083 kcal/mol)

>  <smiles>  (26) 
O=C(Nc1ccc(S(=O)(=O)N=c2cccc[nH]2)cc1)c1ccccc1O

>  <score_type>  (26) 
oracle

>  <origin>  (26) 
adgpu

>  <m_score__min__energy>  (26) 
-10.630000000000001

>  <m_primary>  (26) 
energy

$$$$
26:0
     RDKit          3D

 58 61  0  0  0  0  0  0  0  0999 V2000
   -4.6350   24.2530  -31.1310 O   0  0  0  0  0  0  0  0  0  0  0  0
   -4.4820   23.5970  -30.0640 C   0  0  0  0  0  0  0  0  0  0  0  0
   -5.0910   22.3000  -29.9230 N   0  0  0  0  0  0  0  0  0  0  0  0
   -5.9670   21.7160  -30.9020 C   0  0  0  0  0  0  0  0  0  0  0  0
   -7.2960   22.1500  -31.0500 C   0  0  0  0  0  0  0  0  0  0  0  0
   -8.1360   21.5410  -31.9880 C   0  0  0  0  0  0  0  0  0  0  0  0
   -7.6630   20.4890  -32.7760 C   0  0  0  0  0  0  0  0  0  0  0  0
   -6.3460   20.0350  -32.6250 C   0  0  0  0  0  0  0  0  0  0  0  0
   -5.7500   18.6810  -33.5820 S   0  0  0  0  0  0  0  0  0  0  0  0
   -6.0850   18.9270  -35.0270 O   0  0  0  0  0  0  0  0  0  0  0  0
   -6.4220   17.4090  -33.1440 O   0  0  0  0  0  0  0  0  0  0  0  0
   -4.0210   18.5460  -33.3930 N   0  0  0  0  0  0  0  0  0  0  0  0
   -3.5170   17.4260  -34.2020 C   0  0  0  0  0  0  0  0  0  0  0  0
   -1.9860   17.3710  -34.1090 C   0  0  0  0  0  0  0  0  0  0  0  0
   -1.4140   18.5860  -34.5540 O   0  0  0  0  0  0  0  0  0  0  0  0
   -1.8540   19.6510  -33.7350 C   0  0  0  0  0  0  0  0  0  0  0  0
   -3.3780   19.8020  -33.8130 C   0  0  0  0  0  0  0  0  0  0  0  0
   -5.5080   20.6410  -31.6800 C   0  0  0  0  0  0  0  0  0  0  0  0
   -3.6620   24.1840  -28.9760 C   0  0  0  0  0  0  0  0  0  0  0  0
   -4.1640   24.3180  -27.6690 C   0  0  0  0  0  0  0  0  0  0  0  0
   -3.3690   24.8640  -26.6570 C   0  0  0  0  0  0  0  0  0  0  0  0
   -2.0580   25.2760  -26.9300 C   0  0  0  0  0  0  0  0  0  0  0  0
   -1.0500   25.9470  -25.6450 S   0  0  0  0  0  0  0  0  0  0  0  0
   -0.3480   27.1750  -26.1570 O   0  0  0  0  0  0  0  0  0  0  0  0
   -1.9260   26.3600  -24.4940 O   0  0  0  0  0  0  0  0  0  0  0  0
    0.1350   24.7930  -25.0820 N   0  0  0  0  0  0  0  0  0  0  0  0
    1.2500   25.4840  -24.4060 C   0  0  0  0  0  0  0  0  0  0  0  0
    2.4980   24.5870  -24.3650 C   0  0  0  0  0  0  0  0  0  0  0  0
    2.9810   24.2070  -25.6480 O   0  0  0  0  0  0  0  0  0  0  0  0
    1.9950   24.2530  -26.6690 C   0  0  0  0  0  0  0  0  0  0  0  0
    0.5840   23.8940  -26.1690 C   0  0  0  0  0  0  0  0  0  0  0  0
   -1.5510   25.1410  -28.2290 C   0  0  0  0  0  0  0  0  0  0  0  0
   -2.3430   24.5930  -29.2410 C   0  0  0  0  0  0  0  0  0  0  0  0
   -4.8570   21.7140  -29.0920 H   0  0  0  0  0  0  0  0  0  0  0  0
   -7.6767   22.9717  -30.4257 H   0  0  0  0  0  0  0  0  0  0  0  0
   -9.1720   21.8914  -32.1055 H   0  0  0  0  0  0  0  0  0  0  0  0
   -8.3254   20.0163  -33.5161 H   0  0  0  0  0  0  0  0  0  0  0  0
   -3.9406   16.4831  -33.8259 H   0  0  0  0  0  0  0  0  0  0  0  0
   -3.8141   17.5708  -35.2512 H   0  0  0  0  0  0  0  0  0  0  0  0
   -1.6938   17.1961  -33.0630 H   0  0  0  0  0  0  0  0  0  0  0  0
   -1.6220   16.5536  -34.7487 H   0  0  0  0  0  0  0  0  0  0  0  0
   -1.5642   19.4488  -32.6933 H   0  0  0  0  0  0  0  0  0  0  0  0
   -1.3881   20.5832  -34.0871 H   0  0  0  0  0  0  0  0  0  0  0  0
   -3.6995   20.6178  -33.1488 H   0  0  0  0  0  0  0  0  0  0  0  0
   -3.6696   20.0333  -34.8481 H   0  0  0  0  0  0  0  0  0  0  0  0
   -4.4807   20.2712  -31.5462 H   0  0  0  0  0  0  0  0  0  0  0  0
   -5.1893   23.9909  -27.4415 H   0  0  0  0  0  0  0  0  0  0  0  0
   -3.7751   24.9708  -25.6403 H   0  0  0  0  0  0  0  0  0  0  0  0
    1.4871   26.4084  -24.9531 H   0  0  0  0  0  0  0  0  0  0  0  0
    0.9482   25.7187  -23.3746 H   0  0  0  0  0  0  0  0  0  0  0  0
    3.2979   25.1313  -23.8418 H   0  0  0  0  0  0  0  0  0  0  0  0
    2.2068   23.6608  -23.8479 H   0  0  0  0  0  0  0  0  0  0  0  0
    1.9697   25.2712  -27.0844 H   0  0  0  0  0  0  0  0  0  0  0  0
    2.2733   23.5039  -27.4249 H   0  0  0  0  0  0  0  0  0  0  0  0
   -0.1213   23.9732  -27.0094 H   0  0  0  0  0  0  0  0  0  0  0  0
    0.6154   22.8691  -25.7708 H   0  0  0  0  0  0  0  0  0  0  0  0
   -0.5249   25.4679  -28.4531 H   0  0  0  0  0  0  0  0  0  0  0  0
   -1.9309   24.4804  -30.2547 H   0  0  0  0  0  0  0  0  0  0  0  0
  1  2  2  0
  2  3  1  0
  3  4  1  0
  4  5  2  0
  5  6  1  0
  6  7  2  0
  7  8  1  0
  8  9  1  0
  9 10  2  0
  9 11  2  0
  9 12  1  0
 12 13  1  0
 13 14  1  0
 14 15  1  0
 15 16  1  0
 16 17  1  0
  8 18  2  0
  2 19  1  0
 19 20  2  0
 20 21  1  0
 21 22  2  0
 22 23  1  0
 23 24  2  0
 23 25  2  0
 23 26  1  0
 26 27  1  0
 27 28  1  0
 28 29  1  0
 29 30  1  0
 30 31  1  0
 22 32  1  0
 32 33  2  0
 18  4  1  0
 33 19  1  0
 17 12  1  0
 31 26  1  0
  3 34  1  0
  5 35  1  0
  6 36  1  0
  7 37  1  0
 13 38  1  0
 13 39  1  0
 14 40  1  0
 14 41  1  0
 16 42  1  0
 16 43  1  0
 17 44  1  0
 17 45  1  0
 18 46  1  0
 20 47  1  0
 21 48  1  0
 27 49  1  0
 27 50  1  0
 28 51  1  0
 28 52  1  0
 30 53  1  0
 30 54  1  0
 31 55  1  0
 31 56  1  0
 32 57  1  0
 33 58  1  0
M  END
>  <UniqueID>  (27) 
25

>  <SMILES>  (27) 
O=C(Nc1cccc(S(=O)(=O)N2CCOCC2)c1)c1ccc(S(=O)(=O)N2CCOCC2)cc1

>  <Energy>  (27) 
79.03868594120131

>  <Genealogy>  (27) 
O=C(Nc1cccc(S(=O)(=O)N2CCOCC2)c1)c1ccc(S(=O)(=O)N2CCOCC2)cc1 (3D coordinates assigned)
O=C(Nc1cccc(S(=O)(=O)N2CCOCC2)c1)c1ccc(S(=O)(=O)N2CCOCC2)cc1 (nonaromatic ring conformer: 79.03868594120131 kcal/mol)

>  <smiles>  (27) 
O=C(Nc1cccc(S(=O)(=O)N2CCOCC2)c1)c1ccc(S(=O)(=O)N2CCOCC2)cc1

>  <score_type>  (27) 
oracle

>  <origin>  (27) 
adgpu

>  <m_score__min__energy>  (27) 
-10.32

>  <m_primary>  (27) 
energy

$$$$
27:0
     RDKit          3D

 58 60  0  0  1  0  0  0  0  0999 V2000
   -9.0210   19.2260  -31.7090 C   0  0  0  0  0  0  0  0  0  0  0  0
   -7.8400   18.3370  -32.0260 C   0  0  0  0  0  0  0  0  0  0  0  0
   -7.4010   18.4590  -33.3830 N   0  0  0  0  0  0  0  0  0  0  0  0
   -5.6850   18.5550  -33.5440 S   0  0  0  0  0  0  0  0  0  0  0  0
   -4.9970   17.4300  -32.8490 O   0  0  0  0  0  0  0  0  0  0  0  0
   -5.3550   18.5680  -35.0050 O   0  0  0  0  0  0  0  0  0  0  0  0
   -5.1100   20.0320  -32.8250 C   0  0  0  0  0  0  0  0  0  0  0  0
   -3.7960   20.4410  -32.8760 C   0  0  0  0  0  0  0  0  0  0  0  0
   -3.3810   21.6380  -32.2830 C   0  0  0  0  0  0  0  0  0  0  0  0
   -4.2750   22.4520  -31.6250 C   0  0  0  0  0  0  0  0  0  0  0  0
   -3.8690   23.6720  -31.0160 N   0  0  0  0  0  0  0  0  0  0  0  0
   -3.2000   23.6270  -29.9120 C   0  0  0  0  0  0  0  0  0  0  0  0
   -2.9010   22.4160  -29.3620 N   0  0  0  0  0  0  0  0  0  0  0  0
   -2.2050   22.4520  -28.2180 C   0  0  0  0  0  0  0  0  0  0  0  0
   -1.8580   21.1370  -27.5820 C   0  0  0  0  0  0  0  0  0  0  0  0
   -1.7930   23.5920  -27.5930 C   0  0  0  0  0  0  0  0  0  0  0  0
   -0.8190   23.5530  -25.9890 Br  0  0  0  0  0  0  0  0  0  0  0  0
   -2.1050   24.7970  -28.1650 C   0  0  0  0  0  0  0  0  0  0  0  0
   -1.7910   25.9370  -27.7040 N   0  0  0  0  0  0  0  0  0  0  0  0
   -1.0630   26.1530  -26.5150 C   0  0  0  0  0  0  0  0  0  0  0  0
   -1.7810   26.3390  -25.3250 C   0  0  0  0  0  0  0  0  0  0  0  0
   -1.0650   26.6050  -24.1610 C   0  0  0  0  0  0  0  0  0  0  0  0
    0.3200   26.6780  -24.2070 C   0  0  0  0  0  0  0  0  0  0  0  0
    0.9550   26.9510  -23.0100 O   0  0  0  0  0  0  0  0  0  0  0  0
    1.0500   26.4990  -25.3530 C   0  0  0  0  0  0  0  0  0  0  0  0
    2.7790   26.5360  -25.4710 S   0  0  0  0  0  0  0  0  0  0  0  0
    3.2100   27.9690  -25.6580 O   0  0  0  0  0  0  0  0  0  0  0  0
    3.3490   26.0770  -24.1360 O   0  0  0  0  0  0  0  0  0  0  0  0
    3.4330   25.5470  -26.7740 C   0  0  0  0  0  0  0  0  0  0  0  0
    2.7920   24.2160  -26.9400 C   0  0  0  0  0  0  0  0  0  0  0  0
    0.3120   26.2330  -26.5130 C   0  0  0  0  0  0  0  0  0  0  0  0
   -2.8110   24.7740  -29.3260 N   0  0  0  0  0  0  0  0  0  0  0  0
   -5.5920   22.0210  -31.5850 C   0  0  0  0  0  0  0  0  0  0  0  0
   -6.0210   20.8520  -32.1600 C   0  0  0  0  0  0  0  0  0  0  0  0
   -9.1337   19.3108  -30.6181 H   0  0  0  0  0  0  0  0  0  0  0  0
   -8.8542   20.2246  -32.1391 H   0  0  0  0  0  0  0  0  0  0  0  0
   -9.9345   18.7894  -32.1391 H   0  0  0  0  0  0  0  0  0  0  0  0
   -7.0069   18.6095  -31.3615 H   0  0  0  0  0  0  0  0  0  0  0  0
   -8.1599   17.2955  -31.8743 H   0  0  0  0  0  0  0  0  0  0  0  0
   -7.8060   19.3470  -33.7530 H   0  0  0  0  0  0  0  0  0  0  0  0
   -3.0567   19.8127  -33.3943 H   0  0  0  0  0  0  0  0  0  0  0  0
   -2.3232   21.9336  -32.3435 H   0  0  0  0  0  0  0  0  0  0  0  0
   -3.1820   21.5170  -29.7810 H   0  0  0  0  0  0  0  0  0  0  0  0
   -1.8853   21.2406  -26.4872 H   0  0  0  0  0  0  0  0  0  0  0  0
   -2.5856   20.3743  -27.8964 H   0  0  0  0  0  0  0  0  0  0  0  0
   -0.8488   20.8326  -27.8964 H   0  0  0  0  0  0  0  0  0  0  0  0
   -2.8791   26.2765  -25.3115 H   0  0  0  0  0  0  0  0  0  0  0  0
   -1.5948   26.7566  -23.2090 H   0  0  0  0  0  0  0  0  0  0  0  0
    1.7090   26.3310  -22.7280 H   0  0  0  0  0  0  0  0  0  0  0  0
    3.3134   26.1024  -27.7159 H   0  0  0  0  0  0  0  0  0  0  0  0
    4.4828   25.3501  -26.5109 H   0  0  0  0  0  0  0  0  0  0  0  0
    2.5837   23.7834  -25.9503 H   0  0  0  0  0  0  0  0  0  0  0  0
    1.8498   24.3296  -27.4962 H   0  0  0  0  0  0  0  0  0  0  0  0
    3.4682   23.5502  -27.4962 H   0  0  0  0  0  0  0  0  0  0  0  0
    0.8515   26.0820  -27.4596 H   0  0  0  0  0  0  0  0  0  0  0  0
   -3.0680   25.6730  -29.7930 H   0  0  0  0  0  0  0  0  0  0  0  0
   -6.3309   22.6488  -31.0654 H   0  0  0  0  0  0  0  0  0  0  0  0
   -7.0803   20.5622  -32.0968 H   0  0  0  0  0  0  0  0  0  0  0  0
  1  2  1  0
  2  3  1  0
  3  4  1  0
  4  5  2  0
  4  6  2  0
  4  7  1  0
  7  8  2  0
  8  9  1  0
  9 10  2  0
 10 11  1  0
 11 12  2  0
 12 13  1  0
 13 14  1  0
 14 15  1  0
 14 16  2  0
 16 17  1  0
 16 18  1  0
 18 19  2  0
 19 20  1  0
 20 21  2  0
 21 22  1  0
 22 23  2  0
 23 24  1  0
 23 25  1  0
 25 26  1  0
 26 27  2  0
 26 28  2  0
 26 29  1  0
 29 30  1  0
 25 31  2  0
 18 32  1  0
 10 33  1  0
 33 34  2  0
 34  7  1  0
 32 12  1  0
 31 20  1  0
  1 35  1  0
  1 36  1  0
  1 37  1  0
  2 38  1  0
  2 39  1  0
  3 40  1  0
  8 41  1  0
  9 42  1  0
 13 43  1  0
 15 44  1  0
 15 45  1  0
 15 46  1  0
 21 47  1  0
 22 48  1  0
 24 49  1  0
 29 50  1  0
 29 51  1  0
 30 52  1  0
 30 53  1  0
 30 54  1  0
 31 55  1  0
 32 56  1  0
 33 57  1  0
 34 58  1  0
M  END
>  <smiles>  (28) 
CCNS(=O)(=O)c1ccc(N=c2[nH]c(C)c(Br)c(=Nc3ccc(O)c(S(=O)(=O)CC)c3)[nH]2)cc1

>  <score_type>  (28) 
oracle

>  <origin>  (28) 
adgpu

>  <m_score__min__energy>  (28) 
-10.06

>  <m_primary>  (28) 
energy

$$$$
28:0
     RDKit          3D

 64 67  0  0  0  0  0  0  0  0999 V2000
   -6.1720   24.6000  -31.5890 C   0  0  0  0  0  0  0  0  0  0  0  0
   -6.1030   23.3420  -30.8300 N   0  0  0  0  0  0  0  0  0  0  0  0
   -7.4520   22.7580  -30.6190 C   0  0  0  0  0  0  0  0  0  0  0  0
   -7.7220   21.5620  -31.5390 C   0  0  0  0  0  0  0  0  0  0  0  0
   -6.7410   20.4780  -31.3130 N   0  0  0  0  0  0  0  0  0  0  0  0
   -6.7280   19.3910  -32.6830 S   0  0  0  0  0  0  0  0  0  0  0  0
   -7.4650   20.0160  -33.8370 O   0  0  0  0  0  0  0  0  0  0  0  0
   -7.4080   18.0950  -32.3300 O   0  0  0  0  0  0  0  0  0  0  0  0
   -5.0650   19.0760  -33.1760 C   0  0  0  0  0  0  0  0  0  0  0  0
   -4.3260   20.0670  -33.8350 C   0  0  0  0  0  0  0  0  0  0  0  0
   -2.9990   19.8300  -34.2020 C   0  0  0  0  0  0  0  0  0  0  0  0
   -2.3850   18.6140  -33.8870 C   0  0  0  0  0  0  0  0  0  0  0  0
   -1.0420   18.4260  -34.2400 O   0  0  0  0  0  0  0  0  0  0  0  0
   -0.2240   19.4540  -34.7140 C   0  0  0  0  0  0  0  0  0  0  0  0
    0.2660   19.3840  -36.0230 C   0  0  0  0  0  0  0  0  0  0  0  0
    1.1160   20.3760  -36.5150 C   0  0  0  0  0  0  0  0  0  0  0  0
    1.4920   21.4530  -35.6950 C   0  0  0  0  0  0  0  0  0  0  0  0
    2.3590   22.4980  -36.1590 N   0  0  0  0  0  0  0  0  0  0  0  0
    1.9870   23.8520  -36.4530 C   0  0  0  0  0  0  0  0  0  0  0  0
    2.6980   24.5560  -37.2180 O   0  0  0  0  0  0  0  0  0  0  0  0
    0.8490   24.4160  -35.7880 N   0  0  0  0  0  0  0  0  0  0  0  0
    0.3030   25.7170  -36.0680 C   0  0  0  0  0  0  0  0  0  0  0  0
   -0.7570   25.8320  -36.9790 C   0  0  0  0  0  0  0  0  0  0  0  0
   -1.2840   27.0840  -37.3000 C   0  0  0  0  0  0  0  0  0  0  0  0
   -0.7540   28.2390  -36.7170 C   0  0  0  0  0  0  0  0  0  0  0  0
    0.3090   28.1490  -35.8010 C   0  0  0  0  0  0  0  0  0  0  0  0
    0.9320   29.3940  -35.2200 C   0  0  0  0  0  0  0  0  0  0  0  0
    2.2650   29.4420  -35.5810 F   0  0  0  0  0  0  0  0  0  0  0  0
    0.2960   30.5310  -35.6880 F   0  0  0  0  0  0  0  0  0  0  0  0
    0.8380   29.3820  -33.8400 F   0  0  0  0  0  0  0  0  0  0  0  0
    0.8530   26.8850  -35.5060 C   0  0  0  0  0  0  0  0  0  0  0  0
    0.9700   21.5470  -34.4000 C   0  0  0  0  0  0  0  0  0  0  0  0
    0.0980   20.5620  -33.8980 C   0  0  0  0  0  0  0  0  0  0  0  0
   -0.4400   20.6740  -32.4860 C   0  0  0  0  0  0  0  0  0  0  0  0
   -0.6410   19.4140  -31.9450 F   0  0  0  0  0  0  0  0  0  0  0  0
    0.4650   21.3670  -31.7020 F   0  0  0  0  0  0  0  0  0  0  0  0
   -1.6510   21.3430  -32.4620 F   0  0  0  0  0  0  0  0  0  0  0  0
   -3.1280   17.6160  -33.2310 C   0  0  0  0  0  0  0  0  0  0  0  0
   -4.4620   17.8450  -32.8850 C   0  0  0  0  0  0  0  0  0  0  0  0
   -5.3760   20.9660  -30.9970 C   0  0  0  0  0  0  0  0  0  0  0  0
   -5.1430   22.4100  -31.4650 C   0  0  0  0  0  0  0  0  0  0  0  0
   -6.2185   25.4480  -30.8899 H   0  0  0  0  0  0  0  0  0  0  0  0
   -5.2777   24.6956  -32.2224 H   0  0  0  0  0  0  0  0  0  0  0  0
   -7.0713   24.5972  -32.2224 H   0  0  0  0  0  0  0  0  0  0  0  0
   -7.5331   22.4249  -29.5738 H   0  0  0  0  0  0  0  0  0  0  0  0
   -8.1941   23.5354  -30.8533 H   0  0  0  0  0  0  0  0  0  0  0  0
   -8.7332   21.1776  -31.3396 H   0  0  0  0  0  0  0  0  0  0  0  0
   -7.6327   21.8992  -32.5822 H   0  0  0  0  0  0  0  0  0  0  0  0
   -4.7927   21.0363  -34.0646 H   0  0  0  0  0  0  0  0  0  0  0  0
   -2.4341   20.6043  -34.7418 H   0  0  0  0  0  0  0  0  0  0  0  0
   -0.0208   18.5411  -36.6690 H   0  0  0  0  0  0  0  0  0  0  0  0
    1.4922   20.3143  -37.5468 H   0  0  0  0  0  0  0  0  0  0  0  0
    0.4440   23.8740  -34.9910 H   0  0  0  0  0  0  0  0  0  0  0  0
   -1.1766   24.9280  -37.4445 H   0  0  0  0  0  0  0  0  0  0  0  0
   -2.1179   27.1621  -38.0131 H   0  0  0  0  0  0  0  0  0  0  0  0
   -1.1708   29.2234  -36.9763 H   0  0  0  0  0  0  0  0  0  0  0  0
    1.7169   26.8087  -34.8293 H   0  0  0  0  0  0  0  0  0  0  0  0
    1.2448   22.4024  -33.7653 H   0  0  0  0  0  0  0  0  0  0  0  0
   -2.6570   16.6517  -32.9895 H   0  0  0  0  0  0  0  0  0  0  0  0
   -5.0410   17.0563  -32.3824 H   0  0  0  0  0  0  0  0  0  0  0  0
   -5.2287   20.9204  -29.9079 H   0  0  0  0  0  0  0  0  0  0  0  0
   -4.6602   20.3230  -31.5300 H   0  0  0  0  0  0  0  0  0  0  0  0
   -4.1197   22.7126  -31.1982 H   0  0  0  0  0  0  0  0  0  0  0  0
   -5.2886   22.4500  -32.5546 H   0  0  0  0  0  0  0  0  0  0  0  0
  1  2  1  0
  2  3  1  0
  3  4  1  0
  4  5  1  0
  5  6  1  0
  6  7  2  0
  6  8  2  0
  6  9  1  0
  9 10  2  0
 10 11  1  0
 11 12  2  0
 12 13  1  0
 13 14  1  0
 14 15  2  0
 15 16  1  0
 16 17  2  0
 17 18  1  0
 18 19  1  0
 19 20  2  0
 19 21  1  0
 21 22  1  0
 22 23  2  0
 23 24  1  0
 24 25  2  0
 25 26  1  0
 26 27  1  0
 27 28  1  0
 27 29  1  0
 27 30  1  0
 26 31  2  0
 17 32  1  0
 32 33  2  0
 33 34  1  0
 34 35  1  0
 34 36  1  0
 34 37  1  0
 12 38  1  0
 38 39  2  0
  5 40  1  0
 40 41  1  0
 41  2  1  0
 39  9  1  0
 33 14  1  0
 31 22  1  0
  1 42  1  0
  1 43  1  0
  1 44  1  0
  3 45  1  0
  3 46  1  0
  4 47  1  0
  4 48  1  0
 10 49  1  0
 11 50  1  0
 15 51  1  0
 16 52  1  0
 21 53  1  0
 23 54  1  0
 24 55  1  0
 25 56  1  0
 31 57  1  0
 32 58  1  0
 38 59  1  0
 39 60  1  0
 40 61  1  0
 40 62  1  0
 41 63  1  0
 41 64  1  0
M  CHG  1  18  -1
M  END
>  <UniqueID>  (29) 
26

>  <SMILES>  (29) 
CN1CCN(S(=O)(=O)c2ccc(Oc3ccc([N-]C(=O)Nc4cccc(C(F)(F)F)c4)cc3C(F)(F)F)cc2)CC1

>  <Energy>  (29) 
95.52287037693911

>  <Genealogy>  (29) 
CN1CCN(S(=O)(=O)c2ccc(Oc3ccc([N-]C(=O)Nc4cccc(C(F)(F)F)c4)cc3C(F)(F)F)cc2)CC1 (protonated)
CN1CCN(S(=O)(=O)c2ccc(Oc3ccc([N-]C(=O)Nc4cccc(C(F)(F)F)c4)cc3C(F)(F)F)cc2)CC1 (3D coordinates assigned)
CN1CCN(S(=O)(=O)c2ccc(Oc3ccc([N-]C(=O)Nc4cccc(C(F)(F)F)c4)cc3C(F)(F)F)cc2)CC1 (nonaromatic ring conformer: 95.52287037693911 kcal/mol)

>  <smiles>  (29) 
CN1CCN(S(=O)(=O)c2ccc(Oc3ccc(NC(=O)Nc4cccc(C(F)(F)F)c4)cc3C(F)(F)F)cc2)CC1

>  <score_type>  (29) 
oracle

>  <origin>  (29) 
adgpu

>  <m_score__min__energy>  (29) 
-10.84

>  <m_primary>  (29) 
energy

$$$$
29:0
     RDKit          3D

 64 68  0  0  0  0  0  0  0  0999 V2000
   -3.2880   22.6700  -27.6290 C   0  0  0  0  0  0  0  0  0  0  0  0
   -3.9110   23.3990  -28.7900 C   0  0  0  0  0  0  0  0  0  0  0  0
   -5.1610   22.9910  -29.2800 C   0  0  0  0  0  0  0  0  0  0  0  0
   -5.7520   23.6570  -30.3630 C   0  0  0  0  0  0  0  0  0  0  0  0
   -7.1110   23.2460  -30.8610 C   0  0  0  0  0  0  0  0  0  0  0  0
   -7.0340   21.8940  -31.5200 C   0  0  0  0  0  0  0  0  0  0  0  0
   -8.1110   21.0050  -31.4270 C   0  0  0  0  0  0  0  0  0  0  0  0
   -8.0730   19.7570  -32.0690 C   0  0  0  0  0  0  0  0  0  0  0  0
   -9.2690   18.8450  -31.9420 C   0  0  0  0  0  0  0  0  0  0  0  0
   -6.9440   19.4050  -32.8550 C   0  0  0  0  0  0  0  0  0  0  0  0
   -5.8550   20.3170  -32.9500 C   0  0  0  0  0  0  0  0  0  0  0  0
   -5.9190   21.5510  -32.2920 C   0  0  0  0  0  0  0  0  0  0  0  0
   -4.6590   20.0430  -33.8430 C   0  0  0  0  0  0  0  0  0  0  0  0
   -4.5310   18.5500  -34.2160 C   0  0  2  0  0  0  0  0  0  0  0  0
   -5.9100   18.0910  -34.7310 C   0  0  0  0  0  0  0  0  0  0  0  0
   -6.8520   18.0320  -33.5240 C   0  0  1  0  0  0  0  0  0  0  0  0
   -6.3630   16.9580  -32.5130 C   0  0  0  0  0  0  0  0  0  0  0  0
   -4.8860   16.5600  -32.7200 C   0  0  0  0  0  0  0  0  0  0  0  0
   -4.0550   17.7460  -33.0380 N   0  0  1  0  0  0  0  0  0  0  0  0
   -2.6450   17.4100  -33.1520 C   0  0  0  0  0  0  0  0  0  0  0  0
   -2.2890   16.2210  -32.9140 O   0  0  0  0  0  0  0  0  0  0  0  0
   -1.5860   18.3900  -33.5360 C   0  0  0  0  0  0  0  0  0  0  0  0
   -0.7460   18.2000  -34.6500 C   0  0  0  0  0  0  0  0  0  0  0  0
    0.2310   19.1470  -34.9750 C   0  0  0  0  0  0  0  0  0  0  0  0
    0.3820   20.3010  -34.1990 C   0  0  0  0  0  0  0  0  0  0  0  0
    1.3950   21.2580  -34.5200 N   0  0  0  0  0  0  0  0  0  0  0  0
   -0.4630   20.5090  -33.1030 C   0  0  0  0  0  0  0  0  0  0  0  0
   -1.4410   19.5660  -32.7780 C   0  0  0  0  0  0  0  0  0  0  0  0
   -5.0810   24.7470  -30.9310 C   0  0  0  0  0  0  0  0  0  0  0  0
   -3.8690   25.1280  -30.4520 N   0  0  0  0  0  0  0  0  0  0  0  0
   -3.2630   24.4900  -29.4120 C   0  0  0  0  0  0  0  0  0  0  0  0
   -1.9260   24.9830  -28.9450 C   0  0  0  0  0  0  0  0  0  0  0  0
   -3.6558   23.1004  -26.6859 H   0  0  0  0  0  0  0  0  0  0  0  0
   -3.5593   21.6051  -27.6765 H   0  0  0  0  0  0  0  0  0  0  0  0
   -2.1938   22.7721  -27.6765 H   0  0  0  0  0  0  0  0  0  0  0  0
   -5.6809   22.1426  -28.8111 H   0  0  0  0  0  0  0  0  0  0  0  0
   -7.8100   23.1980  -30.0130 H   0  0  0  0  0  0  0  0  0  0  0  0
   -7.4637   23.9849  -31.5956 H   0  0  0  0  0  0  0  0  0  0  0  0
   -8.9992   21.2879  -30.8430 H   0  0  0  0  0  0  0  0  0  0  0  0
   -9.4901   18.6764  -30.8777 H   0  0  0  0  0  0  0  0  0  0  0  0
  -10.1388   19.3112  -32.4279 H   0  0  0  0  0  0  0  0  0  0  0  0
   -9.0496   17.8828  -32.4279 H   0  0  0  0  0  0  0  0  0  0  0  0
   -5.0824   22.2594  -32.3831 H   0  0  0  0  0  0  0  0  0  0  0  0
   -4.7667   20.6298  -34.7672 H   0  0  0  0  0  0  0  0  0  0  0  0
   -3.7537   20.3280  -33.2870 H   0  0  0  0  0  0  0  0  0  0  0  0
   -3.7783   18.3968  -35.0034 H   0  0  0  0  0  0  0  0  0  0  0  0
   -6.2926   18.8082  -35.4721 H   0  0  0  0  0  0  0  0  0  0  0  0
   -5.8362   17.1061  -35.2153 H   0  0  0  0  0  0  0  0  0  0  0  0
   -7.8568   17.7492  -33.8709 H   0  0  0  0  0  0  0  0  0  0  0  0
   -6.4786   17.3574  -31.4946 H   0  0  0  0  0  0  0  0  0  0  0  0
   -6.9715   16.0557  -32.6729 H   0  0  0  0  0  0  0  0  0  0  0  0
   -4.5073   16.0919  -31.7994 H   0  0  0  0  0  0  0  0  0  0  0  0
   -4.8280   15.8556  -33.5629 H   0  0  0  0  0  0  0  0  0  0  0  0
   -4.1300   18.3360  -32.1750 H   0  0  0  0  0  0  0  0  0  0  0  0
   -0.8591   17.2987  -35.2704 H   0  0  0  0  0  0  0  0  0  0  0  0
    0.8838   18.9833  -35.8451 H   0  0  0  0  0  0  0  0  0  0  0  0
    1.1470   22.1670  -34.9720 H   0  0  0  0  0  0  0  0  0  0  0  0
    2.3940   21.0820  -34.2690 H   0  0  0  0  0  0  0  0  0  0  0  0
   -0.3566   21.4193  -32.4946 H   0  0  0  0  0  0  0  0  0  0  0  0
   -2.1052   19.7451  -31.9197 H   0  0  0  0  0  0  0  0  0  0  0  0
   -5.5372   25.2962  -31.7678 H   0  0  0  0  0  0  0  0  0  0  0  0
   -1.9021   24.9918  -27.8453 H   0  0  0  0  0  0  0  0  0  0  0  0
   -1.1368   24.3167  -29.3236 H   0  0  0  0  0  0  0  0  0  0  0  0
   -1.7583   26.0021  -29.3236 H   0  0  0  0  0  0  0  0  0  0  0  0
  1  2  1  0
  2  3  2  0
  3  4  1  0
  4  5  1  0
  5  6  1  0
  6  7  2  0
  7  8  1  0
  8  9  1  0
  8 10  2  0
 10 11  1  0
 11 12  2  0
 11 13  1  0
 13 14  1  0
 14 15  1  0
 15 16  1  0
 16 17  1  0
 17 18  1  0
 18 19  1  0
 19 20  1  0
 20 21  2  0
 20 22  1  0
 22 23  2  0
 23 24  1  0
 24 25  2  0
 25 26  1  0
 25 27  1  0
 27 28  2  0
  4 29  2  0
 29 30  1  0
 30 31  2  0
 31 32  1  0
 31  2  1  0
 12  6  1  0
 19 14  1  0
 28 22  1  0
 16 10  1  0
  1 33  1  0
  1 34  1  0
  1 35  1  0
  3 36  1  0
  5 37  1  0
  5 38  1  0
  7 39  1  0
  9 40  1  0
  9 41  1  0
  9 42  1  0
 12 43  1  0
 13 44  1  0
 13 45  1  0
 14 46  1  6
 15 47  1  0
 15 48  1  0
 16 49  1  6
 17 50  1  0
 17 51  1  0
 18 52  1  0
 18 53  1  0
 19 54  1  1
 23 55  1  0
 24 56  1  0
 26 57  1  0
 26 58  1  0
 27 59  1  0
 28 60  1  0
 29 61  1  0
 32 62  1  0
 32 63  1  0
 32 64  1  0
M  CHG  1  19   1
M  END
>  <UniqueID>  (30) 
27

>  <SMILES>  (30) 
Cc1cc(Cc2cc(C)c3c(c2)C[C@@H]2C[C@H]3CC[NH+]2C(=O)c2ccc(N)cc2)cnc1C

>  <Energy>  (30) 
90.22214553292241

>  <Genealogy>  (30) 
Cc1cc(Cc2cc(C)c3c(c2)CC2CC3CC[NH+]2C(=O)c2ccc(N)cc2)cnc1C (protonated)
Cc1cc(Cc2cc(C)c3c(c2)C[C@@H]2C[C@H]3CC[NH+]2C(=O)c2ccc(N)cc2)cnc1C (chirality)
Cc1cc(Cc2cc(C)c3c(c2)C[C@@H]2C[C@H]3CC[NH+]2C(=O)c2ccc(N)cc2)cnc1C (3D coordinates assigned)
Cc1cc(Cc2cc(C)c3c(c2)C[C@@H]2C[C@H]3CC[NH+]2C(=O)c2ccc(N)cc2)cnc1C (nonaromatic ring conformer: 90.22214553292241 kcal/mol)

>  <smiles>  (30) 
Cc1cc(Cc2cc(C)c3c(c2)CC2CC3CCN2C(=O)c2ccc(N)cc2)cnc1C

>  <score_type>  (30) 
oracle

>  <origin>  (30) 
adgpu

>  <m_score__min__energy>  (30) 
-10.1

>  <m_primary>  (30) 
energy

$$$$
30:0
     RDKit          3D

 37 38  0  0  0  0  0  0  0  0999 V2000
   -0.5130   19.0920  -29.6370 C   0  0  0  0  0  0  0  0  0  0  0  0
   -1.2090   20.4200  -29.6020 C   0  0  0  0  0  0  0  0  0  0  0  0
   -2.1250   20.7050  -28.5780 C   0  0  0  0  0  0  0  0  0  0  0  0
   -2.7370   21.9600  -28.5070 C   0  0  0  0  0  0  0  0  0  0  0  0
   -2.4290   22.9470  -29.4530 C   0  0  0  0  0  0  0  0  0  0  0  0
   -3.1260   24.5610  -29.3310 S   0  0  0  0  0  0  0  0  0  0  0  0
   -2.0690   25.5650  -28.9630 O   0  0  0  0  0  0  0  0  0  0  0  0
   -4.1730   24.5510  -28.2540 O   0  0  0  0  0  0  0  0  0  0  0  0
   -3.8670   25.0210  -30.8390 N   0  0  0  0  0  0  0  0  0  0  0  0
   -5.3280   24.9310  -30.7680 C   0  0  0  0  0  0  0  0  0  0  0  0
   -5.8040   23.5710  -31.2050 C   0  0  0  0  0  0  0  0  0  0  0  0
   -7.1460   23.1950  -31.0320 C   0  0  0  0  0  0  0  0  0  0  0  0
   -7.5940   21.9500  -31.4860 C   0  0  0  0  0  0  0  0  0  0  0  0
   -6.7030   21.0630  -32.1060 C   0  0  0  0  0  0  0  0  0  0  0  0
   -7.2540   19.4930  -32.6850 S   0  0  0  0  0  0  0  0  0  0  0  0
   -8.9280   19.5730  -33.1140 N   0  0  0  0  0  0  0  0  0  0  0  0
   -7.0790   18.4530  -31.6140 O   0  0  0  0  0  0  0  0  0  0  0  0
   -6.4460   19.0960  -33.8870 O   0  0  0  0  0  0  0  0  0  0  0  0
   -5.3580   21.4250  -32.2540 C   0  0  0  0  0  0  0  0  0  0  0  0
   -4.9100   22.6710  -31.8060 C   0  0  0  0  0  0  0  0  0  0  0  0
   -1.5170   22.6640  -30.4790 C   0  0  0  0  0  0  0  0  0  0  0  0
   -0.9040   21.4090  -30.5490 C   0  0  0  0  0  0  0  0  0  0  0  0
   -0.3316   18.7459  -28.6087 H   0  0  0  0  0  0  0  0  0  0  0  0
   -1.1440   18.3611  -30.1640 H   0  0  0  0  0  0  0  0  0  0  0  0
    0.4471   19.1950  -30.1640 H   0  0  0  0  0  0  0  0  0  0  0  0
   -2.3628   19.9370  -27.8272 H   0  0  0  0  0  0  0  0  0  0  0  0
   -3.4615   22.1731  -27.7072 H   0  0  0  0  0  0  0  0  0  0  0  0
   -5.6499   25.1094  -29.7314 H   0  0  0  0  0  0  0  0  0  0  0  0
   -5.7599   25.6874  -31.4398 H   0  0  0  0  0  0  0  0  0  0  0  0
   -7.8479   23.8825  -30.5373 H   0  0  0  0  0  0  0  0  0  0  0  0
   -8.6488   21.6661  -31.3561 H   0  0  0  0  0  0  0  0  0  0  0  0
   -9.0030   20.2080  -33.9380 H   0  0  0  0  0  0  0  0  0  0  0  0
   -9.2120   18.6220  -33.4380 H   0  0  0  0  0  0  0  0  0  0  0  0
   -4.6513   20.7258  -32.7248 H   0  0  0  0  0  0  0  0  0  0  0  0
   -3.8520   22.9475  -31.9250 H   0  0  0  0  0  0  0  0  0  0  0  0
   -1.2827   23.4314  -31.2315 H   0  0  0  0  0  0  0  0  0  0  0  0
   -0.1801   21.1966  -31.3495 H   0  0  0  0  0  0  0  0  0  0  0  0
  1  2  1  0
  2  3  2  0
  3  4  1  0
  4  5  2  0
  5  6  1  0
  6  7  2  0
  6  8  2  0
  6  9  1  0
  9 10  1  0
 10 11  1  0
 11 12  2  0
 12 13  1  0
 13 14  2  0
 14 15  1  0
 15 16  1  0
 15 17  2  0
 15 18  2  0
 14 19  1  0
 19 20  2  0
  5 21  1  0
 21 22  2  0
 22  2  1  0
 20 11  1  0
  1 23  1  0
  1 24  1  0
  1 25  1  0
  3 26  1  0
  4 27  1  0
 10 28  1  0
 10 29  1  0
 12 30  1  0
 13 31  1  0
 16 32  1  0
 16 33  1  0
 19 34  1  0
 20 35  1  0
 21 36  1  0
 22 37  1  0
M  CHG  1   9  -1
M  END
>  <UniqueID>  (31) 
28

>  <SMILES>  (31) 
Cc1ccc(S(=O)(=O)[N-]Cc2ccc(S(N)(=O)=O)cc2)cc1

>  <Energy>  (31) 
29.159783494450387

>  <Genealogy>  (31) 
Cc1ccc(S(=O)(=O)[N-]Cc2ccc(S(N)(=O)=O)cc2)cc1 (protonated)
Cc1ccc(S(=O)(=O)[N-]Cc2ccc(S(N)(=O)=O)cc2)cc1 (3D coordinates assigned)
Cc1ccc(S(=O)(=O)[N-]Cc2ccc(S(N)(=O)=O)cc2)cc1 (optimized conformer: 29.159783494450387 kcal/mol)

>  <smiles>  (31) 
Cc1ccc(S(=O)(=O)NCc2ccc(S(N)(=O)=O)cc2)cc1

>  <score_type>  (31) 
oracle

>  <origin>  (31) 
adgpu

>  <m_score__min__energy>  (31) 
-10.109999999999999

>  <m_primary>  (31) 
energy

$$$$
31:0
     RDKit          3D

 62 65  0  0  0  0  0  0  0  0999 V2000
   -3.1000   20.7630  -31.2150 O   0  0  0  0  0  0  0  0  0  0  0  0
   -2.4680   21.3130  -30.2700 C   0  0  0  0  0  0  0  0  0  0  0  0
   -3.0170   22.4760  -29.6210 N   0  0  0  0  0  0  0  0  0  0  0  0
   -4.2170   23.1380  -30.0600 C   0  0  0  0  0  0  0  0  0  0  0  0
   -5.3600   22.4020  -30.4210 C   0  0  0  0  0  0  0  0  0  0  0  0
   -6.5170   23.0560  -30.8630 C   0  0  0  0  0  0  0  0  0  0  0  0
   -7.9630   22.1320  -31.2670 S   0  0  0  0  0  0  0  0  0  0  0  0
   -8.7370   22.8440  -32.3420 O   0  0  0  0  0  0  0  0  0  0  0  0
   -8.8310   22.0290  -30.0430 O   0  0  0  0  0  0  0  0  0  0  0  0
   -7.5140   20.5330  -31.8040 N   0  0  0  0  0  0  0  0  0  0  0  0
   -6.6440   20.6290  -32.9960 C   0  0  0  0  0  0  0  0  0  0  0  0
   -6.4920   19.2790  -33.7320 C   0  0  0  0  0  0  0  0  0  0  0  0
   -6.9120   18.1040  -32.8460 C   0  0  0  0  0  0  0  0  0  0  0  0
   -8.3590   18.2740  -32.3550 C   0  0  0  0  0  0  0  0  0  0  0  0
   -8.7250   19.7480  -32.0970 C   0  0  0  0  0  0  0  0  0  0  0  0
   -6.5310   24.4530  -30.9560 C   0  0  0  0  0  0  0  0  0  0  0  0
   -5.3920   25.1890  -30.6270 C   0  0  0  0  0  0  0  0  0  0  0  0
   -4.2350   24.5380  -30.1860 C   0  0  0  0  0  0  0  0  0  0  0  0
   -3.1110   25.2890  -29.8600 O   0  0  0  0  0  0  0  0  0  0  0  0
   -1.1690   20.7390  -29.8480 C   0  0  0  0  0  0  0  0  0  0  0  0
   -0.5520   19.7540  -30.6390 C   0  0  0  0  0  0  0  0  0  0  0  0
    0.6760   19.2040  -30.2590 C   0  0  0  0  0  0  0  0  0  0  0  0
    1.3010   19.6210  -29.0770 C   0  0  0  0  0  0  0  0  0  0  0  0
    2.8520   18.9240  -28.6020 S   0  0  0  0  0  0  0  0  0  0  0  0
    3.6310   18.5690  -29.8380 O   0  0  0  0  0  0  0  0  0  0  0  0
    3.6420   19.9480  -27.8340 O   0  0  0  0  0  0  0  0  0  0  0  0
    2.6450   17.4940  -27.6210 N   0  0  0  0  0  0  0  0  0  0  0  0
    3.6070   16.4540  -28.0190 C   0  0  0  0  0  0  0  0  0  0  0  0
    3.6000   15.3010  -26.9990 C   0  0  0  0  0  0  0  0  0  0  0  0
    2.2720   15.2080  -26.2270 C   0  0  0  0  0  0  0  0  0  0  0  0
    1.0870   15.5870  -27.1200 C   0  0  0  0  0  0  0  0  0  0  0  0
    1.2570   16.9990  -27.7280 C   0  0  0  0  0  0  0  0  0  0  0  0
    0.6840   20.5890  -28.2760 C   0  0  0  0  0  0  0  0  0  0  0  0
   -0.5430   21.1420  -28.6530 C   0  0  0  0  0  0  0  0  0  0  0  0
   -2.5530   22.8500  -28.7650 H   0  0  0  0  0  0  0  0  0  0  0  0
   -5.3451   21.3040  -30.3557 H   0  0  0  0  0  0  0  0  0  0  0  0
   -7.0789   21.3621  -33.6913 H   0  0  0  0  0  0  0  0  0  0  0  0
   -5.6445   20.9363  -32.6546 H   0  0  0  0  0  0  0  0  0  0  0  0
   -7.1233   19.2904  -34.6327 H   0  0  0  0  0  0  0  0  0  0  0  0
   -5.4323   19.1488  -33.9967 H   0  0  0  0  0  0  0  0  0  0  0  0
   -6.8357   17.1717  -33.4248 H   0  0  0  0  0  0  0  0  0  0  0  0
   -6.2466   18.0696  -31.9707 H   0  0  0  0  0  0  0  0  0  0  0  0
   -9.0403   17.8697  -33.1182 H   0  0  0  0  0  0  0  0  0  0  0  0
   -8.4540   17.7341  -31.4013 H   0  0  0  0  0  0  0  0  0  0  0  0
   -9.2176   20.1609  -32.9897 H   0  0  0  0  0  0  0  0  0  0  0  0
   -9.4033   19.8016  -31.2327 H   0  0  0  0  0  0  0  0  0  0  0  0
   -7.4421   24.9716  -31.2892 H   0  0  0  0  0  0  0  0  0  0  0  0
   -5.4040   26.2854  -30.7148 H   0  0  0  0  0  0  0  0  0  0  0  0
   -1.0394   19.4133  -31.5644 H   0  0  0  0  0  0  0  0  0  0  0  0
    1.1533   18.4406  -30.8910 H   0  0  0  0  0  0  0  0  0  0  0  0
    3.3304   16.0638  -29.0096 H   0  0  0  0  0  0  0  0  0  0  0  0
    4.6147   16.8937  -28.0550 H   0  0  0  0  0  0  0  0  0  0  0  0
    3.7640   14.3544  -27.5349 H   0  0  0  0  0  0  0  0  0  0  0  0
    4.3994   15.4948  -26.2686 H   0  0  0  0  0  0  0  0  0  0  0  0
    2.1363   14.1769  -25.8686 H   0  0  0  0  0  0  0  0  0  0  0  0
    2.3101   15.9098  -25.3808 H   0  0  0  0  0  0  0  0  0  0  0  0
    1.0076   14.8545  -27.9367 H   0  0  0  0  0  0  0  0  0  0  0  0
    0.1777   15.5876  -26.5010 H   0  0  0  0  0  0  0  0  0  0  0  0
    0.9758   16.9624  -28.7908 H   0  0  0  0  0  0  0  0  0  0  0  0
    0.6106   17.6875  -27.1640 H   0  0  0  0  0  0  0  0  0  0  0  0
    1.1678   20.9165  -27.3440 H   0  0  0  0  0  0  0  0  0  0  0  0
   -1.0225   21.8966  -28.0122 H   0  0  0  0  0  0  0  0  0  0  0  0
  1  2  2  0
  2  3  1  0
  3  4  1  0
  4  5  2  0
  5  6  1  0
  6  7  1  0
  7  8  2  0
  7  9  2  0
  7 10  1  0
 10 11  1  0
 11 12  1  0
 12 13  1  0
 13 14  1  0
 14 15  1  0
  6 16  2  0
 16 17  1  0
 17 18  2  0
 18 19  1  0
  2 20  1  0
 20 21  2  0
 21 22  1  0
 22 23  2  0
 23 24  1  0
 24 25  2  0
 24 26  2  0
 24 27  1  0
 27 28  1  0
 28 29  1  0
 29 30  1  0
 30 31  1  0
 31 32  1  0
 23 33  1  0
 33 34  2  0
 18  4  1  0
 34 20  1  0
 15 10  1  0
 32 27  1  0
  3 35  1  0
  5 36  1  0
 11 37  1  0
 11 38  1  0
 12 39  1  0
 12 40  1  0
 13 41  1  0
 13 42  1  0
 14 43  1  0
 14 44  1  0
 15 45  1  0
 15 46  1  0
 16 47  1  0
 17 48  1  0
 21 49  1  0
 22 50  1  0
 28 51  1  0
 28 52  1  0
 29 53  1  0
 29 54  1  0
 30 55  1  0
 30 56  1  0
 31 57  1  0
 31 58  1  0
 32 59  1  0
 32 60  1  0
 33 61  1  0
 34 62  1  0
M  CHG  1  19  -1
M  END
>  <UniqueID>  (32) 
29

>  <SMILES>  (32) 
O=C(Nc1cc(S(=O)(=O)N2CCCCC2)ccc1[O-])c1ccc(S(=O)(=O)N2CCCCC2)cc1

>  <Energy>  (32) 
76.07771778181099

>  <Genealogy>  (32) 
O=C(Nc1cc(S(=O)(=O)N2CCCCC2)ccc1[O-])c1ccc(S(=O)(=O)N2CCCCC2)cc1 (protonated)
O=C(Nc1cc(S(=O)(=O)N2CCCCC2)ccc1[O-])c1ccc(S(=O)(=O)N2CCCCC2)cc1 (3D coordinates assigned)
O=C(Nc1cc(S(=O)(=O)N2CCCCC2)ccc1[O-])c1ccc(S(=O)(=O)N2CCCCC2)cc1 (nonaromatic ring conformer: 76.07771778181099 kcal/mol)

>  <smiles>  (32) 
O=C(Nc1cc(S(=O)(=O)N2CCCCC2)ccc1O)c1ccc(S(=O)(=O)N2CCCCC2)cc1

>  <score_type>  (32) 
oracle

>  <origin>  (32) 
adgpu

>  <m_score__min__energy>  (32) 
-12.94

>  <m_primary>  (32) 
energy

$$$$
32:0
     RDKit          3D

 42 44  0  0  0  0  0  0  0  0999 V2000
   -4.0693   13.6280  -31.8022 H   0  0  0  0  0  0  0  0  0  0  0  0
   -4.4740   14.4720  -32.3800 C   0  0  0  0  0  0  0  0  0  0  0  0
   -4.4720   14.4270  -33.7770 C   0  0  0  0  0  0  0  0  0  0  0  0
   -4.0692   13.5459  -34.2980 H   0  0  0  0  0  0  0  0  0  0  0  0
   -4.9820   15.5020  -34.5130 C   0  0  0  0  0  0  0  0  0  0  0  0
   -4.9843   15.4612  -35.6122 H   0  0  0  0  0  0  0  0  0  0  0  0
   -5.4910   16.6330  -33.8540 C   0  0  0  0  0  0  0  0  0  0  0  0
   -6.0770   17.7720  -34.6420 C   0  0  0  0  0  0  0  0  0  0  0  0
   -7.1749   17.7124  -34.6083 H   0  0  0  0  0  0  0  0  0  0  0  0
   -5.7335   17.7061  -35.6849 H   0  0  0  0  0  0  0  0  0  0  0  0
   -5.6320   19.0770  -34.0570 C   0  0  0  0  0  0  0  0  0  0  0  0
   -4.4080   19.3830  -34.0870 O   0  0  0  0  0  0  0  0  0  0  0  0
   -6.5960   19.9670  -33.4720 N   0  0  0  0  0  0  0  0  0  0  0  0
   -7.6010   19.8270  -33.7200 H   0  0  0  0  0  0  0  0  0  0  0  0
   -6.2560   21.0850  -32.6350 C   0  0  0  0  0  0  0  0  0  0  0  0
   -4.9930   21.1310  -32.0280 C   0  0  0  0  0  0  0  0  0  0  0  0
   -4.2832   20.3048  -32.1812 H   0  0  0  0  0  0  0  0  0  0  0  0
   -4.6290   22.2200  -31.2290 C   0  0  0  0  0  0  0  0  0  0  0  0
   -3.6416   22.2386  -30.7445 H   0  0  0  0  0  0  0  0  0  0  0  0
   -5.5170   23.2860  -31.0440 C   0  0  0  0  0  0  0  0  0  0  0  0
   -5.0460   24.6580  -30.0450 S   0  0  0  0  0  0  0  0  0  0  0  0
   -6.2840   25.3370  -29.5310 O   0  0  0  0  0  0  0  0  0  0  0  0
   -4.2420   25.6440  -30.8460 O   0  0  0  0  0  0  0  0  0  0  0  0
   -4.0940   24.1130  -28.7020 N   0  0  0  0  0  0  0  0  0  0  0  0
   -2.8590   24.4640  -28.5230 C   0  0  0  0  0  0  0  0  0  0  0  0
   -2.1710   25.2830  -29.3430 N   0  0  0  0  0  0  0  0  0  0  0  0
   -0.9770   25.3840  -28.8340 O   0  0  0  0  0  0  0  0  0  0  0  0
   -0.8710   24.6760  -27.7310 C   0  0  0  0  0  0  0  0  0  0  0  0
    0.3730   24.5620  -26.9160 C   0  0  0  0  0  0  0  0  0  0  0  0
    0.1145   24.5857  -25.8471 H   0  0  0  0  0  0  0  0  0  0  0  0
    0.8790   23.6137  -27.1499 H   0  0  0  0  0  0  0  0  0  0  0  0
    1.0429   25.4025  -27.1499 H   0  0  0  0  0  0  0  0  0  0  0  0
   -2.0710   24.0470  -27.4760 C   0  0  0  0  0  0  0  0  0  0  0  0
   -2.3328   23.3783  -26.6428 H   0  0  0  0  0  0  0  0  0  0  0  0
   -6.7740   23.2550  -31.6620 C   0  0  0  0  0  0  0  0  0  0  0  0
   -7.4756   24.0901  -31.5192 H   0  0  0  0  0  0  0  0  0  0  0  0
   -7.1400   22.1660  -32.4600 C   0  0  0  0  0  0  0  0  0  0  0  0
   -8.1233   22.1545  -32.9530 H   0  0  0  0  0  0  0  0  0  0  0  0
   -5.5010   16.6650  -32.4500 C   0  0  0  0  0  0  0  0  0  0  0  0
   -5.9123   17.5396  -31.9248 H   0  0  0  0  0  0  0  0  0  0  0  0
   -4.9900   15.5890  -31.7170 C   0  0  0  0  0  0  0  0  0  0  0  0
   -4.9942   15.6219  -30.6175 H   0  0  0  0  0  0  0  0  0  0  0  0
  1  2  1  0
  2  3  2  0
  3  4  1  0
  3  5  1  0
  5  6  1  0
  5  7  2  0
  7  8  1  0
  8  9  1  0
  8 10  1  0
  8 11  1  0
 11 12  2  0
 11 13  1  0
 13 14  1  0
 13 15  1  0
 15 16  2  0
 16 17  1  0
 16 18  1  0
 18 19  1  0
 18 20  2  0
 20 21  1  0
 21 22  2  0
 21 23  2  0
 21 24  1  0
 24 25  2  0
 25 26  1  0
 26 27  1  0
 27 28  1  0
 28 29  1  0
 29 30  1  0
 29 31  1  0
 29 32  1  0
 28 33  2  0
 33 34  1  0
 20 35  1  0
 35 36  1  0
 35 37  2  0
 37 38  1  0
  7 39  1  0
 39 40  1  0
 39 41  2  0
 41 42  1  0
 41  2  1  0
 37 15  1  0
 33 25  1  0
M  CHG  1  26  -1
M  END
>  <UniqueID>  (33) 
30

>  <SMILES>  (33) 
Cc1c/c(=N/S(=O)(=O)c2ccc(NC(=O)Cc3ccccc3)cc2)[n-]o1

>  <Energy>  (33) 
77.9321870341104

>  <Genealogy>  (33) 
Cc1cc(=NS(=O)(=O)c2ccc(NC(=O)Cc3ccccc3)cc2)[n-]o1 (protonated)
Cc1c/c(=N/S(=O)(=O)c2ccc(NC(=O)Cc3ccccc3)cc2)[n-]o1 (cis-trans isomerization)
Cc1c/c(=N/S(=O)(=O)c2ccc(NC(=O)Cc3ccccc3)cc2)[n-]o1 (3D coordinates assigned)
Cc1c/c(=N/S(=O)(=O)c2ccc(NC(=O)Cc3ccccc3)cc2)[n-]o1 (optimized conformer: 77.9321870341104 kcal/mol)

>  <smiles>  (33) 
Cc1cc(=NS(=O)(=O)c2ccc(NC(=O)Cc3ccccc3)cc2)[nH]o1

>  <score_type>  (33) 
oracle

>  <origin>  (33) 
adgpu

>  <m_score__min__energy>  (33) 
-10.630000000000001

>  <m_primary>  (33) 
energy

$$$$
33:0
     RDKit          3D

 48 50  0  0  0  0  0  0  0  0999 V2000
   -5.5860   26.1000  -31.2200 O   0  0  0  0  0  0  0  0  0  0  0  0
   -5.2060   25.0270  -30.2390 S   0  0  0  0  0  0  0  0  0  0  0  0
   -5.8630   25.3270  -28.9220 O   0  0  0  0  0  0  0  0  0  0  0  0
   -3.4840   25.0270  -30.0360 N   0  0  0  0  0  0  0  0  0  0  0  0
   -2.7220   24.0030  -29.3780 C   0  0  0  0  0  0  0  0  0  0  0  0
   -1.9680   23.0570  -30.0970 C   0  0  0  0  0  0  0  0  0  0  0  0
   -1.2270   22.0810  -29.4210 C   0  0  0  0  0  0  0  0  0  0  0  0
   -0.2800   20.9160  -30.3260 Cl  0  0  0  0  0  0  0  0  0  0  0  0
   -1.2500   22.0300  -28.0230 C   0  0  0  0  0  0  0  0  0  0  0  0
   -1.9980   22.9620  -27.3030 C   0  0  0  0  0  0  0  0  0  0  0  0
   -2.7290   23.9530  -27.9740 C   0  0  0  0  0  0  0  0  0  0  0  0
   -3.4570   24.8980  -27.2520 O   0  0  0  0  0  0  0  0  0  0  0  0
   -5.7310   23.4710  -30.8700 C   0  0  0  0  0  0  0  0  0  0  0  0
   -4.9110   22.7770  -31.7690 C   0  0  0  0  0  0  0  0  0  0  0  0
   -5.3120   21.5360  -32.2710 C   0  0  0  0  0  0  0  0  0  0  0  0
   -6.5360   20.9750  -31.8710 C   0  0  0  0  0  0  0  0  0  0  0  0
   -7.0680   19.4190  -32.5060 S   0  0  0  0  0  0  0  0  0  0  0  0
   -8.4320   19.6030  -33.1090 O   0  0  0  0  0  0  0  0  0  0  0  0
   -7.1620   18.4140  -31.3910 O   0  0  0  0  0  0  0  0  0  0  0  0
   -5.9410   18.8570  -33.7220 N   0  0  0  0  0  0  0  0  0  0  0  0
   -4.5890   18.7600  -33.1390 C   0  0  0  0  0  0  0  0  0  0  0  0
   -3.7250   17.6660  -33.7930 C   0  0  0  0  0  0  0  0  0  0  0  0
   -3.8520   16.2510  -33.1820 C   0  0  0  0  0  0  0  0  0  0  0  0
   -5.1430   15.5010  -33.5480 C   0  0  0  0  0  0  0  0  0  0  0  0
   -6.4370   16.3550  -33.5110 C   0  0  0  0  0  0  0  0  0  0  0  0
   -6.4420   17.6300  -34.3870 C   0  0  0  0  0  0  0  0  0  0  0  0
   -7.3530   21.6680  -30.9710 C   0  0  0  0  0  0  0  0  0  0  0  0
   -6.9560   22.9130  -30.4740 C   0  0  0  0  0  0  0  0  0  0  0  0
   -1.9610   23.0848  -31.1966 H   0  0  0  0  0  0  0  0  0  0  0  0
   -0.6783   21.2550  -27.4915 H   0  0  0  0  0  0  0  0  0  0  0  0
   -2.0144   22.9193  -26.2040 H   0  0  0  0  0  0  0  0  0  0  0  0
   -4.0900   25.5450  -27.7140 H   0  0  0  0  0  0  0  0  0  0  0  0
   -3.9490   23.2100  -32.0806 H   0  0  0  0  0  0  0  0  0  0  0  0
   -4.6675   20.9972  -32.9811 H   0  0  0  0  0  0  0  0  0  0  0  0
   -4.0828   19.7283  -33.2663 H   0  0  0  0  0  0  0  0  0  0  0  0
   -4.7080   18.4930  -32.0785 H   0  0  0  0  0  0  0  0  0  0  0  0
   -4.0083   17.6019  -34.8539 H   0  0  0  0  0  0  0  0  0  0  0  0
   -2.6814   17.9705  -33.6254 H   0  0  0  0  0  0  0  0  0  0  0  0
   -2.9981   15.6509  -33.5295 H   0  0  0  0  0  0  0  0  0  0  0  0
   -3.8734   16.3872  -32.0907 H   0  0  0  0  0  0  0  0  0  0  0  0
   -5.0276   15.1024  -34.5667 H   0  0  0  0  0  0  0  0  0  0  0  0
   -5.2702   14.7215  -32.7823 H   0  0  0  0  0  0  0  0  0  0  0  0
   -7.2692   15.7170  -33.8431 H   0  0  0  0  0  0  0  0  0  0  0  0
   -6.5237   16.7113  -32.4739 H   0  0  0  0  0  0  0  0  0  0  0  0
   -5.8118   17.4395  -35.2682 H   0  0  0  0  0  0  0  0  0  0  0  0
   -7.4960   17.8260  -34.6334 H   0  0  0  0  0  0  0  0  0  0  0  0
   -8.3114   21.2316  -30.6532 H   0  0  0  0  0  0  0  0  0  0  0  0
   -7.6051   23.4560  -29.7713 H   0  0  0  0  0  0  0  0  0  0  0  0
  1  2  2  0
  2  3  2  0
  2  4  1  0
  4  5  1  0
  5  6  2  0
  6  7  1  0
  7  8  1  0
  7  9  2  0
  9 10  1  0
 10 11  2  0
 11 12  1  0
  2 13  1  0
 13 14  2  0
 14 15  1  0
 15 16  2  0
 16 17  1  0
 17 18  2  0
 17 19  2  0
 17 20  1  0
 20 21  1  0
 21 22  1  0
 22 23  1  0
 23 24  1  0
 24 25  1  0
 25 26  1  0
 16 27  1  0
 27 28  2  0
 11  5  1  0
 28 13  1  0
 26 20  1  0
  6 29  1  0
  9 30  1  0
 10 31  1  0
 12 32  1  0
 14 33  1  0
 15 34  1  0
 21 35  1  0
 21 36  1  0
 22 37  1  0
 22 38  1  0
 23 39  1  0
 23 40  1  0
 24 41  1  0
 24 42  1  0
 25 43  1  0
 25 44  1  0
 26 45  1  0
 26 46  1  0
 27 47  1  0
 28 48  1  0
M  CHG  1   4  -1
M  END
>  <UniqueID>  (34) 
31

>  <SMILES>  (34) 
O=S(=O)([N-]c1cc(Cl)ccc1O)c1ccc(S(=O)(=O)N2CCCCCC2)cc1

>  <Energy>  (34) 
64.93461581421427

>  <Genealogy>  (34) 
O=S(=O)([N-]c1cc(Cl)ccc1O)c1ccc(S(=O)(=O)N2CCCCCC2)cc1 (protonated)
O=S(=O)([N-]c1cc(Cl)ccc1O)c1ccc(S(=O)(=O)N2CCCCCC2)cc1 (3D coordinates assigned)
O=S(=O)([N-]c1cc(Cl)ccc1O)c1ccc(S(=O)(=O)N2CCCCCC2)cc1 (nonaromatic ring conformer: 64.93461581421427 kcal/mol)

>  <smiles>  (34) 
O=S(=O)(Nc1cc(Cl)ccc1O)c1ccc(S(=O)(=O)N2CCCCCC2)cc1

>  <score_type>  (34) 
oracle

>  <origin>  (34) 
adgpu

>  <m_score__min__energy>  (34) 
-9.5199999999999996

>  <m_primary>  (34) 
energy

$$$$
34:0
     RDKit          3D

 37 38  0  0  0  0  0  0  0  0999 V2000
   -4.1610   19.8830  -33.2980 C   0  0  0  0  0  0  0  0  0  0  0  0
   -5.5760   20.2080  -32.9560 C   0  0  0  0  0  0  0  0  0  0  0  0
   -6.5880   19.2890  -32.7490 C   0  0  0  0  0  0  0  0  0  0  0  0
   -7.6710   20.0600  -32.3820 C   0  0  0  0  0  0  0  0  0  0  0  0
   -9.0270   19.5380  -32.0170 C   0  0  0  0  0  0  0  0  0  0  0  0
   -7.2980   21.3580  -32.3650 N   0  0  0  0  0  0  0  0  0  0  0  0
   -8.1090   22.5100  -31.9670 C   0  0  0  0  0  0  0  0  0  0  0  0
   -7.3920   23.3500  -30.9080 C   0  0  0  0  0  0  0  0  0  0  0  0
   -6.2800   24.0940  -31.5070 N   0  0  0  0  0  0  0  0  0  0  0  0
   -5.2310   24.6920  -30.2570 S   0  0  0  0  0  0  0  0  0  0  0  0
   -4.2400   25.6530  -30.8520 O   0  0  0  0  0  0  0  0  0  0  0  0
   -6.0520   25.4130  -29.2250 O   0  0  0  0  0  0  0  0  0  0  0  0
   -4.3890   23.3520  -29.4840 C   0  0  0  0  0  0  0  0  0  0  0  0
   -3.9710   22.2460  -30.2370 C   0  0  0  0  0  0  0  0  0  0  0  0
   -3.3040   21.1850  -29.6150 C   0  0  0  0  0  0  0  0  0  0  0  0
   -3.0480   21.2250  -28.2390 C   0  0  0  0  0  0  0  0  0  0  0  0
   -2.3620   20.1330  -27.6010 C   0  0  0  0  0  0  0  0  0  0  0  0
   -1.8110   19.2540  -27.0870 N   0  0  0  0  0  0  0  0  0  0  0  0
   -3.4600   22.3320  -27.4870 C   0  0  0  0  0  0  0  0  0  0  0  0
   -4.1260   23.3930  -28.1080 C   0  0  0  0  0  0  0  0  0  0  0  0
   -6.0200   21.4540  -32.7010 N   0  0  0  0  0  0  0  0  0  0  0  0
   -3.5814   19.7499  -32.3726 H   0  0  0  0  0  0  0  0  0  0  0  0
   -4.1301   18.9544  -33.8868 H   0  0  0  0  0  0  0  0  0  0  0  0
   -3.7280   20.7051  -33.8868 H   0  0  0  0  0  0  0  0  0  0  0  0
   -6.5403   18.1950  -32.8531 H   0  0  0  0  0  0  0  0  0  0  0  0
   -9.1231   19.5010  -30.9218 H   0  0  0  0  0  0  0  0  0  0  0  0
   -9.7994   20.2030  -32.4306 H   0  0  0  0  0  0  0  0  0  0  0  0
   -9.1541   18.5267  -32.4306 H   0  0  0  0  0  0  0  0  0  0  0  0
   -8.3026   23.1355  -32.8509 H   0  0  0  0  0  0  0  0  0  0  0  0
   -9.0531   22.1412  -31.5396 H   0  0  0  0  0  0  0  0  0  0  0  0
   -8.1058   24.0604  -30.4656 H   0  0  0  0  0  0  0  0  0  0  0  0
   -6.9936   22.6791  -30.1326 H   0  0  0  0  0  0  0  0  0  0  0  0
   -5.7100   23.4270  -32.0750 H   0  0  0  0  0  0  0  0  0  0  0  0
   -4.1677   22.2122  -31.3187 H   0  0  0  0  0  0  0  0  0  0  0  0
   -2.9799   20.3173  -30.2084 H   0  0  0  0  0  0  0  0  0  0  0  0
   -3.2594   22.3670  -26.4060 H   0  0  0  0  0  0  0  0  0  0  0  0
   -4.4446   24.2627  -27.5147 H   0  0  0  0  0  0  0  0  0  0  0  0
  1  2  1  0
  2  3  1  0
  3  4  2  0
  4  5  1  0
  4  6  1  0
  6  7  1  0
  7  8  1  0
  8  9  1  0
  9 10  1  0
 10 11  2  0
 10 12  2  0
 10 13  1  0
 13 14  2  0
 14 15  1  0
 15 16  2  0
 16 17  1  0
 17 18  3  0
 16 19  1  0
 19 20  2  0
  6 21  1  0
 21  2  2  0
 20 13  1  0
  1 22  1  0
  1 23  1  0
  1 24  1  0
  3 25  1  0
  5 26  1  0
  5 27  1  0
  5 28  1  0
  7 29  1  0
  7 30  1  0
  8 31  1  0
  8 32  1  0
  9 33  1  0
 14 34  1  0
 15 35  1  0
 19 36  1  0
 20 37  1  0
M  END
>  <UniqueID>  (35) 
32

>  <SMILES>  (35) 
Cc1cc(C)n(CCNS(=O)(=O)c2ccc(C#N)cc2)n1

>  <Energy>  (35) 
58.29207899600456

>  <Genealogy>  (35) 
Cc1cc(C)n(CCNS(=O)(=O)c2ccc(C#N)cc2)n1 (3D coordinates assigned)
Cc1cc(C)n(CCNS(=O)(=O)c2ccc(C#N)cc2)n1 (optimized conformer: 58.29207899600456 kcal/mol)

>  <smiles>  (35) 
Cc1cc(C)n(CCNS(=O)(=O)c2ccc(C#N)cc2)n1

>  <score_type>  (35) 
oracle

>  <origin>  (35) 
adgpu

>  <m_score__min__energy>  (35) 
-8.5999999999999996

>  <m_primary>  (35) 
energy

$$$$
35:0
     RDKit          3D

 46 48  0  0  0  0  0  0  0  0999 V2000
   -2.1850   22.7660  -30.2150 C   0  0  0  0  0  0  0  0  0  0  0  0
   -3.0330   23.0100  -31.4610 C   0  0  0  0  0  0  0  0  0  0  0  0
   -4.3650   23.6300  -31.0950 C   0  0  0  0  0  0  0  0  0  0  0  0
   -4.3980   24.7510  -30.2410 C   0  0  0  0  0  0  0  0  0  0  0  0
   -3.2210   25.2960  -29.7370 O   0  0  0  0  0  0  0  0  0  0  0  0
   -5.6180   25.3340  -29.8890 C   0  0  0  0  0  0  0  0  0  0  0  0
   -6.8130   24.8210  -30.3870 C   0  0  0  0  0  0  0  0  0  0  0  0
   -6.7960   23.7220  -31.2460 C   0  0  0  0  0  0  0  0  0  0  0  0
   -5.5820   23.1130  -31.6070 C   0  0  0  0  0  0  0  0  0  0  0  0
   -5.5880   22.0090  -32.5310 N   0  0  0  0  0  0  0  0  0  0  0  0
   -6.3460   20.8020  -32.3180 C   0  0  0  0  0  0  0  0  0  0  0  0
   -7.6850   20.7230  -32.7470 C   0  0  0  0  0  0  0  0  0  0  0  0
   -8.4250   19.5550  -32.5550 C   0  0  0  0  0  0  0  0  0  0  0  0
   -7.8440   18.4550  -31.9250 C   0  0  0  0  0  0  0  0  0  0  0  0
   -6.5220   18.5210  -31.4810 C   0  0  0  0  0  0  0  0  0  0  0  0
   -5.7620   19.6880  -31.6740 C   0  0  0  0  0  0  0  0  0  0  0  0
   -4.4070   19.7410  -31.1980 N   0  0  0  0  0  0  0  0  0  0  0  0
   -3.2710   19.9630  -32.0520 C   0  0  0  0  0  0  0  0  0  0  0  0
   -1.9830   19.9860  -31.4960 C   0  0  0  0  0  0  0  0  0  0  0  0
   -0.8660   20.2180  -32.3040 C   0  0  0  0  0  0  0  0  0  0  0  0
   -1.0230   20.4460  -33.6770 C   0  0  0  0  0  0  0  0  0  0  0  0
    0.3840   20.7230  -34.6980 S   0  0  0  0  0  0  0  0  0  0  0  0
    0.4430   22.3850  -35.1640 N   0  0  0  0  0  0  0  0  0  0  0  0
    0.2980   19.8620  -35.9280 O   0  0  0  0  0  0  0  0  0  0  0  0
    1.6370   20.3650  -33.9470 O   0  0  0  0  0  0  0  0  0  0  0  0
   -2.3070   20.4350  -34.2370 C   0  0  0  0  0  0  0  0  0  0  0  0
   -3.4250   20.2020  -33.4300 C   0  0  0  0  0  0  0  0  0  0  0  0
   -2.7947   22.9414  -29.3164 H   0  0  0  0  0  0  0  0  0  0  0  0
   -1.8230   21.7273  -30.2155 H   0  0  0  0  0  0  0  0  0  0  0  0
   -1.3263   23.4535  -30.2155 H   0  0  0  0  0  0  0  0  0  0  0  0
   -2.4930   23.6895  -32.1368 H   0  0  0  0  0  0  0  0  0  0  0  0
   -3.2184   22.0446  -31.9546 H   0  0  0  0  0  0  0  0  0  0  0  0
   -5.6346   26.2030  -29.2148 H   0  0  0  0  0  0  0  0  0  0  0  0
   -7.7703   25.2824  -30.1030 H   0  0  0  0  0  0  0  0  0  0  0  0
   -7.7424   23.3281  -31.6448 H   0  0  0  0  0  0  0  0  0  0  0  0
   -5.0360   22.1040  -33.4100 H   0  0  0  0  0  0  0  0  0  0  0  0
   -8.1520   21.5896  -33.2379 H   0  0  0  0  0  0  0  0  0  0  0  0
   -9.4678   19.5023  -32.9011 H   0  0  0  0  0  0  0  0  0  0  0  0
   -8.4278   17.5344  -31.7777 H   0  0  0  0  0  0  0  0  0  0  0  0
   -6.0717   17.6535  -30.9764 H   0  0  0  0  0  0  0  0  0  0  0  0
   -4.2350   19.5460  -30.1860 H   0  0  0  0  0  0  0  0  0  0  0  0
   -1.8512   19.8203  -30.4166 H   0  0  0  0  0  0  0  0  0  0  0  0
    0.1403   20.2215  -31.8597 H   0  0  0  0  0  0  0  0  0  0  0  0
   -0.4790   22.6130  -35.5990 H   0  0  0  0  0  0  0  0  0  0  0  0
   -2.4362   20.6102  -35.3152 H   0  0  0  0  0  0  0  0  0  0  0  0
   -4.4309   20.2056  -33.8752 H   0  0  0  0  0  0  0  0  0  0  0  0
  1  2  1  0
  2  3  1  0
  3  4  2  0
  4  5  1  0
  4  6  1  0
  6  7  2  0
  7  8  1  0
  8  9  2  0
  9 10  1  0
 10 11  1  0
 11 12  2  0
 12 13  1  0
 13 14  2  0
 14 15  1  0
 15 16  2  0
 16 17  1  0
 17 18  1  0
 18 19  2  0
 19 20  1  0
 20 21  2  0
 21 22  1  0
 22 23  1  0
 22 24  2  0
 22 25  2  0
 21 26  1  0
 26 27  2  0
  9  3  1  0
 16 11  1  0
 27 18  1  0
  1 28  1  0
  1 29  1  0
  1 30  1  0
  2 31  1  0
  2 32  1  0
  6 33  1  0
  7 34  1  0
  8 35  1  0
 10 36  1  0
 12 37  1  0
 13 38  1  0
 14 39  1  0
 15 40  1  0
 17 41  1  0
 19 42  1  0
 20 43  1  0
 23 44  1  0
 26 45  1  0
 27 46  1  0
M  CHG  2   5  -1  23  -1
M  END
>  <UniqueID>  (36) 
33

>  <SMILES>  (36) 
CCc1c([O-])cccc1Nc1ccccc1Nc1ccc(S([NH-])(=O)=O)cc1

>  <Energy>  (36) 
59.831697779508474

>  <Genealogy>  (36) 
CCc1c([O-])cccc1Nc1ccccc1Nc1ccc(S([NH-])(=O)=O)cc1 (protonated)
CCc1c([O-])cccc1Nc1ccccc1Nc1ccc(S([NH-])(=O)=O)cc1 (3D coordinates assigned)
CCc1c([O-])cccc1Nc1ccccc1Nc1ccc(S([NH-])(=O)=O)cc1 (optimized conformer: 59.831697779508474 kcal/mol)

>  <smiles>  (36) 
CCc1c(O)cccc1Nc1ccccc1Nc1ccc(S(N)(=O)=O)cc1

>  <score_type>  (36) 
oracle

>  <origin>  (36) 
adgpu

>  <m_score__min__energy>  (36) 
-11.699999999999999

>  <m_primary>  (36) 
energy

$$$$
36:0
     RDKit          3D

 51 54  0  0  0  0  0  0  0  0999 V2000
   -1.2890   23.1830  -27.1220 O   0  0  0  0  0  0  0  0  0  0  0  0
   -0.9390   23.4650  -28.5580 S   0  0  0  0  0  0  0  0  0  0  0  0
    0.3620   24.2190  -28.5850 O   0  0  0  0  0  0  0  0  0  0  0  0
   -2.1730   24.4440  -29.2870 N   0  0  0  0  0  0  0  0  0  0  0  0
   -3.5570   24.0870  -29.4240 C   0  0  0  0  0  0  0  0  0  0  0  0
   -4.0980   22.9530  -28.7820 C   0  0  0  0  0  0  0  0  0  0  0  0
   -5.4460   22.6260  -28.9460 C   0  0  0  0  0  0  0  0  0  0  0  0
   -6.2640   23.4210  -29.7500 C   0  0  0  0  0  0  0  0  0  0  0  0
   -5.7440   24.5640  -30.3640 C   0  0  0  0  0  0  0  0  0  0  0  0
   -4.3940   24.8940  -30.2030 C   0  0  0  0  0  0  0  0  0  0  0  0
   -3.8860   26.0250  -30.8360 O   0  0  0  0  0  0  0  0  0  0  0  0
   -0.7410   21.9680  -29.4660 C   0  0  0  0  0  0  0  0  0  0  0  0
   -0.5900   20.7570  -28.7820 C   0  0  0  0  0  0  0  0  0  0  0  0
   -0.4680   19.5590  -29.4910 C   0  0  0  0  0  0  0  0  0  0  0  0
   -0.5150   19.5620  -30.8870 C   0  0  0  0  0  0  0  0  0  0  0  0
   -0.6730   20.7680  -31.5800 C   0  0  0  0  0  0  0  0  0  0  0  0
   -0.8320   20.7670  -33.3380 S   0  0  0  0  0  0  0  0  0  0  0  0
    0.0860   21.8120  -33.9010 O   0  0  0  0  0  0  0  0  0  0  0  0
   -0.4600   19.4190  -33.8960 O   0  0  0  0  0  0  0  0  0  0  0  0
   -2.4650   21.1350  -33.8000 N   0  0  0  0  0  0  0  0  0  0  0  0
   -3.6170   20.4160  -33.3340 C   0  0  0  0  0  0  0  0  0  0  0  0
   -4.6490   21.0650  -32.6310 C   0  0  0  0  0  0  0  0  0  0  0  0
   -5.8350   20.3810  -32.3310 C   0  0  0  0  0  0  0  0  0  0  0  0
   -5.9800   19.0370  -32.6960 C   0  0  0  0  0  0  0  0  0  0  0  0
   -4.9230   18.3660  -33.3300 C   0  0  0  0  0  0  0  0  0  0  0  0
   -3.7470   19.0560  -33.6560 C   0  0  0  0  0  0  0  0  0  0  0  0
   -2.7110   18.4040  -34.3220 O   0  0  0  0  0  0  0  0  0  0  0  0
   -7.2750   18.3410  -32.3730 C   0  0  0  0  0  0  0  0  0  0  0  0
   -8.4780   19.2410  -32.7150 C   0  0  0  0  0  0  0  0  0  0  0  0
   -8.3040   20.7350  -32.3250 C   0  0  0  0  0  0  0  0  0  0  0  0
   -6.9760   21.0580  -31.6250 C   0  0  0  0  0  0  0  0  0  0  0  0
   -0.7600   21.9720  -30.8660 C   0  0  0  0  0  0  0  0  0  0  0  0
   -3.4551   22.3234  -28.1493 H   0  0  0  0  0  0  0  0  0  0  0  0
   -5.8628   21.7419  -28.4414 H   0  0  0  0  0  0  0  0  0  0  0  0
   -7.3189   23.1479  -29.9007 H   0  0  0  0  0  0  0  0  0  0  0  0
   -6.3971   25.2049  -30.9746 H   0  0  0  0  0  0  0  0  0  0  0  0
   -0.5672   20.7478  -27.6823 H   0  0  0  0  0  0  0  0  0  0  0  0
   -0.3346   18.6114  -28.9485 H   0  0  0  0  0  0  0  0  0  0  0  0
   -0.4278   18.6163  -31.4421 H   0  0  0  0  0  0  0  0  0  0  0  0
   -4.5246   22.1116  -32.3162 H   0  0  0  0  0  0  0  0  0  0  0  0
   -5.0174   17.2970  -33.5715 H   0  0  0  0  0  0  0  0  0  0  0  0
   -1.8560   18.8850  -34.5730 H   0  0  0  0  0  0  0  0  0  0  0  0
   -7.3413   17.4120  -32.9584 H   0  0  0  0  0  0  0  0  0  0  0  0
   -7.2965   18.1165  -31.2964 H   0  0  0  0  0  0  0  0  0  0  0  0
   -8.6477   19.1880  -33.8005 H   0  0  0  0  0  0  0  0  0  0  0  0
   -9.3259   18.8630  -32.1249 H   0  0  0  0  0  0  0  0  0  0  0  0
   -8.3652   21.3392  -33.2422 H   0  0  0  0  0  0  0  0  0  0  0  0
   -9.1026   20.9662  -31.6047 H   0  0  0  0  0  0  0  0  0  0  0  0
   -6.8152   22.1461  -31.6365 H   0  0  0  0  0  0  0  0  0  0  0  0
   -7.0209   20.6942  -30.5879 H   0  0  0  0  0  0  0  0  0  0  0  0
   -0.8436   22.9250  -31.4090 H   0  0  0  0  0  0  0  0  0  0  0  0
  1  2  2  0
  2  3  2  0
  2  4  1  0
  4  5  1  0
  5  6  2  0
  6  7  1  0
  7  8  2  0
  8  9  1  0
  9 10  2  0
 10 11  1  0
  2 12  1  0
 12 13  2  0
 13 14  1  0
 14 15  2  0
 15 16  1  0
 16 17  1  0
 17 18  2  0
 17 19  2  0
 17 20  1  0
 20 21  1  0
 21 22  2  0
 22 23  1  0
 23 24  2  0
 24 25  1  0
 25 26  2  0
 26 27  1  0
 24 28  1  0
 28 29  1  0
 29 30  1  0
 30 31  1  0
 16 32  2  0
 10  5  1  0
 32 12  1  0
 26 21  1  0
 31 23  1  0
  6 33  1  0
  7 34  1  0
  8 35  1  0
  9 36  1  0
 13 37  1  0
 14 38  1  0
 15 39  1  0
 22 40  1  0
 25 41  1  0
 27 42  1  0
 28 43  1  0
 28 44  1  0
 29 45  1  0
 29 46  1  0
 30 47  1  0
 30 48  1  0
 31 49  1  0
 31 50  1  0
 32 51  1  0
M  CHG  3   4  -1  11  -1  20  -1
M  END
>  <UniqueID>  (37) 
34

>  <SMILES>  (37) 
O=S(=O)([N-]c1ccccc1[O-])c1cccc(S(=O)(=O)[N-]c2cc3c(cc2O)CCCC3)c1

>  <Energy>  (37) 
65.41038693081111

>  <Genealogy>  (37) 
O=S(=O)([N-]c1ccccc1[O-])c1cccc(S(=O)(=O)[N-]c2cc3c(cc2O)CCCC3)c1 (protonated)
O=S(=O)([N-]c1ccccc1[O-])c1cccc(S(=O)(=O)[N-]c2cc3c(cc2O)CCCC3)c1 (3D coordinates assigned)
O=S(=O)([N-]c1ccccc1[O-])c1cccc(S(=O)(=O)[N-]c2cc3c(cc2O)CCCC3)c1 (nonaromatic ring conformer: 65.41038693081111 kcal/mol)

>  <smiles>  (37) 
O=S(=O)(Nc1ccccc1O)c1cccc(S(=O)(=O)Nc2cc3c(cc2O)CCCC3)c1

>  <score_type>  (37) 
oracle

>  <origin>  (37) 
adgpu

>  <m_score__min__energy>  (37) 
-13.949999999999999

>  <m_primary>  (37) 
energy

$$$$
37:0
     RDKit          3D

 27 28  0  0  0  0  0  0  0  0999 V2000
   -4.5950   20.9550  -33.0190 C   0  0  0  0  0  0  0  0  0  0  0  0
   -3.6630   22.2660  -32.1690 S   0  0  0  0  0  0  0  0  0  0  0  0
   -5.1420   23.1090  -31.6060 C   0  0  0  0  0  0  0  0  0  0  0  0
   -6.3750   22.6080  -31.8670 N   0  0  0  0  0  0  0  0  0  0  0  0
   -7.4210   23.6870  -31.1610 S   0  0  0  0  0  0  0  0  0  0  0  0
   -6.3590   24.7990  -30.5200 C   0  0  0  0  0  0  0  0  0  0  0  0
   -5.1010   24.3190  -30.8770 C   0  0  0  0  0  0  0  0  0  0  0  0
   -3.8660   24.9350  -30.4900 N   0  0  0  0  0  0  0  0  0  0  0  0
   -3.0560   24.5530  -29.3730 C   0  0  0  0  0  0  0  0  0  0  0  0
   -3.2990   23.4620  -28.7920 O   0  0  0  0  0  0  0  0  0  0  0  0
   -1.9230   25.3430  -28.9800 N   0  0  0  0  0  0  0  0  0  0  0  0
   -1.2890   25.2540  -27.6930 C   0  0  0  0  0  0  0  0  0  0  0  0
   -1.9840   25.6870  -26.5520 C   0  0  0  0  0  0  0  0  0  0  0  0
   -1.3960   25.5890  -25.2860 C   0  0  0  0  0  0  0  0  0  0  0  0
   -0.1160   25.0470  -25.1480 C   0  0  0  0  0  0  0  0  0  0  0  0
    0.5760   24.5940  -26.2740 C   0  0  0  0  0  0  0  0  0  0  0  0
   -0.0080   24.6910  -27.5420 C   0  0  0  0  0  0  0  0  0  0  0  0
   -5.0636   20.2959  -32.2734 H   0  0  0  0  0  0  0  0  0  0  0  0
   -5.3745   21.4086  -33.6488 H   0  0  0  0  0  0  0  0  0  0  0  0
   -3.9104   20.3678  -33.6488 H   0  0  0  0  0  0  0  0  0  0  0  0
   -6.5971   25.7062  -29.9454 H   0  0  0  0  0  0  0  0  0  0  0  0
   -1.4790   25.9480  -29.7080 H   0  0  0  0  0  0  0  0  0  0  0  0
   -2.9962   26.1055  -26.6541 H   0  0  0  0  0  0  0  0  0  0  0  0
   -1.9426   25.9393  -24.3980 H   0  0  0  0  0  0  0  0  0  0  0  0
    0.3472   24.9768  -24.1527 H   0  0  0  0  0  0  0  0  0  0  0  0
    1.5810   24.1606  -26.1637 H   0  0  0  0  0  0  0  0  0  0  0  0
    0.5368   24.3255  -28.4249 H   0  0  0  0  0  0  0  0  0  0  0  0
  1  2  1  0
  2  3  1  0
  3  4  2  0
  4  5  1  0
  5  6  1  0
  6  7  2  0
  7  8  1  0
  8  9  1  0
  9 10  2  0
  9 11  1  0
 11 12  1  0
 12 13  2  0
 13 14  1  0
 14 15  2  0
 15 16  1  0
 16 17  2  0
  7  3  1  0
 17 12  1  0
  1 18  1  0
  1 19  1  0
  1 20  1  0
  6 21  1  0
 11 22  1  0
 13 23  1  0
 14 24  1  0
 15 25  1  0
 16 26  1  0
 17 27  1  0
M  CHG  1   8  -1
M  END
>  <UniqueID>  (38) 
35

>  <SMILES>  (38) 
CSc1nscc1[N-]C(=O)Nc1ccccc1

>  <Energy>  (38) 
60.593067662881275

>  <Genealogy>  (38) 
CSc1nscc1[N-]C(=O)Nc1ccccc1 (protonated)
CSc1nscc1[N-]C(=O)Nc1ccccc1 (3D coordinates assigned)
CSc1nscc1[N-]C(=O)Nc1ccccc1 (optimized conformer: 60.593067662881275 kcal/mol)

>  <smiles>  (38) 
CSc1nscc1NC(=O)Nc1ccccc1

>  <score_type>  (38) 
oracle

>  <origin>  (38) 
adgpu

>  <m_score__min__energy>  (38) 
-7.9000000000000004

>  <m_primary>  (38) 
energy

$$$$
38:0
     RDKit          3D

 57 60  0  0  0  0  0  0  0  0999 V2000
   -7.7811   16.8921  -32.5982 H   0  0  0  0  0  0  0  0  0  0  0  0
   -6.9400   17.3420  -33.1460 C   0  0  0  0  0  0  0  0  0  0  0  0
   -6.6690   18.7070  -33.0100 C   0  0  0  0  0  0  0  0  0  0  0  0
   -7.2926   19.3242  -32.3465 H   0  0  0  0  0  0  0  0  0  0  0  0
   -5.6070   19.2950  -33.7140 C   0  0  0  0  0  0  0  0  0  0  0  0
   -5.3380   20.6990  -33.5450 N   0  0  0  0  0  0  0  0  0  0  0  0
   -5.7930   21.3660  -34.2090 H   0  0  0  0  0  0  0  0  0  0  0  0
   -4.5100   21.2430  -32.4990 C   0  0  0  0  0  0  0  0  0  0  0  0
   -3.1400   21.0180  -32.5860 C   0  0  0  0  0  0  0  0  0  0  0  0
   -2.8128   20.3352  -33.3840 H   0  0  0  0  0  0  0  0  0  0  0  0
   -2.1400   21.5470  -31.7930 C   0  0  0  0  0  0  0  0  0  0  0  0
   -1.1241   21.5048  -32.2128 H   0  0  0  0  0  0  0  0  0  0  0  0
   -2.2500   22.1260  -30.5330 C   0  0  0  0  0  0  0  0  0  0  0  0
   -1.1110   22.4790  -29.9910 N   0  0  0  0  0  0  0  0  0  0  0  0
   -0.8710   23.2320  -28.7890 C   0  0  0  0  0  0  0  0  0  0  0  0
   -1.1970   24.5920  -28.7600 C   0  0  0  0  0  0  0  0  0  0  0  0
   -1.5932   25.0789  -29.6633 H   0  0  0  0  0  0  0  0  0  0  0  0
   -1.0220   25.3360  -27.5890 C   0  0  0  0  0  0  0  0  0  0  0  0
   -1.2656   26.4087  -27.5794 H   0  0  0  0  0  0  0  0  0  0  0  0
   -0.5370   24.7190  -26.4270 C   0  0  0  0  0  0  0  0  0  0  0  0
   -0.3370   25.6530  -24.9500 S   0  0  0  0  0  0  0  0  0  0  0  0
    1.1200   25.9460  -24.7260 O   0  0  0  0  0  0  0  0  0  0  0  0
   -0.8560   24.8700  -23.7760 O   0  0  0  0  0  0  0  0  0  0  0  0
   -1.2380   27.1790  -25.0890 C   0  0  0  0  0  0  0  0  0  0  0  0
   -1.4651   27.5636  -24.0838 H   0  0  0  0  0  0  0  0  0  0  0  0
   -0.6298   27.9155  -25.6346 H   0  0  0  0  0  0  0  0  0  0  0  0
   -2.1766   27.0022  -25.6346 H   0  0  0  0  0  0  0  0  0  0  0  0
   -0.2520   23.3480  -26.4410 C   0  0  0  0  0  0  0  0  0  0  0  0
    0.1101   22.8541  -25.5272 H   0  0  0  0  0  0  0  0  0  0  0  0
   -0.4260   22.6050  -27.6120 C   0  0  0  0  0  0  0  0  0  0  0  0
   -0.2140   21.5256  -27.6127 H   0  0  0  0  0  0  0  0  0  0  0  0
   -3.4590   22.2250  -29.8070 C   0  0  0  0  0  0  0  0  0  0  0  0
   -3.3810   22.1290  -28.5490 O   0  0  0  0  0  0  0  0  0  0  0  0
   -4.6840   22.5070  -30.3600 N   0  0  0  0  0  0  0  0  0  0  0  0
   -5.6760   23.2160  -29.5040 C   0  0  2  0  0  0  0  0  0  0  0  0
   -5.6622   22.8315  -28.4735 H   0  0  0  0  0  0  0  0  0  0  0  0
   -7.1020   22.9310  -30.0150 C   0  0  0  0  0  0  0  0  0  0  0  0
   -7.7784   22.7958  -29.1581 H   0  0  0  0  0  0  0  0  0  0  0  0
   -7.4487   23.7776  -30.6258 H   0  0  0  0  0  0  0  0  0  0  0  0
   -7.0966   22.0162  -30.6258 H   0  0  0  0  0  0  0  0  0  0  0  0
   -5.2890   24.7180  -29.3590 C   0  0  0  0  0  0  0  0  0  0  0  0
   -4.4879   24.4972  -28.6382 H   0  0  0  0  0  0  0  0  0  0  0  0
   -6.4570   25.6880  -29.4910 C   0  0  0  0  0  0  0  0  0  0  0  0
   -7.4621   25.3086  -29.7271 H   0  0  0  0  0  0  0  0  0  0  0  0
   -6.8995   26.4625  -28.8474 H   0  0  0  0  0  0  0  0  0  0  0  0
   -5.3700   25.6680  -30.5520 C   0  0  0  0  0  0  0  0  0  0  0  0
   -5.5881   25.2734  -31.5554 H   0  0  0  0  0  0  0  0  0  0  0  0
   -4.7003   26.4208  -30.9935 H   0  0  0  0  0  0  0  0  0  0  0  0
   -5.1340   22.1020  -31.5900 C   0  0  0  0  0  0  0  0  0  0  0  0
   -6.1096   22.5039  -31.9009 H   0  0  0  0  0  0  0  0  0  0  0  0
   -4.7990   18.4860  -34.5350 C   0  0  0  0  0  0  0  0  0  0  0  0
   -3.9494   18.9303  -35.0743 H   0  0  0  0  0  0  0  0  0  0  0  0
   -5.0700   17.1210  -34.6690 C   0  0  0  0  0  0  0  0  0  0  0  0
   -4.4387   16.4971  -35.3187 H   0  0  0  0  0  0  0  0  0  0  0  0
   -6.1430   16.5470  -33.9780 C   0  0  0  0  0  0  0  0  0  0  0  0
   -6.4230   15.1420  -34.1180 C   0  0  0  0  0  0  0  0  0  0  0  0
   -6.6480   14.0120  -34.2300 N   0  0  0  0  0  0  0  0  0  0  0  0
  1  2  1  0
  2  3  2  0
  3  4  1  0
  3  5  1  0
  5  6  1  0
  6  7  1  0
  6  8  1  0
  8  9  1  0
  9 10  1  0
  9 11  2  0
 11 12  1  0
 11 13  1  0
 13 14  2  0
 14 15  1  0
 15 16  2  0
 16 17  1  0
 16 18  1  0
 18 19  1  0
 18 20  2  0
 20 21  1  0
 21 22  2  0
 21 23  2  0
 21 24  1  0
 24 25  1  0
 24 26  1  0
 24 27  1  0
 20 28  1  0
 28 29  1  0
 28 30  2  0
 30 31  1  0
 13 32  1  0
 32 33  2  0
 32 34  1  0
 34 35  1  0
 35 36  1  1
 35 37  1  0
 37 38  1  0
 37 39  1  0
 37 40  1  0
 35 41  1  0
 41 42  1  0
 41 43  1  0
 43 44  1  0
 43 45  1  0
 43 46  1  0
 46 47  1  0
 46 48  1  0
 34 49  1  0
 49 50  1  0
  5 51  2  0
 51 52  1  0
 51 53  1  0
 53 54  1  0
 53 55  2  0
 55 56  1  0
 56 57  3  0
 55  2  1  0
 49  8  2  0
 30 15  1  0
 46 41  1  0
M  END
>  <UniqueID>  (39) 
36

>  <SMILES>  (39) 
C[C@H](C1CC1)n1cc(Nc2ccc(C#N)cc2)cc/c(=N/c2ccc(S(C)(=O)=O)cc2)c1=O

>  <Energy>  (39) 
378.2669139859831

>  <Genealogy>  (39) 
C[C@H](C1CC1)n1cc(Nc2ccc(C#N)cc2)ccc(=Nc2ccc(S(C)(=O)=O)cc2)c1=O (chirality)
C[C@H](C1CC1)n1cc(Nc2ccc(C#N)cc2)cc/c(=N/c2ccc(S(C)(=O)=O)cc2)c1=O (cis-trans isomerization)
C[C@H](C1CC1)n1cc(Nc2ccc(C#N)cc2)cc/c(=N/c2ccc(S(C)(=O)=O)cc2)c1=O (3D coordinates assigned)
C[C@H](C1CC1)n1cc(Nc2ccc(C#N)cc2)cc/c(=N/c2ccc(S(C)(=O)=O)cc2)c1=O (nonaromatic ring conformer: 378.2669139859831 kcal/mol)

>  <smiles>  (39) 
CC(C1CC1)n1cc(Nc2ccc(C#N)cc2)ccc(=Nc2ccc(S(C)(=O)=O)cc2)c1=O

>  <score_type>  (39) 
oracle

>  <origin>  (39) 
adgpu

>  <m_score__min__energy>  (39) 
-9.3599999999999994

>  <m_primary>  (39) 
energy

$$$$
39:0
     RDKit          3D

 49 51  0  0  0  0  0  0  0  0999 V2000
    1.4980   27.2670  -23.4490 C   0  0  0  0  0  0  0  0  0  0  0  0
    0.6570   26.8300  -24.5730 N   0  0  0  0  0  0  0  0  0  0  0  0
   -0.5580   26.1470  -24.0730 C   0  0  0  0  0  0  0  0  0  0  0  0
   -1.6500   25.9990  -25.1570 C   0  0  0  0  0  0  0  0  0  0  0  0
   -1.1050   26.1510  -26.5880 C   0  0  0  0  0  0  0  0  0  0  0  0
   -0.1210   24.7250  -27.0920 S   0  0  0  0  0  0  0  0  0  0  0  0
    0.2380   23.8980  -25.8880 O   0  0  0  0  0  0  0  0  0  0  0  0
    1.1630   25.2050  -27.7090 O   0  0  0  0  0  0  0  0  0  0  0  0
   -1.0120   23.7520  -28.2850 C   0  0  0  0  0  0  0  0  0  0  0  0
   -0.7340   22.3750  -28.4370 C   0  0  0  0  0  0  0  0  0  0  0  0
    0.4940   21.5490  -27.4820 Cl  0  0  0  0  0  0  0  0  0  0  0  0
   -1.4380   21.6180  -29.3770 C   0  0  0  0  0  0  0  0  0  0  0  0
   -2.3950   22.2150  -30.1930 C   0  0  0  0  0  0  0  0  0  0  0  0
   -2.6490   23.5850  -30.0970 C   0  0  0  0  0  0  0  0  0  0  0  0
   -3.6290   24.1610  -30.9710 N   0  0  0  0  0  0  0  0  0  0  0  0
   -4.9980   23.7440  -31.0650 C   0  0  0  0  0  0  0  0  0  0  0  0
   -5.8690   24.5180  -31.5440 O   0  0  0  0  0  0  0  0  0  0  0  0
   -5.3860   22.4380  -30.6320 N   0  0  0  0  0  0  0  0  0  0  0  0
   -5.6190   21.3380  -31.5190 C   0  0  0  0  0  0  0  0  0  0  0  0
   -4.7270   20.2590  -31.4960 C   0  0  0  0  0  0  0  0  0  0  0  0
   -4.8890   19.1850  -32.3760 C   0  0  0  0  0  0  0  0  0  0  0  0
   -5.9570   19.1750  -33.2800 C   0  0  0  0  0  0  0  0  0  0  0  0
   -6.1190   18.0740  -34.1920 C   0  0  0  0  0  0  0  0  0  0  0  0
   -6.2440   17.1870  -34.9260 N   0  0  0  0  0  0  0  0  0  0  0  0
   -6.8740   20.2350  -33.2880 C   0  0  0  0  0  0  0  0  0  0  0  0
   -6.7250   21.3080  -32.4000 C   0  0  0  0  0  0  0  0  0  0  0  0
   -7.7020   22.3050  -32.3970 O   0  0  0  0  0  0  0  0  0  0  0  0
   -1.9830   24.3510  -29.1190 C   0  0  0  0  0  0  0  0  0  0  0  0
   -2.3100   25.6940  -28.9650 O   0  0  0  0  0  0  0  0  0  0  0  0
   -0.3180   27.4740  -26.7520 C   0  0  0  0  0  0  0  0  0  0  0  0
    0.3090   27.9720  -25.4350 C   0  0  0  0  0  0  0  0  0  0  0  0
    1.0042   27.0104  -22.5001 H   0  0  0  0  0  0  0  0  0  0  0  0
    2.4736   26.7618  -23.5030 H   0  0  0  0  0  0  0  0  0  0  0  0
    1.6454   28.3557  -23.5030 H   0  0  0  0  0  0  0  0  0  0  0  0
   -0.2769   25.1445  -23.7180 H   0  0  0  0  0  0  0  0  0  0  0  0
   -0.9757   26.7638  -23.2637 H   0  0  0  0  0  0  0  0  0  0  0  0
   -2.1065   25.0029  -25.0603 H   0  0  0  0  0  0  0  0  0  0  0  0
   -2.3816   26.8048  -24.9975 H   0  0  0  0  0  0  0  0  0  0  0  0
   -1.9723   26.1937  -27.2633 H   0  0  0  0  0  0  0  0  0  0  0  0
   -1.2344   20.5413  -29.4731 H   0  0  0  0  0  0  0  0  0  0  0  0
   -2.9541   21.6044  -30.9173 H   0  0  0  0  0  0  0  0  0  0  0  0
   -3.8921   20.2564  -30.7798 H   0  0  0  0  0  0  0  0  0  0  0  0
   -4.1764   18.3472  -32.3578 H   0  0  0  0  0  0  0  0  0  0  0  0
   -7.7158   20.2242  -33.9960 H   0  0  0  0  0  0  0  0  0  0  0  0
   -7.5540   23.2140  -31.9790 H   0  0  0  0  0  0  0  0  0  0  0  0
    0.4870   27.3140  -27.4844 H   0  0  0  0  0  0  0  0  0  0  0  0
   -1.0322   28.2411  -27.0858 H   0  0  0  0  0  0  0  0  0  0  0  0
    1.2190   28.5473  -25.6607 H   0  0  0  0  0  0  0  0  0  0  0  0
   -0.4180   28.6091  -24.9101 H   0  0  0  0  0  0  0  0  0  0  0  0
  1  2  1  0
  2  3  1  0
  3  4  1  0
  4  5  1  0
  5  6  1  0
  6  7  2  0
  6  8  2  0
  6  9  1  0
  9 10  2  0
 10 11  1  0
 10 12  1  0
 12 13  2  0
 13 14  1  0
 14 15  1  0
 15 16  1  0
 16 17  2  0
 16 18  1  0
 18 19  1  0
 19 20  2  0
 20 21  1  0
 21 22  2  0
 22 23  1  0
 23 24  3  0
 22 25  1  0
 25 26  2  0
 26 27  1  0
 14 28  2  0
 28 29  1  0
  5 30  1  0
 30 31  1  0
 31  2  1  0
 28  9  1  0
 26 19  1  0
  1 32  1  0
  1 33  1  0
  1 34  1  0
  3 35  1  0
  3 36  1  0
  4 37  1  0
  4 38  1  0
  5 39  1  0
 12 40  1  0
 13 41  1  0
 20 42  1  0
 21 43  1  0
 25 44  1  0
 27 45  1  0
 30 46  1  0
 30 47  1  0
 31 48  1  0
 31 49  1  0
M  CHG  3  15  -1  18  -1  29  -1
M  END
>  <UniqueID>  (40) 
37

>  <SMILES>  (40) 
CN1CCC(S(=O)(=O)c2c(Cl)ccc([N-]C(=O)[N-]c3ccc(C#N)cc3O)c2[O-])CC1

>  <Energy>  (40) 
68.4182731637864

>  <Genealogy>  (40) 
CN1CCC(S(=O)(=O)c2c(Cl)ccc([N-]C(=O)[N-]c3ccc(C#N)cc3O)c2[O-])CC1 (protonated)
CN1CCC(S(=O)(=O)c2c(Cl)ccc([N-]C(=O)[N-]c3ccc(C#N)cc3O)c2[O-])CC1 (3D coordinates assigned)
CN1CCC(S(=O)(=O)c2c(Cl)ccc([N-]C(=O)[N-]c3ccc(C#N)cc3O)c2[O-])CC1 (nonaromatic ring conformer: 68.4182731637864 kcal/mol)

>  <smiles>  (40) 
CN1CCC(S(=O)(=O)c2c(Cl)ccc(NC(=O)Nc3ccc(C#N)cc3O)c2O)CC1

>  <score_type>  (40) 
oracle

>  <origin>  (40) 
adgpu

>  <m_score__min__energy>  (40) 
-15.970000000000001

>  <m_primary>  (40) 
energy

$$$$
40:0
     RDKit          3D

 46 48  0  0  0  0  0  0  0  0999 V2000
   -6.8430   16.5770  -33.8450 C   0  0  0  0  0  0  0  0  0  0  0  0
   -7.1200   17.9290  -33.3780 N   0  0  0  0  0  0  0  0  0  0  0  0
   -6.0700   18.8020  -32.9360 C   0  0  0  0  0  0  0  0  0  0  0  0
   -4.8730   18.4000  -32.9570 O   0  0  0  0  0  0  0  0  0  0  0  0
   -6.3780   20.1680  -32.4550 C   0  0  0  0  0  0  0  0  0  0  0  0
   -5.3670   21.1370  -32.3290 C   0  0  0  0  0  0  0  0  0  0  0  0
   -5.6840   22.4150  -31.8590 C   0  0  0  0  0  0  0  0  0  0  0  0
   -4.6600   23.3690  -31.7550 O   0  0  0  0  0  0  0  0  0  0  0  0
   -3.5930   23.3130  -30.8470 C   0  0  0  0  0  0  0  0  0  0  0  0
   -2.8710   22.1270  -30.6260 C   0  0  0  0  0  0  0  0  0  0  0  0
   -1.8110   22.1050  -29.7170 C   0  0  0  0  0  0  0  0  0  0  0  0
   -1.4600   23.2600  -29.0110 C   0  0  0  0  0  0  0  0  0  0  0  0
   -0.3800   23.1990  -28.0680 N   0  0  0  0  0  0  0  0  0  0  0  0
   -0.3360   22.3740  -26.8930 C   0  0  0  0  0  0  0  0  0  0  0  0
    0.0930   22.8780  -25.8210 O   0  0  0  0  0  0  0  0  0  0  0  0
   -0.7300   20.9460  -26.9200 C   0  0  0  0  0  0  0  0  0  0  0  0
   -1.9670   20.5460  -26.3870 C   0  0  0  0  0  0  0  0  0  0  0  0
   -2.3490   19.2010  -26.4190 C   0  0  0  0  0  0  0  0  0  0  0  0
   -1.5020   18.2440  -26.9810 C   0  0  0  0  0  0  0  0  0  0  0  0
   -0.2620   18.6260  -27.5090 C   0  0  0  0  0  0  0  0  0  0  0  0
    0.8140   17.4240  -28.2150 S   0  0  0  0  0  0  0  0  0  0  0  0
    0.9620   16.0800  -27.1420 N   0  0  0  0  0  0  0  0  0  0  0  0
    2.1690   18.0340  -28.4470 O   0  0  0  0  0  0  0  0  0  0  0  0
    0.2640   16.9580  -29.5340 O   0  0  0  0  0  0  0  0  0  0  0  0
    0.1290   19.9710  -27.4590 C   0  0  0  0  0  0  0  0  0  0  0  0
   -2.1470   24.4600  -29.2670 C   0  0  0  0  0  0  0  0  0  0  0  0
   -3.2080   24.4840  -30.1780 C   0  0  0  0  0  0  0  0  0  0  0  0
   -3.8850   25.6750  -30.4140 O   0  0  0  0  0  0  0  0  0  0  0  0
   -7.0190   22.7200  -31.5490 C   0  0  0  0  0  0  0  0  0  0  0  0
   -7.9970   21.7350  -31.6870 C   0  0  0  0  0  0  0  0  0  0  0  0
   -7.6590   20.4950  -32.1290 N   0  0  0  0  0  0  0  0  0  0  0  0
   -6.7066   15.9111  -32.9802 H   0  0  0  0  0  0  0  0  0  0  0  0
   -7.6865   16.2193  -34.4537 H   0  0  0  0  0  0  0  0  0  0  0  0
   -5.9268   16.5798  -34.4537 H   0  0  0  0  0  0  0  0  0  0  0  0
   -8.1120   18.2560  -33.3680 H   0  0  0  0  0  0  0  0  0  0  0  0
   -4.3297   20.8903  -32.5994 H   0  0  0  0  0  0  0  0  0  0  0  0
   -3.1425   21.2115  -31.1720 H   0  0  0  0  0  0  0  0  0  0  0  0
   -1.2487   21.1735  -29.5554 H   0  0  0  0  0  0  0  0  0  0  0  0
   -2.6387   21.2949  -25.9421 H   0  0  0  0  0  0  0  0  0  0  0  0
   -3.3195   18.8963  -26.0002 H   0  0  0  0  0  0  0  0  0  0  0  0
   -1.8089   17.1881  -27.0092 H   0  0  0  0  0  0  0  0  0  0  0  0
    0.0430   15.9740  -26.6570 H   0  0  0  0  0  0  0  0  0  0  0  0
    1.1159   20.2667  -27.8445 H   0  0  0  0  0  0  0  0  0  0  0  0
   -1.8488   25.3833  -28.7488 H   0  0  0  0  0  0  0  0  0  0  0  0
   -7.2913   23.7271  -31.2003 H   0  0  0  0  0  0  0  0  0  0  0  0
   -9.0440   21.9623  -31.4376 H   0  0  0  0  0  0  0  0  0  0  0  0
  1  2  1  0
  2  3  1  0
  3  4  2  0
  3  5  1  0
  5  6  2  0
  6  7  1  0
  7  8  1  0
  8  9  1  0
  9 10  2  0
 10 11  1  0
 11 12  2  0
 12 13  1  0
 13 14  1  0
 14 15  2  0
 14 16  1  0
 16 17  2  0
 17 18  1  0
 18 19  2  0
 19 20  1  0
 20 21  1  0
 21 22  1  0
 21 23  2  0
 21 24  2  0
 20 25  2  0
 12 26  1  0
 26 27  2  0
 27 28  1  0
  7 29  2  0
 29 30  1  0
 30 31  2  0
 31  5  1  0
 27  9  1  0
 25 16  1  0
  1 32  1  0
  1 33  1  0
  1 34  1  0
  2 35  1  0
  6 36  1  0
 10 37  1  0
 11 38  1  0
 17 39  1  0
 18 40  1  0
 19 41  1  0
 22 42  1  0
 25 43  1  0
 26 44  1  0
 29 45  1  0
 30 46  1  0
M  CHG  3  13  -1  22  -1  28  -1
M  END
>  <UniqueID>  (41) 
38

>  <SMILES>  (41) 
CNC(=O)c1cc(Oc2ccc([N-]C(=O)c3cccc(S([NH-])(=O)=O)c3)cc2[O-])ccn1

>  <Energy>  (41) 
59.24799130613162

>  <Genealogy>  (41) 
CNC(=O)c1cc(Oc2ccc([N-]C(=O)c3cccc(S([NH-])(=O)=O)c3)cc2[O-])ccn1 (protonated)
CNC(=O)c1cc(Oc2ccc([N-]C(=O)c3cccc(S([NH-])(=O)=O)c3)cc2[O-])ccn1 (3D coordinates assigned)
CNC(=O)c1cc(Oc2ccc([N-]C(=O)c3cccc(S([NH-])(=O)=O)c3)cc2[O-])ccn1 (optimized conformer: 59.24799130613162 kcal/mol)

>  <smiles>  (41) 
CNC(=O)c1cc(Oc2ccc(NC(=O)c3cccc(S(N)(=O)=O)c3)cc2O)ccn1

>  <score_type>  (41) 
oracle

>  <origin>  (41) 
adgpu

>  <m_score__min__energy>  (41) 
-12.880000000000001

>  <m_primary>  (41) 
energy

$$$$
41:0
     RDKit          3D

 55 58  0  0  0  0  0  0  0  0999 V2000
   -2.1520   20.0170  -27.1830 C   0  0  0  0  0  0  0  0  0  0  0  0
   -2.2690   21.2090  -28.0220 N   0  0  0  0  0  0  0  0  0  0  0  0
   -3.1980   22.1700  -27.8610 C   0  0  0  0  0  0  0  0  0  0  0  0
   -3.0140   23.1390  -28.8230 C   0  0  0  0  0  0  0  0  0  0  0  0
   -3.7620   24.3480  -28.9700 N   0  0  0  0  0  0  0  0  0  0  0  0
   -4.4440   24.7170  -30.1740 C   0  0  0  0  0  0  0  0  0  0  0  0
   -3.9380   25.6090  -30.9090 O   0  0  0  0  0  0  0  0  0  0  0  0
   -5.6840   24.0250  -30.6030 C   0  0  0  0  0  0  0  0  0  0  0  0
   -6.3830   23.1910  -29.7140 C   0  0  0  0  0  0  0  0  0  0  0  0
   -7.5080   22.4830  -30.1410 C   0  0  0  0  0  0  0  0  0  0  0  0
   -7.9370   22.5720  -31.4720 C   0  0  0  0  0  0  0  0  0  0  0  0
   -9.1090   21.8070  -31.9610 C   0  0  0  0  0  0  0  0  0  0  0  0
   -9.0770   20.5260  -32.3730 C   0  0  0  0  0  0  0  0  0  0  0  0
   -7.8490   19.7110  -32.5200 C   0  0  0  0  0  0  0  0  0  0  0  0
   -7.6980   18.5460  -31.7460 C   0  0  0  0  0  0  0  0  0  0  0  0
   -6.5430   17.7660  -31.8600 C   0  0  0  0  0  0  0  0  0  0  0  0
   -5.5400   18.1300  -32.7630 C   0  0  0  0  0  0  0  0  0  0  0  0
   -5.6990   19.2670  -33.5670 C   0  0  0  0  0  0  0  0  0  0  0  0
   -6.8520   20.0500  -33.4560 C   0  0  0  0  0  0  0  0  0  0  0  0
   -7.2660   23.4340  -32.3480 C   0  0  0  0  0  0  0  0  0  0  0  0
   -6.1400   24.1450  -31.9220 C   0  0  0  0  0  0  0  0  0  0  0  0
   -1.9470   22.7670  -29.6060 C   0  0  0  0  0  0  0  0  0  0  0  0
   -1.5030   21.5570  -29.0860 C   0  0  0  0  0  0  0  0  0  0  0  0
   -0.4050   20.7350  -29.6620 C   0  0  0  0  0  0  0  0  0  0  0  0
    0.2270   19.9280  -28.9330 O   0  0  0  0  0  0  0  0  0  0  0  0
   -0.0960   20.7720  -31.0600 N   0  0  0  0  0  0  0  0  0  0  0  0
   -0.8880   20.1910  -32.1050 C   0  0  0  0  0  0  0  0  0  0  0  0
   -1.5370   21.0010  -33.0580 C   0  0  0  0  0  0  0  0  0  0  0  0
   -2.3080   20.4220  -34.0680 C   0  0  0  0  0  0  0  0  0  0  0  0
   -2.4370   19.0320  -34.1410 C   0  0  0  0  0  0  0  0  0  0  0  0
   -1.7890   18.2230  -33.2100 C   0  0  0  0  0  0  0  0  0  0  0  0
   -1.0040   18.7890  -32.1930 C   0  0  0  0  0  0  0  0  0  0  0  0
   -0.3470   17.9360  -31.2510 N   0  0  0  0  0  0  0  0  0  0  0  0
   -2.1808   20.3103  -26.1232 H   0  0  0  0  0  0  0  0  0  0  0  0
   -2.9875   19.3343  -27.3973 H   0  0  0  0  0  0  0  0  0  0  0  0
   -1.1998   19.5098  -27.3973 H   0  0  0  0  0  0  0  0  0  0  0  0
   -3.9785   22.1800  -27.0860 H   0  0  0  0  0  0  0  0  0  0  0  0
   -6.0410   23.0951  -28.6729 H   0  0  0  0  0  0  0  0  0  0  0  0
   -8.0604   21.8522  -29.4290 H   0  0  0  0  0  0  0  0  0  0  0  0
  -10.0786   22.3258  -31.9893 H   0  0  0  0  0  0  0  0  0  0  0  0
  -10.0364   20.0477  -32.6194 H   0  0  0  0  0  0  0  0  0  0  0  0
   -8.4931   18.2469  -31.0471 H   0  0  0  0  0  0  0  0  0  0  0  0
   -6.4237   16.8659  -31.2390 H   0  0  0  0  0  0  0  0  0  0  0  0
   -4.6255   17.5239  -32.8426 H   0  0  0  0  0  0  0  0  0  0  0  0
   -4.9148   19.5440  -34.2870 H   0  0  0  0  0  0  0  0  0  0  0  0
   -6.9809   20.9321  -34.1005 H   0  0  0  0  0  0  0  0  0  0  0  0
   -7.6278   23.5528  -33.3800 H   0  0  0  0  0  0  0  0  0  0  0  0
   -5.6093   24.8022  -32.6265 H   0  0  0  0  0  0  0  0  0  0  0  0
   -1.5311   23.3134  -30.4654 H   0  0  0  0  0  0  0  0  0  0  0  0
   -1.4357   22.0951  -33.0060 H   0  0  0  0  0  0  0  0  0  0  0  0
   -2.8144   21.0603  -34.8070 H   0  0  0  0  0  0  0  0  0  0  0  0
   -3.0499   18.5771  -34.9331 H   0  0  0  0  0  0  0  0  0  0  0  0
   -1.8935   17.1298  -33.2724 H   0  0  0  0  0  0  0  0  0  0  0  0
    0.1350   18.3370  -30.4110 H   0  0  0  0  0  0  0  0  0  0  0  0
   -0.3130   16.9070  -31.3820 H   0  0  0  0  0  0  0  0  0  0  0  0
  1  2  1  0
  2  3  1  0
  3  4  2  0
  4  5  1  0
  5  6  1  0
  6  7  2  0
  6  8  1  0
  8  9  2  0
  9 10  1  0
 10 11  2  0
 11 12  1  0
 12 13  2  3
 13 14  1  0
 14 15  2  0
 15 16  1  0
 16 17  2  0
 17 18  1  0
 18 19  2  0
 11 20  1  0
 20 21  2  0
  4 22  1  0
 22 23  2  0
 23 24  1  0
 24 25  2  0
 24 26  1  0
 26 27  1  0
 27 28  2  0
 28 29  1  0
 29 30  2  0
 30 31  1  0
 31 32  2  0
 32 33  1  0
 23  2  1  0
 32 27  1  0
 21  8  1  0
 19 14  1  0
  1 34  1  0
  1 35  1  0
  1 36  1  0
  3 37  1  0
  9 38  1  0
 10 39  1  0
 12 40  1  0
 13 41  1  0
 15 42  1  0
 16 43  1  0
 17 44  1  0
 18 45  1  0
 19 46  1  0
 20 47  1  0
 21 48  1  0
 22 49  1  0
 28 50  1  0
 29 51  1  0
 30 52  1  0
 31 53  1  0
 33 54  1  0
 33 55  1  0
M  CHG  2   5  -1  26  -1
M  END
>  <UniqueID>  (42) 
39

>  <SMILES>  (42) 
Cn1cc([N-]C(=O)c2ccc(C=Cc3ccccc3)cc2)cc1C(=O)[N-]c1ccccc1N

>  <Energy>  (42) 
109.63310191162826

>  <Genealogy>  (42) 
Cn1cc([N-]C(=O)c2ccc(C=Cc3ccccc3)cc2)cc1C(=O)[N-]c1ccccc1N (protonated)
Cn1cc([N-]C(=O)c2ccc(C=Cc3ccccc3)cc2)cc1C(=O)[N-]c1ccccc1N (3D coordinates assigned)
Cn1cc([N-]C(=O)c2ccc(C=Cc3ccccc3)cc2)cc1C(=O)[N-]c1ccccc1N (optimized conformer: 109.63310191162826 kcal/mol)

>  <smiles>  (42) 
Cn1cc(NC(=O)c2ccc(C=Cc3ccccc3)cc2)cc1C(=O)Nc1ccccc1N

>  <score_type>  (42) 
oracle

>  <origin>  (42) 
adgpu

>  <m_score__min__energy>  (42) 
-12.380000000000001

>  <m_primary>  (42) 
energy

$$$$
42:0
     RDKit          3D

 40 42  0  0  0  0  0  0  0  0999 V2000
   -0.8200   26.3600  -27.6550 C   0  0  0  0  0  0  0  0  0  0  0  0
   -1.3020   26.1230  -28.9710 O   0  0  0  0  0  0  0  0  0  0  0  0
   -1.9200   24.9250  -29.3340 C   0  0  0  0  0  0  0  0  0  0  0  0
   -3.1350   24.8500  -29.9120 N   0  0  0  0  0  0  0  0  0  0  0  0
   -3.2800   23.5160  -30.0590 C   0  0  0  0  0  0  0  0  0  0  0  0
   -4.4680   22.8810  -30.6690 C   0  0  0  0  0  0  0  0  0  0  0  0
   -5.5260   23.6670  -31.1600 C   0  0  0  0  0  0  0  0  0  0  0  0
   -6.6520   23.0660  -31.7260 C   0  0  0  0  0  0  0  0  0  0  0  0
   -6.7400   21.6700  -31.8010 C   0  0  0  0  0  0  0  0  0  0  0  0
   -7.9400   21.0410  -32.3700 C   0  0  0  0  0  0  0  0  0  0  0  0
   -9.0710   21.5400  -32.1120 O   0  0  0  0  0  0  0  0  0  0  0  0
   -7.8330   19.8160  -33.1320 N   0  0  2  0  0  0  0  0  0  0  0  0
   -8.1150   18.6200  -32.2860 C   0  0  0  0  0  0  0  0  0  0  0  0
   -6.8380   17.9150  -31.8090 C   0  0  0  0  0  0  0  0  0  0  0  0
   -5.9750   17.4550  -32.9970 C   0  0  0  0  0  0  0  0  0  0  0  0
   -6.1320   18.3590  -34.2390 C   0  0  2  0  0  0  0  0  0  0  0  0
   -4.9210   18.3970  -34.9510 O   0  0  0  0  0  0  0  0  0  0  0  0
   -6.5170   19.7840  -33.8210 C   0  0  0  0  0  0  0  0  0  0  0  0
   -5.7010   20.8780  -31.2990 C   0  0  0  0  0  0  0  0  0  0  0  0
   -4.5680   21.4790  -30.7440 C   0  0  0  0  0  0  0  0  0  0  0  0
   -2.2140   22.8310  -29.5980 N   0  0  0  0  0  0  0  0  0  0  0  0
   -1.3540   23.7220  -29.1410 N   0  0  0  0  0  0  0  0  0  0  0  0
   -1.5573   25.9975  -26.9236 H   0  0  0  0  0  0  0  0  0  0  0  0
    0.1315   25.8270  -27.5115 H   0  0  0  0  0  0  0  0  0  0  0  0
   -0.6611   27.4390  -27.5115 H   0  0  0  0  0  0  0  0  0  0  0  0
   -5.4659   24.7636  -31.0976 H   0  0  0  0  0  0  0  0  0  0  0  0
   -7.4711   23.6896  -32.1135 H   0  0  0  0  0  0  0  0  0  0  0  0
   -8.5680   19.8380  -33.8800 H   0  0  0  0  0  0  0  0  0  0  0  0
   -8.6898   18.9405  -31.4046 H   0  0  0  0  0  0  0  0  0  0  0  0
   -8.6785   17.9038  -32.9020 H   0  0  0  0  0  0  0  0  0  0  0  0
   -6.2536   18.6123  -31.1906 H   0  0  0  0  0  0  0  0  0  0  0  0
   -7.1284   17.0277  -31.2273 H   0  0  0  0  0  0  0  0  0  0  0  0
   -4.9193   17.4632  -32.6880 H   0  0  0  0  0  0  0  0  0  0  0  0
   -6.3112   16.4461  -33.2783 H   0  0  0  0  0  0  0  0  0  0  0  0
   -6.9278   17.9452  -34.8758 H   0  0  0  0  0  0  0  0  0  0  0  0
   -4.2320   18.7820  -34.3510 H   0  0  0  0  0  0  0  0  0  0  0  0
   -5.7478   20.1761  -33.1394 H   0  0  0  0  0  0  0  0  0  0  0  0
   -6.5893   20.4008  -34.7289 H   0  0  0  0  0  0  0  0  0  0  0  0
   -5.7763   19.7814  -31.3414 H   0  0  0  0  0  0  0  0  0  0  0  0
   -3.7485   20.8519  -30.3630 H   0  0  0  0  0  0  0  0  0  0  0  0
  1  2  1  0
  2  3  1  0
  3  4  2  0
  4  5  1  0
  5  6  1  0
  6  7  2  0
  7  8  1  0
  8  9  2  0
  9 10  1  0
 10 11  2  0
 10 12  1  0
 12 13  1  0
 13 14  1  0
 14 15  1  0
 15 16  1  0
 16 17  1  0
 16 18  1  0
  9 19  1  0
 19 20  2  0
  5 21  2  0
 21 22  1  0
 22  3  1  0
 20  6  1  0
 18 12  1  0
  1 23  1  0
  1 24  1  0
  1 25  1  0
  7 26  1  0
  8 27  1  0
 12 28  1  6
 13 29  1  0
 13 30  1  0
 14 31  1  0
 14 32  1  0
 15 33  1  0
 15 34  1  0
 16 35  1  6
 17 36  1  0
 18 37  1  0
 18 38  1  0
 19 39  1  0
 20 40  1  0
M  CHG  2  12   1  22  -1
M  END
>  <UniqueID>  (43) 
40

>  <SMILES>  (43) 
COc1nc(-c2ccc(C(=O)[N@@H+]3CCC[C@H](O)C3)cc2)n[n-]1

>  <Energy>  (43) 
88.3038820903465

>  <Genealogy>  (43) 
COc1nc(-c2ccc(C(=O)[NH+]3CCCC(O)C3)cc2)n[n-]1 (protonated)
COc1nc(-c2ccc(C(=O)[N@@H+]3CCC[C@H](O)C3)cc2)n[n-]1 (chirality)
COc1nc(-c2ccc(C(=O)[N@@H+]3CCC[C@H](O)C3)cc2)n[n-]1 (3D coordinates assigned)
COc1nc(-c2ccc(C(=O)[N@@H+]3CCC[C@H](O)C3)cc2)n[n-]1 (nonaromatic ring conformer: 88.3038820903465 kcal/mol)

>  <smiles>  (43) 
COc1nc(-c2ccc(C(=O)N3CCCC(O)C3)cc2)n[nH]1

>  <score_type>  (43) 
oracle

>  <origin>  (43) 
adgpu

>  <m_score__min__energy>  (43) 
-8.9600000000000009

>  <m_primary>  (43) 
energy

$$$$
43:0
     RDKit          3D

 37 39  0  0  0  0  0  0  0  0999 V2000
    0.4788   24.3162  -28.4806 H   0  0  0  0  0  0  0  0  0  0  0  0
   -0.6080   24.1710  -28.3920 C   0  0  0  0  0  0  0  0  0  0  0  0
   -1.4420   24.6890  -29.3340 N   0  0  0  0  0  0  0  0  0  0  0  0
   -2.7930   24.5390  -29.2720 C   0  0  0  0  0  0  0  0  0  0  0  0
   -3.5180   25.0730  -30.2120 N   0  0  0  0  0  0  0  0  0  0  0  0
   -5.2520   25.0250  -30.3360 S   0  0  0  0  0  0  0  0  0  0  0  0
   -5.7340   26.2930  -30.9840 O   0  0  0  0  0  0  0  0  0  0  0  0
   -5.8390   24.9280  -28.9580 O   0  0  0  0  0  0  0  0  0  0  0  0
   -5.7570   23.6180  -31.2680 C   0  0  0  0  0  0  0  0  0  0  0  0
   -7.1180   23.3540  -31.4520 C   0  0  0  0  0  0  0  0  0  0  0  0
   -7.8701   24.0336  -31.0248 H   0  0  0  0  0  0  0  0  0  0  0  0
   -7.5270   22.2310  -32.1760 C   0  0  0  0  0  0  0  0  0  0  0  0
   -8.5994   22.0339  -32.3214 H   0  0  0  0  0  0  0  0  0  0  0  0
   -6.5730   21.3510  -32.7200 C   0  0  0  0  0  0  0  0  0  0  0  0
   -6.9600   20.2220  -33.4580 O   0  0  0  0  0  0  0  0  0  0  0  0
   -6.5510   18.9040  -33.2040 C   0  0  0  0  0  0  0  0  0  0  0  0
   -6.0900   18.1250  -34.2720 C   0  0  0  0  0  0  0  0  0  0  0  0
   -6.0659   18.5479  -35.2872 H   0  0  0  0  0  0  0  0  0  0  0  0
   -5.6600   16.8120  -34.0550 C   0  0  0  0  0  0  0  0  0  0  0  0
   -5.3079   16.2025  -34.9003 H   0  0  0  0  0  0  0  0  0  0  0  0
   -5.6770   16.2730  -32.7650 C   0  0  0  0  0  0  0  0  0  0  0  0
   -5.2580   15.0010  -32.5560 F   0  0  0  0  0  0  0  0  0  0  0  0
   -6.1160   17.0500  -31.6900 C   0  0  0  0  0  0  0  0  0  0  0  0
   -6.1221   16.6284  -30.6740 H   0  0  0  0  0  0  0  0  0  0  0  0
   -6.5480   18.3640  -31.9040 C   0  0  0  0  0  0  0  0  0  0  0  0
   -6.8858   18.9759  -31.0547 H   0  0  0  0  0  0  0  0  0  0  0  0
   -5.2060   21.6350  -32.5590 C   0  0  0  0  0  0  0  0  0  0  0  0
   -4.2080   20.7620  -33.1260 C   0  0  0  0  0  0  0  0  0  0  0  0
   -3.4080   20.0620  -33.5820 N   0  0  0  0  0  0  0  0  0  0  0  0
   -4.8020   22.7620  -31.8320 C   0  0  0  0  0  0  0  0  0  0  0  0
   -3.7307   22.9758  -31.7034 H   0  0  0  0  0  0  0  0  0  0  0  0
   -3.3520   23.8180  -28.1960 C   0  0  0  0  0  0  0  0  0  0  0  0
   -4.4412   23.6806  -28.1269 H   0  0  0  0  0  0  0  0  0  0  0  0
   -2.5110   23.2800  -27.2190 C   0  0  0  0  0  0  0  0  0  0  0  0
   -2.9372   22.7178  -26.3750 H   0  0  0  0  0  0  0  0  0  0  0  0
   -1.1300   23.4560  -27.3140 C   0  0  0  0  0  0  0  0  0  0  0  0
   -0.4612   23.0361  -26.5482 H   0  0  0  0  0  0  0  0  0  0  0  0
  1  2  1  0
  2  3  1  0
  3  4  1  0
  4  5  2  0
  5  6  1  0
  6  7  2  0
  6  8  2  0
  6  9  1  0
  9 10  2  0
 10 11  1  0
 10 12  1  0
 12 13  1  0
 12 14  2  0
 14 15  1  0
 15 16  1  0
 16 17  2  0
 17 18  1  0
 17 19  1  0
 19 20  1  0
 19 21  2  0
 21 22  1  0
 21 23  1  0
 23 24  1  0
 23 25  2  0
 25 26  1  0
 14 27  1  0
 27 28  1  0
 28 29  3  0
 27 30  2  0
 30 31  1  0
  4 32  1  0
 32 33  1  0
 32 34  2  0
 34 35  1  0
 34 36  1  0
 36 37  1  0
 36  2  2  0
 30  9  1  0
 25 16  1  0
M  CHG  1   3  -1
M  END
>  <UniqueID>  (44) 
41

>  <SMILES>  (44) 
N#Cc1cc(S(=O)(=O)/N=c2\cccc[n-]2)ccc1Oc1ccc(F)cc1

>  <Energy>  (44) 
52.00069976215886

>  <Genealogy>  (44) 
N#Cc1cc(S(=O)(=O)N=c2cccc[n-]2)ccc1Oc1ccc(F)cc1 (protonated)
N#Cc1cc(S(=O)(=O)/N=c2\cccc[n-]2)ccc1Oc1ccc(F)cc1 (cis-trans isomerization)
N#Cc1cc(S(=O)(=O)/N=c2\cccc[n-]2)ccc1Oc1ccc(F)cc1 (3D coordinates assigned)
N#Cc1cc(S(=O)(=O)/N=c2\cccc[n-]2)ccc1Oc1ccc(F)cc1 (optimized conformer: 52.00069976215886 kcal/mol)

>  <smiles>  (44) 
N#Cc1cc(S(=O)(=O)N=c2cccc[nH]2)ccc1Oc1ccc(F)cc1

>  <score_type>  (44) 
oracle

>  <origin>  (44) 
adgpu

>  <m_score__min__energy>  (44) 
-10.67

>  <m_primary>  (44) 
energy

$$$$
44:0
     RDKit          3D

 60 64  0  0  0  0  0  0  0  0999 V2000
   -0.0593   20.6466  -28.2294 H   0  0  0  0  0  0  0  0  0  0  0  0
   -0.0270   21.7460  -28.2430 C   0  0  0  0  0  0  0  0  0  0  0  0
    0.9360   22.4230  -27.4900 C   0  0  0  0  0  0  0  0  0  0  0  0
    1.6631   21.8542  -26.8918 H   0  0  0  0  0  0  0  0  0  0  0  0
    0.9790   23.8230  -27.4940 C   0  0  0  0  0  0  0  0  0  0  0  0
    2.1800   24.6900  -26.5400 S   0  0  0  0  0  0  0  0  0  0  0  0
    2.6110   25.9290  -27.2750 O   0  0  0  0  0  0  0  0  0  0  0  0
    3.3850   23.8100  -26.3430 O   0  0  0  0  0  0  0  0  0  0  0  0
    1.5410   25.0760  -24.9670 N   0  0  0  0  0  0  0  0  0  0  0  0
    1.9690   24.5740  -24.1560 H   0  0  0  0  0  0  0  0  0  0  0  0
    0.5740   25.9220  -24.7400 C   0  0  0  0  0  0  0  0  0  0  0  0
    0.0980   26.1820  -23.4330 N   0  0  0  0  0  0  0  0  0  0  0  0
    0.4940   25.7720  -22.5570 H   0  0  0  0  0  0  0  0  0  0  0  0
   -0.9580   27.1710  -23.4660 C   0  0  0  0  0  0  0  0  0  0  0  0
   -0.6337   28.0934  -22.9620 H   0  0  0  0  0  0  0  0  0  0  0  0
   -1.8597   26.8151  -22.9461 H   0  0  0  0  0  0  0  0  0  0  0  0
   -1.2370   27.4450  -24.9570 C   0  0  0  0  0  0  0  0  0  0  0  0
   -1.2026   28.5266  -25.1543 H   0  0  0  0  0  0  0  0  0  0  0  0
   -2.2348   27.0793  -25.2412 H   0  0  0  0  0  0  0  0  0  0  0  0
   -0.1420   26.7270  -25.7640 C   0  0  0  0  0  0  0  0  0  0  0  0
    0.5358   27.4520  -26.2384 H   0  0  0  0  0  0  0  0  0  0  0  0
   -0.5463   26.1149  -26.5836 H   0  0  0  0  0  0  0  0  0  0  0  0
    0.0500   24.5400  -28.2630 C   0  0  0  0  0  0  0  0  0  0  0  0
    0.0737   25.6397  -28.2650 H   0  0  0  0  0  0  0  0  0  0  0  0
   -0.9060   23.8630  -29.0270 C   0  0  0  0  0  0  0  0  0  0  0  0
   -1.6224   24.4322  -29.6375 H   0  0  0  0  0  0  0  0  0  0  0  0
   -0.9550   22.4640  -29.0180 C   0  0  0  0  0  0  0  0  0  0  0  0
   -1.9400   21.7730  -29.8050 N   0  0  0  0  0  0  0  0  0  0  0  0
   -3.3460   22.0790  -29.7540 C   0  0  0  0  0  0  0  0  0  0  0  0
   -4.1200   22.5190  -28.3750 S   0  0  0  0  0  0  0  0  0  0  0  0
   -4.0230   21.8450  -30.9920 N   0  0  0  0  0  0  0  0  0  0  0  0
   -5.3880   22.1440  -31.3130 C   0  0  0  0  0  0  0  0  0  0  0  0
   -5.8470   23.4760  -31.2440 C   0  0  0  0  0  0  0  0  0  0  0  0
   -4.9200   24.5860  -30.8280 C   0  0  0  0  0  0  0  0  0  0  0  0
   -4.8779   24.6364  -29.7300 H   0  0  0  0  0  0  0  0  0  0  0  0
   -3.9129   24.3908  -31.2250 H   0  0  0  0  0  0  0  0  0  0  0  0
   -5.2916   25.5422  -31.2250 H   0  0  0  0  0  0  0  0  0  0  0  0
   -7.1890   23.7610  -31.5390 C   0  0  0  0  0  0  0  0  0  0  0  0
   -7.5505   24.7983  -31.4806 H   0  0  0  0  0  0  0  0  0  0  0  0
   -8.0730   22.7390  -31.9070 C   0  0  0  0  0  0  0  0  0  0  0  0
   -9.4940   23.0620  -32.2660 C   0  0  0  0  0  0  0  0  0  0  0  0
  -10.0831   23.1959  -31.3467 H   0  0  0  0  0  0  0  0  0  0  0  0
   -9.5211   23.9892  -32.8572 H   0  0  0  0  0  0  0  0  0  0  0  0
   -9.9193   22.2376  -32.8572 H   0  0  0  0  0  0  0  0  0  0  0  0
   -7.6050   21.4210  -32.0040 C   0  0  0  0  0  0  0  0  0  0  0  0
   -8.2888   20.6221  -32.3267 H   0  0  0  0  0  0  0  0  0  0  0  0
   -6.2720   21.1120  -31.6930 C   0  0  0  0  0  0  0  0  0  0  0  0
   -5.7930   19.6900  -31.7940 C   0  0  0  0  0  0  0  0  0  0  0  0
   -5.6540   19.2773  -30.7839 H   0  0  0  0  0  0  0  0  0  0  0  0
   -6.5385   19.0896  -32.3360 H   0  0  0  0  0  0  0  0  0  0  0  0
   -4.8362   19.6630  -32.3360 H   0  0  0  0  0  0  0  0  0  0  0  0
   -3.0230   21.4090  -31.8980 C   0  0  0  0  0  0  0  0  0  0  0  0
   -3.2280   21.1550  -33.1150 O   0  0  0  0  0  0  0  0  0  0  0  0
   -1.7270   21.3280  -31.1860 C   0  0  0  0  0  0  0  0  0  0  0  0
   -0.3490   21.2810  -31.8270 C   0  0  0  0  0  0  0  0  0  0  0  0
   -0.2392   21.4458  -32.9090 H   0  0  0  0  0  0  0  0  0  0  0  0
    0.6090   21.7926  -31.6527 H   0  0  0  0  0  0  0  0  0  0  0  0
   -1.0030   19.9940  -31.3090 C   0  0  0  0  0  0  0  0  0  0  0  0
   -1.3635   19.2349  -32.0188 H   0  0  0  0  0  0  0  0  0  0  0  0
   -0.7105   19.1980  -30.6084 H   0  0  0  0  0  0  0  0  0  0  0  0
  1  2  1  0
  2  3  2  0
  3  4  1  0
  3  5  1  0
  5  6  1  0
  6  7  2  0
  6  8  2  0
  6  9  1  0
  9 10  1  0
  9 11  2  0
 11 12  1  0
 12 13  1  0
 12 14  1  0
 14 15  1  0
 14 16  1  0
 14 17  1  0
 17 18  1  0
 17 19  1  0
 17 20  1  0
 20 21  1  0
 20 22  1  0
  5 23  2  0
 23 24  1  0
 23 25  1  0
 25 26  1  0
 25 27  2  0
 27 28  1  0
 28 29  1  0
 29 30  2  0
 29 31  1  0
 31 32  1  0
 32 33  2  0
 33 34  1  0
 34 35  1  0
 34 36  1  0
 34 37  1  0
 33 38  1  0
 38 39  1  0
 38 40  2  0
 40 41  1  0
 41 42  1  0
 41 43  1  0
 41 44  1  0
 40 45  1  0
 45 46  1  0
 45 47  2  0
 47 48  1  0
 48 49  1  0
 48 50  1  0
 48 51  1  0
 31 52  1  0
 52 53  2  0
 52 54  1  0
 54 55  1  0
 55 56  1  0
 55 57  1  0
 55 58  1  0
 58 59  1  0
 58 60  1  0
 27  2  1  0
 54 28  1  0
 20 11  1  0
 47 32  1  0
 58 54  1  0
M  CHG  1   9   1
M  END
>  <UniqueID>  (45) 
42

>  <SMILES>  (45) 
Cc1cc(C)c(N2C(=O)C3(CC3)N(c3ccc(S(=O)(=O)/[NH+]=C4\CCCN4)cc3)C2=S)c(C)c1

>  <Energy>  (45) 
383.34431693714254

>  <Genealogy>  (45) 
Cc1cc(C)c(N2C(=O)C3(CC3)N(c3ccc(S(=O)(=O)[NH+]=C4CCCN4)cc3)C2=S)c(C)c1 (protonated)
Cc1cc(C)c(N2C(=O)C3(CC3)N(c3ccc(S(=O)(=O)/[NH+]=C4\CCCN4)cc3)C2=S)c(C)c1 (cis-trans isomerization)
Cc1cc(C)c(N2C(=O)C3(CC3)N(c3ccc(S(=O)(=O)/[NH+]=C4\CCCN4)cc3)C2=S)c(C)c1 (3D coordinates assigned)
Cc1cc(C)c(N2C(=O)C3(CC3)N(c3ccc(S(=O)(=O)/[NH+]=C4\CCCN4)cc3)C2=S)c(C)c1 (nonaromatic ring conformer: 383.34431693714254 kcal/mol)

>  <smiles>  (45) 
Cc1cc(C)c(N2C(=O)C3(CC3)N(c3ccc(S(=O)(=O)N=C4CCCN4)cc3)C2=S)c(C)c1

>  <score_type>  (45) 
oracle

>  <origin>  (45) 
adgpu

>  <m_score__min__energy>  (45) 
-9.4100000000000001

>  <m_primary>  (45) 
energy

$$$$
45:0
     RDKit          3D

 42 44  0  0  0  0  0  0  0  0999 V2000
   -5.5240   26.3920  -30.4770 O   0  0  0  0  0  0  0  0  0  0  0  0
   -5.1870   24.9830  -30.0860 S   0  0  0  0  0  0  0  0  0  0  0  0
   -5.0980   24.9080  -28.5870 O   0  0  0  0  0  0  0  0  0  0  0  0
   -3.6540   24.5500  -30.7750 N   0  0  0  0  0  0  0  0  0  0  0  0
   -3.1320   23.2180  -30.8620 C   0  0  0  0  0  0  0  0  0  0  0  0
   -2.1650   22.8170  -29.9320 C   0  0  0  0  0  0  0  0  0  0  0  0
   -1.6160   21.5350  -29.9890 C   0  0  0  0  0  0  0  0  0  0  0  0
   -2.0280   20.6430  -30.9780 C   0  0  0  0  0  0  0  0  0  0  0  0
   -3.0010   21.0240  -31.9150 C   0  0  0  0  0  0  0  0  0  0  0  0
   -3.5280   19.8930  -33.1690 S   0  0  0  0  0  0  0  0  0  0  0  0
   -2.7360   20.1520  -34.4210 O   0  0  0  0  0  0  0  0  0  0  0  0
   -3.2290   18.4870  -32.7200 O   0  0  0  0  0  0  0  0  0  0  0  0
   -5.2410   20.0330  -33.5210 N   0  0  0  0  0  0  0  0  0  0  0  0
   -5.6920   18.9890  -34.4800 C   0  0  0  0  0  0  0  0  0  0  0  0
   -6.1930   17.6890  -33.8170 C   0  0  0  0  0  0  0  0  0  0  0  0
   -7.1110   17.9140  -32.5960 C   0  0  0  0  0  0  0  0  0  0  0  0
   -7.3770   19.3960  -32.3480 C   0  0  0  0  0  0  0  0  0  0  0  0
   -6.0380   20.1430  -32.2710 C   0  0  0  0  0  0  0  0  0  0  0  0
   -3.5640   22.3070  -31.8420 C   0  0  0  0  0  0  0  0  0  0  0  0
   -6.4490   23.9160  -30.6750 C   0  0  0  0  0  0  0  0  0  0  0  0
   -7.2040   23.0410  -29.9080 C   0  0  0  0  0  0  0  0  0  0  0  0
   -8.1250   22.3100  -30.6640 C   0  0  0  0  0  0  0  0  0  0  0  0
   -8.1020   22.6130  -32.0190 C   0  0  0  0  0  0  0  0  0  0  0  0
   -6.9230   23.7810  -32.2840 S   0  0  0  0  0  0  0  0  0  0  0  0
   -1.8355   23.5176  -29.1506 H   0  0  0  0  0  0  0  0  0  0  0  0
   -0.8579   21.2284  -29.2533 H   0  0  0  0  0  0  0  0  0  0  0  0
   -1.5884   19.6357  -31.0242 H   0  0  0  0  0  0  0  0  0  0  0  0
   -5.3370   20.9470  -34.0240 H   0  0  0  0  0  0  0  0  0  0  0  0
   -6.5123   19.4064  -35.0824 H   0  0  0  0  0  0  0  0  0  0  0  0
   -4.8135   18.7158  -35.0830 H   0  0  0  0  0  0  0  0  0  0  0  0
   -6.7530   17.1124  -34.5680 H   0  0  0  0  0  0  0  0  0  0  0  0
   -5.3024   17.1583  -33.4492 H   0  0  0  0  0  0  0  0  0  0  0  0
   -8.0701   17.4057  -32.7740 H   0  0  0  0  0  0  0  0  0  0  0  0
   -6.6039   17.5061  -31.7091 H   0  0  0  0  0  0  0  0  0  0  0  0
   -7.9795   19.8047  -33.1726 H   0  0  0  0  0  0  0  0  0  0  0  0
   -7.9244   19.5201  -31.4020 H   0  0  0  0  0  0  0  0  0  0  0  0
   -6.2402   21.2066  -32.0762 H   0  0  0  0  0  0  0  0  0  0  0  0
   -5.4497   19.6833  -31.4632 H   0  0  0  0  0  0  0  0  0  0  0  0
   -4.3477   22.6018  -32.5554 H   0  0  0  0  0  0  0  0  0  0  0  0
   -7.0900   22.9336  -28.8192 H   0  0  0  0  0  0  0  0  0  0  0  0
   -8.8047   21.5641  -30.2263 H   0  0  0  0  0  0  0  0  0  0  0  0
   -8.7467   22.1642  -32.7890 H   0  0  0  0  0  0  0  0  0  0  0  0
  1  2  2  0
  2  3  2  0
  2  4  1  0
  4  5  1  0
  5  6  2  0
  6  7  1  0
  7  8  2  0
  8  9  1  0
  9 10  1  0
 10 11  2  0
 10 12  2  0
 10 13  1  0
 13 14  1  0
 14 15  1  0
 15 16  1  0
 16 17  1  0
 17 18  1  0
  9 19  2  0
  2 20  1  0
 20 21  2  0
 21 22  1  0
 22 23  2  0
 23 24  1  0
 19  5  1  0
 24 20  1  0
 18 13  1  0
  6 25  1  0
  7 26  1  0
  8 27  1  0
 13 28  1  0
 14 29  1  0
 14 30  1  0
 15 31  1  0
 15 32  1  0
 16 33  1  0
 16 34  1  0
 17 35  1  0
 17 36  1  0
 18 37  1  0
 18 38  1  0
 19 39  1  0
 21 40  1  0
 22 41  1  0
 23 42  1  0
M  CHG  2   4  -1  13   1
M  END
>  <UniqueID>  (46) 
43

>  <SMILES>  (46) 
O=S(=O)([N-]c1cccc(S(=O)(=O)[NH+]2CCCCC2)c1)c1cccs1

>  <Energy>  (46) 
76.49072562803094

>  <Genealogy>  (46) 
O=S(=O)([N-]c1cccc(S(=O)(=O)[NH+]2CCCCC2)c1)c1cccs1 (protonated)
O=S(=O)([N-]c1cccc(S(=O)(=O)[NH+]2CCCCC2)c1)c1cccs1 (3D coordinates assigned)
O=S(=O)([N-]c1cccc(S(=O)(=O)[NH+]2CCCCC2)c1)c1cccs1 (nonaromatic ring conformer: 76.49072562803094 kcal/mol)

>  <smiles>  (46) 
O=S(=O)(Nc1cccc(S(=O)(=O)N2CCCCC2)c1)c1cccs1

>  <score_type>  (46) 
oracle

>  <origin>  (46) 
adgpu

>  <m_score__min__energy>  (46) 
-9.9399999999999995

>  <m_primary>  (46) 
energy

$$$$
46:0
     RDKit          3D

 59 62  0  0  0  0  0  0  0  0999 V2000
   -3.8810   25.6560  -30.7130 N   0  0  0  0  0  0  0  0  0  0  0  0
   -5.1340   24.4630  -30.7790 S   0  0  0  0  0  0  0  0  0  0  0  0
   -5.7610   24.3510  -29.4170 O   0  0  0  0  0  0  0  0  0  0  0  0
   -6.1830   24.8830  -31.7710 O   0  0  0  0  0  0  0  0  0  0  0  0
   -4.4530   22.9100  -31.2630 C   0  0  0  0  0  0  0  0  0  0  0  0
   -3.1910   22.5050  -30.7990 C   0  0  0  0  0  0  0  0  0  0  0  0
   -2.6590   21.2720  -31.1900 C   0  0  0  0  0  0  0  0  0  0  0  0
   -3.3830   20.4260  -32.0390 C   0  0  0  0  0  0  0  0  0  0  0  0
   -2.8160   19.1620  -32.4090 N   0  0  0  0  0  0  0  0  0  0  0  0
   -1.5880   18.9450  -33.1220 C   0  0  0  0  0  0  0  0  0  0  0  0
   -1.6470   18.6650  -34.3480 O   0  0  0  0  0  0  0  0  0  0  0  0
   -0.2620   19.0880  -32.4770 C   0  0  0  0  0  0  0  0  0  0  0  0
    0.8700   19.3920  -33.2540 C   0  0  0  0  0  0  0  0  0  0  0  0
    2.1290   19.5030  -32.6560 C   0  0  0  0  0  0  0  0  0  0  0  0
    2.2720   19.3060  -31.2810 C   0  0  0  0  0  0  0  0  0  0  0  0
    1.1500   19.0250  -30.4910 C   0  0  0  0  0  0  0  0  0  0  0  0
    1.3330   18.7520  -28.7600 S   0  0  0  0  0  0  0  0  0  0  0  0
    2.7470   18.3300  -28.4590 O   0  0  0  0  0  0  0  0  0  0  0  0
    0.4040   17.6550  -28.3120 O   0  0  0  0  0  0  0  0  0  0  0  0
    0.9800   20.2020  -27.8820 N   0  0  0  0  0  0  0  0  0  0  0  0
   -0.3540   20.7030  -27.7870 C   0  0  0  0  0  0  0  0  0  0  0  0
   -1.4170   19.8100  -27.5910 C   0  0  0  0  0  0  0  0  0  0  0  0
   -2.7290   20.2880  -27.5060 C   0  0  0  0  0  0  0  0  0  0  0  0
   -2.9840   21.6590  -27.5980 C   0  0  0  0  0  0  0  0  0  0  0  0
   -1.9230   22.5620  -27.7820 C   0  0  0  0  0  0  0  0  0  0  0  0
   -2.2340   24.2940  -27.8350 S   0  0  0  0  0  0  0  0  0  0  0  0
   -3.7190   24.5010  -27.9320 O   0  0  0  0  0  0  0  0  0  0  0  0
   -1.5890   24.8820  -29.0600 O   0  0  0  0  0  0  0  0  0  0  0  0
   -1.5810   25.0310  -26.3790 N   0  0  0  0  0  0  0  0  0  0  0  0
   -1.2130   26.4440  -26.5850 C   0  0  0  0  0  0  0  0  0  0  0  0
    0.0950   26.5990  -27.3950 C   0  0  0  0  0  0  0  0  0  0  0  0
    0.6910   25.3530  -27.7030 O   0  0  0  0  0  0  0  0  0  0  0  0
    0.8950   24.6140  -26.5160 C   0  0  0  0  0  0  0  0  0  0  0  0
   -0.4440   24.2620  -25.8290 C   0  0  0  0  0  0  0  0  0  0  0  0
   -0.6060   22.0810  -27.8750 C   0  0  0  0  0  0  0  0  0  0  0  0
   -0.1150   18.9290  -31.0880 C   0  0  0  0  0  0  0  0  0  0  0  0
   -4.6350   20.8470  -32.5240 C   0  0  0  0  0  0  0  0  0  0  0  0
   -5.1730   22.0730  -32.1250 C   0  0  0  0  0  0  0  0  0  0  0  0
   -3.5160   25.6720  -29.7320 H   0  0  0  0  0  0  0  0  0  0  0  0
   -2.6187   23.1599  -30.1255 H   0  0  0  0  0  0  0  0  0  0  0  0
   -1.6664   20.9652  -30.8286 H   0  0  0  0  0  0  0  0  0  0  0  0
    0.7644   19.5433  -34.3384 H   0  0  0  0  0  0  0  0  0  0  0  0
    3.0087   19.7460  -33.2700 H   0  0  0  0  0  0  0  0  0  0  0  0
    3.2674   19.3716  -30.8175 H   0  0  0  0  0  0  0  0  0  0  0  0
   -1.2190   18.7315  -27.5039 H   0  0  0  0  0  0  0  0  0  0  0  0
   -3.5619   19.5831  -27.3664 H   0  0  0  0  0  0  0  0  0  0  0  0
   -4.0164   22.0318  -27.5263 H   0  0  0  0  0  0  0  0  0  0  0  0
   -2.0271   26.9457  -27.1287 H   0  0  0  0  0  0  0  0  0  0  0  0
   -1.0511   26.8967  -25.5956 H   0  0  0  0  0  0  0  0  0  0  0  0
   -0.1318   27.1238  -28.3348 H   0  0  0  0  0  0  0  0  0  0  0  0
    0.8062   27.1668  -26.7771 H   0  0  0  0  0  0  0  0  0  0  0  0
    1.4259   23.6825  -26.7620 H   0  0  0  0  0  0  0  0  0  0  0  0
    1.4859   25.2312  -25.8232 H   0  0  0  0  0  0  0  0  0  0  0  0
   -0.6420   23.1893  -25.9706 H   0  0  0  0  0  0  0  0  0  0  0  0
   -0.3509   24.5184  -24.7634 H   0  0  0  0  0  0  0  0  0  0  0  0
    0.2276   22.7845  -28.0168 H   0  0  0  0  0  0  0  0  0  0  0  0
   -0.9989   18.7278  -30.4649 H   0  0  0  0  0  0  0  0  0  0  0  0
   -5.1939   20.2064  -33.2220 H   0  0  0  0  0  0  0  0  0  0  0  0
   -6.1642   22.3817  -32.4886 H   0  0  0  0  0  0  0  0  0  0  0  0
  1  2  1  0
  2  3  2  0
  2  4  2  0
  2  5  1  0
  5  6  2  0
  6  7  1  0
  7  8  2  0
  8  9  1  0
  9 10  1  0
 10 11  2  0
 10 12  1  0
 12 13  2  0
 13 14  1  0
 14 15  2  0
 15 16  1  0
 16 17  1  0
 17 18  2  0
 17 19  2  0
 17 20  1  0
 20 21  1  0
 21 22  2  0
 22 23  1  0
 23 24  2  0
 24 25  1  0
 25 26  1  0
 26 27  2  0
 26 28  2  0
 26 29  1  0
 29 30  1  0
 30 31  1  0
 31 32  1  0
 32 33  1  0
 33 34  1  0
 25 35  2  0
 16 36  2  0
  8 37  1  0
 37 38  2  0
 38  5  1  0
 36 12  1  0
 35 21  1  0
 34 29  1  0
  1 39  1  0
  6 40  1  0
  7 41  1  0
 13 42  1  0
 14 43  1  0
 15 44  1  0
 22 45  1  0
 23 46  1  0
 24 47  1  0
 30 48  1  0
 30 49  1  0
 31 50  1  0
 31 51  1  0
 33 52  1  0
 33 53  1  0
 34 54  1  0
 34 55  1  0
 35 56  1  0
 36 57  1  0
 37 58  1  0
 38 59  1  0
M  CHG  3   1  -1   9  -1  20  -1
M  END
>  <UniqueID>  (47) 
44

>  <SMILES>  (47) 
[NH-]S(=O)(=O)c1ccc([N-]C(=O)c2cccc(S(=O)(=O)[N-]c3cccc(S(=O)(=O)N4CCOCC4)c3)c2)cc1

>  <Energy>  (47) 
84.0629632913004

>  <Genealogy>  (47) 
[NH-]S(=O)(=O)c1ccc([N-]C(=O)c2cccc(S(=O)(=O)[N-]c3cccc(S(=O)(=O)N4CCOCC4)c3)c2)cc1 (protonated)
[NH-]S(=O)(=O)c1ccc([N-]C(=O)c2cccc(S(=O)(=O)[N-]c3cccc(S(=O)(=O)N4CCOCC4)c3)c2)cc1 (3D coordinates assigned)
[NH-]S(=O)(=O)c1ccc([N-]C(=O)c2cccc(S(=O)(=O)[N-]c3cccc(S(=O)(=O)N4CCOCC4)c3)c2)cc1 (nonaromatic ring conformer: 84.0629632913004 kcal/mol)

>  <smiles>  (47) 
NS(=O)(=O)c1ccc(NC(=O)c2cccc(S(=O)(=O)Nc3cccc(S(=O)(=O)N4CCOCC4)c3)c2)cc1

>  <score_type>  (47) 
oracle

>  <origin>  (47) 
adgpu

>  <m_score__min__energy>  (47) 
-13.99

>  <m_primary>  (47) 
energy

$$$$
47:0
     RDKit          3D

 59 62  0  0  0  0  0  0  0  0999 V2000
   -1.7630   19.9080  -27.7230 C   0  0  0  0  0  0  0  0  0  0  0  0
   -2.1920   21.1490  -28.4520 C   0  0  0  0  0  0  0  0  0  0  0  0
   -1.6420   21.4730  -29.7020 C   0  0  0  0  0  0  0  0  0  0  0  0
   -2.0610   22.6220  -30.3800 C   0  0  0  0  0  0  0  0  0  0  0  0
   -3.0230   23.4710  -29.8080 C   0  0  0  0  0  0  0  0  0  0  0  0
   -3.5230   24.6200  -30.5080 N   0  0  0  0  0  0  0  0  0  0  0  0
   -4.9000   24.8950  -30.7890 C   0  0  0  0  0  0  0  0  0  0  0  0
   -5.2840   26.0950  -30.7850 O   0  0  0  0  0  0  0  0  0  0  0  0
   -5.8590   23.8210  -31.1480 C   0  0  0  0  0  0  0  0  0  0  0  0
   -7.2410   24.0800  -31.1420 C   0  0  0  0  0  0  0  0  0  0  0  0
   -8.1480   23.0900  -31.5250 C   0  0  0  0  0  0  0  0  0  0  0  0
   -7.6900   21.8360  -31.9310 C   0  0  0  0  0  0  0  0  0  0  0  0
   -6.3160   21.5620  -31.9430 C   0  0  0  0  0  0  0  0  0  0  0  0
   -5.7190   19.9730  -32.4150 S   0  0  0  0  0  0  0  0  0  0  0  0
   -6.5380   18.8830  -31.7870 O   0  0  0  0  0  0  0  0  0  0  0  0
   -5.8130   19.8460  -33.9110 O   0  0  0  0  0  0  0  0  0  0  0  0
   -4.0630   19.8060  -31.9320 N   0  0  0  0  0  0  0  0  0  0  0  0
   -3.0220   19.2600  -32.7530 C   0  0  0  0  0  0  0  0  0  0  0  0
   -1.7550   19.8640  -32.8250 C   0  0  0  0  0  0  0  0  0  0  0  0
   -0.7780   19.3690  -33.6980 C   0  0  0  0  0  0  0  0  0  0  0  0
    0.7550   20.2280  -33.8640 S   0  0  0  0  0  0  0  0  0  0  0  0
    1.8400   19.4430  -33.1780 O   0  0  0  0  0  0  0  0  0  0  0  0
    0.6290   21.5550  -33.1700 O   0  0  0  0  0  0  0  0  0  0  0  0
    1.1710   20.5100  -35.5480 N   0  0  0  0  0  0  0  0  0  0  0  0
    2.5750   20.9200  -35.7270 C   0  0  0  0  0  0  0  0  0  0  0  0
    2.8280   22.3590  -35.2250 C   0  0  0  0  0  0  0  0  0  0  0  0
    1.6360   23.0830  -34.9930 O   0  0  0  0  0  0  0  0  0  0  0  0
    0.7530   22.9290  -36.0840 C   0  0  0  0  0  0  0  0  0  0  0  0
    0.2500   21.4730  -36.1850 C   0  0  0  0  0  0  0  0  0  0  0  0
   -1.0500   18.2330  -34.4700 C   0  0  0  0  0  0  0  0  0  0  0  0
   -2.2880   17.5980  -34.3690 C   0  0  0  0  0  0  0  0  0  0  0  0
   -3.2800   18.1100  -33.5240 C   0  0  0  0  0  0  0  0  0  0  0  0
   -4.5190   17.4720  -33.4760 O   0  0  0  0  0  0  0  0  0  0  0  0
   -5.4050   22.5520  -31.5520 C   0  0  0  0  0  0  0  0  0  0  0  0
   -3.5660   23.1490  -28.5580 C   0  0  0  0  0  0  0  0  0  0  0  0
   -3.1460   22.0020  -27.8790 C   0  0  0  0  0  0  0  0  0  0  0  0
   -1.8227   20.0808  -26.6383 H   0  0  0  0  0  0  0  0  0  0  0  0
   -2.4249   19.0737  -27.9984 H   0  0  0  0  0  0  0  0  0  0  0  0
   -0.7272   19.6606  -27.9984 H   0  0  0  0  0  0  0  0  0  0  0  0
   -0.8782   20.8204  -30.1501 H   0  0  0  0  0  0  0  0  0  0  0  0
   -1.6355   22.8621  -31.3655 H   0  0  0  0  0  0  0  0  0  0  0  0
   -7.6101   25.0692  -30.8335 H   0  0  0  0  0  0  0  0  0  0  0  0
   -9.2277   23.2994  -31.5066 H   0  0  0  0  0  0  0  0  0  0  0  0
   -8.4078   21.0625  -32.2417 H   0  0  0  0  0  0  0  0  0  0  0  0
   -1.5287   20.7333  -32.1901 H   0  0  0  0  0  0  0  0  0  0  0  0
    3.2207   20.2294  -35.1648 H   0  0  0  0  0  0  0  0  0  0  0  0
    2.8020   20.8915  -36.8030 H   0  0  0  0  0  0  0  0  0  0  0  0
    3.3948   22.3068  -34.2837 H   0  0  0  0  0  0  0  0  0  0  0  0
    3.3851   22.8879  -36.0124 H   0  0  0  0  0  0  0  0  0  0  0  0
   -0.1087   23.5989  -35.9472 H   0  0  0  0  0  0  0  0  0  0  0  0
    1.2916   23.1796  -37.0098 H   0  0  0  0  0  0  0  0  0  0  0  0
   -0.7301   21.4035  -35.6905 H   0  0  0  0  0  0  0  0  0  0  0  0
    0.1841   21.2159  -37.2525 H   0  0  0  0  0  0  0  0  0  0  0  0
   -0.2861   17.8405  -35.1574 H   0  0  0  0  0  0  0  0  0  0  0  0
   -2.4860   16.6895  -34.9568 H   0  0  0  0  0  0  0  0  0  0  0  0
   -5.3380   17.9080  -33.0750 H   0  0  0  0  0  0  0  0  0  0  0  0
   -4.3265   22.3355  -31.5609 H   0  0  0  0  0  0  0  0  0  0  0  0
   -4.3276   23.8027  -28.1079 H   0  0  0  0  0  0  0  0  0  0  0  0
   -3.5660   21.7671  -26.8899 H   0  0  0  0  0  0  0  0  0  0  0  0
  1  2  1  0
  2  3  2  0
  3  4  1  0
  4  5  2  0
  5  6  1  0
  6  7  1  0
  7  8  2  0
  7  9  1  0
  9 10  2  0
 10 11  1  0
 11 12  2  0
 12 13  1  0
 13 14  1  0
 14 15  2  0
 14 16  2  0
 14 17  1  0
 17 18  1  0
 18 19  2  0
 19 20  1  0
 20 21  1  0
 21 22  2  0
 21 23  2  0
 21 24  1  0
 24 25  1  0
 25 26  1  0
 26 27  1  0
 27 28  1  0
 28 29  1  0
 20 30  2  0
 30 31  1  0
 31 32  2  0
 32 33  1  0
 13 34  2  0
  5 35  1  0
 35 36  2  0
 36  2  1  0
 34  9  1  0
 32 18  1  0
 29 24  1  0
  1 37  1  0
  1 38  1  0
  1 39  1  0
  3 40  1  0
  4 41  1  0
 10 42  1  0
 11 43  1  0
 12 44  1  0
 19 45  1  0
 25 46  1  0
 25 47  1  0
 26 48  1  0
 26 49  1  0
 28 50  1  0
 28 51  1  0
 29 52  1  0
 29 53  1  0
 30 54  1  0
 31 55  1  0
 33 56  1  0
 34 57  1  0
 35 58  1  0
 36 59  1  0
M  CHG  2   6  -1  17  -1
M  END
>  <UniqueID>  (48) 
45

>  <SMILES>  (48) 
Cc1ccc([N-]C(=O)c2cccc(S(=O)(=O)[N-]c3cc(S(=O)(=O)N4CCOCC4)ccc3O)c2)cc1

>  <Energy>  (48) 
75.40262810272081

>  <Genealogy>  (48) 
Cc1ccc([N-]C(=O)c2cccc(S(=O)(=O)[N-]c3cc(S(=O)(=O)N4CCOCC4)ccc3O)c2)cc1 (protonated)
Cc1ccc([N-]C(=O)c2cccc(S(=O)(=O)[N-]c3cc(S(=O)(=O)N4CCOCC4)ccc3O)c2)cc1 (3D coordinates assigned)
Cc1ccc([N-]C(=O)c2cccc(S(=O)(=O)[N-]c3cc(S(=O)(=O)N4CCOCC4)ccc3O)c2)cc1 (nonaromatic ring conformer: 75.40262810272081 kcal/mol)

>  <smiles>  (48) 
Cc1ccc(NC(=O)c2cccc(S(=O)(=O)Nc3cc(S(=O)(=O)N4CCOCC4)ccc3O)c2)cc1

>  <score_type>  (48) 
oracle

>  <origin>  (48) 
adgpu

>  <m_score__min__energy>  (48) 
-12.619999999999999

>  <m_primary>  (48) 
energy

$$$$
48:0
     RDKit          3D

 63 66  0  0  0  0  0  0  0  0999 V2000
   -0.5970   21.4920  -27.9410 C   0  0  0  0  0  0  0  0  0  0  0  0
   -1.5590   22.1330  -28.9020 C   0  0  0  0  0  0  0  0  0  0  0  0
   -2.0280   21.3650  -29.9780 C   0  0  0  0  0  0  0  0  0  0  0  0
   -2.9620   21.8830  -30.8690 C   0  0  0  0  0  0  0  0  0  0  0  0
   -3.4530   23.1840  -30.7070 C   0  0  0  0  0  0  0  0  0  0  0  0
   -4.4590   23.7020  -31.5950 N   0  0  0  0  0  0  0  0  0  0  0  0
   -5.8620   23.7790  -31.3100 C   0  0  0  0  0  0  0  0  0  0  0  0
   -6.3580   24.8990  -31.0180 O   0  0  0  0  0  0  0  0  0  0  0  0
   -6.7380   22.5850  -31.3780 C   0  0  0  0  0  0  0  0  0  0  0  0
   -8.0940   22.6770  -31.0210 C   0  0  0  0  0  0  0  0  0  0  0  0
   -8.9170   21.5470  -31.0720 C   0  0  0  0  0  0  0  0  0  0  0  0
   -8.3950   20.3170  -31.4800 C   0  0  0  0  0  0  0  0  0  0  0  0
   -7.0530   20.2170  -31.8660 C   0  0  0  0  0  0  0  0  0  0  0  0
   -6.3850   18.6660  -32.3660 S   0  0  0  0  0  0  0  0  0  0  0  0
   -6.6600   17.6540  -31.2900 O   0  0  0  0  0  0  0  0  0  0  0  0
   -7.0710   18.2160  -33.6280 O   0  0  0  0  0  0  0  0  0  0  0  0
   -4.6600   18.7830  -32.6240 N   0  0  0  0  0  0  0  0  0  0  0  0
   -4.3600   19.8280  -33.6160 C   0  0  0  0  0  0  0  0  0  0  0  0
   -2.8340   19.9940  -33.7770 C   0  0  0  0  0  0  0  0  0  0  0  0
   -2.0930   18.8660  -33.1730 N   0  0  0  0  0  0  0  0  0  0  0  0
   -0.6770   18.9190  -33.5660 C   0  0  0  0  0  0  0  0  0  0  0  0
   -2.6910   17.5840  -33.5860 C   0  0  0  0  0  0  0  0  0  0  0  0
   -4.1420   17.4770  -33.0770 C   0  0  0  0  0  0  0  0  0  0  0  0
   -6.2330   21.3520  -31.8230 C   0  0  0  0  0  0  0  0  0  0  0  0
   -2.9910   23.9710  -29.6360 C   0  0  0  0  0  0  0  0  0  0  0  0
   -3.4990   25.2580  -29.4420 O   0  0  0  0  0  0  0  0  0  0  0  0
   -2.0150   23.4700  -28.7480 C   0  0  0  0  0  0  0  0  0  0  0  0
   -1.4340   24.5300  -27.4400 S   0  0  0  0  0  0  0  0  0  0  0  0
   -2.4770   25.5190  -27.0100 O   0  0  0  0  0  0  0  0  0  0  0  0
   -1.1070   23.6800  -26.2460 O   0  0  0  0  0  0  0  0  0  0  0  0
   -0.0040   25.3890  -27.9110 N   0  0  0  0  0  0  0  0  0  0  0  0
    1.3110   25.0170  -27.4960 C   0  0  0  0  0  0  0  0  0  0  0  0
    2.2420   25.9780  -27.0710 C   0  0  0  0  0  0  0  0  0  0  0  0
    3.5160   25.5840  -26.6490 C   0  0  0  0  0  0  0  0  0  0  0  0
    3.8750   24.2320  -26.6670 C   0  0  0  0  0  0  0  0  0  0  0  0
    5.1370   23.8400  -26.2340 O   0  0  0  0  0  0  0  0  0  0  0  0
    2.9650   23.2750  -27.1260 C   0  0  0  0  0  0  0  0  0  0  0  0
    1.6900   23.6670  -27.5450 C   0  0  0  0  0  0  0  0  0  0  0  0
   -0.9141   21.7033  -26.9091 H   0  0  0  0  0  0  0  0  0  0  0  0
   -0.5845   20.4044  -28.1054 H   0  0  0  0  0  0  0  0  0  0  0  0
    0.4115   21.8993  -28.1054 H   0  0  0  0  0  0  0  0  0  0  0  0
   -1.6526   20.3407  -30.1188 H   0  0  0  0  0  0  0  0  0  0  0  0
   -3.3175   21.2658  -31.7072 H   0  0  0  0  0  0  0  0  0  0  0  0
   -8.5106   23.6430  -30.6996 H   0  0  0  0  0  0  0  0  0  0  0  0
   -9.9773   21.6270  -30.7903 H   0  0  0  0  0  0  0  0  0  0  0  0
   -9.0395   19.4257  -31.4980 H   0  0  0  0  0  0  0  0  0  0  0  0
   -4.7981   19.5450  -34.5845 H   0  0  0  0  0  0  0  0  0  0  0  0
   -4.7885   20.7808  -33.2716 H   0  0  0  0  0  0  0  0  0  0  0  0
   -2.5924   20.0456  -34.8489 H   0  0  0  0  0  0  0  0  0  0  0  0
   -2.5336   20.9170  -33.2595 H   0  0  0  0  0  0  0  0  0  0  0  0
   -0.0469   18.9426  -32.6646 H   0  0  0  0  0  0  0  0  0  0  0  0
   -0.4288   18.0295  -34.1637 H   0  0  0  0  0  0  0  0  0  0  0  0
   -0.4960   19.8245  -34.1637 H   0  0  0  0  0  0  0  0  0  0  0  0
   -2.6868   17.5196  -34.6841 H   0  0  0  0  0  0  0  0  0  0  0  0
   -2.1012   16.7611  -33.1559 H   0  0  0  0  0  0  0  0  0  0  0  0
   -4.7792   17.1043  -33.8925 H   0  0  0  0  0  0  0  0  0  0  0  0
   -4.1545   16.7875  -32.2200 H   0  0  0  0  0  0  0  0  0  0  0  0
   -5.1827   21.2769  -32.1410 H   0  0  0  0  0  0  0  0  0  0  0  0
   -3.9560   25.5420  -28.5850 H   0  0  0  0  0  0  0  0  0  0  0  0
    1.9689   27.0435  -27.0699 H   0  0  0  0  0  0  0  0  0  0  0  0
    4.2371   26.3388  -26.3022 H   0  0  0  0  0  0  0  0  0  0  0  0
    3.2521   22.2136  -27.1575 H   0  0  0  0  0  0  0  0  0  0  0  0
    0.9800   22.9127  -27.9152 H   0  0  0  0  0  0  0  0  0  0  0  0
  1  2  1  0
  2  3  2  0
  3  4  1  0
  4  5  2  0
  5  6  1  0
  6  7  1  0
  7  8  2  0
  7  9  1  0
  9 10  2  0
 10 11  1  0
 11 12  2  0
 12 13  1  0
 13 14  1  0
 14 15  2  0
 14 16  2  0
 14 17  1  0
 17 18  1  0
 18 19  1  0
 19 20  1  0
 20 21  1  0
 20 22  1  0
 22 23  1  0
 13 24  2  0
  5 25  1  0
 25 26  1  0
 25 27  2  0
 27 28  1  0
 28 29  2  0
 28 30  2  0
 28 31  1  0
 31 32  1  0
 32 33  2  0
 33 34  1  0
 34 35  2  0
 35 36  1  0
 35 37  1  0
 37 38  2  0
 27  2  1  0
 38 32  1  0
 24  9  1  0
 23 17  1  0
  1 39  1  0
  1 40  1  0
  1 41  1  0
  3 42  1  0
  4 43  1  0
 10 44  1  0
 11 45  1  0
 12 46  1  0
 18 47  1  0
 18 48  1  0
 19 49  1  0
 19 50  1  0
 21 51  1  0
 21 52  1  0
 21 53  1  0
 22 54  1  0
 22 55  1  0
 23 56  1  0
 23 57  1  0
 24 58  1  0
 26 59  1  0
 33 60  1  0
 34 61  1  0
 37 62  1  0
 38 63  1  0
M  CHG  3   6  -1  31  -1  36  -1
M  END
>  <UniqueID>  (49) 
46

>  <SMILES>  (49) 
Cc1ccc([N-]C(=O)c2cccc(S(=O)(=O)N3CCN(C)CC3)c2)c(O)c1S(=O)(=O)[N-]c1ccc([O-])cc1

>  <Energy>  (49) 
87.94137423819838

>  <Genealogy>  (49) 
Cc1ccc([N-]C(=O)c2cccc(S(=O)(=O)N3CCN(C)CC3)c2)c(O)c1S(=O)(=O)[N-]c1ccc([O-])cc1 (protonated)
Cc1ccc([N-]C(=O)c2cccc(S(=O)(=O)N3CCN(C)CC3)c2)c(O)c1S(=O)(=O)[N-]c1ccc([O-])cc1 (3D coordinates assigned)
Cc1ccc([N-]C(=O)c2cccc(S(=O)(=O)N3CCN(C)CC3)c2)c(O)c1S(=O)(=O)[N-]c1ccc([O-])cc1 (nonaromatic ring conformer: 87.94137423819838 kcal/mol)

>  <smiles>  (49) 
Cc1ccc(NC(=O)c2cccc(S(=O)(=O)N3CCN(C)CC3)c2)c(O)c1S(=O)(=O)Nc1ccc(O)cc1

>  <score_type>  (49) 
oracle

>  <origin>  (49) 
adgpu

>  <m_score__min__energy>  (49) 
-13.67

>  <m_primary>  (49) 
energy

$$$$
49:0
     RDKit          3D

 48 51  0  0  0  0  0  0  0  0999 V2000
   -9.7423   22.8658  -30.8641 H   0  0  0  0  0  0  0  0  0  0  0  0
   -8.8720   22.3370  -31.2800 C   0  0  0  0  0  0  0  0  0  0  0  0
   -8.9250   21.0280  -32.3290 S   0  0  0  0  0  0  0  0  0  0  0  0
   -7.2600   20.8260  -32.4860 C   0  0  0  0  0  0  0  0  0  0  0  0
   -6.6400   19.8160  -33.3610 C   0  0  0  0  0  0  0  0  0  0  0  0
   -5.6030   20.0950  -34.0190 O   0  0  0  0  0  0  0  0  0  0  0  0
   -7.2200   18.5080  -33.4410 N   0  0  0  0  0  0  0  0  0  0  0  0
   -6.5340   17.2630  -33.2470 C   0  0  0  0  0  0  0  0  0  0  0  0
   -5.6210   17.1560  -32.1930 C   0  0  0  0  0  0  0  0  0  0  0  0
   -5.4428   18.0193  -31.5350 H   0  0  0  0  0  0  0  0  0  0  0  0
   -4.9340   15.9610  -31.9700 C   0  0  0  0  0  0  0  0  0  0  0  0
   -4.2012   15.8966  -31.1521 H   0  0  0  0  0  0  0  0  0  0  0  0
   -5.1720   14.8420  -32.7820 C   0  0  0  0  0  0  0  0  0  0  0  0
   -6.0990   14.9370  -33.8400 C   0  0  0  0  0  0  0  0  0  0  0  0
   -6.7930   16.1380  -34.0500 C   0  0  0  0  0  0  0  0  0  0  0  0
   -7.5460   16.2002  -34.8494 H   0  0  0  0  0  0  0  0  0  0  0  0
   -6.4410   13.7270  -34.6790 C   0  0  0  0  0  0  0  0  0  0  0  0
   -7.3545   13.2663  -34.2750 H   0  0  0  0  0  0  0  0  0  0  0  0
   -6.5803   14.0713  -35.7144 H   0  0  0  0  0  0  0  0  0  0  0  0
   -5.3660   12.7130  -34.6890 N   0  0  1  0  0  0  0  0  0  0  0  0
   -5.7680   11.8380  -35.1050 H   0  0  0  0  0  0  0  0  0  0  0  0
   -4.2390   13.1170  -35.5520 C   0  0  0  0  0  0  0  0  0  0  0  0
   -3.3881   13.4220  -34.9251 H   0  0  0  0  0  0  0  0  0  0  0  0
   -3.9414   12.2696  -36.1871 H   0  0  0  0  0  0  0  0  0  0  0  0
   -4.5475   13.9605  -36.1871 H   0  0  0  0  0  0  0  0  0  0  0  0
   -4.9330   12.3790  -33.3150 C   0  0  0  0  0  0  0  0  0  0  0  0
   -5.7994   11.9960  -32.7558 H   0  0  0  0  0  0  0  0  0  0  0  0
   -4.1344   11.6263  -33.3909 H   0  0  0  0  0  0  0  0  0  0  0  0
   -4.3600   13.5920  -32.5650 C   0  0  0  0  0  0  0  0  0  0  0  0
   -4.3428   13.3652  -31.4888 H   0  0  0  0  0  0  0  0  0  0  0  0
   -3.3489   13.7788  -32.9557 H   0  0  0  0  0  0  0  0  0  0  0  0
   -6.6330   21.7910  -31.6860 C   0  0  0  0  0  0  0  0  0  0  0  0
   -4.8890   21.9490  -31.4630 S   0  0  0  0  0  0  0  0  0  0  0  0
   -4.1570   21.7050  -32.7510 O   0  0  0  0  0  0  0  0  0  0  0  0
   -4.4500   20.9140  -30.4660 O   0  0  0  0  0  0  0  0  0  0  0  0
   -4.4730   23.5200  -30.8510 N   0  0  0  0  0  0  0  0  0  0  0  0
   -3.3760   23.8970  -30.2600 C   0  0  0  0  0  0  0  0  0  0  0  0
   -3.1800   25.1400  -29.8890 O   0  0  0  0  0  0  0  0  0  0  0  0
   -2.0150   25.2900  -29.3310 N   0  0  0  0  0  0  0  0  0  0  0  0
   -1.4170   24.0840  -29.3410 C   0  0  0  0  0  0  0  0  0  0  0  0
   -0.0830   23.8140  -28.7240 C   0  0  0  0  0  0  0  0  0  0  0  0
   -0.1754   23.8327  -27.6280 H   0  0  0  0  0  0  0  0  0  0  0  0
    0.2760   22.8250  -29.0449 H   0  0  0  0  0  0  0  0  0  0  0  0
    0.6323   24.5856  -29.0449 H   0  0  0  0  0  0  0  0  0  0  0  0
   -2.2540   23.1480  -29.9180 C   0  0  0  0  0  0  0  0  0  0  0  0
   -1.9140   21.4300  -30.0560 Cl  0  0  0  0  0  0  0  0  0  0  0  0
   -7.5410   22.6370  -31.0280 C   0  0  0  0  0  0  0  0  0  0  0  0
   -7.2255   23.4622  -30.3726 H   0  0  0  0  0  0  0  0  0  0  0  0
  1  2  1  0
  2  3  1  0
  3  4  1  0
  4  5  1  0
  5  6  2  0
  5  7  1  0
  7  8  1  0
  8  9  2  0
  9 10  1  0
  9 11  1  0
 11 12  1  0
 11 13  2  0
 13 14  1  0
 14 15  2  0
 15 16  1  0
 14 17  1  0
 17 18  1  0
 17 19  1  0
 17 20  1  0
 20 21  1  6
 20 22  1  0
 22 23  1  0
 22 24  1  0
 22 25  1  0
 20 26  1  0
 26 27  1  0
 26 28  1  0
 26 29  1  0
 29 30  1  0
 29 31  1  0
  4 32  2  0
 32 33  1  0
 33 34  2  0
 33 35  2  0
 33 36  1  0
 36 37  2  0
 37 38  1  0
 38 39  1  0
 39 40  1  0
 40 41  1  0
 41 42  1  0
 41 43  1  0
 41 44  1  0
 40 45  2  0
 45 46  1  0
 32 47  1  0
 47 48  1  0
 47  2  2  0
 15  8  1  0
 45 37  1  0
 29 13  1  0
M  CHG  3   7  -1  20   1  39  -1
M  END
>  <UniqueID>  (50) 
47

>  <SMILES>  (50) 
Cc1[n-]o/c(=N/S(=O)(=O)c2ccsc2C(=O)[N-]c2ccc3c(c2)C[N@@H+](C)CC3)c1Cl

>  <Energy>  (50) 
125.95988965827623

>  <Genealogy>  (50) 
Cc1[n-]oc(=NS(=O)(=O)c2ccsc2C(=O)[N-]c2ccc3c(c2)C[NH+](C)CC3)c1Cl (protonated)
Cc1[n-]oc(=NS(=O)(=O)c2ccsc2C(=O)[N-]c2ccc3c(c2)C[N@@H+](C)CC3)c1Cl (chirality)
Cc1[n-]o/c(=N/S(=O)(=O)c2ccsc2C(=O)[N-]c2ccc3c(c2)C[N@@H+](C)CC3)c1Cl (cis-trans isomerization)
Cc1[n-]o/c(=N/S(=O)(=O)c2ccsc2C(=O)[N-]c2ccc3c(c2)C[N@@H+](C)CC3)c1Cl (3D coordinates assigned)
Cc1[n-]o/c(=N/S(=O)(=O)c2ccsc2C(=O)[N-]c2ccc3c(c2)C[N@@H+](C)CC3)c1Cl (nonaromatic ring conformer: 125.95988965827623 kcal/mol)

>  <smiles>  (50) 
Cc1[nH]oc(=NS(=O)(=O)c2ccsc2C(=O)Nc2ccc3c(c2)CN(C)CC3)c1Cl

>  <score_type>  (50) 
oracle

>  <origin>  (50) 
adgpu

>  <m_score__min__energy>  (50) 
-11

>  <m_primary>  (50) 
energy

$$$$
