0:0
     RDKit          3D

 44 47  0  0  0  0  0  0  0  0999 V2000
   -4.5980   14.5790  -32.3940 C   0  0  0  0  0  0  0  0  0  0  0  0
   -4.3520   15.9810  -32.3690 O   0  0  0  0  0  0  0  0  0  0  0  0
   -5.3480   16.9630  -32.4750 C   0  0  0  0  0  0  0  0  0  0  0  0
   -6.2030   17.2900  -31.4040 C   0  0  0  0  0  0  0  0  0  0  0  0
   -7.1820   18.2770  -31.5610 C   0  0  0  0  0  0  0  0  0  0  0  0
   -7.3280   18.9420  -32.7870 C   0  0  0  0  0  0  0  0  0  0  0  0
   -8.3500   20.0340  -32.9420 C   0  0  0  0  0  0  0  0  0  0  0  0
   -7.8820   21.2500  -32.2850 N   0  0  0  0  0  0  0  0  0  0  0  0
   -8.6310   22.1990  -31.6640 C   0  0  0  0  0  0  0  0  0  0  0  0
   -7.9000   23.2620  -31.2270 N   0  0  0  0  0  0  0  0  0  0  0  0
   -6.6510   22.9410  -31.6140 C   0  0  0  0  0  0  0  0  0  0  0  0
   -5.4670   23.6480  -31.4520 C   0  0  0  0  0  0  0  0  0  0  0  0
   -5.4170   25.2290  -30.6040 S   0  0  0  0  0  0  0  0  0  0  0  0
   -5.0770   24.5130  -28.9580 C   0  0  0  0  0  0  0  0  0  0  0  0
   -3.8050   23.7090  -28.9690 C   0  0  0  0  0  0  0  0  0  0  0  0
   -2.5880   24.3050  -29.3430 C   0  0  0  0  0  0  0  0  0  0  0  0
   -1.4040   23.5610  -29.3230 C   0  0  0  0  0  0  0  0  0  0  0  0
   -1.4260   22.2210  -28.9280 C   0  0  0  0  0  0  0  0  0  0  0  0
   -2.6320   21.6220  -28.5510 C   0  0  0  0  0  0  0  0  0  0  0  0
   -3.8180   22.3620  -28.5700 C   0  0  0  0  0  0  0  0  0  0  0  0
   -4.3250   23.0980  -31.9610 N   0  0  0  0  0  0  0  0  0  0  0  0
   -4.3410   21.8870  -32.6060 C   0  0  0  0  0  0  0  0  0  0  0  0
   -5.5110   21.1960  -32.7560 N   0  0  0  0  0  0  0  0  0  0  0  0
   -6.6400   21.7470  -32.2490 C   0  0  0  0  0  0  0  0  0  0  0  0
   -6.4670   18.6260  -33.8480 C   0  0  0  0  0  0  0  0  0  0  0  0
   -5.4890   17.6390  -33.6930 C   0  0  0  0  0  0  0  0  0  0  0  0
   -4.6645   14.2000  -31.3635 H   0  0  0  0  0  0  0  0  0  0  0  0
   -5.5444   14.3821  -32.9189 H   0  0  0  0  0  0  0  0  0  0  0  0
   -3.7752   14.0717  -32.9189 H   0  0  0  0  0  0  0  0  0  0  0  0
   -6.1005   16.7676  -30.4414 H   0  0  0  0  0  0  0  0  0  0  0  0
   -7.8409   18.5328  -30.7181 H   0  0  0  0  0  0  0  0  0  0  0  0
   -8.5089   20.2355  -34.0116 H   0  0  0  0  0  0  0  0  0  0  0  0
   -9.2951   19.7135  -32.4793 H   0  0  0  0  0  0  0  0  0  0  0  0
   -9.7194   22.1168  -31.5278 H   0  0  0  0  0  0  0  0  0  0  0  0
   -4.9809   25.3274  -28.2249 H   0  0  0  0  0  0  0  0  0  0  0  0
   -5.9093   23.8463  -28.6884 H   0  0  0  0  0  0  0  0  0  0  0  0
   -2.5669   25.3604  -29.6525 H   0  0  0  0  0  0  0  0  0  0  0  0
   -0.4545   24.0312  -29.6185 H   0  0  0  0  0  0  0  0  0  0  0  0
   -0.4940   21.6368  -28.9136 H   0  0  0  0  0  0  0  0  0  0  0  0
   -2.6476   20.5673  -28.2391 H   0  0  0  0  0  0  0  0  0  0  0  0
   -4.7646   21.8879  -28.2715 H   0  0  0  0  0  0  0  0  0  0  0  0
   -3.4052   21.4690  -33.0054 H   0  0  0  0  0  0  0  0  0  0  0  0
   -6.5616   19.1572  -34.8066 H   0  0  0  0  0  0  0  0  0  0  0  0
   -4.8251   17.3916  -34.5345 H   0  0  0  0  0  0  0  0  0  0  0  0
  1  2  1  0
  2  3  1  0
  3  4  2  0
  4  5  1  0
  5  6  2  0
  6  7  1  0
  7  8  1  0
  8  9  1  0
  9 10  2  0
 10 11  1  0
 11 12  2  0
 12 13  1  0
 13 14  1  0
 14 15  1  0
 15 16  2  0
 16 17  1  0
 17 18  2  0
 18 19  1  0
 19 20  2  0
 12 21  1  0
 21 22  2  0
 22 23  1  0
 23 24  2  0
  6 25  1  0
 25 26  2  0
 26  3  1  0
 24  8  1  0
 24 11  1  0
 20 15  1  0
  1 27  1  0
  1 28  1  0
  1 29  1  0
  4 30  1  0
  5 31  1  0
  7 32  1  0
  7 33  1  0
  9 34  1  0
 14 35  1  0
 14 36  1  0
 16 37  1  0
 17 38  1  0
 18 39  1  0
 19 40  1  0
 20 41  1  0
 22 42  1  0
 25 43  1  0
 26 44  1  0
M  END
>  <UniqueID>  (1) 
1

>  <SMILES>  (1) 
COc1ccc(Cn2cnc3c(SCc4ccccc4)ncnc32)cc1

>  <Energy>  (1) 
82.06814972326103

>  <Genealogy>  (1) 
COc1ccc(Cn2cnc3c(SCc4ccccc4)ncnc32)cc1 (3D coordinates assigned)
COc1ccc(Cn2cnc3c(SCc4ccccc4)ncnc32)cc1 (optimized conformer: 82.06814972326103 kcal/mol)

>  <smiles>  (1) 
COc1ccc(Cn2cnc3c(SCc4ccccc4)ncnc32)cc1

>  <score_type>  (1) 
oracle

>  <origin>  (1) 
adgpu

>  <m_score__min__energy>  (1) 
-8.1999999999999993

>  <m_primary>  (1) 
energy

$$$$
1:0
     RDKit          3D

 34 36  0  0  0  0  0  0  0  0999 V2000
   -3.4290   14.1410  -32.3330 C   0  0  0  0  0  0  0  0  0  0  0  0
   -4.6860   14.5650  -33.0330 C   0  0  0  0  0  0  0  0  0  0  0  0
   -5.5400   13.6020  -33.5950 C   0  0  0  0  0  0  0  0  0  0  0  0
   -6.7000   13.9980  -34.2650 C   0  0  0  0  0  0  0  0  0  0  0  0
   -7.0050   15.3550  -34.4000 C   0  0  0  0  0  0  0  0  0  0  0  0
   -6.1440   16.3280  -33.8810 C   0  0  0  0  0  0  0  0  0  0  0  0
   -6.4870   17.6800  -34.0320 O   0  0  0  0  0  0  0  0  0  0  0  0
   -5.8680   18.7550  -33.3790 C   0  0  0  0  0  0  0  0  0  0  0  0
   -4.6750   19.3270  -33.8520 C   0  0  0  0  0  0  0  0  0  0  0  0
   -4.0950   20.4080  -33.1820 C   0  0  0  0  0  0  0  0  0  0  0  0
   -4.7040   20.9490  -32.0350 C   0  0  0  0  0  0  0  0  0  0  0  0
   -4.0900   22.0960  -31.3220 C   0  0  0  0  0  0  0  0  0  0  0  0
   -2.9660   21.9200  -30.5720 N   0  0  0  0  0  0  0  0  0  0  0  0
   -2.3880   22.9570  -29.9120 C   0  0  0  0  0  0  0  0  0  0  0  0
   -2.9460   24.2300  -29.9960 C   0  0  0  0  0  0  0  0  0  0  0  0
   -2.3650   25.3010  -29.3250 O   0  0  0  0  0  0  0  0  0  0  0  0
   -4.0980   24.4020  -30.7660 C   0  0  0  0  0  0  0  0  0  0  0  0
   -4.6340   25.5370  -30.8690 O   0  0  0  0  0  0  0  0  0  0  0  0
   -4.6440   23.3380  -31.4100 N   0  0  0  0  0  0  0  0  0  0  0  0
   -5.9100   20.3840  -31.5790 C   0  0  0  0  0  0  0  0  0  0  0  0
   -6.4870   19.3030  -32.2510 C   0  0  0  0  0  0  0  0  0  0  0  0
   -4.9880   15.9280  -33.1860 C   0  0  0  0  0  0  0  0  0  0  0  0
   -3.5803   14.1920  -31.2447 H   0  0  0  0  0  0  0  0  0  0  0  0
   -3.1795   13.1090  -32.6205 H   0  0  0  0  0  0  0  0  0  0  0  0
   -2.6054   14.8110  -32.6205 H   0  0  0  0  0  0  0  0  0  0  0  0
   -5.2948   12.5333  -33.5074 H   0  0  0  0  0  0  0  0  0  0  0  0
   -7.3753   13.2394  -34.6875 H   0  0  0  0  0  0  0  0  0  0  0  0
   -7.9268   15.6598  -34.9170 H   0  0  0  0  0  0  0  0  0  0  0  0
   -4.1947   18.9218  -34.7548 H   0  0  0  0  0  0  0  0  0  0  0  0
   -3.1543   20.8394  -33.5548 H   0  0  0  0  0  0  0  0  0  0  0  0
   -1.4808   22.7915  -29.3123 H   0  0  0  0  0  0  0  0  0  0  0  0
   -6.4024   20.7968  -30.6862 H   0  0  0  0  0  0  0  0  0  0  0  0
   -7.4358   18.8797  -31.8897 H   0  0  0  0  0  0  0  0  0  0  0  0
   -4.3164   16.6877  -32.7597 H   0  0  0  0  0  0  0  0  0  0  0  0
  1  2  1  0
  2  3  2  0
  3  4  1  0
  4  5  2  0
  5  6  1  0
  6  7  1  0
  7  8  1  0
  8  9  2  0
  9 10  1  0
 10 11  2  0
 11 12  1  0
 12 13  2  0
 13 14  1  0
 14 15  2  0
 15 16  1  0
 15 17  1  0
 17 18  2  0
 17 19  1  0
 11 20  1  0
 20 21  2  0
  6 22  2  0
 22  2  1  0
 21  8  1  0
 19 12  1  0
  1 23  1  0
  1 24  1  0
  1 25  1  0
  3 26  1  0
  4 27  1  0
  5 28  1  0
  9 29  1  0
 10 30  1  0
 14 31  1  0
 20 32  1  0
 21 33  1  0
 22 34  1  0
M  CHG  2  16  -1  19  -1
M  END
>  <UniqueID>  (2) 
2

>  <SMILES>  (2) 
Cc1cccc(Oc2ccc(-c3ncc([O-])c(=O)[n-]3)cc2)c1

>  <Energy>  (2) 
45.58505384909982

>  <Genealogy>  (2) 
Cc1cccc(Oc2ccc(-c3ncc([O-])c(=O)[n-]3)cc2)c1 (protonated)
Cc1cccc(Oc2ccc(-c3ncc([O-])c(=O)[n-]3)cc2)c1 (3D coordinates assigned)
Cc1cccc(Oc2ccc(-c3ncc([O-])c(=O)[n-]3)cc2)c1 (optimized conformer: 45.58505384909982 kcal/mol)

>  <smiles>  (2) 
Cc1cccc(Oc2ccc(-c3ncc(O)c(=O)[nH]3)cc2)c1

>  <score_type>  (2) 
oracle

>  <origin>  (2) 
adgpu

>  <m_score__min__energy>  (2) 
-10.32

>  <m_primary>  (2) 
energy

$$$$
2:0
     RDKit          3D

 38 40  0  0  0  0  0  0  0  0999 V2000
   -2.0875   19.4534  -27.7026 H   0  0  0  0  0  0  0  0  0  0  0  0
   -2.1720   20.4940  -28.0490 C   0  0  0  0  0  0  0  0  0  0  0  0
   -3.1410   21.3340  -27.5020 C   0  0  0  0  0  0  0  0  0  0  0  0
   -3.8202   20.9529  -26.7252 H   0  0  0  0  0  0  0  0  0  0  0  0
   -3.2540   22.6590  -27.9360 C   0  0  0  0  0  0  0  0  0  0  0  0
   -4.2010   23.4450  -27.3650 F   0  0  0  0  0  0  0  0  0  0  0  0
   -2.3860   23.1620  -28.9330 C   0  0  0  0  0  0  0  0  0  0  0  0
   -2.5030   24.5710  -29.3970 C   0  0  0  0  0  0  0  0  0  0  0  0
   -1.7030   25.4460  -28.9670 O   0  0  0  0  0  0  0  0  0  0  0  0
   -3.4880   24.9300  -30.3750 N   0  0  0  0  0  0  0  0  0  0  0  0
   -4.6660   24.1840  -30.7200 C   0  0  0  0  0  0  0  0  0  0  0  0
   -4.5150   22.8780  -31.2010 C   0  0  0  0  0  0  0  0  0  0  0  0
   -3.5074   22.4540  -31.3233 H   0  0  0  0  0  0  0  0  0  0  0  0
   -5.6360   22.1090  -31.5270 C   0  0  0  0  0  0  0  0  0  0  0  0
   -5.5065   21.0876  -31.9143 H   0  0  0  0  0  0  0  0  0  0  0  0
   -6.9230   22.6350  -31.3620 C   0  0  0  0  0  0  0  0  0  0  0  0
   -8.3250   21.6430  -31.7540 S   0  0  0  0  0  0  0  0  0  0  0  0
   -9.3950   22.5200  -32.3410 O   0  0  0  0  0  0  0  0  0  0  0  0
   -8.8720   20.9790  -30.5200 O   0  0  0  0  0  0  0  0  0  0  0  0
   -7.8790   20.4310  -32.9090 N   0  0  0  0  0  0  0  0  0  0  0  0
   -7.2340   19.3530  -32.5900 C   0  0  0  0  0  0  0  0  0  0  0  0
   -6.8380   19.0410  -31.3400 N   0  0  0  0  0  0  0  0  0  0  0  0
   -6.2270   17.8950  -31.4290 O   0  0  0  0  0  0  0  0  0  0  0  0
   -6.2150   17.4600  -32.6700 C   0  0  0  0  0  0  0  0  0  0  0  0
   -5.5750   16.1890  -33.1150 C   0  0  0  0  0  0  0  0  0  0  0  0
   -5.2784   15.6000  -32.2346 H   0  0  0  0  0  0  0  0  0  0  0  0
   -6.2894   15.6107  -33.7193 H   0  0  0  0  0  0  0  0  0  0  0  0
   -4.6850   16.4186  -33.7193 H   0  0  0  0  0  0  0  0  0  0  0  0
   -6.8580   18.3730  -33.4790 C   0  0  0  0  0  0  0  0  0  0  0  0
   -7.0279   18.3287  -34.5649 H   0  0  0  0  0  0  0  0  0  0  0  0
   -7.0810   23.9310  -30.8530 C   0  0  0  0  0  0  0  0  0  0  0  0
   -8.0903   24.3440  -30.7086 H   0  0  0  0  0  0  0  0  0  0  0  0
   -5.9600   24.7010  -30.5280 C   0  0  0  0  0  0  0  0  0  0  0  0
   -6.0905   25.7145  -30.1208 H   0  0  0  0  0  0  0  0  0  0  0  0
   -1.4100   22.2970  -29.4790 C   0  0  0  0  0  0  0  0  0  0  0  0
   -0.5650   22.7160  -30.4550 F   0  0  0  0  0  0  0  0  0  0  0  0
   -1.3090   20.9730  -29.0360 C   0  0  0  0  0  0  0  0  0  0  0  0
   -0.3740   20.1480  -29.5680 F   0  0  0  0  0  0  0  0  0  0  0  0
  1  2  1  0
  2  3  2  0
  3  4  1  0
  3  5  1  0
  5  6  1  0
  5  7  2  0
  7  8  1  0
  8  9  2  0
  8 10  1  0
 10 11  1  0
 11 12  2  0
 12 13  1  0
 12 14  1  0
 14 15  1  0
 14 16  2  0
 16 17  1  0
 17 18  2  0
 17 19  2  0
 17 20  1  0
 20 21  2  0
 21 22  1  0
 22 23  1  0
 23 24  1  0
 24 25  1  0
 25 26  1  0
 25 27  1  0
 25 28  1  0
 24 29  2  0
 29 30  1  0
 16 31  1  0
 31 32  1  0
 31 33  2  0
 33 34  1  0
  7 35  1  0
 35 36  1  0
 35 37  2  0
 37 38  1  0
 37  2  1  0
 33 11  1  0
 29 21  1  0
M  CHG  2  10  -1  22  -1
M  END
>  <UniqueID>  (3) 
3

>  <SMILES>  (3) 
Cc1c/c(=N/S(=O)(=O)c2ccc([N-]C(=O)c3c(F)ccc(F)c3F)cc2)[n-]o1

>  <Energy>  (3) 
80.45839583555356

>  <Genealogy>  (3) 
Cc1cc(=NS(=O)(=O)c2ccc([N-]C(=O)c3c(F)ccc(F)c3F)cc2)[n-]o1 (protonated)
Cc1c/c(=N/S(=O)(=O)c2ccc([N-]C(=O)c3c(F)ccc(F)c3F)cc2)[n-]o1 (cis-trans isomerization)
Cc1c/c(=N/S(=O)(=O)c2ccc([N-]C(=O)c3c(F)ccc(F)c3F)cc2)[n-]o1 (3D coordinates assigned)
Cc1c/c(=N/S(=O)(=O)c2ccc([N-]C(=O)c3c(F)ccc(F)c3F)cc2)[n-]o1 (optimized conformer: 80.45839583555356 kcal/mol)

>  <smiles>  (3) 
Cc1cc(=NS(=O)(=O)c2ccc(NC(=O)c3c(F)ccc(F)c3F)cc2)[nH]o1

>  <score_type>  (3) 
oracle

>  <origin>  (3) 
adgpu

>  <m_score__min__energy>  (3) 
-10.76

>  <m_primary>  (3) 
energy

$$$$
3:0
     RDKit          3D

 55 58  0  0  0  0  0  0  0  0999 V2000
    1.6140   23.3770  -35.7200 C   0  0  0  0  0  0  0  0  0  0  0  0
    0.6300   22.6530  -34.9890 O   0  0  0  0  0  0  0  0  0  0  0  0
    0.3960   21.2740  -35.1150 C   0  0  0  0  0  0  0  0  0  0  0  0
    0.8550   20.5430  -36.2280 C   0  0  0  0  0  0  0  0  0  0  0  0
    0.6580   19.1630  -36.2990 C   0  0  0  0  0  0  0  0  0  0  0  0
    0.0170   18.4840  -35.2550 C   0  0  0  0  0  0  0  0  0  0  0  0
   -0.2150   17.0040  -35.3470 C   0  0  0  0  0  0  0  0  0  0  0  0
   -0.4660   19.2090  -34.1570 C   0  0  0  0  0  0  0  0  0  0  0  0
   -0.2980   20.6000  -34.0860 C   0  0  0  0  0  0  0  0  0  0  0  0
   -0.7940   21.3030  -32.9370 N   0  0  0  0  0  0  0  0  0  0  0  0
   -0.8470   20.7210  -31.6240 C   0  0  0  0  0  0  0  0  0  0  0  0
   -0.1600   19.6940  -31.3690 O   0  0  0  0  0  0  0  0  0  0  0  0
   -1.6680   21.3360  -30.5540 C   0  0  0  0  0  0  0  0  0  0  0  0
   -1.4970   20.9410  -29.2150 C   0  0  0  0  0  0  0  0  0  0  0  0
   -2.2680   21.5190  -28.2040 C   0  0  0  0  0  0  0  0  0  0  0  0
   -3.2170   22.4930  -28.5130 C   0  0  0  0  0  0  0  0  0  0  0  0
   -3.4060   22.8950  -29.8420 C   0  0  0  0  0  0  0  0  0  0  0  0
   -4.5920   24.1440  -30.2340 S   0  0  0  0  0  0  0  0  0  0  0  0
   -5.2740   24.5970  -28.9740 O   0  0  0  0  0  0  0  0  0  0  0  0
   -3.8860   25.3290  -30.8340 O   0  0  0  0  0  0  0  0  0  0  0  0
   -5.7840   23.5480  -31.3660 N   0  0  0  0  0  0  0  0  0  0  0  0
   -5.1730   22.6380  -32.3700 C   0  0  0  0  0  0  0  0  0  0  0  0
   -5.5150   21.1600  -32.1470 C   0  0  0  0  0  0  0  0  0  0  0  0
   -7.0040   21.0180  -32.1030 C   0  0  0  0  0  0  0  0  0  0  0  0
   -7.6660   19.9540  -32.7320 C   0  0  0  0  0  0  0  0  0  0  0  0
   -9.0610   19.8640  -32.6660 C   0  0  0  0  0  0  0  0  0  0  0  0
   -9.7920   20.8290  -31.9650 C   0  0  0  0  0  0  0  0  0  0  0  0
   -9.1320   21.8840  -31.3270 C   0  0  0  0  0  0  0  0  0  0  0  0
   -7.7360   21.9880  -31.4060 C   0  0  0  0  0  0  0  0  0  0  0  0
   -6.9830   23.0490  -30.6460 C   0  0  0  0  0  0  0  0  0  0  0  0
   -2.6400   22.3070  -30.8580 C   0  0  0  0  0  0  0  0  0  0  0  0
    2.2964   23.8791  -35.0183 H   0  0  0  0  0  0  0  0  0  0  0  0
    2.1852   22.6822  -36.3532 H   0  0  0  0  0  0  0  0  0  0  0  0
    1.1207   24.1291  -36.3532 H   0  0  0  0  0  0  0  0  0  0  0  0
    1.3725   21.0635  -37.0473 H   0  0  0  0  0  0  0  0  0  0  0  0
    1.0082   18.6054  -37.1801 H   0  0  0  0  0  0  0  0  0  0  0  0
   -0.2815   16.5796  -34.3343 H   0  0  0  0  0  0  0  0  0  0  0  0
   -1.1541   16.8129  -35.8870 H   0  0  0  0  0  0  0  0  0  0  0  0
    0.6206   16.5347  -35.8870 H   0  0  0  0  0  0  0  0  0  0  0  0
   -0.9826   18.6814  -33.3417 H   0  0  0  0  0  0  0  0  0  0  0  0
   -0.9520   22.3330  -33.0260 H   0  0  0  0  0  0  0  0  0  0  0  0
   -0.7517   20.1724  -28.9626 H   0  0  0  0  0  0  0  0  0  0  0  0
   -2.1261   21.2046  -27.1595 H   0  0  0  0  0  0  0  0  0  0  0  0
   -3.8186   22.9468  -27.7116 H   0  0  0  0  0  0  0  0  0  0  0  0
   -5.5307   22.9310  -33.3681 H   0  0  0  0  0  0  0  0  0  0  0  0
   -4.0817   22.7351  -32.2716 H   0  0  0  0  0  0  0  0  0  0  0  0
   -5.1091   20.5567  -32.9724 H   0  0  0  0  0  0  0  0  0  0  0  0
   -5.0752   20.8101  -31.2014 H   0  0  0  0  0  0  0  0  0  0  0  0
   -7.0898   19.1913  -33.2764 H   0  0  0  0  0  0  0  0  0  0  0  0
   -9.5828   19.0343  -33.1654 H   0  0  0  0  0  0  0  0  0  0  0  0
  -10.8886   20.7578  -31.9155 H   0  0  0  0  0  0  0  0  0  0  0  0
   -9.7082   22.6324  -30.7631 H   0  0  0  0  0  0  0  0  0  0  0  0
   -7.6604   23.8969  -30.4664 H   0  0  0  0  0  0  0  0  0  0  0  0
   -6.6333   22.5920  -29.7085 H   0  0  0  0  0  0  0  0  0  0  0  0
   -2.8004   22.6077  -31.9039 H   0  0  0  0  0  0  0  0  0  0  0  0
  1  2  1  0
  2  3  1  0
  3  4  2  0
  4  5  1  0
  5  6  2  0
  6  7  1  0
  6  8  1  0
  8  9  2  0
  9 10  1  0
 10 11  1  0
 11 12  2  0
 11 13  1  0
 13 14  2  0
 14 15  1  0
 15 16  2  0
 16 17  1  0
 17 18  1  0
 18 19  2  0
 18 20  2  0
 18 21  1  0
 21 22  1  0
 22 23  1  0
 23 24  1  0
 24 25  2  0
 25 26  1  0
 26 27  2  0
 27 28  1  0
 28 29  2  0
 29 30  1  0
 17 31  2  0
  9  3  1  0
 31 13  1  0
 30 21  1  0
 29 24  1  0
  1 32  1  0
  1 33  1  0
  1 34  1  0
  4 35  1  0
  5 36  1  0
  7 37  1  0
  7 38  1  0
  7 39  1  0
  8 40  1  0
 10 41  1  0
 14 42  1  0
 15 43  1  0
 16 44  1  0
 22 45  1  0
 22 46  1  0
 23 47  1  0
 23 48  1  0
 25 49  1  0
 26 50  1  0
 27 51  1  0
 28 52  1  0
 30 53  1  0
 30 54  1  0
 31 55  1  0
M  END
>  <UniqueID>  (4) 
4

>  <SMILES>  (4) 
COc1ccc(C)cc1NC(=O)c1cccc(S(=O)(=O)N2CCc3ccccc3C2)c1

>  <Energy>  (4) 
72.68523302842378

>  <Genealogy>  (4) 
COc1ccc(C)cc1NC(=O)c1cccc(S(=O)(=O)N2CCc3ccccc3C2)c1 (3D coordinates assigned)
COc1ccc(C)cc1NC(=O)c1cccc(S(=O)(=O)N2CCc3ccccc3C2)c1 (nonaromatic ring conformer: 72.68523302842378 kcal/mol)

>  <smiles>  (4) 
COc1ccc(C)cc1NC(=O)c1cccc(S(=O)(=O)N2CCc3ccccc3C2)c1

>  <score_type>  (4) 
oracle

>  <origin>  (4) 
adgpu

>  <m_score__min__energy>  (4) 
-10.869999999999999

>  <m_primary>  (4) 
energy

$$$$
4:0
     RDKit          3D

 29 30  0  0  0  0  0  0  0  0999 V2000
   -5.3880   13.8480  -34.4710 C   0  0  0  0  0  0  0  0  0  0  0  0
   -5.8480   15.2420  -34.2040 C   0  0  0  0  0  0  0  0  0  0  0  0
   -5.0360   16.3260  -33.9460 C   0  0  0  0  0  0  0  0  0  0  0  0
   -5.9260   17.3500  -33.6980 C   0  0  0  0  0  0  0  0  0  0  0  0
   -5.5760   18.7390  -33.3620 C   0  0  0  0  0  0  0  0  0  0  0  0
   -4.4760   19.2120  -33.7590 O   0  0  0  0  0  0  0  0  0  0  0  0
   -6.4970   19.5600  -32.6240 N   0  0  0  0  0  0  0  0  0  0  0  0
   -6.1550   20.8310  -32.0470 C   0  0  0  0  0  0  0  0  0  0  0  0
   -4.8880   21.0650  -31.4830 C   0  0  0  0  0  0  0  0  0  0  0  0
   -4.5890   22.3050  -30.9060 C   0  0  0  0  0  0  0  0  0  0  0  0
   -5.5560   23.3170  -30.8680 C   0  0  0  0  0  0  0  0  0  0  0  0
   -5.1770   24.8820  -30.1560 S   0  0  0  0  0  0  0  0  0  0  0  0
   -3.5330   25.2890  -30.4980 N   0  0  0  0  0  0  0  0  0  0  0  0
   -6.0850   25.9340  -30.7260 O   0  0  0  0  0  0  0  0  0  0  0  0
   -5.3780   24.8270  -28.6680 O   0  0  0  0  0  0  0  0  0  0  0  0
   -6.8240   23.0820  -31.4160 C   0  0  0  0  0  0  0  0  0  0  0  0
   -7.1240   21.8450  -31.9910 C   0  0  0  0  0  0  0  0  0  0  0  0
   -7.1890   16.8880  -33.7890 N   0  0  0  0  0  0  0  0  0  0  0  0
   -7.1420   15.6000  -34.0920 N   0  0  0  0  0  0  0  0  0  0  0  0
   -5.2168   13.3292  -33.5163 H   0  0  0  0  0  0  0  0  0  0  0  0
   -6.1569   13.3121  -35.0468 H   0  0  0  0  0  0  0  0  0  0  0  0
   -4.4511   13.8750  -35.0468 H   0  0  0  0  0  0  0  0  0  0  0  0
   -3.9367   16.3650  -33.9395 H   0  0  0  0  0  0  0  0  0  0  0  0
   -7.4960   19.2560  -32.5780 H   0  0  0  0  0  0  0  0  0  0  0  0
   -4.1282   20.2697  -31.4953 H   0  0  0  0  0  0  0  0  0  0  0  0
   -3.5906   22.4850  -30.4809 H   0  0  0  0  0  0  0  0  0  0  0  0
   -3.5510   26.0470  -31.2170 H   0  0  0  0  0  0  0  0  0  0  0  0
   -7.5862   23.8748  -31.3933 H   0  0  0  0  0  0  0  0  0  0  0  0
   -8.1276   21.6640  -32.4032 H   0  0  0  0  0  0  0  0  0  0  0  0
  1  2  1  0
  2  3  1  0
  3  4  2  0
  4  5  1  0
  5  6  2  0
  5  7  1  0
  7  8  1  0
  8  9  2  0
  9 10  1  0
 10 11  2  0
 11 12  1  0
 12 13  1  0
 12 14  2  0
 12 15  2  0
 11 16  1  0
 16 17  2  0
  4 18  1  0
 18 19  1  0
 19  2  2  0
 17  8  1  0
  1 20  1  0
  1 21  1  0
  1 22  1  0
  3 23  1  0
  7 24  1  0
  9 25  1  0
 10 26  1  0
 13 27  1  0
 16 28  1  0
 17 29  1  0
M  CHG  2  13  -1  18  -1
M  END
>  <UniqueID>  (5) 
5

>  <SMILES>  (5) 
Cc1cc(C(=O)Nc2ccc(S([NH-])(=O)=O)cc2)[n-]n1

>  <Energy>  (5) 
59.7459649776042

>  <Genealogy>  (5) 
Cc1cc(C(=O)Nc2ccc(S([NH-])(=O)=O)cc2)[n-]n1 (protonated)
Cc1cc(C(=O)Nc2ccc(S([NH-])(=O)=O)cc2)[n-]n1 (3D coordinates assigned)
Cc1cc(C(=O)Nc2ccc(S([NH-])(=O)=O)cc2)[n-]n1 (optimized conformer: 59.7459649776042 kcal/mol)

>  <smiles>  (5) 
Cc1cc(C(=O)Nc2ccc(S(N)(=O)=O)cc2)[nH]n1

>  <score_type>  (5) 
oracle

>  <origin>  (5) 
adgpu

>  <m_score__min__energy>  (5) 
-8.6300000000000008

>  <m_primary>  (5) 
energy

$$$$
5:0
     RDKit          3D

 45 47  0  0  0  0  0  0  0  0999 V2000
   -8.7880   22.3100  -31.6050 C   0  0  0  0  0  0  0  0  0  0  0  0
   -7.6180   23.2190  -31.2430 C   0  0  0  0  0  0  0  0  0  0  0  0
   -6.3160   22.6500  -31.7630 C   0  0  0  0  0  0  0  0  0  0  0  0
   -6.3800   21.5050  -32.5740 C   0  0  0  0  0  0  0  0  0  0  0  0
   -5.2190   20.9040  -33.0600 C   0  0  0  0  0  0  0  0  0  0  0  0
   -3.9580   21.4290  -32.7400 C   0  0  0  0  0  0  0  0  0  0  0  0
   -2.7100   20.8100  -33.2590 C   0  0  0  0  0  0  0  0  0  0  0  0
   -2.6770   19.4750  -33.7060 C   0  0  0  0  0  0  0  0  0  0  0  0
   -1.4790   18.9380  -34.1820 C   0  0  0  0  0  0  0  0  0  0  0  0
   -0.3260   19.7220  -34.2070 C   0  0  0  0  0  0  0  0  0  0  0  0
   -0.3870   21.0380  -33.7480 C   0  0  0  0  0  0  0  0  0  0  0  0
   -1.5620   21.5450  -33.2900 N   0  0  0  0  0  0  0  0  0  0  0  0
   -3.8860   22.5780  -31.9360 C   0  0  0  0  0  0  0  0  0  0  0  0
   -5.0460   23.1930  -31.4340 C   0  0  0  0  0  0  0  0  0  0  0  0
   -4.8660   24.6550  -30.4460 S   0  0  0  0  0  0  0  0  0  0  0  0
   -5.7120   24.5160  -29.2120 O   0  0  0  0  0  0  0  0  0  0  0  0
   -5.3160   25.8600  -31.2230 O   0  0  0  0  0  0  0  0  0  0  0  0
   -3.2020   24.8660  -30.0080 N   0  0  0  0  0  0  0  0  0  0  0  0
   -2.3820   23.8830  -29.3590 C   0  0  0  0  0  0  0  0  0  0  0  0
   -1.4100   23.1500  -30.0640 C   0  0  0  0  0  0  0  0  0  0  0  0
   -0.6280   22.1960  -29.4060 C   0  0  0  0  0  0  0  0  0  0  0  0
   -0.8070   21.9630  -28.0420 C   0  0  0  0  0  0  0  0  0  0  0  0
   -1.7680   22.6840  -27.3310 C   0  0  0  0  0  0  0  0  0  0  0  0
   -2.5580   23.6410  -27.9820 C   0  0  0  0  0  0  0  0  0  0  0  0
   -3.7810   24.5520  -27.0320 S   0  0  0  0  0  0  0  0  0  0  0  0
   -2.5360   25.4350  -26.0430 C   0  0  0  0  0  0  0  0  0  0  0  0
   -9.2637   21.9405  -30.6846 H   0  0  0  0  0  0  0  0  0  0  0  0
   -9.5231   22.8762  -32.1958 H   0  0  0  0  0  0  0  0  0  0  0  0
   -8.4211   21.4577  -32.1958 H   0  0  0  0  0  0  0  0  0  0  0  0
   -7.7812   24.2117  -31.6879 H   0  0  0  0  0  0  0  0  0  0  0  0
   -7.5569   23.2964  -30.1474 H   0  0  0  0  0  0  0  0  0  0  0  0
   -7.3601   21.0760  -32.8296 H   0  0  0  0  0  0  0  0  0  0  0  0
   -5.2926   20.0117  -33.6990 H   0  0  0  0  0  0  0  0  0  0  0  0
   -3.5884   18.8596  -33.6804 H   0  0  0  0  0  0  0  0  0  0  0  0
   -1.4449   17.8974  -34.5369 H   0  0  0  0  0  0  0  0  0  0  0  0
    0.6206   19.3076  -34.5842 H   0  0  0  0  0  0  0  0  0  0  0  0
    0.5163   21.6657  -33.7568 H   0  0  0  0  0  0  0  0  0  0  0  0
   -2.9018   23.0055  -31.6941 H   0  0  0  0  0  0  0  0  0  0  0  0
   -1.2644   23.3286  -31.1396 H   0  0  0  0  0  0  0  0  0  0  0  0
    0.1301   21.6278  -29.9649 H   0  0  0  0  0  0  0  0  0  0  0  0
   -0.1909   21.2112  -27.5269 H   0  0  0  0  0  0  0  0  0  0  0  0
   -1.9057   22.5001  -26.2552 H   0  0  0  0  0  0  0  0  0  0  0  0
   -2.7450   25.2868  -24.9733 H   0  0  0  0  0  0  0  0  0  0  0  0
   -1.5354   25.0435  -26.2788 H   0  0  0  0  0  0  0  0  0  0  0  0
   -2.5746   26.5087  -26.2788 H   0  0  0  0  0  0  0  0  0  0  0  0
  1  2  1  0
  2  3  1  0
  3  4  2  0
  4  5  1  0
  5  6  2  0
  6  7  1  0
  7  8  2  0
  8  9  1  0
  9 10  2  0
 10 11  1  0
 11 12  2  0
  6 13  1  0
 13 14  2  0
 14 15  1  0
 15 16  2  0
 15 17  2  0
 15 18  1  0
 18 19  1  0
 19 20  2  0
 20 21  1  0
 21 22  2  0
 22 23  1  0
 23 24  2  0
 24 25  1  0
 25 26  1  0
 14  3  1  0
 24 19  1  0
 12  7  1  0
  1 27  1  0
  1 28  1  0
  1 29  1  0
  2 30  1  0
  2 31  1  0
  4 32  1  0
  5 33  1  0
  8 34  1  0
  9 35  1  0
 10 36  1  0
 11 37  1  0
 13 38  1  0
 20 39  1  0
 21 40  1  0
 22 41  1  0
 23 42  1  0
 26 43  1  0
 26 44  1  0
 26 45  1  0
M  CHG  1  18  -1
M  END
>  <UniqueID>  (6) 
6

>  <SMILES>  (6) 
CCc1ccc(-c2ccccn2)cc1S(=O)(=O)[N-]c1ccccc1SC

>  <Energy>  (6) 
51.23711091395716

>  <Genealogy>  (6) 
CCc1ccc(-c2ccccn2)cc1S(=O)(=O)[N-]c1ccccc1SC (protonated)
CCc1ccc(-c2ccccn2)cc1S(=O)(=O)[N-]c1ccccc1SC (3D coordinates assigned)
CCc1ccc(-c2ccccn2)cc1S(=O)(=O)[N-]c1ccccc1SC (optimized conformer: 51.23711091395716 kcal/mol)

>  <smiles>  (6) 
CCc1ccc(-c2ccccn2)cc1S(=O)(=O)Nc1ccccc1SC

>  <score_type>  (6) 
oracle

>  <origin>  (6) 
adgpu

>  <m_score__min__energy>  (6) 
-10.109999999999999

>  <m_primary>  (6) 
energy

$$$$
6:0
     RDKit          3D

 48 50  0  0  0  0  0  0  0  0999 V2000
   -1.8560   19.1750  -26.4790 C   0  0  0  0  0  0  0  0  0  0  0  0
   -0.5150   19.5560  -27.0560 C   0  0  0  0  0  0  0  0  0  0  0  0
    0.3780   18.5500  -27.5030 C   0  0  0  0  0  0  0  0  0  0  0  0
    0.0540   17.1580  -27.3460 N   0  0  0  0  0  0  0  0  0  0  0  0
    1.2090   15.8950  -27.6280 S   0  0  0  0  0  0  0  0  0  0  0  0
    0.7330   14.6440  -26.9450 O   0  0  0  0  0  0  0  0  0  0  0  0
    2.5440   16.2810  -27.0570 O   0  0  0  0  0  0  0  0  0  0  0  0
    1.3540   15.5650  -29.3740 C   0  0  0  0  0  0  0  0  0  0  0  0
    1.0890   14.2320  -29.6250 F   0  0  0  0  0  0  0  0  0  0  0  0
    0.4520   16.3470  -30.0690 F   0  0  0  0  0  0  0  0  0  0  0  0
    2.6370   15.8640  -29.7930 F   0  0  0  0  0  0  0  0  0  0  0  0
    1.6080   18.9200  -28.0710 C   0  0  0  0  0  0  0  0  0  0  0  0
    1.9580   20.2630  -28.1940 C   0  0  0  0  0  0  0  0  0  0  0  0
    1.0950   21.2550  -27.7350 C   0  0  0  0  0  0  0  0  0  0  0  0
   -0.1350   20.9160  -27.1560 C   0  0  0  0  0  0  0  0  0  0  0  0
   -0.9820   21.9680  -26.6670 N   0  0  0  0  0  0  0  0  0  0  0  0
   -0.8170   22.4020  -25.2700 C   0  0  0  0  0  0  0  0  0  0  0  0
   -0.1240   23.7400  -25.1830 C   0  0  0  0  0  0  0  0  0  0  0  0
    1.2320   23.8610  -25.5320 C   0  0  0  0  0  0  0  0  0  0  0  0
    1.8830   25.0930  -25.4200 C   0  0  0  0  0  0  0  0  0  0  0  0
    1.1860   26.2160  -24.9640 C   0  0  0  0  0  0  0  0  0  0  0  0
   -0.1650   26.1080  -24.6260 C   0  0  0  0  0  0  0  0  0  0  0  0
   -0.8200   24.8770  -24.7370 C   0  0  0  0  0  0  0  0  0  0  0  0
   -1.6310   22.8100  -27.6400 C   0  0  0  0  0  0  0  0  0  0  0  0
   -2.8810   22.4580  -28.1800 C   0  0  0  0  0  0  0  0  0  0  0  0
   -3.5040   23.2890  -29.1160 C   0  0  0  0  0  0  0  0  0  0  0  0
   -2.8930   24.4830  -29.5100 C   0  0  0  0  0  0  0  0  0  0  0  0
   -3.5120   25.3060  -30.4410 O   0  0  0  0  0  0  0  0  0  0  0  0
   -1.6600   24.8490  -28.9630 C   0  0  0  0  0  0  0  0  0  0  0  0
   -1.0350   24.0200  -28.0270 C   0  0  0  0  0  0  0  0  0  0  0  0
   -1.8004   19.1908  -25.3805 H   0  0  0  0  0  0  0  0  0  0  0  0
   -2.6181   19.8922  -26.8179 H   0  0  0  0  0  0  0  0  0  0  0  0
   -2.1272   18.1643  -26.8179 H   0  0  0  0  0  0  0  0  0  0  0  0
   -0.9410   16.8720  -27.2110 H   0  0  0  0  0  0  0  0  0  0  0  0
    2.3018   18.1420  -28.4222 H   0  0  0  0  0  0  0  0  0  0  0  0
    2.9177   20.5403  -28.6545 H   0  0  0  0  0  0  0  0  0  0  0  0
    1.3813   22.3130  -27.8278 H   0  0  0  0  0  0  0  0  0  0  0  0
   -1.8090   22.4824  -24.8015 H   0  0  0  0  0  0  0  0  0  0  0  0
   -0.1962   21.6581  -24.7492 H   0  0  0  0  0  0  0  0  0  0  0  0
    1.7840   22.9816  -25.8952 H   0  0  0  0  0  0  0  0  0  0  0  0
    2.9456   25.1791  -25.6911 H   0  0  0  0  0  0  0  0  0  0  0  0
    1.7010   27.1836  -24.8715 H   0  0  0  0  0  0  0  0  0  0  0  0
   -0.7148   26.9925  -24.2719 H   0  0  0  0  0  0  0  0  0  0  0  0
   -1.8852   24.7983  -24.4739 H   0  0  0  0  0  0  0  0  0  0  0  0
   -3.3706   21.5248  -27.8646 H   0  0  0  0  0  0  0  0  0  0  0  0
   -4.4765   23.0028  -29.5431 H   0  0  0  0  0  0  0  0  0  0  0  0
   -1.1808   25.7906  -29.2694 H   0  0  0  0  0  0  0  0  0  0  0  0
   -0.0700   24.3180  -27.5911 H   0  0  0  0  0  0  0  0  0  0  0  0
  1  2  1  0
  2  3  2  0
  3  4  1  0
  4  5  1  0
  5  6  2  0
  5  7  2  0
  5  8  1  0
  8  9  1  0
  8 10  1  0
  8 11  1  0
  3 12  1  0
 12 13  2  0
 13 14  1  0
 14 15  2  0
 15 16  1  0
 16 17  1  0
 17 18  1  0
 18 19  2  0
 19 20  1  0
 20 21  2  0
 21 22  1  0
 22 23  2  0
 16 24  1  0
 24 25  2  0
 25 26  1  0
 26 27  2  0
 27 28  1  0
 27 29  1  0
 29 30  2  0
 15  2  1  0
 23 18  1  0
 30 24  1  0
  1 31  1  0
  1 32  1  0
  1 33  1  0
  4 34  1  0
 12 35  1  0
 13 36  1  0
 14 37  1  0
 17 38  1  0
 17 39  1  0
 19 40  1  0
 20 41  1  0
 21 42  1  0
 22 43  1  0
 23 44  1  0
 25 45  1  0
 26 46  1  0
 29 47  1  0
 30 48  1  0
M  CHG  1  28  -1
M  END
>  <UniqueID>  (7) 
7

>  <SMILES>  (7) 
Cc1c(NS(=O)(=O)C(F)(F)F)cccc1N(Cc1ccccc1)c1ccc([O-])cc1

>  <Energy>  (7) 
62.17748256888404

>  <Genealogy>  (7) 
Cc1c(NS(=O)(=O)C(F)(F)F)cccc1N(Cc1ccccc1)c1ccc([O-])cc1 (protonated)
Cc1c(NS(=O)(=O)C(F)(F)F)cccc1N(Cc1ccccc1)c1ccc([O-])cc1 (3D coordinates assigned)
Cc1c(NS(=O)(=O)C(F)(F)F)cccc1N(Cc1ccccc1)c1ccc([O-])cc1 (optimized conformer: 62.17748256888404 kcal/mol)

>  <smiles>  (7) 
Cc1c(NS(=O)(=O)C(F)(F)F)cccc1N(Cc1ccccc1)c1ccc(O)cc1

>  <score_type>  (7) 
oracle

>  <origin>  (7) 
adgpu

>  <m_score__min__energy>  (7) 
-10.279999999999999

>  <m_primary>  (7) 
energy

$$$$
7:0
     RDKit          3D

 26 27  0  0  0  0  0  0  0  0999 V2000
   -5.1540   23.7880  -32.0700 O   0  0  0  0  0  0  0  0  0  0  0  0
   -4.7520   22.9430  -31.2260 C   0  0  0  0  0  0  0  0  0  0  0  0
   -5.5040   21.7400  -31.0080 N   0  0  0  0  0  0  0  0  0  0  0  0
   -6.8630   21.4970  -31.3980 C   0  0  0  0  0  0  0  0  0  0  0  0
   -7.8070   22.5140  -31.2070 C   0  0  0  0  0  0  0  0  0  0  0  0
   -9.1460   22.3120  -31.5550 C   0  0  0  0  0  0  0  0  0  0  0  0
   -9.5540   21.0850  -32.0830 C   0  0  0  0  0  0  0  0  0  0  0  0
   -8.6280   20.0520  -32.2540 C   0  0  0  0  0  0  0  0  0  0  0  0
   -9.0530   18.8270  -32.7640 O   0  0  0  0  0  0  0  0  0  0  0  0
   -7.2840   20.2540  -31.9070 C   0  0  0  0  0  0  0  0  0  0  0  0
   -3.5320   23.2120  -30.4160 C   0  0  0  0  0  0  0  0  0  0  0  0
   -2.7320   22.1360  -29.9850 C   0  0  0  0  0  0  0  0  0  0  0  0
   -1.5830   22.3600  -29.2250 C   0  0  0  0  0  0  0  0  0  0  0  0
   -1.2100   23.6590  -28.8820 C   0  0  0  0  0  0  0  0  0  0  0  0
   -0.0650   23.8740  -28.1250 O   0  0  0  0  0  0  0  0  0  0  0  0
   -1.9880   24.7420  -29.3010 C   0  0  0  0  0  0  0  0  0  0  0  0
   -1.6150   26.0380  -28.9590 O   0  0  0  0  0  0  0  0  0  0  0  0
   -3.1450   24.5270  -30.0650 C   0  0  0  0  0  0  0  0  0  0  0  0
   -3.8940   25.6280  -30.4690 O   0  0  0  0  0  0  0  0  0  0  0  0
   -7.4928   23.4780  -30.7804 H   0  0  0  0  0  0  0  0  0  0  0  0
   -9.8787   23.1200  -31.4128 H   0  0  0  0  0  0  0  0  0  0  0  0
  -10.6061   20.9313  -32.3648 H   0  0  0  0  0  0  0  0  0  0  0  0
   -9.0640   18.6430  -33.7600 H   0  0  0  0  0  0  0  0  0  0  0  0
   -6.5567   19.4384  -32.0330 H   0  0  0  0  0  0  0  0  0  0  0  0
   -3.0161   21.1070  -30.2505 H   0  0  0  0  0  0  0  0  0  0  0  0
   -0.9694   21.5086  -28.8954 H   0  0  0  0  0  0  0  0  0  0  0  0
  1  2  2  0
  2  3  1  0
  3  4  1  0
  4  5  2  0
  5  6  1  0
  6  7  2  0
  7  8  1  0
  8  9  1  0
  8 10  2  0
  2 11  1  0
 11 12  2  0
 12 13  1  0
 13 14  2  0
 14 15  1  0
 14 16  1  0
 16 17  1  0
 16 18  2  0
 18 19  1  0
 10  4  1  0
 18 11  1  0
  5 20  1  0
  6 21  1  0
  7 22  1  0
  9 23  1  0
 10 24  1  0
 12 25  1  0
 13 26  1  0
M  CHG  4   3  -1  15  -1  17  -1  19  -1
M  END
>  <UniqueID>  (8) 
8

>  <SMILES>  (8) 
O=C([N-]c1cccc(O)c1)c1ccc([O-])c([O-])c1[O-]

>  <Energy>  (8) 
33.44315053366145

>  <Genealogy>  (8) 
O=C([N-]c1cccc(O)c1)c1ccc([O-])c([O-])c1[O-] (protonated)
O=C([N-]c1cccc(O)c1)c1ccc([O-])c([O-])c1[O-] (3D coordinates assigned)
O=C([N-]c1cccc(O)c1)c1ccc([O-])c([O-])c1[O-] (optimized conformer: 33.44315053366145 kcal/mol)

>  <smiles>  (8) 
O=C(Nc1cccc(O)c1)c1ccc(O)c(O)c1O

>  <score_type>  (8) 
oracle

>  <origin>  (8) 
adgpu

>  <m_score__min__energy>  (8) 
-13.470000000000001

>  <m_primary>  (8) 
energy

$$$$
8:0
     RDKit          3D

 44 46  0  0  0  0  0  0  0  0999 V2000
   -7.2640   20.1140  -33.4330 C   0  0  0  0  0  0  0  0  0  0  0  0
   -7.9780   19.2240  -32.4180 C   0  0  0  0  0  0  0  0  0  0  0  0
   -8.7170   20.0770  -31.3840 C   0  0  0  0  0  0  0  0  0  0  0  0
   -6.7490   18.1500  -31.5930 S   0  0  0  0  0  0  0  0  0  0  0  0
   -5.3050   18.9150  -32.3320 C   0  0  0  0  0  0  0  0  0  0  0  0
   -4.7240   18.3550  -33.4220 N   0  0  0  0  0  0  0  0  0  0  0  0
   -3.5700   18.8560  -33.9290 C   0  0  0  0  0  0  0  0  0  0  0  0
   -2.9460   19.9490  -33.3210 C   0  0  0  0  0  0  0  0  0  0  0  0
   -1.3390   20.3940  -33.8830 Cl  0  0  0  0  0  0  0  0  0  0  0  0
   -3.5840   20.5510  -32.2140 C   0  0  0  0  0  0  0  0  0  0  0  0
   -3.0270   21.7050  -31.4650 C   0  0  0  0  0  0  0  0  0  0  0  0
   -2.0580   21.4950  -30.6890 O   0  0  0  0  0  0  0  0  0  0  0  0
   -3.4970   23.0530  -31.6020 N   0  0  0  0  0  0  0  0  0  0  0  0
   -4.6680   23.6790  -31.0500 C   0  0  0  0  0  0  0  0  0  0  0  0
   -5.9150   23.2210  -31.4990 C   0  0  0  0  0  0  0  0  0  0  0  0
   -7.0980   23.7910  -31.0300 C   0  0  0  0  0  0  0  0  0  0  0  0
   -7.0500   24.8380  -30.1110 C   0  0  0  0  0  0  0  0  0  0  0  0
   -5.8190   25.3230  -29.6700 C   0  0  0  0  0  0  0  0  0  0  0  0
   -4.6140   24.7650  -30.1460 C   0  0  0  0  0  0  0  0  0  0  0  0
   -3.3770   25.2600  -29.7130 O   0  0  0  0  0  0  0  0  0  0  0  0
   -2.4770   24.5520  -28.9110 C   0  0  0  0  0  0  0  0  0  0  0  0
   -1.1390   24.9540  -28.8700 C   0  0  0  0  0  0  0  0  0  0  0  0
   -0.2230   24.2750  -28.0610 C   0  0  0  0  0  0  0  0  0  0  0  0
   -0.6440   23.1910  -27.2860 C   0  0  0  0  0  0  0  0  0  0  0  0
   -1.9810   22.7830  -27.3210 C   0  0  0  0  0  0  0  0  0  0  0  0
   -2.8970   23.4630  -28.1300 C   0  0  0  0  0  0  0  0  0  0  0  0
   -4.7350   19.9970  -31.7430 N   0  0  0  0  0  0  0  0  0  0  0  0
   -6.6612   20.8654  -32.9018 H   0  0  0  0  0  0  0  0  0  0  0  0
   -6.6077   19.4968  -34.0641 H   0  0  0  0  0  0  0  0  0  0  0  0
   -8.0088   20.6209  -34.0641 H   0  0  0  0  0  0  0  0  0  0  0  0
   -8.7191   18.6002  -32.9393 H   0  0  0  0  0  0  0  0  0  0  0  0
   -8.4353   19.7518  -30.3716 H   0  0  0  0  0  0  0  0  0  0  0  0
   -8.4446   21.1342  -31.5186 H   0  0  0  0  0  0  0  0  0  0  0  0
   -9.8022   19.9580  -31.5186 H   0  0  0  0  0  0  0  0  0  0  0  0
   -3.1225   18.3994  -34.8241 H   0  0  0  0  0  0  0  0  0  0  0  0
   -5.9606   22.4011  -32.2310 H   0  0  0  0  0  0  0  0  0  0  0  0
   -8.0687   23.4146  -31.3851 H   0  0  0  0  0  0  0  0  0  0  0  0
   -7.9831   25.2817  -29.7336 H   0  0  0  0  0  0  0  0  0  0  0  0
   -5.7874   26.1487  -28.9439 H   0  0  0  0  0  0  0  0  0  0  0  0
   -0.8052   25.8085  -29.4770 H   0  0  0  0  0  0  0  0  0  0  0  0
    0.8294   24.5941  -28.0345 H   0  0  0  0  0  0  0  0  0  0  0  0
    0.0767   22.6584  -26.6481 H   0  0  0  0  0  0  0  0  0  0  0  0
   -2.3119   21.9282  -26.7129 H   0  0  0  0  0  0  0  0  0  0  0  0
   -3.9494   23.1440  -28.1546 H   0  0  0  0  0  0  0  0  0  0  0  0
  1  2  1  0
  2  3  1  0
  2  4  1  0
  4  5  1  0
  5  6  2  0
  6  7  1  0
  7  8  2  0
  8  9  1  0
  8 10  1  0
 10 11  1  0
 11 12  2  0
 11 13  1  0
 13 14  1  0
 14 15  2  0
 15 16  1  0
 16 17  2  0
 17 18  1  0
 18 19  2  0
 19 20  1  0
 20 21  1  0
 21 22  2  0
 22 23  1  0
 23 24  2  0
 24 25  1  0
 25 26  2  0
 10 27  2  0
 27  5  1  0
 19 14  1  0
 26 21  1  0
  1 28  1  0
  1 29  1  0
  1 30  1  0
  2 31  1  0
  3 32  1  0
  3 33  1  0
  3 34  1  0
  7 35  1  0
 15 36  1  0
 16 37  1  0
 17 38  1  0
 18 39  1  0
 22 40  1  0
 23 41  1  0
 24 42  1  0
 25 43  1  0
 26 44  1  0
M  CHG  1  13  -1
M  END
>  <UniqueID>  (9) 
9

>  <SMILES>  (9) 
CC(C)Sc1ncc(Cl)c(C(=O)[N-]c2ccccc2Oc2ccccc2)n1

>  <Energy>  (9) 
56.523802186135356

>  <Genealogy>  (9) 
CC(C)Sc1ncc(Cl)c(C(=O)[N-]c2ccccc2Oc2ccccc2)n1 (protonated)
CC(C)Sc1ncc(Cl)c(C(=O)[N-]c2ccccc2Oc2ccccc2)n1 (3D coordinates assigned)
CC(C)Sc1ncc(Cl)c(C(=O)[N-]c2ccccc2Oc2ccccc2)n1 (optimized conformer: 56.523802186135356 kcal/mol)

>  <smiles>  (9) 
CC(C)Sc1ncc(Cl)c(C(=O)Nc2ccccc2Oc2ccccc2)n1

>  <score_type>  (9) 
oracle

>  <origin>  (9) 
adgpu

>  <m_score__min__energy>  (9) 
-9.9600000000000009

>  <m_primary>  (9) 
energy

$$$$
9:0
     RDKit          3D

 33 35  0  0  0  0  0  0  0  0999 V2000
   -8.7460   19.3320  -31.1910 N   0  0  0  0  0  0  0  0  0  0  0  0
   -8.2830   20.6430  -32.2180 S   0  0  0  0  0  0  0  0  0  0  0  0
   -9.4100   21.6350  -32.3060 O   0  0  0  0  0  0  0  0  0  0  0  0
   -7.9930   20.1190  -33.5960 O   0  0  0  0  0  0  0  0  0  0  0  0
   -6.8490   21.4260  -31.5610 C   0  0  0  0  0  0  0  0  0  0  0  0
   -6.9170   22.7480  -31.1030 C   0  0  0  0  0  0  0  0  0  0  0  0
   -5.7840   23.3680  -30.5700 C   0  0  0  0  0  0  0  0  0  0  0  0
   -4.5640   22.6730  -30.4870 C   0  0  0  0  0  0  0  0  0  0  0  0
   -3.3950   23.3040  -29.9330 N   0  0  0  0  0  0  0  0  0  0  0  0
   -2.3710   22.6750  -29.3090 C   0  0  0  0  0  0  0  0  0  0  0  0
   -1.4140   23.5980  -28.9070 C   0  0  0  0  0  0  0  0  0  0  0  0
   -0.1570   23.2970  -28.1910 C   0  0  0  0  0  0  0  0  0  0  0  0
    0.2150   22.0700  -27.6730 C   0  0  0  0  0  0  0  0  0  0  0  0
    1.4240   22.1490  -27.0840 N   0  0  0  0  0  0  0  0  0  0  0  0
    1.8170   23.4310  -27.2280 C   0  0  0  0  0  0  0  0  0  0  0  0
    3.0940   23.9470  -26.7210 C   0  0  0  0  0  0  0  0  0  0  0  0
    3.1090   24.9090  -25.9090 O   0  0  0  0  0  0  0  0  0  0  0  0
    4.2930   23.3770  -27.1300 O   0  0  0  0  0  0  0  0  0  0  0  0
    0.8710   24.1730  -27.9070 C   0  0  0  0  0  0  0  0  0  0  0  0
   -1.8840   24.8340  -29.3150 C   0  0  0  0  0  0  0  0  0  0  0  0
   -1.2650   26.0650  -29.1440 O   0  0  0  0  0  0  0  0  0  0  0  0
   -3.0900   24.6200  -29.9390 C   0  0  0  0  0  0  0  0  0  0  0  0
   -3.8700   25.6090  -30.5270 O   0  0  0  0  0  0  0  0  0  0  0  0
   -4.5070   21.3410  -30.9350 C   0  0  0  0  0  0  0  0  0  0  0  0
   -5.6410   20.7230  -31.4670 C   0  0  0  0  0  0  0  0  0  0  0  0
   -9.0910   18.5660  -31.8140 H   0  0  0  0  0  0  0  0  0  0  0  0
   -7.8664   23.3004  -31.1632 H   0  0  0  0  0  0  0  0  0  0  0  0
   -5.8465   24.4065  -30.2129 H   0  0  0  0  0  0  0  0  0  0  0  0
   -2.3063   21.5893  -29.1442 H   0  0  0  0  0  0  0  0  0  0  0  0
   -0.3928   21.1552  -27.7336 H   0  0  0  0  0  0  0  0  0  0  0  0
    0.9254   25.2403  -28.1674 H   0  0  0  0  0  0  0  0  0  0  0  0
   -3.5623   20.7818  -30.8659 H   0  0  0  0  0  0  0  0  0  0  0  0
   -5.5853   19.6805  -31.8134 H   0  0  0  0  0  0  0  0  0  0  0  0
  1  2  1  0
  2  3  2  0
  2  4  2  0
  2  5  1  0
  5  6  2  0
  6  7  1  0
  7  8  2  0
  8  9  1  0
  9 10  1  0
 10 11  2  0
 11 12  1  0
 12 13  2  0
 13 14  1  0
 14 15  1  0
 15 16  1  0
 16 17  2  0
 16 18  1  0
 15 19  2  0
 11 20  1  0
 20 21  1  0
 20 22  2  0
 22 23  1  0
  8 24  1  0
 24 25  2  0
 25  5  1  0
 22  9  1  0
 19 12  1  0
  1 26  1  0
  6 27  1  0
  7 28  1  0
 10 29  1  0
 13 30  1  0
 19 31  1  0
 24 32  1  0
 25 33  1  0
M  CHG  5   1  -1  14  -1  18  -1  21  -1  23  -1
M  END
>  <UniqueID>  (10) 
10

>  <SMILES>  (10) 
[NH-]S(=O)(=O)c1ccc(-n2cc(-c3c[n-]c(C(=O)[O-])c3)c([O-])c2[O-])cc1

>  <Energy>  (10) 
93.86167767606321

>  <Genealogy>  (10) 
[NH-]S(=O)(=O)c1ccc(-n2cc(-c3c[n-]c(C(=O)[O-])c3)c([O-])c2[O-])cc1 (protonated)
[NH-]S(=O)(=O)c1ccc(-n2cc(-c3c[n-]c(C(=O)[O-])c3)c([O-])c2[O-])cc1 (3D coordinates assigned)
[NH-]S(=O)(=O)c1ccc(-n2cc(-c3c[n-]c(C(=O)[O-])c3)c([O-])c2[O-])cc1 (optimized conformer: 93.86167767606321 kcal/mol)

>  <smiles>  (10) 
NS(=O)(=O)c1ccc(-n2cc(-c3c[nH]c(C(=O)O)c3)c(O)c2O)cc1

>  <score_type>  (10) 
oracle

>  <origin>  (10) 
adgpu

>  <m_score__min__energy>  (10) 
-13.49

>  <m_primary>  (10) 
energy

$$$$
10:0
     RDKit          3D

 49 52  0  0  0  0  0  0  0  0999 V2000
   -0.6320   30.2550  -25.3320 C   0  0  0  0  0  0  0  0  0  0  0  0
   -0.8310   28.9310  -24.8500 O   0  0  0  0  0  0  0  0  0  0  0  0
   -0.9610   27.8000  -25.6700 C   0  0  0  0  0  0  0  0  0  0  0  0
   -0.4400   27.8560  -26.9680 C   0  0  0  0  0  0  0  0  0  0  0  0
   -0.5440   26.7570  -27.8240 C   0  0  0  0  0  0  0  0  0  0  0  0
   -1.1810   25.5820  -27.3940 C   0  0  0  0  0  0  0  0  0  0  0  0
   -1.2750   24.4440  -28.2660 N   0  0  0  0  0  0  0  0  0  0  0  0
   -0.6100   23.2690  -28.1710 C   0  0  0  0  0  0  0  0  0  0  0  0
    0.3770   22.9860  -27.2290 O   0  0  0  0  0  0  0  0  0  0  0  0
   -1.0100   22.3880  -29.1580 C   0  0  0  0  0  0  0  0  0  0  0  0
   -1.9520   23.0720  -29.9070 C   0  0  0  0  0  0  0  0  0  0  0  0
   -2.6880   22.5420  -31.0250 N   0  0  0  0  0  0  0  0  0  0  0  0
   -4.0970   22.8850  -31.2380 C   0  0  0  0  0  0  0  0  0  0  0  0
   -4.8990   21.6030  -31.4730 C   0  0  0  0  0  0  0  0  0  0  0  0
   -4.2610   20.7530  -32.4930 N   0  0  0  0  0  0  0  0  0  0  0  0
   -5.0040   19.6500  -33.0560 C   0  0  0  0  0  0  0  0  0  0  0  0
   -6.2860   19.3300  -32.5690 C   0  0  0  0  0  0  0  0  0  0  0  0
   -7.0070   18.2640  -33.1180 C   0  0  0  0  0  0  0  0  0  0  0  0
   -6.4600   17.5110  -34.1590 C   0  0  0  0  0  0  0  0  0  0  0  0
   -5.1920   17.8200  -34.6540 C   0  0  0  0  0  0  0  0  0  0  0  0
   -4.4660   18.8840  -34.1090 C   0  0  0  0  0  0  0  0  0  0  0  0
   -2.9610   21.1380  -33.0660 C   0  0  0  0  0  0  0  0  0  0  0  0
   -2.0080   21.6480  -31.9740 C   0  0  0  0  0  0  0  0  0  0  0  0
   -2.1020   24.3190  -29.3250 C   0  0  0  0  0  0  0  0  0  0  0  0
   -3.0180   25.2910  -29.7110 O   0  0  0  0  0  0  0  0  0  0  0  0
   -1.6940   25.5190  -26.0900 C   0  0  0  0  0  0  0  0  0  0  0  0
   -1.5900   26.6180  -25.2340 C   0  0  0  0  0  0  0  0  0  0  0  0
   -0.5285   30.9435  -24.4804 H   0  0  0  0  0  0  0  0  0  0  0  0
    0.2813   30.2890  -25.9441 H   0  0  0  0  0  0  0  0  0  0  0  0
   -1.4950   30.5560  -25.9441 H   0  0  0  0  0  0  0  0  0  0  0  0
    0.0558   28.7738  -27.3171 H   0  0  0  0  0  0  0  0  0  0  0  0
   -0.1249   26.8124  -28.8395 H   0  0  0  0  0  0  0  0  0  0  0  0
    0.2900   23.2680  -26.2610 H   0  0  0  0  0  0  0  0  0  0  0  0
   -0.6544   21.3590  -29.3153 H   0  0  0  0  0  0  0  0  0  0  0  0
   -4.4869   23.4050  -30.3506 H   0  0  0  0  0  0  0  0  0  0  0  0
   -4.1879   23.5428  -32.1149 H   0  0  0  0  0  0  0  0  0  0  0  0
   -4.9638   21.0425  -30.5287 H   0  0  0  0  0  0  0  0  0  0  0  0
   -5.9018   21.8808  -31.8297 H   0  0  0  0  0  0  0  0  0  0  0  0
   -6.7234   19.9220  -31.7516 H   0  0  0  0  0  0  0  0  0  0  0  0
   -8.0063   18.0187  -32.7290 H   0  0  0  0  0  0  0  0  0  0  0  0
   -7.0289   16.6736  -34.5893 H   0  0  0  0  0  0  0  0  0  0  0  0
   -4.7630   17.2256  -35.4742 H   0  0  0  0  0  0  0  0  0  0  0  0
   -3.4683   19.1244  -34.5051 H   0  0  0  0  0  0  0  0  0  0  0  0
   -2.5105   20.2625  -33.5566 H   0  0  0  0  0  0  0  0  0  0  0  0
   -3.1242   21.9460  -33.7944 H   0  0  0  0  0  0  0  0  0  0  0  0
   -1.6046   20.7855  -31.4232 H   0  0  0  0  0  0  0  0  0  0  0  0
   -1.2043   22.2183  -32.4628 H   0  0  0  0  0  0  0  0  0  0  0  0
   -2.1817   24.5976  -25.7390 H   0  0  0  0  0  0  0  0  0  0  0  0
   -2.0011   26.5598  -24.2154 H   0  0  0  0  0  0  0  0  0  0  0  0
  1  2  1  0
  2  3  1  0
  3  4  2  0
  4  5  1  0
  5  6  2  0
  6  7  1  0
  7  8  1  0
  8  9  1  0
  8 10  2  0
 10 11  1  0
 11 12  1  0
 12 13  1  0
 13 14  1  0
 14 15  1  0
 15 16  1  0
 16 17  2  0
 17 18  1  0
 18 19  2  0
 19 20  1  0
 20 21  2  0
 15 22  1  0
 22 23  1  0
 11 24  2  0
 24 25  1  0
  6 26  1  0
 26 27  2  0
 27  3  1  0
 24  7  1  0
 23 12  1  0
 21 16  1  0
  1 28  1  0
  1 29  1  0
  1 30  1  0
  4 31  1  0
  5 32  1  0
  9 33  1  0
 10 34  1  0
 13 35  1  0
 13 36  1  0
 14 37  1  0
 14 38  1  0
 17 39  1  0
 18 40  1  0
 19 41  1  0
 20 42  1  0
 21 43  1  0
 22 44  1  0
 22 45  1  0
 23 46  1  0
 23 47  1  0
 26 48  1  0
 27 49  1  0
M  CHG  1  25  -1
M  END
>  <UniqueID>  (11) 
11

>  <SMILES>  (11) 
COc1ccc(-n2c(O)cc(N3CCN(c4ccccc4)CC3)c2[O-])cc1

>  <Energy>  (11) 
93.67978078495182

>  <Genealogy>  (11) 
COc1ccc(-n2c(O)cc(N3CCN(c4ccccc4)CC3)c2[O-])cc1 (protonated)
COc1ccc(-n2c(O)cc(N3CCN(c4ccccc4)CC3)c2[O-])cc1 (3D coordinates assigned)
COc1ccc(-n2c(O)cc(N3CCN(c4ccccc4)CC3)c2[O-])cc1 (nonaromatic ring conformer: 93.67978078495182 kcal/mol)

>  <smiles>  (11) 
COc1ccc(-n2c(O)cc(N3CCN(c4ccccc4)CC3)c2O)cc1

>  <score_type>  (11) 
oracle

>  <origin>  (11) 
adgpu

>  <m_score__min__energy>  (11) 
-9.8399999999999999

>  <m_primary>  (11) 
energy

$$$$
11:0
     RDKit          3D

 59 62  0  0  0  0  0  0  0  0999 V2000
   -2.5452   22.2492  -33.8567 H   0  0  0  0  0  0  0  0  0  0  0  0
   -3.2450   21.8210  -33.1240 C   0  0  0  0  0  0  0  0  0  0  0  0
   -4.4320   22.4350  -32.8810 N   0  0  0  0  0  0  0  0  0  0  0  0
   -5.3230   21.9520  -31.9700 C   0  0  0  0  0  0  0  0  0  0  0  0
   -6.6440   22.6440  -31.7670 C   0  0  2  0  0  0  0  0  0  0  0  0
   -7.2334   21.7297  -31.9300 H   0  0  0  0  0  0  0  0  0  0  0  0
   -6.6830   24.0980  -32.2400 C   0  0  0  0  0  0  0  0  0  0  0  0
   -5.7845   24.5572  -32.6780 H   0  0  0  0  0  0  0  0  0  0  0  0
   -7.3157   24.6717  -32.9332 H   0  0  0  0  0  0  0  0  0  0  0  0
   -6.7290   23.7880  -30.7470 C   0  0  2  0  0  0  0  0  0  0  0  0
   -7.4074   24.0525  -29.9225 H   0  0  0  0  0  0  0  0  0  0  0  0
   -5.4940   24.0930  -29.8680 C   0  0  0  0  0  0  0  0  0  0  0  0
   -5.6765   25.0379  -29.3353 H   0  0  0  0  0  0  0  0  0  0  0  0
   -5.3719   23.2342  -29.1915 H   0  0  0  0  0  0  0  0  0  0  0  0
   -4.2680   24.2180  -30.5910 O   0  0  0  0  0  0  0  0  0  0  0  0
   -3.0040   24.2010  -29.9920 C   0  0  0  0  0  0  0  0  0  0  0  0
   -2.5190   25.2950  -29.3470 N   0  0  0  0  0  0  0  0  0  0  0  0
   -1.3050   25.3140  -28.7950 N   0  0  0  0  0  0  0  0  0  0  0  0
   -0.8670   26.5310  -28.1130 C   0  0  0  0  0  0  0  0  0  0  0  0
   -0.9210   26.3810  -27.0246 H   0  0  0  0  0  0  0  0  0  0  0  0
    0.1698   26.7596  -28.4007 H   0  0  0  0  0  0  0  0  0  0  0  0
   -1.5203   27.3679  -28.4007 H   0  0  0  0  0  0  0  0  0  0  0  0
   -0.4930   24.2130  -28.8560 C   0  0  0  0  0  0  0  0  0  0  0  0
    0.6550   24.2400  -28.3270 O   0  0  0  0  0  0  0  0  0  0  0  0
   -0.9350   23.0480  -29.5080 C   0  0  0  0  0  0  0  0  0  0  0  0
   -0.1290   22.0210  -29.5700 N   0  0  0  0  0  0  0  0  0  0  0  0
   -0.3370   20.7030  -30.1730 C   0  0  0  0  0  0  0  0  0  0  0  0
   -1.2971   20.6912  -30.7098 H   0  0  0  0  0  0  0  0  0  0  0  0
    0.4771   20.4872  -30.8806 H   0  0  0  0  0  0  0  0  0  0  0  0
   -0.3540   19.6570  -29.0840 C   0  0  0  0  0  0  0  0  0  0  0  0
    0.5770   18.6090  -29.1480 C   0  0  0  0  0  0  0  0  0  0  0  0
    1.3113   18.5818  -29.9665 H   0  0  0  0  0  0  0  0  0  0  0  0
    0.5800   17.6030  -28.1850 C   0  0  0  0  0  0  0  0  0  0  0  0
    1.3199   16.7911  -28.2431 H   0  0  0  0  0  0  0  0  0  0  0  0
   -0.3500   17.6210  -27.1490 C   0  0  0  0  0  0  0  0  0  0  0  0
   -0.3348   16.8258  -26.3891 H   0  0  0  0  0  0  0  0  0  0  0  0
   -1.3100   18.6480  -27.0650 C   0  0  0  0  0  0  0  0  0  0  0  0
   -2.2600   18.6760  -26.0290 O   0  0  0  0  0  0  0  0  0  0  0  0
   -3.6700   18.5890  -26.2160 C   0  0  0  0  0  0  0  0  0  0  0  0
   -4.1686   18.5582  -25.2360 H   0  0  0  0  0  0  0  0  0  0  0  0
   -4.0202   19.4672  -26.7782 H   0  0  0  0  0  0  0  0  0  0  0  0
   -3.9096   17.6744  -26.7782 H   0  0  0  0  0  0  0  0  0  0  0  0
   -1.3220   19.6710  -28.0430 C   0  0  0  0  0  0  0  0  0  0  0  0
   -2.3500   20.7780  -27.9680 C   0  0  0  0  0  0  0  0  0  0  0  0
   -2.5642   21.0087  -26.9140 H   0  0  0  0  0  0  0  0  0  0  0  0
   -1.9586   21.6764  -28.4677 H   0  0  0  0  0  0  0  0  0  0  0  0
   -3.2748   20.4540  -28.4677 H   0  0  0  0  0  0  0  0  0  0  0  0
   -2.2220   23.0540  -30.0770 C   0  0  0  0  0  0  0  0  0  0  0  0
   -2.6069   22.1577  -30.5855 H   0  0  0  0  0  0  0  0  0  0  0  0
   -5.0380   20.7620  -31.2920 C   0  0  0  0  0  0  0  0  0  0  0  0
   -5.7656   20.3399  -30.5831 H   0  0  0  0  0  0  0  0  0  0  0  0
   -3.8240   20.1150  -31.5220 C   0  0  0  0  0  0  0  0  0  0  0  0
   -3.5856   19.1889  -30.9784 H   0  0  0  0  0  0  0  0  0  0  0  0
   -2.9090   20.6380  -32.4400 C   0  0  0  0  0  0  0  0  0  0  0  0
   -1.6990   19.9610  -32.6480 O   0  0  0  0  0  0  0  0  0  0  0  0
   -1.5840   18.7090  -33.3130 C   0  0  0  0  0  0  0  0  0  0  0  0
   -1.5100   17.9034  -32.5677 H   0  0  0  0  0  0  0  0  0  0  0  0
   -2.4709   18.5455  -33.9428 H   0  0  0  0  0  0  0  0  0  0  0  0
   -0.6821   18.7098  -33.9428 H   0  0  0  0  0  0  0  0  0  0  0  0
  1  2  1  0
  2  3  2  0
  3  4  1  0
  4  5  1  0
  5  6  1  6
  5  7  1  0
  7  8  1  0
  7  9  1  0
  7 10  1  0
 10 11  1  1
 10 12  1  0
 12 13  1  0
 12 14  1  0
 12 15  1  0
 15 16  1  0
 16 17  1  0
 17 18  1  0
 18 19  1  0
 19 20  1  0
 19 21  1  0
 19 22  1  0
 18 23  1  0
 23 24  2  0
 23 25  1  0
 25 26  2  0
 26 27  1  0
 27 28  1  0
 27 29  1  0
 27 30  1  0
 30 31  2  0
 31 32  1  0
 31 33  1  0
 33 34  1  0
 33 35  2  0
 35 36  1  0
 35 37  1  0
 37 38  1  0
 38 39  1  0
 39 40  1  0
 39 41  1  0
 39 42  1  0
 37 43  2  0
 43 44  1  0
 44 45  1  0
 44 46  1  0
 44 47  1  0
 25 48  1  0
 48 49  1  0
  4 50  2  0
 50 51  1  0
 50 52  1  0
 52 53  1  0
 52 54  2  0
 54 55  1  0
 55 56  1  0
 56 57  1  0
 56 58  1  0
 56 59  1  0
 54  2  1  0
 10  5  1  0
 48 16  2  0
 43 30  1  0
M  CHG  1  17  -1
M  END
>  <UniqueID>  (12) 
12

>  <SMILES>  (12) 
COc1ccc([C@@H]2C[C@@H]2COc2c/c(=N\Cc3cccc(OC)c3C)c(=O)n(C)[n-]2)nc1

>  <Energy>  (12) 
337.4896314711988

>  <Genealogy>  (12) 
COc1ccc(C2CC2COc2cc(=NCc3cccc(OC)c3C)c(=O)n(C)[n-]2)nc1 (protonated)
COc1ccc([C@@H]2C[C@@H]2COc2cc(=NCc3cccc(OC)c3C)c(=O)n(C)[n-]2)nc1 (chirality)
COc1ccc([C@@H]2C[C@@H]2COc2c/c(=N\Cc3cccc(OC)c3C)c(=O)n(C)[n-]2)nc1 (cis-trans isomerization)
COc1ccc([C@@H]2C[C@@H]2COc2c/c(=N\Cc3cccc(OC)c3C)c(=O)n(C)[n-]2)nc1 (3D coordinates assigned)
COc1ccc([C@@H]2C[C@@H]2COc2c/c(=N\Cc3cccc(OC)c3C)c(=O)n(C)[n-]2)nc1 (nonaromatic ring conformer: 337.4896314711988 kcal/mol)

>  <smiles>  (12) 
COc1ccc(C2CC2COc2cc(=NCc3cccc(OC)c3C)c(=O)n(C)[nH]2)nc1

>  <score_type>  (12) 
oracle

>  <origin>  (12) 
adgpu

>  <m_score__min__energy>  (12) 
-10.16

>  <m_primary>  (12) 
energy

$$$$
12:0
     RDKit          3D

 81 84  0  0  1  0  0  0  0  0999 V2000
   -2.7620   13.2700  -34.0280 C   0  0  0  0  0  0  0  0  0  0  0  0
   -2.2440   14.3510  -34.9450 C   0  0  0  0  0  0  0  0  0  0  0  0
   -2.6720   13.9800  -36.3490 C   0  0  0  0  0  0  0  0  0  0  0  0
   -2.7930   15.6730  -34.6090 N   0  0  0  0  0  0  0  0  0  0  0  0
   -4.0230   15.8960  -34.1160 C   0  0  0  0  0  0  0  0  0  0  0  0
   -4.2160   17.2620  -33.9110 C   0  0  0  0  0  0  0  0  0  0  0  0
   -5.3980   17.8650  -33.4040 N   0  0  0  0  0  0  0  0  0  0  0  0
   -5.5650   19.2530  -33.1990 C   0  0  0  0  0  0  0  0  0  0  0  0
   -4.5980   20.0270  -33.4810 O   0  0  0  0  0  0  0  0  0  0  0  0
   -6.7980   19.8490  -32.6770 C   0  0  0  0  0  0  0  0  0  0  0  0
   -7.9570   19.1300  -32.4900 C   0  0  0  0  0  0  0  0  0  0  0  0
   -9.1260   19.7050  -31.9950 C   0  0  0  0  0  0  0  0  0  0  0  0
   -9.1340   21.0450  -31.6760 C   0  0  0  0  0  0  0  0  0  0  0  0
   -7.9760   21.7870  -31.8570 C   0  0  0  0  0  0  0  0  0  0  0  0
   -8.0470   23.1630  -31.5130 N   0  0  0  0  0  0  0  0  0  0  0  0
   -7.1460   23.6980  -30.7670 C   0  0  0  0  0  0  0  0  0  0  0  0
   -6.0910   22.9740  -30.2770 C   0  0  0  0  0  0  0  0  0  0  0  0
   -5.1050   23.5260  -29.4640 C   0  0  0  0  0  0  0  0  0  0  0  0
   -4.0150   22.7690  -28.9610 N   0  0  0  0  0  0  0  0  0  0  0  0
   -3.4550   22.9880  -27.6450 C   0  0  0  0  0  0  0  0  0  0  0  0
   -3.4630   21.7340  -29.8370 C   0  0  0  0  0  0  0  0  0  0  0  0
   -5.2170   24.8440  -29.1590 N   0  0  0  0  0  0  0  0  0  0  0  0
   -6.2520   25.5720  -29.6350 C   0  0  0  0  0  0  0  0  0  0  0  0
   -7.1970   25.0060  -30.4240 N   0  0  0  0  0  0  0  0  0  0  0  0
   -6.8340   21.1870  -32.3500 C   0  0  0  0  0  0  0  0  0  0  0  0
   -3.0300   17.8390  -34.3100 C   0  0  0  0  0  0  0  0  0  0  0  0
   -2.1480   16.8440  -34.7420 C   0  0  0  0  0  0  0  0  0  0  0  0
   -0.7830   17.0220  -35.2510 C   0  0  0  0  0  0  0  0  0  0  0  0
    0.0200   17.6180  -34.5190 O   0  0  0  0  0  0  0  0  0  0  0  0
   -0.4520   16.5180  -36.5310 N   0  0  0  0  0  0  0  0  0  0  0  0
    0.8630   16.6520  -37.0980 C   0  0  0  0  0  0  0  0  0  0  0  0
    1.5820   17.8280  -37.1200 C   0  0  0  0  0  0  0  0  0  0  0  0
    2.8180   17.6080  -37.7470 C   0  0  0  0  0  0  0  0  0  0  0  0
    3.7800   18.6640  -37.9080 C   0  0  0  0  0  0  0  0  0  0  0  0
    4.8000   18.4160  -38.6380 O   0  0  0  0  0  0  0  0  0  0  0  0
    3.7360   19.9550  -37.3500 N   0  0  0  0  0  0  0  0  0  0  0  0
    4.7540   20.9660  -37.5690 C   0  0  0  0  0  0  0  0  0  0  0  0
    4.8380   21.8800  -36.3640 C   0  0  0  0  0  0  0  0  0  0  0  0
    3.4270   22.2820  -36.0520 C   0  0  0  0  0  0  0  0  0  0  0  0
    2.6880   21.6390  -35.2230 N   0  0  0  0  0  0  0  0  0  0  0  0
    2.9100   23.4360  -36.7210 N   0  0  0  0  0  0  0  0  0  0  0  0
    2.8140   16.3140  -38.0860 N   0  0  0  0  0  0  0  0  0  0  0  0
    3.8560   15.5980  -38.7500 C   0  0  0  0  0  0  0  0  0  0  0  0
    1.6460   15.7240  -37.7030 C   0  0  0  0  0  0  0  0  0  0  0  0
   -2.6155   13.5756  -32.9815 H   0  0  0  0  0  0  0  0  0  0  0  0
   -3.8340   13.1114  -34.2171 H   0  0  0  0  0  0  0  0  0  0  0  0
   -2.2140   12.3351  -34.2171 H   0  0  0  0  0  0  0  0  0  0  0  0
   -1.1507   14.4191  -34.8451 H   0  0  0  0  0  0  0  0  0  0  0  0
   -3.5024   13.2602  -36.3010 H   0  0  0  0  0  0  0  0  0  0  0  0
   -3.0006   14.8838  -36.8830 H   0  0  0  0  0  0  0  0  0  0  0  0
   -1.8240   13.5265  -36.8830 H   0  0  0  0  0  0  0  0  0  0  0  0
   -4.7687   15.1153  -33.9050 H   0  0  0  0  0  0  0  0  0  0  0  0
   -6.2040   17.2480  -33.1650 H   0  0  0  0  0  0  0  0  0  0  0  0
   -7.9605   18.0591  -32.7413 H   0  0  0  0  0  0  0  0  0  0  0  0
  -10.0319   19.0957  -31.8606 H   0  0  0  0  0  0  0  0  0  0  0  0
  -10.0453   21.5198  -31.2835 H   0  0  0  0  0  0  0  0  0  0  0  0
   -6.0199   21.9078  -30.5380 H   0  0  0  0  0  0  0  0  0  0  0  0
   -4.1916   22.6999  -26.8805 H   0  0  0  0  0  0  0  0  0  0  0  0
   -2.5467   22.3788  -27.5270 H   0  0  0  0  0  0  0  0  0  0  0  0
   -3.2009   24.0517  -27.5270 H   0  0  0  0  0  0  0  0  0  0  0  0
   -3.0327   20.9272  -29.2254 H   0  0  0  0  0  0  0  0  0  0  0  0
   -4.2632   21.3259  -30.4719 H   0  0  0  0  0  0  0  0  0  0  0  0
   -2.6783   22.1712  -30.4719 H   0  0  0  0  0  0  0  0  0  0  0  0
   -4.5250   25.3440  -28.5570 H   0  0  0  0  0  0  0  0  0  0  0  0
   -6.3280   26.6389  -29.3781 H   0  0  0  0  0  0  0  0  0  0  0  0
   -5.9272   21.7947  -32.4855 H   0  0  0  0  0  0  0  0  0  0  0  0
   -2.8109   18.9168  -34.2915 H   0  0  0  0  0  0  0  0  0  0  0  0
   -1.2110   16.0350  -37.0580 H   0  0  0  0  0  0  0  0  0  0  0  0
    1.2399   18.7896  -36.7097 H   0  0  0  0  0  0  0  0  0  0  0  0
    2.9430   20.2110  -36.7460 H   0  0  0  0  0  0  0  0  0  0  0  0
    5.7268   20.4768  -37.7246 H   0  0  0  0  0  0  0  0  0  0  0  0
    4.4909   21.5595  -38.4570 H   0  0  0  0  0  0  0  0  0  0  0  0
    5.2815   21.3470  -35.5100 H   0  0  0  0  0  0  0  0  0  0  0  0
    5.4717   22.7562  -36.5658 H   0  0  0  0  0  0  0  0  0  0  0  0
    3.0590   20.8010  -34.7350 H   0  0  0  0  0  0  0  0  0  0  0  0
    1.9760   23.4160  -37.2180 H   0  0  0  0  0  0  0  0  0  0  0  0
    3.4050   24.3490  -36.7610 H   0  0  0  0  0  0  0  0  0  0  0  0
    4.5210   15.1411  -38.0023 H   0  0  0  0  0  0  0  0  0  0  0  0
    3.4162   14.8105  -39.3796 H   0  0  0  0  0  0  0  0  0  0  0  0
    4.4335   16.2909  -39.3796 H   0  0  0  0  0  0  0  0  0  0  0  0
    1.3817   14.6677  -37.8591 H   0  0  0  0  0  0  0  0  0  0  0  0
  1  2  1  0
  2  3  1  0
  2  4  1  0
  4  5  1  0
  5  6  2  0
  6  7  1  0
  7  8  1  0
  8  9  2  0
  8 10  1  0
 10 11  2  0
 11 12  1  0
 12 13  2  0
 13 14  1  0
 14 15  1  0
 15 16  2  0
 16 17  1  0
 17 18  2  0
 18 19  1  0
 19 20  1  0
 19 21  1  0
 18 22  1  0
 22 23  1  0
 23 24  2  0
 14 25  2  0
  6 26  1  0
 26 27  2  0
 27 28  1  0
 28 29  2  0
 28 30  1  0
 30 31  1  0
 31 32  1  0
 32 33  2  0
 33 34  1  0
 34 35  2  0
 34 36  1  0
 36 37  1  0
 37 38  1  0
 38 39  1  0
 39 40  2  3
 39 41  1  0
 33 42  1  0
 42 43  1  0
 42 44  1  0
 27  4  1  0
 44 31  2  0
 25 10  1  0
 24 16  1  0
  1 45  1  0
  1 46  1  0
  1 47  1  0
  2 48  1  0
  3 49  1  0
  3 50  1  0
  3 51  1  0
  5 52  1  0
  7 53  1  0
 11 54  1  0
 12 55  1  0
 13 56  1  0
 17 57  1  0
 20 58  1  0
 20 59  1  0
 20 60  1  0
 21 61  1  0
 21 62  1  0
 21 63  1  0
 22 64  1  0
 23 65  1  0
 25 66  1  0
 26 67  1  0
 30 68  1  0
 32 69  1  0
 36 70  1  0
 37 71  1  0
 37 72  1  0
 38 73  1  0
 38 74  1  0
 40 75  1  0
 41 76  1  0
 41 77  1  0
 43 78  1  0
 43 79  1  0
 43 80  1  0
 44 81  1  0
M  END
>  <smiles>  (13) 
CC(C)n1cc(NC(=O)c2cccc(N=c3cc(N(C)C)[nH]cn3)c2)cc1C(=O)Nc1cc(C(=O)NCCC(=N)N)n(C)c1

>  <score_type>  (13) 
oracle

>  <origin>  (13) 
adgpu

>  <m_score__min__energy>  (13) 
-9.0999999999999996

>  <m_primary>  (13) 
energy

$$$$
13:0
     RDKit          3D

 58 61  0  0  0  0  0  0  0  0999 V2000
   -0.8480   18.2900  -27.4270 C   0  0  0  0  0  0  0  0  0  0  0  0
   -1.8720   19.3200  -27.2150 N   0  0  0  0  0  0  0  0  0  0  0  0
   -2.7430   18.9440  -26.0940 C   0  0  0  0  0  0  0  0  0  0  0  0
   -1.1070   20.8550  -26.8840 S   0  0  0  0  0  0  0  0  0  0  0  0
    0.3630   20.7580  -27.1820 O   0  0  0  0  0  0  0  0  0  0  0  0
   -1.2630   21.1830  -25.4250 O   0  0  0  0  0  0  0  0  0  0  0  0
   -1.8110   22.1530  -27.8500 C   0  0  0  0  0  0  0  0  0  0  0  0
   -1.0760   22.7360  -28.8910 C   0  0  0  0  0  0  0  0  0  0  0  0
   -1.6210   23.7840  -29.6390 C   0  0  0  0  0  0  0  0  0  0  0  0
   -2.9190   24.2480  -29.3610 C   0  0  0  0  0  0  0  0  0  0  0  0
   -3.5300   25.2810  -30.1430 N   0  0  0  0  0  0  0  0  0  0  0  0
   -4.8970   25.3120  -30.5680 C   0  0  0  0  0  0  0  0  0  0  0  0
   -5.5290   26.3990  -30.4700 O   0  0  0  0  0  0  0  0  0  0  0  0
   -5.5550   24.1370  -31.1970 C   0  0  0  0  0  0  0  0  0  0  0  0
   -4.7740   23.1220  -31.7760 C   0  0  0  0  0  0  0  0  0  0  0  0
   -5.3690   21.9570  -32.2640 C   0  0  0  0  0  0  0  0  0  0  0  0
   -6.7580   21.7880  -32.1970 C   0  0  0  0  0  0  0  0  0  0  0  0
   -7.4850   20.2590  -32.7110 S   0  0  0  0  0  0  0  0  0  0  0  0
   -8.9700   20.3590  -32.5060 O   0  0  0  0  0  0  0  0  0  0  0  0
   -7.2410   20.0720  -34.1840 O   0  0  0  0  0  0  0  0  0  0  0  0
   -6.9030   18.8640  -31.8180 N   0  0  0  0  0  0  0  0  0  0  0  0
   -7.4000   17.5790  -32.3400 C   0  0  0  0  0  0  0  0  0  0  0  0
   -6.8100   17.2340  -33.7120 C   0  0  0  0  0  0  0  0  0  0  0  0
   -5.3320   17.5070  -33.7840 C   0  0  0  0  0  0  0  0  0  0  0  0
   -4.5890   16.9700  -34.8450 C   0  0  0  0  0  0  0  0  0  0  0  0
   -3.2270   17.2490  -34.9650 C   0  0  0  0  0  0  0  0  0  0  0  0
   -2.6010   18.0920  -34.0460 C   0  0  0  0  0  0  0  0  0  0  0  0
   -3.3320   18.6400  -32.9890 C   0  0  0  0  0  0  0  0  0  0  0  0
   -4.7000   18.3550  -32.8500 C   0  0  0  0  0  0  0  0  0  0  0  0
   -5.4420   18.8630  -31.6380 C   0  0  0  0  0  0  0  0  0  0  0  0
   -7.5460   22.8040  -31.6420 C   0  0  0  0  0  0  0  0  0  0  0  0
   -6.9520   23.9680  -31.1430 C   0  0  0  0  0  0  0  0  0  0  0  0
   -3.6600   23.6450  -28.3390 C   0  0  0  0  0  0  0  0  0  0  0  0
   -3.1060   22.6110  -27.5790 C   0  0  0  0  0  0  0  0  0  0  0  0
   -0.4866   17.9265  -26.4537 H   0  0  0  0  0  0  0  0  0  0  0  0
   -1.2819   17.4526  -27.9931 H   0  0  0  0  0  0  0  0  0  0  0  0
   -0.0081   18.7190  -27.9931 H   0  0  0  0  0  0  0  0  0  0  0  0
   -2.2337   19.1639  -25.1441 H   0  0  0  0  0  0  0  0  0  0  0  0
   -3.6798   19.5178  -26.1491 H   0  0  0  0  0  0  0  0  0  0  0  0
   -2.9679   17.8686  -26.1491 H   0  0  0  0  0  0  0  0  0  0  0  0
   -0.0654   22.3673  -29.1208 H   0  0  0  0  0  0  0  0  0  0  0  0
   -1.0336   24.2462  -30.4461 H   0  0  0  0  0  0  0  0  0  0  0  0
   -3.6833   23.2467  -31.8454 H   0  0  0  0  0  0  0  0  0  0  0  0
   -4.7430   21.1667  -32.7040 H   0  0  0  0  0  0  0  0  0  0  0  0
   -7.1314   16.7826  -31.6303 H   0  0  0  0  0  0  0  0  0  0  0  0
   -8.4902   17.6658  -32.4577 H   0  0  0  0  0  0  0  0  0  0  0  0
   -6.9825   16.1663  -33.9127 H   0  0  0  0  0  0  0  0  0  0  0  0
   -7.3060   17.8693  -34.4606 H   0  0  0  0  0  0  0  0  0  0  0  0
   -5.0826   16.3251  -35.5870 H   0  0  0  0  0  0  0  0  0  0  0  0
   -2.6457   16.8035  -35.7857 H   0  0  0  0  0  0  0  0  0  0  0  0
   -1.5314   18.3252  -34.1538 H   0  0  0  0  0  0  0  0  0  0  0  0
   -2.8335   19.2980  -32.2620 H   0  0  0  0  0  0  0  0  0  0  0  0
   -5.1947   18.2201  -30.7804 H   0  0  0  0  0  0  0  0  0  0  0  0
   -5.1296   19.9047  -31.4731 H   0  0  0  0  0  0  0  0  0  0  0  0
   -8.6388   22.6860  -31.5982 H   0  0  0  0  0  0  0  0  0  0  0  0
   -7.5808   24.7572  -30.7051 H   0  0  0  0  0  0  0  0  0  0  0  0
   -4.6849   23.9867  -28.1323 H   0  0  0  0  0  0  0  0  0  0  0  0
   -3.6894   22.1556  -26.7652 H   0  0  0  0  0  0  0  0  0  0  0  0
  1  2  1  0
  2  3  1  0
  2  4  1  0
  4  5  2  0
  4  6  2  0
  4  7  1  0
  7  8  2  0
  8  9  1  0
  9 10  2  0
 10 11  1  0
 11 12  1  0
 12 13  2  0
 12 14  1  0
 14 15  2  0
 15 16  1  0
 16 17  2  0
 17 18  1  0
 18 19  2  0
 18 20  2  0
 18 21  1  0
 21 22  1  0
 22 23  1  0
 23 24  1  0
 24 25  2  0
 25 26  1  0
 26 27  2  0
 27 28  1  0
 28 29  2  0
 29 30  1  0
 17 31  1  0
 31 32  2  0
 10 33  1  0
 33 34  2  0
 34  7  1  0
 32 14  1  0
 30 21  1  0
 29 24  1  0
  1 35  1  0
  1 36  1  0
  1 37  1  0
  3 38  1  0
  3 39  1  0
  3 40  1  0
  8 41  1  0
  9 42  1  0
 15 43  1  0
 16 44  1  0
 22 45  1  0
 22 46  1  0
 23 47  1  0
 23 48  1  0
 25 49  1  0
 26 50  1  0
 27 51  1  0
 28 52  1  0
 30 53  1  0
 30 54  1  0
 31 55  1  0
 32 56  1  0
 33 57  1  0
 34 58  1  0
M  CHG  1  11  -1
M  END
>  <UniqueID>  (14) 
13

>  <SMILES>  (14) 
CN(C)S(=O)(=O)c1ccc([N-]C(=O)c2ccc(S(=O)(=O)N3CCc4ccccc4C3)cc2)cc1

>  <Energy>  (14) 
67.74468042649572

>  <Genealogy>  (14) 
CN(C)S(=O)(=O)c1ccc([N-]C(=O)c2ccc(S(=O)(=O)N3CCc4ccccc4C3)cc2)cc1 (protonated)
CN(C)S(=O)(=O)c1ccc([N-]C(=O)c2ccc(S(=O)(=O)N3CCc4ccccc4C3)cc2)cc1 (3D coordinates assigned)
CN(C)S(=O)(=O)c1ccc([N-]C(=O)c2ccc(S(=O)(=O)N3CCc4ccccc4C3)cc2)cc1 (nonaromatic ring conformer: 67.74468042649572 kcal/mol)

>  <smiles>  (14) 
CN(C)S(=O)(=O)c1ccc(NC(=O)c2ccc(S(=O)(=O)N3CCc4ccccc4C3)cc2)cc1

>  <score_type>  (14) 
oracle

>  <origin>  (14) 
adgpu

>  <m_score__min__energy>  (14) 
-13.01

>  <m_primary>  (14) 
energy

$$$$
14:0
     RDKit          3D

 41 43  0  0  0  0  0  0  0  0999 V2000
   -9.4390   17.1720  -31.8780 H   0  0  0  0  0  0  0  0  0  0  0  0
   -9.3690   18.1730  -31.5890 N   0  0  0  0  0  0  0  0  0  0  0  0
   -8.4600   18.9560  -32.0740 C   0  0  0  0  0  0  0  0  0  0  0  0
   -7.5640   18.4820  -32.9820 N   0  0  0  0  0  0  0  0  0  0  0  0
   -6.5900   19.2730  -33.5060 C   0  0  0  0  0  0  0  0  0  0  0  0
   -5.8779   18.8582  -34.2346 H   0  0  0  0  0  0  0  0  0  0  0  0
   -6.4930   20.6110  -33.1200 C   0  0  0  0  0  0  0  0  0  0  0  0
   -5.7003   21.2501  -33.5362 H   0  0  0  0  0  0  0  0  0  0  0  0
   -7.4080   21.1350  -32.2020 C   0  0  0  0  0  0  0  0  0  0  0  0
   -7.2840   22.4780  -31.8160 O   0  0  0  0  0  0  0  0  0  0  0  0
   -6.1420   23.0490  -31.2350 C   0  0  0  0  0  0  0  0  0  0  0  0
   -6.1030   24.4360  -31.0550 C   0  0  0  0  0  0  0  0  0  0  0  0
   -6.9582   25.0520  -31.3698 H   0  0  0  0  0  0  0  0  0  0  0  0
   -4.9850   25.0440  -30.4780 C   0  0  0  0  0  0  0  0  0  0  0  0
   -4.9667   26.1353  -30.3412 H   0  0  0  0  0  0  0  0  0  0  0  0
   -3.8860   24.2730  -30.0720 C   0  0  0  0  0  0  0  0  0  0  0  0
   -2.7580   24.9210  -29.4610 N   0  0  0  0  0  0  0  0  0  0  0  0
   -2.8650   25.9130  -29.1500 H   0  0  0  0  0  0  0  0  0  0  0  0
   -1.4560   24.3320  -29.3430 C   0  0  0  0  0  0  0  0  0  0  0  0
   -1.1640   23.2930  -29.9960 O   0  0  0  0  0  0  0  0  0  0  0  0
   -0.4620   24.9900  -28.5470 N   0  0  0  0  0  0  0  0  0  0  0  0
   -0.6810   25.6700  -27.3020 C   0  0  0  0  0  0  0  0  0  0  0  0
   -1.0340   24.9130  -26.1790 C   0  0  0  0  0  0  0  0  0  0  0  0
   -1.1603   23.8242  -26.2714 H   0  0  0  0  0  0  0  0  0  0  0  0
   -1.2270   25.5320  -24.9410 C   0  0  0  0  0  0  0  0  0  0  0  0
   -1.5110   24.9305  -24.0649 H   0  0  0  0  0  0  0  0  0  0  0  0
   -1.0600   26.9130  -24.8140 C   0  0  0  0  0  0  0  0  0  0  0  0
   -1.2120   27.3961  -23.8375 H   0  0  0  0  0  0  0  0  0  0  0  0
   -0.6990   27.6860  -25.9280 C   0  0  0  0  0  0  0  0  0  0  0  0
   -0.4590   29.1580  -25.7770 C   0  0  0  0  0  0  0  0  0  0  0  0
   -0.4171   29.4149  -24.7083 H   0  0  0  0  0  0  0  0  0  0  0  0
    0.4945   29.4251  -26.2560 H   0  0  0  0  0  0  0  0  0  0  0  0
   -1.2783   29.7141  -26.2560 H   0  0  0  0  0  0  0  0  0  0  0  0
   -0.4880   27.0570  -27.1650 C   0  0  0  0  0  0  0  0  0  0  0  0
   -0.1696   27.6525  -28.0333 H   0  0  0  0  0  0  0  0  0  0  0  0
   -3.9450   22.8750  -30.2080 C   0  0  0  0  0  0  0  0  0  0  0  0
   -3.1057   22.2563  -29.8576 H   0  0  0  0  0  0  0  0  0  0  0  0
   -5.0640   22.2650  -30.7860 C   0  0  0  0  0  0  0  0  0  0  0  0
   -5.1160   20.9110  -30.8550 F   0  0  0  0  0  0  0  0  0  0  0  0
   -8.3950   20.2920  -31.6610 C   0  0  0  0  0  0  0  0  0  0  0  0
   -9.1097   20.6790  -30.9198 H   0  0  0  0  0  0  0  0  0  0  0  0
  1  2  1  0
  2  3  2  0
  3  4  1  0
  4  5  1  0
  5  6  1  0
  5  7  2  0
  7  8  1  0
  7  9  1  0
  9 10  1  0
 10 11  1  0
 11 12  2  0
 12 13  1  0
 12 14  1  0
 14 15  1  0
 14 16  2  0
 16 17  1  0
 17 18  1  0
 17 19  1  0
 19 20  2  0
 19 21  1  0
 21 22  1  0
 22 23  2  0
 23 24  1  0
 23 25  1  0
 25 26  1  0
 25 27  2  0
 27 28  1  0
 27 29  1  0
 29 30  1  0
 30 31  1  0
 30 32  1  0
 30 33  1  0
 29 34  2  0
 34 35  1  0
 16 36  1  0
 36 37  1  0
 36 38  2  0
 38 39  1  0
  9 40  2  0
 40 41  1  0
 40  3  1  0
 38 11  1  0
 34 22  1  0
M  CHG  2   4  -1  21  -1
M  END
>  <UniqueID>  (15) 
14

>  <SMILES>  (15) 
[H]/N=c1/cc(Oc2ccc(NC(=O)[N-]c3cccc(C)c3)cc2F)cc[n-]1

>  <Energy>  (15) 
57.475732001685955

>  <Genealogy>  (15) 
Cc1cccc([N-]C(=O)Nc2ccc(Oc3cc[n-]c(=N)c3)c(F)c2)c1 (protonated)
[H]/N=c1/cc(Oc2ccc(NC(=O)[N-]c3cccc(C)c3)cc2F)cc[n-]1 (cis-trans isomerization)
[H]/N=c1/cc(Oc2ccc(NC(=O)[N-]c3cccc(C)c3)cc2F)cc[n-]1 (3D coordinates assigned)
[H]/N=c1/cc(Oc2ccc(NC(=O)[N-]c3cccc(C)c3)cc2F)cc[n-]1 (optimized conformer: 57.475732001685955 kcal/mol)

>  <smiles>  (15) 
Cc1cccc(NC(=O)Nc2ccc(Oc3cc[nH]c(=N)c3)c(F)c2)c1

>  <score_type>  (15) 
oracle

>  <origin>  (15) 
adgpu

>  <m_score__min__energy>  (15) 
-9.5899999999999999

>  <m_primary>  (15) 
energy

$$$$
15:0
     RDKit          3D

 34 36  0  0  0  0  0  0  0  0999 V2000
   -2.4980   25.5950  -29.7120 H   0  0  0  0  0  0  0  0  0  0  0  0
   -3.4910   25.2910  -29.8320 N   0  0  0  0  0  0  0  0  0  0  0  0
   -3.7970   24.2010  -30.4610 C   0  0  0  0  0  0  0  0  0  0  0  0
   -2.8060   23.4280  -30.9810 N   0  0  0  0  0  0  0  0  0  0  0  0
   -3.0520   22.2730  -31.6580 C   0  0  0  0  0  0  0  0  0  0  0  0
   -1.9090   21.4930  -32.1990 C   0  0  0  0  0  0  0  0  0  0  0  0
   -1.1190   20.7170  -31.3300 C   0  0  0  0  0  0  0  0  0  0  0  0
   -1.3494   20.6960  -30.2546 H   0  0  0  0  0  0  0  0  0  0  0  0
   -0.0440   19.9730  -31.8240 C   0  0  0  0  0  0  0  0  0  0  0  0
    0.5711   19.3751  -31.1355 H   0  0  0  0  0  0  0  0  0  0  0  0
    0.2520   19.9860  -33.1890 C   0  0  0  0  0  0  0  0  0  0  0  0
    1.1016   19.4025  -33.5733 H   0  0  0  0  0  0  0  0  0  0  0  0
   -0.5330   20.7420  -34.0680 C   0  0  0  0  0  0  0  0  0  0  0  0
   -0.2560   20.7530  -35.4340 O   0  0  0  0  0  0  0  0  0  0  0  0
   -0.8610   21.2280  -36.0930 H   0  0  0  0  0  0  0  0  0  0  0  0
   -1.6100   21.4890  -33.5760 C   0  0  0  0  0  0  0  0  0  0  0  0
   -2.2279   22.0776  -34.2701 H   0  0  0  0  0  0  0  0  0  0  0  0
   -4.3800   21.8600  -31.8400 C   0  0  0  0  0  0  0  0  0  0  0  0
   -4.5955   20.9378  -32.3995 H   0  0  0  0  0  0  0  0  0  0  0  0
   -5.4340   22.6190  -31.3110 C   0  0  0  0  0  0  0  0  0  0  0  0
   -6.8270   22.1470  -31.5100 C   0  0  0  0  0  0  0  0  0  0  0  0
   -7.8520   23.0690  -31.7810 C   0  0  0  0  0  0  0  0  0  0  0  0
   -7.6214   24.1432  -31.8354 H   0  0  0  0  0  0  0  0  0  0  0  0
   -9.1640   22.6280  -31.9820 C   0  0  0  0  0  0  0  0  0  0  0  0
   -9.9630   23.3553  -32.1882 H   0  0  0  0  0  0  0  0  0  0  0  0
   -9.4600   21.2640  -31.9210 C   0  0  0  0  0  0  0  0  0  0  0  0
  -10.4927   20.9188  -32.0770 H   0  0  0  0  0  0  0  0  0  0  0  0
   -8.4460   20.3370  -31.6620 C   0  0  0  0  0  0  0  0  0  0  0  0
   -8.8170   18.6240  -31.5950 Cl  0  0  0  0  0  0  0  0  0  0  0  0
   -7.1320   20.7760  -31.4610 C   0  0  0  0  0  0  0  0  0  0  0  0
   -6.3345   20.0445  -31.2638 H   0  0  0  0  0  0  0  0  0  0  0  0
   -5.1410   23.8130  -30.6130 C   0  0  0  0  0  0  0  0  0  0  0  0
   -6.2010   24.6590  -30.1040 C   0  0  0  0  0  0  0  0  0  0  0  0
   -7.0480   25.3340  -29.6970 N   0  0  0  0  0  0  0  0  0  0  0  0
  1  2  1  0
  2  3  2  0
  3  4  1  0
  4  5  1  0
  5  6  1  0
  6  7  2  0
  7  8  1  0
  7  9  1  0
  9 10  1  0
  9 11  2  0
 11 12  1  0
 11 13  1  0
 13 14  1  0
 14 15  1  0
 13 16  2  0
 16 17  1  0
  5 18  2  0
 18 19  1  0
 18 20  1  0
 20 21  1  0
 21 22  2  0
 22 23  1  0
 22 24  1  0
 24 25  1  0
 24 26  2  0
 26 27  1  0
 26 28  1  0
 28 29  1  0
 28 30  2  0
 30 31  1  0
 20 32  2  0
 32 33  1  0
 33 34  3  0
 32  3  1  0
 16  6  1  0
 30 21  1  0
M  CHG  1   4  -1
M  END
>  <UniqueID>  (16) 
15

>  <SMILES>  (16) 
[H]/N=c1\[n-]c(-c2cccc(O)c2)cc(-c2cccc(Cl)c2)c1C#N

>  <Energy>  (16) 
49.090095501619416

>  <Genealogy>  (16) 
N#Cc1c(-c2cccc(Cl)c2)cc(-c2cccc(O)c2)[n-]c1=N (protonated)
[H]/N=c1\[n-]c(-c2cccc(O)c2)cc(-c2cccc(Cl)c2)c1C#N (cis-trans isomerization)
[H]/N=c1\[n-]c(-c2cccc(O)c2)cc(-c2cccc(Cl)c2)c1C#N (3D coordinates assigned)
[H]/N=c1\[n-]c(-c2cccc(O)c2)cc(-c2cccc(Cl)c2)c1C#N (optimized conformer: 49.090095501619416 kcal/mol)

>  <smiles>  (16) 
N#Cc1c(-c2cccc(Cl)c2)cc(-c2cccc(O)c2)[nH]c1=N

>  <score_type>  (16) 
oracle

>  <origin>  (16) 
adgpu

>  <m_score__min__energy>  (16) 
-10.119999999999999

>  <m_primary>  (16) 
energy

$$$$
16:0
     RDKit          3D

 41 43  0  0  0  0  0  0  0  0999 V2000
   -1.6450   20.4290  -28.8870 C   0  0  0  0  0  0  0  0  0  0  0  0
   -1.4440   21.3540  -30.0490 C   0  0  0  0  0  0  0  0  0  0  0  0
   -1.7780   22.7620  -29.7550 C   0  0  0  0  0  0  0  0  0  0  0  0
   -0.9090   23.5020  -29.0140 N   0  0  0  0  0  0  0  0  0  0  0  0
   -1.2120   24.7730  -28.7530 C   0  0  0  0  0  0  0  0  0  0  0  0
   -0.3960   25.4860  -28.0500 N   0  0  0  0  0  0  0  0  0  0  0  0
   -2.3520   25.3010  -29.2170 N   0  0  0  0  0  0  0  0  0  0  0  0
   -3.2500   24.6300  -29.9520 C   0  0  0  0  0  0  0  0  0  0  0  0
   -4.3420   25.1650  -30.3880 N   0  0  0  0  0  0  0  0  0  0  0  0
   -2.9540   23.2940  -30.2400 C   0  0  0  0  0  0  0  0  0  0  0  0
   -3.9060   22.5220  -31.0400 C   0  0  0  0  0  0  0  0  0  0  0  0
   -5.0910   22.0620  -30.4770 C   0  0  0  0  0  0  0  0  0  0  0  0
   -5.9390   21.3430  -31.2940 C   0  0  0  0  0  0  0  0  0  0  0  0
   -5.6510   21.0720  -32.6220 C   0  0  0  0  0  0  0  0  0  0  0  0
   -6.5410   20.3390  -33.4060 O   0  0  0  0  0  0  0  0  0  0  0  0
   -6.4620   18.9700  -33.5950 C   0  0  0  0  0  0  0  0  0  0  0  0
   -5.6030   18.5380  -34.6000 C   0  0  0  0  0  0  0  0  0  0  0  0
   -5.4400   17.1790  -34.8810 C   0  0  0  0  0  0  0  0  0  0  0  0
   -6.1820   16.2810  -34.1060 C   0  0  0  0  0  0  0  0  0  0  0  0
   -6.0050   14.9590  -34.4020 F   0  0  0  0  0  0  0  0  0  0  0  0
   -7.0280   16.7190  -33.1160 C   0  0  0  0  0  0  0  0  0  0  0  0
   -7.1880   18.0610  -32.8370 C   0  0  0  0  0  0  0  0  0  0  0  0
   -4.4580   21.5560  -33.1220 C   0  0  0  0  0  0  0  0  0  0  0  0
   -3.5680   22.2830  -32.3560 C   0  0  0  0  0  0  0  0  0  0  0  0
   -1.5234   20.9884  -27.9477 H   0  0  0  0  0  0  0  0  0  0  0  0
   -2.6572   20.0005  -28.9302 H   0  0  0  0  0  0  0  0  0  0  0  0
   -0.9019   19.6191  -28.9302 H   0  0  0  0  0  0  0  0  0  0  0  0
   -0.3880   21.3043  -30.3531 H   0  0  0  0  0  0  0  0  0  0  0  0
   -2.1274   21.0221  -30.8445 H   0  0  0  0  0  0  0  0  0  0  0  0
   -0.0100   23.0730  -28.6530 H   0  0  0  0  0  0  0  0  0  0  0  0
    0.4890   25.0170  -27.7110 H   0  0  0  0  0  0  0  0  0  0  0  0
   -2.5230   26.3160  -28.9700 H   0  0  0  0  0  0  0  0  0  0  0  0
   -4.4720   26.1800  -30.1170 H   0  0  0  0  0  0  0  0  0  0  0  0
   -5.3418   22.2627  -29.4250 H   0  0  0  0  0  0  0  0  0  0  0  0
   -6.8840   20.9690  -30.8732 H   0  0  0  0  0  0  0  0  0  0  0  0
   -5.0409   19.2808  -35.1851 H   0  0  0  0  0  0  0  0  0  0  0  0
   -4.7608   16.8318  -35.6736 H   0  0  0  0  0  0  0  0  0  0  0  0
   -7.5933   15.9797  -32.5297 H   0  0  0  0  0  0  0  0  0  0  0  0
   -7.8677   18.3992  -32.0410 H   0  0  0  0  0  0  0  0  0  0  0  0
   -4.2063   21.3541  -34.1736 H   0  0  0  0  0  0  0  0  0  0  0  0
   -2.6245   22.6576  -32.7796 H   0  0  0  0  0  0  0  0  0  0  0  0
  1  2  1  0
  2  3  1  0
  3  4  1  0
  4  5  1  0
  5  6  2  3
  5  7  1  0
  7  8  1  0
  8  9  2  3
  8 10  1  0
 10 11  1  0
 11 12  2  0
 12 13  1  0
 13 14  2  0
 14 15  1  0
 15 16  1  0
 16 17  2  0
 17 18  1  0
 18 19  2  0
 19 20  1  0
 19 21  1  0
 21 22  2  0
 14 23  1  0
 23 24  2  0
 10  3  2  0
 24 11  1  0
 22 16  1  0
  1 25  1  0
  1 26  1  0
  1 27  1  0
  2 28  1  0
  2 29  1  0
  4 30  1  0
  6 31  1  0
  7 32  1  0
  9 33  1  0
 12 34  1  0
 13 35  1  0
 17 36  1  0
 18 37  1  0
 21 38  1  0
 22 39  1  0
 23 40  1  0
 24 41  1  0
M  END
>  <smiles>  (17) 
CCc1[nH]c(=N)[nH]c(=N)c1-c1ccc(Oc2ccc(F)cc2)cc1

>  <score_type>  (17) 
oracle

>  <origin>  (17) 
adgpu

>  <m_score__min__energy>  (17) 
-7.79

>  <m_primary>  (17) 
energy

$$$$
17:0
     RDKit          3D

 43 45  0  0  0  0  0  0  0  0999 V2000
   -0.5140   25.5650  -23.7560 C   0  0  0  0  0  0  0  0  0  0  0  0
   -0.8180   25.5810  -25.2260 C   0  0  0  0  0  0  0  0  0  0  0  0
    0.0920   26.1560  -26.1220 C   0  0  0  0  0  0  0  0  0  0  0  0
   -0.1930   26.1920  -27.4870 C   0  0  0  0  0  0  0  0  0  0  0  0
   -1.3950   25.6670  -27.9730 C   0  0  0  0  0  0  0  0  0  0  0  0
   -1.6240   25.6760  -29.3450 O   0  0  0  0  0  0  0  0  0  0  0  0
   -2.3380   25.1160  -27.0810 C   0  0  0  0  0  0  0  0  0  0  0  0
   -3.6270   24.5590  -27.5590 C   0  0  0  0  0  0  0  0  0  0  0  0
   -4.3490   23.9010  -26.7630 O   0  0  0  0  0  0  0  0  0  0  0  0
   -4.0850   24.8130  -28.8970 N   0  0  0  0  0  0  0  0  0  0  0  0
   -5.0680   24.0100  -29.5720 C   0  0  0  0  0  0  0  0  0  0  0  0
   -6.3020   24.5800  -29.9210 C   0  0  0  0  0  0  0  0  0  0  0  0
   -7.2660   23.8260  -30.5970 C   0  0  0  0  0  0  0  0  0  0  0  0
   -7.0030   22.4950  -30.9440 C   0  0  0  0  0  0  0  0  0  0  0  0
   -8.2320   21.5520  -31.7800 S   0  0  0  0  0  0  0  0  0  0  0  0
   -9.3450   22.4350  -32.2740 O   0  0  0  0  0  0  0  0  0  0  0  0
   -8.8010   20.5410  -30.8260 O   0  0  0  0  0  0  0  0  0  0  0  0
   -7.5210   20.7240  -33.1290 N   0  0  0  0  0  0  0  0  0  0  0  0
   -6.9120   19.4250  -33.0730 C   0  0  0  0  0  0  0  0  0  0  0  0
   -7.0820   18.5640  -31.9740 C   0  0  0  0  0  0  0  0  0  0  0  0
   -6.4750   17.3040  -31.9660 C   0  0  0  0  0  0  0  0  0  0  0  0
   -5.6920   16.8970  -33.0490 C   0  0  0  0  0  0  0  0  0  0  0  0
   -5.5200   17.7470  -34.1450 C   0  0  0  0  0  0  0  0  0  0  0  0
   -6.1240   19.0090  -34.1550 C   0  0  0  0  0  0  0  0  0  0  0  0
   -5.7630   21.9270  -30.6210 C   0  0  0  0  0  0  0  0  0  0  0  0
   -4.8000   22.6790  -29.9420 C   0  0  0  0  0  0  0  0  0  0  0  0
   -2.0360   25.0760  -25.7070 C   0  0  0  0  0  0  0  0  0  0  0  0
   -1.4539   25.6145  -23.1866 H   0  0  0  0  0  0  0  0  0  0  0  0
    0.0201   24.6375  -23.5021 H   0  0  0  0  0  0  0  0  0  0  0  0
    0.1145   26.4313  -23.5021 H   0  0  0  0  0  0  0  0  0  0  0  0
    1.0351   26.5809  -25.7478 H   0  0  0  0  0  0  0  0  0  0  0  0
    0.5318   26.6359  -28.1854 H   0  0  0  0  0  0  0  0  0  0  0  0
   -3.7590   25.6880  -29.3660 H   0  0  0  0  0  0  0  0  0  0  0  0
   -6.5124   25.6279  -29.6608 H   0  0  0  0  0  0  0  0  0  0  0  0
   -8.2338   24.2796  -30.8570 H   0  0  0  0  0  0  0  0  0  0  0  0
   -7.6945   18.8827  -31.1177 H   0  0  0  0  0  0  0  0  0  0  0  0
   -6.6143   16.6326  -31.1059 H   0  0  0  0  0  0  0  0  0  0  0  0
   -5.2110   15.9078  -33.0391 H   0  0  0  0  0  0  0  0  0  0  0  0
   -4.9091   17.4235  -35.0007 H   0  0  0  0  0  0  0  0  0  0  0  0
   -5.9798   19.6780  -35.0162 H   0  0  0  0  0  0  0  0  0  0  0  0
   -5.5469   20.8859  -30.9028 H   0  0  0  0  0  0  0  0  0  0  0  0
   -3.8275   22.2279  -29.6956 H   0  0  0  0  0  0  0  0  0  0  0  0
   -2.7623   24.6444  -25.0026 H   0  0  0  0  0  0  0  0  0  0  0  0
  1  2  1  0
  2  3  2  0
  3  4  1  0
  4  5  2  0
  5  6  1  0
  5  7  1  0
  7  8  1  0
  8  9  2  0
  8 10  1  0
 10 11  1  0
 11 12  2  0
 12 13  1  0
 13 14  2  0
 14 15  1  0
 15 16  2  0
 15 17  2  0
 15 18  1  0
 18 19  1  0
 19 20  2  0
 20 21  1  0
 21 22  2  0
 22 23  1  0
 23 24  2  0
 14 25  1  0
 25 26  2  0
  7 27  2  0
 27  2  1  0
 26 11  1  0
 24 19  1  0
  1 28  1  0
  1 29  1  0
  1 30  1  0
  3 31  1  0
  4 32  1  0
 10 33  1  0
 12 34  1  0
 13 35  1  0
 20 36  1  0
 21 37  1  0
 22 38  1  0
 23 39  1  0
 24 40  1  0
 25 41  1  0
 26 42  1  0
 27 43  1  0
M  CHG  2   6  -1  18  -1
M  END
>  <UniqueID>  (18) 
16

>  <SMILES>  (18) 
Cc1ccc([O-])c(C(=O)Nc2ccc(S(=O)(=O)[N-]c3ccccc3)cc2)c1

>  <Energy>  (18) 
55.555977080128876

>  <Genealogy>  (18) 
Cc1ccc([O-])c(C(=O)Nc2ccc(S(=O)(=O)[N-]c3ccccc3)cc2)c1 (protonated)
Cc1ccc([O-])c(C(=O)Nc2ccc(S(=O)(=O)[N-]c3ccccc3)cc2)c1 (3D coordinates assigned)
Cc1ccc([O-])c(C(=O)Nc2ccc(S(=O)(=O)[N-]c3ccccc3)cc2)c1 (optimized conformer: 55.555977080128876 kcal/mol)

>  <smiles>  (18) 
Cc1ccc(O)c(C(=O)Nc2ccc(S(=O)(=O)Nc3ccccc3)cc2)c1

>  <score_type>  (18) 
oracle

>  <origin>  (18) 
adgpu

>  <m_score__min__energy>  (18) 
-11.77

>  <m_primary>  (18) 
energy

$$$$
18:0
     RDKit          3D

 50 52  0  0  0  0  0  0  0  0999 V2000
   -3.9340   14.6280  -35.0430 C   0  0  0  0  0  0  0  0  0  0  0  0
   -4.4960   15.7910  -34.2690 C   0  0  0  0  0  0  0  0  0  0  0  0
   -3.6570   16.8650  -33.9340 C   0  0  0  0  0  0  0  0  0  0  0  0
   -4.1520   17.9580  -33.2210 C   0  0  0  0  0  0  0  0  0  0  0  0
   -5.4910   17.9960  -32.8170 C   0  0  0  0  0  0  0  0  0  0  0  0
   -5.9790   19.1440  -32.1000 N   0  0  0  0  0  0  0  0  0  0  0  0
   -6.4880   20.3290  -32.7350 C   0  0  0  0  0  0  0  0  0  0  0  0
   -6.8220   20.2970  -33.9500 O   0  0  0  0  0  0  0  0  0  0  0  0
   -6.6390   21.5850  -31.9560 C   0  0  0  0  0  0  0  0  0  0  0  0
   -5.5080   22.3830  -31.7290 C   0  0  0  0  0  0  0  0  0  0  0  0
   -5.5930   23.5920  -31.0180 C   0  0  0  0  0  0  0  0  0  0  0  0
   -4.3500   24.3900  -30.8290 C   0  0  0  0  0  0  0  0  0  0  0  0
   -4.3850   25.6490  -30.8200 O   0  0  0  0  0  0  0  0  0  0  0  0
   -3.1340   23.7220  -30.6210 O   0  0  0  0  0  0  0  0  0  0  0  0
   -2.5630   23.4360  -29.3720 C   0  0  0  0  0  0  0  0  0  0  0  0
   -2.7510   22.1970  -28.7280 C   0  0  0  0  0  0  0  0  0  0  0  0
   -2.1740   21.9590  -27.4760 C   0  0  0  0  0  0  0  0  0  0  0  0
   -1.4160   22.9540  -26.8540 C   0  0  0  0  0  0  0  0  0  0  0  0
   -1.2420   24.1920  -27.4770 C   0  0  0  0  0  0  0  0  0  0  0  0
   -1.8170   24.4360  -28.7290 C   0  0  0  0  0  0  0  0  0  0  0  0
   -1.6420   25.6720  -29.3370 O   0  0  0  0  0  0  0  0  0  0  0  0
   -6.8630   23.9840  -30.5240 C   0  0  0  0  0  0  0  0  0  0  0  0
   -7.0800   25.2400  -29.7310 C   0  0  0  0  0  0  0  0  0  0  0  0
   -7.9440   23.1920  -30.7560 N   0  0  0  0  0  0  0  0  0  0  0  0
   -7.8800   22.0210  -31.4410 C   0  0  0  0  0  0  0  0  0  0  0  0
   -9.1450   21.2320  -31.6050 C   0  0  0  0  0  0  0  0  0  0  0  0
   -6.3460   16.9400  -33.1750 C   0  0  0  0  0  0  0  0  0  0  0  0
   -5.8610   15.8340  -33.8960 C   0  0  0  0  0  0  0  0  0  0  0  0
   -6.8050   14.7160  -34.2560 C   0  0  0  0  0  0  0  0  0  0  0  0
   -3.5652   13.8648  -34.3419 H   0  0  0  0  0  0  0  0  0  0  0  0
   -4.7218   14.1940  -35.6763 H   0  0  0  0  0  0  0  0  0  0  0  0
   -3.1044   14.9756  -35.6763 H   0  0  0  0  0  0  0  0  0  0  0  0
   -2.5995   16.8452  -34.2361 H   0  0  0  0  0  0  0  0  0  0  0  0
   -3.4839   18.7964  -32.9747 H   0  0  0  0  0  0  0  0  0  0  0  0
   -6.0610   19.0740  -31.0610 H   0  0  0  0  0  0  0  0  0  0  0  0
   -4.5322   22.0548  -32.1164 H   0  0  0  0  0  0  0  0  0  0  0  0
   -3.3537   21.4140  -29.2114 H   0  0  0  0  0  0  0  0  0  0  0  0
   -2.3173   20.9873  -26.9808 H   0  0  0  0  0  0  0  0  0  0  0  0
   -0.9560   22.7625  -25.8733 H   0  0  0  0  0  0  0  0  0  0  0  0
   -0.6515   24.9771  -26.9821 H   0  0  0  0  0  0  0  0  0  0  0  0
   -7.0397   25.0069  -28.6567 H   0  0  0  0  0  0  0  0  0  0  0  0
   -6.2946   25.9696  -29.9776 H   0  0  0  0  0  0  0  0  0  0  0  0
   -8.0647   25.6638  -29.9776 H   0  0  0  0  0  0  0  0  0  0  0  0
   -9.5505   20.9791  -30.6142 H   0  0  0  0  0  0  0  0  0  0  0  0
   -9.8815   21.8312  -32.1605 H   0  0  0  0  0  0  0  0  0  0  0  0
   -8.9308   20.3071  -32.1605 H   0  0  0  0  0  0  0  0  0  0  0  0
   -7.4072   16.9787  -32.8880 H   0  0  0  0  0  0  0  0  0  0  0  0
   -7.1945   14.2547  -33.3365 H   0  0  0  0  0  0  0  0  0  0  0  0
   -7.6410   15.1180  -34.8471 H   0  0  0  0  0  0  0  0  0  0  0  0
   -6.2685   13.9592  -34.8471 H   0  0  0  0  0  0  0  0  0  0  0  0
  1  2  1  0
  2  3  2  0
  3  4  1  0
  4  5  2  0
  5  6  1  0
  6  7  1  0
  7  8  2  0
  7  9  1  0
  9 10  2  0
 10 11  1  0
 11 12  1  0
 12 13  2  0
 12 14  1  0
 14 15  1  0
 15 16  2  0
 16 17  1  0
 17 18  2  0
 18 19  1  0
 19 20  2  0
 20 21  1  0
 11 22  2  0
 22 23  1  0
 22 24  1  0
 24 25  2  0
 25 26  1  0
  5 27  1  0
 27 28  2  0
 28 29  1  0
 28  2  1  0
 25  9  1  0
 20 15  1  0
  1 30  1  0
  1 31  1  0
  1 32  1  0
  3 33  1  0
  4 34  1  0
  6 35  1  0
 10 36  1  0
 16 37  1  0
 17 38  1  0
 18 39  1  0
 19 40  1  0
 23 41  1  0
 23 42  1  0
 23 43  1  0
 26 44  1  0
 26 45  1  0
 26 46  1  0
 27 47  1  0
 29 48  1  0
 29 49  1  0
 29 50  1  0
M  CHG  1  21  -1
M  END
>  <UniqueID>  (19) 
17

>  <SMILES>  (19) 
Cc1ccc(NC(=O)c2cc(C(=O)Oc3ccccc3[O-])c(C)nc2C)cc1C

>  <Energy>  (19) 
68.51430786934922

>  <Genealogy>  (19) 
Cc1ccc(NC(=O)c2cc(C(=O)Oc3ccccc3[O-])c(C)nc2C)cc1C (protonated)
Cc1ccc(NC(=O)c2cc(C(=O)Oc3ccccc3[O-])c(C)nc2C)cc1C (3D coordinates assigned)
Cc1ccc(NC(=O)c2cc(C(=O)Oc3ccccc3[O-])c(C)nc2C)cc1C (optimized conformer: 68.51430786934922 kcal/mol)

>  <smiles>  (19) 
Cc1ccc(NC(=O)c2cc(C(=O)Oc3ccccc3O)c(C)nc2C)cc1C

>  <score_type>  (19) 
oracle

>  <origin>  (19) 
adgpu

>  <m_score__min__energy>  (19) 
-12.699999999999999

>  <m_primary>  (19) 
energy

$$$$
19:0
     RDKit          3D

 35 38  0  0  0  0  0  0  0  0999 V2000
   -5.4230   25.4070  -31.2230 O   0  0  0  0  0  0  0  0  0  0  0  0
   -4.6280   24.5230  -30.8030 C   0  0  0  0  0  0  0  0  0  0  0  0
   -3.5030   24.9230  -30.1590 N   0  0  0  0  0  0  0  0  0  0  0  0
   -2.5940   24.0330  -29.6950 C   0  0  0  0  0  0  0  0  0  0  0  0
   -1.4440   24.4850  -29.0370 C   0  0  0  0  0  0  0  0  0  0  0  0
   -0.5050   23.5660  -28.5590 C   0  0  0  0  0  0  0  0  0  0  0  0
   -0.7120   22.1960  -28.7390 C   0  0  0  0  0  0  0  0  0  0  0  0
   -1.8560   21.7370  -29.3990 C   0  0  0  0  0  0  0  0  0  0  0  0
   -2.8080   22.6560  -29.8830 C   0  0  0  0  0  0  0  0  0  0  0  0
   -3.9780   22.2490  -30.5490 C   0  0  0  0  0  0  0  0  0  0  0  0
   -4.1930   21.0160  -30.7240 O   0  0  0  0  0  0  0  0  0  0  0  0
   -4.8830   23.1820  -30.9990 N   0  0  0  0  0  0  0  0  0  0  0  0
   -6.0820   22.7260  -31.6750 C   0  0  0  0  0  0  0  0  0  0  0  0
   -6.9650   21.9950  -31.0670 N   0  0  0  0  0  0  0  0  0  0  0  0
   -8.1530   21.4920  -31.6900 C   0  0  0  0  0  0  0  0  0  0  0  0
   -9.3720   22.0560  -31.5840 N   0  0  0  0  0  0  0  0  0  0  0  0
  -10.1840   21.2270  -32.2250 N   0  0  0  0  0  0  0  0  0  0  0  0
   -9.5020   20.1940  -32.6990 N   0  0  0  0  0  0  0  0  0  0  0  0
   -8.2250   20.3400  -32.3810 N   0  0  0  0  0  0  0  0  0  0  0  0
   -7.1890   19.3920  -32.6980 C   0  0  0  0  0  0  0  0  0  0  0  0
   -6.3070   19.6510  -33.7620 C   0  0  0  0  0  0  0  0  0  0  0  0
   -5.2970   18.7380  -34.0840 C   0  0  0  0  0  0  0  0  0  0  0  0
   -5.1510   17.5650  -33.3410 C   0  0  0  0  0  0  0  0  0  0  0  0
   -6.0100   17.3060  -32.2680 C   0  0  0  0  0  0  0  0  0  0  0  0
   -7.0220   18.2160  -31.9430 C   0  0  0  0  0  0  0  0  0  0  0  0
   -1.2791   25.5634  -28.8960 H   0  0  0  0  0  0  0  0  0  0  0  0
    0.3976   23.9219  -28.0407 H   0  0  0  0  0  0  0  0  0  0  0  0
    0.0279   21.4757  -28.3600 H   0  0  0  0  0  0  0  0  0  0  0  0
   -2.0129   20.6575  -29.5405 H   0  0  0  0  0  0  0  0  0  0  0  0
   -6.2466   23.0058  -32.7260 H   0  0  0  0  0  0  0  0  0  0  0  0
   -6.4118   20.5778  -34.3452 H   0  0  0  0  0  0  0  0  0  0  0  0
   -4.6170   18.9446  -34.9236 H   0  0  0  0  0  0  0  0  0  0  0  0
   -4.3607   16.8448  -33.5994 H   0  0  0  0  0  0  0  0  0  0  0  0
   -5.8898   16.3851  -31.6785 H   0  0  0  0  0  0  0  0  0  0  0  0
   -7.6902   18.0113  -31.0935 H   0  0  0  0  0  0  0  0  0  0  0  0
  1  2  2  0
  2  3  1  0
  3  4  1  0
  4  5  2  0
  5  6  1  0
  6  7  2  0
  7  8  1  0
  8  9  2  0
  9 10  1  0
 10 11  2  0
 10 12  1  0
 12 13  1  0
 13 14  2  3
 14 15  1  0
 15 16  2  0
 16 17  1  0
 17 18  2  0
 18 19  1  0
 19 20  1  0
 20 21  2  0
 21 22  1  0
 22 23  2  0
 23 24  1  0
 24 25  2  0
 12  2  1  0
 19 15  1  0
 25 20  1  0
  9  4  1  0
  5 26  1  0
  6 27  1  0
  7 28  1  0
  8 29  1  0
 13 30  1  0
 21 31  1  0
 22 32  1  0
 23 33  1  0
 24 34  1  0
 25 35  1  0
M  CHG  1   3  -1
M  END
>  <UniqueID>  (20) 
18

>  <SMILES>  (20) 
O=c1[n-]c2ccccc2c(=O)n1C=Nc1nnnn1-c1ccccc1

>  <Energy>  (20) 
95.1978199274861

>  <Genealogy>  (20) 
O=c1[n-]c2ccccc2c(=O)n1C=Nc1nnnn1-c1ccccc1 (protonated)
O=c1[n-]c2ccccc2c(=O)n1C=Nc1nnnn1-c1ccccc1 (3D coordinates assigned)
O=c1[n-]c2ccccc2c(=O)n1C=Nc1nnnn1-c1ccccc1 (optimized conformer: 95.1978199274861 kcal/mol)

>  <smiles>  (20) 
O=c1[nH]c2ccccc2c(=O)n1C=Nc1nnnn1-c1ccccc1

>  <score_type>  (20) 
oracle

>  <origin>  (20) 
adgpu

>  <m_score__min__energy>  (20) 
-10.119999999999999

>  <m_primary>  (20) 
energy

$$$$
20:0
     RDKit          3D

 33 36  0  0  0  0  0  0  0  0999 V2000
   -2.0420   19.8380  -30.8280 O   0  0  0  0  0  0  0  0  0  0  0  0
   -2.4660   21.0140  -30.6470 C   0  0  0  0  0  0  0  0  0  0  0  0
   -3.6710   21.4260  -31.2350 C   0  0  0  0  0  0  0  0  0  0  0  0
   -4.4480   20.5300  -31.9960 C   0  0  0  0  0  0  0  0  0  0  0  0
   -5.6540   20.9430  -32.5630 C   0  0  0  0  0  0  0  0  0  0  0  0
   -6.6160   19.8130  -33.5000 Cl  0  0  0  0  0  0  0  0  0  0  0  0
   -6.1030   22.2470  -32.3700 C   0  0  0  0  0  0  0  0  0  0  0  0
   -5.3410   23.1500  -31.6270 C   0  0  0  0  0  0  0  0  0  0  0  0
   -4.1010   22.7670  -31.0670 C   0  0  0  0  0  0  0  0  0  0  0  0
   -3.3270   23.6560  -30.3550 N   0  0  0  0  0  0  0  0  0  0  0  0
   -3.5440   25.0180  -30.4700 O   0  0  0  0  0  0  0  0  0  0  0  0
   -2.2300   23.2240  -29.6410 C   0  0  0  0  0  0  0  0  0  0  0  0
   -1.5250   24.0740  -28.7380 C   0  0  0  0  0  0  0  0  0  0  0  0
   -0.2800   23.6490  -28.2320 C   0  0  0  0  0  0  0  0  0  0  0  0
    0.1710   22.3980  -28.4900 N   0  0  0  0  0  0  0  0  0  0  0  0
   -0.5260   21.5240  -29.2550 C   0  0  0  0  0  0  0  0  0  0  0  0
   -1.7410   21.9090  -29.8450 C   0  0  0  0  0  0  0  0  0  0  0  0
    0.5200   24.5350  -27.3190 C   0  0  0  0  0  0  0  0  0  0  0  0
    0.1900   26.0090  -27.5580 C   0  0  0  0  0  0  0  0  0  0  0  0
   -1.3140   26.2410  -27.4150 C   0  0  0  0  0  0  0  0  0  0  0  0
   -2.0780   25.3160  -28.2540 N   0  0  0  0  0  0  0  0  0  0  0  0
   -4.1009   19.4968  -32.1442 H   0  0  0  0  0  0  0  0  0  0  0  0
   -7.0616   22.5665  -32.8047 H   0  0  0  0  0  0  0  0  0  0  0  0
   -5.7109   24.1747  -31.4750 H   0  0  0  0  0  0  0  0  0  0  0  0
   -2.8320   25.6760  -30.7570 H   0  0  0  0  0  0  0  0  0  0  0  0
   -0.1383   20.5071  -29.4150 H   0  0  0  0  0  0  0  0  0  0  0  0
    0.2874   24.2791  -26.2748 H   0  0  0  0  0  0  0  0  0  0  0  0
    1.5888   24.3772  -27.5256 H   0  0  0  0  0  0  0  0  0  0  0  0
    0.7249   26.6257  -26.8207 H   0  0  0  0  0  0  0  0  0  0  0  0
    0.5018   26.2871  -28.5756 H   0  0  0  0  0  0  0  0  0  0  0  0
   -1.6011   26.0914  -26.3637 H   0  0  0  0  0  0  0  0  0  0  0  0
   -1.5387   27.2683  -27.7379 H   0  0  0  0  0  0  0  0  0  0  0  0
   -3.1140   25.4370  -28.2260 H   0  0  0  0  0  0  0  0  0  0  0  0
  1  2  2  0
  2  3  1  0
  3  4  2  0
  4  5  1  0
  5  6  1  0
  5  7  2  0
  7  8  1  0
  8  9  2  0
  9 10  1  0
 10 11  1  0
 10 12  1  0
 12 13  2  0
 13 14  1  0
 14 15  2  0
 15 16  1  0
 16 17  2  0
 14 18  1  0
 18 19  1  0
 19 20  1  0
 20 21  1  0
 17  2  1  0
  9  3  1  0
 17 12  1  0
 21 13  1  0
  4 22  1  0
  7 23  1  0
  8 24  1  0
 11 25  1  0
 16 26  1  0
 18 27  1  0
 18 28  1  0
 19 29  1  0
 19 30  1  0
 20 31  1  0
 20 32  1  0
 21 33  1  0
M  END
>  <UniqueID>  (21) 
19

>  <SMILES>  (21) 
O=c1c2cc(Cl)ccc2n(O)c2c3c(ncc12)CCCN3

>  <Energy>  (21) 
60.492722324254025

>  <Genealogy>  (21) 
O=c1c2cc(Cl)ccc2n(O)c2c3c(ncc12)CCCN3 (3D coordinates assigned)
O=c1c2cc(Cl)ccc2n(O)c2c3c(ncc12)CCCN3 (nonaromatic ring conformer: 60.492722324254025 kcal/mol)

>  <smiles>  (21) 
O=c1c2cc(Cl)ccc2n(O)c2c3c(ncc12)CCCN3

>  <score_type>  (21) 
oracle

>  <origin>  (21) 
adgpu

>  <m_score__min__energy>  (21) 
-8.0800000000000001

>  <m_primary>  (21) 
energy

$$$$
21:0
     RDKit          3D

 27 28  0  0  0  0  0  0  0  0999 V2000
    0.6580   24.6380  -27.3920 H   0  0  0  0  0  0  0  0  0  0  0  0
    0.0190   25.0790  -28.0910 N   0  0  0  0  0  0  0  0  0  0  0  0
   -1.1080   24.5310  -28.4170 C   0  0  0  0  0  0  0  0  0  0  0  0
   -1.4840   23.3560  -27.8460 N   0  0  0  0  0  0  0  0  0  0  0  0
   -2.6600   22.7650  -28.1700 C   0  0  0  0  0  0  0  0  0  0  0  0
   -2.9870   21.6780  -27.6270 O   0  0  0  0  0  0  0  0  0  0  0  0
   -3.5040   23.3640  -29.1040 C   0  0  0  0  0  0  0  0  0  0  0  0
   -4.4630   22.8966  -29.3722 H   0  0  0  0  0  0  0  0  0  0  0  0
   -3.1100   24.5710  -29.6950 C   0  0  0  0  0  0  0  0  0  0  0  0
   -3.9720   25.1920  -30.6680 N   0  0  0  0  0  0  0  0  0  0  0  0
   -3.5540   25.5200  -31.5680 H   0  0  0  0  0  0  0  0  0  0  0  0
   -5.3960   25.4570  -30.4580 C   0  0  0  0  0  0  0  0  0  0  0  0
   -5.5620   25.7236  -29.4038 H   0  0  0  0  0  0  0  0  0  0  0  0
   -5.7019   26.2853  -31.1140 H   0  0  0  0  0  0  0  0  0  0  0  0
   -6.2190   24.2430  -30.7960 C   0  0  0  0  0  0  0  0  0  0  0  0
   -6.8780   23.5310  -29.7790 C   0  0  0  0  0  0  0  0  0  0  0  0
   -6.7880   23.8610  -28.7335 H   0  0  0  0  0  0  0  0  0  0  0  0
   -7.6470   22.4060  -30.0890 C   0  0  0  0  0  0  0  0  0  0  0  0
   -8.1542   21.8499  -29.2868 H   0  0  0  0  0  0  0  0  0  0  0  0
   -7.7730   21.9860  -31.4160 C   0  0  0  0  0  0  0  0  0  0  0  0
   -8.7380   20.5740  -31.8040 Cl  0  0  0  0  0  0  0  0  0  0  0  0
   -7.1310   22.6960  -32.4360 C   0  0  0  0  0  0  0  0  0  0  0  0
   -7.2326   22.3683  -33.4811 H   0  0  0  0  0  0  0  0  0  0  0  0
   -6.3600   23.8220  -32.1290 C   0  0  0  0  0  0  0  0  0  0  0  0
   -5.8617   24.3805  -32.9351 H   0  0  0  0  0  0  0  0  0  0  0  0
   -1.9180   25.1340  -29.3320 N   0  0  0  0  0  0  0  0  0  0  0  0
   -1.6130   26.0420  -29.7460 H   0  0  0  0  0  0  0  0  0  0  0  0
  1  2  1  0
  2  3  2  0
  3  4  1  0
  4  5  1  0
  5  6  2  0
  5  7  1  0
  7  8  1  0
  7  9  2  0
  9 10  1  0
 10 11  1  0
 10 12  1  0
 12 13  1  0
 12 14  1  0
 12 15  1  0
 15 16  2  0
 16 17  1  0
 16 18  1  0
 18 19  1  0
 18 20  2  0
 20 21  1  0
 20 22  1  0
 22 23  1  0
 22 24  2  0
 24 25  1  0
  9 26  1  0
 26 27  1  0
 26  3  1  0
 24 15  1  0
M  CHG  1   4  -1
M  END
>  <UniqueID>  (22) 
20

>  <SMILES>  (22) 
[H]/N=c1\[n-]c(=O)cc(NCc2ccc(Cl)cc2)[nH]1

>  <Energy>  (22) 
26.966764716663718

>  <Genealogy>  (22) 
N=c1[n-]c(=O)cc(NCc2ccc(Cl)cc2)[nH]1 (protonated)
[H]/N=c1\[n-]c(=O)cc(NCc2ccc(Cl)cc2)[nH]1 (cis-trans isomerization)
[H]/N=c1\[n-]c(=O)cc(NCc2ccc(Cl)cc2)[nH]1 (3D coordinates assigned)
[H]/N=c1\[n-]c(=O)cc(NCc2ccc(Cl)cc2)[nH]1 (optimized conformer: 26.966764716663718 kcal/mol)

>  <smiles>  (22) 
N=c1[nH]c(NCc2ccc(Cl)cc2)cc(=O)[nH]1

>  <score_type>  (22) 
oracle

>  <origin>  (22) 
adgpu

>  <m_score__min__energy>  (22) 
-8.7400000000000002

>  <m_primary>  (22) 
energy

$$$$
22:0
     RDKit          3D

 42 45  0  0  0  0  0  0  0  0999 V2000
   -4.7190   16.2490  -33.2590 C   0  0  0  0  0  0  0  0  0  0  0  0
   -5.6970   17.1600  -32.5920 C   0  0  0  0  0  0  0  0  0  0  0  0
   -6.4330   16.8240  -31.5600 O   0  0  0  0  0  0  0  0  0  0  0  0
   -7.2160   17.8000  -31.2020 N   0  0  0  0  0  0  0  0  0  0  0  0
   -6.9740   18.8330  -32.0330 C   0  0  0  0  0  0  0  0  0  0  0  0
   -7.7110   20.1090  -31.9780 C   0  0  0  0  0  0  0  0  0  0  0  0
   -9.1060   20.1430  -32.1360 C   0  0  0  0  0  0  0  0  0  0  0  0
   -9.8000   21.3530  -32.0400 C   0  0  0  0  0  0  0  0  0  0  0  0
   -9.1070   22.5360  -31.7850 C   0  0  0  0  0  0  0  0  0  0  0  0
   -7.7130   22.5130  -31.6370 C   0  0  0  0  0  0  0  0  0  0  0  0
   -7.0170   21.3050  -31.7400 C   0  0  0  0  0  0  0  0  0  0  0  0
   -6.0120   18.4530  -32.9610 C   0  0  0  0  0  0  0  0  0  0  0  0
   -5.5320   19.1910  -34.1850 C   0  0  0  0  0  0  0  0  0  0  0  0
   -4.1750   19.6180  -34.0410 O   0  0  0  0  0  0  0  0  0  0  0  0
   -3.6560   20.2960  -32.9240 C   0  0  0  0  0  0  0  0  0  0  0  0
   -2.6640   19.7370  -32.0950 C   0  0  0  0  0  0  0  0  0  0  0  0
   -2.1090   20.4870  -31.0540 C   0  0  0  0  0  0  0  0  0  0  0  0
   -2.5440   21.8050  -30.8210 C   0  0  0  0  0  0  0  0  0  0  0  0
   -1.9870   22.6090  -29.8130 C   0  0  0  0  0  0  0  0  0  0  0  0
   -1.0690   22.1450  -29.0800 O   0  0  0  0  0  0  0  0  0  0  0  0
   -2.4540   23.9340  -29.6350 C   0  0  0  0  0  0  0  0  0  0  0  0
   -1.8860   24.8060  -28.6290 N   0  0  0  0  0  0  0  0  0  0  0  0
   -1.2170   25.8100  -28.9540 O   0  0  0  0  0  0  0  0  0  0  0  0
   -2.1220   24.5930  -27.2870 O   0  0  0  0  0  0  0  0  0  0  0  0
   -3.4900   24.3850  -30.4880 C   0  0  0  0  0  0  0  0  0  0  0  0
   -4.0200   25.6670  -30.3640 O   0  0  0  0  0  0  0  0  0  0  0  0
   -3.9860   23.5920  -31.4290 O   0  0  0  0  0  0  0  0  0  0  0  0
   -3.5610   22.3520  -31.6310 C   0  0  0  0  0  0  0  0  0  0  0  0
   -4.1210   21.5900  -32.6630 C   0  0  0  0  0  0  0  0  0  0  0  0
   -4.1401   15.7097  -32.4948 H   0  0  0  0  0  0  0  0  0  0  0  0
   -5.2605   15.5260  -33.8867 H   0  0  0  0  0  0  0  0  0  0  0  0
   -4.0362   16.8404  -33.8867 H   0  0  0  0  0  0  0  0  0  0  0  0
   -9.6562   19.2118  -32.3366 H   0  0  0  0  0  0  0  0  0  0  0  0
  -10.8926   21.3718  -32.1656 H   0  0  0  0  0  0  0  0  0  0  0  0
   -9.6538   23.4867  -31.7000 H   0  0  0  0  0  0  0  0  0  0  0  0
   -7.1662   23.4468  -31.4396 H   0  0  0  0  0  0  0  0  0  0  0  0
   -5.9222   21.2921  -31.6342 H   0  0  0  0  0  0  0  0  0  0  0  0
   -5.6062   18.5240  -35.0565 H   0  0  0  0  0  0  0  0  0  0  0  0
   -6.1619   20.0827  -34.3195 H   0  0  0  0  0  0  0  0  0  0  0  0
   -2.3243   18.7051  -32.2676 H   0  0  0  0  0  0  0  0  0  0  0  0
   -1.3299   20.0457  -30.4150 H   0  0  0  0  0  0  0  0  0  0  0  0
   -4.9330   22.0115  -33.2737 H   0  0  0  0  0  0  0  0  0  0  0  0
  1  2  1  0
  2  3  1  0
  3  4  1  0
  4  5  2  0
  5  6  1  0
  6  7  2  0
  7  8  1  0
  8  9  2  0
  9 10  1  0
 10 11  2  0
  5 12  1  0
 12 13  1  0
 13 14  1  0
 14 15  1  0
 15 16  2  0
 16 17  1  0
 17 18  2  0
 18 19  1  0
 19 20  2  0
 19 21  1  0
 21 22  1  0
 22 23  2  0
 22 24  1  0
 21 25  2  0
 25 26  1  0
 25 27  1  0
 27 28  1  0
 28 29  2  0
 12  2  2  0
 29 15  1  0
 11  6  1  0
 28 18  1  0
  1 30  1  0
  1 31  1  0
  1 32  1  0
  7 33  1  0
  8 34  1  0
  9 35  1  0
 10 36  1  0
 11 37  1  0
 13 38  1  0
 13 39  1  0
 16 40  1  0
 17 41  1  0
 29 42  1  0
M  CHG  3  22   1  24  -1  26  -1
M  END
>  <UniqueID>  (23) 
21

>  <SMILES>  (23) 
Cc1onc(-c2ccccc2)c1COc1ccc2c(=O)c([N+](=O)[O-])c([O-])oc2c1

>  <Energy>  (23) 
89.49791077479023

>  <Genealogy>  (23) 
Cc1onc(-c2ccccc2)c1COc1ccc2c(=O)c([N+](=O)[O-])c([O-])oc2c1 (protonated)
Cc1onc(-c2ccccc2)c1COc1ccc2c(=O)c([N+](=O)[O-])c([O-])oc2c1 (3D coordinates assigned)
Cc1onc(-c2ccccc2)c1COc1ccc2c(=O)c([N+](=O)[O-])c([O-])oc2c1 (optimized conformer: 89.49791077479023 kcal/mol)

>  <smiles>  (23) 
Cc1onc(-c2ccccc2)c1COc1ccc2c(=O)c([N+](=O)[O-])c(O)oc2c1

>  <score_type>  (23) 
oracle

>  <origin>  (23) 
adgpu

>  <m_score__min__energy>  (23) 
-11.109999999999999

>  <m_primary>  (23) 
energy

$$$$
23:0
     RDKit          3D

 37 40  0  0  0  0  0  0  0  0999 V2000
   -8.5556   18.1591  -32.8295 H   0  0  0  0  0  0  0  0  0  0  0  0
   -7.7590   18.9060  -32.6970 C   0  0  0  0  0  0  0  0  0  0  0  0
   -7.9040   20.3800  -31.9040 S   0  0  0  0  0  0  0  0  0  0  0  0
   -6.2990   20.8210  -32.1640 C   0  0  0  0  0  0  0  0  0  0  0  0
   -5.6600   22.0790  -31.7130 C   0  0  0  0  0  0  0  0  0  0  0  0
   -6.4080   23.2680  -31.6480 C   0  0  0  0  0  0  0  0  0  0  0  0
   -7.4702   23.2611  -31.9339 H   0  0  0  0  0  0  0  0  0  0  0  0
   -5.8120   24.4580  -31.2230 C   0  0  0  0  0  0  0  0  0  0  0  0
   -6.4056   25.3829  -31.1763 H   0  0  0  0  0  0  0  0  0  0  0  0
   -4.4630   24.4760  -30.8570 C   0  0  0  0  0  0  0  0  0  0  0  0
   -3.8720   25.6610  -30.4350 O   0  0  0  0  0  0  0  0  0  0  0  0
   -3.7090   23.3010  -30.9170 C   0  0  0  0  0  0  0  0  0  0  0  0
   -2.6473   23.3145  -30.6295 H   0  0  0  0  0  0  0  0  0  0  0  0
   -4.3020   22.1080  -31.3420 C   0  0  0  0  0  0  0  0  0  0  0  0
   -3.7036   21.1861  -31.3868 H   0  0  0  0  0  0  0  0  0  0  0  0
   -5.6450   19.8560  -32.8510 N   0  0  0  0  0  0  0  0  0  0  0  0
   -6.4470   18.8000  -33.1570 C   0  0  0  0  0  0  0  0  0  0  0  0
   -5.9280   17.6270  -33.8850 C   0  0  0  0  0  0  0  0  0  0  0  0
   -6.4670   17.2930  -34.9740 O   0  0  0  0  0  0  0  0  0  0  0  0
   -4.7860   16.8940  -33.4250 N   0  0  0  0  0  0  0  0  0  0  0  0
   -3.5580   17.3210  -33.4560 C   0  0  0  0  0  0  0  0  0  0  0  0
   -2.5230   16.5520  -33.0390 N   0  0  0  0  0  0  0  0  0  0  0  0
   -1.3500   17.2290  -33.1380 C   0  0  0  0  0  0  0  0  0  0  0  0
   -0.1070   16.7030  -32.7900 C   0  0  0  0  0  0  0  0  0  0  0  0
   -0.0220   15.6751  -32.4075 H   0  0  0  0  0  0  0  0  0  0  0  0
    1.0360   17.5080  -32.9360 C   0  0  0  0  0  0  0  0  0  0  0  0
    2.0238   17.1063  -32.6659 H   0  0  0  0  0  0  0  0  0  0  0  0
    0.9270   18.8350  -33.4290 C   0  0  0  0  0  0  0  0  0  0  0  0
    2.0440   19.6690  -33.5880 O   0  0  0  0  0  0  0  0  0  0  0  0
    2.1580   20.6780  -34.5860 C   0  0  0  0  0  0  0  0  0  0  0  0
    2.2690   21.6602  -34.1034 H   0  0  0  0  0  0  0  0  0  0  0  0
    3.0390   20.4758  -35.2128 H   0  0  0  0  0  0  0  0  0  0  0  0
    1.2541   20.6775  -35.2128 H   0  0  0  0  0  0  0  0  0  0  0  0
   -0.3370   19.3450  -33.7720 C   0  0  0  0  0  0  0  0  0  0  0  0
   -0.4436   20.3707  -34.1549 H   0  0  0  0  0  0  0  0  0  0  0  0
   -1.4510   18.5250  -33.6170 C   0  0  0  0  0  0  0  0  0  0  0  0
   -3.0600   18.8740  -33.9420 S   0  0  0  0  0  0  0  0  0  0  0  0
  1  2  1  0
  2  3  1  0
  3  4  1  0
  4  5  1  0
  5  6  2  0
  6  7  1  0
  6  8  1  0
  8  9  1  0
  8 10  2  0
 10 11  1  0
 10 12  1  0
 12 13  1  0
 12 14  2  0
 14 15  1  0
  4 16  2  0
 16 17  1  0
 17 18  1  0
 18 19  2  0
 18 20  1  0
 20 21  2  0
 21 22  1  0
 22 23  1  0
 23 24  2  0
 24 25  1  0
 24 26  1  0
 26 27  1  0
 26 28  2  0
 28 29  1  0
 29 30  1  0
 30 31  1  0
 30 32  1  0
 30 33  1  0
 28 34  1  0
 34 35  1  0
 34 36  2  0
 36 37  1  0
 17  2  2  0
 37 21  1  0
 14  5  1  0
 36 23  1  0
M  CHG  2  11  -1  22  -1
M  END
>  <UniqueID>  (24) 
22

>  <SMILES>  (24) 
COc1ccc2[n-]/c(=N/C(=O)c3csc(-c4ccc([O-])cc4)n3)sc2c1

>  <Energy>  (24) 
113.5197312281138

>  <Genealogy>  (24) 
COc1ccc2[n-]c(=NC(=O)c3csc(-c4ccc([O-])cc4)n3)sc2c1 (protonated)
COc1ccc2[n-]/c(=N/C(=O)c3csc(-c4ccc([O-])cc4)n3)sc2c1 (cis-trans isomerization)
COc1ccc2[n-]/c(=N/C(=O)c3csc(-c4ccc([O-])cc4)n3)sc2c1 (3D coordinates assigned)
COc1ccc2[n-]/c(=N/C(=O)c3csc(-c4ccc([O-])cc4)n3)sc2c1 (optimized conformer: 113.5197312281138 kcal/mol)

>  <smiles>  (24) 
COc1ccc2[nH]c(=NC(=O)c3csc(-c4ccc(O)cc4)n3)sc2c1

>  <score_type>  (24) 
oracle

>  <origin>  (24) 
adgpu

>  <m_score__min__energy>  (24) 
-11.73

>  <m_primary>  (24) 
energy

$$$$
24:0
     RDKit          3D

 59 62  0  0  0  0  0  0  0  0999 V2000
   -4.9390   15.1850  -31.8100 C   0  0  0  0  0  0  0  0  0  0  0  0
   -5.3370   16.2220  -32.8290 C   0  0  0  0  0  0  0  0  0  0  0  0
   -6.3830   17.1130  -32.5230 C   0  0  0  0  0  0  0  0  0  0  0  0
   -6.7670   18.1000  -33.4330 C   0  0  0  0  0  0  0  0  0  0  0  0
   -6.1040   18.2200  -34.6540 C   0  0  0  0  0  0  0  0  0  0  0  0
   -5.0550   17.3550  -34.9690 C   0  0  0  0  0  0  0  0  0  0  0  0
   -4.6580   16.3490  -34.0690 C   0  0  0  0  0  0  0  0  0  0  0  0
   -3.5400   15.4140  -34.4700 C   0  0  0  0  0  0  0  0  0  0  0  0
   -2.3080   16.2600  -35.5230 S   0  0  0  0  0  0  0  0  0  0  0  0
   -1.8740   17.4910  -34.2990 C   0  0  0  0  0  0  0  0  0  0  0  0
   -0.7250   17.3630  -33.5880 N   0  0  0  0  0  0  0  0  0  0  0  0
   -0.3640   18.3010  -32.6780 C   0  0  0  0  0  0  0  0  0  0  0  0
   -1.1750   19.4170  -32.4560 C   0  0  0  0  0  0  0  0  0  0  0  0
   -0.5960   20.6690  -31.3620 Cl  0  0  0  0  0  0  0  0  0  0  0  0
   -2.3820   19.5200  -33.1790 C   0  0  0  0  0  0  0  0  0  0  0  0
   -3.3260   20.6420  -33.0060 C   0  0  0  0  0  0  0  0  0  0  0  0
   -2.9490   21.8060  -33.3130 O   0  0  0  0  0  0  0  0  0  0  0  0
   -4.6870   20.4100  -32.6100 N   0  0  0  0  0  0  0  0  0  0  0  0
   -5.5510   21.4280  -32.0750 C   0  0  0  0  0  0  0  0  0  0  0  0
   -6.9380   21.4170  -32.3160 C   0  0  0  0  0  0  0  0  0  0  0  0
   -7.7500   22.4300  -31.8030 C   0  0  0  0  0  0  0  0  0  0  0  0
   -7.1910   23.4690  -31.0550 C   0  0  0  0  0  0  0  0  0  0  0  0
   -5.8090   23.5040  -30.8240 C   0  0  0  0  0  0  0  0  0  0  0  0
   -5.0880   24.8350  -29.9230 S   0  0  0  0  0  0  0  0  0  0  0  0
   -4.2420   25.6740  -30.8430 O   0  0  0  0  0  0  0  0  0  0  0  0
   -6.1880   25.6950  -29.3670 O   0  0  0  0  0  0  0  0  0  0  0  0
   -4.1110   24.2130  -28.6140 N   0  0  0  0  0  0  0  0  0  0  0  0
   -4.4800   22.8070  -28.3300 C   0  0  0  0  0  0  0  0  0  0  0  0
   -3.3760   22.0800  -27.5580 C   0  0  0  0  0  0  0  0  0  0  0  0
   -2.0790   22.0110  -28.3840 C   0  0  0  0  0  0  0  0  0  0  0  0
   -1.9550   23.1680  -29.3910 C   0  0  0  0  0  0  0  0  0  0  0  0
   -2.6650   24.4300  -28.8800 C   0  0  0  0  0  0  0  0  0  0  0  0
   -4.9940   22.4900  -31.3450 C   0  0  0  0  0  0  0  0  0  0  0  0
   -2.6890   18.5570  -34.0910 N   0  0  0  0  0  0  0  0  0  0  0  0
   -5.0934   15.5873  -30.7979 H   0  0  0  0  0  0  0  0  0  0  0  0
   -5.5551   14.2837  -31.9442 H   0  0  0  0  0  0  0  0  0  0  0  0
   -3.8781   14.9273  -31.9442 H   0  0  0  0  0  0  0  0  0  0  0  0
   -6.9031   17.0309  -31.5572 H   0  0  0  0  0  0  0  0  0  0  0  0
   -7.5930   18.7834  -33.1866 H   0  0  0  0  0  0  0  0  0  0  0  0
   -6.4083   18.9977  -35.3700 H   0  0  0  0  0  0  0  0  0  0  0  0
   -4.5329   17.4609  -35.9314 H   0  0  0  0  0  0  0  0  0  0  0  0
   -3.0408   15.0431  -33.5626 H   0  0  0  0  0  0  0  0  0  0  0  0
   -3.9737   14.5823  -35.0447 H   0  0  0  0  0  0  0  0  0  0  0  0
    0.5717   18.1829  -32.1118 H   0  0  0  0  0  0  0  0  0  0  0  0
   -5.1010   19.4770  -32.8290 H   0  0  0  0  0  0  0  0  0  0  0  0
   -7.3839   20.6065  -32.9112 H   0  0  0  0  0  0  0  0  0  0  0  0
   -8.8341   22.4100  -31.9884 H   0  0  0  0  0  0  0  0  0  0  0  0
   -7.8363   24.2608  -30.6467 H   0  0  0  0  0  0  0  0  0  0  0  0
   -5.4025   22.7940  -27.7310 H   0  0  0  0  0  0  0  0  0  0  0  0
   -4.6274   22.2893  -29.2893 H   0  0  0  0  0  0  0  0  0  0  0  0
   -3.1771   22.6200  -26.6205 H   0  0  0  0  0  0  0  0  0  0  0  0
   -3.7126   21.0541  -27.3478 H   0  0  0  0  0  0  0  0  0  0  0  0
   -1.2212   22.0493  -27.6964 H   0  0  0  0  0  0  0  0  0  0  0  0
   -2.0990   21.0722  -28.9569 H   0  0  0  0  0  0  0  0  0  0  0  0
   -0.8900   23.3944  -29.5475 H   0  0  0  0  0  0  0  0  0  0  0  0
   -2.4297   22.8601  -30.3343 H   0  0  0  0  0  0  0  0  0  0  0  0
   -2.1807   24.7512  -27.9460 H   0  0  0  0  0  0  0  0  0  0  0  0
   -2.5854   25.1947  -29.6667 H   0  0  0  0  0  0  0  0  0  0  0  0
   -3.9070   22.5265  -31.1803 H   0  0  0  0  0  0  0  0  0  0  0  0
  1  2  1  0
  2  3  2  0
  3  4  1  0
  4  5  2  0
  5  6  1  0
  6  7  2  0
  7  8  1  0
  8  9  1  0
  9 10  1  0
 10 11  2  0
 11 12  1  0
 12 13  2  0
 13 14  1  0
 13 15  1  0
 15 16  1  0
 16 17  2  0
 16 18  1  0
 18 19  1  0
 19 20  2  0
 20 21  1  0
 21 22  2  0
 22 23  1  0
 23 24  1  0
 24 25  2  0
 24 26  2  0
 24 27  1  0
 27 28  1  0
 28 29  1  0
 29 30  1  0
 30 31  1  0
 31 32  1  0
 23 33  2  0
 15 34  2  0
  7  2  1  0
 34 10  1  0
 33 19  1  0
 32 27  1  0
  1 35  1  0
  1 36  1  0
  1 37  1  0
  3 38  1  0
  4 39  1  0
  5 40  1  0
  6 41  1  0
  8 42  1  0
  8 43  1  0
 12 44  1  0
 18 45  1  0
 20 46  1  0
 21 47  1  0
 22 48  1  0
 28 49  1  0
 28 50  1  0
 29 51  1  0
 29 52  1  0
 30 53  1  0
 30 54  1  0
 31 55  1  0
 31 56  1  0
 32 57  1  0
 32 58  1  0
 33 59  1  0
M  END
>  <UniqueID>  (25) 
23

>  <SMILES>  (25) 
Cc1ccccc1CSc1ncc(Cl)c(C(=O)Nc2cccc(S(=O)(=O)N3CCCCC3)c2)n1

>  <Energy>  (25) 
72.30516846383362

>  <Genealogy>  (25) 
Cc1ccccc1CSc1ncc(Cl)c(C(=O)Nc2cccc(S(=O)(=O)N3CCCCC3)c2)n1 (3D coordinates assigned)
Cc1ccccc1CSc1ncc(Cl)c(C(=O)Nc2cccc(S(=O)(=O)N3CCCCC3)c2)n1 (nonaromatic ring conformer: 72.30516846383362 kcal/mol)

>  <smiles>  (25) 
Cc1ccccc1CSc1ncc(Cl)c(C(=O)Nc2cccc(S(=O)(=O)N3CCCCC3)c2)n1

>  <score_type>  (25) 
oracle

>  <origin>  (25) 
adgpu

>  <m_score__min__energy>  (25) 
-10.98

>  <m_primary>  (25) 
energy

$$$$
25:0
     RDKit          3D

 44 47  0  0  0  0  0  0  0  0999 V2000
   -9.1210   20.4570  -32.7350 C   0  0  0  0  0  0  0  0  0  0  0  0
   -8.0760   21.3150  -32.0710 C   0  0  0  0  0  0  0  0  0  0  0  0
   -8.4020   22.6240  -31.6840 C   0  0  0  0  0  0  0  0  0  0  0  0
   -7.4540   23.4390  -31.0610 C   0  0  0  0  0  0  0  0  0  0  0  0
   -6.1560   22.9610  -30.8120 C   0  0  0  0  0  0  0  0  0  0  0  0
   -5.1410   23.8150  -30.1470 C   0  0  0  0  0  0  0  0  0  0  0  0
   -4.4090   24.5660  -30.8480 O   0  0  0  0  0  0  0  0  0  0  0  0
   -4.9900   23.8150  -28.7190 N   0  0  0  0  0  0  0  0  0  0  0  0
   -3.8920   24.5310  -28.0730 C   0  0  0  0  0  0  0  0  0  0  0  0
   -2.5710   24.0100  -28.5470 C   0  0  0  0  0  0  0  0  0  0  0  0
   -2.1390   22.7030  -28.4560 C   0  0  0  0  0  0  0  0  0  0  0  0
   -0.8650   22.6970  -28.9830 C   0  0  0  0  0  0  0  0  0  0  0  0
   -0.5990   24.0000  -29.3570 C   0  0  0  0  0  0  0  0  0  0  0  0
   -1.6340   24.7600  -29.0810 O   0  0  0  0  0  0  0  0  0  0  0  0
   -5.8350   21.6440  -31.1760 C   0  0  0  0  0  0  0  0  0  0  0  0
   -6.7840   20.8160  -31.7960 C   0  0  0  0  0  0  0  0  0  0  0  0
   -6.3990   19.4330  -32.1500 C   0  0  0  0  0  0  0  0  0  0  0  0
   -7.2640   18.3850  -31.8040 C   0  0  0  0  0  0  0  0  0  0  0  0
   -6.9410   17.0990  -32.0980 N   0  0  0  0  0  0  0  0  0  0  0  0
   -5.7870   16.7750  -32.7350 C   0  0  0  0  0  0  0  0  0  0  0  0
   -4.8860   17.7790  -33.1140 C   0  0  0  0  0  0  0  0  0  0  0  0
   -3.6930   17.4550  -33.7780 C   0  0  0  0  0  0  0  0  0  0  0  0
   -2.8070   18.4630  -34.1590 C   0  0  0  0  0  0  0  0  0  0  0  0
   -3.1040   19.8000  -33.8860 C   0  0  0  0  0  0  0  0  0  0  0  0
   -4.2890   20.1360  -33.2240 C   0  0  0  0  0  0  0  0  0  0  0  0
   -5.1930   19.1310  -32.8240 C   0  0  0  0  0  0  0  0  0  0  0  0
   -9.7287   19.9581  -31.9657 H   0  0  0  0  0  0  0  0  0  0  0  0
   -9.7686   21.0873  -33.3621 H   0  0  0  0  0  0  0  0  0  0  0  0
   -8.6288   19.6990  -33.3621 H   0  0  0  0  0  0  0  0  0  0  0  0
   -9.4138   23.0119  -31.8731 H   0  0  0  0  0  0  0  0  0  0  0  0
   -7.7254   24.4625  -30.7631 H   0  0  0  0  0  0  0  0  0  0  0  0
   -5.7090   23.3400  -28.1270 H   0  0  0  0  0  0  0  0  0  0  0  0
   -3.9664   25.6014  -28.3155 H   0  0  0  0  0  0  0  0  0  0  0  0
   -3.9625   24.3810  -26.9856 H   0  0  0  0  0  0  0  0  0  0  0  0
   -2.6945   21.8455  -28.0484 H   0  0  0  0  0  0  0  0  0  0  0  0
   -0.1957   21.8300  -29.0850 H   0  0  0  0  0  0  0  0  0  0  0  0
    0.3378   24.3483  -29.8164 H   0  0  0  0  0  0  0  0  0  0  0  0
   -4.8262   21.2554  -30.9727 H   0  0  0  0  0  0  0  0  0  0  0  0
   -8.2114   18.6061  -31.2906 H   0  0  0  0  0  0  0  0  0  0  0  0
   -5.5585   15.7216  -32.9543 H   0  0  0  0  0  0  0  0  0  0  0  0
   -3.4559   16.4038  -33.9986 H   0  0  0  0  0  0  0  0  0  0  0  0
   -1.8714   18.2038  -34.6762 H   0  0  0  0  0  0  0  0  0  0  0  0
   -2.4038   20.5910  -34.1926 H   0  0  0  0  0  0  0  0  0  0  0  0
   -4.5173   21.1914  -33.0140 H   0  0  0  0  0  0  0  0  0  0  0  0
  1  2  1  0
  2  3  2  0
  3  4  1  0
  4  5  2  0
  5  6  1  0
  6  7  2  0
  6  8  1  0
  8  9  1  0
  9 10  1  0
 10 11  2  0
 11 12  1  0
 12 13  2  0
 13 14  1  0
  5 15  1  0
 15 16  2  0
 16 17  1  0
 17 18  2  0
 18 19  1  0
 19 20  2  0
 20 21  1  0
 21 22  2  0
 22 23  1  0
 23 24  2  0
 24 25  1  0
 25 26  2  0
 16  2  1  0
 26 17  1  0
 14 10  1  0
 26 21  1  0
  1 27  1  0
  1 28  1  0
  1 29  1  0
  3 30  1  0
  4 31  1  0
  8 32  1  0
  9 33  1  0
  9 34  1  0
 11 35  1  0
 12 36  1  0
 13 37  1  0
 15 38  1  0
 18 39  1  0
 20 40  1  0
 22 41  1  0
 23 42  1  0
 24 43  1  0
 25 44  1  0
M  END
>  <UniqueID>  (26) 
24

>  <SMILES>  (26) 
Cc1ccc(C(=O)NCc2ccco2)cc1-c1cncc2ccccc12

>  <Energy>  (26) 
87.0380389924193

>  <Genealogy>  (26) 
Cc1ccc(C(=O)NCc2ccco2)cc1-c1cncc2ccccc12 (3D coordinates assigned)
Cc1ccc(C(=O)NCc2ccco2)cc1-c1cncc2ccccc12 (optimized conformer: 87.0380389924193 kcal/mol)

>  <smiles>  (26) 
Cc1ccc(C(=O)NCc2ccco2)cc1-c1cncc2ccccc12

>  <score_type>  (26) 
oracle

>  <origin>  (26) 
adgpu

>  <m_score__min__energy>  (26) 
-10.24

>  <m_primary>  (26) 
energy

$$$$
26:0
     RDKit          3D

 50 53  0  0  0  0  0  0  0  0999 V2000
   -5.9760   15.8500  -34.5750 O   0  0  0  0  0  0  0  0  0  0  0  0
   -5.4340   16.5720  -33.6960 C   0  0  0  0  0  0  0  0  0  0  0  0
   -4.1810   16.1800  -33.1180 N   0  0  0  0  0  0  0  0  0  0  0  0
   -2.8800   16.5580  -33.5870 C   0  0  0  0  0  0  0  0  0  0  0  0
   -1.9140   17.1020  -32.7200 C   0  0  0  0  0  0  0  0  0  0  0  0
   -0.6460   17.4390  -33.2020 C   0  0  0  0  0  0  0  0  0  0  0  0
   -0.3280   17.2310  -34.5480 C   0  0  0  0  0  0  0  0  0  0  0  0
   -1.2750   16.6720  -35.4090 C   0  0  0  0  0  0  0  0  0  0  0  0
   -2.5490   16.3280  -34.9320 C   0  0  0  0  0  0  0  0  0  0  0  0
   -3.4910   15.7660  -35.7920 O   0  0  0  0  0  0  0  0  0  0  0  0
   -6.1120   17.8000  -33.2250 C   0  0  0  0  0  0  0  0  0  0  0  0
   -6.2350   18.9180  -34.0680 C   0  0  0  0  0  0  0  0  0  0  0  0
   -6.8780   20.0760  -33.6210 C   0  0  0  0  0  0  0  0  0  0  0  0
   -7.3920   20.1410  -32.3200 C   0  0  0  0  0  0  0  0  0  0  0  0
   -8.1610   21.6090  -31.7230 S   0  0  0  0  0  0  0  0  0  0  0  0
   -9.5820   21.7080  -32.2010 O   0  0  0  0  0  0  0  0  0  0  0  0
   -8.1620   21.5780  -30.2210 O   0  0  0  0  0  0  0  0  0  0  0  0
   -7.2750   22.9980  -32.2620 N   0  0  0  0  0  0  0  0  0  0  0  0
   -6.1240   23.5510  -31.6090 C   0  0  0  0  0  0  0  0  0  0  0  0
   -6.0900   24.9260  -31.3560 C   0  0  0  0  0  0  0  0  0  0  0  0
   -4.9860   25.5060  -30.7220 C   0  0  0  0  0  0  0  0  0  0  0  0
   -3.9030   24.7120  -30.3340 C   0  0  0  0  0  0  0  0  0  0  0  0
   -2.8130   25.2990  -29.6990 O   0  0  0  0  0  0  0  0  0  0  0  0
   -3.9250   23.3310  -30.5830 C   0  0  0  0  0  0  0  0  0  0  0  0
   -2.5570   22.2830  -30.0790 S   0  0  0  0  0  0  0  0  0  0  0  0
   -2.4240   21.5260  -31.6940 C   0  0  0  0  0  0  0  0  0  0  0  0
   -3.3510   20.5600  -32.1010 C   0  0  0  0  0  0  0  0  0  0  0  0
   -3.2170   19.9770  -33.3620 C   0  0  0  0  0  0  0  0  0  0  0  0
   -2.1670   20.3600  -34.1980 C   0  0  0  0  0  0  0  0  0  0  0  0
   -1.2610   21.3290  -33.7570 C   0  0  0  0  0  0  0  0  0  0  0  0
   -1.4090   21.8870  -32.5270 N   0  0  0  0  0  0  0  0  0  0  0  0
   -5.0300   22.7560  -31.2220 C   0  0  0  0  0  0  0  0  0  0  0  0
   -7.2730   19.0320  -31.4750 C   0  0  0  0  0  0  0  0  0  0  0  0
   -6.6440   17.8670  -31.9240 C   0  0  0  0  0  0  0  0  0  0  0  0
   -2.1577   17.2625  -31.6594 H   0  0  0  0  0  0  0  0  0  0  0  0
    0.1035   17.8688  -32.5211 H   0  0  0  0  0  0  0  0  0  0  0  0
    0.6666   17.5073  -34.9280 H   0  0  0  0  0  0  0  0  0  0  0  0
   -1.0211   16.5007  -36.4655 H   0  0  0  0  0  0  0  0  0  0  0  0
   -4.4160   15.5060  -35.4700 H   0  0  0  0  0  0  0  0  0  0  0  0
   -5.8223   18.8815  -35.0870 H   0  0  0  0  0  0  0  0  0  0  0  0
   -6.9807   20.9399  -34.2941 H   0  0  0  0  0  0  0  0  0  0  0  0
   -6.9388   25.5570  -31.6582 H   0  0  0  0  0  0  0  0  0  0  0  0
   -4.9702   26.5887  -30.5285 H   0  0  0  0  0  0  0  0  0  0  0  0
   -4.1751   20.2638  -31.4353 H   0  0  0  0  0  0  0  0  0  0  0  0
   -3.9380   19.2166  -33.6966 H   0  0  0  0  0  0  0  0  0  0  0  0
   -2.0536   19.9044  -35.1928 H   0  0  0  0  0  0  0  0  0  0  0  0
   -0.4286   21.6396  -34.4055 H   0  0  0  0  0  0  0  0  0  0  0  0
   -5.0428   21.6746  -31.4229 H   0  0  0  0  0  0  0  0  0  0  0  0
   -7.6763   19.0771  -30.4526 H   0  0  0  0  0  0  0  0  0  0  0  0
   -6.5644   16.9969  -31.2558 H   0  0  0  0  0  0  0  0  0  0  0  0
  1  2  2  0
  2  3  1  0
  3  4  1  0
  4  5  2  0
  5  6  1  0
  6  7  2  0
  7  8  1  0
  8  9  2  0
  9 10  1  0
  2 11  1  0
 11 12  2  0
 12 13  1  0
 13 14  2  0
 14 15  1  0
 15 16  2  0
 15 17  2  0
 15 18  1  0
 18 19  1  0
 19 20  2  0
 20 21  1  0
 21 22  2  0
 22 23  1  0
 22 24  1  0
 24 25  1  0
 25 26  1  0
 26 27  2  0
 27 28  1  0
 28 29  2  0
 29 30  1  0
 30 31  2  0
 24 32  2  0
 14 33  1  0
 33 34  2  0
  9  4  1  0
 34 11  1  0
 32 19  1  0
 31 26  1  0
  5 35  1  0
  6 36  1  0
  7 37  1  0
  8 38  1  0
 10 39  1  0
 12 40  1  0
 13 41  1  0
 20 42  1  0
 21 43  1  0
 27 44  1  0
 28 45  1  0
 29 46  1  0
 30 47  1  0
 32 48  1  0
 33 49  1  0
 34 50  1  0
M  CHG  3   3  -1  18  -1  23  -1
M  END
>  <UniqueID>  (27) 
25

>  <SMILES>  (27) 
O=C([N-]c1ccccc1O)c1ccc(S(=O)(=O)[N-]c2ccc([O-])c(Sc3ccccn3)c2)cc1

>  <Energy>  (27) 
59.30760182824403

>  <Genealogy>  (27) 
O=C([N-]c1ccccc1O)c1ccc(S(=O)(=O)[N-]c2ccc([O-])c(Sc3ccccn3)c2)cc1 (protonated)
O=C([N-]c1ccccc1O)c1ccc(S(=O)(=O)[N-]c2ccc([O-])c(Sc3ccccn3)c2)cc1 (3D coordinates assigned)
O=C([N-]c1ccccc1O)c1ccc(S(=O)(=O)[N-]c2ccc([O-])c(Sc3ccccn3)c2)cc1 (optimized conformer: 59.30760182824403 kcal/mol)

>  <smiles>  (27) 
O=C(Nc1ccccc1O)c1ccc(S(=O)(=O)Nc2ccc(O)c(Sc3ccccn3)c2)cc1

>  <score_type>  (27) 
oracle

>  <origin>  (27) 
adgpu

>  <m_score__min__energy>  (27) 
-12.289999999999999

>  <m_primary>  (27) 
energy

$$$$
27:0
     RDKit          3D

 52 54  0  0  0  0  0  0  0  0999 V2000
   -6.0290   25.9327  -30.2583 H   0  0  0  0  0  0  0  0  0  0  0  0
   -5.9690   24.8500  -30.4430 C   0  0  0  0  0  0  0  0  0  0  0  0
   -7.1380   24.1150  -30.6630 C   0  0  0  0  0  0  0  0  0  0  0  0
   -8.1149   24.6201  -30.6414 H   0  0  0  0  0  0  0  0  0  0  0  0
   -7.0700   22.7370  -30.9110 C   0  0  0  0  0  0  0  0  0  0  0  0
   -8.5330   21.8100  -31.2270 S   0  0  0  0  0  0  0  0  0  0  0  0
   -9.3070   22.4110  -32.3670 O   0  0  0  0  0  0  0  0  0  0  0  0
   -9.4000   21.8300  -30.0000 O   0  0  0  0  0  0  0  0  0  0  0  0
   -8.1180   20.1730  -31.6080 N   0  0  0  0  0  0  0  0  0  0  0  0
   -7.2950   19.8690  -32.5630 C   0  0  0  0  0  0  0  0  0  0  0  0
   -6.6890   20.7410  -33.3340 O   0  0  0  0  0  0  0  0  0  0  0  0
   -5.9020   20.1360  -34.1790 N   0  0  0  0  0  0  0  0  0  0  0  0
   -6.0170   18.8110  -33.9500 C   0  0  0  0  0  0  0  0  0  0  0  0
   -5.2000   17.7740  -34.6520 C   0  0  0  0  0  0  0  0  0  0  0  0
   -4.6983   17.1372  -33.9085 H   0  0  0  0  0  0  0  0  0  0  0  0
   -5.8558   17.1551  -35.2820 H   0  0  0  0  0  0  0  0  0  0  0  0
   -4.4448   18.2668  -35.2820 H   0  0  0  0  0  0  0  0  0  0  0  0
   -6.9120   18.5960  -32.9160 C   0  0  0  0  0  0  0  0  0  0  0  0
   -7.2650   17.3070  -32.2410 C   0  0  0  0  0  0  0  0  0  0  0  0
   -7.2280   17.4423  -31.1500 H   0  0  0  0  0  0  0  0  0  0  0  0
   -8.2794   17.0031  -32.5386 H   0  0  0  0  0  0  0  0  0  0  0  0
   -6.5469   16.5286  -32.5386 H   0  0  0  0  0  0  0  0  0  0  0  0
   -5.8210   22.1030  -30.9500 C   0  0  0  0  0  0  0  0  0  0  0  0
   -5.7594   21.0241  -31.1551 H   0  0  0  0  0  0  0  0  0  0  0  0
   -4.6540   22.8380  -30.7290 C   0  0  0  0  0  0  0  0  0  0  0  0
   -3.6768   22.3345  -30.7690 H   0  0  0  0  0  0  0  0  0  0  0  0
   -4.7170   24.2100  -30.4570 C   0  0  0  0  0  0  0  0  0  0  0  0
   -3.4910   24.9320  -30.2720 N   0  0  0  0  0  0  0  0  0  0  0  0
   -2.6620   24.9190  -29.1030 C   0  0  0  0  0  0  0  0  0  0  0  0
   -1.5680   25.5440  -29.0800 O   0  0  0  0  0  0  0  0  0  0  0  0
   -3.1180   24.1750  -27.8880 C   0  0  0  0  0  0  0  0  0  0  0  0
   -4.1864   23.9333  -27.9879 H   0  0  0  0  0  0  0  0  0  0  0  0
   -2.9606   24.8026  -26.9985 H   0  0  0  0  0  0  0  0  0  0  0  0
   -2.3300   22.9020  -27.7420 C   0  0  0  0  0  0  0  0  0  0  0  0
   -0.9350   22.9190  -27.8700 C   0  0  0  0  0  0  0  0  0  0  0  0
   -0.4131   23.8717  -28.0432 H   0  0  0  0  0  0  0  0  0  0  0  0
   -0.2040   21.7340  -27.7790 C   0  0  0  0  0  0  0  0  0  0  0  0
    0.8916   21.7587  -27.8741 H   0  0  0  0  0  0  0  0  0  0  0  0
   -0.8610   20.5060  -27.5660 C   0  0  0  0  0  0  0  0  0  0  0  0
   -0.1600   19.2940  -27.4690 O   0  0  0  0  0  0  0  0  0  0  0  0
   -0.0820   18.3210  -28.5070 C   0  0  0  0  0  0  0  0  0  0  0  0
   -0.0016   17.3175  -28.0636 H   0  0  0  0  0  0  0  0  0  0  0  0
   -0.9874   18.3754  -29.1293 H   0  0  0  0  0  0  0  0  0  0  0  0
    0.8032   18.5189  -29.1293 H   0  0  0  0  0  0  0  0  0  0  0  0
   -2.2590   20.4790  -27.4470 C   0  0  0  0  0  0  0  0  0  0  0  0
   -2.8870   19.2400  -27.2410 O   0  0  0  0  0  0  0  0  0  0  0  0
   -3.2050   18.7000  -25.9620 C   0  0  0  0  0  0  0  0  0  0  0  0
   -2.8143   19.3635  -25.1764 H   0  0  0  0  0  0  0  0  0  0  0  0
   -4.2971   18.6155  -25.8609 H   0  0  0  0  0  0  0  0  0  0  0  0
   -2.7492   17.7040  -25.8609 H   0  0  0  0  0  0  0  0  0  0  0  0
   -2.9890   21.6800  -27.5410 C   0  0  0  0  0  0  0  0  0  0  0  0
   -4.0855   21.6595  -27.4560 H   0  0  0  0  0  0  0  0  0  0  0  0
  1  2  1  0
  2  3  2  0
  3  4  1  0
  3  5  1  0
  5  6  1  0
  6  7  2  0
  6  8  2  0
  6  9  1  0
  9 10  2  0
 10 11  1  0
 11 12  1  0
 12 13  1  0
 13 14  1  0
 14 15  1  0
 14 16  1  0
 14 17  1  0
 13 18  2  0
 18 19  1  0
 19 20  1  0
 19 21  1  0
 19 22  1  0
  5 23  2  0
 23 24  1  0
 23 25  1  0
 25 26  1  0
 25 27  2  0
 27 28  1  0
 28 29  1  0
 29 30  2  0
 29 31  1  0
 31 32  1  0
 31 33  1  0
 31 34  1  0
 34 35  2  0
 35 36  1  0
 35 37  1  0
 37 38  1  0
 37 39  2  0
 39 40  1  0
 40 41  1  0
 41 42  1  0
 41 43  1  0
 41 44  1  0
 39 45  1  0
 45 46  1  0
 46 47  1  0
 47 48  1  0
 47 49  1  0
 47 50  1  0
 45 51  2  0
 51 52  1  0
 27  2  1  0
 51 34  1  0
 18 10  1  0
M  CHG  2  12  -1  28  -1
M  END
>  <UniqueID>  (28) 
26

>  <SMILES>  (28) 
COc1ccc(CC(=O)[N-]c2ccc(S(=O)(=O)/N=c3\o[n-]c(C)c3C)cc2)cc1OC

>  <Energy>  (28) 
86.48051710639065

>  <Genealogy>  (28) 
COc1ccc(CC(=O)[N-]c2ccc(S(=O)(=O)N=c3o[n-]c(C)c3C)cc2)cc1OC (protonated)
COc1ccc(CC(=O)[N-]c2ccc(S(=O)(=O)/N=c3\o[n-]c(C)c3C)cc2)cc1OC (cis-trans isomerization)
COc1ccc(CC(=O)[N-]c2ccc(S(=O)(=O)/N=c3\o[n-]c(C)c3C)cc2)cc1OC (3D coordinates assigned)
COc1ccc(CC(=O)[N-]c2ccc(S(=O)(=O)/N=c3\o[n-]c(C)c3C)cc2)cc1OC (optimized conformer: 86.48051710639065 kcal/mol)

>  <smiles>  (28) 
COc1ccc(CC(=O)Nc2ccc(S(=O)(=O)N=c3o[nH]c(C)c3C)cc2)cc1OC

>  <score_type>  (28) 
oracle

>  <origin>  (28) 
adgpu

>  <m_score__min__energy>  (28) 
-12.18

>  <m_primary>  (28) 
energy

$$$$
28:0
     RDKit          3D

 46 50  0  0  0  0  0  0  0  0999 V2000
   -2.3140   19.1790  -33.6930 C   0  0  0  0  0  0  0  0  0  0  0  0
   -3.8120   19.2360  -33.6830 C   0  0  0  0  0  0  0  0  0  0  0  0
   -4.6310   18.5040  -34.5210 C   0  0  0  0  0  0  0  0  0  0  0  0
   -5.9270   18.8560  -34.2090 C   0  0  0  0  0  0  0  0  0  0  0  0
   -5.8530   19.7820  -33.1830 C   0  0  0  0  0  0  0  0  0  0  0  0
   -7.0240   20.3850  -32.5080 C   0  0  0  0  0  0  0  0  0  0  0  0
   -7.1520   21.7840  -32.4270 C   0  0  0  0  0  0  0  0  0  0  0  0
   -8.2540   22.3580  -31.7890 C   0  0  0  0  0  0  0  0  0  0  0  0
   -9.2360   21.5440  -31.2200 C   0  0  0  0  0  0  0  0  0  0  0  0
   -9.1140   20.1530  -31.2840 C   0  0  0  0  0  0  0  0  0  0  0  0
   -8.0130   19.5720  -31.9220 C   0  0  0  0  0  0  0  0  0  0  0  0
   -7.9300   18.2190  -31.9920 F   0  0  0  0  0  0  0  0  0  0  0  0
   -4.5560   20.0070  -32.8560 N   0  0  0  0  0  0  0  0  0  0  0  0
   -4.0600   20.9550  -31.8950 C   0  0  0  0  0  0  0  0  0  0  0  0
   -3.4980   20.5150  -30.6900 C   0  0  0  0  0  0  0  0  0  0  0  0
   -3.0310   21.4370  -29.7500 C   0  0  0  0  0  0  0  0  0  0  0  0
   -3.1200   22.8190  -29.9960 C   0  0  0  0  0  0  0  0  0  0  0  0
   -2.6210   23.7840  -28.9830 C   0  0  0  0  0  0  0  0  0  0  0  0
   -3.1390   23.8590  -27.7250 N   0  0  0  0  0  0  0  0  0  0  0  0
   -2.4200   24.8420  -27.1580 C   0  0  0  0  0  0  0  0  0  0  0  0
   -2.5310   25.3420  -25.8620 C   0  0  0  0  0  0  0  0  0  0  0  0
   -1.6650   26.3870  -25.4880 C   0  0  0  0  0  0  0  0  0  0  0  0
   -0.7220   26.8990  -26.4090 C   0  0  0  0  0  0  0  0  0  0  0  0
   -0.6380   26.3700  -27.7110 C   0  0  0  0  0  0  0  0  0  0  0  0
   -1.5110   25.3360  -28.0430 C   0  0  0  0  0  0  0  0  0  0  0  0
   -1.6220   24.6810  -29.2040 N   0  0  0  0  0  0  0  0  0  0  0  0
   -3.6840   23.2560  -31.2100 C   0  0  0  0  0  0  0  0  0  0  0  0
   -4.1490   22.3300  -32.1490 C   0  0  0  0  0  0  0  0  0  0  0  0
   -1.9407   19.1648  -32.6584 H   0  0  0  0  0  0  0  0  0  0  0  0
   -1.9852   18.2677  -34.2140 H   0  0  0  0  0  0  0  0  0  0  0  0
   -1.9169   20.0627  -34.2140 H   0  0  0  0  0  0  0  0  0  0  0  0
   -4.3117   17.7819  -35.2869 H   0  0  0  0  0  0  0  0  0  0  0  0
   -6.8430   18.4745  -34.6838 H   0  0  0  0  0  0  0  0  0  0  0  0
   -6.3791   22.4299  -32.8691 H   0  0  0  0  0  0  0  0  0  0  0  0
   -8.3486   23.4526  -31.7346 H   0  0  0  0  0  0  0  0  0  0  0  0
  -10.1054   21.9975  -30.7215 H   0  0  0  0  0  0  0  0  0  0  0  0
   -9.8860   19.5134  -30.8314 H   0  0  0  0  0  0  0  0  0  0  0  0
   -3.4239   19.4373  -30.4825 H   0  0  0  0  0  0  0  0  0  0  0  0
   -2.5894   21.0787  -28.8084 H   0  0  0  0  0  0  0  0  0  0  0  0
   -3.2695   24.9344  -25.1559 H   0  0  0  0  0  0  0  0  0  0  0  0
   -1.7222   26.8078  -24.4733 H   0  0  0  0  0  0  0  0  0  0  0  0
   -0.0500   27.7156  -26.1063 H   0  0  0  0  0  0  0  0  0  0  0  0
    0.0895   26.7584  -28.4389 H   0  0  0  0  0  0  0  0  0  0  0  0
   -1.0650   24.8490  -30.0700 H   0  0  0  0  0  0  0  0  0  0  0  0
   -3.7593   24.3329  -31.4211 H   0  0  0  0  0  0  0  0  0  0  0  0
   -4.5877   22.6836  -33.0937 H   0  0  0  0  0  0  0  0  0  0  0  0
  1  2  1  0
  2  3  2  0
  3  4  1  0
  4  5  2  0
  5  6  1  0
  6  7  2  0
  7  8  1  0
  8  9  2  0
  9 10  1  0
 10 11  2  0
 11 12  1  0
  5 13  1  0
 13 14  1  0
 14 15  2  0
 15 16  1  0
 16 17  2  0
 17 18  1  0
 18 19  2  0
 19 20  1  0
 20 21  2  0
 21 22  1  0
 22 23  2  0
 23 24  1  0
 24 25  2  0
 25 26  1  0
 17 27  1  0
 27 28  2  0
 13  2  1  0
 28 14  1  0
 11  6  1  0
 26 18  1  0
 25 20  1  0
  1 29  1  0
  1 30  1  0
  1 31  1  0
  3 32  1  0
  4 33  1  0
  7 34  1  0
  8 35  1  0
  9 36  1  0
 10 37  1  0
 15 38  1  0
 16 39  1  0
 21 40  1  0
 22 41  1  0
 23 42  1  0
 24 43  1  0
 26 44  1  0
 27 45  1  0
 28 46  1  0
M  END
>  <UniqueID>  (29) 
27

>  <SMILES>  (29) 
Cc1ccc(-c2ccccc2F)n1-c1ccc(-c2nc3ccccc3[nH]2)cc1

>  <Energy>  (29) 
126.50792380105891

>  <Genealogy>  (29) 
Cc1ccc(-c2ccccc2F)n1-c1ccc(-c2nc3ccccc3[nH]2)cc1 (3D coordinates assigned)
Cc1ccc(-c2ccccc2F)n1-c1ccc(-c2nc3ccccc3[nH]2)cc1 (optimized conformer: 126.50792380105891 kcal/mol)

>  <smiles>  (29) 
Cc1ccc(-c2ccccc2F)n1-c1ccc(-c2nc3ccccc3[nH]2)cc1

>  <score_type>  (29) 
oracle

>  <origin>  (29) 
adgpu

>  <m_score__min__energy>  (29) 
-9.3300000000000001

>  <m_primary>  (29) 
energy

$$$$
29:0
     RDKit          3D

 45 48  0  0  0  0  0  0  0  0999 V2000
   -2.6180   19.3110  -33.6630 C   0  0  0  0  0  0  0  0  0  0  0  0
   -3.9260   19.2100  -34.2140 O   0  0  0  0  0  0  0  0  0  0  0  0
   -4.7750   18.1000  -34.0670 C   0  0  0  0  0  0  0  0  0  0  0  0
   -4.3920   16.8210  -34.5200 C   0  0  0  0  0  0  0  0  0  0  0  0
   -5.2660   15.7380  -34.4090 C   0  0  0  0  0  0  0  0  0  0  0  0
   -6.5300   15.9140  -33.8490 C   0  0  0  0  0  0  0  0  0  0  0  0
   -6.9220   17.1720  -33.3890 C   0  0  0  0  0  0  0  0  0  0  0  0
   -6.0500   18.2720  -33.4760 C   0  0  0  0  0  0  0  0  0  0  0  0
   -6.5070   19.5840  -32.9570 C   0  0  0  0  0  0  0  0  0  0  0  0
   -5.7580   20.5170  -32.2620 C   0  0  0  0  0  0  0  0  0  0  0  0
   -6.6630   21.5250  -31.9790 C   0  0  0  0  0  0  0  0  0  0  0  0
   -6.4100   22.7850  -31.2440 C   0  0  0  0  0  0  0  0  0  0  0  0
   -7.4540   23.4880  -30.6140 C   0  0  0  0  0  0  0  0  0  0  0  0
   -7.1890   24.6690  -29.9170 C   0  0  0  0  0  0  0  0  0  0  0  0
   -5.8860   25.1680  -29.8480 C   0  0  0  0  0  0  0  0  0  0  0  0
   -4.8370   24.4910  -30.4910 C   0  0  0  0  0  0  0  0  0  0  0  0
   -3.4850   24.9660  -30.4270 N   0  0  0  0  0  0  0  0  0  0  0  0
   -2.4670   24.5090  -29.5250 C   0  0  0  0  0  0  0  0  0  0  0  0
   -1.6150   25.3380  -29.1070 O   0  0  0  0  0  0  0  0  0  0  0  0
   -2.4490   23.1190  -29.0090 C   0  0  0  0  0  0  0  0  0  0  0  0
   -2.5690   22.9000  -27.6250 C   0  0  0  0  0  0  0  0  0  0  0  0
   -2.5460   21.6020  -27.1060 C   0  0  0  0  0  0  0  0  0  0  0  0
   -2.4010   20.5100  -27.9620 C   0  0  0  0  0  0  0  0  0  0  0  0
   -2.2770   20.7120  -29.3380 C   0  0  0  0  0  0  0  0  0  0  0  0
   -2.2990   22.0080  -29.8690 C   0  0  0  0  0  0  0  0  0  0  0  0
   -2.1980   22.1870  -31.6190 Cl  0  0  0  0  0  0  0  0  0  0  0  0
   -5.1020   23.2940  -31.1660 C   0  0  0  0  0  0  0  0  0  0  0  0
   -7.8320   21.1820  -32.4700 O   0  0  0  0  0  0  0  0  0  0  0  0
   -7.7770   20.0230  -33.0590 N   0  0  0  0  0  0  0  0  0  0  0  0
   -2.6814   19.3061  -32.5648 H   0  0  0  0  0  0  0  0  0  0  0  0
   -2.0116   18.4570  -33.9991 H   0  0  0  0  0  0  0  0  0  0  0  0
   -2.1499   20.2480  -33.9991 H   0  0  0  0  0  0  0  0  0  0  0  0
   -3.3964   16.6752  -34.9645 H   0  0  0  0  0  0  0  0  0  0  0  0
   -4.9564   14.7440  -34.7642 H   0  0  0  0  0  0  0  0  0  0  0  0
   -7.2194   15.0605  -33.7695 H   0  0  0  0  0  0  0  0  0  0  0  0
   -7.9235   17.3046  -32.9538 H   0  0  0  0  0  0  0  0  0  0  0  0
   -4.6917   20.4688  -31.9963 H   0  0  0  0  0  0  0  0  0  0  0  0
   -8.4837   23.1054  -30.6709 H   0  0  0  0  0  0  0  0  0  0  0  0
   -8.0093   25.2082  -29.4206 H   0  0  0  0  0  0  0  0  0  0  0  0
   -5.6813   26.0930  -29.2890 H   0  0  0  0  0  0  0  0  0  0  0  0
   -2.6819   23.7573  -26.9450 H   0  0  0  0  0  0  0  0  0  0  0  0
   -2.6423   21.4417  -26.0220 H   0  0  0  0  0  0  0  0  0  0  0  0
   -2.3843   19.4891  -27.5526 H   0  0  0  0  0  0  0  0  0  0  0  0
   -2.1613   19.8482  -30.0091 H   0  0  0  0  0  0  0  0  0  0  0  0
   -4.2762   22.7445  -31.6416 H   0  0  0  0  0  0  0  0  0  0  0  0
  1  2  1  0
  2  3  1  0
  3  4  2  0
  4  5  1  0
  5  6  2  0
  6  7  1  0
  7  8  2  0
  8  9  1  0
  9 10  1  0
 10 11  2  0
 11 12  1  0
 12 13  2  0
 13 14  1  0
 14 15  2  0
 15 16  1  0
 16 17  1  0
 17 18  1  0
 18 19  2  0
 18 20  1  0
 20 21  2  0
 21 22  1  0
 22 23  2  0
 23 24  1  0
 24 25  2  0
 25 26  1  0
 16 27  2  0
 11 28  1  0
 28 29  1  0
  8  3  1  0
 29  9  2  0
 27 12  1  0
 25 20  1  0
  1 30  1  0
  1 31  1  0
  1 32  1  0
  4 33  1  0
  5 34  1  0
  6 35  1  0
  7 36  1  0
 10 37  1  0
 13 38  1  0
 14 39  1  0
 15 40  1  0
 21 41  1  0
 22 42  1  0
 23 43  1  0
 24 44  1  0
 27 45  1  0
M  CHG  1  17  -1
M  END
>  <UniqueID>  (30) 
28

>  <SMILES>  (30) 
COc1ccccc1-c1cc(-c2cccc([N-]C(=O)c3ccccc3Cl)c2)on1

>  <Energy>  (30) 
93.69298148641435

>  <Genealogy>  (30) 
COc1ccccc1-c1cc(-c2cccc([N-]C(=O)c3ccccc3Cl)c2)on1 (protonated)
COc1ccccc1-c1cc(-c2cccc([N-]C(=O)c3ccccc3Cl)c2)on1 (3D coordinates assigned)
COc1ccccc1-c1cc(-c2cccc([N-]C(=O)c3ccccc3Cl)c2)on1 (optimized conformer: 93.69298148641435 kcal/mol)

>  <smiles>  (30) 
COc1ccccc1-c1cc(-c2cccc(NC(=O)c3ccccc3Cl)c2)on1

>  <score_type>  (30) 
oracle

>  <origin>  (30) 
adgpu

>  <m_score__min__energy>  (30) 
-11.199999999999999

>  <m_primary>  (30) 
energy

$$$$
30:0
     RDKit          3D

 47 49  0  0  0  0  0  0  0  0999 V2000
   -1.6120   21.3060  -26.7460 C   0  0  0  0  0  0  0  0  0  0  0  0
   -2.1080   22.3650  -27.6950 C   0  0  0  0  0  0  0  0  0  0  0  0
   -3.3450   22.1510  -28.3240 C   0  0  0  0  0  0  0  0  0  0  0  0
   -3.8770   23.0990  -29.1930 C   0  0  0  0  0  0  0  0  0  0  0  0
   -3.1830   24.2760  -29.4620 C   0  0  0  0  0  0  0  0  0  0  0  0
   -3.8200   25.2780  -30.2650 N   0  0  0  0  0  0  0  0  0  0  0  0
   -5.1230   25.1010  -30.8260 C   0  0  0  0  0  0  0  0  0  0  0  0
   -6.0990   25.7220  -30.3290 O   0  0  0  0  0  0  0  0  0  0  0  0
   -5.2960   24.2750  -31.9850 N   0  0  0  0  0  0  0  0  0  0  0  0
   -6.1110   23.1000  -32.0840 C   0  0  0  0  0  0  0  0  0  0  0  0
   -5.4860   21.8680  -32.3070 C   0  0  0  0  0  0  0  0  0  0  0  0
   -6.2390   20.6930  -32.3710 C   0  0  0  0  0  0  0  0  0  0  0  0
   -7.6270   20.7360  -32.1950 C   0  0  0  0  0  0  0  0  0  0  0  0
   -8.3930   19.5170  -32.2560 C   0  0  0  0  0  0  0  0  0  0  0  0
   -9.0080   18.5380  -32.3050 N   0  0  0  0  0  0  0  0  0  0  0  0
   -8.2590   21.9650  -31.9490 C   0  0  0  0  0  0  0  0  0  0  0  0
   -9.6350   22.0270  -31.7550 O   0  0  0  0  0  0  0  0  0  0  0  0
   -7.5020   23.1420  -31.8890 C   0  0  0  0  0  0  0  0  0  0  0  0
   -1.8960   24.4720  -28.9170 C   0  0  0  0  0  0  0  0  0  0  0  0
   -1.1320   25.5810  -29.2910 O   0  0  0  0  0  0  0  0  0  0  0  0
   -1.3590   23.5350  -28.0050 C   0  0  0  0  0  0  0  0  0  0  0  0
    0.2310   23.8740  -27.2630 S   0  0  0  0  0  0  0  0  0  0  0  0
    0.9810   22.6020  -26.9880 O   0  0  0  0  0  0  0  0  0  0  0  0
    1.0660   24.6780  -28.2220 O   0  0  0  0  0  0  0  0  0  0  0  0
    0.0760   24.7920  -25.7250 C   0  0  1  0  0  0  0  0  0  0  0  0
    1.3840   25.4930  -25.3210 C   0  0  0  0  0  0  0  0  0  0  0  0
    1.0600   26.4520  -24.1790 C   0  0  0  0  0  0  0  0  0  0  0  0
   -0.5900   27.0030  -24.5030 S   0  0  0  0  0  0  0  0  0  0  0  0
   -1.4690   26.8520  -23.2940 O   0  0  0  0  0  0  0  0  0  0  0  0
   -0.6130   28.4180  -25.0070 O   0  0  0  0  0  0  0  0  0  0  0  0
   -1.0240   25.8530  -25.7730 C   0  0  0  0  0  0  0  0  0  0  0  0
   -1.7684   21.6400  -25.7097 H   0  0  0  0  0  0  0  0  0  0  0  0
   -2.1660   20.3713  -26.9176 H   0  0  0  0  0  0  0  0  0  0  0  0
   -0.5393   21.1332  -26.9176 H   0  0  0  0  0  0  0  0  0  0  0  0
   -3.9007   21.2222  -28.1274 H   0  0  0  0  0  0  0  0  0  0  0  0
   -4.8514   22.9175  -29.6702 H   0  0  0  0  0  0  0  0  0  0  0  0
   -4.3941   21.8244  -32.4328 H   0  0  0  0  0  0  0  0  0  0  0  0
   -5.7397   19.7313  -32.5602 H   0  0  0  0  0  0  0  0  0  0  0  0
   -7.9983   24.1030  -31.6885 H   0  0  0  0  0  0  0  0  0  0  0  0
   -0.1520   25.5210  -29.5350 H   0  0  0  0  0  0  0  0  0  0  0  0
   -0.1840   24.0274  -24.9782 H   0  0  0  0  0  0  0  0  0  0  0  0
    2.1213   24.7479  -24.9874 H   0  0  0  0  0  0  0  0  0  0  0  0
    1.8092   26.0397  -26.1756 H   0  0  0  0  0  0  0  0  0  0  0  0
    1.1116   25.9326  -23.2108 H   0  0  0  0  0  0  0  0  0  0  0  0
    1.7730   27.2879  -24.1248 H   0  0  0  0  0  0  0  0  0  0  0  0
   -2.0069   25.4028  -25.5699 H   0  0  0  0  0  0  0  0  0  0  0  0
   -1.0995   26.3312  -26.7607 H   0  0  0  0  0  0  0  0  0  0  0  0
  1  2  1  0
  2  3  2  0
  3  4  1  0
  4  5  2  0
  5  6  1  0
  6  7  1  0
  7  8  2  0
  7  9  1  0
  9 10  1  0
 10 11  2  0
 11 12  1  0
 12 13  2  0
 13 14  1  0
 14 15  3  0
 13 16  1  0
 16 17  1  0
 16 18  2  0
  5 19  1  0
 19 20  1  0
 19 21  2  0
 21 22  1  0
 22 23  2  0
 22 24  2  0
 22 25  1  0
 25 26  1  0
 26 27  1  0
 27 28  1  0
 28 29  2  0
 28 30  2  0
 28 31  1  0
 21  2  1  0
 31 25  1  0
 18 10  1  0
  1 32  1  0
  1 33  1  0
  1 34  1  0
  3 35  1  0
  4 36  1  0
 11 37  1  0
 12 38  1  0
 18 39  1  0
 20 40  1  0
 25 41  1  1
 26 42  1  0
 26 43  1  0
 27 44  1  0
 27 45  1  0
 31 46  1  0
 31 47  1  0
M  CHG  3   6  -1   9  -1  17  -1
M  END
>  <UniqueID>  (31) 
29

>  <SMILES>  (31) 
Cc1ccc([N-]C(=O)[N-]c2ccc(C#N)c([O-])c2)c(O)c1S(=O)(=O)[C@H]1CCS(=O)(=O)C1

>  <Energy>  (31) 
54.417162040793166

>  <Genealogy>  (31) 
Cc1ccc([N-]C(=O)[N-]c2ccc(C#N)c([O-])c2)c(O)c1S(=O)(=O)C1CCS(=O)(=O)C1 (protonated)
Cc1ccc([N-]C(=O)[N-]c2ccc(C#N)c([O-])c2)c(O)c1S(=O)(=O)[C@H]1CCS(=O)(=O)C1 (chirality)
Cc1ccc([N-]C(=O)[N-]c2ccc(C#N)c([O-])c2)c(O)c1S(=O)(=O)[C@H]1CCS(=O)(=O)C1 (3D coordinates assigned)
Cc1ccc([N-]C(=O)[N-]c2ccc(C#N)c([O-])c2)c(O)c1S(=O)(=O)[C@H]1CCS(=O)(=O)C1 (nonaromatic ring conformer: 54.417162040793166 kcal/mol)

>  <smiles>  (31) 
Cc1ccc(NC(=O)Nc2ccc(C#N)c(O)c2)c(O)c1S(=O)(=O)C1CCS(=O)(=O)C1

>  <score_type>  (31) 
oracle

>  <origin>  (31) 
adgpu

>  <m_score__min__energy>  (31) 
-12.890000000000001

>  <m_primary>  (31) 
energy

$$$$
31:0
     RDKit          3D

 51 55  0  0  0  0  0  0  0  0999 V2000
   -0.3900   15.4730  -35.2910 O   0  0  0  0  0  0  0  0  0  0  0  0
   -1.2210   16.0810  -34.5680 C   0  0  0  0  0  0  0  0  0  0  0  0
   -0.9830   16.2000  -33.1070 C   0  0  0  0  0  0  0  0  0  0  0  0
   -0.7270   17.6420  -32.7790 C   0  0  0  0  0  0  0  0  0  0  0  0
    0.6030   18.0850  -32.2930 C   0  0  0  0  0  0  0  0  0  0  0  0
    1.4460   18.8210  -33.1430 C   0  0  0  0  0  0  0  0  0  0  0  0
    2.6990   19.2470  -32.7020 C   0  0  0  0  0  0  0  0  0  0  0  0
    3.1230   18.9590  -31.4030 C   0  0  0  0  0  0  0  0  0  0  0  0
    2.2900   18.2430  -30.5250 C   0  0  0  0  0  0  0  0  0  0  0  0
    2.7280   17.9600  -29.1330 C   0  0  0  0  0  0  0  0  0  0  0  0
    2.1520   16.9020  -28.4040 C   0  0  0  0  0  0  0  0  0  0  0  0
    2.5670   16.6370  -27.0950 C   0  0  0  0  0  0  0  0  0  0  0  0
    3.5570   17.4210  -26.5000 C   0  0  0  0  0  0  0  0  0  0  0  0
    4.1370   18.4740  -27.2130 C   0  0  0  0  0  0  0  0  0  0  0  0
    5.1220   19.2530  -26.6190 O   0  0  0  0  0  0  0  0  0  0  0  0
    3.7270   18.7430  -28.5230 C   0  0  0  0  0  0  0  0  0  0  0  0
    1.0290   17.8130  -30.9780 C   0  0  0  0  0  0  0  0  0  0  0  0
   -1.6580   18.5390  -32.9300 N   0  0  0  0  0  0  0  0  0  0  0  0
   -2.9980   18.3670  -33.4280 C   0  0  0  0  0  0  0  0  0  0  0  0
   -3.9840   19.2120  -32.9000 C   0  0  0  0  0  0  0  0  0  0  0  0
   -5.2970   19.2040  -33.3960 C   0  0  0  0  0  0  0  0  0  0  0  0
   -6.3250   20.1150  -32.8270 C   0  0  0  0  0  0  0  0  0  0  0  0
   -7.6830   19.7610  -32.8560 C   0  0  0  0  0  0  0  0  0  0  0  0
   -8.6490   20.6250  -32.3400 C   0  0  0  0  0  0  0  0  0  0  0  0
   -8.2800   21.8540  -31.7890 C   0  0  0  0  0  0  0  0  0  0  0  0
   -9.2770   22.6880  -31.2920 O   0  0  0  0  0  0  0  0  0  0  0  0
   -6.9200   22.2320  -31.7420 C   0  0  0  0  0  0  0  0  0  0  0  0
   -6.4850   23.5270  -31.1600 C   0  0  0  0  0  0  0  0  0  0  0  0
   -7.1270   24.0650  -30.2200 O   0  0  0  0  0  0  0  0  0  0  0  0
   -5.3530   24.1710  -31.6490 O   0  0  0  0  0  0  0  0  0  0  0  0
   -5.9530   21.3510  -32.2680 C   0  0  0  0  0  0  0  0  0  0  0  0
   -5.6140   18.3460  -34.4590 C   0  0  0  0  0  0  0  0  0  0  0  0
   -4.6390   17.5140  -35.0090 C   0  0  0  0  0  0  0  0  0  0  0  0
   -3.3340   17.5010  -34.5040 C   0  0  0  0  0  0  0  0  0  0  0  0
   -2.3820   16.6560  -35.1640 N   0  0  0  0  0  0  0  0  0  0  0  0
   -1.8679   15.8465  -32.5575 H   0  0  0  0  0  0  0  0  0  0  0  0
   -0.1155   15.5891  -32.8168 H   0  0  0  0  0  0  0  0  0  0  0  0
    1.1153   19.0630  -34.1638 H   0  0  0  0  0  0  0  0  0  0  0  0
    3.3556   19.8119  -33.3801 H   0  0  0  0  0  0  0  0  0  0  0  0
    4.1145   19.2942  -31.0646 H   0  0  0  0  0  0  0  0  0  0  0  0
    1.3712   16.2804  -28.8666 H   0  0  0  0  0  0  0  0  0  0  0  0
    2.1120   15.8083  -26.5326 H   0  0  0  0  0  0  0  0  0  0  0  0
    3.8806   17.2101  -25.4701 H   0  0  0  0  0  0  0  0  0  0  0  0
    4.1880   19.5717  -29.0804 H   0  0  0  0  0  0  0  0  0  0  0  0
    0.3676   17.2575  -30.2968 H   0  0  0  0  0  0  0  0  0  0  0  0
   -3.7231   19.8962  -32.0792 H   0  0  0  0  0  0  0  0  0  0  0  0
   -7.9873   18.7964  -33.2883 H   0  0  0  0  0  0  0  0  0  0  0  0
   -9.7100   20.3359  -32.3673 H   0  0  0  0  0  0  0  0  0  0  0  0
   -4.8906   21.6348  -32.2408 H   0  0  0  0  0  0  0  0  0  0  0  0
   -6.6376   18.3291  -34.8614 H   0  0  0  0  0  0  0  0  0  0  0  0
   -4.8999   16.8580  -35.8526 H   0  0  0  0  0  0  0  0  0  0  0  0
  1  2  2  0
  2  3  1  0
  3  4  1  0
  4  5  1  0
  5  6  2  0
  6  7  1  0
  7  8  2  0
  8  9  1  0
  9 10  1  0
 10 11  2  0
 11 12  1  0
 12 13  2  0
 13 14  1  0
 14 15  1  0
 14 16  2  0
  9 17  2  0
  4 18  2  0
 18 19  1  0
 19 20  2  0
 20 21  1  0
 21 22  1  0
 22 23  2  0
 23 24  1  0
 24 25  2  0
 25 26  1  0
 25 27  1  0
 27 28  1  0
 28 29  2  0
 28 30  1  0
 27 31  2  0
 21 32  2  0
 32 33  1  0
 33 34  2  0
 34 35  1  0
 35  2  1  0
 17  5  1  0
 34 19  1  0
 16 10  1  0
 31 22  1  0
  3 36  1  0
  3 37  1  0
  6 38  1  0
  7 39  1  0
  8 40  1  0
 11 41  1  0
 12 42  1  0
 13 43  1  0
 16 44  1  0
 17 45  1  0
 20 46  1  0
 23 47  1  0
 24 48  1  0
 31 49  1  0
 32 50  1  0
 33 51  1  0
M  CHG  4  15  -1  26  -1  30  -1  35  -1
M  END
>  <UniqueID>  (32) 
30

>  <SMILES>  (32) 
O=C1CC(c2cccc(-c3cccc([O-])c3)c2)=Nc2cc(-c3ccc([O-])c(C(=O)[O-])c3)ccc2[N-]1

>  <Energy>  (32) 
85.57671540814884

>  <Genealogy>  (32) 
O=C1CC(c2cccc(-c3cccc([O-])c3)c2)=Nc2cc(-c3ccc([O-])c(C(=O)[O-])c3)ccc2[N-]1 (protonated)
O=C1CC(c2cccc(-c3cccc([O-])c3)c2)=Nc2cc(-c3ccc([O-])c(C(=O)[O-])c3)ccc2[N-]1 (3D coordinates assigned)
O=C1CC(c2cccc(-c3cccc([O-])c3)c2)=Nc2cc(-c3ccc([O-])c(C(=O)[O-])c3)ccc2[N-]1 (nonaromatic ring conformer: 85.57671540814884 kcal/mol)

>  <smiles>  (32) 
O=C1CC(c2cccc(-c3cccc(O)c3)c2)=Nc2cc(-c3ccc(O)c(C(=O)O)c3)ccc2N1

>  <score_type>  (32) 
oracle

>  <origin>  (32) 
adgpu

>  <m_score__min__energy>  (32) 
-14.609999999999999

>  <m_primary>  (32) 
energy

$$$$
32:0
     RDKit          3D

 40 42  0  0  0  0  0  0  0  0999 V2000
   -8.6940   21.1660  -30.6170 O   0  0  0  0  0  0  0  0  0  0  0  0
   -8.0440   21.9250  -31.7390 S   0  0  0  0  0  0  0  0  0  0  0  0
   -9.0270   22.9160  -32.2970 O   0  0  0  0  0  0  0  0  0  0  0  0
   -7.5870   20.8100  -32.9930 N   0  0  0  0  0  0  0  0  0  0  0  0
   -7.0890   19.6150  -32.8280 C   0  0  0  0  0  0  0  0  0  0  0  0
   -6.8180   19.0790  -31.5510 C   0  0  0  0  0  0  0  0  0  0  0  0
   -6.3190   17.7800  -31.4410 C   0  0  0  0  0  0  0  0  0  0  0  0
   -6.0850   17.0260  -32.5870 C   0  0  0  0  0  0  0  0  0  0  0  0
   -6.3450   17.5860  -33.8370 C   0  0  0  0  0  0  0  0  0  0  0  0
   -6.8330   18.8530  -33.9330 N   0  0  0  0  0  0  0  0  0  0  0  0
   -6.6140   22.7440  -31.1210 C   0  0  0  0  0  0  0  0  0  0  0  0
   -5.3560   22.1490  -31.2680 C   0  0  0  0  0  0  0  0  0  0  0  0
   -4.2020   22.8430  -30.8990 C   0  0  0  0  0  0  0  0  0  0  0  0
   -4.2950   24.1450  -30.3750 C   0  0  0  0  0  0  0  0  0  0  0  0
   -3.1300   24.9340  -30.0970 N   0  0  0  0  0  0  0  0  0  0  0  0
   -2.1180   24.7240  -28.7030 S   0  0  0  0  0  0  0  0  0  0  0  0
   -2.9680   24.8920  -27.4730 O   0  0  0  0  0  0  0  0  0  0  0  0
   -1.0450   25.7750  -28.7130 O   0  0  0  0  0  0  0  0  0  0  0  0
   -1.3560   23.1240  -28.7410 C   0  0  0  0  0  0  0  0  0  0  0  0
   -1.2830   22.4360  -29.9640 C   0  0  0  0  0  0  0  0  0  0  0  0
   -0.7510   21.1470  -30.0250 C   0  0  0  0  0  0  0  0  0  0  0  0
   -0.2700   20.5340  -28.8680 C   0  0  0  0  0  0  0  0  0  0  0  0
    0.4370   18.7620  -28.9520 Br  0  0  0  0  0  0  0  0  0  0  0  0
   -0.2990   21.2200  -27.6510 C   0  0  0  0  0  0  0  0  0  0  0  0
   -0.8310   22.5150  -27.5800 C   0  0  0  0  0  0  0  0  0  0  0  0
   -0.7970   23.3330  -26.0220 Cl  0  0  0  0  0  0  0  0  0  0  0  0
   -5.5590   24.7130  -30.1740 C   0  0  0  0  0  0  0  0  0  0  0  0
   -6.7140   24.0190  -30.5490 C   0  0  0  0  0  0  0  0  0  0  0  0
   -6.9988   19.6809  -30.6482 H   0  0  0  0  0  0  0  0  0  0  0  0
   -6.1109   17.3526  -30.4490 H   0  0  0  0  0  0  0  0  0  0  0  0
   -5.6990   15.9990  -32.5074 H   0  0  0  0  0  0  0  0  0  0  0  0
   -6.1550   17.0016  -34.7493 H   0  0  0  0  0  0  0  0  0  0  0  0
   -7.0240   19.2420  -34.8840 H   0  0  0  0  0  0  0  0  0  0  0  0
   -5.2760   21.1305  -31.6759 H   0  0  0  0  0  0  0  0  0  0  0  0
   -3.2163   22.3697  -31.0186 H   0  0  0  0  0  0  0  0  0  0  0  0
   -1.6488   22.9181  -30.8826 H   0  0  0  0  0  0  0  0  0  0  0  0
   -0.7110   20.6140  -30.9864 H   0  0  0  0  0  0  0  0  0  0  0  0
    0.0978   20.7412  -26.7437 H   0  0  0  0  0  0  0  0  0  0  0  0
   -5.6441   25.7107  -29.7186 H   0  0  0  0  0  0  0  0  0  0  0  0
   -7.7029   24.4752  -30.3945 H   0  0  0  0  0  0  0  0  0  0  0  0
  1  2  2  0
  2  3  2  0
  2  4  1  0
  4  5  2  3
  5  6  1  0
  6  7  2  0
  7  8  1  0
  8  9  2  0
  9 10  1  0
  2 11  1  0
 11 12  2  0
 12 13  1  0
 13 14  2  0
 14 15  1  0
 15 16  1  0
 16 17  2  0
 16 18  2  0
 16 19  1  0
 19 20  2  0
 20 21  1  0
 21 22  2  0
 22 23  1  0
 22 24  1  0
 24 25  2  0
 25 26  1  0
 14 27  1  0
 27 28  2  0
 10  5  1  0
 28 11  1  0
 25 19  1  0
  6 29  1  0
  7 30  1  0
  8 31  1  0
  9 32  1  0
 10 33  1  0
 12 34  1  0
 13 35  1  0
 20 36  1  0
 21 37  1  0
 24 38  1  0
 27 39  1  0
 28 40  1  0
M  CHG  1  15  -1
M  END
>  <UniqueID>  (33) 
31

>  <SMILES>  (33) 
O=S(=O)(N=c1cccc[nH]1)c1ccc([N-]S(=O)(=O)c2ccc(Br)cc2Cl)cc1

>  <Energy>  (33) 
52.498294102066005

>  <Genealogy>  (33) 
O=S(=O)(N=c1cccc[nH]1)c1ccc([N-]S(=O)(=O)c2ccc(Br)cc2Cl)cc1 (protonated)
O=S(=O)(N=c1cccc[nH]1)c1ccc([N-]S(=O)(=O)c2ccc(Br)cc2Cl)cc1 (3D coordinates assigned)
O=S(=O)(N=c1cccc[nH]1)c1ccc([N-]S(=O)(=O)c2ccc(Br)cc2Cl)cc1 (optimized conformer: 52.498294102066005 kcal/mol)

>  <smiles>  (33) 
O=S(=O)(N=c1cccc[nH]1)c1ccc(NS(=O)(=O)c2ccc(Br)cc2Cl)cc1

>  <score_type>  (33) 
oracle

>  <origin>  (33) 
adgpu

>  <m_score__min__energy>  (33) 
-11.73

>  <m_primary>  (33) 
energy

$$$$
33:0
     RDKit          3D

 60 64  0  0  0  0  0  0  0  0999 V2000
    0.0870   24.1600  -26.8910 C   0  0  0  0  0  0  0  0  0  0  0  0
   -1.1210   24.4420  -27.7210 C   0  0  0  0  0  0  0  0  0  0  0  0
   -2.3980   23.9770  -27.4780 C   0  0  0  0  0  0  0  0  0  0  0  0
   -3.1110   24.4950  -28.5330 C   0  0  0  0  0  0  0  0  0  0  0  0
   -4.3780   24.3040  -28.7290 N   0  0  0  0  0  0  0  0  0  0  0  0
   -5.2380   24.9520  -30.0830 S   0  0  0  0  0  0  0  0  0  0  0  0
   -5.9870   26.1870  -29.6740 O   0  0  0  0  0  0  0  0  0  0  0  0
   -4.2560   25.2840  -31.1690 O   0  0  0  0  0  0  0  0  0  0  0  0
   -6.3740   23.7440  -30.6770 C   0  0  0  0  0  0  0  0  0  0  0  0
   -6.5260   23.5400  -32.0550 C   0  0  0  0  0  0  0  0  0  0  0  0
   -7.3830   22.5460  -32.5280 C   0  0  0  0  0  0  0  0  0  0  0  0
   -8.0890   21.7350  -31.6320 C   0  0  0  0  0  0  0  0  0  0  0  0
   -8.9240   20.6980  -32.1670 N   0  0  0  0  0  0  0  0  0  0  0  0
   -8.6060   19.3040  -32.2930 C   0  0  0  0  0  0  0  0  0  0  0  0
   -9.3910   18.4290  -31.8420 O   0  0  0  0  0  0  0  0  0  0  0  0
   -7.3050   18.8940  -32.8700 C   0  0  0  0  0  0  0  0  0  0  0  0
   -7.1590   17.6320  -33.4680 C   0  0  0  0  0  0  0  0  0  0  0  0
   -5.9090   17.1990  -33.9110 C   0  0  0  0  0  0  0  0  0  0  0  0
   -4.7910   18.0250  -33.7750 C   0  0  0  0  0  0  0  0  0  0  0  0
   -4.9220   19.3120  -33.2330 C   0  0  0  0  0  0  0  0  0  0  0  0
   -3.5110   20.3620  -33.0160 S   0  0  0  0  0  0  0  0  0  0  0  0
   -3.8940   21.7590  -33.4130 O   0  0  0  0  0  0  0  0  0  0  0  0
   -2.4230   19.8970  -33.9410 O   0  0  0  0  0  0  0  0  0  0  0  0
   -2.8440   20.3520  -31.3970 N   0  0  0  0  0  0  0  0  0  0  0  0
   -3.2970   21.5170  -30.6230 C   0  0  0  0  0  0  0  0  0  0  0  0
   -2.9670   21.3000  -29.1460 C   0  0  0  0  0  0  0  0  0  0  0  0
   -1.5340   20.8760  -28.9580 C   0  0  0  0  0  0  0  0  0  0  0  0
   -0.9440   20.9730  -27.6870 C   0  0  0  0  0  0  0  0  0  0  0  0
    0.3790   20.5710  -27.4900 C   0  0  0  0  0  0  0  0  0  0  0  0
    1.1190   20.0580  -28.5570 C   0  0  0  0  0  0  0  0  0  0  0  0
    0.5340   19.9350  -29.8220 C   0  0  0  0  0  0  0  0  0  0  0  0
   -0.7970   20.3230  -30.0300 C   0  0  0  0  0  0  0  0  0  0  0  0
   -1.3740   20.2620  -31.4210 C   0  0  0  0  0  0  0  0  0  0  0  0
   -6.1810   19.7370  -32.7740 C   0  0  0  0  0  0  0  0  0  0  0  0
   -7.9770   21.9770  -30.2500 C   0  0  0  0  0  0  0  0  0  0  0  0
   -7.1190   22.9730  -29.7780 C   0  0  0  0  0  0  0  0  0  0  0  0
   -2.3120   25.2180  -29.3420 N   0  0  0  0  0  0  0  0  0  0  0  0
   -1.1220   25.1630  -28.8200 O   0  0  0  0  0  0  0  0  0  0  0  0
   -0.1779   24.2218  -25.8252 H   0  0  0  0  0  0  0  0  0  0  0  0
    0.4604   23.1505  -27.1181 H   0  0  0  0  0  0  0  0  0  0  0  0
    0.8688   24.8998  -27.1181 H   0  0  0  0  0  0  0  0  0  0  0  0
   -2.7553   23.3494  -26.6483 H   0  0  0  0  0  0  0  0  0  0  0  0
   -5.9675   24.1660  -32.7665 H   0  0  0  0  0  0  0  0  0  0  0  0
   -7.5046   22.3988  -33.6113 H   0  0  0  0  0  0  0  0  0  0  0  0
   -8.0367   16.9799  -33.5881 H   0  0  0  0  0  0  0  0  0  0  0  0
   -5.8036   16.2043  -34.3687 H   0  0  0  0  0  0  0  0  0  0  0  0
   -3.8023   17.6642  -34.0947 H   0  0  0  0  0  0  0  0  0  0  0  0
   -2.7851   22.4207  -30.9852 H   0  0  0  0  0  0  0  0  0  0  0  0
   -4.3833   21.6408  -30.7441 H   0  0  0  0  0  0  0  0  0  0  0  0
   -3.1365   22.2397  -28.5999 H   0  0  0  0  0  0  0  0  0  0  0  0
   -3.6172   20.5009  -28.7605 H   0  0  0  0  0  0  0  0  0  0  0  0
   -1.5272   21.3678  -26.8420 H   0  0  0  0  0  0  0  0  0  0  0  0
    0.8379   20.6586  -26.4942 H   0  0  0  0  0  0  0  0  0  0  0  0
    2.1637   19.7500  -28.4029 H   0  0  0  0  0  0  0  0  0  0  0  0
    1.1224   19.5311  -30.6590 H   0  0  0  0  0  0  0  0  0  0  0  0
   -0.9737   21.0992  -32.0116 H   0  0  0  0  0  0  0  0  0  0  0  0
   -1.0933   19.2981  -31.8705 H   0  0  0  0  0  0  0  0  0  0  0  0
   -6.2894   20.7397  -32.3348 H   0  0  0  0  0  0  0  0  0  0  0  0
   -8.5671   21.3798  -29.5393 H   0  0  0  0  0  0  0  0  0  0  0  0
   -7.0287   23.1518  -28.6964 H   0  0  0  0  0  0  0  0  0  0  0  0
  1  2  1  0
  2  3  2  0
  3  4  1  0
  4  5  2  3
  5  6  1  0
  6  7  2  0
  6  8  2  0
  6  9  1  0
  9 10  2  0
 10 11  1  0
 11 12  2  0
 12 13  1  0
 13 14  1  0
 14 15  2  0
 14 16  1  0
 16 17  2  0
 17 18  1  0
 18 19  2  0
 19 20  1  0
 20 21  1  0
 21 22  2  0
 21 23  2  0
 21 24  1  0
 24 25  1  0
 25 26  1  0
 26 27  1  0
 27 28  2  0
 28 29  1  0
 29 30  2  0
 30 31  1  0
 31 32  2  0
 32 33  1  0
 20 34  2  0
 12 35  1  0
 35 36  2  0
  4 37  1  0
 37 38  1  0
 38  2  1  0
 36  9  1  0
 34 16  1  0
 33 24  1  0
 32 27  1  0
  1 39  1  0
  1 40  1  0
  1 41  1  0
  3 42  1  0
 10 43  1  0
 11 44  1  0
 17 45  1  0
 18 46  1  0
 19 47  1  0
 25 48  1  0
 25 49  1  0
 26 50  1  0
 26 51  1  0
 28 52  1  0
 29 53  1  0
 30 54  1  0
 31 55  1  0
 33 56  1  0
 33 57  1  0
 34 58  1  0
 35 59  1  0
 36 60  1  0
M  CHG  2  13  -1  37  -1
M  END
>  <UniqueID>  (34) 
32

>  <SMILES>  (34) 
Cc1cc(=NS(=O)(=O)c2ccc([N-]C(=O)c3cccc(S(=O)(=O)N4CCc5ccccc5C4)c3)cc2)[n-]o1

>  <Energy>  (34) 
108.9800686621177

>  <Genealogy>  (34) 
Cc1cc(=NS(=O)(=O)c2ccc([N-]C(=O)c3cccc(S(=O)(=O)N4CCc5ccccc5C4)c3)cc2)[n-]o1 (protonated)
Cc1cc(=NS(=O)(=O)c2ccc([N-]C(=O)c3cccc(S(=O)(=O)N4CCc5ccccc5C4)c3)cc2)[n-]o1 (3D coordinates assigned)
Cc1cc(=NS(=O)(=O)c2ccc([N-]C(=O)c3cccc(S(=O)(=O)N4CCc5ccccc5C4)c3)cc2)[n-]o1 (nonaromatic ring conformer: 108.9800686621177 kcal/mol)

>  <smiles>  (34) 
Cc1cc(=NS(=O)(=O)c2ccc(NC(=O)c3cccc(S(=O)(=O)N4CCc5ccccc5C4)c3)cc2)[nH]o1

>  <score_type>  (34) 
oracle

>  <origin>  (34) 
adgpu

>  <m_score__min__energy>  (34) 
-13.57

>  <m_primary>  (34) 
energy

$$$$
34:0
     RDKit          3D

 57 59  0  0  0  0  0  0  0  0999 V2000
   -9.4560   19.6290  -32.1450 C   0  0  0  0  0  0  0  0  0  0  0  0
   -8.1720   19.1730  -31.7380 O   0  0  0  0  0  0  0  0  0  0  0  0
   -7.1650   18.7300  -32.6100 C   0  0  0  0  0  0  0  0  0  0  0  0
   -7.1500   17.4170  -33.1180 C   0  0  0  0  0  0  0  0  0  0  0  0
   -6.1530   17.0100  -34.0070 C   0  0  0  0  0  0  0  0  0  0  0  0
   -6.1660   15.7390  -34.4840 F   0  0  0  0  0  0  0  0  0  0  0  0
   -5.1530   17.9080  -34.4050 C   0  0  0  0  0  0  0  0  0  0  0  0
   -4.1250   17.4960  -35.3140 N   0  0  0  0  0  0  0  0  0  0  0  0
   -5.1580   19.2160  -33.9020 C   0  0  0  0  0  0  0  0  0  0  0  0
   -6.1550   19.6340  -33.0020 C   0  0  0  0  0  0  0  0  0  0  0  0
   -6.1330   21.0210  -32.4760 C   0  0  0  0  0  0  0  0  0  0  0  0
   -7.2220   21.8740  -32.6950 C   0  0  0  0  0  0  0  0  0  0  0  0
   -7.1980   23.1880  -32.2230 C   0  0  0  0  0  0  0  0  0  0  0  0
   -6.0790   23.6750  -31.5210 C   0  0  0  0  0  0  0  0  0  0  0  0
   -6.0190   25.0060  -31.0730 O   0  0  0  0  0  0  0  0  0  0  0  0
   -6.4480   25.4510  -29.7870 C   0  0  0  0  0  0  0  0  0  0  0  0
   -4.9860   22.8130  -31.2760 C   0  0  0  0  0  0  0  0  0  0  0  0
   -3.5210   23.4040  -30.4640 S   0  0  0  0  0  0  0  0  0  0  0  0
   -3.4880   24.9120  -30.4740 O   0  0  0  0  0  0  0  0  0  0  0  0
   -2.3210   22.8900  -31.2170 O   0  0  0  0  0  0  0  0  0  0  0  0
   -3.4140   22.8630  -28.8100 N   0  0  0  0  0  0  0  0  0  0  0  0
   -4.3730   23.5770  -27.9610 C   0  0  0  0  0  0  0  0  0  0  0  0
   -3.6120   24.5490  -27.0500 C   0  0  0  0  0  0  0  0  0  0  0  0
   -2.1130   24.2210  -26.9600 C   0  0  0  0  0  0  0  0  0  0  0  0
   -1.3160   25.4280  -26.7290 N   0  0  0  0  0  0  0  0  0  0  0  0
   -1.0670   25.9940  -25.4120 C   0  0  0  0  0  0  0  0  0  0  0  0
   -0.3420   27.3320  -25.6570 C   0  0  0  0  0  0  0  0  0  0  0  0
   -0.4710   27.6470  -27.1550 C   0  0  0  0  0  0  0  0  0  0  0  0
   -1.0040   26.3890  -27.7210 C   0  0  0  0  0  0  0  0  0  0  0  0
   -1.1760   26.1880  -28.9570 O   0  0  0  0  0  0  0  0  0  0  0  0
   -5.0170   21.5000  -31.7710 C   0  0  0  0  0  0  0  0  0  0  0  0
  -10.0668   19.8459  -31.2562 H   0  0  0  0  0  0  0  0  0  0  0  0
   -9.3466   20.5433  -32.7468 H   0  0  0  0  0  0  0  0  0  0  0  0
   -9.9478   18.8506  -32.7468 H   0  0  0  0  0  0  0  0  0  0  0  0
   -7.9308   16.7052  -32.8118 H   0  0  0  0  0  0  0  0  0  0  0  0
   -4.3600   17.1990  -36.2880 H   0  0  0  0  0  0  0  0  0  0  0  0
   -3.1230   17.4710  -35.0220 H   0  0  0  0  0  0  0  0  0  0  0  0
   -4.3748   19.9226  -34.2140 H   0  0  0  0  0  0  0  0  0  0  0  0
   -8.1023   21.5063  -33.2426 H   0  0  0  0  0  0  0  0  0  0  0  0
   -8.0600   23.8477  -32.4010 H   0  0  0  0  0  0  0  0  0  0  0  0
   -5.9095   24.8924  -29.0073 H   0  0  0  0  0  0  0  0  0  0  0  0
   -6.2360   26.5252  -29.6812 H   0  0  0  0  0  0  0  0  0  0  0  0
   -7.5292   25.2785  -29.6812 H   0  0  0  0  0  0  0  0  0  0  0  0
   -3.6200   21.8390  -28.7750 H   0  0  0  0  0  0  0  0  0  0  0  0
   -5.0768   24.1389  -28.5926 H   0  0  0  0  0  0  0  0  0  0  0  0
   -4.9327   22.8558  -27.3473 H   0  0  0  0  0  0  0  0  0  0  0  0
   -3.7267   25.5682  -27.4476 H   0  0  0  0  0  0  0  0  0  0  0  0
   -4.0349   24.4592  -26.0385 H   0  0  0  0  0  0  0  0  0  0  0  0
   -1.9492   23.5192  -26.1289 H   0  0  0  0  0  0  0  0  0  0  0  0
   -1.7978   23.7748  -27.9147 H   0  0  0  0  0  0  0  0  0  0  0  0
   -2.0163   26.1645  -24.8832 H   0  0  0  0  0  0  0  0  0  0  0  0
   -0.4647   25.3167  -24.7888 H   0  0  0  0  0  0  0  0  0  0  0  0
   -0.8105   28.1297  -25.0618 H   0  0  0  0  0  0  0  0  0  0  0  0
    0.7151   27.2650  -25.3603 H   0  0  0  0  0  0  0  0  0  0  0  0
   -1.1674   28.4816  -27.3239 H   0  0  0  0  0  0  0  0  0  0  0  0
    0.4794   27.9574  -27.6136 H   0  0  0  0  0  0  0  0  0  0  0  0
   -4.1552   20.8370  -31.6044 H   0  0  0  0  0  0  0  0  0  0  0  0
  1  2  1  0
  2  3  1  0
  3  4  2  0
  4  5  1  0
  5  6  1  0
  5  7  2  0
  7  8  1  0
  7  9  1  0
  9 10  2  0
 10 11  1  0
 11 12  2  0
 12 13  1  0
 13 14  2  0
 14 15  1  0
 15 16  1  0
 14 17  1  0
 17 18  1  0
 18 19  2  0
 18 20  2  0
 18 21  1  0
 21 22  1  0
 22 23  1  0
 23 24  1  0
 24 25  1  0
 25 26  1  0
 26 27  1  0
 27 28  1  0
 28 29  1  0
 29 30  2  0
 17 31  2  0
 10  3  1  0
 31 11  1  0
 29 25  1  0
  1 32  1  0
  1 33  1  0
  1 34  1  0
  4 35  1  0
  8 36  1  0
  8 37  1  0
  9 38  1  0
 12 39  1  0
 13 40  1  0
 16 41  1  0
 16 42  1  0
 16 43  1  0
 21 44  1  0
 22 45  1  0
 22 46  1  0
 23 47  1  0
 23 48  1  0
 24 49  1  0
 24 50  1  0
 26 51  1  0
 26 52  1  0
 27 53  1  0
 27 54  1  0
 28 55  1  0
 28 56  1  0
 31 57  1  0
M  END
>  <UniqueID>  (35) 
33

>  <SMILES>  (35) 
COc1cc(F)c(N)cc1-c1ccc(OC)c(S(=O)(=O)NCCCN2CCCC2=O)c1

>  <Energy>  (35) 
60.588082294997314

>  <Genealogy>  (35) 
COc1cc(F)c(N)cc1-c1ccc(OC)c(S(=O)(=O)NCCCN2CCCC2=O)c1 (3D coordinates assigned)
COc1cc(F)c(N)cc1-c1ccc(OC)c(S(=O)(=O)NCCCN2CCCC2=O)c1 (nonaromatic ring conformer: 60.588082294997314 kcal/mol)

>  <smiles>  (35) 
COc1cc(F)c(N)cc1-c1ccc(OC)c(S(=O)(=O)NCCCN2CCCC2=O)c1

>  <score_type>  (35) 
oracle

>  <origin>  (35) 
adgpu

>  <m_score__min__energy>  (35) 
-9.3399999999999999

>  <m_primary>  (35) 
energy

$$$$
35:0
     RDKit          3D

 35 37  0  0  0  0  0  0  0  0999 V2000
   -6.3306   17.5704  -30.2220 H   0  0  0  0  0  0  0  0  0  0  0  0
   -6.4780   17.8970  -31.2620 C   0  0  0  0  0  0  0  0  0  0  0  0
   -7.0040   19.1220  -31.5230 N   0  0  0  0  0  0  0  0  0  0  0  0
   -7.1970   19.5480  -32.8030 C   0  0  0  0  0  0  0  0  0  0  0  0
   -7.7070   20.7190  -33.0420 N   0  0  0  0  0  0  0  0  0  0  0  0
   -8.1870   21.8360  -31.8030 S   0  0  0  0  0  0  0  0  0  0  0  0
   -9.3160   22.6840  -32.3190 O   0  0  0  0  0  0  0  0  0  0  0  0
   -8.6600   21.0680  -30.6020 O   0  0  0  0  0  0  0  0  0  0  0  0
   -6.8190   22.8420  -31.3360 C   0  0  0  0  0  0  0  0  0  0  0  0
   -5.5080   22.4380  -31.6250 C   0  0  0  0  0  0  0  0  0  0  0  0
   -5.3297   21.4886  -32.1512 H   0  0  0  0  0  0  0  0  0  0  0  0
   -4.4270   23.2390  -31.2460 C   0  0  0  0  0  0  0  0  0  0  0  0
   -3.4003   22.9093  -31.4631 H   0  0  0  0  0  0  0  0  0  0  0  0
   -4.6420   24.4580  -30.5920 C   0  0  0  0  0  0  0  0  0  0  0  0
   -3.5100   25.2410  -30.1910 N   0  0  0  0  0  0  0  0  0  0  0  0
   -2.4620   24.8210  -29.3090 C   0  0  0  0  0  0  0  0  0  0  0  0
   -1.5850   25.6570  -28.9640 O   0  0  0  0  0  0  0  0  0  0  0  0
   -2.4290   23.4610  -28.7380 C   0  0  0  0  0  0  0  0  0  0  0  0
   -1.5070   22.5660  -29.0080 O   0  0  0  0  0  0  0  0  0  0  0  0
   -1.7810   21.4670  -28.3460 C   0  0  0  0  0  0  0  0  0  0  0  0
   -1.1813   20.5452  -28.3726 H   0  0  0  0  0  0  0  0  0  0  0  0
   -2.9360   21.6430  -27.6110 C   0  0  0  0  0  0  0  0  0  0  0  0
   -3.4212   20.9052  -26.9550 H   0  0  0  0  0  0  0  0  0  0  0  0
   -3.3580   22.9290  -27.8650 C   0  0  0  0  0  0  0  0  0  0  0  0
   -4.2493   23.4286  -27.4575 H   0  0  0  0  0  0  0  0  0  0  0  0
   -5.9570   24.8490  -30.2820 C   0  0  0  0  0  0  0  0  0  0  0  0
   -6.1354   25.7880  -29.7376 H   0  0  0  0  0  0  0  0  0  0  0  0
   -7.0380   24.0490  -30.6630 C   0  0  0  0  0  0  0  0  0  0  0  0
   -8.0648   24.3695  -30.4329 H   0  0  0  0  0  0  0  0  0  0  0  0
   -6.8560   18.7360  -33.8420 N   0  0  0  0  0  0  0  0  0  0  0  0
   -7.0020   19.0560  -34.8270 H   0  0  0  0  0  0  0  0  0  0  0  0
   -6.3270   17.5040  -33.6180 C   0  0  0  0  0  0  0  0  0  0  0  0
   -6.0571   16.8596  -34.4677 H   0  0  0  0  0  0  0  0  0  0  0  0
   -6.1260   17.0560  -32.3140 C   0  0  0  0  0  0  0  0  0  0  0  0
   -5.6991   16.0609  -32.1203 H   0  0  0  0  0  0  0  0  0  0  0  0
  1  2  1  0
  2  3  2  0
  3  4  1  0
  4  5  2  0
  5  6  1  0
  6  7  2  0
  6  8  2  0
  6  9  1  0
  9 10  2  0
 10 11  1  0
 10 12  1  0
 12 13  1  0
 12 14  2  0
 14 15  1  0
 15 16  1  0
 16 17  2  0
 16 18  1  0
 18 19  1  0
 19 20  1  0
 20 21  1  0
 20 22  2  0
 22 23  1  0
 22 24  1  0
 24 25  1  0
 14 26  1  0
 26 27  1  0
 26 28  2  0
 28 29  1  0
  4 30  1  0
 30 31  1  0
 30 32  1  0
 32 33  1  0
 32 34  2  0
 34 35  1  0
 34  2  1  0
 28  9  1  0
 24 18  2  0
M  CHG  1  15  -1
M  END
>  <UniqueID>  (36) 
34

>  <SMILES>  (36) 
O=C([N-]c1ccc(S(=O)(=O)/N=c2\nccc[nH]2)cc1)c1ccco1

>  <Energy>  (36) 
71.40353886200901

>  <Genealogy>  (36) 
O=C([N-]c1ccc(S(=O)(=O)N=c2nccc[nH]2)cc1)c1ccco1 (protonated)
O=C([N-]c1ccc(S(=O)(=O)/N=c2\nccc[nH]2)cc1)c1ccco1 (cis-trans isomerization)
O=C([N-]c1ccc(S(=O)(=O)/N=c2\nccc[nH]2)cc1)c1ccco1 (3D coordinates assigned)
O=C([N-]c1ccc(S(=O)(=O)/N=c2\nccc[nH]2)cc1)c1ccco1 (optimized conformer: 71.40353886200901 kcal/mol)

>  <smiles>  (36) 
O=C(Nc1ccc(S(=O)(=O)N=c2nccc[nH]2)cc1)c1ccco1

>  <score_type>  (36) 
oracle

>  <origin>  (36) 
adgpu

>  <m_score__min__energy>  (36) 
-10.109999999999999

>  <m_primary>  (36) 
energy

$$$$
36:0
     RDKit          3D

 36 38  0  0  0  0  0  0  0  0999 V2000
   -0.6368   21.4489  -32.5246 H   0  0  0  0  0  0  0  0  0  0  0  0
   -1.0430   20.6210  -31.9250 C   0  0  0  0  0  0  0  0  0  0  0  0
   -1.5570   20.8960  -30.7160 C   0  0  0  0  0  0  0  0  0  0  0  0
   -1.9589   20.0564  -30.1299 H   0  0  0  0  0  0  0  0  0  0  0  0
   -1.6230   22.2550  -30.1100 C   0  0  0  0  0  0  0  0  0  0  0  0
   -2.6540   23.1150  -30.5300 C   0  0  0  0  0  0  0  0  0  0  0  0
   -3.3759   22.7699  -31.2848 H   0  0  0  0  0  0  0  0  0  0  0  0
   -2.7720   24.4040  -29.9990 C   0  0  0  0  0  0  0  0  0  0  0  0
   -3.7980   25.2360  -30.4290 O   0  0  0  0  0  0  0  0  0  0  0  0
   -1.8580   24.8540  -29.0400 C   0  0  0  0  0  0  0  0  0  0  0  0
   -1.9790   26.1360  -28.5160 O   0  0  0  0  0  0  0  0  0  0  0  0
   -0.8260   24.0100  -28.6120 C   0  0  0  0  0  0  0  0  0  0  0  0
    0.4330   24.6050  -27.3000 Br  0  0  0  0  0  0  0  0  0  0  0  0
   -0.7080   22.7200  -29.1420 C   0  0  0  0  0  0  0  0  0  0  0  0
    0.1054   22.0628  -28.8008 H   0  0  0  0  0  0  0  0  0  0  0  0
   -0.9990   19.2560  -32.4850 C   0  0  0  0  0  0  0  0  0  0  0  0
    0.1460   18.5580  -32.6120 N   0  0  0  0  0  0  0  0  0  0  0  0
   -0.1640   17.4060  -33.1330 O   0  0  0  0  0  0  0  0  0  0  0  0
   -1.4550   17.3150  -33.3530 C   0  0  0  0  0  0  0  0  0  0  0  0
   -2.0900   16.1190  -33.9390 C   0  0  0  0  0  0  0  0  0  0  0  0
   -1.4474   15.2879  -34.2652 H   0  0  0  0  0  0  0  0  0  0  0  0
   -3.4190   16.0020  -34.0910 C   0  0  0  0  0  0  0  0  0  0  0  0
   -4.0459   16.8429  -33.7596 H   0  0  0  0  0  0  0  0  0  0  0  0
   -4.1060   14.8180  -34.6750 C   0  0  0  0  0  0  0  0  0  0  0  0
   -3.4560   14.1190  -35.7090 C   0  0  0  0  0  0  0  0  0  0  0  0
   -2.4689   14.4582  -36.0562 H   0  0  0  0  0  0  0  0  0  0  0  0
   -4.0480   12.9990  -36.3010 C   0  0  0  0  0  0  0  0  0  0  0  0
   -3.1240   12.0810  -37.7030 Br  0  0  0  0  0  0  0  0  0  0  0  0
   -5.3030   12.5590  -35.8660 C   0  0  0  0  0  0  0  0  0  0  0  0
   -5.8940   11.4450  -36.4550 O   0  0  0  0  0  0  0  0  0  0  0  0
   -5.9640   13.2440  -34.8400 C   0  0  0  0  0  0  0  0  0  0  0  0
   -7.6820   12.6590  -34.2310 Br  0  0  0  0  0  0  0  0  0  0  0  0
   -5.3720   14.3650  -34.2470 C   0  0  0  0  0  0  0  0  0  0  0  0
   -5.8979   14.8973  -33.4407 H   0  0  0  0  0  0  0  0  0  0  0  0
   -2.0570   18.4930  -32.9500 C   0  0  0  0  0  0  0  0  0  0  0  0
   -3.1233   18.7605  -32.9894 H   0  0  0  0  0  0  0  0  0  0  0  0
  1  2  1  0
  2  3  2  0
  3  4  1  0
  3  5  1  0
  5  6  2  0
  6  7  1  0
  6  8  1  0
  8  9  1  0
  8 10  2  0
 10 11  1  0
 10 12  1  0
 12 13  1  0
 12 14  2  0
 14 15  1  0
  2 16  1  0
 16 17  2  0
 17 18  1  0
 18 19  1  0
 19 20  1  0
 20 21  1  0
 20 22  2  0
 22 23  1  0
 22 24  1  0
 24 25  2  0
 25 26  1  0
 25 27  1  0
 27 28  1  0
 27 29  2  0
 29 30  1  0
 29 31  1  0
 31 32  1  0
 31 33  2  0
 33 34  1  0
 19 35  2  0
 35 36  1  0
 14  5  1  0
 35 16  1  0
 33 24  1  0
M  CHG  3   9  -1  11  -1  30  -1
M  END
>  <UniqueID>  (37) 
35

>  <SMILES>  (37) 
[O-]c1cc(/C=C/c2cc(/C=C/c3cc(Br)c([O-])c(Br)c3)on2)cc(Br)c1[O-]

>  <Energy>  (37) 
75.41197541737334

>  <Genealogy>  (37) 
[O-]c1cc(C=Cc2cc(C=Cc3cc(Br)c([O-])c(Br)c3)on2)cc(Br)c1[O-] (protonated)
[O-]c1cc(/C=C/c2cc(/C=C/c3cc(Br)c([O-])c(Br)c3)on2)cc(Br)c1[O-] (cis-trans isomerization)
[O-]c1cc(/C=C/c2cc(/C=C/c3cc(Br)c([O-])c(Br)c3)on2)cc(Br)c1[O-] (3D coordinates assigned)
[O-]c1cc(/C=C/c2cc(/C=C/c3cc(Br)c([O-])c(Br)c3)on2)cc(Br)c1[O-] (optimized conformer: 75.41197541737334 kcal/mol)

>  <smiles>  (37) 
Oc1cc(C=Cc2cc(C=Cc3cc(Br)c(O)c(Br)c3)on2)cc(Br)c1O

>  <score_type>  (37) 
oracle

>  <origin>  (37) 
adgpu

>  <m_score__min__energy>  (37) 
-9.8100000000000005

>  <m_primary>  (37) 
energy

$$$$
37:0
     RDKit          3D

 37 39  0  0  0  0  0  0  0  0999 V2000
   -8.2805   17.9324  -32.7440 H   0  0  0  0  0  0  0  0  0  0  0  0
   -8.1890   18.9980  -32.4870 C   0  0  0  0  0  0  0  0  0  0  0  0
   -9.1060   19.5870  -31.6130 C   0  0  0  0  0  0  0  0  0  0  0  0
   -9.9146   18.9827  -31.1759 H   0  0  0  0  0  0  0  0  0  0  0  0
   -8.9970   20.9450  -31.2930 C   0  0  0  0  0  0  0  0  0  0  0  0
   -9.7139   21.4021  -30.5951 H   0  0  0  0  0  0  0  0  0  0  0  0
   -7.9780   21.7260  -31.8580 C   0  0  0  0  0  0  0  0  0  0  0  0
   -7.8740   23.1140  -31.5070 N   0  0  0  0  0  0  0  0  0  0  0  0
   -8.7240   23.7170  -31.5790 H   0  0  0  0  0  0  0  0  0  0  0  0
   -6.6350   23.7490  -31.1740 C   0  0  0  0  0  0  0  0  0  0  0  0
   -5.3030   23.5700  -31.5100 C   0  0  0  0  0  0  0  0  0  0  0  0
   -4.6150   22.6750  -32.3950 N   0  0  0  0  0  0  0  0  0  0  0  0
   -3.4690   22.0850  -32.2040 C   0  0  0  0  0  0  0  0  0  0  0  0
   -2.7770   22.1360  -30.9840 C   0  0  0  0  0  0  0  0  0  0  0  0
   -3.1954   22.6970  -30.1354 H   0  0  0  0  0  0  0  0  0  0  0  0
   -1.5570   21.4730  -30.8510 C   0  0  0  0  0  0  0  0  0  0  0  0
   -1.0160   21.5210  -29.8944 H   0  0  0  0  0  0  0  0  0  0  0  0
   -1.0230   20.7640  -31.8920 N   0  0  0  0  0  0  0  0  0  0  0  0
    0.2640   20.0810  -31.6950 C   0  0  0  0  0  0  0  0  0  0  0  0
    0.4622   19.9758  -30.6181 H   0  0  0  0  0  0  0  0  0  0  0  0
    0.2253   19.0847  -32.1597 H   0  0  0  0  0  0  0  0  0  0  0  0
    1.0674   20.6714  -32.1597 H   0  0  0  0  0  0  0  0  0  0  0  0
   -1.7040   20.6620  -33.0850 C   0  0  0  0  0  0  0  0  0  0  0  0
   -1.1510   19.8670  -34.2420 C   0  0  0  0  0  0  0  0  0  0  0  0
   -0.5625   19.0209  -33.8575 H   0  0  0  0  0  0  0  0  0  0  0  0
   -1.9810   19.4874  -34.8560 H   0  0  0  0  0  0  0  0  0  0  0  0
   -0.5064   20.5131  -34.8560 H   0  0  0  0  0  0  0  0  0  0  0  0
   -2.9310   21.3260  -33.2460 C   0  0  0  0  0  0  0  0  0  0  0  0
   -3.4727   21.2478  -34.2002 H   0  0  0  0  0  0  0  0  0  0  0  0
   -4.9670   24.6750  -30.7450 C   0  0  0  0  0  0  0  0  0  0  0  0
   -3.9040   25.3010  -30.4910 O   0  0  0  0  0  0  0  0  0  0  0  0
   -6.2920   24.8370  -30.3970 C   0  0  0  0  0  0  0  0  0  0  0  0
   -6.9290   25.6540  -29.6820 O   0  0  0  0  0  0  0  0  0  0  0  0
   -7.0430   21.1190  -32.7150 C   0  0  0  0  0  0  0  0  0  0  0  0
   -6.2192   21.7143  -33.1357 H   0  0  0  0  0  0  0  0  0  0  0  0
   -7.1550   19.7630  -33.0350 C   0  0  0  0  0  0  0  0  0  0  0  0
   -6.4294   19.2976  -33.7182 H   0  0  0  0  0  0  0  0  0  0  0  0
  1  2  1  0
  2  3  2  0
  3  4  1  0
  3  5  1  0
  5  6  1  0
  5  7  2  0
  7  8  1  0
  8  9  1  0
  8 10  1  0
 10 11  2  0
 11 12  1  0
 12 13  2  0
 13 14  1  0
 14 15  1  0
 14 16  2  0
 16 17  1  0
 16 18  1  0
 18 19  1  0
 19 20  1  0
 19 21  1  0
 19 22  1  0
 18 23  1  0
 23 24  1  0
 24 25  1  0
 24 26  1  0
 24 27  1  0
 23 28  2  0
 28 29  1  0
 11 30  1  0
 30 31  2  0
 30 32  1  0
 32 33  2  0
  7 34  1  0
 34 35  1  0
 34 36  2  0
 36 37  1  0
 36  2  1  0
 32 10  1  0
 28 13  1  0
M  END
>  <UniqueID>  (38) 
36

>  <SMILES>  (38) 
Cc1c/c(=N/c2c(Nc3ccccc3)c(=O)c2=O)ccn1C

>  <Energy>  (38) 
42.36781291248817

>  <Genealogy>  (38) 
Cc1c/c(=N/c2c(Nc3ccccc3)c(=O)c2=O)ccn1C (cis-trans isomerization)
Cc1c/c(=N/c2c(Nc3ccccc3)c(=O)c2=O)ccn1C (3D coordinates assigned)
Cc1c/c(=N/c2c(Nc3ccccc3)c(=O)c2=O)ccn1C (optimized conformer: 42.36781291248817 kcal/mol)

>  <smiles>  (38) 
Cc1cc(=Nc2c(Nc3ccccc3)c(=O)c2=O)ccn1C

>  <score_type>  (38) 
oracle

>  <origin>  (38) 
adgpu

>  <m_score__min__energy>  (38) 
-8.3399999999999999

>  <m_primary>  (38) 
energy

$$$$
38:0
     RDKit          3D

 56 59  0  0  0  0  0  0  0  0999 V2000
   -9.4950   21.6890  -31.9400 C   0  0  0  0  0  0  0  0  0  0  0  0
   -8.2200   22.3370  -31.4890 C   0  0  0  0  0  0  0  0  0  0  0  0
   -7.3690   22.9440  -32.4260 C   0  0  0  0  0  0  0  0  0  0  0  0
   -6.1500   23.4970  -32.0200 C   0  0  0  0  0  0  0  0  0  0  0  0
   -5.7620   23.4300  -30.6750 C   0  0  0  0  0  0  0  0  0  0  0  0
   -4.1980   24.0460  -30.1460 S   0  0  0  0  0  0  0  0  0  0  0  0
   -3.8740   25.3530  -30.8130 O   0  0  0  0  0  0  0  0  0  0  0  0
   -4.2670   24.2720  -28.6620 O   0  0  0  0  0  0  0  0  0  0  0  0
   -2.9290   22.8770  -30.4850 C   0  0  0  0  0  0  0  0  0  0  0  0
   -2.9970   22.0740  -31.5780 N   0  0  0  0  0  0  0  0  0  0  0  0
   -1.9060   21.2830  -31.6910 C   0  0  0  0  0  0  0  0  0  0  0  0
   -1.6780   20.1560  -33.0110 S   0  0  0  0  0  0  0  0  0  0  0  0
   -0.2230   19.7860  -33.1060 O   0  0  0  0  0  0  0  0  0  0  0  0
   -2.0990   20.8170  -34.2950 O   0  0  0  0  0  0  0  0  0  0  0  0
   -2.6510   18.6870  -32.7220 C   0  0  0  0  0  0  0  0  0  0  0  0
   -4.1110   18.9850  -32.9190 C   0  0  0  0  0  0  0  0  0  0  0  0
   -4.8820   19.4890  -31.8580 C   0  0  0  0  0  0  0  0  0  0  0  0
   -6.2510   19.7160  -32.0290 C   0  0  0  0  0  0  0  0  0  0  0  0
   -6.8610   19.4350  -33.2560 C   0  0  0  0  0  0  0  0  0  0  0  0
   -6.1030   18.9260  -34.3140 C   0  0  0  0  0  0  0  0  0  0  0  0
   -4.7340   18.6960  -34.1460 C   0  0  0  0  0  0  0  0  0  0  0  0
   -0.7960   21.5410  -30.4510 S   0  0  0  0  0  0  0  0  0  0  0  0
   -1.7630   22.7160  -29.7320 C   0  0  0  0  0  0  0  0  0  0  0  0
   -1.4040   23.4270  -28.5410 N   0  0  0  0  0  0  0  0  0  0  0  0
   -1.2410   22.6580  -27.2950 C   0  0  0  0  0  0  0  0  0  0  0  0
   -0.8720   23.5320  -26.0790 C   0  0  0  0  0  0  0  0  0  0  0  0
   -0.2090   24.7230  -26.4590 O   0  0  0  0  0  0  0  0  0  0  0  0
   -1.0830   25.5090  -27.2390 C   0  0  1  0  0  0  0  0  0  0  0  0
   -0.5290   26.9310  -27.3450 C   0  0  0  0  0  0  0  0  0  0  0  0
   -1.2270   24.8790  -28.6240 C   0  0  0  0  0  0  0  0  0  0  0  0
   -6.6130   22.8280  -29.7390 C   0  0  0  0  0  0  0  0  0  0  0  0
   -7.8320   22.2790  -30.1430 C   0  0  0  0  0  0  0  0  0  0  0  0
  -10.0848   21.3893  -31.0612 H   0  0  0  0  0  0  0  0  0  0  0  0
  -10.0746   22.4019  -32.5448 H   0  0  0  0  0  0  0  0  0  0  0  0
   -9.2608   20.8005  -32.5448 H   0  0  0  0  0  0  0  0  0  0  0  0
   -7.6624   22.9850  -33.4854 H   0  0  0  0  0  0  0  0  0  0  0  0
   -5.4953   23.9849  -32.7571 H   0  0  0  0  0  0  0  0  0  0  0  0
   -2.3419   17.9017  -33.4275 H   0  0  0  0  0  0  0  0  0  0  0  0
   -2.4901   18.3472  -31.6882 H   0  0  0  0  0  0  0  0  0  0  0  0
   -4.4071   19.7057  -30.8898 H   0  0  0  0  0  0  0  0  0  0  0  0
   -6.8493   20.1162  -31.1972 H   0  0  0  0  0  0  0  0  0  0  0  0
   -7.9381   19.6148  -33.3882 H   0  0  0  0  0  0  0  0  0  0  0  0
   -6.5833   18.7063  -35.2789 H   0  0  0  0  0  0  0  0  0  0  0  0
   -4.1416   18.2870  -34.9777 H   0  0  0  0  0  0  0  0  0  0  0  0
   -2.1873   22.1408  -27.0782 H   0  0  0  0  0  0  0  0  0  0  0  0
   -0.4097   21.9553  -27.4538 H   0  0  0  0  0  0  0  0  0  0  0  0
   -1.7936   23.7961  -25.5397 H   0  0  0  0  0  0  0  0  0  0  0  0
   -0.1876   22.9528  -25.4417 H   0  0  0  0  0  0  0  0  0  0  0  0
   -2.0753   25.5535  -26.7665 H   0  0  0  0  0  0  0  0  0  0  0  0
   -0.3701   27.3388  -26.3358 H   0  0  0  0  0  0  0  0  0  0  0  0
    0.4276   26.9123  -27.8877 H   0  0  0  0  0  0  0  0  0  0  0  0
   -1.2461   27.5644  -27.8877 H   0  0  0  0  0  0  0  0  0  0  0  0
   -2.1022   25.3171  -29.1260 H   0  0  0  0  0  0  0  0  0  0  0  0
   -0.3064   25.0812  -29.1910 H   0  0  0  0  0  0  0  0  0  0  0  0
   -6.3194   22.7875  -28.6797 H   0  0  0  0  0  0  0  0  0  0  0  0
   -8.4896   21.7997  -29.4029 H   0  0  0  0  0  0  0  0  0  0  0  0
  1  2  1  0
  2  3  2  0
  3  4  1  0
  4  5  2  0
  5  6  1  0
  6  7  2  0
  6  8  2  0
  6  9  1  0
  9 10  1  0
 10 11  2  0
 11 12  1  0
 12 13  2  0
 12 14  2  0
 12 15  1  0
 15 16  1  0
 16 17  2  0
 17 18  1  0
 18 19  2  0
 19 20  1  0
 20 21  2  0
 11 22  1  0
 22 23  1  0
 23 24  1  0
 24 25  1  0
 25 26  1  0
 26 27  1  0
 27 28  1  0
 28 29  1  0
 28 30  1  0
  5 31  1  0
 31 32  2  0
 32  2  1  0
 23  9  2  0
 30 24  1  0
 21 16  1  0
  1 33  1  0
  1 34  1  0
  1 35  1  0
  3 36  1  0
  4 37  1  0
 15 38  1  0
 15 39  1  0
 17 40  1  0
 18 41  1  0
 19 42  1  0
 20 43  1  0
 21 44  1  0
 25 45  1  0
 25 46  1  0
 26 47  1  0
 26 48  1  0
 28 49  1  1
 29 50  1  0
 29 51  1  0
 29 52  1  0
 30 53  1  0
 30 54  1  0
 31 55  1  0
 32 56  1  0
M  END
>  <UniqueID>  (39) 
37

>  <SMILES>  (39) 
Cc1ccc(S(=O)(=O)c2nc(S(=O)(=O)Cc3ccccc3)sc2N2CCO[C@@H](C)C2)cc1

>  <Energy>  (39) 
91.02762772688334

>  <Genealogy>  (39) 
Cc1ccc(S(=O)(=O)c2nc(S(=O)(=O)Cc3ccccc3)sc2N2CCO[C@@H](C)C2)cc1 (chirality)
Cc1ccc(S(=O)(=O)c2nc(S(=O)(=O)Cc3ccccc3)sc2N2CCO[C@@H](C)C2)cc1 (3D coordinates assigned)
Cc1ccc(S(=O)(=O)c2nc(S(=O)(=O)Cc3ccccc3)sc2N2CCO[C@@H](C)C2)cc1 (nonaromatic ring conformer: 91.02762772688334 kcal/mol)

>  <smiles>  (39) 
Cc1ccc(S(=O)(=O)c2nc(S(=O)(=O)Cc3ccccc3)sc2N2CCOC(C)C2)cc1

>  <score_type>  (39) 
oracle

>  <origin>  (39) 
adgpu

>  <m_score__min__energy>  (39) 
-10.33

>  <m_primary>  (39) 
energy

$$$$
39:0
     RDKit          3D

 26 27  0  0  0  0  0  0  0  0999 V2000
   -4.0322   20.1619  -33.3379 H   0  0  0  0  0  0  0  0  0  0  0  0
   -4.9940   19.7810  -32.9640 C   0  0  0  0  0  0  0  0  0  0  0  0
   -5.7020   20.5580  -32.1290 C   0  0  0  0  0  0  0  0  0  0  0  0
   -6.6636   20.1765  -31.7551 H   0  0  0  0  0  0  0  0  0  0  0  0
   -5.2610   21.9020  -31.6820 C   0  0  0  0  0  0  0  0  0  0  0  0
   -3.9270   22.0690  -31.2700 C   0  0  0  0  0  0  0  0  0  0  0  0
   -3.2423   21.2082  -31.2783 H   0  0  0  0  0  0  0  0  0  0  0  0
   -3.4630   23.3190  -30.8500 C   0  0  0  0  0  0  0  0  0  0  0  0
   -2.4195   23.4353  -30.5220 H   0  0  0  0  0  0  0  0  0  0  0  0
   -4.3220   24.4210  -30.8460 C   0  0  0  0  0  0  0  0  0  0  0  0
   -3.8590   25.6610  -30.4270 O   0  0  0  0  0  0  0  0  0  0  0  0
   -5.6450   24.2740  -31.2690 C   0  0  0  0  0  0  0  0  0  0  0  0
   -6.3195   25.1430  -31.2719 H   0  0  0  0  0  0  0  0  0  0  0  0
   -6.1150   23.0250  -31.6890 C   0  0  0  0  0  0  0  0  0  0  0  0
   -7.1564   22.9179  -32.0266 H   0  0  0  0  0  0  0  0  0  0  0  0
   -5.4370   18.4360  -33.4110 C   0  0  0  0  0  0  0  0  0  0  0  0
   -6.6930   17.9680  -32.9870 C   0  0  0  0  0  0  0  0  0  0  0  0
   -7.3224   18.6016  -32.3449 H   0  0  0  0  0  0  0  0  0  0  0  0
   -7.1490   16.7050  -33.3740 C   0  0  0  0  0  0  0  0  0  0  0  0
   -8.1374   16.3533  -33.0434 H   0  0  0  0  0  0  0  0  0  0  0  0
   -6.3520   15.8880  -34.1800 C   0  0  0  0  0  0  0  0  0  0  0  0
   -6.8070   14.6330  -34.5630 O   0  0  0  0  0  0  0  0  0  0  0  0
   -5.0950   16.3340  -34.5950 C   0  0  0  0  0  0  0  0  0  0  0  0
   -4.4654   15.6893  -35.2259 H   0  0  0  0  0  0  0  0  0  0  0  0
   -4.6340   17.5980  -34.2110 C   0  0  0  0  0  0  0  0  0  0  0  0
   -3.6398   17.9396  -34.5350 H   0  0  0  0  0  0  0  0  0  0  0  0
  1  2  1  0
  2  3  2  0
  3  4  1  0
  3  5  1  0
  5  6  2  0
  6  7  1  0
  6  8  1  0
  8  9  1  0
  8 10  2  0
 10 11  1  0
 10 12  1  0
 12 13  1  0
 12 14  2  0
 14 15  1  0
  2 16  1  0
 16 17  2  0
 17 18  1  0
 17 19  1  0
 19 20  1  0
 19 21  2  0
 21 22  1  0
 21 23  1  0
 23 24  1  0
 23 25  2  0
 25 26  1  0
 14  5  1  0
 25 16  1  0
M  CHG  2  11  -1  22  -1
M  END
>  <UniqueID>  (40) 
38

>  <SMILES>  (40) 
[O-]c1ccc(/C=C/c2ccc([O-])cc2)cc1

>  <Energy>  (40) 
32.114318103775474

>  <Genealogy>  (40) 
[O-]c1ccc(C=Cc2ccc([O-])cc2)cc1 (protonated)
[O-]c1ccc(/C=C/c2ccc([O-])cc2)cc1 (cis-trans isomerization)
[O-]c1ccc(/C=C/c2ccc([O-])cc2)cc1 (3D coordinates assigned)
[O-]c1ccc(/C=C/c2ccc([O-])cc2)cc1 (optimized conformer: 32.114318103775474 kcal/mol)

>  <smiles>  (40) 
Oc1ccc(C=Cc2ccc(O)cc2)cc1

>  <score_type>  (40) 
oracle

>  <origin>  (40) 
adgpu

>  <m_score__min__energy>  (40) 
-8.9299999999999997

>  <m_primary>  (40) 
energy

$$$$
40:0
     RDKit          3D

 53 55  0  0  0  0  0  0  0  0999 V2000
   -0.2550   17.6840  -31.0620 O   0  0  0  0  0  0  0  0  0  0  0  0
   -0.7530   18.0090  -32.1740 C   0  0  0  0  0  0  0  0  0  0  0  0
   -1.8440   17.1780  -32.7730 C   0  0  0  0  0  0  0  0  0  0  0  0
   -1.9590   17.4490  -34.2790 C   0  0  0  0  0  0  0  0  0  0  0  0
   -2.0340   16.1530  -35.1030 C   0  0  0  0  0  0  0  0  0  0  0  0
   -3.3270   15.3660  -34.8420 C   0  0  0  0  0  0  0  0  0  0  0  0
   -4.5860   16.2330  -34.9670 C   0  0  0  0  0  0  0  0  0  0  0  0
   -5.3450   16.2220  -33.7560 O   0  0  0  0  0  0  0  0  0  0  0  0
   -6.0030   17.3170  -33.1710 C   0  0  0  0  0  0  0  0  0  0  0  0
   -7.4040   17.3990  -33.0510 C   0  0  0  0  0  0  0  0  0  0  0  0
   -8.0060   18.5130  -32.4560 C   0  0  0  0  0  0  0  0  0  0  0  0
   -9.3940   18.5480  -32.3570 O   0  0  0  0  0  0  0  0  0  0  0  0
   -7.2070   19.5730  -31.9690 C   0  0  0  0  0  0  0  0  0  0  0  0
   -7.7420   20.7250  -31.3610 C   0  0  0  0  0  0  0  0  0  0  0  0
   -8.9860   20.8800  -31.2250 O   0  0  0  0  0  0  0  0  0  0  0  0
   -6.8810   21.7220  -30.8990 C   0  0  0  0  0  0  0  0  0  0  0  0
   -5.4930   21.5580  -31.0440 C   0  0  0  0  0  0  0  0  0  0  0  0
   -4.5270   22.5800  -30.5670 C   0  0  0  0  0  0  0  0  0  0  0  0
   -3.2900   22.2210  -29.9930 C   0  0  0  0  0  0  0  0  0  0  0  0
   -2.3970   23.2080  -29.5630 C   0  0  0  0  0  0  0  0  0  0  0  0
   -2.7180   24.5590  -29.7060 C   0  0  0  0  0  0  0  0  0  0  0  0
   -1.8240   25.5320  -29.2750 O   0  0  0  0  0  0  0  0  0  0  0  0
   -3.9350   24.9290  -30.2870 C   0  0  0  0  0  0  0  0  0  0  0  0
   -4.2570   26.2720  -30.4380 O   0  0  0  0  0  0  0  0  0  0  0  0
   -4.8320   23.9460  -30.7190 C   0  0  0  0  0  0  0  0  0  0  0  0
   -5.0230   20.4630  -31.6390 O   0  0  0  0  0  0  0  0  0  0  0  0
   -5.8020   19.4870  -32.0950 C   0  0  0  0  0  0  0  0  0  0  0  0
   -5.2170   18.3720  -32.7000 C   0  0  0  0  0  0  0  0  0  0  0  0
   -0.2650   19.1540  -32.8820 N   0  0  0  0  0  0  0  0  0  0  0  0
   -1.0100   20.4010  -33.0130 C   0  0  0  0  0  0  0  0  0  0  0  0
   -0.6770   21.3470  -31.8600 C   0  0  0  0  0  0  0  0  0  0  0  0
    0.2070   20.7280  -30.9640 O   0  0  0  0  0  0  0  0  0  0  0  0
   -1.6180   16.1135  -32.6127 H   0  0  0  0  0  0  0  0  0  0  0  0
   -2.7971   17.4396  -32.2901 H   0  0  0  0  0  0  0  0  0  0  0  0
   -2.8693   18.0383  -34.4635 H   0  0  0  0  0  0  0  0  0  0  0  0
   -1.0562   17.9940  -34.5919 H   0  0  0  0  0  0  0  0  0  0  0  0
   -1.9871   16.4107  -36.1714 H   0  0  0  0  0  0  0  0  0  0  0  0
   -1.1883   15.5164  -34.8038 H   0  0  0  0  0  0  0  0  0  0  0  0
   -3.3919   14.5449  -35.5711 H   0  0  0  0  0  0  0  0  0  0  0  0
   -3.2840   14.9916  -33.8086 H   0  0  0  0  0  0  0  0  0  0  0  0
   -4.2880   17.2673  -35.1940 H   0  0  0  0  0  0  0  0  0  0  0  0
   -5.2119   15.8231  -35.7734 H   0  0  0  0  0  0  0  0  0  0  0  0
   -8.0315   16.5785  -33.4291 H   0  0  0  0  0  0  0  0  0  0  0  0
   -7.2858   22.6285  -30.4253 H   0  0  0  0  0  0  0  0  0  0  0  0
   -3.0259   21.1589  -29.8828 H   0  0  0  0  0  0  0  0  0  0  0  0
   -1.4374   22.9183  -29.1101 H   0  0  0  0  0  0  0  0  0  0  0  0
   -5.7846   24.2433  -31.1818 H   0  0  0  0  0  0  0  0  0  0  0  0
   -4.1233   18.3239  -32.8070 H   0  0  0  0  0  0  0  0  0  0  0  0
   -0.7441   20.8832  -33.9652 H   0  0  0  0  0  0  0  0  0  0  0  0
   -2.0866   20.1764  -32.9893 H   0  0  0  0  0  0  0  0  0  0  0  0
   -0.2087   22.2578  -32.2613 H   0  0  0  0  0  0  0  0  0  0  0  0
   -1.6048   21.6042  -31.3280 H   0  0  0  0  0  0  0  0  0  0  0  0
    0.2720   19.7770  -31.2400 H   0  0  0  0  0  0  0  0  0  0  0  0
  1  2  2  0
  2  3  1  0
  3  4  1  0
  4  5  1  0
  5  6  1  0
  6  7  1  0
  7  8  1  0
  8  9  1  0
  9 10  2  0
 10 11  1  0
 11 12  1  0
 11 13  2  0
 13 14  1  0
 14 15  2  0
 14 16  1  0
 16 17  2  0
 17 18  1  0
 18 19  2  0
 19 20  1  0
 20 21  2  0
 21 22  1  0
 21 23  1  0
 23 24  1  0
 23 25  2  0
 17 26  1  0
 26 27  1  0
 27 28  2  0
  2 29  1  0
 29 30  1  0
 30 31  1  0
 31 32  1  0
 28  9  1  0
 27 13  1  0
 25 18  1  0
  3 33  1  0
  3 34  1  0
  4 35  1  0
  4 36  1  0
  5 37  1  0
  5 38  1  0
  6 39  1  0
  6 40  1  0
  7 41  1  0
  7 42  1  0
 10 43  1  0
 16 44  1  0
 19 45  1  0
 20 46  1  0
 25 47  1  0
 28 48  1  0
 30 49  1  0
 30 50  1  0
 31 51  1  0
 31 52  1  0
 32 53  1  0
M  CHG  4  12  -1  22  -1  24  -1  29  -1
M  END
>  <UniqueID>  (41) 
39

>  <SMILES>  (41) 
O=C(CCCCCOc1cc([O-])c2c(=O)cc(-c3ccc([O-])c([O-])c3)oc2c1)[N-]CCO

>  <Energy>  (41) 
55.34272366718887

>  <Genealogy>  (41) 
O=C(CCCCCOc1cc([O-])c2c(=O)cc(-c3ccc([O-])c([O-])c3)oc2c1)[N-]CCO (protonated)
O=C(CCCCCOc1cc([O-])c2c(=O)cc(-c3ccc([O-])c([O-])c3)oc2c1)[N-]CCO (3D coordinates assigned)
O=C(CCCCCOc1cc([O-])c2c(=O)cc(-c3ccc([O-])c([O-])c3)oc2c1)[N-]CCO (optimized conformer: 55.34272366718887 kcal/mol)

>  <smiles>  (41) 
O=C(CCCCCOc1cc(O)c2c(=O)cc(-c3ccc(O)c(O)c3)oc2c1)NCCO

>  <score_type>  (41) 
oracle

>  <origin>  (41) 
adgpu

>  <m_score__min__energy>  (41) 
-12.18

>  <m_primary>  (41) 
energy

$$$$
41:0
     RDKit          3D

 35 37  0  0  0  0  0  0  0  0999 V2000
   -4.1690   16.4740  -35.3260 C   0  0  0  0  0  0  0  0  0  0  0  0
   -5.1230   17.5260  -35.2230 O   0  0  0  0  0  0  0  0  0  0  0  0
   -5.0900   18.5320  -34.2440 C   0  0  0  0  0  0  0  0  0  0  0  0
   -3.8850   19.1000  -33.7880 C   0  0  0  0  0  0  0  0  0  0  0  0
   -3.9000   20.1000  -32.8110 C   0  0  0  0  0  0  0  0  0  0  0  0
   -5.1160   20.5470  -32.2750 C   0  0  0  0  0  0  0  0  0  0  0  0
   -5.1390   21.5510  -31.2960 C   0  0  0  0  0  0  0  0  0  0  0  0
   -6.3610   22.0000  -30.7670 C   0  0  0  0  0  0  0  0  0  0  0  0
   -6.3900   23.0920  -29.7310 C   0  0  0  0  0  0  0  0  0  0  0  0
   -5.2120   24.0120  -29.8910 C   0  0  0  0  0  0  0  0  0  0  0  0
   -3.9650   23.9590  -29.2740 C   0  0  0  0  0  0  0  0  0  0  0  0
   -3.4860   22.9410  -28.2830 C   0  0  0  0  0  0  0  0  0  0  0  0
   -2.9640   21.8410  -28.9390 F   0  0  0  0  0  0  0  0  0  0  0  0
   -2.5130   23.5020  -27.4780 F   0  0  0  0  0  0  0  0  0  0  0  0
   -4.5390   22.5250  -27.4900 F   0  0  0  0  0  0  0  0  0  0  0  0
   -3.1710   24.9320  -29.7770 N   0  0  0  0  0  0  0  0  0  0  0  0
   -3.8680   25.6060  -30.6780 N   0  0  0  0  0  0  0  0  0  0  0  0
   -5.0940   25.0680  -30.7700 C   0  0  0  0  0  0  0  0  0  0  0  0
   -5.9860   25.4770  -31.5600 O   0  0  0  0  0  0  0  0  0  0  0  0
   -7.5610   21.4310  -31.2230 C   0  0  0  0  0  0  0  0  0  0  0  0
   -7.5470   20.4300  -32.1970 C   0  0  0  0  0  0  0  0  0  0  0  0
   -6.3300   19.9820  -32.7300 C   0  0  0  0  0  0  0  0  0  0  0  0
   -6.3050   18.9780  -33.7100 C   0  0  0  0  0  0  0  0  0  0  0  0
   -3.8729   16.1475  -34.3181 H   0  0  0  0  0  0  0  0  0  0  0  0
   -4.6138   15.6275  -35.8697 H   0  0  0  0  0  0  0  0  0  0  0  0
   -3.2832   16.8342  -35.8697 H   0  0  0  0  0  0  0  0  0  0  0  0
   -2.9264   18.7550  -34.2028 H   0  0  0  0  0  0  0  0  0  0  0  0
   -2.9535   20.5380  -32.4613 H   0  0  0  0  0  0  0  0  0  0  0  0
   -4.1950   21.9895  -30.9402 H   0  0  0  0  0  0  0  0  0  0  0  0
   -7.3180   23.6716  -29.8440 H   0  0  0  0  0  0  0  0  0  0  0  0
   -6.3447   22.6319  -28.7329 H   0  0  0  0  0  0  0  0  0  0  0  0
   -3.5000   26.4130  -31.2270 H   0  0  0  0  0  0  0  0  0  0  0  0
   -8.5201   21.7765  -30.8097 H   0  0  0  0  0  0  0  0  0  0  0  0
   -8.4934   19.9919  -32.5469 H   0  0  0  0  0  0  0  0  0  0  0  0
   -7.2492   18.5370  -34.0621 H   0  0  0  0  0  0  0  0  0  0  0  0
  1  2  1  0
  2  3  1  0
  3  4  2  0
  4  5  1  0
  5  6  2  0
  6  7  1  0
  7  8  2  0
  8  9  1  0
  9 10  1  0
 10 11  2  0
 11 12  1  0
 12 13  1  0
 12 14  1  0
 12 15  1  0
 11 16  1  0
 16 17  1  0
 17 18  1  0
 18 19  2  0
  8 20  1  0
 20 21  2  0
 21 22  1  0
 22 23  2  0
 23  3  1  0
 22  6  1  0
 18 10  1  0
  1 24  1  0
  1 25  1  0
  1 26  1  0
  4 27  1  0
  5 28  1  0
  7 29  1  0
  9 30  1  0
  9 31  1  0
 17 32  1  0
 20 33  1  0
 21 34  1  0
 23 35  1  0
M  CHG  1  16  -1
M  END
>  <UniqueID>  (42) 
40

>  <SMILES>  (42) 
COc1ccc2cc(Cc3c(C(F)(F)F)[n-][nH]c3=O)ccc2c1

>  <Energy>  (42) 
69.37045516189501

>  <Genealogy>  (42) 
COc1ccc2cc(Cc3c(C(F)(F)F)[n-][nH]c3=O)ccc2c1 (protonated)
COc1ccc2cc(Cc3c(C(F)(F)F)[n-][nH]c3=O)ccc2c1 (3D coordinates assigned)
COc1ccc2cc(Cc3c(C(F)(F)F)[n-][nH]c3=O)ccc2c1 (optimized conformer: 69.37045516189501 kcal/mol)

>  <smiles>  (42) 
COc1ccc2cc(Cc3c(C(F)(F)F)[nH][nH]c3=O)ccc2c1

>  <score_type>  (42) 
oracle

>  <origin>  (42) 
adgpu

>  <m_score__min__energy>  (42) 
-8.7300000000000004

>  <m_primary>  (42) 
energy

$$$$
42:0
     RDKit          3D

 28 29  0  0  0  0  0  0  0  0999 V2000
   -4.2750   25.6670  -30.7890 O   0  0  0  0  0  0  0  0  0  0  0  0
   -3.8730   24.5170  -30.4690 C   0  0  0  0  0  0  0  0  0  0  0  0
   -3.0760   24.3530  -29.2090 C   0  0  0  0  0  0  0  0  0  0  0  0
   -1.9640   25.2930  -29.2100 N   0  0  0  0  0  0  0  0  0  0  0  0
   -0.9090   25.3400  -28.2400 C   0  0  0  0  0  0  0  0  0  0  0  0
    0.1700   24.7470  -28.5010 O   0  0  0  0  0  0  0  0  0  0  0  0
   -1.0400   26.0550  -26.9530 C   0  0  0  0  0  0  0  0  0  0  0  0
   -1.6940   25.5740  -25.8340 C   0  0  0  0  0  0  0  0  0  0  0  0
   -1.5710   26.5570  -24.8770 C   0  0  0  0  0  0  0  0  0  0  0  0
   -0.8510   27.5760  -25.4650 C   0  0  0  0  0  0  0  0  0  0  0  0
   -0.5490   27.2470  -26.7000 O   0  0  0  0  0  0  0  0  0  0  0  0
   -4.2540   23.3990  -31.2840 N   0  0  0  0  0  0  0  0  0  0  0  0
   -5.5800   22.8870  -31.4730 C   0  0  0  0  0  0  0  0  0  0  0  0
   -5.8150   21.5260  -31.7320 C   0  0  0  0  0  0  0  0  0  0  0  0
   -7.1190   21.0650  -31.9390 C   0  0  0  0  0  0  0  0  0  0  0  0
   -8.1920   21.9600  -31.9110 C   0  0  0  0  0  0  0  0  0  0  0  0
   -9.4550   21.5120  -32.1150 F   0  0  0  0  0  0  0  0  0  0  0  0
   -7.9610   23.3200  -31.6850 C   0  0  0  0  0  0  0  0  0  0  0  0
   -6.6570   23.7840  -31.4760 C   0  0  0  0  0  0  0  0  0  0  0  0
   -3.7207   24.5492  -28.3396 H   0  0  0  0  0  0  0  0  0  0  0  0
   -2.6866   23.3257  -29.1535 H   0  0  0  0  0  0  0  0  0  0  0  0
   -2.2066   24.6064  -25.7295 H   0  0  0  0  0  0  0  0  0  0  0  0
   -1.9670   26.5340  -23.8510 H   0  0  0  0  0  0  0  0  0  0  0  0
   -0.5723   28.5202  -24.9743 H   0  0  0  0  0  0  0  0  0  0  0  0
   -4.9712   20.8215  -31.7720 H   0  0  0  0  0  0  0  0  0  0  0  0
   -7.3005   19.9960  -32.1242 H   0  0  0  0  0  0  0  0  0  0  0  0
   -8.8044   24.0260  -31.6714 H   0  0  0  0  0  0  0  0  0  0  0  0
   -6.4768   24.8569  -31.3135 H   0  0  0  0  0  0  0  0  0  0  0  0
  1  2  2  0
  2  3  1  0
  3  4  1  0
  4  5  1  0
  5  6  2  0
  5  7  1  0
  7  8  2  0
  8  9  1  0
  9 10  2  0
 10 11  1  0
  2 12  1  0
 12 13  1  0
 13 14  2  0
 14 15  1  0
 15 16  2  0
 16 17  1  0
 16 18  1  0
 18 19  2  0
 11  7  1  0
 19 13  1  0
  3 20  1  0
  3 21  1  0
  8 22  1  0
  9 23  1  0
 10 24  1  0
 14 25  1  0
 15 26  1  0
 18 27  1  0
 19 28  1  0
M  CHG  2   4  -1  12  -1
M  END
>  <UniqueID>  (43) 
41

>  <SMILES>  (43) 
O=C(C[N-]C(=O)c1ccco1)[N-]c1ccc(F)cc1

>  <Energy>  (43) 
56.599708917332485

>  <Genealogy>  (43) 
O=C(C[N-]C(=O)c1ccco1)[N-]c1ccc(F)cc1 (protonated)
O=C(C[N-]C(=O)c1ccco1)[N-]c1ccc(F)cc1 (3D coordinates assigned)
O=C(C[N-]C(=O)c1ccco1)[N-]c1ccc(F)cc1 (optimized conformer: 56.599708917332485 kcal/mol)

>  <smiles>  (43) 
O=C(CNC(=O)c1ccco1)Nc1ccc(F)cc1

>  <score_type>  (43) 
oracle

>  <origin>  (43) 
adgpu

>  <m_score__min__energy>  (43) 
-9.3900000000000006

>  <m_primary>  (43) 
energy

$$$$
43:0
     RDKit          3D

 51 53  0  0  0  0  0  0  0  0999 V2000
   -5.7768   18.8235  -31.0096 H   0  0  0  0  0  0  0  0  0  0  0  0
   -4.9610   19.3000  -31.5730 C   0  0  0  0  0  0  0  0  0  0  0  0
   -3.9790   20.0290  -30.8950 C   0  0  0  0  0  0  0  0  0  0  0  0
   -4.0175   20.1132  -29.7989 H   0  0  0  0  0  0  0  0  0  0  0  0
   -2.9470   20.6520  -31.6070 C   0  0  0  0  0  0  0  0  0  0  0  0
   -1.7390   21.6130  -30.7640 S   0  0  0  0  0  0  0  0  0  0  0  0
   -1.3330   20.9750  -29.4640 O   0  0  0  0  0  0  0  0  0  0  0  0
   -0.5260   21.7010  -31.6450 O   0  0  0  0  0  0  0  0  0  0  0  0
   -2.3140   23.2240  -30.4660 N   0  0  0  0  0  0  0  0  0  0  0  0
   -1.9130   24.1130  -29.6000 C   0  0  0  0  0  0  0  0  0  0  0  0
   -2.4770   25.2960  -29.5280 O   0  0  0  0  0  0  0  0  0  0  0  0
   -1.9410   26.0250  -28.5930 N   0  0  0  0  0  0  0  0  0  0  0  0
   -0.9740   25.2830  -28.0200 C   0  0  0  0  0  0  0  0  0  0  0  0
   -0.1370   25.7650  -26.8780 C   0  0  0  0  0  0  0  0  0  0  0  0
   -0.6180   25.4880  -25.9283 H   0  0  0  0  0  0  0  0  0  0  0  0
    0.8595   25.3024  -26.9329 H   0  0  0  0  0  0  0  0  0  0  0  0
   -0.0369   26.8591  -26.9329 H   0  0  0  0  0  0  0  0  0  0  0  0
   -0.9010   24.0420  -28.6360 C   0  0  0  0  0  0  0  0  0  0  0  0
    0.0030   22.9190  -28.2190 C   0  0  0  0  0  0  0  0  0  0  0  0
    0.0432   22.8691  -27.1209 H   0  0  0  0  0  0  0  0  0  0  0  0
   -0.3854   21.9692  -28.6152 H   0  0  0  0  0  0  0  0  0  0  0  0
    1.0138   23.0956  -28.6152 H   0  0  0  0  0  0  0  0  0  0  0  0
   -2.8950   20.5280  -33.0000 C   0  0  0  0  0  0  0  0  0  0  0  0
   -2.0781   21.0033  -33.5628 H   0  0  0  0  0  0  0  0  0  0  0  0
   -3.8780   19.8020  -33.6780 C   0  0  0  0  0  0  0  0  0  0  0  0
   -3.8402   19.7241  -34.7746 H   0  0  0  0  0  0  0  0  0  0  0  0
   -4.9090   19.1740  -32.9730 C   0  0  0  0  0  0  0  0  0  0  0  0
   -5.9400   18.5060  -33.7120 N   0  0  0  0  0  0  0  0  0  0  0  0
   -7.1500   17.9660  -33.1700 C   0  0  0  0  0  0  0  0  0  0  0  0
   -7.3740   16.7270  -33.2070 O   0  0  0  0  0  0  0  0  0  0  0  0
   -8.1580   18.8830  -32.5540 C   0  0  0  0  0  0  0  0  0  0  0  0
   -9.1699   18.5206  -32.7880 H   0  0  0  0  0  0  0  0  0  0  0  0
   -8.0085   18.9011  -31.4644 H   0  0  0  0  0  0  0  0  0  0  0  0
   -7.9960   20.2380  -33.0810 N   0  0  0  0  0  0  0  0  0  0  0  0
   -8.3700   20.4270  -34.0370 H   0  0  0  0  0  0  0  0  0  0  0  0
   -7.4550   21.3430  -32.3280 C   0  0  0  0  0  0  0  0  0  0  0  0
   -8.1550   21.9260  -31.2550 C   0  0  0  0  0  0  0  0  0  0  0  0
   -9.1351   21.5233  -30.9595 H   0  0  0  0  0  0  0  0  0  0  0  0
   -7.6140   23.0130  -30.5620 C   0  0  0  0  0  0  0  0  0  0  0  0
   -8.1782   23.4730  -29.7373 H   0  0  0  0  0  0  0  0  0  0  0  0
   -6.3570   23.5180  -30.9140 C   0  0  0  0  0  0  0  0  0  0  0  0
   -5.6770   24.8900  -30.0430 S   0  0  0  0  0  0  0  0  0  0  0  0
   -6.7830   25.8060  -29.5930 O   0  0  0  0  0  0  0  0  0  0  0  0
   -4.7550   25.6580  -30.9450 O   0  0  0  0  0  0  0  0  0  0  0  0
   -4.7960   24.3280  -28.6670 N   0  0  0  0  0  0  0  0  0  0  0  0
   -5.4070   24.4760  -27.8330 H   0  0  0  0  0  0  0  0  0  0  0  0
   -3.9720   24.9580  -28.5490 H   0  0  0  0  0  0  0  0  0  0  0  0
   -5.6490   22.9370  -31.9730 C   0  0  0  0  0  0  0  0  0  0  0  0
   -4.6626   23.3328  -32.2563 H   0  0  0  0  0  0  0  0  0  0  0  0
   -6.1930   21.8550  -32.6710 C   0  0  0  0  0  0  0  0  0  0  0  0
   -5.6270   21.4000  -33.4972 H   0  0  0  0  0  0  0  0  0  0  0  0
  1  2  1  0
  2  3  2  0
  3  4  1  0
  3  5  1  0
  5  6  1  0
  6  7  2  0
  6  8  2  0
  6  9  1  0
  9 10  2  0
 10 11  1  0
 11 12  1  0
 12 13  1  0
 13 14  1  0
 14 15  1  0
 14 16  1  0
 14 17  1  0
 13 18  2  0
 18 19  1  0
 19 20  1  0
 19 21  1  0
 19 22  1  0
  5 23  2  0
 23 24  1  0
 23 25  1  0
 25 26  1  0
 25 27  2  0
 27 28  1  0
 28 29  1  0
 29 30  2  0
 29 31  1  0
 31 32  1  0
 31 33  1  0
 31 34  1  0
 34 35  1  0
 34 36  1  0
 36 37  2  0
 37 38  1  0
 37 39  1  0
 39 40  1  0
 39 41  2  0
 41 42  1  0
 42 43  2  0
 42 44  2  0
 42 45  1  0
 45 46  1  0
 45 47  1  0
 41 48  1  0
 48 49  1  0
 48 50  2  0
 50 51  1  0
 27  2  1  0
 50 36  1  0
 18 10  1  0
M  CHG  2  12  -1  28  -1
M  END
>  <UniqueID>  (44) 
42

>  <SMILES>  (44) 
Cc1[n-]o/c(=N/S(=O)(=O)c2ccc([N-]C(=O)CNc3ccc(S(N)(=O)=O)cc3)cc2)c1C

>  <Energy>  (44) 
91.44934975694166

>  <Genealogy>  (44) 
Cc1[n-]oc(=NS(=O)(=O)c2ccc([N-]C(=O)CNc3ccc(S(N)(=O)=O)cc3)cc2)c1C (protonated)
Cc1[n-]o/c(=N/S(=O)(=O)c2ccc([N-]C(=O)CNc3ccc(S(N)(=O)=O)cc3)cc2)c1C (cis-trans isomerization)
Cc1[n-]o/c(=N/S(=O)(=O)c2ccc([N-]C(=O)CNc3ccc(S(N)(=O)=O)cc3)cc2)c1C (3D coordinates assigned)
Cc1[n-]o/c(=N/S(=O)(=O)c2ccc([N-]C(=O)CNc3ccc(S(N)(=O)=O)cc3)cc2)c1C (optimized conformer: 91.44934975694166 kcal/mol)

>  <smiles>  (44) 
Cc1[nH]oc(=NS(=O)(=O)c2ccc(NC(=O)CNc3ccc(S(N)(=O)=O)cc3)cc2)c1C

>  <score_type>  (44) 
oracle

>  <origin>  (44) 
adgpu

>  <m_score__min__energy>  (44) 
-12.01

>  <m_primary>  (44) 
energy

$$$$
44:0
     RDKit          3D

 61 64  0  0  0  0  0  0  0  0999 V2000
   -5.1040   18.1720  -34.6670 C   0  0  0  0  0  0  0  0  0  0  0  0
   -5.0180   18.7050  -33.2410 C   0  0  0  0  0  0  0  0  0  0  0  0
   -6.1890   18.1900  -32.3880 C   0  0  0  0  0  0  0  0  0  0  0  0
   -7.4820   18.2930  -33.0800 N   0  0  0  0  0  0  0  0  0  0  0  0
   -8.6160   19.3200  -32.2410 S   0  0  0  0  0  0  0  0  0  0  0  0
   -9.8470   19.5080  -33.0820 O   0  0  0  0  0  0  0  0  0  0  0  0
   -9.0220   18.6460  -30.9600 O   0  0  0  0  0  0  0  0  0  0  0  0
   -7.9090   20.8870  -31.8520 C   0  0  0  0  0  0  0  0  0  0  0  0
   -8.2420   21.5260  -30.6500 C   0  0  0  0  0  0  0  0  0  0  0  0
   -7.6120   22.7220  -30.2910 C   0  0  0  0  0  0  0  0  0  0  0  0
   -6.6270   23.2760  -31.1160 C   0  0  0  0  0  0  0  0  0  0  0  0
   -5.9490   24.4670  -30.6930 N   0  0  0  0  0  0  0  0  0  0  0  0
   -4.5470   24.5670  -30.4080 C   0  0  0  0  0  0  0  0  0  0  0  0
   -3.9120   25.5630  -30.8410 O   0  0  0  0  0  0  0  0  0  0  0  0
   -3.8420   23.5550  -29.5850 C   0  0  0  0  0  0  0  0  0  0  0  0
   -3.7970   22.2140  -30.0030 C   0  0  0  0  0  0  0  0  0  0  0  0
   -3.1400   21.2540  -29.2290 C   0  0  0  0  0  0  0  0  0  0  0  0
   -2.4930   21.6230  -28.0400 C   0  0  0  0  0  0  0  0  0  0  0  0
   -1.6210   20.4230  -27.0780 S   0  0  0  0  0  0  0  0  0  0  0  0
   -1.6130   20.8860  -25.6490 O   0  0  0  0  0  0  0  0  0  0  0  0
   -2.3620   19.1160  -27.1310 O   0  0  0  0  0  0  0  0  0  0  0  0
    0.0400   20.1800  -27.5940 N   0  0  0  0  0  0  0  0  0  0  0  0
    0.3790   18.7740  -27.8710 C   0  0  0  0  0  0  0  0  0  0  0  0
   -0.2980   18.2310  -29.1360 C   0  0  0  0  0  0  0  0  0  0  0  0
   -0.3520   19.2370  -30.2570 C   0  0  0  0  0  0  0  0  0  0  0  0
   -0.8080   18.8270  -31.5190 C   0  0  0  0  0  0  0  0  0  0  0  0
   -0.9230   19.7480  -32.5640 C   0  0  0  0  0  0  0  0  0  0  0  0
   -0.5850   21.0860  -32.3560 C   0  0  0  0  0  0  0  0  0  0  0  0
   -0.1390   21.5090  -31.1020 C   0  0  0  0  0  0  0  0  0  0  0  0
   -0.0400   20.5960  -30.0400 C   0  0  0  0  0  0  0  0  0  0  0  0
    0.4400   21.0750  -28.6910 C   0  0  0  0  0  0  0  0  0  0  0  0
   -2.5510   22.9570  -27.6140 C   0  0  0  0  0  0  0  0  0  0  0  0
   -3.2050   23.9170  -28.3870 C   0  0  0  0  0  0  0  0  0  0  0  0
   -6.3250   22.6580  -32.3410 C   0  0  0  0  0  0  0  0  0  0  0  0
   -6.9580   21.4670  -32.7040 C   0  0  0  0  0  0  0  0  0  0  0  0
   -5.2792   17.0863  -34.6427 H   0  0  0  0  0  0  0  0  0  0  0  0
   -5.9341   18.6657  -35.1935 H   0  0  0  0  0  0  0  0  0  0  0  0
   -4.1608   18.3795  -35.1935 H   0  0  0  0  0  0  0  0  0  0  0  0
   -4.0712   18.3734  -32.7897 H   0  0  0  0  0  0  0  0  0  0  0  0
   -5.0656   19.8035  -33.2743 H   0  0  0  0  0  0  0  0  0  0  0  0
   -6.0059   17.1343  -32.1393 H   0  0  0  0  0  0  0  0  0  0  0  0
   -6.2439   18.8164  -31.4854 H   0  0  0  0  0  0  0  0  0  0  0  0
   -7.3370   18.6820  -34.0400 H   0  0  0  0  0  0  0  0  0  0  0  0
   -9.0012   21.0856  -29.9869 H   0  0  0  0  0  0  0  0  0  0  0  0
   -7.8921   23.2293  -29.3560 H   0  0  0  0  0  0  0  0  0  0  0  0
   -4.2819   21.9184  -30.9451 H   0  0  0  0  0  0  0  0  0  0  0  0
   -3.1300   20.2031  -29.5537 H   0  0  0  0  0  0  0  0  0  0  0  0
    1.4690   18.6944  -27.9954 H   0  0  0  0  0  0  0  0  0  0  0  0
    0.0172   18.1754  -27.0220 H   0  0  0  0  0  0  0  0  0  0  0  0
    0.2630   17.3506  -29.4827 H   0  0  0  0  0  0  0  0  0  0  0  0
   -1.3356   17.9804  -28.8704 H   0  0  0  0  0  0  0  0  0  0  0  0
   -1.0768   17.7737  -31.6871 H   0  0  0  0  0  0  0  0  0  0  0  0
   -1.2801   19.4181  -33.5508 H   0  0  0  0  0  0  0  0  0  0  0  0
   -0.6700   21.8085  -33.1811 H   0  0  0  0  0  0  0  0  0  0  0  0
    0.1360   22.5625  -30.9456 H   0  0  0  0  0  0  0  0  0  0  0  0
    1.5380   21.1383  -28.7106 H   0  0  0  0  0  0  0  0  0  0  0  0
   -0.0215   22.0558  -28.5039 H   0  0  0  0  0  0  0  0  0  0  0  0
   -2.0781   23.2489  -26.6647 H   0  0  0  0  0  0  0  0  0  0  0  0
   -3.2218   24.9657  -28.0554 H   0  0  0  0  0  0  0  0  0  0  0  0
   -5.5869   23.1140  -33.0172 H   0  0  0  0  0  0  0  0  0  0  0  0
   -6.7101   20.9830  -33.6602 H   0  0  0  0  0  0  0  0  0  0  0  0
  1  2  1  0
  2  3  1  0
  3  4  1  0
  4  5  1  0
  5  6  2  0
  5  7  2  0
  5  8  1  0
  8  9  2  0
  9 10  1  0
 10 11  2  0
 11 12  1  0
 12 13  1  0
 13 14  2  0
 13 15  1  0
 15 16  2  0
 16 17  1  0
 17 18  2  0
 18 19  1  0
 19 20  2  0
 19 21  2  0
 19 22  1  0
 22 23  1  0
 23 24  1  0
 24 25  1  0
 25 26  2  0
 26 27  1  0
 27 28  2  0
 28 29  1  0
 29 30  2  0
 30 31  1  0
 18 32  1  0
 32 33  2  0
 11 34  1  0
 34 35  2  0
 35  8  1  0
 33 15  1  0
 31 22  1  0
 30 25  1  0
  1 36  1  0
  1 37  1  0
  1 38  1  0
  2 39  1  0
  2 40  1  0
  3 41  1  0
  3 42  1  0
  4 43  1  0
  9 44  1  0
 10 45  1  0
 16 46  1  0
 17 47  1  0
 23 48  1  0
 23 49  1  0
 24 50  1  0
 24 51  1  0
 26 52  1  0
 27 53  1  0
 28 54  1  0
 29 55  1  0
 31 56  1  0
 31 57  1  0
 32 58  1  0
 33 59  1  0
 34 60  1  0
 35 61  1  0
M  CHG  1  12  -1
M  END
>  <UniqueID>  (45) 
43

>  <SMILES>  (45) 
CCCNS(=O)(=O)c1ccc([N-]C(=O)c2ccc(S(=O)(=O)N3CCc4ccccc4C3)cc2)cc1

>  <Energy>  (45) 
68.1100102333084

>  <Genealogy>  (45) 
CCCNS(=O)(=O)c1ccc([N-]C(=O)c2ccc(S(=O)(=O)N3CCc4ccccc4C3)cc2)cc1 (protonated)
CCCNS(=O)(=O)c1ccc([N-]C(=O)c2ccc(S(=O)(=O)N3CCc4ccccc4C3)cc2)cc1 (3D coordinates assigned)
CCCNS(=O)(=O)c1ccc([N-]C(=O)c2ccc(S(=O)(=O)N3CCc4ccccc4C3)cc2)cc1 (nonaromatic ring conformer: 68.1100102333084 kcal/mol)

>  <smiles>  (45) 
CCCNS(=O)(=O)c1ccc(NC(=O)c2ccc(S(=O)(=O)N3CCc4ccccc4C3)cc2)cc1

>  <score_type>  (45) 
oracle

>  <origin>  (45) 
adgpu

>  <m_score__min__energy>  (45) 
-12.82

>  <m_primary>  (45) 
energy

$$$$
45:0
     RDKit          3D

 48 51  0  0  0  0  0  0  0  0999 V2000
   -4.9930   25.2710  -30.3800 C   0  0  0  0  0  0  0  0  0  0  0  0
   -3.5900   25.0390  -30.4480 O   0  0  0  0  0  0  0  0  0  0  0  0
   -2.8210   24.4920  -29.4070 C   0  0  0  0  0  0  0  0  0  0  0  0
   -1.8230   25.2360  -28.7480 C   0  0  0  0  0  0  0  0  0  0  0  0
   -1.0800   24.6610  -27.7140 C   0  0  0  0  0  0  0  0  0  0  0  0
   -1.3030   23.3310  -27.3370 C   0  0  0  0  0  0  0  0  0  0  0  0
   -0.5180   22.7230  -26.2120 C   0  0  0  0  0  0  0  0  0  0  0  0
   -2.3050   22.5920  -27.9780 C   0  0  0  0  0  0  0  0  0  0  0  0
   -3.0730   23.1660  -29.0060 C   0  0  0  0  0  0  0  0  0  0  0  0
   -4.0780   22.3980  -29.6870 N   0  0  0  0  0  0  0  0  0  0  0  0
   -3.9270   21.8980  -31.0260 C   0  0  0  0  0  0  0  0  0  0  0  0
   -2.8970   22.1700  -31.7010 O   0  0  0  0  0  0  0  0  0  0  0  0
   -4.9880   21.0710  -31.6360 C   0  0  0  0  0  0  0  0  0  0  0  0
   -4.6300   19.8320  -32.1850 C   0  0  0  0  0  0  0  0  0  0  0  0
   -5.5920   19.0350  -32.8270 C   0  0  0  0  0  0  0  0  0  0  0  0
   -5.2430   17.7240  -33.4320 C   0  0  0  0  0  0  0  0  0  0  0  0
   -4.0570   17.5500  -34.1740 C   0  0  0  0  0  0  0  0  0  0  0  0
   -3.7540   16.3090  -34.7430 C   0  0  0  0  0  0  0  0  0  0  0  0
   -4.6270   15.2320  -34.5830 C   0  0  0  0  0  0  0  0  0  0  0  0
   -5.8100   15.3940  -33.8600 C   0  0  0  0  0  0  0  0  0  0  0  0
   -6.1210   16.6330  -33.2900 C   0  0  0  0  0  0  0  0  0  0  0  0
   -6.8800   19.4690  -32.8840 N   0  0  0  0  0  0  0  0  0  0  0  0
   -7.2780   20.6510  -32.3460 C   0  0  0  0  0  0  0  0  0  0  0  0
   -8.6230   21.0280  -32.4290 C   0  0  0  0  0  0  0  0  0  0  0  0
   -9.0540   22.2240  -31.8520 C   0  0  0  0  0  0  0  0  0  0  0  0
   -8.1460   23.0440  -31.1800 C   0  0  0  0  0  0  0  0  0  0  0  0
   -6.7990   22.6800  -31.0910 C   0  0  0  0  0  0  0  0  0  0  0  0
   -6.3400   21.4870  -31.6930 C   0  0  0  0  0  0  0  0  0  0  0  0
   -5.3055   25.3227  -29.3266 H   0  0  0  0  0  0  0  0  0  0  0  0
   -5.2323   26.2209  -30.8804 H   0  0  0  0  0  0  0  0  0  0  0  0
   -5.5253   24.4487  -30.8804 H   0  0  0  0  0  0  0  0  0  0  0  0
   -1.6275   26.2757  -29.0492 H   0  0  0  0  0  0  0  0  0  0  0  0
   -0.3156   25.2563  -27.1932 H   0  0  0  0  0  0  0  0  0  0  0  0
   -0.9409   23.0506  -25.2508 H   0  0  0  0  0  0  0  0  0  0  0  0
   -0.5688   21.6263  -26.2802 H   0  0  0  0  0  0  0  0  0  0  0  0
    0.5312   23.0464  -26.2802 H   0  0  0  0  0  0  0  0  0  0  0  0
   -2.4930   21.5517  -27.6740 H   0  0  0  0  0  0  0  0  0  0  0  0
   -4.9240   22.1100  -29.1450 H   0  0  0  0  0  0  0  0  0  0  0  0
   -3.5897   19.4818  -32.1126 H   0  0  0  0  0  0  0  0  0  0  0  0
   -3.3658   18.3954  -34.3062 H   0  0  0  0  0  0  0  0  0  0  0  0
   -2.8251   16.1814  -35.3182 H   0  0  0  0  0  0  0  0  0  0  0  0
   -4.3829   14.2555  -35.0266 H   0  0  0  0  0  0  0  0  0  0  0  0
   -6.4993   14.5454  -33.7382 H   0  0  0  0  0  0  0  0  0  0  0  0
   -7.0580   16.7555  -32.7270 H   0  0  0  0  0  0  0  0  0  0  0  0
   -9.3429   20.3801  -32.9505 H   0  0  0  0  0  0  0  0  0  0  0  0
  -10.1106   22.5206  -31.9270 H   0  0  0  0  0  0  0  0  0  0  0  0
   -8.4917   23.9807  -30.7184 H   0  0  0  0  0  0  0  0  0  0  0  0
   -6.0926   23.3261  -30.5492 H   0  0  0  0  0  0  0  0  0  0  0  0
  1  2  1  0
  2  3  1  0
  3  4  2  0
  4  5  1  0
  5  6  2  0
  6  7  1  0
  6  8  1  0
  8  9  2  0
  9 10  1  0
 10 11  1  0
 11 12  2  0
 11 13  1  0
 13 14  2  0
 14 15  1  0
 15 16  1  0
 16 17  2  0
 17 18  1  0
 18 19  2  0
 19 20  1  0
 20 21  2  0
 15 22  2  0
 22 23  1  0
 23 24  2  0
 24 25  1  0
 25 26  2  0
 26 27  1  0
 27 28  2  0
  9  3  1  0
 28 13  1  0
 21 16  1  0
 28 23  1  0
  1 29  1  0
  1 30  1  0
  1 31  1  0
  4 32  1  0
  5 33  1  0
  7 34  1  0
  7 35  1  0
  7 36  1  0
  8 37  1  0
 10 38  1  0
 14 39  1  0
 17 40  1  0
 18 41  1  0
 19 42  1  0
 20 43  1  0
 21 44  1  0
 24 45  1  0
 25 46  1  0
 26 47  1  0
 27 48  1  0
M  END
>  <UniqueID>  (46) 
44

>  <SMILES>  (46) 
COc1ccc(C)cc1NC(=O)c1cc(-c2ccccc2)nc2ccccc12

>  <Energy>  (46) 
69.70540327019417

>  <Genealogy>  (46) 
COc1ccc(C)cc1NC(=O)c1cc(-c2ccccc2)nc2ccccc12 (3D coordinates assigned)
COc1ccc(C)cc1NC(=O)c1cc(-c2ccccc2)nc2ccccc12 (optimized conformer: 69.70540327019417 kcal/mol)

>  <smiles>  (46) 
COc1ccc(C)cc1NC(=O)c1cc(-c2ccccc2)nc2ccccc12

>  <score_type>  (46) 
oracle

>  <origin>  (46) 
adgpu

>  <m_score__min__energy>  (46) 
-9.1799999999999997

>  <m_primary>  (46) 
energy

$$$$
46:0
     RDKit          3D

 32 34  0  0  0  0  0  0  0  0999 V2000
   -9.8280   21.3950  -30.4060 O   0  0  0  0  0  0  0  0  0  0  0  0
   -8.9030   21.4810  -31.2550 C   0  0  0  0  0  0  0  0  0  0  0  0
   -8.4550   22.7800  -31.6630 N   0  0  0  0  0  0  0  0  0  0  0  0
   -7.2090   23.3920  -31.3020 C   0  0  0  0  0  0  0  0  0  0  0  0
   -6.0200   22.8650  -31.8200 C   0  0  0  0  0  0  0  0  0  0  0  0
   -4.7890   23.4490  -31.5060 C   0  0  0  0  0  0  0  0  0  0  0  0
   -4.7360   24.5920  -30.6880 C   0  0  0  0  0  0  0  0  0  0  0  0
   -3.4950   25.2100  -30.3190 N   0  0  0  0  0  0  0  0  0  0  0  0
   -2.5540   24.7270  -29.3500 C   0  0  0  0  0  0  0  0  0  0  0  0
   -1.6950   25.5000  -28.8470 O   0  0  0  0  0  0  0  0  0  0  0  0
   -2.6270   23.3330  -28.8970 C   0  0  0  0  0  0  0  0  0  0  0  0
   -3.5020   22.8250  -27.9440 C   0  0  0  0  0  0  0  0  0  0  0  0
   -3.3390   21.4530  -27.7210 C   0  0  0  0  0  0  0  0  0  0  0  0
   -2.3400   20.8750  -28.4940 C   0  0  0  0  0  0  0  0  0  0  0  0
   -1.6590   22.0740  -29.4570 S   0  0  0  0  0  0  0  0  0  0  0  0
   -5.9260   25.1170  -30.1700 C   0  0  0  0  0  0  0  0  0  0  0  0
   -7.1570   24.5340  -30.4860 C   0  0  0  0  0  0  0  0  0  0  0  0
   -8.3610   20.2420  -31.8440 C   0  0  0  0  0  0  0  0  0  0  0  0
   -8.7650   18.9490  -31.5680 C   0  0  0  0  0  0  0  0  0  0  0  0
   -7.9610   18.1360  -32.3370 C   0  0  0  0  0  0  0  0  0  0  0  0
   -7.1150   18.9780  -33.0280 C   0  0  0  0  0  0  0  0  0  0  0  0
   -7.3730   20.2250  -32.7110 O   0  0  0  0  0  0  0  0  0  0  0  0
   -6.0544   21.9849  -32.4790 H   0  0  0  0  0  0  0  0  0  0  0  0
   -3.8590   23.0132  -31.9000 H   0  0  0  0  0  0  0  0  0  0  0  0
   -4.2475   23.4395  -27.4180 H   0  0  0  0  0  0  0  0  0  0  0  0
   -3.9457   20.8850  -27.0004 H   0  0  0  0  0  0  0  0  0  0  0  0
   -2.0450   19.8154  -28.4789 H   0  0  0  0  0  0  0  0  0  0  0  0
   -5.8923   25.9955  -29.5089 H   0  0  0  0  0  0  0  0  0  0  0  0
   -8.0874   24.9710  -30.0944 H   0  0  0  0  0  0  0  0  0  0  0  0
   -9.5622   18.6347  -30.8782 H   0  0  0  0  0  0  0  0  0  0  0  0
   -7.9884   17.0376  -32.3892 H   0  0  0  0  0  0  0  0  0  0  0  0
   -6.3403   18.6531  -33.7382 H   0  0  0  0  0  0  0  0  0  0  0  0
  1  2  2  0
  2  3  1  0
  3  4  1  0
  4  5  2  0
  5  6  1  0
  6  7  2  0
  7  8  1  0
  8  9  1  0
  9 10  2  0
  9 11  1  0
 11 12  2  0
 12 13  1  0
 13 14  2  0
 14 15  1  0
  7 16  1  0
 16 17  2  0
  2 18  1  0
 18 19  2  0
 19 20  1  0
 20 21  2  0
 21 22  1  0
 17  4  1  0
 22 18  1  0
 15 11  1  0
  5 23  1  0
  6 24  1  0
 12 25  1  0
 13 26  1  0
 14 27  1  0
 16 28  1  0
 17 29  1  0
 19 30  1  0
 20 31  1  0
 21 32  1  0
M  CHG  2   3  -1   8  -1
M  END
>  <UniqueID>  (47) 
45

>  <SMILES>  (47) 
O=C([N-]c1ccc([N-]C(=O)c2cccs2)cc1)c1ccco1

>  <Energy>  (47) 
94.1181342984086

>  <Genealogy>  (47) 
O=C([N-]c1ccc([N-]C(=O)c2cccs2)cc1)c1ccco1 (protonated)
O=C([N-]c1ccc([N-]C(=O)c2cccs2)cc1)c1ccco1 (3D coordinates assigned)
O=C([N-]c1ccc([N-]C(=O)c2cccs2)cc1)c1ccco1 (optimized conformer: 94.1181342984086 kcal/mol)

>  <smiles>  (47) 
O=C(Nc1ccc(NC(=O)c2cccs2)cc1)c1ccco1

>  <score_type>  (47) 
oracle

>  <origin>  (47) 
adgpu

>  <m_score__min__energy>  (47) 
-9.4800000000000004

>  <m_primary>  (47) 
energy

$$$$
47:0
     RDKit          3D

 55 58  0  0  0  0  0  0  0  0999 V2000
   -8.6670   19.7980  -31.3820 C   0  0  0  0  0  0  0  0  0  0  0  0
   -8.4380   20.9380  -32.2050 O   0  0  0  0  0  0  0  0  0  0  0  0
   -7.5420   21.9550  -31.8580 C   0  0  0  0  0  0  0  0  0  0  0  0
   -7.9890   23.0800  -31.2340 N   0  0  0  0  0  0  0  0  0  0  0  0
   -7.1510   24.0850  -30.8680 C   0  0  0  0  0  0  0  0  0  0  0  0
   -5.7770   23.9820  -31.1160 C   0  0  0  0  0  0  0  0  0  0  0  0
   -4.8890   25.1030  -30.7660 C   0  0  0  0  0  0  0  0  0  0  0  0
   -5.3920   26.2510  -30.6550 O   0  0  0  0  0  0  0  0  0  0  0  0
   -3.4910   24.9340  -30.4760 N   0  0  0  0  0  0  0  0  0  0  0  0
   -2.8570   24.1570  -29.4070 C   0  0  1  0  0  0  0  0  0  0  0  0
   -3.7860   23.9910  -28.1950 C   0  0  0  0  0  0  0  0  0  0  0  0
   -2.3380   22.8480  -29.9330 C   0  0  0  0  0  0  0  0  0  0  0  0
   -1.8780   22.6800  -31.1920 N   0  0  0  0  0  0  0  0  0  0  0  0
   -1.5770   21.3720  -31.2520 C   0  0  0  0  0  0  0  0  0  0  0  0
   -0.9690   20.7070  -32.4180 C   0  0  0  0  0  0  0  0  0  0  0  0
   -0.8060   19.3130  -32.4500 C   0  0  0  0  0  0  0  0  0  0  0  0
   -0.2660   18.7110  -33.5890 C   0  0  0  0  0  0  0  0  0  0  0  0
    0.1080   19.4950  -34.6820 C   0  0  0  0  0  0  0  0  0  0  0  0
    0.6330   18.9110  -35.7880 F   0  0  0  0  0  0  0  0  0  0  0  0
   -0.0640   20.8870  -34.6170 C   0  0  0  0  0  0  0  0  0  0  0  0
    0.3090   21.7570  -35.7770 C   0  0  0  0  0  0  0  0  0  0  0  0
   -0.5970   21.4480  -33.4980 N   0  0  0  0  0  0  0  0  0  0  0  0
   -1.8770   20.7770  -30.0480 C   0  0  0  0  0  0  0  0  0  0  0  0
   -2.3700   21.7060  -29.2130 N   0  0  0  0  0  0  0  0  0  0  0  0
   -5.2900   22.8410  -31.7680 C   0  0  0  0  0  0  0  0  0  0  0  0
   -6.1700   21.8150  -32.1460 C   0  0  0  0  0  0  0  0  0  0  0  0
   -5.6500   20.6140  -32.8360 C   0  0  0  0  0  0  0  0  0  0  0  0
   -6.4060   19.9750  -33.8320 C   0  0  0  0  0  0  0  0  0  0  0  0
   -5.8940   18.8560  -34.4980 C   0  0  0  0  0  0  0  0  0  0  0  0
   -4.6130   18.3710  -34.1850 C   0  0  0  0  0  0  0  0  0  0  0  0
   -4.0630   17.1600  -34.8790 C   0  0  0  0  0  0  0  0  0  0  0  0
   -3.8720   18.9890  -33.1690 C   0  0  0  0  0  0  0  0  0  0  0  0
   -4.3850   20.1040  -32.5020 C   0  0  0  0  0  0  0  0  0  0  0  0
   -8.6079   20.0920  -30.3237 H   0  0  0  0  0  0  0  0  0  0  0  0
   -9.6655   19.3877  -31.5934 H   0  0  0  0  0  0  0  0  0  0  0  0
   -7.9044   19.0340  -31.5934 H   0  0  0  0  0  0  0  0  0  0  0  0
   -7.5534   24.9824  -30.3753 H   0  0  0  0  0  0  0  0  0  0  0  0
   -1.9864   24.7216  -29.0419 H   0  0  0  0  0  0  0  0  0  0  0  0
   -3.2022   24.0953  -27.2685 H   0  0  0  0  0  0  0  0  0  0  0  0
   -4.5685   24.7635  -28.2243 H   0  0  0  0  0  0  0  0  0  0  0  0
   -4.2525   22.9953  -28.2243 H   0  0  0  0  0  0  0  0  0  0  0  0
   -1.1010   18.7000  -31.5856 H   0  0  0  0  0  0  0  0  0  0  0  0
   -0.1355   17.6194  -33.6247 H   0  0  0  0  0  0  0  0  0  0  0  0
    0.7170   22.7086  -35.4054 H   0  0  0  0  0  0  0  0  0  0  0  0
    1.0675   21.2469  -36.3889 H   0  0  0  0  0  0  0  0  0  0  0  0
   -0.5834   21.9547  -36.3889 H   0  0  0  0  0  0  0  0  0  0  0  0
   -1.7358   19.7127  -29.8084 H   0  0  0  0  0  0  0  0  0  0  0  0
   -4.2153   22.7493  -31.9840 H   0  0  0  0  0  0  0  0  0  0  0  0
   -7.4052   20.3559  -34.0898 H   0  0  0  0  0  0  0  0  0  0  0  0
   -6.4966   18.3542  -35.2694 H   0  0  0  0  0  0  0  0  0  0  0  0
   -3.7302   16.4272  -34.1292 H   0  0  0  0  0  0  0  0  0  0  0  0
   -4.8455   16.7110  -35.5083 H   0  0  0  0  0  0  0  0  0  0  0  0
   -3.2100   17.4538  -35.5083 H   0  0  0  0  0  0  0  0  0  0  0  0
   -2.8823   18.5945  -32.8955 H   0  0  0  0  0  0  0  0  0  0  0  0
   -3.7938   20.5860  -31.7094 H   0  0  0  0  0  0  0  0  0  0  0  0
  1  2  1  0
  2  3  1  0
  3  4  2  0
  4  5  1  0
  5  6  2  0
  6  7  1  0
  7  8  2  0
  7  9  1  0
  9 10  1  0
 10 11  1  0
 10 12  1  0
 12 13  2  0
 13 14  1  0
 14 15  1  0
 15 16  2  0
 16 17  1  0
 17 18  2  0
 18 19  1  0
 18 20  1  0
 20 21  1  0
 20 22  2  0
 14 23  2  0
 23 24  1  0
  6 25  1  0
 25 26  2  0
 26 27  1  0
 27 28  2  0
 28 29  1  0
 29 30  2  0
 30 31  1  0
 30 32  1  0
 32 33  2  0
 26  3  1  0
 33 27  1  0
 24 12  1  0
 22 15  1  0
  1 34  1  0
  1 35  1  0
  1 36  1  0
  5 37  1  0
 10 38  1  1
 11 39  1  0
 11 40  1  0
 11 41  1  0
 16 42  1  0
 17 43  1  0
 21 44  1  0
 21 45  1  0
 21 46  1  0
 23 47  1  0
 25 48  1  0
 28 49  1  0
 29 50  1  0
 31 51  1  0
 31 52  1  0
 31 53  1  0
 32 54  1  0
 33 55  1  0
M  CHG  2   9  -1  24  -1
M  END
>  <UniqueID>  (48) 
46

>  <SMILES>  (48) 
COc1ncc(C(=O)[N-][C@@H](C)c2nc(-c3ccc(F)c(C)n3)c[n-]2)cc1-c1ccc(C)cc1

>  <Energy>  (48) 
91.72542446434147

>  <Genealogy>  (48) 
COc1ncc(C(=O)[N-]C(C)c2nc(-c3ccc(F)c(C)n3)c[n-]2)cc1-c1ccc(C)cc1 (protonated)
COc1ncc(C(=O)[N-][C@@H](C)c2nc(-c3ccc(F)c(C)n3)c[n-]2)cc1-c1ccc(C)cc1 (chirality)
COc1ncc(C(=O)[N-][C@@H](C)c2nc(-c3ccc(F)c(C)n3)c[n-]2)cc1-c1ccc(C)cc1 (3D coordinates assigned)
COc1ncc(C(=O)[N-][C@@H](C)c2nc(-c3ccc(F)c(C)n3)c[n-]2)cc1-c1ccc(C)cc1 (optimized conformer: 91.72542446434147 kcal/mol)

>  <smiles>  (48) 
COc1ncc(C(=O)NC(C)c2nc(-c3ccc(F)c(C)n3)c[nH]2)cc1-c1ccc(C)cc1

>  <score_type>  (48) 
oracle

>  <origin>  (48) 
adgpu

>  <m_score__min__energy>  (48) 
-11.67

>  <m_primary>  (48) 
energy

$$$$
48:0
     RDKit          3D

 44 46  0  0  0  0  0  0  0  0999 V2000
    1.8630   20.4860  -34.1470 C   0  0  0  0  0  0  0  0  0  0  0  0
    0.4950   21.0860  -34.2370 C   0  0  0  0  0  0  0  0  0  0  0  0
    0.3530   22.2240  -34.7600 O   0  0  0  0  0  0  0  0  0  0  0  0
   -0.6850   20.3700  -33.7250 C   0  0  0  0  0  0  0  0  0  0  0  0
   -1.2560   20.5050  -32.4610 C   0  0  0  0  0  0  0  0  0  0  0  0
   -2.3490   19.7270  -32.2440 N   0  0  0  0  0  0  0  0  0  0  0  0
   -2.6650   18.9780  -33.3250 C   0  0  0  0  0  0  0  0  0  0  0  0
   -3.7940   18.0360  -33.3740 C   0  0  0  0  0  0  0  0  0  0  0  0
   -3.6660   16.7180  -33.1220 N   0  0  0  0  0  0  0  0  0  0  0  0
   -4.9370   16.2600  -33.1780 C   0  0  0  0  0  0  0  0  0  0  0  0
   -5.3040   14.8210  -32.9550 C   0  0  0  0  0  0  0  0  0  0  0  0
   -4.1160   14.0580  -32.3620 C   0  0  0  0  0  0  0  0  0  0  0  0
   -5.7650   14.1830  -34.2670 C   0  0  0  0  0  0  0  0  0  0  0  0
   -5.8120   17.2050  -33.4460 O   0  0  0  0  0  0  0  0  0  0  0  0
   -5.1330   18.3130  -33.5870 C   0  0  0  0  0  0  0  0  0  0  0  0
   -5.7350   19.5750  -33.9070 N   0  0  0  0  0  0  0  0  0  0  0  0
   -5.6220   20.7500  -33.0860 C   0  0  0  0  0  0  0  0  0  0  0  0
   -6.6930   21.1150  -32.2570 C   0  0  0  0  0  0  0  0  0  0  0  0
   -6.5940   22.2350  -31.4260 C   0  0  0  0  0  0  0  0  0  0  0  0
   -5.4300   23.0140  -31.4280 C   0  0  0  0  0  0  0  0  0  0  0  0
   -5.2890   24.4010  -30.3550 S   0  0  0  0  0  0  0  0  0  0  0  0
   -3.8520   25.2810  -30.7370 N   0  0  0  0  0  0  0  0  0  0  0  0
   -6.4860   25.2970  -30.5180 O   0  0  0  0  0  0  0  0  0  0  0  0
   -5.2270   23.9380  -28.9260 O   0  0  0  0  0  0  0  0  0  0  0  0
   -4.3670   22.6670  -32.2700 C   0  0  0  0  0  0  0  0  0  0  0  0
   -4.4640   21.5480  -33.1020 C   0  0  0  0  0  0  0  0  0  0  0  0
   -1.5840   19.2370  -34.5870 S   0  0  0  0  0  0  0  0  0  0  0  0
    2.1411   20.3640  -33.0897 H   0  0  0  0  0  0  0  0  0  0  0  0
    1.8660   19.5040  -34.6426 H   0  0  0  0  0  0  0  0  0  0  0  0
    2.5875   21.1490  -34.6426 H   0  0  0  0  0  0  0  0  0  0  0  0
   -0.8535   21.1880  -31.6984 H   0  0  0  0  0  0  0  0  0  0  0  0
   -6.1368   14.7712  -32.2381 H   0  0  0  0  0  0  0  0  0  0  0  0
   -4.1695   14.0923  -31.2638 H   0  0  0  0  0  0  0  0  0  0  0  0
   -4.1480   13.0111  -32.6981 H   0  0  0  0  0  0  0  0  0  0  0  0
   -3.1772   14.5225  -32.6981 H   0  0  0  0  0  0  0  0  0  0  0  0
   -6.3963   13.3093  -34.0479 H   0  0  0  0  0  0  0  0  0  0  0  0
   -6.3430   14.9165  -34.8482 H   0  0  0  0  0  0  0  0  0  0  0  0
   -4.8871   13.8645  -34.8482 H   0  0  0  0  0  0  0  0  0  0  0  0
   -6.1960   19.6640  -34.8410 H   0  0  0  0  0  0  0  0  0  0  0  0
   -7.6160   20.5167  -32.2607 H   0  0  0  0  0  0  0  0  0  0  0  0
   -7.4333   22.5053  -30.7683 H   0  0  0  0  0  0  0  0  0  0  0  0
   -3.4860   25.6720  -29.8400 H   0  0  0  0  0  0  0  0  0  0  0  0
   -3.4518   23.2772  -32.2770 H   0  0  0  0  0  0  0  0  0  0  0  0
   -3.6308   21.2903  -33.7724 H   0  0  0  0  0  0  0  0  0  0  0  0
  1  2  1  0
  2  3  2  0
  2  4  1  0
  4  5  2  0
  5  6  1  0
  6  7  2  0
  7  8  1  0
  8  9  1  0
  9 10  2  0
 10 11  1  0
 11 12  1  0
 11 13  1  0
 10 14  1  0
 14 15  1  0
 15 16  1  0
 16 17  1  0
 17 18  2  0
 18 19  1  0
 19 20  2  0
 20 21  1  0
 21 22  1  0
 21 23  2  0
 21 24  2  0
 20 25  1  0
 25 26  2  0
  7 27  1  0
 27  4  1  0
 15  8  2  0
 26 17  1  0
  1 28  1  0
  1 29  1  0
  1 30  1  0
  5 31  1  0
 11 32  1  0
 12 33  1  0
 12 34  1  0
 12 35  1  0
 13 36  1  0
 13 37  1  0
 13 38  1  0
 16 39  1  0
 18 40  1  0
 19 41  1  0
 22 42  1  0
 25 43  1  0
 26 44  1  0
M  CHG  1  22  -1
M  END
>  <UniqueID>  (49) 
47

>  <SMILES>  (49) 
CC(=O)c1cnc(-c2nc(C(C)C)oc2Nc2ccc(S([NH-])(=O)=O)cc2)s1

>  <Energy>  (49) 
103.73090343788567

>  <Genealogy>  (49) 
CC(=O)c1cnc(-c2nc(C(C)C)oc2Nc2ccc(S([NH-])(=O)=O)cc2)s1 (protonated)
CC(=O)c1cnc(-c2nc(C(C)C)oc2Nc2ccc(S([NH-])(=O)=O)cc2)s1 (3D coordinates assigned)
CC(=O)c1cnc(-c2nc(C(C)C)oc2Nc2ccc(S([NH-])(=O)=O)cc2)s1 (optimized conformer: 103.73090343788567 kcal/mol)

>  <smiles>  (49) 
CC(=O)c1cnc(-c2nc(C(C)C)oc2Nc2ccc(S(N)(=O)=O)cc2)s1

>  <score_type>  (49) 
oracle

>  <origin>  (49) 
adgpu

>  <m_score__min__energy>  (49) 
-10.44

>  <m_primary>  (49) 
energy

$$$$
49:0
     RDKit          3D

 44 47  0  0  0  0  0  0  0  0999 V2000
   -4.7560   24.8940  -30.9170 O   0  0  0  0  0  0  0  0  0  0  0  0
   -4.5830   23.6500  -30.7870 C   0  0  0  0  0  0  0  0  0  0  0  0
   -3.6930   23.1650  -29.7200 C   0  0  0  0  0  0  0  0  0  0  0  0
   -3.8510   21.8620  -29.2260 C   0  0  0  0  0  0  0  0  0  0  0  0
   -2.9750   21.3660  -28.2500 C   0  0  0  0  0  0  0  0  0  0  0  0
   -3.1070   20.0520  -27.7700 C   0  0  0  0  0  0  0  0  0  0  0  0
   -2.2220   19.5640  -26.8050 C   0  0  0  0  0  0  0  0  0  0  0  0
   -1.1980   20.3810  -26.3170 C   0  0  0  0  0  0  0  0  0  0  0  0
   -1.0560   21.6920  -26.7850 C   0  0  0  0  0  0  0  0  0  0  0  0
   -1.9400   22.1940  -27.7520 C   0  0  0  0  0  0  0  0  0  0  0  0
   -1.8030   23.5050  -28.2340 C   0  0  0  0  0  0  0  0  0  0  0  0
   -2.6720   23.9880  -29.2160 C   0  0  0  0  0  0  0  0  0  0  0  0
   -2.5100   25.2870  -29.6940 O   0  0  0  0  0  0  0  0  0  0  0  0
   -5.2570   22.7300  -31.6700 N   0  0  0  0  0  0  0  0  0  0  0  0
   -4.4740   21.8730  -32.5750 C   0  0  0  0  0  0  0  0  0  0  0  0
   -5.0850   20.5000  -32.6740 C   0  0  0  0  0  0  0  0  0  0  0  0
   -5.0940   19.6400  -31.5600 C   0  0  0  0  0  0  0  0  0  0  0  0
   -5.6320   18.3540  -31.6660 C   0  0  0  0  0  0  0  0  0  0  0  0
   -6.1800   17.9240  -32.8790 C   0  0  0  0  0  0  0  0  0  0  0  0
   -6.1940   18.7800  -33.9840 C   0  0  0  0  0  0  0  0  0  0  0  0
   -5.6540   20.0650  -33.8820 C   0  0  0  0  0  0  0  0  0  0  0  0
   -6.6970   22.6240  -31.6440 C   0  0  0  0  0  0  0  0  0  0  0  0
   -7.5000   23.4990  -32.3930 C   0  0  0  0  0  0  0  0  0  0  0  0
   -8.8900   23.3650  -32.3520 C   0  0  0  0  0  0  0  0  0  0  0  0
   -9.4690   22.3620  -31.5770 C   0  0  0  0  0  0  0  0  0  0  0  0
   -8.6440   21.4950  -30.8560 C   0  0  0  0  0  0  0  0  0  0  0  0
   -7.2930   21.6420  -30.9070 N   0  0  0  0  0  0  0  0  0  0  0  0
   -4.6650   21.2269  -29.6055 H   0  0  0  0  0  0  0  0  0  0  0  0
   -3.9094   19.4056  -28.1550 H   0  0  0  0  0  0  0  0  0  0  0  0
   -2.3312   18.5360  -26.4290 H   0  0  0  0  0  0  0  0  0  0  0  0
   -0.5003   19.9912  -25.5612 H   0  0  0  0  0  0  0  0  0  0  0  0
   -0.2499   22.3302  -26.3941 H   0  0  0  0  0  0  0  0  0  0  0  0
   -1.0088   24.1546  -27.8374 H   0  0  0  0  0  0  0  0  0  0  0  0
   -4.4514   22.3305  -33.5751 H   0  0  0  0  0  0  0  0  0  0  0  0
   -3.4540   21.7768  -32.1745 H   0  0  0  0  0  0  0  0  0  0  0  0
   -4.6758   19.9812  -30.6015 H   0  0  0  0  0  0  0  0  0  0  0  0
   -5.6244   17.6808  -30.7961 H   0  0  0  0  0  0  0  0  0  0  0  0
   -6.6004   16.9110  -32.9635 H   0  0  0  0  0  0  0  0  0  0  0  0
   -6.6307   18.4417  -34.9352 H   0  0  0  0  0  0  0  0  0  0  0  0
   -5.6747   20.7385  -34.7515 H   0  0  0  0  0  0  0  0  0  0  0  0
   -7.0376   24.2850  -33.0081 H   0  0  0  0  0  0  0  0  0  0  0  0
   -9.5266   24.0504  -32.9308 H   0  0  0  0  0  0  0  0  0  0  0  0
  -10.5628   22.2541  -31.5334 H   0  0  0  0  0  0  0  0  0  0  0  0
   -9.0873   20.6934  -30.2470 H   0  0  0  0  0  0  0  0  0  0  0  0
  1  2  2  0
  2  3  1  0
  3  4  2  0
  4  5  1  0
  5  6  2  0
  6  7  1  0
  7  8  2  0
  8  9  1  0
  9 10  2  0
 10 11  1  0
 11 12  2  0
 12 13  1  0
  2 14  1  0
 14 15  1  0
 15 16  1  0
 16 17  2  0
 17 18  1  0
 18 19  2  0
 19 20  1  0
 20 21  2  0
 14 22  1  0
 22 23  2  0
 23 24  1  0
 24 25  2  0
 25 26  1  0
 26 27  2  0
 12  3  1  0
 21 16  1  0
 27 22  1  0
 10  5  1  0
  4 28  1  0
  6 29  1  0
  7 30  1  0
  8 31  1  0
  9 32  1  0
 11 33  1  0
 15 34  1  0
 15 35  1  0
 17 36  1  0
 18 37  1  0
 19 38  1  0
 20 39  1  0
 21 40  1  0
 23 41  1  0
 24 42  1  0
 25 43  1  0
 26 44  1  0
M  CHG  1  13  -1
M  END
>  <UniqueID>  (50) 
48

>  <SMILES>  (50) 
O=C(c1cc2ccccc2cc1[O-])N(Cc1ccccc1)c1ccccn1

>  <Energy>  (50) 
62.214709013308465

>  <Genealogy>  (50) 
O=C(c1cc2ccccc2cc1[O-])N(Cc1ccccc1)c1ccccn1 (protonated)
O=C(c1cc2ccccc2cc1[O-])N(Cc1ccccc1)c1ccccn1 (3D coordinates assigned)
O=C(c1cc2ccccc2cc1[O-])N(Cc1ccccc1)c1ccccn1 (optimized conformer: 62.214709013308465 kcal/mol)

>  <smiles>  (50) 
O=C(c1cc2ccccc2cc1O)N(Cc1ccccc1)c1ccccn1

>  <score_type>  (50) 
oracle

>  <origin>  (50) 
adgpu

>  <m_score__min__energy>  (50) 
-12.43

>  <m_primary>  (50) 
energy

$$$$
