0:0
     RDKit          3D

 49 51  0  0  0  0  0  0  0  0999 V2000
   -2.3750   20.0250  -27.4080 C   0  0  0  0  0  0  0  0  0  0  0  0
   -2.3870   20.7060  -28.6410 O   0  0  0  0  0  0  0  0  0  0  0  0
   -1.5400   20.0610  -29.5750 C   0  0  0  0  0  0  0  0  0  0  0  0
   -0.2530   20.8680  -29.7380 C   0  0  0  0  0  0  0  0  0  0  0  0
   -0.5450   22.2350  -30.0320 O   0  0  0  0  0  0  0  0  0  0  0  0
   -0.7840   23.2460  -29.0830 C   0  0  0  0  0  0  0  0  0  0  0  0
    0.2380   23.7580  -28.2580 C   0  0  0  0  0  0  0  0  0  0  0  0
   -0.0390   24.7670  -27.3330 C   0  0  0  0  0  0  0  0  0  0  0  0
   -1.3330   25.2730  -27.2160 C   0  0  0  0  0  0  0  0  0  0  0  0
   -2.3560   24.7720  -28.0210 C   0  0  0  0  0  0  0  0  0  0  0  0
   -2.0900   23.7630  -28.9650 C   0  0  0  0  0  0  0  0  0  0  0  0
   -3.1490   23.2240  -29.7760 N   0  0  0  0  0  0  0  0  0  0  0  0
   -4.1270   24.0430  -30.4380 C   0  0  0  0  0  0  0  0  0  0  0  0
   -3.8970   25.2680  -30.6310 O   0  0  0  0  0  0  0  0  0  0  0  0
   -5.3910   23.4650  -30.9350 C   0  0  0  0  0  0  0  0  0  0  0  0
   -6.6400   24.0620  -30.7610 C   0  0  0  0  0  0  0  0  0  0  0  0
   -7.7840   23.0910  -31.5180 S   0  0  0  0  0  0  0  0  0  0  0  0
   -6.6520   21.9520  -32.0240 C   0  0  0  0  0  0  0  0  0  0  0  0
   -6.9490   20.7230  -32.8430 C   0  0  0  0  0  0  0  0  0  0  0  0
   -8.3700   20.1750  -32.5450 C   0  0  0  0  0  0  0  0  0  0  0  0
   -8.3420   18.9650  -31.6030 C   0  0  0  0  0  0  0  0  0  0  0  0
   -7.5130   17.8040  -32.1900 C   0  0  0  0  0  0  0  0  0  0  0  0
   -6.3300   18.2700  -33.0650 C   0  0  0  0  0  0  0  0  0  0  0  0
   -5.8360   19.6620  -32.6580 C   0  0  0  0  0  0  0  0  0  0  0  0
   -5.4050   22.3020  -31.6420 N   0  0  0  0  0  0  0  0  0  0  0  0
   -2.3879   20.7554  -26.5856 H   0  0  0  0  0  0  0  0  0  0  0  0
   -3.2619   19.3781  -27.3378 H   0  0  0  0  0  0  0  0  0  0  0  0
   -1.4659   19.4097  -27.3378 H   0  0  0  0  0  0  0  0  0  0  0  0
   -1.2962   19.0514  -29.2126 H   0  0  0  0  0  0  0  0  0  0  0  0
   -2.0526   19.9886  -30.5456 H   0  0  0  0  0  0  0  0  0  0  0  0
    0.3261   20.8157  -28.8042 H   0  0  0  0  0  0  0  0  0  0  0  0
    0.3257   20.4440  -30.5718 H   0  0  0  0  0  0  0  0  0  0  0  0
    1.2600   23.3603  -28.3433 H   0  0  0  0  0  0  0  0  0  0  0  0
    0.7651   25.1633  -26.6956 H   0  0  0  0  0  0  0  0  0  0  0  0
   -1.5475   26.0688  -26.4875 H   0  0  0  0  0  0  0  0  0  0  0  0
   -3.3770   25.1681  -27.9172 H   0  0  0  0  0  0  0  0  0  0  0  0
   -3.1470   22.1990  -29.9730 H   0  0  0  0  0  0  0  0  0  0  0  0
   -6.8403   25.0009  -30.2240 H   0  0  0  0  0  0  0  0  0  0  0  0
   -6.9492   20.9998  -33.9076 H   0  0  0  0  0  0  0  0  0  0  0  0
   -8.9660   20.9730  -32.0781 H   0  0  0  0  0  0  0  0  0  0  0  0
   -8.8115   19.8489  -33.4983 H   0  0  0  0  0  0  0  0  0  0  0  0
   -7.8986   19.2702  -30.6437 H   0  0  0  0  0  0  0  0  0  0  0  0
   -9.3752   18.6134  -31.4656 H   0  0  0  0  0  0  0  0  0  0  0  0
   -7.1151   17.2052  -31.3575 H   0  0  0  0  0  0  0  0  0  0  0  0
   -8.1852   17.2236  -32.8390 H   0  0  0  0  0  0  0  0  0  0  0  0
   -5.5029   17.5529  -32.9570 H   0  0  0  0  0  0  0  0  0  0  0  0
   -6.6751   18.3208  -34.1082 H   0  0  0  0  0  0  0  0  0  0  0  0
   -5.5316   19.6407  -31.6012 H   0  0  0  0  0  0  0  0  0  0  0  0
   -4.9843   19.9326  -33.2994 H   0  0  0  0  0  0  0  0  0  0  0  0
  1  2  1  0
  2  3  1  0
  3  4  1  0
  4  5  1  0
  5  6  1  0
  6  7  2  0
  7  8  1  0
  8  9  2  0
  9 10  1  0
 10 11  2  0
 11 12  1  0
 12 13  1  0
 13 14  2  0
 13 15  1  0
 15 16  2  0
 16 17  1  0
 17 18  1  0
 18 19  1  0
 19 20  1  0
 20 21  1  0
 21 22  1  0
 22 23  1  0
 23 24  1  0
 18 25  2  0
 11  6  1  0
 25 15  1  0
 24 19  1  0
  1 26  1  0
  1 27  1  0
  1 28  1  0
  3 29  1  0
  3 30  1  0
  4 31  1  0
  4 32  1  0
  7 33  1  0
  8 34  1  0
  9 35  1  0
 10 36  1  0
 12 37  1  0
 16 38  1  0
 19 39  1  0
 20 40  1  0
 20 41  1  0
 21 42  1  0
 21 43  1  0
 22 44  1  0
 22 45  1  0
 23 46  1  0
 23 47  1  0
 24 48  1  0
 24 49  1  0
M  END
>  <UniqueID>  (1) 
1

>  <SMILES>  (1) 
COCCOc1ccccc1NC(=O)c1csc(C2CCCCC2)n1

>  <Energy>  (1) 
85.0274162970427

>  <Genealogy>  (1) 
COCCOc1ccccc1NC(=O)c1csc(C2CCCCC2)n1 (3D coordinates assigned)
COCCOc1ccccc1NC(=O)c1csc(C2CCCCC2)n1 (nonaromatic ring conformer: 85.0274162970427 kcal/mol)

>  <smiles>  (1) 
COCCOc1ccccc1NC(=O)c1csc(C2CCCCC2)n1

>  <score_type>  (1) 
oracle

>  <origin>  (1) 
adgpu

>  <m_score__min__energy>  (1) 
-8.2599999999999998

>  <m_primary>  (1) 
energy

$$$$
1:0
     RDKit          3D

 47 50  0  0  0  0  0  0  0  0999 V2000
   -0.0620   24.2050  -24.7460 C   0  0  0  0  0  0  0  0  0  0  0  0
    0.4810   24.0490  -26.1620 C   0  0  0  0  0  0  0  0  0  0  0  0
   -0.5770   24.3230  -27.1530 N   0  0  0  0  0  0  0  0  0  0  0  0
   -0.4990   25.4440  -27.9650 C   0  0  0  0  0  0  0  0  0  0  0  0
    0.4650   26.2490  -27.8570 O   0  0  0  0  0  0  0  0  0  0  0  0
   -1.4620   25.6940  -28.9030 N   0  0  0  0  0  0  0  0  0  0  0  0
   -2.4880   24.8220  -29.0250 C   0  0  0  0  0  0  0  0  0  0  0  0
   -3.5090   24.9050  -29.8870 N   0  0  0  0  0  0  0  0  0  0  0  0
   -4.2210   23.7810  -29.5920 C   0  0  0  0  0  0  0  0  0  0  0  0
   -5.4710   23.4150  -30.2950 C   0  0  0  0  0  0  0  0  0  0  0  0
   -6.4670   22.6720  -29.6370 C   0  0  0  0  0  0  0  0  0  0  0  0
   -7.6480   22.3270  -30.3010 C   0  0  0  0  0  0  0  0  0  0  0  0
   -7.8530   22.7160  -31.6380 C   0  0  0  0  0  0  0  0  0  0  0  0
   -9.0180   22.3920  -32.3520 O   0  0  0  0  0  0  0  0  0  0  0  0
   -9.8260   21.2350  -32.1330 C   0  0  0  0  0  0  0  0  0  0  0  0
   -9.0520   19.9850  -32.4310 C   0  0  0  0  0  0  0  0  0  0  0  0
   -9.6230   18.8670  -32.3090 O   0  0  0  0  0  0  0  0  0  0  0  0
   -7.6840   20.0670  -32.8610 N   0  0  0  0  0  0  0  0  0  0  0  0
   -6.8290   18.9250  -33.0420 C   0  0  0  0  0  0  0  0  0  0  0  0
   -6.6260   17.9890  -32.0100 C   0  0  0  0  0  0  0  0  0  0  0  0
   -5.7690   16.9010  -32.2040 C   0  0  0  0  0  0  0  0  0  0  0  0
   -5.1000   16.7430  -33.4210 C   0  0  0  0  0  0  0  0  0  0  0  0
   -5.2770   17.6800  -34.4430 C   0  0  0  0  0  0  0  0  0  0  0  0
   -4.6040   17.5290  -35.6480 O   0  0  0  0  0  0  0  0  0  0  0  0
   -6.1330   18.7710  -34.2510 C   0  0  0  0  0  0  0  0  0  0  0  0
   -6.8630   23.4600  -32.2880 C   0  0  0  0  0  0  0  0  0  0  0  0
   -5.6820   23.8070  -31.6280 C   0  0  0  0  0  0  0  0  0  0  0  0
   -3.6830   23.0220  -28.5970 N   0  0  0  0  0  0  0  0  0  0  0  0
   -2.5860   23.7180  -28.2660 C   0  0  0  0  0  0  0  0  0  0  0  0
   -1.6230   23.4370  -27.3080 C   0  0  0  0  0  0  0  0  0  0  0  0
   -1.7120   22.3910  -26.6080 O   0  0  0  0  0  0  0  0  0  0  0  0
    0.7332   23.9765  -24.0211 H   0  0  0  0  0  0  0  0  0  0  0  0
   -0.4075   25.2387  -24.5976 H   0  0  0  0  0  0  0  0  0  0  0  0
   -0.9035   23.5123  -24.5976 H   0  0  0  0  0  0  0  0  0  0  0  0
    1.3098   24.7565  -26.3121 H   0  0  0  0  0  0  0  0  0  0  0  0
    0.8357   23.0164  -26.2958 H   0  0  0  0  0  0  0  0  0  0  0  0
   -6.3160   22.3601  -28.5930 H   0  0  0  0  0  0  0  0  0  0  0  0
   -8.4216   21.7481  -29.7753 H   0  0  0  0  0  0  0  0  0  0  0  0
  -10.1527   21.2160  -31.0828 H   0  0  0  0  0  0  0  0  0  0  0  0
  -10.6977   21.2799  -32.8025 H   0  0  0  0  0  0  0  0  0  0  0  0
   -7.3200   20.9990  -33.1620 H   0  0  0  0  0  0  0  0  0  0  0  0
   -7.1435   18.1140  -31.0474 H   0  0  0  0  0  0  0  0  0  0  0  0
   -5.6211   16.1681  -31.3972 H   0  0  0  0  0  0  0  0  0  0  0  0
   -4.4340   15.8811  -33.5745 H   0  0  0  0  0  0  0  0  0  0  0  0
   -6.2610   19.5127  -35.0532 H   0  0  0  0  0  0  0  0  0  0  0  0
   -7.0162   23.7754  -33.3306 H   0  0  0  0  0  0  0  0  0  0  0  0
   -4.9125   24.3905  -32.1547 H   0  0  0  0  0  0  0  0  0  0  0  0
  1  2  1  0
  2  3  1  0
  3  4  1  0
  4  5  2  0
  4  6  1  0
  6  7  1  0
  7  8  1  0
  8  9  1  0
  9 10  1  0
 10 11  2  0
 11 12  1  0
 12 13  2  0
 13 14  1  0
 14 15  1  0
 15 16  1  0
 16 17  2  0
 16 18  1  0
 18 19  1  0
 19 20  2  0
 20 21  1  0
 21 22  2  0
 22 23  1  0
 23 24  1  0
 23 25  2  0
 13 26  1  0
 26 27  2  0
  9 28  2  0
 28 29  1  0
 29 30  1  0
 30 31  2  0
 30  3  1  0
 29  7  2  0
 27 10  1  0
 25 19  1  0
  1 32  1  0
  1 33  1  0
  1 34  1  0
  2 35  1  0
  2 36  1  0
 11 37  1  0
 12 38  1  0
 15 39  1  0
 15 40  1  0
 18 41  1  0
 20 42  1  0
 21 43  1  0
 22 44  1  0
 25 45  1  0
 26 46  1  0
 27 47  1  0
M  CHG  3   6  -1   8  -1  24  -1
M  END
>  <UniqueID>  (2) 
2

>  <SMILES>  (2) 
CCn1c(=O)[n-]c2[n-]c(-c3ccc(OCC(=O)Nc4cccc([O-])c4)cc3)nc2c1=O

>  <Energy>  (2) 
93.46933214918975

>  <Genealogy>  (2) 
CCn1c(=O)[n-]c2[n-]c(-c3ccc(OCC(=O)Nc4cccc([O-])c4)cc3)nc2c1=O (protonated)
CCn1c(=O)[n-]c2[n-]c(-c3ccc(OCC(=O)Nc4cccc([O-])c4)cc3)nc2c1=O (3D coordinates assigned)
CCn1c(=O)[n-]c2[n-]c(-c3ccc(OCC(=O)Nc4cccc([O-])c4)cc3)nc2c1=O (optimized conformer: 93.46933214918975 kcal/mol)

>  <smiles>  (2) 
CCn1c(=O)[nH]c2[nH]c(-c3ccc(OCC(=O)Nc4cccc(O)c4)cc3)nc2c1=O

>  <score_type>  (2) 
oracle

>  <origin>  (2) 
adgpu

>  <m_score__min__energy>  (2) 
-12.460000000000001

>  <m_primary>  (2) 
energy

$$$$
2:0
     RDKit          3D

 43 45  0  0  0  0  0  0  0  0999 V2000
   -1.7270   24.2100  -27.6610 C   0  0  0  0  0  0  0  0  0  0  0  0
   -2.2730   23.9610  -29.0340 C   0  0  0  0  0  0  0  0  0  0  0  0
   -2.7120   24.9320  -29.7050 O   0  0  0  0  0  0  0  0  0  0  0  0
   -2.3170   22.6460  -29.6020 N   0  0  0  0  0  0  0  0  0  0  0  0
   -3.0690   22.3080  -30.7730 C   0  0  0  0  0  0  0  0  0  0  0  0
   -2.3760   21.9860  -31.9450 C   0  0  0  0  0  0  0  0  0  0  0  0
   -3.0690   21.6140  -33.0950 C   0  0  0  0  0  0  0  0  0  0  0  0
   -4.4610   21.5490  -33.0820 C   0  0  0  0  0  0  0  0  0  0  0  0
   -5.1770   21.8780  -31.9230 C   0  0  0  0  0  0  0  0  0  0  0  0
   -6.6080   21.7440  -31.9260 N   0  0  0  0  0  0  0  0  0  0  0  0
   -7.4980   22.7180  -31.6320 C   0  0  0  0  0  0  0  0  0  0  0  0
   -7.1370   24.1360  -31.3120 C   0  0  0  0  0  0  0  0  0  0  0  0
   -8.7850   22.2160  -31.6680 C   0  0  0  0  0  0  0  0  0  0  0  0
   -8.6760   20.8770  -31.9850 C   0  0  0  0  0  0  0  0  0  0  0  0
   -7.3260   20.6150  -32.1470 C   0  0  0  0  0  0  0  0  0  0  0  0
   -6.7600   19.2920  -32.5010 C   0  0  0  0  0  0  0  0  0  0  0  0
   -6.4990   18.9770  -33.8450 C   0  0  0  0  0  0  0  0  0  0  0  0
   -5.9990   17.7190  -34.1910 C   0  0  0  0  0  0  0  0  0  0  0  0
   -5.7420   16.7660  -33.2010 C   0  0  0  0  0  0  0  0  0  0  0  0
   -5.0760   15.0450  -33.7040 Br  0  0  0  0  0  0  0  0  0  0  0  0
   -5.9770   17.0760  -31.8550 C   0  0  0  0  0  0  0  0  0  0  0  0
   -5.7130   16.1290  -30.8660 O   0  0  0  0  0  0  0  0  0  0  0  0
   -6.4790   18.3380  -31.5080 C   0  0  0  0  0  0  0  0  0  0  0  0
   -4.4840   22.3110  -30.7660 C   0  0  0  0  0  0  0  0  0  0  0  0
   -5.2450   22.7810  -29.5510 C   0  0  0  0  0  0  0  0  0  0  0  0
   -2.4580   23.8766  -26.9097 H   0  0  0  0  0  0  0  0  0  0  0  0
   -0.7884   23.6509  -27.5327 H   0  0  0  0  0  0  0  0  0  0  0  0
   -1.5337   25.2853  -27.5327 H   0  0  0  0  0  0  0  0  0  0  0  0
   -1.2768   22.0268  -31.9586 H   0  0  0  0  0  0  0  0  0  0  0  0
   -2.5165   21.3712  -34.0147 H   0  0  0  0  0  0  0  0  0  0  0  0
   -5.0016   21.2373  -33.9878 H   0  0  0  0  0  0  0  0  0  0  0  0
   -7.1033   24.2684  -30.2205 H   0  0  0  0  0  0  0  0  0  0  0  0
   -6.1509   24.3689  -31.7402 H   0  0  0  0  0  0  0  0  0  0  0  0
   -7.8917   24.8121  -31.7402 H   0  0  0  0  0  0  0  0  0  0  0  0
   -9.7142   22.7741  -31.4807 H   0  0  0  0  0  0  0  0  0  0  0  0
   -9.5016   20.1575  -32.0888 H   0  0  0  0  0  0  0  0  0  0  0  0
   -6.6893   19.7247  -34.6291 H   0  0  0  0  0  0  0  0  0  0  0  0
   -5.8068   17.4775  -35.2468 H   0  0  0  0  0  0  0  0  0  0  0  0
   -6.1010   16.2140  -29.9340 H   0  0  0  0  0  0  0  0  0  0  0  0
   -6.6544   18.5835  -30.4502 H   0  0  0  0  0  0  0  0  0  0  0  0
   -4.7194   22.4564  -28.6409 H   0  0  0  0  0  0  0  0  0  0  0  0
   -5.3133   23.8788  -29.5631 H   0  0  0  0  0  0  0  0  0  0  0  0
   -6.2572   22.3505  -29.5631 H   0  0  0  0  0  0  0  0  0  0  0  0
  1  2  1  0
  2  3  2  0
  2  4  1  0
  4  5  1  0
  5  6  2  0
  6  7  1  0
  7  8  2  0
  8  9  1  0
  9 10  1  0
 10 11  1  0
 11 12  1  0
 11 13  2  0
 13 14  1  0
 14 15  2  0
 15 16  1  0
 16 17  2  0
 17 18  1  0
 18 19  2  0
 19 20  1  0
 19 21  1  0
 21 22  1  0
 21 23  2  0
  9 24  2  0
 24 25  1  0
 24  5  1  0
 15 10  1  0
 23 16  1  0
  1 26  1  0
  1 27  1  0
  1 28  1  0
  6 29  1  0
  7 30  1  0
  8 31  1  0
 12 32  1  0
 12 33  1  0
 12 34  1  0
 13 35  1  0
 14 36  1  0
 17 37  1  0
 18 38  1  0
 22 39  1  0
 23 40  1  0
 25 41  1  0
 25 42  1  0
 25 43  1  0
M  CHG  1   4  -1
M  END
>  <UniqueID>  (3) 
3

>  <SMILES>  (3) 
CC(=O)[N-]c1cccc(-n2c(C)ccc2-c2ccc(Br)c(O)c2)c1C

>  <Energy>  (3) 
84.59732868133489

>  <Genealogy>  (3) 
CC(=O)[N-]c1cccc(-n2c(C)ccc2-c2ccc(Br)c(O)c2)c1C (protonated)
CC(=O)[N-]c1cccc(-n2c(C)ccc2-c2ccc(Br)c(O)c2)c1C (3D coordinates assigned)
CC(=O)[N-]c1cccc(-n2c(C)ccc2-c2ccc(Br)c(O)c2)c1C (optimized conformer: 84.59732868133489 kcal/mol)

>  <smiles>  (3) 
CC(=O)Nc1cccc(-n2c(C)ccc2-c2ccc(Br)c(O)c2)c1C

>  <score_type>  (3) 
oracle

>  <origin>  (3) 
adgpu

>  <m_score__min__energy>  (3) 
-9.7300000000000004

>  <m_primary>  (3) 
energy

$$$$
3:0
     RDKit          3D

 51 54  0  0  0  0  0  0  0  0999 V2000
   -6.9040   17.9360  -31.0550 O   0  0  0  0  0  0  0  0  0  0  0  0
   -6.7610   18.3110  -32.5050 S   0  0  0  0  0  0  0  0  0  0  0  0
   -6.9760   17.0820  -33.3430 O   0  0  0  0  0  0  0  0  0  0  0  0
   -5.1380   18.9250  -32.8130 C   0  0  0  0  0  0  0  0  0  0  0  0
   -4.5530   19.8680  -31.9560 C   0  0  0  0  0  0  0  0  0  0  0  0
   -3.2750   20.3660  -32.2270 C   0  0  0  0  0  0  0  0  0  0  0  0
   -2.5730   19.9390  -33.3650 C   0  0  0  0  0  0  0  0  0  0  0  0
   -1.2240   20.4750  -33.6490 C   0  0  0  0  0  0  0  0  0  0  0  0
   -0.7070   20.6840  -34.9130 C   0  0  0  0  0  0  0  0  0  0  0  0
    0.5120   21.2930  -34.6870 C   0  0  0  0  0  0  0  0  0  0  0  0
    1.5020   21.6860  -35.7380 C   0  0  0  0  0  0  0  0  0  0  0  0
    1.5890   20.6830  -36.6850 F   0  0  0  0  0  0  0  0  0  0  0  0
    1.0980   22.8580  -36.3510 F   0  0  0  0  0  0  0  0  0  0  0  0
    2.7470   21.8820  -35.1680 F   0  0  0  0  0  0  0  0  0  0  0  0
    0.7310   21.4130  -33.3630 N   0  0  0  0  0  0  0  0  0  0  0  0
   -0.3260   20.9180  -32.7340 N   0  0  0  0  0  0  0  0  0  0  0  0
   -0.3950   20.8180  -31.3020 C   0  0  0  0  0  0  0  0  0  0  0  0
   -0.0540   19.6130  -30.6680 C   0  0  0  0  0  0  0  0  0  0  0  0
   -0.1300   19.5010  -29.2760 C   0  0  0  0  0  0  0  0  0  0  0  0
   -0.5620   20.5860  -28.5090 C   0  0  0  0  0  0  0  0  0  0  0  0
   -0.9260   21.7830  -29.1330 C   0  0  0  0  0  0  0  0  0  0  0  0
   -0.8520   21.8980  -30.5240 C   0  0  0  0  0  0  0  0  0  0  0  0
   -3.1540   18.9780  -34.2090 C   0  0  0  0  0  0  0  0  0  0  0  0
   -4.4310   18.4800  -33.9370 C   0  0  0  0  0  0  0  0  0  0  0  0
   -7.9420   19.5320  -32.9220 N   0  0  0  0  0  0  0  0  0  0  0  0
   -9.0500   19.5070  -31.9360 C   0  0  0  0  0  0  0  0  0  0  0  0
   -9.8490   20.8140  -31.9520 C   0  0  0  0  0  0  0  0  0  0  0  0
   -8.9630   22.0090  -31.5570 C   0  0  0  0  0  0  0  0  0  0  0  0
   -7.4730   21.7680  -31.8560 C   0  0  0  0  0  0  0  0  0  0  0  0
   -7.2960   20.8630  -33.0850 C   0  0  0  0  0  0  0  0  0  0  0  0
   -5.1009   20.2169  -31.0682 H   0  0  0  0  0  0  0  0  0  0  0  0
   -2.8169   21.0968  -31.5443 H   0  0  0  0  0  0  0  0  0  0  0  0
   -1.1627   20.4244  -35.8799 H   0  0  0  0  0  0  0  0  0  0  0  0
    0.2747   18.7524  -31.2691 H   0  0  0  0  0  0  0  0  0  0  0  0
    0.1506   18.5578  -28.7845 H   0  0  0  0  0  0  0  0  0  0  0  0
   -0.6157   20.4984  -27.4138 H   0  0  0  0  0  0  0  0  0  0  0  0
   -1.2709   22.6350  -28.5287 H   0  0  0  0  0  0  0  0  0  0  0  0
   -1.1522   22.8366  -31.0127 H   0  0  0  0  0  0  0  0  0  0  0  0
   -2.6011   18.6158  -35.0882 H   0  0  0  0  0  0  0  0  0  0  0  0
   -4.8829   17.7352  -34.6087 H   0  0  0  0  0  0  0  0  0  0  0  0
   -8.3370   19.2540  -33.8510 H   0  0  0  0  0  0  0  0  0  0  0  0
   -9.7250   18.6730  -32.1786 H   0  0  0  0  0  0  0  0  0  0  0  0
   -8.6154   19.3818  -30.9333 H   0  0  0  0  0  0  0  0  0  0  0  0
  -10.2461   20.9801  -32.9643 H   0  0  0  0  0  0  0  0  0  0  0  0
  -10.6695   20.7312  -31.2240 H   0  0  0  0  0  0  0  0  0  0  0  0
   -9.2958   22.8945  -32.1183 H   0  0  0  0  0  0  0  0  0  0  0  0
   -9.0648   22.1536  -30.4713 H   0  0  0  0  0  0  0  0  0  0  0  0
   -6.9840   22.7345  -32.0478 H   0  0  0  0  0  0  0  0  0  0  0  0
   -7.0177   21.2707  -30.9868 H   0  0  0  0  0  0  0  0  0  0  0  0
   -7.7407   21.3645  -33.9572 H   0  0  0  0  0  0  0  0  0  0  0  0
   -6.2173   20.6925  -33.2168 H   0  0  0  0  0  0  0  0  0  0  0  0
  1  2  2  0
  2  3  2  0
  2  4  1  0
  4  5  2  0
  5  6  1  0
  6  7  2  0
  7  8  1  0
  8  9  2  0
  9 10  1  0
 10 11  1  0
 11 12  1  0
 11 13  1  0
 11 14  1  0
 10 15  2  0
 15 16  1  0
 16 17  1  0
 17 18  2  0
 18 19  1  0
 19 20  2  0
 20 21  1  0
 21 22  2  0
  7 23  1  0
 23 24  2  0
  2 25  1  0
 25 26  1  0
 26 27  1  0
 27 28  1  0
 28 29  1  0
 29 30  1  0
 24  4  1  0
 30 25  1  0
 16  8  1  0
 22 17  1  0
  5 31  1  0
  6 32  1  0
  9 33  1  0
 18 34  1  0
 19 35  1  0
 20 36  1  0
 21 37  1  0
 22 38  1  0
 23 39  1  0
 24 40  1  0
 25 41  1  0
 26 42  1  0
 26 43  1  0
 27 44  1  0
 27 45  1  0
 28 46  1  0
 28 47  1  0
 29 48  1  0
 29 49  1  0
 30 50  1  0
 30 51  1  0
M  CHG  1  25   1
M  END
>  <UniqueID>  (4) 
4

>  <SMILES>  (4) 
O=S(=O)(c1ccc(-c2cc(C(F)(F)F)nn2-c2ccccc2)cc1)[NH+]1CCCCC1

>  <Energy>  (4) 
96.86534040063806

>  <Genealogy>  (4) 
O=S(=O)(c1ccc(-c2cc(C(F)(F)F)nn2-c2ccccc2)cc1)[NH+]1CCCCC1 (protonated)
O=S(=O)(c1ccc(-c2cc(C(F)(F)F)nn2-c2ccccc2)cc1)[NH+]1CCCCC1 (3D coordinates assigned)
O=S(=O)(c1ccc(-c2cc(C(F)(F)F)nn2-c2ccccc2)cc1)[NH+]1CCCCC1 (nonaromatic ring conformer: 96.86534040063806 kcal/mol)

>  <smiles>  (4) 
O=S(=O)(c1ccc(-c2cc(C(F)(F)F)nn2-c2ccccc2)cc1)N1CCCCC1

>  <score_type>  (4) 
oracle

>  <origin>  (4) 
adgpu

>  <m_score__min__energy>  (4) 
-8.2300000000000004

>  <m_primary>  (4) 
energy

$$$$
4:0
     RDKit          3D

 52 55  0  0  0  0  0  0  0  0999 V2000
   -0.6560   25.5490  -23.3520 N   0  0  0  0  0  0  0  0  0  0  0  0
    0.3560   25.4830  -24.7530 S   0  0  0  0  0  0  0  0  0  0  0  0
    1.2880   24.3110  -24.6430 O   0  0  0  0  0  0  0  0  0  0  0  0
    1.1570   26.7540  -24.8350 O   0  0  0  0  0  0  0  0  0  0  0  0
   -0.6330   25.3100  -26.1980 C   0  0  0  0  0  0  0  0  0  0  0  0
   -0.1110   25.6350  -27.4560 C   0  0  0  0  0  0  0  0  0  0  0  0
   -0.9010   25.4980  -28.6010 C   0  0  0  0  0  0  0  0  0  0  0  0
   -2.2240   25.0500  -28.5010 C   0  0  0  0  0  0  0  0  0  0  0  0
   -3.0090   24.9250  -29.6950 N   0  0  0  0  0  0  0  0  0  0  0  0
   -3.3170   23.7030  -30.3790 C   0  0  0  0  0  0  0  0  0  0  0  0
   -2.3660   23.0100  -30.8300 O   0  0  0  0  0  0  0  0  0  0  0  0
   -4.7130   23.2640  -30.6190 C   0  0  0  0  0  0  0  0  0  0  0  0
   -5.5250   22.8240  -29.5580 C   0  0  0  0  0  0  0  0  0  0  0  0
   -6.8370   22.4060  -29.7960 C   0  0  0  0  0  0  0  0  0  0  0  0
   -7.3660   22.4390  -31.0930 C   0  0  0  0  0  0  0  0  0  0  0  0
   -9.0100   21.8750  -31.4000 S   0  0  0  0  0  0  0  0  0  0  0  0
   -9.7540   21.7690  -30.0980 O   0  0  0  0  0  0  0  0  0  0  0  0
   -9.7250   22.8760  -32.2650 O   0  0  0  0  0  0  0  0  0  0  0  0
   -9.0000   20.3160  -32.1950 N   0  0  0  0  0  0  0  0  0  0  0  0
   -8.8210   19.2180  -31.2040 C   0  0  0  0  0  0  0  0  0  0  0  0
   -7.9460   18.0590  -31.7050 C   0  0  0  0  0  0  0  0  0  0  0  0
   -6.6580   18.6160  -32.2280 C   0  0  0  0  0  0  0  0  0  0  0  0
   -5.4200   18.0170  -31.9550 C   0  0  0  0  0  0  0  0  0  0  0  0
   -4.2470   18.5770  -32.4710 C   0  0  0  0  0  0  0  0  0  0  0  0
   -4.3080   19.7270  -33.2640 C   0  0  0  0  0  0  0  0  0  0  0  0
   -5.5440   20.3130  -33.5540 C   0  0  0  0  0  0  0  0  0  0  0  0
   -6.7210   19.7620  -33.0250 C   0  0  0  0  0  0  0  0  0  0  0  0
   -8.0800   20.3170  -33.3590 C   0  0  0  0  0  0  0  0  0  0  0  0
   -6.5740   22.9120  -32.1470 C   0  0  0  0  0  0  0  0  0  0  0  0
   -5.2570   23.3180  -31.9130 C   0  0  0  0  0  0  0  0  0  0  0  0
   -2.7360   24.6920  -27.2410 C   0  0  0  0  0  0  0  0  0  0  0  0
   -1.9430   24.8240  -26.0980 C   0  0  0  0  0  0  0  0  0  0  0  0
   -0.1110   26.0330  -22.6020 H   0  0  0  0  0  0  0  0  0  0  0  0
   -0.8000   24.5650  -23.0310 H   0  0  0  0  0  0  0  0  0  0  0  0
    0.9233   25.9990  -27.5434 H   0  0  0  0  0  0  0  0  0  0  0  0
   -0.4806   25.7438  -29.5873 H   0  0  0  0  0  0  0  0  0  0  0  0
   -5.1244   22.8089  -28.5337 H   0  0  0  0  0  0  0  0  0  0  0  0
   -7.4576   22.0492  -28.9608 H   0  0  0  0  0  0  0  0  0  0  0  0
   -8.3533   19.6394  -30.3020 H   0  0  0  0  0  0  0  0  0  0  0  0
   -9.8198   18.8006  -31.0085 H   0  0  0  0  0  0  0  0  0  0  0  0
   -7.7394   17.3667  -30.8755 H   0  0  0  0  0  0  0  0  0  0  0  0
   -8.4695   17.5150  -32.5050 H   0  0  0  0  0  0  0  0  0  0  0  0
   -5.3715   17.1087  -31.3364 H   0  0  0  0  0  0  0  0  0  0  0  0
   -3.2744   18.1118  -32.2526 H   0  0  0  0  0  0  0  0  0  0  0  0
   -3.3828   20.1711  -33.6601 H   0  0  0  0  0  0  0  0  0  0  0  0
   -5.5935   21.2048  -34.1960 H   0  0  0  0  0  0  0  0  0  0  0  0
   -7.9605   21.3518  -33.7124 H   0  0  0  0  0  0  0  0  0  0  0  0
   -8.5218   19.6718  -34.1326 H   0  0  0  0  0  0  0  0  0  0  0  0
   -6.9904   22.9642  -33.1638 H   0  0  0  0  0  0  0  0  0  0  0  0
   -4.6418   23.6827  -32.7488 H   0  0  0  0  0  0  0  0  0  0  0  0
   -3.7629   24.3072  -27.1550 H   0  0  0  0  0  0  0  0  0  0  0  0
   -2.3495   24.5449  -25.1147 H   0  0  0  0  0  0  0  0  0  0  0  0
  1  2  1  0
  2  3  2  0
  2  4  2  0
  2  5  1  0
  5  6  2  0
  6  7  1  0
  7  8  2  0
  8  9  1  0
  9 10  1  0
 10 11  2  0
 10 12  1  0
 12 13  2  0
 13 14  1  0
 14 15  2  0
 15 16  1  0
 16 17  2  0
 16 18  2  0
 16 19  1  0
 19 20  1  0
 20 21  1  0
 21 22  1  0
 22 23  2  0
 23 24  1  0
 24 25  2  0
 25 26  1  0
 26 27  2  0
 27 28  1  0
 15 29  1  0
 29 30  2  0
  8 31  1  0
 31 32  2  0
 32  5  1  0
 30 12  1  0
 28 19  1  0
 27 22  1  0
  1 33  1  0
  1 34  1  0
  6 35  1  0
  7 36  1  0
 13 37  1  0
 14 38  1  0
 20 39  1  0
 20 40  1  0
 21 41  1  0
 21 42  1  0
 23 43  1  0
 24 44  1  0
 25 45  1  0
 26 46  1  0
 28 47  1  0
 28 48  1  0
 29 49  1  0
 30 50  1  0
 31 51  1  0
 32 52  1  0
M  CHG  1   9  -1
M  END
>  <UniqueID>  (5) 
5

>  <SMILES>  (5) 
NS(=O)(=O)c1ccc([N-]C(=O)c2ccc(S(=O)(=O)N3CCc4ccccc4C3)cc2)cc1

>  <Energy>  (5) 
66.07125975355642

>  <Genealogy>  (5) 
NS(=O)(=O)c1ccc([N-]C(=O)c2ccc(S(=O)(=O)N3CCc4ccccc4C3)cc2)cc1 (protonated)
NS(=O)(=O)c1ccc([N-]C(=O)c2ccc(S(=O)(=O)N3CCc4ccccc4C3)cc2)cc1 (3D coordinates assigned)
NS(=O)(=O)c1ccc([N-]C(=O)c2ccc(S(=O)(=O)N3CCc4ccccc4C3)cc2)cc1 (nonaromatic ring conformer: 66.07125975355642 kcal/mol)

>  <smiles>  (5) 
NS(=O)(=O)c1ccc(NC(=O)c2ccc(S(=O)(=O)N3CCc4ccccc4C3)cc2)cc1

>  <score_type>  (5) 
oracle

>  <origin>  (5) 
adgpu

>  <m_score__min__energy>  (5) 
-12.140000000000001

>  <m_primary>  (5) 
energy

$$$$
5:0
     RDKit          3D

 25 27  0  0  0  0  0  0  0  0999 V2000
   -1.2380   26.0550  -29.3320 O   0  0  0  0  0  0  0  0  0  0  0  0
   -1.2450   24.9890  -28.4420 C   0  0  0  0  0  0  0  0  0  0  0  0
   -0.2300   24.9310  -27.4780 C   0  0  0  0  0  0  0  0  0  0  0  0
   -0.1850   23.8850  -26.5580 C   0  0  0  0  0  0  0  0  0  0  0  0
   -1.1540   22.8850  -26.5960 C   0  0  0  0  0  0  0  0  0  0  0  0
   -2.1720   22.9300  -27.5510 C   0  0  0  0  0  0  0  0  0  0  0  0
   -2.2390   23.9800  -28.4920 C   0  0  0  0  0  0  0  0  0  0  0  0
   -3.3510   23.9710  -29.4880 C   0  0  0  0  0  0  0  0  0  0  0  0
   -4.3690   23.0390  -29.6390 C   0  0  0  0  0  0  0  0  0  0  0  0
   -5.1100   23.5170  -30.7000 C   0  0  0  0  0  0  0  0  0  0  0  0
   -6.3120   22.8910  -31.2700 C   0  0  0  0  0  0  0  0  0  0  0  0
   -7.5640   23.4850  -31.3750 C   0  0  0  0  0  0  0  0  0  0  0  0
   -8.5220   22.6500  -31.9610 C   0  0  0  0  0  0  0  0  0  0  0  0
   -8.0310   21.4010  -32.3200 C   0  0  0  0  0  0  0  0  0  0  0  0
   -6.4030   21.3350  -31.9060 S   0  0  0  0  0  0  0  0  0  0  0  0
   -4.5710   24.6610  -31.1550 N   0  0  0  0  0  0  0  0  0  0  0  0
   -3.5050   24.9360  -30.4200 N   0  0  0  0  0  0  0  0  0  0  0  0
    0.5381   25.7178  -27.4470 H   0  0  0  0  0  0  0  0  0  0  0  0
    0.6143   23.8492  -25.8032 H   0  0  0  0  0  0  0  0  0  0  0  0
   -1.1173   22.0577  -25.8719 H   0  0  0  0  0  0  0  0  0  0  0  0
   -2.9327   22.1356  -27.5702 H   0  0  0  0  0  0  0  0  0  0  0  0
   -4.5445   22.1280  -29.0480 H   0  0  0  0  0  0  0  0  0  0  0  0
   -7.7800   24.5077  -31.0323 H   0  0  0  0  0  0  0  0  0  0  0  0
   -9.5667   22.9543  -32.1224 H   0  0  0  0  0  0  0  0  0  0  0  0
   -8.6085   20.5936  -32.7939 H   0  0  0  0  0  0  0  0  0  0  0  0
  1  2  1  0
  2  3  2  0
  3  4  1  0
  4  5  2  0
  5  6  1  0
  6  7  2  0
  7  8  1  0
  8  9  1  0
  9 10  2  0
 10 11  1  0
 11 12  2  0
 12 13  1  0
 13 14  2  0
 14 15  1  0
 10 16  1  0
 16 17  1  0
  7  2  1  0
 17  8  2  0
 15 11  1  0
  3 18  1  0
  4 19  1  0
  5 20  1  0
  6 21  1  0
  9 22  1  0
 12 23  1  0
 13 24  1  0
 14 25  1  0
M  CHG  2   1  -1  16  -1
M  END
>  <UniqueID>  (6) 
6

>  <SMILES>  (6) 
[O-]c1ccccc1-c1cc(-c2cccs2)[n-]n1

>  <Energy>  (6) 
87.23800860342818

>  <Genealogy>  (6) 
[O-]c1ccccc1-c1cc(-c2cccs2)[n-]n1 (protonated)
[O-]c1ccccc1-c1cc(-c2cccs2)[n-]n1 (3D coordinates assigned)
[O-]c1ccccc1-c1cc(-c2cccs2)[n-]n1 (optimized conformer: 87.23800860342818 kcal/mol)

>  <smiles>  (6) 
Oc1ccccc1-c1cc(-c2cccs2)[nH]n1

>  <score_type>  (6) 
oracle

>  <origin>  (6) 
adgpu

>  <m_score__min__energy>  (6) 
-11.710000000000001

>  <m_primary>  (6) 
energy

$$$$
6:0
     RDKit          3D

 29 30  0  0  0  0  0  0  0  0999 V2000
   -9.0585   22.4852  -29.7810 H   0  0  0  0  0  0  0  0  0  0  0  0
   -8.2360   22.1900  -30.4490 C   0  0  0  0  0  0  0  0  0  0  0  0
   -8.4340   21.1210  -31.2370 C   0  0  0  0  0  0  0  0  0  0  0  0
   -9.4457   20.6899  -31.2608 H   0  0  0  0  0  0  0  0  0  0  0  0
   -7.3980   20.4760  -32.0770 C   0  0  0  0  0  0  0  0  0  0  0  0
   -6.2620   21.1970  -32.4780 C   0  0  0  0  0  0  0  0  0  0  0  0
   -6.1508   22.2541  -32.1951 H   0  0  0  0  0  0  0  0  0  0  0  0
   -5.2770   20.5690  -33.2350 C   0  0  0  0  0  0  0  0  0  0  0  0
   -4.2580   21.2160  -33.5970 O   0  0  0  0  0  0  0  0  0  0  0  0
   -5.4190   19.2260  -33.5840 C   0  0  0  0  0  0  0  0  0  0  0  0
   -4.4250   18.5990  -34.3300 O   0  0  0  0  0  0  0  0  0  0  0  0
   -6.5640   18.5200  -33.1690 C   0  0  0  0  0  0  0  0  0  0  0  0
   -6.7140   17.0590  -33.5050 C   0  0  0  0  0  0  0  0  0  0  0  0
   -6.7741   16.4734  -32.5758 H   0  0  0  0  0  0  0  0  0  0  0  0
   -7.6321   16.9102  -34.0923 H   0  0  0  0  0  0  0  0  0  0  0  0
   -5.8452   16.7267  -34.0923 H   0  0  0  0  0  0  0  0  0  0  0  0
   -7.5100   19.1500  -32.4030 N   0  0  0  0  0  0  0  0  0  0  0  0
   -8.6080   18.4410  -31.9640 O   0  0  0  0  0  0  0  0  0  0  0  0
   -7.0000   23.0030  -30.4070 C   0  0  0  0  0  0  0  0  0  0  0  0
   -6.8610   24.0820  -31.2940 C   0  0  0  0  0  0  0  0  0  0  0  0
   -7.6742   24.3222  -31.9947 H   0  0  0  0  0  0  0  0  0  0  0  0
   -5.6950   24.8530  -31.2920 C   0  0  0  0  0  0  0  0  0  0  0  0
   -5.5997   25.7067  -31.9791 H   0  0  0  0  0  0  0  0  0  0  0  0
   -4.6490   24.5400  -30.4170 C   0  0  0  0  0  0  0  0  0  0  0  0
   -3.4910   25.3080  -30.4160 O   0  0  0  0  0  0  0  0  0  0  0  0
   -4.7680   23.4500  -29.5500 C   0  0  0  0  0  0  0  0  0  0  0  0
   -3.9434   23.1999  -28.8663 H   0  0  0  0  0  0  0  0  0  0  0  0
   -5.9330   22.6770  -29.5500 C   0  0  0  0  0  0  0  0  0  0  0  0
   -6.0156   21.8106  -28.8773 H   0  0  0  0  0  0  0  0  0  0  0  0
  1  2  1  0
  2  3  2  0
  3  4  1  0
  3  5  1  0
  5  6  2  0
  6  7  1  0
  6  8  1  0
  8  9  2  0
  8 10  1  0
 10 11  1  0
 10 12  2  0
 12 13  1  0
 13 14  1  0
 13 15  1  0
 13 16  1  0
 12 17  1  0
 17 18  1  0
  2 19  1  0
 19 20  2  0
 20 21  1  0
 20 22  1  0
 22 23  1  0
 22 24  2  0
 24 25  1  0
 24 26  1  0
 26 27  1  0
 26 28  2  0
 28 29  1  0
 17  5  1  0
 28 19  1  0
M  CHG  3  11  -1  18  -1  25  -1
M  END
>  <UniqueID>  (7) 
7

>  <SMILES>  (7) 
Cc1c([O-])c(=O)cc(/C=C\c2ccc([O-])cc2)n1[O-]

>  <Energy>  (7) 
42.27872692793912

>  <Genealogy>  (7) 
Cc1c([O-])c(=O)cc(C=Cc2ccc([O-])cc2)n1[O-] (protonated)
Cc1c([O-])c(=O)cc(/C=C\c2ccc([O-])cc2)n1[O-] (cis-trans isomerization)
Cc1c([O-])c(=O)cc(/C=C\c2ccc([O-])cc2)n1[O-] (3D coordinates assigned)
Cc1c([O-])c(=O)cc(/C=C\c2ccc([O-])cc2)n1[O-] (optimized conformer: 42.27872692793912 kcal/mol)

>  <smiles>  (7) 
Cc1c(O)c(=O)cc(C=Cc2ccc(O)cc2)n1O

>  <score_type>  (7) 
oracle

>  <origin>  (7) 
adgpu

>  <m_score__min__energy>  (7) 
-10.1

>  <m_primary>  (7) 
energy

$$$$
7:0
     RDKit          3D

 34 35  0  0  0  0  0  0  0  0999 V2000
   -1.7490   23.3640  -27.2120 C   0  0  0  0  0  0  0  0  0  0  0  0
   -1.3050   24.2070  -28.7170 S   0  0  0  0  0  0  0  0  0  0  0  0
   -0.2140   25.1930  -28.4130 O   0  0  0  0  0  0  0  0  0  0  0  0
   -0.7990   23.2260  -29.7380 O   0  0  0  0  0  0  0  0  0  0  0  0
   -2.6740   25.0650  -29.3470 N   0  0  0  0  0  0  0  0  0  0  0  0
   -3.7380   24.4970  -30.1230 C   0  0  0  0  0  0  0  0  0  0  0  0
   -3.4560   23.3950  -30.9350 C   0  0  0  0  0  0  0  0  0  0  0  0
   -4.4590   22.8060  -31.7110 C   0  0  0  0  0  0  0  0  0  0  0  0
   -5.7710   23.3160  -31.6880 C   0  0  0  0  0  0  0  0  0  0  0  0
   -6.8270   22.7240  -32.4680 N   0  0  0  0  0  0  0  0  0  0  0  0
   -7.7130   21.3060  -31.9930 S   0  0  0  0  0  0  0  0  0  0  0  0
   -7.7150   21.2220  -30.4920 O   0  0  0  0  0  0  0  0  0  0  0  0
   -9.1300   21.4360  -32.4780 O   0  0  0  0  0  0  0  0  0  0  0  0
   -6.9630   19.8430  -32.6440 C   0  0  0  0  0  0  0  0  0  0  0  0
   -5.7370   19.9370  -33.3210 C   0  0  0  0  0  0  0  0  0  0  0  0
   -5.1290   18.7950  -33.8500 C   0  0  0  0  0  0  0  0  0  0  0  0
   -5.7340   17.5460  -33.7000 C   0  0  0  0  0  0  0  0  0  0  0  0
   -4.9680   16.1140  -34.3620 Cl  0  0  0  0  0  0  0  0  0  0  0  0
   -6.9470   17.4370  -33.0130 C   0  0  0  0  0  0  0  0  0  0  0  0
   -7.5640   18.5760  -32.4800 C   0  0  0  0  0  0  0  0  0  0  0  0
   -9.0750   18.3650  -31.6010 Cl  0  0  0  0  0  0  0  0  0  0  0  0
   -6.0530   24.4220  -30.8660 C   0  0  0  0  0  0  0  0  0  0  0  0
   -7.3070   24.9370  -30.8140 F   0  0  0  0  0  0  0  0  0  0  0  0
   -5.0460   25.0070  -30.0920 C   0  0  0  0  0  0  0  0  0  0  0  0
   -1.4321   23.9658  -26.3475 H   0  0  0  0  0  0  0  0  0  0  0  0
   -2.8392   23.2214  -27.1796 H   0  0  0  0  0  0  0  0  0  0  0  0
   -1.2499   22.3843  -27.1796 H   0  0  0  0  0  0  0  0  0  0  0  0
   -2.4349   22.9870  -30.9639 H   0  0  0  0  0  0  0  0  0  0  0  0
   -4.2213   21.9382  -32.3438 H   0  0  0  0  0  0  0  0  0  0  0  0
   -7.0740   23.1370  -33.3950 H   0  0  0  0  0  0  0  0  0  0  0  0
   -5.2509   20.9170  -33.4361 H   0  0  0  0  0  0  0  0  0  0  0  0
   -4.1720   18.8807  -34.3855 H   0  0  0  0  0  0  0  0  0  0  0  0
   -7.4194   16.4512  -32.8904 H   0  0  0  0  0  0  0  0  0  0  0  0
   -5.2800   25.8724  -29.4546 H   0  0  0  0  0  0  0  0  0  0  0  0
  1  2  1  0
  2  3  2  0
  2  4  2  0
  2  5  1  0
  5  6  1  0
  6  7  2  0
  7  8  1  0
  8  9  2  0
  9 10  1  0
 10 11  1  0
 11 12  2  0
 11 13  2  0
 11 14  1  0
 14 15  2  0
 15 16  1  0
 16 17  2  0
 17 18  1  0
 17 19  1  0
 19 20  2  0
 20 21  1  0
  9 22  1  0
 22 23  1  0
 22 24  2  0
 24  6  1  0
 20 14  1  0
  1 25  1  0
  1 26  1  0
  1 27  1  0
  7 28  1  0
  8 29  1  0
 10 30  1  0
 15 31  1  0
 16 32  1  0
 19 33  1  0
 24 34  1  0
M  CHG  1   5  -1
M  END
>  <UniqueID>  (8) 
8

>  <SMILES>  (8) 
CS(=O)(=O)[N-]c1ccc(NS(=O)(=O)c2ccc(Cl)cc2Cl)c(F)c1

>  <Energy>  (8) 
38.60162190063153

>  <Genealogy>  (8) 
CS(=O)(=O)[N-]c1ccc(NS(=O)(=O)c2ccc(Cl)cc2Cl)c(F)c1 (protonated)
CS(=O)(=O)[N-]c1ccc(NS(=O)(=O)c2ccc(Cl)cc2Cl)c(F)c1 (3D coordinates assigned)
CS(=O)(=O)[N-]c1ccc(NS(=O)(=O)c2ccc(Cl)cc2Cl)c(F)c1 (optimized conformer: 38.60162190063153 kcal/mol)

>  <smiles>  (8) 
CS(=O)(=O)Nc1ccc(NS(=O)(=O)c2ccc(Cl)cc2Cl)c(F)c1

>  <score_type>  (8) 
oracle

>  <origin>  (8) 
adgpu

>  <m_score__min__energy>  (8) 
-10.630000000000001

>  <m_primary>  (8) 
energy

$$$$
8:0
     RDKit          3D

 65 69  0  0  0  0  0  0  0  0999 V2000
  -10.6129   21.1408  -31.8325 H   0  0  0  0  0  0  0  0  0  0  0  0
   -9.5200   21.1930  -31.9460 C   0  0  0  0  0  0  0  0  0  0  0  0
   -8.7840   20.0260  -32.1590 C   0  0  0  0  0  0  0  0  0  0  0  0
   -9.2978   19.0550  -32.2152 H   0  0  0  0  0  0  0  0  0  0  0  0
   -7.3940   20.0900  -32.3010 C   0  0  0  0  0  0  0  0  0  0  0  0
   -6.8193   19.1683  -32.4748 H   0  0  0  0  0  0  0  0  0  0  0  0
   -6.7270   21.3250  -32.2230 C   0  0  0  0  0  0  0  0  0  0  0  0
   -5.2960   21.3840  -32.3780 N   0  0  0  0  0  0  0  0  0  0  0  0
   -4.4400   22.2580  -31.8080 C   0  0  0  0  0  0  0  0  0  0  0  0
   -4.8080   23.2000  -30.9840 N   0  0  0  0  0  0  0  0  0  0  0  0
   -3.9380   24.0910  -30.2710 C   0  0  0  0  0  0  0  0  0  0  0  0
   -3.8720   25.2950  -30.6430 O   0  0  0  0  0  0  0  0  0  0  0  0
   -3.1720   23.6570  -29.0760 C   0  0  0  0  0  0  0  0  0  0  0  0
   -3.0130   24.5260  -27.9840 C   0  0  0  0  0  0  0  0  0  0  0  0
   -3.4777   25.5228  -28.0057 H   0  0  0  0  0  0  0  0  0  0  0  0
   -2.2680   24.1310  -26.8710 C   0  0  0  0  0  0  0  0  0  0  0  0
   -2.1509   24.8164  -26.0186 H   0  0  0  0  0  0  0  0  0  0  0  0
   -1.6710   22.8690  -26.8360 C   0  0  0  0  0  0  0  0  0  0  0  0
   -1.0838   22.5644  -25.9571 H   0  0  0  0  0  0  0  0  0  0  0  0
   -1.8180   21.9880  -27.9190 C   0  0  0  0  0  0  0  0  0  0  0  0
   -1.2100   20.6870  -27.9000 N   0  0  0  0  0  0  0  0  0  0  0  0
    0.0020   20.4510  -28.3810 N   0  0  0  0  0  0  0  0  0  0  0  0
    0.2720   19.1470  -28.1770 C   0  0  0  0  0  0  0  0  0  0  0  0
    1.5210   18.4750  -28.6400 C   0  0  0  0  0  0  0  0  0  0  0  0
    2.1114   18.1574  -27.7679 H   0  0  0  0  0  0  0  0  0  0  0  0
    1.2607   17.5952  -29.2467 H   0  0  0  0  0  0  0  0  0  0  0  0
    2.1118   19.1770  -29.2467 H   0  0  0  0  0  0  0  0  0  0  0  0
   -0.7980   18.5300  -27.5590 C   0  0  0  0  0  0  0  0  0  0  0  0
   -0.8966   17.4716  -27.2759 H   0  0  0  0  0  0  0  0  0  0  0  0
   -1.7150   19.5450  -27.3780 C   0  0  0  0  0  0  0  0  0  0  0  0
   -3.0390   19.3980  -26.6930 C   0  0  0  0  0  0  0  0  0  0  0  0
   -2.8917   19.4144  -25.6030 H   0  0  0  0  0  0  0  0  0  0  0  0
   -3.6979   20.2285  -26.9865 H   0  0  0  0  0  0  0  0  0  0  0  0
   -3.4997   18.4432  -26.9865 H   0  0  0  0  0  0  0  0  0  0  0  0
   -2.5970   22.3750  -29.0200 C   0  0  0  0  0  0  0  0  0  0  0  0
   -2.7595   21.6686  -29.8474 H   0  0  0  0  0  0  0  0  0  0  0  0
   -3.1460   21.9720  -32.2180 C   0  0  0  0  0  0  0  0  0  0  0  0
   -2.2205   22.5054  -31.9554 H   0  0  0  0  0  0  0  0  0  0  0  0
   -3.2860   20.8580  -33.0360 C   0  0  0  0  0  0  0  0  0  0  0  0
   -2.1880   20.1270  -33.7160 C   0  0  0  0  0  0  0  0  0  0  0  0
   -2.2210   18.7250  -33.8210 C   0  0  0  0  0  0  0  0  0  0  0  0
   -3.0654   18.1654  -33.3921 H   0  0  0  0  0  0  0  0  0  0  0  0
   -1.1910   18.0380  -34.4650 C   0  0  0  0  0  0  0  0  0  0  0  0
   -1.2266   16.9410  -34.5386 H   0  0  0  0  0  0  0  0  0  0  0  0
   -0.1160   18.7370  -35.0160 C   0  0  0  0  0  0  0  0  0  0  0  0
    0.6919   18.1880  -35.5219 H   0  0  0  0  0  0  0  0  0  0  0  0
   -0.0600   20.1390  -34.9280 C   0  0  0  0  0  0  0  0  0  0  0  0
    1.1010   20.9120  -35.5260 C   0  0  0  0  0  0  0  0  0  0  0  0
    1.3421   20.4543  -36.4967 H   0  0  0  0  0  0  0  0  0  0  0  0
    2.3480   20.8130  -34.6390 C   0  0  0  0  0  0  0  0  0  0  0  0
    2.0482   20.8368  -33.5809 H   0  0  0  0  0  0  0  0  0  0  0  0
    2.8741   19.8703  -34.8499 H   0  0  0  0  0  0  0  0  0  0  0  0
    3.0162   21.6609  -34.8499 H   0  0  0  0  0  0  0  0  0  0  0  0
    0.7200   22.3750  -35.7800 C   0  0  0  0  0  0  0  0  0  0  0  0
    0.5856   22.8912  -34.8180 H   0  0  0  0  0  0  0  0  0  0  0  0
    1.5197   22.8681  -36.3521 H   0  0  0  0  0  0  0  0  0  0  0  0
   -0.2186   22.4154  -36.3521 H   0  0  0  0  0  0  0  0  0  0  0  0
   -1.1020   20.8250  -34.2780 C   0  0  0  0  0  0  0  0  0  0  0  0
   -1.0679   21.9222  -34.2078 H   0  0  0  0  0  0  0  0  0  0  0  0
   -4.5960   20.5300  -33.1100 N   0  0  0  0  0  0  0  0  0  0  0  0
   -5.0140   19.7610  -33.6790 H   0  0  0  0  0  0  0  0  0  0  0  0
   -7.4790   22.4960  -32.0170 C   0  0  0  0  0  0  0  0  0  0  0  0
   -6.9714   23.4705  -31.9658 H   0  0  0  0  0  0  0  0  0  0  0  0
   -8.8690   22.4270  -31.8770 C   0  0  0  0  0  0  0  0  0  0  0  0
   -9.4505   23.3461  -31.7123 H   0  0  0  0  0  0  0  0  0  0  0  0
  1  2  1  0
  2  3  2  0
  3  4  1  0
  3  5  1  0
  5  6  1  0
  5  7  2  0
  7  8  1  0
  8  9  1  0
  9 10  2  0
 10 11  1  0
 11 12  2  0
 11 13  1  0
 13 14  2  0
 14 15  1  0
 14 16  1  0
 16 17  1  0
 16 18  2  0
 18 19  1  0
 18 20  1  0
 20 21  1  0
 21 22  1  0
 22 23  2  0
 23 24  1  0
 24 25  1  0
 24 26  1  0
 24 27  1  0
 23 28  1  0
 28 29  1  0
 28 30  2  0
 30 31  1  0
 31 32  1  0
 31 33  1  0
 31 34  1  0
 20 35  2  0
 35 36  1  0
  9 37  1  0
 37 38  1  0
 37 39  2  0
 39 40  1  0
 40 41  2  0
 41 42  1  0
 41 43  1  0
 43 44  1  0
 43 45  2  0
 45 46  1  0
 45 47  1  0
 47 48  1  0
 48 49  1  0
 48 50  1  0
 50 51  1  0
 50 52  1  0
 50 53  1  0
 48 54  1  0
 54 55  1  0
 54 56  1  0
 54 57  1  0
 47 58  2  0
 58 59  1  0
 39 60  1  0
 60 61  1  0
  7 62  1  0
 62 63  1  0
 62 64  2  0
 64 65  1  0
 64  2  1  0
 60  8  1  0
 35 13  1  0
 58 40  1  0
 30 21  1  0
M  END
>  <UniqueID>  (9) 
9

>  <SMILES>  (9) 
Cc1cc(C)n(-c2cccc(C(=O)/N=c3\cc(-c4cccc(C(C)C)c4)[nH]n3-c3ccccc3)c2)n1

>  <Energy>  (9) 
146.79102159251053

>  <Genealogy>  (9) 
Cc1cc(C)n(-c2cccc(C(=O)/N=c3\cc(-c4cccc(C(C)C)c4)[nH]n3-c3ccccc3)c2)n1 (cis-trans isomerization)
Cc1cc(C)n(-c2cccc(C(=O)/N=c3\cc(-c4cccc(C(C)C)c4)[nH]n3-c3ccccc3)c2)n1 (3D coordinates assigned)
Cc1cc(C)n(-c2cccc(C(=O)/N=c3\cc(-c4cccc(C(C)C)c4)[nH]n3-c3ccccc3)c2)n1 (optimized conformer: 146.79102159251053 kcal/mol)

>  <smiles>  (9) 
Cc1cc(C)n(-c2cccc(C(=O)N=c3cc(-c4cccc(C(C)C)c4)[nH]n3-c3ccccc3)c2)n1

>  <score_type>  (9) 
oracle

>  <origin>  (9) 
adgpu

>  <m_score__min__energy>  (9) 
-11.359999999999999

>  <m_primary>  (9) 
energy

$$$$
9:0
     RDKit          3D

 45 47  0  0  0  0  0  0  0  0999 V2000
   -1.5570   23.9440  -26.6120 O   0  0  0  0  0  0  0  0  0  0  0  0
   -1.7920   23.3080  -27.6740 C   0  0  0  0  0  0  0  0  0  0  0  0
   -1.0390   22.1250  -27.9770 N   0  0  0  0  0  0  0  0  0  0  0  0
   -0.9770   21.4440  -29.2380 C   0  0  0  0  0  0  0  0  0  0  0  0
    0.2030   20.8340  -29.7010 C   0  0  0  0  0  0  0  0  0  0  0  0
    0.2230   20.1970  -30.9460 C   0  0  0  0  0  0  0  0  0  0  0  0
   -0.9230   20.1780  -31.7430 C   0  0  0  0  0  0  0  0  0  0  0  0
   -2.0940   20.8110  -31.3080 C   0  0  0  0  0  0  0  0  0  0  0  0
   -3.5350   20.7850  -32.3180 S   0  0  0  0  0  0  0  0  0  0  0  0
   -3.2820   21.5730  -33.5730 O   0  0  0  0  0  0  0  0  0  0  0  0
   -3.8490   19.3590  -32.6810 O   0  0  0  0  0  0  0  0  0  0  0  0
   -4.8550   21.4880  -31.4290 N   0  0  0  0  0  0  0  0  0  0  0  0
   -6.1010   21.5160  -31.8260 C   0  0  0  0  0  0  0  0  0  0  0  0
   -6.4960   20.9390  -33.1780 C   0  0  0  0  0  0  0  0  0  0  0  0
   -7.3190   19.6490  -33.0990 C   0  0  0  0  0  0  0  0  0  0  0  0
   -8.7180   19.8790  -32.5110 C   0  0  0  0  0  0  0  0  0  0  0  0
   -8.7110   20.2280  -31.0170 C   0  0  0  0  0  0  0  0  0  0  0  0
   -8.4750   21.7210  -30.7680 C   0  0  0  0  0  0  0  0  0  0  0  0
   -7.0750   22.1270  -30.9510 N   0  0  0  0  0  0  0  0  0  0  0  0
   -2.1150   21.4430  -30.0550 C   0  0  0  0  0  0  0  0  0  0  0  0
   -2.8860   23.7520  -28.5830 C   0  0  0  0  0  0  0  0  0  0  0  0
   -2.7500   24.9070  -29.3830 C   0  0  0  0  0  0  0  0  0  0  0  0
   -1.5930   25.6780  -29.3430 O   0  0  0  0  0  0  0  0  0  0  0  0
   -3.7620   25.2930  -30.2010 N   0  0  0  0  0  0  0  0  0  0  0  0
   -4.9170   24.5890  -30.2720 C   0  0  0  0  0  0  0  0  0  0  0  0
   -6.1140   25.0820  -31.2650 S   0  0  0  0  0  0  0  0  0  0  0  0
   -5.0800   23.4750  -29.5180 N   0  0  0  0  0  0  0  0  0  0  0  0
   -4.1020   23.0390  -28.6820 C   0  0  0  0  0  0  0  0  0  0  0  0
   -4.2970   21.9890  -28.0140 O   0  0  0  0  0  0  0  0  0  0  0  0
    1.1122   20.8580  -29.0824 H   0  0  0  0  0  0  0  0  0  0  0  0
    1.1442   19.7097  -31.2981 H   0  0  0  0  0  0  0  0  0  0  0  0
   -0.9061   19.6643  -32.7155 H   0  0  0  0  0  0  0  0  0  0  0  0
   -4.6120   21.8920  -30.4970 H   0  0  0  0  0  0  0  0  0  0  0  0
   -7.0900   21.6939  -33.7141 H   0  0  0  0  0  0  0  0  0  0  0  0
   -5.5599   20.6832  -33.6960 H   0  0  0  0  0  0  0  0  0  0  0  0
   -7.4261   19.2363  -34.1130 H   0  0  0  0  0  0  0  0  0  0  0  0
   -6.7870   18.9535  -32.4332 H   0  0  0  0  0  0  0  0  0  0  0  0
   -9.1927   20.7066  -33.0584 H   0  0  0  0  0  0  0  0  0  0  0  0
   -9.2699   18.9334  -32.6170 H   0  0  0  0  0  0  0  0  0  0  0  0
   -9.6822   19.9466  -30.5838 H   0  0  0  0  0  0  0  0  0  0  0  0
   -7.8848   19.6745  -30.5468 H   0  0  0  0  0  0  0  0  0  0  0  0
   -9.0993   22.2947  -31.4688 H   0  0  0  0  0  0  0  0  0  0  0  0
   -8.7377   21.9216  -29.7188 H   0  0  0  0  0  0  0  0  0  0  0  0
   -6.7370   22.8840  -30.3140 H   0  0  0  0  0  0  0  0  0  0  0  0
   -3.0332   21.9420  -29.7114 H   0  0  0  0  0  0  0  0  0  0  0  0
  1  2  2  0
  2  3  1  0
  3  4  1  0
  4  5  2  0
  5  6  1  0
  6  7  2  0
  7  8  1  0
  8  9  1  0
  9 10  2  0
  9 11  2  0
  9 12  1  0
 12 13  2  3
 13 14  1  0
 14 15  1  0
 15 16  1  0
 16 17  1  0
 17 18  1  0
 18 19  1  0
  8 20  2  0
  2 21  1  0
 21 22  2  0
 22 23  1  0
 22 24  1  0
 24 25  1  0
 25 26  2  0
 25 27  1  0
 27 28  1  0
 28 29  2  0
 20  4  1  0
 28 21  1  0
 19 13  1  0
  5 30  1  0
  6 31  1  0
  7 32  1  0
 12 33  1  0
 14 34  1  0
 14 35  1  0
 15 36  1  0
 15 37  1  0
 16 38  1  0
 16 39  1  0
 17 40  1  0
 17 41  1  0
 18 42  1  0
 18 43  1  0
 19 44  1  0
 20 45  1  0
M  CHG  5   3  -1  12   1  23  -1  24  -1  27  -1
M  END
>  <UniqueID>  (10) 
10

>  <SMILES>  (10) 
O=C([N-]c1cccc(S(=O)(=O)[NH+]=C2CCCCCN2)c1)c1c([O-])[n-]c(=S)[n-]c1=O

>  <Energy>  (10) 
64.70261110909314

>  <Genealogy>  (10) 
O=C([N-]c1cccc(S(=O)(=O)[NH+]=C2CCCCCN2)c1)c1c([O-])[n-]c(=S)[n-]c1=O (protonated)
O=C([N-]c1cccc(S(=O)(=O)[NH+]=C2CCCCCN2)c1)c1c([O-])[n-]c(=S)[n-]c1=O (3D coordinates assigned)
O=C([N-]c1cccc(S(=O)(=O)[NH+]=C2CCCCCN2)c1)c1c([O-])[n-]c(=S)[n-]c1=O (nonaromatic ring conformer: 64.70261110909314 kcal/mol)

>  <smiles>  (10) 
O=C(Nc1cccc(S(=O)(=O)N=C2CCCCCN2)c1)c1c(O)[nH]c(=S)[nH]c1=O

>  <score_type>  (10) 
oracle

>  <origin>  (10) 
adgpu

>  <m_score__min__energy>  (10) 
-10.9

>  <m_primary>  (10) 
energy

$$$$
10:0
     RDKit          3D

 53 56  0  0  0  0  0  0  0  0999 V2000
   -1.4450   25.5340  -28.9670 O   0  0  0  0  0  0  0  0  0  0  0  0
   -2.3560   24.7530  -29.3520 C   0  0  0  0  0  0  0  0  0  0  0  0
   -3.4900   25.2690  -30.0630 N   0  0  0  0  0  0  0  0  0  0  0  0
   -4.6270   24.5220  -30.5220 C   0  0  0  0  0  0  0  0  0  0  0  0
   -4.4080   23.3660  -31.2800 C   0  0  0  0  0  0  0  0  0  0  0  0
   -5.4860   22.6190  -31.7630 C   0  0  0  0  0  0  0  0  0  0  0  0
   -6.8050   23.0250  -31.4960 C   0  0  0  0  0  0  0  0  0  0  0  0
   -7.9130   22.3130  -31.9750 O   0  0  0  0  0  0  0  0  0  0  0  0
   -8.0020   20.9170  -32.0770 C   0  0  0  0  0  0  0  0  0  0  0  0
   -9.0260   20.1880  -31.4440 C   0  0  0  0  0  0  0  0  0  0  0  0
   -9.0930   18.8000  -31.5900 C   0  0  0  0  0  0  0  0  0  0  0  0
   -8.1500   18.1300  -32.3720 C   0  0  0  0  0  0  0  0  0  0  0  0
   -7.1330   18.8470  -33.0160 C   0  0  0  0  0  0  0  0  0  0  0  0
   -5.9710   17.9980  -34.0340 S   0  0  0  0  0  0  0  0  0  0  0  0
   -5.9350   18.6600  -35.3830 O   0  0  0  0  0  0  0  0  0  0  0  0
   -6.4000   16.5680  -34.2140 O   0  0  0  0  0  0  0  0  0  0  0  0
   -4.3850   18.0600  -33.3030 N   0  0  0  0  0  0  0  0  0  0  0  0
   -4.2300   19.2800  -32.4700 C   0  0  0  0  0  0  0  0  0  0  0  0
   -3.3960   20.3610  -33.1830 C   0  0  0  0  0  0  0  0  0  0  0  0
   -2.0890   19.9240  -33.5290 O   0  0  0  0  0  0  0  0  0  0  0  0
   -2.0130   18.5430  -33.8600 C   0  0  0  0  0  0  0  0  0  0  0  0
   -3.3420   17.9430  -34.3470 C   0  0  0  0  0  0  0  0  0  0  0  0
   -7.0710   20.2410  -32.8740 C   0  0  0  0  0  0  0  0  0  0  0  0
   -7.0240   24.2050  -30.7750 C   0  0  0  0  0  0  0  0  0  0  0  0
   -5.9450   24.9520  -30.2900 C   0  0  0  0  0  0  0  0  0  0  0  0
   -2.2810   23.3110  -29.0230 C   0  0  0  0  0  0  0  0  0  0  0  0
   -2.9670   22.7960  -27.9050 C   0  0  0  0  0  0  0  0  0  0  0  0
   -2.8950   21.4350  -27.5940 C   0  0  0  0  0  0  0  0  0  0  0  0
   -2.1390   20.5730  -28.3910 C   0  0  0  0  0  0  0  0  0  0  0  0
   -1.4540   21.0700  -29.5030 C   0  0  0  0  0  0  0  0  0  0  0  0
   -0.7200   20.2320  -30.2750 F   0  0  0  0  0  0  0  0  0  0  0  0
   -1.5230   22.4310  -29.8190 C   0  0  0  0  0  0  0  0  0  0  0  0
   -3.3793   23.0428  -31.4973 H   0  0  0  0  0  0  0  0  0  0  0  0
   -5.3016   21.7100  -32.3543 H   0  0  0  0  0  0  0  0  0  0  0  0
   -9.7754   20.7122  -30.8328 H   0  0  0  0  0  0  0  0  0  0  0  0
   -9.8909   18.2335  -31.0875 H   0  0  0  0  0  0  0  0  0  0  0  0
   -8.2057   17.0370  -32.4827 H   0  0  0  0  0  0  0  0  0  0  0  0
   -4.3110   17.2260  -32.6730 H   0  0  0  0  0  0  0  0  0  0  0  0
   -5.2271   19.6886  -32.2489 H   0  0  0  0  0  0  0  0  0  0  0  0
   -3.7032   18.9973  -31.5466 H   0  0  0  0  0  0  0  0  0  0  0  0
   -3.9207   20.6564  -34.1036 H   0  0  0  0  0  0  0  0  0  0  0  0
   -3.2841   21.2016  -32.4824 H   0  0  0  0  0  0  0  0  0  0  0  0
   -1.2648   18.4189  -34.6568 H   0  0  0  0  0  0  0  0  0  0  0  0
   -1.7417   18.0089  -32.9374 H   0  0  0  0  0  0  0  0  0  0  0  0
   -3.6718   18.4807  -35.2482 H   0  0  0  0  0  0  0  0  0  0  0  0
   -3.1865   16.8776  -34.5724 H   0  0  0  0  0  0  0  0  0  0  0  0
   -6.2841   20.8077  -33.3933 H   0  0  0  0  0  0  0  0  0  0  0  0
   -8.0525   24.5475  -30.5884 H   0  0  0  0  0  0  0  0  0  0  0  0
   -6.1286   25.8782  -29.7257 H   0  0  0  0  0  0  0  0  0  0  0  0
   -3.5635   23.4698  -27.2724 H   0  0  0  0  0  0  0  0  0  0  0  0
   -3.4349   21.0424  -26.7198 H   0  0  0  0  0  0  0  0  0  0  0  0
   -2.0827   19.5027  -28.1435 H   0  0  0  0  0  0  0  0  0  0  0  0
   -0.9813   22.8164  -30.6954 H   0  0  0  0  0  0  0  0  0  0  0  0
  1  2  2  0
  2  3  1  0
  3  4  1  0
  4  5  2  0
  5  6  1  0
  6  7  2  0
  7  8  1  0
  8  9  1  0
  9 10  2  0
 10 11  1  0
 11 12  2  0
 12 13  1  0
 13 14  1  0
 14 15  2  0
 14 16  2  0
 14 17  1  0
 17 18  1  0
 18 19  1  0
 19 20  1  0
 20 21  1  0
 21 22  1  0
 13 23  2  0
  7 24  1  0
 24 25  2  0
  2 26  1  0
 26 27  2  0
 27 28  1  0
 28 29  2  0
 29 30  1  0
 30 31  1  0
 30 32  2  0
 25  4  1  0
 32 26  1  0
 23  9  1  0
 22 17  1  0
  5 33  1  0
  6 34  1  0
 10 35  1  0
 11 36  1  0
 12 37  1  0
 17 38  1  0
 18 39  1  0
 18 40  1  0
 19 41  1  0
 19 42  1  0
 21 43  1  0
 21 44  1  0
 22 45  1  0
 22 46  1  0
 23 47  1  0
 24 48  1  0
 25 49  1  0
 27 50  1  0
 28 51  1  0
 29 52  1  0
 32 53  1  0
M  CHG  2   3  -1  17   1
M  END
>  <UniqueID>  (11) 
11

>  <SMILES>  (11) 
O=C([N-]c1ccc(Oc2cccc(S(=O)(=O)[NH+]3CCOCC3)c2)cc1)c1cccc(F)c1

>  <Energy>  (11) 
79.57142744772544

>  <Genealogy>  (11) 
O=C([N-]c1ccc(Oc2cccc(S(=O)(=O)[NH+]3CCOCC3)c2)cc1)c1cccc(F)c1 (protonated)
O=C([N-]c1ccc(Oc2cccc(S(=O)(=O)[NH+]3CCOCC3)c2)cc1)c1cccc(F)c1 (3D coordinates assigned)
O=C([N-]c1ccc(Oc2cccc(S(=O)(=O)[NH+]3CCOCC3)c2)cc1)c1cccc(F)c1 (nonaromatic ring conformer: 79.57142744772544 kcal/mol)

>  <smiles>  (11) 
O=C(Nc1ccc(Oc2cccc(S(=O)(=O)N3CCOCC3)c2)cc1)c1cccc(F)c1

>  <score_type>  (11) 
oracle

>  <origin>  (11) 
adgpu

>  <m_score__min__energy>  (11) 
-11.460000000000001

>  <m_primary>  (11) 
energy

$$$$
11:0
     RDKit          3D

 47 49  0  0  0  0  0  0  0  0999 V2000
   -3.6230   22.2950  -32.5500 C   0  0  0  0  0  0  0  0  0  0  0  0
   -4.9380   22.7640  -31.9850 C   0  0  0  0  0  0  0  0  0  0  0  0
   -6.1040   22.0470  -32.2980 C   0  0  0  0  0  0  0  0  0  0  0  0
   -7.3350   22.4290  -31.7630 C   0  0  0  0  0  0  0  0  0  0  0  0
   -7.4180   23.5310  -30.9120 C   0  0  0  0  0  0  0  0  0  0  0  0
   -6.2720   24.2690  -30.6050 C   0  0  0  0  0  0  0  0  0  0  0  0
   -6.4160   25.6660  -29.5460 Cl  0  0  0  0  0  0  0  0  0  0  0  0
   -5.0300   23.9120  -31.1600 C   0  0  0  0  0  0  0  0  0  0  0  0
   -3.8750   24.6990  -30.8420 N   0  0  0  0  0  0  0  0  0  0  0  0
   -2.9790   24.3920  -29.7730 C   0  0  0  0  0  0  0  0  0  0  0  0
   -2.2150   25.2910  -29.3310 O   0  0  0  0  0  0  0  0  0  0  0  0
   -2.9630   23.0780  -29.1980 N   0  0  0  0  0  0  0  0  0  0  0  0
   -1.8290   22.2030  -29.1620 C   0  0  0  0  0  0  0  0  0  0  0  0
   -1.2280   21.8390  -30.3740 C   0  0  0  0  0  0  0  0  0  0  0  0
   -0.1190   20.9900  -30.3880 C   0  0  0  0  0  0  0  0  0  0  0  0
    0.4120   20.5150  -29.1870 C   0  0  0  0  0  0  0  0  0  0  0  0
   -0.1580   20.8970  -27.9710 C   0  0  0  0  0  0  0  0  0  0  0  0
   -1.2810   21.7470  -27.9450 C   0  0  0  0  0  0  0  0  0  0  0  0
   -1.8140   22.2050  -26.7290 O   0  0  0  0  0  0  0  0  0  0  0  0
   -1.3580   23.3230  -26.0170 C   0  0  0  0  0  0  0  0  0  0  0  0
   -0.1940   23.1990  -25.2540 C   0  0  0  0  0  0  0  0  0  0  0  0
    0.2990   24.2850  -24.5260 C   0  0  0  0  0  0  0  0  0  0  0  0
   -0.3640   25.5220  -24.5590 C   0  0  0  0  0  0  0  0  0  0  0  0
    0.1620   26.6730  -23.7840 C   0  0  0  0  0  0  0  0  0  0  0  0
   -0.5030   27.9410  -23.8480 N   0  0  0  0  0  0  0  0  0  0  0  0
    1.2290   26.5470  -23.0500 N   0  0  0  0  0  0  0  0  0  0  0  0
   -1.5180   25.6560  -25.3510 C   0  0  0  0  0  0  0  0  0  0  0  0
   -2.0100   24.5690  -26.0880 C   0  0  0  0  0  0  0  0  0  0  0  0
   -3.1240   24.7330  -26.9100 O   0  0  0  0  0  0  0  0  0  0  0  0
   -2.9364   22.0501  -31.7262 H   0  0  0  0  0  0  0  0  0  0  0  0
   -3.7878   21.4002  -33.1682 H   0  0  0  0  0  0  0  0  0  0  0  0
   -3.1844   23.0921  -33.1682 H   0  0  0  0  0  0  0  0  0  0  0  0
   -6.0467   21.1779  -32.9698 H   0  0  0  0  0  0  0  0  0  0  0  0
   -8.2423   21.8595  -32.0131 H   0  0  0  0  0  0  0  0  0  0  0  0
   -8.3882   23.8198  -30.4815 H   0  0  0  0  0  0  0  0  0  0  0  0
   -1.6324   22.2246  -31.3215 H   0  0  0  0  0  0  0  0  0  0  0  0
    0.3361   20.6955  -31.3451 H   0  0  0  0  0  0  0  0  0  0  0  0
    1.2800   19.8394  -29.1989 H   0  0  0  0  0  0  0  0  0  0  0  0
    0.2727   20.5318  -27.0270 H   0  0  0  0  0  0  0  0  0  0  0  0
    0.3393   22.2373  -25.2262 H   0  0  0  0  0  0  0  0  0  0  0  0
    1.2121   24.1700  -23.9234 H   0  0  0  0  0  0  0  0  0  0  0  0
   -1.4080   28.0490  -24.3550 H   0  0  0  0  0  0  0  0  0  0  0  0
   -0.1190   28.7710  -23.3440 H   0  0  0  0  0  0  0  0  0  0  0  0
    1.7620   25.6500  -23.0050 H   0  0  0  0  0  0  0  0  0  0  0  0
    1.5980   27.3550  -22.5010 H   0  0  0  0  0  0  0  0  0  0  0  0
   -2.0402   26.6232  -25.3930 H   0  0  0  0  0  0  0  0  0  0  0  0
   -3.2490   24.1850  -27.7530 H   0  0  0  0  0  0  0  0  0  0  0  0
  1  2  1  0
  2  3  2  0
  3  4  1  0
  4  5  2  0
  5  6  1  0
  6  7  1  0
  6  8  2  0
  8  9  1  0
  9 10  1  0
 10 11  2  0
 10 12  1  0
 12 13  1  0
 13 14  2  0
 14 15  1  0
 15 16  2  0
 16 17  1  0
 17 18  2  0
 18 19  1  0
 19 20  1  0
 20 21  2  0
 21 22  1  0
 22 23  2  0
 23 24  1  0
 24 25  1  0
 24 26  2  0
 23 27  1  0
 27 28  2  0
 28 29  1  0
  8  2  1  0
 18 13  1  0
 28 20  1  0
  1 30  1  0
  1 31  1  0
  1 32  1  0
  3 33  1  0
  4 34  1  0
  5 35  1  0
 14 36  1  0
 15 37  1  0
 16 38  1  0
 17 39  1  0
 21 40  1  0
 22 41  1  0
 25 42  1  0
 25 43  1  0
 26 44  1  0
 26 45  1  0
 27 46  1  0
 29 47  1  0
M  CHG  3   9  -1  12  -1  26   1
M  END
>  <UniqueID>  (12) 
12

>  <SMILES>  (12) 
Cc1cccc(Cl)c1[N-]C(=O)[N-]c1ccccc1Oc1ccc(C(N)=[NH2+])cc1O

>  <Energy>  (12) 
70.64500692857334

>  <Genealogy>  (12) 
Cc1cccc(Cl)c1[N-]C(=O)[N-]c1ccccc1Oc1ccc(C(N)=[NH2+])cc1O (protonated)
Cc1cccc(Cl)c1[N-]C(=O)[N-]c1ccccc1Oc1ccc(C(N)=[NH2+])cc1O (3D coordinates assigned)
Cc1cccc(Cl)c1[N-]C(=O)[N-]c1ccccc1Oc1ccc(C(N)=[NH2+])cc1O (optimized conformer: 70.64500692857334 kcal/mol)

>  <smiles>  (12) 
Cc1cccc(Cl)c1NC(=O)Nc1ccccc1Oc1ccc(C(=N)N)cc1O

>  <score_type>  (12) 
oracle

>  <origin>  (12) 
adgpu

>  <m_score__min__energy>  (12) 
-12.83

>  <m_primary>  (12) 
energy

$$$$
12:0
     RDKit          3D

 53 56  0  0  0  0  0  0  0  0999 V2000
   -2.5220   24.6070  -28.9950 C   0  0  0  0  0  0  0  0  0  0  0  0
   -3.4520   25.1930  -29.8990 O   0  0  0  0  0  0  0  0  0  0  0  0
   -4.6610   24.5970  -30.2900 C   0  0  0  0  0  0  0  0  0  0  0  0
   -5.9140   25.1460  -29.9610 C   0  0  0  0  0  0  0  0  0  0  0  0
   -7.0880   24.5190  -30.3870 C   0  0  0  0  0  0  0  0  0  0  0  0
   -7.0240   23.3390  -31.1320 C   0  0  0  0  0  0  0  0  0  0  0  0
   -5.7810   22.7660  -31.4470 C   0  0  0  0  0  0  0  0  0  0  0  0
   -5.7340   21.5250  -32.2460 C   0  0  0  0  0  0  0  0  0  0  0  0
   -6.6430   20.5350  -32.0930 N   0  0  0  0  0  0  0  0  0  0  0  0
   -6.2510   19.5280  -32.8510 N   0  0  0  0  0  0  0  0  0  0  0  0
   -6.8630   18.3200  -32.9490 C   0  0  0  0  0  0  0  0  0  0  0  0
   -6.2660   17.3270  -33.7460 C   0  0  0  0  0  0  0  0  0  0  0  0
   -6.8810   15.9640  -33.8520 C   0  0  0  0  0  0  0  0  0  0  0  0
   -5.0310   17.6040  -34.3730 C   0  0  0  0  0  0  0  0  0  0  0  0
   -4.4300   18.8640  -34.2350 C   0  0  0  0  0  0  0  0  0  0  0  0
   -5.1000   19.8260  -33.4740 C   0  0  0  0  0  0  0  0  0  0  0  0
   -4.7300   21.1180  -33.1390 C   0  0  0  0  0  0  0  0  0  0  0  0
   -3.4290   21.8110  -33.4790 C   0  0  0  0  0  0  0  0  0  0  0  0
   -2.2570   21.2050  -32.7950 N   0  0  1  0  0  0  0  0  0  0  0  0
   -2.6590   20.5510  -31.5340 C   0  0  0  0  0  0  0  0  0  0  0  0
   -1.6010   20.2330  -33.7020 C   0  0  0  0  0  0  0  0  0  0  0  0
   -0.4030   20.8230  -34.3880 C   0  0  0  0  0  0  0  0  0  0  0  0
    0.4810   20.1550  -35.2070 C   0  0  0  0  0  0  0  0  0  0  0  0
    1.3680   21.1400  -35.5860 C   0  0  0  0  0  0  0  0  0  0  0  0
    2.5230   20.9660  -36.5150 C   0  0  0  0  0  0  0  0  0  0  0  0
    1.0100   22.3160  -35.0340 N   0  0  0  0  0  0  0  0  0  0  0  0
   -0.0540   22.0860  -34.3200 O   0  0  0  0  0  0  0  0  0  0  0  0
   -4.6060   23.4150  -31.0370 C   0  0  0  0  0  0  0  0  0  0  0  0
   -2.8397   24.8072  -27.9611 H   0  0  0  0  0  0  0  0  0  0  0  0
   -2.4825   23.5206  -29.1626 H   0  0  0  0  0  0  0  0  0  0  0  0
   -1.5249   25.0403  -29.1626 H   0  0  0  0  0  0  0  0  0  0  0  0
   -5.9696   26.0704  -29.3674 H   0  0  0  0  0  0  0  0  0  0  0  0
   -8.0655   24.9560  -30.1349 H   0  0  0  0  0  0  0  0  0  0  0  0
   -7.9516   22.8563  -31.4736 H   0  0  0  0  0  0  0  0  0  0  0  0
   -7.8051   18.1224  -32.4167 H   0  0  0  0  0  0  0  0  0  0  0  0
   -7.0616   15.5638  -32.8434 H   0  0  0  0  0  0  0  0  0  0  0  0
   -7.8350   16.0334  -34.3952 H   0  0  0  0  0  0  0  0  0  0  0  0
   -6.1977   15.2946  -34.3952 H   0  0  0  0  0  0  0  0  0  0  0  0
   -4.5370   16.8262  -34.9738 H   0  0  0  0  0  0  0  0  0  0  0  0
   -3.4634   19.0875  -34.7100 H   0  0  0  0  0  0  0  0  0  0  0  0
   -3.2719   21.7496  -34.5660 H   0  0  0  0  0  0  0  0  0  0  0  0
   -3.5098   22.8531  -33.1362 H   0  0  0  0  0  0  0  0  0  0  0  0
   -1.5650   21.9540  -32.5620 H   0  0  0  0  0  0  0  0  0  0  0  0
   -2.2950   21.1432  -30.6815 H   0  0  0  0  0  0  0  0  0  0  0  0
   -3.7559   20.4816  -31.4904 H   0  0  0  0  0  0  0  0  0  0  0  0
   -2.2256   19.5409  -31.4904 H   0  0  0  0  0  0  0  0  0  0  0  0
   -1.2797   19.3602  -33.1146 H   0  0  0  0  0  0  0  0  0  0  0  0
   -2.3284   19.9463  -34.4758 H   0  0  0  0  0  0  0  0  0  0  0  0
    0.4794   19.0921  -35.4902 H   0  0  0  0  0  0  0  0  0  0  0  0
    3.4451   20.8271  -35.9316 H   0  0  0  0  0  0  0  0  0  0  0  0
    2.3538   20.0832  -37.1491 H   0  0  0  0  0  0  0  0  0  0  0  0
    2.6214   21.8595  -37.1491 H   0  0  0  0  0  0  0  0  0  0  0  0
   -3.6285   22.9886  -31.3066 H   0  0  0  0  0  0  0  0  0  0  0  0
  1  2  1  0
  2  3  1  0
  3  4  2  0
  4  5  1  0
  5  6  2  0
  6  7  1  0
  7  8  1  0
  8  9  2  0
  9 10  1  0
 10 11  1  0
 11 12  2  0
 12 13  1  0
 12 14  1  0
 14 15  2  0
 15 16  1  0
 16 17  2  0
 17 18  1  0
 18 19  1  0
 19 20  1  0
 19 21  1  0
 21 22  1  0
 22 23  2  0
 23 24  1  0
 24 25  1  0
 24 26  2  0
 26 27  1  0
  7 28  2  0
 28  3  1  0
 17  8  1  0
 27 22  1  0
 16 10  1  0
  1 29  1  0
  1 30  1  0
  1 31  1  0
  4 32  1  0
  5 33  1  0
  6 34  1  0
 11 35  1  0
 13 36  1  0
 13 37  1  0
 13 38  1  0
 14 39  1  0
 15 40  1  0
 18 41  1  0
 18 42  1  0
 19 43  1  1
 20 44  1  0
 20 45  1  0
 20 46  1  0
 21 47  1  0
 21 48  1  0
 23 49  1  0
 25 50  1  0
 25 51  1  0
 25 52  1  0
 28 53  1  0
M  CHG  1  19   1
M  END
>  <UniqueID>  (13) 
13

>  <SMILES>  (13) 
COc1cccc(-c2nn3cc(C)ccc3c2C[N@@H+](C)Cc2cc(C)no2)c1

>  <Energy>  (13) 
126.52419094062763

>  <Genealogy>  (13) 
COc1cccc(-c2nn3cc(C)ccc3c2C[NH+](C)Cc2cc(C)no2)c1 (protonated)
COc1cccc(-c2nn3cc(C)ccc3c2C[N@@H+](C)Cc2cc(C)no2)c1 (chirality)
COc1cccc(-c2nn3cc(C)ccc3c2C[N@@H+](C)Cc2cc(C)no2)c1 (3D coordinates assigned)
COc1cccc(-c2nn3cc(C)ccc3c2C[N@@H+](C)Cc2cc(C)no2)c1 (optimized conformer: 126.52419094062763 kcal/mol)

>  <smiles>  (13) 
COc1cccc(-c2nn3cc(C)ccc3c2CN(C)Cc2cc(C)no2)c1

>  <score_type>  (13) 
oracle

>  <origin>  (13) 
adgpu

>  <m_score__min__energy>  (13) 
-8.9600000000000009

>  <m_primary>  (13) 
energy

$$$$
13:0
     RDKit          3D

 34 36  0  0  0  0  0  0  0  0999 V2000
   -3.7890   24.9530  -30.7270 O   0  0  0  0  0  0  0  0  0  0  0  0
   -4.5450   24.0190  -30.2670 C   0  0  0  0  0  0  0  0  0  0  0  0
   -4.9660   24.1920  -28.8740 C   0  0  0  0  0  0  0  0  0  0  0  0
   -3.8800   24.5560  -28.0590 N   0  0  0  0  0  0  0  0  0  0  0  0
   -2.8510   24.9010  -27.2890 C   0  0  0  0  0  0  0  0  0  0  0  0
   -2.6670   24.9630  -25.9270 C   0  0  0  0  0  0  0  0  0  0  0  0
   -1.5020   25.3480  -25.3080 C   0  0  0  0  0  0  0  0  0  0  0  0
   -0.4490   25.6940  -26.0780 C   0  0  0  0  0  0  0  0  0  0  0  0
   -0.5250   25.6670  -27.4260 C   0  0  0  0  0  0  0  0  0  0  0  0
   -1.6800   25.2870  -28.0250 C   0  0  0  0  0  0  0  0  0  0  0  0
   -1.7180   25.2730  -29.4190 O   0  0  0  0  0  0  0  0  0  0  0  0
   -4.8730   22.9480  -31.1550 C   0  0  0  0  0  0  0  0  0  0  0  0
   -3.9550   22.3010  -31.9870 C   0  0  0  0  0  0  0  0  0  0  0  0
   -4.5620   21.3460  -32.6940 N   0  0  0  0  0  0  0  0  0  0  0  0
   -5.8740   21.3190  -32.3720 C   0  0  0  0  0  0  0  0  0  0  0  0
   -6.9460   20.5640  -32.7810 C   0  0  0  0  0  0  0  0  0  0  0  0
   -8.2110   20.7390  -32.2910 C   0  0  0  0  0  0  0  0  0  0  0  0
   -8.4260   21.7230  -31.3400 C   0  0  0  0  0  0  0  0  0  0  0  0
   -7.3280   22.4790  -30.9370 C   0  0  0  0  0  0  0  0  0  0  0  0
   -6.0640   22.3030  -31.4270 C   0  0  0  0  0  0  0  0  0  0  0  0
   -5.7318   24.9801  -28.8253 H   0  0  0  0  0  0  0  0  0  0  0  0
   -5.3713   23.2363  -28.5101 H   0  0  0  0  0  0  0  0  0  0  0  0
   -3.7250   25.6360  -28.8440 H   0  0  0  0  0  0  0  0  0  0  0  0
   -3.5158   24.6835  -25.2856 H   0  0  0  0  0  0  0  0  0  0  0  0
   -1.4295   25.3736  -24.2107 H   0  0  0  0  0  0  0  0  0  0  0  0
    0.4906   26.0044  -25.5976 H   0  0  0  0  0  0  0  0  0  0  0  0
    0.3458   25.9519  -28.0347 H   0  0  0  0  0  0  0  0  0  0  0  0
   -2.4850   25.6740  -29.9500 H   0  0  0  0  0  0  0  0  0  0  0  0
   -2.8841   22.5445  -32.0500 H   0  0  0  0  0  0  0  0  0  0  0  0
   -4.1710   20.6830  -33.4020 H   0  0  0  0  0  0  0  0  0  0  0  0
   -6.7796   19.7828  -33.5373 H   0  0  0  0  0  0  0  0  0  0  0  0
   -9.0414   20.1106  -32.6452 H   0  0  0  0  0  0  0  0  0  0  0  0
   -9.4266   21.9006  -30.9189 H   0  0  0  0  0  0  0  0  0  0  0  0
   -7.4869   23.2624  -30.1813 H   0  0  0  0  0  0  0  0  0  0  0  0
  1  2  2  0
  2  3  1  0
  3  4  1  0
  4  5  1  0
  5  6  2  0
  6  7  1  0
  7  8  2  0
  8  9  1  0
  9 10  2  0
 10 11  1  0
  2 12  1  0
 12 13  2  0
 13 14  1  0
 14 15  1  0
 15 16  2  0
 16 17  1  0
 17 18  2  0
 18 19  1  0
 19 20  2  0
 10  5  1  0
 20 12  1  0
 20 15  1  0
  3 21  1  0
  3 22  1  0
  4 23  1  0
  6 24  1  0
  7 25  1  0
  8 26  1  0
  9 27  1  0
 11 28  1  0
 13 29  1  0
 14 30  1  0
 16 31  1  0
 17 32  1  0
 18 33  1  0
 19 34  1  0
M  END
>  <UniqueID>  (14) 
14

>  <SMILES>  (14) 
O=C(CNc1ccccc1O)c1c[nH]c2ccccc12

>  <Energy>  (14) 
240.08137879423924

>  <Genealogy>  (14) 
O=C(CNc1ccccc1O)c1c[nH]c2ccccc12 (3D coordinates assigned)
O=C(CNc1ccccc1O)c1c[nH]c2ccccc12 (optimized conformer: 240.08137879423924 kcal/mol)

>  <smiles>  (14) 
O=C(CNc1ccccc1O)c1c[nH]c2ccccc12

>  <score_type>  (14) 
oracle

>  <origin>  (14) 
adgpu

>  <m_score__min__energy>  (14) 
-8.5099999999999998

>  <m_primary>  (14) 
energy

$$$$
14:0
     RDKit          3D

 45 47  0  0  1  0  0  0  0  0999 V2000
   -5.7700   16.9970  -31.6120 C   0  0  0  0  0  0  0  0  0  0  0  0
   -6.8540   17.8850  -32.0480 C   0  0  0  0  0  0  0  0  0  0  0  0
   -6.9360   19.2550  -31.8590 C   0  0  0  0  0  0  0  0  0  0  0  0
   -8.1150   19.6410  -32.4310 C   0  0  0  0  0  0  0  0  0  0  0  0
   -8.5390   20.8570  -32.4540 N   0  0  0  0  0  0  0  0  0  0  0  0
   -7.7460   21.8920  -31.8490 C   0  0  0  0  0  0  0  0  0  0  0  0
   -7.9830   22.1920  -30.5240 C   0  0  0  0  0  0  0  0  0  0  0  0
   -7.2080   23.1980  -29.9460 C   0  0  0  0  0  0  0  0  0  0  0  0
   -6.2390   23.8710  -30.6690 C   0  0  0  0  0  0  0  0  0  0  0  0
   -5.3310   25.1110  -29.8370 S   0  0  0  0  0  0  0  0  0  0  0  0
   -4.2280   25.5940  -30.7380 O   0  0  0  0  0  0  0  0  0  0  0  0
   -6.2070   26.3240  -29.5850 O   0  0  0  0  0  0  0  0  0  0  0  0
   -4.6360   24.5450  -28.3780 N   0  0  0  0  0  0  0  0  0  0  0  0
   -3.2750   24.1590  -28.2630 C   0  0  0  0  0  0  0  0  0  0  0  0
   -2.3060   24.5650  -27.3760 C   0  0  0  0  0  0  0  0  0  0  0  0
   -2.5230   25.5580  -26.2950 C   0  0  0  0  0  0  0  0  0  0  0  0
   -1.1780   23.8910  -27.6990 N   0  0  0  0  0  0  0  0  0  0  0  0
   -1.4160   23.0960  -28.7380 N   0  0  0  0  0  0  0  0  0  0  0  0
   -0.4830   22.1980  -29.4060 C   0  0  0  0  0  0  0  0  0  0  0  0
   -2.6980   23.2280  -29.1190 C   0  0  0  0  0  0  0  0  0  0  0  0
   -3.3560   22.5010  -30.2550 C   0  0  0  0  0  0  0  0  0  0  0  0
   -6.0210   23.5520  -31.9950 C   0  0  0  0  0  0  0  0  0  0  0  0
   -6.7710   22.5610  -32.5960 C   0  0  0  0  0  0  0  0  0  0  0  0
   -8.7260   18.5730  -32.9440 N   0  0  0  0  0  0  0  0  0  0  0  0
   -7.9620   17.5170  -32.7100 N   0  0  0  0  0  0  0  0  0  0  0  0
   -5.7375   16.9704  -30.5128 H   0  0  0  0  0  0  0  0  0  0  0  0
   -5.9491   15.9827  -31.9982 H   0  0  0  0  0  0  0  0  0  0  0  0
   -4.8108   17.3723  -31.9982 H   0  0  0  0  0  0  0  0  0  0  0  0
   -6.2025   19.8995  -31.3525 H   0  0  0  0  0  0  0  0  0  0  0  0
   -8.7524   21.6594  -29.9458 H   0  0  0  0  0  0  0  0  0  0  0  0
   -7.3712   23.4623  -28.8908 H   0  0  0  0  0  0  0  0  0  0  0  0
   -5.2060   24.4600  -27.4860 H   0  0  0  0  0  0  0  0  0  0  0  0
   -2.4153   25.0652  -25.3175 H   0  0  0  0  0  0  0  0  0  0  0  0
   -1.7798   26.3642  -26.3831 H   0  0  0  0  0  0  0  0  0  0  0  0
   -3.5347   25.9807  -26.3831 H   0  0  0  0  0  0  0  0  0  0  0  0
    0.0943   21.6423  -28.6524 H   0  0  0  0  0  0  0  0  0  0  0  0
   -1.0423   21.4898  -30.0349 H   0  0  0  0  0  0  0  0  0  0  0  0
    0.2033   22.7840  -30.0349 H   0  0  0  0  0  0  0  0  0  0  0  0
   -4.0436   21.7413  -29.8549 H   0  0  0  0  0  0  0  0  0  0  0  0
   -3.9193   23.2171  -30.8714 H   0  0  0  0  0  0  0  0  0  0  0  0
   -2.5875   22.0117  -30.8714 H   0  0  0  0  0  0  0  0  0  0  0  0
   -5.2513   24.0865  -32.5711 H   0  0  0  0  0  0  0  0  0  0  0  0
   -6.6035   22.3002  -33.6514 H   0  0  0  0  0  0  0  0  0  0  0  0
   -9.6490   18.5400  -33.4490 H   0  0  0  0  0  0  0  0  0  0  0  0
   -8.2260   16.5420  -33.0190 H   0  0  0  0  0  0  0  0  0  0  0  0
  1  2  1  0
  2  3  2  0
  3  4  1  0
  4  5  2  0
  5  6  1  0
  6  7  2  0
  7  8  1  0
  8  9  2  0
  9 10  1  0
 10 11  2  0
 10 12  2  0
 10 13  1  0
 13 14  1  0
 14 15  1  0
 15 16  1  0
 15 17  2  0
 17 18  1  0
 18 19  1  0
 18 20  1  0
 20 21  1  0
  9 22  1  0
 22 23  2  0
  4 24  1  0
 24 25  1  0
 25  2  1  0
 23  6  1  0
 20 14  2  0
  1 26  1  0
  1 27  1  0
  1 28  1  0
  3 29  1  0
  7 30  1  0
  8 31  1  0
 13 32  1  0
 16 33  1  0
 16 34  1  0
 16 35  1  0
 19 36  1  0
 19 37  1  0
 19 38  1  0
 21 39  1  0
 21 40  1  0
 21 41  1  0
 22 42  1  0
 23 43  1  0
 24 44  1  0
 25 45  1  0
M  END
>  <smiles>  (15) 
Cc1cc(=Nc2ccc(S(=O)(=O)Nc3c(C)nn(C)c3C)cc2)[nH][nH]1

>  <score_type>  (15) 
oracle

>  <origin>  (15) 
adgpu

>  <m_score__min__energy>  (15) 
-9.6899999999999995

>  <m_primary>  (15) 
energy

$$$$
15:0
     RDKit          3D

 67 71  0  0  0  0  0  0  0  0999 V2000
   -1.5330   19.0300  -34.5820 C   0  0  0  0  0  0  0  0  0  0  0  0
   -1.3050   19.8920  -33.3670 C   0  0  0  0  0  0  0  0  0  0  0  0
   -0.0050   20.3460  -33.0960 C   0  0  0  0  0  0  0  0  0  0  0  0
    0.2470   21.1700  -31.9990 C   0  0  0  0  0  0  0  0  0  0  0  0
   -0.7970   21.5700  -31.1580 C   0  0  0  0  0  0  0  0  0  0  0  0
   -0.5130   22.4160  -30.0330 N   0  0  0  0  0  0  0  0  0  0  0  0
   -1.4650   23.3440  -29.4780 C   0  0  0  0  0  0  0  0  0  0  0  0
   -2.5780   23.5140  -30.0500 O   0  0  0  0  0  0  0  0  0  0  0  0
   -1.1710   24.1090  -28.2410 C   0  0  0  0  0  0  0  0  0  0  0  0
   -1.2000   25.5160  -28.2200 C   0  0  0  0  0  0  0  0  0  0  0  0
   -0.8990   26.2120  -27.0480 C   0  0  0  0  0  0  0  0  0  0  0  0
   -0.5860   25.5190  -25.8780 C   0  0  0  0  0  0  0  0  0  0  0  0
   -0.5960   24.1160  -25.8610 C   0  0  0  0  0  0  0  0  0  0  0  0
   -0.2180   23.3590  -24.6120 C   0  0  0  0  0  0  0  0  0  0  0  0
    1.1510   23.4300  -24.4350 F   0  0  0  0  0  0  0  0  0  0  0  0
   -0.5900   22.0310  -24.7230 F   0  0  0  0  0  0  0  0  0  0  0  0
   -0.8470   23.8930  -23.5000 F   0  0  0  0  0  0  0  0  0  0  0  0
   -0.8710   23.4200  -27.0510 C   0  0  0  0  0  0  0  0  0  0  0  0
   -2.0930   21.0820  -31.3920 C   0  0  0  0  0  0  0  0  0  0  0  0
   -2.3580   20.2350  -32.4820 C   0  0  0  0  0  0  0  0  0  0  0  0
   -3.7370   19.7240  -32.6640 C   0  0  0  0  0  0  0  0  0  0  0  0
   -3.9470   18.4030  -33.0780 C   0  0  0  0  0  0  0  0  0  0  0  0
   -5.2600   17.9250  -33.2590 C   0  0  0  0  0  0  0  0  0  0  0  0
   -5.5330   16.5670  -33.6950 N   0  0  0  0  0  0  0  0  0  0  0  0
   -4.4240   15.5960  -33.6450 C   0  0  0  0  0  0  0  0  0  0  0  0
   -4.7870   14.2530  -34.2760 C   0  0  0  0  0  0  0  0  0  0  0  0
   -6.0880   13.8620  -33.9020 O   0  0  0  0  0  0  0  0  0  0  0  0
   -7.0110   14.7160  -34.5390 C   0  0  0  0  0  0  0  0  0  0  0  0
   -6.9160   16.1470  -33.9930 C   0  0  0  0  0  0  0  0  0  0  0  0
   -6.2990   18.7740  -33.0260 N   0  0  0  0  0  0  0  0  0  0  0  0
   -6.1420   20.0690  -32.6320 C   0  0  0  0  0  0  0  0  0  0  0  0
   -7.3140   20.8960  -32.4170 N   0  0  0  0  0  0  0  0  0  0  0  0
   -8.6410   20.2590  -32.5090 C   0  0  0  0  0  0  0  0  0  0  0  0
   -9.7580   21.1560  -31.9690 C   0  0  0  0  0  0  0  0  0  0  0  0
   -9.6060   22.4800  -32.4260 O   0  0  0  0  0  0  0  0  0  0  0  0
   -8.4590   23.0380  -31.8260 C   0  0  0  0  0  0  0  0  0  0  0  0
   -7.1860   22.3640  -32.3460 C   0  0  0  0  0  0  0  0  0  0  0  0
   -4.8370   20.5650  -32.4600 C   0  0  0  0  0  0  0  0  0  0  0  0
   -1.8023   18.0120  -34.2640 H   0  0  0  0  0  0  0  0  0  0  0  0
   -2.3499   19.4541  -35.1844 H   0  0  0  0  0  0  0  0  0  0  0  0
   -0.6133   18.9948  -35.1844 H   0  0  0  0  0  0  0  0  0  0  0  0
    0.8238   20.0490  -33.7555 H   0  0  0  0  0  0  0  0  0  0  0  0
    1.2736   21.5076  -31.7938 H   0  0  0  0  0  0  0  0  0  0  0  0
    0.4560   22.3780  -29.6470 H   0  0  0  0  0  0  0  0  0  0  0  0
   -1.4616   26.0708  -29.1331 H   0  0  0  0  0  0  0  0  0  0  0  0
   -0.9086   27.3120  -27.0468 H   0  0  0  0  0  0  0  0  0  0  0  0
   -0.3301   26.0755  -24.9643 H   0  0  0  0  0  0  0  0  0  0  0  0
   -0.8514   22.3202  -27.0521 H   0  0  0  0  0  0  0  0  0  0  0  0
   -2.9110   21.3662  -30.7137 H   0  0  0  0  0  0  0  0  0  0  0  0
   -3.0888   17.7398  -33.2615 H   0  0  0  0  0  0  0  0  0  0  0  0
   -3.5630   16.0171  -34.1848 H   0  0  0  0  0  0  0  0  0  0  0  0
   -4.1903   15.4130  -32.5858 H   0  0  0  0  0  0  0  0  0  0  0  0
   -4.7381   14.3437  -35.3712 H   0  0  0  0  0  0  0  0  0  0  0  0
   -4.0744   13.4927  -33.9236 H   0  0  0  0  0  0  0  0  0  0  0  0
   -6.8003   14.7298  -35.6186 H   0  0  0  0  0  0  0  0  0  0  0  0
   -8.0253   14.3372  -34.3450 H   0  0  0  0  0  0  0  0  0  0  0  0
   -7.3363   16.8349  -34.7414 H   0  0  0  0  0  0  0  0  0  0  0  0
   -7.4756   16.1725  -33.0463 H   0  0  0  0  0  0  0  0  0  0  0  0
   -8.8507   20.0304  -33.5644 H   0  0  0  0  0  0  0  0  0  0  0  0
   -8.6180   19.3462  -31.8956 H   0  0  0  0  0  0  0  0  0  0  0  0
  -10.7287   20.7668  -32.3098 H   0  0  0  0  0  0  0  0  0  0  0  0
   -9.7079   21.1560  -30.8701 H   0  0  0  0  0  0  0  0  0  0  0  0
   -8.4179   24.1124  -32.0582 H   0  0  0  0  0  0  0  0  0  0  0  0
   -8.5201   22.8812  -30.7389 H   0  0  0  0  0  0  0  0  0  0  0  0
   -6.9693   22.7486  -33.3535 H   0  0  0  0  0  0  0  0  0  0  0  0
   -6.3731   22.5955  -31.6420 H   0  0  0  0  0  0  0  0  0  0  0  0
   -4.6811   21.6133  -32.1653 H   0  0  0  0  0  0  0  0  0  0  0  0
  1  2  1  0
  2  3  2  0
  3  4  1  0
  4  5  2  0
  5  6  1  0
  6  7  1  0
  7  8  2  0
  7  9  1  0
  9 10  2  0
 10 11  1  0
 11 12  2  0
 12 13  1  0
 13 14  1  0
 14 15  1  0
 14 16  1  0
 14 17  1  0
 13 18  2  0
  5 19  1  0
 19 20  2  0
 20 21  1  0
 21 22  2  0
 22 23  1  0
 23 24  1  0
 24 25  1  0
 25 26  1  0
 26 27  1  0
 27 28  1  0
 28 29  1  0
 23 30  2  0
 30 31  1  0
 31 32  1  0
 32 33  1  0
 33 34  1  0
 34 35  1  0
 35 36  1  0
 36 37  1  0
 31 38  2  0
 20  2  1  0
 38 21  1  0
 18  9  1  0
 29 24  1  0
 37 32  1  0
  1 39  1  0
  1 40  1  0
  1 41  1  0
  3 42  1  0
  4 43  1  0
  6 44  1  0
 10 45  1  0
 11 46  1  0
 12 47  1  0
 18 48  1  0
 19 49  1  0
 22 50  1  0
 25 51  1  0
 25 52  1  0
 26 53  1  0
 26 54  1  0
 28 55  1  0
 28 56  1  0
 29 57  1  0
 29 58  1  0
 33 59  1  0
 33 60  1  0
 34 61  1  0
 34 62  1  0
 36 63  1  0
 36 64  1  0
 37 65  1  0
 37 66  1  0
 38 67  1  0
M  END
>  <UniqueID>  (16) 
15

>  <SMILES>  (16) 
Cc1ccc(NC(=O)c2cccc(C(F)(F)F)c2)cc1-c1cc(N2CCOCC2)nc(N2CCOCC2)c1

>  <Energy>  (16) 
94.95655920786106

>  <Genealogy>  (16) 
Cc1ccc(NC(=O)c2cccc(C(F)(F)F)c2)cc1-c1cc(N2CCOCC2)nc(N2CCOCC2)c1 (3D coordinates assigned)
Cc1ccc(NC(=O)c2cccc(C(F)(F)F)c2)cc1-c1cc(N2CCOCC2)nc(N2CCOCC2)c1 (nonaromatic ring conformer: 94.95655920786106 kcal/mol)

>  <smiles>  (16) 
Cc1ccc(NC(=O)c2cccc(C(F)(F)F)c2)cc1-c1cc(N2CCOCC2)nc(N2CCOCC2)c1

>  <score_type>  (16) 
oracle

>  <origin>  (16) 
adgpu

>  <m_score__min__energy>  (16) 
-9.5800000000000001

>  <m_primary>  (16) 
energy

$$$$
16:0
     RDKit          3D

 27 29  0  0  0  0  0  0  0  0999 V2000
   -8.7510   23.0470  -31.9700 C   0  0  0  0  0  0  0  0  0  0  0  0
   -7.3710   23.2620  -31.4360 C   0  0  0  0  0  0  0  0  0  0  0  0
   -6.9700   24.4750  -30.3260 S   0  0  0  0  0  0  0  0  0  0  0  0
   -5.3480   24.0600  -30.2510 C   0  0  0  0  0  0  0  0  0  0  0  0
   -4.3900   24.6610  -29.5040 N   0  0  0  0  0  0  0  0  0  0  0  0
   -3.1090   24.1880  -29.5650 C   0  0  0  0  0  0  0  0  0  0  0  0
   -2.0440   24.8180  -28.7680 C   0  0  0  0  0  0  0  0  0  0  0  0
   -1.3550   24.2290  -27.7240 C   0  0  0  0  0  0  0  0  0  0  0  0
   -0.4630   25.1840  -27.2820 C   0  0  0  0  0  0  0  0  0  0  0  0
   -0.6620   26.2920  -28.0800 C   0  0  0  0  0  0  0  0  0  0  0  0
   -1.6090   26.0430  -28.9550 O   0  0  0  0  0  0  0  0  0  0  0  0
   -2.8130   23.1240  -30.3720 N   0  0  0  0  0  0  0  0  0  0  0  0
   -3.7640   22.5080  -31.1280 C   0  0  0  0  0  0  0  0  0  0  0  0
   -3.4450   21.5320  -31.8560 O   0  0  0  0  0  0  0  0  0  0  0  0
   -5.0820   22.9830  -31.0750 C   0  0  0  0  0  0  0  0  0  0  0  0
   -6.2250   22.5150  -31.7590 C   0  0  0  0  0  0  0  0  0  0  0  0
   -6.2190   21.3570  -32.7180 C   0  0  0  0  0  0  0  0  0  0  0  0
   -9.4554   22.9373  -31.1322 H   0  0  0  0  0  0  0  0  0  0  0  0
   -9.0447   23.9102  -32.5853 H   0  0  0  0  0  0  0  0  0  0  0  0
   -8.7682   22.1353  -32.5853 H   0  0  0  0  0  0  0  0  0  0  0  0
   -4.6380   25.4720  -28.8950 H   0  0  0  0  0  0  0  0  0  0  0  0
   -1.4899   23.2115  -27.3285 H   0  0  0  0  0  0  0  0  0  0  0  0
    0.2606   25.0827  -26.4597 H   0  0  0  0  0  0  0  0  0  0  0  0
   -0.1108   27.2402  -27.9959 H   0  0  0  0  0  0  0  0  0  0  0  0
   -6.2141   20.4131  -32.1531 H   0  0  0  0  0  0  0  0  0  0  0  0
   -7.1174   21.4007  -33.3512 H   0  0  0  0  0  0  0  0  0  0  0  0
   -5.3211   21.4100  -33.3512 H   0  0  0  0  0  0  0  0  0  0  0  0
  1  2  1  0
  2  3  1  0
  3  4  1  0
  4  5  1  0
  5  6  1  0
  6  7  1  0
  7  8  2  0
  8  9  1  0
  9 10  2  0
 10 11  1  0
  6 12  2  0
 12 13  1  0
 13 14  2  0
 13 15  1  0
 15 16  1  0
 16 17  1  0
 16  2  2  0
 15  4  2  0
 11  7  1  0
  1 18  1  0
  1 19  1  0
  1 20  1  0
  5 21  1  0
  8 22  1  0
  9 23  1  0
 10 24  1  0
 17 25  1  0
 17 26  1  0
 17 27  1  0
M  END
>  <UniqueID>  (17) 
16

>  <SMILES>  (17) 
Cc1sc2[nH]c(-c3ccco3)nc(=O)c2c1C

>  <Energy>  (17) 
87.53761923065176

>  <Genealogy>  (17) 
Cc1sc2[nH]c(-c3ccco3)nc(=O)c2c1C (3D coordinates assigned)
Cc1sc2[nH]c(-c3ccco3)nc(=O)c2c1C (optimized conformer: 87.53761923065176 kcal/mol)

>  <smiles>  (17) 
Cc1sc2[nH]c(-c3ccco3)nc(=O)c2c1C

>  <score_type>  (17) 
oracle

>  <origin>  (17) 
adgpu

>  <m_score__min__energy>  (17) 
-6.9800000000000004

>  <m_primary>  (17) 
energy

$$$$
17:0
     RDKit          3D

 42 44  0  0  0  0  0  0  0  0999 V2000
   -0.5870   19.2840  -33.1890 C   0  0  0  0  0  0  0  0  0  0  0  0
   -1.8950   19.9930  -32.9970 C   0  0  0  0  0  0  0  0  0  0  0  0
   -1.9400   21.2170  -32.3150 C   0  0  0  0  0  0  0  0  0  0  0  0
   -3.1470   21.9080  -32.1870 C   0  0  0  0  0  0  0  0  0  0  0  0
   -4.3230   21.3950  -32.7560 C   0  0  0  0  0  0  0  0  0  0  0  0
   -5.6050   22.1850  -32.6950 C   0  0  0  0  0  0  0  0  0  0  0  0
   -6.4640   21.7370  -31.5870 N   0  0  0  0  0  0  0  0  0  0  0  0
   -6.6370   22.5800  -30.3900 C   0  0  0  0  0  0  0  0  0  0  0  0
   -5.3670   23.3370  -30.0750 C   0  0  0  0  0  0  0  0  0  0  0  0
   -4.4860   22.8600  -29.0940 C   0  0  0  0  0  0  0  0  0  0  0  0
   -3.3270   23.5190  -28.8320 N   0  0  0  0  0  0  0  0  0  0  0  0
   -3.0110   24.6620  -29.4990 C   0  0  0  0  0  0  0  0  0  0  0  0
   -1.9310   25.2600  -29.2530 O   0  0  0  0  0  0  0  0  0  0  0  0
   -3.8610   25.1620  -30.4310 N   0  0  0  0  0  0  0  0  0  0  0  0
   -5.0290   24.5360  -30.7280 C   0  0  0  0  0  0  0  0  0  0  0  0
   -5.7930   25.0400  -31.5940 O   0  0  0  0  0  0  0  0  0  0  0  0
   -7.3230   20.5980  -31.7880 C   0  0  0  0  0  0  0  0  0  0  0  0
   -6.8360   19.2940  -31.6000 C   0  0  0  0  0  0  0  0  0  0  0  0
   -7.6760   18.1920  -31.7900 C   0  0  0  0  0  0  0  0  0  0  0  0
   -9.0080   18.3840  -32.1660 C   0  0  0  0  0  0  0  0  0  0  0  0
   -9.5030   19.6790  -32.3470 C   0  0  0  0  0  0  0  0  0  0  0  0
   -8.6660   20.7820  -32.1560 C   0  0  0  0  0  0  0  0  0  0  0  0
   -4.2760   20.1700  -33.4420 C   0  0  0  0  0  0  0  0  0  0  0  0
   -3.0690   19.4770  -33.5660 C   0  0  0  0  0  0  0  0  0  0  0  0
   -0.1506   19.0475  -32.2074 H   0  0  0  0  0  0  0  0  0  0  0  0
   -0.7536   18.3527  -33.7502 H   0  0  0  0  0  0  0  0  0  0  0  0
    0.1024   19.9319  -33.7502 H   0  0  0  0  0  0  0  0  0  0  0  0
   -1.0207   21.6350  -31.8788 H   0  0  0  0  0  0  0  0  0  0  0  0
   -3.1761   22.8601  -31.6369 H   0  0  0  0  0  0  0  0  0  0  0  0
   -5.3628   23.2484  -32.5517 H   0  0  0  0  0  0  0  0  0  0  0  0
   -6.1502   22.0304  -33.6378 H   0  0  0  0  0  0  0  0  0  0  0  0
   -7.4496   23.2992  -30.5704 H   0  0  0  0  0  0  0  0  0  0  0  0
   -6.8805   21.9314  -29.5356 H   0  0  0  0  0  0  0  0  0  0  0  0
   -4.7346   21.9469  -28.5332 H   0  0  0  0  0  0  0  0  0  0  0  0
   -2.6750   23.1400  -28.1090 H   0  0  0  0  0  0  0  0  0  0  0  0
   -5.7886   19.1387  -31.3018 H   0  0  0  0  0  0  0  0  0  0  0  0
   -7.2878   17.1733  -31.6433 H   0  0  0  0  0  0  0  0  0  0  0  0
   -9.6669   17.5166  -32.3195 H   0  0  0  0  0  0  0  0  0  0  0  0
  -10.5524   19.8300  -32.6401 H   0  0  0  0  0  0  0  0  0  0  0  0
   -9.0610   21.7992  -32.2946 H   0  0  0  0  0  0  0  0  0  0  0  0
   -5.1937   19.7544  -33.8836 H   0  0  0  0  0  0  0  0  0  0  0  0
   -3.0392   18.5226  -34.1122 H   0  0  0  0  0  0  0  0  0  0  0  0
  1  2  1  0
  2  3  2  0
  3  4  1  0
  4  5  2  0
  5  6  1  0
  6  7  1  0
  7  8  1  0
  8  9  1  0
  9 10  2  0
 10 11  1  0
 11 12  1  0
 12 13  2  0
 12 14  1  0
 14 15  1  0
 15 16  2  0
  7 17  1  0
 17 18  2  0
 18 19  1  0
 19 20  2  0
 20 21  1  0
 21 22  2  0
  5 23  1  0
 23 24  2  0
 24  2  1  0
 15  9  1  0
 22 17  1  0
  1 25  1  0
  1 26  1  0
  1 27  1  0
  3 28  1  0
  4 29  1  0
  6 30  1  0
  6 31  1  0
  8 32  1  0
  8 33  1  0
 10 34  1  0
 11 35  1  0
 18 36  1  0
 19 37  1  0
 20 38  1  0
 21 39  1  0
 22 40  1  0
 23 41  1  0
 24 42  1  0
M  CHG  1  14  -1
M  END
>  <UniqueID>  (18) 
17

>  <SMILES>  (18) 
Cc1ccc(CN(Cc2c[nH]c(=O)[n-]c2=O)c2ccccc2)cc1

>  <Energy>  (18) 
46.802821975364694

>  <Genealogy>  (18) 
Cc1ccc(CN(Cc2c[nH]c(=O)[n-]c2=O)c2ccccc2)cc1 (protonated)
Cc1ccc(CN(Cc2c[nH]c(=O)[n-]c2=O)c2ccccc2)cc1 (3D coordinates assigned)
Cc1ccc(CN(Cc2c[nH]c(=O)[n-]c2=O)c2ccccc2)cc1 (optimized conformer: 46.802821975364694 kcal/mol)

>  <smiles>  (18) 
Cc1ccc(CN(Cc2c[nH]c(=O)[nH]c2=O)c2ccccc2)cc1

>  <score_type>  (18) 
oracle

>  <origin>  (18) 
adgpu

>  <m_score__min__energy>  (18) 
-9.4000000000000004

>  <m_primary>  (18) 
energy

$$$$
18:0
     RDKit          3D

 54 56  0  0  0  0  0  0  0  0999 V2000
   -3.1320   20.1410  -30.7690 O   0  0  0  0  0  0  0  0  0  0  0  0
   -3.5070   20.8780  -31.7200 C   0  0  0  0  0  0  0  0  0  0  0  0
   -4.0160   20.2500  -32.9160 N   0  0  0  0  0  0  0  0  0  0  0  0
   -4.8350   19.2480  -33.0810 C   0  0  0  0  0  0  0  0  0  0  0  0
   -5.5450   18.6370  -32.0240 C   0  0  0  0  0  0  0  0  0  0  0  0
   -6.3740   17.5460  -32.2970 C   0  0  0  0  0  0  0  0  0  0  0  0
   -6.5010   17.0740  -33.6040 C   0  0  0  0  0  0  0  0  0  0  0  0
   -5.8080   17.7130  -34.6300 C   0  0  0  0  0  0  0  0  0  0  0  0
   -5.0070   18.7720  -34.3470 N   0  0  0  0  0  0  0  0  0  0  0  0
   -3.5220   22.3050  -31.5570 N   0  0  0  0  0  0  0  0  0  0  0  0
   -4.5200   23.0940  -30.8240 C   0  0  2  0  0  0  0  0  0  0  0  0
   -5.7130   23.5200  -31.7100 C   0  0  0  0  0  0  0  0  0  0  0  0
   -6.8190   22.4980  -31.6580 C   0  0  0  0  0  0  0  0  0  0  0  0
   -7.7430   22.5030  -30.5970 C   0  0  0  0  0  0  0  0  0  0  0  0
   -8.8090   21.5980  -30.5910 C   0  0  0  0  0  0  0  0  0  0  0  0
   -8.9680   20.6950  -31.6500 C   0  0  0  0  0  0  0  0  0  0  0  0
   -8.0590   20.6900  -32.7100 C   0  0  0  0  0  0  0  0  0  0  0  0
   -6.9880   21.5870  -32.7160 C   0  0  0  0  0  0  0  0  0  0  0  0
   -3.8500   24.2880  -30.1770 C   0  0  0  0  0  0  0  0  0  0  0  0
   -3.9050   25.4030  -30.7540 O   0  0  0  0  0  0  0  0  0  0  0  0
   -3.1950   24.2190  -28.8980 N   0  0  0  0  0  0  0  0  0  0  0  0
   -1.8590   23.6960  -28.5970 C   0  0  1  0  0  0  0  0  0  0  0  0
   -0.8470   24.8510  -28.4560 C   0  0  0  0  0  0  0  0  0  0  0  0
   -1.2220   25.9600  -29.2270 O   0  0  0  0  0  0  0  0  0  0  0  0
   -1.9220   22.8340  -27.3180 C   0  0  0  0  0  0  0  0  0  0  0  0
   -1.5210   21.3940  -27.5440 C   0  0  0  0  0  0  0  0  0  0  0  0
   -2.0890   20.3630  -26.7740 C   0  0  0  0  0  0  0  0  0  0  0  0
   -1.7360   19.0270  -27.0040 C   0  0  0  0  0  0  0  0  0  0  0  0
   -0.8030   18.7110  -27.9950 C   0  0  0  0  0  0  0  0  0  0  0  0
   -0.2310   19.7300  -28.7630 C   0  0  0  0  0  0  0  0  0  0  0  0
   -0.5890   21.0670  -28.5420 C   0  0  0  0  0  0  0  0  0  0  0  0
   -5.4463   19.0163  -30.9962 H   0  0  0  0  0  0  0  0  0  0  0  0
   -6.9272   17.0586  -31.4807 H   0  0  0  0  0  0  0  0  0  0  0  0
   -7.1414   16.2066  -33.8220 H   0  0  0  0  0  0  0  0  0  0  0  0
   -5.9096   17.3603  -35.6669 H   0  0  0  0  0  0  0  0  0  0  0  0
   -4.9466   22.4528  -30.0386 H   0  0  0  0  0  0  0  0  0  0  0  0
   -6.0992   24.4859  -31.3525 H   0  0  0  0  0  0  0  0  0  0  0  0
   -5.3637   23.6044  -32.7496 H   0  0  0  0  0  0  0  0  0  0  0  0
   -7.6267   23.2199  -29.7709 H   0  0  0  0  0  0  0  0  0  0  0  0
   -9.5230   21.5952  -29.7543 H   0  0  0  0  0  0  0  0  0  0  0  0
   -9.8109   19.9882  -31.6466 H   0  0  0  0  0  0  0  0  0  0  0  0
   -8.1862   19.9798  -33.5403 H   0  0  0  0  0  0  0  0  0  0  0  0
   -6.2734   21.5807  -33.5523 H   0  0  0  0  0  0  0  0  0  0  0  0
   -1.5155   23.0606  -29.4266 H   0  0  0  0  0  0  0  0  0  0  0  0
   -0.7932   25.1521  -27.3994 H   0  0  0  0  0  0  0  0  0  0  0  0
    0.1316   24.4977  -28.8130 H   0  0  0  0  0  0  0  0  0  0  0  0
   -2.0080   25.6750  -29.7620 H   0  0  0  0  0  0  0  0  0  0  0  0
   -1.2450   23.2711  -26.5693 H   0  0  0  0  0  0  0  0  0  0  0  0
   -2.9688   22.8303  -26.9802 H   0  0  0  0  0  0  0  0  0  0  0  0
   -2.8158   20.6076  -25.9854 H   0  0  0  0  0  0  0  0  0  0  0  0
   -2.1935   18.2264  -26.4042 H   0  0  0  0  0  0  0  0  0  0  0  0
   -0.5191   17.6629  -28.1706 H   0  0  0  0  0  0  0  0  0  0  0  0
    0.5029   19.4813  -29.5437 H   0  0  0  0  0  0  0  0  0  0  0  0
   -0.1381   21.8631  -29.1527 H   0  0  0  0  0  0  0  0  0  0  0  0
  1  2  2  0
  2  3  1  0
  3  4  2  3
  4  5  1  0
  5  6  2  0
  6  7  1  0
  7  8  2  0
  8  9  1  0
  2 10  1  0
 10 11  1  0
 11 12  1  0
 12 13  1  0
 13 14  2  0
 14 15  1  0
 15 16  2  0
 16 17  1  0
 17 18  2  0
 11 19  1  0
 19 20  2  0
 19 21  1  0
 21 22  1  0
 22 23  1  0
 23 24  1  0
 22 25  1  0
 25 26  1  0
 26 27  2  0
 27 28  1  0
 28 29  2  0
 29 30  1  0
 30 31  2  0
  9  4  1  0
 18 13  1  0
 31 26  1  0
  5 32  1  0
  6 33  1  0
  7 34  1  0
  8 35  1  0
 11 36  1  1
 12 37  1  0
 12 38  1  0
 14 39  1  0
 15 40  1  0
 16 41  1  0
 17 42  1  0
 18 43  1  0
 22 44  1  6
 23 45  1  0
 23 46  1  0
 24 47  1  0
 25 48  1  0
 25 49  1  0
 27 50  1  0
 28 51  1  0
 29 52  1  0
 30 53  1  0
 31 54  1  0
M  CHG  3   9  -1  10  -1  21  -1
M  END
>  <UniqueID>  (19) 
18

>  <SMILES>  (19) 
O=C(N=c1cccc[n-]1)[N-][C@H](Cc1ccccc1)C(=O)[N-][C@@H](CO)Cc1ccccc1

>  <Energy>  (19) 
62.24297304905836

>  <Genealogy>  (19) 
O=C(N=c1cccc[n-]1)[N-]C(Cc1ccccc1)C(=O)[N-]C(CO)Cc1ccccc1 (protonated)
O=C(N=c1cccc[n-]1)[N-][C@H](Cc1ccccc1)C(=O)[N-][C@@H](CO)Cc1ccccc1 (chirality)
O=C(N=c1cccc[n-]1)[N-][C@H](Cc1ccccc1)C(=O)[N-][C@@H](CO)Cc1ccccc1 (3D coordinates assigned)
O=C(N=c1cccc[n-]1)[N-][C@H](Cc1ccccc1)C(=O)[N-][C@@H](CO)Cc1ccccc1 (optimized conformer: 62.24297304905836 kcal/mol)

>  <smiles>  (19) 
O=C(N=c1cccc[nH]1)NC(Cc1ccccc1)C(=O)NC(CO)Cc1ccccc1

>  <score_type>  (19) 
oracle

>  <origin>  (19) 
adgpu

>  <m_score__min__energy>  (19) 
-11.710000000000001

>  <m_primary>  (19) 
energy

$$$$
19:0
     RDKit          3D

 67 70  0  0  0  0  0  0  0  0999 V2000
   -2.6240   15.8920  -34.8490 C   0  0  0  0  0  0  0  0  0  0  0  0
   -4.0690   16.0380  -34.4700 C   0  0  0  0  0  0  0  0  0  0  0  0
   -4.9520   14.9550  -34.5950 C   0  0  0  0  0  0  0  0  0  0  0  0
   -6.2910   15.0800  -34.1930 C   0  0  0  0  0  0  0  0  0  0  0  0
   -7.2460   13.9400  -34.3790 C   0  0  0  0  0  0  0  0  0  0  0  0
   -6.7500   16.3040  -33.6830 C   0  0  0  0  0  0  0  0  0  0  0  0
   -5.8770   17.3940  -33.5610 C   0  0  0  0  0  0  0  0  0  0  0  0
   -6.3670   18.6740  -33.0120 C   0  0  0  0  0  0  0  0  0  0  0  0
   -7.6690   19.0440  -33.0580 N   0  0  0  0  0  0  0  0  0  0  0  0
   -7.7290   20.2550  -32.4800 C   0  0  0  0  0  0  0  0  0  0  0  0
   -8.8580   21.0540  -32.3170 C   0  0  0  0  0  0  0  0  0  0  0  0
   -8.6930   22.3150  -31.7190 C   0  0  0  0  0  0  0  0  0  0  0  0
   -7.4110   22.7540  -31.2970 C   0  0  0  0  0  0  0  0  0  0  0  0
   -7.2360   24.1230  -30.6920 C   0  0  0  0  0  0  0  0  0  0  0  0
   -5.9910   24.8360  -31.2400 C   0  0  0  0  0  0  0  0  0  0  0  0
   -5.0000   25.2270  -30.1170 C   0  0  0  0  0  0  0  0  0  0  0  0
   -3.6350   24.6750  -30.2850 N   0  0  0  0  0  0  0  0  0  0  0  0
   -2.8820   24.5540  -29.0320 C   0  0  0  0  0  0  0  0  0  0  0  0
   -2.8850   23.0890  -28.6270 C   0  0  0  0  0  0  0  0  0  0  0  0
   -3.2000   22.3170  -29.8950 C   0  0  0  0  0  0  0  0  0  0  0  0
   -3.6090   23.3550  -30.9350 C   0  0  0  0  0  0  0  0  0  0  0  0
   -6.2880   21.9170  -31.4850 C   0  0  0  0  0  0  0  0  0  0  0  0
   -6.4880   20.6690  -32.0740 C   0  0  0  0  0  0  0  0  0  0  0  0
   -5.5920   19.6690  -32.4030 C   0  0  0  0  0  0  0  0  0  0  0  0
   -4.0890   19.7700  -32.3520 C   0  0  0  0  0  0  0  0  0  0  0  0
   -3.5740   20.8800  -33.2800 C   0  0  0  0  0  0  0  0  0  0  0  0
   -2.1410   20.6940  -33.6090 N   0  0  0  0  0  0  0  0  0  0  0  0
   -1.8420   19.2810  -33.8990 C   0  0  0  0  0  0  0  0  0  0  0  0
   -1.3020   21.1530  -32.4880 C   0  0  0  0  0  0  0  0  0  0  0  0
   -4.5310   17.2480  -33.9310 C   0  0  0  0  0  0  0  0  0  0  0  0
   -2.0105   15.8300  -33.9381 H   0  0  0  0  0  0  0  0  0  0  0  0
   -2.4916   14.9759  -35.4433 H   0  0  0  0  0  0  0  0  0  0  0  0
   -2.3110   16.7631  -35.4433 H   0  0  0  0  0  0  0  0  0  0  0  0
   -4.5928   14.0020  -35.0106 H   0  0  0  0  0  0  0  0  0  0  0  0
   -7.5623   13.5624  -33.3954 H   0  0  0  0  0  0  0  0  0  0  0  0
   -8.1268   14.2872  -34.9390 H   0  0  0  0  0  0  0  0  0  0  0  0
   -6.7498   13.1337  -34.9390 H   0  0  0  0  0  0  0  0  0  0  0  0
   -7.8014   16.4089  -33.3770 H   0  0  0  0  0  0  0  0  0  0  0  0
   -8.4650   18.5020  -33.4630 H   0  0  0  0  0  0  0  0  0  0  0  0
   -9.8490   20.7085  -32.6464 H   0  0  0  0  0  0  0  0  0  0  0  0
   -9.5663   22.9684  -31.5765 H   0  0  0  0  0  0  0  0  0  0  0  0
   -8.1239   24.7300  -30.9227 H   0  0  0  0  0  0  0  0  0  0  0  0
   -7.1096   24.0023  -29.6060 H   0  0  0  0  0  0  0  0  0  0  0  0
   -5.4799   24.1645  -31.9456 H   0  0  0  0  0  0  0  0  0  0  0  0
   -6.3218   25.7605  -31.7357 H   0  0  0  0  0  0  0  0  0  0  0  0
   -4.9264   26.3242  -30.0899 H   0  0  0  0  0  0  0  0  0  0  0  0
   -5.3983   24.8005  -29.1845 H   0  0  0  0  0  0  0  0  0  0  0  0
   -1.8482   24.8985  -29.1821 H   0  0  0  0  0  0  0  0  0  0  0  0
   -3.3427   25.1706  -28.2461 H   0  0  0  0  0  0  0  0  0  0  0  0
   -1.8999   22.7970  -28.2341 H   0  0  0  0  0  0  0  0  0  0  0  0
   -3.6198   22.8870  -27.8337 H   0  0  0  0  0  0  0  0  0  0  0  0
   -2.3117   21.7651  -30.2360 H   0  0  0  0  0  0  0  0  0  0  0  0
   -3.9999   21.5807  -29.7276 H   0  0  0  0  0  0  0  0  0  0  0  0
   -2.8819   23.3611  -31.7604 H   0  0  0  0  0  0  0  0  0  0  0  0
   -4.6021   23.1132  -31.3416 H   0  0  0  0  0  0  0  0  0  0  0  0
   -5.2835   22.2411  -31.1752 H   0  0  0  0  0  0  0  0  0  0  0  0
   -3.7794   19.9928  -31.3203 H   0  0  0  0  0  0  0  0  0  0  0  0
   -3.6645   18.8120  -32.6867 H   0  0  0  0  0  0  0  0  0  0  0  0
   -4.1589   20.8667  -34.2115 H   0  0  0  0  0  0  0  0  0  0  0  0
   -3.6858   21.8429  -32.7601 H   0  0  0  0  0  0  0  0  0  0  0  0
   -1.7253   18.7296  -32.9544 H   0  0  0  0  0  0  0  0  0  0  0  0
   -2.6674   18.8432  -34.4796 H   0  0  0  0  0  0  0  0  0  0  0  0
   -0.9100   19.2151  -34.4796 H   0  0  0  0  0  0  0  0  0  0  0  0
   -1.7854   20.8885  -31.5360 H   0  0  0  0  0  0  0  0  0  0  0  0
   -0.3161   20.6686  -32.5456 H   0  0  0  0  0  0  0  0  0  0  0  0
   -1.1782   22.2445  -32.5456 H   0  0  0  0  0  0  0  0  0  0  0  0
   -3.8336   18.0881  -33.7974 H   0  0  0  0  0  0  0  0  0  0  0  0
  1  2  1  0
  2  3  2  0
  3  4  1  0
  4  5  1  0
  4  6  2  0
  6  7  1  0
  7  8  1  0
  8  9  1  0
  9 10  1  0
 10 11  2  0
 11 12  1  0
 12 13  2  0
 13 14  1  0
 14 15  1  0
 15 16  1  0
 16 17  1  0
 17 18  1  0
 18 19  1  0
 19 20  1  0
 20 21  1  0
 13 22  1  0
 22 23  2  0
 23 24  1  0
 24 25  1  0
 25 26  1  0
 26 27  1  0
 27 28  1  0
 27 29  1  0
  7 30  2  0
 30  2  1  0
 24  8  2  0
 23 10  1  0
 21 17  1  0
  1 31  1  0
  1 32  1  0
  1 33  1  0
  3 34  1  0
  5 35  1  0
  5 36  1  0
  5 37  1  0
  6 38  1  0
  9 39  1  0
 11 40  1  0
 12 41  1  0
 14 42  1  0
 14 43  1  0
 15 44  1  0
 15 45  1  0
 16 46  1  0
 16 47  1  0
 18 48  1  0
 18 49  1  0
 19 50  1  0
 19 51  1  0
 20 52  1  0
 20 53  1  0
 21 54  1  0
 21 55  1  0
 22 56  1  0
 25 57  1  0
 25 58  1  0
 26 59  1  0
 26 60  1  0
 28 61  1  0
 28 62  1  0
 28 63  1  0
 29 64  1  0
 29 65  1  0
 29 66  1  0
 30 67  1  0
M  END
>  <UniqueID>  (20) 
19

>  <SMILES>  (20) 
Cc1cc(C)cc(-c2[nH]c3ccc(CCCN4CCCC4)cc3c2CCN(C)C)c1

>  <Energy>  (20) 
101.78327178561048

>  <Genealogy>  (20) 
Cc1cc(C)cc(-c2[nH]c3ccc(CCCN4CCCC4)cc3c2CCN(C)C)c1 (3D coordinates assigned)
Cc1cc(C)cc(-c2[nH]c3ccc(CCCN4CCCC4)cc3c2CCN(C)C)c1 (nonaromatic ring conformer: 101.78327178561048 kcal/mol)

>  <smiles>  (20) 
Cc1cc(C)cc(-c2[nH]c3ccc(CCCN4CCCC4)cc3c2CCN(C)C)c1

>  <score_type>  (20) 
oracle

>  <origin>  (20) 
adgpu

>  <m_score__min__energy>  (20) 
-9.7799999999999994

>  <m_primary>  (20) 
energy

$$$$
20:0
     RDKit          3D

 45 47  0  0  0  0  0  0  0  0999 V2000
   -8.5980   20.0970  -32.7560 C   0  0  0  0  0  0  0  0  0  0  0  0
   -7.6790   21.1110  -32.1430 C   0  0  0  0  0  0  0  0  0  0  0  0
   -8.1250   21.9280  -31.0920 C   0  0  0  0  0  0  0  0  0  0  0  0
   -7.2580   22.8480  -30.4970 C   0  0  0  0  0  0  0  0  0  0  0  0
   -5.9260   22.9470  -30.9270 C   0  0  0  0  0  0  0  0  0  0  0  0
   -5.0040   23.9660  -30.3120 C   0  0  0  0  0  0  0  0  0  0  0  0
   -5.0420   23.8800  -28.8500 N   0  0  0  0  0  0  0  0  0  0  0  0
   -3.9890   24.3760  -28.0020 C   0  0  0  0  0  0  0  0  0  0  0  0
   -4.2390   24.8210  -26.6910 C   0  0  0  0  0  0  0  0  0  0  0  0
   -3.1930   25.2970  -25.8940 C   0  0  0  0  0  0  0  0  0  0  0  0
   -1.8800   25.3410  -26.3880 C   0  0  0  0  0  0  0  0  0  0  0  0
   -0.8020   25.8270  -25.5600 N   0  0  0  0  0  0  0  0  0  0  0  0
   -0.9200   27.1250  -24.8810 C   0  0  0  0  0  0  0  0  0  0  0  0
   -0.1910   27.1240  -23.5190 C   0  0  0  0  0  0  0  0  0  0  0  0
    0.9760   26.2160  -23.4530 N   0  0  0  0  0  0  0  0  0  0  0  0
    1.5400   25.9020  -24.7710 C   0  0  0  0  0  0  0  0  0  0  0  0
    0.5040   25.1540  -25.6150 C   0  0  0  0  0  0  0  0  0  0  0  0
   -1.6320   24.8960  -27.6980 C   0  0  0  0  0  0  0  0  0  0  0  0
   -2.6760   24.4190  -28.4950 C   0  0  0  0  0  0  0  0  0  0  0  0
   -5.4790   22.1300  -31.9770 C   0  0  0  0  0  0  0  0  0  0  0  0
   -6.3460   21.2090  -32.5730 C   0  0  0  0  0  0  0  0  0  0  0  0
   -9.1074   19.5349  -31.9594 H   0  0  0  0  0  0  0  0  0  0  0  0
   -9.3459   20.6093  -33.3791 H   0  0  0  0  0  0  0  0  0  0  0  0
   -8.0149   19.4030  -33.3791 H   0  0  0  0  0  0  0  0  0  0  0  0
   -9.1621   21.8434  -30.7352 H   0  0  0  0  0  0  0  0  0  0  0  0
   -7.6214   23.4980  -29.6874 H   0  0  0  0  0  0  0  0  0  0  0  0
   -3.9767   23.7797  -30.6585 H   0  0  0  0  0  0  0  0  0  0  0  0
   -5.3321   24.9707  -30.6167 H   0  0  0  0  0  0  0  0  0  0  0  0
   -5.8740   23.4370  -28.3940 H   0  0  0  0  0  0  0  0  0  0  0  0
   -5.2631   24.7944  -26.2905 H   0  0  0  0  0  0  0  0  0  0  0  0
   -3.4014   25.6403  -24.8699 H   0  0  0  0  0  0  0  0  0  0  0  0
   -0.4794   27.9037  -25.5209 H   0  0  0  0  0  0  0  0  0  0  0  0
   -1.9869   27.3220  -24.6995 H   0  0  0  0  0  0  0  0  0  0  0  0
    0.1567   28.1472  -23.3137 H   0  0  0  0  0  0  0  0  0  0  0  0
   -0.9150   26.7608  -22.7747 H   0  0  0  0  0  0  0  0  0  0  0  0
    0.6970   25.3240  -22.9800 H   0  0  0  0  0  0  0  0  0  0  0  0
    1.7220   26.6620  -22.8680 H   0  0  0  0  0  0  0  0  0  0  0  0
    1.8199   26.8360  -25.2801 H   0  0  0  0  0  0  0  0  0  0  0  0
    2.4297   25.2680  -24.6431 H   0  0  0  0  0  0  0  0  0  0  0  0
    0.8476   25.1192  -26.6594 H   0  0  0  0  0  0  0  0  0  0  0  0
    0.3921   24.1361  -25.2133 H   0  0  0  0  0  0  0  0  0  0  0  0
   -0.6081   24.9234  -28.0990 H   0  0  0  0  0  0  0  0  0  0  0  0
   -2.4666   24.0740  -29.5183 H   0  0  0  0  0  0  0  0  0  0  0  0
   -4.4416   22.2146  -32.3328 H   0  0  0  0  0  0  0  0  0  0  0  0
   -5.9822   20.5586  -33.3821 H   0  0  0  0  0  0  0  0  0  0  0  0
  1  2  1  0
  2  3  2  0
  3  4  1  0
  4  5  2  0
  5  6  1  0
  6  7  1  0
  7  8  1  0
  8  9  2  0
  9 10  1  0
 10 11  2  0
 11 12  1  0
 12 13  1  0
 13 14  1  0
 14 15  1  0
 15 16  1  0
 16 17  1  0
 11 18  1  0
 18 19  2  0
  5 20  1  0
 20 21  2  0
 21  2  1  0
 19  8  1  0
 17 12  1  0
  1 22  1  0
  1 23  1  0
  1 24  1  0
  3 25  1  0
  4 26  1  0
  6 27  1  0
  6 28  1  0
  7 29  1  0
  9 30  1  0
 10 31  1  0
 13 32  1  0
 13 33  1  0
 14 34  1  0
 14 35  1  0
 15 36  1  0
 15 37  1  0
 16 38  1  0
 16 39  1  0
 17 40  1  0
 17 41  1  0
 18 42  1  0
 19 43  1  0
 20 44  1  0
 21 45  1  0
M  CHG  1  15   1
M  END
>  <UniqueID>  (21) 
20

>  <SMILES>  (21) 
Cc1ccc(CNc2ccc(N3CC[NH2+]CC3)cc2)cc1

>  <Energy>  (21) 
52.61549895213828

>  <Genealogy>  (21) 
Cc1ccc(CNc2ccc(N3CC[NH2+]CC3)cc2)cc1 (protonated)
Cc1ccc(CNc2ccc(N3CC[NH2+]CC3)cc2)cc1 (3D coordinates assigned)
Cc1ccc(CNc2ccc(N3CC[NH2+]CC3)cc2)cc1 (nonaromatic ring conformer: 52.61549895213828 kcal/mol)

>  <smiles>  (21) 
Cc1ccc(CNc2ccc(N3CCNCC3)cc2)cc1

>  <score_type>  (21) 
oracle

>  <origin>  (21) 
adgpu

>  <m_score__min__energy>  (21) 
-8.3699999999999992

>  <m_primary>  (21) 
energy

$$$$
21:0
     RDKit          3D

 32 34  0  0  0  0  0  0  0  0999 V2000
   -2.7780   21.1710  -34.7390 H   0  0  0  0  0  0  0  0  0  0  0  0
   -2.4330   21.5370  -33.8220 N   0  0  0  0  0  0  0  0  0  0  0  0
   -3.2260   21.7460  -32.8210 C   0  0  0  0  0  0  0  0  0  0  0  0
   -2.7170   22.2220  -31.6570 N   0  0  0  0  0  0  0  0  0  0  0  0
   -3.5060   22.4470  -30.5740 C   0  0  0  0  0  0  0  0  0  0  0  0
   -2.9000   22.9870  -29.3330 C   0  0  0  0  0  0  0  0  0  0  0  0
   -2.5290   22.0980  -28.3080 C   0  0  0  0  0  0  0  0  0  0  0  0
   -2.6954   21.0182  -28.4358 H   0  0  0  0  0  0  0  0  0  0  0  0
   -1.9510   22.5750  -27.1290 C   0  0  0  0  0  0  0  0  0  0  0  0
   -1.6602   21.8705  -26.3358 H   0  0  0  0  0  0  0  0  0  0  0  0
   -1.7420   23.9440  -26.9560 C   0  0  0  0  0  0  0  0  0  0  0  0
   -1.2779   24.3170  -26.0311 H   0  0  0  0  0  0  0  0  0  0  0  0
   -2.1220   24.8400  -27.9570 C   0  0  0  0  0  0  0  0  0  0  0  0
   -1.9606   25.9189  -27.8156 H   0  0  0  0  0  0  0  0  0  0  0  0
   -2.7070   24.3730  -29.1390 C   0  0  0  0  0  0  0  0  0  0  0  0
   -3.1190   25.2950  -30.0970 O   0  0  0  0  0  0  0  0  0  0  0  0
   -4.8820   22.2070  -30.6710 C   0  0  0  0  0  0  0  0  0  0  0  0
   -5.5439   22.4042  -29.8148 H   0  0  0  0  0  0  0  0  0  0  0  0
   -5.4050   21.7120  -31.8740 C   0  0  0  0  0  0  0  0  0  0  0  0
   -6.8600   21.4490  -32.0090 C   0  0  0  0  0  0  0  0  0  0  0  0
   -7.8030   22.4470  -31.6970 C   0  0  0  0  0  0  0  0  0  0  0  0
   -7.4608   23.4333  -31.3504 H   0  0  0  0  0  0  0  0  0  0  0  0
   -9.1710   22.1920  -31.8250 C   0  0  0  0  0  0  0  0  0  0  0  0
   -9.9011   22.9770  -31.5786 H   0  0  0  0  0  0  0  0  0  0  0  0
   -9.6130   20.9430  -32.2650 C   0  0  0  0  0  0  0  0  0  0  0  0
  -10.6904   20.7450  -32.3651 H   0  0  0  0  0  0  0  0  0  0  0  0
   -8.6880   19.9450  -32.5780 C   0  0  0  0  0  0  0  0  0  0  0  0
   -9.0376   18.9614  -32.9250 H   0  0  0  0  0  0  0  0  0  0  0  0
   -7.3180   20.1940  -32.4510 C   0  0  0  0  0  0  0  0  0  0  0  0
   -6.5937   19.4039  -32.6982 H   0  0  0  0  0  0  0  0  0  0  0  0
   -4.5620   21.4890  -32.9260 N   0  0  0  0  0  0  0  0  0  0  0  0
   -4.9400   21.1000  -33.8190 H   0  0  0  0  0  0  0  0  0  0  0  0
  1  2  1  0
  2  3  2  0
  3  4  1  0
  4  5  2  0
  5  6  1  0
  6  7  2  0
  7  8  1  0
  7  9  1  0
  9 10  1  0
  9 11  2  0
 11 12  1  0
 11 13  1  0
 13 14  1  0
 13 15  2  0
 15 16  1  0
  5 17  1  0
 17 18  1  0
 17 19  2  0
 19 20  1  0
 20 21  2  0
 21 22  1  0
 21 23  1  0
 23 24  1  0
 23 25  2  0
 25 26  1  0
 25 27  1  0
 27 28  1  0
 27 29  2  0
 29 30  1  0
 19 31  1  0
 31 32  1  0
 31  3  1  0
 15  6  1  0
 29 20  1  0
M  CHG  1  16  -1
M  END
>  <UniqueID>  (22) 
21

>  <SMILES>  (22) 
[H]/N=c1/nc(-c2ccccc2[O-])cc(-c2ccccc2)[nH]1

>  <Energy>  (22) 
46.27344429626574

>  <Genealogy>  (22) 
N=c1nc(-c2ccccc2[O-])cc(-c2ccccc2)[nH]1 (protonated)
[H]/N=c1/nc(-c2ccccc2[O-])cc(-c2ccccc2)[nH]1 (cis-trans isomerization)
[H]/N=c1/nc(-c2ccccc2[O-])cc(-c2ccccc2)[nH]1 (3D coordinates assigned)
[H]/N=c1/nc(-c2ccccc2[O-])cc(-c2ccccc2)[nH]1 (optimized conformer: 46.27344429626574 kcal/mol)

>  <smiles>  (22) 
N=c1nc(-c2ccccc2O)cc(-c2ccccc2)[nH]1

>  <score_type>  (22) 
oracle

>  <origin>  (22) 
adgpu

>  <m_score__min__energy>  (22) 
-10.84

>  <m_primary>  (22) 
energy

$$$$
22:0
     RDKit          3D

 31 32  0  0  0  0  0  0  0  0999 V2000
   -6.1480   24.4530  -31.3860 O   0  0  0  0  0  0  0  0  0  0  0  0
   -5.6650   23.3900  -30.9100 C   0  0  0  0  0  0  0  0  0  0  0  0
   -6.3410   22.1460  -31.1310 N   0  0  0  0  0  0  0  0  0  0  0  0
   -7.7550   22.0400  -31.4760 C   0  0  0  0  0  0  0  0  0  0  0  0
   -8.2480   20.5940  -31.3440 C   0  0  0  0  0  0  0  0  0  0  0  0
   -7.4640   19.6630  -32.2330 C   0  0  0  0  0  0  0  0  0  0  0  0
   -6.8680   20.1440  -33.4110 C   0  0  0  0  0  0  0  0  0  0  0  0
   -6.1060   19.2900  -34.2140 C   0  0  0  0  0  0  0  0  0  0  0  0
   -5.9270   17.9540  -33.8440 C   0  0  0  0  0  0  0  0  0  0  0  0
   -5.1690   17.1070  -34.6430 O   0  0  0  0  0  0  0  0  0  0  0  0
   -6.5090   17.4700  -32.6680 C   0  0  0  0  0  0  0  0  0  0  0  0
   -7.2720   18.3210  -31.8630 C   0  0  0  0  0  0  0  0  0  0  0  0
   -4.4110   23.4210  -30.1140 C   0  0  0  0  0  0  0  0  0  0  0  0
   -4.0520   22.3000  -29.3390 C   0  0  0  0  0  0  0  0  0  0  0  0
   -2.8850   22.3080  -28.5730 C   0  0  0  0  0  0  0  0  0  0  0  0
   -2.0590   23.4310  -28.5650 C   0  0  0  0  0  0  0  0  0  0  0  0
   -2.3960   24.5510  -29.3260 C   0  0  0  0  0  0  0  0  0  0  0  0
   -1.5650   25.6670  -29.3140 O   0  0  0  0  0  0  0  0  0  0  0  0
   -3.5640   24.5550  -30.1000 C   0  0  0  0  0  0  0  0  0  0  0  0
   -3.8680   25.6840  -30.8540 O   0  0  0  0  0  0  0  0  0  0  0  0
   -8.3389   22.6819  -30.8000 H   0  0  0  0  0  0  0  0  0  0  0  0
   -7.8849   22.3597  -32.5205 H   0  0  0  0  0  0  0  0  0  0  0  0
   -8.1344   20.2710  -30.2986 H   0  0  0  0  0  0  0  0  0  0  0  0
   -9.3038   20.5586  -31.6506 H   0  0  0  0  0  0  0  0  0  0  0  0
   -7.0014   21.1962  -33.7025 H   0  0  0  0  0  0  0  0  0  0  0  0
   -5.6466   19.6701  -35.1384 H   0  0  0  0  0  0  0  0  0  0  0  0
   -6.3663   16.4190  -32.3763 H   0  0  0  0  0  0  0  0  0  0  0  0
   -7.7240   17.9385  -30.9360 H   0  0  0  0  0  0  0  0  0  0  0  0
   -4.6980   21.4096  -29.3377 H   0  0  0  0  0  0  0  0  0  0  0  0
   -2.6163   21.4255  -27.9739 H   0  0  0  0  0  0  0  0  0  0  0  0
   -1.1413   23.4342  -27.9586 H   0  0  0  0  0  0  0  0  0  0  0  0
  1  2  2  0
  2  3  1  0
  3  4  1  0
  4  5  1  0
  5  6  1  0
  6  7  2  0
  7  8  1  0
  8  9  2  0
  9 10  1  0
  9 11  1  0
 11 12  2  0
  2 13  1  0
 13 14  2  0
 14 15  1  0
 15 16  2  0
 16 17  1  0
 17 18  1  0
 17 19  2  0
 19 20  1  0
 12  6  1  0
 19 13  1  0
  4 21  1  0
  4 22  1  0
  5 23  1  0
  5 24  1  0
  7 25  1  0
  8 26  1  0
 11 27  1  0
 12 28  1  0
 14 29  1  0
 15 30  1  0
 16 31  1  0
M  CHG  4   3  -1  10  -1  18  -1  20  -1
M  END
>  <UniqueID>  (23) 
22

>  <SMILES>  (23) 
O=C([N-]CCc1ccc([O-])cc1)c1cccc([O-])c1[O-]

>  <Energy>  (23) 
29.746402312122683

>  <Genealogy>  (23) 
O=C([N-]CCc1ccc([O-])cc1)c1cccc([O-])c1[O-] (protonated)
O=C([N-]CCc1ccc([O-])cc1)c1cccc([O-])c1[O-] (3D coordinates assigned)
O=C([N-]CCc1ccc([O-])cc1)c1cccc([O-])c1[O-] (optimized conformer: 29.746402312122683 kcal/mol)

>  <smiles>  (23) 
O=C(NCCc1ccc(O)cc1)c1cccc(O)c1O

>  <score_type>  (23) 
oracle

>  <origin>  (23) 
adgpu

>  <m_score__min__energy>  (23) 
-13.6

>  <m_primary>  (23) 
energy

$$$$
23:0
     RDKit          3D

 80 84  0  0  0  0  0  0  0  0999 V2000
   -4.3830   24.9630  -26.3330 C   0  0  0  0  0  0  0  0  0  0  0  0
   -2.8960   24.9810  -26.5410 C   0  0  0  0  0  0  0  0  0  0  0  0
   -2.1000   25.3210  -25.4900 N   0  0  0  0  0  0  0  0  0  0  0  0
   -0.7480   25.3910  -25.5950 C   0  0  0  0  0  0  0  0  0  0  0  0
   -0.1240   25.0920  -26.8080 C   0  0  0  0  0  0  0  0  0  0  0  0
    1.6210   25.2410  -26.9800 S   0  0  0  0  0  0  0  0  0  0  0  0
    2.3940   24.4840  -25.6330 N   0  0  0  0  0  0  0  0  0  0  0  0
    2.0060   26.6940  -27.0310 O   0  0  0  0  0  0  0  0  0  0  0  0
    2.0720   24.5770  -28.2510 O   0  0  0  0  0  0  0  0  0  0  0  0
   -0.9100   24.7250  -27.9000 C   0  0  0  0  0  0  0  0  0  0  0  0
   -2.3070   24.6780  -27.7920 C   0  0  0  0  0  0  0  0  0  0  0  0
   -3.1160   24.3530  -28.9950 C   0  0  0  0  0  0  0  0  0  0  0  0
   -3.5110   25.2900  -29.7390 O   0  0  0  0  0  0  0  0  0  0  0  0
   -3.4660   22.9870  -29.3130 N   0  0  0  0  0  0  0  0  0  0  0  0
   -4.8720   22.5600  -29.3070 C   0  0  0  0  0  0  0  0  0  0  0  0
   -5.6020   23.0850  -30.5150 C   0  0  0  0  0  0  0  0  0  0  0  0
   -5.9800   24.3950  -30.7100 C   0  0  0  0  0  0  0  0  0  0  0  0
   -6.5990   24.5120  -31.9010 N   0  0  0  0  0  0  0  0  0  0  0  0
   -6.5840   23.2650  -32.4130 C   0  0  0  0  0  0  0  0  0  0  0  0
   -5.9820   22.3760  -31.5990 N   0  0  0  0  0  0  0  0  0  0  0  0
   -5.8460   20.9410  -31.8600 C   0  0  0  0  0  0  0  0  0  0  0  0
   -4.5720   20.6470  -32.6030 C   0  0  0  0  0  0  0  0  0  0  0  0
   -3.6330   21.6670  -32.8240 C   0  0  0  0  0  0  0  0  0  0  0  0
   -2.4280   21.3870  -33.4760 C   0  0  0  0  0  0  0  0  0  0  0  0
   -2.1490   20.0860  -33.9230 C   0  0  0  0  0  0  0  0  0  0  0  0
   -0.8300   19.7690  -34.5810 C   0  0  0  0  0  0  0  0  0  0  0  0
    0.2370   20.6160  -34.0520 N   0  0  0  0  0  0  0  0  0  0  0  0
   -3.0850   19.0660  -33.6980 C   0  0  0  0  0  0  0  0  0  0  0  0
   -4.2870   19.3440  -33.0440 C   0  0  0  0  0  0  0  0  0  0  0  0
   -2.4610   22.0660  -29.7720 C   0  0  0  0  0  0  0  0  0  0  0  0
   -2.6620   20.6820  -29.6550 C   0  0  0  0  0  0  0  0  0  0  0  0
   -1.6620   19.7900  -30.0510 C   0  0  0  0  0  0  0  0  0  0  0  0
   -0.4530   20.2720  -30.5760 C   0  0  0  0  0  0  0  0  0  0  0  0
    0.6190   19.3370  -30.9630 C   0  0  0  0  0  0  0  0  0  0  0  0
    0.7110   18.9770  -32.1670 O   0  0  0  0  0  0  0  0  0  0  0  0
    1.5710   18.8490  -29.9940 N   0  0  0  0  0  0  0  0  0  0  0  0
    3.0000   18.8280  -30.3110 C   0  0  0  0  0  0  0  0  0  0  0  0
    1.0980   18.3070  -28.7140 C   0  0  0  0  0  0  0  0  0  0  0  0
    0.4200   19.3870  -27.9180 C   0  0  0  0  0  0  0  0  0  0  0  0
    0.9640   20.6800  -27.8550 C   0  0  0  0  0  0  0  0  0  0  0  0
    0.3330   21.6720  -27.0960 C   0  0  0  0  0  0  0  0  0  0  0  0
   -0.8370   21.3770  -26.3890 C   0  0  0  0  0  0  0  0  0  0  0  0
   -1.3740   20.0880  -26.4350 C   0  0  0  0  0  0  0  0  0  0  0  0
   -0.7470   19.0940  -27.1930 C   0  0  0  0  0  0  0  0  0  0  0  0
   -0.2710   21.6540  -30.7350 C   0  0  0  0  0  0  0  0  0  0  0  0
   -1.2630   22.5450  -30.3220 C   0  0  0  0  0  0  0  0  0  0  0  0
   -4.6025   24.9603  -25.2551 H   0  0  0  0  0  0  0  0  0  0  0  0
   -4.8288   25.8558  -26.7958 H   0  0  0  0  0  0  0  0  0  0  0  0
   -4.8071   24.0597  -26.7958 H   0  0  0  0  0  0  0  0  0  0  0  0
   -0.1437   25.6835  -24.7237 H   0  0  0  0  0  0  0  0  0  0  0  0
    2.1820   23.4620  -25.6950 H   0  0  0  0  0  0  0  0  0  0  0  0
   -0.4290   24.4698  -28.8558 H   0  0  0  0  0  0  0  0  0  0  0  0
   -4.9139   21.4608  -29.3113 H   0  0  0  0  0  0  0  0  0  0  0  0
   -5.3557   22.9612  -28.4042 H   0  0  0  0  0  0  0  0  0  0  0  0
   -5.8037   25.2187  -30.0025 H   0  0  0  0  0  0  0  0  0  0  0  0
   -7.0164   23.0018  -33.3896 H   0  0  0  0  0  0  0  0  0  0  0  0
   -5.8368   20.4004  -30.9021 H   0  0  0  0  0  0  0  0  0  0  0  0
   -6.6955   20.6151  -32.4781 H   0  0  0  0  0  0  0  0  0  0  0  0
   -3.8460   22.6908  -32.4828 H   0  0  0  0  0  0  0  0  0  0  0  0
   -1.6949   22.1906  -33.6394 H   0  0  0  0  0  0  0  0  0  0  0  0
   -0.5787   18.7147  -34.3932 H   0  0  0  0  0  0  0  0  0  0  0  0
   -0.9233   19.9569  -35.6608 H   0  0  0  0  0  0  0  0  0  0  0  0
    1.1290   20.0710  -34.0410 H   0  0  0  0  0  0  0  0  0  0  0  0
    0.0080   20.8710  -33.0640 H   0  0  0  0  0  0  0  0  0  0  0  0
   -2.8712   18.0421  -34.0384 H   0  0  0  0  0  0  0  0  0  0  0  0
   -5.0154   18.5376  -32.8730 H   0  0  0  0  0  0  0  0  0  0  0  0
   -3.6100   20.2981  -29.2502 H   0  0  0  0  0  0  0  0  0  0  0  0
   -1.8229   18.7064  -29.9509 H   0  0  0  0  0  0  0  0  0  0  0  0
    3.5825   18.8194  -29.3779 H   0  0  0  0  0  0  0  0  0  0  0  0
    3.2325   17.9263  -30.8966 H   0  0  0  0  0  0  0  0  0  0  0  0
    3.2589   19.7224  -30.8966 H   0  0  0  0  0  0  0  0  0  0  0  0
    0.3840   17.4923  -28.9049 H   0  0  0  0  0  0  0  0  0  0  0  0
    1.9574   17.9238  -28.1443 H   0  0  0  0  0  0  0  0  0  0  0  0
    1.8884   20.9137  -28.4036 H   0  0  0  0  0  0  0  0  0  0  0  0
    0.7581   22.6857  -27.0554 H   0  0  0  0  0  0  0  0  0  0  0  0
   -1.3343   22.1595  -25.7970 H   0  0  0  0  0  0  0  0  0  0  0  0
   -2.2911   19.8547  -25.8743 H   0  0  0  0  0  0  0  0  0  0  0  0
   -1.1693   18.0787  -27.2216 H   0  0  0  0  0  0  0  0  0  0  0  0
    0.6562   22.0366  -31.1865 H   0  0  0  0  0  0  0  0  0  0  0  0
   -1.1043   23.6283  -30.4284 H   0  0  0  0  0  0  0  0  0  0  0  0
  1  2  1  0
  2  3  2  0
  3  4  1  0
  4  5  2  0
  5  6  1  0
  6  7  1  0
  6  8  2  0
  6  9  2  0
  5 10  1  0
 10 11  2  0
 11 12  1  0
 12 13  2  0
 12 14  1  0
 14 15  1  0
 15 16  1  0
 16 17  2  0
 17 18  1  0
 18 19  2  0
 19 20  1  0
 20 21  1  0
 21 22  1  0
 22 23  2  0
 23 24  1  0
 24 25  2  0
 25 26  1  0
 26 27  1  0
 25 28  1  0
 28 29  2  0
 14 30  1  0
 30 31  2  0
 31 32  1  0
 32 33  2  0
 33 34  1  0
 34 35  2  0
 34 36  1  0
 36 37  1  0
 36 38  1  0
 38 39  1  0
 39 40  2  0
 40 41  1  0
 41 42  2  0
 42 43  1  0
 43 44  2  0
 33 45  1  0
 45 46  2  0
 11  2  1  0
 20 16  1  0
 29 22  1  0
 46 30  1  0
 44 39  1  0
  1 47  1  0
  1 48  1  0
  1 49  1  0
  4 50  1  0
  7 51  1  0
 10 52  1  0
 15 53  1  0
 15 54  1  0
 17 55  1  0
 19 56  1  0
 21 57  1  0
 21 58  1  0
 23 59  1  0
 24 60  1  0
 26 61  1  0
 26 62  1  0
 27 63  1  0
 27 64  1  0
 28 65  1  0
 29 66  1  0
 31 67  1  0
 32 68  1  0
 37 69  1  0
 37 70  1  0
 37 71  1  0
 38 72  1  0
 38 73  1  0
 40 74  1  0
 41 75  1  0
 42 76  1  0
 43 77  1  0
 44 78  1  0
 45 79  1  0
 46 80  1  0
M  CHG  1   7  -1
M  END
>  <UniqueID>  (24) 
23

>  <SMILES>  (24) 
Cc1ncc(S([NH-])(=O)=O)cc1C(=O)N(Cc1cncn1Cc1ccc(CN)cc1)c1ccc(C(=O)N(C)Cc2ccccc2)cc1

>  <Energy>  (24) 
121.50510015369058

>  <Genealogy>  (24) 
Cc1ncc(S([NH-])(=O)=O)cc1C(=O)N(Cc1cncn1Cc1ccc(CN)cc1)c1ccc(C(=O)N(C)Cc2ccccc2)cc1 (protonated)
Cc1ncc(S([NH-])(=O)=O)cc1C(=O)N(Cc1cncn1Cc1ccc(CN)cc1)c1ccc(C(=O)N(C)Cc2ccccc2)cc1 (3D coordinates assigned)
Cc1ncc(S([NH-])(=O)=O)cc1C(=O)N(Cc1cncn1Cc1ccc(CN)cc1)c1ccc(C(=O)N(C)Cc2ccccc2)cc1 (optimized conformer: 121.50510015369058 kcal/mol)

>  <smiles>  (24) 
Cc1ncc(S(N)(=O)=O)cc1C(=O)N(Cc1cncn1Cc1ccc(CN)cc1)c1ccc(C(=O)N(C)Cc2ccccc2)cc1

>  <score_type>  (24) 
oracle

>  <origin>  (24) 
adgpu

>  <m_score__min__energy>  (24) 
-12.31

>  <m_primary>  (24) 
energy

$$$$
24:0
     RDKit          3D

 25 26  0  0  0  0  0  0  0  0999 V2000
   -5.5430   26.0360  -30.4730 C   0  0  0  0  0  0  0  0  0  0  0  0
   -4.1630   25.6860  -30.4640 O   0  0  0  0  0  0  0  0  0  0  0  0
   -3.6540   24.4860  -29.9410 C   0  0  0  0  0  0  0  0  0  0  0  0
   -4.3830   23.2840  -29.9690 C   0  0  0  0  0  0  0  0  0  0  0  0
   -3.8380   22.1140  -29.4360 C   0  0  0  0  0  0  0  0  0  0  0  0
   -2.5530   22.1190  -28.8650 C   0  0  0  0  0  0  0  0  0  0  0  0
   -1.9720   20.8740  -28.3000 C   0  0  0  0  0  0  0  0  0  0  0  0
   -2.6450   20.1550  -27.2960 C   0  0  0  0  0  0  0  0  0  0  0  0
   -2.0870   18.9870  -26.7730 C   0  0  0  0  0  0  0  0  0  0  0  0
   -0.8560   18.5420  -27.2570 C   0  0  0  0  0  0  0  0  0  0  0  0
   -0.2990   17.4110  -26.7600 F   0  0  0  0  0  0  0  0  0  0  0  0
   -0.2130   19.2420  -28.2270 N   0  0  0  0  0  0  0  0  0  0  0  0
   -0.7340   20.3840  -28.7530 C   0  0  0  0  0  0  0  0  0  0  0  0
   -1.8260   23.3220  -28.8400 C   0  0  0  0  0  0  0  0  0  0  0  0
   -2.3730   24.4940  -29.3720 C   0  0  0  0  0  0  0  0  0  0  0  0
   -1.6380   25.6730  -29.3320 O   0  0  0  0  0  0  0  0  0  0  0  0
   -5.9048   26.1277  -29.4382 H   0  0  0  0  0  0  0  0  0  0  0  0
   -5.6744   26.9959  -30.9939 H   0  0  0  0  0  0  0  0  0  0  0  0
   -6.1160   25.2548  -30.9939 H   0  0  0  0  0  0  0  0  0  0  0  0
   -5.3890   23.2652  -30.4136 H   0  0  0  0  0  0  0  0  0  0  0  0
   -4.4190   21.1803  -29.4631 H   0  0  0  0  0  0  0  0  0  0  0  0
   -3.6148   20.5143  -26.9213 H   0  0  0  0  0  0  0  0  0  0  0  0
   -2.6121   18.4234  -25.9877 H   0  0  0  0  0  0  0  0  0  0  0  0
   -0.1841   20.9264  -29.5362 H   0  0  0  0  0  0  0  0  0  0  0  0
   -0.8187   23.3416  -28.3984 H   0  0  0  0  0  0  0  0  0  0  0  0
  1  2  1  0
  2  3  1  0
  3  4  2  0
  4  5  1  0
  5  6  2  0
  6  7  1  0
  7  8  2  0
  8  9  1  0
  9 10  2  0
 10 11  1  0
 10 12  1  0
 12 13  2  0
  6 14  1  0
 14 15  2  0
 15 16  1  0
 15  3  1  0
 13  7  1  0
  1 17  1  0
  1 18  1  0
  1 19  1  0
  4 20  1  0
  5 21  1  0
  8 22  1  0
  9 23  1  0
 13 24  1  0
 14 25  1  0
M  CHG  1  16  -1
M  END
>  <UniqueID>  (25) 
24

>  <SMILES>  (25) 
COc1ccc(-c2ccc(F)nc2)cc1[O-]

>  <Energy>  (25) 
31.512742498795387

>  <Genealogy>  (25) 
COc1ccc(-c2ccc(F)nc2)cc1[O-] (protonated)
COc1ccc(-c2ccc(F)nc2)cc1[O-] (3D coordinates assigned)
COc1ccc(-c2ccc(F)nc2)cc1[O-] (optimized conformer: 31.512742498795387 kcal/mol)

>  <smiles>  (25) 
COc1ccc(-c2ccc(F)nc2)cc1O

>  <score_type>  (25) 
oracle

>  <origin>  (25) 
adgpu

>  <m_score__min__energy>  (25) 
-9.2200000000000006

>  <m_primary>  (25) 
energy

$$$$
25:0
     RDKit          3D

 36 37  0  0  0  0  0  0  0  0999 V2000
   -6.3560   25.6680  -29.1100 C   0  0  0  0  0  0  0  0  0  0  0  0
   -6.6830   25.3660  -30.4620 O   0  0  0  0  0  0  0  0  0  0  0  0
   -6.3300   24.1770  -31.1220 C   0  0  0  0  0  0  0  0  0  0  0  0
   -7.3060   23.2960  -31.6290 C   0  0  0  0  0  0  0  0  0  0  0  0
   -6.9300   22.0880  -32.2190 C   0  0  0  0  0  0  0  0  0  0  0  0
   -5.5840   21.7230  -32.2960 C   0  0  0  0  0  0  0  0  0  0  0  0
   -5.2450   20.4710  -32.9130 N   0  0  0  0  0  0  0  0  0  0  0  0
   -6.1590   19.5300  -33.4880 C   0  0  0  0  0  0  0  0  0  0  0  0
   -7.0730   18.7580  -32.5970 C   0  0  0  0  0  0  0  0  0  0  0  0
   -6.1330   19.2750  -34.7220 O   0  0  0  0  0  0  0  0  0  0  0  0
   -4.6030   22.6120  -31.8250 C   0  0  0  0  0  0  0  0  0  0  0  0
   -4.9660   23.8430  -31.2620 C   0  0  0  0  0  0  0  0  0  0  0  0
   -3.9230   24.7100  -30.7910 N   0  0  0  0  0  0  0  0  0  0  0  0
   -3.2780   24.6080  -29.5180 C   0  0  0  0  0  0  0  0  0  0  0  0
   -3.8400   24.0000  -28.5670 O   0  0  0  0  0  0  0  0  0  0  0  0
   -2.0340   25.2860  -29.3150 N   0  0  0  0  0  0  0  0  0  0  0  0
   -1.2330   25.2490  -28.1230 C   0  0  0  0  0  0  0  0  0  0  0  0
   -1.1950   26.3370  -27.2290 C   0  0  0  0  0  0  0  0  0  0  0  0
   -0.4280   26.2650  -26.0640 C   0  0  0  0  0  0  0  0  0  0  0  0
    0.2970   25.1080  -25.7720 C   0  0  0  0  0  0  0  0  0  0  0  0
    0.2480   24.0150  -26.6400 C   0  0  0  0  0  0  0  0  0  0  0  0
   -0.5200   24.0790  -27.8090 C   0  0  0  0  0  0  0  0  0  0  0  0
   -0.5660   22.5570  -28.9710 Br  0  0  0  0  0  0  0  0  0  0  0  0
   -6.9954   25.0775  -28.4374 H   0  0  0  0  0  0  0  0  0  0  0  0
   -5.3006   25.4202  -28.9239 H   0  0  0  0  0  0  0  0  0  0  0  0
   -6.5193   26.7398  -28.9239 H   0  0  0  0  0  0  0  0  0  0  0  0
   -8.3711   23.5619  -31.5594 H   0  0  0  0  0  0  0  0  0  0  0  0
   -7.7007   21.4175  -32.6270 H   0  0  0  0  0  0  0  0  0  0  0  0
   -6.8244   18.9680  -31.5462 H   0  0  0  0  0  0  0  0  0  0  0  0
   -8.1138   19.0545  -32.7939 H   0  0  0  0  0  0  0  0  0  0  0  0
   -6.9547   17.6822  -32.7939 H   0  0  0  0  0  0  0  0  0  0  0  0
   -3.5400   22.3391  -31.8989 H   0  0  0  0  0  0  0  0  0  0  0  0
   -1.7719   27.2473  -27.4494 H   0  0  0  0  0  0  0  0  0  0  0  0
   -0.3950   27.1218  -25.3749 H   0  0  0  0  0  0  0  0  0  0  0  0
    0.9070   25.0574  -24.8580 H   0  0  0  0  0  0  0  0  0  0  0  0
    0.8141   23.1017  -26.4047 H   0  0  0  0  0  0  0  0  0  0  0  0
  1  2  1  0
  2  3  1  0
  3  4  2  0
  4  5  1  0
  5  6  2  0
  6  7  1  0
  7  8  1  0
  8  9  1  0
  8 10  2  0
  6 11  1  0
 11 12  2  0
 12 13  1  0
 13 14  1  0
 14 15  2  0
 14 16  1  0
 16 17  1  0
 17 18  2  0
 18 19  1  0
 19 20  2  0
 20 21  1  0
 21 22  2  0
 22 23  1  0
 12  3  1  0
 22 17  1  0
  1 24  1  0
  1 25  1  0
  1 26  1  0
  4 27  1  0
  5 28  1  0
  9 29  1  0
  9 30  1  0
  9 31  1  0
 11 32  1  0
 18 33  1  0
 19 34  1  0
 20 35  1  0
 21 36  1  0
M  CHG  3   7  -1  13  -1  16  -1
M  END
>  <UniqueID>  (26) 
25

>  <SMILES>  (26) 
COc1ccc([N-]C(C)=O)cc1[N-]C(=O)[N-]c1ccccc1Br

>  <Energy>  (26) 
46.49210052740674

>  <Genealogy>  (26) 
COc1ccc([N-]C(C)=O)cc1[N-]C(=O)[N-]c1ccccc1Br (protonated)
COc1ccc([N-]C(C)=O)cc1[N-]C(=O)[N-]c1ccccc1Br (3D coordinates assigned)
COc1ccc([N-]C(C)=O)cc1[N-]C(=O)[N-]c1ccccc1Br (optimized conformer: 46.49210052740674 kcal/mol)

>  <smiles>  (26) 
COc1ccc(NC(C)=O)cc1NC(=O)Nc1ccccc1Br

>  <score_type>  (26) 
oracle

>  <origin>  (26) 
adgpu

>  <m_score__min__energy>  (26) 
-10.73

>  <m_primary>  (26) 
energy

$$$$
26:0
     RDKit          3D

 51 54  0  0  0  0  0  0  0  0999 V2000
    5.1210   19.7730  -37.5390 C   0  0  0  0  0  0  0  0  0  0  0  0
    3.9150   20.6100  -37.6430 N   0  0  0  0  0  0  0  0  0  0  0  0
    2.6820   19.7850  -37.5590 C   0  0  0  0  0  0  0  0  0  0  0  0
    2.0100   19.8460  -36.1800 C   0  0  0  0  0  0  0  0  0  0  0  0
    1.7260   21.2430  -35.8260 N   0  0  0  0  0  0  0  0  0  0  0  0
    0.5390   21.5930  -35.0880 C   0  0  0  0  0  0  0  0  0  0  0  0
   -0.0230   22.7020  -35.3030 O   0  0  0  0  0  0  0  0  0  0  0  0
   -0.0300   20.6830  -34.0710 C   0  0  0  0  0  0  0  0  0  0  0  0
   -1.4200   20.4970  -33.9930 C   0  0  0  0  0  0  0  0  0  0  0  0
   -1.9750   19.6550  -33.0190 C   0  0  0  0  0  0  0  0  0  0  0  0
   -3.4000   19.4790  -32.9570 N   0  0  0  0  0  0  0  0  0  0  0  0
   -4.0110   18.4260  -33.4770 N   0  0  0  0  0  0  0  0  0  0  0  0
   -5.3230   18.5300  -33.1900 C   0  0  0  0  0  0  0  0  0  0  0  0
   -6.3430   17.5000  -33.5530 C   0  0  0  0  0  0  0  0  0  0  0  0
   -6.4140   17.3890  -34.9280 F   0  0  0  0  0  0  0  0  0  0  0  0
   -5.9920   16.2760  -33.0140 F   0  0  0  0  0  0  0  0  0  0  0  0
   -7.5840   17.8670  -33.0620 F   0  0  0  0  0  0  0  0  0  0  0  0
   -5.5540   19.6710  -32.4460 C   0  0  0  0  0  0  0  0  0  0  0  0
   -4.3110   20.2630  -32.3300 C   0  0  0  0  0  0  0  0  0  0  0  0
   -4.0550   21.5800  -31.7060 C   0  0  0  0  0  0  0  0  0  0  0  0
   -5.0140   22.6060  -31.7710 C   0  0  0  0  0  0  0  0  0  0  0  0
   -4.7690   23.8430  -31.1670 C   0  0  0  0  0  0  0  0  0  0  0  0
   -3.5690   24.0630  -30.4840 C   0  0  0  0  0  0  0  0  0  0  0  0
   -3.3260   25.2930  -29.8850 O   0  0  0  0  0  0  0  0  0  0  0  0
   -2.6170   23.0430  -30.3990 C   0  0  0  0  0  0  0  0  0  0  0  0
   -2.8590   21.8040  -31.0030 C   0  0  0  0  0  0  0  0  0  0  0  0
   -1.1270   18.9600  -32.1440 C   0  0  0  0  0  0  0  0  0  0  0  0
    0.2570   19.1250  -32.2280 C   0  0  0  0  0  0  0  0  0  0  0  0
    0.8080   19.9800  -33.1870 C   0  0  0  0  0  0  0  0  0  0  0  0
    2.1560   20.1370  -33.2350 F   0  0  0  0  0  0  0  0  0  0  0  0
    2.5950   22.3020  -36.3500 C   0  0  0  0  0  0  0  0  0  0  0  0
    3.9810   21.7300  -36.6720 C   0  0  0  0  0  0  0  0  0  0  0  0
    5.3613   19.6063  -36.4786 H   0  0  0  0  0  0  0  0  0  0  0  0
    4.9395   18.8057  -38.0303 H   0  0  0  0  0  0  0  0  0  0  0  0
    5.9637   20.2814  -38.0303 H   0  0  0  0  0  0  0  0  0  0  0  0
    1.9672   20.1459  -38.3132 H   0  0  0  0  0  0  0  0  0  0  0  0
    2.9741   18.7393  -37.7358 H   0  0  0  0  0  0  0  0  0  0  0  0
    1.0686   19.2776  -36.2071 H   0  0  0  0  0  0  0  0  0  0  0  0
    2.6844   19.4107  -35.4279 H   0  0  0  0  0  0  0  0  0  0  0  0
   -2.0797   21.0171  -34.7031 H   0  0  0  0  0  0  0  0  0  0  0  0
   -6.5113   20.0276  -32.0381 H   0  0  0  0  0  0  0  0  0  0  0  0
   -5.9629   22.4345  -32.3003 H   0  0  0  0  0  0  0  0  0  0  0  0
   -5.5208   24.6436  -31.2292 H   0  0  0  0  0  0  0  0  0  0  0  0
   -1.6757   23.2145  -29.8563 H   0  0  0  0  0  0  0  0  0  0  0  0
   -2.1099   21.0021  -30.9272 H   0  0  0  0  0  0  0  0  0  0  0  0
   -1.5536   18.2829  -31.3893 H   0  0  0  0  0  0  0  0  0  0  0  0
    0.9165   18.5799  -31.5367 H   0  0  0  0  0  0  0  0  0  0  0  0
    2.1506   22.7182  -37.2661 H   0  0  0  0  0  0  0  0  0  0  0  0
    2.6974   23.0934  -35.5929 H   0  0  0  0  0  0  0  0  0  0  0  0
    4.6043   22.5306  -37.0969 H   0  0  0  0  0  0  0  0  0  0  0  0
    4.4104   21.3407  -35.7371 H   0  0  0  0  0  0  0  0  0  0  0  0
  1  2  1  0
  2  3  1  0
  3  4  1  0
  4  5  1  0
  5  6  1  0
  6  7  2  0
  6  8  1  0
  8  9  2  0
  9 10  1  0
 10 11  1  0
 11 12  1  0
 12 13  2  0
 13 14  1  0
 14 15  1  0
 14 16  1  0
 14 17  1  0
 13 18  1  0
 18 19  2  0
 19 20  1  0
 20 21  2  0
 21 22  1  0
 22 23  2  0
 23 24  1  0
 23 25  1  0
 25 26  2  0
 10 27  2  0
 27 28  1  0
 28 29  2  0
 29 30  1  0
  5 31  1  0
 31 32  1  0
 32  2  1  0
 29  8  1  0
 19 11  1  0
 26 20  1  0
  1 33  1  0
  1 34  1  0
  1 35  1  0
  3 36  1  0
  3 37  1  0
  4 38  1  0
  4 39  1  0
  9 40  1  0
 18 41  1  0
 21 42  1  0
 22 43  1  0
 25 44  1  0
 26 45  1  0
 27 46  1  0
 28 47  1  0
 31 48  1  0
 31 49  1  0
 32 50  1  0
 32 51  1  0
M  CHG  1  24  -1
M  END
>  <UniqueID>  (27) 
26

>  <SMILES>  (27) 
CN1CCN(C(=O)c2cc(-n3nc(C(F)(F)F)cc3-c3ccc([O-])cc3)ccc2F)CC1

>  <Energy>  (27) 
103.53944754071165

>  <Genealogy>  (27) 
CN1CCN(C(=O)c2cc(-n3nc(C(F)(F)F)cc3-c3ccc([O-])cc3)ccc2F)CC1 (protonated)
CN1CCN(C(=O)c2cc(-n3nc(C(F)(F)F)cc3-c3ccc([O-])cc3)ccc2F)CC1 (3D coordinates assigned)
CN1CCN(C(=O)c2cc(-n3nc(C(F)(F)F)cc3-c3ccc([O-])cc3)ccc2F)CC1 (nonaromatic ring conformer: 103.53944754071165 kcal/mol)

>  <smiles>  (27) 
CN1CCN(C(=O)c2cc(-n3nc(C(F)(F)F)cc3-c3ccc(O)cc3)ccc2F)CC1

>  <score_type>  (27) 
oracle

>  <origin>  (27) 
adgpu

>  <m_score__min__energy>  (27) 
-10.970000000000001

>  <m_primary>  (27) 
energy

$$$$
27:0
     RDKit          3D

 45 48  0  0  0  0  0  0  0  0999 V2000
   -2.8050   18.0320  -33.9610 C   0  0  0  0  0  0  0  0  0  0  0  0
   -3.8980   18.7850  -34.4770 O   0  0  0  0  0  0  0  0  0  0  0  0
   -4.7890   19.5410  -33.6960 C   0  0  0  0  0  0  0  0  0  0  0  0
   -4.3620   20.6600  -32.9600 C   0  0  0  0  0  0  0  0  0  0  0  0
   -5.2690   21.3970  -32.1890 C   0  0  0  0  0  0  0  0  0  0  0  0
   -4.8110   22.5740  -31.4170 C   0  0  0  0  0  0  0  0  0  0  0  0
   -5.0770   23.8500  -31.7630 N   0  0  0  0  0  0  0  0  0  0  0  0
   -4.5100   24.5720  -30.8460 O   0  0  0  0  0  0  0  0  0  0  0  0
   -3.9190   23.7940  -29.9710 C   0  0  0  0  0  0  0  0  0  0  0  0
   -3.1770   24.2800  -28.7920 C   0  0  0  0  0  0  0  0  0  0  0  0
   -3.8290   24.4560  -27.5570 C   0  0  0  0  0  0  0  0  0  0  0  0
   -3.1220   24.9230  -26.4440 C   0  0  0  0  0  0  0  0  0  0  0  0
   -1.7620   25.2190  -26.5560 C   0  0  0  0  0  0  0  0  0  0  0  0
   -1.0980   25.0190  -27.7730 C   0  0  0  0  0  0  0  0  0  0  0  0
   -1.8030   24.5660  -28.8920 C   0  0  0  0  0  0  0  0  0  0  0  0
    0.2740   25.2790  -27.8490 O   0  0  0  0  0  0  0  0  0  0  0  0
    1.0550   25.4730  -26.6680 C   0  0  0  0  0  0  0  0  0  0  0  0
    0.2590   26.2770  -25.6300 C   0  0  0  0  0  0  0  0  0  0  0  0
   -1.0450   25.7160  -25.4630 O   0  0  0  0  0  0  0  0  0  0  0  0
   -4.0780   22.4930  -30.2850 N   0  0  0  0  0  0  0  0  0  0  0  0
   -6.6140   21.0060  -32.1570 C   0  0  0  0  0  0  0  0  0  0  0  0
   -7.0650   19.8890  -32.8860 C   0  0  0  0  0  0  0  0  0  0  0  0
   -8.4140   19.5020  -32.8510 O   0  0  0  0  0  0  0  0  0  0  0  0
   -8.9710   18.5550  -31.9440 C   0  0  0  0  0  0  0  0  0  0  0  0
   -6.1370   19.1490  -33.6640 C   0  0  0  0  0  0  0  0  0  0  0  0
   -6.4840   18.0180  -34.4280 O   0  0  0  0  0  0  0  0  0  0  0  0
   -6.2840   16.6560  -34.0690 C   0  0  0  0  0  0  0  0  0  0  0  0
   -2.8330   18.0513  -32.8615 H   0  0  0  0  0  0  0  0  0  0  0  0
   -2.8784   16.9919  -34.3114 H   0  0  0  0  0  0  0  0  0  0  0  0
   -1.8593   18.4711  -34.3114 H   0  0  0  0  0  0  0  0  0  0  0  0
   -3.3041   20.9598  -32.9902 H   0  0  0  0  0  0  0  0  0  0  0  0
   -4.9007   24.2250  -27.4666 H   0  0  0  0  0  0  0  0  0  0  0  0
   -3.6370   25.0570  -25.4813 H   0  0  0  0  0  0  0  0  0  0  0  0
   -1.2828   24.4330  -29.8520 H   0  0  0  0  0  0  0  0  0  0  0  0
    1.3201   24.4936  -26.2431 H   0  0  0  0  0  0  0  0  0  0  0  0
    1.9673   26.0293  -26.9292 H   0  0  0  0  0  0  0  0  0  0  0  0
    0.7904   26.2534  -24.6672 H   0  0  0  0  0  0  0  0  0  0  0  0
    0.1602   27.3151  -25.9800 H   0  0  0  0  0  0  0  0  0  0  0  0
   -7.3300   21.5816  -31.5519 H   0  0  0  0  0  0  0  0  0  0  0  0
   -8.7796   18.8804  -30.9108 H   0  0  0  0  0  0  0  0  0  0  0  0
  -10.0559   18.4821  -32.1105 H   0  0  0  0  0  0  0  0  0  0  0  0
   -8.5076   17.5714  -32.1105 H   0  0  0  0  0  0  0  0  0  0  0  0
   -6.2705   16.5639  -32.9729 H   0  0  0  0  0  0  0  0  0  0  0  0
   -7.1021   16.0450  -34.4782 H   0  0  0  0  0  0  0  0  0  0  0  0
   -5.3248   16.3060  -34.4782 H   0  0  0  0  0  0  0  0  0  0  0  0
  1  2  1  0
  2  3  1  0
  3  4  2  0
  4  5  1  0
  5  6  1  0
  6  7  2  0
  7  8  1  0
  8  9  1  0
  9 10  1  0
 10 11  2  0
 11 12  1  0
 12 13  2  0
 13 14  1  0
 14 15  2  0
 14 16  1  0
 16 17  1  0
 17 18  1  0
 18 19  1  0
  9 20  2  0
  5 21  2  0
 21 22  1  0
 22 23  1  0
 23 24  1  0
 22 25  2  0
 25 26  1  0
 26 27  1  0
 25  3  1  0
 20  6  1  0
 15 10  1  0
 19 13  1  0
  1 28  1  0
  1 29  1  0
  1 30  1  0
  4 31  1  0
 11 32  1  0
 12 33  1  0
 15 34  1  0
 17 35  1  0
 17 36  1  0
 18 37  1  0
 18 38  1  0
 21 39  1  0
 24 40  1  0
 24 41  1  0
 24 42  1  0
 27 43  1  0
 27 44  1  0
 27 45  1  0
M  END
>  <UniqueID>  (28) 
27

>  <SMILES>  (28) 
COc1cc(-c2noc(-c3ccc4c(c3)OCCO4)n2)cc(OC)c1OC

>  <Energy>  (28) 
84.92940458376869

>  <Genealogy>  (28) 
COc1cc(-c2noc(-c3ccc4c(c3)OCCO4)n2)cc(OC)c1OC (3D coordinates assigned)
COc1cc(-c2noc(-c3ccc4c(c3)OCCO4)n2)cc(OC)c1OC (nonaromatic ring conformer: 84.92940458376869 kcal/mol)

>  <smiles>  (28) 
COc1cc(-c2noc(-c3ccc4c(c3)OCCO4)n2)cc(OC)c1OC

>  <score_type>  (28) 
oracle

>  <origin>  (28) 
adgpu

>  <m_score__min__energy>  (28) 
-7.6399999999999997

>  <m_primary>  (28) 
energy

$$$$
28:0
     RDKit          3D

 37 38  0  0  0  0  0  0  0  0999 V2000
   -1.0960   22.6380  -29.8840 C   0  0  0  0  0  0  0  0  0  0  0  0
   -2.0030   23.0080  -30.9170 O   0  0  0  0  0  0  0  0  0  0  0  0
   -3.4000   22.9120  -30.8180 C   0  0  0  0  0  0  0  0  0  0  0  0
   -4.0820   21.6890  -30.9630 C   0  0  0  0  0  0  0  0  0  0  0  0
   -5.4740   21.6390  -30.8580 C   0  0  0  0  0  0  0  0  0  0  0  0
   -6.2080   22.8080  -30.6070 C   0  0  0  0  0  0  0  0  0  0  0  0
   -7.7110   22.7670  -30.5100 C   0  0  0  0  0  0  0  0  0  0  0  0
   -8.2960   22.3490  -31.8020 N   0  0  0  0  0  0  0  0  0  0  0  0
   -9.1390   23.4280  -32.3460 C   0  0  0  0  0  0  0  0  0  0  0  0
   -9.0830   21.1050  -31.6520 C   0  0  0  0  0  0  0  0  0  0  0  0
   -8.2850   19.9340  -32.1380 C   0  0  0  0  0  0  0  0  0  0  0  0
   -8.4510   18.6050  -31.7980 C   0  0  0  0  0  0  0  0  0  0  0  0
   -7.5730   17.8600  -32.4980 N   0  0  0  0  0  0  0  0  0  0  0  0
   -6.8620   18.6830  -33.2530 N   0  0  0  0  0  0  0  0  0  0  0  0
   -5.8570   18.2430  -34.2120 C   0  0  0  0  0  0  0  0  0  0  0  0
   -7.2760   19.9510  -33.0750 C   0  0  0  0  0  0  0  0  0  0  0  0
   -5.5300   24.0280  -30.4610 C   0  0  0  0  0  0  0  0  0  0  0  0
   -4.1360   24.0790  -30.5660 C   0  0  0  0  0  0  0  0  0  0  0  0
   -3.4820   25.2960  -30.4210 O   0  0  0  0  0  0  0  0  0  0  0  0
   -1.5592   22.8270  -28.9043 H   0  0  0  0  0  0  0  0  0  0  0  0
   -0.8532   21.5690  -29.9747 H   0  0  0  0  0  0  0  0  0  0  0  0
   -0.1747   23.2322  -29.9747 H   0  0  0  0  0  0  0  0  0  0  0  0
   -3.5152   20.7671  -31.1602 H   0  0  0  0  0  0  0  0  0  0  0  0
   -5.9973   20.6783  -30.9727 H   0  0  0  0  0  0  0  0  0  0  0  0
   -8.0051   22.0500  -29.7293 H   0  0  0  0  0  0  0  0  0  0  0  0
   -8.0814   23.7714  -30.2571 H   0  0  0  0  0  0  0  0  0  0  0  0
   -9.5845   23.9983  -31.5176 H   0  0  0  0  0  0  0  0  0  0  0  0
   -8.5232   24.0986  -32.9633 H   0  0  0  0  0  0  0  0  0  0  0  0
   -9.9387   22.9927  -32.9633 H   0  0  0  0  0  0  0  0  0  0  0  0
   -9.3356   20.9591  -30.5914 H   0  0  0  0  0  0  0  0  0  0  0  0
  -10.0049   21.1863  -32.2465 H   0  0  0  0  0  0  0  0  0  0  0  0
   -9.1819   18.2177  -31.0729 H   0  0  0  0  0  0  0  0  0  0  0  0
   -4.9789   17.8585  -33.6725 H   0  0  0  0  0  0  0  0  0  0  0  0
   -6.2769   17.4464  -34.8437 H   0  0  0  0  0  0  0  0  0  0  0  0
   -5.5565   19.0919  -34.8437 H   0  0  0  0  0  0  0  0  0  0  0  0
   -6.8798   20.8409  -33.5860 H   0  0  0  0  0  0  0  0  0  0  0  0
   -6.0978   24.9491  -30.2629 H   0  0  0  0  0  0  0  0  0  0  0  0
  1  2  1  0
  2  3  1  0
  3  4  2  0
  4  5  1  0
  5  6  2  0
  6  7  1  0
  7  8  1  0
  8  9  1  0
  8 10  1  0
 10 11  1  0
 11 12  1  0
 12 13  2  0
 13 14  1  0
 14 15  1  0
 14 16  1  0
  6 17  1  0
 17 18  2  0
 18 19  1  0
 18  3  1  0
 16 11  2  0
  1 20  1  0
  1 21  1  0
  1 22  1  0
  4 23  1  0
  5 24  1  0
  7 25  1  0
  7 26  1  0
  9 27  1  0
  9 28  1  0
  9 29  1  0
 10 30  1  0
 10 31  1  0
 12 32  1  0
 15 33  1  0
 15 34  1  0
 15 35  1  0
 16 36  1  0
 17 37  1  0
M  CHG  1  19  -1
M  END
>  <UniqueID>  (29) 
28

>  <SMILES>  (29) 
COc1ccc(CN(C)Cc2cnn(C)c2)cc1[O-]

>  <Energy>  (29) 
64.8864925853568

>  <Genealogy>  (29) 
COc1ccc(CN(C)Cc2cnn(C)c2)cc1[O-] (protonated)
COc1ccc(CN(C)Cc2cnn(C)c2)cc1[O-] (3D coordinates assigned)
COc1ccc(CN(C)Cc2cnn(C)c2)cc1[O-] (optimized conformer: 64.8864925853568 kcal/mol)

>  <smiles>  (29) 
COc1ccc(CN(C)Cc2cnn(C)c2)cc1O

>  <score_type>  (29) 
oracle

>  <origin>  (29) 
adgpu

>  <m_score__min__energy>  (29) 
-9.7100000000000009

>  <m_primary>  (29) 
energy

$$$$
29:0
     RDKit          3D

 53 56  0  0  0  0  0  0  0  0999 V2000
   -7.9180   21.0510  -32.3430 C   0  0  0  0  0  0  0  0  0  0  0  0
   -6.6100   21.7860  -32.3420 C   0  0  0  0  0  0  0  0  0  0  0  0
   -5.6810   21.3530  -33.0760 O   0  0  0  0  0  0  0  0  0  0  0  0
   -6.3870   22.9930  -31.5010 C   0  0  0  0  0  0  0  0  0  0  0  0
   -7.4580   23.6470  -30.8600 C   0  0  0  0  0  0  0  0  0  0  0  0
   -7.2270   24.7740  -30.0680 C   0  0  0  0  0  0  0  0  0  0  0  0
   -5.9330   25.2720  -29.9110 C   0  0  0  0  0  0  0  0  0  0  0  0
   -4.8550   24.6510  -30.5620 C   0  0  0  0  0  0  0  0  0  0  0  0
   -3.5120   25.1360  -30.4230 N   0  0  0  0  0  0  0  0  0  0  0  0
   -2.4790   24.5440  -29.6240 C   0  0  0  0  0  0  0  0  0  0  0  0
   -1.7920   25.2910  -28.8770 O   0  0  0  0  0  0  0  0  0  0  0  0
   -2.2340   23.0830  -29.6120 C   0  0  0  0  0  0  0  0  0  0  0  0
   -2.2830   22.3540  -28.4120 C   0  0  0  0  0  0  0  0  0  0  0  0
   -2.0570   20.9760  -28.4140 C   0  0  0  0  0  0  0  0  0  0  0  0
   -1.7720   20.3120  -29.6100 C   0  0  0  0  0  0  0  0  0  0  0  0
   -1.7060   21.0280  -30.8120 C   0  0  0  0  0  0  0  0  0  0  0  0
   -1.3110   20.2050  -32.3190 S   0  0  0  0  0  0  0  0  0  0  0  0
   -1.1530   21.2140  -33.4240 O   0  0  0  0  0  0  0  0  0  0  0  0
   -0.0050   19.4810  -32.1460 O   0  0  0  0  0  0  0  0  0  0  0  0
   -2.5700   19.0640  -32.7220 N   0  0  2  0  0  0  0  0  0  0  0  0
   -2.7770   19.0490  -34.1830 C   0  0  0  0  0  0  0  0  0  0  0  0
   -3.7480   17.9310  -34.5770 C   0  0  0  0  0  0  0  0  0  0  0  0
   -4.9720   17.9110  -33.7000 C   0  0  0  0  0  0  0  0  0  0  0  0
   -6.0900   17.1600  -34.0950 C   0  0  0  0  0  0  0  0  0  0  0  0
   -7.2180   17.0860  -33.2750 C   0  0  0  0  0  0  0  0  0  0  0  0
   -7.2370   17.7560  -32.0490 C   0  0  0  0  0  0  0  0  0  0  0  0
   -6.1260   18.4980  -31.6400 C   0  0  0  0  0  0  0  0  0  0  0  0
   -4.9790   18.5640  -32.4490 C   0  0  0  0  0  0  0  0  0  0  0  0
   -3.8170   19.4260  -32.0200 C   0  0  0  0  0  0  0  0  0  0  0  0
   -1.9240   22.4110  -30.8090 C   0  0  0  0  0  0  0  0  0  0  0  0
   -5.0840   23.5040  -31.3330 C   0  0  0  0  0  0  0  0  0  0  0  0
   -8.2383   20.8710  -31.3062 H   0  0  0  0  0  0  0  0  0  0  0  0
   -8.6773   21.6545  -32.8618 H   0  0  0  0  0  0  0  0  0  0  0  0
   -7.7974   20.0886  -32.8618 H   0  0  0  0  0  0  0  0  0  0  0  0
   -8.4829   23.2674  -30.9842 H   0  0  0  0  0  0  0  0  0  0  0  0
   -8.0695   25.2716  -29.5654 H   0  0  0  0  0  0  0  0  0  0  0  0
   -5.7571   26.1528  -29.2760 H   0  0  0  0  0  0  0  0  0  0  0  0
   -2.5005   22.8714  -27.4660 H   0  0  0  0  0  0  0  0  0  0  0  0
   -2.1035   20.4114  -27.4711 H   0  0  0  0  0  0  0  0  0  0  0  0
   -1.5993   19.2257  -29.6075 H   0  0  0  0  0  0  0  0  0  0  0  0
   -2.2510   18.1190  -32.4030 H   0  0  0  0  0  0  0  0  0  0  0  0
   -3.1923   20.0172  -34.4995 H   0  0  0  0  0  0  0  0  0  0  0  0
   -1.8105   18.8707  -34.6770 H   0  0  0  0  0  0  0  0  0  0  0  0
   -4.0612   18.0841  -35.6203 H   0  0  0  0  0  0  0  0  0  0  0  0
   -3.2269   16.9700  -34.4546 H   0  0  0  0  0  0  0  0  0  0  0  0
   -6.0776   16.6262  -35.0567 H   0  0  0  0  0  0  0  0  0  0  0  0
   -8.0922   16.4998  -33.5945 H   0  0  0  0  0  0  0  0  0  0  0  0
   -8.1272   17.6993  -31.4054 H   0  0  0  0  0  0  0  0  0  0  0  0
   -6.1494   19.0334  -30.6794 H   0  0  0  0  0  0  0  0  0  0  0  0
   -4.0552   20.4774  -32.2388 H   0  0  0  0  0  0  0  0  0  0  0  0
   -3.6578   19.2695  -30.9429 H   0  0  0  0  0  0  0  0  0  0  0  0
   -1.8524   22.9768  -31.7496 H   0  0  0  0  0  0  0  0  0  0  0  0
   -4.2355   22.9952  -31.8138 H   0  0  0  0  0  0  0  0  0  0  0  0
  1  2  1  0
  2  3  2  0
  2  4  1  0
  4  5  2  0
  5  6  1  0
  6  7  2  0
  7  8  1  0
  8  9  1  0
  9 10  1  0
 10 11  2  0
 10 12  1  0
 12 13  2  0
 13 14  1  0
 14 15  2  0
 15 16  1  0
 16 17  1  0
 17 18  2  0
 17 19  2  0
 17 20  1  0
 20 21  1  0
 21 22  1  0
 22 23  1  0
 23 24  2  0
 24 25  1  0
 25 26  2  0
 26 27  1  0
 27 28  2  0
 28 29  1  0
 16 30  2  0
  8 31  2  0
 31  4  1  0
 30 12  1  0
 29 20  1  0
 28 23  1  0
  1 32  1  0
  1 33  1  0
  1 34  1  0
  5 35  1  0
  6 36  1  0
  7 37  1  0
 13 38  1  0
 14 39  1  0
 15 40  1  0
 20 41  1  1
 21 42  1  0
 21 43  1  0
 22 44  1  0
 22 45  1  0
 24 46  1  0
 25 47  1  0
 26 48  1  0
 27 49  1  0
 29 50  1  0
 29 51  1  0
 30 52  1  0
 31 53  1  0
M  CHG  2   9  -1  20   1
M  END
>  <UniqueID>  (30) 
29

>  <SMILES>  (30) 
CC(=O)c1cccc([N-]C(=O)c2cccc(S(=O)(=O)[N@@H+]3CCc4ccccc4C3)c2)c1

>  <Energy>  (30) 
64.9731931012637

>  <Genealogy>  (30) 
CC(=O)c1cccc([N-]C(=O)c2cccc(S(=O)(=O)[NH+]3CCc4ccccc4C3)c2)c1 (protonated)
CC(=O)c1cccc([N-]C(=O)c2cccc(S(=O)(=O)[N@@H+]3CCc4ccccc4C3)c2)c1 (chirality)
CC(=O)c1cccc([N-]C(=O)c2cccc(S(=O)(=O)[N@@H+]3CCc4ccccc4C3)c2)c1 (3D coordinates assigned)
CC(=O)c1cccc([N-]C(=O)c2cccc(S(=O)(=O)[N@@H+]3CCc4ccccc4C3)c2)c1 (nonaromatic ring conformer: 64.9731931012637 kcal/mol)

>  <smiles>  (30) 
CC(=O)c1cccc(NC(=O)c2cccc(S(=O)(=O)N3CCc4ccccc4C3)c2)c1

>  <score_type>  (30) 
oracle

>  <origin>  (30) 
adgpu

>  <m_score__min__energy>  (30) 
-10.869999999999999

>  <m_primary>  (30) 
energy

$$$$
30:0
     RDKit          3D

 53 55  0  0  0  0  0  0  0  0999 V2000
   -4.0820   18.8490  -33.8520 H   0  0  0  0  0  0  0  0  0  0  0  0
   -3.4960   19.6270  -33.6650 O   0  0  0  0  0  0  0  0  0  0  0  0
   -2.3810   19.1160  -32.9900 C   0  0  0  0  0  0  0  0  0  0  0  0
   -2.4367   19.3992  -31.9285 H   0  0  0  0  0  0  0  0  0  0  0  0
   -1.4664   19.5299  -33.4397 H   0  0  0  0  0  0  0  0  0  0  0  0
   -2.3510   17.5930  -33.1060 C   0  0  0  0  0  0  0  0  0  0  0  0
   -3.0553   17.1641  -32.3780 H   0  0  0  0  0  0  0  0  0  0  0  0
   -1.3258   17.2491  -32.9041 H   0  0  0  0  0  0  0  0  0  0  0  0
   -2.7280   17.1570  -34.4460 N   0  0  0  0  0  0  0  0  0  0  0  0
   -4.0830   17.0050  -34.8770 C   0  0  0  0  0  0  0  0  0  0  0  0
   -4.6550   17.9340  -35.5070 O   0  0  0  0  0  0  0  0  0  0  0  0
   -4.8120   15.7570  -34.5790 C   0  0  0  0  0  0  0  0  0  0  0  0
   -4.1310   14.5310  -34.6740 C   0  0  0  0  0  0  0  0  0  0  0  0
   -3.0526   14.5201  -34.8907 H   0  0  0  0  0  0  0  0  0  0  0  0
   -4.8150   13.3270  -34.4950 C   0  0  0  0  0  0  0  0  0  0  0  0
   -4.2719   12.3728  -34.5622 H   0  0  0  0  0  0  0  0  0  0  0  0
   -6.1860   13.3300  -34.2310 C   0  0  0  0  0  0  0  0  0  0  0  0
   -6.7260   12.3786  -34.1159 H   0  0  0  0  0  0  0  0  0  0  0  0
   -6.8720   14.5410  -34.1130 C   0  0  0  0  0  0  0  0  0  0  0  0
   -7.9529   14.5392  -33.9089 H   0  0  0  0  0  0  0  0  0  0  0  0
   -6.1920   15.7580  -34.2530 C   0  0  0  0  0  0  0  0  0  0  0  0
   -6.9190   16.9760  -34.0230 N   0  0  0  0  0  0  0  0  0  0  0  0
   -6.4440   18.0360  -33.1890 C   0  0  0  0  0  0  0  0  0  0  0  0
   -5.4410   17.8510  -32.4460 O   0  0  0  0  0  0  0  0  0  0  0  0
   -7.1000   19.3110  -33.2270 N   0  0  0  0  0  0  0  0  0  0  0  0
   -7.8500   19.4380  -33.9430 H   0  0  0  0  0  0  0  0  0  0  0  0
   -6.6320   20.4740  -32.5250 C   0  0  0  0  0  0  0  0  0  0  0  0
   -7.2770   21.7190  -32.6460 C   0  0  0  0  0  0  0  0  0  0  0  0
   -8.1493   21.8213  -33.3083 H   0  0  0  0  0  0  0  0  0  0  0  0
   -6.8150   22.8260  -31.9290 C   0  0  0  0  0  0  0  0  0  0  0  0
   -7.3359   23.7909  -32.0156 H   0  0  0  0  0  0  0  0  0  0  0  0
   -5.6920   22.7120  -31.1010 C   0  0  0  0  0  0  0  0  0  0  0  0
   -5.1630   24.1020  -30.1610 S   0  0  0  0  0  0  0  0  0  0  0  0
   -4.5510   25.1500  -31.0480 O   0  0  0  0  0  0  0  0  0  0  0  0
   -6.3490   24.6970  -29.4560 O   0  0  0  0  0  0  0  0  0  0  0  0
   -3.9950   23.5910  -28.9880 N   0  0  0  0  0  0  0  0  0  0  0  0
   -2.8750   24.2180  -28.8070 C   0  0  0  0  0  0  0  0  0  0  0  0
   -2.5050   25.2920  -29.4650 O   0  0  0  0  0  0  0  0  0  0  0  0
   -1.3250   25.6820  -29.0780 N   0  0  0  0  0  0  0  0  0  0  0  0
   -0.9140   24.8170  -28.1260 C   0  0  0  0  0  0  0  0  0  0  0  0
    0.4160   24.8910  -27.4480 C   0  0  0  0  0  0  0  0  0  0  0  0
    0.2726   24.8830  -26.3574 H   0  0  0  0  0  0  0  0  0  0  0  0
    1.0270   24.0255  -27.7438 H   0  0  0  0  0  0  0  0  0  0  0  0
    0.9272   25.8190  -27.7438 H   0  0  0  0  0  0  0  0  0  0  0  0
   -1.8920   23.8660  -27.9120 C   0  0  0  0  0  0  0  0  0  0  0  0
   -1.8360   22.6710  -27.0130 C   0  0  0  0  0  0  0  0  0  0  0  0
   -1.8514   23.0006  -25.9636 H   0  0  0  0  0  0  0  0  0  0  0  0
   -2.7049   22.0250  -27.2073 H   0  0  0  0  0  0  0  0  0  0  0  0
   -0.9105   22.1091  -27.2073 H   0  0  0  0  0  0  0  0  0  0  0  0
   -5.0240   21.4830  -31.0050 C   0  0  0  0  0  0  0  0  0  0  0  0
   -4.1333   21.3910  -30.3660 H   0  0  0  0  0  0  0  0  0  0  0  0
   -5.4870   20.3750  -31.7190 C   0  0  0  0  0  0  0  0  0  0  0  0
   -4.9501   19.4175  -31.6490 H   0  0  0  0  0  0  0  0  0  0  0  0
  1  2  1  0
  2  3  1  0
  3  4  1  0
  3  5  1  0
  3  6  1  0
  6  7  1  0
  6  8  1  0
  6  9  1  0
  9 10  1  0
 10 11  2  0
 10 12  1  0
 12 13  2  0
 13 14  1  0
 13 15  1  0
 15 16  1  0
 15 17  2  0
 17 18  1  0
 17 19  1  0
 19 20  1  0
 19 21  2  0
 21 22  1  0
 22 23  1  0
 23 24  2  0
 23 25  1  0
 25 26  1  0
 25 27  1  0
 27 28  2  0
 28 29  1  0
 28 30  1  0
 30 31  1  0
 30 32  2  0
 32 33  1  0
 33 34  2  0
 33 35  2  0
 33 36  1  0
 36 37  2  0
 37 38  1  0
 38 39  1  0
 39 40  1  0
 40 41  1  0
 41 42  1  0
 41 43  1  0
 41 44  1  0
 40 45  2  0
 45 46  1  0
 46 47  1  0
 46 48  1  0
 46 49  1  0
 32 50  1  0
 50 51  1  0
 50 52  2  0
 52 53  1  0
 21 12  1  0
 52 27  1  0
 45 37  1  0
M  CHG  3   9  -1  22  -1  39  -1
M  END
>  <UniqueID>  (31) 
30

>  <SMILES>  (31) 
Cc1[n-]o/c(=N\S(=O)(=O)c2ccc(NC(=O)[N-]c3ccccc3C(=O)[N-]CCO)cc2)c1C

>  <Energy>  (31) 
93.30173639943503

>  <Genealogy>  (31) 
Cc1[n-]oc(=NS(=O)(=O)c2ccc(NC(=O)[N-]c3ccccc3C(=O)[N-]CCO)cc2)c1C (protonated)
Cc1[n-]o/c(=N\S(=O)(=O)c2ccc(NC(=O)[N-]c3ccccc3C(=O)[N-]CCO)cc2)c1C (cis-trans isomerization)
Cc1[n-]o/c(=N\S(=O)(=O)c2ccc(NC(=O)[N-]c3ccccc3C(=O)[N-]CCO)cc2)c1C (3D coordinates assigned)
Cc1[n-]o/c(=N\S(=O)(=O)c2ccc(NC(=O)[N-]c3ccccc3C(=O)[N-]CCO)cc2)c1C (optimized conformer: 93.30173639943503 kcal/mol)

>  <smiles>  (31) 
Cc1[nH]oc(=NS(=O)(=O)c2ccc(NC(=O)Nc3ccccc3C(=O)NCCO)cc2)c1C

>  <score_type>  (31) 
oracle

>  <origin>  (31) 
adgpu

>  <m_score__min__energy>  (31) 
-11.449999999999999

>  <m_primary>  (31) 
energy

$$$$
31:0
     RDKit          3D

 75 79  0  0  1  0  0  0  0  0999 V2000
   -4.9520   24.4110  -28.9850 C   0  0  0  0  0  0  0  0  0  0  0  0
   -4.1190   23.6540  -28.1370 O   0  0  0  0  0  0  0  0  0  0  0  0
   -3.0210   22.9320  -28.5630 C   0  0  0  0  0  0  0  0  0  0  0  0
   -3.0580   22.1790  -29.7210 C   0  0  0  0  0  0  0  0  0  0  0  0
   -1.9540   21.4610  -30.1370 C   0  0  0  0  0  0  0  0  0  0  0  0
   -2.1250   20.7220  -31.3640 N   0  0  0  0  0  0  0  0  0  0  0  0
   -2.8850   21.3590  -32.3980 C   0  0  0  0  0  0  0  0  0  0  0  0
   -2.7300   20.5800  -33.7070 C   0  0  0  0  0  0  0  0  0  0  0  0
   -2.9210   19.2060  -33.4470 N   0  0  0  0  0  0  0  0  0  0  0  0
   -3.0910   18.3440  -34.5560 C   0  0  0  0  0  0  0  0  0  0  0  0
   -4.2560   17.3980  -34.4010 C   0  0  0  0  0  0  0  0  0  0  0  0
   -4.1430   16.0800  -34.4010 C   0  0  0  0  0  0  0  0  0  0  0  0
   -5.2400   15.2700  -34.2210 C   0  0  0  0  0  0  0  0  0  0  0  0
   -6.6390   16.5190  -34.0220 S   0  0  0  0  0  0  0  0  0  0  0  0
   -5.5460   17.9490  -34.2110 C   0  0  0  0  0  0  0  0  0  0  0  0
   -6.0280   19.3050  -34.1910 C   0  0  0  0  0  0  0  0  0  0  0  0
   -1.7390   18.7290  -32.7270 C   0  0  0  0  0  0  0  0  0  0  0  0
   -1.5220   19.4290  -31.4270 C   0  0  0  0  0  0  0  0  0  0  0  0
   -0.7710   21.4520  -29.4350 C   0  0  0  0  0  0  0  0  0  0  0  0
    0.3130   20.7150  -29.8920 O   0  0  0  0  0  0  0  0  0  0  0  0
    0.8310   19.7120  -29.0220 C   0  0  0  0  0  0  0  0  0  0  0  0
   -0.7250   22.2020  -28.2740 C   0  0  0  0  0  0  0  0  0  0  0  0
   -1.8320   22.9260  -27.8520 C   0  0  0  0  0  0  0  0  0  0  0  0
   -1.8020   23.7090  -26.6520 N   0  0  0  0  0  0  0  0  0  0  0  0
   -0.9130   24.6590  -26.5150 C   0  0  0  0  0  0  0  0  0  0  0  0
   -0.0310   24.8870  -27.5160 N   0  0  0  0  0  0  0  0  0  0  0  0
    0.8990   25.8540  -27.4160 C   0  0  0  0  0  0  0  0  0  0  0  0
    0.9500   26.6110  -26.2890 C   0  0  0  0  0  0  0  0  0  0  0  0
    2.1510   27.8610  -26.1610 Cl  0  0  0  0  0  0  0  0  0  0  0  0
    0.0610   26.3900  -25.2660 C   0  0  0  0  0  0  0  0  0  0  0  0
    0.0710   27.0730  -24.1930 N   0  0  0  0  0  0  0  0  0  0  0  0
    0.9710   28.1290  -23.9040 C   0  0  0  0  0  0  0  0  0  0  0  0
    2.1320   27.8090  -23.1850 C   0  0  0  0  0  0  0  0  0  0  0  0
    3.0520   28.7900  -22.8400 C   0  0  0  0  0  0  0  0  0  0  0  0
    2.7840   30.1060  -23.2320 C   0  0  0  0  0  0  0  0  0  0  0  0
    1.6430   30.4300  -23.9400 C   0  0  0  0  0  0  0  0  0  0  0  0
    0.7190   29.4410  -24.2870 C   0  0  0  0  0  0  0  0  0  0  0  0
   -0.7350   29.8340  -25.1850 S   0  0  0  0  0  0  0  0  0  0  0  0
   -0.2530   30.2330  -26.8490 C   0  0  0  0  0  0  0  0  0  0  0  0
   -1.6030   28.6030  -25.2250 O   0  0  0  0  0  0  0  0  0  0  0  0
   -1.5130   30.9160  -24.5240 O   0  0  0  0  0  0  0  0  0  0  0  0
   -0.8510   25.4190  -25.4020 N   0  0  0  0  0  0  0  0  0  0  0  0
   -5.6306   25.0277  -28.3773 H   0  0  0  0  0  0  0  0  0  0  0  0
   -4.3338   25.0628  -29.6198 H   0  0  0  0  0  0  0  0  0  0  0  0
   -5.5419   23.7334  -29.6198 H   0  0  0  0  0  0  0  0  0  0  0  0
   -3.9801   22.1510  -30.3202 H   0  0  0  0  0  0  0  0  0  0  0  0
   -3.9464   21.3825  -32.1100 H   0  0  0  0  0  0  0  0  0  0  0  0
   -2.5178   22.3862  -32.5398 H   0  0  0  0  0  0  0  0  0  0  0  0
   -3.4799   20.9260  -34.4336 H   0  0  0  0  0  0  0  0  0  0  0  0
   -1.7245   20.7445  -34.1216 H   0  0  0  0  0  0  0  0  0  0  0  0
   -3.2563   18.9579  -35.4537 H   0  0  0  0  0  0  0  0  0  0  0  0
   -2.1810   17.7312  -34.6359 H   0  0  0  0  0  0  0  0  0  0  0  0
   -3.1531   15.6232  -34.5477 H   0  0  0  0  0  0  0  0  0  0  0  0
   -5.2890   14.1713  -34.1987 H   0  0  0  0  0  0  0  0  0  0  0  0
   -6.1460   19.6369  -33.1489 H   0  0  0  0  0  0  0  0  0  0  0  0
   -5.3069   19.9581  -34.7044 H   0  0  0  0  0  0  0  0  0  0  0  0
   -6.9995   19.3564  -34.7044 H   0  0  0  0  0  0  0  0  0  0  0  0
   -1.8600   17.6537  -32.5294 H   0  0  0  0  0  0  0  0  0  0  0  0
   -0.8639   18.9361  -33.3605 H   0  0  0  0  0  0  0  0  0  0  0  0
   -1.9457   18.8086  -30.6235 H   0  0  0  0  0  0  0  0  0  0  0  0
   -0.4372   19.5743  -31.3171 H   0  0  0  0  0  0  0  0  0  0  0  0
    0.6738   20.0165  -27.9767 H   0  0  0  0  0  0  0  0  0  0  0  0
    0.3115   18.7606  -29.2089 H   0  0  0  0  0  0  0  0  0  0  0  0
    1.9075   19.5848  -29.2089 H   0  0  0  0  0  0  0  0  0  0  0  0
    0.1993   22.2252  -27.6780 H   0  0  0  0  0  0  0  0  0  0  0  0
   -0.0330   24.3290  -28.3990 H   0  0  0  0  0  0  0  0  0  0  0  0
    1.6097   26.0297  -28.2370 H   0  0  0  0  0  0  0  0  0  0  0  0
    2.3164   26.7654  -22.8901 H   0  0  0  0  0  0  0  0  0  0  0  0
    3.9629   28.5404  -22.2762 H   0  0  0  0  0  0  0  0  0  0  0  0
    3.4981   30.9008  -22.9705 H   0  0  0  0  0  0  0  0  0  0  0  0
    1.4604   31.4745  -24.2328 H   0  0  0  0  0  0  0  0  0  0  0  0
    0.5942   30.9343  -26.8272 H   0  0  0  0  0  0  0  0  0  0  0  0
    0.0452   29.3139  -27.3747 H   0  0  0  0  0  0  0  0  0  0  0  0
   -1.1002   30.6976  -27.3747 H   0  0  0  0  0  0  0  0  0  0  0  0
   -1.5490   25.2060  -24.6600 H   0  0  0  0  0  0  0  0  0  0  0  0
  1  2  1  0
  2  3  1  0
  3  4  2  0
  4  5  1  0
  5  6  1  0
  6  7  1  0
  7  8  1  0
  8  9  1  0
  9 10  1  0
 10 11  1  0
 11 12  1  0
 12 13  2  0
 13 14  1  0
 14 15  1  0
 15 16  1  0
  9 17  1  0
 17 18  1  0
  5 19  2  0
 19 20  1  0
 20 21  1  0
 19 22  1  0
 22 23  2  0
 23 24  1  0
 24 25  2  0
 25 26  1  0
 26 27  1  0
 27 28  2  0
 28 29  1  0
 28 30  1  0
 30 31  2  0
 31 32  1  0
 32 33  2  0
 33 34  1  0
 34 35  2  0
 35 36  1  0
 36 37  2  0
 37 38  1  0
 38 39  1  0
 38 40  2  0
 38 41  2  0
 30 42  1  0
 23  3  1  0
 42 25  1  0
 18  6  1  0
 37 32  1  0
 15 11  2  0
  1 43  1  0
  1 44  1  0
  1 45  1  0
  4 46  1  0
  7 47  1  0
  7 48  1  0
  8 49  1  0
  8 50  1  0
 10 51  1  0
 10 52  1  0
 12 53  1  0
 13 54  1  0
 16 55  1  0
 16 56  1  0
 16 57  1  0
 17 58  1  0
 17 59  1  0
 18 60  1  0
 18 61  1  0
 21 62  1  0
 21 63  1  0
 21 64  1  0
 22 65  1  0
 26 66  1  0
 27 67  1  0
 33 68  1  0
 34 69  1  0
 35 70  1  0
 36 71  1  0
 39 72  1  0
 39 73  1  0
 39 74  1  0
 42 75  1  0
M  END
>  <smiles>  (32) 
COc1cc(N2CCN(Cc3ccsc3C)CC2)c(OC)cc1N=c1[nH]cc(Cl)c(=Nc2ccccc2S(C)(=O)=O)[nH]1

>  <score_type>  (32) 
oracle

>  <origin>  (32) 
adgpu

>  <m_score__min__energy>  (32) 
-10.529999999999999

>  <m_primary>  (32) 
energy

$$$$
32:0
     RDKit          3D

 36 38  0  0  0  0  0  0  0  0999 V2000
   -1.2530   23.1120  -29.3520 O   0  0  0  0  0  0  0  0  0  0  0  0
   -1.6040   24.2370  -28.9030 C   0  0  0  0  0  0  0  0  0  0  0  0
   -2.6710   24.9560  -29.5380 N   0  0  0  0  0  0  0  0  0  0  0  0
   -3.8540   24.3920  -30.1240 C   0  0  0  0  0  0  0  0  0  0  0  0
   -5.0350   25.1380  -30.2900 C   0  0  0  0  0  0  0  0  0  0  0  0
   -6.1720   24.5410  -30.8440 C   0  0  0  0  0  0  0  0  0  0  0  0
   -6.1470   23.1950  -31.2300 C   0  0  0  0  0  0  0  0  0  0  0  0
   -7.5850   22.4410  -31.9100 S   0  0  0  0  0  0  0  0  0  0  0  0
   -8.3670   21.7730  -30.8130 O   0  0  0  0  0  0  0  0  0  0  0  0
   -8.4420   23.4900  -32.5600 O   0  0  0  0  0  0  0  0  0  0  0  0
   -7.0990   21.2650  -33.0860 N   0  0  0  0  0  0  0  0  0  0  0  0
   -6.9180   20.0130  -32.8040 C   0  0  0  0  0  0  0  0  0  0  0  0
   -7.0870   19.4860  -31.5710 N   0  0  0  0  0  0  0  0  0  0  0  0
   -6.8290   18.1500  -31.5660 C   0  0  0  0  0  0  0  0  0  0  0  0
   -6.4560   17.6160  -32.7950 C   0  0  0  0  0  0  0  0  0  0  0  0
   -6.4480   18.8620  -33.9290 S   0  0  0  0  0  0  0  0  0  0  0  0
   -4.9810   22.4420  -31.0350 C   0  0  0  0  0  0  0  0  0  0  0  0
   -3.8440   23.0380  -30.4810 C   0  0  0  0  0  0  0  0  0  0  0  0
   -0.9550   24.7970  -27.6850 C   0  0  0  0  0  0  0  0  0  0  0  0
   -0.5940   23.9340  -26.6320 C   0  0  0  0  0  0  0  0  0  0  0  0
    0.0150   24.4320  -25.4780 C   0  0  0  0  0  0  0  0  0  0  0  0
    0.2730   25.7960  -25.3550 C   0  0  0  0  0  0  0  0  0  0  0  0
   -0.0780   26.6680  -26.3850 C   0  0  0  0  0  0  0  0  0  0  0  0
   -0.6910   26.1820  -27.5500 C   0  0  0  0  0  0  0  0  0  0  0  0
   -1.0340   27.0780  -28.5630 O   0  0  0  0  0  0  0  0  0  0  0  0
   -5.0643   26.1939  -29.9832 H   0  0  0  0  0  0  0  0  0  0  0  0
   -7.0904   25.1316  -30.9772 H   0  0  0  0  0  0  0  0  0  0  0  0
   -6.9095   17.5369  -30.6563 H   0  0  0  0  0  0  0  0  0  0  0  0
   -6.2090   16.5624  -32.9924 H   0  0  0  0  0  0  0  0  0  0  0  0
   -4.9604   21.3794  -31.3186 H   0  0  0  0  0  0  0  0  0  0  0  0
   -2.9349   22.4388  -30.3244 H   0  0  0  0  0  0  0  0  0  0  0  0
   -0.7939   22.8559  -26.7195 H   0  0  0  0  0  0  0  0  0  0  0  0
    0.2917   23.7458  -24.6640 H   0  0  0  0  0  0  0  0  0  0  0  0
    0.7536   26.1848  -24.4452 H   0  0  0  0  0  0  0  0  0  0  0  0
    0.1270   27.7440  -26.2836 H   0  0  0  0  0  0  0  0  0  0  0  0
   -1.6100   26.8000  -29.3490 H   0  0  0  0  0  0  0  0  0  0  0  0
  1  2  2  0
  2  3  1  0
  3  4  1  0
  4  5  2  0
  5  6  1  0
  6  7  2  0
  7  8  1  0
  8  9  2  0
  8 10  2  0
  8 11  1  0
 11 12  2  3
 12 13  1  0
 13 14  1  0
 14 15  2  0
 15 16  1  0
  7 17  1  0
 17 18  2  0
  2 19  1  0
 19 20  2  0
 20 21  1  0
 21 22  2  0
 22 23  1  0
 23 24  2  0
 24 25  1  0
 18  4  1  0
 24 19  1  0
 16 12  1  0
  5 26  1  0
  6 27  1  0
 14 28  1  0
 15 29  1  0
 17 30  1  0
 18 31  1  0
 20 32  1  0
 21 33  1  0
 22 34  1  0
 23 35  1  0
 25 36  1  0
M  CHG  2   3  -1  13  -1
M  END
>  <UniqueID>  (33) 
31

>  <SMILES>  (33) 
O=C([N-]c1ccc(S(=O)(=O)N=c2[n-]ccs2)cc1)c1ccccc1O

>  <Energy>  (33) 
78.13991847967858

>  <Genealogy>  (33) 
O=C([N-]c1ccc(S(=O)(=O)N=c2[n-]ccs2)cc1)c1ccccc1O (protonated)
O=C([N-]c1ccc(S(=O)(=O)N=c2[n-]ccs2)cc1)c1ccccc1O (3D coordinates assigned)
O=C([N-]c1ccc(S(=O)(=O)N=c2[n-]ccs2)cc1)c1ccccc1O (optimized conformer: 78.13991847967858 kcal/mol)

>  <smiles>  (33) 
O=C(Nc1ccc(S(=O)(=O)N=c2[nH]ccs2)cc1)c1ccccc1O

>  <score_type>  (33) 
oracle

>  <origin>  (33) 
adgpu

>  <m_score__min__energy>  (33) 
-10.41

>  <m_primary>  (33) 
energy

$$$$
33:0
     RDKit          3D

 36 37  0  0  0  0  0  0  0  0999 V2000
   -6.4970   18.1860  -33.4650 C   0  0  0  0  0  0  0  0  0  0  0  0
   -6.6760   19.5250  -32.8140 C   0  0  0  0  0  0  0  0  0  0  0  0
   -7.9630   20.0040  -32.5270 C   0  0  0  0  0  0  0  0  0  0  0  0
   -8.1380   21.2770  -31.9650 C   0  0  0  0  0  0  0  0  0  0  0  0
   -9.5140   21.7710  -31.6250 C   0  0  0  0  0  0  0  0  0  0  0  0
   -7.0160   22.0630  -31.6680 C   0  0  0  0  0  0  0  0  0  0  0  0
   -5.7250   21.5960  -31.9580 C   0  0  0  0  0  0  0  0  0  0  0  0
   -4.5760   22.4110  -31.6790 N   0  0  0  0  0  0  0  0  0  0  0  0
   -3.2560   21.9000  -31.9530 C   0  0  0  0  0  0  0  0  0  0  0  0
   -2.3160   21.7870  -30.9130 C   0  0  0  0  0  0  0  0  0  0  0  0
   -1.0290   21.3060  -31.1700 C   0  0  0  0  0  0  0  0  0  0  0  0
   -0.6650   20.9390  -32.4680 C   0  0  0  0  0  0  0  0  0  0  0  0
   -1.5870   21.0550  -33.5110 C   0  0  0  0  0  0  0  0  0  0  0  0
   -2.8750   21.5350  -33.2580 C   0  0  0  0  0  0  0  0  0  0  0  0
   -4.8020   23.9300  -30.8570 S   0  0  0  0  0  0  0  0  0  0  0  0
   -5.3660   23.6270  -29.1970 C   0  0  0  0  0  0  0  0  0  0  0  0
   -3.5060   24.6920  -30.8160 O   0  0  0  0  0  0  0  0  0  0  0  0
   -5.8210   24.7630  -31.5810 O   0  0  0  0  0  0  0  0  0  0  0  0
   -5.5620   20.3350  -32.5480 C   0  0  0  0  0  0  0  0  0  0  0  0
   -6.3936   17.4124  -32.6899 H   0  0  0  0  0  0  0  0  0  0  0  0
   -7.3733   17.9627  -34.0913 H   0  0  0  0  0  0  0  0  0  0  0  0
   -5.5928   18.2007  -34.0913 H   0  0  0  0  0  0  0  0  0  0  0  0
   -8.8404   19.3771  -32.7441 H   0  0  0  0  0  0  0  0  0  0  0  0
   -9.6290   21.8123  -30.5318 H   0  0  0  0  0  0  0  0  0  0  0  0
   -9.6572   22.7767  -32.0470 H   0  0  0  0  0  0  0  0  0  0  0  0
  -10.2642   21.0860  -32.0470 H   0  0  0  0  0  0  0  0  0  0  0  0
   -7.1484   23.0519  -31.2048 H   0  0  0  0  0  0  0  0  0  0  0  0
   -2.5956   22.0792  -29.8901 H   0  0  0  0  0  0  0  0  0  0  0  0
   -0.3020   21.2163  -30.3494 H   0  0  0  0  0  0  0  0  0  0  0  0
    0.3475   20.5587  -32.6686 H   0  0  0  0  0  0  0  0  0  0  0  0
   -1.2988   20.7681  -34.5331 H   0  0  0  0  0  0  0  0  0  0  0  0
   -3.5956   21.6281  -34.0839 H   0  0  0  0  0  0  0  0  0  0  0  0
   -4.6298   24.0225  -28.4817 H   0  0  0  0  0  0  0  0  0  0  0  0
   -6.3335   24.1268  -29.0415 H   0  0  0  0  0  0  0  0  0  0  0  0
   -5.4834   22.5444  -29.0415 H   0  0  0  0  0  0  0  0  0  0  0  0
   -4.5535   19.9781  -32.8042 H   0  0  0  0  0  0  0  0  0  0  0  0
  1  2  1  0
  2  3  2  0
  3  4  1  0
  4  5  1  0
  4  6  2  0
  6  7  1  0
  7  8  1  0
  8  9  1  0
  9 10  2  0
 10 11  1  0
 11 12  2  0
 12 13  1  0
 13 14  2  0
  8 15  1  0
 15 16  1  0
 15 17  2  0
 15 18  2  0
  7 19  2  0
 19  2  1  0
 14  9  1  0
  1 20  1  0
  1 21  1  0
  1 22  1  0
  3 23  1  0
  5 24  1  0
  5 25  1  0
  5 26  1  0
  6 27  1  0
 10 28  1  0
 11 29  1  0
 12 30  1  0
 13 31  1  0
 14 32  1  0
 16 33  1  0
 16 34  1  0
 16 35  1  0
 19 36  1  0
M  END
>  <UniqueID>  (34) 
32

>  <SMILES>  (34) 
Cc1cc(C)cc(N(c2ccccc2)S(C)(=O)=O)c1

>  <Energy>  (34) 
41.34006817629541

>  <Genealogy>  (34) 
Cc1cc(C)cc(N(c2ccccc2)S(C)(=O)=O)c1 (3D coordinates assigned)
Cc1cc(C)cc(N(c2ccccc2)S(C)(=O)=O)c1 (optimized conformer: 41.34006817629541 kcal/mol)

>  <smiles>  (34) 
Cc1cc(C)cc(N(c2ccccc2)S(C)(=O)=O)c1

>  <score_type>  (34) 
oracle

>  <origin>  (34) 
adgpu

>  <m_score__min__energy>  (34) 
-7.8799999999999999

>  <m_primary>  (34) 
energy

$$$$
34:0
     RDKit          3D

 47 49  0  0  0  0  0  0  0  0999 V2000
   -0.7730   22.0220  -26.6990 C   0  0  0  0  0  0  0  0  0  0  0  0
   -1.5050   22.8790  -27.6870 C   0  0  0  0  0  0  0  0  0  0  0  0
   -1.1920   24.2390  -27.8080 C   0  0  0  0  0  0  0  0  0  0  0  0
   -1.8520   25.0320  -28.7490 C   0  0  0  0  0  0  0  0  0  0  0  0
   -2.8190   24.4740  -29.5910 C   0  0  0  0  0  0  0  0  0  0  0  0
   -3.4890   25.3040  -30.4830 O   0  0  0  0  0  0  0  0  0  0  0  0
   -3.1180   23.0980  -29.5100 C   0  0  0  0  0  0  0  0  0  0  0  0
   -4.1220   22.4690  -30.4000 C   0  0  0  0  0  0  0  0  0  0  0  0
   -3.8680   21.3510  -30.9270 O   0  0  0  0  0  0  0  0  0  0  0  0
   -5.3460   23.1480  -30.7230 N   0  0  0  0  0  0  0  0  0  0  0  0
   -6.5220   22.4870  -31.2200 C   0  0  0  0  0  0  0  0  0  0  0  0
   -7.6750   23.2410  -31.4890 C   0  0  0  0  0  0  0  0  0  0  0  0
   -8.8390   22.6160  -31.9440 C   0  0  0  0  0  0  0  0  0  0  0  0
   -8.8680   21.2310  -32.1220 C   0  0  0  0  0  0  0  0  0  0  0  0
   -7.7300   20.4620  -31.8450 C   0  0  0  0  0  0  0  0  0  0  0  0
   -7.7870   18.7110  -32.0310 S   0  0  0  0  0  0  0  0  0  0  0  0
   -7.0130   18.0880  -30.9040 O   0  0  0  0  0  0  0  0  0  0  0  0
   -9.2130   18.2470  -31.9370 O   0  0  0  0  0  0  0  0  0  0  0  0
   -7.0650   18.2500  -33.5600 N   0  0  0  0  0  0  0  0  0  0  0  0
   -6.4740   16.8970  -33.5430 C   0  0  0  0  0  0  0  0  0  0  0  0
   -5.1100   16.8460  -32.8400 C   0  0  0  0  0  0  0  0  0  0  0  0
   -4.1520   17.8730  -33.4410 C   0  0  0  0  0  0  0  0  0  0  0  0
   -4.7710   19.2700  -33.4100 C   0  0  0  0  0  0  0  0  0  0  0  0
   -6.1480   19.2780  -34.0930 C   0  0  0  0  0  0  0  0  0  0  0  0
   -6.5630   21.0900  -31.3840 C   0  0  0  0  0  0  0  0  0  0  0  0
   -2.4590   22.3120  -28.5470 C   0  0  0  0  0  0  0  0  0  0  0  0
   -1.0379   22.3322  -25.6774 H   0  0  0  0  0  0  0  0  0  0  0  0
   -1.0549   20.9691  -26.8472 H   0  0  0  0  0  0  0  0  0  0  0  0
    0.3110   22.1358  -26.8472 H   0  0  0  0  0  0  0  0  0  0  0  0
   -0.4233   24.6841  -27.1592 H   0  0  0  0  0  0  0  0  0  0  0  0
   -1.6098   26.1021  -28.8284 H   0  0  0  0  0  0  0  0  0  0  0  0
   -5.3460   24.1930  -30.6900 H   0  0  0  0  0  0  0  0  0  0  0  0
   -7.6622   24.3309  -31.3407 H   0  0  0  0  0  0  0  0  0  0  0  0
   -9.7346   23.2162  -32.1625 H   0  0  0  0  0  0  0  0  0  0  0  0
   -9.7863   20.7429  -32.4804 H   0  0  0  0  0  0  0  0  0  0  0  0
   -7.1641   16.2198  -33.0184 H   0  0  0  0  0  0  0  0  0  0  0  0
   -6.3163   16.5941  -34.5886 H   0  0  0  0  0  0  0  0  0  0  0  0
   -5.2471   17.0632  -31.7704 H   0  0  0  0  0  0  0  0  0  0  0  0
   -4.6810   15.8421  -32.9746 H   0  0  0  0  0  0  0  0  0  0  0  0
   -3.2177   17.8788  -32.8604 H   0  0  0  0  0  0  0  0  0  0  0  0
   -3.9490   17.5986  -34.4867 H   0  0  0  0  0  0  0  0  0  0  0  0
   -4.8867   19.5890  -32.3636 H   0  0  0  0  0  0  0  0  0  0  0  0
   -4.1071   19.9595  -33.9521 H   0  0  0  0  0  0  0  0  0  0  0  0
   -6.6065   20.2668  -33.9449 H   0  0  0  0  0  0  0  0  0  0  0  0
   -5.9873   19.0539  -35.1579 H   0  0  0  0  0  0  0  0  0  0  0  0
   -5.6741   20.4861  -31.1492 H   0  0  0  0  0  0  0  0  0  0  0  0
   -2.6940   21.2404  -28.4669 H   0  0  0  0  0  0  0  0  0  0  0  0
  1  2  1  0
  2  3  2  0
  3  4  1  0
  4  5  2  0
  5  6  1  0
  5  7  1  0
  7  8  1  0
  8  9  2  0
  8 10  1  0
 10 11  1  0
 11 12  2  0
 12 13  1  0
 13 14  2  0
 14 15  1  0
 15 16  1  0
 16 17  2  0
 16 18  2  0
 16 19  1  0
 19 20  1  0
 20 21  1  0
 21 22  1  0
 22 23  1  0
 23 24  1  0
 15 25  2  0
  7 26  2  0
 26  2  1  0
 25 11  1  0
 24 19  1  0
  1 27  1  0
  1 28  1  0
  1 29  1  0
  3 30  1  0
  4 31  1  0
 10 32  1  0
 12 33  1  0
 13 34  1  0
 14 35  1  0
 20 36  1  0
 20 37  1  0
 21 38  1  0
 21 39  1  0
 22 40  1  0
 22 41  1  0
 23 42  1  0
 23 43  1  0
 24 44  1  0
 24 45  1  0
 25 46  1  0
 26 47  1  0
M  CHG  1   6  -1
M  END
>  <UniqueID>  (35) 
33

>  <SMILES>  (35) 
Cc1ccc([O-])c(C(=O)Nc2cccc(S(=O)(=O)N3CCCCC3)c2)c1

>  <Energy>  (35) 
54.09194741308187

>  <Genealogy>  (35) 
Cc1ccc([O-])c(C(=O)Nc2cccc(S(=O)(=O)N3CCCCC3)c2)c1 (protonated)
Cc1ccc([O-])c(C(=O)Nc2cccc(S(=O)(=O)N3CCCCC3)c2)c1 (3D coordinates assigned)
Cc1ccc([O-])c(C(=O)Nc2cccc(S(=O)(=O)N3CCCCC3)c2)c1 (nonaromatic ring conformer: 54.09194741308187 kcal/mol)

>  <smiles>  (35) 
Cc1ccc(O)c(C(=O)Nc2cccc(S(=O)(=O)N3CCCCC3)c2)c1

>  <score_type>  (35) 
oracle

>  <origin>  (35) 
adgpu

>  <m_score__min__energy>  (35) 
-12.31

>  <m_primary>  (35) 
energy

$$$$
35:0
     RDKit          3D

 45 48  0  0  0  0  0  0  0  0999 V2000
   -5.8730   24.1360  -32.2550 O   0  0  0  0  0  0  0  0  0  0  0  0
   -6.3500   24.0070  -30.8360 S   0  0  0  0  0  0  0  0  0  0  0  0
   -6.9320   25.3150  -30.3800 O   0  0  0  0  0  0  0  0  0  0  0  0
   -7.6020   22.7390  -30.7260 C   0  0  0  0  0  0  0  0  0  0  0  0
   -7.2230   21.5540  -31.5680 C   0  0  0  0  0  0  0  0  0  0  0  0
   -8.1790   20.5720  -31.8800 C   0  0  0  0  0  0  0  0  0  0  0  0
   -7.8330   19.4850  -32.6910 C   0  0  0  0  0  0  0  0  0  0  0  0
   -6.5360   19.3760  -33.2010 C   0  0  0  0  0  0  0  0  0  0  0  0
   -6.1050   18.0130  -34.2190 Cl  0  0  0  0  0  0  0  0  0  0  0  0
   -5.5830   20.3560  -32.9030 C   0  0  0  0  0  0  0  0  0  0  0  0
   -5.9260   21.4430  -32.0940 C   0  0  0  0  0  0  0  0  0  0  0  0
   -4.9980   23.5840  -29.8050 C   0  0  0  0  0  0  0  0  0  0  0  0
   -4.4850   22.3380  -29.7340 N   0  0  0  0  0  0  0  0  0  0  0  0
   -3.4820   22.4440  -28.8380 C   0  0  0  0  0  0  0  0  0  0  0  0
   -2.5900   21.3150  -28.5020 C   0  0  0  0  0  0  0  0  0  0  0  0
   -1.4340   21.0890  -29.2680 C   0  0  0  0  0  0  0  0  0  0  0  0
   -0.5730   20.0340  -28.9540 C   0  0  0  0  0  0  0  0  0  0  0  0
   -0.8490   19.2040  -27.8630 C   0  0  0  0  0  0  0  0  0  0  0  0
    0.2340   17.8810  -27.4700 Cl  0  0  0  0  0  0  0  0  0  0  0  0
   -1.9850   19.4360  -27.0810 C   0  0  0  0  0  0  0  0  0  0  0  0
   -2.8480   20.4890  -27.3930 C   0  0  0  0  0  0  0  0  0  0  0  0
   -3.4180   23.7550  -28.3770 C   0  0  0  0  0  0  0  0  0  0  0  0
   -2.5550   24.3120  -27.3130 C   0  0  0  0  0  0  0  0  0  0  0  0
   -3.0780   25.1840  -26.3430 C   0  0  0  0  0  0  0  0  0  0  0  0
   -2.2500   25.7140  -25.3500 C   0  0  0  0  0  0  0  0  0  0  0  0
   -0.8890   25.3900  -25.3240 C   0  0  0  0  0  0  0  0  0  0  0  0
    0.1490   26.0580  -24.0780 Cl  0  0  0  0  0  0  0  0  0  0  0  0
   -0.3580   24.5390  -26.2980 C   0  0  0  0  0  0  0  0  0  0  0  0
   -1.1840   24.0070  -27.2910 C   0  0  0  0  0  0  0  0  0  0  0  0
   -4.3710   24.4640  -29.0040 N   0  0  0  0  0  0  0  0  0  0  0  0
   -7.7046   22.4210  -29.6780 H   0  0  0  0  0  0  0  0  0  0  0  0
   -8.5557   23.1466  -31.0925 H   0  0  0  0  0  0  0  0  0  0  0  0
   -9.2022   20.6580  -31.4856 H   0  0  0  0  0  0  0  0  0  0  0  0
   -8.5826   18.7155  -32.9274 H   0  0  0  0  0  0  0  0  0  0  0  0
   -4.5629   20.2710  -33.3057 H   0  0  0  0  0  0  0  0  0  0  0  0
   -5.1760   22.2154  -31.8683 H   0  0  0  0  0  0  0  0  0  0  0  0
   -1.2054   21.7463  -30.1198 H   0  0  0  0  0  0  0  0  0  0  0  0
    0.3234   19.8562  -29.5662 H   0  0  0  0  0  0  0  0  0  0  0  0
   -2.1993   18.7879  -26.2184 H   0  0  0  0  0  0  0  0  0  0  0  0
   -3.7343   20.6734  -26.7681 H   0  0  0  0  0  0  0  0  0  0  0  0
   -4.1449   25.4508  -26.3655 H   0  0  0  0  0  0  0  0  0  0  0  0
   -2.6688   26.3871  -24.5874 H   0  0  0  0  0  0  0  0  0  0  0  0
    0.7128   24.2878  -26.2823 H   0  0  0  0  0  0  0  0  0  0  0  0
   -0.7584   23.3455  -28.0600 H   0  0  0  0  0  0  0  0  0  0  0  0
   -4.6070   25.4730  -28.8700 H   0  0  0  0  0  0  0  0  0  0  0  0
  1  2  2  0
  2  3  2  0
  2  4  1  0
  4  5  1  0
  5  6  2  0
  6  7  1  0
  7  8  2  0
  8  9  1  0
  8 10  1  0
 10 11  2  0
  2 12  1  0
 12 13  2  0
 13 14  1  0
 14 15  1  0
 15 16  2  0
 16 17  1  0
 17 18  2  0
 18 19  1  0
 18 20  1  0
 20 21  2  0
 14 22  2  0
 22 23  1  0
 23 24  2  0
 24 25  1  0
 25 26  2  0
 26 27  1  0
 26 28  1  0
 28 29  2  0
 22 30  1  0
 11  5  1  0
 30 12  1  0
 21 15  1  0
 29 23  1  0
  4 31  1  0
  4 32  1  0
  6 33  1  0
  7 34  1  0
 10 35  1  0
 11 36  1  0
 16 37  1  0
 17 38  1  0
 20 39  1  0
 21 40  1  0
 24 41  1  0
 25 42  1  0
 28 43  1  0
 29 44  1  0
 30 45  1  0
M  END
>  <UniqueID>  (36) 
34

>  <SMILES>  (36) 
O=S(=O)(Cc1ccc(Cl)cc1)c1nc(-c2ccc(Cl)cc2)c(-c2ccc(Cl)cc2)[nH]1

>  <Energy>  (36) 
82.73825632386675

>  <Genealogy>  (36) 
O=S(=O)(Cc1ccc(Cl)cc1)c1nc(-c2ccc(Cl)cc2)c(-c2ccc(Cl)cc2)[nH]1 (3D coordinates assigned)
O=S(=O)(Cc1ccc(Cl)cc1)c1nc(-c2ccc(Cl)cc2)c(-c2ccc(Cl)cc2)[nH]1 (optimized conformer: 82.73825632386675 kcal/mol)

>  <smiles>  (36) 
O=S(=O)(Cc1ccc(Cl)cc1)c1nc(-c2ccc(Cl)cc2)c(-c2ccc(Cl)cc2)[nH]1

>  <score_type>  (36) 
oracle

>  <origin>  (36) 
adgpu

>  <m_score__min__energy>  (36) 
-10.550000000000001

>  <m_primary>  (36) 
energy

$$$$
36:0
     RDKit          3D

 56 59  0  0  0  0  0  0  0  0999 V2000
    0.3260   20.9970  -28.2730 O   0  0  0  0  0  0  0  0  0  0  0  0
   -0.3780   21.3980  -29.2380 C   0  0  0  0  0  0  0  0  0  0  0  0
   -0.7490   22.7820  -29.2850 N   0  0  0  0  0  0  0  0  0  0  0  0
   -1.9290   23.3590  -28.7080 C   0  0  0  0  0  0  0  0  0  0  0  0
   -2.0350   23.5890  -27.3250 C   0  0  0  0  0  0  0  0  0  0  0  0
   -3.1950   24.1630  -26.7970 C   0  0  0  0  0  0  0  0  0  0  0  0
   -4.2480   24.5220  -27.6410 C   0  0  0  0  0  0  0  0  0  0  0  0
   -4.1410   24.3210  -29.0230 C   0  0  0  0  0  0  0  0  0  0  0  0
   -5.4870   24.7430  -30.0770 S   0  0  0  0  0  0  0  0  0  0  0  0
   -5.0010   25.6120  -31.2050 O   0  0  0  0  0  0  0  0  0  0  0  0
   -6.5100   25.5100  -29.2850 O   0  0  0  0  0  0  0  0  0  0  0  0
   -6.2050   23.2790  -30.6970 N   0  0  0  0  0  0  0  0  0  0  0  0
   -6.9490   23.5340  -31.9290 C   0  0  0  0  0  0  0  0  0  0  0  0
   -8.0210   22.4590  -32.0170 C   0  0  0  0  0  0  0  0  0  0  0  0
   -8.1860   21.9430  -30.5950 C   0  0  0  0  0  0  0  0  0  0  0  0
   -7.1830   22.7260  -29.7620 C   0  0  0  0  0  0  0  0  0  0  0  0
   -2.9780   23.7420  -29.5520 C   0  0  0  0  0  0  0  0  0  0  0  0
   -0.7580   20.4440  -30.3070 C   0  0  0  0  0  0  0  0  0  0  0  0
   -0.0260   19.2630  -30.5120 C   0  0  0  0  0  0  0  0  0  0  0  0
   -0.3920   18.3730  -31.5240 C   0  0  0  0  0  0  0  0  0  0  0  0
   -1.5010   18.6410  -32.3320 C   0  0  0  0  0  0  0  0  0  0  0  0
   -1.8240   17.7690  -33.3200 F   0  0  0  0  0  0  0  0  0  0  0  0
   -2.2590   19.8030  -32.1210 C   0  0  0  0  0  0  0  0  0  0  0  0
   -3.6590   20.1680  -33.1310 S   0  0  0  0  0  0  0  0  0  0  0  0
   -3.7700   21.6610  -33.2690 O   0  0  0  0  0  0  0  0  0  0  0  0
   -3.4880   19.5550  -34.4940 O   0  0  0  0  0  0  0  0  0  0  0  0
   -5.1100   19.5370  -32.3880 N   0  0  0  0  0  0  0  0  0  0  0  0
   -6.2970   19.9880  -33.1370 C   0  0  0  0  0  0  0  0  0  0  0  0
   -7.5510   19.2040  -32.7030 C   0  0  0  0  0  0  0  0  0  0  0  0
   -7.3240   18.5180  -31.4880 O   0  0  0  0  0  0  0  0  0  0  0  0
   -6.3370   17.5190  -31.6770 C   0  0  0  0  0  0  0  0  0  0  0  0
   -5.0630   18.0680  -32.3530 C   0  0  0  0  0  0  0  0  0  0  0  0
   -1.8790   20.7020  -31.1140 C   0  0  0  0  0  0  0  0  0  0  0  0
   -1.2040   23.3169  -26.6576 H   0  0  0  0  0  0  0  0  0  0  0  0
   -3.2786   24.3324  -25.7134 H   0  0  0  0  0  0  0  0  0  0  0  0
   -5.1632   24.9635  -27.2197 H   0  0  0  0  0  0  0  0  0  0  0  0
   -7.4126   24.5309  -31.8934 H   0  0  0  0  0  0  0  0  0  0  0  0
   -6.2862   23.5073  -32.8065 H   0  0  0  0  0  0  0  0  0  0  0  0
   -8.9659   22.8856  -32.3846 H   0  0  0  0  0  0  0  0  0  0  0  0
   -7.7423   21.6566  -32.7159 H   0  0  0  0  0  0  0  0  0  0  0  0
   -9.2097   22.1250  -30.2360 H   0  0  0  0  0  0  0  0  0  0  0  0
   -8.0129   20.8586  -30.5308 H   0  0  0  0  0  0  0  0  0  0  0  0
   -7.6910   23.5374  -29.2201 H   0  0  0  0  0  0  0  0  0  0  0  0
   -6.6972   22.0803  -29.0156 H   0  0  0  0  0  0  0  0  0  0  0  0
   -2.8897   23.5879  -30.6376 H   0  0  0  0  0  0  0  0  0  0  0  0
    0.8400   19.0379  -29.8722 H   0  0  0  0  0  0  0  0  0  0  0  0
    0.1949   17.4569  -31.6861 H   0  0  0  0  0  0  0  0  0  0  0  0
   -6.4579   21.0593  -32.9461 H   0  0  0  0  0  0  0  0  0  0  0  0
   -6.1248   19.8107  -34.2089 H   0  0  0  0  0  0  0  0  0  0  0  0
   -8.3862   19.9071  -32.5686 H   0  0  0  0  0  0  0  0  0  0  0  0
   -7.7904   18.4660  -33.4828 H   0  0  0  0  0  0  0  0  0  0  0  0
   -6.0644   17.1023  -30.6962 H   0  0  0  0  0  0  0  0  0  0  0  0
   -6.7619   16.7500  -32.3389 H   0  0  0  0  0  0  0  0  0  0  0  0
   -4.1793   17.7446  -31.7834 H   0  0  0  0  0  0  0  0  0  0  0  0
   -5.0032   17.6824  -33.3815 H   0  0  0  0  0  0  0  0  0  0  0  0
   -2.4649   21.6192  -30.9541 H   0  0  0  0  0  0  0  0  0  0  0  0
  1  2  2  0
  2  3  1  0
  3  4  1  0
  4  5  2  0
  5  6  1  0
  6  7  2  0
  7  8  1  0
  8  9  1  0
  9 10  2  0
  9 11  2  0
  9 12  1  0
 12 13  1  0
 13 14  1  0
 14 15  1  0
 15 16  1  0
  8 17  2  0
  2 18  1  0
 18 19  2  0
 19 20  1  0
 20 21  2  0
 21 22  1  0
 21 23  1  0
 23 24  1  0
 24 25  2  0
 24 26  2  0
 24 27  1  0
 27 28  1  0
 28 29  1  0
 29 30  1  0
 30 31  1  0
 31 32  1  0
 23 33  2  0
 17  4  1  0
 33 18  1  0
 16 12  1  0
 32 27  1  0
  5 34  1  0
  6 35  1  0
  7 36  1  0
 13 37  1  0
 13 38  1  0
 14 39  1  0
 14 40  1  0
 15 41  1  0
 15 42  1  0
 16 43  1  0
 16 44  1  0
 17 45  1  0
 19 46  1  0
 20 47  1  0
 28 48  1  0
 28 49  1  0
 29 50  1  0
 29 51  1  0
 31 52  1  0
 31 53  1  0
 32 54  1  0
 32 55  1  0
 33 56  1  0
M  CHG  1   3  -1
M  END
>  <UniqueID>  (37) 
35

>  <SMILES>  (37) 
O=C([N-]c1cccc(S(=O)(=O)N2CCCC2)c1)c1ccc(F)c(S(=O)(=O)N2CCOCC2)c1

>  <Energy>  (37) 
73.16007747742904

>  <Genealogy>  (37) 
O=C([N-]c1cccc(S(=O)(=O)N2CCCC2)c1)c1ccc(F)c(S(=O)(=O)N2CCOCC2)c1 (protonated)
O=C([N-]c1cccc(S(=O)(=O)N2CCCC2)c1)c1ccc(F)c(S(=O)(=O)N2CCOCC2)c1 (3D coordinates assigned)
O=C([N-]c1cccc(S(=O)(=O)N2CCCC2)c1)c1ccc(F)c(S(=O)(=O)N2CCOCC2)c1 (nonaromatic ring conformer: 73.16007747742904 kcal/mol)

>  <smiles>  (37) 
O=C(Nc1cccc(S(=O)(=O)N2CCCC2)c1)c1ccc(F)c(S(=O)(=O)N2CCOCC2)c1

>  <score_type>  (37) 
oracle

>  <origin>  (37) 
adgpu

>  <m_score__min__energy>  (37) 
-11.859999999999999

>  <m_primary>  (37) 
energy

$$$$
37:0
     RDKit          3D

 41 43  0  0  0  0  0  0  0  0999 V2000
   -8.3480   20.8280  -31.7490 C   0  0  0  0  0  0  0  0  0  0  0  0
   -8.2430   22.2480  -31.7620 O   0  0  0  0  0  0  0  0  0  0  0  0
   -7.0860   22.9600  -31.4130 C   0  0  0  0  0  0  0  0  0  0  0  0
   -5.8450   22.4470  -31.8070 C   0  0  0  0  0  0  0  0  0  0  0  0
   -4.6640   23.1210  -31.4880 C   0  0  0  0  0  0  0  0  0  0  0  0
   -4.7110   24.3370  -30.7840 C   0  0  0  0  0  0  0  0  0  0  0  0
   -3.5180   25.0620  -30.4530 N   0  0  0  0  0  0  0  0  0  0  0  0
   -2.7350   24.8870  -29.2660 C   0  0  0  0  0  0  0  0  0  0  0  0
   -3.0380   23.9660  -28.4640 O   0  0  0  0  0  0  0  0  0  0  0  0
   -1.6150   25.7300  -28.9650 N   0  0  0  0  0  0  0  0  0  0  0  0
   -0.8740   25.7370  -27.7350 C   0  0  0  0  0  0  0  0  0  0  0  0
   -1.1860   26.6490  -26.7110 C   0  0  0  0  0  0  0  0  0  0  0  0
   -0.4150   26.6920  -25.5470 C   0  0  0  0  0  0  0  0  0  0  0  0
    0.6670   25.8260  -25.3910 C   0  0  0  0  0  0  0  0  0  0  0  0
    0.9700   24.8990  -26.3910 C   0  0  0  0  0  0  0  0  0  0  0  0
    0.1920   24.8290  -27.5530 C   0  0  0  0  0  0  0  0  0  0  0  0
    0.5380   23.8870  -28.5310 O   0  0  0  0  0  0  0  0  0  0  0  0
   -0.1860   22.7210  -28.8200 C   0  0  0  0  0  0  0  0  0  0  0  0
   -0.6060   22.4980  -30.1370 C   0  0  0  0  0  0  0  0  0  0  0  0
   -1.3240   21.3440  -30.4650 C   0  0  0  0  0  0  0  0  0  0  0  0
   -1.6190   20.3990  -29.4780 C   0  0  0  0  0  0  0  0  0  0  0  0
   -1.1900   20.6040  -28.1640 C   0  0  0  0  0  0  0  0  0  0  0  0
   -0.4710   21.7570  -27.8340 C   0  0  0  0  0  0  0  0  0  0  0  0
   -5.9480   24.8380  -30.3650 C   0  0  0  0  0  0  0  0  0  0  0  0
   -7.1300   24.1630  -30.6820 C   0  0  0  0  0  0  0  0  0  0  0  0
   -8.3743   20.4718  -30.7086 H   0  0  0  0  0  0  0  0  0  0  0  0
   -9.2711   20.5239  -32.2642 H   0  0  0  0  0  0  0  0  0  0  0  0
   -7.4797   20.3914  -32.2642 H   0  0  0  0  0  0  0  0  0  0  0  0
   -5.7993   21.5048  -32.3728 H   0  0  0  0  0  0  0  0  0  0  0  0
   -3.6937   22.6989  -31.7887 H   0  0  0  0  0  0  0  0  0  0  0  0
   -2.0409   27.3314  -26.8272 H   0  0  0  0  0  0  0  0  0  0  0  0
   -0.6618   27.4106  -24.7516 H   0  0  0  0  0  0  0  0  0  0  0  0
    1.2820   25.8730  -24.4802 H   0  0  0  0  0  0  0  0  0  0  0  0
    1.8257   24.2194  -26.2647 H   0  0  0  0  0  0  0  0  0  0  0  0
   -0.3696   23.2353  -30.9184 H   0  0  0  0  0  0  0  0  0  0  0  0
   -1.6570   21.1796  -31.5004 H   0  0  0  0  0  0  0  0  0  0  0  0
   -2.1888   19.4941  -29.7357 H   0  0  0  0  0  0  0  0  0  0  0  0
   -1.4181   19.8578  -27.3887 H   0  0  0  0  0  0  0  0  0  0  0  0
   -0.1269   21.9115  -26.8007 H   0  0  0  0  0  0  0  0  0  0  0  0
   -5.9907   25.7698  -29.7819 H   0  0  0  0  0  0  0  0  0  0  0  0
   -8.0984   24.5729  -30.3593 H   0  0  0  0  0  0  0  0  0  0  0  0
  1  2  1  0
  2  3  1  0
  3  4  2  0
  4  5  1  0
  5  6  2  0
  6  7  1  0
  7  8  1  0
  8  9  2  0
  8 10  1  0
 10 11  1  0
 11 12  2  0
 12 13  1  0
 13 14  2  0
 14 15  1  0
 15 16  2  0
 16 17  1  0
 17 18  1  0
 18 19  2  0
 19 20  1  0
 20 21  2  0
 21 22  1  0
 22 23  2  0
  6 24  1  0
 24 25  2  0
 25  3  1  0
 16 11  1  0
 23 18  1  0
  1 26  1  0
  1 27  1  0
  1 28  1  0
  4 29  1  0
  5 30  1  0
 12 31  1  0
 13 32  1  0
 14 33  1  0
 15 34  1  0
 19 35  1  0
 20 36  1  0
 21 37  1  0
 22 38  1  0
 23 39  1  0
 24 40  1  0
 25 41  1  0
M  CHG  2   7  -1  10  -1
M  END
>  <UniqueID>  (38) 
36

>  <SMILES>  (38) 
COc1ccc([N-]C(=O)[N-]c2ccccc2Oc2ccccc2)cc1

>  <Energy>  (38) 
57.69428513397386

>  <Genealogy>  (38) 
COc1ccc([N-]C(=O)[N-]c2ccccc2Oc2ccccc2)cc1 (protonated)
COc1ccc([N-]C(=O)[N-]c2ccccc2Oc2ccccc2)cc1 (3D coordinates assigned)
COc1ccc([N-]C(=O)[N-]c2ccccc2Oc2ccccc2)cc1 (optimized conformer: 57.69428513397386 kcal/mol)

>  <smiles>  (38) 
COc1ccc(NC(=O)Nc2ccccc2Oc2ccccc2)cc1

>  <score_type>  (38) 
oracle

>  <origin>  (38) 
adgpu

>  <m_score__min__energy>  (38) 
-10.75

>  <m_primary>  (38) 
energy

$$$$
38:0
     RDKit          3D

 53 56  0  0  0  0  0  0  0  0999 V2000
   -5.7540   25.8870  -29.7740 O   0  0  0  0  0  0  0  0  0  0  0  0
   -4.8770   25.2200  -30.3840 C   0  0  0  0  0  0  0  0  0  0  0  0
   -5.2160   24.4710  -31.5570 N   0  0  0  0  0  0  0  0  0  0  0  0
   -5.9410   23.2360  -31.6040 C   0  0  0  0  0  0  0  0  0  0  0  0
   -7.2810   23.2620  -32.0090 C   0  0  0  0  0  0  0  0  0  0  0  0
   -8.0010   22.0730  -32.1530 C   0  0  0  0  0  0  0  0  0  0  0  0
   -7.3840   20.8420  -31.9030 C   0  0  0  0  0  0  0  0  0  0  0  0
   -8.2860   19.3530  -32.1670 S   0  0  0  0  0  0  0  0  0  0  0  0
   -8.7350   18.7780  -30.8500 O   0  0  0  0  0  0  0  0  0  0  0  0
   -9.5000   19.6660  -32.9970 O   0  0  0  0  0  0  0  0  0  0  0  0
   -7.2740   18.2050  -33.0050 N   0  0  0  0  0  0  0  0  0  0  0  0
   -6.3810   18.9150  -33.9360 C   0  0  0  0  0  0  0  0  0  0  0  0
   -5.4290   17.9140  -34.6020 C   0  0  0  0  0  0  0  0  0  0  0  0
   -4.6670   17.2250  -33.6290 O   0  0  0  0  0  0  0  0  0  0  0  0
   -5.5280   16.4950  -32.7750 C   0  0  0  0  0  0  0  0  0  0  0  0
   -6.4810   17.4390  -32.0330 C   0  0  0  0  0  0  0  0  0  0  0  0
   -6.0400   20.8090  -31.5030 C   0  0  0  0  0  0  0  0  0  0  0  0
   -5.3200   21.9990  -31.3580 C   0  0  0  0  0  0  0  0  0  0  0  0
   -3.5180   25.2710  -29.9410 N   0  0  0  0  0  0  0  0  0  0  0  0
   -2.8300   24.1350  -29.4010 C   0  0  0  0  0  0  0  0  0  0  0  0
   -2.5250   24.1220  -28.0410 C   0  0  0  0  0  0  0  0  0  0  0  0
   -1.7760   23.0820  -27.5000 C   0  0  0  0  0  0  0  0  0  0  0  0
   -1.3380   22.0240  -28.3020 C   0  0  0  0  0  0  0  0  0  0  0  0
   -0.3330   20.8150  -27.5100 Cl  0  0  0  0  0  0  0  0  0  0  0  0
   -1.6930   21.9780  -29.6760 C   0  0  0  0  0  0  0  0  0  0  0  0
   -1.2080   20.6230  -30.7350 S   0  0  0  0  0  0  0  0  0  0  0  0
    0.1170   20.8660  -31.4010 O   0  0  0  0  0  0  0  0  0  0  0  0
   -1.0560   19.3920  -29.8850 O   0  0  0  0  0  0  0  0  0  0  0  0
   -2.4180   20.2850  -32.0210 C   0  0  0  0  0  0  0  0  0  0  0  0
   -2.1250   19.0190  -32.8130 C   0  0  0  0  0  0  0  0  0  0  0  0
   -1.9470   20.3780  -33.4660 C   0  0  0  0  0  0  0  0  0  0  0  0
   -2.4540   23.0500  -30.2170 C   0  0  0  0  0  0  0  0  0  0  0  0
   -2.8550   23.0700  -31.5580 O   0  0  0  0  0  0  0  0  0  0  0  0
   -7.7705   24.2252  -32.2153 H   0  0  0  0  0  0  0  0  0  0  0  0
   -9.0557   22.1047  -32.4637 H   0  0  0  0  0  0  0  0  0  0  0  0
   -6.9822   19.4175  -34.7081 H   0  0  0  0  0  0  0  0  0  0  0  0
   -5.7947   19.6620  -33.3808 H   0  0  0  0  0  0  0  0  0  0  0  0
   -6.0171   17.1870  -35.1813 H   0  0  0  0  0  0  0  0  0  0  0  0
   -4.7436   18.4642  -35.2634 H   0  0  0  0  0  0  0  0  0  0  0  0
   -6.1167   15.7860  -33.3757 H   0  0  0  0  0  0  0  0  0  0  0  0
   -4.9187   15.9541  -32.0360 H   0  0  0  0  0  0  0  0  0  0  0  0
   -7.1552   16.8501  -31.3938 H   0  0  0  0  0  0  0  0  0  0  0  0
   -5.8963   18.1331  -31.4114 H   0  0  0  0  0  0  0  0  0  0  0  0
   -5.5509   19.8443  -31.3028 H   0  0  0  0  0  0  0  0  0  0  0  0
   -4.2643   21.9671  -31.0505 H   0  0  0  0  0  0  0  0  0  0  0  0
   -2.8780   24.9375  -27.3927 H   0  0  0  0  0  0  0  0  0  0  0  0
   -1.5255   23.0922  -26.4289 H   0  0  0  0  0  0  0  0  0  0  0  0
   -3.2723   20.7088  -31.4727 H   0  0  0  0  0  0  0  0  0  0  0  0
   -1.2441   18.4080  -32.5666 H   0  0  0  0  0  0  0  0  0  0  0  0
   -2.6896   18.1072  -33.0576 H   0  0  0  0  0  0  0  0  0  0  0  0
   -0.9373   20.7513  -33.6923 H   0  0  0  0  0  0  0  0  0  0  0  0
   -2.3293   20.8579  -34.3790 H   0  0  0  0  0  0  0  0  0  0  0  0
   -3.5000   23.7410  -31.9520 H   0  0  0  0  0  0  0  0  0  0  0  0
  1  2  2  0
  2  3  1  0
  3  4  1  0
  4  5  2  0
  5  6  1  0
  6  7  2  0
  7  8  1  0
  8  9  2  0
  8 10  2  0
  8 11  1  0
 11 12  1  0
 12 13  1  0
 13 14  1  0
 14 15  1  0
 15 16  1  0
  7 17  1  0
 17 18  2  0
  2 19  1  0
 19 20  1  0
 20 21  2  0
 21 22  1  0
 22 23  2  0
 23 24  1  0
 23 25  1  0
 25 26  1  0
 26 27  2  0
 26 28  2  0
 26 29  1  0
 29 30  1  0
 30 31  1  0
 25 32  2  0
 32 33  1  0
 18  4  1  0
 32 20  1  0
 16 11  1  0
 31 29  1  0
  5 34  1  0
  6 35  1  0
 12 36  1  0
 12 37  1  0
 13 38  1  0
 13 39  1  0
 15 40  1  0
 15 41  1  0
 16 42  1  0
 16 43  1  0
 17 44  1  0
 18 45  1  0
 21 46  1  0
 22 47  1  0
 29 48  1  0
 30 49  1  0
 30 50  1  0
 31 51  1  0
 31 52  1  0
 33 53  1  0
M  CHG  2   3  -1  19  -1
M  END
>  <UniqueID>  (39) 
37

>  <SMILES>  (39) 
O=C([N-]c1ccc(S(=O)(=O)N2CCOCC2)cc1)[N-]c1ccc(Cl)c(S(=O)(=O)C2CC2)c1O

>  <Energy>  (39) 
332.5619290911468

>  <Genealogy>  (39) 
O=C([N-]c1ccc(S(=O)(=O)N2CCOCC2)cc1)[N-]c1ccc(Cl)c(S(=O)(=O)C2CC2)c1O (protonated)
O=C([N-]c1ccc(S(=O)(=O)N2CCOCC2)cc1)[N-]c1ccc(Cl)c(S(=O)(=O)C2CC2)c1O (3D coordinates assigned)
O=C([N-]c1ccc(S(=O)(=O)N2CCOCC2)cc1)[N-]c1ccc(Cl)c(S(=O)(=O)C2CC2)c1O (nonaromatic ring conformer: 332.5619290911468 kcal/mol)

>  <smiles>  (39) 
O=C(Nc1ccc(S(=O)(=O)N2CCOCC2)cc1)Nc1ccc(Cl)c(S(=O)(=O)C2CC2)c1O

>  <score_type>  (39) 
oracle

>  <origin>  (39) 
adgpu

>  <m_score__min__energy>  (39) 
-15

>  <m_primary>  (39) 
energy

$$$$
39:0
     RDKit          3D

 50 52  0  0  0  0  0  0  0  0999 V2000
   -6.2130   25.8030  -29.5840 C   0  0  0  0  0  0  0  0  0  0  0  0
   -6.0260   24.5570  -30.4060 C   0  0  0  0  0  0  0  0  0  0  0  0
   -7.1380   23.7700  -30.7430 C   0  0  0  0  0  0  0  0  0  0  0  0
   -6.9820   22.6030  -31.4900 C   0  0  0  0  0  0  0  0  0  0  0  0
   -5.7080   22.1970  -31.9190 C   0  0  0  0  0  0  0  0  0  0  0  0
   -5.5370   20.9500  -32.7090 C   0  0  0  0  0  0  0  0  0  0  0  0
   -6.6570   20.2470  -33.1870 C   0  0  0  0  0  0  0  0  0  0  0  0
   -6.4920   19.0790  -33.9320 C   0  0  0  0  0  0  0  0  0  0  0  0
   -5.2120   18.5970  -34.2120 C   0  0  0  0  0  0  0  0  0  0  0  0
   -4.0770   19.2820  -33.7450 C   0  0  0  0  0  0  0  0  0  0  0  0
   -2.7130   18.7750  -34.0470 C   0  0  0  0  0  0  0  0  0  0  0  0
   -2.5010   17.4070  -34.2900 C   0  0  0  0  0  0  0  0  0  0  0  0
   -1.2200   16.9310  -34.5710 C   0  0  0  0  0  0  0  0  0  0  0  0
   -0.1360   17.8100  -34.6080 C   0  0  0  0  0  0  0  0  0  0  0  0
   -0.3210   19.1800  -34.3640 C   0  0  0  0  0  0  0  0  0  0  0  0
    0.8210   20.0570  -34.4150 N   0  0  0  0  0  0  0  0  0  0  0  0
    1.0520   21.3030  -35.6030 S   0  0  0  0  0  0  0  0  0  0  0  0
    2.7630   21.3880  -36.0890 C   0  0  0  0  0  0  0  0  0  0  0  0
    0.5960   22.6270  -35.0560 O   0  0  0  0  0  0  0  0  0  0  0  0
    0.2290   20.9740  -36.8160 O   0  0  0  0  0  0  0  0  0  0  0  0
   -1.6170   19.6560  -34.0930 C   0  0  0  0  0  0  0  0  0  0  0  0
   -4.2500   20.4560  -32.9910 C   0  0  0  0  0  0  0  0  0  0  0  0
   -4.5930   22.9850  -31.5830 C   0  0  0  0  0  0  0  0  0  0  0  0
   -4.7390   24.1570  -30.8180 C   0  0  0  0  0  0  0  0  0  0  0  0
   -3.6050   24.9580  -30.4480 N   0  0  0  0  0  0  0  0  0  0  0  0
   -2.4230   24.5600  -29.2420 S   0  0  0  0  0  0  0  0  0  0  0  0
   -3.2270   24.0510  -27.7360 C   0  0  0  0  0  0  0  0  0  0  0  0
   -1.5960   25.7800  -28.9560 O   0  0  0  0  0  0  0  0  0  0  0  0
   -1.5190   23.4720  -29.7480 O   0  0  0  0  0  0  0  0  0  0  0  0
   -6.1745   25.5463  -28.5151 H   0  0  0  0  0  0  0  0  0  0  0  0
   -5.4124   26.5202  -29.8179 H   0  0  0  0  0  0  0  0  0  0  0  0
   -7.1888   26.2536  -29.8179 H   0  0  0  0  0  0  0  0  0  0  0  0
   -8.1421   24.0767  -30.4148 H   0  0  0  0  0  0  0  0  0  0  0  0
   -7.8632   21.9960  -31.7451 H   0  0  0  0  0  0  0  0  0  0  0  0
   -7.6693   20.6201  -32.9723 H   0  0  0  0  0  0  0  0  0  0  0  0
   -7.3745   18.5354  -34.3005 H   0  0  0  0  0  0  0  0  0  0  0  0
   -5.0911   17.6761  -34.8013 H   0  0  0  0  0  0  0  0  0  0  0  0
   -3.3497   16.7079  -34.2585 H   0  0  0  0  0  0  0  0  0  0  0  0
   -1.0636   15.8594  -34.7641 H   0  0  0  0  0  0  0  0  0  0  0  0
    0.8707   17.4262  -34.8300 H   0  0  0  0  0  0  0  0  0  0  0  0
    1.5380   19.9940  -33.6590 H   0  0  0  0  0  0  0  0  0  0  0  0
    3.3980   21.4195  -35.1914 H   0  0  0  0  0  0  0  0  0  0  0  0
    3.0185   20.5014  -36.6879 H   0  0  0  0  0  0  0  0  0  0  0  0
    2.9294   22.2955  -36.6879 H   0  0  0  0  0  0  0  0  0  0  0  0
   -1.7752   20.7299  -33.9149 H   0  0  0  0  0  0  0  0  0  0  0  0
   -3.3675   20.9955  -32.6166 H   0  0  0  0  0  0  0  0  0  0  0  0
   -3.5921   22.6809  -31.9231 H   0  0  0  0  0  0  0  0  0  0  0  0
   -2.6517   24.4152  -26.8721 H   0  0  0  0  0  0  0  0  0  0  0  0
   -4.2433   24.4706  -27.7030 H   0  0  0  0  0  0  0  0  0  0  0  0
   -3.2825   22.9529  -27.7030 H   0  0  0  0  0  0  0  0  0  0  0  0
  1  2  1  0
  2  3  2  0
  3  4  1  0
  4  5  2  0
  5  6  1  0
  6  7  2  0
  7  8  1  0
  8  9  2  0
  9 10  1  0
 10 11  1  0
 11 12  2  0
 12 13  1  0
 13 14  2  0
 14 15  1  0
 15 16  1  0
 16 17  1  0
 17 18  1  0
 17 19  2  0
 17 20  2  0
 15 21  2  0
 10 22  2  0
  5 23  1  0
 23 24  2  0
 24 25  1  0
 25 26  1  0
 26 27  1  0
 26 28  2  0
 26 29  2  0
 24  2  1  0
 22  6  1  0
 21 11  1  0
  1 30  1  0
  1 31  1  0
  1 32  1  0
  3 33  1  0
  4 34  1  0
  7 35  1  0
  8 36  1  0
  9 37  1  0
 12 38  1  0
 13 39  1  0
 14 40  1  0
 16 41  1  0
 18 42  1  0
 18 43  1  0
 18 44  1  0
 21 45  1  0
 22 46  1  0
 23 47  1  0
 27 48  1  0
 27 49  1  0
 27 50  1  0
M  CHG  1  25  -1
M  END
>  <UniqueID>  (40) 
38

>  <SMILES>  (40) 
Cc1ccc(-c2cccc(-c3cccc(NS(C)(=O)=O)c3)c2)cc1[N-]S(C)(=O)=O

>  <Energy>  (40) 
59.74736679650998

>  <Genealogy>  (40) 
Cc1ccc(-c2cccc(-c3cccc(NS(C)(=O)=O)c3)c2)cc1[N-]S(C)(=O)=O (protonated)
Cc1ccc(-c2cccc(-c3cccc(NS(C)(=O)=O)c3)c2)cc1[N-]S(C)(=O)=O (3D coordinates assigned)
Cc1ccc(-c2cccc(-c3cccc(NS(C)(=O)=O)c3)c2)cc1[N-]S(C)(=O)=O (optimized conformer: 59.74736679650998 kcal/mol)

>  <smiles>  (40) 
Cc1ccc(-c2cccc(-c3cccc(NS(C)(=O)=O)c3)c2)cc1NS(C)(=O)=O

>  <score_type>  (40) 
oracle

>  <origin>  (40) 
adgpu

>  <m_score__min__energy>  (40) 
-11.99

>  <m_primary>  (40) 
energy

$$$$
40:0
     RDKit          3D

 47 49  0  0  0  0  0  0  0  0999 V2000
   -5.7430   26.1130  -30.1420 C   0  0  0  0  0  0  0  0  0  0  0  0
   -4.9720   25.1790  -30.8900 O   0  0  0  0  0  0  0  0  0  0  0  0
   -5.4010   23.8870  -31.2380 C   0  0  0  0  0  0  0  0  0  0  0  0
   -6.5550   23.6730  -32.0140 C   0  0  0  0  0  0  0  0  0  0  0  0
   -6.9620   22.3780  -32.3390 C   0  0  0  0  0  0  0  0  0  0  0  0
   -6.2240   21.2700  -31.9020 C   0  0  0  0  0  0  0  0  0  0  0  0
   -6.6780   19.9090  -32.2550 C   0  0  0  0  0  0  0  0  0  0  0  0
   -7.8180   19.3990  -31.8450 O   0  0  0  0  0  0  0  0  0  0  0  0
   -7.9880   18.1870  -32.2910 N   0  0  0  0  0  0  0  0  0  0  0  0
   -6.9040   17.8830  -33.0300 C   0  0  0  0  0  0  0  0  0  0  0  0
   -6.7340   16.5930  -33.7640 C   0  0  0  0  0  0  0  0  0  0  0  0
   -6.0460   18.9660  -33.0550 C   0  0  0  0  0  0  0  0  0  0  0  0
   -4.7600   19.0860  -33.8140 C   0  0  0  0  0  0  0  0  0  0  0  0
   -5.0890   21.4790  -31.1030 C   0  0  0  0  0  0  0  0  0  0  0  0
   -4.6600   22.7770  -30.7900 C   0  0  0  0  0  0  0  0  0  0  0  0
   -3.2020   22.9950  -29.8140 S   0  0  0  0  0  0  0  0  0  0  0  0
   -2.0050   22.9330  -30.7200 O   0  0  0  0  0  0  0  0  0  0  0  0
   -3.0900   21.9140  -28.7760 O   0  0  0  0  0  0  0  0  0  0  0  0
   -3.2280   24.5360  -29.0150 N   0  0  0  0  0  0  0  0  0  0  0  0
   -2.3280   24.9080  -27.9560 C   0  0  0  0  0  0  0  0  0  0  0  0
   -0.9620   25.1610  -28.1930 C   0  0  0  0  0  0  0  0  0  0  0  0
   -0.1110   25.4960  -27.1370 C   0  0  0  0  0  0  0  0  0  0  0  0
   -0.6100   25.5840  -25.8330 C   0  0  0  0  0  0  0  0  0  0  0  0
    0.4860   26.0120  -24.4790 S   0  0  0  0  0  0  0  0  0  0  0  0
   -0.8310   26.7960  -23.4990 C   0  0  0  0  0  0  0  0  0  0  0  0
   -1.9660   25.3480  -25.5900 C   0  0  0  0  0  0  0  0  0  0  0  0
   -2.8200   25.0130  -26.6450 C   0  0  0  0  0  0  0  0  0  0  0  0
   -5.5947   25.9333  -29.0670 H   0  0  0  0  0  0  0  0  0  0  0  0
   -5.4224   27.1355  -30.3905 H   0  0  0  0  0  0  0  0  0  0  0  0
   -6.8077   25.9920  -30.3905 H   0  0  0  0  0  0  0  0  0  0  0  0
   -7.1416   24.5337  -32.3676 H   0  0  0  0  0  0  0  0  0  0  0  0
   -7.8689   22.2262  -32.9427 H   0  0  0  0  0  0  0  0  0  0  0  0
   -6.6257   15.7712  -33.0409 H   0  0  0  0  0  0  0  0  0  0  0  0
   -7.6160   16.4116  -34.3958 H   0  0  0  0  0  0  0  0  0  0  0  0
   -5.8351   16.6463  -34.3958 H   0  0  0  0  0  0  0  0  0  0  0  0
   -3.9221   19.1642  -33.1056 H   0  0  0  0  0  0  0  0  0  0  0  0
   -4.6234   18.1967  -34.4468 H   0  0  0  0  0  0  0  0  0  0  0  0
   -4.7903   19.9852  -34.4468 H   0  0  0  0  0  0  0  0  0  0  0  0
   -4.5292   20.6141  -30.7176 H   0  0  0  0  0  0  0  0  0  0  0  0
   -3.9990   25.1910  -29.2780 H   0  0  0  0  0  0  0  0  0  0  0  0
   -0.5633   25.0943  -29.2160 H   0  0  0  0  0  0  0  0  0  0  0  0
    0.9540   25.6911  -27.3313 H   0  0  0  0  0  0  0  0  0  0  0  0
   -0.6164   26.6682  -22.4277 H   0  0  0  0  0  0  0  0  0  0  0  0
   -0.8771   27.8687  -23.7384 H   0  0  0  0  0  0  0  0  0  0  0  0
   -1.7959   26.3252  -23.7384 H   0  0  0  0  0  0  0  0  0  0  0  0
   -2.3620   25.4260  -24.5667 H   0  0  0  0  0  0  0  0  0  0  0  0
   -3.8864   24.8301  -26.4464 H   0  0  0  0  0  0  0  0  0  0  0  0
  1  2  1  0
  2  3  1  0
  3  4  2  0
  4  5  1  0
  5  6  2  0
  6  7  1  0
  7  8  1  0
  8  9  1  0
  9 10  2  0
 10 11  1  0
 10 12  1  0
 12 13  1  0
  6 14  1  0
 14 15  2  0
 15 16  1  0
 16 17  2  0
 16 18  2  0
 16 19  1  0
 19 20  1  0
 20 21  2  0
 21 22  1  0
 22 23  2  0
 23 24  1  0
 24 25  1  0
 23 26  1  0
 26 27  2  0
 15  3  1  0
 27 20  1  0
 12  7  2  0
  1 28  1  0
  1 29  1  0
  1 30  1  0
  4 31  1  0
  5 32  1  0
 11 33  1  0
 11 34  1  0
 11 35  1  0
 13 36  1  0
 13 37  1  0
 13 38  1  0
 14 39  1  0
 19 40  1  0
 21 41  1  0
 22 42  1  0
 25 43  1  0
 25 44  1  0
 25 45  1  0
 26 46  1  0
 27 47  1  0
M  END
>  <UniqueID>  (41) 
39

>  <SMILES>  (41) 
COc1ccc(-c2onc(C)c2C)cc1S(=O)(=O)Nc1ccc(SC)cc1

>  <Energy>  (41) 
76.86897748097455

>  <Genealogy>  (41) 
COc1ccc(-c2onc(C)c2C)cc1S(=O)(=O)Nc1ccc(SC)cc1 (3D coordinates assigned)
COc1ccc(-c2onc(C)c2C)cc1S(=O)(=O)Nc1ccc(SC)cc1 (optimized conformer: 76.86897748097455 kcal/mol)

>  <smiles>  (41) 
COc1ccc(-c2onc(C)c2C)cc1S(=O)(=O)Nc1ccc(SC)cc1

>  <score_type>  (41) 
oracle

>  <origin>  (41) 
adgpu

>  <m_score__min__energy>  (41) 
-9.8200000000000003

>  <m_primary>  (41) 
energy

$$$$
41:0
     RDKit          3D

 49 52  0  0  0  0  0  0  0  0999 V2000
   -0.4610   26.0570  -23.9750 C   0  0  0  0  0  0  0  0  0  0  0  0
    0.5130   24.8100  -24.8710 S   0  0  0  0  0  0  0  0  0  0  0  0
   -0.6810   24.6620  -26.2030 C   0  0  0  0  0  0  0  0  0  0  0  0
   -0.2690   24.2320  -27.4670 C   0  0  0  0  0  0  0  0  0  0  0  0
   -1.1950   24.1290  -28.5090 C   0  0  0  0  0  0  0  0  0  0  0  0
   -2.5450   24.4600  -28.2980 C   0  0  0  0  0  0  0  0  0  0  0  0
   -3.5060   24.3610  -29.4200 C   0  0  0  0  0  0  0  0  0  0  0  0
   -4.3830   23.3270  -29.6890 C   0  0  0  0  0  0  0  0  0  0  0  0
   -5.0410   23.7460  -30.8280 C   0  0  0  0  0  0  0  0  0  0  0  0
   -6.0830   23.0010  -31.5490 C   0  0  0  0  0  0  0  0  0  0  0  0
   -6.7440   23.5770  -32.4540 O   0  0  0  0  0  0  0  0  0  0  0  0
   -6.3390   21.6250  -31.2350 N   0  0  0  0  0  0  0  0  0  0  0  0
   -7.4750   20.9220  -31.7550 C   0  0  0  0  0  0  0  0  0  0  0  0
   -8.7240   21.5570  -31.7560 C   0  0  0  0  0  0  0  0  0  0  0  0
   -9.8600   20.8830  -32.2110 C   0  0  0  0  0  0  0  0  0  0  0  0
   -9.7530   19.5730  -32.6810 C   0  0  0  0  0  0  0  0  0  0  0  0
   -8.5090   18.9380  -32.7100 C   0  0  0  0  0  0  0  0  0  0  0  0
   -7.3590   19.6050  -32.2590 C   0  0  0  0  0  0  0  0  0  0  0  0
   -6.0770   18.9640  -32.3910 N   0  0  0  0  0  0  0  0  0  0  0  0
   -4.9740   19.6240  -33.0940 C   0  0  0  0  0  0  0  0  0  0  0  0
   -4.2670   18.6020  -33.9890 C   0  0  0  0  0  0  0  0  0  0  0  0
   -3.8910   17.4560  -33.2450 O   0  0  0  0  0  0  0  0  0  0  0  0
   -5.0450   16.7830  -32.7750 C   0  0  0  0  0  0  0  0  0  0  0  0
   -5.8200   17.6570  -31.7840 C   0  0  0  0  0  0  0  0  0  0  0  0
   -4.5730   24.9510  -31.2050 N   0  0  0  0  0  0  0  0  0  0  0  0
   -3.6580   25.2870  -30.3410 O   0  0  0  0  0  0  0  0  0  0  0  0
   -2.9500   24.8930  -27.0210 C   0  0  0  0  0  0  0  0  0  0  0  0
   -2.0220   24.9950  -25.9830 C   0  0  0  0  0  0  0  0  0  0  0  0
   -0.3428   25.9057  -22.8919 H   0  0  0  0  0  0  0  0  0  0  0  0
   -0.1069   27.0627  -24.2455 H   0  0  0  0  0  0  0  0  0  0  0  0
   -1.5225   25.9570  -24.2455 H   0  0  0  0  0  0  0  0  0  0  0  0
    0.7859   23.9741  -27.6424 H   0  0  0  0  0  0  0  0  0  0  0  0
   -0.8652   23.7866  -29.5010 H   0  0  0  0  0  0  0  0  0  0  0  0
   -4.5234   22.3913  -29.1280 H   0  0  0  0  0  0  0  0  0  0  0  0
   -5.6050   21.0760  -30.7320 H   0  0  0  0  0  0  0  0  0  0  0  0
   -8.8107   22.5929  -31.3962 H   0  0  0  0  0  0  0  0  0  0  0  0
  -10.8389   21.3847  -32.1989 H   0  0  0  0  0  0  0  0  0  0  0  0
  -10.6499   19.0397  -33.0292 H   0  0  0  0  0  0  0  0  0  0  0  0
   -8.4300   17.9083  -33.0888 H   0  0  0  0  0  0  0  0  0  0  0  0
   -5.3692   20.4437  -33.7120 H   0  0  0  0  0  0  0  0  0  0  0  0
   -4.2606   20.0327  -32.3632 H   0  0  0  0  0  0  0  0  0  0  0  0
   -4.9479   18.2992  -34.7981 H   0  0  0  0  0  0  0  0  0  0  0  0
   -3.3602   19.0654  -34.4048 H   0  0  0  0  0  0  0  0  0  0  0  0
   -5.6953   16.5431  -33.6292 H   0  0  0  0  0  0  0  0  0  0  0  0
   -4.7310   15.8622  -32.2616 H   0  0  0  0  0  0  0  0  0  0  0  0
   -6.7759   17.1725  -31.5361 H   0  0  0  0  0  0  0  0  0  0  0  0
   -5.2285   17.7867  -30.8657 H   0  0  0  0  0  0  0  0  0  0  0  0
   -4.0036   25.1524  -26.8401 H   0  0  0  0  0  0  0  0  0  0  0  0
   -2.3460   25.3381  -24.9894 H   0  0  0  0  0  0  0  0  0  0  0  0
  1  2  1  0
  2  3  1  0
  3  4  2  0
  4  5  1  0
  5  6  2  0
  6  7  1  0
  7  8  2  0
  8  9  1  0
  9 10  1  0
 10 11  2  0
 10 12  1  0
 12 13  1  0
 13 14  2  0
 14 15  1  0
 15 16  2  0
 16 17  1  0
 17 18  2  0
 18 19  1  0
 19 20  1  0
 20 21  1  0
 21 22  1  0
 22 23  1  0
 23 24  1  0
  9 25  2  0
 25 26  1  0
  6 27  1  0
 27 28  2  0
 28  3  1  0
 26  7  1  0
 18 13  1  0
 24 19  1  0
  1 29  1  0
  1 30  1  0
  1 31  1  0
  4 32  1  0
  5 33  1  0
  8 34  1  0
 12 35  1  0
 14 36  1  0
 15 37  1  0
 16 38  1  0
 17 39  1  0
 20 40  1  0
 20 41  1  0
 21 42  1  0
 21 43  1  0
 23 44  1  0
 23 45  1  0
 24 46  1  0
 24 47  1  0
 27 48  1  0
 28 49  1  0
M  END
>  <UniqueID>  (42) 
40

>  <SMILES>  (42) 
CSc1ccc(-c2cc(C(=O)Nc3ccccc3N3CCOCC3)no2)cc1

>  <Energy>  (42) 
89.58021633467108

>  <Genealogy>  (42) 
CSc1ccc(-c2cc(C(=O)Nc3ccccc3N3CCOCC3)no2)cc1 (3D coordinates assigned)
CSc1ccc(-c2cc(C(=O)Nc3ccccc3N3CCOCC3)no2)cc1 (nonaromatic ring conformer: 89.58021633467108 kcal/mol)

>  <smiles>  (42) 
CSc1ccc(-c2cc(C(=O)Nc3ccccc3N3CCOCC3)no2)cc1

>  <score_type>  (42) 
oracle

>  <origin>  (42) 
adgpu

>  <m_score__min__energy>  (42) 
-10.02

>  <m_primary>  (42) 
energy

$$$$
42:0
     RDKit          3D

 31 32  0  0  0  0  0  0  0  0999 V2000
   -4.2730   16.6390  -34.1970 N   0  0  0  0  0  0  0  0  0  0  0  0
   -5.6150   17.0240  -33.1770 S   0  0  0  0  0  0  0  0  0  0  0  0
   -5.4650   16.3140  -31.8610 O   0  0  0  0  0  0  0  0  0  0  0  0
   -6.8810   16.5640  -33.8450 O   0  0  0  0  0  0  0  0  0  0  0  0
   -5.6640   18.7630  -32.9020 C   0  0  0  0  0  0  0  0  0  0  0  0
   -4.4940   19.5170  -33.0320 C   0  0  0  0  0  0  0  0  0  0  0  0
   -4.5180   20.8960  -32.8210 C   0  0  0  0  0  0  0  0  0  0  0  0
   -5.7170   21.5490  -32.4780 C   0  0  0  0  0  0  0  0  0  0  0  0
   -5.7460   22.9740  -32.2630 N   0  0  0  0  0  0  0  0  0  0  0  0
   -5.8660   23.5940  -30.9430 C   0  0  0  0  0  0  0  0  0  0  0  0
   -4.5820   23.4350  -30.1670 C   0  0  0  0  0  0  0  0  0  0  0  0
   -4.3130   22.2340  -29.4890 C   0  0  0  0  0  0  0  0  0  0  0  0
   -3.1110   22.0700  -28.7910 C   0  0  0  0  0  0  0  0  0  0  0  0
   -2.7520   20.4300  -27.8820 Br  0  0  0  0  0  0  0  0  0  0  0  0
   -2.1730   23.1060  -28.7630 C   0  0  0  0  0  0  0  0  0  0  0  0
   -2.4320   24.3050  -29.4310 C   0  0  0  0  0  0  0  0  0  0  0  0
   -3.6310   24.4730  -30.1330 C   0  0  0  0  0  0  0  0  0  0  0  0
   -3.8680   25.6730  -30.7950 O   0  0  0  0  0  0  0  0  0  0  0  0
   -6.8940   20.7810  -32.3370 C   0  0  0  0  0  0  0  0  0  0  0  0
   -8.5820   21.5830  -31.9070 Br  0  0  0  0  0  0  0  0  0  0  0  0
   -6.8610   19.3980  -32.5490 C   0  0  0  0  0  0  0  0  0  0  0  0
   -3.9940   15.6580  -33.9730 H   0  0  0  0  0  0  0  0  0  0  0  0
   -3.5501   19.0208  -33.3019 H   0  0  0  0  0  0  0  0  0  0  0  0
   -3.5907   21.4788  -32.9237 H   0  0  0  0  0  0  0  0  0  0  0  0
   -5.5940   23.6160  -33.0730 H   0  0  0  0  0  0  0  0  0  0  0  0
   -6.0855   24.6650  -31.0645 H   0  0  0  0  0  0  0  0  0  0  0  0
   -6.6795   23.1010  -30.3905 H   0  0  0  0  0  0  0  0  0  0  0  0
   -5.0510   21.4185  -29.5069 H   0  0  0  0  0  0  0  0  0  0  0  0
   -1.2288   22.9767  -28.2137 H   0  0  0  0  0  0  0  0  0  0  0  0
   -1.6922   25.1187  -29.4053 H   0  0  0  0  0  0  0  0  0  0  0  0
   -7.7814   18.8060  -32.4376 H   0  0  0  0  0  0  0  0  0  0  0  0
  1  2  1  0
  2  3  2  0
  2  4  2  0
  2  5  1  0
  5  6  2  0
  6  7  1  0
  7  8  2  0
  8  9  1  0
  9 10  1  0
 10 11  1  0
 11 12  2  0
 12 13  1  0
 13 14  1  0
 13 15  2  0
 15 16  1  0
 16 17  2  0
 17 18  1  0
  8 19  1  0
 19 20  1  0
 19 21  2  0
 21  5  1  0
 17 11  1  0
  1 22  1  0
  6 23  1  0
  7 24  1  0
  9 25  1  0
 10 26  1  0
 10 27  1  0
 12 28  1  0
 15 29  1  0
 16 30  1  0
 21 31  1  0
M  CHG  2   1  -1  18  -1
M  END
>  <UniqueID>  (43) 
41

>  <SMILES>  (43) 
[NH-]S(=O)(=O)c1ccc(NCc2cc(Br)ccc2[O-])c(Br)c1

>  <Energy>  (43) 
32.545267829468244

>  <Genealogy>  (43) 
[NH-]S(=O)(=O)c1ccc(NCc2cc(Br)ccc2[O-])c(Br)c1 (protonated)
[NH-]S(=O)(=O)c1ccc(NCc2cc(Br)ccc2[O-])c(Br)c1 (3D coordinates assigned)
[NH-]S(=O)(=O)c1ccc(NCc2cc(Br)ccc2[O-])c(Br)c1 (optimized conformer: 32.545267829468244 kcal/mol)

>  <smiles>  (43) 
NS(=O)(=O)c1ccc(NCc2cc(Br)ccc2O)c(Br)c1

>  <score_type>  (43) 
oracle

>  <origin>  (43) 
adgpu

>  <m_score__min__energy>  (43) 
-11.02

>  <m_primary>  (43) 
energy

$$$$
43:0
     RDKit          3D

 67 70  0  0  0  0  0  0  0  0999 V2000
   -2.4210   19.6370  -26.3400 C   0  0  0  0  0  0  0  0  0  0  0  0
   -1.6240   20.6630  -27.0910 C   0  0  0  0  0  0  0  0  0  0  0  0
   -0.3690   20.3320  -27.6230 C   0  0  0  0  0  0  0  0  0  0  0  0
    0.3880   21.2970  -28.2850 C   0  0  0  0  0  0  0  0  0  0  0  0
   -0.0890   22.6040  -28.4060 C   0  0  0  0  0  0  0  0  0  0  0  0
   -1.3430   22.9620  -27.8750 C   0  0  0  0  0  0  0  0  0  0  0  0
   -1.8000   24.4080  -27.9790 C   0  0  1  0  0  0  0  0  0  0  0  0
   -3.3460   24.5430  -28.1170 C   0  0  0  0  0  0  0  0  0  0  0  0
   -3.9120   23.4300  -28.8760 N   0  0  0  0  0  0  0  0  0  0  0  0
   -4.5160   23.6180  -30.1690 C   0  0  0  0  0  0  0  0  0  0  0  0
   -4.3210   24.6980  -30.7910 O   0  0  0  0  0  0  0  0  0  0  0  0
   -5.4100   22.5930  -30.7630 C   0  0  0  0  0  0  0  0  0  0  0  0
   -6.7970   22.6700  -30.5400 C   0  0  0  0  0  0  0  0  0  0  0  0
   -7.6570   21.6940  -31.0500 C   0  0  0  0  0  0  0  0  0  0  0  0
   -7.1460   20.6210  -31.7920 C   0  0  0  0  0  0  0  0  0  0  0  0
   -8.2320   19.3730  -32.4150 S   0  0  0  0  0  0  0  0  0  0  0  0
   -9.1160   19.9740  -33.4700 O   0  0  0  0  0  0  0  0  0  0  0  0
   -9.1090   18.8880  -31.2950 O   0  0  0  0  0  0  0  0  0  0  0  0
   -7.3760   18.0100  -33.0960 N   0  0  0  0  0  0  0  0  0  0  0  0
   -6.5640   17.3180  -32.0970 C   0  0  0  0  0  0  0  0  0  0  0  0
   -5.4530   16.6180  -32.8630 C   0  0  0  0  0  0  0  0  0  0  0  0
   -5.3480   17.3610  -34.1860 C   0  0  0  0  0  0  0  0  0  0  0  0
   -6.4460   18.4130  -34.1500 C   0  0  0  0  0  0  0  0  0  0  0  0
   -5.7710   20.5560  -32.0500 C   0  0  0  0  0  0  0  0  0  0  0  0
   -4.9090   21.5310  -31.5400 C   0  0  0  0  0  0  0  0  0  0  0  0
   -1.1950   25.1920  -26.8670 N   0  0  0  0  0  0  0  0  0  0  0  0
   -2.0720   25.4450  -25.7090 C   0  0  0  0  0  0  0  0  0  0  0  0
   -1.2390   25.9400  -24.5090 C   0  0  0  0  0  0  0  0  0  0  0  0
    0.0830   26.4570  -24.9270 N   0  0  0  0  0  0  0  0  0  0  0  0
    0.6970   27.2300  -23.8360 C   0  0  0  0  0  0  0  0  0  0  0  0
   -0.0460   27.2890  -26.1360 C   0  0  0  0  0  0  0  0  0  0  0  0
   -0.5110   26.4230  -27.3220 C   0  0  0  0  0  0  0  0  0  0  0  0
   -2.0960   21.9800  -27.1990 C   0  0  0  0  0  0  0  0  0  0  0  0
   -2.2973   19.7962  -25.2586 H   0  0  0  0  0  0  0  0  0  0  0  0
   -3.4842   19.7323  -26.6054 H   0  0  0  0  0  0  0  0  0  0  0  0
   -2.0657   18.6304  -26.6054 H   0  0  0  0  0  0  0  0  0  0  0  0
    0.0188   19.3080  -27.5174 H   0  0  0  0  0  0  0  0  0  0  0  0
    1.3647   21.0282  -28.7137 H   0  0  0  0  0  0  0  0  0  0  0  0
    0.5207   23.3610  -28.9210 H   0  0  0  0  0  0  0  0  0  0  0  0
   -1.4310   24.8452  -28.9185 H   0  0  0  0  0  0  0  0  0  0  0  0
   -3.7952   24.5568  -27.1130 H   0  0  0  0  0  0  0  0  0  0  0  0
   -3.5656   25.4768  -28.6554 H   0  0  0  0  0  0  0  0  0  0  0  0
   -3.9340   22.4990  -28.4100 H   0  0  0  0  0  0  0  0  0  0  0  0
   -7.2088   23.5076  -29.9579 H   0  0  0  0  0  0  0  0  0  0  0  0
   -8.7393   21.7683  -30.8683 H   0  0  0  0  0  0  0  0  0  0  0  0
   -6.1391   18.0403  -31.3844 H   0  0  0  0  0  0  0  0  0  0  0  0
   -7.1654   16.6008  -31.5191 H   0  0  0  0  0  0  0  0  0  0  0  0
   -4.5045   16.6808  -32.3095 H   0  0  0  0  0  0  0  0  0  0  0  0
   -5.6661   15.5487  -33.0089 H   0  0  0  0  0  0  0  0  0  0  0  0
   -4.3615   17.8382  -34.2816 H   0  0  0  0  0  0  0  0  0  0  0  0
   -5.4608   16.6829  -35.0447 H   0  0  0  0  0  0  0  0  0  0  0  0
   -6.0183   19.4004  -33.9217 H   0  0  0  0  0  0  0  0  0  0  0  0
   -6.9559   18.4878  -35.1218 H   0  0  0  0  0  0  0  0  0  0  0  0
   -5.3670   19.7328  -32.6576 H   0  0  0  0  0  0  0  0  0  0  0  0
   -3.8305   21.4681  -31.7473 H   0  0  0  0  0  0  0  0  0  0  0  0
   -2.8151   26.2108  -25.9762 H   0  0  0  0  0  0  0  0  0  0  0  0
   -2.5802   24.5096  -25.4321 H   0  0  0  0  0  0  0  0  0  0  0  0
   -1.7908   26.7450  -24.0016 H   0  0  0  0  0  0  0  0  0  0  0  0
   -1.0724   25.0861  -23.8359 H   0  0  0  0  0  0  0  0  0  0  0  0
    0.3717   26.8205  -22.8683 H   0  0  0  0  0  0  0  0  0  0  0  0
    1.7924   27.1651  -23.9120 H   0  0  0  0  0  0  0  0  0  0  0  0
    0.3859   28.2823  -23.9120 H   0  0  0  0  0  0  0  0  0  0  0  0
   -0.7836   28.0845  -25.9541 H   0  0  0  0  0  0  0  0  0  0  0  0
    0.9310   27.7347  -26.3745 H   0  0  0  0  0  0  0  0  0  0  0  0
   -1.2066   27.0094  -27.9402 H   0  0  0  0  0  0  0  0  0  0  0  0
    0.3774   26.1277  -27.8996 H   0  0  0  0  0  0  0  0  0  0  0  0
   -3.0640   22.2493  -26.7514 H   0  0  0  0  0  0  0  0  0  0  0  0
  1  2  1  0
  2  3  2  0
  3  4  1  0
  4  5  2  0
  5  6  1  0
  6  7  1  0
  7  8  1  0
  8  9  1  0
  9 10  1  0
 10 11  2  0
 10 12  1  0
 12 13  2  0
 13 14  1  0
 14 15  2  0
 15 16  1  0
 16 17  2  0
 16 18  2  0
 16 19  1  0
 19 20  1  0
 20 21  1  0
 21 22  1  0
 22 23  1  0
 15 24  1  0
 24 25  2  0
  7 26  1  0
 26 27  1  0
 27 28  1  0
 28 29  1  0
 29 30  1  0
 29 31  1  0
 31 32  1  0
  6 33  2  0
 33  2  1  0
 25 12  1  0
 32 26  1  0
 23 19  1  0
  1 34  1  0
  1 35  1  0
  1 36  1  0
  3 37  1  0
  4 38  1  0
  5 39  1  0
  7 40  1  6
  8 41  1  0
  8 42  1  0
  9 43  1  0
 13 44  1  0
 14 45  1  0
 20 46  1  0
 20 47  1  0
 21 48  1  0
 21 49  1  0
 22 50  1  0
 22 51  1  0
 23 52  1  0
 23 53  1  0
 24 54  1  0
 25 55  1  0
 27 56  1  0
 27 57  1  0
 28 58  1  0
 28 59  1  0
 30 60  1  0
 30 61  1  0
 30 62  1  0
 31 63  1  0
 31 64  1  0
 32 65  1  0
 32 66  1  0
 33 67  1  0
M  END
>  <UniqueID>  (44) 
42

>  <SMILES>  (44) 
Cc1cccc([C@@H](CNC(=O)c2ccc(S(=O)(=O)N3CCCC3)cc2)N2CCN(C)CC2)c1

>  <Energy>  (44) 
83.51168618371614

>  <Genealogy>  (44) 
Cc1cccc([C@@H](CNC(=O)c2ccc(S(=O)(=O)N3CCCC3)cc2)N2CCN(C)CC2)c1 (chirality)
Cc1cccc([C@@H](CNC(=O)c2ccc(S(=O)(=O)N3CCCC3)cc2)N2CCN(C)CC2)c1 (3D coordinates assigned)
Cc1cccc([C@@H](CNC(=O)c2ccc(S(=O)(=O)N3CCCC3)cc2)N2CCN(C)CC2)c1 (nonaromatic ring conformer: 83.51168618371614 kcal/mol)

>  <smiles>  (44) 
Cc1cccc(C(CNC(=O)c2ccc(S(=O)(=O)N3CCCC3)cc2)N2CCN(C)CC2)c1

>  <score_type>  (44) 
oracle

>  <origin>  (44) 
adgpu

>  <m_score__min__energy>  (44) 
-10.75

>  <m_primary>  (44) 
energy

$$$$
44:0
     RDKit          3D

 71 76  0  0  0  0  0  0  0  0999 V2000
   -6.3970   17.7020  -33.5000 C   0  0  0  0  0  0  0  0  0  0  0  0
   -7.1660   18.8120  -32.8460 C   0  0  0  0  0  0  0  0  0  0  0  0
   -8.3670   18.5390  -32.1740 C   0  0  0  0  0  0  0  0  0  0  0  0
   -9.1090   19.5780  -31.6100 C   0  0  0  0  0  0  0  0  0  0  0  0
   -8.6720   20.8980  -31.7310 C   0  0  0  0  0  0  0  0  0  0  0  0
   -7.4880   21.1920  -32.4320 C   0  0  0  0  0  0  0  0  0  0  0  0
   -7.0410   22.5480  -32.6060 N   0  0  0  0  0  0  0  0  0  0  0  0
   -6.3840   23.3030  -31.5720 C   0  0  0  0  0  0  0  0  0  0  0  0
   -7.1570   24.1410  -30.7560 C   0  0  0  0  0  0  0  0  0  0  0  0
   -6.5490   24.9520  -29.7970 C   0  0  0  0  0  0  0  0  0  0  0  0
   -5.1620   24.9320  -29.6410 C   0  0  0  0  0  0  0  0  0  0  0  0
   -4.3800   24.0800  -30.4270 C   0  0  0  0  0  0  0  0  0  0  0  0
   -4.9800   23.2380  -31.3800 C   0  0  0  0  0  0  0  0  0  0  0  0
   -4.1360   22.2840  -32.1320 C   0  0  0  0  0  0  0  0  0  0  0  0
   -4.4610   21.9380  -33.2990 O   0  0  0  0  0  0  0  0  0  0  0  0
   -2.9820   21.7110  -31.5100 N   0  0  0  0  0  0  0  0  0  0  0  0
   -1.7870   21.2980  -32.1870 C   0  0  0  0  0  0  0  0  0  0  0  0
   -0.6280   21.0780  -31.4370 C   0  0  0  0  0  0  0  0  0  0  0  0
    0.5650   20.7140  -32.0660 C   0  0  0  0  0  0  0  0  0  0  0  0
    0.6190   20.5840  -33.4610 C   0  0  0  0  0  0  0  0  0  0  0  0
    1.8460   20.2190  -34.1130 N   0  0  0  0  0  0  0  0  0  0  0  0
    2.5430   19.1420  -33.7830 N   0  0  0  0  0  0  0  0  0  0  0  0
    3.5620   19.0360  -34.6600 C   0  0  0  0  0  0  0  0  0  0  0  0
    4.5440   17.9140  -34.6650 C   0  0  0  0  0  0  0  0  0  0  0  0
    3.4960   20.0570  -35.5920 C   0  0  0  0  0  0  0  0  0  0  0  0
    2.4010   20.7990  -35.2010 C   0  0  0  0  0  0  0  0  0  0  0  0
    1.9740   22.0690  -35.8110 C   0  0  0  0  0  0  0  0  0  0  0  0
    1.2150   22.0490  -36.8170 O   0  0  0  0  0  0  0  0  0  0  0  0
    2.4750   23.3160  -35.3000 N   0  0  0  0  0  0  0  0  0  0  0  0
    1.9560   24.5980  -35.6860 C   0  0  0  0  0  0  0  0  0  0  0  0
    0.6210   24.7510  -36.0920 C   0  0  0  0  0  0  0  0  0  0  0  0
    0.1300   26.0140  -36.4360 C   0  0  0  0  0  0  0  0  0  0  0  0
    0.9630   27.1490  -36.3820 C   0  0  0  0  0  0  0  0  0  0  0  0
    0.4380   28.4860  -36.7610 C   0  0  0  0  0  0  0  0  0  0  0  0
   -0.0250   28.8780  -38.0190 C   0  0  0  0  0  0  0  0  0  0  0  0
   -0.4830   30.2000  -38.0620 C   0  0  0  0  0  0  0  0  0  0  0  0
   -0.3870   30.8670  -36.8490 C   0  0  0  0  0  0  0  0  0  0  0  0
    0.2650   29.8060  -35.7240 S   0  0  0  0  0  0  0  0  0  0  0  0
    2.2950   26.9900  -35.9510 C   0  0  0  0  0  0  0  0  0  0  0  0
    2.7800   25.7290  -35.5980 C   0  0  0  0  0  0  0  0  0  0  0  0
   -0.5340   20.8300  -34.2200 C   0  0  0  0  0  0  0  0  0  0  0  0
   -1.7310   21.1800  -33.5880 C   0  0  0  0  0  0  0  0  0  0  0  0
   -6.7340   20.1410  -32.9770 C   0  0  0  0  0  0  0  0  0  0  0  0
   -5.9516   17.0591  -32.7264 H   0  0  0  0  0  0  0  0  0  0  0  0
   -7.0761   17.1051  -34.1265 H   0  0  0  0  0  0  0  0  0  0  0  0
   -5.5995   18.1280  -34.1265 H   0  0  0  0  0  0  0  0  0  0  0  0
   -8.7252   17.5022  -32.0913 H   0  0  0  0  0  0  0  0  0  0  0  0
  -10.0405   19.3559  -31.0688 H   0  0  0  0  0  0  0  0  0  0  0  0
   -9.2557   21.7120  -31.2764 H   0  0  0  0  0  0  0  0  0  0  0  0
   -7.1250   22.9850  -33.5530 H   0  0  0  0  0  0  0  0  0  0  0  0
   -8.2506   24.1593  -30.8726 H   0  0  0  0  0  0  0  0  0  0  0  0
   -7.1636   25.6080  -29.1630 H   0  0  0  0  0  0  0  0  0  0  0  0
   -4.6834   25.5875  -28.8986 H   0  0  0  0  0  0  0  0  0  0  0  0
   -3.2875   24.0684  -30.2989 H   0  0  0  0  0  0  0  0  0  0  0  0
   -0.6556   21.1924  -30.3433 H   0  0  0  0  0  0  0  0  0  0  0  0
    1.4666   20.5284  -31.4638 H   0  0  0  0  0  0  0  0  0  0  0  0
    4.7878   17.6355  -33.6291 H   0  0  0  0  0  0  0  0  0  0  0  0
    4.1085   17.0479  -35.1848 H   0  0  0  0  0  0  0  0  0  0  0  0
    5.4602   18.2309  -35.1848 H   0  0  0  0  0  0  0  0  0  0  0  0
    4.1634   20.2357  -36.4479 H   0  0  0  0  0  0  0  0  0  0  0  0
    3.3630   23.2910  -34.7490 H   0  0  0  0  0  0  0  0  0  0  0  0
   -0.0412   23.8740  -36.1397 H   0  0  0  0  0  0  0  0  0  0  0  0
   -0.9179   26.1228  -36.7522 H   0  0  0  0  0  0  0  0  0  0  0  0
   -0.0293   28.2108  -38.8935 H   0  0  0  0  0  0  0  0  0  0  0  0
   -0.8825   30.6675  -38.9741 H   0  0  0  0  0  0  0  0  0  0  0  0
   -0.6858   31.9083  -36.6583 H   0  0  0  0  0  0  0  0  0  0  0  0
    2.9579   27.8659  -35.8921 H   0  0  0  0  0  0  0  0  0  0  0  0
    3.8173   25.6221  -35.2479 H   0  0  0  0  0  0  0  0  0  0  0  0
   -0.4967   20.7474  -35.3163 H   0  0  0  0  0  0  0  0  0  0  0  0
   -2.6336   21.3641  -34.1891 H   0  0  0  0  0  0  0  0  0  0  0  0
   -5.7976   20.3605  -33.5108 H   0  0  0  0  0  0  0  0  0  0  0  0
  1  2  1  0
  2  3  2  0
  3  4  1  0
  4  5  2  0
  5  6  1  0
  6  7  1  0
  7  8  1  0
  8  9  2  0
  9 10  1  0
 10 11  2  0
 11 12  1  0
 12 13  2  0
 13 14  1  0
 14 15  2  0
 14 16  1  0
 16 17  1  0
 17 18  2  0
 18 19  1  0
 19 20  2  0
 20 21  1  0
 21 22  1  0
 22 23  2  0
 23 24  1  0
 23 25  1  0
 25 26  2  0
 26 27  1  0
 27 28  2  0
 27 29  1  0
 29 30  1  0
 30 31  2  0
 31 32  1  0
 32 33  2  0
 33 34  1  0
 34 35  2  0
 35 36  1  0
 36 37  2  0
 37 38  1  0
 33 39  1  0
 39 40  2  0
 20 41  1  0
 41 42  2  0
  6 43  2  0
 43  2  1  0
 13  8  1  0
 42 17  1  0
 26 21  1  0
 40 30  1  0
 38 34  1  0
  1 44  1  0
  1 45  1  0
  1 46  1  0
  3 47  1  0
  4 48  1  0
  5 49  1  0
  7 50  1  0
  9 51  1  0
 10 52  1  0
 11 53  1  0
 12 54  1  0
 18 55  1  0
 19 56  1  0
 24 57  1  0
 24 58  1  0
 24 59  1  0
 25 60  1  0
 29 61  1  0
 31 62  1  0
 32 63  1  0
 35 64  1  0
 36 65  1  0
 37 66  1  0
 39 67  1  0
 40 68  1  0
 41 69  1  0
 42 70  1  0
 43 71  1  0
M  CHG  1  16  -1
M  END
>  <UniqueID>  (45) 
43

>  <SMILES>  (45) 
Cc1cccc(Nc2ccccc2C(=O)[N-]c2ccc(-n3nc(C)cc3C(=O)Nc3ccc(-c4cccs4)cc3)cc2)c1

>  <Energy>  (45) 
157.94720477009358

>  <Genealogy>  (45) 
Cc1cccc(Nc2ccccc2C(=O)[N-]c2ccc(-n3nc(C)cc3C(=O)Nc3ccc(-c4cccs4)cc3)cc2)c1 (protonated)
Cc1cccc(Nc2ccccc2C(=O)[N-]c2ccc(-n3nc(C)cc3C(=O)Nc3ccc(-c4cccs4)cc3)cc2)c1 (3D coordinates assigned)
Cc1cccc(Nc2ccccc2C(=O)[N-]c2ccc(-n3nc(C)cc3C(=O)Nc3ccc(-c4cccs4)cc3)cc2)c1 (optimized conformer: 157.94720477009358 kcal/mol)

>  <smiles>  (45) 
Cc1cccc(Nc2ccccc2C(=O)Nc2ccc(-n3nc(C)cc3C(=O)Nc3ccc(-c4cccs4)cc3)cc2)c1

>  <score_type>  (45) 
oracle

>  <origin>  (45) 
adgpu

>  <m_score__min__energy>  (45) 
-12.550000000000001

>  <m_primary>  (45) 
energy

$$$$
45:0
     RDKit          3D

 53 54  0  0  0  0  0  0  0  0999 V2000
   -6.7190   23.7800  -31.3740 C   0  0  0  0  0  0  0  0  0  0  0  0
   -6.0700   24.2430  -30.0750 C   0  0  0  0  0  0  0  0  0  0  0  0
   -5.0400   25.2900  -30.3480 C   0  0  0  0  0  0  0  0  0  0  0  0
   -5.3890   26.4960  -30.4600 O   0  0  0  0  0  0  0  0  0  0  0  0
   -3.6640   24.9120  -30.4700 N   0  0  0  0  0  0  0  0  0  0  0  0
   -3.1440   23.5740  -30.4320 C   0  0  0  0  0  0  0  0  0  0  0  0
   -3.4810   22.6400  -31.4280 C   0  0  0  0  0  0  0  0  0  0  0  0
   -3.0410   21.3150  -31.3400 C   0  0  0  0  0  0  0  0  0  0  0  0
   -3.5430   20.1550  -32.5660 S   0  0  0  0  0  0  0  0  0  0  0  0
   -2.6650   18.9350  -32.5070 O   0  0  0  0  0  0  0  0  0  0  0  0
   -3.3820   20.7960  -33.9170 O   0  0  0  0  0  0  0  0  0  0  0  0
   -5.2200   19.7160  -32.3000 N   0  0  0  0  0  0  0  0  0  0  0  0
   -5.5520   18.3920  -32.8700 C   0  0  0  0  0  0  0  0  0  0  0  0
   -5.7250   18.4970  -34.3820 C   0  0  0  0  0  0  0  0  0  0  0  0
   -6.1500   20.7840  -32.7230 C   0  0  0  0  0  0  0  0  0  0  0  0
   -7.6090   20.5440  -32.3110 C   0  0  0  0  0  0  0  0  0  0  0  0
   -2.2680   20.9120  -30.2460 C   0  0  0  0  0  0  0  0  0  0  0  0
   -1.9420   21.8260  -29.2450 C   0  0  0  0  0  0  0  0  0  0  0  0
   -2.3770   23.1590  -29.3230 C   0  0  0  0  0  0  0  0  0  0  0  0
   -2.0300   24.0850  -28.2760 N   0  0  0  0  0  0  0  0  0  0  0  0
   -1.1630   25.2340  -28.5790 C   0  0  0  0  0  0  0  0  0  0  0  0
   -0.4290   25.6920  -27.3160 C   0  0  0  0  0  0  0  0  0  0  0  0
   -1.3980   26.0330  -26.1650 C   0  0  0  0  0  0  0  0  0  0  0  0
   -2.7660   25.3370  -26.2770 C   0  0  0  0  0  0  0  0  0  0  0  0
   -2.6600   23.9660  -26.9520 C   0  0  0  0  0  0  0  0  0  0  0  0
   -7.5947   23.1553  -31.1440 H   0  0  0  0  0  0  0  0  0  0  0  0
   -7.0370   24.6564  -31.9577 H   0  0  0  0  0  0  0  0  0  0  0  0
   -5.9937   23.1941  -31.9577 H   0  0  0  0  0  0  0  0  0  0  0  0
   -6.8431   24.6599  -29.4128 H   0  0  0  0  0  0  0  0  0  0  0  0
   -5.5827   23.3818  -29.5945 H   0  0  0  0  0  0  0  0  0  0  0  0
   -4.0962   22.9542  -32.2840 H   0  0  0  0  0  0  0  0  0  0  0  0
   -4.7391   17.6857  -32.6456 H   0  0  0  0  0  0  0  0  0  0  0  0
   -6.4929   18.0358  -32.4252 H   0  0  0  0  0  0  0  0  0  0  0  0
   -6.6453   19.0556  -34.6078 H   0  0  0  0  0  0  0  0  0  0  0  0
   -4.8612   19.0234  -34.8142 H   0  0  0  0  0  0  0  0  0  0  0  0
   -5.7932   17.4878  -34.8142 H   0  0  0  0  0  0  0  0  0  0  0  0
   -5.8156   21.7310  -32.2742 H   0  0  0  0  0  0  0  0  0  0  0  0
   -6.1302   20.8046  -33.8226 H   0  0  0  0  0  0  0  0  0  0  0  0
   -7.6828   20.5319  -31.2135 H   0  0  0  0  0  0  0  0  0  0  0  0
   -8.2407   21.3503  -32.7121 H   0  0  0  0  0  0  0  0  0  0  0  0
   -7.9491   19.5778  -32.7121 H   0  0  0  0  0  0  0  0  0  0  0  0
   -1.9167   19.8720  -30.1754 H   0  0  0  0  0  0  0  0  0  0  0  0
   -1.3380   21.4998  -28.3855 H   0  0  0  0  0  0  0  0  0  0  0  0
   -0.4259   24.9416  -29.3414 H   0  0  0  0  0  0  0  0  0  0  0  0
   -1.7831   26.0619  -28.9531 H   0  0  0  0  0  0  0  0  0  0  0  0
    0.2426   24.8859  -26.9856 H   0  0  0  0  0  0  0  0  0  0  0  0
    0.1308   26.6054  -27.5655 H   0  0  0  0  0  0  0  0  0  0  0  0
   -0.9308   25.7286  -25.2168 H   0  0  0  0  0  0  0  0  0  0  0  0
   -1.5849   27.1159  -26.2142 H   0  0  0  0  0  0  0  0  0  0  0  0
   -3.1804   25.2041  -25.2667 H   0  0  0  0  0  0  0  0  0  0  0  0
   -3.4192   25.9701  -26.8955 H   0  0  0  0  0  0  0  0  0  0  0  0
   -2.0528   23.2994  -26.3219 H   0  0  0  0  0  0  0  0  0  0  0  0
   -3.6725   23.5549  -27.0780 H   0  0  0  0  0  0  0  0  0  0  0  0
  1  2  1  0
  2  3  1  0
  3  4  2  0
  3  5  1  0
  5  6  1  0
  6  7  2  0
  7  8  1  0
  8  9  1  0
  9 10  2  0
  9 11  2  0
  9 12  1  0
 12 13  1  0
 13 14  1  0
 12 15  1  0
 15 16  1  0
  8 17  2  0
 17 18  1  0
 18 19  2  0
 19 20  1  0
 20 21  1  0
 21 22  1  0
 22 23  1  0
 23 24  1  0
 24 25  1  0
 19  6  1  0
 25 20  1  0
  1 26  1  0
  1 27  1  0
  1 28  1  0
  2 29  1  0
  2 30  1  0
  7 31  1  0
 13 32  1  0
 13 33  1  0
 14 34  1  0
 14 35  1  0
 14 36  1  0
 15 37  1  0
 15 38  1  0
 16 39  1  0
 16 40  1  0
 16 41  1  0
 17 42  1  0
 18 43  1  0
 21 44  1  0
 21 45  1  0
 22 46  1  0
 22 47  1  0
 23 48  1  0
 23 49  1  0
 24 50  1  0
 24 51  1  0
 25 52  1  0
 25 53  1  0
M  CHG  1   5  -1
M  END
>  <UniqueID>  (46) 
44

>  <SMILES>  (46) 
CCC(=O)[N-]c1cc(S(=O)(=O)N(CC)CC)ccc1N1CCCCC1

>  <Energy>  (46) 
55.02141558390211

>  <Genealogy>  (46) 
CCC(=O)[N-]c1cc(S(=O)(=O)N(CC)CC)ccc1N1CCCCC1 (protonated)
CCC(=O)[N-]c1cc(S(=O)(=O)N(CC)CC)ccc1N1CCCCC1 (3D coordinates assigned)
CCC(=O)[N-]c1cc(S(=O)(=O)N(CC)CC)ccc1N1CCCCC1 (nonaromatic ring conformer: 55.02141558390211 kcal/mol)

>  <smiles>  (46) 
CCC(=O)Nc1cc(S(=O)(=O)N(CC)CC)ccc1N1CCCCC1

>  <score_type>  (46) 
oracle

>  <origin>  (46) 
adgpu

>  <m_score__min__energy>  (46) 
-9.1500000000000004

>  <m_primary>  (46) 
energy

$$$$
46:0
     RDKit          3D

 36 39  0  0  0  0  0  0  0  0999 V2000
   -4.3710   26.6810  -30.5360 H   0  0  0  0  0  0  0  0  0  0  0  0
   -4.6580   25.6920  -30.7140 N   0  0  0  0  0  0  0  0  0  0  0  0
   -3.9120   24.6980  -30.3540 C   0  0  0  0  0  0  0  0  0  0  0  0
   -2.7160   24.9130  -29.7260 N   0  0  0  0  0  0  0  0  0  0  0  0
   -1.9050   23.8800  -29.3350 C   0  0  0  0  0  0  0  0  0  0  0  0
   -0.9510   24.0947  -28.8312 H   0  0  0  0  0  0  0  0  0  0  0  0
   -2.2850   22.5460  -29.5740 C   0  0  0  0  0  0  0  0  0  0  0  0
   -1.6462   21.7043  -29.2682 H   0  0  0  0  0  0  0  0  0  0  0  0
   -3.5040   22.3370  -30.2140 C   0  0  0  0  0  0  0  0  0  0  0  0
   -4.3010   23.3800  -30.5940 C   0  0  0  0  0  0  0  0  0  0  0  0
   -5.4220   22.8500  -31.1980 C   0  0  0  0  0  0  0  0  0  0  0  0
   -6.2741   23.3976  -31.6270 H   0  0  0  0  0  0  0  0  0  0  0  0
   -5.2390   21.4660  -31.1460 C   0  0  0  0  0  0  0  0  0  0  0  0
   -6.1660   20.4500  -31.6990 C   0  0  0  0  0  0  0  0  0  0  0  0
   -7.5180   20.7840  -31.8850 C   0  0  0  0  0  0  0  0  0  0  0  0
   -7.8714   21.7926  -31.6248 H   0  0  0  0  0  0  0  0  0  0  0  0
   -8.4160   19.8470  -32.3970 C   0  0  0  0  0  0  0  0  0  0  0  0
   -9.4717   20.1208  -32.5400 H   0  0  0  0  0  0  0  0  0  0  0  0
   -7.9800   18.5650  -32.7280 C   0  0  0  0  0  0  0  0  0  0  0  0
   -8.6955   17.8312  -33.1276 H   0  0  0  0  0  0  0  0  0  0  0  0
   -6.6330   18.2030  -32.5550 C   0  0  0  0  0  0  0  0  0  0  0  0
   -6.1940   16.8320  -32.9100 C   0  0  0  0  0  0  0  0  0  0  0  0
   -6.8860   16.0870  -33.8810 C   0  0  0  0  0  0  0  0  0  0  0  0
   -7.7666   16.5203  -34.3777 H   0  0  0  0  0  0  0  0  0  0  0  0
   -6.4610   14.7980  -34.2190 C   0  0  0  0  0  0  0  0  0  0  0  0
   -7.1340   14.0870  -35.1570 F   0  0  0  0  0  0  0  0  0  0  0  0
   -5.3410   14.2430  -33.5930 C   0  0  0  0  0  0  0  0  0  0  0  0
   -5.0104   13.2276  -33.8569 H   0  0  0  0  0  0  0  0  0  0  0  0
   -4.6420   14.9770  -32.6330 C   0  0  0  0  0  0  0  0  0  0  0  0
   -3.5550   14.4390  -32.0270 F   0  0  0  0  0  0  0  0  0  0  0  0
   -5.0620   16.2680  -32.2920 C   0  0  0  0  0  0  0  0  0  0  0  0
   -4.5053   16.8440  -31.5382 H   0  0  0  0  0  0  0  0  0  0  0  0
   -5.7210   19.1570  -32.0550 C   0  0  0  0  0  0  0  0  0  0  0  0
   -4.3700   18.8340  -31.9580 O   0  0  0  0  0  0  0  0  0  0  0  0
   -4.0600   21.1610  -30.5470 N   0  0  0  0  0  0  0  0  0  0  0  0
   -3.6660   20.2120  -30.3670 H   0  0  0  0  0  0  0  0  0  0  0  0
  1  2  1  0
  2  3  2  0
  3  4  1  0
  4  5  1  0
  5  6  1  0
  5  7  2  0
  7  8  1  0
  7  9  1  0
  9 10  2  0
 10 11  1  0
 11 12  1  0
 11 13  2  0
 13 14  1  0
 14 15  2  0
 15 16  1  0
 15 17  1  0
 17 18  1  0
 17 19  2  0
 19 20  1  0
 19 21  1  0
 21 22  1  0
 22 23  2  0
 23 24  1  0
 23 25  1  0
 25 26  1  0
 25 27  2  0
 27 28  1  0
 27 29  1  0
 29 30  1  0
 29 31  2  0
 31 32  1  0
 21 33  2  0
 33 34  1  0
 13 35  1  0
 35 36  1  0
 10  3  1  0
 33 14  1  0
 35  9  1  0
 31 22  1  0
M  CHG  2   4  -1  34  -1
M  END
>  <UniqueID>  (47) 
45

>  <SMILES>  (47) 
[H]/N=c1\[n-]ccc2[nH]c(-c3cccc(-c4cc(F)cc(F)c4)c3[O-])cc12

>  <Energy>  (47) 
86.6506701121716

>  <Genealogy>  (47) 
N=c1[n-]ccc2[nH]c(-c3cccc(-c4cc(F)cc(F)c4)c3[O-])cc12 (protonated)
[H]/N=c1\[n-]ccc2[nH]c(-c3cccc(-c4cc(F)cc(F)c4)c3[O-])cc12 (cis-trans isomerization)
[H]/N=c1\[n-]ccc2[nH]c(-c3cccc(-c4cc(F)cc(F)c4)c3[O-])cc12 (3D coordinates assigned)
[H]/N=c1\[n-]ccc2[nH]c(-c3cccc(-c4cc(F)cc(F)c4)c3[O-])cc12 (optimized conformer: 86.6506701121716 kcal/mol)

>  <smiles>  (47) 
N=c1[nH]ccc2[nH]c(-c3cccc(-c4cc(F)cc(F)c4)c3O)cc12

>  <score_type>  (47) 
oracle

>  <origin>  (47) 
adgpu

>  <m_score__min__energy>  (47) 
-9.8100000000000005

>  <m_primary>  (47) 
energy

$$$$
47:0
     RDKit          3D

 63 66  0  0  0  0  0  0  0  0999 V2000
   -6.4120   16.5480  -33.9890 C   0  0  0  0  0  0  0  0  0  0  0  0
   -6.0990   17.9190  -34.5740 C   0  0  0  0  0  0  0  0  0  0  0  0
   -5.9540   18.9100  -33.5050 N   0  0  0  0  0  0  0  0  0  0  0  0
   -4.6810   19.5190  -33.2440 C   0  0  0  0  0  0  0  0  0  0  0  0
   -3.6200   18.7540  -32.7360 C   0  0  0  0  0  0  0  0  0  0  0  0
   -2.3840   19.3540  -32.4740 C   0  0  0  0  0  0  0  0  0  0  0  0
   -2.2020   20.7180  -32.7200 C   0  0  0  0  0  0  0  0  0  0  0  0
   -3.2560   21.4840  -33.2270 C   0  0  0  0  0  0  0  0  0  0  0  0
   -4.4930   20.8870  -33.4880 C   0  0  0  0  0  0  0  0  0  0  0  0
   -7.2610   19.1740  -32.3930 S   0  0  0  0  0  0  0  0  0  0  0  0
   -8.5780   18.8620  -33.0500 O   0  0  0  0  0  0  0  0  0  0  0  0
   -7.1020   18.2680  -31.2040 O   0  0  0  0  0  0  0  0  0  0  0  0
   -7.2420   20.8610  -31.8950 C   0  0  0  0  0  0  0  0  0  0  0  0
   -8.2980   21.7010  -32.2660 C   0  0  0  0  0  0  0  0  0  0  0  0
   -8.2730   23.0520  -31.9200 C   0  0  0  0  0  0  0  0  0  0  0  0
   -7.1930   23.5750  -31.2060 C   0  0  0  0  0  0  0  0  0  0  0  0
   -6.1240   22.7440  -30.8220 C   0  0  0  0  0  0  0  0  0  0  0  0
   -4.9720   23.3060  -30.0780 C   0  0  0  0  0  0  0  0  0  0  0  0
   -4.2860   24.2280  -30.6000 O   0  0  0  0  0  0  0  0  0  0  0  0
   -4.6570   22.8460  -28.7530 N   0  0  0  0  0  0  0  0  0  0  0  0
   -3.3710   23.0230  -28.1370 C   0  0  0  0  0  0  0  0  0  0  0  0
   -2.7150   21.9540  -27.4990 C   0  0  0  0  0  0  0  0  0  0  0  0
   -1.4780   22.1560  -26.8810 C   0  0  0  0  0  0  0  0  0  0  0  0
   -0.8870   23.4200  -26.8900 C   0  0  0  0  0  0  0  0  0  0  0  0
   -1.5280   24.4930  -27.5230 C   0  0  0  0  0  0  0  0  0  0  0  0
   -0.7910   26.0950  -27.5170 S   0  0  0  0  0  0  0  0  0  0  0  0
    0.7050   25.9400  -27.4860 O   0  0  0  0  0  0  0  0  0  0  0  0
   -1.1470   26.7970  -28.7970 O   0  0  0  0  0  0  0  0  0  0  0  0
   -1.2940   27.0840  -26.1610 N   0  0  0  0  0  0  0  0  0  0  0  0
   -1.6880   26.2990  -24.9750 C   0  0  0  0  0  0  0  0  0  0  0  0
   -0.5200   26.0530  -24.0100 C   0  0  0  0  0  0  0  0  0  0  0  0
    0.1180   27.2660  -23.6780 O   0  0  0  0  0  0  0  0  0  0  0  0
    0.7060   27.8100  -24.8390 C   0  0  0  0  0  0  0  0  0  0  0  0
   -0.3680   28.1940  -25.8650 C   0  0  0  0  0  0  0  0  0  0  0  0
   -2.7800   24.2950  -28.1230 C   0  0  0  0  0  0  0  0  0  0  0  0
   -6.1550   21.3840  -31.1810 C   0  0  0  0  0  0  0  0  0  0  0  0
   -6.3987   16.6063  -32.8906 H   0  0  0  0  0  0  0  0  0  0  0  0
   -7.4073   16.2237  -34.3269 H   0  0  0  0  0  0  0  0  0  0  0  0
   -5.6561   15.8239  -34.3269 H   0  0  0  0  0  0  0  0  0  0  0  0
   -5.1611   17.8633  -35.1461 H   0  0  0  0  0  0  0  0  0  0  0  0
   -6.9262   18.2231  -35.2323 H   0  0  0  0  0  0  0  0  0  0  0  0
   -3.7606   17.6802  -32.5434 H   0  0  0  0  0  0  0  0  0  0  0  0
   -1.5546   18.7522  -32.0741 H   0  0  0  0  0  0  0  0  0  0  0  0
   -1.2293   21.1888  -32.5146 H   0  0  0  0  0  0  0  0  0  0  0  0
   -3.1119   22.5572  -33.4207 H   0  0  0  0  0  0  0  0  0  0  0  0
   -5.3210   21.4921  -33.8858 H   0  0  0  0  0  0  0  0  0  0  0  0
   -9.1496   21.2950  -32.8317 H   0  0  0  0  0  0  0  0  0  0  0  0
   -9.1070   23.7077  -32.2106 H   0  0  0  0  0  0  0  0  0  0  0  0
   -7.1776   24.6428  -30.9421 H   0  0  0  0  0  0  0  0  0  0  0  0
   -5.4340   22.4670  -28.1670 H   0  0  0  0  0  0  0  0  0  0  0  0
   -3.1774   20.9560  -27.4867 H   0  0  0  0  0  0  0  0  0  0  0  0
   -0.9687   21.3160  -26.3860 H   0  0  0  0  0  0  0  0  0  0  0  0
    0.0850   23.5744  -26.3987 H   0  0  0  0  0  0  0  0  0  0  0  0
   -2.4781   26.8450  -24.4387 H   0  0  0  0  0  0  0  0  0  0  0  0
   -2.0380   25.3179  -25.3284 H   0  0  0  0  0  0  0  0  0  0  0  0
   -0.9032   25.5838  -23.0919 H   0  0  0  0  0  0  0  0  0  0  0  0
    0.2103   25.3928  -24.5007 H   0  0  0  0  0  0  0  0  0  0  0  0
    1.2808   28.7072  -24.5656 H   0  0  0  0  0  0  0  0  0  0  0  0
    1.3671   27.0535  -25.2870 H   0  0  0  0  0  0  0  0  0  0  0  0
   -0.9480   29.0400  -25.4677 H   0  0  0  0  0  0  0  0  0  0  0  0
    0.1455   28.4576  -26.8014 H   0  0  0  0  0  0  0  0  0  0  0  0
   -3.3030   25.1444  -28.5866 H   0  0  0  0  0  0  0  0  0  0  0  0
   -5.3198   20.7260  -30.8992 H   0  0  0  0  0  0  0  0  0  0  0  0
  1  2  1  0
  2  3  1  0
  3  4  1  0
  4  5  2  0
  5  6  1  0
  6  7  2  0
  7  8  1  0
  8  9  2  0
  3 10  1  0
 10 11  2  0
 10 12  2  0
 10 13  1  0
 13 14  2  0
 14 15  1  0
 15 16  2  0
 16 17  1  0
 17 18  1  0
 18 19  2  0
 18 20  1  0
 20 21  1  0
 21 22  2  0
 22 23  1  0
 23 24  2  0
 24 25  1  0
 25 26  1  0
 26 27  2  0
 26 28  2  0
 26 29  1  0
 29 30  1  0
 30 31  1  0
 31 32  1  0
 32 33  1  0
 33 34  1  0
 25 35  2  0
 17 36  2  0
  9  4  1  0
 36 13  1  0
 35 21  1  0
 34 29  1  0
  1 37  1  0
  1 38  1  0
  1 39  1  0
  2 40  1  0
  2 41  1  0
  5 42  1  0
  6 43  1  0
  7 44  1  0
  8 45  1  0
  9 46  1  0
 14 47  1  0
 15 48  1  0
 16 49  1  0
 20 50  1  0
 22 51  1  0
 23 52  1  0
 24 53  1  0
 30 54  1  0
 30 55  1  0
 31 56  1  0
 31 57  1  0
 33 58  1  0
 33 59  1  0
 34 60  1  0
 34 61  1  0
 35 62  1  0
 36 63  1  0
M  END
>  <UniqueID>  (48) 
46

>  <SMILES>  (48) 
CCN(c1ccccc1)S(=O)(=O)c1cccc(C(=O)Nc2cccc(S(=O)(=O)N3CCOCC3)c2)c1

>  <Energy>  (48) 
79.59394530298042

>  <Genealogy>  (48) 
CCN(c1ccccc1)S(=O)(=O)c1cccc(C(=O)Nc2cccc(S(=O)(=O)N3CCOCC3)c2)c1 (3D coordinates assigned)
CCN(c1ccccc1)S(=O)(=O)c1cccc(C(=O)Nc2cccc(S(=O)(=O)N3CCOCC3)c2)c1 (nonaromatic ring conformer: 79.59394530298042 kcal/mol)

>  <smiles>  (48) 
CCN(c1ccccc1)S(=O)(=O)c1cccc(C(=O)Nc2cccc(S(=O)(=O)N3CCOCC3)c2)c1

>  <score_type>  (48) 
oracle

>  <origin>  (48) 
adgpu

>  <m_score__min__energy>  (48) 
-11.27

>  <m_primary>  (48) 
energy

$$$$
48:0
     RDKit          3D

 37 39  0  0  0  0  0  0  0  0999 V2000
   -3.8000   25.2980  -30.4880 N   0  0  0  0  0  0  0  0  0  0  0  0
   -2.8510   24.5960  -29.6920 C   0  0  0  0  0  0  0  0  0  0  0  0
   -1.9880   25.2490  -29.0460 O   0  0  0  0  0  0  0  0  0  0  0  0
   -2.8620   23.1160  -29.6180 C   0  0  0  0  0  0  0  0  0  0  0  0
   -3.3490   22.3020  -30.6490 C   0  0  0  0  0  0  0  0  0  0  0  0
   -4.0800   22.7320  -31.8030 N   0  0  0  0  0  0  0  0  0  0  0  0
   -4.2160   21.8700  -32.9750 C   0  0  0  0  0  0  0  0  0  0  0  0
   -5.4490   21.0200  -32.8440 C   0  0  0  0  0  0  0  0  0  0  0  0
   -5.4500   19.6990  -33.3210 C   0  0  0  0  0  0  0  0  0  0  0  0
   -6.6110   18.9240  -33.2460 C   0  0  0  0  0  0  0  0  0  0  0  0
   -7.7800   19.4650  -32.7040 C   0  0  0  0  0  0  0  0  0  0  0  0
   -7.7920   20.7840  -32.2410 C   0  0  0  0  0  0  0  0  0  0  0  0
   -9.3950   21.5270  -31.5140 Br  0  0  0  0  0  0  0  0  0  0  0  0
   -6.6310   21.5620  -32.3150 C   0  0  0  0  0  0  0  0  0  0  0  0
   -3.0180   20.6890  -30.3180 S   0  0  0  0  0  0  0  0  0  0  0  0
   -2.2550   20.9860  -28.8550 C   0  0  0  0  0  0  0  0  0  0  0  0
   -2.2740   22.3540  -28.5780 C   0  0  0  0  0  0  0  0  0  0  0  0
   -1.5680   22.9130  -27.3630 C   0  0  0  0  0  0  0  0  0  0  0  0
   -1.2450   21.8260  -26.3220 C   0  0  0  0  0  0  0  0  0  0  0  0
   -0.6720   20.5620  -26.9800 C   0  0  0  0  0  0  0  0  0  0  0  0
   -1.6900   19.9400  -27.9440 C   0  0  0  0  0  0  0  0  0  0  0  0
   -3.4900   25.9780  -31.2180 H   0  0  0  0  0  0  0  0  0  0  0  0
   -4.1290   23.7620  -31.9740 H   0  0  0  0  0  0  0  0  0  0  0  0
   -4.2963   22.4925  -33.8784 H   0  0  0  0  0  0  0  0  0  0  0  0
   -3.3329   21.2184  -33.0500 H   0  0  0  0  0  0  0  0  0  0  0  0
   -4.5337   19.2726  -33.7553 H   0  0  0  0  0  0  0  0  0  0  0  0
   -6.6044   17.8874  -33.6139 H   0  0  0  0  0  0  0  0  0  0  0  0
   -8.6915   18.8524  -32.6416 H   0  0  0  0  0  0  0  0  0  0  0  0
   -6.6447   22.6021  -31.9573 H   0  0  0  0  0  0  0  0  0  0  0  0
   -0.6277   23.3838  -27.6859 H   0  0  0  0  0  0  0  0  0  0  0  0
   -2.2412   23.6426  -26.8892 H   0  0  0  0  0  0  0  0  0  0  0  0
   -0.5069   22.2229  -25.6094 H   0  0  0  0  0  0  0  0  0  0  0  0
   -2.1795   21.5527  -25.8102 H   0  0  0  0  0  0  0  0  0  0  0  0
    0.2380   20.8270  -27.5383 H   0  0  0  0  0  0  0  0  0  0  0  0
   -0.4389   19.8297  -26.1929 H   0  0  0  0  0  0  0  0  0  0  0  0
   -1.1923   19.1657  -28.5463 H   0  0  0  0  0  0  0  0  0  0  0  0
   -2.5094   19.4965  -27.3593 H   0  0  0  0  0  0  0  0  0  0  0  0
  1  2  1  0
  2  3  2  0
  2  4  1  0
  4  5  2  0
  5  6  1  0
  6  7  1  0
  7  8  1  0
  8  9  2  0
  9 10  1  0
 10 11  2  0
 11 12  1  0
 12 13  1  0
 12 14  2  0
  5 15  1  0
 15 16  1  0
 16 17  2  0
 17 18  1  0
 18 19  1  0
 19 20  1  0
 20 21  1  0
 17  4  1  0
 14  8  1  0
 21 16  1  0
  1 22  1  0
  6 23  1  0
  7 24  1  0
  7 25  1  0
  9 26  1  0
 10 27  1  0
 11 28  1  0
 14 29  1  0
 18 30  1  0
 18 31  1  0
 19 32  1  0
 19 33  1  0
 20 34  1  0
 20 35  1  0
 21 36  1  0
 21 37  1  0
M  CHG  1   1  -1
M  END
>  <UniqueID>  (49) 
47

>  <SMILES>  (49) 
[NH-]C(=O)c1c(NCc2cccc(Br)c2)sc2c1CCCC2

>  <Energy>  (49) 
68.65414542316587

>  <Genealogy>  (49) 
[NH-]C(=O)c1c(NCc2cccc(Br)c2)sc2c1CCCC2 (protonated)
[NH-]C(=O)c1c(NCc2cccc(Br)c2)sc2c1CCCC2 (3D coordinates assigned)
[NH-]C(=O)c1c(NCc2cccc(Br)c2)sc2c1CCCC2 (nonaromatic ring conformer: 68.65414542316587 kcal/mol)

>  <smiles>  (49) 
NC(=O)c1c(NCc2cccc(Br)c2)sc2c1CCCC2

>  <score_type>  (49) 
oracle

>  <origin>  (49) 
adgpu

>  <m_score__min__energy>  (49) 
-11.32

>  <m_primary>  (49) 
energy

$$$$
49:0
     RDKit          3D

 58 61  0  0  0  0  0  0  0  0999 V2000
   -9.1120   18.6450  -31.4660 C   0  0  0  0  0  0  0  0  0  0  0  0
   -8.2650   18.9040  -32.6450 N   0  0  0  0  0  0  0  0  0  0  0  0
   -7.6670   20.2600  -32.5450 C   0  0  0  0  0  0  0  0  0  0  0  0
   -6.4750   20.4300  -33.4930 C   0  0  0  0  0  0  0  0  0  0  0  0
   -5.4530   19.4130  -33.2090 N   0  0  0  0  0  0  0  0  0  0  0  0
   -4.0610   19.6960  -33.4580 C   0  0  0  0  0  0  0  0  0  0  0  0
   -3.2650   18.7430  -34.1160 C   0  0  0  0  0  0  0  0  0  0  0  0
   -1.9060   18.9780  -34.3330 C   0  0  0  0  0  0  0  0  0  0  0  0
   -1.3250   20.1820  -33.9200 C   0  0  0  0  0  0  0  0  0  0  0  0
    0.4040   20.4650  -34.1540 S   0  0  0  0  0  0  0  0  0  0  0  0
    0.8940   19.6230  -35.2980 O   0  0  0  0  0  0  0  0  0  0  0  0
    0.6210   21.9060  -34.5170 O   0  0  0  0  0  0  0  0  0  0  0  0
    1.3300   20.0680  -32.7230 N   0  0  0  0  0  0  0  0  0  0  0  0
    0.5880   20.3820  -31.4800 C   0  0  0  0  0  0  0  0  0  0  0  0
    0.8400   19.3680  -30.3570 C   0  0  0  0  0  0  0  0  0  0  0  0
    0.4330   17.9700  -30.8280 C   0  0  0  0  0  0  0  0  0  0  0  0
    1.0480   17.6080  -32.1990 C   0  0  0  0  0  0  0  0  0  0  0  0
    1.9320   18.7200  -32.7980 C   0  0  0  0  0  0  0  0  0  0  0  0
   -2.1180   21.1500  -33.2900 C   0  0  0  0  0  0  0  0  0  0  0  0
   -3.4770   20.9050  -33.0250 C   0  0  0  0  0  0  0  0  0  0  0  0
   -4.2930   21.9020  -32.3920 N   0  0  0  0  0  0  0  0  0  0  0  0
   -3.8730   22.7990  -31.3550 C   0  0  0  0  0  0  0  0  0  0  0  0
   -2.7550   22.6520  -30.7920 O   0  0  0  0  0  0  0  0  0  0  0  0
   -4.7720   23.8660  -30.9000 C   0  0  0  0  0  0  0  0  0  0  0  0
   -6.0680   23.7010  -30.4540 C   0  0  0  0  0  0  0  0  0  0  0  0
   -6.5140   24.9660  -30.1410 C   0  0  0  0  0  0  0  0  0  0  0  0
   -5.4630   25.8210  -30.4100 C   0  0  0  0  0  0  0  0  0  0  0  0
   -4.4380   25.1360  -30.8610 O   0  0  0  0  0  0  0  0  0  0  0  0
   -5.8390   18.2060  -32.4680 C   0  0  0  0  0  0  0  0  0  0  0  0
   -7.2720   17.8050  -32.8430 C   0  0  0  0  0  0  0  0  0  0  0  0
   -8.5297   18.8231  -30.5499 H   0  0  0  0  0  0  0  0  0  0  0  0
   -9.9817   19.3183  -31.4843 H   0  0  0  0  0  0  0  0  0  0  0  0
   -9.4564   17.6005  -31.4843 H   0  0  0  0  0  0  0  0  0  0  0  0
   -8.9030   18.9070  -33.4790 H   0  0  0  0  0  0  0  0  0  0  0  0
   -8.4336   21.0065  -32.8001 H   0  0  0  0  0  0  0  0  0  0  0  0
   -7.3061   20.3984  -31.5152 H   0  0  0  0  0  0  0  0  0  0  0  0
   -6.8184   20.3200  -34.5322 H   0  0  0  0  0  0  0  0  0  0  0  0
   -6.0385   21.4289  -33.3460 H   0  0  0  0  0  0  0  0  0  0  0  0
   -3.7172   17.8024  -34.4636 H   0  0  0  0  0  0  0  0  0  0  0  0
   -1.2901   18.2142  -34.8302 H   0  0  0  0  0  0  0  0  0  0  0  0
    0.8980   21.3774  -31.1291 H   0  0  0  0  0  0  0  0  0  0  0  0
   -0.4849   20.3459  -31.7202 H   0  0  0  0  0  0  0  0  0  0  0  0
    1.9083   19.3696  -30.0950 H   0  0  0  0  0  0  0  0  0  0  0  0
    0.2445   19.6443  -29.4744 H   0  0  0  0  0  0  0  0  0  0  0  0
    0.7712   17.2341  -30.0837 H   0  0  0  0  0  0  0  0  0  0  0  0
   -0.6615   17.9584  -30.9377 H   0  0  0  0  0  0  0  0  0  0  0  0
    1.6634   16.7047  -32.0753 H   0  0  0  0  0  0  0  0  0  0  0  0
    0.2103   17.4549  -32.8953 H   0  0  0  0  0  0  0  0  0  0  0  0
    2.8866   18.7359  -32.2516 H   0  0  0  0  0  0  0  0  0  0  0  0
    2.0607   18.4862  -33.8651 H   0  0  0  0  0  0  0  0  0  0  0  0
   -1.6724   22.1128  -32.9993 H   0  0  0  0  0  0  0  0  0  0  0  0
   -6.6270   22.7576  -30.3669 H   0  0  0  0  0  0  0  0  0  0  0  0
   -7.5068   25.2401  -29.7548 H   0  0  0  0  0  0  0  0  0  0  0  0
   -5.4821   26.9116  -30.2677 H   0  0  0  0  0  0  0  0  0  0  0  0
   -5.1515   17.3857  -32.7217 H   0  0  0  0  0  0  0  0  0  0  0  0
   -5.7885   18.4097  -31.3882 H   0  0  0  0  0  0  0  0  0  0  0  0
   -7.2857   17.5089  -33.9023 H   0  0  0  0  0  0  0  0  0  0  0  0
   -7.5636   16.9790  -32.1776 H   0  0  0  0  0  0  0  0  0  0  0  0
  1  2  1  0
  2  3  1  0
  3  4  1  0
  4  5  1  0
  5  6  1  0
  6  7  2  0
  7  8  1  0
  8  9  2  0
  9 10  1  0
 10 11  2  0
 10 12  2  0
 10 13  1  0
 13 14  1  0
 14 15  1  0
 15 16  1  0
 16 17  1  0
 17 18  1  0
  9 19  1  0
 19 20  2  0
 20 21  1  0
 21 22  1  0
 22 23  2  0
 22 24  1  0
 24 25  2  0
 25 26  1  0
 26 27  2  0
 27 28  1  0
  5 29  1  0
 29 30  1  0
 30  2  1  0
 20  6  1  0
 28 24  1  0
 18 13  1  0
  1 31  1  0
  1 32  1  0
  1 33  1  0
  2 34  1  0
  3 35  1  0
  3 36  1  0
  4 37  1  0
  4 38  1  0
  7 39  1  0
  8 40  1  0
 14 41  1  0
 14 42  1  0
 15 43  1  0
 15 44  1  0
 16 45  1  0
 16 46  1  0
 17 47  1  0
 17 48  1  0
 18 49  1  0
 18 50  1  0
 19 51  1  0
 25 52  1  0
 26 53  1  0
 27 54  1  0
 29 55  1  0
 29 56  1  0
 30 57  1  0
 30 58  1  0
M  CHG  2   2   1  21  -1
M  END
>  <UniqueID>  (50) 
48

>  <SMILES>  (50) 
C[NH+]1CCN(c2ccc(S(=O)(=O)N3CCCCC3)cc2[N-]C(=O)c2ccco2)CC1

>  <Energy>  (50) 
105.18581962158649

>  <Genealogy>  (50) 
C[NH+]1CCN(c2ccc(S(=O)(=O)N3CCCCC3)cc2[N-]C(=O)c2ccco2)CC1 (protonated)
C[NH+]1CCN(c2ccc(S(=O)(=O)N3CCCCC3)cc2[N-]C(=O)c2ccco2)CC1 (3D coordinates assigned)
C[NH+]1CCN(c2ccc(S(=O)(=O)N3CCCCC3)cc2[N-]C(=O)c2ccco2)CC1 (nonaromatic ring conformer: 105.18581962158649 kcal/mol)

>  <smiles>  (50) 
CN1CCN(c2ccc(S(=O)(=O)N3CCCCC3)cc2NC(=O)c2ccco2)CC1

>  <score_type>  (50) 
oracle

>  <origin>  (50) 
adgpu

>  <m_score__min__energy>  (50) 
-10.02

>  <m_primary>  (50) 
energy

$$$$
