0:0
     RDKit          3D

 33 35  0  0  0  0  0  0  0  0999 V2000
   -3.7200   23.8180  -27.4740 C   0  0  0  0  0  0  0  0  0  0  0  0
   -2.6120   24.5530  -28.7160 S   0  0  0  0  0  0  0  0  0  0  0  0
   -3.4820   23.8110  -30.0950 C   0  0  0  0  0  0  0  0  0  0  0  0
   -2.8620   22.8900  -30.8910 N   0  0  0  0  0  0  0  0  0  0  0  0
   -3.5220   22.2870  -31.9320 C   0  0  0  0  0  0  0  0  0  0  0  0
   -4.8280   22.5920  -32.1970 N   0  0  0  0  0  0  0  0  0  0  0  0
   -5.4360   23.5170  -31.4150 C   0  0  0  0  0  0  0  0  0  0  0  0
   -4.8030   24.1250  -30.3820 C   0  0  0  0  0  0  0  0  0  0  0  0
   -5.7560   24.9290  -29.7890 C   0  0  0  0  0  0  0  0  0  0  0  0
   -6.9230   24.7710  -30.4640 N   0  0  0  0  0  0  0  0  0  0  0  0
   -6.7170   23.9150  -31.4600 N   0  0  0  0  0  0  0  0  0  0  0  0
   -7.7730   23.3920  -32.3250 C   0  0  0  0  0  0  0  0  0  0  0  0
   -8.6240   22.3540  -31.5820 C   0  0  0  0  0  0  0  0  0  0  0  0
   -8.2930   20.9510  -32.0210 C   0  0  0  0  0  0  0  0  0  0  0  0
   -9.1060   19.8730  -31.6290 C   0  0  0  0  0  0  0  0  0  0  0  0
   -8.7560   18.5640  -31.9720 C   0  0  0  0  0  0  0  0  0  0  0  0
   -7.5930   18.3210  -32.7090 C   0  0  0  0  0  0  0  0  0  0  0  0
   -6.7780   19.3870  -33.1030 C   0  0  0  0  0  0  0  0  0  0  0  0
   -7.1230   20.6980  -32.7580 C   0  0  0  0  0  0  0  0  0  0  0  0
   -3.3533   24.0612  -26.4658 H   0  0  0  0  0  0  0  0  0  0  0  0
   -4.7347   24.2227  -27.6026 H   0  0  0  0  0  0  0  0  0  0  0  0
   -3.7418   22.7258  -27.6026 H   0  0  0  0  0  0  0  0  0  0  0  0
   -2.9957   21.5519  -32.5586 H   0  0  0  0  0  0  0  0  0  0  0  0
   -5.5970   25.5843  -28.9199 H   0  0  0  0  0  0  0  0  0  0  0  0
   -8.4182   24.2222  -32.6482 H   0  0  0  0  0  0  0  0  0  0  0  0
   -7.3069   22.9070  -33.1954 H   0  0  0  0  0  0  0  0  0  0  0  0
   -8.4354   22.4443  -30.5021 H   0  0  0  0  0  0  0  0  0  0  0  0
   -9.6821   22.5468  -31.8126 H   0  0  0  0  0  0  0  0  0  0  0  0
  -10.0220   20.0607  -31.0495 H   0  0  0  0  0  0  0  0  0  0  0  0
   -9.3958   17.7247  -31.6620 H   0  0  0  0  0  0  0  0  0  0  0  0
   -7.3188   17.2905  -32.9792 H   0  0  0  0  0  0  0  0  0  0  0  0
   -5.8646   19.1943  -33.6849 H   0  0  0  0  0  0  0  0  0  0  0  0
   -6.4767   21.5337  -33.0644 H   0  0  0  0  0  0  0  0  0  0  0  0
  1  2  1  0
  2  3  1  0
  3  4  2  0
  4  5  1  0
  5  6  2  0
  6  7  1  0
  7  8  2  0
  8  9  1  0
  9 10  2  0
 10 11  1  0
 11 12  1  0
 12 13  1  0
 13 14  1  0
 14 15  2  0
 15 16  1  0
 16 17  2  0
 17 18  1  0
 18 19  2  0
  8  3  1  0
 19 14  1  0
 11  7  1  0
  1 20  1  0
  1 21  1  0
  1 22  1  0
  5 23  1  0
  9 24  1  0
 12 25  1  0
 12 26  1  0
 13 27  1  0
 13 28  1  0
 15 29  1  0
 16 30  1  0
 17 31  1  0
 18 32  1  0
 19 33  1  0
M  END
>  <UniqueID>  (1) 
1

>  <SMILES>  (1) 
CSc1ncnc2c1cnn2CCc1ccccc1

>  <Energy>  (1) 
68.20210503105149

>  <Genealogy>  (1) 
CSc1ncnc2c1cnn2CCc1ccccc1 (3D coordinates assigned)
CSc1ncnc2c1cnn2CCc1ccccc1 (optimized conformer: 68.20210503105149 kcal/mol)

>  <smiles>  (1) 
CSc1ncnc2c1cnn2CCc1ccccc1

>  <score_type>  (1) 
oracle

>  <origin>  (1) 
adgpu

>  <m_score__min__energy>  (1) 
-7.21

>  <m_primary>  (1) 
energy

$$$$
1:0
     RDKit          3D

 55 58  0  0  0  0  0  0  0  0999 V2000
   -5.3190   23.1490  -32.3380 C   0  0  0  0  0  0  0  0  0  0  0  0
   -4.9290   23.7370  -30.9630 C   0  0  0  0  0  0  0  0  0  0  0  0
   -5.9420   23.2800  -29.8890 C   0  0  0  0  0  0  0  0  0  0  0  0
   -5.0600   25.2770  -31.0810 C   0  0  0  0  0  0  0  0  0  0  0  0
   -3.4980   23.2760  -30.5730 C   0  0  0  0  0  0  0  0  0  0  0  0
   -2.9560   22.0600  -31.0600 C   0  0  0  0  0  0  0  0  0  0  0  0
   -1.6610   21.6440  -30.7200 C   0  0  0  0  0  0  0  0  0  0  0  0
   -1.1330   20.3250  -31.2190 C   0  0  0  0  0  0  0  0  0  0  0  0
   -0.4330   20.5140  -32.5380 C   0  0  0  0  0  0  0  0  0  0  0  0
   -1.0800   21.1730  -33.5960 C   0  0  0  0  0  0  0  0  0  0  0  0
   -0.4160   21.3840  -34.8070 C   0  0  0  0  0  0  0  0  0  0  0  0
    0.9030   20.9460  -34.9690 C   0  0  0  0  0  0  0  0  0  0  0  0
    1.5620   21.1570  -36.1730 O   0  0  0  0  0  0  0  0  0  0  0  0
    1.5580   20.3000  -33.9160 C   0  0  0  0  0  0  0  0  0  0  0  0
    0.8960   20.0880  -32.7020 C   0  0  0  0  0  0  0  0  0  0  0  0
   -0.8890   22.4250  -29.8590 C   0  0  0  0  0  0  0  0  0  0  0  0
   -1.3900   23.6230  -29.3460 C   0  0  0  0  0  0  0  0  0  0  0  0
   -0.5470   24.4210  -28.4310 C   0  0  0  0  0  0  0  0  0  0  0  0
    0.7500   24.3060  -28.5280 N   0  0  0  0  0  0  0  0  0  0  0  0
    1.7390   24.9780  -27.7270 C   0  0  0  0  0  0  0  0  0  0  0  0
    3.0740   24.5640  -27.8110 C   0  0  0  0  0  0  0  0  0  0  0  0
    4.0650   25.2200  -27.0740 C   0  0  0  0  0  0  0  0  0  0  0  0
    3.7290   26.3080  -26.2550 C   0  0  0  0  0  0  0  0  0  0  0  0
    4.7090   26.9710  -25.5190 O   0  0  0  0  0  0  0  0  0  0  0  0
    2.3990   26.7340  -26.1770 C   0  0  0  0  0  0  0  0  0  0  0  0
    1.4070   26.0720  -26.9110 C   0  0  0  0  0  0  0  0  0  0  0  0
   -0.2550   26.5930  -26.8420 S   0  0  0  0  0  0  0  0  0  0  0  0
   -0.6230   27.0310  -25.4520 O   0  0  0  0  0  0  0  0  0  0  0  0
   -0.4960   27.7090  -27.8190 O   0  0  0  0  0  0  0  0  0  0  0  0
   -1.2030   25.1610  -27.2890 C   0  0  0  0  0  0  0  0  0  0  0  0
   -2.6760   24.0630  -29.7170 C   0  0  0  0  0  0  0  0  0  0  0  0
   -3.1150   25.2960  -29.2450 O   0  0  0  0  0  0  0  0  0  0  0  0
   -5.9215   22.2406  -32.1907 H   0  0  0  0  0  0  0  0  0  0  0  0
   -5.9050   23.8904  -32.9010 H   0  0  0  0  0  0  0  0  0  0  0  0
   -4.4080   22.8975  -32.9010 H   0  0  0  0  0  0  0  0  0  0  0  0
   -5.5254   23.4680  -28.8884 H   0  0  0  0  0  0  0  0  0  0  0  0
   -6.8802   23.8421  -30.0071 H   0  0  0  0  0  0  0  0  0  0  0  0
   -6.1415   22.2047  -30.0071 H   0  0  0  0  0  0  0  0  0  0  0  0
   -5.0977   25.7199  -30.0748 H   0  0  0  0  0  0  0  0  0  0  0  0
   -4.1927   25.6781  -31.6260 H   0  0  0  0  0  0  0  0  0  0  0  0
   -5.9826   25.5258  -31.6260 H   0  0  0  0  0  0  0  0  0  0  0  0
   -3.5665   21.4272  -31.7209 H   0  0  0  0  0  0  0  0  0  0  0  0
   -0.4226   19.9164  -30.4853 H   0  0  0  0  0  0  0  0  0  0  0  0
   -1.9736   19.6284  -31.3540 H   0  0  0  0  0  0  0  0  0  0  0  0
   -2.1147   21.5248  -33.4706 H   0  0  0  0  0  0  0  0  0  0  0  0
   -0.9307   21.8950  -35.6340 H   0  0  0  0  0  0  0  0  0  0  0  0
    2.5958   19.9579  -34.0424 H   0  0  0  0  0  0  0  0  0  0  0  0
    1.4173   19.5864  -31.8734 H   0  0  0  0  0  0  0  0  0  0  0  0
    0.1228   22.0940  -29.5821 H   0  0  0  0  0  0  0  0  0  0  0  0
    3.3447   23.7182  -28.4602 H   0  0  0  0  0  0  0  0  0  0  0  0
    5.1100   24.8821  -27.1367 H   0  0  0  0  0  0  0  0  0  0  0  0
    4.4750   27.5230  -24.7020 H   0  0  0  0  0  0  0  0  0  0  0  0
    2.1322   27.5893  -25.5389 H   0  0  0  0  0  0  0  0  0  0  0  0
   -1.2767   24.4911  -26.4197 H   0  0  0  0  0  0  0  0  0  0  0  0
   -2.2048   25.4854  -27.6071 H   0  0  0  0  0  0  0  0  0  0  0  0
  1  2  1  0
  2  3  1  0
  2  4  1  0
  2  5  1  0
  5  6  2  0
  6  7  1  0
  7  8  1  0
  8  9  1  0
  9 10  2  0
 10 11  1  0
 11 12  2  0
 12 13  1  0
 12 14  1  0
 14 15  2  0
  7 16  2  0
 16 17  1  0
 17 18  1  0
 18 19  2  0
 19 20  1  0
 20 21  2  0
 21 22  1  0
 22 23  2  0
 23 24  1  0
 23 25  1  0
 25 26  2  0
 26 27  1  0
 27 28  2  0
 27 29  2  0
 27 30  1  0
 17 31  2  0
 31 32  1  0
 31  5  1  0
 15  9  1  0
 30 18  1  0
 26 20  1  0
  1 33  1  0
  1 34  1  0
  1 35  1  0
  3 36  1  0
  3 37  1  0
  3 38  1  0
  4 39  1  0
  4 40  1  0
  4 41  1  0
  6 42  1  0
  8 43  1  0
  8 44  1  0
 10 45  1  0
 11 46  1  0
 14 47  1  0
 15 48  1  0
 16 49  1  0
 21 50  1  0
 22 51  1  0
 24 52  1  0
 25 53  1  0
 30 54  1  0
 30 55  1  0
M  CHG  2  13  -1  32  -1
M  END
>  <UniqueID>  (2) 
2

>  <SMILES>  (2) 
CC(C)(C)c1cc(Cc2ccc([O-])cc2)cc(C2=Nc3ccc(O)cc3S(=O)(=O)C2)c1[O-]

>  <Energy>  (2) 
70.73427109484864

>  <Genealogy>  (2) 
CC(C)(C)c1cc(Cc2ccc([O-])cc2)cc(C2=Nc3ccc(O)cc3S(=O)(=O)C2)c1[O-] (protonated)
CC(C)(C)c1cc(Cc2ccc([O-])cc2)cc(C2=Nc3ccc(O)cc3S(=O)(=O)C2)c1[O-] (3D coordinates assigned)
CC(C)(C)c1cc(Cc2ccc([O-])cc2)cc(C2=Nc3ccc(O)cc3S(=O)(=O)C2)c1[O-] (nonaromatic ring conformer: 70.73427109484864 kcal/mol)

>  <smiles>  (2) 
CC(C)(C)c1cc(Cc2ccc(O)cc2)cc(C2=Nc3ccc(O)cc3S(=O)(=O)C2)c1O

>  <score_type>  (2) 
oracle

>  <origin>  (2) 
adgpu

>  <m_score__min__energy>  (2) 
-11.44

>  <m_primary>  (2) 
energy

$$$$
2:0
     RDKit          3D

 48 51  0  0  0  0  0  0  0  0999 V2000
   -3.7630   24.9450  -30.4720 O   0  0  0  0  0  0  0  0  0  0  0  0
   -4.7270   24.2680  -30.0180 C   0  0  0  0  0  0  0  0  0  0  0  0
   -5.9570   24.0340  -30.8530 C   0  0  0  0  0  0  0  0  0  0  0  0
   -5.8780   22.7510  -31.6600 C   0  0  0  0  0  0  0  0  0  0  0  0
   -4.6780   22.4640  -32.3340 C   0  0  0  0  0  0  0  0  0  0  0  0
   -4.5500   21.3150  -33.1130 C   0  0  0  0  0  0  0  0  0  0  0  0
   -5.6190   20.4330  -33.2460 C   0  0  0  0  0  0  0  0  0  0  0  0
   -6.8350   20.6950  -32.6020 C   0  0  0  0  0  0  0  0  0  0  0  0
   -7.9130   19.8090  -32.7560 C   0  0  0  0  0  0  0  0  0  0  0  0
   -9.1320   20.0660  -32.1300 C   0  0  0  0  0  0  0  0  0  0  0  0
   -9.2870   21.2070  -31.3430 C   0  0  0  0  0  0  0  0  0  0  0  0
   -8.2240   22.0970  -31.1760 C   0  0  0  0  0  0  0  0  0  0  0  0
   -6.9800   21.8610  -31.8000 C   0  0  0  0  0  0  0  0  0  0  0  0
   -4.6330   23.6690  -28.7180 N   0  0  0  0  0  0  0  0  0  0  0  0
   -3.5260   23.9310  -27.8460 C   0  0  0  0  0  0  0  0  0  0  0  0
   -3.6500   24.9230  -26.8650 C   0  0  0  0  0  0  0  0  0  0  0  0
   -2.6110   25.1550  -25.9610 C   0  0  0  0  0  0  0  0  0  0  0  0
   -1.4380   24.4020  -26.0350 C   0  0  0  0  0  0  0  0  0  0  0  0
   -1.2930   23.4280  -27.0250 C   0  0  0  0  0  0  0  0  0  0  0  0
   -2.3260   23.1910  -27.9460 C   0  0  0  0  0  0  0  0  0  0  0  0
   -2.1080   22.2590  -29.0180 N   0  0  0  0  0  0  0  0  0  0  0  0
   -2.7020   20.9200  -28.9620 C   0  0  0  0  0  0  0  0  0  0  0  0
   -3.0450   20.4440  -30.3760 C   0  0  0  0  0  0  0  0  0  0  0  0
   -1.9310   20.5840  -31.2380 O   0  0  0  0  0  0  0  0  0  0  0  0
   -1.6220   21.9550  -31.4020 C   0  0  0  0  0  0  0  0  0  0  0  0
   -1.1480   22.5670  -30.0810 C   0  0  0  0  0  0  0  0  0  0  0  0
   -6.8302   23.9779  -30.1863 H   0  0  0  0  0  0  0  0  0  0  0  0
   -6.0423   24.8699  -31.5629 H   0  0  0  0  0  0  0  0  0  0  0  0
   -3.8277   23.1562  -32.2454 H   0  0  0  0  0  0  0  0  0  0  0  0
   -3.5996   21.1042  -33.6252 H   0  0  0  0  0  0  0  0  0  0  0  0
   -5.5082   19.5266  -33.8594 H   0  0  0  0  0  0  0  0  0  0  0  0
   -7.7952   18.9068  -33.3741 H   0  0  0  0  0  0  0  0  0  0  0  0
   -9.9726   19.3680  -32.2570 H   0  0  0  0  0  0  0  0  0  0  0  0
  -10.2507   21.4067  -30.8517 H   0  0  0  0  0  0  0  0  0  0  0  0
   -8.3576   22.9923  -30.5510 H   0  0  0  0  0  0  0  0  0  0  0  0
   -5.2920   22.8990  -28.4700 H   0  0  0  0  0  0  0  0  0  0  0  0
   -4.5705   25.5224  -26.8063 H   0  0  0  0  0  0  0  0  0  0  0  0
   -2.7172   25.9321  -25.1897 H   0  0  0  0  0  0  0  0  0  0  0  0
   -0.6269   24.5761  -25.3126 H   0  0  0  0  0  0  0  0  0  0  0  0
   -0.3635   22.8426  -27.0837 H   0  0  0  0  0  0  0  0  0  0  0  0
   -1.9852   20.2215  -28.5056 H   0  0  0  0  0  0  0  0  0  0  0  0
   -3.6210   20.9558  -28.3585 H   0  0  0  0  0  0  0  0  0  0  0  0
   -3.3408   19.3852  -30.3382 H   0  0  0  0  0  0  0  0  0  0  0  0
   -3.8704   21.0588  -30.7642 H   0  0  0  0  0  0  0  0  0  0  0  0
   -0.8254   22.0578  -32.1535 H   0  0  0  0  0  0  0  0  0  0  0  0
   -2.5287   22.4841  -31.7306 H   0  0  0  0  0  0  0  0  0  0  0  0
   -0.1650   22.1497  -29.8173 H   0  0  0  0  0  0  0  0  0  0  0  0
   -1.0695   23.6583  -30.1941 H   0  0  0  0  0  0  0  0  0  0  0  0
  1  2  2  0
  2  3  1  0
  3  4  1  0
  4  5  2  0
  5  6  1  0
  6  7  2  0
  7  8  1  0
  8  9  2  0
  9 10  1  0
 10 11  2  0
 11 12  1  0
 12 13  2  0
  2 14  1  0
 14 15  1  0
 15 16  2  0
 16 17  1  0
 17 18  2  0
 18 19  1  0
 19 20  2  0
 20 21  1  0
 21 22  1  0
 22 23  1  0
 23 24  1  0
 24 25  1  0
 25 26  1  0
 13  4  1  0
 20 15  1  0
 26 21  1  0
 13  8  1  0
  3 27  1  0
  3 28  1  0
  5 29  1  0
  6 30  1  0
  7 31  1  0
  9 32  1  0
 10 33  1  0
 11 34  1  0
 12 35  1  0
 14 36  1  0
 16 37  1  0
 17 38  1  0
 18 39  1  0
 19 40  1  0
 22 41  1  0
 22 42  1  0
 23 43  1  0
 23 44  1  0
 25 45  1  0
 25 46  1  0
 26 47  1  0
 26 48  1  0
M  END
>  <UniqueID>  (3) 
3

>  <SMILES>  (3) 
O=C(Cc1cccc2ccccc12)Nc1ccccc1N1CCOCC1

>  <Energy>  (3) 
65.87521843109207

>  <Genealogy>  (3) 
O=C(Cc1cccc2ccccc12)Nc1ccccc1N1CCOCC1 (3D coordinates assigned)
O=C(Cc1cccc2ccccc12)Nc1ccccc1N1CCOCC1 (nonaromatic ring conformer: 65.87521843109207 kcal/mol)

>  <smiles>  (3) 
O=C(Cc1cccc2ccccc12)Nc1ccccc1N1CCOCC1

>  <score_type>  (3) 
oracle

>  <origin>  (3) 
adgpu

>  <m_score__min__energy>  (3) 
-9.1199999999999992

>  <m_primary>  (3) 
energy

$$$$
3:0
     RDKit          3D

 22 23  0  0  0  0  0  0  0  0999 V2000
    0.8760   24.6190  -28.2120 O   0  0  0  0  0  0  0  0  0  0  0  0
    0.3710   23.4650  -28.2020 C   0  0  0  0  0  0  0  0  0  0  0  0
    0.8480   22.5160  -27.3070 O   0  0  0  0  0  0  0  0  0  0  0  0
   -0.7130   23.1220  -29.1320 C   0  0  0  0  0  0  0  0  0  0  0  0
   -0.6440   22.2430  -30.1920 C   0  0  0  0  0  0  0  0  0  0  0  0
   -1.8060   22.2110  -30.8030 O   0  0  0  0  0  0  0  0  0  0  0  0
   -2.6390   23.0250  -30.1900 C   0  0  0  0  0  0  0  0  0  0  0  0
   -4.0360   23.2420  -30.6350 C   0  0  0  0  0  0  0  0  0  0  0  0
   -4.8410   22.1200  -30.8950 C   0  0  0  0  0  0  0  0  0  0  0  0
   -6.1640   22.2680  -31.3270 C   0  0  0  0  0  0  0  0  0  0  0  0
   -7.1140   20.8230  -31.6470 Cl  0  0  0  0  0  0  0  0  0  0  0  0
   -6.7050   23.5560  -31.4960 C   0  0  0  0  0  0  0  0  0  0  0  0
   -8.0170   23.7520  -31.9280 O   0  0  0  0  0  0  0  0  0  0  0  0
   -5.9140   24.6760  -31.2240 C   0  0  0  0  0  0  0  0  0  0  0  0
   -4.5940   24.5300  -30.7870 C   0  0  0  0  0  0  0  0  0  0  0  0
   -3.8630   25.6740  -30.4850 O   0  0  0  0  0  0  0  0  0  0  0  0
   -1.9930   23.6340  -29.1230 C   0  0  0  0  0  0  0  0  0  0  0  0
    0.2437   21.6608  -30.4802 H   0  0  0  0  0  0  0  0  0  0  0  0
   -4.4254   21.1109  -30.7570 H   0  0  0  0  0  0  0  0  0  0  0  0
   -8.5980   24.5070  -31.5870 H   0  0  0  0  0  0  0  0  0  0  0  0
   -6.3349   25.6838  -31.3553 H   0  0  0  0  0  0  0  0  0  0  0  0
   -2.4129   24.3686  -28.4201 H   0  0  0  0  0  0  0  0  0  0  0  0
  1  2  2  0
  2  3  1  0
  2  4  1  0
  4  5  2  0
  5  6  1  0
  6  7  1  0
  7  8  1  0
  8  9  2  0
  9 10  1  0
 10 11  1  0
 10 12  2  0
 12 13  1  0
 12 14  1  0
 14 15  2  0
 15 16  1  0
  7 17  2  0
 17  4  1  0
 15  8  1  0
  5 18  1  0
  9 19  1  0
 13 20  1  0
 14 21  1  0
 17 22  1  0
M  CHG  2   3  -1  16  -1
M  END
>  <UniqueID>  (4) 
4

>  <SMILES>  (4) 
O=C([O-])c1coc(-c2cc(Cl)c(O)cc2[O-])c1

>  <Energy>  (4) 
53.214403178102344

>  <Genealogy>  (4) 
O=C([O-])c1coc(-c2cc(Cl)c(O)cc2[O-])c1 (protonated)
O=C([O-])c1coc(-c2cc(Cl)c(O)cc2[O-])c1 (3D coordinates assigned)
O=C([O-])c1coc(-c2cc(Cl)c(O)cc2[O-])c1 (optimized conformer: 53.214403178102344 kcal/mol)

>  <smiles>  (4) 
O=C(O)c1coc(-c2cc(Cl)c(O)cc2O)c1

>  <score_type>  (4) 
oracle

>  <origin>  (4) 
adgpu

>  <m_score__min__energy>  (4) 
-8.8000000000000007

>  <m_primary>  (4) 
energy

$$$$
4:0
     RDKit          3D

 61 64  0  0  0  0  0  0  0  0999 V2000
    1.1460   20.3880  -33.2440 C   0  0  0  0  0  0  0  0  0  0  0  0
   -0.3480   20.2470  -33.1400 C   0  0  0  0  0  0  0  0  0  0  0  0
   -1.1810   21.1750  -33.7730 C   0  0  0  0  0  0  0  0  0  0  0  0
   -2.5670   21.0780  -33.6450 C   0  0  0  0  0  0  0  0  0  0  0  0
   -3.1370   20.0590  -32.8820 C   0  0  0  0  0  0  0  0  0  0  0  0
   -2.3190   19.1420  -32.2410 C   0  0  0  0  0  0  0  0  0  0  0  0
   -0.9230   19.2240  -32.3650 C   0  0  0  0  0  0  0  0  0  0  0  0
   -0.0830   18.3210  -31.6410 N   0  0  0  0  0  0  0  0  0  0  0  0
    0.5000   18.6610  -30.0420 S   0  0  0  0  0  0  0  0  0  0  0  0
    1.8470   19.3250  -30.1340 O   0  0  0  0  0  0  0  0  0  0  0  0
    0.6590   17.3680  -29.2880 O   0  0  0  0  0  0  0  0  0  0  0  0
   -0.6050   19.7310  -29.1870 C   0  0  0  0  0  0  0  0  0  0  0  0
   -1.2340   19.3120  -28.0060 C   0  0  0  0  0  0  0  0  0  0  0  0
   -2.1560   20.1460  -27.3730 C   0  0  0  0  0  0  0  0  0  0  0  0
   -2.4630   21.3950  -27.9210 C   0  0  0  0  0  0  0  0  0  0  0  0
   -1.8300   21.8290  -29.1000 C   0  0  0  0  0  0  0  0  0  0  0  0
   -2.1920   23.0510  -29.7580 N   0  0  0  0  0  0  0  0  0  0  0  0
   -2.4460   24.3080  -29.1280 C   0  0  0  0  0  0  0  0  0  0  0  0
   -1.6980   25.3030  -29.3410 O   0  0  0  0  0  0  0  0  0  0  0  0
   -3.6330   24.4260  -28.2260 C   0  0  0  0  0  0  0  0  0  0  0  0
   -4.8560   24.4540  -29.0220 N   0  0  0  0  0  0  0  0  0  0  0  0
   -4.8790   24.9640  -30.3560 C   0  0  0  0  0  0  0  0  0  0  0  0
   -3.9340   25.6730  -30.7850 O   0  0  0  0  0  0  0  0  0  0  0  0
   -5.9990   24.7130  -31.1890 N   0  0  0  0  0  0  0  0  0  0  0  0
   -6.4170   23.4060  -31.6050 C   0  0  0  0  0  0  0  0  0  0  0  0
   -7.7370   22.9870  -31.3720 C   0  0  0  0  0  0  0  0  0  0  0  0
   -8.1630   21.7190  -31.7880 C   0  0  0  0  0  0  0  0  0  0  0  0
   -7.2890   20.8790  -32.5050 C   0  0  0  0  0  0  0  0  0  0  0  0
   -7.6520   19.6050  -32.9720 O   0  0  0  0  0  0  0  0  0  0  0  0
   -6.7790   18.5540  -33.3010 C   0  0  0  0  0  0  0  0  0  0  0  0
   -6.5560   17.5570  -32.3410 C   0  0  0  0  0  0  0  0  0  0  0  0
   -5.7230   16.4680  -32.6270 C   0  0  0  0  0  0  0  0  0  0  0  0
   -5.0600   16.3960  -33.8560 C   0  0  0  0  0  0  0  0  0  0  0  0
   -5.2250   17.4150  -34.7970 C   0  0  0  0  0  0  0  0  0  0  0  0
   -6.0810   18.4890  -34.5250 C   0  0  0  0  0  0  0  0  0  0  0  0
   -5.9680   21.2950  -32.7170 C   0  0  0  0  0  0  0  0  0  0  0  0
   -5.5310   22.5450  -32.2700 C   0  0  0  0  0  0  0  0  0  0  0  0
   -0.9030   20.9910  -29.7240 C   0  0  0  0  0  0  0  0  0  0  0  0
    1.5816   20.4291  -32.2347 H   0  0  0  0  0  0  0  0  0  0  0  0
    1.5589   19.5248  -33.7867 H   0  0  0  0  0  0  0  0  0  0  0  0
    1.3901   21.3132  -33.7867 H   0  0  0  0  0  0  0  0  0  0  0  0
   -0.7417   21.9847  -34.3742 H   0  0  0  0  0  0  0  0  0  0  0  0
   -3.2147   21.8102  -34.1493 H   0  0  0  0  0  0  0  0  0  0  0  0
   -4.2305   19.9835  -32.7894 H   0  0  0  0  0  0  0  0  0  0  0  0
   -2.7669   18.3440  -31.6306 H   0  0  0  0  0  0  0  0  0  0  0  0
   -1.0005   18.3257  -27.5786 H   0  0  0  0  0  0  0  0  0  0  0  0
   -2.6421   19.8204  -26.4415 H   0  0  0  0  0  0  0  0  0  0  0  0
   -3.2034   22.0418  -27.4277 H   0  0  0  0  0  0  0  0  0  0  0  0
   -3.6607   23.5636  -27.5437 H   0  0  0  0  0  0  0  0  0  0  0  0
   -3.5565   25.3561  -27.6437 H   0  0  0  0  0  0  0  0  0  0  0  0
   -5.7610   24.1370  -28.6060 H   0  0  0  0  0  0  0  0  0  0  0  0
   -8.4411   23.6590  -30.8594 H   0  0  0  0  0  0  0  0  0  0  0  0
   -9.1825   21.3786  -31.5541 H   0  0  0  0  0  0  0  0  0  0  0  0
   -7.0390   17.6306  -31.3555 H   0  0  0  0  0  0  0  0  0  0  0  0
   -5.5901   15.6681  -31.8837 H   0  0  0  0  0  0  0  0  0  0  0  0
   -4.4094   15.5381  -34.0815 H   0  0  0  0  0  0  0  0  0  0  0  0
   -4.6819   17.3736  -35.7527 H   0  0  0  0  0  0  0  0  0  0  0  0
   -6.2100   19.2873  -35.2707 H   0  0  0  0  0  0  0  0  0  0  0  0
   -5.2664   20.6298  -33.2416 H   0  0  0  0  0  0  0  0  0  0  0  0
   -4.4893   22.8547  -32.4401 H   0  0  0  0  0  0  0  0  0  0  0  0
   -0.4022   21.3229  -30.6454 H   0  0  0  0  0  0  0  0  0  0  0  0
  1  2  1  0
  2  3  2  0
  3  4  1  0
  4  5  2  0
  5  6  1  0
  6  7  2  0
  7  8  1  0
  8  9  1  0
  9 10  2  0
  9 11  2  0
  9 12  1  0
 12 13  2  0
 13 14  1  0
 14 15  2  0
 15 16  1  0
 16 17  1  0
 17 18  1  0
 18 19  2  0
 18 20  1  0
 20 21  1  0
 21 22  1  0
 22 23  2  0
 22 24  1  0
 24 25  1  0
 25 26  2  0
 26 27  1  0
 27 28  2  0
 28 29  1  0
 29 30  1  0
 30 31  2  0
 31 32  1  0
 32 33  2  0
 33 34  1  0
 34 35  2  0
 28 36  1  0
 36 37  2  0
 16 38  2  0
  7  2  1  0
 38 12  1  0
 37 25  1  0
 35 30  1  0
  1 39  1  0
  1 40  1  0
  1 41  1  0
  3 42  1  0
  4 43  1  0
  5 44  1  0
  6 45  1  0
 13 46  1  0
 14 47  1  0
 15 48  1  0
 20 49  1  0
 20 50  1  0
 21 51  1  0
 26 52  1  0
 27 53  1  0
 31 54  1  0
 32 55  1  0
 33 56  1  0
 34 57  1  0
 35 58  1  0
 36 59  1  0
 37 60  1  0
 38 61  1  0
M  CHG  3   8  -1  17  -1  24  -1
M  END
>  <UniqueID>  (5) 
5

>  <SMILES>  (5) 
Cc1ccccc1[N-]S(=O)(=O)c1cccc([N-]C(=O)CNC(=O)[N-]c2ccc(Oc3ccccc3)cc2)c1

>  <Energy>  (5) 
82.52357138112784

>  <Genealogy>  (5) 
Cc1ccccc1[N-]S(=O)(=O)c1cccc([N-]C(=O)CNC(=O)[N-]c2ccc(Oc3ccccc3)cc2)c1 (protonated)
Cc1ccccc1[N-]S(=O)(=O)c1cccc([N-]C(=O)CNC(=O)[N-]c2ccc(Oc3ccccc3)cc2)c1 (3D coordinates assigned)
Cc1ccccc1[N-]S(=O)(=O)c1cccc([N-]C(=O)CNC(=O)[N-]c2ccc(Oc3ccccc3)cc2)c1 (optimized conformer: 82.52357138112784 kcal/mol)

>  <smiles>  (5) 
Cc1ccccc1NS(=O)(=O)c1cccc(NC(=O)CNC(=O)Nc2ccc(Oc3ccccc3)cc2)c1

>  <score_type>  (5) 
oracle

>  <origin>  (5) 
adgpu

>  <m_score__min__energy>  (5) 
-12.4

>  <m_primary>  (5) 
energy

$$$$
5:0
     RDKit          3D

 44 46  0  0  0  0  0  0  0  0999 V2000
   -1.6280   27.3860  -29.3450 H   0  0  0  0  0  0  0  0  0  0  0  0
   -0.9230   26.9000  -28.8040 O   0  0  0  0  0  0  0  0  0  0  0  0
   -1.1320   25.6180  -28.2970 C   0  0  0  0  0  0  0  0  0  0  0  0
   -0.2690   25.1250  -27.3130 C   0  0  0  0  0  0  0  0  0  0  0  0
    0.5582   25.7514  -26.9478 H   0  0  0  0  0  0  0  0  0  0  0  0
   -0.4510   23.8420  -26.7910 C   0  0  0  0  0  0  0  0  0  0  0  0
    0.2238   23.4688  -26.0065 H   0  0  0  0  0  0  0  0  0  0  0  0
   -1.4920   23.0270  -27.2640 C   0  0  0  0  0  0  0  0  0  0  0  0
   -1.7280   21.6780  -26.7080 C   0  0  0  0  0  0  0  0  0  0  0  0
   -1.9434   21.5968  -25.6324 H   0  0  0  0  0  0  0  0  0  0  0  0
   -1.6980   20.5780  -27.4070 N   0  0  0  0  0  0  0  0  0  0  0  0
   -1.6050   20.4500  -28.8350 C   0  0  0  0  0  0  0  0  0  0  0  0
   -2.6370   20.9660  -29.6300 C   0  0  0  0  0  0  0  0  0  0  0  0
   -3.5168   21.4245  -29.1549 H   0  0  0  0  0  0  0  0  0  0  0  0
   -2.5540   20.9010  -31.0240 C   0  0  0  0  0  0  0  0  0  0  0  0
   -3.3731   21.2995  -31.6407 H   0  0  0  0  0  0  0  0  0  0  0  0
   -1.4330   20.3310  -31.6380 C   0  0  0  0  0  0  0  0  0  0  0  0
   -1.3360   20.2810  -33.3950 S   0  0  0  0  0  0  0  0  0  0  0  0
   -0.7510   18.9620  -33.8110 O   0  0  0  0  0  0  0  0  0  0  0  0
   -0.4620   21.3850  -33.9200 O   0  0  0  0  0  0  0  0  0  0  0  0
   -2.9250   20.4380  -34.0720 N   0  0  0  0  0  0  0  0  0  0  0  0
   -4.1010   19.7790  -33.5820 C   0  0  0  0  0  0  0  0  0  0  0  0
   -5.1650   20.5620  -33.1230 C   0  0  0  0  0  0  0  0  0  0  0  0
   -5.0807   21.6587  -33.1355 H   0  0  0  0  0  0  0  0  0  0  0  0
   -6.3360   19.9610  -32.6480 C   0  0  0  0  0  0  0  0  0  0  0  0
   -7.1672   20.5872  -32.2918 H   0  0  0  0  0  0  0  0  0  0  0  0
   -6.4550   18.5590  -32.6240 C   0  0  0  0  0  0  0  0  0  0  0  0
   -7.6060   17.9090  -32.1570 O   0  0  0  0  0  0  0  0  0  0  0  0
   -8.7710   18.5780  -31.6880 C   0  0  0  0  0  0  0  0  0  0  0  0
   -8.7748   18.5802  -30.5880 H   0  0  0  0  0  0  0  0  0  0  0  0
   -8.7722   19.6144  -32.0567 H   0  0  0  0  0  0  0  0  0  0  0  0
   -9.6667   18.0566  -32.0567 H   0  0  0  0  0  0  0  0  0  0  0  0
   -5.3880   17.7780  -33.0830 C   0  0  0  0  0  0  0  0  0  0  0  0
   -5.4699   16.6812  -33.0680 H   0  0  0  0  0  0  0  0  0  0  0  0
   -4.2200   18.3780  -33.5600 C   0  0  0  0  0  0  0  0  0  0  0  0
   -3.3901   17.7520  -33.9198 H   0  0  0  0  0  0  0  0  0  0  0  0
   -0.3850   19.8370  -30.8480 C   0  0  0  0  0  0  0  0  0  0  0  0
    0.4988   19.3895  -31.3261 H   0  0  0  0  0  0  0  0  0  0  0  0
   -0.4610   19.9120  -29.4550 C   0  0  0  0  0  0  0  0  0  0  0  0
    0.3760   19.5494  -28.8403 H   0  0  0  0  0  0  0  0  0  0  0  0
   -2.3770   23.5360  -28.2270 C   0  0  0  0  0  0  0  0  0  0  0  0
   -3.2209   22.9206  -28.5723 H   0  0  0  0  0  0  0  0  0  0  0  0
   -2.1940   24.8200  -28.7510 C   0  0  0  0  0  0  0  0  0  0  0  0
   -3.0720   25.2970  -29.7160 O   0  0  0  0  0  0  0  0  0  0  0  0
  1  2  1  0
  2  3  1  0
  3  4  2  0
  4  5  1  0
  4  6  1  0
  6  7  1  0
  6  8  2  0
  8  9  1  0
  9 10  1  0
  9 11  2  0
 11 12  1  0
 12 13  2  0
 13 14  1  0
 13 15  1  0
 15 16  1  0
 15 17  2  0
 17 18  1  0
 18 19  2  0
 18 20  2  0
 18 21  1  0
 21 22  1  0
 22 23  2  0
 23 24  1  0
 23 25  1  0
 25 26  1  0
 25 27  2  0
 27 28  1  0
 28 29  1  0
 29 30  1  0
 29 31  1  0
 29 32  1  0
 27 33  1  0
 33 34  1  0
 33 35  2  0
 35 36  1  0
 17 37  1  0
 37 38  1  0
 37 39  2  0
 39 40  1  0
  8 41  1  0
 41 42  1  0
 41 43  2  0
 43 44  1  0
 43  3  1  0
 39 12  1  0
 35 22  1  0
M  CHG  2  21  -1  44  -1
M  END
>  <UniqueID>  (6) 
6

>  <SMILES>  (6) 
COc1ccc([N-]S(=O)(=O)c2ccc(/N=C\c3ccc(O)c([O-])c3)cc2)cc1

>  <Energy>  (6) 
60.565682064404456

>  <Genealogy>  (6) 
COc1ccc([N-]S(=O)(=O)c2ccc(N=Cc3ccc(O)c([O-])c3)cc2)cc1 (protonated)
COc1ccc([N-]S(=O)(=O)c2ccc(/N=C\c3ccc(O)c([O-])c3)cc2)cc1 (cis-trans isomerization)
COc1ccc([N-]S(=O)(=O)c2ccc(/N=C\c3ccc(O)c([O-])c3)cc2)cc1 (3D coordinates assigned)
COc1ccc([N-]S(=O)(=O)c2ccc(/N=C\c3ccc(O)c([O-])c3)cc2)cc1 (optimized conformer: 60.565682064404456 kcal/mol)

>  <smiles>  (6) 
COc1ccc(NS(=O)(=O)c2ccc(N=Cc3ccc(O)c(O)c3)cc2)cc1

>  <score_type>  (6) 
oracle

>  <origin>  (6) 
adgpu

>  <m_score__min__energy>  (6) 
-10.890000000000001

>  <m_primary>  (6) 
energy

$$$$
6:0
     RDKit          3D

 42 44  0  0  0  0  0  0  0  0999 V2000
   -5.0956   13.8083  -34.0761 H   0  0  0  0  0  0  0  0  0  0  0  0
   -4.8080   14.8660  -34.1680 C   0  0  0  0  0  0  0  0  0  0  0  0
   -5.5210   15.8650  -33.3500 C   0  0  0  0  0  0  0  0  0  0  0  0
   -5.2590   15.9320  -32.1190 O   0  0  0  0  0  0  0  0  0  0  0  0
   -6.5410   16.7080  -33.9140 N   0  0  0  0  0  0  0  0  0  0  0  0
   -7.0740   16.3510  -34.7390 H   0  0  0  0  0  0  0  0  0  0  0  0
   -6.9790   17.9410  -33.3150 C   0  0  0  0  0  0  0  0  0  0  0  0
   -7.9800   17.9610  -32.3260 C   0  0  0  0  0  0  0  0  0  0  0  0
   -8.4555   17.0210  -32.0093 H   0  0  0  0  0  0  0  0  0  0  0  0
   -8.3730   19.1700  -31.7440 C   0  0  0  0  0  0  0  0  0  0  0  0
   -9.1671   19.1790  -30.9829 H   0  0  0  0  0  0  0  0  0  0  0  0
   -7.7600   20.3690  -32.1260 C   0  0  0  0  0  0  0  0  0  0  0  0
   -8.2730   21.8920  -31.4100 S   0  0  0  0  0  0  0  0  0  0  0  0
   -8.9970   21.6330  -30.1180 O   0  0  0  0  0  0  0  0  0  0  0  0
   -9.2160   22.6040  -32.3400 O   0  0  0  0  0  0  0  0  0  0  0  0
   -6.8560   22.8920  -31.1110 C   0  0  0  0  0  0  0  0  0  0  0  0
   -5.5710   22.3350  -31.1880 C   0  0  0  0  0  0  0  0  0  0  0  0
   -5.4486   21.2666  -31.4194 H   0  0  0  0  0  0  0  0  0  0  0  0
   -4.4450   23.1360  -30.9710 C   0  0  0  0  0  0  0  0  0  0  0  0
   -3.4384   22.6963  -31.0286 H   0  0  0  0  0  0  0  0  0  0  0  0
   -4.5980   24.4950  -30.6810 C   0  0  0  0  0  0  0  0  0  0  0  0
   -3.4780   25.2900  -30.4650 O   0  0  0  0  0  0  0  0  0  0  0  0
   -5.8760   25.0560  -30.6120 C   0  0  0  0  0  0  0  0  0  0  0  0
   -5.9948   26.1260  -30.3861 H   0  0  0  0  0  0  0  0  0  0  0  0
   -7.0050   24.2580  -30.8300 C   0  0  0  0  0  0  0  0  0  0  0  0
   -8.0100   24.7025  -30.7809 H   0  0  0  0  0  0  0  0  0  0  0  0
   -6.7550   20.3530  -33.1020 C   0  0  0  0  0  0  0  0  0  0  0  0
   -6.2750   21.2933  -33.4109 H   0  0  0  0  0  0  0  0  0  0  0  0
   -6.3610   19.1450  -33.6840 C   0  0  0  0  0  0  0  0  0  0  0  0
   -5.5597   19.1383  -34.4376 H   0  0  0  0  0  0  0  0  0  0  0  0
   -3.8240   15.1920  -35.0190 C   0  0  0  0  0  0  0  0  0  0  0  0
   -3.5522   16.2534  -35.1173 H   0  0  0  0  0  0  0  0  0  0  0  0
   -3.0820   14.2000  -35.8350 C   0  0  0  0  0  0  0  0  0  0  0  0
   -2.7050   12.9830  -35.2460 C   0  0  0  0  0  0  0  0  0  0  0  0
   -2.9705   12.7772  -34.1985 H   0  0  0  0  0  0  0  0  0  0  0  0
   -2.0130   12.0560  -35.9630 N   0  0  0  0  0  0  0  0  0  0  0  0
   -1.6580   12.2720  -37.2560 C   0  0  0  0  0  0  0  0  0  0  0  0
   -1.1045   11.4995  -37.8100 H   0  0  0  0  0  0  0  0  0  0  0  0
   -1.9940   13.4710  -37.8820 C   0  0  0  0  0  0  0  0  0  0  0  0
   -1.7027   13.6523  -38.9271 H   0  0  0  0  0  0  0  0  0  0  0  0
   -2.7040   14.4400  -37.1700 C   0  0  0  0  0  0  0  0  0  0  0  0
   -2.9684   15.3923  -37.6528 H   0  0  0  0  0  0  0  0  0  0  0  0
  1  2  1  0
  2  3  1  0
  3  4  2  0
  3  5  1  0
  5  6  1  0
  5  7  1  0
  7  8  2  0
  8  9  1  0
  8 10  1  0
 10 11  1  0
 10 12  2  0
 12 13  1  0
 13 14  2  0
 13 15  2  0
 13 16  1  0
 16 17  2  0
 17 18  1  0
 17 19  1  0
 19 20  1  0
 19 21  2  0
 21 22  1  0
 21 23  1  0
 23 24  1  0
 23 25  2  0
 25 26  1  0
 12 27  1  0
 27 28  1  0
 27 29  2  0
 29 30  1  0
  2 31  2  0
 31 32  1  0
 31 33  1  0
 33 34  2  0
 34 35  1  0
 34 36  1  0
 36 37  2  0
 37 38  1  0
 37 39  1  0
 39 40  1  0
 39 41  2  0
 41 42  1  0
 29  7  1  0
 41 33  1  0
 25 16  1  0
M  CHG  1  22  -1
M  END
>  <UniqueID>  (7) 
7

>  <SMILES>  (7) 
O=C(/C=C/c1cccnc1)Nc1ccc(S(=O)(=O)c2ccc([O-])cc2)cc1

>  <Energy>  (7) 
53.63914608378505

>  <Genealogy>  (7) 
O=C(C=Cc1cccnc1)Nc1ccc(S(=O)(=O)c2ccc([O-])cc2)cc1 (protonated)
O=C(/C=C/c1cccnc1)Nc1ccc(S(=O)(=O)c2ccc([O-])cc2)cc1 (cis-trans isomerization)
O=C(/C=C/c1cccnc1)Nc1ccc(S(=O)(=O)c2ccc([O-])cc2)cc1 (3D coordinates assigned)
O=C(/C=C/c1cccnc1)Nc1ccc(S(=O)(=O)c2ccc([O-])cc2)cc1 (optimized conformer: 53.63914608378505 kcal/mol)

>  <smiles>  (7) 
O=C(C=Cc1cccnc1)Nc1ccc(S(=O)(=O)c2ccc(O)cc2)cc1

>  <score_type>  (7) 
oracle

>  <origin>  (7) 
adgpu

>  <m_score__min__energy>  (7) 
-11.52

>  <m_primary>  (7) 
energy

$$$$
7:0
     RDKit          3D

 45 47  0  0  0  0  0  0  0  0999 V2000
   -1.2730   20.2350  -30.0550 C   0  0  0  0  0  0  0  0  0  0  0  0
   -1.0210   21.8980  -30.7500 S   0  0  0  0  0  0  0  0  0  0  0  0
   -1.5010   22.7370  -29.2320 C   0  0  0  0  0  0  0  0  0  0  0  0
   -0.5400   22.9100  -28.2260 C   0  0  0  0  0  0  0  0  0  0  0  0
   -0.8550   23.6160  -27.0620 C   0  0  0  0  0  0  0  0  0  0  0  0
   -2.1300   24.1600  -26.8990 C   0  0  0  0  0  0  0  0  0  0  0  0
   -3.0970   23.9900  -27.8930 C   0  0  0  0  0  0  0  0  0  0  0  0
   -2.8010   23.2600  -29.0540 C   0  0  0  0  0  0  0  0  0  0  0  0
   -3.8160   23.1050  -30.0550 N   0  0  0  0  0  0  0  0  0  0  0  0
   -4.3190   24.2060  -30.8210 C   0  0  0  0  0  0  0  0  0  0  0  0
   -3.8610   25.3670  -30.6440 O   0  0  0  0  0  0  0  0  0  0  0  0
   -5.3640   23.9780  -31.7710 N   0  0  0  0  0  0  0  0  0  0  0  0
   -6.0150   22.7210  -31.9880 C   0  0  0  0  0  0  0  0  0  0  0  0
   -7.3750   22.4420  -32.0670 C   0  0  0  0  0  0  0  0  0  0  0  0
   -8.5070   23.4190  -31.9340 C   0  0  0  0  0  0  0  0  0  0  0  0
   -7.5210   21.1220  -32.3490 N   0  0  0  0  0  0  0  0  0  0  0  0
   -8.7950   20.4090  -32.4830 C   0  0  0  0  0  0  0  0  0  0  0  0
   -6.3140   20.5800  -32.5100 N   0  0  0  0  0  0  0  0  0  0  0  0
   -6.0420   19.2160  -32.8830 C   0  0  0  0  0  0  0  0  0  0  0  0
   -5.7700   18.8920  -34.2210 C   0  0  0  0  0  0  0  0  0  0  0  0
   -5.5160   17.5660  -34.5870 C   0  0  0  0  0  0  0  0  0  0  0  0
   -5.5430   16.5560  -33.6210 C   0  0  0  0  0  0  0  0  0  0  0  0
   -5.8250   16.8700  -32.2890 C   0  0  0  0  0  0  0  0  0  0  0  0
   -6.0770   18.1950  -31.9190 C   0  0  0  0  0  0  0  0  0  0  0  0
   -5.3900   21.5380  -32.2990 C   0  0  0  0  0  0  0  0  0  0  0  0
   -4.1460   21.3670  -32.3970 O   0  0  0  0  0  0  0  0  0  0  0  0
   -1.2644   20.2915  -28.9565 H   0  0  0  0  0  0  0  0  0  0  0  0
   -2.2414   19.8387  -30.3942 H   0  0  0  0  0  0  0  0  0  0  0  0
   -0.4654   19.5696  -30.3942 H   0  0  0  0  0  0  0  0  0  0  0  0
    0.4676   22.4876  -28.3537 H   0  0  0  0  0  0  0  0  0  0  0  0
   -0.0980   23.7431  -26.2740 H   0  0  0  0  0  0  0  0  0  0  0  0
   -2.3739   24.7236  -25.9864 H   0  0  0  0  0  0  0  0  0  0  0  0
   -4.0964   24.4312  -27.7646 H   0  0  0  0  0  0  0  0  0  0  0  0
   -4.0530   22.1380  -30.3730 H   0  0  0  0  0  0  0  0  0  0  0  0
   -8.7139   23.5976  -30.8685 H   0  0  0  0  0  0  0  0  0  0  0  0
   -8.2314   24.3676  -32.4180 H   0  0  0  0  0  0  0  0  0  0  0  0
   -9.4051   23.0077  -32.4180 H   0  0  0  0  0  0  0  0  0  0  0  0
   -9.1963   20.1844  -31.4838 H   0  0  0  0  0  0  0  0  0  0  0  0
   -9.5109   21.0376  -33.0329 H   0  0  0  0  0  0  0  0  0  0  0  0
   -8.6336   19.4701  -33.0329 H   0  0  0  0  0  0  0  0  0  0  0  0
   -5.7565   19.6835  -34.9847 H   0  0  0  0  0  0  0  0  0  0  0  0
   -5.2949   17.3179  -35.6356 H   0  0  0  0  0  0  0  0  0  0  0  0
   -5.3422   15.5137  -33.9095 H   0  0  0  0  0  0  0  0  0  0  0  0
   -5.8488   16.0739  -31.5303 H   0  0  0  0  0  0  0  0  0  0  0  0
   -6.3032   18.4382  -30.8703 H   0  0  0  0  0  0  0  0  0  0  0  0
  1  2  1  0
  2  3  1  0
  3  4  2  0
  4  5  1  0
  5  6  2  0
  6  7  1  0
  7  8  2  0
  8  9  1  0
  9 10  1  0
 10 11  2  0
 10 12  1  0
 12 13  1  0
 13 14  2  0
 14 15  1  0
 14 16  1  0
 16 17  1  0
 16 18  1  0
 18 19  1  0
 19 20  2  0
 20 21  1  0
 21 22  2  0
 22 23  1  0
 23 24  2  0
 18 25  1  0
 25 26  2  0
  8  3  1  0
 25 13  1  0
 24 19  1  0
  1 27  1  0
  1 28  1  0
  1 29  1  0
  4 30  1  0
  5 31  1  0
  6 32  1  0
  7 33  1  0
  9 34  1  0
 15 35  1  0
 15 36  1  0
 15 37  1  0
 17 38  1  0
 17 39  1  0
 17 40  1  0
 20 41  1  0
 21 42  1  0
 22 43  1  0
 23 44  1  0
 24 45  1  0
M  CHG  1  12  -1
M  END
>  <UniqueID>  (8) 
8

>  <SMILES>  (8) 
CSc1ccccc1NC(=O)[N-]c1c(C)n(C)n(-c2ccccc2)c1=O

>  <Energy>  (8) 
94.20517095686428

>  <Genealogy>  (8) 
CSc1ccccc1NC(=O)[N-]c1c(C)n(C)n(-c2ccccc2)c1=O (protonated)
CSc1ccccc1NC(=O)[N-]c1c(C)n(C)n(-c2ccccc2)c1=O (3D coordinates assigned)
CSc1ccccc1NC(=O)[N-]c1c(C)n(C)n(-c2ccccc2)c1=O (optimized conformer: 94.20517095686428 kcal/mol)

>  <smiles>  (8) 
CSc1ccccc1NC(=O)Nc1c(C)n(C)n(-c2ccccc2)c1=O

>  <score_type>  (8) 
oracle

>  <origin>  (8) 
adgpu

>  <m_score__min__energy>  (8) 
-9.9800000000000004

>  <m_primary>  (8) 
energy

$$$$
8:0
     RDKit          3D

 23 24  0  0  0  0  0  0  0  0999 V2000
   -7.7770   22.1980  -30.1140 O   0  0  0  0  0  0  0  0  0  0  0  0
   -6.9820   22.6010  -31.0080 C   0  0  0  0  0  0  0  0  0  0  0  0
   -6.8540   21.8690  -32.2380 N   0  0  0  0  0  0  0  0  0  0  0  0
   -7.2610   20.4980  -32.3990 C   0  0  0  0  0  0  0  0  0  0  0  0
   -6.3550   19.5710  -32.9410 C   0  0  0  0  0  0  0  0  0  0  0  0
   -6.7200   18.2290  -33.0860 C   0  0  0  0  0  0  0  0  0  0  0  0
   -7.9840   17.7970  -32.6780 C   0  0  0  0  0  0  0  0  0  0  0  0
   -8.8840   18.7070  -32.1180 C   0  0  0  0  0  0  0  0  0  0  0  0
   -8.5250   20.0510  -31.9710 C   0  0  0  0  0  0  0  0  0  0  0  0
   -6.2460   23.8170  -30.8030 N   0  0  0  0  0  0  0  0  0  0  0  0
   -6.6630   24.9010  -30.1260 C   0  0  0  0  0  0  0  0  0  0  0  0
   -5.6510   25.8320  -30.1480 C   0  0  0  0  0  0  0  0  0  0  0  0
   -4.5960   25.3380  -30.8290 N   0  0  0  0  0  0  0  0  0  0  0  0
   -4.9940   24.1060  -31.2140 C   0  0  0  0  0  0  0  0  0  0  0  0
   -6.5490   22.3890  -33.0900 H   0  0  0  0  0  0  0  0  0  0  0  0
   -5.3536   19.9026  -33.2528 H   0  0  0  0  0  0  0  0  0  0  0  0
   -6.0097   17.5115  -33.5226 H   0  0  0  0  0  0  0  0  0  0  0  0
   -8.2705   16.7417  -32.7974 H   0  0  0  0  0  0  0  0  0  0  0  0
   -9.8776   18.3658  -31.7918 H   0  0  0  0  0  0  0  0  0  0  0  0
   -9.2333   20.7611  -31.5192 H   0  0  0  0  0  0  0  0  0  0  0  0
   -7.6422   25.0221  -29.6396 H   0  0  0  0  0  0  0  0  0  0  0  0
   -5.6949   26.8273  -29.6817 H   0  0  0  0  0  0  0  0  0  0  0  0
   -4.3673   23.4155  -31.7975 H   0  0  0  0  0  0  0  0  0  0  0  0
  1  2  2  0
  2  3  1  0
  3  4  1  0
  4  5  2  0
  5  6  1  0
  6  7  2  0
  7  8  1  0
  8  9  2  0
  2 10  1  0
 10 11  1  0
 11 12  2  0
 12 13  1  0
 13 14  2  0
  9  4  1  0
 14 10  1  0
  3 15  1  0
  5 16  1  0
  6 17  1  0
  7 18  1  0
  8 19  1  0
  9 20  1  0
 11 21  1  0
 12 22  1  0
 14 23  1  0
M  END
>  <UniqueID>  (9) 
9

>  <SMILES>  (9) 
O=C(Nc1ccccc1)n1ccnc1

>  <Energy>  (9) 
56.68268514460224

>  <Genealogy>  (9) 
O=C(Nc1ccccc1)n1ccnc1 (3D coordinates assigned)
O=C(Nc1ccccc1)n1ccnc1 (optimized conformer: 56.68268514460224 kcal/mol)

>  <smiles>  (9) 
O=C(Nc1ccccc1)n1ccnc1

>  <score_type>  (9) 
oracle

>  <origin>  (9) 
adgpu

>  <m_score__min__energy>  (9) 
-6.0700000000000003

>  <m_primary>  (9) 
energy

$$$$
9:0
     RDKit          3D

 33 35  0  0  0  0  0  0  0  0999 V2000
   -6.4040   25.6750  -29.4940 C   0  0  0  0  0  0  0  0  0  0  0  0
   -5.6910   25.3740  -30.6900 O   0  0  0  0  0  0  0  0  0  0  0  0
   -4.9390   24.2070  -30.8940 C   0  0  0  0  0  0  0  0  0  0  0  0
   -5.4690   23.0730  -31.5380 C   0  0  0  0  0  0  0  0  0  0  0  0
   -4.6870   21.9210  -31.7250 C   0  0  0  0  0  0  0  0  0  0  0  0
   -5.2720   20.7430  -32.4060 C   0  0  0  0  0  0  0  0  0  0  0  0
   -4.7830   19.4490  -32.4270 C   0  0  0  0  0  0  0  0  0  0  0  0
   -5.7020   18.7570  -33.1970 C   0  0  0  0  0  0  0  0  0  0  0  0
   -5.6710   17.3170  -33.5510 C   0  0  0  0  0  0  0  0  0  0  0  0
   -4.4640   16.5920  -33.5670 C   0  0  0  0  0  0  0  0  0  0  0  0
   -4.4570   15.2340  -33.9030 C   0  0  0  0  0  0  0  0  0  0  0  0
   -5.6510   14.5850  -34.2280 C   0  0  0  0  0  0  0  0  0  0  0  0
   -6.8540   15.2930  -34.2150 C   0  0  0  0  0  0  0  0  0  0  0  0
   -6.8670   16.6500  -33.8800 C   0  0  0  0  0  0  0  0  0  0  0  0
   -6.6700   19.6060  -33.5990 N   0  0  0  0  0  0  0  0  0  0  0  0
   -6.3810   20.7770  -33.1100 O   0  0  0  0  0  0  0  0  0  0  0  0
   -3.3610   21.9130  -31.2590 C   0  0  0  0  0  0  0  0  0  0  0  0
   -2.8250   23.0340  -30.6190 C   0  0  0  0  0  0  0  0  0  0  0  0
   -1.5050   22.9900  -30.1700 O   0  0  0  0  0  0  0  0  0  0  0  0
   -3.6150   24.1800  -30.4370 C   0  0  0  0  0  0  0  0  0  0  0  0
   -3.0860   25.2980  -29.7990 O   0  0  0  0  0  0  0  0  0  0  0  0
   -5.7854   25.4138  -28.6227 H   0  0  0  0  0  0  0  0  0  0  0  0
   -6.6393   26.7492  -29.4679 H   0  0  0  0  0  0  0  0  0  0  0  0
   -7.3379   25.0944  -29.4679 H   0  0  0  0  0  0  0  0  0  0  0  0
   -6.5079   23.0891  -31.8991 H   0  0  0  0  0  0  0  0  0  0  0  0
   -3.8745   19.0601  -31.9438 H   0  0  0  0  0  0  0  0  0  0  0  0
   -3.5201   17.0969  -33.3136 H   0  0  0  0  0  0  0  0  0  0  0  0
   -3.5092   14.6758  -33.9114 H   0  0  0  0  0  0  0  0  0  0  0  0
   -5.6430   13.5176  -34.4937 H   0  0  0  0  0  0  0  0  0  0  0  0
   -7.7942   14.7817  -34.4691 H   0  0  0  0  0  0  0  0  0  0  0  0
   -7.8189   17.2013  -33.8733 H   0  0  0  0  0  0  0  0  0  0  0  0
   -2.7394   21.0164  -31.3993 H   0  0  0  0  0  0  0  0  0  0  0  0
   -1.0150   23.8190  -29.8570 H   0  0  0  0  0  0  0  0  0  0  0  0
  1  2  1  0
  2  3  1  0
  3  4  2  0
  4  5  1  0
  5  6  1  0
  6  7  2  0
  7  8  1  0
  8  9  1  0
  9 10  2  0
 10 11  1  0
 11 12  2  0
 12 13  1  0
 13 14  2  0
  8 15  2  0
 15 16  1  0
  5 17  2  0
 17 18  1  0
 18 19  1  0
 18 20  2  0
 20 21  1  0
 20  3  1  0
 16  6  1  0
 14  9  1  0
  1 22  1  0
  1 23  1  0
  1 24  1  0
  4 25  1  0
  7 26  1  0
 10 27  1  0
 11 28  1  0
 12 29  1  0
 13 30  1  0
 14 31  1  0
 17 32  1  0
 19 33  1  0
M  CHG  1  21  -1
M  END
>  <UniqueID>  (10) 
10

>  <SMILES>  (10) 
COc1cc(-c2cc(-c3ccccc3)no2)cc(O)c1[O-]

>  <Energy>  (10) 
68.39958586165952

>  <Genealogy>  (10) 
COc1cc(-c2cc(-c3ccccc3)no2)cc(O)c1[O-] (protonated)
COc1cc(-c2cc(-c3ccccc3)no2)cc(O)c1[O-] (3D coordinates assigned)
COc1cc(-c2cc(-c3ccccc3)no2)cc(O)c1[O-] (optimized conformer: 68.39958586165952 kcal/mol)

>  <smiles>  (10) 
COc1cc(-c2cc(-c3ccccc3)no2)cc(O)c1O

>  <score_type>  (10) 
oracle

>  <origin>  (10) 
adgpu

>  <m_score__min__energy>  (10) 
-9.2899999999999991

>  <m_primary>  (10) 
energy

$$$$
10:0
     RDKit          3D

 60 63  0  0  0  0  0  0  0  0999 V2000
   -9.2341   17.6664  -31.1184 H   0  0  0  0  0  0  0  0  0  0  0  0
   -8.6350   18.4420  -31.6180 C   0  0  0  0  0  0  0  0  0  0  0  0
   -7.5380   18.0780  -32.4020 C   0  0  0  0  0  0  0  0  0  0  0  0
   -7.2724   17.0161  -32.5110 H   0  0  0  0  0  0  0  0  0  0  0  0
   -6.7720   19.0590  -33.0520 C   0  0  0  0  0  0  0  0  0  0  0  0
   -5.6480   18.6800  -33.8710 N   0  0  0  0  0  0  0  0  0  0  0  0
   -4.3400   19.2340  -33.6170 C   0  0  0  0  0  0  0  0  0  0  0  0
   -3.2270   18.6250  -34.1040 N   0  0  0  0  0  0  0  0  0  0  0  0
   -1.9970   19.1450  -33.8700 C   0  0  0  0  0  0  0  0  0  0  0  0
   -0.8750   18.4880  -34.3940 O   0  0  0  0  0  0  0  0  0  0  0  0
    0.2060   19.1260  -35.0200 C   0  0  0  0  0  0  0  0  0  0  0  0
    0.5260   18.7550  -36.3310 C   0  0  0  0  0  0  0  0  0  0  0  0
   -0.0648   17.9783  -36.8386 H   0  0  0  0  0  0  0  0  0  0  0  0
    1.5900   19.3640  -36.9990 C   0  0  0  0  0  0  0  0  0  0  0  0
    1.8300   19.0710  -38.0317 H   0  0  0  0  0  0  0  0  0  0  0  0
    2.3510   20.3460  -36.3570 C   0  0  0  0  0  0  0  0  0  0  0  0
    3.4480   20.9720  -37.0480 C   0  0  0  0  0  0  0  0  0  0  0  0
    4.3300   21.4740  -37.6050 N   0  0  0  0  0  0  0  0  0  0  0  0
    2.0550   20.7080  -35.0380 C   0  0  0  0  0  0  0  0  0  0  0  0
    2.6566   21.4792  -34.5347 H   0  0  0  0  0  0  0  0  0  0  0  0
    0.9900   20.0900  -34.3500 C   0  0  0  0  0  0  0  0  0  0  0  0
    0.7010   20.3890  -33.0090 O   0  0  0  0  0  0  0  0  0  0  0  0
    1.0300   19.5550  -31.9040 C   0  0  0  0  0  0  0  0  0  0  0  0
    0.8192   20.0893  -30.9658 H   0  0  0  0  0  0  0  0  0  0  0  0
    0.4271   18.6359  -31.9460 H   0  0  0  0  0  0  0  0  0  0  0  0
    2.0980   19.2951  -31.9460 H   0  0  0  0  0  0  0  0  0  0  0  0
   -1.8770   20.3040  -33.1620 N   0  0  0  0  0  0  0  0  0  0  0  0
   -0.9370   20.7340  -33.0050 H   0  0  0  0  0  0  0  0  0  0  0  0
   -2.9830   20.9250  -32.6750 C   0  0  0  0  0  0  0  0  0  0  0  0
   -2.8500   22.0080  -31.9650 N   0  0  0  0  0  0  0  0  0  0  0  0
   -3.9110   22.8090  -31.4160 C   0  0  0  0  0  0  0  0  0  0  0  0
   -5.0390   23.1660  -32.1740 C   0  0  0  0  0  0  0  0  0  0  0  0
   -5.1366   22.8118  -33.2108 H   0  0  0  0  0  0  0  0  0  0  0  0
   -6.0360   23.9680  -31.6170 C   0  0  0  0  0  0  0  0  0  0  0  0
   -6.9204   24.2312  -32.2157 H   0  0  0  0  0  0  0  0  0  0  0  0
   -5.9220   24.4430  -30.2990 C   0  0  0  0  0  0  0  0  0  0  0  0
   -7.0110   25.3100  -29.7280 C   0  0  0  0  0  0  0  0  0  0  0  0
   -6.9685   25.2761  -28.6293 H   0  0  0  0  0  0  0  0  0  0  0  0
   -6.8709   26.3465  -30.0686 H   0  0  0  0  0  0  0  0  0  0  0  0
   -7.9898   24.9412  -30.0686 H   0  0  0  0  0  0  0  0  0  0  0  0
   -4.7750   24.1090  -29.5410 C   0  0  0  0  0  0  0  0  0  0  0  0
   -4.6070   24.5670  -28.1920 N   0  0  0  0  0  0  0  0  0  0  0  0
   -5.1640   24.1440  -27.4150 H   0  0  0  0  0  0  0  0  0  0  0  0
   -3.9550   25.3430  -27.9460 H   0  0  0  0  0  0  0  0  0  0  0  0
   -3.7760   23.3070  -30.1170 C   0  0  0  0  0  0  0  0  0  0  0  0
   -2.8730   23.0670  -29.5365 H   0  0  0  0  0  0  0  0  0  0  0  0
   -4.2090   20.3810  -32.9030 N   0  0  0  0  0  0  0  0  0  0  0  0
   -5.8080   17.6160  -34.8690 C   0  0  0  0  0  0  0  0  0  0  0  0
   -5.9529   16.6527  -34.3580 H   0  0  0  0  0  0  0  0  0  0  0  0
   -6.6837   17.8324  -35.4985 H   0  0  0  0  0  0  0  0  0  0  0  0
   -4.9074   17.5653  -35.4985 H   0  0  0  0  0  0  0  0  0  0  0  0
   -7.1120   20.4140  -32.8910 C   0  0  0  0  0  0  0  0  0  0  0  0
   -6.5184   21.1897  -33.3968 H   0  0  0  0  0  0  0  0  0  0  0  0
   -8.2040   20.7840  -32.0890 C   0  0  0  0  0  0  0  0  0  0  0  0
   -8.5920   22.2270  -31.9560 C   0  0  0  0  0  0  0  0  0  0  0  0
   -8.6630   22.4909  -30.8905 H   0  0  0  0  0  0  0  0  0  0  0  0
   -7.8314   22.8573  -32.4400 H   0  0  0  0  0  0  0  0  0  0  0  0
   -9.5661   22.3909  -32.4400 H   0  0  0  0  0  0  0  0  0  0  0  0
   -8.9730   19.7890  -31.4670 C   0  0  0  0  0  0  0  0  0  0  0  0
   -9.8450   20.0705  -30.8584 H   0  0  0  0  0  0  0  0  0  0  0  0
  1  2  1  0
  2  3  2  0
  3  4  1  0
  3  5  1  0
  5  6  1  0
  6  7  1  0
  7  8  1  0
  8  9  2  0
  9 10  1  0
 10 11  1  0
 11 12  2  0
 12 13  1  0
 12 14  1  0
 14 15  1  0
 14 16  2  0
 16 17  1  0
 17 18  3  0
 16 19  1  0
 19 20  1  0
 19 21  2  0
 21 22  1  0
 22 23  1  0
 23 24  1  0
 23 25  1  0
 23 26  1  0
  9 27  1  0
 27 28  1  0
 27 29  1  0
 29 30  2  0
 30 31  1  0
 31 32  2  0
 32 33  1  0
 32 34  1  0
 34 35  1  0
 34 36  2  0
 36 37  1  0
 37 38  1  0
 37 39  1  0
 37 40  1  0
 36 41  1  0
 41 42  1  0
 42 43  1  0
 42 44  1  0
 41 45  2  0
 45 46  1  0
 29 47  1  0
  6 48  1  0
 48 49  1  0
 48 50  1  0
 48 51  1  0
  5 52  2  0
 52 53  1  0
 52 54  1  0
 54 55  1  0
 55 56  1  0
 55 57  1  0
 55 58  1  0
 54 59  2  0
 59 60  1  0
 59  2  1  0
 47  7  2  0
 21 11  1  0
 45 31  1  0
M  END
>  <UniqueID>  (11) 
11

>  <SMILES>  (11) 
COc1cc(C#N)ccc1Oc1nc(N(C)c2cccc(C)c2)n/c(=N\c2ccc(C)c(N)c2)[nH]1

>  <Energy>  (11) 
80.39712566814691

>  <Genealogy>  (11) 
COc1cc(C#N)ccc1Oc1nc(N(C)c2cccc(C)c2)n/c(=N\c2ccc(C)c(N)c2)[nH]1 (cis-trans isomerization)
COc1cc(C#N)ccc1Oc1nc(N(C)c2cccc(C)c2)n/c(=N\c2ccc(C)c(N)c2)[nH]1 (3D coordinates assigned)
COc1cc(C#N)ccc1Oc1nc(N(C)c2cccc(C)c2)n/c(=N\c2ccc(C)c(N)c2)[nH]1 (optimized conformer: 80.39712566814691 kcal/mol)

>  <smiles>  (11) 
COc1cc(C#N)ccc1Oc1nc(N(C)c2cccc(C)c2)nc(=Nc2ccc(C)c(N)c2)[nH]1

>  <score_type>  (11) 
oracle

>  <origin>  (11) 
adgpu

>  <m_score__min__energy>  (11) 
-10.17

>  <m_primary>  (11) 
energy

$$$$
11:0
     RDKit          3D

 32 34  0  0  0  0  0  0  0  0999 V2000
   -4.1690   15.4569  -35.0922 H   0  0  0  0  0  0  0  0  0  0  0  0
   -4.7240   16.3000  -34.6550 C   0  0  0  0  0  0  0  0  0  0  0  0
   -4.2280   17.5620  -34.7490 N   0  0  0  0  0  0  0  0  0  0  0  0
   -4.8830   18.6300  -34.2210 C   0  0  0  0  0  0  0  0  0  0  0  0
   -4.4501   19.6369  -34.3139 H   0  0  0  0  0  0  0  0  0  0  0  0
   -6.1100   18.4560  -33.5570 C   0  0  0  0  0  0  0  0  0  0  0  0
   -6.8350   19.6150  -32.9780 C   0  0  0  0  0  0  0  0  0  0  0  0
   -6.2570   20.7240  -32.3710 C   0  0  0  0  0  0  0  0  0  0  0  0
   -5.1875   20.9292  -32.2156 H   0  0  0  0  0  0  0  0  0  0  0  0
   -7.3390   21.5130  -32.0060 C   0  0  0  0  0  0  0  0  0  0  0  0
   -7.3060   22.6540  -31.3780 N   0  0  0  0  0  0  0  0  0  0  0  0
   -6.1330   23.4050  -31.0300 C   0  0  0  0  0  0  0  0  0  0  0  0
   -4.8660   22.8040  -30.9650 C   0  0  0  0  0  0  0  0  0  0  0  0
   -4.7539   21.7249  -31.1464 H   0  0  0  0  0  0  0  0  0  0  0  0
   -3.7490   23.5880  -30.6680 C   0  0  0  0  0  0  0  0  0  0  0  0
   -2.7555   23.1216  -30.5942 H   0  0  0  0  0  0  0  0  0  0  0  0
   -3.8860   24.9250  -30.4700 N   0  0  0  0  0  0  0  0  0  0  0  0
   -5.0980   25.5370  -30.5570 C   0  0  0  0  0  0  0  0  0  0  0  0
   -5.1787   26.6221  -30.3958 H   0  0  0  0  0  0  0  0  0  0  0  0
   -6.2400   24.7880  -30.8510 C   0  0  0  0  0  0  0  0  0  0  0  0
   -7.2181   25.2832  -30.9412 H   0  0  0  0  0  0  0  0  0  0  0  0
   -8.4810   20.8910  -32.3570 N   0  0  0  0  0  0  0  0  0  0  0  0
   -9.8400   21.4050  -32.2000 C   0  0  0  0  0  0  0  0  0  0  0  0
  -10.0768   21.4945  -31.1295 H   0  0  0  0  0  0  0  0  0  0  0  0
   -9.9153   22.3937  -32.6762 H   0  0  0  0  0  0  0  0  0  0  0  0
  -10.5508   20.7136  -32.6762 H   0  0  0  0  0  0  0  0  0  0  0  0
   -8.1790   19.7540  -32.9590 N   0  0  0  0  0  0  0  0  0  0  0  0
   -8.8840   19.0990  -33.3660 H   0  0  0  0  0  0  0  0  0  0  0  0
   -6.6310   17.1540  -33.4550 C   0  0  0  0  0  0  0  0  0  0  0  0
   -7.5888   16.9857  -32.9408 H   0  0  0  0  0  0  0  0  0  0  0  0
   -5.9370   16.0740  -34.0040 C   0  0  0  0  0  0  0  0  0  0  0  0
   -6.3428   15.0547  -33.9240 H   0  0  0  0  0  0  0  0  0  0  0  0
  1  2  1  0
  2  3  2  0
  3  4  1  0
  4  5  1  0
  4  6  2  0
  6  7  1  0
  7  8  2  0
  8  9  1  0
  8 10  1  0
 10 11  2  0
 11 12  1  0
 12 13  2  0
 13 14  1  0
 13 15  1  0
 15 16  1  0
 15 17  2  0
 17 18  1  0
 18 19  1  0
 18 20  2  0
 20 21  1  0
 10 22  1  0
 22 23  1  0
 23 24  1  0
 23 25  1  0
 23 26  1  0
 22 27  1  0
 27 28  1  0
  6 29  1  0
 29 30  1  0
 29 31  2  0
 31 32  1  0
 31  2  1  0
 27  7  1  0
 20 12  1  0
M  END
>  <UniqueID>  (12) 
12

>  <SMILES>  (12) 
Cn1[nH]c(-c2cccnc2)c/c1=N\c1ccncc1

>  <Energy>  (12) 
76.96372605658257

>  <Genealogy>  (12) 
Cn1[nH]c(-c2cccnc2)c/c1=N\c1ccncc1 (cis-trans isomerization)
Cn1[nH]c(-c2cccnc2)c/c1=N\c1ccncc1 (3D coordinates assigned)
Cn1[nH]c(-c2cccnc2)c/c1=N\c1ccncc1 (optimized conformer: 76.96372605658257 kcal/mol)

>  <smiles>  (12) 
Cn1[nH]c(-c2cccnc2)cc1=Nc1ccncc1

>  <score_type>  (12) 
oracle

>  <origin>  (12) 
adgpu

>  <m_score__min__energy>  (12) 
-7.6100000000000003

>  <m_primary>  (12) 
energy

$$$$
12:0
     RDKit          3D

 36 38  0  0  0  0  0  0  0  0999 V2000
   -3.8890   25.3670  -30.8320 O   0  0  0  0  0  0  0  0  0  0  0  0
   -4.1870   24.0600  -30.1510 S   0  0  0  0  0  0  0  0  0  0  0  0
   -5.3230   24.2660  -29.1900 O   0  0  0  0  0  0  0  0  0  0  0  0
   -4.6560   22.8880  -31.3430 N   0  0  0  0  0  0  0  0  0  0  0  0
   -5.9990   22.4510  -31.5900 C   0  0  0  0  0  0  0  0  0  0  0  0
   -7.0160   23.4100  -31.6370 C   0  0  0  0  0  0  0  0  0  0  0  0
   -8.3440   23.0240  -31.8360 C   0  0  0  0  0  0  0  0  0  0  0  0
   -8.6680   21.6740  -32.0010 C   0  0  0  0  0  0  0  0  0  0  0  0
   -9.9980   21.3110  -32.1800 O   0  0  0  0  0  0  0  0  0  0  0  0
   -7.6560   20.6990  -31.9800 C   0  0  0  0  0  0  0  0  0  0  0  0
   -7.9980   19.2370  -32.0940 C   0  0  0  0  0  0  0  0  0  0  0  0
   -8.9600   19.0660  -33.0970 O   0  0  0  0  0  0  0  0  0  0  0  0
   -6.3240   21.0930  -31.7710 C   0  0  0  0  0  0  0  0  0  0  0  0
   -2.7860   23.4670  -29.2560 C   0  0  0  0  0  0  0  0  0  0  0  0
   -2.7320   22.1320  -28.8270 C   0  0  0  0  0  0  0  0  0  0  0  0
   -1.6400   21.6660  -28.0710 C   0  0  0  0  0  0  0  0  0  0  0  0
   -1.5760   20.2680  -27.5890 C   0  0  0  0  0  0  0  0  0  0  0  0
   -2.4780   19.6050  -26.7780 C   0  0  0  0  0  0  0  0  0  0  0  0
   -2.0370   18.3500  -26.5760 N   0  0  0  0  0  0  0  0  0  0  0  0
   -0.8820   18.2990  -27.2730 C   0  0  0  0  0  0  0  0  0  0  0  0
   -0.6060   19.4340  -27.8730 O   0  0  0  0  0  0  0  0  0  0  0  0
   -0.5970   22.5530  -27.7610 C   0  0  0  0  0  0  0  0  0  0  0  0
   -0.6460   23.8800  -28.1920 C   0  0  0  0  0  0  0  0  0  0  0  0
   -1.7350   24.3420  -28.9340 C   0  0  0  0  0  0  0  0  0  0  0  0
   -1.7670   25.6700  -29.3460 O   0  0  0  0  0  0  0  0  0  0  0  0
   -6.7687   24.4751  -31.5165 H   0  0  0  0  0  0  0  0  0  0  0  0
   -9.1376   23.7852  -31.8630 H   0  0  0  0  0  0  0  0  0  0  0  0
   -7.0933   18.6665  -32.3509 H   0  0  0  0  0  0  0  0  0  0  0  0
   -8.3959   18.8747  -31.1346 H   0  0  0  0  0  0  0  0  0  0  0  0
   -9.0400   19.9400  -33.5640 H   0  0  0  0  0  0  0  0  0  0  0  0
   -5.5280   20.3341  -31.7485 H   0  0  0  0  0  0  0  0  0  0  0  0
   -3.5505   21.4435  -29.0839 H   0  0  0  0  0  0  0  0  0  0  0  0
   -3.4037   20.0329  -26.3658 H   0  0  0  0  0  0  0  0  0  0  0  0
   -0.2429   17.4057  -27.3318 H   0  0  0  0  0  0  0  0  0  0  0  0
    0.2643   22.2002  -27.1748 H   0  0  0  0  0  0  0  0  0  0  0  0
    0.1781   24.5657  -27.9456 H   0  0  0  0  0  0  0  0  0  0  0  0
  1  2  2  0
  2  3  2  0
  2  4  1  0
  4  5  1  0
  5  6  2  0
  6  7  1  0
  7  8  2  0
  8  9  1  0
  8 10  1  0
 10 11  1  0
 11 12  1  0
 10 13  2  0
  2 14  1  0
 14 15  2  0
 15 16  1  0
 16 17  1  0
 17 18  2  0
 18 19  1  0
 19 20  2  0
 20 21  1  0
 16 22  2  0
 22 23  1  0
 23 24  2  0
 24 25  1  0
 13  5  1  0
 24 14  1  0
 21 17  1  0
  6 26  1  0
  7 27  1  0
 11 28  1  0
 11 29  1  0
 12 30  1  0
 13 31  1  0
 15 32  1  0
 18 33  1  0
 20 34  1  0
 22 35  1  0
 23 36  1  0
M  CHG  3   4  -1   9  -1  25  -1
M  END
>  <UniqueID>  (13) 
13

>  <SMILES>  (13) 
O=S(=O)([N-]c1ccc([O-])c(CO)c1)c1cc(-c2cnco2)ccc1[O-]

>  <Energy>  (13) 
72.43359007173908

>  <Genealogy>  (13) 
O=S(=O)([N-]c1ccc([O-])c(CO)c1)c1cc(-c2cnco2)ccc1[O-] (protonated)
O=S(=O)([N-]c1ccc([O-])c(CO)c1)c1cc(-c2cnco2)ccc1[O-] (3D coordinates assigned)
O=S(=O)([N-]c1ccc([O-])c(CO)c1)c1cc(-c2cnco2)ccc1[O-] (optimized conformer: 72.43359007173908 kcal/mol)

>  <smiles>  (13) 
O=S(=O)(Nc1ccc(O)c(CO)c1)c1cc(-c2cnco2)ccc1O

>  <score_type>  (13) 
oracle

>  <origin>  (13) 
adgpu

>  <m_score__min__energy>  (13) 
-11.67

>  <m_primary>  (13) 
energy

$$$$
13:0
     RDKit          3D

 33 35  0  0  0  0  0  0  0  0999 V2000
   -4.9590   16.9490  -34.3220 O   0  0  0  0  0  0  0  0  0  0  0  0
   -4.3360   18.0250  -34.1160 C   0  0  0  0  0  0  0  0  0  0  0  0
   -2.9740   18.1740  -34.5380 N   0  0  0  0  0  0  0  0  0  0  0  0
   -1.9710   18.9930  -33.9200 C   0  0  0  0  0  0  0  0  0  0  0  0
   -1.4570   18.7090  -32.6410 C   0  0  0  0  0  0  0  0  0  0  0  0
   -0.4970   19.5470  -32.0670 C   0  0  0  0  0  0  0  0  0  0  0  0
   -0.0520   20.6790  -32.7530 C   0  0  0  0  0  0  0  0  0  0  0  0
   -0.5740   20.9850  -34.0140 C   0  0  0  0  0  0  0  0  0  0  0  0
   -0.1320   22.1230  -34.6840 O   0  0  0  0  0  0  0  0  0  0  0  0
   -1.5380   20.1450  -34.5910 C   0  0  0  0  0  0  0  0  0  0  0  0
   -5.0270   19.1580  -33.4860 C   0  0  0  0  0  0  0  0  0  0  0  0
   -6.4020   19.3140  -33.3660 C   0  0  0  0  0  0  0  0  0  0  0  0
   -6.7730   20.4990  -32.7170 C   0  0  0  0  0  0  0  0  0  0  0  0
   -5.6890   21.2870  -32.3200 C   0  0  0  0  0  0  0  0  0  0  0  0
   -5.7480   22.5930  -31.6140 C   0  0  0  0  0  0  0  0  0  0  0  0
   -6.9840   23.1150  -31.1860 C   0  0  0  0  0  0  0  0  0  0  0  0
   -7.0470   24.3430  -30.5220 C   0  0  0  0  0  0  0  0  0  0  0  0
   -5.8790   25.0680  -30.2760 C   0  0  0  0  0  0  0  0  0  0  0  0
   -4.6460   24.5670  -30.6980 C   0  0  0  0  0  0  0  0  0  0  0  0
   -3.4850   25.2920  -30.4580 O   0  0  0  0  0  0  0  0  0  0  0  0
   -4.5770   23.3380  -31.3630 C   0  0  0  0  0  0  0  0  0  0  0  0
   -4.2760   20.4900  -32.7890 S   0  0  0  0  0  0  0  0  0  0  0  0
   -1.8119   17.8247  -32.0914 H   0  0  0  0  0  0  0  0  0  0  0  0
   -0.0907   19.3141  -31.0717 H   0  0  0  0  0  0  0  0  0  0  0  0
    0.7101   21.3309  -32.3010 H   0  0  0  0  0  0  0  0  0  0  0  0
   -0.7270   22.6190  -35.3360 H   0  0  0  0  0  0  0  0  0  0  0  0
   -1.9573   20.3922  -35.5775 H   0  0  0  0  0  0  0  0  0  0  0  0
   -7.1284   18.5792  -33.7435 H   0  0  0  0  0  0  0  0  0  0  0  0
   -7.8203   20.7829  -32.5366 H   0  0  0  0  0  0  0  0  0  0  0  0
   -7.9088   22.5506  -31.3762 H   0  0  0  0  0  0  0  0  0  0  0  0
   -8.0187   24.7394  -30.1924 H   0  0  0  0  0  0  0  0  0  0  0  0
   -5.9304   26.0329  -29.7503 H   0  0  0  0  0  0  0  0  0  0  0  0
   -3.6020   22.9498  -31.6926 H   0  0  0  0  0  0  0  0  0  0  0  0
  1  2  2  0
  2  3  1  0
  3  4  1  0
  4  5  2  0
  5  6  1  0
  6  7  2  0
  7  8  1  0
  8  9  1  0
  8 10  2  0
  2 11  1  0
 11 12  2  0
 12 13  1  0
 13 14  2  0
 14 15  1  0
 15 16  2  0
 16 17  1  0
 17 18  2  0
 18 19  1  0
 19 20  1  0
 19 21  2  0
 14 22  1  0
 10  4  1  0
 22 11  1  0
 21 15  1  0
  5 23  1  0
  6 24  1  0
  7 25  1  0
  9 26  1  0
 10 27  1  0
 12 28  1  0
 13 29  1  0
 16 30  1  0
 17 31  1  0
 18 32  1  0
 21 33  1  0
M  CHG  2   3  -1  20  -1
M  END
>  <UniqueID>  (14) 
14

>  <SMILES>  (14) 
O=C([N-]c1cccc(O)c1)c1ccc(-c2cccc([O-])c2)s1

>  <Energy>  (14) 
66.84261967589828

>  <Genealogy>  (14) 
O=C([N-]c1cccc(O)c1)c1ccc(-c2cccc([O-])c2)s1 (protonated)
O=C([N-]c1cccc(O)c1)c1ccc(-c2cccc([O-])c2)s1 (3D coordinates assigned)
O=C([N-]c1cccc(O)c1)c1ccc(-c2cccc([O-])c2)s1 (optimized conformer: 66.84261967589828 kcal/mol)

>  <smiles>  (14) 
O=C(Nc1cccc(O)c1)c1ccc(-c2cccc(O)c2)s1

>  <score_type>  (14) 
oracle

>  <origin>  (14) 
adgpu

>  <m_score__min__energy>  (14) 
-10.85

>  <m_primary>  (14) 
energy

$$$$
14:0
     RDKit          3D

 23 24  0  0  0  0  0  0  0  0999 V2000
   -4.8580   20.9740  -33.0810 O   0  0  0  0  0  0  0  0  0  0  0  0
   -5.9670   21.3650  -32.6250 C   0  0  0  0  0  0  0  0  0  0  0  0
   -6.1610   22.7350  -32.2350 N   0  0  0  0  0  0  0  0  0  0  0  0
   -5.3720   23.5190  -31.5510 C   0  0  0  0  0  0  0  0  0  0  0  0
   -4.0630   23.1580  -31.1640 C   0  0  0  0  0  0  0  0  0  0  0  0
   -3.2840   24.0630  -30.4390 C   0  0  0  0  0  0  0  0  0  0  0  0
   -3.7770   25.2880  -30.1180 N   0  0  0  0  0  0  0  0  0  0  0  0
   -5.0260   25.6700  -30.4910 C   0  0  0  0  0  0  0  0  0  0  0  0
   -5.8390   24.7980  -31.2170 C   0  0  0  0  0  0  0  0  0  0  0  0
   -7.0410   20.3770  -32.4090 C   0  0  0  0  0  0  0  0  0  0  0  0
   -6.7500   19.0280  -32.1400 C   0  0  0  0  0  0  0  0  0  0  0  0
   -7.7970   18.1270  -31.9390 C   0  0  0  0  0  0  0  0  0  0  0  0
   -9.1190   18.5700  -32.0050 C   0  0  0  0  0  0  0  0  0  0  0  0
   -9.3740   19.9160  -32.2720 C   0  0  0  0  0  0  0  0  0  0  0  0
   -8.3420   20.7800  -32.4650 N   0  0  0  0  0  0  0  0  0  0  0  0
   -3.6592   22.1704  -31.4317 H   0  0  0  0  0  0  0  0  0  0  0  0
   -2.2672   23.7828  -30.1266 H   0  0  0  0  0  0  0  0  0  0  0  0
   -5.3978   26.6692  -30.2202 H   0  0  0  0  0  0  0  0  0  0  0  0
   -6.8459   25.1143  -31.5270 H   0  0  0  0  0  0  0  0  0  0  0  0
   -5.7060   18.6855  -32.0884 H   0  0  0  0  0  0  0  0  0  0  0  0
   -7.5805   17.0692  -31.7289 H   0  0  0  0  0  0  0  0  0  0  0  0
   -9.9501   17.8666  -31.8484 H   0  0  0  0  0  0  0  0  0  0  0  0
  -10.4112   20.2783  -32.3264 H   0  0  0  0  0  0  0  0  0  0  0  0
  1  2  2  0
  2  3  1  0
  3  4  2  3
  4  5  1  0
  5  6  2  0
  6  7  1  0
  7  8  1  0
  8  9  2  0
  2 10  1  0
 10 11  2  0
 11 12  1  0
 12 13  2  0
 13 14  1  0
 14 15  2  0
  9  4  1  0
 15 10  1  0
  5 16  1  0
  6 17  1  0
  8 18  1  0
  9 19  1  0
 11 20  1  0
 12 21  1  0
 13 22  1  0
 14 23  1  0
M  CHG  1   7  -1
M  END
>  <UniqueID>  (15) 
15

>  <SMILES>  (15) 
O=C(N=c1cc[n-]cc1)c1ccccn1

>  <Energy>  (15) 
32.95898898927296

>  <Genealogy>  (15) 
O=C(N=c1cc[n-]cc1)c1ccccn1 (protonated)
O=C(N=c1cc[n-]cc1)c1ccccn1 (3D coordinates assigned)
O=C(N=c1cc[n-]cc1)c1ccccn1 (optimized conformer: 32.95898898927296 kcal/mol)

>  <smiles>  (15) 
O=C(N=c1cc[nH]cc1)c1ccccn1

>  <score_type>  (15) 
oracle

>  <origin>  (15) 
adgpu

>  <m_score__min__energy>  (15) 
-7.71

>  <m_primary>  (15) 
energy

$$$$
15:0
     RDKit          3D

 41 43  0  0  0  0  0  0  0  0999 V2000
    1.3100   26.0300  -25.6860 C   0  0  0  0  0  0  0  0  0  0  0  0
    0.1250   25.5560  -26.4870 C   0  0  0  0  0  0  0  0  0  0  0  0
    0.3390   24.8990  -27.7080 C   0  0  0  0  0  0  0  0  0  0  0  0
   -0.7380   24.4520  -28.4740 C   0  0  0  0  0  0  0  0  0  0  0  0
   -2.0570   24.6590  -28.0440 C   0  0  0  0  0  0  0  0  0  0  0  0
   -3.1900   24.1680  -28.8720 C   0  0  0  0  0  0  0  0  0  0  0  0
   -3.9910   23.0900  -28.4680 C   0  0  0  0  0  0  0  0  0  0  0  0
   -5.0420   22.6750  -29.2810 C   0  0  0  0  0  0  0  0  0  0  0  0
   -5.2790   23.3380  -30.4920 C   0  0  0  0  0  0  0  0  0  0  0  0
   -6.3680   22.9580  -31.3560 N   0  0  0  0  0  0  0  0  0  0  0  0
   -7.6230   23.7240  -31.2980 C   0  0  0  0  0  0  0  0  0  0  0  0
   -8.7200   23.0800  -32.1570 C   0  0  0  0  0  0  0  0  0  0  0  0
   -8.7360   21.5610  -31.9530 C   0  0  0  0  0  0  0  0  0  0  0  0
   -7.3760   20.9000  -32.2780 C   0  0  0  0  0  0  0  0  0  0  0  0
   -6.2150   21.9020  -32.3670 C   0  0  0  0  0  0  0  0  0  0  0  0
   -4.4900   24.3950  -30.8230 N   0  0  0  0  0  0  0  0  0  0  0  0
   -3.4840   24.7940  -30.0450 N   0  0  0  0  0  0  0  0  0  0  0  0
   -2.2760   25.3130  -26.8170 C   0  0  0  0  0  0  0  0  0  0  0  0
   -1.1990   25.7730  -26.0400 C   0  0  0  0  0  0  0  0  0  0  0  0
   -1.4760   26.4620  -24.7280 C   0  0  0  0  0  0  0  0  0  0  0  0
    1.0865   25.9406  -24.6127 H   0  0  0  0  0  0  0  0  0  0  0  0
    2.1879   25.4138  -25.9303 H   0  0  0  0  0  0  0  0  0  0  0  0
    1.5207   27.0816  -25.9303 H   0  0  0  0  0  0  0  0  0  0  0  0
    1.3664   24.7346  -28.0650 H   0  0  0  0  0  0  0  0  0  0  0  0
   -0.5508   23.9318  -29.4250 H   0  0  0  0  0  0  0  0  0  0  0  0
   -3.7903   22.5765  -27.5162 H   0  0  0  0  0  0  0  0  0  0  0  0
   -5.6810   21.8335  -28.9751 H   0  0  0  0  0  0  0  0  0  0  0  0
   -7.9667   23.7670  -30.2540 H   0  0  0  0  0  0  0  0  0  0  0  0
   -7.4279   24.7331  -31.6901 H   0  0  0  0  0  0  0  0  0  0  0  0
   -9.6969   23.4948  -31.8679 H   0  0  0  0  0  0  0  0  0  0  0  0
   -8.5162   23.2955  -33.2163 H   0  0  0  0  0  0  0  0  0  0  0  0
   -8.9879   21.3497  -30.9033 H   0  0  0  0  0  0  0  0  0  0  0  0
   -9.4825   21.1412  -32.6433 H   0  0  0  0  0  0  0  0  0  0  0  0
   -7.1461   20.1695  -31.4884 H   0  0  0  0  0  0  0  0  0  0  0  0
   -7.4731   20.4278  -33.2667 H   0  0  0  0  0  0  0  0  0  0  0  0
   -5.2660   21.3725  -32.1967 H   0  0  0  0  0  0  0  0  0  0  0  0
   -6.2182   22.3626  -33.3659 H   0  0  0  0  0  0  0  0  0  0  0  0
   -3.3054   25.4664  -26.4609 H   0  0  0  0  0  0  0  0  0  0  0  0
   -1.2067   25.7922  -23.8981 H   0  0  0  0  0  0  0  0  0  0  0  0
   -0.8784   27.3833  -24.6643 H   0  0  0  0  0  0  0  0  0  0  0  0
   -2.5450   26.7133  -24.6643 H   0  0  0  0  0  0  0  0  0  0  0  0
  1  2  1  0
  2  3  2  0
  3  4  1  0
  4  5  2  0
  5  6  1  0
  6  7  2  0
  7  8  1  0
  8  9  2  0
  9 10  1  0
 10 11  1  0
 11 12  1  0
 12 13  1  0
 13 14  1  0
 14 15  1  0
  9 16  1  0
 16 17  2  0
  5 18  1  0
 18 19  2  0
 19 20  1  0
 19  2  1  0
 17  6  1  0
 15 10  1  0
  1 21  1  0
  1 22  1  0
  1 23  1  0
  3 24  1  0
  4 25  1  0
  7 26  1  0
  8 27  1  0
 11 28  1  0
 11 29  1  0
 12 30  1  0
 12 31  1  0
 13 32  1  0
 13 33  1  0
 14 34  1  0
 14 35  1  0
 15 36  1  0
 15 37  1  0
 18 38  1  0
 20 39  1  0
 20 40  1  0
 20 41  1  0
M  END
>  <UniqueID>  (16) 
16

>  <SMILES>  (16) 
Cc1ccc(-c2ccc(N3CCCCC3)nn2)cc1C

>  <Energy>  (16) 
51.51335427438586

>  <Genealogy>  (16) 
Cc1ccc(-c2ccc(N3CCCCC3)nn2)cc1C (3D coordinates assigned)
Cc1ccc(-c2ccc(N3CCCCC3)nn2)cc1C (nonaromatic ring conformer: 51.51335427438586 kcal/mol)

>  <smiles>  (16) 
Cc1ccc(-c2ccc(N3CCCCC3)nn2)cc1C

>  <score_type>  (16) 
oracle

>  <origin>  (16) 
adgpu

>  <m_score__min__energy>  (16) 
-7.7300000000000004

>  <m_primary>  (16) 
energy

$$$$
16:0
     RDKit          3D

 47 49  0  0  0  0  0  0  0  0999 V2000
   -0.5200   20.4460  -34.1500 H   0  0  0  0  0  0  0  0  0  0  0  0
   -1.5310   20.1900  -34.2070 N   0  0  0  0  0  0  0  0  0  0  0  0
   -2.4000   20.6830  -33.3870 C   0  0  0  0  0  0  0  0  0  0  0  0
   -3.7040   20.3260  -33.4900 N   0  0  0  0  0  0  0  0  0  0  0  0
   -4.6210   20.8470  -32.6350 C   0  0  0  0  0  0  0  0  0  0  0  0
   -6.0490   20.4240  -32.7220 C   0  0  0  0  0  0  0  0  0  0  0  0
   -6.4580   20.3029  -31.7081 H   0  0  0  0  0  0  0  0  0  0  0  0
   -6.6261   21.1898  -33.2610 H   0  0  0  0  0  0  0  0  0  0  0  0
   -6.1159   19.4675  -33.2610 H   0  0  0  0  0  0  0  0  0  0  0  0
   -4.2250   21.7070  -31.6640 N   0  0  0  0  0  0  0  0  0  0  0  0
   -2.9220   22.0760  -31.5510 C   0  0  0  0  0  0  0  0  0  0  0  0
   -2.4790   23.0240  -30.4860 C   0  0  0  0  0  0  0  0  0  0  0  0
   -1.2890   22.7590  -29.7830 C   0  0  0  0  0  0  0  0  0  0  0  0
   -0.6979   21.8652  -30.0315 H   0  0  0  0  0  0  0  0  0  0  0  0
   -0.8510   23.6170  -28.7750 C   0  0  0  0  0  0  0  0  0  0  0  0
    0.0777   23.3999  -28.2270 H   0  0  0  0  0  0  0  0  0  0  0  0
   -1.6000   24.7530  -28.4670 C   0  0  0  0  0  0  0  0  0  0  0  0
   -1.1680   25.6810  -27.3690 C   0  0  0  0  0  0  0  0  0  0  0  0
   -0.0934   25.8909  -27.4744 H   0  0  0  0  0  0  0  0  0  0  0  0
   -1.7459   26.6140  -27.4439 H   0  0  0  0  0  0  0  0  0  0  0  0
   -1.4170   25.0690  -26.0450 N   0  0  0  0  0  0  0  0  0  0  0  0
   -0.3400   24.1450  -25.6390 C   0  0  0  0  0  0  0  0  0  0  0  0
   -0.7019   23.5217  -24.8080 H   0  0  0  0  0  0  0  0  0  0  0  0
   -0.0736   23.5309  -26.5119 H   0  0  0  0  0  0  0  0  0  0  0  0
    0.9220   24.8930  -25.1840 C   0  0  0  0  0  0  0  0  0  0  0  0
    1.6690   24.1637  -24.8373 H   0  0  0  0  0  0  0  0  0  0  0  0
    1.3176   25.4693  -26.0333 H   0  0  0  0  0  0  0  0  0  0  0  0
    0.6070   25.8240  -24.0840 N   0  0  0  0  0  0  0  0  0  0  0  0
    0.2530   25.2750  -23.2630 H   0  0  0  0  0  0  0  0  0  0  0  0
    1.8220   26.5370  -23.6560 C   0  0  0  0  0  0  0  0  0  0  0  0
    1.8646   26.5620  -22.5571 H   0  0  0  0  0  0  0  0  0  0  0  0
    2.7092   26.0162  -24.0456 H   0  0  0  0  0  0  0  0  0  0  0  0
    1.8000   27.5655  -24.0456 H   0  0  0  0  0  0  0  0  0  0  0  0
   -0.4310   26.7880  -24.4980 C   0  0  0  0  0  0  0  0  0  0  0  0
   -0.6893   27.4279  -23.6414 H   0  0  0  0  0  0  0  0  0  0  0  0
   -0.0353   27.3932  -25.3269 H   0  0  0  0  0  0  0  0  0  0  0  0
   -1.6990   26.0620  -24.9840 C   0  0  0  0  0  0  0  0  0  0  0  0
   -2.1571   25.5431  -24.1290 H   0  0  0  0  0  0  0  0  0  0  0  0
   -2.3738   26.8198  -25.4087 H   0  0  0  0  0  0  0  0  0  0  0  0
   -2.7460   25.0050  -29.1490 N   0  0  0  0  0  0  0  0  0  0  0  0
   -3.2090   24.1900  -30.1400 C   0  0  0  0  0  0  0  0  0  0  0  0
   -4.3090   24.4950  -30.7650 N   0  0  0  0  0  0  0  0  0  0  0  0
   -5.1190   25.6740  -30.4750 C   0  0  0  0  0  0  0  0  0  0  0  0
   -5.2058   25.8003  -29.3857 H   0  0  0  0  0  0  0  0  0  0  0  0
   -4.6406   26.5637  -30.9104 H   0  0  0  0  0  0  0  0  0  0  0  0
   -6.1211   25.5465  -30.9104 H   0  0  0  0  0  0  0  0  0  0  0  0
   -2.0130   21.5560  -32.4210 N   0  0  0  0  0  0  0  0  0  0  0  0
  1  2  1  0
  2  3  2  0
  3  4  1  0
  4  5  2  0
  5  6  1  0
  6  7  1  0
  6  8  1  0
  6  9  1  0
  5 10  1  0
 10 11  2  0
 11 12  1  0
 12 13  2  0
 13 14  1  0
 13 15  1  0
 15 16  1  0
 15 17  2  0
 17 18  1  0
 18 19  1  0
 18 20  1  0
 18 21  1  0
 21 22  1  0
 22 23  1  0
 22 24  1  0
 22 25  1  0
 25 26  1  0
 25 27  1  0
 25 28  1  0
 28 29  1  0
 28 30  1  0
 30 31  1  0
 30 32  1  0
 30 33  1  0
 28 34  1  0
 34 35  1  0
 34 36  1  0
 34 37  1  0
 37 38  1  0
 37 39  1  0
 17 40  1  0
 40 41  1  0
 41 42  2  0
 42 43  1  0
 43 44  1  0
 43 45  1  0
 43 46  1  0
 11 47  1  0
 47  3  1  0
 41 12  1  0
 37 21  1  0
M  CHG  3  28   1  40  -1  47  -1
M  END
>  <UniqueID>  (17) 
17

>  <SMILES>  (17) 
[H]/N=c1/nc(C)nc(-c2ccc(CN3CC[NH+](C)CC3)[n-]/c2=N\C)[n-]1

>  <Energy>  (17) 
53.111025440609986

>  <Genealogy>  (17) 
CN=c1[n-]c(CN2CC[NH+](C)CC2)ccc1-c1nc(C)nc(=N)[n-]1 (protonated)
[H]/N=c1/nc(C)nc(-c2ccc(CN3CC[NH+](C)CC3)[n-]/c2=N\C)[n-]1 (cis-trans isomerization)
[H]/N=c1/nc(C)nc(-c2ccc(CN3CC[NH+](C)CC3)[n-]/c2=N\C)[n-]1 (3D coordinates assigned)
[H]/N=c1/nc(C)nc(-c2ccc(CN3CC[NH+](C)CC3)[n-]/c2=N\C)[n-]1 (nonaromatic ring conformer: 53.111025440609986 kcal/mol)

>  <smiles>  (17) 
CN=c1[nH]c(CN2CCN(C)CC2)ccc1-c1nc(C)nc(=N)[nH]1

>  <score_type>  (17) 
oracle

>  <origin>  (17) 
adgpu

>  <m_score__min__energy>  (17) 
-9.3900000000000006

>  <m_primary>  (17) 
energy

$$$$
17:0
     RDKit          3D

 37 38  0  0  0  0  0  0  0  0999 V2000
   -5.4750   24.8300  -31.5950 O   0  0  0  0  0  0  0  0  0  0  0  0
   -5.6620   24.1730  -30.5350 C   0  0  0  0  0  0  0  0  0  0  0  0
   -5.0610   24.6580  -29.2490 C   0  0  0  0  0  0  0  0  0  0  0  0
   -3.6680   25.0610  -29.4510 N   0  0  0  0  0  0  0  0  0  0  0  0
   -2.5530   24.1660  -29.2630 C   0  0  0  0  0  0  0  0  0  0  0  0
   -2.7040   22.7680  -29.3730 C   0  0  0  0  0  0  0  0  0  0  0  0
   -1.6070   21.9210  -29.1860 C   0  0  0  0  0  0  0  0  0  0  0  0
   -0.3520   22.4530  -28.8890 C   0  0  0  0  0  0  0  0  0  0  0  0
   -0.1900   23.8360  -28.7780 C   0  0  0  0  0  0  0  0  0  0  0  0
   -1.2810   24.6900  -28.9630 C   0  0  0  0  0  0  0  0  0  0  0  0
   -1.0960   26.0290  -28.8500 F   0  0  0  0  0  0  0  0  0  0  0  0
   -6.4080   22.9490  -30.5600 N   0  0  0  0  0  0  0  0  0  0  0  0
   -6.9310   22.3770  -31.8060 C   0  0  0  0  0  0  0  0  0  0  0  0
   -6.6100   20.8600  -31.8560 C   0  0  0  0  0  0  0  0  0  0  0  0
   -7.6470   20.0820  -32.6720 C   0  0  0  0  0  0  0  0  0  0  0  0
   -9.0580   20.2060  -32.0620 C   0  0  0  0  0  0  0  0  0  0  0  0
   -9.3010   21.5510  -31.3450 C   0  0  0  0  0  0  0  0  0  0  0  0
   -8.4470   22.6730  -31.9460 C   0  0  0  0  0  0  0  0  0  0  0  0
   -5.6375   25.5205  -28.8832 H   0  0  0  0  0  0  0  0  0  0  0  0
   -5.0907   23.8408  -28.5132 H   0  0  0  0  0  0  0  0  0  0  0  0
   -3.4710   26.0440  -29.7490 H   0  0  0  0  0  0  0  0  0  0  0  0
   -3.6905   22.3414  -29.6073 H   0  0  0  0  0  0  0  0  0  0  0  0
   -1.7341   20.8319  -29.2734 H   0  0  0  0  0  0  0  0  0  0  0  0
    0.5089   21.7842  -28.7424 H   0  0  0  0  0  0  0  0  0  0  0  0
    0.8000   24.2546  -28.5441 H   0  0  0  0  0  0  0  0  0  0  0  0
   -6.5550   22.4430  -29.6570 H   0  0  0  0  0  0  0  0  0  0  0  0
   -6.4390   22.8489  -32.6693 H   0  0  0  0  0  0  0  0  0  0  0  0
   -5.6199   20.7212  -32.3147 H   0  0  0  0  0  0  0  0  0  0  0  0
   -6.6282   20.4741  -30.8261 H   0  0  0  0  0  0  0  0  0  0  0  0
   -7.6653   20.4791  -33.6977 H   0  0  0  0  0  0  0  0  0  0  0  0
   -7.3621   19.0195  -32.6673 H   0  0  0  0  0  0  0  0  0  0  0  0
   -9.7972   20.1033  -32.8701 H   0  0  0  0  0  0  0  0  0  0  0  0
   -9.1551   19.4132  -31.3057 H   0  0  0  0  0  0  0  0  0  0  0  0
  -10.3632   21.8201  -31.4414 H   0  0  0  0  0  0  0  0  0  0  0  0
   -9.0200   21.4332  -30.2880 H   0  0  0  0  0  0  0  0  0  0  0  0
   -8.6932   22.7759  -33.0132 H   0  0  0  0  0  0  0  0  0  0  0  0
   -8.6671   23.6020  -31.3996 H   0  0  0  0  0  0  0  0  0  0  0  0
  1  2  2  0
  2  3  1  0
  3  4  1  0
  4  5  1  0
  5  6  2  0
  6  7  1  0
  7  8  2  0
  8  9  1  0
  9 10  2  0
 10 11  1  0
  2 12  1  0
 12 13  1  0
 13 14  1  0
 14 15  1  0
 15 16  1  0
 16 17  1  0
 17 18  1  0
 10  5  1  0
 18 13  1  0
  3 19  1  0
  3 20  1  0
  4 21  1  0
  6 22  1  0
  7 23  1  0
  8 24  1  0
  9 25  1  0
 12 26  1  0
 13 27  1  0
 14 28  1  0
 14 29  1  0
 15 30  1  0
 15 31  1  0
 16 32  1  0
 16 33  1  0
 17 34  1  0
 17 35  1  0
 18 36  1  0
 18 37  1  0
M  END
>  <UniqueID>  (18) 
18

>  <SMILES>  (18) 
O=C(CNc1ccccc1F)NC1CCCCC1

>  <Energy>  (18) 
34.96007514830316

>  <Genealogy>  (18) 
O=C(CNc1ccccc1F)NC1CCCCC1 (3D coordinates assigned)
O=C(CNc1ccccc1F)NC1CCCCC1 (nonaromatic ring conformer: 34.96007514830316 kcal/mol)

>  <smiles>  (18) 
O=C(CNc1ccccc1F)NC1CCCCC1

>  <score_type>  (18) 
oracle

>  <origin>  (18) 
adgpu

>  <m_score__min__energy>  (18) 
-7.6799999999999997

>  <m_primary>  (18) 
energy

$$$$
18:0
     RDKit          3D

 45 47  0  0  0  0  0  0  0  0999 V2000
   -9.0910   21.7470  -31.5730 C   0  0  0  0  0  0  0  0  0  0  0  0
   -8.0340   22.1490  -30.5480 C   0  0  0  0  0  0  0  0  0  0  0  0
   -7.3360   23.4690  -30.9140 C   0  0  0  0  0  0  0  0  0  0  0  0
   -5.8600   23.3440  -30.8660 N   0  0  0  0  0  0  0  0  0  0  0  0
   -5.1220   24.0100  -29.9120 C   0  0  0  0  0  0  0  0  0  0  0  0
   -5.7530   24.9100  -28.9770 N   0  0  0  0  0  0  0  0  0  0  0  0
   -3.7210   23.8560  -29.8770 C   0  0  0  0  0  0  0  0  0  0  0  0
   -2.9020   24.4700  -28.8040 C   0  0  0  0  0  0  0  0  0  0  0  0
   -3.3810   24.7170  -27.5550 N   0  0  0  0  0  0  0  0  0  0  0  0
   -2.3160   25.2420  -26.9250 C   0  0  0  0  0  0  0  0  0  0  0  0
   -2.2380   25.6810  -25.6060 C   0  0  0  0  0  0  0  0  0  0  0  0
   -1.0060   26.2090  -25.1560 C   0  0  0  0  0  0  0  0  0  0  0  0
   -0.8570   26.6580  -23.7340 C   0  0  0  0  0  0  0  0  0  0  0  0
    0.1080   26.2490  -26.0350 C   0  0  0  0  0  0  0  0  0  0  0  0
   -0.0100   25.7930  -27.3620 C   0  0  0  0  0  0  0  0  0  0  0  0
   -1.2460   25.2970  -27.7650 C   0  0  0  0  0  0  0  0  0  0  0  0
   -1.5970   24.8100  -28.9610 N   0  0  0  0  0  0  0  0  0  0  0  0
   -3.1090   23.0610  -30.8530 C   0  0  0  0  0  0  0  0  0  0  0  0
   -1.8570   22.8850  -30.8170 O   0  0  0  0  0  0  0  0  0  0  0  0
   -3.8560   22.4590  -31.8270 N   0  0  0  0  0  0  0  0  0  0  0  0
   -3.1940   21.6210  -32.8500 C   0  0  0  0  0  0  0  0  0  0  0  0
   -3.5070   20.1470  -32.6180 C   0  0  0  0  0  0  0  0  0  0  0  0
   -5.2220   22.5770  -31.8160 C   0  0  0  0  0  0  0  0  0  0  0  0
   -5.9000   21.9750  -32.6980 O   0  0  0  0  0  0  0  0  0  0  0  0
   -9.9959   21.4028  -31.0508 H   0  0  0  0  0  0  0  0  0  0  0  0
   -9.3387   22.6137  -32.2035 H   0  0  0  0  0  0  0  0  0  0  0  0
   -8.7002   20.9347  -32.2035 H   0  0  0  0  0  0  0  0  0  0  0  0
   -8.5188   22.2656  -29.5675 H   0  0  0  0  0  0  0  0  0  0  0  0
   -7.2688   21.3591  -30.5274 H   0  0  0  0  0  0  0  0  0  0  0  0
   -7.6356   23.7597  -31.9317 H   0  0  0  0  0  0  0  0  0  0  0  0
   -7.6383   24.2302  -30.1797 H   0  0  0  0  0  0  0  0  0  0  0  0
   -5.2270   25.5930  -28.3940 H   0  0  0  0  0  0  0  0  0  0  0  0
   -6.7790   24.8670  -28.7950 H   0  0  0  0  0  0  0  0  0  0  0  0
   -3.1075   25.6190  -24.9351 H   0  0  0  0  0  0  0  0  0  0  0  0
   -1.1305   25.8339  -23.0587 H   0  0  0  0  0  0  0  0  0  0  0  0
    0.1869   26.9520  -23.5498 H   0  0  0  0  0  0  0  0  0  0  0  0
   -1.5180   27.5177  -23.5498 H   0  0  0  0  0  0  0  0  0  0  0  0
    1.0717   26.6396  -25.6764 H   0  0  0  0  0  0  0  0  0  0  0  0
    0.8438   25.8276  -28.0547 H   0  0  0  0  0  0  0  0  0  0  0  0
   -1.0030   24.7260  -29.8160 H   0  0  0  0  0  0  0  0  0  0  0  0
   -3.5542   21.9149  -33.8469 H   0  0  0  0  0  0  0  0  0  0  0  0
   -2.1061   21.7686  -32.7808 H   0  0  0  0  0  0  0  0  0  0  0  0
   -3.5495   19.9469  -31.5372 H   0  0  0  0  0  0  0  0  0  0  0  0
   -4.4772   19.9019  -33.0747 H   0  0  0  0  0  0  0  0  0  0  0  0
   -2.7201   19.5288  -33.0747 H   0  0  0  0  0  0  0  0  0  0  0  0
  1  2  1  0
  2  3  1  0
  3  4  1  0
  4  5  1  0
  5  6  1  0
  5  7  2  0
  7  8  1  0
  8  9  2  0
  9 10  1  0
 10 11  2  0
 11 12  1  0
 12 13  1  0
 12 14  2  0
 14 15  1  0
 15 16  2  0
 16 17  1  0
  7 18  1  0
 18 19  2  0
 18 20  1  0
 20 21  1  0
 21 22  1  0
 20 23  1  0
 23 24  2  0
 23  4  1  0
 17  8  1  0
 16 10  1  0
  1 25  1  0
  1 26  1  0
  1 27  1  0
  2 28  1  0
  2 29  1  0
  3 30  1  0
  3 31  1  0
  6 32  1  0
  6 33  1  0
 11 34  1  0
 13 35  1  0
 13 36  1  0
 13 37  1  0
 14 38  1  0
 15 39  1  0
 17 40  1  0
 21 41  1  0
 21 42  1  0
 22 43  1  0
 22 44  1  0
 22 45  1  0
M  END
>  <UniqueID>  (19) 
19

>  <SMILES>  (19) 
CCCn1c(N)c(-c2nc3cc(C)ccc3[nH]2)c(=O)n(CC)c1=O

>  <Energy>  (19) 
92.94458691695789

>  <Genealogy>  (19) 
CCCn1c(N)c(-c2nc3cc(C)ccc3[nH]2)c(=O)n(CC)c1=O (3D coordinates assigned)
CCCn1c(N)c(-c2nc3cc(C)ccc3[nH]2)c(=O)n(CC)c1=O (optimized conformer: 92.94458691695789 kcal/mol)

>  <smiles>  (19) 
CCCn1c(N)c(-c2nc3cc(C)ccc3[nH]2)c(=O)n(CC)c1=O

>  <score_type>  (19) 
oracle

>  <origin>  (19) 
adgpu

>  <m_score__min__energy>  (19) 
-7.2800000000000002

>  <m_primary>  (19) 
energy

$$$$
19:0
     RDKit          3D

 41 44  0  0  0  0  0  0  0  0999 V2000
   -9.8360   23.6860  -32.5050 H   0  0  0  0  0  0  0  0  0  0  0  0
   -9.2330   22.8490  -32.3420 N   0  0  0  0  0  0  0  0  0  0  0  0
   -8.1120   22.9330  -31.6980 C   0  0  0  0  0  0  0  0  0  0  0  0
   -7.7090   24.1420  -31.2220 N   0  0  0  0  0  0  0  0  0  0  0  0
   -6.5460   24.3040  -30.5410 C   0  0  0  0  0  0  0  0  0  0  0  0
   -6.2595   25.3020  -30.1777 H   0  0  0  0  0  0  0  0  0  0  0  0
   -5.7080   23.2070  -30.2980 C   0  0  0  0  0  0  0  0  0  0  0  0
   -4.4350   23.3710  -29.5510 C   0  0  0  0  0  0  0  0  0  0  0  0
   -4.0380   22.4180  -28.5980 C   0  0  0  0  0  0  0  0  0  0  0  0
   -4.6758   21.5432  -28.4032 H   0  0  0  0  0  0  0  0  0  0  0  0
   -2.8390   22.5720  -27.8950 C   0  0  0  0  0  0  0  0  0  0  0  0
   -2.5399   21.8181  -27.1519 H   0  0  0  0  0  0  0  0  0  0  0  0
   -2.0130   23.6860  -28.1330 C   0  0  0  0  0  0  0  0  0  0  0  0
   -0.8020   23.8810  -27.4500 O   0  0  0  0  0  0  0  0  0  0  0  0
    0.4820   23.8440  -28.0630 C   0  0  0  0  0  0  0  0  0  0  0  0
    1.2593   23.8216  -27.2849 H   0  0  0  0  0  0  0  0  0  0  0  0
    0.5637   22.9431  -28.6889 H   0  0  0  0  0  0  0  0  0  0  0  0
    0.6154   24.7387  -28.6889 H   0  0  0  0  0  0  0  0  0  0  0  0
   -2.4070   24.6370  -29.0820 C   0  0  0  0  0  0  0  0  0  0  0  0
   -1.6030   25.7440  -29.3350 O   0  0  0  0  0  0  0  0  0  0  0  0
   -3.6070   24.4830  -29.7850 C   0  0  0  0  0  0  0  0  0  0  0  0
   -3.9051   25.2383  -30.5270 H   0  0  0  0  0  0  0  0  0  0  0  0
   -6.1030   21.9480  -30.7790 C   0  0  0  0  0  0  0  0  0  0  0  0
   -5.4607   21.0730  -30.6004 H   0  0  0  0  0  0  0  0  0  0  0  0
   -7.3070   21.7910  -31.4850 C   0  0  0  0  0  0  0  0  0  0  0  0
   -7.6790   20.4400  -31.9760 C   0  0  0  0  0  0  0  0  0  0  0  0
   -8.9370   19.9600  -32.0500 N   0  0  0  0  0  0  0  0  0  0  0  0
   -8.8440   18.7320  -32.5350 N   0  0  0  0  0  0  0  0  0  0  0  0
   -7.5340   18.5060  -32.7380 C   0  0  0  0  0  0  0  0  0  0  0  0
   -6.9770   17.2220  -33.2840 C   0  0  0  0  0  0  0  0  0  0  0  0
   -7.8980   16.6233  -33.3410 H   0  0  0  0  0  0  0  0  0  0  0  0
   -5.7660   16.7090  -32.5090 C   0  0  0  0  0  0  0  0  0  0  0  0
   -5.4819   17.3373  -31.6520 H   0  0  0  0  0  0  0  0  0  0  0  0
   -5.8008   15.7330  -32.0028 H   0  0  0  0  0  0  0  0  0  0  0  0
   -4.8950   16.9080  -33.7420 C   0  0  0  0  0  0  0  0  0  0  0  0
   -4.0977   17.6546  -33.6120 H   0  0  0  0  0  0  0  0  0  0  0  0
   -4.2923   16.0764  -34.1360 H   0  0  0  0  0  0  0  0  0  0  0  0
   -6.1030   17.4180  -34.5190 C   0  0  0  0  0  0  0  0  0  0  0  0
   -6.0171   18.4643  -34.8474 H   0  0  0  0  0  0  0  0  0  0  0  0
   -6.3829   16.9591  -35.4787 H   0  0  0  0  0  0  0  0  0  0  0  0
   -6.8140   19.5480  -32.3970 O   0  0  0  0  0  0  0  0  0  0  0  0
  1  2  1  0
  2  3  2  0
  3  4  1  0
  4  5  1  0
  5  6  1  0
  5  7  2  0
  7  8  1  0
  8  9  2  0
  9 10  1  0
  9 11  1  0
 11 12  1  0
 11 13  2  0
 13 14  1  0
 14 15  1  0
 15 16  1  0
 15 17  1  0
 15 18  1  0
 13 19  1  0
 19 20  1  0
 19 21  2  0
 21 22  1  0
  7 23  1  0
 23 24  1  0
 23 25  2  0
 25 26  1  0
 26 27  2  0
 27 28  1  0
 28 29  2  0
 29 30  1  0
 30 31  1  0
 30 32  1  0
 32 33  1  0
 32 34  1  0
 32 35  1  0
 35 36  1  0
 35 37  1  0
 35 38  1  0
 38 39  1  0
 38 40  1  0
 29 41  1  0
 25  3  1  0
 41 26  1  0
 21  8  1  0
 38 30  1  0
M  CHG  2   4  -1  20  -1
M  END
>  <UniqueID>  (20) 
20

>  <SMILES>  (20) 
[H]/N=c1\[n-]cc(-c2ccc(OC)c([O-])c2)cc1-c1nnc(C2CCC2)o1

>  <Energy>  (20) 
145.69648830871134

>  <Genealogy>  (20) 
COc1ccc(-c2c[n-]c(=N)c(-c3nnc(C4CCC4)o3)c2)cc1[O-] (protonated)
[H]/N=c1\[n-]cc(-c2ccc(OC)c([O-])c2)cc1-c1nnc(C2CCC2)o1 (cis-trans isomerization)
[H]/N=c1\[n-]cc(-c2ccc(OC)c([O-])c2)cc1-c1nnc(C2CCC2)o1 (3D coordinates assigned)
[H]/N=c1\[n-]cc(-c2ccc(OC)c([O-])c2)cc1-c1nnc(C2CCC2)o1 (nonaromatic ring conformer: 145.69648830871134 kcal/mol)

>  <smiles>  (20) 
COc1ccc(-c2c[nH]c(=N)c(-c3nnc(C4CCC4)o3)c2)cc1O

>  <score_type>  (20) 
oracle

>  <origin>  (20) 
adgpu

>  <m_score__min__energy>  (20) 
-11.19

>  <m_primary>  (20) 
energy

$$$$
20:0
     RDKit          3D

 31 32  0  0  0  0  0  0  0  0999 V2000
   -8.1721   22.9657  -29.8524 H   0  0  0  0  0  0  0  0  0  0  0  0
   -7.3560   22.7910  -30.5690 C   0  0  0  0  0  0  0  0  0  0  0  0
   -6.1460   23.3790  -30.3730 N   0  0  0  0  0  0  0  0  0  0  0  0
   -5.1050   23.1940  -31.2320 C   0  0  0  0  0  0  0  0  0  0  0  0
   -3.9570   23.7680  -31.0240 N   0  0  0  0  0  0  0  0  0  0  0  0
   -3.6720   24.6390  -29.8870 C   0  0  0  0  0  0  0  0  0  0  0  0
   -3.3911   25.6382  -30.2513 H   0  0  0  0  0  0  0  0  0  0  0  0
   -4.5667   24.7196  -29.2522 H   0  0  0  0  0  0  0  0  0  0  0  0
   -2.5390   24.0600  -29.0870 C   0  0  0  0  0  0  0  0  0  0  0  0
   -2.6610   22.7750  -28.5300 C   0  0  0  0  0  0  0  0  0  0  0  0
   -3.5752   22.1881  -28.7026 H   0  0  0  0  0  0  0  0  0  0  0  0
   -1.6250   22.2390  -27.7570 C   0  0  0  0  0  0  0  0  0  0  0  0
   -1.7830   20.6310  -27.0710 Cl  0  0  0  0  0  0  0  0  0  0  0  0
   -0.4650   22.9850  -27.5270 C   0  0  0  0  0  0  0  0  0  0  0  0
    0.3512   22.5611  -26.9235 H   0  0  0  0  0  0  0  0  0  0  0  0
   -0.3430   24.2690  -28.0640 C   0  0  0  0  0  0  0  0  0  0  0  0
    0.5687   24.8558  -27.8782 H   0  0  0  0  0  0  0  0  0  0  0  0
   -1.3750   24.8120  -28.8370 C   0  0  0  0  0  0  0  0  0  0  0  0
   -1.2380   26.0980  -29.3500 O   0  0  0  0  0  0  0  0  0  0  0  0
   -5.2720   22.3770  -32.3530 C   0  0  0  0  0  0  0  0  0  0  0  0
   -4.4383   22.2201  -33.0533 H   0  0  0  0  0  0  0  0  0  0  0  0
   -6.5050   21.7610  -32.5780 C   0  0  0  0  0  0  0  0  0  0  0  0
   -6.6434   21.1171  -33.4590 H   0  0  0  0  0  0  0  0  0  0  0  0
   -7.5690   21.9610  -31.6830 C   0  0  0  0  0  0  0  0  0  0  0  0
   -8.8830   21.3140  -31.9070 C   0  0  0  0  0  0  0  0  0  0  0  0
   -9.8570   21.9940  -32.3320 O   0  0  0  0  0  0  0  0  0  0  0  0
   -9.0550   19.9180  -31.6430 N   0  0  0  0  0  0  0  0  0  0  0  0
   -8.3130   18.8850  -32.3500 C   0  0  0  0  0  0  0  0  0  0  0  0
   -7.8321   18.2155  -31.6217 H   0  0  0  0  0  0  0  0  0  0  0  0
   -9.0025   18.3054  -32.9814 H   0  0  0  0  0  0  0  0  0  0  0  0
   -7.5435   19.3533  -32.9814 H   0  0  0  0  0  0  0  0  0  0  0  0
  1  2  1  0
  2  3  1  0
  3  4  1  0
  4  5  2  0
  5  6  1  0
  6  7  1  0
  6  8  1  0
  6  9  1  0
  9 10  2  0
 10 11  1  0
 10 12  1  0
 12 13  1  0
 12 14  2  0
 14 15  1  0
 14 16  1  0
 16 17  1  0
 16 18  2  0
 18 19  1  0
  4 20  1  0
 20 21  1  0
 20 22  2  0
 22 23  1  0
 22 24  1  0
 24 25  1  0
 25 26  2  0
 25 27  1  0
 27 28  1  0
 28 29  1  0
 28 30  1  0
 28 31  1  0
 24  2  2  0
 18  9  1  0
M  CHG  3   3  -1  19  -1  27  -1
M  END
>  <UniqueID>  (21) 
21

>  <SMILES>  (21) 
C[N-]C(=O)c1cc/c(=N/Cc2cc(Cl)ccc2[O-])[n-]c1

>  <Energy>  (21) 
29.791847625048685

>  <Genealogy>  (21) 
C[N-]C(=O)c1ccc(=NCc2cc(Cl)ccc2[O-])[n-]c1 (protonated)
C[N-]C(=O)c1cc/c(=N/Cc2cc(Cl)ccc2[O-])[n-]c1 (cis-trans isomerization)
C[N-]C(=O)c1cc/c(=N/Cc2cc(Cl)ccc2[O-])[n-]c1 (3D coordinates assigned)
C[N-]C(=O)c1cc/c(=N/Cc2cc(Cl)ccc2[O-])[n-]c1 (optimized conformer: 29.791847625048685 kcal/mol)

>  <smiles>  (21) 
CNC(=O)c1ccc(=NCc2cc(Cl)ccc2O)[nH]c1

>  <score_type>  (21) 
oracle

>  <origin>  (21) 
adgpu

>  <m_score__min__energy>  (21) 
-10.460000000000001

>  <m_primary>  (21) 
energy

$$$$
21:0
     RDKit          3D

 50 52  0  0  0  0  0  0  0  0999 V2000
   -3.8530   24.9070  -26.5980 C   0  0  0  0  0  0  0  0  0  0  0  0
   -2.6150   24.8830  -27.4900 C   0  0  0  0  0  0  0  0  0  0  0  0
   -2.6020   23.6470  -28.3580 C   0  0  0  0  0  0  0  0  0  0  0  0
   -2.1260   22.4390  -27.8250 C   0  0  0  0  0  0  0  0  0  0  0  0
   -2.0890   21.2870  -28.6080 C   0  0  0  0  0  0  0  0  0  0  0  0
   -2.4970   21.3320  -29.9410 C   0  0  0  0  0  0  0  0  0  0  0  0
   -2.9420   22.5350  -30.5110 C   0  0  0  0  0  0  0  0  0  0  0  0
   -3.3130   22.5510  -31.9700 C   0  0  0  0  0  0  0  0  0  0  0  0
   -3.0300   23.6950  -29.7040 C   0  0  0  0  0  0  0  0  0  0  0  0
   -3.4940   24.9400  -30.2460 N   0  0  0  0  0  0  0  0  0  0  0  0
   -4.8720   25.2450  -30.4920 C   0  0  0  0  0  0  0  0  0  0  0  0
   -5.2600   26.4450  -30.4710 O   0  0  0  0  0  0  0  0  0  0  0  0
   -5.8290   24.1590  -30.8030 C   0  0  0  0  0  0  0  0  0  0  0  0
   -6.2600   23.9440  -32.1250 C   0  0  0  0  0  0  0  0  0  0  0  0
   -7.1580   22.9150  -32.4200 C   0  0  0  0  0  0  0  0  0  0  0  0
   -7.6380   22.0800  -31.4010 C   0  0  0  0  0  0  0  0  0  0  0  0
   -8.7510   20.7630  -31.7800 S   0  0  0  0  0  0  0  0  0  0  0  0
  -10.0110   21.3330  -32.3680 O   0  0  0  0  0  0  0  0  0  0  0  0
   -9.1150   20.0420  -30.5110 O   0  0  0  0  0  0  0  0  0  0  0  0
   -8.0480   19.6280  -32.9100 N   0  0  0  0  0  0  0  0  0  0  0  0
   -7.9860   18.2790  -32.3150 C   0  0  0  0  0  0  0  0  0  0  0  0
   -6.9390   17.4160  -33.0400 C   0  0  0  0  0  0  0  0  0  0  0  0
   -5.6170   17.9380  -32.9820 O   0  0  0  0  0  0  0  0  0  0  0  0
   -5.5640   19.3440  -32.7720 C   0  0  0  0  0  0  0  0  0  0  0  0
   -6.7400   20.1010  -33.4160 C   0  0  0  0  0  0  0  0  0  0  0  0
   -7.2210   22.2970  -30.0820 C   0  0  0  0  0  0  0  0  0  0  0  0
   -6.3230   23.3260  -29.7840 C   0  0  0  0  0  0  0  0  0  0  0  0
   -3.5444   24.9010  -25.5422 H   0  0  0  0  0  0  0  0  0  0  0  0
   -4.4361   25.8166  -26.8044 H   0  0  0  0  0  0  0  0  0  0  0  0
   -4.4709   24.0207  -26.8044 H   0  0  0  0  0  0  0  0  0  0  0  0
   -2.6169   25.7752  -28.1333 H   0  0  0  0  0  0  0  0  0  0  0  0
   -1.7202   24.8735  -26.8503 H   0  0  0  0  0  0  0  0  0  0  0  0
   -1.7797   22.4014  -26.7816 H   0  0  0  0  0  0  0  0  0  0  0  0
   -1.7371   20.3396  -28.1737 H   0  0  0  0  0  0  0  0  0  0  0  0
   -2.4698   20.4169  -30.5508 H   0  0  0  0  0  0  0  0  0  0  0  0
   -4.4075   22.5982  -32.0695 H   0  0  0  0  0  0  0  0  0  0  0  0
   -2.8626   23.4306  -32.4532 H   0  0  0  0  0  0  0  0  0  0  0  0
   -2.9400   21.6359  -32.4532 H   0  0  0  0  0  0  0  0  0  0  0  0
   -5.8871   24.5911  -32.9326 H   0  0  0  0  0  0  0  0  0  0  0  0
   -7.4901   22.7592  -33.4570 H   0  0  0  0  0  0  0  0  0  0  0  0
   -7.7118   18.3643  -31.2531 H   0  0  0  0  0  0  0  0  0  0  0  0
   -8.9715   17.8009  -32.4158 H   0  0  0  0  0  0  0  0  0  0  0  0
   -6.9365   16.4166  -32.5804 H   0  0  0  0  0  0  0  0  0  0  0  0
   -7.2256   17.3938  -34.1018 H   0  0  0  0  0  0  0  0  0  0  0  0
   -5.5765   19.5359  -31.6889 H   0  0  0  0  0  0  0  0  0  0  0  0
   -4.6419   19.7098  -33.2473 H   0  0  0  0  0  0  0  0  0  0  0  0
   -6.6385   21.1728  -33.1903 H   0  0  0  0  0  0  0  0  0  0  0  0
   -6.7089   19.9177  -34.5002 H   0  0  0  0  0  0  0  0  0  0  0  0
   -7.6024   21.6537  -29.2753 H   0  0  0  0  0  0  0  0  0  0  0  0
   -6.0005   23.4851  -28.7444 H   0  0  0  0  0  0  0  0  0  0  0  0
  1  2  1  0
  2  3  1  0
  3  4  2  0
  4  5  1  0
  5  6  2  0
  6  7  1  0
  7  8  1  0
  7  9  2  0
  9 10  1  0
 10 11  1  0
 11 12  2  0
 11 13  1  0
 13 14  2  0
 14 15  1  0
 15 16  2  0
 16 17  1  0
 17 18  2  0
 17 19  2  0
 17 20  1  0
 20 21  1  0
 21 22  1  0
 22 23  1  0
 23 24  1  0
 24 25  1  0
 16 26  1  0
 26 27  2  0
  9  3  1  0
 27 13  1  0
 25 20  1  0
  1 28  1  0
  1 29  1  0
  1 30  1  0
  2 31  1  0
  2 32  1  0
  4 33  1  0
  5 34  1  0
  6 35  1  0
  8 36  1  0
  8 37  1  0
  8 38  1  0
 14 39  1  0
 15 40  1  0
 21 41  1  0
 21 42  1  0
 22 43  1  0
 22 44  1  0
 24 45  1  0
 24 46  1  0
 25 47  1  0
 25 48  1  0
 26 49  1  0
 27 50  1  0
M  CHG  1  10  -1
M  END
>  <UniqueID>  (22) 
22

>  <SMILES>  (22) 
CCc1cccc(C)c1[N-]C(=O)c1ccc(S(=O)(=O)N2CCOCC2)cc1

>  <Energy>  (22) 
67.57113575940846

>  <Genealogy>  (22) 
CCc1cccc(C)c1[N-]C(=O)c1ccc(S(=O)(=O)N2CCOCC2)cc1 (protonated)
CCc1cccc(C)c1[N-]C(=O)c1ccc(S(=O)(=O)N2CCOCC2)cc1 (3D coordinates assigned)
CCc1cccc(C)c1[N-]C(=O)c1ccc(S(=O)(=O)N2CCOCC2)cc1 (nonaromatic ring conformer: 67.57113575940846 kcal/mol)

>  <smiles>  (22) 
CCc1cccc(C)c1NC(=O)c1ccc(S(=O)(=O)N2CCOCC2)cc1

>  <score_type>  (22) 
oracle

>  <origin>  (22) 
adgpu

>  <m_score__min__energy>  (22) 
-10.93

>  <m_primary>  (22) 
energy

$$$$
22:0
     RDKit          3D

 48 51  0  0  0  0  0  0  0  0999 V2000
    0.9550   20.5320  -34.9450 C   0  0  0  0  0  0  0  0  0  0  0  0
    0.6940   20.4390  -33.5490 O   0  0  0  0  0  0  0  0  0  0  0  0
   -0.4500   20.9560  -32.9220 C   0  0  0  0  0  0  0  0  0  0  0  0
   -0.4450   21.3920  -31.5840 C   0  0  0  0  0  0  0  0  0  0  0  0
   -1.6120   21.9000  -31.0040 C   0  0  0  0  0  0  0  0  0  0  0  0
   -2.8010   21.9800  -31.7490 C   0  0  0  0  0  0  0  0  0  0  0  0
   -4.0360   22.5140  -31.1400 C   0  0  0  0  0  0  0  0  0  0  0  0
   -5.1040   21.7520  -30.8170 N   0  0  0  0  0  0  0  0  0  0  0  0
   -5.9700   22.6440  -30.3030 C   0  0  0  0  0  0  0  0  0  0  0  0
   -7.3500   22.3000  -29.8310 C   0  0  0  0  0  0  0  0  0  0  0  0
   -8.3730   22.6690  -30.8360 N   0  0  0  0  0  0  0  0  0  0  0  0
   -7.8100   22.9060  -32.1860 C   0  0  0  0  0  0  0  0  0  0  0  0
   -7.2350   21.6190  -32.8050 C   0  0  0  0  0  0  0  0  0  0  0  0
   -8.0390   20.4550  -32.4120 N   0  0  0  0  0  0  0  0  0  0  0  0
   -7.4100   19.1850  -32.1460 C   0  0  0  0  0  0  0  0  0  0  0  0
   -7.7820   18.5020  -31.1530 O   0  0  0  0  0  0  0  0  0  0  0  0
   -6.3240   18.6590  -32.9910 C   0  0  0  0  0  0  0  0  0  0  0  0
   -6.3000   17.4450  -33.6540 C   0  0  0  0  0  0  0  0  0  0  0  0
   -5.0770   17.3910  -34.2870 C   0  0  0  0  0  0  0  0  0  0  0  0
   -4.4280   18.5660  -33.9690 C   0  0  0  0  0  0  0  0  0  0  0  0
   -5.1940   19.2980  -33.1930 O   0  0  0  0  0  0  0  0  0  0  0  0
   -9.4310   20.6860  -32.0200 C   0  0  0  0  0  0  0  0  0  0  0  0
   -9.5010   21.6990  -30.8580 C   0  0  0  0  0  0  0  0  0  0  0  0
   -5.4150   23.9030  -30.3380 C   0  0  0  0  0  0  0  0  0  0  0  0
   -4.2190   23.7870  -30.8560 O   0  0  0  0  0  0  0  0  0  0  0  0
   -2.8020   21.5440  -33.0830 C   0  0  0  0  0  0  0  0  0  0  0  0
   -1.6350   21.0360  -33.6610 C   0  0  0  0  0  0  0  0  0  0  0  0
    1.9805   20.8974  -35.1027 H   0  0  0  0  0  0  0  0  0  0  0  0
    0.8446   19.5392  -35.4056 H   0  0  0  0  0  0  0  0  0  0  0  0
    0.2417   21.2313  -35.4056 H   0  0  0  0  0  0  0  0  0  0  0  0
    0.4802   21.3331  -30.9920 H   0  0  0  0  0  0  0  0  0  0  0  0
   -1.5991   22.2392  -29.9577 H   0  0  0  0  0  0  0  0  0  0  0  0
   -7.4051   21.2172  -29.6453 H   0  0  0  0  0  0  0  0  0  0  0  0
   -7.5512   22.8652  -28.9090 H   0  0  0  0  0  0  0  0  0  0  0  0
   -8.6064   23.2899  -32.8406 H   0  0  0  0  0  0  0  0  0  0  0  0
   -6.9897   23.6325  -32.0894 H   0  0  0  0  0  0  0  0  0  0  0  0
   -7.2420   21.7102  -33.9012 H   0  0  0  0  0  0  0  0  0  0  0  0
   -6.2060   21.4791  -32.4424 H   0  0  0  0  0  0  0  0  0  0  0  0
   -7.0920   16.6819  -33.6721 H   0  0  0  0  0  0  0  0  0  0  0  0
   -4.6953   16.5753  -34.9186 H   0  0  0  0  0  0  0  0  0  0  0  0
   -3.4217   18.8471  -34.3131 H   0  0  0  0  0  0  0  0  0  0  0  0
   -9.9890   21.0827  -32.8809 H   0  0  0  0  0  0  0  0  0  0  0  0
   -9.8719   19.7336  -31.6905 H   0  0  0  0  0  0  0  0  0  0  0  0
  -10.4413   22.2630  -30.9462 H   0  0  0  0  0  0  0  0  0  0  0  0
   -9.4425   21.1195  -29.9248 H   0  0  0  0  0  0  0  0  0  0  0  0
   -5.8890   24.8342  -29.9942 H   0  0  0  0  0  0  0  0  0  0  0  0
   -3.7260   21.6023  -33.6769 H   0  0  0  0  0  0  0  0  0  0  0  0
   -1.6487   20.6959  -34.7070 H   0  0  0  0  0  0  0  0  0  0  0  0
  1  2  1  0
  2  3  1  0
  3  4  2  0
  4  5  1  0
  5  6  2  0
  6  7  1  0
  7  8  2  0
  8  9  1  0
  9 10  1  0
 10 11  1  0
 11 12  1  0
 12 13  1  0
 13 14  1  0
 14 15  1  0
 15 16  2  0
 15 17  1  0
 17 18  2  0
 18 19  1  0
 19 20  2  0
 20 21  1  0
 14 22  1  0
 22 23  1  0
  9 24  2  0
 24 25  1  0
  6 26  1  0
 26 27  2  0
 27  3  1  0
 25  7  1  0
 23 11  1  0
 21 17  1  0
  1 28  1  0
  1 29  1  0
  1 30  1  0
  4 31  1  0
  5 32  1  0
 10 33  1  0
 10 34  1  0
 12 35  1  0
 12 36  1  0
 13 37  1  0
 13 38  1  0
 18 39  1  0
 19 40  1  0
 20 41  1  0
 22 42  1  0
 22 43  1  0
 23 44  1  0
 23 45  1  0
 24 46  1  0
 26 47  1  0
 27 48  1  0
M  END
>  <UniqueID>  (23) 
23

>  <SMILES>  (23) 
COc1ccc(-c2nc(CN3CCN(C(=O)c4ccco4)CC3)co2)cc1

>  <Energy>  (23) 
117.69219219543814

>  <Genealogy>  (23) 
COc1ccc(-c2nc(CN3CCN(C(=O)c4ccco4)CC3)co2)cc1 (3D coordinates assigned)
COc1ccc(-c2nc(CN3CCN(C(=O)c4ccco4)CC3)co2)cc1 (nonaromatic ring conformer: 117.69219219543814 kcal/mol)

>  <smiles>  (23) 
COc1ccc(-c2nc(CN3CCN(C(=O)c4ccco4)CC3)co2)cc1

>  <score_type>  (23) 
oracle

>  <origin>  (23) 
adgpu

>  <m_score__min__energy>  (23) 
-7.96

>  <m_primary>  (23) 
energy

$$$$
23:0
     RDKit          3D

 44 46  0  0  1  0  0  0  0  0999 V2000
   -2.7800   19.9900  -27.0950 C   0  0  0  0  0  0  0  0  0  0  0  0
   -1.7410   20.1450  -28.1550 C   0  0  0  0  0  0  0  0  0  0  0  0
   -0.7980   18.9930  -28.1140 C   0  0  0  0  0  0  0  0  0  0  0  0
   -1.0630   21.4290  -28.0920 N   0  0  0  0  0  0  0  0  0  0  0  0
   -1.5960   22.5250  -28.5150 C   0  0  0  0  0  0  0  0  0  0  0  0
   -0.8740   23.6770  -28.4090 C   0  0  0  0  0  0  0  0  0  0  0  0
   -1.4680   24.8420  -28.8710 C   0  0  0  0  0  0  0  0  0  0  0  0
   -2.7120   24.7810  -29.3950 N   0  0  0  0  0  0  0  0  0  0  0  0
   -3.4130   23.6380  -29.4930 C   0  0  0  0  0  0  0  0  0  0  0  0
   -4.7540   23.5650  -30.0570 C   0  0  0  0  0  0  0  0  0  0  0  0
   -5.6030   24.6500  -30.1070 C   0  0  0  0  0  0  0  0  0  0  0  0
   -6.8770   24.5680  -30.6460 C   0  0  0  0  0  0  0  0  0  0  0  0
   -7.3480   23.3730  -31.1600 C   0  0  0  0  0  0  0  0  0  0  0  0
   -6.4950   22.2840  -31.1090 C   0  0  0  0  0  0  0  0  0  0  0  0
   -7.0070   21.0270  -31.6580 C   0  0  0  0  0  0  0  0  0  0  0  0
   -8.2690   20.5530  -31.3040 C   0  0  0  0  0  0  0  0  0  0  0  0
   -8.7060   19.3520  -31.8550 C   0  0  0  0  0  0  0  0  0  0  0  0
   -7.9360   18.6200  -32.7360 C   0  0  0  0  0  0  0  0  0  0  0  0
   -6.6840   19.1300  -33.0620 C   0  0  0  0  0  0  0  0  0  0  0  0
   -5.8380   18.3500  -34.0140 C   0  0  0  0  0  0  0  0  0  0  0  0
   -6.2250   17.0330  -34.0730 F   0  0  0  0  0  0  0  0  0  0  0  0
   -4.5110   18.5130  -33.7170 F   0  0  0  0  0  0  0  0  0  0  0  0
   -6.0520   18.8620  -35.2940 F   0  0  0  0  0  0  0  0  0  0  0  0
   -6.2180   20.3250  -32.5290 C   0  0  0  0  0  0  0  0  0  0  0  0
   -5.2220   22.3780  -30.5670 C   0  0  0  0  0  0  0  0  0  0  0  0
   -2.8200   22.5200  -29.0410 N   0  0  0  0  0  0  0  0  0  0  0  0
   -2.3067   20.0606  -26.1045 H   0  0  0  0  0  0  0  0  0  0  0  0
   -3.5321   20.7859  -27.1996 H   0  0  0  0  0  0  0  0  0  0  0  0
   -3.2670   19.0093  -27.1996 H   0  0  0  0  0  0  0  0  0  0  0  0
   -2.2458   20.1374  -29.1323 H   0  0  0  0  0  0  0  0  0  0  0  0
   -0.5839   18.7315  -27.0672 H   0  0  0  0  0  0  0  0  0  0  0  0
   -1.2518   18.1294  -28.6223 H   0  0  0  0  0  0  0  0  0  0  0  0
    0.1382   19.2672  -28.6223 H   0  0  0  0  0  0  0  0  0  0  0  0
    0.1369   23.6820  -27.9754 H   0  0  0  0  0  0  0  0  0  0  0  0
   -0.9341   25.8019  -28.8117 H   0  0  0  0  0  0  0  0  0  0  0  0
   -3.1160   25.6720  -29.7260 H   0  0  0  0  0  0  0  0  0  0  0  0
   -5.2573   25.6139  -29.7053 H   0  0  0  0  0  0  0  0  0  0  0  0
   -7.5194   25.4608  -30.6653 H   0  0  0  0  0  0  0  0  0  0  0  0
   -8.3569   23.2917  -31.5907 H   0  0  0  0  0  0  0  0  0  0  0  0
   -8.9053   21.1155  -30.6049 H   0  0  0  0  0  0  0  0  0  0  0  0
   -9.7008   18.9726  -31.5784 H   0  0  0  0  0  0  0  0  0  0  0  0
   -8.2976   17.6727  -33.1625 H   0  0  0  0  0  0  0  0  0  0  0  0
   -5.2229   20.7043  -32.8046 H   0  0  0  0  0  0  0  0  0  0  0  0
   -4.5763   21.4877  -30.5450 H   0  0  0  0  0  0  0  0  0  0  0  0
  1  2  1  0
  2  3  1  0
  2  4  1  0
  4  5  2  0
  5  6  1  0
  6  7  2  0
  7  8  1  0
  8  9  1  0
  9 10  1  0
 10 11  2  0
 11 12  1  0
 12 13  2  0
 13 14  1  0
 14 15  1  0
 15 16  2  0
 16 17  1  0
 17 18  2  0
 18 19  1  0
 19 20  1  0
 20 21  1  0
 20 22  1  0
 20 23  1  0
 19 24  2  0
 14 25  2  0
  9 26  2  0
 26  5  1  0
 25 10  1  0
 24 15  1  0
  1 27  1  0
  1 28  1  0
  1 29  1  0
  2 30  1  0
  3 31  1  0
  3 32  1  0
  3 33  1  0
  6 34  1  0
  7 35  1  0
  8 36  1  0
 11 37  1  0
 12 38  1  0
 13 39  1  0
 16 40  1  0
 17 41  1  0
 18 42  1  0
 24 43  1  0
 25 44  1  0
M  END
>  <smiles>  (24) 
CC(C)N=c1cc[nH]c(-c2cccc(-c3cccc(C(F)(F)F)c3)c2)n1

>  <score_type>  (24) 
oracle

>  <origin>  (24) 
adgpu

>  <m_score__min__energy>  (24) 
-8.9800000000000004

>  <m_primary>  (24) 
energy

$$$$
24:0
     RDKit          3D

 28 29  0  0  0  0  0  0  0  0999 V2000
   -3.1790   20.2460  -27.2890 O   0  0  0  0  0  0  0  0  0  0  0  0
   -2.4630   21.2680  -27.3040 N   0  0  0  0  0  0  0  0  0  0  0  0
   -1.5040   21.4200  -26.3310 O   0  0  0  0  0  0  0  0  0  0  0  0
   -2.7990   22.3690  -28.1630 C   0  0  0  0  0  0  0  0  0  0  0  0
   -4.1320   22.5440  -28.5730 C   0  0  0  0  0  0  0  0  0  0  0  0
   -4.5080   23.6460  -29.3590 C   0  0  0  0  0  0  0  0  0  0  0  0
   -5.9420   23.7900  -29.8030 C   0  0  0  0  0  0  0  0  0  0  0  0
   -6.2880   22.7240  -30.8090 C   0  0  0  0  0  0  0  0  0  0  0  0
   -7.6000   22.2280  -30.8990 C   0  0  0  0  0  0  0  0  0  0  0  0
   -7.9230   21.2620  -31.8580 C   0  0  0  0  0  0  0  0  0  0  0  0
   -6.9430   20.7900  -32.7340 C   0  0  0  0  0  0  0  0  0  0  0  0
   -5.6390   21.2840  -32.6560 C   0  0  0  0  0  0  0  0  0  0  0  0
   -5.3100   22.2500  -31.7000 C   0  0  0  0  0  0  0  0  0  0  0  0
   -3.5290   24.5750  -29.7520 C   0  0  0  0  0  0  0  0  0  0  0  0
   -3.8640   25.6740  -30.5350 O   0  0  0  0  0  0  0  0  0  0  0  0
   -2.1990   24.3990  -29.3600 C   0  0  0  0  0  0  0  0  0  0  0  0
   -1.8210   23.2980  -28.5870 C   0  0  0  0  0  0  0  0  0  0  0  0
   -0.4670   23.1370  -28.2880 O   0  0  0  0  0  0  0  0  0  0  0  0
   -4.8921   21.8072  -28.2740 H   0  0  0  0  0  0  0  0  0  0  0  0
   -6.6036   23.6930  -28.9296 H   0  0  0  0  0  0  0  0  0  0  0  0
   -6.0746   24.7777  -30.2688 H   0  0  0  0  0  0  0  0  0  0  0  0
   -8.3752   22.6005  -30.2133 H   0  0  0  0  0  0  0  0  0  0  0  0
   -8.9502   20.8737  -31.9222 H   0  0  0  0  0  0  0  0  0  0  0  0
   -7.1983   20.0287  -33.4858 H   0  0  0  0  0  0  0  0  0  0  0  0
   -4.8690   20.9124  -33.3481 H   0  0  0  0  0  0  0  0  0  0  0  0
   -4.2829   22.6400  -31.6452 H   0  0  0  0  0  0  0  0  0  0  0  0
   -1.4409   25.1359  -29.6636 H   0  0  0  0  0  0  0  0  0  0  0  0
   -0.1260   22.4600  -27.6190 H   0  0  0  0  0  0  0  0  0  0  0  0
  1  2  2  0
  2  3  1  0
  2  4  1  0
  4  5  2  0
  5  6  1  0
  6  7  1  0
  7  8  1  0
  8  9  2  0
  9 10  1  0
 10 11  2  0
 11 12  1  0
 12 13  2  0
  6 14  2  0
 14 15  1  0
 14 16  1  0
 16 17  2  0
 17 18  1  0
 17  4  1  0
 13  8  1  0
  5 19  1  0
  7 20  1  0
  7 21  1  0
  9 22  1  0
 10 23  1  0
 11 24  1  0
 12 25  1  0
 13 26  1  0
 16 27  1  0
 18 28  1  0
M  CHG  3   2   1   3  -1  15  -1
M  END
>  <UniqueID>  (25) 
24

>  <SMILES>  (25) 
O=[N+]([O-])c1cc(Cc2ccccc2)c([O-])cc1O

>  <Energy>  (25) 
33.74705513081218

>  <Genealogy>  (25) 
O=[N+]([O-])c1cc(Cc2ccccc2)c([O-])cc1O (protonated)
O=[N+]([O-])c1cc(Cc2ccccc2)c([O-])cc1O (3D coordinates assigned)
O=[N+]([O-])c1cc(Cc2ccccc2)c([O-])cc1O (optimized conformer: 33.74705513081218 kcal/mol)

>  <smiles>  (25) 
O=[N+]([O-])c1cc(Cc2ccccc2)c(O)cc1O

>  <score_type>  (25) 
oracle

>  <origin>  (25) 
adgpu

>  <m_score__min__energy>  (25) 
-8.4600000000000009

>  <m_primary>  (25) 
energy

$$$$
25:0
     RDKit          3D

 34 35  0  0  0  0  0  0  0  0999 V2000
   -3.8700   25.3140  -30.6370 O   0  0  0  0  0  0  0  0  0  0  0  0
   -4.9900   24.8160  -30.3400 C   0  0  0  0  0  0  0  0  0  0  0  0
   -5.8920   24.4050  -31.3710 N   0  0  0  0  0  0  0  0  0  0  0  0
   -7.1370   23.2330  -31.1010 S   0  0  0  0  0  0  0  0  0  0  0  0
   -7.2390   22.9520  -29.6280 O   0  0  0  0  0  0  0  0  0  0  0  0
   -8.4500   23.7830  -31.5800 O   0  0  0  0  0  0  0  0  0  0  0  0
   -6.7680   21.7630  -31.9970 C   0  0  0  0  0  0  0  0  0  0  0  0
   -7.7650   20.8110  -32.2560 C   0  0  0  0  0  0  0  0  0  0  0  0
   -7.4530   19.6420  -32.9580 C   0  0  0  0  0  0  0  0  0  0  0  0
   -6.1440   19.4180  -33.4020 C   0  0  0  0  0  0  0  0  0  0  0  0
   -5.7540   17.9520  -34.2810 Cl  0  0  0  0  0  0  0  0  0  0  0  0
   -5.1470   20.3670  -33.1430 C   0  0  0  0  0  0  0  0  0  0  0  0
   -5.4580   21.5360  -32.4430 C   0  0  0  0  0  0  0  0  0  0  0  0
   -5.3440   24.6200  -28.9630 N   0  0  0  0  0  0  0  0  0  0  0  0
   -4.4340   23.6460  -28.3490 C   0  0  0  0  0  0  0  0  0  0  0  0
   -3.2670   24.3500  -27.7060 C   0  0  0  0  0  0  0  0  0  0  0  0
   -2.0420   24.4590  -28.3860 C   0  0  0  0  0  0  0  0  0  0  0  0
   -0.9720   25.1450  -27.8020 C   0  0  0  0  0  0  0  0  0  0  0  0
   -1.1190   25.7330  -26.5430 C   0  0  0  0  0  0  0  0  0  0  0  0
   -2.3390   25.6410  -25.8670 C   0  0  0  0  0  0  0  0  0  0  0  0
   -3.4120   24.9570  -26.4470 C   0  0  0  0  0  0  0  0  0  0  0  0
   -8.7936   20.9839  -31.9066 H   0  0  0  0  0  0  0  0  0  0  0  0
   -8.2370   18.8977  -33.1615 H   0  0  0  0  0  0  0  0  0  0  0  0
   -4.1182   20.1921  -33.4909 H   0  0  0  0  0  0  0  0  0  0  0  0
   -4.6732   22.2799  -32.2414 H   0  0  0  0  0  0  0  0  0  0  0  0
   -5.2830   25.5350  -28.4570 H   0  0  0  0  0  0  0  0  0  0  0  0
   -6.3290   24.2690  -28.9120 H   0  0  0  0  0  0  0  0  0  0  0  0
   -4.9785   23.0737  -27.5835 H   0  0  0  0  0  0  0  0  0  0  0  0
   -4.0563   22.9692  -29.1296 H   0  0  0  0  0  0  0  0  0  0  0  0
   -1.9243   24.0036  -29.3803 H   0  0  0  0  0  0  0  0  0  0  0  0
   -0.0128   25.2217  -28.3350 H   0  0  0  0  0  0  0  0  0  0  0  0
   -0.2747   26.2682  -26.0839 H   0  0  0  0  0  0  0  0  0  0  0  0
   -2.4552   26.1072  -24.8775 H   0  0  0  0  0  0  0  0  0  0  0  0
   -4.3731   24.8939  -25.9157 H   0  0  0  0  0  0  0  0  0  0  0  0
  1  2  2  0
  2  3  1  0
  3  4  1  0
  4  5  2  0
  4  6  2  0
  4  7  1  0
  7  8  2  0
  8  9  1  0
  9 10  2  0
 10 11  1  0
 10 12  1  0
 12 13  2  0
  2 14  1  0
 14 15  1  0
 15 16  1  0
 16 17  2  0
 17 18  1  0
 18 19  2  0
 19 20  1  0
 20 21  2  0
 13  7  1  0
 21 16  1  0
  8 22  1  0
  9 23  1  0
 12 24  1  0
 13 25  1  0
 14 26  1  0
 14 27  1  0
 15 28  1  0
 15 29  1  0
 17 30  1  0
 18 31  1  0
 19 32  1  0
 20 33  1  0
 21 34  1  0
M  CHG  2   3  -1  14   1
M  END
>  <UniqueID>  (26) 
25

>  <SMILES>  (26) 
O=C([N-]S(=O)(=O)c1ccc(Cl)cc1)[NH2+]Cc1ccccc1

>  <Energy>  (26) 
35.36471611168878

>  <Genealogy>  (26) 
O=C([N-]S(=O)(=O)c1ccc(Cl)cc1)[NH2+]Cc1ccccc1 (protonated)
O=C([N-]S(=O)(=O)c1ccc(Cl)cc1)[NH2+]Cc1ccccc1 (3D coordinates assigned)
O=C([N-]S(=O)(=O)c1ccc(Cl)cc1)[NH2+]Cc1ccccc1 (optimized conformer: 35.36471611168878 kcal/mol)

>  <smiles>  (26) 
O=C(NCc1ccccc1)NS(=O)(=O)c1ccc(Cl)cc1

>  <score_type>  (26) 
oracle

>  <origin>  (26) 
adgpu

>  <m_score__min__energy>  (26) 
-8.7200000000000006

>  <m_primary>  (26) 
energy

$$$$
26:0
     RDKit          3D

 28 29  0  0  0  0  0  0  0  0999 V2000
   -3.7580   25.2490  -30.0730 N   0  0  0  0  0  0  0  0  0  0  0  0
   -4.8230   24.3900  -30.4880 C   0  0  0  0  0  0  0  0  0  0  0  0
   -4.6150   23.0080  -30.5950 C   0  0  0  0  0  0  0  0  0  0  0  0
   -5.6570   22.1680  -31.0010 C   0  0  0  0  0  0  0  0  0  0  0  0
   -6.9150   22.7030  -31.3070 C   0  0  0  0  0  0  0  0  0  0  0  0
   -8.2200   21.6410  -31.8270 S   0  0  0  0  0  0  0  0  0  0  0  0
   -9.3790   22.4420  -32.3540 O   0  0  0  0  0  0  0  0  0  0  0  0
   -8.6830   20.8320  -30.6500 O   0  0  0  0  0  0  0  0  0  0  0  0
   -7.6600   20.5640  -33.0700 N   0  0  0  0  0  0  0  0  0  0  0  0
   -7.0750   19.4110  -32.8970 C   0  0  0  0  0  0  0  0  0  0  0  0
   -6.8120   18.8840  -31.6150 C   0  0  0  0  0  0  0  0  0  0  0  0
   -6.1890   17.6410  -31.4980 C   0  0  0  0  0  0  0  0  0  0  0  0
   -5.8300   16.9310  -32.6410 C   0  0  0  0  0  0  0  0  0  0  0  0
   -6.1010   17.4770  -33.8950 C   0  0  0  0  0  0  0  0  0  0  0  0
   -6.7100   18.6900  -33.9970 N   0  0  0  0  0  0  0  0  0  0  0  0
   -7.1260   24.0840  -31.1950 C   0  0  0  0  0  0  0  0  0  0  0  0
   -6.0860   24.9240  -30.7880 C   0  0  0  0  0  0  0  0  0  0  0  0
   -3.1100   25.6740  -30.7740 H   0  0  0  0  0  0  0  0  0  0  0  0
   -3.6090   25.4650  -29.0630 H   0  0  0  0  0  0  0  0  0  0  0  0
   -3.6285   22.5825  -30.3588 H   0  0  0  0  0  0  0  0  0  0  0  0
   -5.4882   21.0839  -31.0803 H   0  0  0  0  0  0  0  0  0  0  0  0
   -7.0959   19.4486  -30.7147 H   0  0  0  0  0  0  0  0  0  0  0  0
   -5.9813   17.2217  -30.5025 H   0  0  0  0  0  0  0  0  0  0  0  0
   -5.3383   15.9507  -32.5555 H   0  0  0  0  0  0  0  0  0  0  0  0
   -5.8217   16.9256  -34.8049 H   0  0  0  0  0  0  0  0  0  0  0  0
   -6.9010   19.0720  -34.9520 H   0  0  0  0  0  0  0  0  0  0  0  0
   -8.1137   24.5082  -31.4283 H   0  0  0  0  0  0  0  0  0  0  0  0
   -6.2577   26.0071  -30.7025 H   0  0  0  0  0  0  0  0  0  0  0  0
  1  2  1  0
  2  3  2  0
  3  4  1  0
  4  5  2  0
  5  6  1  0
  6  7  2  0
  6  8  2  0
  6  9  1  0
  9 10  2  3
 10 11  1  0
 11 12  2  0
 12 13  1  0
 13 14  2  0
 14 15  1  0
  5 16  1  0
 16 17  2  0
 17  2  1  0
 15 10  1  0
  1 18  1  0
  1 19  1  0
  3 20  1  0
  4 21  1  0
 11 22  1  0
 12 23  1  0
 13 24  1  0
 14 25  1  0
 15 26  1  0
 16 27  1  0
 17 28  1  0
M  END
>  <UniqueID>  (27) 
26

>  <SMILES>  (27) 
Nc1ccc(S(=O)(=O)N=c2cccc[nH]2)cc1

>  <Energy>  (27) 
33.329227735971784

>  <Genealogy>  (27) 
Nc1ccc(S(=O)(=O)N=c2cccc[nH]2)cc1 (3D coordinates assigned)
Nc1ccc(S(=O)(=O)N=c2cccc[nH]2)cc1 (optimized conformer: 33.329227735971784 kcal/mol)

>  <smiles>  (27) 
Nc1ccc(S(=O)(=O)N=c2cccc[nH]2)cc1

>  <score_type>  (27) 
oracle

>  <origin>  (27) 
adgpu

>  <m_score__min__energy>  (27) 
-8.0299999999999994

>  <m_primary>  (27) 
energy

$$$$
27:0
     RDKit          3D

 35 37  0  0  0  0  0  0  0  0999 V2000
   -6.0910   17.5340  -34.5620 C   0  0  0  0  0  0  0  0  0  0  0  0
   -6.1360   18.8220  -33.8040 C   0  0  0  0  0  0  0  0  0  0  0  0
   -7.2650   19.1710  -33.0610 C   0  0  0  0  0  0  0  0  0  0  0  0
   -7.2680   20.3690  -32.3480 C   0  0  0  0  0  0  0  0  0  0  0  0
   -6.1380   21.2000  -32.3910 C   0  0  0  0  0  0  0  0  0  0  0  0
   -6.0780   22.4840  -31.6450 C   0  0  0  0  0  0  0  0  0  0  0  0
   -7.2450   23.1130  -31.1730 C   0  0  0  0  0  0  0  0  0  0  0  0
   -7.1660   24.3270  -30.4860 C   0  0  0  0  0  0  0  0  0  0  0  0
   -5.9270   24.9250  -30.2550 C   0  0  0  0  0  0  0  0  0  0  0  0
   -4.7530   24.3130  -30.7040 C   0  0  0  0  0  0  0  0  0  0  0  0
   -3.4970   24.9610  -30.4590 N   0  0  0  0  0  0  0  0  0  0  0  0
   -2.5170   24.5700  -29.4870 C   0  0  0  0  0  0  0  0  0  0  0  0
   -1.7900   25.4590  -28.9700 O   0  0  0  0  0  0  0  0  0  0  0  0
   -2.3570   23.1680  -29.0420 C   0  0  0  0  0  0  0  0  0  0  0  0
   -3.2480   22.5810  -28.1280 C   0  0  0  0  0  0  0  0  0  0  0  0
   -3.0550   21.2560  -27.7350 C   0  0  0  0  0  0  0  0  0  0  0  0
   -1.9740   20.5310  -28.2420 C   0  0  0  0  0  0  0  0  0  0  0  0
   -1.0960   21.1500  -29.1320 C   0  0  0  0  0  0  0  0  0  0  0  0
   -1.3020   22.4420  -29.5050 N   0  0  0  0  0  0  0  0  0  0  0  0
   -4.8350   23.1060  -31.4220 C   0  0  0  0  0  0  0  0  0  0  0  0
   -5.0610   20.7960  -33.1190 N   0  0  0  0  0  0  0  0  0  0  0  0
   -5.0590   19.6490  -33.8000 N   0  0  0  0  0  0  0  0  0  0  0  0
   -6.0616   16.6927  -33.8539 H   0  0  0  0  0  0  0  0  0  0  0  0
   -6.9867   17.4495  -35.1949 H   0  0  0  0  0  0  0  0  0  0  0  0
   -5.1915   17.5122  -35.1949 H   0  0  0  0  0  0  0  0  0  0  0  0
   -8.1426   18.5081  -33.0383 H   0  0  0  0  0  0  0  0  0  0  0  0
   -8.1486   20.6604  -31.7567 H   0  0  0  0  0  0  0  0  0  0  0  0
   -8.2257   22.6459  -31.3461 H   0  0  0  0  0  0  0  0  0  0  0  0
   -8.0846   24.8133  -30.1258 H   0  0  0  0  0  0  0  0  0  0  0  0
   -5.8735   25.8829  -29.7169 H   0  0  0  0  0  0  0  0  0  0  0  0
   -4.0912   23.1614  -27.7253 H   0  0  0  0  0  0  0  0  0  0  0  0
   -3.7525   20.7836  -27.0276 H   0  0  0  0  0  0  0  0  0  0  0  0
   -1.8169   19.4842  -27.9430 H   0  0  0  0  0  0  0  0  0  0  0  0
   -0.2363   20.5929  -29.5326 H   0  0  0  0  0  0  0  0  0  0  0  0
   -3.9173   22.6430  -31.8137 H   0  0  0  0  0  0  0  0  0  0  0  0
  1  2  1  0
  2  3  2  0
  3  4  1  0
  4  5  2  0
  5  6  1  0
  6  7  2  0
  7  8  1  0
  8  9  2  0
  9 10  1  0
 10 11  1  0
 11 12  1  0
 12 13  2  0
 12 14  1  0
 14 15  2  0
 15 16  1  0
 16 17  2  0
 17 18  1  0
 18 19  2  0
 10 20  2  0
  5 21  1  0
 21 22  2  0
 22  2  1  0
 20  6  1  0
 19 14  1  0
  1 23  1  0
  1 24  1  0
  1 25  1  0
  3 26  1  0
  4 27  1  0
  7 28  1  0
  8 29  1  0
  9 30  1  0
 15 31  1  0
 16 32  1  0
 17 33  1  0
 18 34  1  0
 20 35  1  0
M  CHG  1  11  -1
M  END
>  <UniqueID>  (28) 
27

>  <SMILES>  (28) 
Cc1ccc(-c2cccc([N-]C(=O)c3ccccn3)c2)nn1

>  <Energy>  (28) 
48.40047177275143

>  <Genealogy>  (28) 
Cc1ccc(-c2cccc([N-]C(=O)c3ccccn3)c2)nn1 (protonated)
Cc1ccc(-c2cccc([N-]C(=O)c3ccccn3)c2)nn1 (3D coordinates assigned)
Cc1ccc(-c2cccc([N-]C(=O)c3ccccn3)c2)nn1 (optimized conformer: 48.40047177275143 kcal/mol)

>  <smiles>  (28) 
Cc1ccc(-c2cccc(NC(=O)c3ccccn3)c2)nn1

>  <score_type>  (28) 
oracle

>  <origin>  (28) 
adgpu

>  <m_score__min__energy>  (28) 
-9.9600000000000009

>  <m_primary>  (28) 
energy

$$$$
28:0
     RDKit          3D

 34 36  0  0  0  0  0  0  0  0999 V2000
   -6.8790   21.2760  -33.0060 O   0  0  0  0  0  0  0  0  0  0  0  0
   -6.3250   22.1400  -32.2730 C   0  0  0  0  0  0  0  0  0  0  0  0
   -7.0820   23.3890  -31.9210 C   0  0  0  0  0  0  0  0  0  0  0  0
   -7.1230   23.6730  -30.1120 S   0  0  0  0  0  0  0  0  0  0  0  0
   -5.4080   24.1760  -29.9760 C   0  0  0  0  0  0  0  0  0  0  0  0
   -4.7440   24.8450  -30.9340 N   0  0  0  0  0  0  0  0  0  0  0  0
   -3.5040   24.9850  -30.4980 N   0  0  0  0  0  0  0  0  0  0  0  0
   -3.4490   24.3970  -29.2860 C   0  0  0  0  0  0  0  0  0  0  0  0
   -2.2200   24.2930  -28.4700 C   0  0  0  0  0  0  0  0  0  0  0  0
   -2.2770   23.8210  -27.1490 C   0  0  0  0  0  0  0  0  0  0  0  0
   -1.1100   23.7040  -26.3950 C   0  0  0  0  0  0  0  0  0  0  0  0
    0.1110   24.0660  -26.9670 C   0  0  0  0  0  0  0  0  0  0  0  0
    0.1550   24.5260  -28.2450 N   0  0  0  0  0  0  0  0  0  0  0  0
   -0.9690   24.6470  -29.0010 C   0  0  0  0  0  0  0  0  0  0  0  0
   -4.6350   23.8740  -28.9180 N   0  0  0  0  0  0  0  0  0  0  0  0
   -4.9670   21.9720  -31.8390 N   0  0  0  0  0  0  0  0  0  0  0  0
   -4.0560   21.0470  -32.4530 C   0  0  0  0  0  0  0  0  0  0  0  0
   -4.3970   19.6960  -32.6360 C   0  0  0  0  0  0  0  0  0  0  0  0
   -3.5070   18.8250  -33.2700 C   0  0  0  0  0  0  0  0  0  0  0  0
   -2.2650   19.2860  -33.7190 C   0  0  0  0  0  0  0  0  0  0  0  0
   -1.1820   18.1660  -34.5320 Cl  0  0  0  0  0  0  0  0  0  0  0  0
   -1.9050   20.6280  -33.5130 C   0  0  0  0  0  0  0  0  0  0  0  0
   -0.3550   21.2520  -34.0640 Cl  0  0  0  0  0  0  0  0  0  0  0  0
   -2.7960   21.4980  -32.8730 C   0  0  0  0  0  0  0  0  0  0  0  0
   -6.5956   24.2485  -32.4054 H   0  0  0  0  0  0  0  0  0  0  0  0
   -8.1178   23.2712  -32.2720 H   0  0  0  0  0  0  0  0  0  0  0  0
   -3.2453   23.5426  -26.7075 H   0  0  0  0  0  0  0  0  0  0  0  0
   -1.1509   23.3307  -25.3611 H   0  0  0  0  0  0  0  0  0  0  0  0
    1.0387   23.9788  -26.3824 H   0  0  0  0  0  0  0  0  0  0  0  0
   -0.8980   25.0235  -30.0321 H   0  0  0  0  0  0  0  0  0  0  0  0
   -4.5590   22.7230  -31.2350 H   0  0  0  0  0  0  0  0  0  0  0  0
   -5.3681   19.3228  -32.2788 H   0  0  0  0  0  0  0  0  0  0  0  0
   -3.7847   17.7708  -33.4168 H   0  0  0  0  0  0  0  0  0  0  0  0
   -2.5053   22.5444  -32.6980 H   0  0  0  0  0  0  0  0  0  0  0  0
  1  2  2  0
  2  3  1  0
  3  4  1  0
  4  5  1  0
  5  6  2  0
  6  7  1  0
  7  8  1  0
  8  9  1  0
  9 10  2  0
 10 11  1  0
 11 12  2  0
 12 13  1  0
 13 14  2  0
  8 15  2  0
  2 16  1  0
 16 17  1  0
 17 18  2  0
 18 19  1  0
 19 20  2  0
 20 21  1  0
 20 22  1  0
 22 23  1  0
 22 24  2  0
 15  5  1  0
 24 17  1  0
 14  9  1  0
  3 25  1  0
  3 26  1  0
 10 27  1  0
 11 28  1  0
 12 29  1  0
 14 30  1  0
 16 31  1  0
 18 32  1  0
 19 33  1  0
 24 34  1  0
M  CHG  1   7  -1
M  END
>  <UniqueID>  (29) 
28

>  <SMILES>  (29) 
O=C(CSc1n[n-]c(-c2cccnc2)n1)Nc1ccc(Cl)c(Cl)c1

>  <Energy>  (29) 
68.1646760619977

>  <Genealogy>  (29) 
O=C(CSc1n[n-]c(-c2cccnc2)n1)Nc1ccc(Cl)c(Cl)c1 (protonated)
O=C(CSc1n[n-]c(-c2cccnc2)n1)Nc1ccc(Cl)c(Cl)c1 (3D coordinates assigned)
O=C(CSc1n[n-]c(-c2cccnc2)n1)Nc1ccc(Cl)c(Cl)c1 (optimized conformer: 68.1646760619977 kcal/mol)

>  <smiles>  (29) 
O=C(CSc1n[nH]c(-c2cccnc2)n1)Nc1ccc(Cl)c(Cl)c1

>  <score_type>  (29) 
oracle

>  <origin>  (29) 
adgpu

>  <m_score__min__energy>  (29) 
-8.8000000000000007

>  <m_primary>  (29) 
energy

$$$$
29:0
     RDKit          3D

 58 62  0  0  0  0  0  0  0  0999 V2000
   -2.1150   20.7950  -33.1500 C   0  0  0  0  0  0  0  0  0  0  0  0
   -1.3920   20.0030  -34.2270 C   0  0  0  0  0  0  0  0  0  0  0  0
   -1.0400   18.6820  -33.7210 N   0  0  0  0  0  0  0  0  0  0  0  0
   -1.7520   17.4940  -34.0770 C   0  0  0  0  0  0  0  0  0  0  0  0
   -1.2080   16.6170  -34.8030 O   0  0  0  0  0  0  0  0  0  0  0  0
   -3.1320   17.3160  -33.6090 C   0  0  0  0  0  0  0  0  0  0  0  0
   -3.7800   16.1300  -33.3340 C   0  0  0  0  0  0  0  0  0  0  0  0
   -5.0430   16.4070  -32.9520 N   0  0  0  0  0  0  0  0  0  0  0  0
   -5.1040   17.7560  -33.0120 C   0  0  0  0  0  0  0  0  0  0  0  0
   -6.3110   18.5480  -32.7020 C   0  0  0  0  0  0  0  0  0  0  0  0
   -7.6010   18.0530  -33.0000 C   0  0  0  0  0  0  0  0  0  0  0  0
   -8.7380   18.8260  -32.7290 C   0  0  0  0  0  0  0  0  0  0  0  0
   -8.5610   20.0920  -32.1760 C   0  0  0  0  0  0  0  0  0  0  0  0
   -9.7370   21.1980  -31.7350 S   0  0  0  0  0  0  0  0  0  0  0  0
   -8.6580   22.3690  -31.1720 C   0  0  0  0  0  0  0  0  0  0  0  0
   -7.3520   21.9030  -31.3300 C   0  0  0  0  0  0  0  0  0  0  0  0
   -6.1690   22.7030  -30.9520 C   0  0  0  0  0  0  0  0  0  0  0  0
   -4.8900   22.3510  -31.4170 C   0  0  0  0  0  0  0  0  0  0  0  0
   -3.7660   23.0780  -31.0160 C   0  0  0  0  0  0  0  0  0  0  0  0
   -3.9030   24.1740  -30.1480 C   0  0  0  0  0  0  0  0  0  0  0  0
   -2.7600   24.9310  -29.7140 N   0  0  0  0  0  0  0  0  0  0  0  0
   -2.1650   24.8150  -28.4150 C   0  0  0  0  0  0  0  0  0  0  0  0
   -2.7480   24.1690  -27.5060 O   0  0  0  0  0  0  0  0  0  0  0  0
   -0.9460   25.5140  -28.1410 N   0  0  0  0  0  0  0  0  0  0  0  0
   -0.7160   26.4910  -27.1130 C   0  0  0  0  0  0  0  0  0  0  0  0
   -0.4580   27.8400  -27.4090 C   0  0  0  0  0  0  0  0  0  0  0  0
   -0.2520   28.7580  -26.3740 C   0  0  0  0  0  0  0  0  0  0  0  0
   -0.3140   28.3420  -25.0410 C   0  0  0  0  0  0  0  0  0  0  0  0
   -0.6070   27.0040  -24.7340 C   0  0  0  0  0  0  0  0  0  0  0  0
   -0.6890   26.5430  -23.3080 C   0  0  0  0  0  0  0  0  0  0  0  0
   -0.8090   26.0860  -25.7740 C   0  0  0  0  0  0  0  0  0  0  0  0
   -5.1870   24.5680  -29.7420 C   0  0  0  0  0  0  0  0  0  0  0  0
   -6.3120   23.8370  -30.1370 C   0  0  0  0  0  0  0  0  0  0  0  0
   -7.3070   20.6070  -31.8890 C   0  0  0  0  0  0  0  0  0  0  0  0
   -6.1700   19.8290  -32.1300 C   0  0  0  0  0  0  0  0  0  0  0  0
   -3.9690   18.2980  -33.3990 O   0  0  0  0  0  0  0  0  0  0  0  0
   -1.7939   20.4433  -32.1584 H   0  0  0  0  0  0  0  0  0  0  0  0
   -1.8738   21.8630  -33.2560 H   0  0  0  0  0  0  0  0  0  0  0  0
   -3.2005   20.6519  -33.2560 H   0  0  0  0  0  0  0  0  0  0  0  0
   -2.0488   19.8948  -35.1027 H   0  0  0  0  0  0  0  0  0  0  0  0
   -0.4740   20.5369  -34.5137 H   0  0  0  0  0  0  0  0  0  0  0  0
   -3.3396   15.1251  -33.4132 H   0  0  0  0  0  0  0  0  0  0  0  0
   -7.7131   17.0544  -33.4476 H   0  0  0  0  0  0  0  0  0  0  0  0
   -9.7455   18.4424  -32.9476 H   0  0  0  0  0  0  0  0  0  0  0  0
   -8.9399   23.3441  -30.7481 H   0  0  0  0  0  0  0  0  0  0  0  0
   -4.7732   21.4976  -32.1011 H   0  0  0  0  0  0  0  0  0  0  0  0
   -2.7692   22.7907  -31.3818 H   0  0  0  0  0  0  0  0  0  0  0  0
   -2.3850   25.6690  -30.3500 H   0  0  0  0  0  0  0  0  0  0  0  0
   -0.4180   28.1747  -28.4561 H   0  0  0  0  0  0  0  0  0  0  0  0
   -0.0404   29.8114  -26.6100 H   0  0  0  0  0  0  0  0  0  0  0  0
   -0.1329   29.0642  -24.2313 H   0  0  0  0  0  0  0  0  0  0  0  0
   -0.5365   27.4005  -22.6361 H   0  0  0  0  0  0  0  0  0  0  0  0
   -1.6796   26.1026  -23.1214 H   0  0  0  0  0  0  0  0  0  0  0  0
    0.0890   25.7880  -23.1214 H   0  0  0  0  0  0  0  0  0  0  0  0
   -1.0428   25.0375  -25.5372 H   0  0  0  0  0  0  0  0  0  0  0  0
   -5.3097   25.4586  -29.1082 H   0  0  0  0  0  0  0  0  0  0  0  0
   -7.3132   24.1520  -29.8076 H   0  0  0  0  0  0  0  0  0  0  0  0
   -5.1717   20.2142  -31.8748 H   0  0  0  0  0  0  0  0  0  0  0  0
  1  2  1  0
  2  3  1  0
  3  4  1  0
  4  5  2  0
  4  6  1  0
  6  7  2  0
  7  8  1  0
  8  9  2  0
  9 10  1  0
 10 11  2  0
 11 12  1  0
 12 13  2  0
 13 14  1  0
 14 15  1  0
 15 16  2  0
 16 17  1  0
 17 18  2  0
 18 19  1  0
 19 20  2  0
 20 21  1  0
 21 22  1  0
 22 23  2  0
 22 24  1  0
 24 25  1  0
 25 26  2  0
 26 27  1  0
 27 28  2  0
 28 29  1  0
 29 30  1  0
 29 31  2  0
 20 32  1  0
 32 33  2  0
 16 34  1  0
 34 35  2  0
  9 36  1  0
 36  6  1  0
 35 10  1  0
 34 13  1  0
 33 17  1  0
 31 25  1  0
  1 37  1  0
  1 38  1  0
  1 39  1  0
  2 40  1  0
  2 41  1  0
  7 42  1  0
 11 43  1  0
 12 44  1  0
 15 45  1  0
 18 46  1  0
 19 47  1  0
 21 48  1  0
 26 49  1  0
 27 50  1  0
 28 51  1  0
 30 52  1  0
 30 53  1  0
 30 54  1  0
 31 55  1  0
 32 56  1  0
 33 57  1  0
 35 58  1  0
M  CHG  2   3  -1  24  -1
M  END
>  <UniqueID>  (30) 
29

>  <SMILES>  (30) 
CC[N-]C(=O)c1cnc(-c2ccc3scc(-c4ccc(NC(=O)[N-]c5cccc(C)c5)cc4)c3c2)o1

>  <Energy>  (30) 
129.15049280916602

>  <Genealogy>  (30) 
CC[N-]C(=O)c1cnc(-c2ccc3scc(-c4ccc(NC(=O)[N-]c5cccc(C)c5)cc4)c3c2)o1 (protonated)
CC[N-]C(=O)c1cnc(-c2ccc3scc(-c4ccc(NC(=O)[N-]c5cccc(C)c5)cc4)c3c2)o1 (3D coordinates assigned)
CC[N-]C(=O)c1cnc(-c2ccc3scc(-c4ccc(NC(=O)[N-]c5cccc(C)c5)cc4)c3c2)o1 (optimized conformer: 129.15049280916602 kcal/mol)

>  <smiles>  (30) 
CCNC(=O)c1cnc(-c2ccc3scc(-c4ccc(NC(=O)Nc5cccc(C)c5)cc4)c3c2)o1

>  <score_type>  (30) 
oracle

>  <origin>  (30) 
adgpu

>  <m_score__min__energy>  (30) 
-12.92

>  <m_primary>  (30) 
energy

$$$$
30:0
     RDKit          3D

 44 46  0  0  0  0  0  0  0  0999 V2000
   -5.0520   18.0060  -34.5770 C   0  0  0  0  0  0  0  0  0  0  0  0
   -3.8580   18.6900  -33.9250 C   0  0  0  0  0  0  0  0  0  0  0  0
   -4.2890   19.5460  -32.8240 N   0  0  0  0  0  0  0  0  0  0  0  0
   -4.3590   20.9740  -32.9090 C   0  0  0  0  0  0  0  0  0  0  0  0
   -3.4410   21.6180  -33.4820 O   0  0  0  0  0  0  0  0  0  0  0  0
   -5.5400   21.6750  -32.3690 C   0  0  0  0  0  0  0  0  0  0  0  0
   -5.4640   22.8740  -31.6510 C   0  0  0  0  0  0  0  0  0  0  0  0
   -4.3420   23.7610  -31.5860 N   0  0  0  0  0  0  0  0  0  0  0  0
   -3.9030   24.4640  -30.4120 C   0  0  0  0  0  0  0  0  0  0  0  0
   -4.2450   25.6680  -30.2770 O   0  0  0  0  0  0  0  0  0  0  0  0
   -3.0230   23.8320  -29.3900 C   0  0  0  0  0  0  0  0  0  0  0  0
   -3.2760   22.5210  -28.9460 C   0  0  0  0  0  0  0  0  0  0  0  0
   -2.4770   21.9280  -27.9580 C   0  0  0  0  0  0  0  0  0  0  0  0
   -2.8120   20.5580  -27.4440 C   0  0  0  0  0  0  0  0  0  0  0  0
   -1.4080   22.6480  -27.4110 C   0  0  0  0  0  0  0  0  0  0  0  0
   -1.1140   23.9290  -27.8790 C   0  0  0  0  0  0  0  0  0  0  0  0
   -1.9040   24.5190  -28.8700 C   0  0  0  0  0  0  0  0  0  0  0  0
   -1.5690   25.7900  -29.3240 O   0  0  0  0  0  0  0  0  0  0  0  0
   -6.9630   23.2440  -30.9900 S   0  0  0  0  0  0  0  0  0  0  0  0
   -7.7420   21.8920  -31.6110 C   0  0  0  0  0  0  0  0  0  0  0  0
   -6.8490   21.1440  -32.3760 C   0  0  0  0  0  0  0  0  0  0  0  0
   -7.2540   19.8210  -32.9830 C   0  0  0  0  0  0  0  0  0  0  0  0
   -8.7840   19.6730  -33.0700 C   0  0  0  0  0  0  0  0  0  0  0  0
   -9.4680   20.0970  -31.7610 C   0  0  0  0  0  0  0  0  0  0  0  0
   -9.1980   21.5770  -31.4550 C   0  0  0  0  0  0  0  0  0  0  0  0
   -5.7248   17.6206  -33.7968 H   0  0  0  0  0  0  0  0  0  0  0  0
   -5.5933   18.7310  -35.2026 H   0  0  0  0  0  0  0  0  0  0  0  0
   -4.7004   17.1723  -35.2026 H   0  0  0  0  0  0  0  0  0  0  0  0
   -3.1702   17.9236  -33.5381 H   0  0  0  0  0  0  0  0  0  0  0  0
   -3.3530   19.3121  -34.6786 H   0  0  0  0  0  0  0  0  0  0  0  0
   -4.1123   21.9534  -29.3800 H   0  0  0  0  0  0  0  0  0  0  0  0
   -2.8095   20.5683  -26.3441 H   0  0  0  0  0  0  0  0  0  0  0  0
   -3.8084   20.2642  -27.8056 H   0  0  0  0  0  0  0  0  0  0  0  0
   -2.0636   19.8375  -27.8056 H   0  0  0  0  0  0  0  0  0  0  0  0
   -0.7987   22.2028  -26.6107 H   0  0  0  0  0  0  0  0  0  0  0  0
   -0.2552   24.4782  -27.4656 H   0  0  0  0  0  0  0  0  0  0  0  0
   -6.8318   19.7507  -33.9963 H   0  0  0  0  0  0  0  0  0  0  0  0
   -6.8703   19.0179  -32.3366 H   0  0  0  0  0  0  0  0  0  0  0  0
   -9.1579   20.3048  -33.8892 H   0  0  0  0  0  0  0  0  0  0  0  0
   -9.0176   18.6138  -33.2532 H   0  0  0  0  0  0  0  0  0  0  0  0
  -10.5528   19.9409  -31.8548 H   0  0  0  0  0  0  0  0  0  0  0  0
   -9.0614   19.4889  -30.9395 H   0  0  0  0  0  0  0  0  0  0  0  0
   -9.7791   22.2013  -32.1496 H   0  0  0  0  0  0  0  0  0  0  0  0
   -9.4956   21.7838  -30.4164 H   0  0  0  0  0  0  0  0  0  0  0  0
  1  2  1  0
  2  3  1  0
  3  4  1  0
  4  5  2  0
  4  6  1  0
  6  7  2  0
  7  8  1  0
  8  9  1  0
  9 10  2  0
  9 11  1  0
 11 12  2  0
 12 13  1  0
 13 14  1  0
 13 15  2  0
 15 16  1  0
 16 17  2  0
 17 18  1  0
  7 19  1  0
 19 20  1  0
 20 21  2  0
 21 22  1  0
 22 23  1  0
 23 24  1  0
 24 25  1  0
 21  6  1  0
 17 11  1  0
 25 20  1  0
  1 26  1  0
  1 27  1  0
  1 28  1  0
  2 29  1  0
  2 30  1  0
 12 31  1  0
 14 32  1  0
 14 33  1  0
 14 34  1  0
 15 35  1  0
 16 36  1  0
 22 37  1  0
 22 38  1  0
 23 39  1  0
 23 40  1  0
 24 41  1  0
 24 42  1  0
 25 43  1  0
 25 44  1  0
M  CHG  3   3  -1   8  -1  18  -1
M  END
>  <UniqueID>  (31) 
30

>  <SMILES>  (31) 
CC[N-]C(=O)c1c([N-]C(=O)c2cc(C)ccc2[O-])sc2c1CCCC2

>  <Energy>  (31) 
77.2771892088028

>  <Genealogy>  (31) 
CC[N-]C(=O)c1c([N-]C(=O)c2cc(C)ccc2[O-])sc2c1CCCC2 (protonated)
CC[N-]C(=O)c1c([N-]C(=O)c2cc(C)ccc2[O-])sc2c1CCCC2 (3D coordinates assigned)
CC[N-]C(=O)c1c([N-]C(=O)c2cc(C)ccc2[O-])sc2c1CCCC2 (nonaromatic ring conformer: 77.2771892088028 kcal/mol)

>  <smiles>  (31) 
CCNC(=O)c1c(NC(=O)c2cc(C)ccc2O)sc2c1CCCC2

>  <score_type>  (31) 
oracle

>  <origin>  (31) 
adgpu

>  <m_score__min__energy>  (31) 
-13.140000000000001

>  <m_primary>  (31) 
energy

$$$$
31:0
     RDKit          3D

 47 49  0  0  0  0  0  0  0  0999 V2000
   -9.6424   19.3874  -32.4315 H   0  0  0  0  0  0  0  0  0  0  0  0
   -8.7700   20.0140  -32.1940 C   0  0  0  0  0  0  0  0  0  0  0  0
   -7.4390   19.5090  -32.6090 C   0  0  0  0  0  0  0  0  0  0  0  0
   -7.1110   18.3140  -32.3840 O   0  0  0  0  0  0  0  0  0  0  0  0
   -6.5410   20.3350  -33.3610 N   0  0  0  0  0  0  0  0  0  0  0  0
   -5.1340   20.4580  -33.1140 C   0  0  0  0  0  0  0  0  0  0  0  0
   -4.6430   21.6830  -32.6460 C   0  0  0  0  0  0  0  0  0  0  0  0
   -5.3305   22.5308  -32.5097 H   0  0  0  0  0  0  0  0  0  0  0  0
   -3.2860   21.8360  -32.3510 C   0  0  0  0  0  0  0  0  0  0  0  0
   -2.9107   22.7988  -31.9741 H   0  0  0  0  0  0  0  0  0  0  0  0
   -2.4070   20.7690  -32.5340 C   0  0  0  0  0  0  0  0  0  0  0  0
   -1.3414   20.8866  -32.2875 H   0  0  0  0  0  0  0  0  0  0  0  0
   -2.8780   19.5510  -33.0300 C   0  0  0  0  0  0  0  0  0  0  0  0
   -2.1791   18.7146  -33.1779 H   0  0  0  0  0  0  0  0  0  0  0  0
   -4.2370   19.3870  -33.3410 C   0  0  0  0  0  0  0  0  0  0  0  0
   -4.6750   18.1580  -33.9330 N   0  0  0  0  0  0  0  0  0  0  0  0
   -5.6910   17.9170  -33.9660 H   0  0  0  0  0  0  0  0  0  0  0  0
   -3.9970   17.4380  -34.2620 H   0  0  0  0  0  0  0  0  0  0  0  0
   -9.0010   21.1710  -31.5530 C   0  0  0  0  0  0  0  0  0  0  0  0
  -10.0228   21.3484  -31.1863 H   0  0  0  0  0  0  0  0  0  0  0  0
   -7.9990   22.2250  -31.2990 C   0  0  0  0  0  0  0  0  0  0  0  0
   -7.6340   23.1430  -32.3000 C   0  0  0  0  0  0  0  0  0  0  0  0
   -8.0703   23.0576  -33.3062 H   0  0  0  0  0  0  0  0  0  0  0  0
   -6.7200   24.1630  -32.0230 C   0  0  0  0  0  0  0  0  0  0  0  0
   -6.4285   24.8673  -32.8161 H   0  0  0  0  0  0  0  0  0  0  0  0
   -6.1720   24.2930  -30.7370 C   0  0  0  0  0  0  0  0  0  0  0  0
   -5.2060   25.4050  -30.4240 C   0  0  0  0  0  0  0  0  0  0  0  0
   -5.4209   25.7988  -29.4196 H   0  0  0  0  0  0  0  0  0  0  0  0
   -5.3226   26.1990  -31.1764 H   0  0  0  0  0  0  0  0  0  0  0  0
   -3.8280   24.9150  -30.4640 N   0  0  0  0  0  0  0  0  0  0  0  0
   -3.2750   24.1710  -29.5520 C   0  0  0  0  0  0  0  0  0  0  0  0
   -3.9720   23.7860  -28.4440 N   0  0  0  0  0  0  0  0  0  0  0  0
   -3.4170   23.0080  -27.4770 C   0  0  0  0  0  0  0  0  0  0  0  0
   -4.0136   22.7101  -26.6022 H   0  0  0  0  0  0  0  0  0  0  0  0
   -2.0860   22.5850  -27.5930 C   0  0  0  0  0  0  0  0  0  0  0  0
   -1.4740   21.6920  -26.5550 C   0  0  0  0  0  0  0  0  0  0  0  0
   -1.7301   22.0657  -25.5527 H   0  0  0  0  0  0  0  0  0  0  0  0
   -1.8624   20.6699  -26.6755 H   0  0  0  0  0  0  0  0  0  0  0  0
   -0.3806   21.6854  -26.6755 H   0  0  0  0  0  0  0  0  0  0  0  0
   -1.3580   22.9550  -28.7320 C   0  0  0  0  0  0  0  0  0  0  0  0
   -0.3192   22.6147  -28.8547 H   0  0  0  0  0  0  0  0  0  0  0  0
   -1.9500   23.7550  -29.7110 C   0  0  0  0  0  0  0  0  0  0  0  0
   -1.3779   24.0558  -30.6011 H   0  0  0  0  0  0  0  0  0  0  0  0
   -6.5640   23.4000  -29.7290 C   0  0  0  0  0  0  0  0  0  0  0  0
   -6.1512   23.5041  -28.7147 H   0  0  0  0  0  0  0  0  0  0  0  0
   -7.4770   22.3780  -30.0070 C   0  0  0  0  0  0  0  0  0  0  0  0
   -7.7875   21.6899  -29.2070 H   0  0  0  0  0  0  0  0  0  0  0  0
  1  2  1  0
  2  3  1  0
  3  4  2  0
  3  5  1  0
  5  6  1  0
  6  7  2  0
  7  8  1  0
  7  9  1  0
  9 10  1  0
  9 11  2  0
 11 12  1  0
 11 13  1  0
 13 14  1  0
 13 15  2  0
 15 16  1  0
 16 17  1  0
 16 18  1  0
  2 19  2  0
 19 20  1  0
 19 21  1  0
 21 22  2  0
 22 23  1  0
 22 24  1  0
 24 25  1  0
 24 26  2  0
 26 27  1  0
 27 28  1  0
 27 29  1  0
 27 30  1  0
 30 31  2  0
 31 32  1  0
 32 33  1  0
 33 34  1  0
 33 35  2  0
 35 36  1  0
 36 37  1  0
 36 38  1  0
 36 39  1  0
 35 40  1  0
 40 41  1  0
 40 42  2  0
 42 43  1  0
 26 44  1  0
 44 45  1  0
 44 46  2  0
 46 47  1  0
 15  6  1  0
 46 21  1  0
 42 31  1  0
M  CHG  2   5  -1  32  -1
M  END
>  <UniqueID>  (32) 
31

>  <SMILES>  (32) 
Cc1cc/c(=N/Cc2ccc(/C=C\C(=O)[N-]c3ccccc3N)cc2)[n-]c1

>  <Energy>  (32) 
62.54209831494985

>  <Genealogy>  (32) 
Cc1ccc(=NCc2ccc(C=CC(=O)[N-]c3ccccc3N)cc2)[n-]c1 (protonated)
Cc1cc/c(=N/Cc2ccc(/C=C\C(=O)[N-]c3ccccc3N)cc2)[n-]c1 (cis-trans isomerization)
Cc1cc/c(=N/Cc2ccc(/C=C\C(=O)[N-]c3ccccc3N)cc2)[n-]c1 (3D coordinates assigned)
Cc1cc/c(=N/Cc2ccc(/C=C\C(=O)[N-]c3ccccc3N)cc2)[n-]c1 (optimized conformer: 62.54209831494985 kcal/mol)

>  <smiles>  (32) 
Cc1ccc(=NCc2ccc(C=CC(=O)Nc3ccccc3N)cc2)[nH]c1

>  <score_type>  (32) 
oracle

>  <origin>  (32) 
adgpu

>  <m_score__min__energy>  (32) 
-11.15

>  <m_primary>  (32) 
energy

$$$$
32:0
     RDKit          3D

 48 50  0  0  0  0  0  0  0  0999 V2000
   -9.3200   21.5640  -30.7690 C   0  0  0  0  0  0  0  0  0  0  0  0
   -8.4540   20.7110  -31.6560 C   0  0  0  0  0  0  0  0  0  0  0  0
   -8.6820   19.3260  -31.7130 C   0  0  0  0  0  0  0  0  0  0  0  0
   -7.8960   18.5080  -32.5280 C   0  0  0  0  0  0  0  0  0  0  0  0
   -6.8730   19.0620  -33.3130 C   0  0  0  0  0  0  0  0  0  0  0  0
   -6.0440   18.2350  -34.1490 N   0  0  0  0  0  0  0  0  0  0  0  0
   -4.6110   18.1730  -34.0440 C   0  0  0  0  0  0  0  0  0  0  0  0
   -3.8980   19.2750  -33.5410 C   0  0  0  0  0  0  0  0  0  0  0  0
   -2.5040   19.2130  -33.3720 C   0  0  0  0  0  0  0  0  0  0  0  0
   -1.7650   20.3040  -32.8910 O   0  0  0  0  0  0  0  0  0  0  0  0
   -2.0940   21.0760  -31.7650 C   0  0  0  0  0  0  0  0  0  0  0  0
   -3.0040   22.1450  -31.8550 C   0  0  0  0  0  0  0  0  0  0  0  0
   -3.3270   22.9140  -30.7240 C   0  0  0  0  0  0  0  0  0  0  0  0
   -4.2740   24.0500  -30.8280 C   0  0  0  0  0  0  0  0  0  0  0  0
   -3.8560   25.3740  -30.5000 N   0  0  0  0  0  0  0  0  0  0  0  0
   -5.4600   23.8560  -31.2040 O   0  0  0  0  0  0  0  0  0  0  0  0
   -2.7390   22.5890  -29.4910 C   0  0  0  0  0  0  0  0  0  0  0  0
   -1.8540   21.5140  -29.3890 C   0  0  0  0  0  0  0  0  0  0  0  0
   -1.5350   20.7450  -30.5170 C   0  0  0  0  0  0  0  0  0  0  0  0
   -0.5670   19.6010  -30.4030 C   0  0  0  0  0  0  0  0  0  0  0  0
   -1.8230   18.0470  -33.7290 C   0  0  0  0  0  0  0  0  0  0  0  0
   -2.5210   16.9430  -34.2210 C   0  0  0  0  0  0  0  0  0  0  0  0
   -3.9140   16.9910  -34.3780 C   0  0  0  0  0  0  0  0  0  0  0  0
   -4.5970   15.8510  -34.9160 N   0  0  0  0  0  0  0  0  0  0  0  0
   -6.6280   20.4400  -33.2440 C   0  0  0  0  0  0  0  0  0  0  0  0
   -7.4100   21.2730  -32.4280 C   0  0  0  0  0  0  0  0  0  0  0  0
   -7.1290   22.6790  -32.4000 N   0  0  0  0  0  0  0  0  0  0  0  0
   -9.0955   21.3429  -29.7151 H   0  0  0  0  0  0  0  0  0  0  0  0
   -9.1185   22.6262  -30.9717 H   0  0  0  0  0  0  0  0  0  0  0  0
  -10.3790   21.3465  -30.9717 H   0  0  0  0  0  0  0  0  0  0  0  0
   -9.4874   18.8813  -31.1099 H   0  0  0  0  0  0  0  0  0  0  0  0
   -8.0798   17.4238  -32.5547 H   0  0  0  0  0  0  0  0  0  0  0  0
   -6.5130   17.5870  -34.8210 H   0  0  0  0  0  0  0  0  0  0  0  0
   -4.4372   20.1966  -33.2766 H   0  0  0  0  0  0  0  0  0  0  0  0
   -3.4688   22.3821  -32.8234 H   0  0  0  0  0  0  0  0  0  0  0  0
   -3.5230   26.0310  -31.2400 H   0  0  0  0  0  0  0  0  0  0  0  0
   -2.9775   23.1860  -28.5984 H   0  0  0  0  0  0  0  0  0  0  0  0
   -1.4035   21.2685  -28.4160 H   0  0  0  0  0  0  0  0  0  0  0  0
   -0.3817   19.3820  -29.3411 H   0  0  0  0  0  0  0  0  0  0  0  0
   -0.9911   18.7117  -30.8922 H   0  0  0  0  0  0  0  0  0  0  0  0
    0.3802   19.8720  -30.8922 H   0  0  0  0  0  0  0  0  0  0  0  0
   -0.7293   17.9984  -33.6217 H   0  0  0  0  0  0  0  0  0  0  0  0
   -1.9737   16.0270  -34.4881 H   0  0  0  0  0  0  0  0  0  0  0  0
   -5.5970   15.6520  -34.6980 H   0  0  0  0  0  0  0  0  0  0  0  0
   -4.1140   15.2140  -35.5880 H   0  0  0  0  0  0  0  0  0  0  0  0
   -5.8109   20.8755  -33.8379 H   0  0  0  0  0  0  0  0  0  0  0  0
   -6.5040   23.1370  -33.0980 H   0  0  0  0  0  0  0  0  0  0  0  0
   -7.5550   23.2890  -31.6660 H   0  0  0  0  0  0  0  0  0  0  0  0
  1  2  1  0
  2  3  2  0
  3  4  1  0
  4  5  2  0
  5  6  1  0
  6  7  1  0
  7  8  2  0
  8  9  1  0
  9 10  1  0
 10 11  1  0
 11 12  2  0
 12 13  1  0
 13 14  1  0
 14 15  1  0
 14 16  2  0
 13 17  2  0
 17 18  1  0
 18 19  2  0
 19 20  1  0
  9 21  2  0
 21 22  1  0
 22 23  2  0
 23 24  1  0
  5 25  1  0
 25 26  2  0
 26 27  1  0
 26  2  1  0
 23  7  1  0
 19 11  1  0
  1 28  1  0
  1 29  1  0
  1 30  1  0
  3 31  1  0
  4 32  1  0
  6 33  1  0
  8 34  1  0
 12 35  1  0
 15 36  1  0
 17 37  1  0
 18 38  1  0
 20 39  1  0
 20 40  1  0
 20 41  1  0
 21 42  1  0
 22 43  1  0
 24 44  1  0
 24 45  1  0
 25 46  1  0
 27 47  1  0
 27 48  1  0
M  CHG  1  15  -1
M  END
>  <UniqueID>  (33) 
32

>  <SMILES>  (33) 
Cc1ccc(Nc2cc(Oc3cc(C([NH-])=O)ccc3C)ccc2N)cc1N

>  <Energy>  (33) 
62.40099643368795

>  <Genealogy>  (33) 
Cc1ccc(Nc2cc(Oc3cc(C([NH-])=O)ccc3C)ccc2N)cc1N (protonated)
Cc1ccc(Nc2cc(Oc3cc(C([NH-])=O)ccc3C)ccc2N)cc1N (3D coordinates assigned)
Cc1ccc(Nc2cc(Oc3cc(C([NH-])=O)ccc3C)ccc2N)cc1N (optimized conformer: 62.40099643368795 kcal/mol)

>  <smiles>  (33) 
Cc1ccc(Nc2cc(Oc3cc(C(N)=O)ccc3C)ccc2N)cc1N

>  <score_type>  (33) 
oracle

>  <origin>  (33) 
adgpu

>  <m_score__min__energy>  (33) 
-10.76

>  <m_primary>  (33) 
energy

$$$$
33:0
     RDKit          3D

 36 38  0  0  0  0  0  0  0  0999 V2000
   -5.7360   26.4440  -30.0960 O   0  0  0  0  0  0  0  0  0  0  0  0
   -5.2720   25.3540  -30.5270 C   0  0  0  0  0  0  0  0  0  0  0  0
   -3.8610   25.2050  -30.7200 N   0  0  0  0  0  0  0  0  0  0  0  0
   -3.0560   24.2050  -30.0900 C   0  0  0  0  0  0  0  0  0  0  0  0
   -3.0170   22.8180  -30.0560 C   0  0  0  0  0  0  0  0  0  0  0  0
   -3.8020   21.7640  -30.6200 N   0  0  0  0  0  0  0  0  0  0  0  0
   -3.8510   21.5240  -32.0580 C   0  0  0  0  0  0  0  0  0  0  0  0
   -4.8290   20.4220  -32.3670 C   0  0  0  0  0  0  0  0  0  0  0  0
   -5.3920   19.6530  -31.3360 C   0  0  0  0  0  0  0  0  0  0  0  0
   -6.2890   18.6230  -31.6350 C   0  0  0  0  0  0  0  0  0  0  0  0
   -6.6300   18.3530  -32.9640 C   0  0  0  0  0  0  0  0  0  0  0  0
   -7.4980   17.3520  -33.2520 F   0  0  0  0  0  0  0  0  0  0  0  0
   -6.0750   19.1160  -33.9950 C   0  0  0  0  0  0  0  0  0  0  0  0
   -5.1790   20.1480  -33.7000 C   0  0  0  0  0  0  0  0  0  0  0  0
   -1.9150   22.8770  -29.2200 C   0  0  0  0  0  0  0  0  0  0  0  0
   -1.1740   22.0270  -28.6630 O   0  0  0  0  0  0  0  0  0  0  0  0
   -1.9830   24.2540  -29.2240 C   0  0  0  0  0  0  0  0  0  0  0  0
   -1.3250   25.1760  -28.6750 O   0  0  0  0  0  0  0  0  0  0  0  0
   -6.1830   24.2150  -30.7870 C   0  0  0  0  0  0  0  0  0  0  0  0
   -6.7540   23.4950  -29.7190 C   0  0  0  0  0  0  0  0  0  0  0  0
   -7.6140   22.4220  -29.9690 C   0  0  0  0  0  0  0  0  0  0  0  0
   -7.9160   22.0550  -31.2820 C   0  0  0  0  0  0  0  0  0  0  0  0
   -7.3560   22.7600  -32.3500 C   0  0  0  0  0  0  0  0  0  0  0  0
   -6.4940   23.8340  -32.1060 C   0  0  0  0  0  0  0  0  0  0  0  0
   -4.3410   21.1350  -29.9850 H   0  0  0  0  0  0  0  0  0  0  0  0
   -4.1674   22.4449  -32.5697 H   0  0  0  0  0  0  0  0  0  0  0  0
   -2.8514   21.2256  -32.4068 H   0  0  0  0  0  0  0  0  0  0  0  0
   -5.1264   19.8616  -30.2891 H   0  0  0  0  0  0  0  0  0  0  0  0
   -6.7273   18.0239  -30.8232 H   0  0  0  0  0  0  0  0  0  0  0  0
   -6.3436   18.9042  -35.0405 H   0  0  0  0  0  0  0  0  0  0  0  0
   -4.7465   20.7477  -34.5144 H   0  0  0  0  0  0  0  0  0  0  0  0
   -6.5215   23.7791  -28.6821 H   0  0  0  0  0  0  0  0  0  0  0  0
   -8.0543   21.8649  -29.1289 H   0  0  0  0  0  0  0  0  0  0  0  0
   -8.5946   21.2111  -31.4752 H   0  0  0  0  0  0  0  0  0  0  0  0
   -7.5933   22.4701  -33.3842 H   0  0  0  0  0  0  0  0  0  0  0  0
   -6.0558   24.3851  -32.9511 H   0  0  0  0  0  0  0  0  0  0  0  0
  1  2  2  0
  2  3  1  0
  3  4  1  0
  4  5  2  0
  5  6  1  0
  6  7  1  0
  7  8  1  0
  8  9  2  0
  9 10  1  0
 10 11  2  0
 11 12  1  0
 11 13  1  0
 13 14  2  0
  5 15  1  0
 15 16  2  0
 15 17  1  0
 17 18  2  0
  2 19  1  0
 19 20  2  0
 20 21  1  0
 21 22  2  0
 22 23  1  0
 23 24  2  0
 17  4  1  0
 24 19  1  0
 14  8  1  0
  6 25  1  0
  7 26  1  0
  7 27  1  0
  9 28  1  0
 10 29  1  0
 13 30  1  0
 14 31  1  0
 20 32  1  0
 21 33  1  0
 22 34  1  0
 23 35  1  0
 24 36  1  0
M  CHG  1   3  -1
M  END
>  <UniqueID>  (34) 
33

>  <SMILES>  (34) 
O=C([N-]c1c(NCc2ccc(F)cc2)c(=O)c1=O)c1ccccc1

>  <Energy>  (34) 
29.35073665793449

>  <Genealogy>  (34) 
O=C([N-]c1c(NCc2ccc(F)cc2)c(=O)c1=O)c1ccccc1 (protonated)
O=C([N-]c1c(NCc2ccc(F)cc2)c(=O)c1=O)c1ccccc1 (3D coordinates assigned)
O=C([N-]c1c(NCc2ccc(F)cc2)c(=O)c1=O)c1ccccc1 (optimized conformer: 29.35073665793449 kcal/mol)

>  <smiles>  (34) 
O=C(Nc1c(NCc2ccc(F)cc2)c(=O)c1=O)c1ccccc1

>  <score_type>  (34) 
oracle

>  <origin>  (34) 
adgpu

>  <m_score__min__energy>  (34) 
-10.08

>  <m_primary>  (34) 
energy

$$$$
34:0
     RDKit          3D

 24 25  0  0  0  0  0  0  0  0999 V2000
   -3.8650   25.6680  -30.4710 O   0  0  0  0  0  0  0  0  0  0  0  0
   -3.6760   24.3320  -30.1400 C   0  0  0  0  0  0  0  0  0  0  0  0
   -3.6950   23.9340  -28.8000 C   0  0  0  0  0  0  0  0  0  0  0  0
   -3.5010   22.5900  -28.4650 C   0  0  0  0  0  0  0  0  0  0  0  0
   -3.2890   21.6370  -29.4720 C   0  0  0  0  0  0  0  0  0  0  0  0
   -3.0930   20.2970  -29.1380 O   0  0  0  0  0  0  0  0  0  0  0  0
   -3.2770   22.0360  -30.8180 C   0  0  0  0  0  0  0  0  0  0  0  0
   -3.0150   20.8350  -32.1270 S   0  0  0  0  0  0  0  0  0  0  0  0
   -4.7470   20.3740  -32.1830 C   0  0  0  0  0  0  0  0  0  0  0  0
   -5.7350   21.3650  -32.2500 C   0  0  0  0  0  0  0  0  0  0  0  0
   -7.0860   21.0060  -32.2890 C   0  0  0  0  0  0  0  0  0  0  0  0
   -7.4540   19.6560  -32.2670 C   0  0  0  0  0  0  0  0  0  0  0  0
   -9.1480   19.2060  -32.3170 Cl  0  0  0  0  0  0  0  0  0  0  0  0
   -6.4670   18.6640  -32.2080 C   0  0  0  0  0  0  0  0  0  0  0  0
   -5.1160   19.0230  -32.1690 C   0  0  0  0  0  0  0  0  0  0  0  0
   -3.4640   23.3860  -31.1470 C   0  0  0  0  0  0  0  0  0  0  0  0
   -3.8627   24.6788  -28.0081 H   0  0  0  0  0  0  0  0  0  0  0  0
   -3.5147   22.2798  -27.4097 H   0  0  0  0  0  0  0  0  0  0  0  0
   -2.4140   19.7230  -29.6240 H   0  0  0  0  0  0  0  0  0  0  0  0
   -5.4478   22.4266  -32.2720 H   0  0  0  0  0  0  0  0  0  0  0  0
   -7.8604   21.7857  -32.3370 H   0  0  0  0  0  0  0  0  0  0  0  0
   -6.7546   17.6024  -32.1923 H   0  0  0  0  0  0  0  0  0  0  0  0
   -4.3417   18.2428  -32.1272 H   0  0  0  0  0  0  0  0  0  0  0  0
   -3.4438   23.7016  -32.2006 H   0  0  0  0  0  0  0  0  0  0  0  0
  1  2  1  0
  2  3  2  0
  3  4  1  0
  4  5  2  0
  5  6  1  0
  5  7  1  0
  7  8  1  0
  8  9  1  0
  9 10  2  0
 10 11  1  0
 11 12  2  0
 12 13  1  0
 12 14  1  0
 14 15  2  0
  7 16  2  0
 16  2  1  0
 15  9  1  0
  3 17  1  0
  4 18  1  0
  6 19  1  0
 10 20  1  0
 11 21  1  0
 14 22  1  0
 15 23  1  0
 16 24  1  0
M  CHG  1   1  -1
M  END
>  <UniqueID>  (35) 
34

>  <SMILES>  (35) 
[O-]c1ccc(O)c(Sc2ccc(Cl)cc2)c1

>  <Energy>  (35) 
20.18779571404573

>  <Genealogy>  (35) 
[O-]c1ccc(O)c(Sc2ccc(Cl)cc2)c1 (protonated)
[O-]c1ccc(O)c(Sc2ccc(Cl)cc2)c1 (3D coordinates assigned)
[O-]c1ccc(O)c(Sc2ccc(Cl)cc2)c1 (optimized conformer: 20.18779571404573 kcal/mol)

>  <smiles>  (35) 
Oc1ccc(O)c(Sc2ccc(Cl)cc2)c1

>  <score_type>  (35) 
oracle

>  <origin>  (35) 
adgpu

>  <m_score__min__energy>  (35) 
-9.2699999999999996

>  <m_primary>  (35) 
energy

$$$$
35:0
     RDKit          3D

 32 34  0  0  0  0  0  0  0  0999 V2000
   -5.0290   24.6190  -28.5950 N   0  0  0  0  0  0  0  0  0  0  0  0
   -5.0580   24.6230  -30.3230 S   0  0  0  0  0  0  0  0  0  0  0  0
   -6.3060   25.3100  -30.8010 O   0  0  0  0  0  0  0  0  0  0  0  0
   -3.8640   25.3710  -30.8470 O   0  0  0  0  0  0  0  0  0  0  0  0
   -5.0260   22.9650  -30.9120 C   0  0  0  0  0  0  0  0  0  0  0  0
   -6.0060   22.5180  -31.8080 C   0  0  0  0  0  0  0  0  0  0  0  0
   -5.9770   21.2050  -32.2870 C   0  0  0  0  0  0  0  0  0  0  0  0
   -4.9600   20.3220  -31.8850 C   0  0  0  0  0  0  0  0  0  0  0  0
   -4.9260   18.9650  -32.3620 N   0  0  0  0  0  0  0  0  0  0  0  0
   -3.9160   18.3760  -33.1970 C   0  0  0  0  0  0  0  0  0  0  0  0
   -2.7950   18.9120  -33.4040 O   0  0  0  0  0  0  0  0  0  0  0  0
   -4.2960   17.0650  -33.7410 C   0  0  0  0  0  0  0  0  0  0  0  0
   -3.5440   16.2480  -34.5880 C   0  0  0  0  0  0  0  0  0  0  0  0
   -4.0870   15.0200  -34.9990 C   0  0  0  0  0  0  0  0  0  0  0  0
   -5.3660   14.6250  -34.5600 C   0  0  0  0  0  0  0  0  0  0  0  0
   -6.1100   15.4550  -33.7080 C   0  0  0  0  0  0  0  0  0  0  0  0
   -5.5530   16.6710  -33.3130 C   0  0  0  0  0  0  0  0  0  0  0  0
   -6.2570   17.8650  -32.2620 S   0  0  0  0  0  0  0  0  0  0  0  0
   -7.5130   18.4590  -32.8330 O   0  0  0  0  0  0  0  0  0  0  0  0
   -6.4510   17.3450  -30.8660 O   0  0  0  0  0  0  0  0  0  0  0  0
   -3.9830   20.7750  -30.9820 C   0  0  0  0  0  0  0  0  0  0  0  0
   -4.0130   22.0890  -30.5050 C   0  0  0  0  0  0  0  0  0  0  0  0
   -4.9390   25.6140  -28.2880 H   0  0  0  0  0  0  0  0  0  0  0  0
   -5.9660   24.2890  -28.2740 H   0  0  0  0  0  0  0  0  0  0  0  0
   -6.8016   23.2031  -32.1360 H   0  0  0  0  0  0  0  0  0  0  0  0
   -6.7556   20.8604  -32.9835 H   0  0  0  0  0  0  0  0  0  0  0  0
   -2.5452   16.5606  -34.9268 H   0  0  0  0  0  0  0  0  0  0  0  0
   -3.5108   14.3631  -35.6672 H   0  0  0  0  0  0  0  0  0  0  0  0
   -5.7834   13.6612  -34.8868 H   0  0  0  0  0  0  0  0  0  0  0  0
   -7.1090   15.1538  -33.3598 H   0  0  0  0  0  0  0  0  0  0  0  0
   -3.1890   20.0909  -30.6481 H   0  0  0  0  0  0  0  0  0  0  0  0
   -3.2370   22.4359  -29.8068 H   0  0  0  0  0  0  0  0  0  0  0  0
  1  2  1  0
  2  3  2  0
  2  4  2  0
  2  5  1  0
  5  6  2  0
  6  7  1  0
  7  8  2  0
  8  9  1  0
  9 10  1  0
 10 11  2  0
 10 12  1  0
 12 13  2  0
 13 14  1  0
 14 15  2  0
 15 16  1  0
 16 17  2  0
 17 18  1  0
 18 19  2  0
 18 20  2  0
  8 21  1  0
 21 22  2  0
 22  5  1  0
 18  9  1  0
 17 12  1  0
  1 23  1  0
  1 24  1  0
  6 25  1  0
  7 26  1  0
 13 27  1  0
 14 28  1  0
 15 29  1  0
 16 30  1  0
 21 31  1  0
 22 32  1  0
M  END
>  <UniqueID>  (36) 
35

>  <SMILES>  (36) 
NS(=O)(=O)c1ccc(N2C(=O)c3ccccc3S2(=O)=O)cc1

>  <Energy>  (36) 
60.529008906881

>  <Genealogy>  (36) 
NS(=O)(=O)c1ccc(N2C(=O)c3ccccc3S2(=O)=O)cc1 (3D coordinates assigned)
NS(=O)(=O)c1ccc(N2C(=O)c3ccccc3S2(=O)=O)cc1 (nonaromatic ring conformer: 60.529008906881 kcal/mol)

>  <smiles>  (36) 
NS(=O)(=O)c1ccc(N2C(=O)c3ccccc3S2(=O)=O)cc1

>  <score_type>  (36) 
oracle

>  <origin>  (36) 
adgpu

>  <m_score__min__energy>  (36) 
-8.4299999999999997

>  <m_primary>  (36) 
energy

$$$$
36:0
     RDKit          3D

 45 47  0  0  0  0  0  0  0  0999 V2000
    0.0204   25.2943  -27.2409 H   0  0  0  0  0  0  0  0  0  0  0  0
   -0.7330   24.5600  -27.5620 C   0  0  0  0  0  0  0  0  0  0  0  0
   -0.8840   23.3690  -26.8540 C   0  0  0  0  0  0  0  0  0  0  0  0
   -0.2477   23.1703  -25.9790 H   0  0  0  0  0  0  0  0  0  0  0  0
   -1.8360   22.4260  -27.2460 C   0  0  0  0  0  0  0  0  0  0  0  0
   -1.9480   21.2450  -26.4980 O   0  0  0  0  0  0  0  0  0  0  0  0
   -2.3530   19.9870  -27.0330 C   0  0  0  0  0  0  0  0  0  0  0  0
   -2.5764   19.2930  -26.2093 H   0  0  0  0  0  0  0  0  0  0  0  0
   -3.2525   20.1239  -27.6512 H   0  0  0  0  0  0  0  0  0  0  0  0
   -1.5426   19.5735  -27.6512 H   0  0  0  0  0  0  0  0  0  0  0  0
   -2.6430   22.6900  -28.3700 C   0  0  0  0  0  0  0  0  0  0  0  0
   -3.3964   21.9516  -28.6819 H   0  0  0  0  0  0  0  0  0  0  0  0
   -2.4990   23.8870  -29.1010 C   0  0  0  0  0  0  0  0  0  0  0  0
   -3.3650   24.1280  -30.2870 C   0  0  0  0  0  0  0  0  0  0  0  0
   -3.8200   25.2840  -30.5020 O   0  0  0  0  0  0  0  0  0  0  0  0
   -3.7400   23.0450  -31.1490 N   0  0  0  0  0  0  0  0  0  0  0  0
   -2.8510   22.1830  -31.8750 C   0  0  0  0  0  0  0  0  0  0  0  0
   -1.5670   21.9570  -31.3660 C   0  0  0  0  0  0  0  0  0  0  0  0
   -1.2654   22.4274  -30.4185 H   0  0  0  0  0  0  0  0  0  0  0  0
   -0.6650   21.1390  -32.0510 C   0  0  0  0  0  0  0  0  0  0  0  0
    0.3353   20.9545  -31.6322 H   0  0  0  0  0  0  0  0  0  0  0  0
   -1.0310   20.5530  -33.2700 C   0  0  0  0  0  0  0  0  0  0  0  0
    0.1030   19.5030  -34.1130 S   0  0  0  0  0  0  0  0  0  0  0  0
   -0.5590   18.9490  -35.3420 O   0  0  0  0  0  0  0  0  0  0  0  0
    0.5180   18.3560  -33.2350 O   0  0  0  0  0  0  0  0  0  0  0  0
    1.5020   20.4120  -34.5790 N   0  0  0  0  0  0  0  0  0  0  0  0
    1.4230   21.6190  -35.0440 C   0  0  0  0  0  0  0  0  0  0  0  0
    0.3040   22.2860  -35.2130 O   0  0  0  0  0  0  0  0  0  0  0  0
    0.5430   23.4630  -35.7180 N   0  0  0  0  0  0  0  0  0  0  0  0
    1.8790   23.5590  -35.8850 C   0  0  0  0  0  0  0  0  0  0  0  0
    2.5650   24.7570  -36.4540 C   0  0  0  0  0  0  0  0  0  0  0  0
    2.9298   25.3941  -35.6349 H   0  0  0  0  0  0  0  0  0  0  0  0
    3.4147   24.4334  -37.0731 H   0  0  0  0  0  0  0  0  0  0  0  0
    1.8559   25.3260  -37.0731 H   0  0  0  0  0  0  0  0  0  0  0  0
    2.4860   22.3960  -35.4430 C   0  0  0  0  0  0  0  0  0  0  0  0
    3.9320   22.0210  -35.5150 C   0  0  0  0  0  0  0  0  0  0  0  0
    4.3348   21.9165  -34.4968 H   0  0  0  0  0  0  0  0  0  0  0  0
    4.0369   21.0659  -36.0506 H   0  0  0  0  0  0  0  0  0  0  0  0
    4.4878   22.8047  -36.0506 H   0  0  0  0  0  0  0  0  0  0  0  0
   -2.3070   20.7920  -33.7950 C   0  0  0  0  0  0  0  0  0  0  0  0
   -2.5994   20.3353  -34.7521 H   0  0  0  0  0  0  0  0  0  0  0  0
   -3.2120   21.6090  -33.1080 C   0  0  0  0  0  0  0  0  0  0  0  0
   -4.2079   21.8029  -33.5329 H   0  0  0  0  0  0  0  0  0  0  0  0
   -1.5320   24.8280  -28.6770 C   0  0  0  0  0  0  0  0  0  0  0  0
   -1.3590   26.0370  -29.3420 O   0  0  0  0  0  0  0  0  0  0  0  0
  1  2  1  0
  2  3  2  0
  3  4  1  0
  3  5  1  0
  5  6  1  0
  6  7  1  0
  7  8  1  0
  7  9  1  0
  7 10  1  0
  5 11  2  0
 11 12  1  0
 11 13  1  0
 13 14  1  0
 14 15  2  0
 14 16  1  0
 16 17  1  0
 17 18  2  0
 18 19  1  0
 18 20  1  0
 20 21  1  0
 20 22  2  0
 22 23  1  0
 23 24  2  0
 23 25  2  0
 23 26  1  0
 26 27  2  0
 27 28  1  0
 28 29  1  0
 29 30  1  0
 30 31  1  0
 31 32  1  0
 31 33  1  0
 31 34  1  0
 30 35  2  0
 35 36  1  0
 36 37  1  0
 36 38  1  0
 36 39  1  0
 22 40  1  0
 40 41  1  0
 40 42  2  0
 42 43  1  0
 13 44  2  0
 44 45  1  0
 44  2  1  0
 42 17  1  0
 35 27  1  0
M  CHG  3  16  -1  29  -1  45  -1
M  END
>  <UniqueID>  (37) 
36

>  <SMILES>  (37) 
COc1ccc([O-])c(C(=O)[N-]c2ccc(S(=O)(=O)/N=c3\o[n-]c(C)c3C)cc2)c1

>  <Energy>  (37) 
85.59096988364922

>  <Genealogy>  (37) 
COc1ccc([O-])c(C(=O)[N-]c2ccc(S(=O)(=O)N=c3o[n-]c(C)c3C)cc2)c1 (protonated)
COc1ccc([O-])c(C(=O)[N-]c2ccc(S(=O)(=O)/N=c3\o[n-]c(C)c3C)cc2)c1 (cis-trans isomerization)
COc1ccc([O-])c(C(=O)[N-]c2ccc(S(=O)(=O)/N=c3\o[n-]c(C)c3C)cc2)c1 (3D coordinates assigned)
COc1ccc([O-])c(C(=O)[N-]c2ccc(S(=O)(=O)/N=c3\o[n-]c(C)c3C)cc2)c1 (optimized conformer: 85.59096988364922 kcal/mol)

>  <smiles>  (37) 
COc1ccc(O)c(C(=O)Nc2ccc(S(=O)(=O)N=c3o[nH]c(C)c3C)cc2)c1

>  <score_type>  (37) 
oracle

>  <origin>  (37) 
adgpu

>  <m_score__min__energy>  (37) 
-12.92

>  <m_primary>  (37) 
energy

$$$$
37:0
     RDKit          3D

 50 53  0  0  0  0  0  0  0  0999 V2000
   -2.7670   23.4030  -27.6170 O   0  0  0  0  0  0  0  0  0  0  0  0
   -2.5580   24.5650  -28.0620 C   0  0  0  0  0  0  0  0  0  0  0  0
   -3.1310   24.9600  -29.3200 N   0  0  0  0  0  0  0  0  0  0  0  0
   -4.2810   24.3260  -29.9070 C   0  0  0  0  0  0  0  0  0  0  0  0
   -5.5520   24.5590  -29.3590 C   0  0  0  0  0  0  0  0  0  0  0  0
   -6.6820   23.9400  -29.9000 C   0  0  0  0  0  0  0  0  0  0  0  0
   -6.5540   23.0640  -30.9850 C   0  0  0  0  0  0  0  0  0  0  0  0
   -7.9890   22.3100  -31.6760 S   0  0  0  0  0  0  0  0  0  0  0  0
   -8.6550   23.2960  -32.5960 O   0  0  0  0  0  0  0  0  0  0  0  0
   -8.9560   21.9490  -30.5820 O   0  0  0  0  0  0  0  0  0  0  0  0
   -7.5400   20.8800  -32.5730 N   0  0  0  0  0  0  0  0  0  0  0  0
   -6.5180   20.1170  -31.8230 C   0  0  0  0  0  0  0  0  0  0  0  0
   -6.4250   18.6690  -32.3140 C   0  0  0  0  0  0  0  0  0  0  0  0
   -7.7530   17.9230  -32.0900 C   0  0  0  0  0  0  0  0  0  0  0  0
   -8.9660   18.8680  -32.0580 C   0  0  0  0  0  0  0  0  0  0  0  0
   -8.7400   20.0940  -32.9560 C   0  0  0  0  0  0  0  0  0  0  0  0
   -5.2870   22.8150  -31.5270 C   0  0  0  0  0  0  0  0  0  0  0  0
   -4.1560   23.4360  -30.9880 C   0  0  0  0  0  0  0  0  0  0  0  0
   -1.6790   25.4890  -27.3040 C   0  0  0  0  0  0  0  0  0  0  0  0
   -0.8570   26.4020  -27.9880 C   0  0  0  0  0  0  0  0  0  0  0  0
   -0.0210   27.2750  -27.2880 C   0  0  0  0  0  0  0  0  0  0  0  0
    0.0140   27.2460  -25.8880 C   0  0  0  0  0  0  0  0  0  0  0  0
    0.8520   28.1190  -25.1740 C   0  0  0  0  0  0  0  0  0  0  0  0
    0.8830   28.0770  -23.7770 C   0  0  0  0  0  0  0  0  0  0  0  0
    1.7130   28.9430  -23.0750 O   0  0  0  0  0  0  0  0  0  0  0  0
    0.0810   27.1660  -23.0840 C   0  0  0  0  0  0  0  0  0  0  0  0
   -0.7570   26.2920  -23.7830 C   0  0  0  0  0  0  0  0  0  0  0  0
   -0.7990   26.3250  -25.1850 C   0  0  0  0  0  0  0  0  0  0  0  0
   -1.6360   25.4530  -25.8970 C   0  0  0  0  0  0  0  0  0  0  0  0
   -2.6180   25.6660  -29.8930 H   0  0  0  0  0  0  0  0  0  0  0  0
   -5.6594   25.2340  -28.4971 H   0  0  0  0  0  0  0  0  0  0  0  0
   -7.6752   24.1415  -29.4722 H   0  0  0  0  0  0  0  0  0  0  0  0
   -5.5402   20.6029  -31.9562 H   0  0  0  0  0  0  0  0  0  0  0  0
   -6.8076   20.1034  -30.7619 H   0  0  0  0  0  0  0  0  0  0  0  0
   -6.1889   18.6681  -33.3884 H   0  0  0  0  0  0  0  0  0  0  0  0
   -5.6353   18.1565  -31.7450 H   0  0  0  0  0  0  0  0  0  0  0  0
   -7.8922   17.1991  -32.9065 H   0  0  0  0  0  0  0  0  0  0  0  0
   -7.6936   17.4251  -31.1110 H   0  0  0  0  0  0  0  0  0  0  0  0
   -9.8542   18.3236  -32.4111 H   0  0  0  0  0  0  0  0  0  0  0  0
   -9.1092   19.2155  -31.0242 H   0  0  0  0  0  0  0  0  0  0  0  0
   -8.6176   19.7506  -33.9938 H   0  0  0  0  0  0  0  0  0  0  0  0
   -9.6144   20.7515  -32.8416 H   0  0  0  0  0  0  0  0  0  0  0  0
   -5.1811   22.1284  -32.3799 H   0  0  0  0  0  0  0  0  0  0  0  0
   -3.1629   23.2269  -31.4122 H   0  0  0  0  0  0  0  0  0  0  0  0
   -0.8725   26.4291  -29.0876 H   0  0  0  0  0  0  0  0  0  0  0  0
    0.6117   27.9873  -27.8378 H   0  0  0  0  0  0  0  0  0  0  0  0
    1.4852   28.8372  -25.7155 H   0  0  0  0  0  0  0  0  0  0  0  0
    0.1092   27.1365  -21.9848 H   0  0  0  0  0  0  0  0  0  0  0  0
   -1.3852   25.5765  -23.2322 H   0  0  0  0  0  0  0  0  0  0  0  0
   -2.2647   24.7343  -25.3510 H   0  0  0  0  0  0  0  0  0  0  0  0
  1  2  2  0
  2  3  1  0
  3  4  1  0
  4  5  2  0
  5  6  1  0
  6  7  2  0
  7  8  1  0
  8  9  2  0
  8 10  2  0
  8 11  1  0
 11 12  1  0
 12 13  1  0
 13 14  1  0
 14 15  1  0
 15 16  1  0
  7 17  1  0
 17 18  2  0
  2 19  1  0
 19 20  2  0
 20 21  1  0
 21 22  2  0
 22 23  1  0
 23 24  2  0
 24 25  1  0
 24 26  1  0
 26 27  2  0
 27 28  1  0
 28 29  2  0
 18  4  1  0
 29 19  1  0
 16 11  1  0
 28 22  1  0
  3 30  1  0
  5 31  1  0
  6 32  1  0
 12 33  1  0
 12 34  1  0
 13 35  1  0
 13 36  1  0
 14 37  1  0
 14 38  1  0
 15 39  1  0
 15 40  1  0
 16 41  1  0
 16 42  1  0
 17 43  1  0
 18 44  1  0
 20 45  1  0
 21 46  1  0
 23 47  1  0
 26 48  1  0
 27 49  1  0
 29 50  1  0
M  CHG  1  25  -1
M  END
>  <UniqueID>  (38) 
37

>  <SMILES>  (38) 
O=C(Nc1ccc(S(=O)(=O)N2CCCCC2)cc1)c1ccc2cc([O-])ccc2c1

>  <Energy>  (38) 
67.27026474934448

>  <Genealogy>  (38) 
O=C(Nc1ccc(S(=O)(=O)N2CCCCC2)cc1)c1ccc2cc([O-])ccc2c1 (protonated)
O=C(Nc1ccc(S(=O)(=O)N2CCCCC2)cc1)c1ccc2cc([O-])ccc2c1 (3D coordinates assigned)
O=C(Nc1ccc(S(=O)(=O)N2CCCCC2)cc1)c1ccc2cc([O-])ccc2c1 (nonaromatic ring conformer: 67.27026474934448 kcal/mol)

>  <smiles>  (38) 
O=C(Nc1ccc(S(=O)(=O)N2CCCCC2)cc1)c1ccc2cc(O)ccc2c1

>  <score_type>  (38) 
oracle

>  <origin>  (38) 
adgpu

>  <m_score__min__energy>  (38) 
-9.6400000000000006

>  <m_primary>  (38) 
energy

$$$$
38:0
     RDKit          3D

 38 40  0  0  0  0  0  0  0  0999 V2000
   -3.6580   25.3510  -30.4680 O   0  0  0  0  0  0  0  0  0  0  0  0
   -3.0040   24.5340  -29.5540 C   0  0  0  0  0  0  0  0  0  0  0  0
   -3.5630   23.3030  -29.1960 C   0  0  0  0  0  0  0  0  0  0  0  0
   -2.9120   22.4770  -28.2760 C   0  0  0  0  0  0  0  0  0  0  0  0
   -1.6960   22.8800  -27.6980 C   0  0  0  0  0  0  0  0  0  0  0  0
   -0.9870   21.9940  -26.7070 C   0  0  0  0  0  0  0  0  0  0  0  0
   -0.9910   20.6020  -27.1610 N   0  0  0  0  0  0  0  0  0  0  0  0
   -0.5860   20.1740  -28.4760 C   0  0  0  0  0  0  0  0  0  0  0  0
   -1.4760   20.3260  -29.5500 C   0  0  0  0  0  0  0  0  0  0  0  0
   -1.1100   19.9310  -30.8390 C   0  0  0  0  0  0  0  0  0  0  0  0
    0.1600   19.3770  -31.0770 C   0  0  0  0  0  0  0  0  0  0  0  0
    0.5680   18.9660  -32.3550 O   0  0  0  0  0  0  0  0  0  0  0  0
    1.2760   19.7690  -33.2580 C   0  0  0  0  0  0  0  0  0  0  0  0
    2.6610   19.5990  -33.3610 C   0  0  0  0  0  0  0  0  0  0  0  0
    3.4030   20.3710  -34.2570 C   0  0  0  0  0  0  0  0  0  0  0  0
    2.7660   21.3300  -35.0470 C   0  0  0  0  0  0  0  0  0  0  0  0
    1.3860   21.5310  -34.9360 C   0  0  0  0  0  0  0  0  0  0  0  0
    0.6300   22.7690  -35.9320 Cl  0  0  0  0  0  0  0  0  0  0  0  0
    0.6330   20.7560  -34.0350 C   0  0  0  0  0  0  0  0  0  0  0  0
   -1.0910   21.0670  -33.8300 Cl  0  0  0  0  0  0  0  0  0  0  0  0
    1.0410   19.2030  -30.0060 C   0  0  0  0  0  0  0  0  0  0  0  0
    0.6760   19.5990  -28.7150 C   0  0  0  0  0  0  0  0  0  0  0  0
   -1.1330   24.1120  -28.0710 C   0  0  0  0  0  0  0  0  0  0  0  0
   -1.7870   24.9380  -28.9920 C   0  0  0  0  0  0  0  0  0  0  0  0
   -1.2240   26.1580  -29.3460 O   0  0  0  0  0  0  0  0  0  0  0  0
   -4.5177   22.9842  -29.6398 H   0  0  0  0  0  0  0  0  0  0  0  0
   -3.3532   21.5071  -28.0029 H   0  0  0  0  0  0  0  0  0  0  0  0
    0.0531   22.3350  -26.5975 H   0  0  0  0  0  0  0  0  0  0  0  0
   -1.5118   22.0525  -25.7420 H   0  0  0  0  0  0  0  0  0  0  0  0
   -1.3660   19.8870  -26.4980 H   0  0  0  0  0  0  0  0  0  0  0  0
   -2.4714   20.7603  -29.3753 H   0  0  0  0  0  0  0  0  0  0  0  0
   -1.8186   20.0540  -31.6714 H   0  0  0  0  0  0  0  0  0  0  0  0
    3.1684   18.8526  -32.7322 H   0  0  0  0  0  0  0  0  0  0  0  0
    4.4899   20.2236  -34.3406 H   0  0  0  0  0  0  0  0  0  0  0  0
    3.3515   21.9298  -35.7594 H   0  0  0  0  0  0  0  0  0  0  0  0
    2.0288   18.7513  -30.1796 H   0  0  0  0  0  0  0  0  0  0  0  0
    1.3800   19.4601  -27.8812 H   0  0  0  0  0  0  0  0  0  0  0  0
   -0.1733   24.4289  -27.6369 H   0  0  0  0  0  0  0  0  0  0  0  0
  1  2  1  0
  2  3  2  0
  3  4  1  0
  4  5  2  0
  5  6  1  0
  6  7  1  0
  7  8  1  0
  8  9  2  0
  9 10  1  0
 10 11  2  0
 11 12  1  0
 12 13  1  0
 13 14  2  0
 14 15  1  0
 15 16  2  0
 16 17  1  0
 17 18  1  0
 17 19  2  0
 19 20  1  0
 11 21  1  0
 21 22  2  0
  5 23  1  0
 23 24  2  0
 24 25  1  0
 24  2  1  0
 22  8  1  0
 19 13  1  0
  3 26  1  0
  4 27  1  0
  6 28  1  0
  6 29  1  0
  7 30  1  0
  9 31  1  0
 10 32  1  0
 14 33  1  0
 15 34  1  0
 16 35  1  0
 21 36  1  0
 22 37  1  0
 23 38  1  0
M  CHG  2   1  -1  25  -1
M  END
>  <UniqueID>  (39) 
38

>  <SMILES>  (39) 
[O-]c1ccc(CNc2ccc(Oc3cccc(Cl)c3Cl)cc2)cc1[O-]

>  <Energy>  (39) 
50.07900226104645

>  <Genealogy>  (39) 
[O-]c1ccc(CNc2ccc(Oc3cccc(Cl)c3Cl)cc2)cc1[O-] (protonated)
[O-]c1ccc(CNc2ccc(Oc3cccc(Cl)c3Cl)cc2)cc1[O-] (3D coordinates assigned)
[O-]c1ccc(CNc2ccc(Oc3cccc(Cl)c3Cl)cc2)cc1[O-] (optimized conformer: 50.07900226104645 kcal/mol)

>  <smiles>  (39) 
Oc1ccc(CNc2ccc(Oc3cccc(Cl)c3Cl)cc2)cc1O

>  <score_type>  (39) 
oracle

>  <origin>  (39) 
adgpu

>  <m_score__min__energy>  (39) 
-12.970000000000001

>  <m_primary>  (39) 
energy

$$$$
39:0
     RDKit          3D

 47 50  0  0  0  0  0  0  0  0999 V2000
    0.0200   30.2880  -26.0870 C   0  0  0  0  0  0  0  0  0  0  0  0
   -0.4580   28.8640  -26.0250 C   0  0  0  0  0  0  0  0  0  0  0  0
   -0.8310   28.3000  -24.7950 C   0  0  0  0  0  0  0  0  0  0  0  0
   -1.2370   26.9640  -24.7310 C   0  0  0  0  0  0  0  0  0  0  0  0
   -1.2610   26.1790  -25.8890 C   0  0  0  0  0  0  0  0  0  0  0  0
   -0.8620   26.7250  -27.1230 C   0  0  0  0  0  0  0  0  0  0  0  0
   -0.8870   25.9810  -28.3130 O   0  0  0  0  0  0  0  0  0  0  0  0
   -0.5050   24.6360  -28.4350 C   0  0  0  0  0  0  0  0  0  0  0  0
    0.7150   24.3120  -28.3750 O   0  0  0  0  0  0  0  0  0  0  0  0
   -1.5330   23.6020  -28.6790 C   0  0  0  0  0  0  0  0  0  0  0  0
   -1.3320   22.2880  -28.2270 C   0  0  0  0  0  0  0  0  0  0  0  0
   -2.2940   21.3040  -28.4690 C   0  0  0  0  0  0  0  0  0  0  0  0
   -3.4640   21.6210  -29.1630 C   0  0  0  0  0  0  0  0  0  0  0  0
   -3.6830   22.9240  -29.6180 C   0  0  0  0  0  0  0  0  0  0  0  0
   -5.1810   23.3330  -30.4500 S   0  0  0  0  0  0  0  0  0  0  0  0
   -6.2550   23.6500  -29.4430 O   0  0  0  0  0  0  0  0  0  0  0  0
   -4.9840   24.5470  -31.3180 O   0  0  0  0  0  0  0  0  0  0  0  0
   -5.6840   21.9840  -31.4190 N   0  0  0  0  0  0  0  0  0  0  0  0
   -4.8280   21.3530  -32.4230 C   0  0  0  0  0  0  0  0  0  0  0  0
   -5.7470   20.4010  -33.2290 C   0  0  0  0  0  0  0  0  0  0  0  0
   -7.0960   20.6590  -32.6540 C   0  0  0  0  0  0  0  0  0  0  0  0
   -8.3110   20.0840  -33.0290 C   0  0  0  0  0  0  0  0  0  0  0  0
   -9.4700   20.4590  -32.3310 C   0  0  0  0  0  0  0  0  0  0  0  0
   -9.3960   21.3970  -31.2820 C   0  0  0  0  0  0  0  0  0  0  0  0
   -8.1610   21.9600  -30.9220 C   0  0  0  0  0  0  0  0  0  0  0  0
   -7.0200   21.5640  -31.6300 C   0  0  0  0  0  0  0  0  0  0  0  0
   -2.7190   23.9130  -29.3720 C   0  0  0  0  0  0  0  0  0  0  0  0
   -0.4690   28.0690  -27.1830 C   0  0  0  0  0  0  0  0  0  0  0  0
    0.1502   30.6759  -25.0659 H   0  0  0  0  0  0  0  0  0  0  0  0
    0.9812   30.3292  -26.6202 H   0  0  0  0  0  0  0  0  0  0  0  0
   -0.7217   30.9008  -26.6202 H   0  0  0  0  0  0  0  0  0  0  0  0
   -0.8038   28.9102  -23.8802 H   0  0  0  0  0  0  0  0  0  0  0  0
   -1.5386   26.5283  -23.7671 H   0  0  0  0  0  0  0  0  0  0  0  0
   -1.5928   25.1317  -25.8346 H   0  0  0  0  0  0  0  0  0  0  0  0
   -0.4128   22.0320  -27.6797 H   0  0  0  0  0  0  0  0  0  0  0  0
   -2.1295   20.2767  -28.1119 H   0  0  0  0  0  0  0  0  0  0  0  0
   -4.2165   20.8413  -29.3523 H   0  0  0  0  0  0  0  0  0  0  0  0
   -4.3908   22.1144  -33.0857 H   0  0  0  0  0  0  0  0  0  0  0  0
   -3.9933   20.8089  -31.9568 H   0  0  0  0  0  0  0  0  0  0  0  0
   -5.7227   20.6442  -34.3015 H   0  0  0  0  0  0  0  0  0  0  0  0
   -5.4430   19.3463  -33.1573 H   0  0  0  0  0  0  0  0  0  0  0  0
   -8.3594   19.3549  -33.8512 H   0  0  0  0  0  0  0  0  0  0  0  0
  -10.4403   20.0186  -32.6042 H   0  0  0  0  0  0  0  0  0  0  0  0
  -10.3093   21.6893  -30.7430 H   0  0  0  0  0  0  0  0  0  0  0  0
   -8.0919   22.6932  -30.1049 H   0  0  0  0  0  0  0  0  0  0  0  0
   -2.8910   24.9410  -29.7236 H   0  0  0  0  0  0  0  0  0  0  0  0
   -0.1662   28.5055  -28.1462 H   0  0  0  0  0  0  0  0  0  0  0  0
  1  2  1  0
  2  3  2  0
  3  4  1  0
  4  5  2  0
  5  6  1  0
  6  7  1  0
  7  8  1  0
  8  9  2  0
  8 10  1  0
 10 11  2  0
 11 12  1  0
 12 13  2  0
 13 14  1  0
 14 15  1  0
 15 16  2  0
 15 17  2  0
 15 18  1  0
 18 19  1  0
 19 20  1  0
 20 21  1  0
 21 22  2  0
 22 23  1  0
 23 24  2  0
 24 25  1  0
 25 26  2  0
 14 27  2  0
  6 28  2  0
 28  2  1  0
 27 10  1  0
 26 18  1  0
 26 21  1  0
  1 29  1  0
  1 30  1  0
  1 31  1  0
  3 32  1  0
  4 33  1  0
  5 34  1  0
 11 35  1  0
 12 36  1  0
 13 37  1  0
 19 38  1  0
 19 39  1  0
 20 40  1  0
 20 41  1  0
 22 42  1  0
 23 43  1  0
 24 44  1  0
 25 45  1  0
 27 46  1  0
 28 47  1  0
M  END
>  <UniqueID>  (40) 
39

>  <SMILES>  (40) 
Cc1cccc(OC(=O)c2cccc(S(=O)(=O)N3CCc4ccccc43)c2)c1

>  <Energy>  (40) 
71.56993071838241

>  <Genealogy>  (40) 
Cc1cccc(OC(=O)c2cccc(S(=O)(=O)N3CCc4ccccc43)c2)c1 (3D coordinates assigned)
Cc1cccc(OC(=O)c2cccc(S(=O)(=O)N3CCc4ccccc43)c2)c1 (nonaromatic ring conformer: 71.56993071838241 kcal/mol)

>  <smiles>  (40) 
Cc1cccc(OC(=O)c2cccc(S(=O)(=O)N3CCc4ccccc43)c2)c1

>  <score_type>  (40) 
oracle

>  <origin>  (40) 
adgpu

>  <m_score__min__energy>  (40) 
-10.300000000000001

>  <m_primary>  (40) 
energy

$$$$
40:0
     RDKit          3D

 49 52  0  0  0  0  0  0  0  0999 V2000
  -10.2998   18.2636  -32.7071 H   0  0  0  0  0  0  0  0  0  0  0  0
   -9.4520   18.9250  -32.4750 C   0  0  0  0  0  0  0  0  0  0  0  0
   -8.1740   18.3890  -32.3040 C   0  0  0  0  0  0  0  0  0  0  0  0
   -8.0159   17.3049  -32.4024 H   0  0  0  0  0  0  0  0  0  0  0  0
   -7.0950   19.2270  -32.0080 C   0  0  0  0  0  0  0  0  0  0  0  0
   -6.0913   18.7975  -31.8732 H   0  0  0  0  0  0  0  0  0  0  0  0
   -7.2830   20.6170  -31.8810 C   0  0  0  0  0  0  0  0  0  0  0  0
   -6.1250   21.4930  -31.5720 C   0  0  0  0  0  0  0  0  0  0  0  0
   -6.2290   22.6390  -30.8590 N   0  0  0  0  0  0  0  0  0  0  0  0
   -5.0060   23.1360  -30.7890 N   0  0  0  0  0  0  0  0  0  0  0  0
   -4.5730   24.5520  -29.8930 S   0  0  0  0  0  0  0  0  0  0  0  0
   -5.7400   25.0030  -29.0630 O   0  0  0  0  0  0  0  0  0  0  0  0
   -4.2040   25.6570  -30.8440 O   0  0  0  0  0  0  0  0  0  0  0  0
   -3.2170   24.1660  -28.8400 C   0  0  0  0  0  0  0  0  0  0  0  0
   -2.0340   24.9170  -28.9020 C   0  0  0  0  0  0  0  0  0  0  0  0
   -1.9653   25.7772  -29.5842 H   0  0  0  0  0  0  0  0  0  0  0  0
   -0.9420   24.5750  -28.0990 C   0  0  0  0  0  0  0  0  0  0  0  0
   -0.0207   25.1743  -28.1435 H   0  0  0  0  0  0  0  0  0  0  0  0
   -1.0160   23.4700  -27.2360 C   0  0  0  0  0  0  0  0  0  0  0  0
    0.1470   23.1260  -26.3540 C   0  0  0  0  0  0  0  0  0  0  0  0
   -0.1536   23.2149  -25.2996 H   0  0  0  0  0  0  0  0  0  0  0  0
    0.4691   22.0941  -26.5577 H   0  0  0  0  0  0  0  0  0  0  0  0
    0.9786   23.8166  -26.5577 H   0  0  0  0  0  0  0  0  0  0  0  0
   -2.2050   22.7260  -27.1680 C   0  0  0  0  0  0  0  0  0  0  0  0
   -2.2785   21.8724  -26.4780 H   0  0  0  0  0  0  0  0  0  0  0  0
   -3.2960   23.0660  -27.9740 C   0  0  0  0  0  0  0  0  0  0  0  0
   -4.2187   22.4689  -27.9285 H   0  0  0  0  0  0  0  0  0  0  0  0
   -4.1780   22.3020  -31.4330 C   0  0  0  0  0  0  0  0  0  0  0  0
   -2.8950   22.4950  -31.5380 N   0  0  0  0  0  0  0  0  0  0  0  0
   -1.9890   21.5730  -32.1530 C   0  0  0  0  0  0  0  0  0  0  0  0
   -2.2050   21.1980  -33.4860 C   0  0  0  0  0  0  0  0  0  0  0  0
   -3.0584   21.6149  -34.0408 H   0  0  0  0  0  0  0  0  0  0  0  0
   -1.3410   20.2970  -34.1130 C   0  0  0  0  0  0  0  0  0  0  0  0
   -1.5211   19.9993  -35.1565 H   0  0  0  0  0  0  0  0  0  0  0  0
   -0.2500   19.7740  -33.4180 C   0  0  0  0  0  0  0  0  0  0  0  0
    0.4223   19.0565  -33.9111 H   0  0  0  0  0  0  0  0  0  0  0  0
   -0.0100   20.1600  -32.0970 C   0  0  0  0  0  0  0  0  0  0  0  0
    0.8494   19.7414  -31.5528 H   0  0  0  0  0  0  0  0  0  0  0  0
   -0.8600   21.0800  -31.4590 C   0  0  0  0  0  0  0  0  0  0  0  0
   -0.5700   21.4970  -30.0410 C   0  0  0  0  0  0  0  0  0  0  0  0
   -1.0568   20.7969  -29.3461 H   0  0  0  0  0  0  0  0  0  0  0  0
    0.5167   21.4865  -29.8707 H   0  0  0  0  0  0  0  0  0  0  0  0
   -0.9580   22.5121  -29.8707 H   0  0  0  0  0  0  0  0  0  0  0  0
   -4.8450   21.2520  -31.9500 N   0  0  0  0  0  0  0  0  0  0  0  0
   -4.4600   20.4570  -32.5050 H   0  0  0  0  0  0  0  0  0  0  0  0
   -8.5770   21.1460  -32.0560 C   0  0  0  0  0  0  0  0  0  0  0  0
   -8.7423   22.2293  -31.9601 H   0  0  0  0  0  0  0  0  0  0  0  0
   -9.6530   20.3020  -32.3510 C   0  0  0  0  0  0  0  0  0  0  0  0
  -10.6600   20.7237  -32.4857 H   0  0  0  0  0  0  0  0  0  0  0  0
  1  2  1  0
  2  3  2  0
  3  4  1  0
  3  5  1  0
  5  6  1  0
  5  7  2  0
  7  8  1  0
  8  9  2  0
  9 10  1  0
 10 11  1  0
 11 12  2  0
 11 13  2  0
 11 14  1  0
 14 15  2  0
 15 16  1  0
 15 17  1  0
 17 18  1  0
 17 19  2  0
 19 20  1  0
 20 21  1  0
 20 22  1  0
 20 23  1  0
 19 24  1  0
 24 25  1  0
 24 26  2  0
 26 27  1  0
 10 28  1  0
 28 29  2  0
 29 30  1  0
 30 31  2  0
 31 32  1  0
 31 33  1  0
 33 34  1  0
 33 35  2  0
 35 36  1  0
 35 37  1  0
 37 38  1  0
 37 39  2  0
 39 40  1  0
 40 41  1  0
 40 42  1  0
 40 43  1  0
 28 44  1  0
 44 45  1  0
  7 46  1  0
 46 47  1  0
 46 48  2  0
 48 49  1  0
 48  2  1  0
 44  8  1  0
 26 14  1  0
 39 30  1  0
M  END
>  <UniqueID>  (41) 
40

>  <SMILES>  (41) 
Cc1ccc(S(=O)(=O)n2nc(-c3ccccc3)[nH]/c2=N\c2ccccc2C)cc1

>  <Energy>  (41) 
98.67747423476436

>  <Genealogy>  (41) 
Cc1ccc(S(=O)(=O)n2nc(-c3ccccc3)[nH]/c2=N\c2ccccc2C)cc1 (cis-trans isomerization)
Cc1ccc(S(=O)(=O)n2nc(-c3ccccc3)[nH]/c2=N\c2ccccc2C)cc1 (3D coordinates assigned)
Cc1ccc(S(=O)(=O)n2nc(-c3ccccc3)[nH]/c2=N\c2ccccc2C)cc1 (optimized conformer: 98.67747423476436 kcal/mol)

>  <smiles>  (41) 
Cc1ccc(S(=O)(=O)n2nc(-c3ccccc3)[nH]c2=Nc2ccccc2C)cc1

>  <score_type>  (41) 
oracle

>  <origin>  (41) 
adgpu

>  <m_score__min__energy>  (41) 
-9.9600000000000009

>  <m_primary>  (41) 
energy

$$$$
41:0
     RDKit          3D

 62 66  0  0  0  0  0  0  0  0999 V2000
    0.4030   20.2230  -33.0230 C   0  0  0  0  0  0  0  0  0  0  0  0
   -1.0340   20.4680  -32.6690 C   0  0  0  0  0  0  0  0  0  0  0  0
   -1.5980   19.8550  -31.5410 C   0  0  0  0  0  0  0  0  0  0  0  0
   -2.9240   20.1160  -31.1860 C   0  0  0  0  0  0  0  0  0  0  0  0
   -3.7000   21.0020  -31.9500 C   0  0  0  0  0  0  0  0  0  0  0  0
   -5.1060   21.2740  -31.5790 C   0  0  0  0  0  0  0  0  0  0  0  0
   -5.5890   22.4200  -30.9630 C   0  0  0  0  0  0  0  0  0  0  0  0
   -4.8190   23.5820  -30.4750 C   0  0  0  0  0  0  0  0  0  0  0  0
   -4.7180   24.5990  -31.2150 O   0  0  0  0  0  0  0  0  0  0  0  0
   -4.1840   23.5860  -29.1820 N   0  0  0  0  0  0  0  0  0  0  0  0
   -4.5510   24.5480  -28.1410 C   0  0  0  0  0  0  0  0  0  0  0  0
   -3.1380   22.6450  -28.9120 C   0  0  0  0  0  0  0  0  0  0  0  0
   -3.3910   21.5260  -28.1080 C   0  0  0  0  0  0  0  0  0  0  0  0
   -2.3640   20.6230  -27.8170 C   0  0  0  0  0  0  0  0  0  0  0  0
   -1.0730   20.8270  -28.3350 C   0  0  0  0  0  0  0  0  0  0  0  0
   -0.0220   19.8970  -28.0300 N   0  0  0  0  0  0  0  0  0  0  0  0
    1.3650   20.3580  -27.9110 C   0  0  0  0  0  0  0  0  0  0  0  0
    2.3150   19.2150  -28.2800 C   0  0  0  0  0  0  0  0  0  0  0  0
    2.0180   18.0540  -27.5250 O   0  0  0  0  0  0  0  0  0  0  0  0
    0.7310   17.5720  -27.8700 C   0  0  0  0  0  0  0  0  0  0  0  0
   -0.3520   18.5810  -27.4740 C   0  0  0  0  0  0  0  0  0  0  0  0
   -0.8280   21.9460  -29.1490 C   0  0  0  0  0  0  0  0  0  0  0  0
   -1.8540   22.8530  -29.4300 C   0  0  0  0  0  0  0  0  0  0  0  0
   -6.9330   22.1700  -30.7540 C   0  0  0  0  0  0  0  0  0  0  0  0
   -7.2420   20.9470  -31.2290 N   0  0  0  0  0  0  0  0  0  0  0  0
   -6.1390   20.4130  -31.7350 N   0  0  0  0  0  0  0  0  0  0  0  0
   -6.1140   19.1160  -32.3510 C   0  0  0  0  0  0  0  0  0  0  0  0
   -5.9290   17.9740  -31.5570 C   0  0  0  0  0  0  0  0  0  0  0  0
   -5.8860   16.7070  -32.1440 C   0  0  0  0  0  0  0  0  0  0  0  0
   -6.0450   16.5680  -33.5250 C   0  0  0  0  0  0  0  0  0  0  0  0
   -6.0070   15.3370  -34.0910 F   0  0  0  0  0  0  0  0  0  0  0  0
   -6.2560   17.6980  -34.3220 C   0  0  0  0  0  0  0  0  0  0  0  0
   -6.2950   18.9690  -33.7400 C   0  0  0  0  0  0  0  0  0  0  0  0
   -6.5420   20.0500  -34.5230 F   0  0  0  0  0  0  0  0  0  0  0  0
   -3.1300   21.6270  -33.0690 C   0  0  0  0  0  0  0  0  0  0  0  0
   -1.8030   21.3670  -33.4220 C   0  0  0  0  0  0  0  0  0  0  0  0
    0.9955   20.1220  -32.1017 H   0  0  0  0  0  0  0  0  0  0  0  0
    0.4827   19.2983  -33.6134 H   0  0  0  0  0  0  0  0  0  0  0  0
    0.7846   21.0690  -33.6134 H   0  0  0  0  0  0  0  0  0  0  0  0
   -0.9939   19.1656  -30.9329 H   0  0  0  0  0  0  0  0  0  0  0  0
   -3.3617   19.6252  -30.3042 H   0  0  0  0  0  0  0  0  0  0  0  0
   -4.3801   24.1000  -27.1510 H   0  0  0  0  0  0  0  0  0  0  0  0
   -3.9352   25.4535  -28.2450 H   0  0  0  0  0  0  0  0  0  0  0  0
   -5.6135   24.8132  -28.2450 H   0  0  0  0  0  0  0  0  0  0  0  0
   -4.4004   21.3574  -27.7046 H   0  0  0  0  0  0  0  0  0  0  0  0
   -2.5669   19.7494  -27.1802 H   0  0  0  0  0  0  0  0  0  0  0  0
    1.5294   21.2061  -28.5920 H   0  0  0  0  0  0  0  0  0  0  0  0
    1.5585   20.6766  -26.8761 H   0  0  0  0  0  0  0  0  0  0  0  0
    2.2069   18.9870  -29.3507 H   0  0  0  0  0  0  0  0  0  0  0  0
    3.3464   19.5268  -28.0585 H   0  0  0  0  0  0  0  0  0  0  0  0
    0.6879   17.4044  -28.9563 H   0  0  0  0  0  0  0  0  0  0  0  0
    0.5505   16.6308  -27.3300 H   0  0  0  0  0  0  0  0  0  0  0  0
   -1.3237   18.2495  -27.8688 H   0  0  0  0  0  0  0  0  0  0  0  0
   -0.4054   18.6496  -26.3774 H   0  0  0  0  0  0  0  0  0  0  0  0
    0.1762   22.1091  -29.5672 H   0  0  0  0  0  0  0  0  0  0  0  0
   -1.6521   23.7321  -30.0595 H   0  0  0  0  0  0  0  0  0  0  0  0
   -7.6405   22.8623  -30.2742 H   0  0  0  0  0  0  0  0  0  0  0  0
   -5.8173   18.0768  -30.4675 H   0  0  0  0  0  0  0  0  0  0  0  0
   -5.7266   15.8170  -31.5175 H   0  0  0  0  0  0  0  0  0  0  0  0
   -6.3914   17.5867  -35.4079 H   0  0  0  0  0  0  0  0  0  0  0  0
   -3.7302   22.3249  -33.6713 H   0  0  0  0  0  0  0  0  0  0  0  0
   -1.3598   21.8697  -34.2943 H   0  0  0  0  0  0  0  0  0  0  0  0
  1  2  1  0
  2  3  2  0
  3  4  1  0
  4  5  2  0
  5  6  1  0
  6  7  2  0
  7  8  1  0
  8  9  2  0
  8 10  1  0
 10 11  1  0
 10 12  1  0
 12 13  2  0
 13 14  1  0
 14 15  2  0
 15 16  1  0
 16 17  1  0
 17 18  1  0
 18 19  1  0
 19 20  1  0
 20 21  1  0
 15 22  1  0
 22 23  2  0
  7 24  1  0
 24 25  2  0
 25 26  1  0
 26 27  1  0
 27 28  2  0
 28 29  1  0
 29 30  2  0
 30 31  1  0
 30 32  1  0
 32 33  2  0
 33 34  1  0
  5 35  1  0
 35 36  2  0
 36  2  1  0
 26  6  1  0
 33 27  1  0
 23 12  1  0
 21 16  1  0
  1 37  1  0
  1 38  1  0
  1 39  1  0
  3 40  1  0
  4 41  1  0
 11 42  1  0
 11 43  1  0
 11 44  1  0
 13 45  1  0
 14 46  1  0
 17 47  1  0
 17 48  1  0
 18 49  1  0
 18 50  1  0
 20 51  1  0
 20 52  1  0
 21 53  1  0
 21 54  1  0
 22 55  1  0
 23 56  1  0
 24 57  1  0
 28 58  1  0
 29 59  1  0
 32 60  1  0
 35 61  1  0
 36 62  1  0
M  END
>  <UniqueID>  (42) 
41

>  <SMILES>  (42) 
Cc1ccc(-c2c(C(=O)N(C)c3ccc(N4CCOCC4)cc3)cnn2-c2ccc(F)cc2F)cc1

>  <Energy>  (42) 
123.33385984748381

>  <Genealogy>  (42) 
Cc1ccc(-c2c(C(=O)N(C)c3ccc(N4CCOCC4)cc3)cnn2-c2ccc(F)cc2F)cc1 (3D coordinates assigned)
Cc1ccc(-c2c(C(=O)N(C)c3ccc(N4CCOCC4)cc3)cnn2-c2ccc(F)cc2F)cc1 (nonaromatic ring conformer: 123.33385984748381 kcal/mol)

>  <smiles>  (42) 
Cc1ccc(-c2c(C(=O)N(C)c3ccc(N4CCOCC4)cc3)cnn2-c2ccc(F)cc2F)cc1

>  <score_type>  (42) 
oracle

>  <origin>  (42) 
adgpu

>  <m_score__min__energy>  (42) 
-9.7599999999999998

>  <m_primary>  (42) 
energy

$$$$
42:0
     RDKit          3D

 39 41  0  0  0  0  0  0  0  0999 V2000
   -7.0480   23.7940  -33.7220 H   0  0  0  0  0  0  0  0  0  0  0  0
   -7.4590   23.7740  -32.7960 O   0  0  0  0  0  0  0  0  0  0  0  0
   -6.6710   23.7890  -31.6460 C   0  0  0  0  0  0  0  0  0  0  0  0
   -5.4890   24.5440  -31.6190 C   0  0  0  0  0  0  0  0  0  0  0  0
   -5.2069   25.1516  -32.4915 H   0  0  0  0  0  0  0  0  0  0  0  0
   -4.6680   24.5270  -30.4870 C   0  0  0  0  0  0  0  0  0  0  0  0
   -3.4980   25.2760  -30.4670 O   0  0  0  0  0  0  0  0  0  0  0  0
   -5.0210   23.7520  -29.3790 C   0  0  0  0  0  0  0  0  0  0  0  0
   -4.3701   23.7323  -28.4925 H   0  0  0  0  0  0  0  0  0  0  0  0
   -6.2000   23.0020  -29.3960 C   0  0  0  0  0  0  0  0  0  0  0  0
   -6.4652   22.3810  -28.5277 H   0  0  0  0  0  0  0  0  0  0  0  0
   -7.0480   23.0360  -30.5140 C   0  0  0  0  0  0  0  0  0  0  0  0
   -8.2870   22.2280  -30.4920 C   0  0  0  0  0  0  0  0  0  0  0  0
   -9.1776   22.6614  -30.0134 H   0  0  0  0  0  0  0  0  0  0  0  0
   -8.3880   21.0340  -31.0050 N   0  0  0  0  0  0  0  0  0  0  0  0
   -7.4120   20.3370  -31.7950 C   0  0  0  0  0  0  0  0  0  0  0  0
   -7.0550   20.7750  -33.0840 C   0  0  0  0  0  0  0  0  0  0  0  0
   -7.5148   21.6833  -33.5006 H   0  0  0  0  0  0  0  0  0  0  0  0
   -6.1190   20.0610  -33.8370 C   0  0  0  0  0  0  0  0  0  0  0  0
   -5.8280   20.4207  -34.8350 H   0  0  0  0  0  0  0  0  0  0  0  0
   -5.5500   18.8870  -33.3230 C   0  0  0  0  0  0  0  0  0  0  0  0
   -4.3760   17.9780  -34.2710 S   0  0  0  0  0  0  0  0  0  0  0  0
   -4.0160   16.6930  -33.5810 O   0  0  0  0  0  0  0  0  0  0  0  0
   -4.9770   17.6610  -35.6110 O   0  0  0  0  0  0  0  0  0  0  0  0
   -2.9350   18.9210  -34.5070 N   0  0  0  0  0  0  0  0  0  0  0  0
   -2.4000   19.7470  -33.6540 C   0  0  0  0  0  0  0  0  0  0  0  0
   -1.2680   20.4100  -34.0180 N   0  0  0  0  0  0  0  0  0  0  0  0
   -0.6460   21.2940  -33.1940 C   0  0  0  0  0  0  0  0  0  0  0  0
    0.2669   21.8086  -33.5284 H   0  0  0  0  0  0  0  0  0  0  0  0
   -1.1650   21.5490  -31.9240 C   0  0  0  0  0  0  0  0  0  0  0  0
   -0.6667   22.2637  -31.2525 H   0  0  0  0  0  0  0  0  0  0  0  0
   -2.3230   20.8870  -31.5160 C   0  0  0  0  0  0  0  0  0  0  0  0
   -2.7437   21.0783  -30.5178 H   0  0  0  0  0  0  0  0  0  0  0  0
   -2.9480   19.9810  -32.3760 C   0  0  0  0  0  0  0  0  0  0  0  0
   -3.8602   19.4544  -32.0589 H   0  0  0  0  0  0  0  0  0  0  0  0
   -5.9280   18.4340  -32.0540 C   0  0  0  0  0  0  0  0  0  0  0  0
   -5.4869   17.5118  -31.6478 H   0  0  0  0  0  0  0  0  0  0  0  0
   -6.8630   19.1480  -31.3010 C   0  0  0  0  0  0  0  0  0  0  0  0
   -7.1699   18.7734  -30.3133 H   0  0  0  0  0  0  0  0  0  0  0  0
  1  2  1  0
  2  3  1  0
  3  4  2  0
  4  5  1  0
  4  6  1  0
  6  7  1  0
  6  8  2  0
  8  9  1  0
  8 10  1  0
 10 11  1  0
 10 12  2  0
 12 13  1  0
 13 14  1  0
 13 15  2  0
 15 16  1  0
 16 17  2  0
 17 18  1  0
 17 19  1  0
 19 20  1  0
 19 21  2  0
 21 22  1  0
 22 23  2  0
 22 24  2  0
 22 25  1  0
 25 26  2  0
 26 27  1  0
 27 28  1  0
 28 29  1  0
 28 30  2  0
 30 31  1  0
 30 32  1  0
 32 33  1  0
 32 34  2  0
 34 35  1  0
 21 36  1  0
 36 37  1  0
 36 38  2  0
 38 39  1  0
 12  3  1  0
 38 16  1  0
 34 26  1  0
M  CHG  2   7  -1  27  -1
M  END
>  <UniqueID>  (43) 
42

>  <SMILES>  (43) 
O=S(=O)(/N=c1\cccc[n-]1)c1ccc(/N=C\c2ccc([O-])cc2O)cc1

>  <Energy>  (43) 
59.87887289201551

>  <Genealogy>  (43) 
O=S(=O)(N=c1cccc[n-]1)c1ccc(N=Cc2ccc([O-])cc2O)cc1 (protonated)
O=S(=O)(/N=c1\cccc[n-]1)c1ccc(/N=C\c2ccc([O-])cc2O)cc1 (cis-trans isomerization)
O=S(=O)(/N=c1\cccc[n-]1)c1ccc(/N=C\c2ccc([O-])cc2O)cc1 (3D coordinates assigned)
O=S(=O)(/N=c1\cccc[n-]1)c1ccc(/N=C\c2ccc([O-])cc2O)cc1 (optimized conformer: 59.87887289201551 kcal/mol)

>  <smiles>  (43) 
O=S(=O)(N=c1cccc[nH]1)c1ccc(N=Cc2ccc(O)cc2O)cc1

>  <score_type>  (43) 
oracle

>  <origin>  (43) 
adgpu

>  <m_score__min__energy>  (43) 
-11.220000000000001

>  <m_primary>  (43) 
energy

$$$$
43:0
     RDKit          3D

 53 55  0  0  0  0  0  0  0  0999 V2000
   -7.1000   13.5110  -34.5800 C   0  0  0  0  0  0  0  0  0  0  0  0
   -5.9220   13.1270  -33.6910 C   0  0  0  0  0  0  0  0  0  0  0  0
   -4.9210   14.2080  -33.6570 N   0  0  0  0  0  0  0  0  0  0  0  0
   -3.5250   13.9040  -34.0150 C   0  0  0  0  0  0  0  0  0  0  0  0
   -2.6550   15.1360  -33.9330 C   0  0  0  0  0  0  0  0  0  0  0  0
   -1.9600   15.4370  -32.7500 C   0  0  0  0  0  0  0  0  0  0  0  0
   -1.1600   16.5800  -32.6710 C   0  0  0  0  0  0  0  0  0  0  0  0
   -1.0540   17.4460  -33.7690 C   0  0  0  0  0  0  0  0  0  0  0  0
   -0.1670   18.6550  -33.6990 C   0  0  0  0  0  0  0  0  0  0  0  0
   -1.7300   17.1380  -34.9580 C   0  0  0  0  0  0  0  0  0  0  0  0
   -2.5290   15.9930  -35.0380 C   0  0  0  0  0  0  0  0  0  0  0  0
   -5.3270   15.5810  -33.4400 C   0  0  0  0  0  0  0  0  0  0  0  0
   -5.3450   16.1340  -32.1470 C   0  0  0  0  0  0  0  0  0  0  0  0
   -5.7310   17.4630  -31.9460 C   0  0  0  0  0  0  0  0  0  0  0  0
   -6.1180   18.2670  -33.0330 C   0  0  0  0  0  0  0  0  0  0  0  0
   -6.5280   19.6790  -32.8300 C   0  0  0  0  0  0  0  0  0  0  0  0
   -6.8950   20.3650  -33.8230 O   0  0  0  0  0  0  0  0  0  0  0  0
   -6.5600   20.2570  -31.5140 N   0  0  0  0  0  0  0  0  0  0  0  0
   -6.5590   21.6740  -31.2650 C   0  0  0  0  0  0  0  0  0  0  0  0
   -7.6860   22.4320  -31.6080 C   0  0  0  0  0  0  0  0  0  0  0  0
   -7.7160   23.8050  -31.3610 C   0  0  0  0  0  0  0  0  0  0  0  0
   -6.6250   24.4350  -30.7580 C   0  0  0  0  0  0  0  0  0  0  0  0
   -5.4910   23.6920  -30.3850 C   0  0  0  0  0  0  0  0  0  0  0  0
   -4.3390   24.3580  -29.7330 C   0  0  0  0  0  0  0  0  0  0  0  0
   -3.4990   25.2440  -30.4700 N   0  0  0  0  0  0  0  0  0  0  0  0
   -4.0910   24.1510  -28.5140 O   0  0  0  0  0  0  0  0  0  0  0  0
   -5.4700   22.3060  -30.6360 C   0  0  0  0  0  0  0  0  0  0  0  0
   -6.0930   17.7160  -34.3240 C   0  0  0  0  0  0  0  0  0  0  0  0
   -5.7070   16.3890  -34.5250 C   0  0  0  0  0  0  0  0  0  0  0  0
   -7.9581   13.7907  -33.9511 H   0  0  0  0  0  0  0  0  0  0  0  0
   -6.8175   14.3636  -35.2151 H   0  0  0  0  0  0  0  0  0  0  0  0
   -7.3742   12.6557  -35.2151 H   0  0  0  0  0  0  0  0  0  0  0  0
   -6.2861   12.9398  -32.6700 H   0  0  0  0  0  0  0  0  0  0  0  0
   -5.4506   12.2213  -34.1002 H   0  0  0  0  0  0  0  0  0  0  0  0
   -3.1352   13.1437  -33.3222 H   0  0  0  0  0  0  0  0  0  0  0  0
   -3.5055   13.5344  -35.0509 H   0  0  0  0  0  0  0  0  0  0  0  0
   -2.0460   14.7688  -31.8804 H   0  0  0  0  0  0  0  0  0  0  0  0
   -0.6111   16.8014  -31.7438 H   0  0  0  0  0  0  0  0  0  0  0  0
    0.0211   18.9113  -32.6459 H   0  0  0  0  0  0  0  0  0  0  0  0
    0.7881   18.4385  -34.1999 H   0  0  0  0  0  0  0  0  0  0  0  0
   -0.6602   19.5011  -34.1999 H   0  0  0  0  0  0  0  0  0  0  0  0
   -1.6316   17.7995  -35.8313 H   0  0  0  0  0  0  0  0  0  0  0  0
   -3.0619   15.7624  -35.9722 H   0  0  0  0  0  0  0  0  0  0  0  0
   -5.0527   15.5153  -31.2857 H   0  0  0  0  0  0  0  0  0  0  0  0
   -5.7319   17.8830  -30.9293 H   0  0  0  0  0  0  0  0  0  0  0  0
   -6.7140   19.6200  -30.7010 H   0  0  0  0  0  0  0  0  0  0  0  0
   -8.5529   21.9417  -32.0750 H   0  0  0  0  0  0  0  0  0  0  0  0
   -8.6020   24.3932  -31.6422 H   0  0  0  0  0  0  0  0  0  0  0  0
   -6.6531   25.5191  -30.5738 H   0  0  0  0  0  0  0  0  0  0  0  0
   -3.8980   26.0650  -30.9780 H   0  0  0  0  0  0  0  0  0  0  0  0
   -4.5938   21.7118  -30.3374 H   0  0  0  0  0  0  0  0  0  0  0  0
   -6.3804   18.3359  -35.1861 H   0  0  0  0  0  0  0  0  0  0  0  0
   -5.7004   15.9721  -35.5429 H   0  0  0  0  0  0  0  0  0  0  0  0
  1  2  1  0
  2  3  1  0
  3  4  1  0
  4  5  1  0
  5  6  2  0
  6  7  1  0
  7  8  2  0
  8  9  1  0
  8 10  1  0
 10 11  2  0
  3 12  1  0
 12 13  2  0
 13 14  1  0
 14 15  2  0
 15 16  1  0
 16 17  2  0
 16 18  1  0
 18 19  1  0
 19 20  2  0
 20 21  1  0
 21 22  2  0
 22 23  1  0
 23 24  1  0
 24 25  1  0
 24 26  2  0
 23 27  2  0
 15 28  1  0
 28 29  2  0
 11  5  1  0
 29 12  1  0
 27 19  1  0
  1 30  1  0
  1 31  1  0
  1 32  1  0
  2 33  1  0
  2 34  1  0
  4 35  1  0
  4 36  1  0
  6 37  1  0
  7 38  1  0
  9 39  1  0
  9 40  1  0
  9 41  1  0
 10 42  1  0
 11 43  1  0
 13 44  1  0
 14 45  1  0
 18 46  1  0
 20 47  1  0
 21 48  1  0
 22 49  1  0
 25 50  1  0
 27 51  1  0
 28 52  1  0
 29 53  1  0
M  CHG  1  25  -1
M  END
>  <UniqueID>  (44) 
43

>  <SMILES>  (44) 
CCN(Cc1ccc(C)cc1)c1ccc(C(=O)Nc2cccc(C([NH-])=O)c2)cc1

>  <Energy>  (44) 
60.73070299409248

>  <Genealogy>  (44) 
CCN(Cc1ccc(C)cc1)c1ccc(C(=O)Nc2cccc(C([NH-])=O)c2)cc1 (protonated)
CCN(Cc1ccc(C)cc1)c1ccc(C(=O)Nc2cccc(C([NH-])=O)c2)cc1 (3D coordinates assigned)
CCN(Cc1ccc(C)cc1)c1ccc(C(=O)Nc2cccc(C([NH-])=O)c2)cc1 (optimized conformer: 60.73070299409248 kcal/mol)

>  <smiles>  (44) 
CCN(Cc1ccc(C)cc1)c1ccc(C(=O)Nc2cccc(C(N)=O)c2)cc1

>  <score_type>  (44) 
oracle

>  <origin>  (44) 
adgpu

>  <m_score__min__energy>  (44) 
-10.050000000000001

>  <m_primary>  (44) 
energy

$$$$
44:0
     RDKit          3D

 31 33  0  0  0  0  0  0  0  0999 V2000
   -2.9760   21.2930  -33.8140 O   0  0  0  0  0  0  0  0  0  0  0  0
   -3.5360   20.8960  -32.4760 S   0  0  0  0  0  0  0  0  0  0  0  0
   -2.4130   20.3720  -31.6250 O   0  0  0  0  0  0  0  0  0  0  0  0
   -4.7360   19.6180  -32.6560 C   0  0  0  0  0  0  0  0  0  0  0  0
   -5.3110   19.0350  -31.5180 C   0  0  0  0  0  0  0  0  0  0  0  0
   -6.2710   18.0270  -31.6540 C   0  0  0  0  0  0  0  0  0  0  0  0
   -6.6560   17.5940  -32.9270 C   0  0  0  0  0  0  0  0  0  0  0  0
   -7.5860   16.6160  -33.0580 F   0  0  0  0  0  0  0  0  0  0  0  0
   -6.0800   18.1680  -34.0640 C   0  0  0  0  0  0  0  0  0  0  0  0
   -5.1210   19.1770  -33.9300 C   0  0  0  0  0  0  0  0  0  0  0  0
   -4.2800   22.3200  -31.7220 C   0  0  0  0  0  0  0  0  0  0  0  0
   -3.4410   23.2560  -31.0970 C   0  0  0  0  0  0  0  0  0  0  0  0
   -3.9690   24.3850  -30.4720 C   0  0  0  0  0  0  0  0  0  0  0  0
   -3.1190   25.2990  -29.8600 O   0  0  0  0  0  0  0  0  0  0  0  0
   -5.3450   24.6020  -30.4590 C   0  0  0  0  0  0  0  0  0  0  0  0
   -6.2100   23.6860  -31.0720 C   0  0  0  0  0  0  0  0  0  0  0  0
   -7.5950   23.9120  -31.0490 C   0  0  0  0  0  0  0  0  0  0  0  0
   -8.4660   23.0060  -31.6550 C   0  0  0  0  0  0  0  0  0  0  0  0
   -7.9640   21.8700  -32.2900 C   0  0  0  0  0  0  0  0  0  0  0  0
   -6.5880   21.6310  -32.3230 C   0  0  0  0  0  0  0  0  0  0  0  0
   -5.6860   22.5310  -31.7150 C   0  0  0  0  0  0  0  0  0  0  0  0
   -5.0064   19.3711  -30.5159 H   0  0  0  0  0  0  0  0  0  0  0  0
   -6.7235   17.5745  -30.7593 H   0  0  0  0  0  0  0  0  0  0  0  0
   -6.3813   17.8257  -35.0650 H   0  0  0  0  0  0  0  0  0  0  0  0
   -4.6677   19.6257  -34.8262 H   0  0  0  0  0  0  0  0  0  0  0  0
   -2.3526   23.0966  -31.1004 H   0  0  0  0  0  0  0  0  0  0  0  0
   -5.7540   25.4960  -29.9655 H   0  0  0  0  0  0  0  0  0  0  0  0
   -7.9956   24.8073  -30.5510 H   0  0  0  0  0  0  0  0  0  0  0  0
   -9.5506   23.1879  -31.6320 H   0  0  0  0  0  0  0  0  0  0  0  0
   -8.6548   21.1591  -32.7670 H   0  0  0  0  0  0  0  0  0  0  0  0
   -6.2034   20.7325  -32.8278 H   0  0  0  0  0  0  0  0  0  0  0  0
  1  2  2  0
  2  3  2  0
  2  4  1  0
  4  5  2  0
  5  6  1  0
  6  7  2  0
  7  8  1  0
  7  9  1  0
  9 10  2  0
  2 11  1  0
 11 12  2  0
 12 13  1  0
 13 14  1  0
 13 15  2  0
 15 16  1  0
 16 17  2  0
 17 18  1  0
 18 19  2  0
 19 20  1  0
 20 21  2  0
 10  4  1  0
 21 11  1  0
 21 16  1  0
  5 22  1  0
  6 23  1  0
  9 24  1  0
 10 25  1  0
 12 26  1  0
 15 27  1  0
 17 28  1  0
 18 29  1  0
 19 30  1  0
 20 31  1  0
M  CHG  1  14  -1
M  END
>  <UniqueID>  (45) 
44

>  <SMILES>  (45) 
O=S(=O)(c1ccc(F)cc1)c1cc([O-])cc2ccccc12

>  <Energy>  (45) 
41.65540165084849

>  <Genealogy>  (45) 
O=S(=O)(c1ccc(F)cc1)c1cc([O-])cc2ccccc12 (protonated)
O=S(=O)(c1ccc(F)cc1)c1cc([O-])cc2ccccc12 (3D coordinates assigned)
O=S(=O)(c1ccc(F)cc1)c1cc([O-])cc2ccccc12 (optimized conformer: 41.65540165084849 kcal/mol)

>  <smiles>  (45) 
O=S(=O)(c1ccc(F)cc1)c1cc(O)cc2ccccc12

>  <score_type>  (45) 
oracle

>  <origin>  (45) 
adgpu

>  <m_score__min__energy>  (45) 
-10.699999999999999

>  <m_primary>  (45) 
energy

$$$$
45:0
     RDKit          3D

 27 29  0  0  0  0  0  0  0  0999 V2000
   -8.8630   18.5840  -31.9910 O   0  0  0  0  0  0  0  0  0  0  0  0
   -7.6900   18.9770  -32.2460 C   0  0  0  0  0  0  0  0  0  0  0  0
   -7.2600   20.2240  -31.7810 C   0  0  0  0  0  0  0  0  0  0  0  0
   -8.1150   21.0030  -31.0060 O   0  0  0  0  0  0  0  0  0  0  0  0
   -5.9520   20.6530  -32.0810 C   0  0  0  0  0  0  0  0  0  0  0  0
   -5.4320   21.9660  -31.6360 C   0  0  0  0  0  0  0  0  0  0  0  0
   -6.2210   23.1300  -31.7070 C   0  0  0  0  0  0  0  0  0  0  0  0
   -5.7000   24.3630  -31.3030 C   0  0  0  0  0  0  0  0  0  0  0  0
   -4.3840   24.4490  -30.8380 C   0  0  0  0  0  0  0  0  0  0  0  0
   -3.8680   25.6760  -30.4360 O   0  0  0  0  0  0  0  0  0  0  0  0
   -3.5860   23.3030  -30.7840 C   0  0  0  0  0  0  0  0  0  0  0  0
   -4.1050   22.0690  -31.1880 C   0  0  0  0  0  0  0  0  0  0  0  0
   -5.1390   19.8560  -32.7730 O   0  0  0  0  0  0  0  0  0  0  0  0
   -5.5040   18.6620  -33.2260 C   0  0  0  0  0  0  0  0  0  0  0  0
   -4.5920   17.8860  -33.9500 C   0  0  0  0  0  0  0  0  0  0  0  0
   -4.9660   16.6310  -34.4350 C   0  0  0  0  0  0  0  0  0  0  0  0
   -6.2550   16.1430  -34.2000 C   0  0  0  0  0  0  0  0  0  0  0  0
   -7.1750   16.9070  -33.4760 C   0  0  0  0  0  0  0  0  0  0  0  0
   -6.8070   18.1730  -32.9840 C   0  0  0  0  0  0  0  0  0  0  0  0
   -7.2531   23.0690  -32.0824 H   0  0  0  0  0  0  0  0  0  0  0  0
   -6.3259   25.2663  -31.3510 H   0  0  0  0  0  0  0  0  0  0  0  0
   -2.5490   23.3717  -30.4235 H   0  0  0  0  0  0  0  0  0  0  0  0
   -3.4690   21.1721  -31.1546 H   0  0  0  0  0  0  0  0  0  0  0  0
   -3.5769   18.2659  -34.1378 H   0  0  0  0  0  0  0  0  0  0  0  0
   -4.2449   16.0250  -35.0032 H   0  0  0  0  0  0  0  0  0  0  0  0
   -6.5461   15.1549  -34.5860 H   0  0  0  0  0  0  0  0  0  0  0  0
   -8.1872   16.5183  -33.2908 H   0  0  0  0  0  0  0  0  0  0  0  0
  1  2  2  0
  2  3  1  0
  3  4  1  0
  3  5  2  0
  5  6  1  0
  6  7  2  0
  7  8  1  0
  8  9  2  0
  9 10  1  0
  9 11  1  0
 11 12  2  0
  5 13  1  0
 13 14  1  0
 14 15  2  0
 15 16  1  0
 16 17  2  0
 17 18  1  0
 18 19  2  0
 19  2  1  0
 12  6  1  0
 19 14  1  0
  7 20  1  0
  8 21  1  0
 11 22  1  0
 12 23  1  0
 15 24  1  0
 16 25  1  0
 17 26  1  0
 18 27  1  0
M  CHG  2   4  -1  10  -1
M  END
>  <UniqueID>  (46) 
45

>  <SMILES>  (46) 
O=c1c([O-])c(-c2ccc([O-])cc2)oc2ccccc12

>  <Energy>  (46) 
41.24082504944663

>  <Genealogy>  (46) 
O=c1c([O-])c(-c2ccc([O-])cc2)oc2ccccc12 (protonated)
O=c1c([O-])c(-c2ccc([O-])cc2)oc2ccccc12 (3D coordinates assigned)
O=c1c([O-])c(-c2ccc([O-])cc2)oc2ccccc12 (optimized conformer: 41.24082504944663 kcal/mol)

>  <smiles>  (46) 
O=c1c(O)c(-c2ccc(O)cc2)oc2ccccc12

>  <score_type>  (46) 
oracle

>  <origin>  (46) 
adgpu

>  <m_score__min__energy>  (46) 
-9.9199999999999999

>  <m_primary>  (46) 
energy

$$$$
46:0
     RDKit          3D

 66 71  0  0  0  0  0  0  0  0999 V2000
   -4.8970   24.8860  -28.0500 F   0  0  0  0  0  0  0  0  0  0  0  0
   -3.8140   24.1420  -28.4820 C   0  0  0  0  0  0  0  0  0  0  0  0
   -4.2010   22.8170  -28.5790 F   0  0  0  0  0  0  0  0  0  0  0  0
   -3.4450   24.5620  -29.7460 F   0  0  0  0  0  0  0  0  0  0  0  0
   -2.6690   24.3070  -27.5030 C   0  0  0  0  0  0  0  0  0  0  0  0
   -2.7600   25.2960  -26.4960 C   0  0  0  0  0  0  0  0  0  0  0  0
   -1.7110   25.4530  -25.5910 C   0  0  0  0  0  0  0  0  0  0  0  0
   -0.5860   24.6810  -25.6680 C   0  0  0  0  0  0  0  0  0  0  0  0
   -0.4410   23.7170  -26.6630 C   0  0  0  0  0  0  0  0  0  0  0  0
   -1.4760   23.5290  -27.5980 C   0  0  0  0  0  0  0  0  0  0  0  0
   -1.2980   22.5380  -28.6230 N   0  0  0  0  0  0  0  0  0  0  0  0
   -2.0650   21.2860  -28.5810 C   0  0  0  0  0  0  0  0  0  0  0  0
   -2.5850   20.8750  -29.9800 C   0  0  0  0  0  0  0  0  0  0  0  0
   -1.8540   21.5160  -31.1020 N   0  0  0  0  0  0  0  0  0  0  0  0
   -2.0410   20.7890  -32.3810 C   0  0  0  0  0  0  0  0  0  0  0  0
   -3.4600   20.5880  -32.7120 N   0  0  0  0  0  0  0  0  0  0  0  0
   -4.4380   21.3370  -32.2280 N   0  0  0  0  0  0  0  0  0  0  0  0
   -5.5850   20.8360  -32.7270 C   0  0  0  0  0  0  0  0  0  0  0  0
   -6.9110   21.3770  -32.3770 C   0  0  0  0  0  0  0  0  0  0  0  0
   -7.9730   20.5040  -32.1080 C   0  0  0  0  0  0  0  0  0  0  0  0
   -9.2220   21.0270  -31.7660 C   0  0  0  0  0  0  0  0  0  0  0  0
   -9.3990   22.3730  -31.6790 N   0  0  0  0  0  0  0  0  0  0  0  0
   -8.3800   23.2420  -31.9170 C   0  0  0  0  0  0  0  0  0  0  0  0
   -7.1140   22.7600  -32.2630 C   0  0  0  0  0  0  0  0  0  0  0  0
   -5.3610   19.7540  -33.5150 N   0  0  0  0  0  0  0  0  0  0  0  0
   -6.3480   18.8130  -34.0550 C   0  0  0  0  0  0  0  0  0  0  0  0
   -6.0360   17.4250  -33.5940 C   0  0  0  0  0  0  0  0  0  0  0  0
   -6.2490   16.2690  -34.3160 C   0  0  0  0  0  0  0  0  0  0  0  0
   -5.7780   15.2460  -33.5210 C   0  0  0  0  0  0  0  0  0  0  0  0
   -5.3070   15.8420  -32.3670 C   0  0  0  0  0  0  0  0  0  0  0  0
   -5.4740   17.1430  -32.4430 O   0  0  0  0  0  0  0  0  0  0  0  0
   -4.0160   19.6170  -33.4710 C   0  0  0  0  0  0  0  0  0  0  0  0
   -3.1810   18.3860  -34.1730 S   0  0  0  0  0  0  0  0  0  0  0  0
   -0.4270   21.7270  -30.7820 C   0  0  0  0  0  0  0  0  0  0  0  0
   -0.2990   22.7720  -29.6710 C   0  0  0  0  0  0  0  0  0  0  0  0
    0.3950   25.0140  -24.6100 C   0  0  0  0  0  0  0  0  0  0  0  0
   -0.2950   26.1270  -23.7970 C   0  0  0  0  0  0  0  0  0  0  0  0
   -1.6500   26.4210  -24.4710 C   0  0  0  0  0  0  0  0  0  0  0  0
   -3.6517   25.9365  -26.4273 H   0  0  0  0  0  0  0  0  0  0  0  0
    0.4737   23.1085  -26.7174 H   0  0  0  0  0  0  0  0  0  0  0  0
   -1.4170   20.4857  -28.1942 H   0  0  0  0  0  0  0  0  0  0  0  0
   -2.9364   21.4440  -27.9285 H   0  0  0  0  0  0  0  0  0  0  0  0
   -2.4866   19.7840  -30.0800 H   0  0  0  0  0  0  0  0  0  0  0  0
   -3.6305   21.2106  -30.0450 H   0  0  0  0  0  0  0  0  0  0  0  0
   -2.2860   22.4620  -31.2500 H   0  0  0  0  0  0  0  0  0  0  0  0
   -1.5690   21.3682  -33.1883 H   0  0  0  0  0  0  0  0  0  0  0  0
   -1.5792   19.7966  -32.2721 H   0  0  0  0  0  0  0  0  0  0  0  0
   -7.8244   19.4156  -32.1657 H   0  0  0  0  0  0  0  0  0  0  0  0
  -10.0648   20.3488  -31.5665 H   0  0  0  0  0  0  0  0  0  0  0  0
   -8.5522   24.3255  -31.8371 H   0  0  0  0  0  0  0  0  0  0  0  0
   -6.2845   23.4594  -32.4442 H   0  0  0  0  0  0  0  0  0  0  0  0
   -7.3514   19.0964  -33.7046 H   0  0  0  0  0  0  0  0  0  0  0  0
   -6.3141   18.8449  -35.1540 H   0  0  0  0  0  0  0  0  0  0  0  0
   -6.6998   16.1819  -35.3156 H   0  0  0  0  0  0  0  0  0  0  0  0
   -5.7773   14.1718  -33.7577 H   0  0  0  0  0  0  0  0  0  0  0  0
   -4.8604   15.3088  -31.5148 H   0  0  0  0  0  0  0  0  0  0  0  0
    0.0168   20.7785  -30.4453 H   0  0  0  0  0  0  0  0  0  0  0  0
    0.1001   22.0820  -31.6799 H   0  0  0  0  0  0  0  0  0  0  0  0
    0.7073   22.7102  -29.2311 H   0  0  0  0  0  0  0  0  0  0  0  0
   -0.4657   23.7700  -30.1026 H   0  0  0  0  0  0  0  0  0  0  0  0
    0.6000   24.1378  -23.9774 H   0  0  0  0  0  0  0  0  0  0  0  0
    1.3667   25.3289  -25.0182 H   0  0  0  0  0  0  0  0  0  0  0  0
   -0.4554   25.7915  -22.7618 H   0  0  0  0  0  0  0  0  0  0  0  0
    0.3295   27.0321  -23.7715 H   0  0  0  0  0  0  0  0  0  0  0  0
   -2.4800   26.2580  -23.7678 H   0  0  0  0  0  0  0  0  0  0  0  0
   -1.7375   27.4644  -24.8081 H   0  0  0  0  0  0  0  0  0  0  0  0
  1  2  1  0
  2  3  1  0
  2  4  1  0
  2  5  1  0
  5  6  2  0
  6  7  1  0
  7  8  2  0
  8  9  1  0
  9 10  2  0
 10 11  1  0
 11 12  1  0
 12 13  1  0
 13 14  1  0
 14 15  1  0
 15 16  1  0
 16 17  1  0
 17 18  2  0
 18 19  1  0
 19 20  2  0
 20 21  1  0
 21 22  2  0
 22 23  1  0
 23 24  2  0
 18 25  1  0
 25 26  1  0
 26 27  1  0
 27 28  2  0
 28 29  1  0
 29 30  2  0
 30 31  1  0
 25 32  1  0
 32 33  2  0
 14 34  1  0
 34 35  1  0
  8 36  1  0
 36 37  1  0
 37 38  1  0
 10  5  1  0
 35 11  1  0
 38  7  1  0
 32 16  1  0
 24 19  1  0
 31 27  1  0
  6 39  1  0
  9 40  1  0
 12 41  1  0
 12 42  1  0
 13 43  1  0
 13 44  1  0
 14 45  1  0
 15 46  1  0
 15 47  1  0
 20 48  1  0
 21 49  1  0
 23 50  1  0
 24 51  1  0
 26 52  1  0
 26 53  1  0
 28 54  1  0
 29 55  1  0
 30 56  1  0
 34 57  1  0
 34 58  1  0
 35 59  1  0
 35 60  1  0
 36 61  1  0
 36 62  1  0
 37 63  1  0
 37 64  1  0
 38 65  1  0
 38 66  1  0
M  CHG  1  14   1
M  END
>  <UniqueID>  (47) 
46

>  <SMILES>  (47) 
FC(F)(F)c1cc2c(cc1N1CC[NH+](Cn3nc(-c4ccncc4)n(Cc4ccco4)c3=S)CC1)CCC2

>  <Energy>  (47) 
162.3500189596589

>  <Genealogy>  (47) 
FC(F)(F)c1cc2c(cc1N1CC[NH+](Cn3nc(-c4ccncc4)n(Cc4ccco4)c3=S)CC1)CCC2 (protonated)
FC(F)(F)c1cc2c(cc1N1CC[NH+](Cn3nc(-c4ccncc4)n(Cc4ccco4)c3=S)CC1)CCC2 (3D coordinates assigned)
FC(F)(F)c1cc2c(cc1N1CC[NH+](Cn3nc(-c4ccncc4)n(Cc4ccco4)c3=S)CC1)CCC2 (nonaromatic ring conformer: 162.3500189596589 kcal/mol)

>  <smiles>  (47) 
FC(F)(F)c1cc2c(cc1N1CCN(Cn3nc(-c4ccncc4)n(Cc4ccco4)c3=S)CC1)CCC2

>  <score_type>  (47) 
oracle

>  <origin>  (47) 
adgpu

>  <m_score__min__energy>  (47) 
-8.4000000000000004

>  <m_primary>  (47) 
energy

$$$$
47:0
     RDKit          3D

 37 39  0  0  0  0  0  0  0  0999 V2000
   -4.5810   25.6730  -31.1770 O   0  0  0  0  0  0  0  0  0  0  0  0
   -5.3750   24.7740  -30.2720 S   0  0  0  0  0  0  0  0  0  0  0  0
   -6.7210   25.3920  -30.0250 O   0  0  0  0  0  0  0  0  0  0  0  0
   -4.5360   24.6060  -28.7610 N   0  0  0  0  0  0  0  0  0  0  0  0
   -3.3520   23.8030  -28.5860 C   0  0  0  0  0  0  0  0  0  0  0  0
   -3.4280   22.4730  -28.1280 C   0  0  0  0  0  0  0  0  0  0  0  0
   -2.2660   21.7130  -27.9600 C   0  0  0  0  0  0  0  0  0  0  0  0
   -1.0190   22.2680  -28.2510 C   0  0  0  0  0  0  0  0  0  0  0  0
   -0.9300   23.5810  -28.7150 C   0  0  0  0  0  0  0  0  0  0  0  0
   -2.0870   24.3490  -28.8830 C   0  0  0  0  0  0  0  0  0  0  0  0
   -1.9710   25.6560  -29.3420 O   0  0  0  0  0  0  0  0  0  0  0  0
   -5.6070   23.1910  -31.0090 C   0  0  0  0  0  0  0  0  0  0  0  0
   -6.8620   22.5710  -30.9820 C   0  0  0  0  0  0  0  0  0  0  0  0
   -7.0440   21.3230  -31.5840 C   0  0  0  0  0  0  0  0  0  0  0  0
   -5.9700   20.6740  -32.2190 C   0  0  0  0  0  0  0  0  0  0  0  0
   -6.1620   19.3480  -32.8620 C   0  0  0  0  0  0  0  0  0  0  0  0
   -5.5670   19.0620  -34.1050 C   0  0  0  0  0  0  0  0  0  0  0  0
   -5.7500   17.8130  -34.7070 C   0  0  0  0  0  0  0  0  0  0  0  0
   -6.5290   16.8390  -34.0780 C   0  0  0  0  0  0  0  0  0  0  0  0
   -7.1250   17.1110  -32.8450 C   0  0  0  0  0  0  0  0  0  0  0  0
   -6.9450   18.3570  -32.2380 C   0  0  0  0  0  0  0  0  0  0  0  0
   -4.7100   21.3010  -32.2370 C   0  0  0  0  0  0  0  0  0  0  0  0
   -4.5320   22.5490  -31.6340 C   0  0  0  0  0  0  0  0  0  0  0  0
   -4.9810   25.0540  -27.9300 H   0  0  0  0  0  0  0  0  0  0  0  0
   -4.4084   22.0290  -27.9008 H   0  0  0  0  0  0  0  0  0  0  0  0
   -2.3350   20.6765  -27.5981 H   0  0  0  0  0  0  0  0  0  0  0  0
   -0.1058   21.6701  -28.1145 H   0  0  0  0  0  0  0  0  0  0  0  0
    0.0537   24.0137  -28.9495 H   0  0  0  0  0  0  0  0  0  0  0  0
   -7.7081   23.0681  -30.4850 H   0  0  0  0  0  0  0  0  0  0  0  0
   -8.0344   20.8449  -31.5610 H   0  0  0  0  0  0  0  0  0  0  0  0
   -4.9541   19.8257  -34.6062 H   0  0  0  0  0  0  0  0  0  0  0  0
   -5.2796   17.5972  -35.6777 H   0  0  0  0  0  0  0  0  0  0  0  0
   -6.6729   15.8578  -34.5540 H   0  0  0  0  0  0  0  0  0  0  0  0
   -7.7376   16.3429  -32.3502 H   0  0  0  0  0  0  0  0  0  0  0  0
   -7.4177   18.5652  -31.2668 H   0  0  0  0  0  0  0  0  0  0  0  0
   -3.8600   20.8055  -32.7289 H   0  0  0  0  0  0  0  0  0  0  0  0
   -3.5424   23.0289  -31.6507 H   0  0  0  0  0  0  0  0  0  0  0  0
  1  2  2  0
  2  3  2  0
  2  4  1  0
  4  5  1  0
  5  6  2  0
  6  7  1  0
  7  8  2  0
  8  9  1  0
  9 10  2  0
 10 11  1  0
  2 12  1  0
 12 13  2  0
 13 14  1  0
 14 15  2  0
 15 16  1  0
 16 17  2  0
 17 18  1  0
 18 19  2  0
 19 20  1  0
 20 21  2  0
 15 22  1  0
 22 23  2  0
 10  5  1  0
 23 12  1  0
 21 16  1  0
  4 24  1  0
  6 25  1  0
  7 26  1  0
  8 27  1  0
  9 28  1  0
 13 29  1  0
 14 30  1  0
 17 31  1  0
 18 32  1  0
 19 33  1  0
 20 34  1  0
 21 35  1  0
 22 36  1  0
 23 37  1  0
M  CHG  1  11  -1
M  END
>  <UniqueID>  (48) 
47

>  <SMILES>  (48) 
O=S(=O)(Nc1ccccc1[O-])c1ccc(-c2ccccc2)cc1

>  <Energy>  (48) 
48.610413196384506

>  <Genealogy>  (48) 
O=S(=O)(Nc1ccccc1[O-])c1ccc(-c2ccccc2)cc1 (protonated)
O=S(=O)(Nc1ccccc1[O-])c1ccc(-c2ccccc2)cc1 (3D coordinates assigned)
O=S(=O)(Nc1ccccc1[O-])c1ccc(-c2ccccc2)cc1 (optimized conformer: 48.610413196384506 kcal/mol)

>  <smiles>  (48) 
O=S(=O)(Nc1ccccc1O)c1ccc(-c2ccccc2)cc1

>  <score_type>  (48) 
oracle

>  <origin>  (48) 
adgpu

>  <m_score__min__energy>  (48) 
-12.75

>  <m_primary>  (48) 
energy

$$$$
