0:0
     RDKit          3D

 29 31  0  0  0  0  0  0  0  0999 V2000
   -1.2380   27.4580  -28.2420 H   0  0  0  0  0  0  0  0  0  0  0  0
   -0.6640   26.5860  -28.2030 N   0  0  0  0  0  0  0  0  0  0  0  0
   -1.1510   25.4550  -28.5980 C   0  0  0  0  0  0  0  0  0  0  0  0
   -2.3640   25.2950  -29.0670 O   0  0  0  0  0  0  0  0  0  0  0  0
   -2.4420   24.0080  -29.3440 C   0  0  0  0  0  0  0  0  0  0  0  0
   -3.6390   23.3510  -29.9050 C   0  0  0  0  0  0  0  0  0  0  0  0
   -4.9210   23.7600  -29.5060 C   0  0  0  0  0  0  0  0  0  0  0  0
   -5.0317   24.5729  -28.7732 H   0  0  0  0  0  0  0  0  0  0  0  0
   -6.0570   23.1420  -30.0330 C   0  0  0  0  0  0  0  0  0  0  0  0
   -7.0559   23.4733  -29.7130 H   0  0  0  0  0  0  0  0  0  0  0  0
   -5.9350   22.1000  -30.9690 C   0  0  0  0  0  0  0  0  0  0  0  0
   -7.1430   21.4420  -31.5300 C   0  0  0  0  0  0  0  0  0  0  0  0
   -7.0480   20.1870  -32.1630 C   0  0  0  0  0  0  0  0  0  0  0  0
   -6.0709   19.6883  -32.2443 H   0  0  0  0  0  0  0  0  0  0  0  0
   -8.1870   19.5720  -32.6880 C   0  0  0  0  0  0  0  0  0  0  0  0
   -8.1032   18.5911  -33.1788 H   0  0  0  0  0  0  0  0  0  0  0  0
   -9.4320   20.1980  -32.5920 C   0  0  0  0  0  0  0  0  0  0  0  0
  -10.3264   19.7115  -33.0083 H   0  0  0  0  0  0  0  0  0  0  0  0
   -9.5400   21.4420  -31.9670 C   0  0  0  0  0  0  0  0  0  0  0  0
  -10.5208   21.9342  -31.8904 H   0  0  0  0  0  0  0  0  0  0  0  0
   -8.4040   22.0640  -31.4380 C   0  0  0  0  0  0  0  0  0  0  0  0
   -8.4957   23.0443  -30.9474 H   0  0  0  0  0  0  0  0  0  0  0  0
   -4.6490   21.6910  -31.3660 C   0  0  0  0  0  0  0  0  0  0  0  0
   -4.5367   20.8767  -32.0970 H   0  0  0  0  0  0  0  0  0  0  0  0
   -3.5130   22.3110  -30.8390 C   0  0  0  0  0  0  0  0  0  0  0  0
   -2.5132   21.9817  -31.1583 H   0  0  0  0  0  0  0  0  0  0  0  0
   -1.2870   23.3690  -29.0500 N   0  0  0  0  0  0  0  0  0  0  0  0
   -0.4750   24.2980  -28.5760 N   0  0  0  0  0  0  0  0  0  0  0  0
    0.5050   24.1340  -28.2530 H   0  0  0  0  0  0  0  0  0  0  0  0
  1  2  1  0
  2  3  2  0
  3  4  1  0
  4  5  1  0
  5  6  1  0
  6  7  2  0
  7  8  1  0
  7  9  1  0
  9 10  1  0
  9 11  2  0
 11 12  1  0
 12 13  2  0
 13 14  1  0
 13 15  1  0
 15 16  1  0
 15 17  2  0
 17 18  1  0
 17 19  1  0
 19 20  1  0
 19 21  2  0
 21 22  1  0
 11 23  1  0
 23 24  1  0
 23 25  2  0
 25 26  1  0
  5 27  2  0
 27 28  1  0
 28 29  1  0
 28  3  1  0
 25  6  1  0
 21 12  1  0
M  END
>  <UniqueID>  (1) 
1

>  <SMILES>  (1) 
[H]/N=c1/[nH]nc(-c2ccc(-c3ccccc3)cc2)o1

>  <Energy>  (1) 
73.33761235829877

>  <Genealogy>  (1) 
[H]/N=c1/[nH]nc(-c2ccc(-c3ccccc3)cc2)o1 (cis-trans isomerization)
[H]/N=c1/[nH]nc(-c2ccc(-c3ccccc3)cc2)o1 (3D coordinates assigned)
[H]/N=c1/[nH]nc(-c2ccc(-c3ccccc3)cc2)o1 (optimized conformer: 73.33761235829877 kcal/mol)

>  <smiles>  (1) 
N=c1[nH]nc(-c2ccc(-c3ccccc3)cc2)o1

>  <score_type>  (1) 
oracle

>  <origin>  (1) 
adgpu

>  <m_score__min__energy>  (1) 
-7.2400000000000002

>  <m_primary>  (1) 
energy

$$$$
1:0
     RDKit          3D

 21 21  0  0  0  0  0  0  0  0999 V2000
   -3.2210   25.6730  -31.6010 H   0  0  0  0  0  0  0  0  0  0  0  0
   -3.8770   25.6760  -30.8280 O   0  0  0  0  0  0  0  0  0  0  0  0
   -4.5880   24.5470  -30.4810 N   0  0  0  0  0  0  0  0  0  0  0  0
   -5.7440   24.2800  -31.0020 C   0  0  0  0  0  0  0  0  0  0  0  0
   -6.1739   24.9567  -31.7552 H   0  0  0  0  0  0  0  0  0  0  0  0
   -6.4970   23.0570  -30.5850 C   0  0  0  0  0  0  0  0  0  0  0  0
   -7.0990   23.2879  -29.6938 H   0  0  0  0  0  0  0  0  0  0  0  0
   -5.7791   22.2552  -30.3577 H   0  0  0  0  0  0  0  0  0  0  0  0
   -7.4060   22.6000  -31.6930 C   0  0  0  0  0  0  0  0  0  0  0  0
   -7.9920   23.4820  -32.3790 O   0  0  0  0  0  0  0  0  0  0  0  0
   -7.6110   21.1610  -32.0200 C   0  0  0  0  0  0  0  0  0  0  0  0
   -8.7910   20.4790  -31.6570 C   0  0  0  0  0  0  0  0  0  0  0  0
   -9.5871   21.0152  -31.1197 H   0  0  0  0  0  0  0  0  0  0  0  0
   -8.9580   19.1270  -31.9740 C   0  0  0  0  0  0  0  0  0  0  0  0
   -9.8825   18.6058  -31.6848 H   0  0  0  0  0  0  0  0  0  0  0  0
   -7.9550   18.4380  -32.6560 C   0  0  0  0  0  0  0  0  0  0  0  0
   -8.0900   17.3755  -32.9066 H   0  0  0  0  0  0  0  0  0  0  0  0
   -6.7810   19.0970  -33.0200 C   0  0  0  0  0  0  0  0  0  0  0  0
   -5.9897   18.5521  -33.5557 H   0  0  0  0  0  0  0  0  0  0  0  0
   -6.6070   20.4480  -32.7060 C   0  0  0  0  0  0  0  0  0  0  0  0
   -5.6777   20.9596  -32.9970 H   0  0  0  0  0  0  0  0  0  0  0  0
  1  2  1  0
  2  3  1  0
  3  4  2  0
  4  5  1  0
  4  6  1  0
  6  7  1  0
  6  8  1  0
  6  9  1  0
  9 10  2  0
  9 11  1  0
 11 12  2  0
 12 13  1  0
 12 14  1  0
 14 15  1  0
 14 16  2  0
 16 17  1  0
 16 18  1  0
 18 19  1  0
 18 20  2  0
 20 21  1  0
 20 11  1  0
M  END
>  <UniqueID>  (2) 
2

>  <SMILES>  (2) 
O=C(C/C=N/O)c1ccccc1

>  <Energy>  (2) 
18.72588334399275

>  <Genealogy>  (2) 
O=C(C/C=N/O)c1ccccc1 (cis-trans isomerization)
O=C(C/C=N/O)c1ccccc1 (3D coordinates assigned)
O=C(C/C=N/O)c1ccccc1 (optimized conformer: 18.72588334399275 kcal/mol)

>  <smiles>  (2) 
O=C(CC=NO)c1ccccc1

>  <score_type>  (2) 
oracle

>  <origin>  (2) 
adgpu

>  <m_score__min__energy>  (2) 
-7.5199999999999996

>  <m_primary>  (2) 
energy

$$$$
2:0
     RDKit          3D

 26 27  0  0  0  0  0  0  0  0999 V2000
   -6.3760   25.6800  -29.5140 C   0  0  0  0  0  0  0  0  0  0  0  0
   -6.1230   24.4720  -30.3710 C   0  0  0  0  0  0  0  0  0  0  0  0
   -7.2030   23.6410  -30.7190 C   0  0  0  0  0  0  0  0  0  0  0  0
   -7.0090   22.5370  -31.5510 C   0  0  0  0  0  0  0  0  0  0  0  0
   -5.7360   22.2480  -32.0440 C   0  0  0  0  0  0  0  0  0  0  0  0
   -4.6510   23.0510  -31.6920 C   0  0  0  0  0  0  0  0  0  0  0  0
   -4.8260   24.1470  -30.8350 C   0  0  0  0  0  0  0  0  0  0  0  0
   -3.6790   24.9250  -30.4860 N   0  0  0  0  0  0  0  0  0  0  0  0
   -2.6710   24.5520  -29.1260 S   0  0  0  0  0  0  0  0  0  0  0  0
   -3.4800   24.5780  -27.8590 O   0  0  0  0  0  0  0  0  0  0  0  0
   -1.5620   25.5620  -29.0360 O   0  0  0  0  0  0  0  0  0  0  0  0
   -2.0040   22.9470  -29.3360 C   0  0  0  0  0  0  0  0  0  0  0  0
   -1.3080   22.5030  -30.4500 C   0  0  0  0  0  0  0  0  0  0  0  0
   -0.9050   21.1660  -30.3420 C   0  0  0  0  0  0  0  0  0  0  0  0
   -1.2840   20.5640  -29.1480 C   0  0  0  0  0  0  0  0  0  0  0  0
   -2.1240   21.6940  -28.2250 S   0  0  0  0  0  0  0  0  0  0  0  0
   -6.3165   25.3958  -28.4530 H   0  0  0  0  0  0  0  0  0  0  0  0
   -5.6193   26.4484  -29.7308 H   0  0  0  0  0  0  0  0  0  0  0  0
   -7.3774   26.0802  -29.7308 H   0  0  0  0  0  0  0  0  0  0  0  0
   -8.2087   23.8628  -30.3324 H   0  0  0  0  0  0  0  0  0  0  0  0
   -7.8606   21.8941  -31.8183 H   0  0  0  0  0  0  0  0  0  0  0  0
   -5.5879   21.3859  -32.7110 H   0  0  0  0  0  0  0  0  0  0  0  0
   -3.6510   22.8228  -32.0895 H   0  0  0  0  0  0  0  0  0  0  0  0
   -1.0950   23.1338  -31.3256 H   0  0  0  0  0  0  0  0  0  0  0  0
   -0.3416   20.6418  -31.1280 H   0  0  0  0  0  0  0  0  0  0  0  0
   -1.0712   19.5252  -28.8556 H   0  0  0  0  0  0  0  0  0  0  0  0
  1  2  1  0
  2  3  2  0
  3  4  1  0
  4  5  2  0
  5  6  1  0
  6  7  2  0
  7  8  1  0
  8  9  1  0
  9 10  2  0
  9 11  2  0
  9 12  1  0
 12 13  2  0
 13 14  1  0
 14 15  2  0
 15 16  1  0
  7  2  1  0
 16 12  1  0
  1 17  1  0
  1 18  1  0
  1 19  1  0
  3 20  1  0
  4 21  1  0
  5 22  1  0
  6 23  1  0
 13 24  1  0
 14 25  1  0
 15 26  1  0
M  CHG  1   8  -1
M  END
>  <UniqueID>  (3) 
3

>  <SMILES>  (3) 
Cc1ccccc1[N-]S(=O)(=O)c1cccs1

>  <Energy>  (3) 
62.03655885772579

>  <Genealogy>  (3) 
Cc1ccccc1[N-]S(=O)(=O)c1cccs1 (protonated)
Cc1ccccc1[N-]S(=O)(=O)c1cccs1 (3D coordinates assigned)
Cc1ccccc1[N-]S(=O)(=O)c1cccs1 (optimized conformer: 62.03655885772579 kcal/mol)

>  <smiles>  (3) 
Cc1ccccc1NS(=O)(=O)c1cccs1

>  <score_type>  (3) 
oracle

>  <origin>  (3) 
adgpu

>  <m_score__min__energy>  (3) 
-7.7599999999999998

>  <m_primary>  (3) 
energy

$$$$
3:0
     RDKit          3D

 32 33  0  0  0  0  0  0  0  0999 V2000
   -9.2420   23.3460  -32.1470 O   0  0  0  0  0  0  0  0  0  0  0  0
   -8.8180   22.2110  -31.9710 C   0  0  0  0  0  0  0  0  0  0  0  0
   -9.8450   21.1060  -31.8280 C   0  0  0  0  0  0  0  0  0  0  0  0
   -9.4070   19.8210  -32.5360 C   0  0  0  0  0  0  0  0  0  0  0  0
   -8.3620   19.0290  -31.7360 C   0  0  0  0  0  0  0  0  0  0  0  0
   -6.9150   19.4730  -31.9890 C   0  0  0  0  0  0  0  0  0  0  0  0
   -6.8190   20.8410  -32.6940 C   0  0  0  0  0  0  0  0  0  0  0  0
   -7.3730   22.0050  -31.9470 N   0  0  1  0  0  0  0  0  0  0  0  0
   -6.6150   23.2710  -32.1260 C   0  0  0  0  0  0  0  0  0  0  0  0
   -5.4900   23.4750  -31.1390 C   0  0  0  0  0  0  0  0  0  0  0  0
   -5.6800   24.2790  -30.0040 C   0  0  0  0  0  0  0  0  0  0  0  0
   -4.6260   24.4630  -29.1050 C   0  0  0  0  0  0  0  0  0  0  0  0
   -3.4220   23.8770  -29.3380 N   0  0  0  0  0  0  0  0  0  0  0  0
   -3.2040   23.1070  -30.4370 C   0  0  0  0  0  0  0  0  0  0  0  0
   -4.2300   22.8970  -31.3610 C   0  0  0  0  0  0  0  0  0  0  0  0
   -9.9889   20.8911  -30.7588 H   0  0  0  0  0  0  0  0  0  0  0  0
  -10.7804   21.4490  -32.2942 H   0  0  0  0  0  0  0  0  0  0  0  0
  -10.2909   19.1840  -32.6873 H   0  0  0  0  0  0  0  0  0  0  0  0
   -8.9446   20.1096  -33.4914 H   0  0  0  0  0  0  0  0  0  0  0  0
   -8.5796   19.1528  -30.6649 H   0  0  0  0  0  0  0  0  0  0  0  0
   -8.4359   17.9819  -32.0647 H   0  0  0  0  0  0  0  0  0  0  0  0
   -6.3947   19.5397  -31.0221 H   0  0  0  0  0  0  0  0  0  0  0  0
   -6.4535   18.7275  -32.6532 H   0  0  0  0  0  0  0  0  0  0  0  0
   -5.7559   21.0435  -32.8909 H   0  0  0  0  0  0  0  0  0  0  0  0
   -7.4372   20.7503  -33.5993 H   0  0  0  0  0  0  0  0  0  0  0  0
   -7.1770   21.7500  -30.9490 H   0  0  0  0  0  0  0  0  0  0  0  0
   -6.1872   23.2745  -33.1394 H   0  0  0  0  0  0  0  0  0  0  0  0
   -7.3304   24.0893  -31.9569 H   0  0  0  0  0  0  0  0  0  0  0  0
   -6.6521   24.7610  -29.8235 H   0  0  0  0  0  0  0  0  0  0  0  0
   -4.7710   25.0828  -28.2078 H   0  0  0  0  0  0  0  0  0  0  0  0
   -2.2174   22.6484  -30.5988 H   0  0  0  0  0  0  0  0  0  0  0  0
   -4.0521   22.2831  -32.2563 H   0  0  0  0  0  0  0  0  0  0  0  0
  1  2  2  0
  2  3  1  0
  3  4  1  0
  4  5  1  0
  5  6  1  0
  6  7  1  0
  7  8  1  0
  8  9  1  0
  9 10  1  0
 10 11  2  0
 11 12  1  0
 12 13  2  0
 13 14  1  0
 14 15  2  0
  8  2  1  0
 15 10  1  0
  3 16  1  0
  3 17  1  0
  4 18  1  0
  4 19  1  0
  5 20  1  0
  5 21  1  0
  6 22  1  0
  6 23  1  0
  7 24  1  0
  7 25  1  0
  8 26  1  1
  9 27  1  0
  9 28  1  0
 11 29  1  0
 12 30  1  0
 14 31  1  0
 15 32  1  0
M  CHG  1   8   1
M  END
>  <UniqueID>  (4) 
4

>  <SMILES>  (4) 
O=C1CCCCC[N@H+]1Cc1ccncc1

>  <Energy>  (4) 
47.81311244640434

>  <Genealogy>  (4) 
O=C1CCCCC[NH+]1Cc1ccncc1 (protonated)
O=C1CCCCC[N@H+]1Cc1ccncc1 (chirality)
O=C1CCCCC[N@H+]1Cc1ccncc1 (3D coordinates assigned)
O=C1CCCCC[N@H+]1Cc1ccncc1 (nonaromatic ring conformer: 47.81311244640434 kcal/mol)

>  <smiles>  (4) 
O=C1CCCCCN1Cc1ccncc1

>  <score_type>  (4) 
oracle

>  <origin>  (4) 
adgpu

>  <m_score__min__energy>  (4) 
-4.3200000000000003

>  <m_primary>  (4) 
energy

$$$$
4:0
     RDKit          3D

 39 41  0  0  0  0  0  0  0  0999 V2000
   -3.4650   25.0880  -30.0280 F   0  0  0  0  0  0  0  0  0  0  0  0
   -3.0810   23.7870  -30.0850 C   0  0  0  0  0  0  0  0  0  0  0  0
   -1.7670   23.4440  -29.7490 C   0  0  0  0  0  0  0  0  0  0  0  0
   -1.3650   22.1070  -29.7710 C   0  0  0  0  0  0  0  0  0  0  0  0
   -2.2750   21.1070  -30.1240 C   0  0  0  0  0  0  0  0  0  0  0  0
   -3.5910   21.4450  -30.4590 C   0  0  0  0  0  0  0  0  0  0  0  0
   -4.0010   22.7870  -30.4470 C   0  0  0  0  0  0  0  0  0  0  0  0
   -5.3540   23.1280  -30.7840 N   0  0  0  0  0  0  0  0  0  0  0  0
   -6.3390   23.4010  -29.7350 C   0  0  0  0  0  0  0  0  0  0  0  0
   -7.6140   22.6120  -30.0400 C   0  0  0  0  0  0  0  0  0  0  0  0
   -8.1470   22.8980  -31.3950 N   0  0  0  0  0  0  0  0  0  0  0  0
   -8.9410   21.7940  -31.9810 C   0  0  0  0  0  0  0  0  0  0  0  0
   -8.1580   20.5090  -32.1650 C   0  0  0  0  0  0  0  0  0  0  0  0
   -7.1160   20.4400  -33.1070 C   0  0  0  0  0  0  0  0  0  0  0  0
   -6.3860   19.2580  -33.2690 C   0  0  0  0  0  0  0  0  0  0  0  0
   -6.7000   18.1310  -32.5070 C   0  0  0  0  0  0  0  0  0  0  0  0
   -7.7540   18.1780  -31.5920 C   0  0  0  0  0  0  0  0  0  0  0  0
   -8.4870   19.3580  -31.4260 C   0  0  0  0  0  0  0  0  0  0  0  0
   -7.2340   23.5860  -32.3370 C   0  0  0  0  0  0  0  0  0  0  0  0
   -5.7710   23.1330  -32.1900 C   0  0  0  0  0  0  0  0  0  0  0  0
   -1.0495   24.2287  -29.4671 H   0  0  0  0  0  0  0  0  0  0  0  0
   -0.3302   21.8404  -29.5100 H   0  0  0  0  0  0  0  0  0  0  0  0
   -1.9569   20.0541  -30.1385 H   0  0  0  0  0  0  0  0  0  0  0  0
   -4.3067   20.6558  -30.7327 H   0  0  0  0  0  0  0  0  0  0  0  0
   -5.9363   23.0905  -28.7596 H   0  0  0  0  0  0  0  0  0  0  0  0
   -6.5635   24.4774  -29.7035 H   0  0  0  0  0  0  0  0  0  0  0  0
   -7.3899   21.5375  -29.9683 H   0  0  0  0  0  0  0  0  0  0  0  0
   -8.3781   22.9146  -29.3088 H   0  0  0  0  0  0  0  0  0  0  0  0
   -9.7933   21.5889  -31.3165 H   0  0  0  0  0  0  0  0  0  0  0  0
   -9.2576   22.1228  -32.9818 H   0  0  0  0  0  0  0  0  0  0  0  0
   -6.8737   21.3207  -33.7199 H   0  0  0  0  0  0  0  0  0  0  0  0
   -5.5632   19.2162  -33.9979 H   0  0  0  0  0  0  0  0  0  0  0  0
   -6.1171   17.2059  -32.6274 H   0  0  0  0  0  0  0  0  0  0  0  0
   -8.0083   17.2858  -31.0009 H   0  0  0  0  0  0  0  0  0  0  0  0
   -9.3250   19.3860  -30.7139 H   0  0  0  0  0  0  0  0  0  0  0  0
   -7.5654   23.3750  -33.3645 H   0  0  0  0  0  0  0  0  0  0  0  0
   -7.2716   24.6612  -32.1079 H   0  0  0  0  0  0  0  0  0  0  0  0
   -5.6677   22.1167  -32.5981 H   0  0  0  0  0  0  0  0  0  0  0  0
   -5.1316   23.8396  -32.7395 H   0  0  0  0  0  0  0  0  0  0  0  0
  1  2  1  0
  2  3  2  0
  3  4  1  0
  4  5  2  0
  5  6  1  0
  6  7  2  0
  7  8  1  0
  8  9  1  0
  9 10  1  0
 10 11  1  0
 11 12  1  0
 12 13  1  0
 13 14  2  0
 14 15  1  0
 15 16  2  0
 16 17  1  0
 17 18  2  0
 11 19  1  0
 19 20  1  0
  7  2  1  0
 20  8  1  0
 18 13  1  0
  3 21  1  0
  4 22  1  0
  5 23  1  0
  6 24  1  0
  9 25  1  0
  9 26  1  0
 10 27  1  0
 10 28  1  0
 12 29  1  0
 12 30  1  0
 14 31  1  0
 15 32  1  0
 16 33  1  0
 17 34  1  0
 18 35  1  0
 19 36  1  0
 19 37  1  0
 20 38  1  0
 20 39  1  0
M  END
>  <UniqueID>  (5) 
5

>  <SMILES>  (5) 
Fc1ccccc1N1CCN(Cc2ccccc2)CC1

>  <Energy>  (5) 
55.706320350000766

>  <Genealogy>  (5) 
Fc1ccccc1N1CCN(Cc2ccccc2)CC1 (3D coordinates assigned)
Fc1ccccc1N1CCN(Cc2ccccc2)CC1 (nonaromatic ring conformer: 55.706320350000766 kcal/mol)

>  <smiles>  (5) 
Fc1ccccc1N1CCN(Cc2ccccc2)CC1

>  <score_type>  (5) 
oracle

>  <origin>  (5) 
adgpu

>  <m_score__min__energy>  (5) 
-7.3300000000000001

>  <m_primary>  (5) 
energy

$$$$
5:0
     RDKit          3D

 39 42  0  0  0  0  0  0  0  0999 V2000
    0.4300   26.5040  -23.7700 C   0  0  0  0  0  0  0  0  0  0  0  0
   -0.7590   27.1740  -24.0680 C   0  0  0  0  0  0  0  0  0  0  0  0
   -1.5860   26.7140  -25.0980 C   0  0  0  0  0  0  0  0  0  0  0  0
   -1.2290   25.5740  -25.8430 C   0  0  0  0  0  0  0  0  0  0  0  0
   -2.1050   25.0840  -26.9370 C   0  0  0  0  0  0  0  0  0  0  0  0
   -1.6180   24.9770  -28.2510 C   0  0  0  0  0  0  0  0  0  0  0  0
   -2.4410   24.5140  -29.2810 C   0  0  0  0  0  0  0  0  0  0  0  0
   -3.7740   24.1470  -29.0220 C   0  0  0  0  0  0  0  0  0  0  0  0
   -4.6630   23.6550  -30.1020 C   0  0  0  0  0  0  0  0  0  0  0  0
   -5.6380   22.6740  -30.0010 C   0  0  0  0  0  0  0  0  0  0  0  0
   -6.1800   22.5900  -31.2720 C   0  0  0  0  0  0  0  0  0  0  0  0
   -7.2710   21.6830  -31.7090 C   0  0  0  0  0  0  0  0  0  0  0  0
   -6.9750   20.4390  -32.3020 C   0  0  0  0  0  0  0  0  0  0  0  0
   -8.0050   19.5860  -32.7120 C   0  0  0  0  0  0  0  0  0  0  0  0
   -9.3380   19.9610  -32.5350 C   0  0  0  0  0  0  0  0  0  0  0  0
   -9.6450   21.1900  -31.9470 C   0  0  0  0  0  0  0  0  0  0  0  0
   -8.6210   22.0470  -31.5350 C   0  0  0  0  0  0  0  0  0  0  0  0
   -5.5490   23.4760  -32.0670 N   0  0  0  0  0  0  0  0  0  0  0  0
   -4.6300   24.1220  -31.3670 N   0  0  0  0  0  0  0  0  0  0  0  0
   -4.2600   24.2550  -27.7070 C   0  0  0  0  0  0  0  0  0  0  0  0
   -3.4360   24.7160  -26.6780 C   0  0  0  0  0  0  0  0  0  0  0  0
   -0.0290   24.9070  -25.5330 C   0  0  0  0  0  0  0  0  0  0  0  0
    0.7940   25.3720  -24.5020 C   0  0  0  0  0  0  0  0  0  0  0  0
    1.0788   26.8678  -22.9596 H   0  0  0  0  0  0  0  0  0  0  0  0
   -1.0456   28.0657  -23.4911 H   0  0  0  0  0  0  0  0  0  0  0  0
   -2.5210   27.2462  -25.3273 H   0  0  0  0  0  0  0  0  0  0  0  0
   -0.5782   25.2607  -28.4709 H   0  0  0  0  0  0  0  0  0  0  0  0
   -2.0429   24.4358  -30.3035 H   0  0  0  0  0  0  0  0  0  0  0  0
   -5.9180   22.0926  -29.1102 H   0  0  0  0  0  0  0  0  0  0  0  0
   -5.9268   20.1369  -32.4433 H   0  0  0  0  0  0  0  0  0  0  0  0
   -7.7641   18.6176  -33.1749 H   0  0  0  0  0  0  0  0  0  0  0  0
  -10.1463   19.2887  -32.8586 H   0  0  0  0  0  0  0  0  0  0  0  0
  -10.6957   21.4842  -31.8078 H   0  0  0  0  0  0  0  0  0  0  0  0
   -8.8707   23.0128  -31.0715 H   0  0  0  0  0  0  0  0  0  0  0  0
   -5.7140   23.6390  -33.0840 H   0  0  0  0  0  0  0  0  0  0  0  0
   -5.3002   23.9734  -27.4864 H   0  0  0  0  0  0  0  0  0  0  0  0
   -3.8328   24.7917  -25.6549 H   0  0  0  0  0  0  0  0  0  0  0  0
    0.2635   24.0143  -26.1052 H   0  0  0  0  0  0  0  0  0  0  0  0
    1.7303   24.8446  -24.2673 H   0  0  0  0  0  0  0  0  0  0  0  0
  1  2  2  0
  2  3  1  0
  3  4  2  0
  4  5  1  0
  5  6  2  0
  6  7  1  0
  7  8  2  0
  8  9  1  0
  9 10  1  0
 10 11  2  0
 11 12  1  0
 12 13  2  0
 13 14  1  0
 14 15  2  0
 15 16  1  0
 16 17  2  0
 11 18  1  0
 18 19  1  0
  8 20  1  0
 20 21  2  0
  4 22  1  0
 22 23  2  0
 23  1  1  0
 21  5  1  0
 19  9  2  0
 17 12  1  0
  1 24  1  0
  2 25  1  0
  3 26  1  0
  6 27  1  0
  7 28  1  0
 10 29  1  0
 13 30  1  0
 14 31  1  0
 15 32  1  0
 16 33  1  0
 17 34  1  0
 18 35  1  0
 20 36  1  0
 21 37  1  0
 22 38  1  0
 23 39  1  0
M  END
>  <UniqueID>  (6) 
6

>  <SMILES>  (6) 
c1ccc(-c2ccc(-c3cc(-c4ccccc4)[nH]n3)cc2)cc1

>  <Energy>  (6) 
82.85210355121663

>  <Genealogy>  (6) 
c1ccc(-c2ccc(-c3cc(-c4ccccc4)[nH]n3)cc2)cc1 (3D coordinates assigned)
c1ccc(-c2ccc(-c3cc(-c4ccccc4)[nH]n3)cc2)cc1 (optimized conformer: 82.85210355121663 kcal/mol)

>  <smiles>  (6) 
c1ccc(-c2ccc(-c3cc(-c4ccccc4)[nH]n3)cc2)cc1

>  <score_type>  (6) 
oracle

>  <origin>  (6) 
adgpu

>  <m_score__min__energy>  (6) 
-9.3699999999999992

>  <m_primary>  (6) 
energy

$$$$
6:0
     RDKit          3D

 38 39  0  0  0  0  0  0  0  0999 V2000
   -5.0390   20.4380  -33.0860 C   0  0  0  0  0  0  0  0  0  0  0  0
   -6.4690   20.3830  -32.6240 C   0  0  0  0  0  0  0  0  0  0  0  0
   -7.1110   19.1370  -32.5180 C   0  0  0  0  0  0  0  0  0  0  0  0
   -8.4360   19.0560  -32.0870 C   0  0  0  0  0  0  0  0  0  0  0  0
   -9.1380   20.2170  -31.7660 C   0  0  0  0  0  0  0  0  0  0  0  0
   -8.5190   21.4620  -31.8750 C   0  0  0  0  0  0  0  0  0  0  0  0
   -7.1810   21.5650  -32.2980 C   0  0  0  0  0  0  0  0  0  0  0  0
   -6.5640   22.8570  -32.4380 N   0  0  0  0  0  0  0  0  0  0  0  0
   -5.6430   23.4020  -31.4380 C   0  0  0  0  0  0  0  0  0  0  0  0
   -6.2540   24.6230  -30.7360 C   0  0  0  0  0  0  0  0  0  0  0  0
   -5.2190   25.7130  -30.4170 C   0  0  0  0  0  0  0  0  0  0  0  0
   -3.8650   25.1630  -30.3180 N   0  0  0  0  0  0  0  0  0  0  0  0
   -3.5090   23.9850  -29.5710 C   0  0  0  0  0  0  0  0  0  0  0  0
   -2.6280   23.0130  -30.0870 C   0  0  0  0  0  0  0  0  0  0  0  0
   -2.3020   21.8830  -29.3310 C   0  0  0  0  0  0  0  0  0  0  0  0
   -2.8430   21.7110  -28.0540 C   0  0  0  0  0  0  0  0  0  0  0  0
   -2.4310   20.2930  -27.1090 Cl  0  0  0  0  0  0  0  0  0  0  0  0
   -3.7100   22.6750  -27.5300 C   0  0  0  0  0  0  0  0  0  0  0  0
   -4.0390   23.8050  -28.2840 C   0  0  0  0  0  0  0  0  0  0  0  0
   -4.3719   20.4637  -32.2117 H   0  0  0  0  0  0  0  0  0  0  0  0
   -4.8150   19.5478  -33.6921 H   0  0  0  0  0  0  0  0  0  0  0  0
   -4.8840   21.3428  -33.6921 H   0  0  0  0  0  0  0  0  0  0  0  0
   -6.5645   18.2181  -32.7769 H   0  0  0  0  0  0  0  0  0  0  0  0
   -8.9268   18.0754  -32.0005 H   0  0  0  0  0  0  0  0  0  0  0  0
  -10.1821   20.1509  -31.4261 H   0  0  0  0  0  0  0  0  0  0  0  0
   -9.0830   22.3734  -31.6276 H   0  0  0  0  0  0  0  0  0  0  0  0
   -6.5480   23.3040  -33.3820 H   0  0  0  0  0  0  0  0  0  0  0  0
   -5.4262   22.6269  -30.6882 H   0  0  0  0  0  0  0  0  0  0  0  0
   -4.7190   23.7154  -31.9460 H   0  0  0  0  0  0  0  0  0  0  0  0
   -7.0260   25.0536  -31.3906 H   0  0  0  0  0  0  0  0  0  0  0  0
   -6.6726   24.2770  -29.7794 H   0  0  0  0  0  0  0  0  0  0  0  0
   -5.2392   26.4685  -31.2163 H   0  0  0  0  0  0  0  0  0  0  0  0
   -5.4795   26.1591  -29.4458 H   0  0  0  0  0  0  0  0  0  0  0  0
   -3.1060   25.6770  -30.8210 H   0  0  0  0  0  0  0  0  0  0  0  0
   -2.1948   23.1443  -31.0896 H   0  0  0  0  0  0  0  0  0  0  0  0
   -1.6174   21.1268  -29.7427 H   0  0  0  0  0  0  0  0  0  0  0  0
   -4.1335   22.5438  -26.5233 H   0  0  0  0  0  0  0  0  0  0  0  0
   -4.7198   24.5604  -27.8647 H   0  0  0  0  0  0  0  0  0  0  0  0
  1  2  1  0
  2  3  2  0
  3  4  1  0
  4  5  2  0
  5  6  1  0
  6  7  2  0
  7  8  1  0
  8  9  1  0
  9 10  1  0
 10 11  1  0
 11 12  1  0
 12 13  1  0
 13 14  2  0
 14 15  1  0
 15 16  2  0
 16 17  1  0
 16 18  1  0
 18 19  2  0
  7  2  1  0
 19 13  1  0
  1 20  1  0
  1 21  1  0
  1 22  1  0
  3 23  1  0
  4 24  1  0
  5 25  1  0
  6 26  1  0
  8 27  1  0
  9 28  1  0
  9 29  1  0
 10 30  1  0
 10 31  1  0
 11 32  1  0
 11 33  1  0
 12 34  1  0
 14 35  1  0
 15 36  1  0
 18 37  1  0
 19 38  1  0
M  END
>  <UniqueID>  (7) 
7

>  <SMILES>  (7) 
Cc1ccccc1NCCCNc1ccc(Cl)cc1

>  <Energy>  (7) 
36.75297526642626

>  <Genealogy>  (7) 
Cc1ccccc1NCCCNc1ccc(Cl)cc1 (3D coordinates assigned)
Cc1ccccc1NCCCNc1ccc(Cl)cc1 (optimized conformer: 36.75297526642626 kcal/mol)

>  <smiles>  (7) 
Cc1ccccc1NCCCNc1ccc(Cl)cc1

>  <score_type>  (7) 
oracle

>  <origin>  (7) 
adgpu

>  <m_score__min__energy>  (7) 
-8.0099999999999998

>  <m_primary>  (7) 
energy

$$$$
7:0
     RDKit          3D

 28 29  0  0  0  0  0  0  0  0999 V2000
   -4.8490   15.7520  -34.2320 C   0  0  0  0  0  0  0  0  0  0  0  0
   -5.5410   16.9910  -33.7450 C   0  0  0  0  0  0  0  0  0  0  0  0
   -6.1120   17.0240  -32.4640 C   0  0  0  0  0  0  0  0  0  0  0  0
   -6.7250   18.1900  -31.9960 C   0  0  0  0  0  0  0  0  0  0  0  0
   -6.7630   19.3420  -32.7980 C   0  0  0  0  0  0  0  0  0  0  0  0
   -7.3940   20.5440  -32.3160 N   0  0  0  0  0  0  0  0  0  0  0  0
   -6.6200   21.7490  -32.1460 C   0  0  0  0  0  0  0  0  0  0  0  0
   -5.3950   21.7700  -32.4440 O   0  0  0  0  0  0  0  0  0  0  0  0
   -7.2550   22.9880  -31.5860 C   0  0  0  0  0  0  0  0  0  0  0  0
   -8.7340   23.0540  -31.9720 C   0  0  0  0  0  0  0  0  0  0  0  0
   -9.4750   21.7980  -31.5090 C   0  0  0  0  0  0  0  0  0  0  0  0
   -8.8070   20.5540  -32.0230 C   0  0  0  0  0  0  0  0  0  0  0  0
   -9.4880   19.4980  -32.1280 O   0  0  0  0  0  0  0  0  0  0  0  0
   -6.1770   19.3120  -34.0720 C   0  0  0  0  0  0  0  0  0  0  0  0
   -5.5640   18.1460  -34.5410 C   0  0  0  0  0  0  0  0  0  0  0  0
   -4.5157   15.1553  -33.3701 H   0  0  0  0  0  0  0  0  0  0  0  0
   -5.5461   15.1582  -34.8415 H   0  0  0  0  0  0  0  0  0  0  0  0
   -3.9778   16.0341  -34.8415 H   0  0  0  0  0  0  0  0  0  0  0  0
   -6.0773   16.1290  -31.8254 H   0  0  0  0  0  0  0  0  0  0  0  0
   -7.1798   18.2051  -30.9945 H   0  0  0  0  0  0  0  0  0  0  0  0
   -7.1673   22.9757  -30.4896 H   0  0  0  0  0  0  0  0  0  0  0  0
   -6.7404   23.8686  -31.9980 H   0  0  0  0  0  0  0  0  0  0  0  0
   -9.1906   23.9363  -31.4997 H   0  0  0  0  0  0  0  0  0  0  0  0
   -8.8089   23.1229  -33.0673 H   0  0  0  0  0  0  0  0  0  0  0  0
   -9.4851   21.7719  -30.4094 H   0  0  0  0  0  0  0  0  0  0  0  0
  -10.5007   21.8322  -31.9049 H   0  0  0  0  0  0  0  0  0  0  0  0
   -6.1998   20.2108  -34.7058 H   0  0  0  0  0  0  0  0  0  0  0  0
   -5.0982   18.1343  -35.5375 H   0  0  0  0  0  0  0  0  0  0  0  0
  1  2  1  0
  2  3  2  0
  3  4  1  0
  4  5  2  0
  5  6  1  0
  6  7  1  0
  7  8  2  0
  7  9  1  0
  9 10  1  0
 10 11  1  0
 11 12  1  0
 12 13  2  0
  5 14  1  0
 14 15  2  0
 15  2  1  0
 12  6  1  0
  1 16  1  0
  1 17  1  0
  1 18  1  0
  3 19  1  0
  4 20  1  0
  9 21  1  0
  9 22  1  0
 10 23  1  0
 10 24  1  0
 11 25  1  0
 11 26  1  0
 14 27  1  0
 15 28  1  0
M  END
>  <UniqueID>  (8) 
8

>  <SMILES>  (8) 
Cc1ccc(N2C(=O)CCCC2=O)cc1

>  <Energy>  (8) 
30.575993551779245

>  <Genealogy>  (8) 
Cc1ccc(N2C(=O)CCCC2=O)cc1 (3D coordinates assigned)
Cc1ccc(N2C(=O)CCCC2=O)cc1 (nonaromatic ring conformer: 30.575993551779245 kcal/mol)

>  <smiles>  (8) 
Cc1ccc(N2C(=O)CCCC2=O)cc1

>  <score_type>  (8) 
oracle

>  <origin>  (8) 
adgpu

>  <m_score__min__energy>  (8) 
-6.4699999999999998

>  <m_primary>  (8) 
energy

$$$$
8:0
     RDKit          3D

 36 37  0  0  0  0  0  0  0  0999 V2000
   -3.0780   22.1590  -31.5170 C   0  0  0  0  0  0  0  0  0  0  0  0
   -4.5000   22.2980  -32.0780 C   0  0  1  0  0  0  0  0  0  0  0  0
   -5.0890   20.9260  -32.3370 C   0  0  0  0  0  0  0  0  0  0  0  0
   -5.9060   20.7050  -33.4600 C   0  0  0  0  0  0  0  0  0  0  0  0
   -6.4590   19.4430  -33.6940 C   0  0  0  0  0  0  0  0  0  0  0  0
   -6.2020   18.3900  -32.8130 C   0  0  0  0  0  0  0  0  0  0  0  0
   -5.3890   18.5980  -31.6960 C   0  0  0  0  0  0  0  0  0  0  0  0
   -4.8330   19.8570  -31.4580 C   0  0  0  0  0  0  0  0  0  0  0  0
   -5.4150   23.0910  -31.2260 N   0  0  0  0  0  0  0  0  0  0  0  0
   -6.8200   22.8130  -31.3100 C   0  0  0  0  0  0  0  0  0  0  0  0
   -7.3990   21.8500  -30.4720 C   0  0  0  0  0  0  0  0  0  0  0  0
   -8.7640   21.5650  -30.5670 C   0  0  0  0  0  0  0  0  0  0  0  0
   -9.5570   22.2380  -31.5010 C   0  0  0  0  0  0  0  0  0  0  0  0
   -8.9820   23.1960  -32.3430 C   0  0  0  0  0  0  0  0  0  0  0  0
   -7.6170   23.4820  -32.2510 C   0  0  0  0  0  0  0  0  0  0  0  0
   -4.8860   24.3580  -30.1430 S   0  0  0  0  0  0  0  0  0  0  0  0
   -6.2530   25.3820  -29.6330 C   0  0  0  0  0  0  0  0  0  0  0  0
   -4.2640   23.7560  -28.9150 O   0  0  0  0  0  0  0  0  0  0  0  0
   -3.8880   25.2400  -30.8380 O   0  0  0  0  0  0  0  0  0  0  0  0
   -3.1156   22.1627  -30.4176 H   0  0  0  0  0  0  0  0  0  0  0  0
   -2.6371   21.2135  -31.8657 H   0  0  0  0  0  0  0  0  0  0  0  0
   -2.4623   23.0012  -31.8657 H   0  0  0  0  0  0  0  0  0  0  0  0
   -4.4019   22.8602  -33.0184 H   0  0  0  0  0  0  0  0  0  0  0  0
   -6.1110   21.5300  -34.1581 H   0  0  0  0  0  0  0  0  0  0  0  0
   -7.0981   19.2786  -34.5740 H   0  0  0  0  0  0  0  0  0  0  0  0
   -6.6393   17.3979  -32.9985 H   0  0  0  0  0  0  0  0  0  0  0  0
   -5.1864   17.7685  -31.0025 H   0  0  0  0  0  0  0  0  0  0  0  0
   -4.1913   20.0140  -30.5785 H   0  0  0  0  0  0  0  0  0  0  0  0
   -6.7773   21.3171  -29.7375 H   0  0  0  0  0  0  0  0  0  0  0  0
   -9.2149   20.8102  -29.9060 H   0  0  0  0  0  0  0  0  0  0  0  0
  -10.6316   22.0147  -31.5738 H   0  0  0  0  0  0  0  0  0  0  0  0
   -9.6054   23.7251  -33.0788 H   0  0  0  0  0  0  0  0  0  0  0  0
   -7.1670   24.2327  -32.9173 H   0  0  0  0  0  0  0  0  0  0  0  0
   -6.2967   25.4147  -28.5344 H   0  0  0  0  0  0  0  0  0  0  0  0
   -6.1145   26.4004  -30.0250 H   0  0  0  0  0  0  0  0  0  0  0  0
   -7.1914   24.9628  -30.0250 H   0  0  0  0  0  0  0  0  0  0  0  0
  1  2  1  0
  2  3  1  0
  3  4  2  0
  4  5  1  0
  5  6  2  0
  6  7  1  0
  7  8  2  0
  2  9  1  0
  9 10  1  0
 10 11  2  0
 11 12  1  0
 12 13  2  0
 13 14  1  0
 14 15  2  0
  9 16  1  0
 16 17  1  0
 16 18  2  0
 16 19  2  0
  8  3  1  0
 15 10  1  0
  1 20  1  0
  1 21  1  0
  1 22  1  0
  2 23  1  6
  4 24  1  0
  5 25  1  0
  6 26  1  0
  7 27  1  0
  8 28  1  0
 11 29  1  0
 12 30  1  0
 13 31  1  0
 14 32  1  0
 15 33  1  0
 17 34  1  0
 17 35  1  0
 17 36  1  0
M  END
>  <UniqueID>  (9) 
9

>  <SMILES>  (9) 
C[C@@H](c1ccccc1)N(c1ccccc1)S(C)(=O)=O

>  <Energy>  (9) 
39.730601223413004

>  <Genealogy>  (9) 
C[C@@H](c1ccccc1)N(c1ccccc1)S(C)(=O)=O (chirality)
C[C@@H](c1ccccc1)N(c1ccccc1)S(C)(=O)=O (3D coordinates assigned)
C[C@@H](c1ccccc1)N(c1ccccc1)S(C)(=O)=O (optimized conformer: 39.730601223413004 kcal/mol)

>  <smiles>  (9) 
CC(c1ccccc1)N(c1ccccc1)S(C)(=O)=O

>  <score_type>  (9) 
oracle

>  <origin>  (9) 
adgpu

>  <m_score__min__energy>  (9) 
-7.5700000000000003

>  <m_primary>  (9) 
energy

$$$$
9:0
     RDKit          3D

 18 18  0  0  0  0  0  0  0  0999 V2000
   -2.7990   23.7220  -28.3060 C   0  0  0  0  0  0  0  0  0  0  0  0
   -2.5940   24.9170  -29.1870 C   0  0  0  0  0  0  0  0  0  0  0  0
   -1.6110   25.6720  -28.9700 O   0  0  0  0  0  0  0  0  0  0  0  0
   -3.5070   25.2520  -30.2410 N   0  0  0  0  0  0  0  0  0  0  0  0
   -4.7240   24.5690  -30.5690 C   0  0  0  0  0  0  0  0  0  0  0  0
   -4.6530   23.3530  -31.2620 C   0  0  0  0  0  0  0  0  0  0  0  0
   -5.8190   22.6480  -31.5740 C   0  0  0  0  0  0  0  0  0  0  0  0
   -7.0660   23.1430  -31.1770 C   0  0  0  0  0  0  0  0  0  0  0  0
   -8.5280   22.2540  -31.5660 Cl  0  0  0  0  0  0  0  0  0  0  0  0
   -7.1430   24.3410  -30.4600 C   0  0  0  0  0  0  0  0  0  0  0  0
   -5.9780   25.0480  -30.1470 C   0  0  0  0  0  0  0  0  0  0  0  0
   -2.7461   24.0305  -27.2515 H   0  0  0  0  0  0  0  0  0  0  0  0
   -3.7859   23.2811  -28.5100 H   0  0  0  0  0  0  0  0  0  0  0  0
   -2.0155   22.9774  -28.5100 H   0  0  0  0  0  0  0  0  0  0  0  0
   -3.6741   22.9510  -31.5622 H   0  0  0  0  0  0  0  0  0  0  0  0
   -5.7561   21.7025  -32.1326 H   0  0  0  0  0  0  0  0  0  0  0  0
   -8.1222   24.7280  -30.1415 H   0  0  0  0  0  0  0  0  0  0  0  0
   -6.0420   25.9817  -29.5690 H   0  0  0  0  0  0  0  0  0  0  0  0
  1  2  1  0
  2  3  2  0
  2  4  1  0
  4  5  1  0
  5  6  2  0
  6  7  1  0
  7  8  2  0
  8  9  1  0
  8 10  1  0
 10 11  2  0
 11  5  1  0
  1 12  1  0
  1 13  1  0
  1 14  1  0
  6 15  1  0
  7 16  1  0
 10 17  1  0
 11 18  1  0
M  CHG  1   4  -1
M  END
>  <UniqueID>  (10) 
10

>  <SMILES>  (10) 
CC(=O)[N-]c1ccc(Cl)cc1

>  <Energy>  (10) 
19.599406405831623

>  <Genealogy>  (10) 
CC(=O)[N-]c1ccc(Cl)cc1 (protonated)
CC(=O)[N-]c1ccc(Cl)cc1 (3D coordinates assigned)
CC(=O)[N-]c1ccc(Cl)cc1 (optimized conformer: 19.599406405831623 kcal/mol)

>  <smiles>  (10) 
CC(=O)Nc1ccc(Cl)cc1

>  <score_type>  (10) 
oracle

>  <origin>  (10) 
adgpu

>  <m_score__min__energy>  (10) 
-7.2999999999999998

>  <m_primary>  (10) 
energy

$$$$
10:0
     RDKit          3D

 22 23  0  0  0  0  0  0  0  0999 V2000
   -9.4873   22.4522  -30.9633 H   0  0  0  0  0  0  0  0  0  0  0  0
   -8.4650   22.3060  -31.3420 C   0  0  0  0  0  0  0  0  0  0  0  0
   -8.1270   21.1190  -32.0000 C   0  0  0  0  0  0  0  0  0  0  0  0
   -8.8806   20.3285  -32.1312 H   0  0  0  0  0  0  0  0  0  0  0  0
   -6.8300   20.9380  -32.4910 C   0  0  0  0  0  0  0  0  0  0  0  0
   -6.5100   19.7980  -33.1510 F   0  0  0  0  0  0  0  0  0  0  0  0
   -5.8680   21.9380  -32.3150 C   0  0  0  0  0  0  0  0  0  0  0  0
   -4.8539   21.8006  -32.7184 H   0  0  0  0  0  0  0  0  0  0  0  0
   -6.1940   23.1200  -31.6230 C   0  0  0  0  0  0  0  0  0  0  0  0
   -5.2430   24.1850  -31.4660 N   0  0  0  0  0  0  0  0  0  0  0  0
   -4.4020   24.3330  -30.4840 C   0  0  0  0  0  0  0  0  0  0  0  0
   -3.5180   25.2990  -30.4400 O   0  0  0  0  0  0  0  0  0  0  0  0
   -2.8210   25.2390  -29.3430 N   0  0  0  0  0  0  0  0  0  0  0  0
   -3.2750   24.1750  -28.6490 C   0  0  0  0  0  0  0  0  0  0  0  0
   -2.7940   23.8020  -27.2880 C   0  0  0  0  0  0  0  0  0  0  0  0
   -3.4238   24.2904  -26.5299 H   0  0  0  0  0  0  0  0  0  0  0  0
   -2.8520   22.7104  -27.1650 H   0  0  0  0  0  0  0  0  0  0  0  0
   -1.7513   24.1299  -27.1650 H   0  0  0  0  0  0  0  0  0  0  0  0
   -4.3060   23.5680  -29.3350 C   0  0  0  0  0  0  0  0  0  0  0  0
   -4.9039   22.6926  -29.0415 H   0  0  0  0  0  0  0  0  0  0  0  0
   -7.5050   23.3070  -31.1650 C   0  0  0  0  0  0  0  0  0  0  0  0
   -7.7804   24.2465  -30.6635 H   0  0  0  0  0  0  0  0  0  0  0  0
  1  2  1  0
  2  3  2  0
  3  4  1  0
  3  5  1  0
  5  6  1  0
  5  7  2  0
  7  8  1  0
  7  9  1  0
  9 10  1  0
 10 11  2  0
 11 12  1  0
 12 13  1  0
 13 14  1  0
 14 15  1  0
 15 16  1  0
 15 17  1  0
 15 18  1  0
 14 19  2  0
 19 20  1  0
  9 21  2  0
 21 22  1  0
 21  2  1  0
 19 11  1  0
M  CHG  1  13  -1
M  END
>  <UniqueID>  (11) 
11

>  <SMILES>  (11) 
Cc1c/c(=N\c2cccc(F)c2)o[n-]1

>  <Energy>  (11) 
59.63204078749992

>  <Genealogy>  (11) 
Cc1cc(=Nc2cccc(F)c2)o[n-]1 (protonated)
Cc1c/c(=N\c2cccc(F)c2)o[n-]1 (cis-trans isomerization)
Cc1c/c(=N\c2cccc(F)c2)o[n-]1 (3D coordinates assigned)
Cc1c/c(=N\c2cccc(F)c2)o[n-]1 (optimized conformer: 59.63204078749992 kcal/mol)

>  <smiles>  (11) 
Cc1cc(=Nc2cccc(F)c2)o[nH]1

>  <score_type>  (11) 
oracle

>  <origin>  (11) 
adgpu

>  <m_score__min__energy>  (11) 
-9.0099999999999998

>  <m_primary>  (11) 
energy

$$$$
11:0
     RDKit          3D

 31 33  0  0  0  0  0  0  0  0999 V2000
   -8.5260   19.3670  -31.6270 C   0  0  0  0  0  0  0  0  0  0  0  0
   -9.3640   20.3920  -32.3850 C   0  0  0  0  0  0  0  0  0  0  0  0
   -8.7370   21.6750  -32.3640 O   0  0  0  0  0  0  0  0  0  0  0  0
   -7.5550   21.9950  -31.6770 C   0  0  0  0  0  0  0  0  0  0  0  0
   -6.2740   21.6840  -32.1730 C   0  0  0  0  0  0  0  0  0  0  0  0
   -5.1320   22.0290  -31.4440 C   0  0  0  0  0  0  0  0  0  0  0  0
   -5.2470   22.6860  -30.2100 C   0  0  0  0  0  0  0  0  0  0  0  0
   -4.0670   23.0490  -29.4640 N   0  0  0  0  0  0  0  0  0  0  0  0
   -3.5660   22.1560  -28.5380 C   0  0  0  0  0  0  0  0  0  0  0  0
   -2.4140   22.4580  -27.7900 C   0  0  0  0  0  0  0  0  0  0  0  0
   -1.8120   23.6860  -28.0240 C   0  0  0  0  0  0  0  0  0  0  0  0
   -0.7190   24.1930  -27.4370 N   0  0  0  0  0  0  0  0  0  0  0  0
   -0.5980   25.4060  -28.0390 C   0  0  0  0  0  0  0  0  0  0  0  0
   -1.5580   25.6730  -28.9630 N   0  0  0  0  0  0  0  0  0  0  0  0
   -2.3090   24.5620  -28.9290 C   0  0  0  0  0  0  0  0  0  0  0  0
   -3.4500   24.2660  -29.6670 C   0  0  0  0  0  0  0  0  0  0  0  0
   -3.9100   25.1060  -30.4890 O   0  0  0  0  0  0  0  0  0  0  0  0
   -6.5240   23.0050  -29.7200 C   0  0  0  0  0  0  0  0  0  0  0  0
   -7.6660   22.6600  -30.4500 C   0  0  0  0  0  0  0  0  0  0  0  0
   -8.6507   19.5196  -30.5448 H   0  0  0  0  0  0  0  0  0  0  0  0
   -8.8569   18.3527  -31.8948 H   0  0  0  0  0  0  0  0  0  0  0  0
   -7.4662   19.4897  -31.8948 H   0  0  0  0  0  0  0  0  0  0  0  0
   -9.4784   20.0635  -33.4286 H   0  0  0  0  0  0  0  0  0  0  0  0
  -10.3475   20.4722  -31.8989 H   0  0  0  0  0  0  0  0  0  0  0  0
   -6.1716   21.1672  -33.1386 H   0  0  0  0  0  0  0  0  0  0  0  0
   -4.1360   21.7834  -31.8410 H   0  0  0  0  0  0  0  0  0  0  0  0
   -4.0756   21.1936  -28.3829 H   0  0  0  0  0  0  0  0  0  0  0  0
   -2.0078   21.7513  -27.0514 H   0  0  0  0  0  0  0  0  0  0  0  0
    0.2099   26.1126  -27.7981 H   0  0  0  0  0  0  0  0  0  0  0  0
   -6.6264   23.5284  -28.7580 H   0  0  0  0  0  0  0  0  0  0  0  0
   -8.6613   22.9137  -30.0562 H   0  0  0  0  0  0  0  0  0  0  0  0
  1  2  1  0
  2  3  1  0
  3  4  1  0
  4  5  2  0
  5  6  1  0
  6  7  2  0
  7  8  1  0
  8  9  1  0
  9 10  2  0
 10 11  1  0
 11 12  1  0
 12 13  2  0
 13 14  1  0
 14 15  1  0
 15 16  1  0
 16 17  2  0
  7 18  1  0
 18 19  2  0
 19  4  1  0
 16  8  1  0
 15 11  2  0
  1 20  1  0
  1 21  1  0
  1 22  1  0
  2 23  1  0
  2 24  1  0
  5 25  1  0
  6 26  1  0
  9 27  1  0
 10 28  1  0
 13 29  1  0
 18 30  1  0
 19 31  1  0
M  CHG  1  14  -1
M  END
>  <UniqueID>  (12) 
12

>  <SMILES>  (12) 
CCOc1ccc(-n2ccc3nc[n-]c3c2=O)cc1

>  <Energy>  (12) 
75.86086405260198

>  <Genealogy>  (12) 
CCOc1ccc(-n2ccc3nc[n-]c3c2=O)cc1 (protonated)
CCOc1ccc(-n2ccc3nc[n-]c3c2=O)cc1 (3D coordinates assigned)
CCOc1ccc(-n2ccc3nc[n-]c3c2=O)cc1 (optimized conformer: 75.86086405260198 kcal/mol)

>  <smiles>  (12) 
CCOc1ccc(-n2ccc3nc[nH]c3c2=O)cc1

>  <score_type>  (12) 
oracle

>  <origin>  (12) 
adgpu

>  <m_score__min__energy>  (12) 
-7.75

>  <m_primary>  (12) 
energy

$$$$
12:0
     RDKit          3D

 24 24  0  0  0  0  0  0  0  0999 V2000
   -3.9500   24.2130  -27.1570 C   0  0  0  0  0  0  0  0  0  0  0  0
   -3.0480   23.7250  -28.2850 C   0  0  0  0  0  0  0  0  0  0  0  0
   -2.7430   24.8420  -29.2330 C   0  0  0  0  0  0  0  0  0  0  0  0
   -1.8270   25.6620  -28.9570 O   0  0  0  0  0  0  0  0  0  0  0  0
   -3.4900   24.9560  -30.4510 N   0  0  0  0  0  0  0  0  0  0  0  0
   -4.7600   24.3500  -30.7340 C   0  0  0  0  0  0  0  0  0  0  0  0
   -5.9580   24.8310  -30.1770 C   0  0  0  0  0  0  0  0  0  0  0  0
   -7.1710   24.1980  -30.4600 C   0  0  0  0  0  0  0  0  0  0  0  0
   -7.2020   23.0610  -31.2820 C   0  0  0  0  0  0  0  0  0  0  0  0
   -8.5100   22.4050  -31.6180 C   0  0  0  0  0  0  0  0  0  0  0  0
   -6.0070   22.5780  -31.8340 C   0  0  0  0  0  0  0  0  0  0  0  0
   -4.7930   23.2110  -31.5480 C   0  0  0  0  0  0  0  0  0  0  0  0
   -3.4920   23.9652  -26.1880 H   0  0  0  0  0  0  0  0  0  0  0  0
   -4.0770   25.3029  -27.2345 H   0  0  0  0  0  0  0  0  0  0  0  0
   -4.9318   23.7230  -27.2345 H   0  0  0  0  0  0  0  0  0  0  0  0
   -2.1078   23.3456  -27.8582 H   0  0  0  0  0  0  0  0  0  0  0  0
   -3.5659   22.9244  -28.8335 H   0  0  0  0  0  0  0  0  0  0  0  0
   -5.9402   25.7096  -29.5154 H   0  0  0  0  0  0  0  0  0  0  0  0
   -8.1063   24.5928  -30.0364 H   0  0  0  0  0  0  0  0  0  0  0  0
   -9.0369   22.1407  -30.6893 H   0  0  0  0  0  0  0  0  0  0  0  0
   -9.1284   23.0996  -32.2055 H   0  0  0  0  0  0  0  0  0  0  0  0
   -8.3231   21.4940  -32.2055 H   0  0  0  0  0  0  0  0  0  0  0  0
   -6.0243   21.6983  -32.4942 H   0  0  0  0  0  0  0  0  0  0  0  0
   -3.8572   22.8112  -31.9656 H   0  0  0  0  0  0  0  0  0  0  0  0
  1  2  1  0
  2  3  1  0
  3  4  2  0
  3  5  1  0
  5  6  1  0
  6  7  2  0
  7  8  1  0
  8  9  2  0
  9 10  1  0
  9 11  1  0
 11 12  2  0
 12  6  1  0
  1 13  1  0
  1 14  1  0
  1 15  1  0
  2 16  1  0
  2 17  1  0
  7 18  1  0
  8 19  1  0
 10 20  1  0
 10 21  1  0
 10 22  1  0
 11 23  1  0
 12 24  1  0
M  CHG  1   5  -1
M  END
>  <UniqueID>  (13) 
13

>  <SMILES>  (13) 
CCC(=O)[N-]c1ccc(C)cc1

>  <Energy>  (13) 
20.525090959903228

>  <Genealogy>  (13) 
CCC(=O)[N-]c1ccc(C)cc1 (protonated)
CCC(=O)[N-]c1ccc(C)cc1 (3D coordinates assigned)
CCC(=O)[N-]c1ccc(C)cc1 (optimized conformer: 20.525090959903228 kcal/mol)

>  <smiles>  (13) 
CCC(=O)Nc1ccc(C)cc1

>  <score_type>  (13) 
oracle

>  <origin>  (13) 
adgpu

>  <m_score__min__energy>  (13) 
-7.3499999999999996

>  <m_primary>  (13) 
energy

$$$$
13:0
     RDKit          3D

 33 35  0  0  0  0  0  0  0  0999 V2000
   -5.0170   26.8730  -30.0870 H   0  0  0  0  0  0  0  0  0  0  0  0
   -5.2940   26.0120  -30.6100 N   0  0  0  0  0  0  0  0  0  0  0  0
   -4.5940   24.9230  -30.5460 C   0  0  0  0  0  0  0  0  0  0  0  0
   -3.4710   24.8930  -29.7800 N   0  0  0  0  0  0  0  0  0  0  0  0
   -2.6990   23.7810  -29.6560 C   0  0  0  0  0  0  0  0  0  0  0  0
   -1.4830   23.8340  -28.8120 C   0  0  0  0  0  0  0  0  0  0  0  0
   -0.9010   22.6290  -28.3770 C   0  0  0  0  0  0  0  0  0  0  0  0
   -1.3497   21.6689  -28.6717 H   0  0  0  0  0  0  0  0  0  0  0  0
    0.2420   22.6420  -27.5740 C   0  0  0  0  0  0  0  0  0  0  0  0
    0.6849   21.6944  -27.2335 H   0  0  0  0  0  0  0  0  0  0  0  0
    0.8230   23.8560  -27.2030 C   0  0  0  0  0  0  0  0  0  0  0  0
    1.7186   23.8644  -26.5644 H   0  0  0  0  0  0  0  0  0  0  0  0
    0.2680   25.0590  -27.6420 C   0  0  0  0  0  0  0  0  0  0  0  0
    0.7302   26.0134  -27.3496 H   0  0  0  0  0  0  0  0  0  0  0  0
   -0.8760   25.0580  -28.4540 C   0  0  0  0  0  0  0  0  0  0  0  0
   -1.3900   26.2680  -28.9230 O   0  0  0  0  0  0  0  0  0  0  0  0
   -2.3860   26.4410  -28.9680 H   0  0  0  0  0  0  0  0  0  0  0  0
   -3.0470   22.6220  -30.3650 C   0  0  0  0  0  0  0  0  0  0  0  0
   -2.4194   21.7219  -30.2880 H   0  0  0  0  0  0  0  0  0  0  0  0
   -4.1940   22.6090  -31.1720 C   0  0  0  0  0  0  0  0  0  0  0  0
   -4.5290   21.3680  -31.9150 C   0  0  0  0  0  0  0  0  0  0  0  0
   -3.6970   20.9130  -32.9510 C   0  0  0  0  0  0  0  0  0  0  0  0
   -2.7843   21.4714  -33.2062 H   0  0  0  0  0  0  0  0  0  0  0  0
   -4.0160   19.7840  -33.6400 N   0  0  0  0  0  0  0  0  0  0  0  0
   -5.1370   19.0690  -33.3590 C   0  0  0  0  0  0  0  0  0  0  0  0
   -5.3649   18.1575  -33.9310 H   0  0  0  0  0  0  0  0  0  0  0  0
   -6.0000   19.4900  -32.3450 C   0  0  0  0  0  0  0  0  0  0  0  0
   -6.9106   18.9168  -32.1165 H   0  0  0  0  0  0  0  0  0  0  0  0
   -5.6950   20.6450  -31.6250 C   0  0  0  0  0  0  0  0  0  0  0  0
   -6.3705   20.9894  -30.8281 H   0  0  0  0  0  0  0  0  0  0  0  0
   -4.9900   23.7740  -31.2580 C   0  0  0  0  0  0  0  0  0  0  0  0
   -6.2170   23.7850  -32.0260 C   0  0  0  0  0  0  0  0  0  0  0  0
   -7.1980   23.7920  -32.6390 N   0  0  0  0  0  0  0  0  0  0  0  0
  1  2  1  0
  2  3  2  0
  3  4  1  0
  4  5  1  0
  5  6  1  0
  6  7  2  0
  7  8  1  0
  7  9  1  0
  9 10  1  0
  9 11  2  0
 11 12  1  0
 11 13  1  0
 13 14  1  0
 13 15  2  0
 15 16  1  0
 16 17  1  0
  5 18  2  0
 18 19  1  0
 18 20  1  0
 20 21  1  0
 21 22  2  0
 22 23  1  0
 22 24  1  0
 24 25  2  0
 25 26  1  0
 25 27  1  0
 27 28  1  0
 27 29  2  0
 29 30  1  0
 20 31  2  0
 31 32  1  0
 32 33  3  0
 31  3  1  0
 15  6  1  0
 29 21  1  0
M  CHG  1   4  -1
M  END
>  <UniqueID>  (14) 
14

>  <SMILES>  (14) 
[H]/N=c1\[n-]c(-c2ccccc2O)cc(-c2cccnc2)c1C#N

>  <Energy>  (14) 
50.85796887364695

>  <Genealogy>  (14) 
N#Cc1c(-c2cccnc2)cc(-c2ccccc2O)[n-]c1=N (protonated)
[H]/N=c1\[n-]c(-c2ccccc2O)cc(-c2cccnc2)c1C#N (cis-trans isomerization)
[H]/N=c1\[n-]c(-c2ccccc2O)cc(-c2cccnc2)c1C#N (3D coordinates assigned)
[H]/N=c1\[n-]c(-c2ccccc2O)cc(-c2cccnc2)c1C#N (optimized conformer: 50.85796887364695 kcal/mol)

>  <smiles>  (14) 
N#Cc1c(-c2cccnc2)cc(-c2ccccc2O)[nH]c1=N

>  <score_type>  (14) 
oracle

>  <origin>  (14) 
adgpu

>  <m_score__min__energy>  (14) 
-9.9600000000000009

>  <m_primary>  (14) 
energy

$$$$
14:0
     RDKit          3D

 29 30  0  0  0  0  0  0  0  0999 V2000
   -6.4250   21.4250  -32.5570 C   0  0  0  0  0  0  0  0  0  0  0  0
   -6.2620   22.6880  -31.7630 C   0  0  0  0  0  0  0  0  0  0  0  0
   -7.3730   23.2900  -31.1550 C   0  0  0  0  0  0  0  0  0  0  0  0
   -7.2130   24.4460  -30.3880 C   0  0  0  0  0  0  0  0  0  0  0  0
   -5.9410   24.9940  -30.2010 C   0  0  0  0  0  0  0  0  0  0  0  0
   -4.8180   24.3780  -30.7650 C   0  0  0  0  0  0  0  0  0  0  0  0
   -3.5230   24.9510  -30.5290 N   0  0  0  0  0  0  0  0  0  0  0  0
   -2.7030   24.7350  -29.3710 C   0  0  0  0  0  0  0  0  0  0  0  0
   -2.8690   23.6880  -28.6940 O   0  0  0  0  0  0  0  0  0  0  0  0
   -1.7020   25.6770  -28.9600 N   0  0  0  0  0  0  0  0  0  0  0  0
   -1.2930   25.9360  -27.6100 C   0  0  0  0  0  0  0  0  0  0  0  0
    0.0020   26.3940  -27.3060 C   0  0  0  0  0  0  0  0  0  0  0  0
    0.3630   26.6490  -25.9790 C   0  0  0  0  0  0  0  0  0  0  0  0
   -0.5560   26.4330  -24.9480 C   0  0  0  0  0  0  0  0  0  0  0  0
   -0.2040   26.6830  -23.6630 F   0  0  0  0  0  0  0  0  0  0  0  0
   -1.8360   25.9540  -25.2430 C   0  0  0  0  0  0  0  0  0  0  0  0
   -2.2000   25.6980  -26.5680 C   0  0  0  0  0  0  0  0  0  0  0  0
   -4.9860   23.2350  -31.5660 C   0  0  0  0  0  0  0  0  0  0  0  0
   -6.5351   20.5722  -31.8709 H   0  0  0  0  0  0  0  0  0  0  0  0
   -7.3205   21.5035  -33.1910 H   0  0  0  0  0  0  0  0  0  0  0  0
   -5.5390   21.2735  -33.1910 H   0  0  0  0  0  0  0  0  0  0  0  0
   -8.3733   22.8505  -31.2826 H   0  0  0  0  0  0  0  0  0  0  0  0
   -8.0902   24.9264  -29.9300 H   0  0  0  0  0  0  0  0  0  0  0  0
   -5.8220   25.9130  -29.6083 H   0  0  0  0  0  0  0  0  0  0  0  0
    0.7321   26.5519  -28.1135 H   0  0  0  0  0  0  0  0  0  0  0  0
    1.3720   27.0202  -25.7462 H   0  0  0  0  0  0  0  0  0  0  0  0
   -2.5574   25.7784  -24.4314 H   0  0  0  0  0  0  0  0  0  0  0  0
   -3.2033   25.3078  -26.7942 H   0  0  0  0  0  0  0  0  0  0  0  0
   -4.1112   22.7669  -32.0411 H   0  0  0  0  0  0  0  0  0  0  0  0
  1  2  1  0
  2  3  2  0
  3  4  1  0
  4  5  2  0
  5  6  1  0
  6  7  1  0
  7  8  1  0
  8  9  2  0
  8 10  1  0
 10 11  1  0
 11 12  2  0
 12 13  1  0
 13 14  2  0
 14 15  1  0
 14 16  1  0
 16 17  2  0
  6 18  2  0
 18  2  1  0
 17 11  1  0
  1 19  1  0
  1 20  1  0
  1 21  1  0
  3 22  1  0
  4 23  1  0
  5 24  1  0
 12 25  1  0
 13 26  1  0
 16 27  1  0
 17 28  1  0
 18 29  1  0
M  CHG  2   7  -1  10  -1
M  END
>  <UniqueID>  (15) 
15

>  <SMILES>  (15) 
Cc1cccc([N-]C(=O)[N-]c2ccc(F)cc2)c1

>  <Energy>  (15) 
35.631452501873

>  <Genealogy>  (15) 
Cc1cccc([N-]C(=O)[N-]c2ccc(F)cc2)c1 (protonated)
Cc1cccc([N-]C(=O)[N-]c2ccc(F)cc2)c1 (3D coordinates assigned)
Cc1cccc([N-]C(=O)[N-]c2ccc(F)cc2)c1 (optimized conformer: 35.631452501873 kcal/mol)

>  <smiles>  (15) 
Cc1cccc(NC(=O)Nc2ccc(F)cc2)c1

>  <score_type>  (15) 
oracle

>  <origin>  (15) 
adgpu

>  <m_score__min__energy>  (15) 
-9.5700000000000003

>  <m_primary>  (15) 
energy

$$$$
15:0
     RDKit          3D

 25 26  0  0  0  0  0  0  0  0999 V2000
   -3.8660   25.1840  -30.4980 O   0  0  0  0  0  0  0  0  0  0  0  0
   -4.3520   24.1670  -29.9310 C   0  0  0  0  0  0  0  0  0  0  0  0
   -3.6650   23.5710  -28.8140 N   0  0  0  0  0  0  0  0  0  0  0  0
   -2.4880   24.1320  -28.2070 C   0  0  0  0  0  0  0  0  0  0  0  0
   -1.2180   23.9850  -28.7940 C   0  0  0  0  0  0  0  0  0  0  0  0
   -0.0940   24.5640  -28.1970 C   0  0  0  0  0  0  0  0  0  0  0  0
   -0.2280   25.3050  -27.0200 C   0  0  0  0  0  0  0  0  0  0  0  0
   -1.4900   25.4770  -26.4420 C   0  0  0  0  0  0  0  0  0  0  0  0
   -1.6610   26.4200  -24.9730 Cl  0  0  0  0  0  0  0  0  0  0  0  0
   -2.6170   24.8990  -27.0400 C   0  0  0  0  0  0  0  0  0  0  0  0
   -5.6250   23.6030  -30.4430 C   0  0  0  0  0  0  0  0  0  0  0  0
   -6.0100   23.8360  -31.7750 C   0  0  0  0  0  0  0  0  0  0  0  0
   -7.2040   23.3080  -32.2660 C   0  0  0  0  0  0  0  0  0  0  0  0
   -8.0080   22.5380  -31.4230 C   0  0  0  0  0  0  0  0  0  0  0  0
   -9.5130   21.8610  -32.0130 Cl  0  0  0  0  0  0  0  0  0  0  0  0
   -7.6210   22.3050  -30.1430 N   0  0  0  0  0  0  0  0  0  0  0  0
   -6.4640   22.8110  -29.6390 C   0  0  0  0  0  0  0  0  0  0  0  0
   -3.9970   22.6560  -28.4400 H   0  0  0  0  0  0  0  0  0  0  0  0
   -1.1088   23.4121  -29.7267 H   0  0  0  0  0  0  0  0  0  0  0  0
    0.8979   24.4359  -28.6549 H   0  0  0  0  0  0  0  0  0  0  0  0
    0.6589   25.7530  -26.5481 H   0  0  0  0  0  0  0  0  0  0  0  0
   -3.6102   25.0477  -26.5912 H   0  0  0  0  0  0  0  0  0  0  0  0
   -5.3662   24.4378  -32.4333 H   0  0  0  0  0  0  0  0  0  0  0  0
   -7.5090   23.4961  -33.3060 H   0  0  0  0  0  0  0  0  0  0  0  0
   -6.1827   22.5997  -28.5968 H   0  0  0  0  0  0  0  0  0  0  0  0
  1  2  2  0
  2  3  1  0
  3  4  1  0
  4  5  2  0
  5  6  1  0
  6  7  2  0
  7  8  1  0
  8  9  1  0
  8 10  2  0
  2 11  1  0
 11 12  2  0
 12 13  1  0
 13 14  2  0
 14 15  1  0
 14 16  1  0
 16 17  2  0
 10  4  1  0
 17 11  1  0
  3 18  1  0
  5 19  1  0
  6 20  1  0
  7 21  1  0
 10 22  1  0
 12 23  1  0
 13 24  1  0
 17 25  1  0
M  END
>  <UniqueID>  (16) 
16

>  <SMILES>  (16) 
O=C(Nc1cccc(Cl)c1)c1ccc(Cl)nc1

>  <Energy>  (16) 
33.31022870808642

>  <Genealogy>  (16) 
O=C(Nc1cccc(Cl)c1)c1ccc(Cl)nc1 (3D coordinates assigned)
O=C(Nc1cccc(Cl)c1)c1ccc(Cl)nc1 (optimized conformer: 33.31022870808642 kcal/mol)

>  <smiles>  (16) 
O=C(Nc1cccc(Cl)c1)c1ccc(Cl)nc1

>  <score_type>  (16) 
oracle

>  <origin>  (16) 
adgpu

>  <m_score__min__energy>  (16) 
-6.8200000000000003

>  <m_primary>  (16) 
energy

$$$$
16:0
     RDKit          3D

 28 29  0  0  0  0  0  0  0  0999 V2000
   -2.3750   24.5820  -28.2180 C   0  0  0  0  0  0  0  0  0  0  0  0
   -2.9220   25.1700  -29.3930 O   0  0  0  0  0  0  0  0  0  0  0  0
   -3.9050   24.5710  -30.1950 C   0  0  0  0  0  0  0  0  0  0  0  0
   -5.1680   25.1580  -30.4070 C   0  0  0  0  0  0  0  0  0  0  0  0
   -6.1130   24.5220  -31.2170 C   0  0  0  0  0  0  0  0  0  0  0  0
   -5.8120   23.3040  -31.8410 C   0  0  0  0  0  0  0  0  0  0  0  0
   -6.8110   22.6560  -32.6470 N   0  0  0  0  0  0  0  0  0  0  0  0
   -7.3220   21.3340  -32.4030 C   0  0  0  0  0  0  0  0  0  0  0  0
   -6.6100   20.1890  -32.8060 C   0  0  0  0  0  0  0  0  0  0  0  0
   -7.1400   18.9150  -32.5830 C   0  0  0  0  0  0  0  0  0  0  0  0
   -8.3880   18.7720  -31.9710 C   0  0  0  0  0  0  0  0  0  0  0  0
   -9.1120   19.9040  -31.5900 C   0  0  0  0  0  0  0  0  0  0  0  0
   -8.5860   21.1810  -31.8110 C   0  0  0  0  0  0  0  0  0  0  0  0
   -4.5600   22.7090  -31.6110 C   0  0  0  0  0  0  0  0  0  0  0  0
   -3.6140   23.3440  -30.8010 C   0  0  0  0  0  0  0  0  0  0  0  0
   -2.8173   25.0574  -27.3301 H   0  0  0  0  0  0  0  0  0  0  0  0
   -2.6001   23.5053  -28.2079 H   0  0  0  0  0  0  0  0  0  0  0  0
   -1.2849   24.7288  -28.2079 H   0  0  0  0  0  0  0  0  0  0  0  0
   -5.4114   26.1205  -29.9333 H   0  0  0  0  0  0  0  0  0  0  0  0
   -7.1013   24.9815  -31.3659 H   0  0  0  0  0  0  0  0  0  0  0  0
   -7.1930   23.1810  -33.4670 H   0  0  0  0  0  0  0  0  0  0  0  0
   -5.6324   20.2970  -33.2985 H   0  0  0  0  0  0  0  0  0  0  0  0
   -6.5736   18.0233  -32.8898 H   0  0  0  0  0  0  0  0  0  0  0  0
   -8.8000   17.7684  -31.7894 H   0  0  0  0  0  0  0  0  0  0  0  0
  -10.0978   19.7910  -31.1152 H   0  0  0  0  0  0  0  0  0  0  0  0
   -9.1652   22.0696  -31.5197 H   0  0  0  0  0  0  0  0  0  0  0  0
   -4.3230   21.7382  -32.0708 H   0  0  0  0  0  0  0  0  0  0  0  0
   -2.6324   22.8749  -30.6387 H   0  0  0  0  0  0  0  0  0  0  0  0
  1  2  1  0
  2  3  1  0
  3  4  2  0
  4  5  1  0
  5  6  2  0
  6  7  1  0
  7  8  1  0
  8  9  2  0
  9 10  1  0
 10 11  2  0
 11 12  1  0
 12 13  2  0
  6 14  1  0
 14 15  2  0
 15  3  1  0
 13  8  1  0
  1 16  1  0
  1 17  1  0
  1 18  1  0
  4 19  1  0
  5 20  1  0
  7 21  1  0
  9 22  1  0
 10 23  1  0
 11 24  1  0
 12 25  1  0
 13 26  1  0
 14 27  1  0
 15 28  1  0
M  END
>  <UniqueID>  (17) 
17

>  <SMILES>  (17) 
COc1ccc(Nc2ccccc2)cc1

>  <Energy>  (17) 
33.253981140106745

>  <Genealogy>  (17) 
COc1ccc(Nc2ccccc2)cc1 (3D coordinates assigned)
COc1ccc(Nc2ccccc2)cc1 (optimized conformer: 33.253981140106745 kcal/mol)

>  <smiles>  (17) 
COc1ccc(Nc2ccccc2)cc1

>  <score_type>  (17) 
oracle

>  <origin>  (17) 
adgpu

>  <m_score__min__energy>  (17) 
-6.9500000000000002

>  <m_primary>  (17) 
energy

$$$$
17:0
     RDKit          3D

 21 23  0  0  0  0  0  0  0  0999 V2000
   -1.9630   24.6180  -28.7290 S   0  0  0  0  0  0  0  0  0  0  0  0
   -3.1440   24.3300  -29.8190 C   0  0  0  0  0  0  0  0  0  0  0  0
   -3.8700   25.2940  -30.4130 N   0  0  0  0  0  0  0  0  0  0  0  0
   -4.7140   24.6690  -31.2200 N   0  0  0  0  0  0  0  0  0  0  0  0
   -4.4670   23.3520  -31.0830 C   0  0  0  0  0  0  0  0  0  0  0  0
   -5.1910   22.2990  -31.8090 C   0  0  0  0  0  0  0  0  0  0  0  0
   -4.6530   21.4440  -32.7670 C   0  0  0  0  0  0  0  0  0  0  0  0
   -5.6010   20.5990  -33.2310 N   0  0  0  0  0  0  0  0  0  0  0  0
   -6.7310   20.9100  -32.5760 C   0  0  0  0  0  0  0  0  0  0  0  0
   -7.9810   20.3080  -32.7180 C   0  0  0  0  0  0  0  0  0  0  0  0
   -9.0380   20.7920  -31.9300 C   0  0  0  0  0  0  0  0  0  0  0  0
   -8.8270   21.8550  -31.0250 C   0  0  0  0  0  0  0  0  0  0  0  0
   -7.5570   22.4450  -30.9010 C   0  0  0  0  0  0  0  0  0  0  0  0
   -6.5240   21.9450  -31.6970 C   0  0  0  0  0  0  0  0  0  0  0  0
   -3.5010   23.1370  -30.2220 O   0  0  0  0  0  0  0  0  0  0  0  0
   -3.6045   21.4545  -33.0995 H   0  0  0  0  0  0  0  0  0  0  0  0
   -5.4740   19.8540  -33.9530 H   0  0  0  0  0  0  0  0  0  0  0  0
   -8.1343   19.4797  -33.4254 H   0  0  0  0  0  0  0  0  0  0  0  0
  -10.0369   20.3399  -32.0185 H   0  0  0  0  0  0  0  0  0  0  0  0
   -9.6626   22.2243  -30.4123 H   0  0  0  0  0  0  0  0  0  0  0  0
   -7.3824   23.2740  -30.1994 H   0  0  0  0  0  0  0  0  0  0  0  0
  1  2  2  0
  2  3  1  0
  3  4  1  0
  4  5  2  0
  5  6  1  0
  6  7  2  0
  7  8  1  0
  8  9  1  0
  9 10  2  0
 10 11  1  0
 11 12  2  0
 12 13  1  0
 13 14  2  0
  5 15  1  0
 15  2  1  0
 14  6  1  0
 14  9  1  0
  7 16  1  0
  8 17  1  0
 10 18  1  0
 11 19  1  0
 12 20  1  0
 13 21  1  0
M  CHG  1   3  -1
M  END
>  <UniqueID>  (18) 
18

>  <SMILES>  (18) 
S=c1[n-]nc(-c2c[nH]c3ccccc23)o1

>  <Energy>  (18) 
91.48780166067681

>  <Genealogy>  (18) 
S=c1[n-]nc(-c2c[nH]c3ccccc23)o1 (protonated)
S=c1[n-]nc(-c2c[nH]c3ccccc23)o1 (3D coordinates assigned)
S=c1[n-]nc(-c2c[nH]c3ccccc23)o1 (optimized conformer: 91.48780166067681 kcal/mol)

>  <smiles>  (18) 
S=c1[nH]nc(-c2c[nH]c3ccccc23)o1

>  <score_type>  (18) 
oracle

>  <origin>  (18) 
adgpu

>  <m_score__min__energy>  (18) 
-8.3100000000000005

>  <m_primary>  (18) 
energy

$$$$
18:0
     RDKit          3D

 28 29  0  0  0  0  0  0  0  0999 V2000
   -4.8050   19.1280  -33.8540 C   0  0  0  0  0  0  0  0  0  0  0  0
   -6.1460   19.2110  -33.1980 C   0  0  0  0  0  0  0  0  0  0  0  0
   -6.8920   18.0550  -32.9540 C   0  0  0  0  0  0  0  0  0  0  0  0
   -8.1270   18.1830  -32.3220 C   0  0  0  0  0  0  0  0  0  0  0  0
   -8.5800   19.4100  -31.9570 N   0  0  0  0  0  0  0  0  0  0  0  0
   -7.8440   20.5320  -32.1920 C   0  0  0  0  0  0  0  0  0  0  0  0
   -8.3440   21.8270  -31.8000 N   0  0  0  0  0  0  0  0  0  0  0  0
   -9.4820   21.9130  -30.8810 C   0  0  0  0  0  0  0  0  0  0  0  0
   -7.7420   23.0520  -32.3430 C   0  0  0  0  0  0  0  0  0  0  0  0
   -6.6800   23.5600  -31.4200 C   0  0  0  0  0  0  0  0  0  0  0  0
   -6.8490   24.5380  -30.4490 C   0  0  0  0  0  0  0  0  0  0  0  0
   -5.6690   24.8370  -29.7590 C   0  0  0  0  0  0  0  0  0  0  0  0
   -4.5700   24.1030  -30.1890 C   0  0  0  0  0  0  0  0  0  0  0  0
   -5.0680   23.0800  -31.4270 S   0  0  0  0  0  0  0  0  0  0  0  0
   -6.6330   20.4190  -32.8070 N   0  0  0  0  0  0  0  0  0  0  0  0
   -4.0220   19.0795  -33.0829 H   0  0  0  0  0  0  0  0  0  0  0  0
   -4.7587   18.2253  -34.4808 H   0  0  0  0  0  0  0  0  0  0  0  0
   -4.6477   20.0181  -34.4808 H   0  0  0  0  0  0  0  0  0  0  0  0
   -6.5130   17.0669  -33.2539 H   0  0  0  0  0  0  0  0  0  0  0  0
   -8.7355   17.2895  -32.1185 H   0  0  0  0  0  0  0  0  0  0  0  0
   -9.1182   21.8855  -29.8433 H   0  0  0  0  0  0  0  0  0  0  0  0
  -10.0234   22.8546  -31.0549 H   0  0  0  0  0  0  0  0  0  0  0  0
  -10.1588   21.0634  -31.0549 H   0  0  0  0  0  0  0  0  0  0  0  0
   -7.2959   22.8332  -33.3244 H   0  0  0  0  0  0  0  0  0  0  0  0
   -8.5231   23.8194  -32.4476 H   0  0  0  0  0  0  0  0  0  0  0  0
   -7.8122   25.0278  -30.2432 H   0  0  0  0  0  0  0  0  0  0  0  0
   -5.6162   25.5828  -28.9522 H   0  0  0  0  0  0  0  0  0  0  0  0
   -3.5485   24.1784  -29.7878 H   0  0  0  0  0  0  0  0  0  0  0  0
  1  2  1  0
  2  3  2  0
  3  4  1  0
  4  5  2  0
  5  6  1  0
  6  7  1  0
  7  8  1  0
  7  9  1  0
  9 10  1  0
 10 11  2  0
 11 12  1  0
 12 13  2  0
 13 14  1  0
  6 15  2  0
 15  2  1  0
 14 10  1  0
  1 16  1  0
  1 17  1  0
  1 18  1  0
  3 19  1  0
  4 20  1  0
  8 21  1  0
  8 22  1  0
  8 23  1  0
  9 24  1  0
  9 25  1  0
 11 26  1  0
 12 27  1  0
 13 28  1  0
M  END
>  <UniqueID>  (19) 
19

>  <SMILES>  (19) 
Cc1ccnc(N(C)Cc2cccs2)n1

>  <Energy>  (19) 
49.72501554816109

>  <Genealogy>  (19) 
Cc1ccnc(N(C)Cc2cccs2)n1 (3D coordinates assigned)
Cc1ccnc(N(C)Cc2cccs2)n1 (optimized conformer: 49.72501554816109 kcal/mol)

>  <smiles>  (19) 
Cc1ccnc(N(C)Cc2cccs2)n1

>  <score_type>  (19) 
oracle

>  <origin>  (19) 
adgpu

>  <m_score__min__energy>  (19) 
-5.7699999999999996

>  <m_primary>  (19) 
energy

$$$$
19:0
     RDKit          3D

 15 15  0  0  0  0  0  0  0  0999 V2000
   -1.2050   20.1780  -30.2020 O   0  0  0  0  0  0  0  0  0  0  0  0
   -1.6940   20.8100  -29.2270 C   0  0  0  0  0  0  0  0  0  0  0  0
   -2.3490   20.1020  -28.2260 O   0  0  0  0  0  0  0  0  0  0  0  0
   -1.5720   22.2820  -29.1490 C   0  0  0  0  0  0  0  0  0  0  0  0
   -2.5850   23.1060  -29.6680 C   0  0  0  0  0  0  0  0  0  0  0  0
   -2.4750   24.4990  -29.5970 C   0  0  0  0  0  0  0  0  0  0  0  0
   -3.4910   25.2930  -30.1180 O   0  0  0  0  0  0  0  0  0  0  0  0
   -1.3460   25.0860  -29.0030 C   0  0  0  0  0  0  0  0  0  0  0  0
   -1.2160   26.4730  -28.9210 O   0  0  0  0  0  0  0  0  0  0  0  0
   -0.3330   24.2710  -28.4840 C   0  0  0  0  0  0  0  0  0  0  0  0
    0.7880   24.8430  -27.8940 O   0  0  0  0  0  0  0  0  0  0  0  0
   -0.4450   22.8780  -28.5560 C   0  0  0  0  0  0  0  0  0  0  0  0
   -3.4720   22.6520  -30.1340 H   0  0  0  0  0  0  0  0  0  0  0  0
   -2.0180   27.0920  -28.9680 H   0  0  0  0  0  0  0  0  0  0  0  0
    0.3549   22.2443  -28.1455 H   0  0  0  0  0  0  0  0  0  0  0  0
  1  2  2  0
  2  3  1  0
  2  4  1  0
  4  5  2  0
  5  6  1  0
  6  7  1  0
  6  8  2  0
  8  9  1  0
  8 10  1  0
 10 11  1  0
 10 12  2  0
 12  4  1  0
  5 13  1  0
  9 14  1  0
 12 15  1  0
M  CHG  3   3  -1   7  -1  11  -1
M  END
>  <UniqueID>  (20) 
20

>  <SMILES>  (20) 
O=C([O-])c1cc([O-])c(O)c([O-])c1

>  <Energy>  (20) 
15.003845119986657

>  <Genealogy>  (20) 
O=C([O-])c1cc([O-])c(O)c([O-])c1 (protonated)
O=C([O-])c1cc([O-])c(O)c([O-])c1 (3D coordinates assigned)
O=C([O-])c1cc([O-])c(O)c([O-])c1 (optimized conformer: 15.003845119986657 kcal/mol)

>  <smiles>  (20) 
O=C(O)c1cc(O)c(O)c(O)c1

>  <score_type>  (20) 
oracle

>  <origin>  (20) 
adgpu

>  <m_score__min__energy>  (20) 
-8.4199999999999999

>  <m_primary>  (20) 
energy

$$$$
20:0
     RDKit          3D

 24 25  0  0  0  0  0  0  0  0999 V2000
   -5.4310   17.7870  -34.9280 C   0  0  0  0  0  0  0  0  0  0  0  0
   -6.2080   18.3260  -33.7630 C   0  0  0  0  0  0  0  0  0  0  0  0
   -7.2380   17.5670  -33.1900 C   0  0  0  0  0  0  0  0  0  0  0  0
   -7.9810   18.0820  -32.1250 C   0  0  0  0  0  0  0  0  0  0  0  0
   -7.7130   19.3620  -31.6360 C   0  0  0  0  0  0  0  0  0  0  0  0
   -6.7070   20.1500  -32.2220 C   0  0  0  0  0  0  0  0  0  0  0  0
   -6.4120   21.4670  -31.7190 N   0  0  0  0  0  0  0  0  0  0  0  0
   -7.3870   22.3810  -31.7440 N   0  0  0  0  0  0  0  0  0  0  0  0
   -7.2040   23.6480  -31.2960 C   0  0  0  0  0  0  0  0  0  0  0  0
   -5.9650   24.0280  -30.7880 C   0  0  0  0  0  0  0  0  0  0  0  0
   -5.7360   25.6750  -30.2150 Cl  0  0  0  0  0  0  0  0  0  0  0  0
   -4.9350   23.0830  -30.7400 C   0  0  0  0  0  0  0  0  0  0  0  0
   -3.3520   23.5070  -30.0890 Cl  0  0  0  0  0  0  0  0  0  0  0  0
   -5.1790   21.7860  -31.2080 C   0  0  0  0  0  0  0  0  0  0  0  0
   -4.2680   20.9150  -31.1350 O   0  0  0  0  0  0  0  0  0  0  0  0
   -5.9530   19.6200  -33.2830 C   0  0  0  0  0  0  0  0  0  0  0  0
   -4.5795   17.1963  -34.5591 H   0  0  0  0  0  0  0  0  0  0  0  0
   -6.0839   17.1468  -35.5395 H   0  0  0  0  0  0  0  0  0  0  0  0
   -5.0600   18.6227  -35.5395 H   0  0  0  0  0  0  0  0  0  0  0  0
   -7.4618   16.5631  -33.5801 H   0  0  0  0  0  0  0  0  0  0  0  0
   -8.7795   17.4773  -31.6703 H   0  0  0  0  0  0  0  0  0  0  0  0
   -8.2920   19.7560  -30.7878 H   0  0  0  0  0  0  0  0  0  0  0  0
   -8.0311   24.3722  -31.3339 H   0  0  0  0  0  0  0  0  0  0  0  0
   -5.1563   20.2244  -33.7411 H   0  0  0  0  0  0  0  0  0  0  0  0
  1  2  1  0
  2  3  2  0
  3  4  1  0
  4  5  2  0
  5  6  1  0
  6  7  1  0
  7  8  1  0
  8  9  2  0
  9 10  1  0
 10 11  1  0
 10 12  2  0
 12 13  1  0
 12 14  1  0
 14 15  2  0
  6 16  2  0
 16  2  1  0
 14  7  1  0
  1 17  1  0
  1 18  1  0
  1 19  1  0
  3 20  1  0
  4 21  1  0
  5 22  1  0
  9 23  1  0
 16 24  1  0
M  END
>  <UniqueID>  (21) 
21

>  <SMILES>  (21) 
Cc1cccc(-n2ncc(Cl)c(Cl)c2=O)c1

>  <Energy>  (21) 
33.461399407739655

>  <Genealogy>  (21) 
Cc1cccc(-n2ncc(Cl)c(Cl)c2=O)c1 (3D coordinates assigned)
Cc1cccc(-n2ncc(Cl)c(Cl)c2=O)c1 (optimized conformer: 33.461399407739655 kcal/mol)

>  <smiles>  (21) 
Cc1cccc(-n2ncc(Cl)c(Cl)c2=O)c1

>  <score_type>  (21) 
oracle

>  <origin>  (21) 
adgpu

>  <m_score__min__energy>  (21) 
-6.6299999999999999

>  <m_primary>  (21) 
energy

$$$$
21:0
     RDKit          3D

 29 31  0  0  0  0  0  0  0  0999 V2000
   -6.1160   26.2630  -29.7510 O   0  0  0  0  0  0  0  0  0  0  0  0
   -5.5860   25.2530  -30.2820 C   0  0  0  0  0  0  0  0  0  0  0  0
   -6.3440   24.1780  -30.6050 N   0  0  0  0  0  0  0  0  0  0  0  0
   -5.7950   23.0770  -31.1830 C   0  0  0  0  0  0  0  0  0  0  0  0
   -6.6950   21.9720  -31.5810 C   0  0  0  0  0  0  0  0  0  0  0  0
   -7.8630   21.7210  -30.8410 C   0  0  0  0  0  0  0  0  0  0  0  0
   -8.7290   20.6890  -31.2170 C   0  0  0  0  0  0  0  0  0  0  0  0
   -8.4420   19.9080  -32.3400 C   0  0  0  0  0  0  0  0  0  0  0  0
   -7.2940   20.1630  -33.0950 C   0  0  0  0  0  0  0  0  0  0  0  0
   -6.4270   21.1950  -32.7240 C   0  0  0  0  0  0  0  0  0  0  0  0
   -4.3990   23.0600  -31.4140 C   0  0  0  0  0  0  0  0  0  0  0  0
   -3.6740   21.8840  -31.9460 C   0  0  0  0  0  0  0  0  0  0  0  0
   -3.4820   21.7480  -33.3310 C   0  0  0  0  0  0  0  0  0  0  0  0
   -2.7880   20.6480  -33.8430 C   0  0  0  0  0  0  0  0  0  0  0  0
   -2.2680   19.6820  -32.9770 C   0  0  0  0  0  0  0  0  0  0  0  0
   -2.4360   19.8190  -31.5970 C   0  0  0  0  0  0  0  0  0  0  0  0
   -3.1270   20.9180  -31.0800 C   0  0  0  0  0  0  0  0  0  0  0  0
   -3.6810   24.1690  -31.0900 N   0  0  0  0  0  0  0  0  0  0  0  0
   -4.2560   25.2380  -30.5400 N   0  0  0  0  0  0  0  0  0  0  0  0
   -8.0973   22.3391  -29.9618 H   0  0  0  0  0  0  0  0  0  0  0  0
   -9.6370   20.4918  -30.6282 H   0  0  0  0  0  0  0  0  0  0  0  0
   -9.1203   19.0920  -32.6298 H   0  0  0  0  0  0  0  0  0  0  0  0
   -7.0724   19.5512  -33.9819 H   0  0  0  0  0  0  0  0  0  0  0  0
   -5.5311   21.4009  -33.3281 H   0  0  0  0  0  0  0  0  0  0  0  0
   -3.8799   22.5111  -34.0161 H   0  0  0  0  0  0  0  0  0  0  0  0
   -2.6509   20.5424  -34.9293 H   0  0  0  0  0  0  0  0  0  0  0  0
   -1.7267   18.8142  -33.3819 H   0  0  0  0  0  0  0  0  0  0  0  0
   -2.0235   19.0601  -30.9159 H   0  0  0  0  0  0  0  0  0  0  0  0
   -3.2441   21.0289  -29.9919 H   0  0  0  0  0  0  0  0  0  0  0  0
  1  2  2  0
  2  3  1  0
  3  4  2  0
  4  5  1  0
  5  6  2  0
  6  7  1  0
  7  8  2  0
  8  9  1  0
  9 10  2  0
  4 11  1  0
 11 12  1  0
 12 13  2  0
 13 14  1  0
 14 15  2  0
 15 16  1  0
 16 17  2  0
 11 18  2  0
 18 19  1  0
 19  2  1  0
 10  5  1  0
 17 12  1  0
  6 20  1  0
  7 21  1  0
  8 22  1  0
  9 23  1  0
 10 24  1  0
 13 25  1  0
 14 26  1  0
 15 27  1  0
 16 28  1  0
 17 29  1  0
M  CHG  1  19  -1
M  END
>  <UniqueID>  (22) 
22

>  <SMILES>  (22) 
O=c1nc(-c2ccccc2)c(-c2ccccc2)n[n-]1

>  <Energy>  (22) 
45.52850319717916

>  <Genealogy>  (22) 
O=c1nc(-c2ccccc2)c(-c2ccccc2)n[n-]1 (protonated)
O=c1nc(-c2ccccc2)c(-c2ccccc2)n[n-]1 (3D coordinates assigned)
O=c1nc(-c2ccccc2)c(-c2ccccc2)n[n-]1 (optimized conformer: 45.52850319717916 kcal/mol)

>  <smiles>  (22) 
O=c1nc(-c2ccccc2)c(-c2ccccc2)n[nH]1

>  <score_type>  (22) 
oracle

>  <origin>  (22) 
adgpu

>  <m_score__min__energy>  (22) 
-8.4900000000000002

>  <m_primary>  (22) 
energy

$$$$
22:0
     RDKit          3D

 18 18  0  0  0  0  0  0  0  0999 V2000
   -5.8970   19.7060  -33.6050 C   0  0  0  0  0  0  0  0  0  0  0  0
   -5.2620   20.8840  -33.1190 O   0  0  0  0  0  0  0  0  0  0  0  0
   -5.9000   21.8730  -32.3550 C   0  0  0  0  0  0  0  0  0  0  0  0
   -7.2510   21.6970  -32.0400 C   0  0  0  0  0  0  0  0  0  0  0  0
   -7.9310   22.6510  -31.2810 C   0  0  0  0  0  0  0  0  0  0  0  0
   -7.2660   23.7930  -30.8290 C   0  0  0  0  0  0  0  0  0  0  0  0
   -5.9070   23.9920  -31.1320 C   0  0  0  0  0  0  0  0  0  0  0  0
   -5.2170   25.1670  -30.6670 N   0  0  0  0  0  0  0  0  0  0  0  0
   -5.8420   26.0910  -30.1050 O   0  0  0  0  0  0  0  0  0  0  0  0
   -3.8580   25.2940  -30.8340 O   0  0  0  0  0  0  0  0  0  0  0  0
   -5.2290   23.0250  -31.8980 C   0  0  0  0  0  0  0  0  0  0  0  0
   -6.2285   19.0910  -32.7554 H   0  0  0  0  0  0  0  0  0  0  0  0
   -6.7671   19.9846  -34.2176 H   0  0  0  0  0  0  0  0  0  0  0  0
   -5.1859   19.1323  -34.2176 H   0  0  0  0  0  0  0  0  0  0  0  0
   -7.7817   20.8004  -32.3928 H   0  0  0  0  0  0  0  0  0  0  0  0
   -8.9936   22.5029  -31.0382 H   0  0  0  0  0  0  0  0  0  0  0  0
   -7.8084   24.5413  -30.2324 H   0  0  0  0  0  0  0  0  0  0  0  0
   -4.1662   23.1698  -32.1420 H   0  0  0  0  0  0  0  0  0  0  0  0
  1  2  1  0
  2  3  1  0
  3  4  2  0
  4  5  1  0
  5  6  2  0
  6  7  1  0
  7  8  1  0
  8  9  2  0
  8 10  1  0
  7 11  2  0
 11  3  1  0
  1 12  1  0
  1 13  1  0
  1 14  1  0
  4 15  1  0
  5 16  1  0
  6 17  1  0
 11 18  1  0
M  CHG  2   8   1  10  -1
M  END
>  <UniqueID>  (23) 
23

>  <SMILES>  (23) 
COc1cccc([N+](=O)[O-])c1

>  <Energy>  (23) 
17.10172704844426

>  <Genealogy>  (23) 
COc1cccc([N+](=O)[O-])c1 (3D coordinates assigned)
COc1cccc([N+](=O)[O-])c1 (optimized conformer: 17.10172704844426 kcal/mol)

>  <smiles>  (23) 
COc1cccc([N+](=O)[O-])c1

>  <score_type>  (23) 
oracle

>  <origin>  (23) 
adgpu

>  <m_score__min__energy>  (23) 
-5.0899999999999999

>  <m_primary>  (23) 
energy

$$$$
23:0
     RDKit          3D

 29 30  0  0  0  0  0  0  0  0999 V2000
   -4.4790   25.2870  -31.1720 O   0  0  0  0  0  0  0  0  0  0  0  0
   -4.5830   24.7200  -30.0520 C   0  0  0  0  0  0  0  0  0  0  0  0
   -5.8640   24.2560  -29.5990 N   0  0  0  0  0  0  0  0  0  0  0  0
   -7.0470   24.2660  -30.4580 C   0  0  0  0  0  0  0  0  0  0  0  0
   -6.7360   23.6590  -31.8330 C   0  0  0  0  0  0  0  0  0  0  0  0
   -7.4440   22.3360  -32.0270 C   0  0  0  0  0  0  0  0  0  0  0  0
   -8.8300   22.2710  -31.7910 C   0  0  0  0  0  0  0  0  0  0  0  0
   -9.5180   21.0630  -31.9260 C   0  0  0  0  0  0  0  0  0  0  0  0
   -8.8330   19.9060  -32.2940 C   0  0  0  0  0  0  0  0  0  0  0  0
   -7.4580   19.9520  -32.5280 C   0  0  0  0  0  0  0  0  0  0  0  0
   -6.7560   21.1570  -32.3970 C   0  0  0  0  0  0  0  0  0  0  0  0
   -5.0250   21.1380  -32.7170 Cl  0  0  0  0  0  0  0  0  0  0  0  0
   -3.3760   24.5420  -29.2300 C   0  0  0  0  0  0  0  0  0  0  0  0
   -3.1670   23.5810  -28.2560 C   0  0  0  0  0  0  0  0  0  0  0  0
   -1.8940   23.8040  -27.7790 C   0  0  0  0  0  0  0  0  0  0  0  0
   -1.4020   24.8820  -28.4860 C   0  0  0  0  0  0  0  0  0  0  0  0
   -2.3060   25.2970  -29.3430 O   0  0  0  0  0  0  0  0  0  0  0  0
   -5.9840   23.9400  -28.6110 H   0  0  0  0  0  0  0  0  0  0  0  0
   -7.8444   23.6794  -29.9783 H   0  0  0  0  0  0  0  0  0  0  0  0
   -7.3668   25.3088  -30.6005 H   0  0  0  0  0  0  0  0  0  0  0  0
   -7.0649   24.3587  -32.6155 H   0  0  0  0  0  0  0  0  0  0  0  0
   -5.6520   23.4833  -31.8959 H   0  0  0  0  0  0  0  0  0  0  0  0
   -9.3762   23.1796  -31.4976 H   0  0  0  0  0  0  0  0  0  0  0  0
  -10.6018   21.0245  -31.7417 H   0  0  0  0  0  0  0  0  0  0  0  0
   -9.3769   18.9558  -32.4000 H   0  0  0  0  0  0  0  0  0  0  0  0
   -6.9220   19.0360  -32.8172 H   0  0  0  0  0  0  0  0  0  0  0  0
   -3.8712   22.8012  -27.9304 H   0  0  0  0  0  0  0  0  0  0  0  0
   -1.3743   23.2368  -26.9927 H   0  0  0  0  0  0  0  0  0  0  0  0
   -0.4045   25.3260  -28.3520 H   0  0  0  0  0  0  0  0  0  0  0  0
  1  2  2  0
  2  3  1  0
  3  4  1  0
  4  5  1  0
  5  6  1  0
  6  7  2  0
  7  8  1  0
  8  9  2  0
  9 10  1  0
 10 11  2  0
 11 12  1  0
  2 13  1  0
 13 14  2  0
 14 15  1  0
 15 16  2  0
 16 17  1  0
 11  6  1  0
 17 13  1  0
  3 18  1  0
  4 19  1  0
  4 20  1  0
  5 21  1  0
  5 22  1  0
  7 23  1  0
  8 24  1  0
  9 25  1  0
 10 26  1  0
 14 27  1  0
 15 28  1  0
 16 29  1  0
M  END
>  <UniqueID>  (24) 
24

>  <SMILES>  (24) 
O=C(NCCc1ccccc1Cl)c1ccco1

>  <Energy>  (24) 
50.95448999563737

>  <Genealogy>  (24) 
O=C(NCCc1ccccc1Cl)c1ccco1 (3D coordinates assigned)
O=C(NCCc1ccccc1Cl)c1ccco1 (optimized conformer: 50.95448999563737 kcal/mol)

>  <smiles>  (24) 
O=C(NCCc1ccccc1Cl)c1ccco1

>  <score_type>  (24) 
oracle

>  <origin>  (24) 
adgpu

>  <m_score__min__energy>  (24) 
-8.3800000000000008

>  <m_primary>  (24) 
energy

$$$$
24:0
     RDKit          3D

 36 37  0  0  0  0  0  0  0  0999 V2000
   -8.7290   18.9000  -31.9740 C   0  0  0  0  0  0  0  0  0  0  0  0
   -9.3490   20.2860  -32.1170 C   0  0  0  0  0  0  0  0  0  0  0  0
   -8.4210   21.1980  -32.7050 O   0  0  0  0  0  0  0  0  0  0  0  0
   -7.4550   21.9480  -32.0110 C   0  0  0  0  0  0  0  0  0  0  0  0
   -7.7900   23.0450  -31.1960 C   0  0  0  0  0  0  0  0  0  0  0  0
   -6.7950   23.7600  -30.5250 C   0  0  0  0  0  0  0  0  0  0  0  0
   -5.4440   23.3990  -30.6550 C   0  0  0  0  0  0  0  0  0  0  0  0
   -4.3810   24.1480  -29.9430 C   0  0  0  0  0  0  0  0  0  0  0  0
   -3.8600   25.1590  -30.4900 O   0  0  0  0  0  0  0  0  0  0  0  0
   -3.9650   23.7630  -28.6210 N   0  0  0  0  0  0  0  0  0  0  0  0
   -2.7280   24.2000  -28.0270 C   0  0  0  0  0  0  0  0  0  0  0  0
   -2.7460   24.9970  -26.8680 C   0  0  0  0  0  0  0  0  0  0  0  0
   -1.5540   25.4580  -26.3020 C   0  0  0  0  0  0  0  0  0  0  0  0
   -1.5950   26.4520  -24.8570 Cl  0  0  0  0  0  0  0  0  0  0  0  0
   -0.3310   25.1380  -26.8930 C   0  0  0  0  0  0  0  0  0  0  0  0
   -0.2970   24.3580  -28.0510 C   0  0  0  0  0  0  0  0  0  0  0  0
   -1.4860   23.8780  -28.6250 C   0  0  0  0  0  0  0  0  0  0  0  0
   -1.4170   23.0400  -29.8730 C   0  0  0  0  0  0  0  0  0  0  0  0
   -5.1120   22.2940  -31.4580 C   0  0  0  0  0  0  0  0  0  0  0  0
   -6.1070   21.5770  -32.1300 C   0  0  0  0  0  0  0  0  0  0  0  0
   -5.6480   20.2080  -33.1330 Cl  0  0  0  0  0  0  0  0  0  0  0  0
   -8.6196   18.6555  -30.9071 H   0  0  0  0  0  0  0  0  0  0  0  0
   -9.3799   18.1556  -32.4559 H   0  0  0  0  0  0  0  0  0  0  0  0
   -7.7402   18.8891  -32.4559 H   0  0  0  0  0  0  0  0  0  0  0  0
  -10.2417   20.2176  -32.7561 H   0  0  0  0  0  0  0  0  0  0  0  0
   -9.6214   20.6554  -31.1173 H   0  0  0  0  0  0  0  0  0  0  0  0
   -8.8435   23.3419  -31.0864 H   0  0  0  0  0  0  0  0  0  0  0  0
   -7.0722   24.6136  -29.8890 H   0  0  0  0  0  0  0  0  0  0  0  0
   -4.6340   23.2160  -28.0350 H   0  0  0  0  0  0  0  0  0  0  0  0
   -3.7074   25.2600  -26.4026 H   0  0  0  0  0  0  0  0  0  0  0  0
    0.6068   25.5003  -26.4465 H   0  0  0  0  0  0  0  0  0  0  0  0
    0.6695   24.1173  -28.5178 H   0  0  0  0  0  0  0  0  0  0  0  0
   -1.3296   21.9786  -29.5976 H   0  0  0  0  0  0  0  0  0  0  0  0
   -2.3306   23.1907  -30.4668 H   0  0  0  0  0  0  0  0  0  0  0  0
   -0.5404   23.3381  -30.4668 H   0  0  0  0  0  0  0  0  0  0  0  0
   -4.0595   21.9904  -31.5587 H   0  0  0  0  0  0  0  0  0  0  0  0
  1  2  1  0
  2  3  1  0
  3  4  1  0
  4  5  2  0
  5  6  1  0
  6  7  2  0
  7  8  1  0
  8  9  2  0
  8 10  1  0
 10 11  1  0
 11 12  2  0
 12 13  1  0
 13 14  1  0
 13 15  2  0
 15 16  1  0
 16 17  2  0
 17 18  1  0
  7 19  1  0
 19 20  2  0
 20 21  1  0
 20  4  1  0
 17 11  1  0
  1 22  1  0
  1 23  1  0
  1 24  1  0
  2 25  1  0
  2 26  1  0
  5 27  1  0
  6 28  1  0
 10 29  1  0
 12 30  1  0
 15 31  1  0
 16 32  1  0
 18 33  1  0
 18 34  1  0
 18 35  1  0
 19 36  1  0
M  END
>  <UniqueID>  (25) 
25

>  <SMILES>  (25) 
CCOc1ccc(C(=O)Nc2cc(Cl)ccc2C)cc1Cl

>  <Energy>  (25) 
40.775025943083534

>  <Genealogy>  (25) 
CCOc1ccc(C(=O)Nc2cc(Cl)ccc2C)cc1Cl (3D coordinates assigned)
CCOc1ccc(C(=O)Nc2cc(Cl)ccc2C)cc1Cl (optimized conformer: 40.775025943083534 kcal/mol)

>  <smiles>  (25) 
CCOc1ccc(C(=O)Nc2cc(Cl)ccc2C)cc1Cl

>  <score_type>  (25) 
oracle

>  <origin>  (25) 
adgpu

>  <m_score__min__energy>  (25) 
-7.9699999999999998

>  <m_primary>  (25) 
energy

$$$$
25:0
     RDKit          3D

 26 27  0  0  0  0  0  0  0  0999 V2000
   -4.2230   25.6690  -30.8350 O   0  0  0  0  0  0  0  0  0  0  0  0
   -4.9800   24.4130  -30.5140 S   0  0  0  0  0  0  0  0  0  0  0  0
   -6.1400   24.7500  -29.6180 O   0  0  0  0  0  0  0  0  0  0  0  0
   -5.5760   23.7310  -31.9680 O   0  0  0  0  0  0  0  0  0  0  0  0
   -6.4380   22.6250  -32.0430 C   0  0  0  0  0  0  0  0  0  0  0  0
   -7.7870   22.6890  -31.6380 C   0  0  0  0  0  0  0  0  0  0  0  0
   -8.6030   21.5580  -31.7250 C   0  0  0  0  0  0  0  0  0  0  0  0
   -8.0890   20.3560  -32.2180 C   0  0  0  0  0  0  0  0  0  0  0  0
   -9.1180   18.9390  -32.3260 Cl  0  0  0  0  0  0  0  0  0  0  0  0
   -6.7540   20.2840  -32.6240 C   0  0  0  0  0  0  0  0  0  0  0  0
   -5.9310   21.4130  -32.5390 C   0  0  0  0  0  0  0  0  0  0  0  0
   -4.2550   21.2930  -33.0530 Cl  0  0  0  0  0  0  0  0  0  0  0  0
   -3.9000   23.2780  -29.7130 C   0  0  0  0  0  0  0  0  0  0  0  0
   -2.6950   22.8970  -30.3220 C   0  0  0  0  0  0  0  0  0  0  0  0
   -1.8360   22.0000  -29.6770 C   0  0  0  0  0  0  0  0  0  0  0  0
   -2.1790   21.4790  -28.4260 C   0  0  0  0  0  0  0  0  0  0  0  0
   -3.3810   21.8530  -27.8180 C   0  0  0  0  0  0  0  0  0  0  0  0
   -4.2420   22.7480  -28.4600 C   0  0  0  0  0  0  0  0  0  0  0  0
   -8.1988   23.6331  -31.2520 H   0  0  0  0  0  0  0  0  0  0  0  0
   -9.6537   21.6142  -31.4042 H   0  0  0  0  0  0  0  0  0  0  0  0
   -6.3487   19.3376  -33.0114 H   0  0  0  0  0  0  0  0  0  0  0  0
   -2.4250   23.3038  -31.3077 H   0  0  0  0  0  0  0  0  0  0  0  0
   -0.8902   21.7047  -30.1548 H   0  0  0  0  0  0  0  0  0  0  0  0
   -1.5028   20.7744  -27.9198 H   0  0  0  0  0  0  0  0  0  0  0  0
   -3.6496   21.4426  -26.8334 H   0  0  0  0  0  0  0  0  0  0  0  0
   -5.1894   23.0372  -27.9817 H   0  0  0  0  0  0  0  0  0  0  0  0
  1  2  2  0
  2  3  2  0
  2  4  1  0
  4  5  1  0
  5  6  2  0
  6  7  1  0
  7  8  2  0
  8  9  1  0
  8 10  1  0
 10 11  2  0
 11 12  1  0
  2 13  1  0
 13 14  2  0
 14 15  1  0
 15 16  2  0
 16 17  1  0
 17 18  2  0
 11  5  1  0
 18 13  1  0
  6 19  1  0
  7 20  1  0
 10 21  1  0
 14 22  1  0
 15 23  1  0
 16 24  1  0
 17 25  1  0
 18 26  1  0
M  END
>  <UniqueID>  (26) 
26

>  <SMILES>  (26) 
O=S(=O)(Oc1ccc(Cl)cc1Cl)c1ccccc1

>  <Energy>  (26) 
26.700281000064624

>  <Genealogy>  (26) 
O=S(=O)(Oc1ccc(Cl)cc1Cl)c1ccccc1 (3D coordinates assigned)
O=S(=O)(Oc1ccc(Cl)cc1Cl)c1ccccc1 (optimized conformer: 26.700281000064624 kcal/mol)

>  <smiles>  (26) 
O=S(=O)(Oc1ccc(Cl)cc1Cl)c1ccccc1

>  <score_type>  (26) 
oracle

>  <origin>  (26) 
adgpu

>  <m_score__min__energy>  (26) 
-7.8700000000000001

>  <m_primary>  (26) 
energy

$$$$
26:0
     RDKit          3D

 26 27  0  0  0  0  0  0  0  0999 V2000
   -3.9800   25.0290  -30.4640 O   0  0  0  0  0  0  0  0  0  0  0  0
   -4.8010   24.3110  -29.8270 C   0  0  0  0  0  0  0  0  0  0  0  0
   -4.6120   24.0850  -28.4170 N   0  0  0  0  0  0  0  0  0  0  0  0
   -3.4670   24.5440  -27.6780 C   0  0  0  0  0  0  0  0  0  0  0  0
   -3.5960   25.0920  -26.3890 C   0  0  0  0  0  0  0  0  0  0  0  0
   -2.4690   25.5550  -25.7040 C   0  0  0  0  0  0  0  0  0  0  0  0
   -1.2060   25.4910  -26.3010 C   0  0  0  0  0  0  0  0  0  0  0  0
    0.2010   26.0780  -25.4310 Cl  0  0  0  0  0  0  0  0  0  0  0  0
   -1.0730   24.9690  -27.5940 C   0  0  0  0  0  0  0  0  0  0  0  0
    0.1450   24.9130  -28.1890 F   0  0  0  0  0  0  0  0  0  0  0  0
   -2.2000   24.5060  -28.2810 C   0  0  0  0  0  0  0  0  0  0  0  0
   -5.9510   23.7220  -30.5540 C   0  0  0  0  0  0  0  0  0  0  0  0
   -6.1530   23.9610  -31.9270 C   0  0  0  0  0  0  0  0  0  0  0  0
   -7.2430   23.3890  -32.5920 C   0  0  0  0  0  0  0  0  0  0  0  0
   -8.1360   22.5680  -31.8990 C   0  0  0  0  0  0  0  0  0  0  0  0
   -7.9380   22.3120  -30.5410 C   0  0  0  0  0  0  0  0  0  0  0  0
   -6.8490   22.8810  -29.8710 C   0  0  0  0  0  0  0  0  0  0  0  0
   -5.3620   23.6040  -27.8730 H   0  0  0  0  0  0  0  0  0  0  0  0
   -4.5880   25.1565  -25.9180 H   0  0  0  0  0  0  0  0  0  0  0  0
   -2.5759   25.9713  -24.6915 H   0  0  0  0  0  0  0  0  0  0  0  0
   -2.0926   24.1092  -29.3013 H   0  0  0  0  0  0  0  0  0  0  0  0
   -5.4497   24.6011  -32.4799 H   0  0  0  0  0  0  0  0  0  0  0  0
   -7.3972   23.5862  -33.6631 H   0  0  0  0  0  0  0  0  0  0  0  0
   -8.9948   22.1234  -32.4232 H   0  0  0  0  0  0  0  0  0  0  0  0
   -8.6390   21.6621  -29.9968 H   0  0  0  0  0  0  0  0  0  0  0  0
   -6.6939   22.6693  -28.8028 H   0  0  0  0  0  0  0  0  0  0  0  0
  1  2  2  0
  2  3  1  0
  3  4  1  0
  4  5  2  0
  5  6  1  0
  6  7  2  0
  7  8  1  0
  7  9  1  0
  9 10  1  0
  9 11  2  0
  2 12  1  0
 12 13  2  0
 13 14  1  0
 14 15  2  0
 15 16  1  0
 16 17  2  0
 11  4  1  0
 17 12  1  0
  3 18  1  0
  5 19  1  0
  6 20  1  0
 11 21  1  0
 13 22  1  0
 14 23  1  0
 15 24  1  0
 16 25  1  0
 17 26  1  0
M  END
>  <UniqueID>  (27) 
27

>  <SMILES>  (27) 
O=C(Nc1ccc(Cl)c(F)c1)c1ccccc1

>  <Energy>  (27) 
34.046549118899954

>  <Genealogy>  (27) 
O=C(Nc1ccc(Cl)c(F)c1)c1ccccc1 (3D coordinates assigned)
O=C(Nc1ccc(Cl)c(F)c1)c1ccccc1 (optimized conformer: 34.046549118899954 kcal/mol)

>  <smiles>  (27) 
O=C(Nc1ccc(Cl)c(F)c1)c1ccccc1

>  <score_type>  (27) 
oracle

>  <origin>  (27) 
adgpu

>  <m_score__min__energy>  (27) 
-6.8600000000000003

>  <m_primary>  (27) 
energy

$$$$
27:0
     RDKit          3D

 34 36  0  0  0  0  0  0  0  0999 V2000
   -7.9110   20.0600  -32.7280 C   0  0  0  0  0  0  0  0  0  0  0  0
   -8.9210   20.5950  -31.9240 C   0  0  0  0  0  0  0  0  0  0  0  0
   -8.7090   21.7960  -31.2390 C   0  0  0  0  0  0  0  0  0  0  0  0
   -7.4780   22.4640  -31.3480 C   0  0  0  0  0  0  0  0  0  0  0  0
   -7.2610   23.7740  -30.6430 C   0  0  0  0  0  0  0  0  0  0  0  0
   -5.7970   24.0470  -30.5050 C   0  0  0  0  0  0  0  0  0  0  0  0
   -4.8960   23.3370  -29.7430 C   0  0  0  0  0  0  0  0  0  0  0  0
   -3.6970   23.8910  -29.9810 N   0  0  0  0  0  0  0  0  0  0  0  0
   -2.4300   23.5330  -29.3550 C   0  0  0  0  0  0  0  0  0  0  0  0
   -2.1650   24.4400  -28.1860 C   0  0  0  0  0  0  0  0  0  0  0  0
   -1.0880   25.3400  -28.2190 C   0  0  0  0  0  0  0  0  0  0  0  0
   -0.8660   26.2120  -27.1470 C   0  0  0  0  0  0  0  0  0  0  0  0
   -1.7240   26.1980  -26.0440 C   0  0  0  0  0  0  0  0  0  0  0  0
   -2.8070   25.3160  -26.0110 C   0  0  0  0  0  0  0  0  0  0  0  0
   -3.0320   24.4420  -27.0810 C   0  0  0  0  0  0  0  0  0  0  0  0
   -3.8530   24.8890  -30.8380 N   0  0  0  0  0  0  0  0  0  0  0  0
   -5.1280   24.9990  -31.1850 N   0  0  0  0  0  0  0  0  0  0  0  0
   -6.4730   21.9260  -32.1700 C   0  0  0  0  0  0  0  0  0  0  0  0
   -6.6890   20.7260  -32.8530 C   0  0  0  0  0  0  0  0  0  0  0  0
   -8.0781   19.1135  -33.2631 H   0  0  0  0  0  0  0  0  0  0  0  0
   -9.8837   20.0712  -31.8297 H   0  0  0  0  0  0  0  0  0  0  0  0
   -9.5087   22.2187  -30.6130 H   0  0  0  0  0  0  0  0  0  0  0  0
   -7.7285   24.5821  -31.2247 H   0  0  0  0  0  0  0  0  0  0  0  0
   -7.7138   23.7234  -29.6418 H   0  0  0  0  0  0  0  0  0  0  0  0
   -5.1142   22.4898  -29.0762 H   0  0  0  0  0  0  0  0  0  0  0  0
   -2.4770   22.4911  -29.0054 H   0  0  0  0  0  0  0  0  0  0  0  0
   -1.6186   23.6414  -30.0898 H   0  0  0  0  0  0  0  0  0  0  0  0
   -0.4166   25.3599  -29.0901 H   0  0  0  0  0  0  0  0  0  0  0  0
   -0.0154   26.9090  -27.1727 H   0  0  0  0  0  0  0  0  0  0  0  0
   -1.5465   26.8820  -25.2010 H   0  0  0  0  0  0  0  0  0  0  0  0
   -3.4834   25.3084  -25.1435 H   0  0  0  0  0  0  0  0  0  0  0  0
   -3.8905   23.7546  -27.0564 H   0  0  0  0  0  0  0  0  0  0  0  0
   -5.5125   22.4515  -32.2762 H   0  0  0  0  0  0  0  0  0  0  0  0
   -5.8965   20.3055  -33.4894 H   0  0  0  0  0  0  0  0  0  0  0  0
  1  2  2  0
  2  3  1  0
  3  4  2  0
  4  5  1  0
  5  6  1  0
  6  7  2  0
  7  8  1  0
  8  9  1  0
  9 10  1  0
 10 11  2  0
 11 12  1  0
 12 13  2  0
 13 14  1  0
 14 15  2  0
  8 16  1  0
 16 17  2  0
  4 18  1  0
 18 19  2  0
 19  1  1  0
 17  6  1  0
 15 10  1  0
  1 20  1  0
  2 21  1  0
  3 22  1  0
  5 23  1  0
  5 24  1  0
  7 25  1  0
  9 26  1  0
  9 27  1  0
 11 28  1  0
 12 29  1  0
 13 30  1  0
 14 31  1  0
 15 32  1  0
 18 33  1  0
 19 34  1  0
M  END
>  <UniqueID>  (28) 
28

>  <SMILES>  (28) 
c1ccc(Cc2cn(Cc3ccccc3)nn2)cc1

>  <Energy>  (28) 
67.77572031028026

>  <Genealogy>  (28) 
c1ccc(Cc2cn(Cc3ccccc3)nn2)cc1 (3D coordinates assigned)
c1ccc(Cc2cn(Cc3ccccc3)nn2)cc1 (optimized conformer: 67.77572031028026 kcal/mol)

>  <smiles>  (28) 
c1ccc(Cc2cn(Cc3ccccc3)nn2)cc1

>  <score_type>  (28) 
oracle

>  <origin>  (28) 
adgpu

>  <m_score__min__energy>  (28) 
-8.3399999999999999

>  <m_primary>  (28) 
energy

$$$$
28:0
     RDKit          3D

 30 31  0  0  0  0  0  0  0  0999 V2000
   -1.8840   22.3260  -30.0730 C   0  0  0  0  0  0  0  0  0  0  0  0
   -2.1020   23.7040  -29.7920 O   0  0  0  0  0  0  0  0  0  0  0  0
   -2.0130   24.2810  -28.5140 C   0  0  0  0  0  0  0  0  0  0  0  0
   -0.7720   24.5860  -27.9220 C   0  0  0  0  0  0  0  0  0  0  0  0
   -0.7180   25.1570  -26.6490 C   0  0  0  0  0  0  0  0  0  0  0  0
   -1.8950   25.4370  -25.9560 C   0  0  0  0  0  0  0  0  0  0  0  0
   -3.1320   25.1420  -26.5310 C   0  0  0  0  0  0  0  0  0  0  0  0
   -3.2030   24.5500  -27.8070 C   0  0  0  0  0  0  0  0  0  0  0  0
   -4.4790   24.2680  -28.4130 N   0  0  0  0  0  0  0  0  0  0  0  0
   -4.7590   24.4890  -29.8060 C   0  0  0  0  0  0  0  0  0  0  0  0
   -4.0440   25.2900  -30.4670 O   0  0  0  0  0  0  0  0  0  0  0  0
   -5.9100   23.8240  -30.4640 C   0  0  0  0  0  0  0  0  0  0  0  0
   -6.7530   22.9530  -29.7460 C   0  0  0  0  0  0  0  0  0  0  0  0
   -7.8300   22.3260  -30.3800 C   0  0  0  0  0  0  0  0  0  0  0  0
   -8.0770   22.5560  -31.7350 C   0  0  0  0  0  0  0  0  0  0  0  0
   -9.1210   21.9460  -32.3470 F   0  0  0  0  0  0  0  0  0  0  0  0
   -7.2420   23.4090  -32.4620 C   0  0  0  0  0  0  0  0  0  0  0  0
   -6.1630   24.0370  -31.8330 C   0  0  0  0  0  0  0  0  0  0  0  0
   -1.7958   21.7687  -29.1287 H   0  0  0  0  0  0  0  0  0  0  0  0
   -2.7309   21.9318  -30.6537 H   0  0  0  0  0  0  0  0  0  0  0  0
   -0.9567   22.2124  -30.6537 H   0  0  0  0  0  0  0  0  0  0  0  0
    0.1602   24.3731  -28.4657 H   0  0  0  0  0  0  0  0  0  0  0  0
    0.2557   25.3866  -26.1916 H   0  0  0  0  0  0  0  0  0  0  0  0
   -1.8486   25.8909  -24.9551 H   0  0  0  0  0  0  0  0  0  0  0  0
   -4.0578   25.3734  -25.9839 H   0  0  0  0  0  0  0  0  0  0  0  0
   -5.2700   23.9890  -27.7910 H   0  0  0  0  0  0  0  0  0  0  0  0
   -6.5626   22.7649  -28.6791 H   0  0  0  0  0  0  0  0  0  0  0  0
   -8.4843   21.6499  -29.8100 H   0  0  0  0  0  0  0  0  0  0  0  0
   -7.4341   23.5864  -33.5305 H   0  0  0  0  0  0  0  0  0  0  0  0
   -5.5062   24.7029  -32.4120 H   0  0  0  0  0  0  0  0  0  0  0  0
  1  2  1  0
  2  3  1  0
  3  4  2  0
  4  5  1  0
  5  6  2  0
  6  7  1  0
  7  8  2  0
  8  9  1  0
  9 10  1  0
 10 11  2  0
 10 12  1  0
 12 13  2  0
 13 14  1  0
 14 15  2  0
 15 16  1  0
 15 17  1  0
 17 18  2  0
  8  3  1  0
 18 12  1  0
  1 19  1  0
  1 20  1  0
  1 21  1  0
  4 22  1  0
  5 23  1  0
  6 24  1  0
  7 25  1  0
  9 26  1  0
 13 27  1  0
 14 28  1  0
 17 29  1  0
 18 30  1  0
M  END
>  <UniqueID>  (29) 
29

>  <SMILES>  (29) 
COc1ccccc1NC(=O)c1ccc(F)cc1

>  <Energy>  (29) 
36.27962108756642

>  <Genealogy>  (29) 
COc1ccccc1NC(=O)c1ccc(F)cc1 (3D coordinates assigned)
COc1ccccc1NC(=O)c1ccc(F)cc1 (optimized conformer: 36.27962108756642 kcal/mol)

>  <smiles>  (29) 
COc1ccccc1NC(=O)c1ccc(F)cc1

>  <score_type>  (29) 
oracle

>  <origin>  (29) 
adgpu

>  <m_score__min__energy>  (29) 
-7.1699999999999999

>  <m_primary>  (29) 
energy

$$$$
29:0
     RDKit          3D

 14 14  0  0  0  0  0  0  0  0999 V2000
   -3.8590   25.6670  -30.8020 O   0  0  0  0  0  0  0  0  0  0  0  0
   -3.8740   24.4380  -30.5250 C   0  0  0  0  0  0  0  0  0  0  0  0
   -2.8030   23.9120  -29.8140 O   0  0  0  0  0  0  0  0  0  0  0  0
   -5.0200   23.5890  -30.9570 C   0  0  0  0  0  0  0  0  0  0  0  0
   -4.7530   22.4300  -31.7160 C   0  0  0  0  0  0  0  0  0  0  0  0
   -5.7890   21.5970  -32.1480 C   0  0  0  0  0  0  0  0  0  0  0  0
   -5.4280   20.1620  -33.0900 Cl  0  0  0  0  0  0  0  0  0  0  0  0
   -7.1100   21.9060  -31.8290 C   0  0  0  0  0  0  0  0  0  0  0  0
   -7.4000   23.0450  -31.0800 C   0  0  0  0  0  0  0  0  0  0  0  0
   -6.3720   23.8910  -30.6390 C   0  0  0  0  0  0  0  0  0  0  0  0
   -6.8580   25.3000  -29.7010 Cl  0  0  0  0  0  0  0  0  0  0  0  0
   -3.7133   22.1780  -31.9718 H   0  0  0  0  0  0  0  0  0  0  0  0
   -7.9249   21.2500  -32.1689 H   0  0  0  0  0  0  0  0  0  0  0  0
   -8.4451   23.2827  -30.8324 H   0  0  0  0  0  0  0  0  0  0  0  0
  1  2  2  0
  2  3  1  0
  2  4  1  0
  4  5  2  0
  5  6  1  0
  6  7  1  0
  6  8  2  0
  8  9  1  0
  9 10  2  0
 10 11  1  0
 10  4  1  0
  5 12  1  0
  8 13  1  0
  9 14  1  0
M  CHG  1   3  -1
M  END
>  <UniqueID>  (30) 
30

>  <SMILES>  (30) 
O=C([O-])c1cc(Cl)ccc1Cl

>  <Energy>  (30) 
17.344330511339546

>  <Genealogy>  (30) 
O=C([O-])c1cc(Cl)ccc1Cl (protonated)
O=C([O-])c1cc(Cl)ccc1Cl (3D coordinates assigned)
O=C([O-])c1cc(Cl)ccc1Cl (optimized conformer: 17.344330511339546 kcal/mol)

>  <smiles>  (30) 
O=C(O)c1cc(Cl)ccc1Cl

>  <score_type>  (30) 
oracle

>  <origin>  (30) 
adgpu

>  <m_score__min__energy>  (30) 
-7.4800000000000004

>  <m_primary>  (30) 
energy

$$$$
30:0
     RDKit          3D

 28 29  0  0  0  0  0  0  0  0999 V2000
   -8.8632   20.9912  -30.6386 H   0  0  0  0  0  0  0  0  0  0  0  0
   -7.9560   21.5100  -30.9820 C   0  0  0  0  0  0  0  0  0  0  0  0
   -7.6070   22.7470  -30.4290 C   0  0  0  0  0  0  0  0  0  0  0  0
   -8.2457   23.2021  -29.6577 H   0  0  0  0  0  0  0  0  0  0  0  0
   -6.4440   23.4100  -30.8550 C   0  0  0  0  0  0  0  0  0  0  0  0
   -6.0910   24.7580  -30.2930 C   0  0  0  0  0  0  0  0  0  0  0  0
   -6.6400   24.9169  -29.3531 H   0  0  0  0  0  0  0  0  0  0  0  0
   -6.3656   25.5374  -31.0191 H   0  0  0  0  0  0  0  0  0  0  0  0
   -4.6210   24.8270  -30.0270 C   0  0  0  0  0  0  0  0  0  0  0  0
   -3.8690   25.4230  -30.8450 O   0  0  0  0  0  0  0  0  0  0  0  0
   -4.1000   24.2610  -28.8150 N   0  0  0  0  0  0  0  0  0  0  0  0
   -2.9540   24.5000  -28.2390 C   0  0  0  0  0  0  0  0  0  0  0  0
   -2.7020   23.9060  -26.9940 C   0  0  0  0  0  0  0  0  0  0  0  0
   -3.4609   23.2616  -26.5262 H   0  0  0  0  0  0  0  0  0  0  0  0
   -1.4860   24.1350  -26.3510 C   0  0  0  0  0  0  0  0  0  0  0  0
   -1.2863   23.6784  -25.3704 H   0  0  0  0  0  0  0  0  0  0  0  0
   -0.5240   24.9440  -26.9540 C   0  0  0  0  0  0  0  0  0  0  0  0
    1.1490   25.2650  -26.0890 Br  0  0  0  0  0  0  0  0  0  0  0  0
   -0.7910   25.5040  -28.2050 C   0  0  0  0  0  0  0  0  0  0  0  0
   -0.0346   26.1352  -28.6943 H   0  0  0  0  0  0  0  0  0  0  0  0
   -1.9830   25.2730  -28.8230 N   0  0  0  0  0  0  0  0  0  0  0  0
   -2.1020   25.6750  -29.7770 H   0  0  0  0  0  0  0  0  0  0  0  0
   -5.6490   22.8300  -31.8580 C   0  0  0  0  0  0  0  0  0  0  0  0
   -4.7466   23.3504  -32.2113 H   0  0  0  0  0  0  0  0  0  0  0  0
   -6.0010   21.5930  -32.4090 C   0  0  0  0  0  0  0  0  0  0  0  0
   -5.3705   21.1396  -33.1881 H   0  0  0  0  0  0  0  0  0  0  0  0
   -7.1530   20.9320  -31.9710 C   0  0  0  0  0  0  0  0  0  0  0  0
   -7.5940   19.3830  -32.6650 Cl  0  0  0  0  0  0  0  0  0  0  0  0
  1  2  1  0
  2  3  2  0
  3  4  1  0
  3  5  1  0
  5  6  1  0
  6  7  1  0
  6  8  1  0
  6  9  1  0
  9 10  2  0
  9 11  1  0
 11 12  2  0
 12 13  1  0
 13 14  1  0
 13 15  2  0
 15 16  1  0
 15 17  1  0
 17 18  1  0
 17 19  2  0
 19 20  1  0
 19 21  1  0
 21 22  1  0
  5 23  2  0
 23 24  1  0
 23 25  1  0
 25 26  1  0
 25 27  2  0
 27 28  1  0
 27  2  1  0
 21 12  1  0
M  END
>  <UniqueID>  (31) 
31

>  <SMILES>  (31) 
O=C(Cc1ccc(Cl)cc1)/N=c1/ccc(Br)c[nH]1

>  <Energy>  (31) 
33.612464419385084

>  <Genealogy>  (31) 
O=C(Cc1ccc(Cl)cc1)/N=c1/ccc(Br)c[nH]1 (cis-trans isomerization)
O=C(Cc1ccc(Cl)cc1)/N=c1/ccc(Br)c[nH]1 (3D coordinates assigned)
O=C(Cc1ccc(Cl)cc1)/N=c1/ccc(Br)c[nH]1 (optimized conformer: 33.612464419385084 kcal/mol)

>  <smiles>  (31) 
O=C(Cc1ccc(Cl)cc1)N=c1ccc(Br)c[nH]1

>  <score_type>  (31) 
oracle

>  <origin>  (31) 
adgpu

>  <m_score__min__energy>  (31) 
-8.3100000000000005

>  <m_primary>  (31) 
energy

$$$$
31:0
     RDKit          3D

 43 46  0  0  0  0  0  0  0  0999 V2000
    2.4750   25.4520  -24.2470 C   0  0  0  0  0  0  0  0  0  0  0  0
    2.5200   25.4650  -25.6700 O   0  0  0  0  0  0  0  0  0  0  0  0
    1.4130   25.2300  -26.5000 C   0  0  0  0  0  0  0  0  0  0  0  0
    0.3810   26.1710  -26.6660 C   0  0  0  0  0  0  0  0  0  0  0  0
   -0.7030   25.8890  -27.5020 C   0  0  0  0  0  0  0  0  0  0  0  0
   -0.7760   24.6670  -28.1940 C   0  0  0  0  0  0  0  0  0  0  0  0
   -1.9320   24.3840  -29.0790 C   0  0  0  0  0  0  0  0  0  0  0  0
   -2.1830   23.1910  -29.7650 C   0  0  0  0  0  0  0  0  0  0  0  0
   -3.3540   23.4580  -30.4310 C   0  0  0  0  0  0  0  0  0  0  0  0
   -4.0500   22.6430  -31.2580 N   0  0  0  0  0  0  0  0  0  0  0  0
   -5.2040   23.1030  -31.8290 C   0  0  0  0  0  0  0  0  0  0  0  0
   -5.9630   22.2580  -32.7080 N   0  0  0  0  0  0  0  0  0  0  0  0
   -5.6290   20.8530  -32.9320 C   0  0  0  0  0  0  0  0  0  0  0  0
   -6.7890   19.9730  -32.5510 C   0  0  0  0  0  0  0  0  0  0  0  0
   -6.6070   18.5920  -32.3600 C   0  0  0  0  0  0  0  0  0  0  0  0
   -7.6860   17.7850  -31.9850 C   0  0  0  0  0  0  0  0  0  0  0  0
   -8.9510   18.3510  -31.7980 C   0  0  0  0  0  0  0  0  0  0  0  0
   -9.1390   19.7230  -31.9830 C   0  0  0  0  0  0  0  0  0  0  0  0
   -8.0620   20.5330  -32.3560 C   0  0  0  0  0  0  0  0  0  0  0  0
   -5.6500   24.4170  -31.5570 C   0  0  0  0  0  0  0  0  0  0  0  0
   -4.8930   25.2230  -30.6940 C   0  0  0  0  0  0  0  0  0  0  0  0
   -5.2540   26.3990  -30.4210 O   0  0  0  0  0  0  0  0  0  0  0  0
   -3.7610   24.6990  -30.1620 N   0  0  0  0  0  0  0  0  0  0  0  0
   -2.9110   25.2880  -29.3400 N   0  0  0  0  0  0  0  0  0  0  0  0
    0.2610   23.7310  -28.0250 C   0  0  0  0  0  0  0  0  0  0  0  0
    1.3420   24.0130  -27.1850 C   0  0  0  0  0  0  0  0  0  0  0  0
    3.4592   25.7363  -23.8464 H   0  0  0  0  0  0  0  0  0  0  0  0
    1.7162   26.1677  -23.8976 H   0  0  0  0  0  0  0  0  0  0  0  0
    2.2148   24.4419  -23.8976 H   0  0  0  0  0  0  0  0  0  0  0  0
    0.4272   27.1334  -26.1354 H   0  0  0  0  0  0  0  0  0  0  0  0
   -1.5071   26.6304  -27.6198 H   0  0  0  0  0  0  0  0  0  0  0  0
   -1.5882   22.2657  -29.7698 H   0  0  0  0  0  0  0  0  0  0  0  0
   -6.7790   22.6590  -33.2230 H   0  0  0  0  0  0  0  0  0  0  0  0
   -5.3925   20.7014  -33.9955 H   0  0  0  0  0  0  0  0  0  0  0  0
   -4.7603   20.5884  -32.3113 H   0  0  0  0  0  0  0  0  0  0  0  0
   -5.6127   18.1448  -32.5060 H   0  0  0  0  0  0  0  0  0  0  0  0
   -7.5395   16.7049  -31.8371 H   0  0  0  0  0  0  0  0  0  0  0  0
   -9.7993   17.7151  -31.5048 H   0  0  0  0  0  0  0  0  0  0  0  0
  -10.1348   20.1662  -31.8351 H   0  0  0  0  0  0  0  0  0  0  0  0
   -8.2125   21.6135  -32.4973 H   0  0  0  0  0  0  0  0  0  0  0  0
   -6.5742   24.8003  -32.0141 H   0  0  0  0  0  0  0  0  0  0  0  0
    0.2206   22.7697  -28.5582 H   0  0  0  0  0  0  0  0  0  0  0  0
    2.1443   23.2707  -27.0616 H   0  0  0  0  0  0  0  0  0  0  0  0
  1  2  1  0
  2  3  1  0
  3  4  2  0
  4  5  1  0
  5  6  2  0
  6  7  1  0
  7  8  2  0
  8  9  1  0
  9 10  2  0
 10 11  1  0
 11 12  1  0
 12 13  1  0
 13 14  1  0
 14 15  2  0
 15 16  1  0
 16 17  2  0
 17 18  1  0
 18 19  2  0
 11 20  2  0
 20 21  1  0
 21 22  2  0
 21 23  1  0
 23 24  1  0
  6 25  1  0
 25 26  2  0
 26  3  1  0
 24  7  1  0
 23  9  1  0
 19 14  1  0
  1 27  1  0
  1 28  1  0
  1 29  1  0
  4 30  1  0
  5 31  1  0
  8 32  1  0
 12 33  1  0
 13 34  1  0
 13 35  1  0
 15 36  1  0
 16 37  1  0
 17 38  1  0
 18 39  1  0
 19 40  1  0
 20 41  1  0
 25 42  1  0
 26 43  1  0
M  CHG  1  24  -1
M  END
>  <UniqueID>  (32) 
32

>  <SMILES>  (32) 
COc1ccc(-c2cc3nc(NCc4ccccc4)cc(=O)n3[n-]2)cc1

>  <Energy>  (32) 
82.88939626820337

>  <Genealogy>  (32) 
COc1ccc(-c2cc3nc(NCc4ccccc4)cc(=O)n3[n-]2)cc1 (protonated)
COc1ccc(-c2cc3nc(NCc4ccccc4)cc(=O)n3[n-]2)cc1 (3D coordinates assigned)
COc1ccc(-c2cc3nc(NCc4ccccc4)cc(=O)n3[n-]2)cc1 (optimized conformer: 82.88939626820337 kcal/mol)

>  <smiles>  (32) 
COc1ccc(-c2cc3nc(NCc4ccccc4)cc(=O)n3[nH]2)cc1

>  <score_type>  (32) 
oracle

>  <origin>  (32) 
adgpu

>  <m_score__min__energy>  (32) 
-9.7300000000000004

>  <m_primary>  (32) 
energy

$$$$
32:0
     RDKit          3D

 36 39  0  0  0  0  0  0  0  0999 V2000
    4.2600   19.7450  -34.3620 H   0  0  0  0  0  0  0  0  0  0  0  0
    3.7520   19.4090  -33.5130 N   0  0  0  0  0  0  0  0  0  0  0  0
    2.4990   19.6650  -33.3050 C   0  0  0  0  0  0  0  0  0  0  0  0
    1.7560   20.4160  -34.2250 C   0  0  0  0  0  0  0  0  0  0  0  0
    2.2311   20.7999  -35.1399 H   0  0  0  0  0  0  0  0  0  0  0  0
    0.4450   20.6660  -33.9780 N   0  0  0  0  0  0  0  0  0  0  0  0
   -0.1740   20.2130  -32.8530 C   0  0  0  0  0  0  0  0  0  0  0  0
   -1.6130   20.5150  -32.6380 C   0  0  0  0  0  0  0  0  0  0  0  0
   -2.2580   20.1900  -31.4290 C   0  0  0  0  0  0  0  0  0  0  0  0
   -1.6923   19.6984  -30.6238 H   0  0  0  0  0  0  0  0  0  0  0  0
   -3.6110   20.4870  -31.2440 C   0  0  0  0  0  0  0  0  0  0  0  0
   -4.1020   20.2313  -30.2935 H   0  0  0  0  0  0  0  0  0  0  0  0
   -4.3460   21.1090  -32.2630 C   0  0  0  0  0  0  0  0  0  0  0  0
   -5.7750   21.4380  -32.0600 C   0  0  0  0  0  0  0  0  0  0  0  0
   -6.7300   20.4560  -32.3790 C   0  0  0  0  0  0  0  0  0  0  0  0
   -6.3984   19.4583  -32.7026 H   0  0  0  0  0  0  0  0  0  0  0  0
   -8.0930   20.7350  -32.2890 C   0  0  0  0  0  0  0  0  0  0  0  0
   -8.8302   19.9580  -32.5398 H   0  0  0  0  0  0  0  0  0  0  0  0
   -8.5230   21.9960  -31.8820 C   0  0  0  0  0  0  0  0  0  0  0  0
   -9.5991   22.2167  -31.8237 H   0  0  0  0  0  0  0  0  0  0  0  0
   -7.5910   22.9800  -31.5480 C   0  0  0  0  0  0  0  0  0  0  0  0
   -7.9395   23.9736  -31.2297 H   0  0  0  0  0  0  0  0  0  0  0  0
   -6.2100   22.7150  -31.6140 C   0  0  0  0  0  0  0  0  0  0  0  0
   -5.2670   23.7720  -31.1690 C   0  0  0  0  0  0  0  0  0  0  0  0
   -5.5100   25.0950  -31.2190 N   0  0  0  0  0  0  0  0  0  0  0  0
   -4.4010   25.6630  -30.7740 N   0  0  0  0  0  0  0  0  0  0  0  0
   -3.5130   24.7300  -30.4740 N   0  0  0  0  0  0  0  0  0  0  0  0
   -4.0220   23.5330  -30.7150 N   0  0  0  0  0  0  0  0  0  0  0  0
   -3.7030   21.4600  -33.4580 C   0  0  0  0  0  0  0  0  0  0  0  0
   -4.2663   21.9702  -34.2532 H   0  0  0  0  0  0  0  0  0  0  0  0
   -2.3500   21.1650  -33.6440 C   0  0  0  0  0  0  0  0  0  0  0  0
   -1.8564   21.4439  -34.5866 H   0  0  0  0  0  0  0  0  0  0  0  0
    0.5730   19.4510  -31.9370 C   0  0  0  0  0  0  0  0  0  0  0  0
    0.0965   19.0611  -31.0255 H   0  0  0  0  0  0  0  0  0  0  0  0
    1.8860   19.1980  -32.1820 N   0  0  0  0  0  0  0  0  0  0  0  0
    2.4270   18.6280  -31.4920 H   0  0  0  0  0  0  0  0  0  0  0  0
  1  2  1  0
  2  3  2  0
  3  4  1  0
  4  5  1  0
  4  6  2  0
  6  7  1  0
  7  8  1  0
  8  9  2  0
  9 10  1  0
  9 11  1  0
 11 12  1  0
 11 13  2  0
 13 14  1  0
 14 15  2  0
 15 16  1  0
 15 17  1  0
 17 18  1  0
 17 19  2  0
 19 20  1  0
 19 21  1  0
 21 22  1  0
 21 23  2  0
 23 24  1  0
 24 25  1  0
 25 26  2  0
 26 27  1  0
 27 28  1  0
 13 29  1  0
 29 30  1  0
 29 31  2  0
 31 32  1  0
  7 33  2  0
 33 34  1  0
 33 35  1  0
 35 36  1  0
 35  3  1  0
 31  8  1  0
 23 14  1  0
 28 24  2  0
M  CHG  1  27  -1
M  END
>  <UniqueID>  (33) 
33

>  <SMILES>  (33) 
[H]/N=c1\cnc(-c2ccc(-c3ccccc3-c3nn[n-]n3)cc2)c[nH]1

>  <Energy>  (33) 
95.25366999973103

>  <Genealogy>  (33) 
N=c1cnc(-c2ccc(-c3ccccc3-c3nn[n-]n3)cc2)c[nH]1 (protonated)
[H]/N=c1\cnc(-c2ccc(-c3ccccc3-c3nn[n-]n3)cc2)c[nH]1 (cis-trans isomerization)
[H]/N=c1\cnc(-c2ccc(-c3ccccc3-c3nn[n-]n3)cc2)c[nH]1 (3D coordinates assigned)
[H]/N=c1\cnc(-c2ccc(-c3ccccc3-c3nn[n-]n3)cc2)c[nH]1 (optimized conformer: 95.25366999973103 kcal/mol)

>  <smiles>  (33) 
N=c1cnc(-c2ccc(-c3ccccc3-c3nn[nH]n3)cc2)c[nH]1

>  <score_type>  (33) 
oracle

>  <origin>  (33) 
adgpu

>  <m_score__min__energy>  (33) 
-9.4700000000000006

>  <m_primary>  (33) 
energy

$$$$
33:0
     RDKit          3D

 42 45  0  0  0  0  0  0  0  0999 V2000
   -2.4220   25.6730  -30.3610 H   0  0  0  0  0  0  0  0  0  0  0  0
   -3.1070   25.2630  -29.7360 O   0  0  0  0  0  0  0  0  0  0  0  0
   -4.2630   24.6550  -30.2210 C   0  0  0  0  0  0  0  0  0  0  0  0
   -5.5250   25.1870  -29.9300 C   0  0  0  0  0  0  0  0  0  0  0  0
   -5.6105   26.0917  -29.3102 H   0  0  0  0  0  0  0  0  0  0  0  0
   -6.6750   24.5700  -30.4260 C   0  0  0  0  0  0  0  0  0  0  0  0
   -7.6649   24.9930  -30.1997 H   0  0  0  0  0  0  0  0  0  0  0  0
   -6.5730   23.4170  -31.2090 C   0  0  0  0  0  0  0  0  0  0  0  0
   -7.4830   22.9393  -31.6010 H   0  0  0  0  0  0  0  0  0  0  0  0
   -5.3090   22.8630  -31.4990 C   0  0  0  0  0  0  0  0  0  0  0  0
   -5.1420   21.6460  -32.3270 C   0  0  0  0  0  0  0  0  0  0  0  0
   -5.6401   21.6151  -33.3073 H   0  0  0  0  0  0  0  0  0  0  0  0
   -4.4200   20.5800  -31.9530 C   0  0  0  0  0  0  0  0  0  0  0  0
   -3.9348   20.5855  -30.9658 H   0  0  0  0  0  0  0  0  0  0  0  0
   -4.2550   19.3970  -32.8250 C   0  0  0  0  0  0  0  0  0  0  0  0
   -3.0080   19.1520  -33.3030 N   0  0  0  0  0  0  0  0  0  0  0  0
   -2.7430   18.0810  -34.0890 C   0  0  0  0  0  0  0  0  0  0  0  0
   -1.4410   17.8580  -34.5510 C   0  0  0  0  0  0  0  0  0  0  0  0
   -0.6345   18.5552  -34.2801 H   0  0  0  0  0  0  0  0  0  0  0  0
   -1.1650   16.7490  -35.3570 C   0  0  0  0  0  0  0  0  0  0  0  0
   -0.1411   16.5739  -35.7190 H   0  0  0  0  0  0  0  0  0  0  0  0
   -2.1890   15.8630  -35.7030 C   0  0  0  0  0  0  0  0  0  0  0  0
   -1.9686   14.9911  -36.3364 H   0  0  0  0  0  0  0  0  0  0  0  0
   -3.4920   16.0810  -35.2470 C   0  0  0  0  0  0  0  0  0  0  0  0
   -4.2946   15.3812  -35.5229 H   0  0  0  0  0  0  0  0  0  0  0  0
   -3.7790   17.1950  -34.4350 C   0  0  0  0  0  0  0  0  0  0  0  0
   -5.0720   17.4690  -33.9620 C   0  0  0  0  0  0  0  0  0  0  0  0
   -6.0300   16.7090  -34.2840 O   0  0  0  0  0  0  0  0  0  0  0  0
   -5.3020   18.5700  -33.1710 N   0  0  0  0  0  0  0  0  0  0  0  0
   -6.6570   18.8790  -32.7790 C   0  0  0  0  0  0  0  0  0  0  0  0
   -7.2630   18.1830  -31.7180 C   0  0  0  0  0  0  0  0  0  0  0  0
   -6.6969   17.4143  -31.1715 H   0  0  0  0  0  0  0  0  0  0  0  0
   -8.5840   18.4660  -31.3560 C   0  0  0  0  0  0  0  0  0  0  0  0
   -9.0569   17.9160  -30.5290 H   0  0  0  0  0  0  0  0  0  0  0  0
   -9.3040   19.4470  -32.0440 C   0  0  0  0  0  0  0  0  0  0  0  0
  -10.3435   19.6665  -31.7591 H   0  0  0  0  0  0  0  0  0  0  0  0
   -8.7050   20.1490  -33.0930 C   0  0  0  0  0  0  0  0  0  0  0  0
   -9.2723   20.9225  -33.6313 H   0  0  0  0  0  0  0  0  0  0  0  0
   -7.3850   19.8690  -33.4590 C   0  0  0  0  0  0  0  0  0  0  0  0
   -6.9149   20.4262  -34.2827 H   0  0  0  0  0  0  0  0  0  0  0  0
   -4.1580   23.5020  -31.0060 C   0  0  0  0  0  0  0  0  0  0  0  0
   -3.1648   23.0912  -31.2399 H   0  0  0  0  0  0  0  0  0  0  0  0
  1  2  1  0
  2  3  1  0
  3  4  2  0
  4  5  1  0
  4  6  1  0
  6  7  1  0
  6  8  2  0
  8  9  1  0
  8 10  1  0
 10 11  1  0
 11 12  1  0
 11 13  2  0
 13 14  1  0
 13 15  1  0
 15 16  2  0
 16 17  1  0
 17 18  2  0
 18 19  1  0
 18 20  1  0
 20 21  1  0
 20 22  2  0
 22 23  1  0
 22 24  1  0
 24 25  1  0
 24 26  2  0
 26 27  1  0
 27 28  2  0
 27 29  1  0
 29 30  1  0
 30 31  2  0
 31 32  1  0
 31 33  1  0
 33 34  1  0
 33 35  2  0
 35 36  1  0
 35 37  1  0
 37 38  1  0
 37 39  2  0
 39 40  1  0
 10 41  2  0
 41 42  1  0
 41  3  1  0
 29 15  1  0
 39 30  1  0
 26 17  1  0
M  END
>  <UniqueID>  (34) 
34

>  <SMILES>  (34) 
O=c1c2ccccc2nc(/C=C/c2cccc(O)c2)n1-c1ccccc1

>  <Energy>  (34) 
67.75981778888513

>  <Genealogy>  (34) 
O=c1c2ccccc2nc(/C=C/c2cccc(O)c2)n1-c1ccccc1 (cis-trans isomerization)
O=c1c2ccccc2nc(/C=C/c2cccc(O)c2)n1-c1ccccc1 (3D coordinates assigned)
O=c1c2ccccc2nc(/C=C/c2cccc(O)c2)n1-c1ccccc1 (optimized conformer: 67.75981778888513 kcal/mol)

>  <smiles>  (34) 
O=c1c2ccccc2nc(C=Cc2cccc(O)c2)n1-c1ccccc1

>  <score_type>  (34) 
oracle

>  <origin>  (34) 
adgpu

>  <m_score__min__energy>  (34) 
-10.02

>  <m_primary>  (34) 
energy

$$$$
34:0
     RDKit          3D

 34 36  0  0  0  0  0  0  0  0999 V2000
   -4.6040   24.5550  -31.1150 O   0  0  0  0  0  0  0  0  0  0  0  0
   -5.2330   23.7050  -30.4270 C   0  0  0  0  0  0  0  0  0  0  0  0
   -4.8950   23.5110  -29.0400 N   0  0  0  0  0  0  0  0  0  0  0  0
   -3.8040   24.1740  -28.3810 C   0  0  0  0  0  0  0  0  0  0  0  0
   -3.9420   24.5550  -27.0370 C   0  0  0  0  0  0  0  0  0  0  0  0
   -2.8860   25.1790  -26.3650 C   0  0  0  0  0  0  0  0  0  0  0  0
   -1.6770   25.4130  -27.0260 C   0  0  0  0  0  0  0  0  0  0  0  0
   -1.5200   25.0160  -28.3560 C   0  0  0  0  0  0  0  0  0  0  0  0
   -2.5750   24.3920  -29.0320 C   0  0  0  0  0  0  0  0  0  0  0  0
   -6.3190   22.9270  -31.0710 C   0  0  0  0  0  0  0  0  0  0  0  0
   -7.6160   23.4600  -31.1260 C   0  0  0  0  0  0  0  0  0  0  0  0
   -8.6510   22.7430  -31.7290 C   0  0  0  0  0  0  0  0  0  0  0  0
   -8.4080   21.4820  -32.2750 C   0  0  0  0  0  0  0  0  0  0  0  0
   -7.1220   20.9170  -32.2170 C   0  0  0  0  0  0  0  0  0  0  0  0
   -6.8740   19.6060  -32.7660 N   0  0  0  0  0  0  0  0  0  0  0  0
   -6.1180   19.3140  -33.8470 C   0  0  0  0  0  0  0  0  0  0  0  0
   -6.1150   17.9520  -34.0650 C   0  0  0  0  0  0  0  0  0  0  0  0
   -6.9030   17.3920  -33.0800 C   0  0  0  0  0  0  0  0  0  0  0  0
   -7.3530   18.4350  -32.2970 C   0  0  0  0  0  0  0  0  0  0  0  0
   -6.0830   21.6480  -31.6080 C   0  0  0  0  0  0  0  0  0  0  0  0
   -5.4970   22.8940  -28.4510 H   0  0  0  0  0  0  0  0  0  0  0  0
   -4.8872   24.3614  -26.5087 H   0  0  0  0  0  0  0  0  0  0  0  0
   -3.0071   25.4858  -25.3156 H   0  0  0  0  0  0  0  0  0  0  0  0
   -0.8491   25.9098  -26.4989 H   0  0  0  0  0  0  0  0  0  0  0  0
   -0.5656   25.1941  -28.8731 H   0  0  0  0  0  0  0  0  0  0  0  0
   -2.4432   24.0708  -30.0758 H   0  0  0  0  0  0  0  0  0  0  0  0
   -7.8186   24.4498  -30.6909 H   0  0  0  0  0  0  0  0  0  0  0  0
   -9.6621   23.1738  -31.7739 H   0  0  0  0  0  0  0  0  0  0  0  0
   -9.2279   20.9265  -32.7538 H   0  0  0  0  0  0  0  0  0  0  0  0
   -5.5839   20.0531  -34.4622 H   0  0  0  0  0  0  0  0  0  0  0  0
   -5.5872   17.4163  -34.8678 H   0  0  0  0  0  0  0  0  0  0  0  0
   -7.1281   16.3237  -32.9456 H   0  0  0  0  0  0  0  0  0  0  0  0
   -8.0067   18.3277  -31.4188 H   0  0  0  0  0  0  0  0  0  0  0  0
   -5.0741   21.2132  -31.5516 H   0  0  0  0  0  0  0  0  0  0  0  0
  1  2  2  0
  2  3  1  0
  3  4  1  0
  4  5  2  0
  5  6  1  0
  6  7  2  0
  7  8  1  0
  8  9  2  0
  2 10  1  0
 10 11  2  0
 11 12  1  0
 12 13  2  0
 13 14  1  0
 14 15  1  0
 15 16  1  0
 16 17  2  0
 17 18  1  0
 18 19  2  0
 14 20  2  0
  9  4  1  0
 20 10  1  0
 19 15  1  0
  3 21  1  0
  5 22  1  0
  6 23  1  0
  7 24  1  0
  8 25  1  0
  9 26  1  0
 11 27  1  0
 12 28  1  0
 13 29  1  0
 16 30  1  0
 17 31  1  0
 18 32  1  0
 19 33  1  0
 20 34  1  0
M  END
>  <UniqueID>  (35) 
35

>  <SMILES>  (35) 
O=C(Nc1ccccc1)c1cccc(-n2cccc2)c1

>  <Energy>  (35) 
72.88360095317562

>  <Genealogy>  (35) 
O=C(Nc1ccccc1)c1cccc(-n2cccc2)c1 (3D coordinates assigned)
O=C(Nc1ccccc1)c1cccc(-n2cccc2)c1 (optimized conformer: 72.88360095317562 kcal/mol)

>  <smiles>  (35) 
O=C(Nc1ccccc1)c1cccc(-n2cccc2)c1

>  <score_type>  (35) 
oracle

>  <origin>  (35) 
adgpu

>  <m_score__min__energy>  (35) 
-8.1300000000000008

>  <m_primary>  (35) 
energy

$$$$
35:0
     RDKit          3D

 27 28  0  0  0  0  0  0  0  0999 V2000
   -2.7900   25.2930  -29.6810 O   0  0  0  0  0  0  0  0  0  0  0  0
   -3.8370   24.6980  -30.3730 C   0  0  0  0  0  0  0  0  0  0  0  0
   -3.6810   23.4200  -30.9150 C   0  0  0  0  0  0  0  0  0  0  0  0
   -4.7330   22.8180  -31.6120 C   0  0  0  0  0  0  0  0  0  0  0  0
   -5.9610   23.4930  -31.7710 C   0  0  0  0  0  0  0  0  0  0  0  0
   -7.0690   22.9040  -32.4770 N   0  0  0  0  0  0  0  0  0  0  0  0
   -8.0090   21.9450  -31.8940 C   0  0  0  0  0  0  0  0  0  0  0  0
   -7.6450   20.5370  -32.2840 C   0  0  0  0  0  0  0  0  0  0  0  0
   -8.3160   19.4490  -31.7020 C   0  0  0  0  0  0  0  0  0  0  0  0
   -7.9850   18.1400  -32.0670 C   0  0  0  0  0  0  0  0  0  0  0  0
   -6.9900   17.9080  -33.0190 C   0  0  0  0  0  0  0  0  0  0  0  0
   -6.3250   18.9850  -33.6130 C   0  0  0  0  0  0  0  0  0  0  0  0
   -5.3380   18.7540  -34.5630 O   0  0  0  0  0  0  0  0  0  0  0  0
   -6.6530   20.2970  -33.2510 C   0  0  0  0  0  0  0  0  0  0  0  0
   -6.1030   24.7800  -31.2260 C   0  0  0  0  0  0  0  0  0  0  0  0
   -5.0480   25.3780  -30.5300 C   0  0  0  0  0  0  0  0  0  0  0  0
   -2.7274   22.8855  -30.7930 H   0  0  0  0  0  0  0  0  0  0  0  0
   -4.6021   21.8126  -32.0386 H   0  0  0  0  0  0  0  0  0  0  0  0
   -7.2470   23.2040  -33.4630 H   0  0  0  0  0  0  0  0  0  0  0  0
   -7.9823   22.0342  -30.7979 H   0  0  0  0  0  0  0  0  0  0  0  0
   -9.0184   22.1661  -32.2710 H   0  0  0  0  0  0  0  0  0  0  0  0
   -9.1048   19.6271  -30.9563 H   0  0  0  0  0  0  0  0  0  0  0  0
   -8.5095   17.2916  -31.6032 H   0  0  0  0  0  0  0  0  0  0  0  0
   -6.7293   16.8774  -33.3017 H   0  0  0  0  0  0  0  0  0  0  0  0
   -6.1330   21.1427  -33.7246 H   0  0  0  0  0  0  0  0  0  0  0  0
   -7.0524   25.3220  -31.3479 H   0  0  0  0  0  0  0  0  0  0  0  0
   -5.1713   26.3852  -30.1053 H   0  0  0  0  0  0  0  0  0  0  0  0
  1  2  1  0
  2  3  2  0
  3  4  1  0
  4  5  2  0
  5  6  1  0
  6  7  1  0
  7  8  1  0
  8  9  2  0
  9 10  1  0
 10 11  2  0
 11 12  1  0
 12 13  1  0
 12 14  2  0
  5 15  1  0
 15 16  2  0
 16  2  1  0
 14  8  1  0
  3 17  1  0
  4 18  1  0
  6 19  1  0
  7 20  1  0
  7 21  1  0
  9 22  1  0
 10 23  1  0
 11 24  1  0
 14 25  1  0
 15 26  1  0
 16 27  1  0
M  CHG  2   1  -1  13  -1
M  END
>  <UniqueID>  (36) 
36

>  <SMILES>  (36) 
[O-]c1ccc(NCc2cccc([O-])c2)cc1

>  <Energy>  (36) 
27.064264120777665

>  <Genealogy>  (36) 
[O-]c1ccc(NCc2cccc([O-])c2)cc1 (protonated)
[O-]c1ccc(NCc2cccc([O-])c2)cc1 (3D coordinates assigned)
[O-]c1ccc(NCc2cccc([O-])c2)cc1 (optimized conformer: 27.064264120777665 kcal/mol)

>  <smiles>  (36) 
Oc1ccc(NCc2cccc(O)c2)cc1

>  <score_type>  (36) 
oracle

>  <origin>  (36) 
adgpu

>  <m_score__min__energy>  (36) 
-9.8399999999999999

>  <m_primary>  (36) 
energy

$$$$
36:0
     RDKit          3D

 29 30  0  0  0  0  0  0  0  0999 V2000
   -8.2210   19.2640  -31.8850 C   0  0  0  0  0  0  0  0  0  0  0  0
   -7.8890   20.7270  -31.8430 C   0  0  0  0  0  0  0  0  0  0  0  0
   -8.9090   21.6860  -31.9450 C   0  0  0  0  0  0  0  0  0  0  0  0
   -8.6040   23.0460  -31.8640 C   0  0  0  0  0  0  0  0  0  0  0  0
   -7.2850   23.4610  -31.6690 C   0  0  0  0  0  0  0  0  0  0  0  0
   -6.2560   22.5120  -31.5450 C   0  0  0  0  0  0  0  0  0  0  0  0
   -4.8980   22.9360  -31.3240 N   0  0  0  0  0  0  0  0  0  0  0  0
   -3.8080   22.1910  -31.9590 C   0  0  0  0  0  0  0  0  0  0  0  0
   -4.6100   24.2010  -30.6940 C   0  0  0  0  0  0  0  0  0  0  0  0
   -5.0550   25.2660  -31.2010 O   0  0  0  0  0  0  0  0  0  0  0  0
   -3.7780   24.2820  -29.4790 C   0  0  0  0  0  0  0  0  0  0  0  0
   -3.9790   23.5670  -28.3130 C   0  0  0  0  0  0  0  0  0  0  0  0
   -2.9770   23.9640  -27.4540 C   0  0  0  0  0  0  0  0  0  0  0  0
   -2.2280   24.8970  -28.1440 C   0  0  0  0  0  0  0  0  0  0  0  0
   -2.7310   25.0650  -29.3450 O   0  0  0  0  0  0  0  0  0  0  0  0
   -6.5670   21.1450  -31.6290 C   0  0  0  0  0  0  0  0  0  0  0  0
   -8.3085   18.8783  -30.8586 H   0  0  0  0  0  0  0  0  0  0  0  0
   -9.1748   19.1195  -32.4136 H   0  0  0  0  0  0  0  0  0  0  0  0
   -7.4230   18.7220  -32.4136 H   0  0  0  0  0  0  0  0  0  0  0  0
   -9.9512   21.3651  -32.0891 H   0  0  0  0  0  0  0  0  0  0  0  0
   -9.4059   23.7936  -31.9541 H   0  0  0  0  0  0  0  0  0  0  0  0
   -7.0507   24.5343  -31.6123 H   0  0  0  0  0  0  0  0  0  0  0  0
   -3.1641   21.7509  -31.1833 H   0  0  0  0  0  0  0  0  0  0  0  0
   -4.2276   21.3899  -32.5852 H   0  0  0  0  0  0  0  0  0  0  0  0
   -3.2139   22.8729  -32.5852 H   0  0  0  0  0  0  0  0  0  0  0  0
   -4.7738   22.8334  -28.1124 H   0  0  0  0  0  0  0  0  0  0  0  0
   -2.8080   23.6094  -26.4265 H   0  0  0  0  0  0  0  0  0  0  0  0
   -1.3449   25.4195  -27.7478 H   0  0  0  0  0  0  0  0  0  0  0  0
   -5.7678   20.3962  -31.5262 H   0  0  0  0  0  0  0  0  0  0  0  0
  1  2  1  0
  2  3  2  0
  3  4  1  0
  4  5  2  0
  5  6  1  0
  6  7  1  0
  7  8  1  0
  7  9  1  0
  9 10  2  0
  9 11  1  0
 11 12  2  0
 12 13  1  0
 13 14  2  0
 14 15  1  0
  6 16  2  0
 16  2  1  0
 15 11  1  0
  1 17  1  0
  1 18  1  0
  1 19  1  0
  3 20  1  0
  4 21  1  0
  5 22  1  0
  8 23  1  0
  8 24  1  0
  8 25  1  0
 12 26  1  0
 13 27  1  0
 14 28  1  0
 16 29  1  0
M  END
>  <UniqueID>  (37) 
37

>  <SMILES>  (37) 
Cc1cccc(N(C)C(=O)c2ccco2)c1

>  <Energy>  (37) 
59.95953558629668

>  <Genealogy>  (37) 
Cc1cccc(N(C)C(=O)c2ccco2)c1 (3D coordinates assigned)
Cc1cccc(N(C)C(=O)c2ccco2)c1 (optimized conformer: 59.95953558629668 kcal/mol)

>  <smiles>  (37) 
Cc1cccc(N(C)C(=O)c2ccco2)c1

>  <score_type>  (37) 
oracle

>  <origin>  (37) 
adgpu

>  <m_score__min__energy>  (37) 
-6.9699999999999998

>  <m_primary>  (37) 
energy

$$$$
37:0
     RDKit          3D

 33 34  0  0  1  0  0  0  0  0999 V2000
   -3.1110   24.5040  -27.0810 C   0  0  0  0  0  0  0  0  0  0  0  0
   -2.6780   24.5690  -28.8350 S   0  0  0  0  0  0  0  0  0  0  0  0
   -4.1810   24.3540  -29.8130 C   0  0  0  0  0  0  0  0  0  0  0  0
   -4.1740   23.5350  -30.8810 N   0  0  0  0  0  0  0  0  0  0  0  0
   -5.3310   23.4240  -31.5600 C   0  0  0  0  0  0  0  0  0  0  0  0
   -5.4010   22.6640  -32.5880 N   0  0  0  0  0  0  0  0  0  0  0  0
   -4.2750   21.8870  -33.0860 C   0  0  0  0  0  0  0  0  0  0  0  0
   -4.7750   20.4830  -33.1940 C   0  0  0  0  0  0  0  0  0  0  0  0
   -3.9290   19.4090  -33.3800 C   0  0  0  0  0  0  0  0  0  0  0  0
   -4.5090   18.1550  -33.4640 C   0  0  0  0  0  0  0  0  0  0  0  0
   -5.8570   17.9350  -33.3730 C   0  0  0  0  0  0  0  0  0  0  0  0
   -6.6960   19.0190  -33.1860 C   0  0  0  0  0  0  0  0  0  0  0  0
   -8.0770   18.8950  -33.0820 O   0  0  0  0  0  0  0  0  0  0  0  0
   -8.8110   19.3140  -31.9520 C   0  0  0  0  0  0  0  0  0  0  0  0
   -9.8050   20.1970  -32.3320 F   0  0  0  0  0  0  0  0  0  0  0  0
   -9.3970   18.2060  -31.3840 F   0  0  0  0  0  0  0  0  0  0  0  0
   -7.9170   19.8580  -31.0540 F   0  0  0  0  0  0  0  0  0  0  0  0
   -6.1440   20.3010  -33.0970 C   0  0  0  0  0  0  0  0  0  0  0  0
   -6.4780   24.1050  -31.1980 C   0  0  0  0  0  0  0  0  0  0  0  0
   -6.4430   24.9450  -30.0820 C   0  0  0  0  0  0  0  0  0  0  0  0
   -5.2760   25.0390  -29.4190 N   0  0  0  0  0  0  0  0  0  0  0  0
   -2.2038   24.6402  -26.4741 H   0  0  0  0  0  0  0  0  0  0  0  0
   -3.8297   25.3043  -26.8508 H   0  0  0  0  0  0  0  0  0  0  0  0
   -3.5630   23.5279  -26.8508 H   0  0  0  0  0  0  0  0  0  0  0  0
   -3.9573   22.2587  -34.0713 H   0  0  0  0  0  0  0  0  0  0  0  0
   -3.4029   21.9593  -32.4196 H   0  0  0  0  0  0  0  0  0  0  0  0
   -2.8401   19.5436  -33.4582 H   0  0  0  0  0  0  0  0  0  0  0  0
   -3.8499   17.2868  -33.6121 H   0  0  0  0  0  0  0  0  0  0  0  0
   -6.2652   16.9162  -33.4471 H   0  0  0  0  0  0  0  0  0  0  0  0
   -6.8017   21.1702  -32.9490 H   0  0  0  0  0  0  0  0  0  0  0  0
   -7.4042   23.9875  -31.7796 H   0  0  0  0  0  0  0  0  0  0  0  0
   -7.3323   25.5060  -29.7590 H   0  0  0  0  0  0  0  0  0  0  0  0
   -5.2780   25.6780  -28.5840 H   0  0  0  0  0  0  0  0  0  0  0  0
  1  2  1  0
  2  3  1  0
  3  4  2  0
  4  5  1  0
  5  6  2  0
  6  7  1  0
  7  8  1  0
  8  9  2  0
  9 10  1  0
 10 11  2  0
 11 12  1  0
 12 13  1  0
 13 14  1  0
 14 15  1  0
 14 16  1  0
 14 17  1  0
 12 18  2  0
  5 19  1  0
 19 20  2  0
 20 21  1  0
 21  3  1  0
 18  8  1  0
  1 22  1  0
  1 23  1  0
  1 24  1  0
  7 25  1  0
  7 26  1  0
  9 27  1  0
 10 28  1  0
 11 29  1  0
 18 30  1  0
 19 31  1  0
 20 32  1  0
 21 33  1  0
M  END
>  <smiles>  (38) 
CSc1nc(=NCc2cccc(OC(F)(F)F)c2)cc[nH]1

>  <score_type>  (38) 
oracle

>  <origin>  (38) 
adgpu

>  <m_score__min__energy>  (38) 
-6.7999999999999998

>  <m_primary>  (38) 
energy

$$$$
38:0
     RDKit          3D

 21 22  0  0  0  0  0  0  0  0999 V2000
   -2.8160   25.2960  -30.2420 H   0  0  0  0  0  0  0  0  0  0  0  0
   -3.8590   25.2990  -30.3110 N   0  0  0  0  0  0  0  0  0  0  0  0
   -4.5030   24.3210  -30.8650 C   0  0  0  0  0  0  0  0  0  0  0  0
   -3.8220   23.2590  -31.3720 N   0  0  0  0  0  0  0  0  0  0  0  0
   -4.4580   22.2130  -31.9610 C   0  0  0  0  0  0  0  0  0  0  0  0
   -3.7070   21.1460  -32.4670 C   0  0  0  0  0  0  0  0  0  0  0  0
   -2.6101   21.1600  -32.3858 H   0  0  0  0  0  0  0  0  0  0  0  0
   -4.3470   20.0630  -33.0750 C   0  0  0  0  0  0  0  0  0  0  0  0
   -3.7533   19.2257  -33.4707 H   0  0  0  0  0  0  0  0  0  0  0  0
   -5.7390   20.0420  -33.1810 C   0  0  0  0  0  0  0  0  0  0  0  0
   -6.2384   19.1876  -33.6613 H   0  0  0  0  0  0  0  0  0  0  0  0
   -6.5010   21.1010  -32.6800 C   0  0  0  0  0  0  0  0  0  0  0  0
   -7.5972   21.0758  -32.7681 H   0  0  0  0  0  0  0  0  0  0  0  0
   -5.8720   22.2020  -32.0620 C   0  0  0  0  0  0  0  0  0  0  0  0
   -6.5980   23.3010  -31.5390 C   0  0  0  0  0  0  0  0  0  0  0  0
   -8.1030   23.3640  -31.6090 C   0  0  0  0  0  0  0  0  0  0  0  0
   -8.5170   23.3813  -30.5900 H   0  0  0  0  0  0  0  0  0  0  0  0
   -8.4073   24.2757  -32.1440 H   0  0  0  0  0  0  0  0  0  0  0  0
   -8.4825   22.4810  -32.1440 H   0  0  0  0  0  0  0  0  0  0  0  0
   -5.8970   24.3590  -30.9390 C   0  0  0  0  0  0  0  0  0  0  0  0
   -6.4461   25.2185  -30.5269 H   0  0  0  0  0  0  0  0  0  0  0  0
  1  2  1  0
  2  3  2  0
  3  4  1  0
  4  5  1  0
  5  6  2  0
  6  7  1  0
  6  8  1  0
  8  9  1  0
  8 10  2  0
 10 11  1  0
 10 12  1  0
 12 13  1  0
 12 14  2  0
 14 15  1  0
 15 16  1  0
 16 17  1  0
 16 18  1  0
 16 19  1  0
 15 20  2  0
 20 21  1  0
 20  3  1  0
 14  5  1  0
M  CHG  1   4  -1
M  END
>  <UniqueID>  (39) 
38

>  <SMILES>  (39) 
[H]/N=c1/cc(C)c2ccccc2[n-]1

>  <Energy>  (39) 
25.990385193492273

>  <Genealogy>  (39) 
Cc1cc(=N)[n-]c2ccccc12 (protonated)
[H]/N=c1/cc(C)c2ccccc2[n-]1 (cis-trans isomerization)
[H]/N=c1/cc(C)c2ccccc2[n-]1 (3D coordinates assigned)
[H]/N=c1/cc(C)c2ccccc2[n-]1 (optimized conformer: 25.990385193492273 kcal/mol)

>  <smiles>  (39) 
Cc1cc(=N)[nH]c2ccccc12

>  <score_type>  (39) 
oracle

>  <origin>  (39) 
adgpu

>  <m_score__min__energy>  (39) 
-7.4000000000000004

>  <m_primary>  (39) 
energy

$$$$
39:0
     RDKit          3D

 42 44  0  0  0  0  0  0  0  0999 V2000
   -3.1790   18.9730  -26.3280 C   0  0  0  0  0  0  0  0  0  0  0  0
   -2.5020   19.4030  -27.5040 O   0  0  0  0  0  0  0  0  0  0  0  0
   -2.4340   20.7190  -27.9960 C   0  0  0  0  0  0  0  0  0  0  0  0
   -3.3860   21.6210  -27.5070 C   0  0  0  0  0  0  0  0  0  0  0  0
   -3.4110   22.9470  -27.9420 C   0  0  0  0  0  0  0  0  0  0  0  0
   -2.4860   23.3950  -28.8890 C   0  0  0  0  0  0  0  0  0  0  0  0
   -2.5170   24.8010  -29.3370 C   0  0  0  0  0  0  0  0  0  0  0  0
   -1.6540   25.6040  -28.8920 O   0  0  0  0  0  0  0  0  0  0  0  0
   -3.5180   25.2960  -30.2350 N   0  0  0  0  0  0  0  0  0  0  0  0
   -4.9480   25.0380  -30.1120 C   0  0  0  0  0  0  0  0  0  0  0  0
   -5.2940   23.8040  -30.8760 C   0  0  0  0  0  0  0  0  0  0  0  0
   -6.4380   23.0500  -30.7470 C   0  0  0  0  0  0  0  0  0  0  0  0
   -6.2930   22.0000  -31.5790 N   0  0  0  0  0  0  0  0  0  0  0  0
   -7.2210   20.9200  -31.8170 C   0  0  0  0  0  0  0  0  0  0  0  0
   -8.5740   21.2010  -32.0860 C   0  0  0  0  0  0  0  0  0  0  0  0
   -9.4820   20.1650  -32.3200 C   0  0  0  0  0  0  0  0  0  0  0  0
   -9.0520   18.8370  -32.2930 C   0  0  0  0  0  0  0  0  0  0  0  0
   -7.7120   18.5430  -32.0320 C   0  0  0  0  0  0  0  0  0  0  0  0
   -6.7990   19.5750  -31.7950 C   0  0  0  0  0  0  0  0  0  0  0  0
   -5.1140   22.1110  -32.1740 N   0  0  0  0  0  0  0  0  0  0  0  0
   -4.4790   23.1970  -31.7590 N   0  0  0  0  0  0  0  0  0  0  0  0
   -1.5080   22.5120  -29.3670 C   0  0  0  0  0  0  0  0  0  0  0  0
   -1.4720   21.1680  -28.9380 C   0  0  0  0  0  0  0  0  0  0  0  0
   -0.4980   20.2810  -29.4260 O   0  0  0  0  0  0  0  0  0  0  0  0
    0.2750   19.3960  -28.6220 C   0  0  0  0  0  0  0  0  0  0  0  0
   -2.6301   19.3216  -25.4407 H   0  0  0  0  0  0  0  0  0  0  0  0
   -4.1966   19.3907  -26.3172 H   0  0  0  0  0  0  0  0  0  0  0  0
   -3.2335   17.8744  -26.3172 H   0  0  0  0  0  0  0  0  0  0  0  0
   -4.1261   21.2795  -26.7683 H   0  0  0  0  0  0  0  0  0  0  0  0
   -4.1617   23.6421  -27.5379 H   0  0  0  0  0  0  0  0  0  0  0  0
   -5.2063   24.8984  -29.0519 H   0  0  0  0  0  0  0  0  0  0  0  0
   -5.5125   25.8916  -30.5155 H   0  0  0  0  0  0  0  0  0  0  0  0
   -7.2984   23.2620  -30.0953 H   0  0  0  0  0  0  0  0  0  0  0  0
   -8.9193   22.2451  -32.1122 H   0  0  0  0  0  0  0  0  0  0  0  0
  -10.5375   20.3962  -32.5259 H   0  0  0  0  0  0  0  0  0  0  0  0
   -9.7683   18.0228  -32.4772 H   0  0  0  0  0  0  0  0  0  0  0  0
   -7.3738   17.4964  -32.0128 H   0  0  0  0  0  0  0  0  0  0  0  0
   -5.7450   19.3361  -31.5901 H   0  0  0  0  0  0  0  0  0  0  0  0
   -0.7579   22.8717  -30.0867 H   0  0  0  0  0  0  0  0  0  0  0  0
    0.0888   19.6092  -27.5590 H   0  0  0  0  0  0  0  0  0  0  0  0
   -0.0097   18.3567  -28.8429 H   0  0  0  0  0  0  0  0  0  0  0  0
    1.3431   19.5384  -28.8429 H   0  0  0  0  0  0  0  0  0  0  0  0
  1  2  1  0
  2  3  1  0
  3  4  2  0
  4  5  1  0
  5  6  2  0
  6  7  1  0
  7  8  2  0
  7  9  1  0
  9 10  1  0
 10 11  1  0
 11 12  2  0
 12 13  1  0
 13 14  1  0
 14 15  2  0
 15 16  1  0
 16 17  2  0
 17 18  1  0
 18 19  2  0
 13 20  1  0
 20 21  2  0
  6 22  1  0
 22 23  2  0
 23 24  1  0
 24 25  1  0
 23  3  1  0
 21 11  1  0
 19 14  1  0
  1 26  1  0
  1 27  1  0
  1 28  1  0
  4 29  1  0
  5 30  1  0
 10 31  1  0
 10 32  1  0
 12 33  1  0
 15 34  1  0
 16 35  1  0
 17 36  1  0
 18 37  1  0
 19 38  1  0
 22 39  1  0
 25 40  1  0
 25 41  1  0
 25 42  1  0
M  CHG  1   9  -1
M  END
>  <UniqueID>  (40) 
39

>  <SMILES>  (40) 
COc1ccc(C(=O)[N-]Cc2cn(-c3ccccc3)nn2)cc1OC

>  <Energy>  (40) 
85.98345628289606

>  <Genealogy>  (40) 
COc1ccc(C(=O)[N-]Cc2cn(-c3ccccc3)nn2)cc1OC (protonated)
COc1ccc(C(=O)[N-]Cc2cn(-c3ccccc3)nn2)cc1OC (3D coordinates assigned)
COc1ccc(C(=O)[N-]Cc2cn(-c3ccccc3)nn2)cc1OC (optimized conformer: 85.98345628289606 kcal/mol)

>  <smiles>  (40) 
COc1ccc(C(=O)NCc2cn(-c3ccccc3)nn2)cc1OC

>  <score_type>  (40) 
oracle

>  <origin>  (40) 
adgpu

>  <m_score__min__energy>  (40) 
-10.18

>  <m_primary>  (40) 
energy

$$$$
40:0
     RDKit          3D

 39 41  0  0  0  0  0  0  0  0999 V2000
   -5.7477   25.3651  -31.7535 H   0  0  0  0  0  0  0  0  0  0  0  0
   -5.9100   24.2890  -31.5930 C   0  0  0  0  0  0  0  0  0  0  0  0
   -7.0820   23.7950  -31.8750 N   0  0  0  0  0  0  0  0  0  0  0  0
   -7.4680   22.4110  -31.8520 C   0  0  0  0  0  0  0  0  0  0  0  0
   -8.4180   21.9240  -30.9390 C   0  0  0  0  0  0  0  0  0  0  0  0
   -8.8972   22.6129  -30.2278 H   0  0  0  0  0  0  0  0  0  0  0  0
   -8.7570   20.5690  -30.9300 C   0  0  0  0  0  0  0  0  0  0  0  0
   -9.5142   20.2005  -30.2222 H   0  0  0  0  0  0  0  0  0  0  0  0
   -8.1390   19.6740  -31.8170 C   0  0  0  0  0  0  0  0  0  0  0  0
   -8.5120   18.2180  -31.7950 C   0  0  0  0  0  0  0  0  0  0  0  0
   -8.5992   17.8775  -30.7527 H   0  0  0  0  0  0  0  0  0  0  0  0
   -9.4749   18.0784  -32.3081 H   0  0  0  0  0  0  0  0  0  0  0  0
   -7.7348   17.6326  -32.3081 H   0  0  0  0  0  0  0  0  0  0  0  0
   -7.1570   20.1560  -32.7080 C   0  0  0  0  0  0  0  0  0  0  0  0
   -6.3270   19.0810  -33.8280 Cl  0  0  0  0  0  0  0  0  0  0  0  0
   -6.8220   21.5150  -32.7110 C   0  0  0  0  0  0  0  0  0  0  0  0
   -6.0431   21.8823  -33.3954 H   0  0  0  0  0  0  0  0  0  0  0  0
   -4.7830   23.4820  -31.0680 C   0  0  0  0  0  0  0  0  0  0  0  0
   -4.3960   23.5240  -29.7160 C   0  0  0  0  0  0  0  0  0  0  0  0
   -5.0140   24.4150  -28.7810 N   0  0  0  0  0  0  0  0  0  0  0  0
   -5.8970   24.1720  -28.2810 H   0  0  0  0  0  0  0  0  0  0  0  0
   -4.6130   25.3680  -28.6300 H   0  0  0  0  0  0  0  0  0  0  0  0
   -3.3840   22.7300  -29.2900 N   0  0  0  0  0  0  0  0  0  0  0  0
   -2.7150   21.9010  -30.1290 C   0  0  0  0  0  0  0  0  0  0  0  0
   -1.4920   20.9980  -29.5050 S   0  0  0  0  0  0  0  0  0  0  0  0
   -3.0440   21.8610  -31.4630 N   0  0  0  0  0  0  0  0  0  0  0  0
   -2.3410   20.9940  -32.3750 C   0  0  0  0  0  0  0  0  0  0  0  0
   -1.0660   21.3470  -32.8430 C   0  0  0  0  0  0  0  0  0  0  0  0
   -0.6033   22.2906  -32.5183 H   0  0  0  0  0  0  0  0  0  0  0  0
   -0.3830   20.5000  -33.7220 C   0  0  0  0  0  0  0  0  0  0  0  0
    0.6155   20.7792  -34.0895 H   0  0  0  0  0  0  0  0  0  0  0  0
   -0.9680   19.2990  -34.1340 C   0  0  0  0  0  0  0  0  0  0  0  0
   -0.3040   18.4790  -34.9870 F   0  0  0  0  0  0  0  0  0  0  0  0
   -2.2370   18.9430  -33.6670 C   0  0  0  0  0  0  0  0  0  0  0  0
   -2.6969   17.9983  -33.9925 H   0  0  0  0  0  0  0  0  0  0  0  0
   -2.9220   19.7860  -32.7870 C   0  0  0  0  0  0  0  0  0  0  0  0
   -3.9181   19.5014  -32.4172 H   0  0  0  0  0  0  0  0  0  0  0  0
   -4.0620   22.6460  -31.9380 C   0  0  0  0  0  0  0  0  0  0  0  0
   -4.3750   22.6070  -33.1630 O   0  0  0  0  0  0  0  0  0  0  0  0
  1  2  1  0
  2  3  2  0
  3  4  1  0
  4  5  2  0
  5  6  1  0
  5  7  1  0
  7  8  1  0
  7  9  2  0
  9 10  1  0
 10 11  1  0
 10 12  1  0
 10 13  1  0
  9 14  1  0
 14 15  1  0
 14 16  2  0
 16 17  1  0
  2 18  1  0
 18 19  2  0
 19 20  1  0
 20 21  1  0
 20 22  1  0
 19 23  1  0
 23 24  1  0
 24 25  2  0
 24 26  1  0
 26 27  1  0
 27 28  2  0
 28 29  1  0
 28 30  1  0
 30 31  1  0
 30 32  2  0
 32 33  1  0
 32 34  1  0
 34 35  1  0
 34 36  2  0
 36 37  1  0
 26 38  1  0
 38 39  2  0
 16  4  1  0
 38 18  1  0
 36 27  1  0
M  CHG  1  23  -1
M  END
>  <UniqueID>  (41) 
40

>  <SMILES>  (41) 
Cc1ccc(/N=C\c2c(N)[n-]c(=S)n(-c3ccc(F)cc3)c2=O)cc1Cl

>  <Energy>  (41) 
67.6281259930222

>  <Genealogy>  (41) 
Cc1ccc(N=Cc2c(N)[n-]c(=S)n(-c3ccc(F)cc3)c2=O)cc1Cl (protonated)
Cc1ccc(/N=C\c2c(N)[n-]c(=S)n(-c3ccc(F)cc3)c2=O)cc1Cl (cis-trans isomerization)
Cc1ccc(/N=C\c2c(N)[n-]c(=S)n(-c3ccc(F)cc3)c2=O)cc1Cl (3D coordinates assigned)
Cc1ccc(/N=C\c2c(N)[n-]c(=S)n(-c3ccc(F)cc3)c2=O)cc1Cl (optimized conformer: 67.6281259930222 kcal/mol)

>  <smiles>  (41) 
Cc1ccc(N=Cc2c(N)[nH]c(=S)n(-c3ccc(F)cc3)c2=O)cc1Cl

>  <score_type>  (41) 
oracle

>  <origin>  (41) 
adgpu

>  <m_score__min__energy>  (41) 
-9.2300000000000004

>  <m_primary>  (41) 
energy

$$$$
41:0
     RDKit          3D

 20 21  0  0  0  0  0  0  0  0999 V2000
   -2.1170   25.2580  -29.3240 O   0  0  0  0  0  0  0  0  0  0  0  0
   -3.1230   24.6230  -29.7340 C   0  0  0  0  0  0  0  0  0  0  0  0
   -3.4870   23.4180  -29.1420 C   0  0  0  0  0  0  0  0  0  0  0  0
   -4.6060   22.7360  -29.6170 C   0  0  0  0  0  0  0  0  0  0  0  0
   -5.3500   23.2760  -30.6850 C   0  0  0  0  0  0  0  0  0  0  0  0
   -6.5640   22.6110  -31.2560 C   0  0  0  0  0  0  0  0  0  0  0  0
   -6.4950   21.2540  -31.6420 C   0  0  0  0  0  0  0  0  0  0  0  0
   -7.6090   20.6030  -32.1790 C   0  0  0  0  0  0  0  0  0  0  0  0
   -8.8120   21.2890  -32.3400 C   0  0  0  0  0  0  0  0  0  0  0  0
   -8.9030   22.6280  -31.9650 C   0  0  0  0  0  0  0  0  0  0  0  0
   -7.7930   23.2880  -31.4280 C   0  0  0  0  0  0  0  0  0  0  0  0
   -4.9340   24.4630  -31.2160 N   0  0  0  0  0  0  0  0  0  0  0  0
   -3.8620   25.1130  -30.7600 N   0  0  0  0  0  0  0  0  0  0  0  0
   -2.8983   23.0079  -28.3082 H   0  0  0  0  0  0  0  0  0  0  0  0
   -4.9067   21.7814  -29.1606 H   0  0  0  0  0  0  0  0  0  0  0  0
   -5.5516   20.7021  -31.5182 H   0  0  0  0  0  0  0  0  0  0  0  0
   -7.5364   19.5462  -32.4755 H   0  0  0  0  0  0  0  0  0  0  0  0
   -9.6876   20.7743  -32.7622 H   0  0  0  0  0  0  0  0  0  0  0  0
   -9.8526   23.1686  -32.0920 H   0  0  0  0  0  0  0  0  0  0  0  0
   -7.8772   24.3453  -31.1363 H   0  0  0  0  0  0  0  0  0  0  0  0
  1  2  2  0
  2  3  1  0
  3  4  2  0
  4  5  1  0
  5  6  1  0
  6  7  2  0
  7  8  1  0
  8  9  2  0
  9 10  1  0
 10 11  2  0
  5 12  2  0
 12 13  1  0
 13  2  1  0
 11  6  1  0
  3 14  1  0
  4 15  1  0
  7 16  1  0
  8 17  1  0
  9 18  1  0
 10 19  1  0
 11 20  1  0
M  CHG  1  13  -1
M  END
>  <UniqueID>  (42) 
41

>  <SMILES>  (42) 
O=c1ccc(-c2ccccc2)n[n-]1

>  <Energy>  (42) 
27.036604883448724

>  <Genealogy>  (42) 
O=c1ccc(-c2ccccc2)n[n-]1 (protonated)
O=c1ccc(-c2ccccc2)n[n-]1 (3D coordinates assigned)
O=c1ccc(-c2ccccc2)n[n-]1 (optimized conformer: 27.036604883448724 kcal/mol)

>  <smiles>  (42) 
O=c1ccc(-c2ccccc2)n[nH]1

>  <score_type>  (42) 
oracle

>  <origin>  (42) 
adgpu

>  <m_score__min__energy>  (42) 
-8.3699999999999992

>  <m_primary>  (42) 
energy

$$$$
42:0
     RDKit          3D

 22 22  0  0  0  0  0  0  0  0999 V2000
   -6.1210   23.3030  -31.8840 C   0  0  0  0  0  0  0  0  0  0  0  0
   -4.9230   22.6000  -31.2500 C   0  0  0  0  0  0  0  0  0  0  0  0
   -4.8640   22.8020  -29.7280 C   0  0  0  0  0  0  0  0  0  0  0  0
   -3.5480   23.3220  -29.2970 N   0  0  0  0  0  0  0  0  0  0  0  0
   -2.7260   22.5890  -28.4630 C   0  0  0  0  0  0  0  0  0  0  0  0
   -3.0970   21.2900  -27.9710 N   0  0  0  0  0  0  0  0  0  0  0  0
   -1.4860   23.1090  -28.0730 C   0  0  0  0  0  0  0  0  0  0  0  0
   -1.1060   24.3640  -28.5290 C   0  0  0  0  0  0  0  0  0  0  0  0
    0.0030   24.8530  -28.1920 O   0  0  0  0  0  0  0  0  0  0  0  0
   -1.9340   25.0630  -29.3380 N   0  0  0  0  0  0  0  0  0  0  0  0
   -3.1360   24.5650  -29.7230 C   0  0  0  0  0  0  0  0  0  0  0  0
   -3.8650   25.2670  -30.4750 O   0  0  0  0  0  0  0  0  0  0  0  0
   -6.7801   23.6898  -31.0928 H   0  0  0  0  0  0  0  0  0  0  0  0
   -5.7684   24.1375  -32.5080 H   0  0  0  0  0  0  0  0  0  0  0  0
   -6.6775   22.5882  -32.5080 H   0  0  0  0  0  0  0  0  0  0  0  0
   -4.9932   21.5227  -31.4610 H   0  0  0  0  0  0  0  0  0  0  0  0
   -4.0105   23.0365  -31.6821 H   0  0  0  0  0  0  0  0  0  0  0  0
   -5.6447   23.5184  -29.4327 H   0  0  0  0  0  0  0  0  0  0  0  0
   -5.0225   21.8262  -29.2456 H   0  0  0  0  0  0  0  0  0  0  0  0
   -3.7500   21.2040  -27.1600 H   0  0  0  0  0  0  0  0  0  0  0  0
   -2.7690   20.3980  -28.3950 H   0  0  0  0  0  0  0  0  0  0  0  0
   -0.8216   22.5308  -27.4140 H   0  0  0  0  0  0  0  0  0  0  0  0
  1  2  1  0
  2  3  1  0
  3  4  1  0
  4  5  1  0
  5  6  1  0
  5  7  2  0
  7  8  1  0
  8  9  2  0
  8 10  1  0
 10 11  1  0
 11 12  2  0
 11  4  1  0
  1 13  1  0
  1 14  1  0
  1 15  1  0
  2 16  1  0
  2 17  1  0
  3 18  1  0
  3 19  1  0
  6 20  1  0
  6 21  1  0
  7 22  1  0
M  CHG  1  10  -1
M  END
>  <UniqueID>  (43) 
42

>  <SMILES>  (43) 
CCCn1c(N)cc(=O)[n-]c1=O

>  <Energy>  (43) 
21.370865491944542

>  <Genealogy>  (43) 
CCCn1c(N)cc(=O)[n-]c1=O (protonated)
CCCn1c(N)cc(=O)[n-]c1=O (3D coordinates assigned)
CCCn1c(N)cc(=O)[n-]c1=O (optimized conformer: 21.370865491944542 kcal/mol)

>  <smiles>  (43) 
CCCn1c(N)cc(=O)[nH]c1=O

>  <score_type>  (43) 
oracle

>  <origin>  (43) 
adgpu

>  <m_score__min__energy>  (43) 
-5.2300000000000004

>  <m_primary>  (43) 
energy

$$$$
43:0
     RDKit          3D

 40 42  0  0  0  0  0  0  0  0999 V2000
    0.0860   25.7490  -25.4470 C   0  0  0  0  0  0  0  0  0  0  0  0
   -1.1120   25.3010  -26.2320 C   0  0  0  0  0  0  0  0  0  0  0  0
   -2.3920   25.3580  -25.6620 C   0  0  0  0  0  0  0  0  0  0  0  0
   -3.5140   24.9770  -26.4050 C   0  0  0  0  0  0  0  0  0  0  0  0
   -3.3700   24.5330  -27.7320 C   0  0  0  0  0  0  0  0  0  0  0  0
   -4.5100   24.1570  -28.5240 N   0  0  0  0  0  0  0  0  0  0  0  0
   -4.5980   24.3610  -29.9440 C   0  0  0  0  0  0  0  0  0  0  0  0
   -3.8730   25.2340  -30.4950 O   0  0  0  0  0  0  0  0  0  0  0  0
   -5.5650   23.5930  -30.7640 C   0  0  0  0  0  0  0  0  0  0  0  0
   -6.9490   23.8220  -30.6540 C   0  0  0  0  0  0  0  0  0  0  0  0
   -7.8500   23.0960  -31.4360 C   0  0  0  0  0  0  0  0  0  0  0  0
   -7.3870   22.1250  -32.3250 C   0  0  0  0  0  0  0  0  0  0  0  0
   -6.0180   21.8590  -32.4290 C   0  0  0  0  0  0  0  0  0  0  0  0
   -5.5900   20.8810  -33.3400 O   0  0  0  0  0  0  0  0  0  0  0  0
   -6.0110   19.5430  -33.3540 C   0  0  0  0  0  0  0  0  0  0  0  0
   -5.6820   18.6680  -34.4060 C   0  0  0  0  0  0  0  0  0  0  0  0
   -6.1060   17.3360  -34.3740 C   0  0  0  0  0  0  0  0  0  0  0  0
   -6.8500   16.8650  -33.2890 C   0  0  0  0  0  0  0  0  0  0  0  0
   -7.1650   17.7230  -32.2310 C   0  0  0  0  0  0  0  0  0  0  0  0
   -6.7400   19.0560  -32.2610 C   0  0  0  0  0  0  0  0  0  0  0  0
   -5.1090   22.6050  -31.6570 C   0  0  0  0  0  0  0  0  0  0  0  0
   -2.0920   24.5150  -28.3100 C   0  0  0  0  0  0  0  0  0  0  0  0
   -0.9710   24.8960  -27.5670 C   0  0  0  0  0  0  0  0  0  0  0  0
   -0.1294   25.6684  -24.3713 H   0  0  0  0  0  0  0  0  0  0  0  0
    0.9474   25.1122  -25.6971 H   0  0  0  0  0  0  0  0  0  0  0  0
    0.3182   26.7947  -25.6971 H   0  0  0  0  0  0  0  0  0  0  0  0
   -2.5142   25.7042  -24.6251 H   0  0  0  0  0  0  0  0  0  0  0  0
   -4.5141   25.0248  -25.9494 H   0  0  0  0  0  0  0  0  0  0  0  0
   -5.3640   23.8230  -28.0220 H   0  0  0  0  0  0  0  0  0  0  0  0
   -7.3236   24.5775  -29.9477 H   0  0  0  0  0  0  0  0  0  0  0  0
   -8.9293   23.2904  -31.3508 H   0  0  0  0  0  0  0  0  0  0  0  0
   -8.1021   21.5663  -32.9467 H   0  0  0  0  0  0  0  0  0  0  0  0
   -5.0887   19.0336  -35.2571 H   0  0  0  0  0  0  0  0  0  0  0  0
   -5.8538   16.6586  -35.2032 H   0  0  0  0  0  0  0  0  0  0  0  0
   -7.1881   15.8185  -33.2673 H   0  0  0  0  0  0  0  0  0  0  0  0
   -7.7468   17.3503  -31.3751 H   0  0  0  0  0  0  0  0  0  0  0  0
   -6.9796   19.7253  -31.4216 H   0  0  0  0  0  0  0  0  0  0  0  0
   -4.0299   22.4142  -31.7522 H   0  0  0  0  0  0  0  0  0  0  0  0
   -1.9710   24.1985  -29.3565 H   0  0  0  0  0  0  0  0  0  0  0  0
    0.0259   24.8780  -28.0315 H   0  0  0  0  0  0  0  0  0  0  0  0
  1  2  1  0
  2  3  2  0
  3  4  1  0
  4  5  2  0
  5  6  1  0
  6  7  1  0
  7  8  2  0
  7  9  1  0
  9 10  2  0
 10 11  1  0
 11 12  2  0
 12 13  1  0
 13 14  1  0
 14 15  1  0
 15 16  2  0
 16 17  1  0
 17 18  2  0
 18 19  1  0
 19 20  2  0
 13 21  2  0
  5 22  1  0
 22 23  2  0
 23  2  1  0
 21  9  1  0
 20 15  1  0
  1 24  1  0
  1 25  1  0
  1 26  1  0
  3 27  1  0
  4 28  1  0
  6 29  1  0
 10 30  1  0
 11 31  1  0
 12 32  1  0
 16 33  1  0
 17 34  1  0
 18 35  1  0
 19 36  1  0
 20 37  1  0
 21 38  1  0
 22 39  1  0
 23 40  1  0
M  END
>  <UniqueID>  (44) 
43

>  <SMILES>  (44) 
Cc1ccc(NC(=O)c2cccc(Oc3ccccc3)c2)cc1

>  <Energy>  (44) 
53.85452829944332

>  <Genealogy>  (44) 
Cc1ccc(NC(=O)c2cccc(Oc3ccccc3)c2)cc1 (3D coordinates assigned)
Cc1ccc(NC(=O)c2cccc(Oc3ccccc3)c2)cc1 (optimized conformer: 53.85452829944332 kcal/mol)

>  <smiles>  (44) 
Cc1ccc(NC(=O)c2cccc(Oc3ccccc3)c2)cc1

>  <score_type>  (44) 
oracle

>  <origin>  (44) 
adgpu

>  <m_score__min__energy>  (44) 
-9.1699999999999999

>  <m_primary>  (44) 
energy

$$$$
44:0
     RDKit          3D

 20 20  0  0  0  0  0  0  0  0999 V2000
   -2.5550   24.5490  -29.3430 C   0  0  0  0  0  0  0  0  0  0  0  0
   -3.4850   25.0630  -30.2910 O   0  0  0  0  0  0  0  0  0  0  0  0
   -4.7280   24.4790  -30.5770 C   0  0  0  0  0  0  0  0  0  0  0  0
   -4.7500   23.2890  -31.3150 C   0  0  0  0  0  0  0  0  0  0  0  0
   -5.9630   22.6680  -31.6250 C   0  0  0  0  0  0  0  0  0  0  0  0
   -7.1690   23.2310  -31.1960 C   0  0  0  0  0  0  0  0  0  0  0  0
   -8.7260   22.4370  -31.5990 S   0  0  0  0  0  0  0  0  0  0  0  0
   -7.9400   20.8700  -32.0870 C   0  0  0  0  0  0  0  0  0  0  0  0
   -7.1580   24.4220  -30.4610 C   0  0  0  0  0  0  0  0  0  0  0  0
   -5.9460   25.0440  -30.1500 C   0  0  0  0  0  0  0  0  0  0  0  0
   -2.9198   24.7506  -28.3250 H   0  0  0  0  0  0  0  0  0  0  0  0
   -2.4479   23.4636  -29.4858 H   0  0  0  0  0  0  0  0  0  0  0  0
   -1.5789   25.0357  -29.4858 H   0  0  0  0  0  0  0  0  0  0  0  0
   -3.8048   22.8394  -31.6534 H   0  0  0  0  0  0  0  0  0  0  0  0
   -5.9691   21.7348  -32.2074 H   0  0  0  0  0  0  0  0  0  0  0  0
   -7.6569   20.3057  -31.1862 H   0  0  0  0  0  0  0  0  0  0  0  0
   -8.6468   20.2759  -32.6849 H   0  0  0  0  0  0  0  0  0  0  0  0
   -7.0412   21.0812  -32.6849 H   0  0  0  0  0  0  0  0  0  0  0  0
   -8.1058   24.8695  -30.1273 H   0  0  0  0  0  0  0  0  0  0  0  0
   -5.9428   25.9784  -29.5696 H   0  0  0  0  0  0  0  0  0  0  0  0
  1  2  1  0
  2  3  1  0
  3  4  2  0
  4  5  1  0
  5  6  2  0
  6  7  1  0
  7  8  1  0
  6  9  1  0
  9 10  2  0
 10  3  1  0
  1 11  1  0
  1 12  1  0
  1 13  1  0
  4 14  1  0
  5 15  1  0
  8 16  1  0
  8 17  1  0
  8 18  1  0
  9 19  1  0
 10 20  1  0
M  END
>  <UniqueID>  (45) 
44

>  <SMILES>  (45) 
COc1ccc(SC)cc1

>  <Energy>  (45) 
13.319408050608613

>  <Genealogy>  (45) 
COc1ccc(SC)cc1 (3D coordinates assigned)
COc1ccc(SC)cc1 (optimized conformer: 13.319408050608613 kcal/mol)

>  <smiles>  (45) 
COc1ccc(SC)cc1

>  <score_type>  (45) 
oracle

>  <origin>  (45) 
adgpu

>  <m_score__min__energy>  (45) 
-4.9900000000000002

>  <m_primary>  (45) 
energy

$$$$
45:0
     RDKit          3D

 32 33  0  0  0  0  0  0  0  0999 V2000
   -3.8220   22.2020  -32.7310 C   0  0  0  0  0  0  0  0  0  0  0  0
   -4.6000   22.9870  -31.7730 N   0  0  0  0  0  0  0  0  0  0  0  0
   -5.9310   23.4790  -32.1400 C   0  0  0  0  0  0  0  0  0  0  0  0
   -6.9390   22.3710  -32.0110 C   0  0  0  0  0  0  0  0  0  0  0  0
   -8.1130   22.5630  -31.2630 C   0  0  0  0  0  0  0  0  0  0  0  0
   -9.0770   21.5520  -31.1940 C   0  0  0  0  0  0  0  0  0  0  0  0
   -8.8810   20.3490  -31.8770 C   0  0  0  0  0  0  0  0  0  0  0  0
   -7.7210   20.1560  -32.6320 C   0  0  0  0  0  0  0  0  0  0  0  0
   -6.7550   21.1640  -32.7060 C   0  0  0  0  0  0  0  0  0  0  0  0
   -4.1320   23.1320  -30.4220 C   0  0  0  0  0  0  0  0  0  0  0  0
   -3.8700   21.9860  -29.6560 C   0  0  0  0  0  0  0  0  0  0  0  0
   -3.4180   22.1050  -28.3400 C   0  0  0  0  0  0  0  0  0  0  0  0
   -3.2270   23.3690  -27.7790 C   0  0  0  0  0  0  0  0  0  0  0  0
   -3.4890   24.5170  -28.5310 C   0  0  0  0  0  0  0  0  0  0  0  0
   -3.9460   24.4100  -29.8540 C   0  0  0  0  0  0  0  0  0  0  0  0
   -4.2390   25.6010  -30.5960 N   0  0  0  0  0  0  0  0  0  0  0  0
   -3.1488   21.5227  -32.1875 H   0  0  0  0  0  0  0  0  0  0  0  0
   -4.5040   21.6142  -33.3630 H   0  0  0  0  0  0  0  0  0  0  0  0
   -3.2281   22.8787  -33.3630 H   0  0  0  0  0  0  0  0  0  0  0  0
   -6.2111   24.3067  -31.4718 H   0  0  0  0  0  0  0  0  0  0  0  0
   -5.9123   23.8324  -33.1815 H   0  0  0  0  0  0  0  0  0  0  0  0
   -8.2744   23.5116  -30.7300 H   0  0  0  0  0  0  0  0  0  0  0  0
   -9.9909   21.7042  -30.6011 H   0  0  0  0  0  0  0  0  0  0  0  0
   -9.6394   19.5542  -31.8205 H   0  0  0  0  0  0  0  0  0  0  0  0
   -7.5675   19.2086  -33.1694 H   0  0  0  0  0  0  0  0  0  0  0  0
   -5.8484   21.0116  -33.3101 H   0  0  0  0  0  0  0  0  0  0  0  0
   -4.0214   20.9885  -30.0944 H   0  0  0  0  0  0  0  0  0  0  0  0
   -3.2125   21.2027  -27.7454 H   0  0  0  0  0  0  0  0  0  0  0  0
   -2.8695   23.4613  -26.7428 H   0  0  0  0  0  0  0  0  0  0  0  0
   -3.3363   25.5103  -28.0838 H   0  0  0  0  0  0  0  0  0  0  0  0
   -3.9470   25.6900  -31.5940 H   0  0  0  0  0  0  0  0  0  0  0  0
   -4.7250   26.4130  -30.1580 H   0  0  0  0  0  0  0  0  0  0  0  0
  1  2  1  0
  2  3  1  0
  3  4  1  0
  4  5  2  0
  5  6  1  0
  6  7  2  0
  7  8  1  0
  8  9  2  0
  2 10  1  0
 10 11  2  0
 11 12  1  0
 12 13  2  0
 13 14  1  0
 14 15  2  0
 15 16  1  0
  9  4  1  0
 15 10  1  0
  1 17  1  0
  1 18  1  0
  1 19  1  0
  3 20  1  0
  3 21  1  0
  5 22  1  0
  6 23  1  0
  7 24  1  0
  8 25  1  0
  9 26  1  0
 11 27  1  0
 12 28  1  0
 13 29  1  0
 14 30  1  0
 16 31  1  0
 16 32  1  0
M  END
>  <UniqueID>  (46) 
45

>  <SMILES>  (46) 
CN(Cc1ccccc1)c1ccccc1N

>  <Energy>  (46) 
34.19386276026359

>  <Genealogy>  (46) 
CN(Cc1ccccc1)c1ccccc1N (3D coordinates assigned)
CN(Cc1ccccc1)c1ccccc1N (optimized conformer: 34.19386276026359 kcal/mol)

>  <smiles>  (46) 
CN(Cc1ccccc1)c1ccccc1N

>  <score_type>  (46) 
oracle

>  <origin>  (46) 
adgpu

>  <m_score__min__energy>  (46) 
-6.8300000000000001

>  <m_primary>  (46) 
energy

$$$$
46:0
     RDKit          3D

 19 19  0  0  0  0  0  0  0  0999 V2000
   -6.6210   24.6840  -30.0920 C   0  0  0  0  0  0  0  0  0  0  0  0
   -5.7410   24.1730  -31.6000 S   0  0  0  0  0  0  0  0  0  0  0  0
   -6.7330   22.6950  -31.8240 C   0  0  0  0  0  0  0  0  0  0  0  0
   -8.0910   22.7030  -31.4820 C   0  0  0  0  0  0  0  0  0  0  0  0
   -8.8650   21.5520  -31.6580 C   0  0  0  0  0  0  0  0  0  0  0  0
   -8.2900   20.3880  -32.1920 C   0  0  0  0  0  0  0  0  0  0  0  0
   -9.1090   19.1410  -32.3440 C   0  0  0  0  0  0  0  0  0  0  0  0
   -6.9240   20.3810  -32.5200 C   0  0  0  0  0  0  0  0  0  0  0  0
   -6.1530   21.5330  -32.3440 C   0  0  0  0  0  0  0  0  0  0  0  0
   -6.0549   24.3553  -29.2080 H   0  0  0  0  0  0  0  0  0  0  0  0
   -6.7191   25.7795  -30.0781 H   0  0  0  0  0  0  0  0  0  0  0  0
   -7.6211   24.2261  -30.0781 H   0  0  0  0  0  0  0  0  0  0  0  0
   -8.5494   23.6161  -31.0743 H   0  0  0  0  0  0  0  0  0  0  0  0
   -9.9285   21.5586  -31.3770 H   0  0  0  0  0  0  0  0  0  0  0  0
   -9.3670   18.7482  -31.3494 H   0  0  0  0  0  0  0  0  0  0  0  0
  -10.0311   19.3731  -32.8970 H   0  0  0  0  0  0  0  0  0  0  0  0
   -8.5297   18.3870  -32.8970 H   0  0  0  0  0  0  0  0  0  0  0  0
   -6.4600   19.4659  -32.9166 H   0  0  0  0  0  0  0  0  0  0  0  0
   -5.0870   21.5262  -32.6151 H   0  0  0  0  0  0  0  0  0  0  0  0
  1  2  1  0
  2  3  1  0
  3  4  2  0
  4  5  1  0
  5  6  2  0
  6  7  1  0
  6  8  1  0
  8  9  2  0
  9  3  1  0
  1 10  1  0
  1 11  1  0
  1 12  1  0
  4 13  1  0
  5 14  1  0
  7 15  1  0
  7 16  1  0
  7 17  1  0
  8 18  1  0
  9 19  1  0
M  END
>  <UniqueID>  (47) 
46

>  <SMILES>  (47) 
CSc1ccc(C)cc1

>  <Energy>  (47) 
12.135661732113633

>  <Genealogy>  (47) 
CSc1ccc(C)cc1 (3D coordinates assigned)
CSc1ccc(C)cc1 (optimized conformer: 12.135661732113633 kcal/mol)

>  <smiles>  (47) 
CSc1ccc(C)cc1

>  <score_type>  (47) 
oracle

>  <origin>  (47) 
adgpu

>  <m_score__min__energy>  (47) 
-4.7999999999999998

>  <m_primary>  (47) 
energy

$$$$
47:0
     RDKit          3D

 36 37  0  0  0  0  0  0  0  0999 V2000
   -0.8650   26.4590  -27.8920 C   0  0  0  0  0  0  0  0  0  0  0  0
   -1.6140   25.8770  -28.9530 O   0  0  0  0  0  0  0  0  0  0  0  0
   -2.0980   24.5580  -28.9590 C   0  0  0  0  0  0  0  0  0  0  0  0
   -1.5090   23.5510  -28.1660 C   0  0  0  0  0  0  0  0  0  0  0  0
   -2.0500   22.2630  -28.1410 C   0  0  0  0  0  0  0  0  0  0  0  0
   -3.1850   21.9660  -28.8960 C   0  0  0  0  0  0  0  0  0  0  0  0
   -3.7720   22.9510  -29.6910 C   0  0  0  0  0  0  0  0  0  0  0  0
   -3.2200   24.2380  -29.7530 C   0  0  0  0  0  0  0  0  0  0  0  0
   -3.8610   25.2140  -30.5860 N   0  0  0  0  0  0  0  0  0  0  0  0
   -5.2230   25.6410  -30.4630 C   0  0  0  0  0  0  0  0  0  0  0  0
   -5.5080   26.8670  -30.3860 O   0  0  0  0  0  0  0  0  0  0  0  0
   -6.3190   24.6220  -30.4520 C   0  0  0  0  0  0  0  0  0  0  0  0
   -6.2860   23.8350  -31.6430 O   0  0  0  0  0  0  0  0  0  0  0  0
   -6.9430   22.6070  -31.8210 C   0  0  0  0  0  0  0  0  0  0  0  0
   -8.3080   22.5370  -31.5150 C   0  0  0  0  0  0  0  0  0  0  0  0
   -9.0120   21.3390  -31.6700 C   0  0  0  0  0  0  0  0  0  0  0  0
   -8.3540   20.1870  -32.1240 C   0  0  0  0  0  0  0  0  0  0  0  0
   -9.1190   18.9130  -32.3260 C   0  0  0  0  0  0  0  0  0  0  0  0
   -6.9920   20.2560  -32.4520 C   0  0  0  0  0  0  0  0  0  0  0  0
   -6.2890   21.4540  -32.2970 C   0  0  0  0  0  0  0  0  0  0  0  0
   -1.2825   26.1345  -26.9274 H   0  0  0  0  0  0  0  0  0  0  0  0
    0.1843   26.1369  -27.9643 H   0  0  0  0  0  0  0  0  0  0  0  0
   -0.9178   27.5554  -27.9643 H   0  0  0  0  0  0  0  0  0  0  0  0
   -0.6180   23.7812  -27.5634 H   0  0  0  0  0  0  0  0  0  0  0  0
   -1.5803   21.4820  -27.5251 H   0  0  0  0  0  0  0  0  0  0  0  0
   -3.6172   20.9550  -28.8645 H   0  0  0  0  0  0  0  0  0  0  0  0
   -4.6749   22.7158  -30.2736 H   0  0  0  0  0  0  0  0  0  0  0  0
   -6.1916   23.9636  -29.5801 H   0  0  0  0  0  0  0  0  0  0  0  0
   -7.2865   25.1426  -30.3978 H   0  0  0  0  0  0  0  0  0  0  0  0
   -8.8310   23.4329  -31.1493 H   0  0  0  0  0  0  0  0  0  0  0  0
  -10.0859   21.3001  -31.4350 H   0  0  0  0  0  0  0  0  0  0  0  0
   -9.3779   18.4818  -31.3477 H   0  0  0  0  0  0  0  0  0  0  0  0
  -10.0401   19.1238  -32.8892 H   0  0  0  0  0  0  0  0  0  0  0  0
   -8.5001   18.1990  -32.8892 H   0  0  0  0  0  0  0  0  0  0  0  0
   -6.4747   19.3631  -32.8330 H   0  0  0  0  0  0  0  0  0  0  0  0
   -5.2189   21.4966  -32.5482 H   0  0  0  0  0  0  0  0  0  0  0  0
  1  2  1  0
  2  3  1  0
  3  4  2  0
  4  5  1  0
  5  6  2  0
  6  7  1  0
  7  8  2  0
  8  9  1  0
  9 10  1  0
 10 11  2  0
 10 12  1  0
 12 13  1  0
 13 14  1  0
 14 15  2  0
 15 16  1  0
 16 17  2  0
 17 18  1  0
 17 19  1  0
 19 20  2  0
  8  3  1  0
 20 14  1  0
  1 21  1  0
  1 22  1  0
  1 23  1  0
  4 24  1  0
  5 25  1  0
  6 26  1  0
  7 27  1  0
 12 28  1  0
 12 29  1  0
 15 30  1  0
 16 31  1  0
 18 32  1  0
 18 33  1  0
 18 34  1  0
 19 35  1  0
 20 36  1  0
M  CHG  1   9  -1
M  END
>  <UniqueID>  (48) 
47

>  <SMILES>  (48) 
COc1ccccc1[N-]C(=O)COc1ccc(C)cc1

>  <Energy>  (48) 
39.49285791846708

>  <Genealogy>  (48) 
COc1ccccc1[N-]C(=O)COc1ccc(C)cc1 (protonated)
COc1ccccc1[N-]C(=O)COc1ccc(C)cc1 (3D coordinates assigned)
COc1ccccc1[N-]C(=O)COc1ccc(C)cc1 (optimized conformer: 39.49285791846708 kcal/mol)

>  <smiles>  (48) 
COc1ccccc1NC(=O)COc1ccc(C)cc1

>  <score_type>  (48) 
oracle

>  <origin>  (48) 
adgpu

>  <m_score__min__energy>  (48) 
-9.6799999999999997

>  <m_primary>  (48) 
energy

$$$$
48:0
     RDKit          3D

 20 20  0  0  0  0  0  0  0  0999 V2000
   -5.9730   24.1560  -31.2400 C   0  0  0  0  0  0  0  0  0  0  0  0
   -6.3040   23.2590  -32.3420 N   0  0  0  0  0  0  0  0  0  0  0  0
   -7.2410   22.1720  -32.2320 C   0  0  0  0  0  0  0  0  0  0  0  0
   -8.5520   22.4370  -31.8050 C   0  0  0  0  0  0  0  0  0  0  0  0
   -9.4810   21.4020  -31.6790 C   0  0  0  0  0  0  0  0  0  0  0  0
   -9.1140   20.0890  -31.9840 C   0  0  0  0  0  0  0  0  0  0  0  0
   -7.8150   19.8050  -32.4290 C   0  0  0  0  0  0  0  0  0  0  0  0
   -7.4090   18.3900  -32.7190 C   0  0  0  0  0  0  0  0  0  0  0  0
   -6.8770   20.8460  -32.5370 C   0  0  0  0  0  0  0  0  0  0  0  0
   -6.1610   23.6465  -30.2834 H   0  0  0  0  0  0  0  0  0  0  0  0
   -4.9116   24.4380  -31.3029 H   0  0  0  0  0  0  0  0  0  0  0  0
   -6.5968   25.0598  -31.3029 H   0  0  0  0  0  0  0  0  0  0  0  0
   -5.8270   23.4240  -33.2580 H   0  0  0  0  0  0  0  0  0  0  0  0
   -8.8500   23.4689  -31.5676 H   0  0  0  0  0  0  0  0  0  0  0  0
  -10.5039   21.6210  -31.3389 H   0  0  0  0  0  0  0  0  0  0  0  0
   -9.8463   19.2755  -31.8747 H   0  0  0  0  0  0  0  0  0  0  0  0
   -7.2545   17.8515  -31.7723 H   0  0  0  0  0  0  0  0  0  0  0  0
   -8.2007   17.8928  -33.2986 H   0  0  0  0  0  0  0  0  0  0  0  0
   -6.4741   18.3882  -33.2986 H   0  0  0  0  0  0  0  0  0  0  0  0
   -5.8501   20.6234  -32.8624 H   0  0  0  0  0  0  0  0  0  0  0  0
  1  2  1  0
  2  3  1  0
  3  4  2  0
  4  5  1  0
  5  6  2  0
  6  7  1  0
  7  8  1  0
  7  9  2  0
  9  3  1  0
  1 10  1  0
  1 11  1  0
  1 12  1  0
  2 13  1  0
  4 14  1  0
  5 15  1  0
  6 16  1  0
  8 17  1  0
  8 18  1  0
  8 19  1  0
  9 20  1  0
M  END
>  <UniqueID>  (49) 
48

>  <SMILES>  (49) 
CNc1cccc(C)c1

>  <Energy>  (49) 
15.898363870824907

>  <Genealogy>  (49) 
CNc1cccc(C)c1 (3D coordinates assigned)
CNc1cccc(C)c1 (optimized conformer: 15.898363870824907 kcal/mol)

>  <smiles>  (49) 
CNc1cccc(C)c1

>  <score_type>  (49) 
oracle

>  <origin>  (49) 
adgpu

>  <m_score__min__energy>  (49) 
-4.6900000000000004

>  <m_primary>  (49) 
energy

$$$$
