0:0
     RDKit          3D

 54 56  0  0  0  0  0  0  0  0999 V2000
   -4.4540   21.1960  -33.0950 C   0  0  0  0  0  0  0  0  0  0  0  0
   -5.4890   21.7820  -32.3120 O   0  0  0  0  0  0  0  0  0  0  0  0
   -6.8150   21.3190  -32.2700 C   0  0  0  0  0  0  0  0  0  0  0  0
   -7.1530   20.0090  -32.6650 C   0  0  0  0  0  0  0  0  0  0  0  0
   -8.4800   19.5760  -32.6150 C   0  0  0  0  0  0  0  0  0  0  0  0
   -9.4820   20.4390  -32.1700 C   0  0  0  0  0  0  0  0  0  0  0  0
   -9.1610   21.7370  -31.7700 C   0  0  0  0  0  0  0  0  0  0  0  0
   -7.8310   22.1900  -31.8190 C   0  0  0  0  0  0  0  0  0  0  0  0
   -7.5100   23.6090  -31.3980 C   0  0  0  0  0  0  0  0  0  0  0  0
   -6.4750   23.6560  -30.3540 N   0  0  0  0  0  0  0  0  0  0  0  0
   -5.6930   24.8980  -30.4170 C   0  0  0  0  0  0  0  0  0  0  0  0
   -4.2260   24.5860  -30.5180 C   0  0  0  0  0  0  0  0  0  0  0  0
   -3.8510   23.6370  -31.2560 O   0  0  0  0  0  0  0  0  0  0  0  0
   -3.2560   25.2440  -29.6920 N   0  0  0  0  0  0  0  0  0  0  0  0
   -2.2560   24.5930  -28.8970 C   0  0  0  0  0  0  0  0  0  0  0  0
   -2.4350   23.2660  -28.4710 C   0  0  0  0  0  0  0  0  0  0  0  0
   -1.4740   22.6400  -27.6660 C   0  0  0  0  0  0  0  0  0  0  0  0
   -1.7170   20.9840  -27.1190 S   0  0  0  0  0  0  0  0  0  0  0  0
   -1.5180   20.9230  -25.6310 O   0  0  0  0  0  0  0  0  0  0  0  0
   -3.1290   20.5720  -27.4370 O   0  0  0  0  0  0  0  0  0  0  0  0
   -0.5830   19.9390  -27.9530 N   0  0  0  0  0  0  0  0  0  0  0  0
   -0.7190   18.5470  -27.5000 C   0  0  0  0  0  0  0  0  0  0  0  0
    0.3430   17.6680  -28.1960 C   0  0  0  0  0  0  0  0  0  0  0  0
    1.0170   18.3580  -29.2360 O   0  0  0  0  0  0  0  0  0  0  0  0
    0.0730   18.9300  -30.1220 C   0  0  0  0  0  0  0  0  0  0  0  0
   -0.7680   20.0110  -29.4110 C   0  0  0  0  0  0  0  0  0  0  0  0
   -0.3260   23.3480  -27.2870 C   0  0  0  0  0  0  0  0  0  0  0  0
   -0.1550   24.6750  -27.6840 C   0  0  0  0  0  0  0  0  0  0  0  0
   -1.1170   25.3070  -28.4780 C   0  0  0  0  0  0  0  0  0  0  0  0
   -0.9170   26.6370  -28.8480 O   0  0  0  0  0  0  0  0  0  0  0  0
   -3.6913   20.7641  -32.4304 H   0  0  0  0  0  0  0  0  0  0  0  0
   -4.8781   20.4040  -33.7297 H   0  0  0  0  0  0  0  0  0  0  0  0
   -3.9931   21.9672  -33.7297 H   0  0  0  0  0  0  0  0  0  0  0  0
   -6.3670   19.3235  -33.0148 H   0  0  0  0  0  0  0  0  0  0  0  0
   -8.7356   18.5526  -32.9271 H   0  0  0  0  0  0  0  0  0  0  0  0
  -10.5265   20.0958  -32.1344 H   0  0  0  0  0  0  0  0  0  0  0  0
   -9.9544   22.4105  -31.4138 H   0  0  0  0  0  0  0  0  0  0  0  0
   -7.1536   24.1674  -32.2761 H   0  0  0  0  0  0  0  0  0  0  0  0
   -8.4270   24.0556  -30.9861 H   0  0  0  0  0  0  0  0  0  0  0  0
   -5.8300   22.8380  -30.4600 H   0  0  0  0  0  0  0  0  0  0  0  0
   -6.0024   25.4773  -31.2994 H   0  0  0  0  0  0  0  0  0  0  0  0
   -5.8727   25.4809  -29.5017 H   0  0  0  0  0  0  0  0  0  0  0  0
   -3.3374   22.7138  -28.7721 H   0  0  0  0  0  0  0  0  0  0  0  0
   -0.5749   18.5011  -26.4105 H   0  0  0  0  0  0  0  0  0  0  0  0
   -1.7229   18.1769  -27.7553 H   0  0  0  0  0  0  0  0  0  0  0  0
    1.0824   17.3475  -27.4473 H   0  0  0  0  0  0  0  0  0  0  0  0
   -0.1747   16.8072  -28.6444 H   0  0  0  0  0  0  0  0  0  0  0  0
    0.6056   19.3876  -30.9687 H   0  0  0  0  0  0  0  0  0  0  0  0
   -0.6021   18.1365  -30.4750 H   0  0  0  0  0  0  0  0  0  0  0  0
   -0.4545   21.0038  -29.7661 H   0  0  0  0  0  0  0  0  0  0  0  0
   -1.8301   19.8409  -29.6414 H   0  0  0  0  0  0  0  0  0  0  0  0
    0.4436   22.8560  -26.6741 H   0  0  0  0  0  0  0  0  0  0  0  0
    0.7428   25.2276  -27.3701 H   0  0  0  0  0  0  0  0  0  0  0  0
   -1.6110   27.1670  -29.3610 H   0  0  0  0  0  0  0  0  0  0  0  0
  1  2  1  0
  2  3  1  0
  3  4  2  0
  4  5  1  0
  5  6  2  0
  6  7  1  0
  7  8  2  0
  8  9  1  0
  9 10  1  0
 10 11  1  0
 11 12  1  0
 12 13  2  0
 12 14  1  0
 14 15  1  0
 15 16  2  0
 16 17  1  0
 17 18  1  0
 18 19  2  0
 18 20  2  0
 18 21  1  0
 21 22  1  0
 22 23  1  0
 23 24  1  0
 24 25  1  0
 25 26  1  0
 17 27  2  0
 27 28  1  0
 28 29  2  0
 29 30  1  0
  8  3  1  0
 29 15  1  0
 26 21  1  0
  1 31  1  0
  1 32  1  0
  1 33  1  0
  4 34  1  0
  5 35  1  0
  6 36  1  0
  7 37  1  0
  9 38  1  0
  9 39  1  0
 10 40  1  0
 11 41  1  0
 11 42  1  0
 16 43  1  0
 22 44  1  0
 22 45  1  0
 23 46  1  0
 23 47  1  0
 25 48  1  0
 25 49  1  0
 26 50  1  0
 26 51  1  0
 27 52  1  0
 28 53  1  0
 30 54  1  0
M  CHG  1  14  -1
M  END
>  <UniqueID>  (1) 
1

>  <SMILES>  (1) 
COc1ccccc1CNCC(=O)[N-]c1cc(S(=O)(=O)N2CCOCC2)ccc1O

>  <Energy>  (1) 
64.22744832091895

>  <Genealogy>  (1) 
COc1ccccc1CNCC(=O)[N-]c1cc(S(=O)(=O)N2CCOCC2)ccc1O (protonated)
COc1ccccc1CNCC(=O)[N-]c1cc(S(=O)(=O)N2CCOCC2)ccc1O (3D coordinates assigned)
COc1ccccc1CNCC(=O)[N-]c1cc(S(=O)(=O)N2CCOCC2)ccc1O (nonaromatic ring conformer: 64.22744832091895 kcal/mol)

>  <smiles>  (1) 
COc1ccccc1CNCC(=O)Nc1cc(S(=O)(=O)N2CCOCC2)ccc1O

>  <score_type>  (1) 
oracle

>  <origin>  (1) 
adgpu

>  <m_score__min__energy>  (1) 
-10.56

>  <m_primary>  (1) 
energy

$$$$
1:0
     RDKit          3D

 42 44  0  0  0  0  0  0  0  0999 V2000
   -3.9110   25.3010  -30.6990 O   0  0  0  0  0  0  0  0  0  0  0  0
   -3.6680   24.0830  -30.4870 C   0  0  0  0  0  0  0  0  0  0  0  0
   -4.0840   23.1220  -31.4690 N   0  0  0  0  0  0  0  0  0  0  0  0
   -5.4190   22.6270  -31.6630 C   0  0  0  0  0  0  0  0  0  0  0  0
   -5.6760   21.2470  -31.7560 C   0  0  0  0  0  0  0  0  0  0  0  0
   -6.9820   20.7750  -31.9330 C   0  0  0  0  0  0  0  0  0  0  0  0
   -7.2880   19.0430  -32.0590 S   0  0  0  0  0  0  0  0  0  0  0  0
   -6.4750   18.3300  -31.0140 O   0  0  0  0  0  0  0  0  0  0  0  0
   -8.7400   18.7770  -31.7660 O   0  0  0  0  0  0  0  0  0  0  0  0
   -6.8860   18.4000  -33.6380 N   0  0  0  0  0  0  0  0  0  0  0  0
   -5.7390   19.0890  -34.2560 C   0  0  0  0  0  0  0  0  0  0  0  0
   -4.3710   18.5570  -33.7650 C   0  0  0  0  0  0  0  0  0  0  0  0
   -4.4800   17.3890  -32.9740 O   0  0  0  0  0  0  0  0  0  0  0  0
   -5.3000   16.4490  -33.6280 C   0  0  0  0  0  0  0  0  0  0  0  0
   -6.7610   16.9260  -33.6390 C   0  0  0  0  0  0  0  0  0  0  0  0
   -8.0420   21.6860  -32.0050 C   0  0  0  0  0  0  0  0  0  0  0  0
   -7.7990   23.0560  -31.8850 C   0  0  0  0  0  0  0  0  0  0  0  0
   -6.4960   23.5320  -31.7090 C   0  0  0  0  0  0  0  0  0  0  0  0
   -6.2950   24.9090  -31.5920 O   0  0  0  0  0  0  0  0  0  0  0  0
   -2.9120   23.6890  -29.2740 C   0  0  0  0  0  0  0  0  0  0  0  0
   -3.1930   22.4670  -28.6370 C   0  0  0  0  0  0  0  0  0  0  0  0
   -2.4920   22.0890  -27.4890 C   0  0  0  0  0  0  0  0  0  0  0  0
   -1.4990   22.9200  -26.9690 C   0  0  0  0  0  0  0  0  0  0  0  0
   -1.2020   24.1300  -27.5990 C   0  0  0  0  0  0  0  0  0  0  0  0
   -1.9010   24.5190  -28.7460 C   0  0  0  0  0  0  0  0  0  0  0  0
   -1.5970   25.7380  -29.3430 O   0  0  0  0  0  0  0  0  0  0  0  0
   -4.8428   20.5320  -31.6890 H   0  0  0  0  0  0  0  0  0  0  0  0
   -5.7959   18.9536  -35.3462 H   0  0  0  0  0  0  0  0  0  0  0  0
   -5.8002   20.1487  -33.9674 H   0  0  0  0  0  0  0  0  0  0  0  0
   -3.7490   18.3282  -34.6430 H   0  0  0  0  0  0  0  0  0  0  0  0
   -3.9227   19.3389  -33.1344 H   0  0  0  0  0  0  0  0  0  0  0  0
   -4.9521   16.3237  -34.6640 H   0  0  0  0  0  0  0  0  0  0  0  0
   -5.2422   15.4910  -33.0905 H   0  0  0  0  0  0  0  0  0  0  0  0
   -7.2517   16.5329  -34.5416 H   0  0  0  0  0  0  0  0  0  0  0  0
   -7.2363   16.5541  -32.7194 H   0  0  0  0  0  0  0  0  0  0  0  0
   -9.0689   21.3221  -32.1565 H   0  0  0  0  0  0  0  0  0  0  0  0
   -8.6384   23.7655  -31.9292 H   0  0  0  0  0  0  0  0  0  0  0  0
   -5.3770   25.3110  -31.4500 H   0  0  0  0  0  0  0  0  0  0  0  0
   -3.9701   21.8042  -29.0454 H   0  0  0  0  0  0  0  0  0  0  0  0
   -2.7234   21.1343  -26.9941 H   0  0  0  0  0  0  0  0  0  0  0  0
   -0.9505   22.6219  -26.0633 H   0  0  0  0  0  0  0  0  0  0  0  0
   -0.4143   24.7805  -27.1911 H   0  0  0  0  0  0  0  0  0  0  0  0
  1  2  2  0
  2  3  1  0
  3  4  1  0
  4  5  2  0
  5  6  1  0
  6  7  1  0
  7  8  2  0
  7  9  2  0
  7 10  1  0
 10 11  1  0
 11 12  1  0
 12 13  1  0
 13 14  1  0
 14 15  1  0
  6 16  2  0
 16 17  1  0
 17 18  2  0
 18 19  1  0
  2 20  1  0
 20 21  2  0
 21 22  1  0
 22 23  2  0
 23 24  1  0
 24 25  2  0
 25 26  1  0
 18  4  1  0
 25 20  1  0
 15 10  1  0
  5 27  1  0
 11 28  1  0
 11 29  1  0
 12 30  1  0
 12 31  1  0
 14 32  1  0
 14 33  1  0
 15 34  1  0
 15 35  1  0
 16 36  1  0
 17 37  1  0
 19 38  1  0
 21 39  1  0
 22 40  1  0
 23 41  1  0
 24 42  1  0
M  CHG  2   3  -1  26  -1
M  END
>  <UniqueID>  (2) 
2

>  <SMILES>  (2) 
O=C([N-]c1cc(S(=O)(=O)N2CCOCC2)ccc1O)c1ccccc1[O-]

>  <Energy>  (2) 
61.82677176321386

>  <Genealogy>  (2) 
O=C([N-]c1cc(S(=O)(=O)N2CCOCC2)ccc1O)c1ccccc1[O-] (protonated)
O=C([N-]c1cc(S(=O)(=O)N2CCOCC2)ccc1O)c1ccccc1[O-] (3D coordinates assigned)
O=C([N-]c1cc(S(=O)(=O)N2CCOCC2)ccc1O)c1ccccc1[O-] (nonaromatic ring conformer: 61.82677176321386 kcal/mol)

>  <smiles>  (2) 
O=C(Nc1cc(S(=O)(=O)N2CCOCC2)ccc1O)c1ccccc1O

>  <score_type>  (2) 
oracle

>  <origin>  (2) 
adgpu

>  <m_score__min__energy>  (2) 
-12.66

>  <m_primary>  (2) 
energy

$$$$
2:0
     RDKit          3D

 36 38  0  0  0  0  0  0  0  0999 V2000
   -5.8900   24.8410  -29.0560 O   0  0  0  0  0  0  0  0  0  0  0  0
   -5.2300   24.7920  -30.4050 S   0  0  0  0  0  0  0  0  0  0  0  0
   -5.8130   25.8700  -31.2750 O   0  0  0  0  0  0  0  0  0  0  0  0
   -3.5300   25.0750  -30.2150 N   0  0  0  0  0  0  0  0  0  0  0  0
   -2.6990   24.4780  -29.2090 C   0  0  0  0  0  0  0  0  0  0  0  0
   -3.0010   23.2270  -28.6380 C   0  0  0  0  0  0  0  0  0  0  0  0
   -2.1610   22.6740  -27.6670 C   0  0  0  0  0  0  0  0  0  0  0  0
   -1.0190   23.3640  -27.2540 C   0  0  0  0  0  0  0  0  0  0  0  0
   -0.7140   24.6070  -27.8110 C   0  0  0  0  0  0  0  0  0  0  0  0
   -1.5490   25.1640  -28.7860 C   0  0  0  0  0  0  0  0  0  0  0  0
   -1.2310   26.4010  -29.3350 O   0  0  0  0  0  0  0  0  0  0  0  0
   -5.5010   23.2320  -31.1740 C   0  0  0  0  0  0  0  0  0  0  0  0
   -4.4570   22.5980  -31.8600 C   0  0  0  0  0  0  0  0  0  0  0  0
   -4.6620   21.3530  -32.4590 C   0  0  0  0  0  0  0  0  0  0  0  0
   -5.9180   20.7230  -32.3860 C   0  0  0  0  0  0  0  0  0  0  0  0
   -6.1360   19.3970  -33.0200 C   0  0  0  0  0  0  0  0  0  0  0  0
   -7.0330   18.4710  -32.4540 C   0  0  0  0  0  0  0  0  0  0  0  0
   -7.2360   17.2240  -33.0530 C   0  0  0  0  0  0  0  0  0  0  0  0
   -6.5480   16.8870  -34.2210 C   0  0  0  0  0  0  0  0  0  0  0  0
   -5.6550   17.7970  -34.7920 C   0  0  0  0  0  0  0  0  0  0  0  0
   -5.4490   19.0460  -34.1980 C   0  0  0  0  0  0  0  0  0  0  0  0
   -6.9640   21.3710  -31.7030 C   0  0  0  0  0  0  0  0  0  0  0  0
   -6.7560   22.6160  -31.1030 C   0  0  0  0  0  0  0  0  0  0  0  0
   -3.9018   22.6824  -28.9573 H   0  0  0  0  0  0  0  0  0  0  0  0
   -2.3997   21.6942  -27.2277 H   0  0  0  0  0  0  0  0  0  0  0  0
   -0.3596   22.9276  -26.4893 H   0  0  0  0  0  0  0  0  0  0  0  0
    0.1847   25.1499  -27.4828 H   0  0  0  0  0  0  0  0  0  0  0  0
   -3.4718   23.0826  -31.9272 H   0  0  0  0  0  0  0  0  0  0  0  0
   -3.8350   20.8611  -32.9920 H   0  0  0  0  0  0  0  0  0  0  0  0
   -7.5778   18.7304  -31.5343 H   0  0  0  0  0  0  0  0  0  0  0  0
   -7.9388   16.5070  -32.6036 H   0  0  0  0  0  0  0  0  0  0  0  0
   -6.7093   15.9056  -34.6909 H   0  0  0  0  0  0  0  0  0  0  0  0
   -5.1126   17.5304  -35.7111 H   0  0  0  0  0  0  0  0  0  0  0  0
   -4.7459   19.7587  -34.6538 H   0  0  0  0  0  0  0  0  0  0  0  0
   -7.9532   20.8938  -31.6409 H   0  0  0  0  0  0  0  0  0  0  0  0
   -7.5815   23.1137  -30.5730 H   0  0  0  0  0  0  0  0  0  0  0  0
  1  2  2  0
  2  3  2  0
  2  4  1  0
  4  5  1  0
  5  6  2  0
  6  7  1  0
  7  8  2  0
  8  9  1  0
  9 10  2  0
 10 11  1  0
  2 12  1  0
 12 13  2  0
 13 14  1  0
 14 15  2  0
 15 16  1  0
 16 17  2  0
 17 18  1  0
 18 19  2  0
 19 20  1  0
 20 21  2  0
 15 22  1  0
 22 23  2  0
 10  5  1  0
 23 12  1  0
 21 16  1  0
  6 24  1  0
  7 25  1  0
  8 26  1  0
  9 27  1  0
 13 28  1  0
 14 29  1  0
 17 30  1  0
 18 31  1  0
 19 32  1  0
 20 33  1  0
 21 34  1  0
 22 35  1  0
 23 36  1  0
M  CHG  2   4  -1  11  -1
M  END
>  <UniqueID>  (3) 
3

>  <SMILES>  (3) 
O=S(=O)([N-]c1ccccc1[O-])c1ccc(-c2ccccc2)cc1

>  <Energy>  (3) 
47.59181335250812

>  <Genealogy>  (3) 
O=S(=O)([N-]c1ccccc1[O-])c1ccc(-c2ccccc2)cc1 (protonated)
O=S(=O)([N-]c1ccccc1[O-])c1ccc(-c2ccccc2)cc1 (3D coordinates assigned)
O=S(=O)([N-]c1ccccc1[O-])c1ccc(-c2ccccc2)cc1 (optimized conformer: 47.59181335250812 kcal/mol)

>  <smiles>  (3) 
O=S(=O)(Nc1ccccc1O)c1ccc(-c2ccccc2)cc1

>  <score_type>  (3) 
oracle

>  <origin>  (3) 
adgpu

>  <m_score__min__energy>  (3) 
-13.779999999999999

>  <m_primary>  (3) 
energy

$$$$
3:0
     RDKit          3D

 42 44  0  0  0  0  0  0  0  0999 V2000
   -0.1350   20.3570  -30.1580 C   0  0  0  0  0  0  0  0  0  0  0  0
   -1.0170   21.2220  -29.3080 C   0  0  0  0  0  0  0  0  0  0  0  0
   -1.6240   20.6980  -28.1560 C   0  0  0  0  0  0  0  0  0  0  0  0
   -2.4690   21.4970  -27.3830 C   0  0  0  0  0  0  0  0  0  0  0  0
   -2.7330   22.8140  -27.7630 C   0  0  0  0  0  0  0  0  0  0  0  0
   -2.1630   23.3440  -28.9320 C   0  0  0  0  0  0  0  0  0  0  0  0
   -2.4590   24.7390  -29.3370 C   0  0  0  0  0  0  0  0  0  0  0  0
   -1.7210   25.6720  -28.9220 O   0  0  0  0  0  0  0  0  0  0  0  0
   -3.5330   25.0620  -30.2320 N   0  0  0  0  0  0  0  0  0  0  0  0
   -4.5990   24.1850  -30.6250 C   0  0  0  0  0  0  0  0  0  0  0  0
   -5.9480   24.5260  -30.4250 C   0  0  0  0  0  0  0  0  0  0  0  0
   -6.9620   23.6500  -30.8270 C   0  0  0  0  0  0  0  0  0  0  0  0
   -6.6410   22.4380  -31.4500 C   0  0  0  0  0  0  0  0  0  0  0  0
   -7.9230   21.3460  -31.9620 S   0  0  0  0  0  0  0  0  0  0  0  0
   -9.1490   22.1530  -32.2890 O   0  0  0  0  0  0  0  0  0  0  0  0
   -8.2570   20.3710  -30.8680 O   0  0  0  0  0  0  0  0  0  0  0  0
   -7.4290   20.4650  -33.3730 N   0  0  0  0  0  0  0  0  0  0  0  0
   -6.8590   19.2980  -33.3430 C   0  0  0  0  0  0  0  0  0  0  0  0
   -6.5450   18.5500  -32.2190 C   0  0  0  0  0  0  0  0  0  0  0  0
   -5.9660   17.4160  -32.7540 C   0  0  0  0  0  0  0  0  0  0  0  0
   -5.3620   16.2900  -31.9810 C   0  0  0  0  0  0  0  0  0  0  0  0
   -5.9380   17.5200  -34.0950 N   0  0  0  0  0  0  0  0  0  0  0  0
   -6.4850   18.6540  -34.4220 O   0  0  0  0  0  0  0  0  0  0  0  0
   -5.2970   22.1060  -31.6690 C   0  0  0  0  0  0  0  0  0  0  0  0
   -4.2830   22.9810  -31.2660 C   0  0  0  0  0  0  0  0  0  0  0  0
   -1.2950   22.5420  -29.6960 C   0  0  0  0  0  0  0  0  0  0  0  0
    0.5004   19.7339  -29.5115 H   0  0  0  0  0  0  0  0  0  0  0  0
   -0.7581   19.7101  -30.7930 H   0  0  0  0  0  0  0  0  0  0  0  0
    0.4997   20.9925  -30.7930 H   0  0  0  0  0  0  0  0  0  0  0  0
   -1.4336   19.6554  -27.8614 H   0  0  0  0  0  0  0  0  0  0  0  0
   -2.9283   21.0871  -26.4714 H   0  0  0  0  0  0  0  0  0  0  0  0
   -3.3914   23.4404  -27.1432 H   0  0  0  0  0  0  0  0  0  0  0  0
   -6.2070   25.4843  -29.9511 H   0  0  0  0  0  0  0  0  0  0  0  0
   -8.0155   23.9145  -30.6529 H   0  0  0  0  0  0  0  0  0  0  0  0
   -6.7151   18.7985  -31.1610 H   0  0  0  0  0  0  0  0  0  0  0  0
   -5.4675   16.4866  -30.9039 H   0  0  0  0  0  0  0  0  0  0  0  0
   -5.8783   15.3525  -32.2349 H   0  0  0  0  0  0  0  0  0  0  0  0
   -4.2954   16.2016  -32.2349 H   0  0  0  0  0  0  0  0  0  0  0  0
   -5.5440   16.8300  -34.7720 H   0  0  0  0  0  0  0  0  0  0  0  0
   -5.0392   21.1554  -32.1588 H   0  0  0  0  0  0  0  0  0  0  0  0
   -3.2306   22.7216  -31.4538 H   0  0  0  0  0  0  0  0  0  0  0  0
   -0.8306   22.9529  -30.6046 H   0  0  0  0  0  0  0  0  0  0  0  0
  1  2  1  0
  2  3  2  0
  3  4  1  0
  4  5  2  0
  5  6  1  0
  6  7  1  0
  7  8  2  0
  7  9  1  0
  9 10  1  0
 10 11  2  0
 11 12  1  0
 12 13  2  0
 13 14  1  0
 14 15  2  0
 14 16  2  0
 14 17  1  0
 17 18  2  3
 18 19  1  0
 19 20  2  0
 20 21  1  0
 20 22  1  0
 22 23  1  0
 13 24  1  0
 24 25  2  0
  6 26  2  0
 26  2  1  0
 25 10  1  0
 23 18  1  0
  1 27  1  0
  1 28  1  0
  1 29  1  0
  3 30  1  0
  4 31  1  0
  5 32  1  0
 11 33  1  0
 12 34  1  0
 19 35  1  0
 21 36  1  0
 21 37  1  0
 21 38  1  0
 22 39  1  0
 24 40  1  0
 25 41  1  0
 26 42  1  0
M  CHG  1   9  -1
M  END
>  <UniqueID>  (4) 
4

>  <SMILES>  (4) 
Cc1cccc(C(=O)[N-]c2ccc(S(=O)(=O)N=c3cc(C)[nH]o3)cc2)c1

>  <Energy>  (4) 
83.82685712520271

>  <Genealogy>  (4) 
Cc1cccc(C(=O)[N-]c2ccc(S(=O)(=O)N=c3cc(C)[nH]o3)cc2)c1 (protonated)
Cc1cccc(C(=O)[N-]c2ccc(S(=O)(=O)N=c3cc(C)[nH]o3)cc2)c1 (3D coordinates assigned)
Cc1cccc(C(=O)[N-]c2ccc(S(=O)(=O)N=c3cc(C)[nH]o3)cc2)c1 (optimized conformer: 83.82685712520271 kcal/mol)

>  <smiles>  (4) 
Cc1cccc(C(=O)Nc2ccc(S(=O)(=O)N=c3cc(C)[nH]o3)cc2)c1

>  <score_type>  (4) 
oracle

>  <origin>  (4) 
adgpu

>  <m_score__min__energy>  (4) 
-10.550000000000001

>  <m_primary>  (4) 
energy

$$$$
4:0
     RDKit          3D

 45 47  0  0  0  0  0  0  0  0999 V2000
    4.2390   16.9470  -26.9450 O   0  0  0  0  0  0  0  0  0  0  0  0
    3.2520   17.7950  -27.4330 C   0  0  0  0  0  0  0  0  0  0  0  0
    2.0240   17.2680  -27.8500 C   0  0  0  0  0  0  0  0  0  0  0  0
    1.0280   18.1160  -28.3410 C   0  0  0  0  0  0  0  0  0  0  0  0
    1.2460   19.5010  -28.4070 C   0  0  0  0  0  0  0  0  0  0  0  0
    0.1920   20.4130  -28.9690 C   0  0  0  0  0  0  0  0  0  0  0  0
   -0.4440   21.1600  -27.8760 N   0  0  0  0  0  0  0  0  0  0  0  0
   -1.9080   21.1220  -27.9860 C   0  0  0  0  0  0  0  0  0  0  0  0
   -2.4110   22.3220  -28.7490 C   0  0  0  0  0  0  0  0  0  0  0  0
   -3.4340   22.1720  -29.6990 C   0  0  0  0  0  0  0  0  0  0  0  0
   -3.9350   23.2810  -30.3970 C   0  0  0  0  0  0  0  0  0  0  0  0
   -5.0150   23.0740  -31.4310 C   0  0  0  0  0  0  0  0  0  0  0  0
   -6.0920   22.2260  -30.8850 N   0  0  0  0  0  0  0  0  0  0  0  0
   -7.3420   22.9730  -30.7310 C   0  0  0  0  0  0  0  0  0  0  0  0
   -8.4720   21.9570  -30.8060 C   0  0  0  0  0  0  0  0  0  0  0  0
   -7.8680   20.7290  -31.4680 C   0  0  0  0  0  0  0  0  0  0  0  0
   -6.4240   21.1010  -31.7650 C   0  0  0  0  0  0  0  0  0  0  0  0
   -3.3890   24.5550  -30.1510 C   0  0  0  0  0  0  0  0  0  0  0  0
   -3.8510   25.6700  -30.8430 O   0  0  0  0  0  0  0  0  0  0  0  0
   -2.3710   24.7100  -29.2020 C   0  0  0  0  0  0  0  0  0  0  0  0
   -1.8410   25.9730  -28.9550 O   0  0  0  0  0  0  0  0  0  0  0  0
   -1.8850   23.6020  -28.5000 C   0  0  0  0  0  0  0  0  0  0  0  0
   -0.8780   23.7760  -27.5550 O   0  0  0  0  0  0  0  0  0  0  0  0
    2.4850   20.0240  -28.0010 C   0  0  0  0  0  0  0  0  0  0  0  0
    3.4830   19.1740  -27.5110 C   0  0  0  0  0  0  0  0  0  0  0  0
    4.7030   19.7020  -27.1040 O   0  0  0  0  0  0  0  0  0  0  0  0
    1.8429   16.1846  -27.7910 H   0  0  0  0  0  0  0  0  0  0  0  0
    0.0685   17.6962  -28.6774 H   0  0  0  0  0  0  0  0  0  0  0  0
    0.6559   21.1187  -29.6738 H   0  0  0  0  0  0  0  0  0  0  0  0
   -0.5673   19.8151  -29.4943 H   0  0  0  0  0  0  0  0  0  0  0  0
   -0.1460   22.1600  -27.9600 H   0  0  0  0  0  0  0  0  0  0  0  0
   -2.2078   20.2051  -28.5146 H   0  0  0  0  0  0  0  0  0  0  0  0
   -2.3415   21.1355  -26.9751 H   0  0  0  0  0  0  0  0  0  0  0  0
   -3.8478   21.1725  -29.8984 H   0  0  0  0  0  0  0  0  0  0  0  0
   -5.4327   24.0498  -31.7196 H   0  0  0  0  0  0  0  0  0  0  0  0
   -4.5783   22.5760  -32.3092 H   0  0  0  0  0  0  0  0  0  0  0  0
   -7.3588   23.4872  -29.7587 H   0  0  0  0  0  0  0  0  0  0  0  0
   -7.4449   23.7371  -31.5155 H   0  0  0  0  0  0  0  0  0  0  0  0
   -8.8357   21.7108  -29.7975 H   0  0  0  0  0  0  0  0  0  0  0  0
   -9.3331   22.3440  -31.3705 H   0  0  0  0  0  0  0  0  0  0  0  0
   -7.9111   19.8649  -30.7887 H   0  0  0  0  0  0  0  0  0  0  0  0
   -8.4137   20.4452  -32.3800 H   0  0  0  0  0  0  0  0  0  0  0  0
   -5.7617   20.2478  -31.5567 H   0  0  0  0  0  0  0  0  0  0  0  0
   -6.2938   21.3729  -32.8229 H   0  0  0  0  0  0  0  0  0  0  0  0
    2.6715   21.1060  -28.0685 H   0  0  0  0  0  0  0  0  0  0  0  0
  1  2  1  0
  2  3  2  0
  3  4  1  0
  4  5  2  0
  5  6  1  0
  6  7  1  0
  7  8  1  0
  8  9  1  0
  9 10  2  0
 10 11  1  0
 11 12  1  0
 12 13  1  0
 13 14  1  0
 14 15  1  0
 15 16  1  0
 16 17  1  0
 11 18  2  0
 18 19  1  0
 18 20  1  0
 20 21  1  0
 20 22  2  0
 22 23  1  0
  5 24  1  0
 24 25  2  0
 25 26  1  0
 25  2  1  0
 22  9  1  0
 17 13  1  0
  3 27  1  0
  4 28  1  0
  6 29  1  0
  6 30  1  0
  7 31  1  0
  8 32  1  0
  8 33  1  0
 10 34  1  0
 12 35  1  0
 12 36  1  0
 14 37  1  0
 14 38  1  0
 15 39  1  0
 15 40  1  0
 16 41  1  0
 16 42  1  0
 17 43  1  0
 17 44  1  0
 24 45  1  0
M  CHG  5   1  -1  19  -1  21  -1  23  -1  26  -1
M  END
>  <UniqueID>  (5) 
5

>  <SMILES>  (5) 
[O-]c1ccc(CNCc2cc(CN3CCCC3)c([O-])c([O-])c2[O-])cc1[O-]

>  <Energy>  (5) 
48.092037115806654

>  <Genealogy>  (5) 
[O-]c1ccc(CNCc2cc(CN3CCCC3)c([O-])c([O-])c2[O-])cc1[O-] (protonated)
[O-]c1ccc(CNCc2cc(CN3CCCC3)c([O-])c([O-])c2[O-])cc1[O-] (3D coordinates assigned)
[O-]c1ccc(CNCc2cc(CN3CCCC3)c([O-])c([O-])c2[O-])cc1[O-] (nonaromatic ring conformer: 48.092037115806654 kcal/mol)

>  <smiles>  (5) 
Oc1ccc(CNCc2cc(CN3CCCC3)c(O)c(O)c2O)cc1O

>  <score_type>  (5) 
oracle

>  <origin>  (5) 
adgpu

>  <m_score__min__energy>  (5) 
-14.67

>  <m_primary>  (5) 
energy

$$$$
5:0
     RDKit          3D

 48 50  0  0  0  0  0  0  0  0999 V2000
   -1.5720   21.1700  -34.2180 N   0  0  0  0  0  0  0  0  0  0  0  0
   -1.0670   20.7700  -32.9410 C   0  0  0  0  0  0  0  0  0  0  0  0
   -0.0780   19.9890  -32.8970 O   0  0  0  0  0  0  0  0  0  0  0  0
   -1.6840   21.2450  -31.6780 C   0  0  0  0  0  0  0  0  0  0  0  0
   -1.1990   20.7800  -30.4420 C   0  0  0  0  0  0  0  0  0  0  0  0
   -1.7470   21.2430  -29.2440 C   0  0  0  0  0  0  0  0  0  0  0  0
   -2.7830   22.1780  -29.2620 C   0  0  0  0  0  0  0  0  0  0  0  0
   -3.2800   22.6530  -30.4820 C   0  0  0  0  0  0  0  0  0  0  0  0
   -4.5210   23.9050  -30.5150 S   0  0  0  0  0  0  0  0  0  0  0  0
   -5.4130   23.7870  -29.3110 O   0  0  0  0  0  0  0  0  0  0  0  0
   -3.8750   25.2620  -30.5030 O   0  0  0  0  0  0  0  0  0  0  0  0
   -5.4420   23.7300  -31.9690 N   0  0  0  0  0  0  0  0  0  0  0  0
   -6.5920   22.8850  -32.0170 C   0  0  0  0  0  0  0  0  0  0  0  0
   -7.8830   23.4190  -31.8870 C   0  0  0  0  0  0  0  0  0  0  0  0
   -8.9920   22.5680  -31.8490 C   0  0  0  0  0  0  0  0  0  0  0  0
   -8.8150   21.1850  -31.9270 C   0  0  0  0  0  0  0  0  0  0  0  0
   -7.5300   20.6460  -32.0650 C   0  0  0  0  0  0  0  0  0  0  0  0
   -7.3020   18.8990  -32.0340 S   0  0  0  0  0  0  0  0  0  0  0  0
   -6.3300   18.5530  -30.9410 O   0  0  0  0  0  0  0  0  0  0  0  0
   -8.6120   18.2200  -31.7460 O   0  0  0  0  0  0  0  0  0  0  0  0
   -6.6720   18.3610  -33.5730 N   0  0  0  0  0  0  0  0  0  0  0  0
   -6.1350   16.9870  -33.4480 C   0  0  0  0  0  0  0  0  0  0  0  0
   -5.1930   16.6440  -34.6040 C   0  0  0  0  0  0  0  0  0  0  0  0
   -3.9680   17.5750  -34.6150 C   0  0  0  0  0  0  0  0  0  0  0  0
   -4.2480   18.9340  -33.9480 C   0  0  0  0  0  0  0  0  0  0  0  0
   -5.7140   19.3500  -34.1320 C   0  0  0  0  0  0  0  0  0  0  0  0
   -6.4220   21.5020  -32.1270 C   0  0  0  0  0  0  0  0  0  0  0  0
   -2.7280   22.1880  -31.6840 C   0  0  0  0  0  0  0  0  0  0  0  0
   -1.0760   20.8740  -35.0880 H   0  0  0  0  0  0  0  0  0  0  0  0
   -2.4790   21.6760  -34.3190 H   0  0  0  0  0  0  0  0  0  0  0  0
   -0.3808   20.0451  -30.4191 H   0  0  0  0  0  0  0  0  0  0  0  0
   -1.3612   20.8699  -28.2838 H   0  0  0  0  0  0  0  0  0  0  0  0
   -3.2100   22.5425  -28.3160 H   0  0  0  0  0  0  0  0  0  0  0  0
   -8.0228   24.5077  -31.8149 H   0  0  0  0  0  0  0  0  0  0  0  0
  -10.0044   22.9883  -31.7576 H   0  0  0  0  0  0  0  0  0  0  0  0
   -9.6877   20.5170  -31.8799 H   0  0  0  0  0  0  0  0  0  0  0  0
   -5.5824   16.9044  -32.5005 H   0  0  0  0  0  0  0  0  0  0  0  0
   -6.9802   16.2834  -33.4720 H   0  0  0  0  0  0  0  0  0  0  0  0
   -4.8527   15.6038  -34.4937 H   0  0  0  0  0  0  0  0  0  0  0  0
   -5.7391   16.7738  -35.5500 H   0  0  0  0  0  0  0  0  0  0  0  0
   -3.1460   17.0813  -34.0760 H   0  0  0  0  0  0  0  0  0  0  0  0
   -3.7073   17.7684  -35.6660 H   0  0  0  0  0  0  0  0  0  0  0  0
   -4.0286   18.8581  -32.8728 H   0  0  0  0  0  0  0  0  0  0  0  0
   -3.6080   19.6932  -34.4213 H   0  0  0  0  0  0  0  0  0  0  0  0
   -5.8709   20.3144  -33.6268 H   0  0  0  0  0  0  0  0  0  0  0  0
   -5.9039   19.4177  -35.2134 H   0  0  0  0  0  0  0  0  0  0  0  0
   -5.4138   21.0835  -32.2629 H   0  0  0  0  0  0  0  0  0  0  0  0
   -3.1154   22.5646  -32.6422 H   0  0  0  0  0  0  0  0  0  0  0  0
  1  2  1  0
  2  3  2  0
  2  4  1  0
  4  5  2  0
  5  6  1  0
  6  7  2  0
  7  8  1  0
  8  9  1  0
  9 10  2  0
  9 11  2  0
  9 12  1  0
 12 13  1  0
 13 14  2  0
 14 15  1  0
 15 16  2  0
 16 17  1  0
 17 18  1  0
 18 19  2  0
 18 20  2  0
 18 21  1  0
 21 22  1  0
 22 23  1  0
 23 24  1  0
 24 25  1  0
 25 26  1  0
 17 27  2  0
  8 28  2  0
 28  4  1  0
 27 13  1  0
 26 21  1  0
  1 29  1  0
  1 30  1  0
  5 31  1  0
  6 32  1  0
  7 33  1  0
 14 34  1  0
 15 35  1  0
 16 36  1  0
 22 37  1  0
 22 38  1  0
 23 39  1  0
 23 40  1  0
 24 41  1  0
 24 42  1  0
 25 43  1  0
 25 44  1  0
 26 45  1  0
 26 46  1  0
 27 47  1  0
 28 48  1  0
M  CHG  1  12  -1
M  END
>  <UniqueID>  (6) 
6

>  <SMILES>  (6) 
NC(=O)c1cccc(S(=O)(=O)[N-]c2cccc(S(=O)(=O)N3CCCCC3)c2)c1

>  <Energy>  (6) 
59.808208734545524

>  <Genealogy>  (6) 
NC(=O)c1cccc(S(=O)(=O)[N-]c2cccc(S(=O)(=O)N3CCCCC3)c2)c1 (protonated)
NC(=O)c1cccc(S(=O)(=O)[N-]c2cccc(S(=O)(=O)N3CCCCC3)c2)c1 (3D coordinates assigned)
NC(=O)c1cccc(S(=O)(=O)[N-]c2cccc(S(=O)(=O)N3CCCCC3)c2)c1 (nonaromatic ring conformer: 59.808208734545524 kcal/mol)

>  <smiles>  (6) 
NC(=O)c1cccc(S(=O)(=O)Nc2cccc(S(=O)(=O)N3CCCCC3)c2)c1

>  <score_type>  (6) 
oracle

>  <origin>  (6) 
adgpu

>  <m_score__min__energy>  (6) 
-11.640000000000001

>  <m_primary>  (6) 
energy

$$$$
6:0
     RDKit          3D

 30 32  0  0  0  0  0  0  0  0999 V2000
   -7.1764   16.4123  -32.6623 H   0  0  0  0  0  0  0  0  0  0  0  0
   -7.2620   17.5050  -32.7560 C   0  0  0  0  0  0  0  0  0  0  0  0
   -8.1240   18.2400  -32.0040 N   0  0  0  0  0  0  0  0  0  0  0  0
   -8.0320   19.5580  -32.2800 C   0  0  0  0  0  0  0  0  0  0  0  0
   -8.7930   20.4390  -31.7010 N   0  0  0  0  0  0  0  0  0  0  0  0
   -8.7310   21.8580  -31.9010 C   0  0  0  0  0  0  0  0  0  0  0  0
   -9.7390   22.4520  -32.3670 O   0  0  0  0  0  0  0  0  0  0  0  0
   -7.5530   22.6440  -31.4920 C   0  0  0  0  0  0  0  0  0  0  0  0
   -7.0670   23.6960  -32.1780 N   0  0  0  0  0  0  0  0  0  0  0  0
   -6.0150   24.1110  -31.5360 O   0  0  0  0  0  0  0  0  0  0  0  0
   -5.7840   23.3800  -30.4680 C   0  0  0  0  0  0  0  0  0  0  0  0
   -4.6560   23.6070  -29.5360 C   0  0  0  0  0  0  0  0  0  0  0  0
   -4.5520   22.9000  -28.3240 C   0  0  0  0  0  0  0  0  0  0  0  0
   -5.3201   22.1602  -28.0545 H   0  0  0  0  0  0  0  0  0  0  0  0
   -3.4770   23.1330  -27.4600 C   0  0  0  0  0  0  0  0  0  0  0  0
   -3.4023   22.5750  -26.5150 H   0  0  0  0  0  0  0  0  0  0  0  0
   -2.4990   24.0710  -27.7930 C   0  0  0  0  0  0  0  0  0  0  0  0
   -1.6557   24.2524  -27.1104 H   0  0  0  0  0  0  0  0  0  0  0  0
   -2.5910   24.7800  -28.9940 C   0  0  0  0  0  0  0  0  0  0  0  0
   -1.6170   25.7130  -29.3260 O   0  0  0  0  0  0  0  0  0  0  0  0
   -3.6640   24.5500  -29.8620 C   0  0  0  0  0  0  0  0  0  0  0  0
   -3.7325   25.1104  -30.8060 H   0  0  0  0  0  0  0  0  0  0  0  0
   -6.7570   22.4000  -30.3910 C   0  0  0  0  0  0  0  0  0  0  0  0
   -6.8698   21.6122  -29.6317 H   0  0  0  0  0  0  0  0  0  0  0  0
   -6.8860   19.8700  -33.4840 S   0  0  0  0  0  0  0  0  0  0  0  0
   -6.4970   18.2430  -33.6530 C   0  0  0  0  0  0  0  0  0  0  0  0
   -5.4280   17.7000  -34.5420 C   0  0  0  0  0  0  0  0  0  0  0  0
   -4.6147   17.2869  -33.9273 H   0  0  0  0  0  0  0  0  0  0  0  0
   -5.8475   16.9057  -35.1769 H   0  0  0  0  0  0  0  0  0  0  0  0
   -5.0340   18.5072  -35.1769 H   0  0  0  0  0  0  0  0  0  0  0  0
  1  2  1  0
  2  3  1  0
  3  4  1  0
  4  5  2  0
  5  6  1  0
  6  7  2  0
  6  8  1  0
  8  9  2  0
  9 10  1  0
 10 11  1  0
 11 12  1  0
 12 13  2  0
 13 14  1  0
 13 15  1  0
 15 16  1  0
 15 17  2  0
 17 18  1  0
 17 19  1  0
 19 20  1  0
 19 21  2  0
 21 22  1  0
 11 23  2  0
 23 24  1  0
  4 25  1  0
 25 26  1  0
 26 27  1  0
 27 28  1  0
 27 29  1  0
 27 30  1  0
 26  2  2  0
 23  8  1  0
 21 12  1  0
M  CHG  2   3  -1  20  -1
M  END
>  <UniqueID>  (7) 
7

>  <SMILES>  (7) 
Cc1c[n-]/c(=N/C(=O)c2cc(-c3cccc([O-])c3)on2)s1

>  <Energy>  (7) 
99.63668292110219

>  <Genealogy>  (7) 
Cc1c[n-]c(=NC(=O)c2cc(-c3cccc([O-])c3)on2)s1 (protonated)
Cc1c[n-]/c(=N/C(=O)c2cc(-c3cccc([O-])c3)on2)s1 (cis-trans isomerization)
Cc1c[n-]/c(=N/C(=O)c2cc(-c3cccc([O-])c3)on2)s1 (3D coordinates assigned)
Cc1c[n-]/c(=N/C(=O)c2cc(-c3cccc([O-])c3)on2)s1 (optimized conformer: 99.63668292110219 kcal/mol)

>  <smiles>  (7) 
Cc1c[nH]c(=NC(=O)c2cc(-c3cccc(O)c3)on2)s1

>  <score_type>  (7) 
oracle

>  <origin>  (7) 
adgpu

>  <m_score__min__energy>  (7) 
-11.25

>  <m_primary>  (7) 
energy

$$$$
7:0
     RDKit          3D

 64 68  0  0  0  0  0  0  0  0999 V2000
   -4.4360   24.7690  -31.1010 O   0  0  0  0  0  0  0  0  0  0  0  0
   -4.7010   23.6130  -30.6770 C   0  0  0  0  0  0  0  0  0  0  0  0
   -3.8000   23.0080  -29.7390 N   0  0  0  0  0  0  0  0  0  0  0  0
   -2.7220   22.1130  -30.0510 C   0  0  0  0  0  0  0  0  0  0  0  0
   -1.9500   21.5050  -29.0460 C   0  0  0  0  0  0  0  0  0  0  0  0
   -0.9220   20.6220  -29.3880 C   0  0  0  0  0  0  0  0  0  0  0  0
   -0.6680   20.3260  -30.7290 C   0  0  0  0  0  0  0  0  0  0  0  0
   -1.4460   20.9080  -31.7390 C   0  0  0  0  0  0  0  0  0  0  0  0
   -1.1350   20.5210  -33.4340 S   0  0  0  0  0  0  0  0  0  0  0  0
   -0.8200   19.0570  -33.5570 O   0  0  0  0  0  0  0  0  0  0  0  0
   -2.3780   20.7950  -34.2350 O   0  0  0  0  0  0  0  0  0  0  0  0
    0.1870   21.4580  -34.0870 N   0  0  0  0  0  0  0  0  0  0  0  0
    1.4390   20.6830  -34.0470 C   0  0  0  0  0  0  0  0  0  0  0  0
    2.5880   21.4480  -34.7440 C   0  0  0  0  0  0  0  0  0  0  0  0
    2.1760   22.7290  -35.1820 O   0  0  0  0  0  0  0  0  0  0  0  0
    1.1060   22.5990  -36.0990 C   0  0  0  0  0  0  0  0  0  0  0  0
   -0.1120   21.8900  -35.4650 C   0  0  0  0  0  0  0  0  0  0  0  0
   -2.4720   21.8000  -31.3940 C   0  0  0  0  0  0  0  0  0  0  0  0
   -5.9560   22.9490  -31.1070 C   0  0  0  0  0  0  0  0  0  0  0  0
   -7.0920   23.7030  -31.4480 C   0  0  0  0  0  0  0  0  0  0  0  0
   -8.2660   23.0660  -31.8600 C   0  0  0  0  0  0  0  0  0  0  0  0
   -8.3140   21.6740  -31.9530 C   0  0  0  0  0  0  0  0  0  0  0  0
   -7.1830   20.9090  -31.6370 C   0  0  0  0  0  0  0  0  0  0  0  0
   -7.2230   19.1510  -31.7540 S   0  0  0  0  0  0  0  0  0  0  0  0
   -8.5200   18.6710  -31.1650 O   0  0  0  0  0  0  0  0  0  0  0  0
   -6.0960   18.5570  -30.9560 O   0  0  0  0  0  0  0  0  0  0  0  0
   -7.1300   18.6440  -33.4280 N   0  0  0  0  0  0  0  0  0  0  0  0
   -6.1410   19.4060  -34.2120 C   0  0  0  0  0  0  0  0  0  0  0  0
   -4.6970   19.1420  -33.7620 C   0  0  0  0  0  0  0  0  0  0  0  0
   -4.4310   17.6830  -33.5130 C   0  0  0  0  0  0  0  0  0  0  0  0
   -3.1060   17.2450  -33.3600 C   0  0  0  0  0  0  0  0  0  0  0  0
   -2.8340   15.9070  -33.0620 C   0  0  0  0  0  0  0  0  0  0  0  0
   -3.8810   14.9990  -32.9030 C   0  0  0  0  0  0  0  0  0  0  0  0
   -5.2050   15.4250  -33.0430 C   0  0  0  0  0  0  0  0  0  0  0  0
   -5.4910   16.7680  -33.3320 C   0  0  0  0  0  0  0  0  0  0  0  0
   -6.9270   17.1880  -33.5480 C   0  0  0  0  0  0  0  0  0  0  0  0
   -6.0100   21.5470  -31.2130 C   0  0  0  0  0  0  0  0  0  0  0  0
   -2.1554   21.7246  -27.9879 H   0  0  0  0  0  0  0  0  0  0  0  0
   -0.3114   20.1590  -28.5989 H   0  0  0  0  0  0  0  0  0  0  0  0
    0.1452   19.6340  -30.9933 H   0  0  0  0  0  0  0  0  0  0  0  0
    0.2910   22.3060  -33.4820 H   0  0  0  0  0  0  0  0  0  0  0  0
    1.7143   20.4985  -32.9981 H   0  0  0  0  0  0  0  0  0  0  0  0
    1.2793   19.7324  -34.5770 H   0  0  0  0  0  0  0  0  0  0  0  0
    3.4201   21.5649  -34.0341 H   0  0  0  0  0  0  0  0  0  0  0  0
    2.8993   20.8687  -35.6257 H   0  0  0  0  0  0  0  0  0  0  0  0
    0.8000   23.6014  -36.4332 H   0  0  0  0  0  0  0  0  0  0  0  0
    1.4540   21.9885  -36.9453 H   0  0  0  0  0  0  0  0  0  0  0  0
   -0.9641   22.5854  -35.4472 H   0  0  0  0  0  0  0  0  0  0  0  0
   -0.3529   21.0012  -36.0667 H   0  0  0  0  0  0  0  0  0  0  0  0
   -3.0855   22.2576  -32.1841 H   0  0  0  0  0  0  0  0  0  0  0  0
   -7.0570   24.8009  -31.3903 H   0  0  0  0  0  0  0  0  0  0  0  0
   -9.1547   23.6634  -32.1117 H   0  0  0  0  0  0  0  0  0  0  0  0
   -9.2409   21.1768  -32.2748 H   0  0  0  0  0  0  0  0  0  0  0  0
   -6.2371   19.1224  -35.2705 H   0  0  0  0  0  0  0  0  0  0  0  0
   -6.3469   20.4754  -34.0568 H   0  0  0  0  0  0  0  0  0  0  0  0
   -4.0122   19.4969  -34.5463 H   0  0  0  0  0  0  0  0  0  0  0  0
   -4.5380   19.6780  -32.8147 H   0  0  0  0  0  0  0  0  0  0  0  0
   -2.2772   17.9590  -33.4753 H   0  0  0  0  0  0  0  0  0  0  0  0
   -1.7928   15.5694  -32.9527 H   0  0  0  0  0  0  0  0  0  0  0  0
   -3.6645   13.9466  -32.6672 H   0  0  0  0  0  0  0  0  0  0  0  0
   -6.0271   14.7035  -32.9260 H   0  0  0  0  0  0  0  0  0  0  0  0
   -7.2355   16.8737  -34.5560 H   0  0  0  0  0  0  0  0  0  0  0  0
   -7.5300   16.7077  -32.7633 H   0  0  0  0  0  0  0  0  0  0  0  0
   -5.1235   20.9466  -30.9608 H   0  0  0  0  0  0  0  0  0  0  0  0
  1  2  2  0
  2  3  1  0
  3  4  1  0
  4  5  2  0
  5  6  1  0
  6  7  2  0
  7  8  1  0
  8  9  1  0
  9 10  2  0
  9 11  2  0
  9 12  1  0
 12 13  1  0
 13 14  1  0
 14 15  1  0
 15 16  1  0
 16 17  1  0
  8 18  2  0
  2 19  1  0
 19 20  2  0
 20 21  1  0
 21 22  2  0
 22 23  1  0
 23 24  1  0
 24 25  2  0
 24 26  2  0
 24 27  1  0
 27 28  1  0
 28 29  1  0
 29 30  1  0
 30 31  2  0
 31 32  1  0
 32 33  2  0
 33 34  1  0
 34 35  2  0
 35 36  1  0
 23 37  2  0
 18  4  1  0
 37 19  1  0
 17 12  1  0
 36 27  1  0
 35 30  1  0
  5 38  1  0
  6 39  1  0
  7 40  1  0
 12 41  1  0
 13 42  1  0
 13 43  1  0
 14 44  1  0
 14 45  1  0
 16 46  1  0
 16 47  1  0
 17 48  1  0
 17 49  1  0
 18 50  1  0
 20 51  1  0
 21 52  1  0
 22 53  1  0
 28 54  1  0
 28 55  1  0
 29 56  1  0
 29 57  1  0
 31 58  1  0
 32 59  1  0
 33 60  1  0
 34 61  1  0
 36 62  1  0
 36 63  1  0
 37 64  1  0
M  CHG  2   3  -1  12   1
M  END
>  <UniqueID>  (8) 
8

>  <SMILES>  (8) 
O=C([N-]c1cccc(S(=O)(=O)[NH+]2CCOCC2)c1)c1cccc(S(=O)(=O)N2CCc3ccccc3C2)c1

>  <Energy>  (8) 
87.25149090624727

>  <Genealogy>  (8) 
O=C([N-]c1cccc(S(=O)(=O)[NH+]2CCOCC2)c1)c1cccc(S(=O)(=O)N2CCc3ccccc3C2)c1 (protonated)
O=C([N-]c1cccc(S(=O)(=O)[NH+]2CCOCC2)c1)c1cccc(S(=O)(=O)N2CCc3ccccc3C2)c1 (3D coordinates assigned)
O=C([N-]c1cccc(S(=O)(=O)[NH+]2CCOCC2)c1)c1cccc(S(=O)(=O)N2CCc3ccccc3C2)c1 (nonaromatic ring conformer: 87.25149090624727 kcal/mol)

>  <smiles>  (8) 
O=C(Nc1cccc(S(=O)(=O)N2CCOCC2)c1)c1cccc(S(=O)(=O)N2CCc3ccccc3C2)c1

>  <score_type>  (8) 
oracle

>  <origin>  (8) 
adgpu

>  <m_score__min__energy>  (8) 
-11.82

>  <m_primary>  (8) 
energy

$$$$
8:0
     RDKit          3D

 55 58  0  0  0  0  0  0  0  0999 V2000
   -8.5760   20.5620  -32.3010 C   0  0  0  0  0  0  0  0  0  0  0  0
   -7.3290   21.3600  -32.0170 C   0  0  0  0  0  0  0  0  0  0  0  0
   -7.4580   22.5610  -31.3050 C   0  0  0  0  0  0  0  0  0  0  0  0
   -6.3460   23.3510  -31.0300 C   0  0  0  0  0  0  0  0  0  0  0  0
   -5.0720   22.9560  -31.4550 C   0  0  0  0  0  0  0  0  0  0  0  0
   -3.9200   23.7830  -31.2210 N   0  0  0  0  0  0  0  0  0  0  0  0
   -3.8370   24.9290  -30.3610 C   0  0  0  0  0  0  0  0  0  0  0  0
   -4.6820   25.8580  -30.4460 O   0  0  0  0  0  0  0  0  0  0  0  0
   -2.7840   25.0340  -29.3960 N   0  0  0  0  0  0  0  0  0  0  0  0
   -2.1610   23.9340  -28.7180 C   0  0  0  0  0  0  0  0  0  0  0  0
   -1.9170   23.9630  -27.3340 C   0  0  0  0  0  0  0  0  0  0  0  0
   -1.2980   22.8800  -26.7070 C   0  0  0  0  0  0  0  0  0  0  0  0
   -0.9030   21.7680  -27.4540 C   0  0  0  0  0  0  0  0  0  0  0  0
   -1.1080   21.7410  -28.8410 C   0  0  0  0  0  0  0  0  0  0  0  0
   -0.6120   20.3330  -29.7870 S   0  0  0  0  0  0  0  0  0  0  0  0
   -0.9990   19.0840  -29.0450 O   0  0  0  0  0  0  0  0  0  0  0  0
    0.8850   20.3430  -29.9280 O   0  0  0  0  0  0  0  0  0  0  0  0
   -1.3310   20.2950  -31.3800 N   0  0  0  0  0  0  0  0  0  0  0  0
   -1.2190   18.9800  -32.0030 C   0  0  0  0  0  0  0  0  0  0  0  0
   -1.2960   19.2130  -33.5030 C   0  0  0  0  0  0  0  0  0  0  0  0
   -0.9110   20.6730  -33.7020 C   0  0  0  0  0  0  0  0  0  0  0  0
   -0.6780   21.2220  -32.3020 C   0  0  0  0  0  0  0  0  0  0  0  0
   -1.7370   22.8300  -29.4670 C   0  0  0  0  0  0  0  0  0  0  0  0
   -4.9240   21.7590  -32.1820 C   0  0  0  0  0  0  0  0  0  0  0  0
   -3.6670   21.3870  -32.6670 O   0  0  0  0  0  0  0  0  0  0  0  0
   -6.0410   20.9290  -32.4320 C   0  0  0  0  0  0  0  0  0  0  0  0
   -5.8140   19.3920  -33.3040 S   0  0  0  0  0  0  0  0  0  0  0  0
   -4.3500   19.1310  -33.5300 O   0  0  0  0  0  0  0  0  0  0  0  0
   -6.4750   19.4550  -34.6540 O   0  0  0  0  0  0  0  0  0  0  0  0
   -6.5790   18.0770  -32.3520 C   0  0  0  0  0  0  0  0  0  0  0  0
   -5.7630   16.8060  -32.1760 C   0  0  0  0  0  0  0  0  0  0  0  0
   -6.9080   16.8430  -33.1740 C   0  0  0  0  0  0  0  0  0  0  0  0
   -9.0439   20.2626  -31.3516 H   0  0  0  0  0  0  0  0  0  0  0  0
   -9.2811   21.1771  -32.8793 H   0  0  0  0  0  0  0  0  0  0  0  0
   -8.3129   19.6641  -32.8793 H   0  0  0  0  0  0  0  0  0  0  0  0
   -8.4514   22.8830  -30.9592 H   0  0  0  0  0  0  0  0  0  0  0  0
   -6.4689   24.2926  -30.4747 H   0  0  0  0  0  0  0  0  0  0  0  0
   -2.2147   24.8417  -26.7431 H   0  0  0  0  0  0  0  0  0  0  0  0
   -1.1209   22.9026  -25.6216 H   0  0  0  0  0  0  0  0  0  0  0  0
   -0.4297   20.9108  -26.9529 H   0  0  0  0  0  0  0  0  0  0  0  0
   -0.2587   18.5134  -31.7385 H   0  0  0  0  0  0  0  0  0  0  0  0
   -2.0175   18.3052  -31.6608 H   0  0  0  0  0  0  0  0  0  0  0  0
   -0.5926   18.5533  -34.0322 H   0  0  0  0  0  0  0  0  0  0  0  0
   -2.2977   18.9946  -33.9015 H   0  0  0  0  0  0  0  0  0  0  0  0
    0.0064   20.7508  -34.3039 H   0  0  0  0  0  0  0  0  0  0  0  0
   -1.6917   21.2334  -34.2373 H   0  0  0  0  0  0  0  0  0  0  0  0
    0.3998   21.2744  -32.0886 H   0  0  0  0  0  0  0  0  0  0  0  0
   -1.0856   22.2386  -32.1999 H   0  0  0  0  0  0  0  0  0  0  0  0
   -1.8977   22.8151  -30.5551 H   0  0  0  0  0  0  0  0  0  0  0  0
   -3.1970   20.5370  -32.3800 H   0  0  0  0  0  0  0  0  0  0  0  0
   -7.1192   18.7398  -31.6600 H   0  0  0  0  0  0  0  0  0  0  0  0
   -4.7233   16.7659  -32.5328 H   0  0  0  0  0  0  0  0  0  0  0  0
   -5.4947   16.1654  -31.3230 H   0  0  0  0  0  0  0  0  0  0  0  0
   -6.6971   16.8292  -34.2535 H   0  0  0  0  0  0  0  0  0  0  0  0
   -7.8121   16.2395  -33.3426 H   0  0  0  0  0  0  0  0  0  0  0  0
  1  2  1  0
  2  3  2  0
  3  4  1  0
  4  5  2  0
  5  6  1  0
  6  7  1  0
  7  8  2  0
  7  9  1  0
  9 10  1  0
 10 11  2  0
 11 12  1  0
 12 13  2  0
 13 14  1  0
 14 15  1  0
 15 16  2  0
 15 17  2  0
 15 18  1  0
 18 19  1  0
 19 20  1  0
 20 21  1  0
 21 22  1  0
 14 23  2  0
  5 24  1  0
 24 25  1  0
 24 26  2  0
 26 27  1  0
 27 28  2  0
 27 29  2  0
 27 30  1  0
 30 31  1  0
 31 32  1  0
 26  2  1  0
 32 30  1  0
 23 10  1  0
 22 18  1  0
  1 33  1  0
  1 34  1  0
  1 35  1  0
  3 36  1  0
  4 37  1  0
 11 38  1  0
 12 39  1  0
 13 40  1  0
 19 41  1  0
 19 42  1  0
 20 43  1  0
 20 44  1  0
 21 45  1  0
 21 46  1  0
 22 47  1  0
 22 48  1  0
 23 49  1  0
 25 50  1  0
 30 51  1  0
 31 52  1  0
 31 53  1  0
 32 54  1  0
 32 55  1  0
M  CHG  2   6  -1   9  -1
M  END
>  <UniqueID>  (9) 
9

>  <SMILES>  (9) 
Cc1ccc([N-]C(=O)[N-]c2cccc(S(=O)(=O)N3CCCC3)c2)c(O)c1S(=O)(=O)C1CC1

>  <Energy>  (9) 
331.89045940690124

>  <Genealogy>  (9) 
Cc1ccc([N-]C(=O)[N-]c2cccc(S(=O)(=O)N3CCCC3)c2)c(O)c1S(=O)(=O)C1CC1 (protonated)
Cc1ccc([N-]C(=O)[N-]c2cccc(S(=O)(=O)N3CCCC3)c2)c(O)c1S(=O)(=O)C1CC1 (3D coordinates assigned)
Cc1ccc([N-]C(=O)[N-]c2cccc(S(=O)(=O)N3CCCC3)c2)c(O)c1S(=O)(=O)C1CC1 (nonaromatic ring conformer: 331.89045940690124 kcal/mol)

>  <smiles>  (9) 
Cc1ccc(NC(=O)Nc2cccc(S(=O)(=O)N3CCCC3)c2)c(O)c1S(=O)(=O)C1CC1

>  <score_type>  (9) 
oracle

>  <origin>  (9) 
adgpu

>  <m_score__min__energy>  (9) 
-13.91

>  <m_primary>  (9) 
energy

$$$$
9:0
     RDKit          3D

 58 61  0  0  0  0  0  0  0  0999 V2000
   -6.8940   23.7180  -30.3000 O   0  0  0  0  0  0  0  0  0  0  0  0
   -6.4530   23.2220  -31.6520 S   0  0  0  0  0  0  0  0  0  0  0  0
   -6.9720   24.1690  -32.7000 O   0  0  0  0  0  0  0  0  0  0  0  0
   -4.7150   23.2090  -31.7050 N   0  0  0  0  0  0  0  0  0  0  0  0
   -3.8820   23.2410  -30.5410 C   0  0  0  0  0  0  0  0  0  0  0  0
   -3.5130   22.0550  -29.8880 C   0  0  0  0  0  0  0  0  0  0  0  0
   -2.6460   22.0850  -28.7830 C   0  0  0  0  0  0  0  0  0  0  0  0
   -2.1880   20.8610  -28.1740 N   0  0  0  0  0  0  0  0  0  0  0  0
   -1.0960   20.1130  -28.8040 C   0  0  0  0  0  0  0  0  0  0  0  0
   -0.4020   19.2300  -27.7640 C   0  0  0  0  0  0  0  0  0  0  0  0
   -1.3430   18.4220  -27.0840 O   0  0  0  0  0  0  0  0  0  0  0  0
   -2.2170   19.2400  -26.3310 C   0  0  0  0  0  0  0  0  0  0  0  0
   -3.0610   20.1260  -27.2510 C   0  0  0  0  0  0  0  0  0  0  0  0
   -2.2120   23.3260  -28.2910 C   0  0  0  0  0  0  0  0  0  0  0  0
   -2.6290   24.5140  -28.9010 C   0  0  0  0  0  0  0  0  0  0  0  0
   -3.4630   24.4750  -30.0260 C   0  0  0  0  0  0  0  0  0  0  0  0
   -3.8680   25.6590  -30.6430 O   0  0  0  0  0  0  0  0  0  0  0  0
   -7.1340   21.6200  -31.9280 C   0  0  0  0  0  0  0  0  0  0  0  0
   -8.3240   21.2360  -31.2910 C   0  0  0  0  0  0  0  0  0  0  0  0
   -8.8130   19.9370  -31.4430 C   0  0  0  0  0  0  0  0  0  0  0  0
   -8.1200   19.0140  -32.2300 C   0  0  0  0  0  0  0  0  0  0  0  0
   -6.9350   19.3890  -32.8790 C   0  0  0  0  0  0  0  0  0  0  0  0
   -6.0660   18.2380  -33.8920 S   0  0  0  0  0  0  0  0  0  0  0  0
   -6.8030   16.9270  -33.8700 O   0  0  0  0  0  0  0  0  0  0  0  0
   -6.0230   18.7380  -35.3100 O   0  0  0  0  0  0  0  0  0  0  0  0
   -4.4410   18.0120  -33.2880 N   0  0  0  0  0  0  0  0  0  0  0  0
   -4.0780   19.0730  -32.3140 C   0  0  0  0  0  0  0  0  0  0  0  0
   -3.1800   20.1620  -32.9200 C   0  0  0  0  0  0  0  0  0  0  0  0
   -1.8740   19.5630  -33.4670 C   0  0  0  0  0  0  0  0  0  0  0  0
   -2.0550   18.1270  -33.9930 C   0  0  0  0  0  0  0  0  0  0  0  0
   -3.5040   17.8760  -34.4250 C   0  0  0  0  0  0  0  0  0  0  0  0
   -6.4470   20.6950  -32.7280 C   0  0  0  0  0  0  0  0  0  0  0  0
   -3.9067   21.0919  -30.2450 H   0  0  0  0  0  0  0  0  0  0  0  0
   -1.5027   19.4803  -29.6067 H   0  0  0  0  0  0  0  0  0  0  0  0
   -0.3661   20.8214  -29.2229 H   0  0  0  0  0  0  0  0  0  0  0  0
    0.3297   18.5833  -28.2703 H   0  0  0  0  0  0  0  0  0  0  0  0
    0.1021   19.8773  -27.0313 H   0  0  0  0  0  0  0  0  0  0  0  0
   -2.8844   18.6009  -25.7343 H   0  0  0  0  0  0  0  0  0  0  0  0
   -1.6163   19.8859  -25.6737 H   0  0  0  0  0  0  0  0  0  0  0  0
   -3.7546   19.4967  -27.8279 H   0  0  0  0  0  0  0  0  0  0  0  0
   -3.6299   20.8434  -26.6414 H   0  0  0  0  0  0  0  0  0  0  0  0
   -1.5402   23.3646  -27.4208 H   0  0  0  0  0  0  0  0  0  0  0  0
   -2.3007   25.4825  -28.4957 H   0  0  0  0  0  0  0  0  0  0  0  0
   -4.1900   25.6740  -31.6030 H   0  0  0  0  0  0  0  0  0  0  0  0
   -8.8727   21.9599  -30.6706 H   0  0  0  0  0  0  0  0  0  0  0  0
   -9.7460   19.6398  -30.9419 H   0  0  0  0  0  0  0  0  0  0  0  0
   -8.5052   17.9896  -32.3409 H   0  0  0  0  0  0  0  0  0  0  0  0
   -5.0022   19.5442  -31.9482 H   0  0  0  0  0  0  0  0  0  0  0  0
   -3.5119   18.5941  -31.5014 H   0  0  0  0  0  0  0  0  0  0  0  0
   -3.7197   20.6566  -33.7410 H   0  0  0  0  0  0  0  0  0  0  0  0
   -2.9282   20.8857  -32.1308 H   0  0  0  0  0  0  0  0  0  0  0  0
   -1.5136   20.1969  -34.2906 H   0  0  0  0  0  0  0  0  0  0  0  0
   -1.1522   19.5253  -32.6378 H   0  0  0  0  0  0  0  0  0  0  0  0
   -1.3911   17.9744  -34.8567 H   0  0  0  0  0  0  0  0  0  0  0  0
   -1.8049   17.4246  -33.1842 H   0  0  0  0  0  0  0  0  0  0  0  0
   -3.7767   18.6055  -35.2019 H   0  0  0  0  0  0  0  0  0  0  0  0
   -3.5759   16.8480  -34.8099 H   0  0  0  0  0  0  0  0  0  0  0  0
   -5.5207   20.9956  -33.2395 H   0  0  0  0  0  0  0  0  0  0  0  0
  1  2  2  0
  2  3  2  0
  2  4  1  0
  4  5  1  0
  5  6  2  0
  6  7  1  0
  7  8  1  0
  8  9  1  0
  9 10  1  0
 10 11  1  0
 11 12  1  0
 12 13  1  0
  7 14  2  0
 14 15  1  0
 15 16  2  0
 16 17  1  0
  2 18  1  0
 18 19  2  0
 19 20  1  0
 20 21  2  0
 21 22  1  0
 22 23  1  0
 23 24  2  0
 23 25  2  0
 23 26  1  0
 26 27  1  0
 27 28  1  0
 28 29  1  0
 29 30  1  0
 30 31  1  0
 22 32  2  0
 16  5  1  0
 32 18  1  0
 13  8  1  0
 31 26  1  0
  6 33  1  0
  9 34  1  0
  9 35  1  0
 10 36  1  0
 10 37  1  0
 12 38  1  0
 12 39  1  0
 13 40  1  0
 13 41  1  0
 14 42  1  0
 15 43  1  0
 17 44  1  0
 19 45  1  0
 20 46  1  0
 21 47  1  0
 27 48  1  0
 27 49  1  0
 28 50  1  0
 28 51  1  0
 29 52  1  0
 29 53  1  0
 30 54  1  0
 30 55  1  0
 31 56  1  0
 31 57  1  0
 32 58  1  0
M  CHG  1   4  -1
M  END
>  <UniqueID>  (10) 
10

>  <SMILES>  (10) 
O=S(=O)([N-]c1cc(N2CCOCC2)ccc1O)c1cccc(S(=O)(=O)N2CCCCC2)c1

>  <Energy>  (10) 
76.0382087533127

>  <Genealogy>  (10) 
O=S(=O)([N-]c1cc(N2CCOCC2)ccc1O)c1cccc(S(=O)(=O)N2CCCCC2)c1 (protonated)
O=S(=O)([N-]c1cc(N2CCOCC2)ccc1O)c1cccc(S(=O)(=O)N2CCCCC2)c1 (3D coordinates assigned)
O=S(=O)([N-]c1cc(N2CCOCC2)ccc1O)c1cccc(S(=O)(=O)N2CCCCC2)c1 (nonaromatic ring conformer: 76.0382087533127 kcal/mol)

>  <smiles>  (10) 
O=S(=O)(Nc1cc(N2CCOCC2)ccc1O)c1cccc(S(=O)(=O)N2CCCCC2)c1

>  <score_type>  (10) 
oracle

>  <origin>  (10) 
adgpu

>  <m_score__min__energy>  (10) 
-13.029999999999999

>  <m_primary>  (10) 
energy

$$$$
10:0
     RDKit          3D

 57 60  0  0  0  0  0  0  0  0999 V2000
   -5.7040   24.9450  -28.9650 O   0  0  0  0  0  0  0  0  0  0  0  0
   -5.2340   24.9420  -30.3900 S   0  0  0  0  0  0  0  0  0  0  0  0
   -5.7390   26.1840  -31.0630 O   0  0  0  0  0  0  0  0  0  0  0  0
   -3.5000   24.9420  -30.4300 N   0  0  0  0  0  0  0  0  0  0  0  0
   -2.6510   24.2170  -29.5320 C   0  0  0  0  0  0  0  0  0  0  0  0
   -2.9210   22.8860  -29.1690 C   0  0  0  0  0  0  0  0  0  0  0  0
   -2.0830   22.2190  -28.2720 C   0  0  0  0  0  0  0  0  0  0  0  0
   -0.9700   22.8670  -27.7380 C   0  0  0  0  0  0  0  0  0  0  0  0
   -0.6910   24.1870  -28.0980 C   0  0  0  0  0  0  0  0  0  0  0  0
   -1.5230   24.8610  -28.9930 C   0  0  0  0  0  0  0  0  0  0  0  0
   -1.2370   26.1740  -29.3400 O   0  0  0  0  0  0  0  0  0  0  0  0
   -5.8450   23.5380  -31.2610 C   0  0  0  0  0  0  0  0  0  0  0  0
   -7.2180   23.3570  -31.4650 C   0  0  0  0  0  0  0  0  0  0  0  0
   -7.6860   22.2180  -32.1290 C   0  0  0  0  0  0  0  0  0  0  0  0
   -6.7810   21.2520  -32.6010 C   0  0  0  0  0  0  0  0  0  0  0  0
   -7.2620   20.1140  -33.2380 O   0  0  0  0  0  0  0  0  0  0  0  0
   -5.3970   21.4430  -32.4210 C   0  0  0  0  0  0  0  0  0  0  0  0
   -4.1890   20.2840  -33.0000 S   0  0  0  0  0  0  0  0  0  0  0  0
   -3.4980   20.8710  -34.1990 O   0  0  0  0  0  0  0  0  0  0  0  0
   -4.8950   19.0130  -33.3850 O   0  0  0  0  0  0  0  0  0  0  0  0
   -3.0150   19.9250  -31.7750 N   0  0  0  0  0  0  0  0  0  0  0  0
   -1.5940   19.9640  -31.9560 C   0  0  0  0  0  0  0  0  0  0  0  0
   -0.7040   19.4440  -30.9990 C   0  0  0  0  0  0  0  0  0  0  0  0
    0.6740   19.5070  -31.2190 C   0  0  0  0  0  0  0  0  0  0  0  0
    1.1750   20.0840  -32.3880 C   0  0  0  0  0  0  0  0  0  0  0  0
    0.2980   20.6120  -33.3430 C   0  0  0  0  0  0  0  0  0  0  0  0
    0.9160   21.3600  -34.8140 S   0  0  0  0  0  0  0  0  0  0  0  0
    2.3270   21.8330  -34.5880 O   0  0  0  0  0  0  0  0  0  0  0  0
    0.0570   22.5500  -35.1360 O   0  0  0  0  0  0  0  0  0  0  0  0
    0.8590   20.1990  -36.1240 N   0  0  0  0  0  0  0  0  0  0  0  0
    0.1560   18.9580  -35.7290 C   0  0  0  0  0  0  0  0  0  0  0  0
    1.1200   17.8240  -35.3470 C   0  0  0  0  0  0  0  0  0  0  0  0
    2.2880   18.3550  -34.7630 O   0  0  0  0  0  0  0  0  0  0  0  0
    3.0510   19.0350  -35.7440 C   0  0  0  0  0  0  0  0  0  0  0  0
    2.2020   19.9380  -36.6700 C   0  0  0  0  0  0  0  0  0  0  0  0
   -1.0840   20.5450  -33.1230 C   0  0  0  0  0  0  0  0  0  0  0  0
   -4.9420   22.5850  -31.7440 C   0  0  0  0  0  0  0  0  0  0  0  0
   -3.7944   22.3683  -29.5923 H   0  0  0  0  0  0  0  0  0  0  0  0
   -2.3019   21.1796  -27.9862 H   0  0  0  0  0  0  0  0  0  0  0  0
   -0.3116   22.3384  -27.0330 H   0  0  0  0  0  0  0  0  0  0  0  0
    0.1870   24.6970  -27.6750 H   0  0  0  0  0  0  0  0  0  0  0  0
   -7.9308   24.1123  -31.1023 H   0  0  0  0  0  0  0  0  0  0  0  0
   -8.7663   22.0781  -32.2822 H   0  0  0  0  0  0  0  0  0  0  0  0
   -6.8090   19.7360  -34.0640 H   0  0  0  0  0  0  0  0  0  0  0  0
   -1.0933   18.9875  -30.0770 H   0  0  0  0  0  0  0  0  0  0  0  0
    1.3676   19.1004  -30.4682 H   0  0  0  0  0  0  0  0  0  0  0  0
    2.2609   20.1237  -32.5587 H   0  0  0  0  0  0  0  0  0  0  0  0
   -0.4876   19.1785  -34.8646 H   0  0  0  0  0  0  0  0  0  0  0  0
   -0.4286   18.6179  -36.5965 H   0  0  0  0  0  0  0  0  0  0  0  0
    0.6263   17.1540  -34.6278 H   0  0  0  0  0  0  0  0  0  0  0  0
    1.3940   17.2647  -36.2537 H   0  0  0  0  0  0  0  0  0  0  0  0
    3.7954   19.6629  -35.2325 H   0  0  0  0  0  0  0  0  0  0  0  0
    3.5179   18.2681  -36.3795 H   0  0  0  0  0  0  0  0  0  0  0  0
    2.7226   20.8981  -36.8010 H   0  0  0  0  0  0  0  0  0  0  0  0
    2.0777   19.4123  -37.6282 H   0  0  0  0  0  0  0  0  0  0  0  0
   -1.7754   20.9531  -33.8750 H   0  0  0  0  0  0  0  0  0  0  0  0
   -3.8627   22.7325  -31.5914 H   0  0  0  0  0  0  0  0  0  0  0  0
  1  2  2  0
  2  3  2  0
  2  4  1  0
  4  5  1  0
  5  6  2  0
  6  7  1  0
  7  8  2  0
  8  9  1  0
  9 10  2  0
 10 11  1  0
  2 12  1  0
 12 13  2  0
 13 14  1  0
 14 15  2  0
 15 16  1  0
 15 17  1  0
 17 18  1  0
 18 19  2  0
 18 20  2  0
 18 21  1  0
 21 22  1  0
 22 23  2  0
 23 24  1  0
 24 25  2  0
 25 26  1  0
 26 27  1  0
 27 28  2  0
 27 29  2  0
 27 30  1  0
 30 31  1  0
 31 32  1  0
 32 33  1  0
 33 34  1  0
 34 35  1  0
 26 36  2  0
 17 37  2  0
 10  5  1  0
 37 12  1  0
 36 22  1  0
 35 30  1  0
  6 38  1  0
  7 39  1  0
  8 40  1  0
  9 41  1  0
 13 42  1  0
 14 43  1  0
 16 44  1  0
 23 45  1  0
 24 46  1  0
 25 47  1  0
 31 48  1  0
 31 49  1  0
 32 50  1  0
 32 51  1  0
 34 52  1  0
 34 53  1  0
 35 54  1  0
 35 55  1  0
 36 56  1  0
 37 57  1  0
M  CHG  3   4  -1  11  -1  21  -1
M  END
>  <UniqueID>  (11) 
11

>  <SMILES>  (11) 
O=S(=O)([N-]c1ccccc1[O-])c1ccc(O)c(S(=O)(=O)[N-]c2cccc(S(=O)(=O)N3CCOCC3)c2)c1

>  <Energy>  (11) 
80.87059294697215

>  <Genealogy>  (11) 
O=S(=O)([N-]c1ccccc1[O-])c1ccc(O)c(S(=O)(=O)[N-]c2cccc(S(=O)(=O)N3CCOCC3)c2)c1 (protonated)
O=S(=O)([N-]c1ccccc1[O-])c1ccc(O)c(S(=O)(=O)[N-]c2cccc(S(=O)(=O)N3CCOCC3)c2)c1 (3D coordinates assigned)
O=S(=O)([N-]c1ccccc1[O-])c1ccc(O)c(S(=O)(=O)[N-]c2cccc(S(=O)(=O)N3CCOCC3)c2)c1 (nonaromatic ring conformer: 80.87059294697215 kcal/mol)

>  <smiles>  (11) 
O=S(=O)(Nc1ccccc1O)c1ccc(O)c(S(=O)(=O)Nc2cccc(S(=O)(=O)N3CCOCC3)c2)c1

>  <score_type>  (11) 
oracle

>  <origin>  (11) 
adgpu

>  <m_score__min__energy>  (11) 
-14.99

>  <m_primary>  (11) 
energy

$$$$
11:0
     RDKit          3D

 45 47  0  0  0  0  0  0  0  0999 V2000
   -3.8590   20.4940  -32.9650 C   0  0  0  0  0  0  0  0  0  0  0  0
   -4.5510   21.6520  -32.3280 C   0  0  0  0  0  0  0  0  0  0  0  0
   -3.9340   22.6670  -31.6260 C   0  0  0  0  0  0  0  0  0  0  0  0
   -4.9570   23.4830  -31.1820 C   0  0  0  0  0  0  0  0  0  0  0  0
   -4.7790   24.7120  -30.3820 C   0  0  0  0  0  0  0  0  0  0  0  0
   -5.7970   25.2910  -29.9200 O   0  0  0  0  0  0  0  0  0  0  0  0
   -3.4860   25.2570  -30.0960 N   0  0  0  0  0  0  0  0  0  0  0  0
   -2.6390   24.8830  -28.9990 C   0  0  0  0  0  0  0  0  0  0  0  0
   -1.2370   24.9320  -29.0980 C   0  0  0  0  0  0  0  0  0  0  0  0
   -0.4420   24.5470  -28.0150 C   0  0  0  0  0  0  0  0  0  0  0  0
   -1.0370   24.1280  -26.8170 C   0  0  0  0  0  0  0  0  0  0  0  0
   -0.0480   23.6020  -25.4570 S   0  0  0  0  0  0  0  0  0  0  0  0
    1.2710   23.1100  -25.9830 O   0  0  0  0  0  0  0  0  0  0  0  0
   -0.7280   22.4720  -24.7330 O   0  0  0  0  0  0  0  0  0  0  0  0
    0.2070   24.9400  -24.3620 N   0  0  0  0  0  0  0  0  0  0  0  0
   -1.0290   25.7470  -24.2620 C   0  0  0  0  0  0  0  0  0  0  0  0
   -0.7110   27.1730  -23.7820 C   0  0  0  0  0  0  0  0  0  0  0  0
    0.1680   27.8910  -24.6390 O   0  0  0  0  0  0  0  0  0  0  0  0
    0.9800   27.0590  -25.4560 C   0  0  0  0  0  0  0  0  0  0  0  0
    1.3880   25.7450  -24.7660 C   0  0  0  0  0  0  0  0  0  0  0  0
   -2.4330   24.1030  -26.7100 C   0  0  0  0  0  0  0  0  0  0  0  0
   -3.2290   24.4890  -27.7920 C   0  0  0  0  0  0  0  0  0  0  0  0
   -6.1330   22.9220  -31.6700 C   0  0  0  0  0  0  0  0  0  0  0  0
   -7.5250   23.4380  -31.5050 C   0  0  0  0  0  0  0  0  0  0  0  0
   -5.8520   21.8240  -32.3350 O   0  0  0  0  0  0  0  0  0  0  0  0
   -3.4618   19.8293  -32.1838 H   0  0  0  0  0  0  0  0  0  0  0  0
   -4.5735   19.9387  -33.5905 H   0  0  0  0  0  0  0  0  0  0  0  0
   -3.0315   20.8602  -33.5905 H   0  0  0  0  0  0  0  0  0  0  0  0
   -2.8553   22.7988  -31.4557 H   0  0  0  0  0  0  0  0  0  0  0  0
   -0.7647   25.2744  -30.0306 H   0  0  0  0  0  0  0  0  0  0  0  0
    0.6542   24.5729  -28.1030 H   0  0  0  0  0  0  0  0  0  0  0  0
    0.4020   24.5260  -23.4200 H   0  0  0  0  0  0  0  0  0  0  0  0
   -1.5081   25.7975  -25.2509 H   0  0  0  0  0  0  0  0  0  0  0  0
   -1.7034   25.2716  -23.5345 H   0  0  0  0  0  0  0  0  0  0  0  0
   -1.6557   27.7318  -23.7092 H   0  0  0  0  0  0  0  0  0  0  0  0
   -0.1999   27.0752  -22.8129 H   0  0  0  0  0  0  0  0  0  0  0  0
    0.4207   26.8145  -26.3711 H   0  0  0  0  0  0  0  0  0  0  0  0
    1.9039   27.6151  -25.6730 H   0  0  0  0  0  0  0  0  0  0  0  0
    2.0001   25.1531  -25.4624 H   0  0  0  0  0  0  0  0  0  0  0  0
    1.9535   25.9991  -23.8574 H   0  0  0  0  0  0  0  0  0  0  0  0
   -2.9049   23.7784  -25.7709 H   0  0  0  0  0  0  0  0  0  0  0  0
   -4.3247   24.4832  -27.6948 H   0  0  0  0  0  0  0  0  0  0  0  0
   -7.7593   23.5248  -30.4338 H   0  0  0  0  0  0  0  0  0  0  0  0
   -7.6082   24.4267  -31.9799 H   0  0  0  0  0  0  0  0  0  0  0  0
   -8.2326   22.7424  -31.9799 H   0  0  0  0  0  0  0  0  0  0  0  0
  1  2  1  0
  2  3  2  0
  3  4  1  0
  4  5  1  0
  5  6  2  0
  5  7  1  0
  7  8  1  0
  8  9  2  0
  9 10  1  0
 10 11  2  0
 11 12  1  0
 12 13  2  0
 12 14  2  0
 12 15  1  0
 15 16  1  0
 16 17  1  0
 17 18  1  0
 18 19  1  0
 19 20  1  0
 11 21  1  0
 21 22  2  0
  4 23  2  0
 23 24  1  0
 23 25  1  0
 25  2  1  0
 22  8  1  0
 20 15  1  0
  1 26  1  0
  1 27  1  0
  1 28  1  0
  3 29  1  0
  9 30  1  0
 10 31  1  0
 15 32  1  0
 16 33  1  0
 16 34  1  0
 17 35  1  0
 17 36  1  0
 19 37  1  0
 19 38  1  0
 20 39  1  0
 20 40  1  0
 21 41  1  0
 22 42  1  0
 24 43  1  0
 24 44  1  0
 24 45  1  0
M  CHG  2   7  -1  15   1
M  END
>  <UniqueID>  (12) 
12

>  <SMILES>  (12) 
Cc1cc(C(=O)[N-]c2ccc(S(=O)(=O)[NH+]3CCOCC3)cc2)c(C)o1

>  <Energy>  (12) 
88.25724044596082

>  <Genealogy>  (12) 
Cc1cc(C(=O)[N-]c2ccc(S(=O)(=O)[NH+]3CCOCC3)cc2)c(C)o1 (protonated)
Cc1cc(C(=O)[N-]c2ccc(S(=O)(=O)[NH+]3CCOCC3)cc2)c(C)o1 (3D coordinates assigned)
Cc1cc(C(=O)[N-]c2ccc(S(=O)(=O)[NH+]3CCOCC3)cc2)c(C)o1 (nonaromatic ring conformer: 88.25724044596082 kcal/mol)

>  <smiles>  (12) 
Cc1cc(C(=O)Nc2ccc(S(=O)(=O)N3CCOCC3)cc2)c(C)o1

>  <score_type>  (12) 
oracle

>  <origin>  (12) 
adgpu

>  <m_score__min__energy>  (12) 
-9.7300000000000004

>  <m_primary>  (12) 
energy

$$$$
12:0
     RDKit          3D

 39 41  0  0  0  0  0  0  0  0999 V2000
   -1.9800   25.8650  -28.6030 O   0  0  0  0  0  0  0  0  0  0  0  0
   -2.4870   24.9140  -29.2540 C   0  0  0  0  0  0  0  0  0  0  0  0
   -3.4850   25.2120  -30.2410 N   0  0  0  0  0  0  0  0  0  0  0  0
   -4.6930   24.4740  -30.4770 C   0  0  0  0  0  0  0  0  0  0  0  0
   -5.9290   24.8860  -29.9490 C   0  0  0  0  0  0  0  0  0  0  0  0
   -7.0870   24.1460  -30.2060 C   0  0  0  0  0  0  0  0  0  0  0  0
   -7.0240   22.9940  -30.9990 C   0  0  0  0  0  0  0  0  0  0  0  0
   -8.4870   22.0780  -31.3410 S   0  0  0  0  0  0  0  0  0  0  0  0
   -9.2860   21.8980  -30.0800 O   0  0  0  0  0  0  0  0  0  0  0  0
   -9.3380   22.8240  -32.3310 O   0  0  0  0  0  0  0  0  0  0  0  0
   -8.0410   20.5070  -31.9960 C   0  0  0  0  0  0  0  0  0  0  0  0
   -8.5910   19.3360  -31.4570 C   0  0  0  0  0  0  0  0  0  0  0  0
   -8.2200   18.0870  -31.9640 C   0  0  0  0  0  0  0  0  0  0  0  0
   -7.2950   18.0030  -33.0080 C   0  0  0  0  0  0  0  0  0  0  0  0
   -6.7360   19.1670  -33.5430 C   0  0  0  0  0  0  0  0  0  0  0  0
   -7.1060   20.4180  -33.0370 C   0  0  0  0  0  0  0  0  0  0  0  0
   -5.8000   22.6000  -31.5540 C   0  0  0  0  0  0  0  0  0  0  0  0
   -4.6420   23.3400  -31.2980 C   0  0  0  0  0  0  0  0  0  0  0  0
   -2.0150   23.5330  -29.0030 C   0  0  0  0  0  0  0  0  0  0  0  0
   -2.9570   22.5010  -28.8530 C   0  0  0  0  0  0  0  0  0  0  0  0
   -2.5410   21.1850  -28.6350 C   0  0  0  0  0  0  0  0  0  0  0  0
   -1.1790   20.8880  -28.5510 C   0  0  0  0  0  0  0  0  0  0  0  0
   -0.7670   19.5770  -28.3380 O   0  0  0  0  0  0  0  0  0  0  0  0
   -0.2310   21.9060  -28.6770 C   0  0  0  0  0  0  0  0  0  0  0  0
   -0.6410   23.2310  -28.8900 C   0  0  0  0  0  0  0  0  0  0  0  0
    0.3150   24.2450  -28.9700 O   0  0  0  0  0  0  0  0  0  0  0  0
   -5.9853   25.7943  -29.3311 H   0  0  0  0  0  0  0  0  0  0  0  0
   -8.0499   24.4697  -29.7841 H   0  0  0  0  0  0  0  0  0  0  0  0
   -9.3166   19.3998  -30.6327 H   0  0  0  0  0  0  0  0  0  0  0  0
   -8.6564   17.1702  -31.5409 H   0  0  0  0  0  0  0  0  0  0  0  0
   -7.0066   17.0202  -33.4091 H   0  0  0  0  0  0  0  0  0  0  0  0
   -6.0049   19.0996  -34.3621 H   0  0  0  0  0  0  0  0  0  0  0  0
   -6.6626   21.3331  -33.4566 H   0  0  0  0  0  0  0  0  0  0  0  0
   -5.7497   21.7060  -32.1930 H   0  0  0  0  0  0  0  0  0  0  0  0
   -3.6853   23.0301  -31.7437 H   0  0  0  0  0  0  0  0  0  0  0  0
   -4.0312   22.7312  -28.9077 H   0  0  0  0  0  0  0  0  0  0  0  0
   -3.2863   20.3829  -28.5295 H   0  0  0  0  0  0  0  0  0  0  0  0
    0.8408   21.6682  -28.6090 H   0  0  0  0  0  0  0  0  0  0  0  0
    0.0540   25.2250  -28.9580 H   0  0  0  0  0  0  0  0  0  0  0  0
  1  2  2  0
  2  3  1  0
  3  4  1  0
  4  5  2  0
  5  6  1  0
  6  7  2  0
  7  8  1  0
  8  9  2  0
  8 10  2  0
  8 11  1  0
 11 12  2  0
 12 13  1  0
 13 14  2  0
 14 15  1  0
 15 16  2  0
  7 17  1  0
 17 18  2  0
  2 19  1  0
 19 20  2  0
 20 21  1  0
 21 22  2  0
 22 23  1  0
 22 24  1  0
 24 25  2  0
 25 26  1  0
 18  4  1  0
 25 19  1  0
 16 11  1  0
  5 27  1  0
  6 28  1  0
 12 29  1  0
 13 30  1  0
 14 31  1  0
 15 32  1  0
 16 33  1  0
 17 34  1  0
 18 35  1  0
 20 36  1  0
 21 37  1  0
 24 38  1  0
 26 39  1  0
M  CHG  2   3  -1  23  -1
M  END
>  <UniqueID>  (13) 
13

>  <SMILES>  (13) 
O=C([N-]c1ccc(S(=O)(=O)c2ccccc2)cc1)c1ccc([O-])cc1O

>  <Energy>  (13) 
51.87134393503977

>  <Genealogy>  (13) 
O=C([N-]c1ccc(S(=O)(=O)c2ccccc2)cc1)c1ccc([O-])cc1O (protonated)
O=C([N-]c1ccc(S(=O)(=O)c2ccccc2)cc1)c1ccc([O-])cc1O (3D coordinates assigned)
O=C([N-]c1ccc(S(=O)(=O)c2ccccc2)cc1)c1ccc([O-])cc1O (optimized conformer: 51.87134393503977 kcal/mol)

>  <smiles>  (13) 
O=C(Nc1ccc(S(=O)(=O)c2ccccc2)cc1)c1ccc(O)cc1O

>  <score_type>  (13) 
oracle

>  <origin>  (13) 
adgpu

>  <m_score__min__energy>  (13) 
-11.210000000000001

>  <m_primary>  (13) 
energy

$$$$
13:0
     RDKit          3D

 32 34  0  0  0  0  0  0  0  0999 V2000
   -5.8660   25.6400  -31.2860 O   0  0  0  0  0  0  0  0  0  0  0  0
   -5.1710   24.5310  -30.5470 S   0  0  0  0  0  0  0  0  0  0  0  0
   -5.8380   24.3290  -29.2140 O   0  0  0  0  0  0  0  0  0  0  0  0
   -3.5040   24.9320  -30.2900 N   0  0  0  0  0  0  0  0  0  0  0  0
   -2.6230   24.2690  -29.3720 C   0  0  0  0  0  0  0  0  0  0  0  0
   -2.8590   22.9520  -28.9320 C   0  0  0  0  0  0  0  0  0  0  0  0
   -1.9770   22.3400  -28.0370 C   0  0  0  0  0  0  0  0  0  0  0  0
   -0.8550   23.0310  -27.5740 C   0  0  0  0  0  0  0  0  0  0  0  0
   -0.6130   24.3370  -28.0070 C   0  0  0  0  0  0  0  0  0  0  0  0
   -1.4910   24.9550  -28.9020 C   0  0  0  0  0  0  0  0  0  0  0  0
   -1.2380   26.2560  -29.3240 O   0  0  0  0  0  0  0  0  0  0  0  0
   -5.2620   23.0450  -31.5100 C   0  0  0  0  0  0  0  0  0  0  0  0
   -4.0920   22.5780  -32.1310 C   0  0  0  0  0  0  0  0  0  0  0  0
   -4.1070   21.4190  -32.9050 C   0  0  0  0  0  0  0  0  0  0  0  0
   -5.2890   20.7040  -33.0760 C   0  0  0  0  0  0  0  0  0  0  0  0
   -6.4740   21.1420  -32.4700 C   0  0  0  0  0  0  0  0  0  0  0  0
   -7.6610   20.4130  -32.6490 C   0  0  0  0  0  0  0  0  0  0  0  0
   -8.8460   20.8410  -32.0490 C   0  0  0  0  0  0  0  0  0  0  0  0
   -8.8580   21.9960  -31.2680 C   0  0  0  0  0  0  0  0  0  0  0  0
   -7.6850   22.7320  -31.0790 C   0  0  0  0  0  0  0  0  0  0  0  0
   -6.4730   22.3230  -31.6760 C   0  0  0  0  0  0  0  0  0  0  0  0
   -3.7408   22.4030  -29.2941 H   0  0  0  0  0  0  0  0  0  0  0  0
   -2.1670   21.3115  -27.6964 H   0  0  0  0  0  0  0  0  0  0  0  0
   -0.1626   22.5474  -26.8692 H   0  0  0  0  0  0  0  0  0  0  0  0
    0.2711   24.8806  -27.6425 H   0  0  0  0  0  0  0  0  0  0  0  0
   -3.1515   23.1343  -32.0048 H   0  0  0  0  0  0  0  0  0  0  0  0
   -3.1806   21.0677  -33.3829 H   0  0  0  0  0  0  0  0  0  0  0  0
   -5.2928   19.7911  -33.6896 H   0  0  0  0  0  0  0  0  0  0  0  0
   -7.6566   19.5013  -33.2644 H   0  0  0  0  0  0  0  0  0  0  0  0
   -9.7726   20.2659  -32.1925 H   0  0  0  0  0  0  0  0  0  0  0  0
   -9.7951   22.3295  -30.7984 H   0  0  0  0  0  0  0  0  0  0  0  0
   -7.7065   23.6399  -30.4583 H   0  0  0  0  0  0  0  0  0  0  0  0
  1  2  2  0
  2  3  2  0
  2  4  1  0
  4  5  1  0
  5  6  2  0
  6  7  1  0
  7  8  2  0
  8  9  1  0
  9 10  2  0
 10 11  1  0
  2 12  1  0
 12 13  2  0
 13 14  1  0
 14 15  2  0
 15 16  1  0
 16 17  2  0
 17 18  1  0
 18 19  2  0
 19 20  1  0
 20 21  2  0
 10  5  1  0
 21 12  1  0
 21 16  1  0
  6 22  1  0
  7 23  1  0
  8 24  1  0
  9 25  1  0
 13 26  1  0
 14 27  1  0
 15 28  1  0
 17 29  1  0
 18 30  1  0
 19 31  1  0
 20 32  1  0
M  CHG  2   4  -1  11  -1
M  END
>  <UniqueID>  (14) 
14

>  <SMILES>  (14) 
O=S(=O)([N-]c1ccccc1[O-])c1cccc2ccccc12

>  <Energy>  (14) 
45.21474789495973

>  <Genealogy>  (14) 
O=S(=O)([N-]c1ccccc1[O-])c1cccc2ccccc12 (protonated)
O=S(=O)([N-]c1ccccc1[O-])c1cccc2ccccc12 (3D coordinates assigned)
O=S(=O)([N-]c1ccccc1[O-])c1cccc2ccccc12 (optimized conformer: 45.21474789495973 kcal/mol)

>  <smiles>  (14) 
O=S(=O)(Nc1ccccc1O)c1cccc2ccccc12

>  <score_type>  (14) 
oracle

>  <origin>  (14) 
adgpu

>  <m_score__min__energy>  (14) 
-13.33

>  <m_primary>  (14) 
energy

$$$$
14:0
     RDKit          3D

 49 51  0  0  0  0  0  0  0  0999 V2000
   -0.2180   26.5420  -24.4510 C   0  0  0  0  0  0  0  0  0  0  0  0
   -0.2740   26.1340  -25.8490 N   0  0  0  0  0  0  0  0  0  0  0  0
   -0.8110   26.8320  -26.8700 C   0  0  0  0  0  0  0  0  0  0  0  0
   -0.7700   26.0320  -27.9930 C   0  0  0  0  0  0  0  0  0  0  0  0
   -1.2360   26.3820  -29.2570 O   0  0  0  0  0  0  0  0  0  0  0  0
   -0.2190   24.8410  -27.6830 N   0  0  0  0  0  0  0  0  0  0  0  0
   -0.0360   23.6840  -28.5630 C   0  0  0  0  0  0  0  0  0  0  0  0
   -1.2120   22.7070  -28.4490 C   0  0  0  0  0  0  0  0  0  0  0  0
   -2.5000   23.3400  -28.9100 C   0  0  0  0  0  0  0  0  0  0  0  0
   -3.0120   24.2570  -28.2170 O   0  0  0  0  0  0  0  0  0  0  0  0
   -3.0870   23.0230  -30.1790 N   0  0  0  0  0  0  0  0  0  0  0  0
   -4.4280   23.3340  -30.5830 C   0  0  0  0  0  0  0  0  0  0  0  0
   -5.3860   22.3210  -30.7520 C   0  0  0  0  0  0  0  0  0  0  0  0
   -6.6920   22.6380  -31.1420 C   0  0  0  0  0  0  0  0  0  0  0  0
   -7.8690   21.3530  -31.4080 S   0  0  0  0  0  0  0  0  0  0  0  0
   -8.6880   21.6620  -32.6310 O   0  0  0  0  0  0  0  0  0  0  0  0
   -8.7740   21.2720  -30.2110 O   0  0  0  0  0  0  0  0  0  0  0  0
   -7.0450   19.8270  -31.6300 N   0  0  0  0  0  0  0  0  0  0  0  0
   -5.9560   19.9460  -32.6260 C   0  0  0  0  0  0  0  0  0  0  0  0
   -6.3350   19.3130  -33.9760 C   0  0  0  0  0  0  0  0  0  0  0  0
   -6.6570   17.9350  -33.8730 O   0  0  0  0  0  0  0  0  0  0  0  0
   -7.3290   17.5920  -32.6660 C   0  0  0  0  0  0  0  0  0  0  0  0
   -8.0220   18.7750  -31.9690 C   0  0  0  0  0  0  0  0  0  0  0  0
   -7.0570   23.9780  -31.3170 C   0  0  0  0  0  0  0  0  0  0  0  0
   -6.1190   24.9930  -31.1090 C   0  0  0  0  0  0  0  0  0  0  0  0
   -4.8050   24.6750  -30.7390 C   0  0  0  0  0  0  0  0  0  0  0  0
   -3.8690   25.6870  -30.5310 O   0  0  0  0  0  0  0  0  0  0  0  0
    0.0560   24.9310  -26.3660 C   0  0  0  0  0  0  0  0  0  0  0  0
    0.5520   23.9900  -25.6890 O   0  0  0  0  0  0  0  0  0  0  0  0
   -0.3392   25.6591  -23.8062 H   0  0  0  0  0  0  0  0  0  0  0  0
    0.7535   27.0153  -24.2458 H   0  0  0  0  0  0  0  0  0  0  0  0
   -1.0261   27.2596  -24.2458 H   0  0  0  0  0  0  0  0  0  0  0  0
   -1.2101   27.8557  -26.8170 H   0  0  0  0  0  0  0  0  0  0  0  0
    0.0403   24.0333  -29.6033 H   0  0  0  0  0  0  0  0  0  0  0  0
    0.8823   23.1593  -28.2608 H   0  0  0  0  0  0  0  0  0  0  0  0
   -1.0048   21.8236  -29.0708 H   0  0  0  0  0  0  0  0  0  0  0  0
   -1.3248   22.4230  -27.3923 H   0  0  0  0  0  0  0  0  0  0  0  0
   -5.1078   21.2713  -30.5766 H   0  0  0  0  0  0  0  0  0  0  0  0
   -5.7344   21.0118  -32.7837 H   0  0  0  0  0  0  0  0  0  0  0  0
   -5.0789   19.4098  -32.2347 H   0  0  0  0  0  0  0  0  0  0  0  0
   -7.2073   19.8472  -34.3807 H   0  0  0  0  0  0  0  0  0  0  0  0
   -5.4587   19.3970  -34.6355 H   0  0  0  0  0  0  0  0  0  0  0  0
   -8.0920   16.8349  -32.8997 H   0  0  0  0  0  0  0  0  0  0  0  0
   -6.5599   17.2237  -31.9711 H   0  0  0  0  0  0  0  0  0  0  0  0
   -8.7845   19.1940  -32.6420 H   0  0  0  0  0  0  0  0  0  0  0  0
   -8.4885   18.4139  -31.0406 H   0  0  0  0  0  0  0  0  0  0  0  0
   -8.0837   24.2326  -31.6187 H   0  0  0  0  0  0  0  0  0  0  0  0
   -6.4130   26.0453  -31.2361 H   0  0  0  0  0  0  0  0  0  0  0  0
   -3.1470   25.6050  -29.8240 H   0  0  0  0  0  0  0  0  0  0  0  0
  1  2  1  0
  2  3  1  0
  3  4  2  0
  4  5  1  0
  4  6  1  0
  6  7  1  0
  7  8  1  0
  8  9  1  0
  9 10  2  0
  9 11  1  0
 11 12  1  0
 12 13  2  0
 13 14  1  0
 14 15  1  0
 15 16  2  0
 15 17  2  0
 15 18  1  0
 18 19  1  0
 19 20  1  0
 20 21  1  0
 21 22  1  0
 22 23  1  0
 14 24  2  0
 24 25  1  0
 25 26  2  0
 26 27  1  0
  6 28  1  0
 28 29  2  0
 28  2  1  0
 26 12  1  0
 23 18  1  0
  1 30  1  0
  1 31  1  0
  1 32  1  0
  3 33  1  0
  7 34  1  0
  7 35  1  0
  8 36  1  0
  8 37  1  0
 13 38  1  0
 19 39  1  0
 19 40  1  0
 20 41  1  0
 20 42  1  0
 22 43  1  0
 22 44  1  0
 23 45  1  0
 23 46  1  0
 24 47  1  0
 25 48  1  0
 27 49  1  0
M  CHG  2   5  -1  11  -1
M  END
>  <UniqueID>  (15) 
15

>  <SMILES>  (15) 
Cn1cc([O-])n(CCC(=O)[N-]c2cc(S(=O)(=O)N3CCOCC3)ccc2O)c1=O

>  <Energy>  (15) 
96.77074735080744

>  <Genealogy>  (15) 
Cn1cc([O-])n(CCC(=O)[N-]c2cc(S(=O)(=O)N3CCOCC3)ccc2O)c1=O (protonated)
Cn1cc([O-])n(CCC(=O)[N-]c2cc(S(=O)(=O)N3CCOCC3)ccc2O)c1=O (3D coordinates assigned)
Cn1cc([O-])n(CCC(=O)[N-]c2cc(S(=O)(=O)N3CCOCC3)ccc2O)c1=O (nonaromatic ring conformer: 96.77074735080744 kcal/mol)

>  <smiles>  (15) 
Cn1cc(O)n(CCC(=O)Nc2cc(S(=O)(=O)N3CCOCC3)ccc2O)c1=O

>  <score_type>  (15) 
oracle

>  <origin>  (15) 
adgpu

>  <m_score__min__energy>  (15) 
-13.199999999999999

>  <m_primary>  (15) 
energy

$$$$
15:0
     RDKit          3D

 45 48  0  0  1  0  0  0  0  0999 V2000
    0.2640   19.5200  -35.4860 C   0  0  0  0  0  0  0  0  0  0  0  0
   -0.4970   20.0570  -34.5850 O   0  0  0  0  0  0  0  0  0  0  0  0
   -1.2700   20.5270  -33.6620 C   0  0  0  0  0  0  0  0  0  0  0  0
   -2.6600   20.3230  -33.7120 C   0  0  0  0  0  0  0  0  0  0  0  0
   -3.5040   20.8060  -32.7520 C   0  0  0  0  0  0  0  0  0  0  0  0
   -4.9520   20.6180  -32.7670 C   0  0  0  0  0  0  0  0  0  0  0  0
   -5.5550   19.6380  -33.4950 C   0  0  0  0  0  0  0  0  0  0  0  0
   -6.9040   19.4050  -33.5570 C   0  0  0  0  0  0  0  0  0  0  0  0
   -7.7160   20.2330  -32.8180 C   0  0  0  0  0  0  0  0  0  0  0  0
   -9.0380   19.9950  -32.8860 N   0  0  0  0  0  0  0  0  0  0  0  0
   -9.8540   20.7850  -32.1790 C   0  0  0  0  0  0  0  0  0  0  0  0
   -9.3760   21.7730  -31.4330 N   0  0  0  0  0  0  0  0  0  0  0  0
   -8.0380   22.0230  -31.3560 C   0  0  0  0  0  0  0  0  0  0  0  0
   -7.6760   22.9540  -30.6450 N   0  0  0  0  0  0  0  0  0  0  0  0
   -6.4690   23.4700  -30.3450 C   0  0  0  0  0  0  0  0  0  0  0  0
   -5.9890   24.5820  -31.0760 C   0  0  0  0  0  0  0  0  0  0  0  0
   -4.7100   25.0360  -30.8370 C   0  0  0  0  0  0  0  0  0  0  0  0
   -3.8590   24.4570  -29.9120 C   0  0  0  0  0  0  0  0  0  0  0  0
   -2.5770   24.9520  -29.7090 O   0  0  0  0  0  0  0  0  0  0  0  0
   -4.3510   23.3700  -29.2090 C   0  0  0  0  0  0  0  0  0  0  0  0
   -5.6140   22.8630  -29.3920 C   0  0  0  0  0  0  0  0  0  0  0  0
   -7.1620   21.2510  -32.0550 C   0  0  0  0  0  0  0  0  0  0  0  0
   -5.8100   21.4490  -32.0210 C   0  0  0  0  0  0  0  0  0  0  0  0
   -2.9320   21.5170  -31.7100 C   0  0  0  0  0  0  0  0  0  0  0  0
   -1.5830   21.7440  -31.6140 C   0  0  0  0  0  0  0  0  0  0  0  0
   -1.0020   22.4600  -30.5650 O   0  0  0  0  0  0  0  0  0  0  0  0
   -0.7520   21.2550  -32.5810 C   0  0  0  0  0  0  0  0  0  0  0  0
    0.6350   21.4430  -32.5590 O   0  0  0  0  0  0  0  0  0  0  0  0
    1.0685   18.9523  -34.9955 H   0  0  0  0  0  0  0  0  0  0  0  0
   -0.3331   18.8421  -36.1136 H   0  0  0  0  0  0  0  0  0  0  0  0
    0.7026   20.3098  -36.1136 H   0  0  0  0  0  0  0  0  0  0  0  0
   -3.0831   19.7546  -34.5534 H   0  0  0  0  0  0  0  0  0  0  0  0
   -4.9031   18.9763  -34.0842 H   0  0  0  0  0  0  0  0  0  0  0  0
   -7.3189   18.5918  -34.1706 H   0  0  0  0  0  0  0  0  0  0  0  0
   -9.4380   19.2120  -33.4760 H   0  0  0  0  0  0  0  0  0  0  0  0
  -10.9398   20.6127  -32.2167 H   0  0  0  0  0  0  0  0  0  0  0  0
   -6.6267   25.0765  -31.8235 H   0  0  0  0  0  0  0  0  0  0  0  0
   -4.3474   25.9020  -31.4102 H   0  0  0  0  0  0  0  0  0  0  0  0
   -1.7980   24.3800  -29.9920 H   0  0  0  0  0  0  0  0  0  0  0  0
   -3.6973   22.8886  -28.4668 H   0  0  0  0  0  0  0  0  0  0  0  0
   -5.9573   21.9973  -28.8066 H   0  0  0  0  0  0  0  0  0  0  0  0
   -5.3905   22.2607  -31.4085 H   0  0  0  0  0  0  0  0  0  0  0  0
   -3.5893   21.9176  -30.9242 H   0  0  0  0  0  0  0  0  0  0  0  0
   -0.0100   22.5520  -30.5270 H   0  0  0  0  0  0  0  0  0  0  0  0
    1.2530   21.0310  -33.2690 H   0  0  0  0  0  0  0  0  0  0  0  0
  1  2  1  0
  2  3  1  0
  3  4  2  0
  4  5  1  0
  5  6  1  0
  6  7  2  0
  7  8  1  0
  8  9  2  0
  9 10  1  0
 10 11  1  0
 11 12  2  0
 12 13  1  0
 13 14  2  0
 14 15  1  0
 15 16  2  0
 16 17  1  0
 17 18  2  0
 18 19  1  0
 18 20  1  0
 20 21  2  0
 13 22  1  0
 22 23  2  0
  5 24  2  0
 24 25  1  0
 25 26  1  0
 25 27  2  0
 27 28  1  0
 27  3  1  0
 23  6  1  0
 22  9  1  0
 21 15  1  0
  1 29  1  0
  1 30  1  0
  1 31  1  0
  4 32  1  0
  7 33  1  0
  8 34  1  0
 10 35  1  0
 11 36  1  0
 16 37  1  0
 17 38  1  0
 19 39  1  0
 20 40  1  0
 21 41  1  0
 23 42  1  0
 24 43  1  0
 26 44  1  0
 28 45  1  0
M  END
>  <smiles>  (16) 
COc1cc(-c2ccc3[nH]cnc(=Nc4ccc(O)cc4)c3c2)cc(O)c1O

>  <score_type>  (16) 
oracle

>  <origin>  (16) 
adgpu

>  <m_score__min__energy>  (16) 
-8.9900000000000002

>  <m_primary>  (16) 
energy

$$$$
16:0
     RDKit          3D

 36 37  0  0  0  0  0  0  0  0999 V2000
   -1.5600   21.5010  -33.4570 C   0  0  0  0  0  0  0  0  0  0  0  0
   -3.0700   21.2830  -33.4900 C   0  0  0  0  0  0  0  0  0  0  0  0
   -3.4730   19.9960  -32.8170 C   0  0  0  0  0  0  0  0  0  0  0  0
   -2.5750   19.2040  -32.4250 O   0  0  0  0  0  0  0  0  0  0  0  0
   -4.8960   19.6420  -32.5860 C   0  0  0  0  0  0  0  0  0  0  0  0
   -5.7740   20.5580  -31.9680 C   0  0  0  0  0  0  0  0  0  0  0  0
   -5.2890   21.8830  -31.5090 C   0  0  0  0  0  0  0  0  0  0  0  0
   -5.8470   23.0610  -32.0290 C   0  0  0  0  0  0  0  0  0  0  0  0
   -5.3960   24.3080  -31.5860 C   0  0  0  0  0  0  0  0  0  0  0  0
   -4.3820   24.3890  -30.6230 C   0  0  0  0  0  0  0  0  0  0  0  0
   -3.9250   25.6260  -30.1730 O   0  0  0  0  0  0  0  0  0  0  0  0
   -3.8210   23.2160  -30.1050 C   0  0  0  0  0  0  0  0  0  0  0  0
   -4.2710   21.9680  -30.5460 C   0  0  0  0  0  0  0  0  0  0  0  0
   -7.1130   20.1890  -31.7570 C   0  0  0  0  0  0  0  0  0  0  0  0
   -8.0370   21.0920  -31.0990 C   0  0  0  0  0  0  0  0  0  0  0  0
   -8.7740   21.8130  -30.5740 N   0  0  0  0  0  0  0  0  0  0  0  0
   -7.5590   18.9240  -32.1680 C   0  0  0  0  0  0  0  0  0  0  0  0
   -8.7750   18.6210  -31.9980 O   0  0  0  0  0  0  0  0  0  0  0  0
   -6.6980   18.0350  -32.7640 N   0  0  0  0  0  0  0  0  0  0  0  0
   -7.1990   16.7640  -33.2360 C   0  0  0  0  0  0  0  0  0  0  0  0
   -6.8420   16.2960  -34.3510 O   0  0  0  0  0  0  0  0  0  0  0  0
   -5.3770   18.3670  -32.9690 C   0  0  0  0  0  0  0  0  0  0  0  0
   -4.4710   17.4180  -33.5630 N   0  0  0  0  0  0  0  0  0  0  0  0
   -1.2194   21.5502  -32.4122 H   0  0  0  0  0  0  0  0  0  0  0  0
   -1.0577   20.6661  -33.9675 H   0  0  0  0  0  0  0  0  0  0  0  0
   -1.3144   22.4439  -33.9675 H   0  0  0  0  0  0  0  0  0  0  0  0
   -3.5606   22.1215  -32.9741 H   0  0  0  0  0  0  0  0  0  0  0  0
   -3.3805   21.2253  -34.5437 H   0  0  0  0  0  0  0  0  0  0  0  0
   -6.6416   23.0031  -32.7874 H   0  0  0  0  0  0  0  0  0  0  0  0
   -5.8387   25.2282  -31.9949 H   0  0  0  0  0  0  0  0  0  0  0  0
   -3.8520   26.4210  -30.7970 H   0  0  0  0  0  0  0  0  0  0  0  0
   -3.0241   23.2762  -29.3491 H   0  0  0  0  0  0  0  0  0  0  0  0
   -3.8257   21.0491  -30.1369 H   0  0  0  0  0  0  0  0  0  0  0  0
   -7.9038   16.1953  -32.6117 H   0  0  0  0  0  0  0  0  0  0  0  0
   -4.8120   16.6260  -34.1510 H   0  0  0  0  0  0  0  0  0  0  0  0
   -3.4360   17.5190  -33.4770 H   0  0  0  0  0  0  0  0  0  0  0  0
  1  2  1  0
  2  3  1  0
  3  4  2  0
  3  5  1  0
  5  6  1  0
  6  7  1  0
  7  8  2  0
  8  9  1  0
  9 10  2  0
 10 11  1  0
 10 12  1  0
 12 13  2  0
  6 14  2  0
 14 15  1  0
 15 16  3  0
 14 17  1  0
 17 18  2  0
 17 19  1  0
 19 20  1  0
 20 21  2  0
 19 22  1  0
 22 23  1  0
 22  5  2  0
 13  7  1  0
  1 24  1  0
  1 25  1  0
  1 26  1  0
  2 27  1  0
  2 28  1  0
  8 29  1  0
  9 30  1  0
 11 31  1  0
 12 32  1  0
 13 33  1  0
 20 34  1  0
 23 35  1  0
 23 36  1  0
M  END
>  <UniqueID>  (17) 
16

>  <SMILES>  (17) 
CCC(=O)c1c(-c2ccc(O)cc2)c(C#N)c(=O)n(C=O)c1N

>  <Energy>  (17) 
58.809642152674584

>  <Genealogy>  (17) 
CCC(=O)c1c(-c2ccc(O)cc2)c(C#N)c(=O)n(C=O)c1N (3D coordinates assigned)
CCC(=O)c1c(-c2ccc(O)cc2)c(C#N)c(=O)n(C=O)c1N (optimized conformer: 58.809642152674584 kcal/mol)

>  <smiles>  (17) 
CCC(=O)c1c(-c2ccc(O)cc2)c(C#N)c(=O)n(C=O)c1N

>  <score_type>  (17) 
oracle

>  <origin>  (17) 
adgpu

>  <m_score__min__energy>  (17) 
-7.4400000000000004

>  <m_primary>  (17) 
energy

$$$$
17:0
     RDKit          3D

 60 63  0  0  0  0  0  0  0  0999 V2000
   -6.4760   16.9000  -33.9400 C   0  0  0  0  0  0  0  0  0  0  0  0
   -6.4300   18.2420  -33.2720 C   0  0  0  0  0  0  0  0  0  0  0  0
   -7.3270   18.5470  -32.2360 C   0  0  0  0  0  0  0  0  0  0  0  0
   -7.3100   19.8120  -31.6400 C   0  0  0  0  0  0  0  0  0  0  0  0
   -6.4060   20.7900  -32.0790 C   0  0  0  0  0  0  0  0  0  0  0  0
   -6.3920   22.0900  -31.4660 N   0  0  0  0  0  0  0  0  0  0  0  0
   -7.4240   22.9650  -31.4090 C   0  0  0  0  0  0  0  0  0  0  0  0
   -8.7940   22.7200  -31.9630 C   0  0  0  0  0  0  0  0  0  0  0  0
   -7.0430   24.1120  -30.7380 C   0  0  0  0  0  0  0  0  0  0  0  0
   -5.7160   23.9380  -30.3960 C   0  0  0  0  0  0  0  0  0  0  0  0
   -4.8800   24.9060  -29.6110 C   0  0  0  0  0  0  0  0  0  0  0  0
   -3.4540   24.6540  -29.8280 N   0  0  0  0  0  0  0  0  0  0  0  0
   -2.4990   24.5510  -28.7560 C   0  0  0  0  0  0  0  0  0  0  0  0
   -1.5300   25.5530  -28.6000 C   0  0  0  0  0  0  0  0  0  0  0  0
   -0.5890   25.4810  -27.5700 C   0  0  0  0  0  0  0  0  0  0  0  0
   -0.6030   24.4030  -26.6740 C   0  0  0  0  0  0  0  0  0  0  0  0
    0.5950   24.3020  -25.3840 S   0  0  0  0  0  0  0  0  0  0  0  0
    1.9440   24.6390  -25.9550 O   0  0  0  0  0  0  0  0  0  0  0  0
    0.6450   22.9000  -24.8370 O   0  0  0  0  0  0  0  0  0  0  0  0
    0.1920   25.4310  -24.1070 N   0  0  0  0  0  0  0  0  0  0  0  0
    1.1010   26.5830  -24.1100 C   0  0  0  0  0  0  0  0  0  0  0  0
    0.4550   27.6800  -24.9440 C   0  0  0  0  0  0  0  0  0  0  0  0
   -1.0090   27.2920  -25.0690 C   0  0  0  0  0  0  0  0  0  0  0  0
   -1.1540   25.9860  -24.3000 C   0  0  0  0  0  0  0  0  0  0  0  0
   -1.5640   23.3930  -26.8270 C   0  0  0  0  0  0  0  0  0  0  0  0
   -1.5900   22.3320  -25.9800 F   0  0  0  0  0  0  0  0  0  0  0  0
   -2.5070   23.4660  -27.8570 C   0  0  0  0  0  0  0  0  0  0  0  0
   -5.3480   22.6760  -30.8350 C   0  0  0  0  0  0  0  0  0  0  0  0
   -3.9920   22.0520  -30.6620 C   0  0  0  0  0  0  0  0  0  0  0  0
   -5.5230   20.4910  -33.1270 C   0  0  0  0  0  0  0  0  0  0  0  0
   -5.5390   19.2280  -33.7240 C   0  0  0  0  0  0  0  0  0  0  0  0
   -6.5031   16.1103  -33.1748 H   0  0  0  0  0  0  0  0  0  0  0  0
   -7.3770   16.8335  -34.5676 H   0  0  0  0  0  0  0  0  0  0  0  0
   -5.5817   16.7720  -34.5676 H   0  0  0  0  0  0  0  0  0  0  0  0
   -8.0455   17.7885  -31.8919 H   0  0  0  0  0  0  0  0  0  0  0  0
   -8.0095   20.0411  -30.8225 H   0  0  0  0  0  0  0  0  0  0  0  0
   -9.5069   22.5925  -31.1350 H   0  0  0  0  0  0  0  0  0  0  0  0
   -9.0987   23.5779  -32.5804 H   0  0  0  0  0  0  0  0  0  0  0  0
   -8.7825   21.8097  -32.5804 H   0  0  0  0  0  0  0  0  0  0  0  0
   -7.6711   24.9883  -30.5199 H   0  0  0  0  0  0  0  0  0  0  0  0
   -5.1182   25.9310  -29.9313 H   0  0  0  0  0  0  0  0  0  0  0  0
   -5.1025   24.7785  -28.5413 H   0  0  0  0  0  0  0  0  0  0  0  0
   -3.1050   24.5530  -30.8090 H   0  0  0  0  0  0  0  0  0  0  0  0
   -1.5108   26.4045  -29.2961 H   0  0  0  0  0  0  0  0  0  0  0  0
    0.1661   26.2735  -27.4616 H   0  0  0  0  0  0  0  0  0  0  0  0
    0.2460   24.9270  -23.1910 H   0  0  0  0  0  0  0  0  0  0  0  0
    1.2588   26.9384  -23.0810 H   0  0  0  0  0  0  0  0  0  0  0  0
    2.0772   26.3024  -24.5322 H   0  0  0  0  0  0  0  0  0  0  0  0
    0.5524   28.6529  -24.4400 H   0  0  0  0  0  0  0  0  0  0  0  0
    0.9350   27.7777  -25.9289 H   0  0  0  0  0  0  0  0  0  0  0  0
   -1.6511   28.0696  -24.6296 H   0  0  0  0  0  0  0  0  0  0  0  0
   -1.3120   27.1807  -26.1206 H   0  0  0  0  0  0  0  0  0  0  0  0
   -1.6246   26.1759  -23.3241 H   0  0  0  0  0  0  0  0  0  0  0  0
   -1.7867   25.2789  -24.8565 H   0  0  0  0  0  0  0  0  0  0  0  0
   -3.2598   22.6714  -27.9661 H   0  0  0  0  0  0  0  0  0  0  0  0
   -3.7696   21.9497  -29.5896 H   0  0  0  0  0  0  0  0  0  0  0  0
   -3.9823   21.0589  -31.1349 H   0  0  0  0  0  0  0  0  0  0  0  0
   -3.2314   22.6907  -31.1349 H   0  0  0  0  0  0  0  0  0  0  0  0
   -4.8145   21.2546  -33.4805 H   0  0  0  0  0  0  0  0  0  0  0  0
   -4.8501   19.0052  -34.5521 H   0  0  0  0  0  0  0  0  0  0  0  0
  1  2  1  0
  2  3  2  0
  3  4  1  0
  4  5  2  0
  5  6  1  0
  6  7  1  0
  7  8  1  0
  7  9  2  0
  9 10  1  0
 10 11  1  0
 11 12  1  0
 12 13  1  0
 13 14  2  0
 14 15  1  0
 15 16  2  0
 16 17  1  0
 17 18  2  0
 17 19  2  0
 17 20  1  0
 20 21  1  0
 21 22  1  0
 22 23  1  0
 23 24  1  0
 16 25  1  0
 25 26  1  0
 25 27  2  0
 10 28  2  0
 28 29  1  0
  5 30  1  0
 30 31  2  0
 31  2  1  0
 28  6  1  0
 27 13  1  0
 24 20  1  0
  1 32  1  0
  1 33  1  0
  1 34  1  0
  3 35  1  0
  4 36  1  0
  8 37  1  0
  8 38  1  0
  8 39  1  0
  9 40  1  0
 11 41  1  0
 11 42  1  0
 12 43  1  0
 14 44  1  0
 15 45  1  0
 20 46  1  0
 21 47  1  0
 21 48  1  0
 22 49  1  0
 22 50  1  0
 23 51  1  0
 23 52  1  0
 24 53  1  0
 24 54  1  0
 27 55  1  0
 29 56  1  0
 29 57  1  0
 29 58  1  0
 30 59  1  0
 31 60  1  0
M  CHG  1  20   1
M  END
>  <UniqueID>  (18) 
17

>  <SMILES>  (18) 
Cc1ccc(-n2c(C)cc(CNc3ccc(S(=O)(=O)[NH+]4CCCC4)c(F)c3)c2C)cc1

>  <Energy>  (18) 
93.08873761906797

>  <Genealogy>  (18) 
Cc1ccc(-n2c(C)cc(CNc3ccc(S(=O)(=O)[NH+]4CCCC4)c(F)c3)c2C)cc1 (protonated)
Cc1ccc(-n2c(C)cc(CNc3ccc(S(=O)(=O)[NH+]4CCCC4)c(F)c3)c2C)cc1 (3D coordinates assigned)
Cc1ccc(-n2c(C)cc(CNc3ccc(S(=O)(=O)[NH+]4CCCC4)c(F)c3)c2C)cc1 (nonaromatic ring conformer: 93.08873761906797 kcal/mol)

>  <smiles>  (18) 
Cc1ccc(-n2c(C)cc(CNc3ccc(S(=O)(=O)N4CCCC4)c(F)c3)c2C)cc1

>  <score_type>  (18) 
oracle

>  <origin>  (18) 
adgpu

>  <m_score__min__energy>  (18) 
-10.529999999999999

>  <m_primary>  (18) 
energy

$$$$
18:0
     RDKit          3D

 48 50  0  0  0  0  0  0  0  0999 V2000
   -1.4510   22.0180  -26.7880 C   0  0  0  0  0  0  0  0  0  0  0  0
   -2.3470   22.4560  -27.8040 O   0  0  0  0  0  0  0  0  0  0  0  0
   -2.2650   22.0760  -29.1540 C   0  0  0  0  0  0  0  0  0  0  0  0
   -1.7000   20.8460  -29.5460 C   0  0  0  0  0  0  0  0  0  0  0  0
   -1.6390   20.4960  -30.8970 C   0  0  0  0  0  0  0  0  0  0  0  0
   -2.1370   21.3640  -31.8690 C   0  0  0  0  0  0  0  0  0  0  0  0
   -2.0600   20.9230  -33.5640 Cl  0  0  0  0  0  0  0  0  0  0  0  0
   -2.6980   22.5880  -31.4920 C   0  0  0  0  0  0  0  0  0  0  0  0
   -2.7620   22.9510  -30.1390 C   0  0  0  0  0  0  0  0  0  0  0  0
   -3.4830   24.4940  -29.6760 S   0  0  0  0  0  0  0  0  0  0  0  0
   -2.4910   25.2710  -28.8580 O   0  0  0  0  0  0  0  0  0  0  0  0
   -3.8320   25.2990  -30.8980 O   0  0  0  0  0  0  0  0  0  0  0  0
   -4.9200   24.2320  -28.7360 N   0  0  0  0  0  0  0  0  0  0  0  0
   -5.7630   23.2330  -29.3860 C   0  0  0  0  0  0  0  0  0  0  0  0
   -6.6530   23.9180  -30.4210 C   0  0  0  0  0  0  0  0  0  0  0  0
   -6.5660   23.2140  -31.7800 C   0  0  0  0  0  0  0  0  0  0  0  0
   -7.3170   21.9490  -31.7480 N   0  0  0  0  0  0  0  0  0  0  0  0
   -8.6460   21.9310  -31.1260 C   0  0  0  0  0  0  0  0  0  0  0  0
   -9.6180   21.1590  -32.0130 C   0  0  0  0  0  0  0  0  0  0  0  0
   -9.1390   19.7160  -32.1880 C   0  0  0  0  0  0  0  0  0  0  0  0
   -7.6740   19.6340  -32.5520 C   0  0  0  0  0  0  0  0  0  0  0  0
   -7.1730   18.4310  -33.0740 C   0  0  0  0  0  0  0  0  0  0  0  0
   -5.8180   18.3050  -33.3860 C   0  0  0  0  0  0  0  0  0  0  0  0
   -4.9480   19.3690  -33.1560 C   0  0  0  0  0  0  0  0  0  0  0  0
   -5.4260   20.5670  -32.6220 C   0  0  0  0  0  0  0  0  0  0  0  0
   -6.7940   20.7180  -32.3080 C   0  0  0  0  0  0  0  0  0  0  0  0
   -1.8852   22.2302  -25.7998 H   0  0  0  0  0  0  0  0  0  0  0  0
   -1.2822   20.9358  -26.8896 H   0  0  0  0  0  0  0  0  0  0  0  0
   -0.4933   22.5496  -26.8896 H   0  0  0  0  0  0  0  0  0  0  0  0
   -1.3049   20.1579  -28.7842 H   0  0  0  0  0  0  0  0  0  0  0  0
   -1.1973   19.5337  -31.1951 H   0  0  0  0  0  0  0  0  0  0  0  0
   -3.0911   23.2697  -32.2606 H   0  0  0  0  0  0  0  0  0  0  0  0
   -5.1286   22.4854  -29.8845 H   0  0  0  0  0  0  0  0  0  0  0  0
   -6.3910   22.7350  -28.6326 H   0  0  0  0  0  0  0  0  0  0  0  0
   -7.6953   23.8935  -30.0703 H   0  0  0  0  0  0  0  0  0  0  0  0
   -6.3093   24.9557  -30.5437 H   0  0  0  0  0  0  0  0  0  0  0  0
   -6.9902   23.8685  -32.5557 H   0  0  0  0  0  0  0  0  0  0  0  0
   -5.5110   22.9986  -32.0049 H   0  0  0  0  0  0  0  0  0  0  0  0
   -8.5827   21.4434  -30.1420 H   0  0  0  0  0  0  0  0  0  0  0  0
   -9.0053   22.9635  -31.0040 H   0  0  0  0  0  0  0  0  0  0  0  0
  -10.6139   21.1575  -31.5459 H   0  0  0  0  0  0  0  0  0  0  0  0
   -9.6675   21.6437  -32.9992 H   0  0  0  0  0  0  0  0  0  0  0  0
   -9.2992   19.1739  -31.2443 H   0  0  0  0  0  0  0  0  0  0  0  0
   -9.7144   19.2698  -33.0125 H   0  0  0  0  0  0  0  0  0  0  0  0
   -7.8526   17.5818  -33.2383 H   0  0  0  0  0  0  0  0  0  0  0  0
   -5.4371   17.3657  -33.8134 H   0  0  0  0  0  0  0  0  0  0  0  0
   -3.8797   19.2644  -33.3963 H   0  0  0  0  0  0  0  0  0  0  0  0
   -4.7306   21.4006  -32.4444 H   0  0  0  0  0  0  0  0  0  0  0  0
  1  2  1  0
  2  3  1  0
  3  4  2  0
  4  5  1  0
  5  6  2  0
  6  7  1  0
  6  8  1  0
  8  9  2  0
  9 10  1  0
 10 11  2  0
 10 12  2  0
 10 13  1  0
 13 14  1  0
 14 15  1  0
 15 16  1  0
 16 17  1  0
 17 18  1  0
 18 19  1  0
 19 20  1  0
 20 21  1  0
 21 22  2  0
 22 23  1  0
 23 24  2  0
 24 25  1  0
 25 26  2  0
  9  3  1  0
 26 17  1  0
 26 21  1  0
  1 27  1  0
  1 28  1  0
  1 29  1  0
  4 30  1  0
  5 31  1  0
  8 32  1  0
 14 33  1  0
 14 34  1  0
 15 35  1  0
 15 36  1  0
 16 37  1  0
 16 38  1  0
 18 39  1  0
 18 40  1  0
 19 41  1  0
 19 42  1  0
 20 43  1  0
 20 44  1  0
 22 45  1  0
 23 46  1  0
 24 47  1  0
 25 48  1  0
M  CHG  1  13  -1
M  END
>  <UniqueID>  (19) 
18

>  <SMILES>  (19) 
COc1ccc(Cl)cc1S(=O)(=O)[N-]CCCN1CCCc2ccccc21

>  <Energy>  (19) 
43.64831710976759

>  <Genealogy>  (19) 
COc1ccc(Cl)cc1S(=O)(=O)[N-]CCCN1CCCc2ccccc21 (protonated)
COc1ccc(Cl)cc1S(=O)(=O)[N-]CCCN1CCCc2ccccc21 (3D coordinates assigned)
COc1ccc(Cl)cc1S(=O)(=O)[N-]CCCN1CCCc2ccccc21 (nonaromatic ring conformer: 43.64831710976759 kcal/mol)

>  <smiles>  (19) 
COc1ccc(Cl)cc1S(=O)(=O)NCCCN1CCCc2ccccc21

>  <score_type>  (19) 
oracle

>  <origin>  (19) 
adgpu

>  <m_score__min__energy>  (19) 
-10.529999999999999

>  <m_primary>  (19) 
energy

$$$$
19:0
     RDKit          3D

 46 48  0  0  0  0  0  0  0  0999 V2000
   -4.8920   24.5650  -28.5320 N   0  0  0  0  0  0  0  0  0  0  0  0
   -5.3640   25.0310  -30.1290 S   0  0  0  0  0  0  0  0  0  0  0  0
   -6.4850   26.0290  -30.0500 O   0  0  0  0  0  0  0  0  0  0  0  0
   -4.1980   25.6720  -30.8280 O   0  0  0  0  0  0  0  0  0  0  0  0
   -5.8920   23.6110  -31.0270 C   0  0  0  0  0  0  0  0  0  0  0  0
   -7.2440   23.2440  -31.0350 C   0  0  0  0  0  0  0  0  0  0  0  0
   -7.6590   22.1120  -31.7410 C   0  0  0  0  0  0  0  0  0  0  0  0
   -6.7300   21.3500  -32.4530 C   0  0  0  0  0  0  0  0  0  0  0  0
   -5.3790   21.7220  -32.4800 C   0  0  0  0  0  0  0  0  0  0  0  0
   -4.4530   20.8990  -33.2030 N   0  0  0  0  0  0  0  0  0  0  0  0
   -3.0340   20.8310  -33.0020 C   0  0  0  0  0  0  0  0  0  0  0  0
   -2.2710   20.5870  -33.9770 O   0  0  0  0  0  0  0  0  0  0  0  0
   -2.4680   20.9940  -31.6440 C   0  0  0  0  0  0  0  0  0  0  0  0
   -3.1900   20.5700  -30.5130 C   0  0  0  0  0  0  0  0  0  0  0  0
   -2.6530   20.7190  -29.2320 C   0  0  0  0  0  0  0  0  0  0  0  0
   -1.3830   21.2840  -29.0600 C   0  0  0  0  0  0  0  0  0  0  0  0
   -0.7030   21.4950  -27.4470 S   0  0  0  0  0  0  0  0  0  0  0  0
    0.7950   21.5080  -27.5650 O   0  0  0  0  0  0  0  0  0  0  0  0
   -1.0980   20.3380  -26.5720 O   0  0  0  0  0  0  0  0  0  0  0  0
   -1.2400   23.0090  -26.7440 N   0  0  0  0  0  0  0  0  0  0  0  0
   -2.0530   23.7970  -27.6960 C   0  0  0  0  0  0  0  0  0  0  0  0
   -1.2470   24.9110  -28.3900 C   0  0  0  0  0  0  0  0  0  0  0  0
    0.0940   24.5090  -28.5620 O   0  0  0  0  0  0  0  0  0  0  0  0
    0.7490   24.4300  -27.3070 C   0  0  0  0  0  0  0  0  0  0  0  0
   -0.1170   23.7900  -26.1960 C   0  0  0  0  0  0  0  0  0  0  0  0
   -0.6610   21.7130  -30.1790 C   0  0  0  0  0  0  0  0  0  0  0  0
   -1.1960   21.5680  -31.4620 C   0  0  0  0  0  0  0  0  0  0  0  0
   -4.9610   22.8500  -31.7490 C   0  0  0  0  0  0  0  0  0  0  0  0
   -4.7050   25.4450  -28.0010 H   0  0  0  0  0  0  0  0  0  0  0  0
   -5.7220   24.1130  -28.0890 H   0  0  0  0  0  0  0  0  0  0  0  0
   -7.9801   23.8481  -30.4845 H   0  0  0  0  0  0  0  0  0  0  0  0
   -8.7196   21.8203  -31.7361 H   0  0  0  0  0  0  0  0  0  0  0  0
   -7.0607   20.4523  -32.9959 H   0  0  0  0  0  0  0  0  0  0  0  0
   -4.1848   20.1178  -30.6386 H   0  0  0  0  0  0  0  0  0  0  0  0
   -3.2300   20.3912  -28.3547 H   0  0  0  0  0  0  0  0  0  0  0  0
   -2.4491   23.1182  -28.4657 H   0  0  0  0  0  0  0  0  0  0  0  0
   -2.8589   24.2792  -27.1232 H   0  0  0  0  0  0  0  0  0  0  0  0
   -1.6918   25.1220  -29.3737 H   0  0  0  0  0  0  0  0  0  0  0  0
   -1.2725   25.8150  -27.7638 H   0  0  0  0  0  0  0  0  0  0  0  0
    1.6610   23.8269  -27.4280 H   0  0  0  0  0  0  0  0  0  0  0  0
    0.9681   25.4609  -26.9918 H   0  0  0  0  0  0  0  0  0  0  0  0
    0.5169   23.1232  -25.5930 H   0  0  0  0  0  0  0  0  0  0  0  0
   -0.5378   24.6031  -25.5863 H   0  0  0  0  0  0  0  0  0  0  0  0
    0.3326   22.1666  -30.0484 H   0  0  0  0  0  0  0  0  0  0  0  0
   -0.6188   21.9049  -32.3357 H   0  0  0  0  0  0  0  0  0  0  0  0
   -3.8989   23.1361  -31.7440 H   0  0  0  0  0  0  0  0  0  0  0  0
  1  2  1  0
  2  3  2  0
  2  4  2  0
  2  5  1  0
  5  6  2  0
  6  7  1  0
  7  8  2  0
  8  9  1  0
  9 10  1  0
 10 11  1  0
 11 12  2  0
 11 13  1  0
 13 14  2  0
 14 15  1  0
 15 16  2  0
 16 17  1  0
 17 18  2  0
 17 19  2  0
 17 20  1  0
 20 21  1  0
 21 22  1  0
 22 23  1  0
 23 24  1  0
 24 25  1  0
 16 26  1  0
 26 27  2  0
  9 28  2  0
 28  5  1  0
 27 13  1  0
 25 20  1  0
  1 29  1  0
  1 30  1  0
  6 31  1  0
  7 32  1  0
  8 33  1  0
 14 34  1  0
 15 35  1  0
 21 36  1  0
 21 37  1  0
 22 38  1  0
 22 39  1  0
 24 40  1  0
 24 41  1  0
 25 42  1  0
 25 43  1  0
 26 44  1  0
 27 45  1  0
 28 46  1  0
M  CHG  1  10  -1
M  END
>  <UniqueID>  (20) 
19

>  <SMILES>  (20) 
NS(=O)(=O)c1cccc([N-]C(=O)c2ccc(S(=O)(=O)N3CCOCC3)cc2)c1

>  <Energy>  (20) 
61.149010719492104

>  <Genealogy>  (20) 
NS(=O)(=O)c1cccc([N-]C(=O)c2ccc(S(=O)(=O)N3CCOCC3)cc2)c1 (protonated)
NS(=O)(=O)c1cccc([N-]C(=O)c2ccc(S(=O)(=O)N3CCOCC3)cc2)c1 (3D coordinates assigned)
NS(=O)(=O)c1cccc([N-]C(=O)c2ccc(S(=O)(=O)N3CCOCC3)cc2)c1 (nonaromatic ring conformer: 61.149010719492104 kcal/mol)

>  <smiles>  (20) 
NS(=O)(=O)c1cccc(NC(=O)c2ccc(S(=O)(=O)N3CCOCC3)cc2)c1

>  <score_type>  (20) 
oracle

>  <origin>  (20) 
adgpu

>  <m_score__min__energy>  (20) 
-11.16

>  <m_primary>  (20) 
energy

$$$$
20:0
     RDKit          3D

 68 71  0  0  0  0  0  0  0  0999 V2000
   -6.1930   17.4200  -30.8510 C   0  0  0  0  0  0  0  0  0  0  0  0
   -6.5960   18.2560  -32.0730 C   0  0  0  0  0  0  0  0  0  0  0  0
   -8.1200   18.1730  -32.3340 C   0  0  0  0  0  0  0  0  0  0  0  0
   -8.8460   19.4030  -31.7790 C   0  0  0  0  0  0  0  0  0  0  0  0
   -8.3920   20.6460  -32.4410 N   0  0  0  0  0  0  0  0  0  0  0  0
   -8.8350   22.0320  -31.4730 S   0  0  0  0  0  0  0  0  0  0  0  0
   -9.7940   22.9080  -32.2330 O   0  0  0  0  0  0  0  0  0  0  0  0
   -9.5080   21.5700  -30.2100 O   0  0  0  0  0  0  0  0  0  0  0  0
   -7.3980   22.9600  -31.0470 C   0  0  0  0  0  0  0  0  0  0  0  0
   -6.7900   22.7790  -29.7980 C   0  0  0  0  0  0  0  0  0  0  0  0
   -5.6400   23.4990  -29.4620 C   0  0  0  0  0  0  0  0  0  0  0  0
   -5.0860   24.4120  -30.3770 C   0  0  0  0  0  0  0  0  0  0  0  0
   -3.8880   25.1450  -30.0860 N   0  0  0  0  0  0  0  0  0  0  0  0
   -2.7100   24.6310  -29.4480 C   0  0  0  0  0  0  0  0  0  0  0  0
   -1.6770   25.3440  -29.3450 O   0  0  0  0  0  0  0  0  0  0  0  0
   -2.6570   23.2660  -29.0230 N   0  0  0  0  0  0  0  0  0  0  0  0
   -1.9500   22.2120  -29.6930 C   0  0  0  0  0  0  0  0  0  0  0  0
   -0.8410   21.5900  -29.1020 C   0  0  0  0  0  0  0  0  0  0  0  0
   -0.1490   20.5930  -29.7860 C   0  0  0  0  0  0  0  0  0  0  0  0
   -0.5380   20.2070  -31.0710 C   0  0  0  0  0  0  0  0  0  0  0  0
    0.4180   18.9460  -31.8440 Cl  0  0  0  0  0  0  0  0  0  0  0  0
   -1.6450   20.8360  -31.6940 C   0  0  0  0  0  0  0  0  0  0  0  0
   -2.1830   20.3960  -33.3350 S   0  0  0  0  0  0  0  0  0  0  0  0
   -3.2270   21.3560  -33.8330 O   0  0  0  0  0  0  0  0  0  0  0  0
   -1.0140   20.4830  -34.2760 O   0  0  0  0  0  0  0  0  0  0  0  0
   -2.8560   18.7290  -33.3980 C   0  0  0  0  0  0  0  0  0  0  0  0
   -4.0450   18.6420  -34.3600 C   0  0  0  0  0  0  0  0  0  0  0  0
   -4.6900   17.2440  -34.2950 C   0  0  0  0  0  0  0  0  0  0  0  0
   -3.7150   16.1290  -34.1670 N   0  0  0  0  0  0  0  0  0  0  0  0
   -3.7570   15.4880  -32.8420 C   0  0  0  0  0  0  0  0  0  0  0  0
   -2.3380   16.4900  -34.5620 C   0  0  0  0  0  0  0  0  0  0  0  0
   -1.7770   17.6870  -33.7650 C   0  0  0  0  0  0  0  0  0  0  0  0
   -2.3380   21.8460  -30.9900 C   0  0  0  0  0  0  0  0  0  0  0  0
   -3.4250   22.4930  -31.5700 O   0  0  0  0  0  0  0  0  0  0  0  0
   -5.6780   24.5660  -31.6360 C   0  0  0  0  0  0  0  0  0  0  0  0
   -6.8340   23.8530  -31.9670 C   0  0  0  0  0  0  0  0  0  0  0  0
   -6.9450   20.6720  -32.7770 C   0  0  0  0  0  0  0  0  0  0  0  0
   -6.1130   19.7160  -31.9110 C   0  0  0  0  0  0  0  0  0  0  0  0
   -6.4553   17.9642  -29.9318 H   0  0  0  0  0  0  0  0  0  0  0  0
   -6.7264   16.4582  -30.8726 H   0  0  0  0  0  0  0  0  0  0  0  0
   -5.1083   17.2383  -30.8726 H   0  0  0  0  0  0  0  0  0  0  0  0
   -6.1000   17.8369  -32.9609 H   0  0  0  0  0  0  0  0  0  0  0  0
   -8.2954   18.1119  -33.4182 H   0  0  0  0  0  0  0  0  0  0  0  0
   -8.5118   17.2793  -31.8263 H   0  0  0  0  0  0  0  0  0  0  0  0
   -9.9271   19.2846  -31.9441 H   0  0  0  0  0  0  0  0  0  0  0  0
   -8.6198   19.4817  -30.7054 H   0  0  0  0  0  0  0  0  0  0  0  0
   -7.2197   22.0668  -29.0782 H   0  0  0  0  0  0  0  0  0  0  0  0
   -5.1673   23.3512  -28.4798 H   0  0  0  0  0  0  0  0  0  0  0  0
   -0.5163   21.8903  -28.0948 H   0  0  0  0  0  0  0  0  0  0  0  0
    0.7133   20.1043  -29.3090 H   0  0  0  0  0  0  0  0  0  0  0  0
   -3.2173   18.4914  -32.3866 H   0  0  0  0  0  0  0  0  0  0  0  0
   -4.7927   19.3990  -34.0810 H   0  0  0  0  0  0  0  0  0  0  0  0
   -3.6877   18.8219  -35.3847 H   0  0  0  0  0  0  0  0  0  0  0  0
   -5.3636   17.2148  -33.4259 H   0  0  0  0  0  0  0  0  0  0  0  0
   -5.2181   17.0946  -35.2483 H   0  0  0  0  0  0  0  0  0  0  0  0
   -3.7064   16.2596  -32.0596 H   0  0  0  0  0  0  0  0  0  0  0  0
   -4.6942   14.9215  -32.7383 H   0  0  0  0  0  0  0  0  0  0  0  0
   -2.9017   14.8041  -32.7383 H   0  0  0  0  0  0  0  0  0  0  0  0
   -1.6857   15.6203  -34.3943 H   0  0  0  0  0  0  0  0  0  0  0  0
   -2.3656   16.7837  -35.6217 H   0  0  0  0  0  0  0  0  0  0  0  0
   -1.3255   17.3085  -32.8361 H   0  0  0  0  0  0  0  0  0  0  0  0
   -1.0387   18.1910  -34.4060 H   0  0  0  0  0  0  0  0  0  0  0  0
   -5.2307   25.2526  -32.3698 H   0  0  0  0  0  0  0  0  0  0  0  0
   -7.3019   23.9936  -32.9525 H   0  0  0  0  0  0  0  0  0  0  0  0
   -6.8245   20.3847  -33.8319 H   0  0  0  0  0  0  0  0  0  0  0  0
   -6.5803   21.6921  -32.5861 H   0  0  0  0  0  0  0  0  0  0  0  0
   -5.0580   19.7814  -32.2155 H   0  0  0  0  0  0  0  0  0  0  0  0
   -6.2297   20.0079  -30.8569 H   0  0  0  0  0  0  0  0  0  0  0  0
  1  2  1  0
  2  3  1  0
  3  4  1  0
  4  5  1  0
  5  6  1  0
  6  7  2  0
  6  8  2  0
  6  9  1  0
  9 10  2  0
 10 11  1  0
 11 12  2  0
 12 13  1  0
 13 14  1  0
 14 15  2  0
 14 16  1  0
 16 17  1  0
 17 18  2  0
 18 19  1  0
 19 20  2  0
 20 21  1  0
 20 22  1  0
 22 23  1  0
 23 24  2  0
 23 25  2  0
 23 26  1  0
 26 27  1  0
 27 28  1  0
 28 29  1  0
 29 30  1  0
 29 31  1  0
 31 32  1  0
 22 33  2  0
 33 34  1  0
 12 35  1  0
 35 36  2  0
  5 37  1  0
 37 38  1  0
 38  2  1  0
 36  9  1  0
 33 17  1  0
 32 26  1  0
  1 39  1  0
  1 40  1  0
  1 41  1  0
  2 42  1  0
  3 43  1  0
  3 44  1  0
  4 45  1  0
  4 46  1  0
 10 47  1  0
 11 48  1  0
 18 49  1  0
 19 50  1  0
 26 51  1  0
 27 52  1  0
 27 53  1  0
 28 54  1  0
 28 55  1  0
 30 56  1  0
 30 57  1  0
 30 58  1  0
 31 59  1  0
 31 60  1  0
 32 61  1  0
 32 62  1  0
 35 63  1  0
 36 64  1  0
 37 65  1  0
 37 66  1  0
 38 67  1  0
 38 68  1  0
M  CHG  3  13  -1  16  -1  34  -1
M  END
>  <UniqueID>  (21) 
20

>  <SMILES>  (21) 
CC1CCN(S(=O)(=O)c2ccc([N-]C(=O)[N-]c3ccc(Cl)c(S(=O)(=O)C4CCN(C)CC4)c3[O-])cc2)CC1

>  <Energy>  (21) 
91.02422939434503

>  <Genealogy>  (21) 
CC1CCN(S(=O)(=O)c2ccc([N-]C(=O)[N-]c3ccc(Cl)c(S(=O)(=O)C4CCN(C)CC4)c3[O-])cc2)CC1 (protonated)
CC1CCN(S(=O)(=O)c2ccc([N-]C(=O)[N-]c3ccc(Cl)c(S(=O)(=O)C4CCN(C)CC4)c3[O-])cc2)CC1 (3D coordinates assigned)
CC1CCN(S(=O)(=O)c2ccc([N-]C(=O)[N-]c3ccc(Cl)c(S(=O)(=O)C4CCN(C)CC4)c3[O-])cc2)CC1 (nonaromatic ring conformer: 91.02422939434503 kcal/mol)

>  <smiles>  (21) 
CC1CCN(S(=O)(=O)c2ccc(NC(=O)Nc3ccc(Cl)c(S(=O)(=O)C4CCN(C)CC4)c3O)cc2)CC1

>  <score_type>  (21) 
oracle

>  <origin>  (21) 
adgpu

>  <m_score__min__energy>  (21) 
-18.32

>  <m_primary>  (21) 
energy

$$$$
21:0
     RDKit          3D

 46 48  0  0  0  0  0  0  0  0999 V2000
    0.6640   22.3970  -35.8000 C   0  0  0  0  0  0  0  0  0  0  0  0
    0.2710   21.0600  -36.2310 N   0  0  0  0  0  0  0  0  0  0  0  0
    0.1830   19.9920  -34.8620 S   0  0  0  0  0  0  0  0  0  0  0  0
   -0.5110   18.7260  -35.2770 O   0  0  0  0  0  0  0  0  0  0  0  0
    1.5580   19.6350  -34.3670 O   0  0  0  0  0  0  0  0  0  0  0  0
   -0.7350   20.7630  -33.5700 C   0  0  0  0  0  0  0  0  0  0  0  0
   -0.1010   21.1350  -32.3760 C   0  0  0  0  0  0  0  0  0  0  0  0
   -0.8370   21.7220  -31.3410 C   0  0  0  0  0  0  0  0  0  0  0  0
   -2.2180   21.9470  -31.4890 C   0  0  0  0  0  0  0  0  0  0  0  0
   -3.0040   22.4880  -30.4140 N   0  0  0  0  0  0  0  0  0  0  0  0
   -4.2330   23.2090  -30.6030 C   0  0  0  0  0  0  0  0  0  0  0  0
   -5.4170   22.5290  -30.9240 C   0  0  0  0  0  0  0  0  0  0  0  0
   -6.6220   23.2280  -31.0830 C   0  0  0  0  0  0  0  0  0  0  0  0
   -8.1110   22.3710  -31.4900 S   0  0  0  0  0  0  0  0  0  0  0  0
   -8.6110   21.6470  -30.2700 O   0  0  0  0  0  0  0  0  0  0  0  0
   -9.1680   23.3460  -31.9280 O   0  0  0  0  0  0  0  0  0  0  0  0
   -7.8250   21.1830  -32.7260 N   0  0  0  0  0  0  0  0  0  0  0  0
   -7.0150   20.0020  -32.6250 C   0  0  0  0  0  0  0  0  0  0  0  0
   -5.7560   19.8970  -33.2480 C   0  0  0  0  0  0  0  0  0  0  0  0
   -5.0020   18.7300  -33.1180 C   0  0  0  0  0  0  0  0  0  0  0  0
   -5.4910   17.6570  -32.3750 C   0  0  0  0  0  0  0  0  0  0  0  0
   -6.7380   17.7520  -31.7490 C   0  0  0  0  0  0  0  0  0  0  0  0
   -7.4990   18.9220  -31.8700 C   0  0  0  0  0  0  0  0  0  0  0  0
   -8.7400   19.0180  -31.2410 O   0  0  0  0  0  0  0  0  0  0  0  0
   -6.6390   24.6200  -30.9130 C   0  0  0  0  0  0  0  0  0  0  0  0
   -5.4700   25.3000  -30.5690 C   0  0  0  0  0  0  0  0  0  0  0  0
   -4.2690   24.6000  -30.4090 C   0  0  0  0  0  0  0  0  0  0  0  0
   -3.1120   25.2960  -30.0720 O   0  0  0  0  0  0  0  0  0  0  0  0
   -2.8480   21.5720  -32.6840 C   0  0  0  0  0  0  0  0  0  0  0  0
   -2.1110   20.9940  -33.7220 C   0  0  0  0  0  0  0  0  0  0  0  0
    0.6764   22.4391  -34.7009 H   0  0  0  0  0  0  0  0  0  0  0  0
    1.6677   22.6268  -36.1871 H   0  0  0  0  0  0  0  0  0  0  0  0
   -0.0557   23.1334  -36.1871 H   0  0  0  0  0  0  0  0  0  0  0  0
    0.9787   20.9648  -32.2526 H   0  0  0  0  0  0  0  0  0  0  0  0
   -0.3332   22.0092  -30.4063 H   0  0  0  0  0  0  0  0  0  0  0  0
   -2.6570   22.3540  -29.4370 H   0  0  0  0  0  0  0  0  0  0  0  0
   -5.4000   21.4366  -31.0523 H   0  0  0  0  0  0  0  0  0  0  0  0
   -5.3656   20.7383  -33.8394 H   0  0  0  0  0  0  0  0  0  0  0  0
   -4.0178   18.6567  -33.6038 H   0  0  0  0  0  0  0  0  0  0  0  0
   -4.8966   16.7362  -32.2810 H   0  0  0  0  0  0  0  0  0  0  0  0
   -7.1222   16.9060  -31.1602 H   0  0  0  0  0  0  0  0  0  0  0  0
   -9.2550   19.8920  -31.2130 H   0  0  0  0  0  0  0  0  0  0  0  0
   -7.5770   25.1777  -31.0513 H   0  0  0  0  0  0  0  0  0  0  0  0
   -5.4927   26.3900  -30.4231 H   0  0  0  0  0  0  0  0  0  0  0  0
   -3.9292   21.7336  -32.8057 H   0  0  0  0  0  0  0  0  0  0  0  0
   -2.6118   20.7191  -34.6620 H   0  0  0  0  0  0  0  0  0  0  0  0
  1  2  1  0
  2  3  1  0
  3  4  2  0
  3  5  2  0
  3  6  1  0
  6  7  2  0
  7  8  1  0
  8  9  2  0
  9 10  1  0
 10 11  1  0
 11 12  2  0
 12 13  1  0
 13 14  1  0
 14 15  2  0
 14 16  2  0
 14 17  1  0
 17 18  1  0
 18 19  2  0
 19 20  1  0
 20 21  2  0
 21 22  1  0
 22 23  2  0
 23 24  1  0
 13 25  2  0
 25 26  1  0
 26 27  2  0
 27 28  1  0
  9 29  1  0
 29 30  2  0
 30  6  1  0
 27 11  1  0
 23 18  1  0
  1 31  1  0
  1 32  1  0
  1 33  1  0
  7 34  1  0
  8 35  1  0
 10 36  1  0
 12 37  1  0
 19 38  1  0
 20 39  1  0
 21 40  1  0
 22 41  1  0
 24 42  1  0
 25 43  1  0
 26 44  1  0
 29 45  1  0
 30 46  1  0
M  CHG  3   2  -1  17  -1  28  -1
M  END
>  <UniqueID>  (22) 
21

>  <SMILES>  (22) 
C[N-]S(=O)(=O)c1ccc(Nc2cc(S(=O)(=O)[N-]c3ccccc3O)ccc2[O-])cc1

>  <Energy>  (22) 
55.789284865593565

>  <Genealogy>  (22) 
C[N-]S(=O)(=O)c1ccc(Nc2cc(S(=O)(=O)[N-]c3ccccc3O)ccc2[O-])cc1 (protonated)
C[N-]S(=O)(=O)c1ccc(Nc2cc(S(=O)(=O)[N-]c3ccccc3O)ccc2[O-])cc1 (3D coordinates assigned)
C[N-]S(=O)(=O)c1ccc(Nc2cc(S(=O)(=O)[N-]c3ccccc3O)ccc2[O-])cc1 (optimized conformer: 55.789284865593565 kcal/mol)

>  <smiles>  (22) 
CNS(=O)(=O)c1ccc(Nc2cc(S(=O)(=O)Nc3ccccc3O)ccc2O)cc1

>  <score_type>  (22) 
oracle

>  <origin>  (22) 
adgpu

>  <m_score__min__energy>  (22) 
-11.710000000000001

>  <m_primary>  (22) 
energy

$$$$
22:0
     RDKit          3D

 45 48  0  0  0  0  0  0  0  0999 V2000
   -3.8590   25.2760  -30.6850 O   0  0  0  0  0  0  0  0  0  0  0  0
   -4.2210   24.5100  -29.7500 C   0  0  0  0  0  0  0  0  0  0  0  0
   -5.4610   24.8690  -28.9740 C   0  0  0  0  0  0  0  0  0  0  0  0
   -6.8560   25.2900  -30.0780 S   0  0  0  0  0  0  0  0  0  0  0  0
   -6.6480   23.8620  -31.1370 C   0  0  0  0  0  0  0  0  0  0  0  0
   -5.7550   23.8010  -32.1430 N   0  0  0  0  0  0  0  0  0  0  0  0
   -5.8860   22.5950  -32.6600 N   0  0  0  0  0  0  0  0  0  0  0  0
   -6.8420   21.9510  -31.9670 C   0  0  0  0  0  0  0  0  0  0  0  0
   -7.2700   20.5680  -32.2200 C   0  0  0  0  0  0  0  0  0  0  0  0
   -8.4010   19.9450  -31.7370 C   0  0  0  0  0  0  0  0  0  0  0  0
   -8.3660   18.6670  -32.2550 C   0  0  0  0  0  0  0  0  0  0  0  0
   -7.2940   18.5160  -33.0010 O   0  0  0  0  0  0  0  0  0  0  0  0
   -6.6140   19.6400  -33.0020 C   0  0  0  0  0  0  0  0  0  0  0  0
   -7.3550   22.7220  -30.9890 N   0  0  0  0  0  0  0  0  0  0  0  0
   -3.4610   23.3130  -29.4770 N   0  0  0  0  0  0  0  0  0  0  0  0
   -2.8640   22.5710  -30.5970 C   0  0  0  0  0  0  0  0  0  0  0  0
   -1.4880   22.0400  -30.2040 C   0  0  0  0  0  0  0  0  0  0  0  0
   -1.5720   21.3460  -28.9140 N   0  0  0  0  0  0  0  0  0  0  0  0
   -0.8230   20.1360  -28.6950 C   0  0  0  0  0  0  0  0  0  0  0  0
   -1.1690   19.2710  -27.6430 C   0  0  0  0  0  0  0  0  0  0  0  0
   -0.4460   18.0930  -27.4280 C   0  0  0  0  0  0  0  0  0  0  0  0
    0.6290   17.7710  -28.2610 C   0  0  0  0  0  0  0  0  0  0  0  0
    0.9830   18.6260  -29.3080 C   0  0  0  0  0  0  0  0  0  0  0  0
    0.2620   19.8030  -29.5270 C   0  0  0  0  0  0  0  0  0  0  0  0
   -2.1580   22.0770  -27.7850 C   0  0  0  0  0  0  0  0  0  0  0  0
   -3.5290   22.6390  -28.1720 C   0  0  0  0  0  0  0  0  0  0  0  0
   -5.7492   24.0121  -28.3473 H   0  0  0  0  0  0  0  0  0  0  0  0
   -5.2347   25.7517  -28.3578 H   0  0  0  0  0  0  0  0  0  0  0  0
   -5.3250   22.2300  -33.4610 H   0  0  0  0  0  0  0  0  0  0  0  0
   -9.1690   20.3759  -31.0779 H   0  0  0  0  0  0  0  0  0  0  0  0
   -9.1225   17.8898  -32.0712 H   0  0  0  0  0  0  0  0  0  0  0  0
   -5.6710   19.8137  -33.5410 H   0  0  0  0  0  0  0  0  0  0  0  0
   -3.5170   21.7266  -30.8625 H   0  0  0  0  0  0  0  0  0  0  0  0
   -2.7553   23.2470  -31.4579 H   0  0  0  0  0  0  0  0  0  0  0  0
   -1.1341   21.3383  -30.9736 H   0  0  0  0  0  0  0  0  0  0  0  0
   -0.7852   22.8818  -30.1180 H   0  0  0  0  0  0  0  0  0  0  0  0
   -2.0137   19.5218  -26.9845 H   0  0  0  0  0  0  0  0  0  0  0  0
   -0.7236   17.4201  -26.6033 H   0  0  0  0  0  0  0  0  0  0  0  0
    1.1967   16.8440  -28.0923 H   0  0  0  0  0  0  0  0  0  0  0  0
    1.8309   18.3721  -29.9612 H   0  0  0  0  0  0  0  0  0  0  0  0
    0.5439   20.4721  -30.3534 H   0  0  0  0  0  0  0  0  0  0  0  0
   -2.2735   21.3938  -26.9307 H   0  0  0  0  0  0  0  0  0  0  0  0
   -1.4929   22.9099  -27.5131 H   0  0  0  0  0  0  0  0  0  0  0  0
   -4.2552   21.8147  -28.2280 H   0  0  0  0  0  0  0  0  0  0  0  0
   -3.8412   23.3693  -27.4109 H   0  0  0  0  0  0  0  0  0  0  0  0
  1  2  2  0
  2  3  1  0
  3  4  1  0
  4  5  1  0
  5  6  2  0
  6  7  1  0
  7  8  1  0
  8  9  1  0
  9 10  1  0
 10 11  2  0
 11 12  1  0
 12 13  1  0
  8 14  2  0
  2 15  1  0
 15 16  1  0
 16 17  1  0
 17 18  1  0
 18 19  1  0
 19 20  2  0
 20 21  1  0
 21 22  2  0
 22 23  1  0
 23 24  2  0
 18 25  1  0
 25 26  1  0
 14  5  1  0
 26 15  1  0
 13  9  2  0
 24 19  1  0
  3 27  1  0
  3 28  1  0
  7 29  1  0
 10 30  1  0
 11 31  1  0
 13 32  1  0
 16 33  1  0
 16 34  1  0
 17 35  1  0
 17 36  1  0
 20 37  1  0
 21 38  1  0
 22 39  1  0
 23 40  1  0
 24 41  1  0
 25 42  1  0
 25 43  1  0
 26 44  1  0
 26 45  1  0
M  END
>  <UniqueID>  (23) 
22

>  <SMILES>  (23) 
O=C(CSc1n[nH]c(-c2ccoc2)n1)N1CCN(c2ccccc2)CC1

>  <Energy>  (23) 
106.60681081084205

>  <Genealogy>  (23) 
O=C(CSc1n[nH]c(-c2ccoc2)n1)N1CCN(c2ccccc2)CC1 (3D coordinates assigned)
O=C(CSc1n[nH]c(-c2ccoc2)n1)N1CCN(c2ccccc2)CC1 (nonaromatic ring conformer: 106.60681081084205 kcal/mol)

>  <smiles>  (23) 
O=C(CSc1n[nH]c(-c2ccoc2)n1)N1CCN(c2ccccc2)CC1

>  <score_type>  (23) 
oracle

>  <origin>  (23) 
adgpu

>  <m_score__min__energy>  (23) 
-8.8100000000000005

>  <m_primary>  (23) 
energy

$$$$
23:0
     RDKit          3D

 37 38  0  0  0  0  0  0  0  0999 V2000
   -2.0200   19.8930  -34.1770 C   0  0  0  0  0  0  0  0  0  0  0  0
   -1.3850   21.1630  -33.8280 N   0  0  0  0  0  0  0  0  0  0  0  0
   -1.3550   21.3410  -32.3710 C   0  0  0  0  0  0  0  0  0  0  0  0
   -2.6860   20.9060  -31.7390 C   0  0  0  0  0  0  0  0  0  0  0  0
   -3.6600   22.0590  -31.5900 C   0  0  0  0  0  0  0  0  0  0  0  0
   -3.2640   23.1520  -30.7960 C   0  0  0  0  0  0  0  0  0  0  0  0
   -4.1200   24.2330  -30.5790 C   0  0  0  0  0  0  0  0  0  0  0  0
   -3.6990   25.2950  -29.7830 O   0  0  0  0  0  0  0  0  0  0  0  0
   -5.3890   24.2400  -31.1620 C   0  0  0  0  0  0  0  0  0  0  0  0
   -5.7980   23.1760  -31.9650 C   0  0  0  0  0  0  0  0  0  0  0  0
   -4.9460   22.0800  -32.2030 C   0  0  0  0  0  0  0  0  0  0  0  0
   -5.4500   20.9700  -33.1050 C   0  0  0  0  0  0  0  0  0  0  0  0
   -6.6090   20.2250  -32.4910 C   0  0  0  0  0  0  0  0  0  0  0  0
   -6.4760   18.8720  -32.1320 C   0  0  0  0  0  0  0  0  0  0  0  0
   -7.5540   18.1850  -31.5650 C   0  0  0  0  0  0  0  0  0  0  0  0
   -8.7730   18.8360  -31.3620 C   0  0  0  0  0  0  0  0  0  0  0  0
   -8.9210   20.1730  -31.7360 C   0  0  0  0  0  0  0  0  0  0  0  0
   -7.8480   20.8660  -32.3050 C   0  0  0  0  0  0  0  0  0  0  0  0
   -2.2899   19.3531  -33.2574 H   0  0  0  0  0  0  0  0  0  0  0  0
   -2.9272   20.0869  -34.7681 H   0  0  0  0  0  0  0  0  0  0  0  0
   -1.3206   19.2836  -34.7681 H   0  0  0  0  0  0  0  0  0  0  0  0
   -1.9740   21.9260  -34.2380 H   0  0  0  0  0  0  0  0  0  0  0  0
   -0.5406   20.7328  -31.9504 H   0  0  0  0  0  0  0  0  0  0  0  0
   -1.1920   22.4062  -32.1499 H   0  0  0  0  0  0  0  0  0  0  0  0
   -3.1449   20.1362  -32.3768 H   0  0  0  0  0  0  0  0  0  0  0  0
   -2.4685   20.5188  -30.7326 H   0  0  0  0  0  0  0  0  0  0  0  0
   -2.2634   23.1542  -30.3390 H   0  0  0  0  0  0  0  0  0  0  0  0
   -4.2390   25.6040  -28.9830 H   0  0  0  0  0  0  0  0  0  0  0  0
   -6.0680   25.0876  -30.9872 H   0  0  0  0  0  0  0  0  0  0  0  0
   -6.7999   23.1928  -32.4189 H   0  0  0  0  0  0  0  0  0  0  0  0
   -5.7756   21.4086  -34.0598 H   0  0  0  0  0  0  0  0  0  0  0  0
   -4.6279   20.2548  -33.2553 H   0  0  0  0  0  0  0  0  0  0  0  0
   -5.5208   18.3522  -32.2977 H   0  0  0  0  0  0  0  0  0  0  0  0
   -7.4417   17.1290  -31.2781 H   0  0  0  0  0  0  0  0  0  0  0  0
   -9.6163   18.2954  -30.9075 H   0  0  0  0  0  0  0  0  0  0  0  0
   -9.8838   20.6824  -31.5827 H   0  0  0  0  0  0  0  0  0  0  0  0
   -7.9728   21.9160  -32.6083 H   0  0  0  0  0  0  0  0  0  0  0  0
  1  2  1  0
  2  3  1  0
  3  4  1  0
  4  5  1  0
  5  6  2  0
  6  7  1  0
  7  8  1  0
  7  9  2  0
  9 10  1  0
 10 11  2  0
 11 12  1  0
 12 13  1  0
 13 14  2  0
 14 15  1  0
 15 16  2  0
 16 17  1  0
 17 18  2  0
 11  5  1  0
 18 13  1  0
  1 19  1  0
  1 20  1  0
  1 21  1  0
  2 22  1  0
  3 23  1  0
  3 24  1  0
  4 25  1  0
  4 26  1  0
  6 27  1  0
  8 28  1  0
  9 29  1  0
 10 30  1  0
 12 31  1  0
 12 32  1  0
 14 33  1  0
 15 34  1  0
 16 35  1  0
 17 36  1  0
 18 37  1  0
M  END
>  <UniqueID>  (24) 
23

>  <SMILES>  (24) 
CNCCc1cc(O)ccc1Cc1ccccc1

>  <Energy>  (24) 
32.991050761997315

>  <Genealogy>  (24) 
CNCCc1cc(O)ccc1Cc1ccccc1 (3D coordinates assigned)
CNCCc1cc(O)ccc1Cc1ccccc1 (optimized conformer: 32.991050761997315 kcal/mol)

>  <smiles>  (24) 
CNCCc1cc(O)ccc1Cc1ccccc1

>  <score_type>  (24) 
oracle

>  <origin>  (24) 
adgpu

>  <m_score__min__energy>  (24) 
-7.6100000000000003

>  <m_primary>  (24) 
energy

$$$$
24:0
     RDKit          3D

 62 65  0  0  1  0  0  0  0  0999 V2000
   -9.4890   17.8900  -31.5920 C   0  0  0  0  0  0  0  0  0  0  0  0
   -8.2160   18.4720  -31.8750 N   0  0  0  0  0  0  0  0  0  0  0  0
   -8.4190   19.7980  -32.4200 C   0  0  0  0  0  0  0  0  0  0  0  0
   -7.2950   20.0390  -33.4220 C   0  0  0  0  0  0  0  0  0  0  0  0
   -6.0820   19.5870  -32.7710 N   0  0  0  0  0  0  0  0  0  0  0  0
   -5.0720   20.4370  -32.2670 C   0  0  0  0  0  0  0  0  0  0  0  0
   -5.3210   21.8050  -32.1270 C   0  0  0  0  0  0  0  0  0  0  0  0
   -4.3470   22.6660  -31.6350 C   0  0  0  0  0  0  0  0  0  0  0  0
   -3.1020   22.2040  -31.2660 C   0  0  0  0  0  0  0  0  0  0  0  0
   -2.0730   23.0450  -30.7580 N   0  0  0  0  0  0  0  0  0  0  0  0
   -2.1910   23.6100  -29.6110 C   0  0  0  0  0  0  0  0  0  0  0  0
   -3.2740   23.4490  -28.8250 N   0  0  0  0  0  0  0  0  0  0  0  0
   -3.2870   24.0890  -27.6410 C   0  0  0  0  0  0  0  0  0  0  0  0
   -2.2570   24.8890  -27.2080 C   0  0  0  0  0  0  0  0  0  0  0  0
   -2.3330   25.6790  -25.6770 Cl  0  0  0  0  0  0  0  0  0  0  0  0
   -1.1710   25.0280  -28.0370 C   0  0  0  0  0  0  0  0  0  0  0  0
   -0.1870   25.7510  -27.7030 N   0  0  0  0  0  0  0  0  0  0  0  0
   -0.0540   26.4870  -26.4990 C   0  0  0  0  0  0  0  0  0  0  0  0
   -0.4870   27.8230  -26.4870 C   0  0  0  0  0  0  0  0  0  0  0  0
   -0.3720   28.6080  -25.3690 C   0  0  0  0  0  0  0  0  0  0  0  0
    0.1790   28.0680  -24.2450 C   0  0  0  0  0  0  0  0  0  0  0  0
    0.6120   26.7620  -24.2300 C   0  0  0  0  0  0  0  0  0  0  0  0
    0.5140   25.9280  -25.3450 C   0  0  0  0  0  0  0  0  0  0  0  0
    1.0580   24.2840  -25.3360 S   0  0  0  0  0  0  0  0  0  0  0  0
    1.6680   23.8740  -26.6500 O   0  0  0  0  0  0  0  0  0  0  0  0
    2.1360   24.0730  -24.2970 O   0  0  0  0  0  0  0  0  0  0  0  0
   -0.2480   23.1990  -25.0380 N   0  0  0  0  0  0  0  0  0  0  0  0
   -0.2580   22.6520  -23.7170 C   0  0  0  0  0  0  0  0  0  0  0  0
   -0.4710   22.2630  -26.0970 C   0  0  0  0  0  0  0  0  0  0  0  0
   -1.1510   24.3920  -29.2190 N   0  0  0  0  0  0  0  0  0  0  0  0
   -2.8420   20.8560  -31.3990 C   0  0  0  0  0  0  0  0  0  0  0  0
   -3.8210   20.0140  -31.8890 C   0  0  0  0  0  0  0  0  0  0  0  0
   -5.9340   18.1300  -32.6470 C   0  0  0  0  0  0  0  0  0  0  0  0
   -7.3860   17.6200  -32.6740 C   0  0  0  0  0  0  0  0  0  0  0  0
   -9.6289   17.8260  -30.5028 H   0  0  0  0  0  0  0  0  0  0  0  0
  -10.2828   18.5147  -32.0276 H   0  0  0  0  0  0  0  0  0  0  0  0
   -9.5359   16.8810  -32.0276 H   0  0  0  0  0  0  0  0  0  0  0  0
   -9.3948   19.8548  -32.9245 H   0  0  0  0  0  0  0  0  0  0  0  0
   -8.4084   20.5577  -31.6245 H   0  0  0  0  0  0  0  0  0  0  0  0
   -7.4728   19.4638  -34.3427 H   0  0  0  0  0  0  0  0  0  0  0  0
   -7.2293   21.0987  -33.7096 H   0  0  0  0  0  0  0  0  0  0  0  0
   -6.3046   22.2073  -32.4110 H   0  0  0  0  0  0  0  0  0  0  0  0
   -4.5745   23.7379  -31.5382 H   0  0  0  0  0  0  0  0  0  0  0  0
   -4.0420   22.8410  -29.1680 H   0  0  0  0  0  0  0  0  0  0  0  0
   -4.1641   23.9658  -26.9887 H   0  0  0  0  0  0  0  0  0  0  0  0
   -0.9300   28.2507  -27.3985 H   0  0  0  0  0  0  0  0  0  0  0  0
   -0.7173   29.6524  -25.3786 H   0  0  0  0  0  0  0  0  0  0  0  0
    0.2787   28.6839  -23.3390 H   0  0  0  0  0  0  0  0  0  0  0  0
    1.0516   26.3603  -23.3051 H   0  0  0  0  0  0  0  0  0  0  0  0
   -0.2431   23.4697  -22.9814 H   0  0  0  0  0  0  0  0  0  0  0  0
   -1.1673   22.0491  -23.5766 H   0  0  0  0  0  0  0  0  0  0  0  0
    0.6287   22.0163  -23.5766 H   0  0  0  0  0  0  0  0  0  0  0  0
   -0.7060   21.2765  -25.6710 H   0  0  0  0  0  0  0  0  0  0  0  0
   -1.3129   22.6046  -26.7171 H   0  0  0  0  0  0  0  0  0  0  0  0
    0.4345   22.1883  -26.7171 H   0  0  0  0  0  0  0  0  0  0  0  0
   -0.3010   24.5210  -29.8320 H   0  0  0  0  0  0  0  0  0  0  0  0
   -1.8584   20.4530  -31.1158 H   0  0  0  0  0  0  0  0  0  0  0  0
   -3.5855   18.9435  -31.9819 H   0  0  0  0  0  0  0  0  0  0  0  0
   -5.3571   17.7199  -33.4891 H   0  0  0  0  0  0  0  0  0  0  0  0
   -5.3902   17.8294  -31.7393 H   0  0  0  0  0  0  0  0  0  0  0  0
   -7.7537   17.6203  -33.7107 H   0  0  0  0  0  0  0  0  0  0  0  0
   -7.4189   16.5979  -32.2687 H   0  0  0  0  0  0  0  0  0  0  0  0
  1  2  1  0
  2  3  1  0
  3  4  1  0
  4  5  1  0
  5  6  1  0
  6  7  2  0
  7  8  1  0
  8  9  2  0
  9 10  1  0
 10 11  2  0
 11 12  1  0
 12 13  1  0
 13 14  2  0
 14 15  1  0
 14 16  1  0
 16 17  2  0
 17 18  1  0
 18 19  2  0
 19 20  1  0
 20 21  2  0
 21 22  1  0
 22 23  2  0
 23 24  1  0
 24 25  2  0
 24 26  2  0
 24 27  1  0
 27 28  1  0
 27 29  1  0
 16 30  1  0
  9 31  1  0
 31 32  2  0
  5 33  1  0
 33 34  1  0
 34  2  1  0
 32  6  1  0
 30 11  1  0
 23 18  1  0
  1 35  1  0
  1 36  1  0
  1 37  1  0
  3 38  1  0
  3 39  1  0
  4 40  1  0
  4 41  1  0
  7 42  1  0
  8 43  1  0
 12 44  1  0
 13 45  1  0
 19 46  1  0
 20 47  1  0
 21 48  1  0
 22 49  1  0
 28 50  1  0
 28 51  1  0
 28 52  1  0
 29 53  1  0
 29 54  1  0
 29 55  1  0
 30 56  1  0
 31 57  1  0
 32 58  1  0
 33 59  1  0
 33 60  1  0
 34 61  1  0
 34 62  1  0
M  END
>  <smiles>  (25) 
CN1CCN(c2ccc(N=c3[nH]cc(Cl)c(=Nc4ccccc4S(=O)(=O)N(C)C)[nH]3)cc2)CC1

>  <score_type>  (25) 
oracle

>  <origin>  (25) 
adgpu

>  <m_score__min__energy>  (25) 
-10.050000000000001

>  <m_primary>  (25) 
energy

$$$$
25:0
     RDKit          3D

 51 54  0  0  0  0  0  0  0  0999 V2000
    0.9630   16.9640  -27.4960 N   0  0  0  0  0  0  0  0  0  0  0  0
    0.1520   17.7880  -27.5440 C   0  0  0  0  0  0  0  0  0  0  0  0
   -0.8750   18.7970  -27.5970 C   0  0  0  0  0  0  0  0  0  0  0  0
   -1.9640   18.6810  -26.7200 C   0  0  0  0  0  0  0  0  0  0  0  0
   -3.0540   19.5470  -26.8270 C   0  0  0  0  0  0  0  0  0  0  0  0
   -3.0780   20.5140  -27.8320 C   0  0  0  0  0  0  0  0  0  0  0  0
   -1.9970   20.6390  -28.7080 C   0  0  0  0  0  0  0  0  0  0  0  0
   -0.8620   19.8230  -28.5680 C   0  0  0  0  0  0  0  0  0  0  0  0
    0.5330   20.0420  -29.7060 S   0  0  0  0  0  0  0  0  0  0  0  0
   -0.0290   18.8640  -30.9660 C   0  0  0  0  0  0  0  0  0  0  0  0
    0.2420   17.5060  -30.7240 C   0  0  0  0  0  0  0  0  0  0  0  0
   -0.1080   16.5260  -31.6520 C   0  0  0  0  0  0  0  0  0  0  0  0
    0.1390   15.1880  -31.3770 O   0  0  0  0  0  0  0  0  0  0  0  0
   -0.6840   16.8910  -32.8650 C   0  0  0  0  0  0  0  0  0  0  0  0
   -0.8920   18.2370  -33.1590 C   0  0  0  0  0  0  0  0  0  0  0  0
   -0.5980   19.2410  -32.2180 C   0  0  0  0  0  0  0  0  0  0  0  0
   -0.8030   20.9200  -32.7610 S   0  0  0  0  0  0  0  0  0  0  0  0
   -1.4930   20.8880  -34.0980 O   0  0  0  0  0  0  0  0  0  0  0  0
    0.5200   21.6100  -32.9280 O   0  0  0  0  0  0  0  0  0  0  0  0
   -1.7670   21.8670  -31.6590 N   0  0  0  0  0  0  0  0  0  0  0  0
   -3.1990   21.7900  -31.6310 C   0  0  0  0  0  0  0  0  0  0  0  0
   -3.8140   20.6650  -32.1910 C   0  0  0  0  0  0  0  0  0  0  0  0
   -5.1910   20.4880  -32.0910 C   0  0  0  0  0  0  0  0  0  0  0  0
   -5.9900   21.4630  -31.4820 C   0  0  0  0  0  0  0  0  0  0  0  0
   -5.3980   22.6400  -30.9740 C   0  0  0  0  0  0  0  0  0  0  0  0
   -3.9860   22.7970  -31.0210 C   0  0  0  0  0  0  0  0  0  0  0  0
   -3.3300   23.9930  -30.4520 C   0  0  0  0  0  0  0  0  0  0  0  0
   -2.3110   23.8700  -29.7220 O   0  0  0  0  0  0  0  0  0  0  0  0
   -3.8580   25.2590  -30.6800 O   0  0  0  0  0  0  0  0  0  0  0  0
   -6.3210   23.7130  -30.4380 C   0  0  0  0  0  0  0  0  0  0  0  0
   -7.5690   23.8040  -31.3200 C   0  0  0  0  0  0  0  0  0  0  0  0
   -8.3490   22.4780  -31.3520 C   0  0  0  0  0  0  0  0  0  0  0  0
   -7.4670   21.2070  -31.2850 C   0  0  0  0  0  0  0  0  0  0  0  0
   -1.9590   17.9025  -25.9429 H   0  0  0  0  0  0  0  0  0  0  0  0
   -3.8927   19.4668  -26.1197 H   0  0  0  0  0  0  0  0  0  0  0  0
   -3.9486   21.1785  -27.9348 H   0  0  0  0  0  0  0  0  0  0  0  0
   -2.0349   21.3844  -29.5161 H   0  0  0  0  0  0  0  0  0  0  0  0
    0.7382   17.2118  -29.7874 H   0  0  0  0  0  0  0  0  0  0  0  0
   -0.9749   16.1176  -33.5911 H   0  0  0  0  0  0  0  0  0  0  0  0
   -1.2929   18.5196  -34.1436 H   0  0  0  0  0  0  0  0  0  0  0  0
   -1.3250   22.7480  -31.2980 H   0  0  0  0  0  0  0  0  0  0  0  0
   -3.2042   19.9141  -32.7147 H   0  0  0  0  0  0  0  0  0  0  0  0
   -5.6548   19.5753  -32.4934 H   0  0  0  0  0  0  0  0  0  0  0  0
   -6.6174   23.4606  -29.4092 H   0  0  0  0  0  0  0  0  0  0  0  0
   -5.7983   24.6808  -30.4435 H   0  0  0  0  0  0  0  0  0  0  0  0
   -8.2260   24.5933  -30.9257 H   0  0  0  0  0  0  0  0  0  0  0  0
   -7.2446   24.0327  -32.3459 H   0  0  0  0  0  0  0  0  0  0  0  0
   -9.0362   22.4639  -30.4932 H   0  0  0  0  0  0  0  0  0  0  0  0
   -8.8675   22.4457  -32.3216 H   0  0  0  0  0  0  0  0  0  0  0  0
   -7.6073   20.7420  -30.2980 H   0  0  0  0  0  0  0  0  0  0  0  0
   -7.7871   20.5577  -32.1132 H   0  0  0  0  0  0  0  0  0  0  0  0
  1  2  3  0
  2  3  1  0
  3  4  2  0
  4  5  1  0
  5  6  2  0
  6  7  1  0
  7  8  2  0
  8  9  1  0
  9 10  1  0
 10 11  2  0
 11 12  1  0
 12 13  1  0
 12 14  2  0
 14 15  1  0
 15 16  2  0
 16 17  1  0
 17 18  2  0
 17 19  2  0
 17 20  1  0
 20 21  1  0
 21 22  2  0
 22 23  1  0
 23 24  2  0
 24 25  1  0
 25 26  2  0
 26 27  1  0
 27 28  2  0
 27 29  1  0
 25 30  1  0
 30 31  1  0
 31 32  1  0
 32 33  1  0
  8  3  1  0
 16 10  1  0
 26 21  1  0
 33 24  1  0
  4 34  1  0
  5 35  1  0
  6 36  1  0
  7 37  1  0
 11 38  1  0
 14 39  1  0
 15 40  1  0
 20 41  1  0
 22 42  1  0
 23 43  1  0
 30 44  1  0
 30 45  1  0
 31 46  1  0
 31 47  1  0
 32 48  1  0
 32 49  1  0
 33 50  1  0
 33 51  1  0
M  CHG  2  13  -1  29  -1
M  END
>  <UniqueID>  (26) 
24

>  <SMILES>  (26) 
N#Cc1ccccc1Sc1cc([O-])ccc1S(=O)(=O)Nc1ccc2c(c1C(=O)[O-])CCCC2

>  <Energy>  (26) 
77.54588343873336

>  <Genealogy>  (26) 
N#Cc1ccccc1Sc1cc([O-])ccc1S(=O)(=O)Nc1ccc2c(c1C(=O)[O-])CCCC2 (protonated)
N#Cc1ccccc1Sc1cc([O-])ccc1S(=O)(=O)Nc1ccc2c(c1C(=O)[O-])CCCC2 (3D coordinates assigned)
N#Cc1ccccc1Sc1cc([O-])ccc1S(=O)(=O)Nc1ccc2c(c1C(=O)[O-])CCCC2 (nonaromatic ring conformer: 77.54588343873336 kcal/mol)

>  <smiles>  (26) 
N#Cc1ccccc1Sc1cc(O)ccc1S(=O)(=O)Nc1ccc2c(c1C(=O)O)CCCC2

>  <score_type>  (26) 
oracle

>  <origin>  (26) 
adgpu

>  <m_score__min__energy>  (26) 
-12.33

>  <m_primary>  (26) 
energy

$$$$
26:0
     RDKit          3D

 47 50  0  0  0  0  0  0  0  0999 V2000
   -4.3790   25.6710  -31.1930 O   0  0  0  0  0  0  0  0  0  0  0  0
   -4.1520   25.0420  -30.1250 C   0  0  0  0  0  0  0  0  0  0  0  0
   -5.2930   24.4600  -29.3510 C   0  0  0  0  0  0  0  0  0  0  0  0
   -6.8480   24.5640  -30.3030 S   0  0  0  0  0  0  0  0  0  0  0  0
   -6.5380   23.0790  -31.2560 C   0  0  0  0  0  0  0  0  0  0  0  0
   -5.3020   22.7420  -31.7070 N   0  0  0  0  0  0  0  0  0  0  0  0
   -5.5340   21.5790  -32.3340 C   0  0  0  0  0  0  0  0  0  0  0  0
   -4.6150   20.7600  -32.9930 C   0  0  0  0  0  0  0  0  0  0  0  0
   -2.9150   21.1860  -33.0900 Cl  0  0  0  0  0  0  0  0  0  0  0  0
   -5.0990   19.5750  -33.5810 C   0  0  0  0  0  0  0  0  0  0  0  0
   -6.4720   19.2430  -33.4930 C   0  0  0  0  0  0  0  0  0  0  0  0
   -7.3690   20.0920  -32.8180 C   0  0  0  0  0  0  0  0  0  0  0  0
   -6.8550   21.2550  -32.2510 C   0  0  0  0  0  0  0  0  0  0  0  0
   -7.5210   22.1960  -31.5700 N   0  0  0  0  0  0  0  0  0  0  0  0
   -2.8170   24.9110  -29.6240 N   0  0  0  0  0  0  0  0  0  0  0  0
   -2.1800   23.6870  -29.2350 C   0  0  0  0  0  0  0  0  0  0  0  0
   -0.7980   23.6160  -28.9800 C   0  0  0  0  0  0  0  0  0  0  0  0
   -0.2060   22.3950  -28.6420 C   0  0  0  0  0  0  0  0  0  0  0  0
   -0.9830   21.2320  -28.5590 C   0  0  0  0  0  0  0  0  0  0  0  0
   -0.2180   19.6980  -28.1530 S   0  0  0  0  0  0  0  0  0  0  0  0
    1.2320   19.9530  -27.8470 O   0  0  0  0  0  0  0  0  0  0  0  0
   -0.8710   19.1160  -26.9300 O   0  0  0  0  0  0  0  0  0  0  0  0
   -0.3690   18.6070  -29.5160 N   0  0  0  0  0  0  0  0  0  0  0  0
    0.8080   17.7190  -29.6450 C   0  0  0  0  0  0  0  0  0  0  0  0
    1.8170   18.2170  -30.6980 C   0  0  0  0  0  0  0  0  0  0  0  0
    1.8050   19.6270  -30.7600 O   0  0  0  0  0  0  0  0  0  0  0  0
    0.5810   20.0830  -31.3090 C   0  0  0  0  0  0  0  0  0  0  0  0
   -0.6600   19.3330  -30.7640 C   0  0  0  0  0  0  0  0  0  0  0  0
   -2.3550   21.2970  -28.8350 C   0  0  0  0  0  0  0  0  0  0  0  0
   -2.9470   22.5160  -29.1800 C   0  0  0  0  0  0  0  0  0  0  0  0
   -5.0765   23.4045  -29.1294 H   0  0  0  0  0  0  0  0  0  0  0  0
   -5.4130   25.0319  -28.4191 H   0  0  0  0  0  0  0  0  0  0  0  0
   -4.4066   18.9045  -34.1111 H   0  0  0  0  0  0  0  0  0  0  0  0
   -6.8405   18.3153  -33.9552 H   0  0  0  0  0  0  0  0  0  0  0  0
   -8.4382   19.8454  -32.7412 H   0  0  0  0  0  0  0  0  0  0  0  0
   -0.1811   24.5243  -29.0468 H   0  0  0  0  0  0  0  0  0  0  0  0
    0.8743   22.3474  -28.4404 H   0  0  0  0  0  0  0  0  0  0  0  0
    1.3152   17.6634  -28.6705 H   0  0  0  0  0  0  0  0  0  0  0  0
    0.4459   16.7333  -29.9724 H   0  0  0  0  0  0  0  0  0  0  0  0
    2.8258   17.8744  -30.4243 H   0  0  0  0  0  0  0  0  0  0  0  0
    1.5358   17.8133  -31.6818 H   0  0  0  0  0  0  0  0  0  0  0  0
    0.4717   21.1523  -31.0751 H   0  0  0  0  0  0  0  0  0  0  0  0
    0.6226   19.8941  -32.3919 H   0  0  0  0  0  0  0  0  0  0  0  0
   -1.4587   20.0641  -30.5703 H   0  0  0  0  0  0  0  0  0  0  0  0
   -0.9668   18.5950  -31.5198 H   0  0  0  0  0  0  0  0  0  0  0  0
   -2.9688   20.3858  -28.7801 H   0  0  0  0  0  0  0  0  0  0  0  0
   -4.0220   22.5557  -29.4097 H   0  0  0  0  0  0  0  0  0  0  0  0
  1  2  2  0
  2  3  1  0
  3  4  1  0
  4  5  1  0
  5  6  2  0
  6  7  1  0
  7  8  2  0
  8  9  1  0
  8 10  1  0
 10 11  2  0
 11 12  1  0
 12 13  2  0
 13 14  1  0
  2 15  1  0
 15 16  1  0
 16 17  2  0
 17 18  1  0
 18 19  2  0
 19 20  1  0
 20 21  2  0
 20 22  2  0
 20 23  1  0
 23 24  1  0
 24 25  1  0
 25 26  1  0
 26 27  1  0
 27 28  1  0
 19 29  1  0
 29 30  2  0
 14  5  1  0
 30 16  1  0
 13  7  1  0
 28 23  1  0
  3 31  1  0
  3 32  1  0
 10 33  1  0
 11 34  1  0
 12 35  1  0
 17 36  1  0
 18 37  1  0
 24 38  1  0
 24 39  1  0
 25 40  1  0
 25 41  1  0
 27 42  1  0
 27 43  1  0
 28 44  1  0
 28 45  1  0
 29 46  1  0
 30 47  1  0
M  CHG  2  14  -1  15  -1
M  END
>  <UniqueID>  (27) 
25

>  <SMILES>  (27) 
O=C(CSc1nc2c(Cl)cccc2[n-]1)[N-]c1ccc(S(=O)(=O)N2CCOCC2)cc1

>  <Energy>  (27) 
93.91909898223341

>  <Genealogy>  (27) 
O=C(CSc1nc2c(Cl)cccc2[n-]1)[N-]c1ccc(S(=O)(=O)N2CCOCC2)cc1 (protonated)
O=C(CSc1nc2c(Cl)cccc2[n-]1)[N-]c1ccc(S(=O)(=O)N2CCOCC2)cc1 (3D coordinates assigned)
O=C(CSc1nc2c(Cl)cccc2[n-]1)[N-]c1ccc(S(=O)(=O)N2CCOCC2)cc1 (nonaromatic ring conformer: 93.91909898223341 kcal/mol)

>  <smiles>  (27) 
O=C(CSc1nc2c(Cl)cccc2[nH]1)Nc1ccc(S(=O)(=O)N2CCOCC2)cc1

>  <score_type>  (27) 
oracle

>  <origin>  (27) 
adgpu

>  <m_score__min__energy>  (27) 
-11.609999999999999

>  <m_primary>  (27) 
energy

$$$$
27:0
     RDKit          3D

 41 43  0  0  0  0  0  0  0  0999 V2000
   -3.4510   21.0050  -29.8880 O   0  0  0  0  0  0  0  0  0  0  0  0
   -2.6190   21.6030  -30.9850 S   0  0  0  0  0  0  0  0  0  0  0  0
   -1.2470   21.8910  -30.4430 O   0  0  0  0  0  0  0  0  0  0  0  0
   -3.3210   23.0850  -31.5450 N   0  0  0  0  0  0  0  0  0  0  0  0
   -4.6440   23.4800  -31.1750 C   0  0  0  0  0  0  0  0  0  0  0  0
   -5.7040   22.5890  -31.3890 C   0  0  0  0  0  0  0  0  0  0  0  0
   -7.0110   22.9430  -31.0240 C   0  0  0  0  0  0  0  0  0  0  0  0
   -8.3380   21.8060  -31.2730 S   0  0  0  0  0  0  0  0  0  0  0  0
   -9.2450   22.3330  -32.3520 O   0  0  0  0  0  0  0  0  0  0  0  0
   -9.1410   21.6940  -30.0050 O   0  0  0  0  0  0  0  0  0  0  0  0
   -7.7530   20.2270  -31.7380 N   0  0  0  0  0  0  0  0  0  0  0  0
   -8.8680   19.2650  -31.8020 C   0  0  0  0  0  0  0  0  0  0  0  0
   -8.3370   17.8310  -32.0040 C   0  0  0  0  0  0  0  0  0  0  0  0
   -6.8860   17.8080  -32.5080 C   0  0  0  0  0  0  0  0  0  0  0  0
   -6.6340   18.9070  -33.5510 C   0  0  0  0  0  0  0  0  0  0  0  0
   -7.0610   20.3020  -33.0410 C   0  0  0  0  0  0  0  0  0  0  0  0
   -7.2540   24.2010  -30.4530 C   0  0  0  0  0  0  0  0  0  0  0  0
   -6.2010   25.1000  -30.2560 C   0  0  0  0  0  0  0  0  0  0  0  0
   -4.8970   24.7480  -30.6230 C   0  0  0  0  0  0  0  0  0  0  0  0
   -3.8680   25.6700  -30.4570 O   0  0  0  0  0  0  0  0  0  0  0  0
   -2.4850   20.4730  -32.3200 C   0  0  0  0  0  0  0  0  0  0  0  0
   -1.4440   20.4250  -33.2370 C   0  0  0  0  0  0  0  0  0  0  0  0
   -1.6090   19.4110  -34.1870 C   0  0  0  0  0  0  0  0  0  0  0  0
   -2.7690   18.6590  -34.0130 C   0  0  0  0  0  0  0  0  0  0  0  0
   -3.5940   19.2600  -32.6810 S   0  0  0  0  0  0  0  0  0  0  0  0
   -5.5101   21.6072  -31.8455 H   0  0  0  0  0  0  0  0  0  0  0  0
   -9.4388   19.3102  -30.8628 H   0  0  0  0  0  0  0  0  0  0  0  0
   -9.5140   19.5270  -32.6529 H   0  0  0  0  0  0  0  0  0  0  0  0
   -8.3854   17.2980  -31.0430 H   0  0  0  0  0  0  0  0  0  0  0  0
   -8.9641   17.3461  -32.7666 H   0  0  0  0  0  0  0  0  0  0  0  0
   -6.2090   17.9630  -31.6550 H   0  0  0  0  0  0  0  0  0  0  0  0
   -6.7014   16.8331  -32.9829 H   0  0  0  0  0  0  0  0  0  0  0  0
   -5.5604   18.9300  -33.7896 H   0  0  0  0  0  0  0  0  0  0  0  0
   -7.2361   18.6732  -34.4414 H   0  0  0  0  0  0  0  0  0  0  0  0
   -6.1644   20.9298  -32.9313 H   0  0  0  0  0  0  0  0  0  0  0  0
   -7.7606   20.7318  -33.7730 H   0  0  0  0  0  0  0  0  0  0  0  0
   -8.2763   24.4813  -30.1592 H   0  0  0  0  0  0  0  0  0  0  0  0
   -6.3982   26.0866  -29.8113 H   0  0  0  0  0  0  0  0  0  0  0  0
   -0.5831   21.1095  -33.2188 H   0  0  0  0  0  0  0  0  0  0  0  0
   -0.8887   19.2246  -34.9972 H   0  0  0  0  0  0  0  0  0  0  0  0
   -3.0894   17.8151  -34.6417 H   0  0  0  0  0  0  0  0  0  0  0  0
  1  2  2  0
  2  3  2  0
  2  4  1  0
  4  5  1  0
  5  6  2  0
  6  7  1  0
  7  8  1  0
  8  9  2  0
  8 10  2  0
  8 11  1  0
 11 12  1  0
 12 13  1  0
 13 14  1  0
 14 15  1  0
 15 16  1  0
  7 17  2  0
 17 18  1  0
 18 19  2  0
 19 20  1  0
  2 21  1  0
 21 22  2  0
 22 23  1  0
 23 24  2  0
 24 25  1  0
 19  5  1  0
 25 21  1  0
 16 11  1  0
  6 26  1  0
 12 27  1  0
 12 28  1  0
 13 29  1  0
 13 30  1  0
 14 31  1  0
 14 32  1  0
 15 33  1  0
 15 34  1  0
 16 35  1  0
 16 36  1  0
 17 37  1  0
 18 38  1  0
 22 39  1  0
 23 40  1  0
 24 41  1  0
M  CHG  2   4  -1  20  -1
M  END
>  <UniqueID>  (28) 
26

>  <SMILES>  (28) 
O=S(=O)([N-]c1cc(S(=O)(=O)N2CCCCC2)ccc1[O-])c1cccs1

>  <Energy>  (28) 
78.0627185735909

>  <Genealogy>  (28) 
O=S(=O)([N-]c1cc(S(=O)(=O)N2CCCCC2)ccc1[O-])c1cccs1 (protonated)
O=S(=O)([N-]c1cc(S(=O)(=O)N2CCCCC2)ccc1[O-])c1cccs1 (3D coordinates assigned)
O=S(=O)([N-]c1cc(S(=O)(=O)N2CCCCC2)ccc1[O-])c1cccs1 (nonaromatic ring conformer: 78.0627185735909 kcal/mol)

>  <smiles>  (28) 
O=S(=O)(Nc1cc(S(=O)(=O)N2CCCCC2)ccc1O)c1cccs1

>  <score_type>  (28) 
oracle

>  <origin>  (28) 
adgpu

>  <m_score__min__energy>  (28) 
-13.029999999999999

>  <m_primary>  (28) 
energy

$$$$
28:0
     RDKit          3D

 58 61  0  0  0  0  0  0  0  0999 V2000
   -5.5060   26.5950  -30.4680 O   0  0  0  0  0  0  0  0  0  0  0  0
   -5.0170   25.4310  -30.4800 C   0  0  0  0  0  0  0  0  0  0  0  0
   -3.6380   25.2240  -30.1360 N   0  0  0  0  0  0  0  0  0  0  0  0
   -3.0460   24.0390  -29.5830 C   0  0  0  0  0  0  0  0  0  0  0  0
   -2.4740   23.0500  -30.4030 C   0  0  0  0  0  0  0  0  0  0  0  0
   -1.9210   21.8910  -29.8410 C   0  0  0  0  0  0  0  0  0  0  0  0
   -1.1740   20.6830  -30.8850 S   0  0  0  0  0  0  0  0  0  0  0  0
   -0.3520   21.3640  -31.9450 O   0  0  0  0  0  0  0  0  0  0  0  0
   -0.2580   19.8350  -30.0490 O   0  0  0  0  0  0  0  0  0  0  0  0
   -2.3980   19.6630  -31.6120 N   0  0  0  0  0  0  0  0  0  0  0  0
   -3.7000   20.3450  -31.7140 C   0  0  0  0  0  0  0  0  0  0  0  0
   -3.7220   21.4110  -32.8360 C   0  0  0  0  0  0  0  0  0  0  0  0
   -2.6700   21.2630  -33.7750 O   0  0  0  0  0  0  0  0  0  0  0  0
   -2.5050   19.9060  -34.1120 C   0  0  0  0  0  0  0  0  0  0  0  0
   -1.9520   19.1140  -32.9110 C   0  0  0  0  0  0  0  0  0  0  0  0
   -1.9440   21.7140  -28.4530 C   0  0  0  0  0  0  0  0  0  0  0  0
   -2.5350   22.6780  -27.6340 C   0  0  0  0  0  0  0  0  0  0  0  0
   -3.0910   23.8350  -28.1890 C   0  0  0  0  0  0  0  0  0  0  0  0
   -3.6780   24.7710  -27.3360 O   0  0  0  0  0  0  0  0  0  0  0  0
   -5.8790   24.2710  -30.7990 C   0  0  0  0  0  0  0  0  0  0  0  0
   -6.2750   24.0180  -32.1230 C   0  0  0  0  0  0  0  0  0  0  0  0
   -7.0860   22.9210  -32.4230 C   0  0  0  0  0  0  0  0  0  0  0  0
   -7.5220   22.0640  -31.4040 C   0  0  0  0  0  0  0  0  0  0  0  0
   -8.5580   20.6860  -31.7820 S   0  0  0  0  0  0  0  0  0  0  0  0
   -9.7130   21.1500  -32.6240 O   0  0  0  0  0  0  0  0  0  0  0  0
   -9.1140   20.1250  -30.5030 O   0  0  0  0  0  0  0  0  0  0  0  0
   -7.6950   19.4320  -32.6400 N   0  0  0  0  0  0  0  0  0  0  0  0
   -6.6950   20.0190  -33.5430 C   0  0  0  0  0  0  0  0  0  0  0  0
   -5.8900   18.9000  -34.2430 C   0  0  0  0  0  0  0  0  0  0  0  0
   -6.3430   17.6130  -33.8650 O   0  0  0  0  0  0  0  0  0  0  0  0
   -6.2190   17.4540  -32.4640 C   0  0  0  0  0  0  0  0  0  0  0  0
   -7.0400   18.5130  -31.6970 C   0  0  0  0  0  0  0  0  0  0  0  0
   -7.1390   22.3160  -30.0810 C   0  0  0  0  0  0  0  0  0  0  0  0
   -6.3190   23.4060  -29.7800 C   0  0  0  0  0  0  0  0  0  0  0  0
   -2.4604   23.1870  -31.4943 H   0  0  0  0  0  0  0  0  0  0  0  0
   -4.4762   19.5946  -31.9246 H   0  0  0  0  0  0  0  0  0  0  0  0
   -3.8846   20.8593  -30.7593 H   0  0  0  0  0  0  0  0  0  0  0  0
   -4.6801   21.3342  -33.3710 H   0  0  0  0  0  0  0  0  0  0  0  0
   -3.5916   22.3914  -32.3546 H   0  0  0  0  0  0  0  0  0  0  0  0
   -3.4780   19.4853  -34.4058 H   0  0  0  0  0  0  0  0  0  0  0  0
   -1.7916   19.8311  -34.9459 H   0  0  0  0  0  0  0  0  0  0  0  0
   -2.2945   18.0716  -32.9889 H   0  0  0  0  0  0  0  0  0  0  0  0
   -0.8547   19.1847  -32.9428 H   0  0  0  0  0  0  0  0  0  0  0  0
   -1.4958   20.8141  -28.0066 H   0  0  0  0  0  0  0  0  0  0  0  0
   -2.5635   22.5264  -26.5449 H   0  0  0  0  0  0  0  0  0  0  0  0
   -4.1750   25.5840  -27.6810 H   0  0  0  0  0  0  0  0  0  0  0  0
   -5.9439   24.6888  -32.9294 H   0  0  0  0  0  0  0  0  0  0  0  0
   -7.3838   22.7290  -33.4644 H   0  0  0  0  0  0  0  0  0  0  0  0
   -7.2047   20.6301  -34.3024 H   0  0  0  0  0  0  0  0  0  0  0  0
   -6.0061   20.6465  -32.9585 H   0  0  0  0  0  0  0  0  0  0  0  0
   -5.9990   19.0105  -35.3320 H   0  0  0  0  0  0  0  0  0  0  0  0
   -4.8368   18.9950  -33.9402 H   0  0  0  0  0  0  0  0  0  0  0  0
   -6.5788   16.4526  -32.1851 H   0  0  0  0  0  0  0  0  0  0  0  0
   -5.1596   17.5795  -32.1959 H   0  0  0  0  0  0  0  0  0  0  0  0
   -7.8064   18.0085  -31.0903 H   0  0  0  0  0  0  0  0  0  0  0  0
   -6.3640   19.0885  -31.0475 H   0  0  0  0  0  0  0  0  0  0  0  0
   -7.4855   21.6525  -29.2749 H   0  0  0  0  0  0  0  0  0  0  0  0
   -6.0150   23.5895  -28.7389 H   0  0  0  0  0  0  0  0  0  0  0  0
  1  2  2  0
  2  3  1  0
  3  4  1  0
  4  5  2  0
  5  6  1  0
  6  7  1  0
  7  8  2  0
  7  9  2  0
  7 10  1  0
 10 11  1  0
 11 12  1  0
 12 13  1  0
 13 14  1  0
 14 15  1  0
  6 16  2  0
 16 17  1  0
 17 18  2  0
 18 19  1  0
  2 20  1  0
 20 21  2  0
 21 22  1  0
 22 23  2  0
 23 24  1  0
 24 25  2  0
 24 26  2  0
 24 27  1  0
 27 28  1  0
 28 29  1  0
 29 30  1  0
 30 31  1  0
 31 32  1  0
 23 33  1  0
 33 34  2  0
 18  4  1  0
 34 20  1  0
 15 10  1  0
 32 27  1  0
  5 35  1  0
 11 36  1  0
 11 37  1  0
 12 38  1  0
 12 39  1  0
 14 40  1  0
 14 41  1  0
 15 42  1  0
 15 43  1  0
 16 44  1  0
 17 45  1  0
 19 46  1  0
 21 47  1  0
 22 48  1  0
 28 49  1  0
 28 50  1  0
 29 51  1  0
 29 52  1  0
 31 53  1  0
 31 54  1  0
 32 55  1  0
 32 56  1  0
 33 57  1  0
 34 58  1  0
M  CHG  1   3  -1
M  END
>  <UniqueID>  (29) 
27

>  <SMILES>  (29) 
O=C([N-]c1cc(S(=O)(=O)N2CCOCC2)ccc1O)c1ccc(S(=O)(=O)N2CCOCC2)cc1

>  <Energy>  (29) 
83.133146720746

>  <Genealogy>  (29) 
O=C([N-]c1cc(S(=O)(=O)N2CCOCC2)ccc1O)c1ccc(S(=O)(=O)N2CCOCC2)cc1 (protonated)
O=C([N-]c1cc(S(=O)(=O)N2CCOCC2)ccc1O)c1ccc(S(=O)(=O)N2CCOCC2)cc1 (3D coordinates assigned)
O=C([N-]c1cc(S(=O)(=O)N2CCOCC2)ccc1O)c1ccc(S(=O)(=O)N2CCOCC2)cc1 (nonaromatic ring conformer: 83.133146720746 kcal/mol)

>  <smiles>  (29) 
O=C(Nc1cc(S(=O)(=O)N2CCOCC2)ccc1O)c1ccc(S(=O)(=O)N2CCOCC2)cc1

>  <score_type>  (29) 
oracle

>  <origin>  (29) 
adgpu

>  <m_score__min__energy>  (29) 
-13.01

>  <m_primary>  (29) 
energy

$$$$
29:0
     RDKit          3D

 42 45  0  0  0  0  0  0  0  0999 V2000
   -2.7980   25.2970  -29.7020 O   0  0  0  0  0  0  0  0  0  0  0  0
   -3.7790   24.4860  -30.2570 C   0  0  0  0  0  0  0  0  0  0  0  0
   -5.1280   24.8340  -30.1280 C   0  0  0  0  0  0  0  0  0  0  0  0
   -6.1160   24.0180  -30.6860 C   0  0  0  0  0  0  0  0  0  0  0  0
   -5.7600   22.8530  -31.3730 C   0  0  0  0  0  0  0  0  0  0  0  0
   -4.4070   22.4960  -31.5080 C   0  0  0  0  0  0  0  0  0  0  0  0
   -4.0210   21.2660  -32.2290 C   0  0  0  0  0  0  0  0  0  0  0  0
   -2.7650   20.7440  -32.2090 N   0  0  0  0  0  0  0  0  0  0  0  0
   -2.8970   19.6610  -32.9930 C   0  0  0  0  0  0  0  0  0  0  0  0
   -1.9200   18.7340  -33.3400 C   0  0  0  0  0  0  0  0  0  0  0  0
   -2.2940   17.6690  -34.1810 C   0  0  0  0  0  0  0  0  0  0  0  0
   -1.3420   16.7190  -34.5440 O   0  0  0  0  0  0  0  0  0  0  0  0
   -3.6270   17.5660  -34.6520 C   0  0  0  0  0  0  0  0  0  0  0  0
   -4.5950   18.5340  -34.2950 C   0  0  0  0  0  0  0  0  0  0  0  0
   -6.0160   18.4590  -34.8030 C   0  0  0  0  0  0  0  0  0  0  0  0
   -6.9460   17.7770  -33.8740 N   0  0  0  0  0  0  0  0  0  0  0  0
   -6.4350   16.5330  -33.2600 C   0  0  0  0  0  0  0  0  0  0  0  0
   -5.6980   16.7660  -31.9210 C   0  0  0  0  0  0  0  0  0  0  0  0
   -5.8380   18.1440  -31.4360 N   0  0  0  0  0  0  0  0  0  0  0  0
   -7.2380   18.5600  -31.4970 C   0  0  0  0  0  0  0  0  0  0  0  0
   -7.7020   18.6620  -32.9590 C   0  0  0  0  0  0  0  0  0  0  0  0
   -4.1780   19.5620  -33.4470 C   0  0  0  0  0  0  0  0  0  0  0  0
   -4.8670   20.5610  -32.9640 O   0  0  0  0  0  0  0  0  0  0  0  0
   -3.4190   23.3220  -30.9430 C   0  0  0  0  0  0  0  0  0  0  0  0
   -5.4109   25.7494  -29.5876 H   0  0  0  0  0  0  0  0  0  0  0  0
   -7.1763   24.2928  -30.5846 H   0  0  0  0  0  0  0  0  0  0  0  0
   -6.5416   22.2137  -31.8093 H   0  0  0  0  0  0  0  0  0  0  0  0
   -0.8888   18.8299  -32.9694 H   0  0  0  0  0  0  0  0  0  0  0  0
   -1.1880   16.4690  -35.5130 H   0  0  0  0  0  0  0  0  0  0  0  0
   -3.9116   16.7251  -35.3015 H   0  0  0  0  0  0  0  0  0  0  0  0
   -6.3800   19.4838  -34.9684 H   0  0  0  0  0  0  0  0  0  0  0  0
   -5.9950   17.8659  -35.7292 H   0  0  0  0  0  0  0  0  0  0  0  0
   -7.2854   15.8597  -33.0772 H   0  0  0  0  0  0  0  0  0  0  0  0
   -5.7055   16.1012  -33.9610 H   0  0  0  0  0  0  0  0  0  0  0  0
   -6.1131   16.0822  -31.1660 H   0  0  0  0  0  0  0  0  0  0  0  0
   -4.6276   16.5781  -32.0910 H   0  0  0  0  0  0  0  0  0  0  0  0
   -5.5340   18.1670  -30.4350 H   0  0  0  0  0  0  0  0  0  0  0  0
   -7.8593   17.8209  -30.9700 H   0  0  0  0  0  0  0  0  0  0  0  0
   -7.3389   19.5462  -31.0203 H   0  0  0  0  0  0  0  0  0  0  0  0
   -8.7663   18.3883  -33.0079 H   0  0  0  0  0  0  0  0  0  0  0  0
   -7.5262   19.6974  -33.2863 H   0  0  0  0  0  0  0  0  0  0  0  0
   -2.3574   23.0510  -31.0412 H   0  0  0  0  0  0  0  0  0  0  0  0
  1  2  1  0
  2  3  2  0
  3  4  1  0
  4  5  2  0
  5  6  1  0
  6  7  1  0
  7  8  2  0
  8  9  1  0
  9 10  2  0
 10 11  1  0
 11 12  1  0
 11 13  2  0
 13 14  1  0
 14 15  1  0
 15 16  1  0
 16 17  1  0
 17 18  1  0
 18 19  1  0
 19 20  1  0
 20 21  1  0
 14 22  2  0
 22 23  1  0
  6 24  2  0
 24  2  1  0
 23  7  1  0
 22  9  1  0
 21 16  1  0
  3 25  1  0
  4 26  1  0
  5 27  1  0
 10 28  1  0
 12 29  1  0
 13 30  1  0
 15 31  1  0
 15 32  1  0
 17 33  1  0
 17 34  1  0
 18 35  1  0
 18 36  1  0
 19 37  1  0
 20 38  1  0
 20 39  1  0
 21 40  1  0
 21 41  1  0
 24 42  1  0
M  CHG  1   1  -1
M  END
>  <UniqueID>  (30) 
28

>  <SMILES>  (30) 
[O-]c1cccc(-c2nc3cc(O)cc(CN4CCNCC4)c3o2)c1

>  <Energy>  (30) 
93.88704894792285

>  <Genealogy>  (30) 
[O-]c1cccc(-c2nc3cc(O)cc(CN4CCNCC4)c3o2)c1 (protonated)
[O-]c1cccc(-c2nc3cc(O)cc(CN4CCNCC4)c3o2)c1 (3D coordinates assigned)
[O-]c1cccc(-c2nc3cc(O)cc(CN4CCNCC4)c3o2)c1 (nonaromatic ring conformer: 93.88704894792285 kcal/mol)

>  <smiles>  (30) 
Oc1cccc(-c2nc3cc(O)cc(CN4CCNCC4)c3o2)c1

>  <score_type>  (30) 
oracle

>  <origin>  (30) 
adgpu

>  <m_score__min__energy>  (30) 
-10.41

>  <m_primary>  (30) 
energy

$$$$
30:0
     RDKit          3D

 73 77  0  0  0  0  0  0  0  0999 V2000
   -5.7660   25.9340  -29.7320 O   0  0  0  0  0  0  0  0  0  0  0  0
   -4.9750   25.0720  -30.1950 C   0  0  0  0  0  0  0  0  0  0  0  0
   -3.5650   25.2970  -30.0600 N   0  0  0  0  0  0  0  0  0  0  0  0
   -2.7440   24.8460  -28.9720 C   0  0  0  0  0  0  0  0  0  0  0  0
   -1.3690   24.6910  -29.1780 C   0  0  0  0  0  0  0  0  0  0  0  0
   -0.5350   24.3220  -28.1200 C   0  0  0  0  0  0  0  0  0  0  0  0
   -1.0700   24.0990  -26.8430 C   0  0  0  0  0  0  0  0  0  0  0  0
   -0.0020   23.7210  -25.4860 S   0  0  0  0  0  0  0  0  0  0  0  0
    1.3470   23.3660  -26.0470 O   0  0  0  0  0  0  0  0  0  0  0  0
   -0.5370   22.5020  -24.7860 O   0  0  0  0  0  0  0  0  0  0  0  0
    0.1960   25.0510  -24.3470 N   0  0  0  0  0  0  0  0  0  0  0  0
   -0.9570   25.9750  -24.3450 C   0  0  0  0  0  0  0  0  0  0  0  0
   -0.9430   26.9360  -25.5550 C   0  0  0  0  0  0  0  0  0  0  0  0
    0.1750   26.7340  -26.3950 O   0  0  0  0  0  0  0  0  0  0  0  0
    1.3680   26.8560  -25.6490 C   0  0  0  0  0  0  0  0  0  0  0  0
    1.4610   25.7910  -24.5330 C   0  0  0  0  0  0  0  0  0  0  0  0
   -2.4570   24.1770  -26.6550 C   0  0  0  0  0  0  0  0  0  0  0  0
   -3.2900   24.5490  -27.7130 C   0  0  0  0  0  0  0  0  0  0  0  0
   -5.5240   23.8450  -30.8280 C   0  0  0  0  0  0  0  0  0  0  0  0
   -6.8810   23.5060  -30.6930 C   0  0  0  0  0  0  0  0  0  0  0  0
   -7.3680   22.3160  -31.2360 C   0  0  0  0  0  0  0  0  0  0  0  0
   -6.5190   21.4760  -31.9570 C   0  0  0  0  0  0  0  0  0  0  0  0
   -5.1840   21.8380  -32.1770 C   0  0  0  0  0  0  0  0  0  0  0  0
   -4.1140   20.7810  -33.1100 S   0  0  0  0  0  0  0  0  0  0  0  0
   -3.1180   21.6450  -33.8330 O   0  0  0  0  0  0  0  0  0  0  0  0
   -4.9220   20.0530  -34.1480 O   0  0  0  0  0  0  0  0  0  0  0  0
   -3.2550   19.5960  -32.1390 N   0  0  0  0  0  0  0  0  0  0  0  0
   -1.9510   20.0650  -31.6270 C   0  0  0  0  0  0  0  0  0  0  0  0
   -1.9300   20.3880  -30.1460 C   0  0  0  0  0  0  0  0  0  0  0  0
   -3.0860   20.8930  -29.5230 C   0  0  0  0  0  0  0  0  0  0  0  0
   -3.0930   21.1550  -28.1490 C   0  0  0  0  0  0  0  0  0  0  0  0
   -1.9500   20.9190  -27.3840 C   0  0  0  0  0  0  0  0  0  0  0  0
   -0.8060   20.3900  -27.9850 C   0  0  0  0  0  0  0  0  0  0  0  0
   -0.8010   20.1060  -29.3550 C   0  0  0  0  0  0  0  0  0  0  0  0
   -3.2280   18.2470  -32.7330 C   0  0  0  0  0  0  0  0  0  0  0  0
   -4.6240   17.7020  -32.8900 C   0  0  0  0  0  0  0  0  0  0  0  0
   -4.9500   16.9020  -33.9990 C   0  0  0  0  0  0  0  0  0  0  0  0
   -6.2520   16.4200  -34.1620 C   0  0  0  0  0  0  0  0  0  0  0  0
   -7.2410   16.7440  -33.2300 C   0  0  0  0  0  0  0  0  0  0  0  0
   -6.9300   17.5530  -32.1330 C   0  0  0  0  0  0  0  0  0  0  0  0
   -5.6280   18.0370  -31.9660 C   0  0  0  0  0  0  0  0  0  0  0  0
   -4.6840   23.0080  -31.5820 C   0  0  0  0  0  0  0  0  0  0  0  0
   -0.9427   24.8605  -30.1778 H   0  0  0  0  0  0  0  0  0  0  0  0
    0.5457   24.2059  -28.2891 H   0  0  0  0  0  0  0  0  0  0  0  0
    0.2320   24.6110  -23.3970 H   0  0  0  0  0  0  0  0  0  0  0  0
   -1.8839   25.3835  -24.3742 H   0  0  0  0  0  0  0  0  0  0  0  0
   -0.8970   26.5847  -23.4314 H   0  0  0  0  0  0  0  0  0  0  0  0
   -1.8590   26.7762  -26.1427 H   0  0  0  0  0  0  0  0  0  0  0  0
   -0.8860   27.9629  -25.1649 H   0  0  0  0  0  0  0  0  0  0  0  0
    2.2255   26.7361  -26.3274 H   0  0  0  0  0  0  0  0  0  0  0  0
    1.3736   27.8484  -25.1746 H   0  0  0  0  0  0  0  0  0  0  0  0
    2.2532   25.0742  -24.7952 H   0  0  0  0  0  0  0  0  0  0  0  0
    1.6826   26.3140  -23.5910 H   0  0  0  0  0  0  0  0  0  0  0  0
   -2.8908   23.9445  -25.6713 H   0  0  0  0  0  0  0  0  0  0  0  0
   -4.3775   24.6094  -27.5592 H   0  0  0  0  0  0  0  0  0  0  0  0
   -7.5631   24.1820  -30.1566 H   0  0  0  0  0  0  0  0  0  0  0  0
   -8.4234   22.0399  -31.0951 H   0  0  0  0  0  0  0  0  0  0  0  0
   -6.9002   20.5240  -32.3550 H   0  0  0  0  0  0  0  0  0  0  0  0
   -1.2057   19.2785  -31.8166 H   0  0  0  0  0  0  0  0  0  0  0  0
   -1.7314   21.0058  -32.1529 H   0  0  0  0  0  0  0  0  0  0  0  0
   -3.9900   21.0830  -30.1202 H   0  0  0  0  0  0  0  0  0  0  0  0
   -4.0020   21.5481  -27.6702 H   0  0  0  0  0  0  0  0  0  0  0  0
   -1.9502   21.1495  -26.3084 H   0  0  0  0  0  0  0  0  0  0  0  0
    0.0924   20.1963  -27.3806 H   0  0  0  0  0  0  0  0  0  0  0  0
    0.0917   19.6592  -29.8169 H   0  0  0  0  0  0  0  0  0  0  0  0
   -2.7477   18.2980  -33.7213 H   0  0  0  0  0  0  0  0  0  0  0  0
   -2.6626   17.5798  -32.0658 H   0  0  0  0  0  0  0  0  0  0  0  0
   -4.1773   16.6542  -34.7417 H   0  0  0  0  0  0  0  0  0  0  0  0
   -6.4982   15.7846  -35.0255 H   0  0  0  0  0  0  0  0  0  0  0  0
   -8.2646   16.3625  -33.3593 H   0  0  0  0  0  0  0  0  0  0  0  0
   -7.7097   17.8092  -31.4006 H   0  0  0  0  0  0  0  0  0  0  0  0
   -5.3894   18.6824  -31.1078 H   0  0  0  0  0  0  0  0  0  0  0  0
   -3.6235   23.2719  -31.7076 H   0  0  0  0  0  0  0  0  0  0  0  0
  1  2  2  0
  2  3  1  0
  3  4  1  0
  4  5  2  0
  5  6  1  0
  6  7  2  0
  7  8  1  0
  8  9  2  0
  8 10  2  0
  8 11  1  0
 11 12  1  0
 12 13  1  0
 13 14  1  0
 14 15  1  0
 15 16  1  0
  7 17  1  0
 17 18  2  0
  2 19  1  0
 19 20  2  0
 20 21  1  0
 21 22  2  0
 22 23  1  0
 23 24  1  0
 24 25  2  0
 24 26  2  0
 24 27  1  0
 27 28  1  0
 28 29  1  0
 29 30  2  0
 30 31  1  0
 31 32  2  0
 32 33  1  0
 33 34  2  0
 27 35  1  0
 35 36  1  0
 36 37  2  0
 37 38  1  0
 38 39  2  0
 39 40  1  0
 40 41  2  0
 23 42  2  0
 18  4  1  0
 42 19  1  0
 16 11  1  0
 34 29  1  0
 41 36  1  0
  5 43  1  0
  6 44  1  0
 11 45  1  0
 12 46  1  0
 12 47  1  0
 13 48  1  0
 13 49  1  0
 15 50  1  0
 15 51  1  0
 16 52  1  0
 16 53  1  0
 17 54  1  0
 18 55  1  0
 20 56  1  0
 21 57  1  0
 22 58  1  0
 28 59  1  0
 28 60  1  0
 30 61  1  0
 31 62  1  0
 32 63  1  0
 33 64  1  0
 34 65  1  0
 35 66  1  0
 35 67  1  0
 37 68  1  0
 38 69  1  0
 39 70  1  0
 40 71  1  0
 41 72  1  0
 42 73  1  0
M  CHG  2   3  -1  11   1
M  END
>  <UniqueID>  (31) 
29

>  <SMILES>  (31) 
O=C([N-]c1ccc(S(=O)(=O)[NH+]2CCOCC2)cc1)c1cccc(S(=O)(=O)N(Cc2ccccc2)Cc2ccccc2)c1

>  <Energy>  (31) 
99.6076040048181

>  <Genealogy>  (31) 
O=C([N-]c1ccc(S(=O)(=O)[NH+]2CCOCC2)cc1)c1cccc(S(=O)(=O)N(Cc2ccccc2)Cc2ccccc2)c1 (protonated)
O=C([N-]c1ccc(S(=O)(=O)[NH+]2CCOCC2)cc1)c1cccc(S(=O)(=O)N(Cc2ccccc2)Cc2ccccc2)c1 (3D coordinates assigned)
O=C([N-]c1ccc(S(=O)(=O)[NH+]2CCOCC2)cc1)c1cccc(S(=O)(=O)N(Cc2ccccc2)Cc2ccccc2)c1 (nonaromatic ring conformer: 99.6076040048181 kcal/mol)

>  <smiles>  (31) 
O=C(Nc1ccc(S(=O)(=O)N2CCOCC2)cc1)c1cccc(S(=O)(=O)N(Cc2ccccc2)Cc2ccccc2)c1

>  <score_type>  (31) 
oracle

>  <origin>  (31) 
adgpu

>  <m_score__min__energy>  (31) 
-13.56

>  <m_primary>  (31) 
energy

$$$$
31:0
     RDKit          3D

 54 57  0  0  0  0  0  0  0  0999 V2000
   -3.8960   21.9450  -33.3190 C   0  0  0  0  0  0  0  0  0  0  0  0
   -2.9860   21.8950  -32.1200 C   0  0  0  0  0  0  0  0  0  0  0  0
   -1.7750   21.1890  -32.1940 C   0  0  0  0  0  0  0  0  0  0  0  0
   -0.9440   21.1350  -31.1210 N   0  0  0  0  0  0  0  0  0  0  0  0
   -1.2450   21.7550  -29.9510 C   0  0  0  0  0  0  0  0  0  0  0  0
   -2.4300   22.4800  -29.8280 C   0  0  0  0  0  0  0  0  0  0  0  0
   -3.3060   22.5660  -30.9190 C   0  0  0  0  0  0  0  0  0  0  0  0
   -4.5490   23.3500  -30.7760 C   0  0  0  0  0  0  0  0  0  0  0  0
   -5.7590   22.7950  -31.2210 C   0  0  0  0  0  0  0  0  0  0  0  0
   -6.9620   23.5070  -31.1120 C   0  0  0  0  0  0  0  0  0  0  0  0
   -8.1830   22.8980  -31.5780 N   0  0  0  0  0  0  0  0  0  0  0  0
   -8.6730   21.5910  -31.1420 C   0  0  0  0  0  0  0  0  0  0  0  0
   -7.9090   20.4830  -31.8180 C   0  0  0  0  0  0  0  0  0  0  0  0
   -7.9350   19.1840  -31.2870 C   0  0  0  0  0  0  0  0  0  0  0  0
   -7.2320   18.1500  -31.9120 C   0  0  0  0  0  0  0  0  0  0  0  0
   -6.4800   18.3970  -33.0740 C   0  0  0  0  0  0  0  0  0  0  0  0
   -5.7580   17.3260  -33.7220 N   0  0  0  0  0  0  0  0  0  0  0  0
   -5.7280   15.9830  -33.1280 C   0  0  0  0  0  0  0  0  0  0  0  0
   -5.4460   14.9310  -34.2050 C   0  0  0  0  0  0  0  0  0  0  0  0
   -4.1850   15.1910  -34.9220 N   0  0  0  0  0  0  0  0  0  0  0  0
   -3.8710   16.6190  -35.1360 C   0  0  0  0  0  0  0  0  0  0  0  0
   -5.0910   17.5420  -35.0130 C   0  0  0  0  0  0  0  0  0  0  0  0
   -6.4470   19.7030  -33.5950 C   0  0  0  0  0  0  0  0  0  0  0  0
   -7.1520   20.7360  -32.9710 C   0  0  0  0  0  0  0  0  0  0  0  0
   -6.9410   24.7990  -30.5570 C   0  0  0  0  0  0  0  0  0  0  0  0
   -5.7420   25.3540  -30.1050 C   0  0  0  0  0  0  0  0  0  0  0  0
   -4.5460   24.6380  -30.2020 C   0  0  0  0  0  0  0  0  0  0  0  0
   -3.3760   25.2240  -29.7130 O   0  0  0  0  0  0  0  0  0  0  0  0
   -4.9420   22.0025  -32.9833 H   0  0  0  0  0  0  0  0  0  0  0  0
   -3.6561   22.8313  -33.9247 H   0  0  0  0  0  0  0  0  0  0  0  0
   -3.7546   21.0377  -33.9247 H   0  0  0  0  0  0  0  0  0  0  0  0
   -1.4973   20.6763  -33.1268 H   0  0  0  0  0  0  0  0  0  0  0  0
   -0.5530   21.6853  -29.0988 H   0  0  0  0  0  0  0  0  0  0  0  0
   -2.6758   22.9815  -28.8803 H   0  0  0  0  0  0  0  0  0  0  0  0
   -5.7636   21.7871  -31.6615 H   0  0  0  0  0  0  0  0  0  0  0  0
   -8.7320   23.3890  -32.3200 H   0  0  0  0  0  0  0  0  0  0  0  0
   -8.5477   21.5035  -30.0527 H   0  0  0  0  0  0  0  0  0  0  0  0
   -9.7357   21.5037  -31.4124 H   0  0  0  0  0  0  0  0  0  0  0  0
   -8.5121   18.9784  -30.3734 H   0  0  0  0  0  0  0  0  0  0  0  0
   -7.2674   17.1343  -31.4911 H   0  0  0  0  0  0  0  0  0  0  0  0
   -4.9372   15.9416  -32.3645 H   0  0  0  0  0  0  0  0  0  0  0  0
   -6.7057   15.7727  -32.6700 H   0  0  0  0  0  0  0  0  0  0  0  0
   -5.3839   13.9424  -33.7266 H   0  0  0  0  0  0  0  0  0  0  0  0
   -6.2652   14.9709  -34.9381 H   0  0  0  0  0  0  0  0  0  0  0  0
   -4.2410   14.7160  -35.8530 H   0  0  0  0  0  0  0  0  0  0  0  0
   -3.1253   16.9269  -34.3882 H   0  0  0  0  0  0  0  0  0  0  0  0
   -3.4960   16.7158  -36.1656 H   0  0  0  0  0  0  0  0  0  0  0  0
   -4.7633   18.5897  -35.0826 H   0  0  0  0  0  0  0  0  0  0  0  0
   -5.7971   17.3165  -35.8258 H   0  0  0  0  0  0  0  0  0  0  0  0
   -5.8610   19.9133  -34.5018 H   0  0  0  0  0  0  0  0  0  0  0  0
   -7.1128   21.7536  -33.3869 H   0  0  0  0  0  0  0  0  0  0  0  0
   -7.8744   25.3757  -30.4785 H   0  0  0  0  0  0  0  0  0  0  0  0
   -5.7390   26.3638  -29.6687 H   0  0  0  0  0  0  0  0  0  0  0  0
   -3.1980   25.3480  -28.7240 H   0  0  0  0  0  0  0  0  0  0  0  0
  1  2  1  0
  2  3  2  0
  3  4  1  0
  4  5  2  0
  5  6  1  0
  6  7  2  0
  7  8  1  0
  8  9  2  0
  9 10  1  0
 10 11  1  0
 11 12  1  0
 12 13  1  0
 13 14  2  0
 14 15  1  0
 15 16  2  0
 16 17  1  0
 17 18  1  0
 18 19  1  0
 19 20  1  0
 20 21  1  0
 21 22  1  0
 16 23  1  0
 23 24  2  0
 10 25  2  0
 25 26  1  0
 26 27  2  0
 27 28  1  0
  7  2  1  0
 27  8  1  0
 24 13  1  0
 22 17  1  0
  1 29  1  0
  1 30  1  0
  1 31  1  0
  3 32  1  0
  5 33  1  0
  6 34  1  0
  9 35  1  0
 11 36  1  0
 12 37  1  0
 12 38  1  0
 14 39  1  0
 15 40  1  0
 18 41  1  0
 18 42  1  0
 19 43  1  0
 19 44  1  0
 20 45  1  0
 21 46  1  0
 21 47  1  0
 22 48  1  0
 22 49  1  0
 23 50  1  0
 24 51  1  0
 25 52  1  0
 26 53  1  0
 28 54  1  0
M  END
>  <UniqueID>  (32) 
30

>  <SMILES>  (32) 
Cc1cnccc1-c1cc(NCc2ccc(N3CCNCC3)cc2)ccc1O

>  <Energy>  (32) 
73.05909442319432

>  <Genealogy>  (32) 
Cc1cnccc1-c1cc(NCc2ccc(N3CCNCC3)cc2)ccc1O (3D coordinates assigned)
Cc1cnccc1-c1cc(NCc2ccc(N3CCNCC3)cc2)ccc1O (nonaromatic ring conformer: 73.05909442319432 kcal/mol)

>  <smiles>  (32) 
Cc1cnccc1-c1cc(NCc2ccc(N3CCNCC3)cc2)ccc1O

>  <score_type>  (32) 
oracle

>  <origin>  (32) 
adgpu

>  <m_score__min__energy>  (32) 
-10.49

>  <m_primary>  (32) 
energy

$$$$
32:0
     RDKit          3D

 49 51  0  0  0  0  0  0  0  0999 V2000
   -2.7600   20.8980  -27.8620 C   0  0  0  0  0  0  0  0  0  0  0  0
   -2.3770   22.3280  -28.1070 C   0  0  0  0  0  0  0  0  0  0  0  0
   -1.2410   22.8720  -27.4900 C   0  0  0  0  0  0  0  0  0  0  0  0
   -0.8770   24.1990  -27.7310 C   0  0  0  0  0  0  0  0  0  0  0  0
   -1.6300   24.9840  -28.6060 C   0  0  0  0  0  0  0  0  0  0  0  0
   -2.7420   24.4460  -29.2650 C   0  0  0  0  0  0  0  0  0  0  0  0
   -3.4950   25.2910  -30.1450 N   0  0  0  0  0  0  0  0  0  0  0  0
   -4.7070   24.9480  -30.8320 C   0  0  0  0  0  0  0  0  0  0  0  0
   -5.7360   25.6630  -30.7040 O   0  0  0  0  0  0  0  0  0  0  0  0
   -4.7970   23.7310  -31.5800 N   0  0  0  0  0  0  0  0  0  0  0  0
   -5.9710   22.9210  -31.7370 C   0  0  0  0  0  0  0  0  0  0  0  0
   -7.2420   23.5040  -31.8310 C   0  0  0  0  0  0  0  0  0  0  0  0
   -8.3770   22.7090  -31.9480 C   0  0  0  0  0  0  0  0  0  0  0  0
   -8.2770   21.3100  -31.9570 C   0  0  0  0  0  0  0  0  0  0  0  0
   -9.5430   20.5020  -32.0890 C   0  0  0  0  0  0  0  0  0  0  0  0
   -6.9990   20.7000  -31.8630 C   0  0  0  0  0  0  0  0  0  0  0  0
   -6.8450   18.9250  -31.8780 S   0  0  0  0  0  0  0  0  0  0  0  0
   -5.7130   18.5240  -30.9730 O   0  0  0  0  0  0  0  0  0  0  0  0
   -8.0960   18.2590  -31.3720 O   0  0  0  0  0  0  0  0  0  0  0  0
   -6.5200   18.3860  -33.5090 N   0  0  0  0  0  0  0  0  0  0  0  0
   -6.8300   16.9490  -33.6700 C   0  0  0  0  0  0  0  0  0  0  0  0
   -5.5590   16.0850  -33.7450 C   0  0  0  0  0  0  0  0  0  0  0  0
   -4.6920   16.4590  -34.8060 O   0  0  0  0  0  0  0  0  0  0  0  0
   -4.6670   17.8570  -35.0630 C   0  0  0  0  0  0  0  0  0  0  0  0
   -5.1350   18.7240  -33.8810 C   0  0  0  0  0  0  0  0  0  0  0  0
   -5.8520   21.5170  -31.7260 C   0  0  0  0  0  0  0  0  0  0  0  0
   -4.5940   20.9280  -31.5820 O   0  0  0  0  0  0  0  0  0  0  0  0
   -3.1210   23.1160  -29.0010 C   0  0  0  0  0  0  0  0  0  0  0  0
   -2.8098   20.7121  -26.7790 H   0  0  0  0  0  0  0  0  0  0  0  0
   -3.7431   20.6991  -28.3137 H   0  0  0  0  0  0  0  0  0  0  0  0
   -2.0079   20.2344  -28.3137 H   0  0  0  0  0  0  0  0  0  0  0  0
   -0.6345   22.2515  -26.8139 H   0  0  0  0  0  0  0  0  0  0  0  0
    0.0045   24.6261  -27.2304 H   0  0  0  0  0  0  0  0  0  0  0  0
   -1.3476   26.0330  -28.7790 H   0  0  0  0  0  0  0  0  0  0  0  0
   -7.3426   24.5992  -31.8121 H   0  0  0  0  0  0  0  0  0  0  0  0
   -9.3657   23.1833  -32.0346 H   0  0  0  0  0  0  0  0  0  0  0  0
   -9.9274   20.2566  -31.0880 H   0  0  0  0  0  0  0  0  0  0  0  0
  -10.2958   21.0870  -32.6377 H   0  0  0  0  0  0  0  0  0  0  0  0
   -9.3294   19.5728  -32.6377 H   0  0  0  0  0  0  0  0  0  0  0  0
   -7.4330   16.6183  -32.8115 H   0  0  0  0  0  0  0  0  0  0  0  0
   -7.3784   16.8257  -34.6156 H   0  0  0  0  0  0  0  0  0  0  0  0
   -5.0126   16.1832  -32.7954 H   0  0  0  0  0  0  0  0  0  0  0  0
   -5.8777   15.0489  -33.9320 H   0  0  0  0  0  0  0  0  0  0  0  0
   -3.6349   18.1433  -35.3135 H   0  0  0  0  0  0  0  0  0  0  0  0
   -5.3719   18.0395  -35.8875 H   0  0  0  0  0  0  0  0  0  0  0  0
   -4.4752   18.5470  -33.0188 H   0  0  0  0  0  0  0  0  0  0  0  0
   -5.0950   19.7822  -34.1785 H   0  0  0  0  0  0  0  0  0  0  0  0
   -4.4440   20.0670  -31.0680 H   0  0  0  0  0  0  0  0  0  0  0  0
   -4.0055   22.6910  -29.4980 H   0  0  0  0  0  0  0  0  0  0  0  0
  1  2  1  0
  2  3  2  0
  3  4  1  0
  4  5  2  0
  5  6  1  0
  6  7  1  0
  7  8  1  0
  8  9  2  0
  8 10  1  0
 10 11  1  0
 11 12  2  0
 12 13  1  0
 13 14  2  0
 14 15  1  0
 14 16  1  0
 16 17  1  0
 17 18  2  0
 17 19  2  0
 17 20  1  0
 20 21  1  0
 21 22  1  0
 22 23  1  0
 23 24  1  0
 24 25  1  0
 16 26  2  0
 26 27  1  0
  6 28  2  0
 28  2  1  0
 26 11  1  0
 25 20  1  0
  1 29  1  0
  1 30  1  0
  1 31  1  0
  3 32  1  0
  4 33  1  0
  5 34  1  0
 12 35  1  0
 13 36  1  0
 15 37  1  0
 15 38  1  0
 15 39  1  0
 21 40  1  0
 21 41  1  0
 22 42  1  0
 22 43  1  0
 24 44  1  0
 24 45  1  0
 25 46  1  0
 25 47  1  0
 27 48  1  0
 28 49  1  0
M  CHG  2   7  -1  10  -1
M  END
>  <UniqueID>  (33) 
31

>  <SMILES>  (33) 
Cc1cccc([N-]C(=O)[N-]c2ccc(C)c(S(=O)(=O)N3CCOCC3)c2O)c1

>  <Energy>  (33) 
72.17463410753716

>  <Genealogy>  (33) 
Cc1cccc([N-]C(=O)[N-]c2ccc(C)c(S(=O)(=O)N3CCOCC3)c2O)c1 (protonated)
Cc1cccc([N-]C(=O)[N-]c2ccc(C)c(S(=O)(=O)N3CCOCC3)c2O)c1 (3D coordinates assigned)
Cc1cccc([N-]C(=O)[N-]c2ccc(C)c(S(=O)(=O)N3CCOCC3)c2O)c1 (nonaromatic ring conformer: 72.17463410753716 kcal/mol)

>  <smiles>  (33) 
Cc1cccc(NC(=O)Nc2ccc(C)c(S(=O)(=O)N3CCOCC3)c2O)c1

>  <score_type>  (33) 
oracle

>  <origin>  (33) 
adgpu

>  <m_score__min__energy>  (33) 
-12.73

>  <m_primary>  (33) 
energy

$$$$
33:0
     RDKit          3D

 60 63  0  0  0  0  0  0  0  0999 V2000
   -4.2500   14.6390  -35.1620 C   0  0  0  0  0  0  0  0  0  0  0  0
   -5.2130   15.5960  -34.0060 S   0  0  0  0  0  0  0  0  0  0  0  0
   -6.5470   15.8830  -34.6380 O   0  0  0  0  0  0  0  0  0  0  0  0
   -5.4090   14.7670  -32.7670 O   0  0  0  0  0  0  0  0  0  0  0  0
   -4.4330   17.1280  -33.5660 C   0  0  0  0  0  0  0  0  0  0  0  0
   -3.0810   17.1310  -33.1820 C   0  0  0  0  0  0  0  0  0  0  0  0
   -2.4440   18.3190  -32.8200 C   0  0  0  0  0  0  0  0  0  0  0  0
   -3.1450   19.5320  -32.8270 C   0  0  0  0  0  0  0  0  0  0  0  0
   -2.4700   20.7960  -32.4590 C   0  0  0  0  0  0  0  0  0  0  0  0
   -2.3730   21.7110  -33.3210 O   0  0  0  0  0  0  0  0  0  0  0  0
   -1.9400   21.0080  -31.1350 N   0  0  0  0  0  0  0  0  0  0  0  0
   -2.7350   20.6030  -29.9620 C   0  0  0  0  0  0  0  0  0  0  0  0
   -2.1900   21.2150  -28.6630 C   0  0  0  0  0  0  0  0  0  0  0  0
   -1.8340   22.6210  -28.8790 N   0  0  0  0  0  0  0  0  0  0  0  0
   -2.1540   23.6010  -27.8820 C   0  0  0  0  0  0  0  0  0  0  0  0
   -1.1280   24.1470  -27.0980 C   0  0  0  0  0  0  0  0  0  0  0  0
   -1.4220   25.0860  -26.1100 C   0  0  0  0  0  0  0  0  0  0  0  0
   -2.7450   25.4730  -25.8860 C   0  0  0  0  0  0  0  0  0  0  0  0
   -3.7760   24.9310  -26.6600 C   0  0  0  0  0  0  0  0  0  0  0  0
   -3.4870   24.0100  -27.6840 C   0  0  0  0  0  0  0  0  0  0  0  0
   -4.5260   23.4190  -28.4800 N   0  0  0  0  0  0  0  0  0  0  0  0
   -4.7460   23.6010  -29.8880 C   0  0  0  0  0  0  0  0  0  0  0  0
   -3.9670   24.3540  -30.5290 O   0  0  0  0  0  0  0  0  0  0  0  0
   -5.8610   22.9450  -30.6050 C   0  0  0  0  0  0  0  0  0  0  0  0
   -7.0450   22.6690  -29.9010 C   0  0  0  0  0  0  0  0  0  0  0  0
   -8.1470   22.1120  -30.5550 C   0  0  0  0  0  0  0  0  0  0  0  0
   -8.0760   21.8190  -31.9170 C   0  0  0  0  0  0  0  0  0  0  0  0
   -6.8980   22.0640  -32.6250 C   0  0  0  0  0  0  0  0  0  0  0  0
   -5.7790   22.6040  -31.9780 C   0  0  0  0  0  0  0  0  0  0  0  0
   -4.6030   22.7600  -32.7140 O   0  0  0  0  0  0  0  0  0  0  0  0
   -1.0780   23.0380  -30.0650 C   0  0  0  0  0  0  0  0  0  0  0  0
   -0.7410   21.8360  -30.9500 C   0  0  0  0  0  0  0  0  0  0  0  0
   -4.4870   19.5410  -33.2310 C   0  0  0  0  0  0  0  0  0  0  0  0
   -5.1420   18.3550  -33.5960 C   0  0  0  0  0  0  0  0  0  0  0  0
   -6.5200   18.4260  -33.9900 N   0  0  0  0  0  0  0  0  0  0  0  0
   -3.5751   13.9683  -34.6101 H   0  0  0  0  0  0  0  0  0  0  0  0
   -4.9235   14.0421  -35.7945 H   0  0  0  0  0  0  0  0  0  0  0  0
   -3.6573   15.3162  -35.7945 H   0  0  0  0  0  0  0  0  0  0  0  0
   -2.5183   16.1860  -33.1666 H   0  0  0  0  0  0  0  0  0  0  0  0
   -1.3838   18.3028  -32.5271 H   0  0  0  0  0  0  0  0  0  0  0  0
   -3.7737   20.9362  -30.1039 H   0  0  0  0  0  0  0  0  0  0  0  0
   -2.6789   19.5080  -29.8732 H   0  0  0  0  0  0  0  0  0  0  0  0
   -2.9596   21.1508  -27.8797 H   0  0  0  0  0  0  0  0  0  0  0  0
   -1.2925   20.6600  -28.3524 H   0  0  0  0  0  0  0  0  0  0  0  0
   -0.0867   23.8333  -27.2630 H   0  0  0  0  0  0  0  0  0  0  0  0
   -0.6118   25.5219  -25.5070 H   0  0  0  0  0  0  0  0  0  0  0  0
   -2.9767   26.2058  -25.0990 H   0  0  0  0  0  0  0  0  0  0  0  0
   -4.8180   25.2261  -26.4674 H   0  0  0  0  0  0  0  0  0  0  0  0
   -7.1050   22.8933  -28.8258 H   0  0  0  0  0  0  0  0  0  0  0  0
   -9.0711   21.9044  -29.9955 H   0  0  0  0  0  0  0  0  0  0  0  0
   -8.9493   21.3944  -32.4338 H   0  0  0  0  0  0  0  0  0  0  0  0
   -6.8481   21.8313  -33.6989 H   0  0  0  0  0  0  0  0  0  0  0  0
   -3.7290   23.0460  -32.2930 H   0  0  0  0  0  0  0  0  0  0  0  0
   -1.6815   23.7529  -30.6435 H   0  0  0  0  0  0  0  0  0  0  0  0
   -0.1384   23.5056  -29.7356 H   0  0  0  0  0  0  0  0  0  0  0  0
   -0.3864   22.1904  -31.9291 H   0  0  0  0  0  0  0  0  0  0  0  0
    0.0455   21.2369  -30.4679 H   0  0  0  0  0  0  0  0  0  0  0  0
   -5.0360   20.4937  -33.2625 H   0  0  0  0  0  0  0  0  0  0  0  0
   -6.8600   19.2160  -34.5830 H   0  0  0  0  0  0  0  0  0  0  0  0
   -7.2260   17.7120  -33.7050 H   0  0  0  0  0  0  0  0  0  0  0  0
  1  2  1  0
  2  3  2  0
  2  4  2  0
  2  5  1  0
  5  6  2  0
  6  7  1  0
  7  8  2  0
  8  9  1  0
  9 10  2  0
  9 11  1  0
 11 12  1  0
 12 13  1  0
 13 14  1  0
 14 15  1  0
 15 16  2  0
 16 17  1  0
 17 18  2  0
 18 19  1  0
 19 20  2  0
 20 21  1  0
 21 22  1  0
 22 23  2  0
 22 24  1  0
 24 25  2  0
 25 26  1  0
 26 27  2  0
 27 28  1  0
 28 29  2  0
 29 30  1  0
 14 31  1  0
 31 32  1  0
  8 33  1  0
 33 34  2  0
 34 35  1  0
 34  5  1  0
 32 11  1  0
 20 15  1  0
 29 24  1  0
  1 36  1  0
  1 37  1  0
  1 38  1  0
  6 39  1  0
  7 40  1  0
 12 41  1  0
 12 42  1  0
 13 43  1  0
 13 44  1  0
 16 45  1  0
 17 46  1  0
 18 47  1  0
 19 48  1  0
 25 49  1  0
 26 50  1  0
 27 51  1  0
 28 52  1  0
 30 53  1  0
 31 54  1  0
 31 55  1  0
 32 56  1  0
 32 57  1  0
 33 58  1  0
 35 59  1  0
 35 60  1  0
M  CHG  1  21  -1
M  END
>  <UniqueID>  (34) 
32

>  <SMILES>  (34) 
CS(=O)(=O)c1ccc(C(=O)N2CCN(c3ccccc3[N-]C(=O)c3ccccc3O)CC2)cc1N

>  <Energy>  (34) 
83.9444169331725

>  <Genealogy>  (34) 
CS(=O)(=O)c1ccc(C(=O)N2CCN(c3ccccc3[N-]C(=O)c3ccccc3O)CC2)cc1N (protonated)
CS(=O)(=O)c1ccc(C(=O)N2CCN(c3ccccc3[N-]C(=O)c3ccccc3O)CC2)cc1N (3D coordinates assigned)
CS(=O)(=O)c1ccc(C(=O)N2CCN(c3ccccc3[N-]C(=O)c3ccccc3O)CC2)cc1N (nonaromatic ring conformer: 83.9444169331725 kcal/mol)

>  <smiles>  (34) 
CS(=O)(=O)c1ccc(C(=O)N2CCN(c3ccccc3NC(=O)c3ccccc3O)CC2)cc1N

>  <score_type>  (34) 
oracle

>  <origin>  (34) 
adgpu

>  <m_score__min__energy>  (34) 
-10.57

>  <m_primary>  (34) 
energy

$$$$
34:0
     RDKit          3D

 61 64  0  0  0  0  0  0  0  0999 V2000
   -3.4890   18.5550  -25.9770 C   0  0  0  0  0  0  0  0  0  0  0  0
   -2.6680   19.5490  -26.7450 C   0  0  0  0  0  0  0  0  0  0  0  0
   -3.3000   20.6150  -27.4010 C   0  0  0  0  0  0  0  0  0  0  0  0
   -2.5470   21.5410  -28.1310 C   0  0  0  0  0  0  0  0  0  0  0  0
   -1.1550   21.4170  -28.1960 C   0  0  0  0  0  0  0  0  0  0  0  0
   -0.1820   22.5540  -29.1840 S   0  0  0  0  0  0  0  0  0  0  0  0
   -0.5010   23.9590  -28.1080 C   0  0  0  0  0  0  0  0  0  0  0  0
    0.1760   24.0370  -26.8840 C   0  0  0  0  0  0  0  0  0  0  0  0
   -0.0900   25.0810  -25.9950 C   0  0  0  0  0  0  0  0  0  0  0  0
   -1.0320   26.0560  -26.3270 C   0  0  0  0  0  0  0  0  0  0  0  0
   -1.7160   25.9850  -27.5410 C   0  0  0  0  0  0  0  0  0  0  0  0
   -1.4660   24.9300  -28.4410 C   0  0  0  0  0  0  0  0  0  0  0  0
   -2.1360   24.8740  -29.7120 N   0  0  0  0  0  0  0  0  0  0  0  0
   -3.5540   24.7640  -29.8780 C   0  0  0  0  0  0  0  0  0  0  0  0
   -4.1950   25.6810  -30.4580 O   0  0  0  0  0  0  0  0  0  0  0  0
   -4.2590   23.6200  -29.3950 N   0  0  0  0  0  0  0  0  0  0  0  0
   -5.3410   23.0190  -30.1080 C   0  0  0  0  0  0  0  0  0  0  0  0
   -6.5770   23.6640  -30.1400 C   0  0  0  0  0  0  0  0  0  0  0  0
   -7.6430   23.1040  -30.8400 C   0  0  0  0  0  0  0  0  0  0  0  0
   -7.4900   21.8880  -31.5130 C   0  0  0  0  0  0  0  0  0  0  0  0
   -8.9110   21.2440  -32.3330 Cl  0  0  0  0  0  0  0  0  0  0  0  0
   -6.2430   21.2170  -31.4880 C   0  0  0  0  0  0  0  0  0  0  0  0
   -5.9970   19.6590  -32.3100 S   0  0  0  0  0  0  0  0  0  0  0  0
   -6.6560   19.6970  -33.6610 O   0  0  0  0  0  0  0  0  0  0  0  0
   -6.6170   18.5320  -31.5320 O   0  0  0  0  0  0  0  0  0  0  0  0
   -4.2400   19.3610  -32.5280 C   0  0  0  0  0  0  0  0  0  0  0  0
   -3.9920   18.0200  -33.2250 C   0  0  0  0  0  0  0  0  0  0  0  0
   -2.4830   17.7320  -33.3300 C   0  0  0  0  0  0  0  0  0  0  0  0
   -1.6540   18.9270  -33.6360 N   0  0  0  0  0  0  0  0  0  0  0  0
   -0.8250   19.3520  -32.4950 C   0  0  0  0  0  0  0  0  0  0  0  0
   -2.4170   20.0540  -34.2120 C   0  0  0  0  0  0  0  0  0  0  0  0
   -3.5730   20.5210  -33.3020 C   0  0  0  0  0  0  0  0  0  0  0  0
   -5.1770   21.7860  -30.7580 C   0  0  0  0  0  0  0  0  0  0  0  0
   -3.9530   21.1300  -30.6670 O   0  0  0  0  0  0  0  0  0  0  0  0
   -0.5200   20.3660  -27.5290 C   0  0  0  0  0  0  0  0  0  0  0  0
   -1.2700   19.4350  -26.8060 C   0  0  0  0  0  0  0  0  0  0  0  0
   -3.3516   18.7214  -24.8984 H   0  0  0  0  0  0  0  0  0  0  0  0
   -4.5511   18.6795  -26.2348 H   0  0  0  0  0  0  0  0  0  0  0  0
   -3.1661   17.5356  -26.2348 H   0  0  0  0  0  0  0  0  0  0  0  0
   -4.3930   20.7237  -27.3414 H   0  0  0  0  0  0  0  0  0  0  0  0
   -3.0500   22.3675  -28.6544 H   0  0  0  0  0  0  0  0  0  0  0  0
    0.9213   23.2717  -26.6215 H   0  0  0  0  0  0  0  0  0  0  0  0
    0.4425   25.1347  -25.0340 H   0  0  0  0  0  0  0  0  0  0  0  0
   -1.2356   26.8822  -25.6299 H   0  0  0  0  0  0  0  0  0  0  0  0
   -2.4555   26.7579  -27.7973 H   0  0  0  0  0  0  0  0  0  0  0  0
   -6.7106   24.6188  -29.6103 H   0  0  0  0  0  0  0  0  0  0  0  0
   -8.6129   23.6225  -30.8636 H   0  0  0  0  0  0  0  0  0  0  0  0
   -3.7794   19.3122  -31.5303 H   0  0  0  0  0  0  0  0  0  0  0  0
   -4.4733   17.2178  -32.6463 H   0  0  0  0  0  0  0  0  0  0  0  0
   -4.4148   18.0652  -34.2395 H   0  0  0  0  0  0  0  0  0  0  0  0
   -2.1442   17.3137  -32.3707 H   0  0  0  0  0  0  0  0  0  0  0  0
   -2.3524   17.0336  -34.1697 H   0  0  0  0  0  0  0  0  0  0  0  0
   -1.3335   19.0913  -31.5551 H   0  0  0  0  0  0  0  0  0  0  0  0
    0.1485   18.8418  -32.5389 H   0  0  0  0  0  0  0  0  0  0  0  0
   -0.6709   20.4403  -32.5389 H   0  0  0  0  0  0  0  0  0  0  0  0
   -1.7306   20.8990  -34.3697 H   0  0  0  0  0  0  0  0  0  0  0  0
   -2.8594   19.7057  -35.1570 H   0  0  0  0  0  0  0  0  0  0  0  0
   -3.1761   21.2448  -32.5750 H   0  0  0  0  0  0  0  0  0  0  0  0
   -4.3412   20.9683  -33.9499 H   0  0  0  0  0  0  0  0  0  0  0  0
    0.5750   20.2713  -27.5734 H   0  0  0  0  0  0  0  0  0  0  0  0
   -0.7637   18.6103  -26.2830 H   0  0  0  0  0  0  0  0  0  0  0  0
  1  2  1  0
  2  3  2  0
  3  4  1  0
  4  5  2  0
  5  6  1  0
  6  7  1  0
  7  8  2  0
  8  9  1  0
  9 10  2  0
 10 11  1  0
 11 12  2  0
 12 13  1  0
 13 14  1  0
 14 15  2  0
 14 16  1  0
 16 17  1  0
 17 18  2  0
 18 19  1  0
 19 20  2  0
 20 21  1  0
 20 22  1  0
 22 23  1  0
 23 24  2  0
 23 25  2  0
 23 26  1  0
 26 27  1  0
 27 28  1  0
 28 29  1  0
 29 30  1  0
 29 31  1  0
 31 32  1  0
 22 33  2  0
 33 34  1  0
  5 35  1  0
 35 36  2  0
 36  2  1  0
 12  7  1  0
 33 17  1  0
 32 26  1  0
  1 37  1  0
  1 38  1  0
  1 39  1  0
  3 40  1  0
  4 41  1  0
  8 42  1  0
  9 43  1  0
 10 44  1  0
 11 45  1  0
 18 46  1  0
 19 47  1  0
 26 48  1  0
 27 49  1  0
 27 50  1  0
 28 51  1  0
 28 52  1  0
 30 53  1  0
 30 54  1  0
 30 55  1  0
 31 56  1  0
 31 57  1  0
 32 58  1  0
 32 59  1  0
 35 60  1  0
 36 61  1  0
M  CHG  3  13  -1  16  -1  34  -1
M  END
>  <UniqueID>  (35) 
33

>  <SMILES>  (35) 
Cc1ccc(Sc2ccccc2[N-]C(=O)[N-]c2ccc(Cl)c(S(=O)(=O)C3CCN(C)CC3)c2[O-])cc1

>  <Energy>  (35) 
76.5775387992924

>  <Genealogy>  (35) 
Cc1ccc(Sc2ccccc2[N-]C(=O)[N-]c2ccc(Cl)c(S(=O)(=O)C3CCN(C)CC3)c2[O-])cc1 (protonated)
Cc1ccc(Sc2ccccc2[N-]C(=O)[N-]c2ccc(Cl)c(S(=O)(=O)C3CCN(C)CC3)c2[O-])cc1 (3D coordinates assigned)
Cc1ccc(Sc2ccccc2[N-]C(=O)[N-]c2ccc(Cl)c(S(=O)(=O)C3CCN(C)CC3)c2[O-])cc1 (nonaromatic ring conformer: 76.5775387992924 kcal/mol)

>  <smiles>  (35) 
Cc1ccc(Sc2ccccc2NC(=O)Nc2ccc(Cl)c(S(=O)(=O)C3CCN(C)CC3)c2O)cc1

>  <score_type>  (35) 
oracle

>  <origin>  (35) 
adgpu

>  <m_score__min__energy>  (35) 
-16.43

>  <m_primary>  (35) 
energy

$$$$
35:0
     RDKit          3D

 46 48  0  0  0  0  0  0  0  0999 V2000
   -2.7440   24.1390  -28.9260 O   0  0  0  0  0  0  0  0  0  0  0  0
   -3.1850   24.1280  -30.1070 C   0  0  0  0  0  0  0  0  0  0  0  0
   -3.8110   25.2990  -30.6430 N   0  0  0  0  0  0  0  0  0  0  0  0
   -5.2070   25.6510  -30.4100 C   0  0  0  0  0  0  0  0  0  0  0  0
   -5.8770   24.6110  -29.5110 C   0  0  0  0  0  0  0  0  0  0  0  0
   -6.8130   23.7470  -30.3120 C   0  0  0  0  0  0  0  0  0  0  0  0
   -7.5190   22.7010  -29.6920 C   0  0  0  0  0  0  0  0  0  0  0  0
   -8.3630   21.8770  -30.4440 C   0  0  0  0  0  0  0  0  0  0  0  0
   -8.4990   22.0850  -31.8190 C   0  0  0  0  0  0  0  0  0  0  0  0
   -7.7910   23.1150  -32.4460 C   0  0  0  0  0  0  0  0  0  0  0  0
   -6.9470   23.9420  -31.6970 C   0  0  0  0  0  0  0  0  0  0  0  0
   -3.0450   22.9100  -30.9410 C   0  0  0  0  0  0  0  0  0  0  0  0
   -3.9630   22.6450  -31.9750 C   0  0  0  0  0  0  0  0  0  0  0  0
   -3.8390   21.4930  -32.7560 C   0  0  0  0  0  0  0  0  0  0  0  0
   -2.7920   20.5920  -32.5210 C   0  0  0  0  0  0  0  0  0  0  0  0
   -2.6170   19.1410  -33.5030 S   0  0  0  0  0  0  0  0  0  0  0  0
   -2.1420   17.9820  -32.6730 O   0  0  0  0  0  0  0  0  0  0  0  0
   -1.6110   19.4070  -34.5860 O   0  0  0  0  0  0  0  0  0  0  0  0
   -4.1390   18.7350  -34.2300 N   0  0  0  0  0  0  0  0  0  0  0  0
   -5.3950   18.6620  -33.5390 C   0  0  0  0  0  0  0  0  0  0  0  0
   -6.4240   19.5960  -33.7650 C   0  0  0  0  0  0  0  0  0  0  0  0
   -7.6370   19.4880  -33.0800 C   0  0  0  0  0  0  0  0  0  0  0  0
   -7.8360   18.4510  -32.1670 C   0  0  0  0  0  0  0  0  0  0  0  0
   -6.8200   17.5200  -31.9340 C   0  0  0  0  0  0  0  0  0  0  0  0
   -5.5980   17.6240  -32.6140 C   0  0  0  0  0  0  0  0  0  0  0  0
   -4.5840   16.6970  -32.3800 O   0  0  0  0  0  0  0  0  0  0  0  0
   -1.8760   20.8480  -31.4950 C   0  0  0  0  0  0  0  0  0  0  0  0
   -2.0000   21.9970  -30.7090 C   0  0  0  0  0  0  0  0  0  0  0  0
   -5.2558   26.6361  -29.9230 H   0  0  0  0  0  0  0  0  0  0  0  0
   -5.7333   25.6796  -31.3755 H   0  0  0  0  0  0  0  0  0  0  0  0
   -5.1038   23.9778  -29.0514 H   0  0  0  0  0  0  0  0  0  0  0  0
   -6.4527   25.1321  -28.7319 H   0  0  0  0  0  0  0  0  0  0  0  0
   -7.4072   22.5299  -28.6112 H   0  0  0  0  0  0  0  0  0  0  0  0
   -8.9196   21.0653  -29.9529 H   0  0  0  0  0  0  0  0  0  0  0  0
   -9.1641   21.4374  -32.4092 H   0  0  0  0  0  0  0  0  0  0  0  0
   -7.8977   23.2752  -33.5290 H   0  0  0  0  0  0  0  0  0  0  0  0
   -6.3865   24.7475  -32.1940 H   0  0  0  0  0  0  0  0  0  0  0  0
   -4.7843   23.3504  -32.1696 H   0  0  0  0  0  0  0  0  0  0  0  0
   -4.5653   21.2929  -33.5575 H   0  0  0  0  0  0  0  0  0  0  0  0
   -6.2723   20.4145  -34.4841 H   0  0  0  0  0  0  0  0  0  0  0  0
   -8.4366   20.2215  -33.2605 H   0  0  0  0  0  0  0  0  0  0  0  0
   -8.7927   18.3666  -31.6308 H   0  0  0  0  0  0  0  0  0  0  0  0
   -6.9794   16.7030  -31.2149 H   0  0  0  0  0  0  0  0  0  0  0  0
   -3.6650   16.7990  -32.7960 H   0  0  0  0  0  0  0  0  0  0  0  0
   -1.0543   20.1416  -31.3060 H   0  0  0  0  0  0  0  0  0  0  0  0
   -1.2757   22.1888  -29.9036 H   0  0  0  0  0  0  0  0  0  0  0  0
  1  2  2  0
  2  3  1  0
  3  4  1  0
  4  5  1  0
  5  6  1  0
  6  7  2  0
  7  8  1  0
  8  9  2  0
  9 10  1  0
 10 11  2  0
  2 12  1  0
 12 13  2  0
 13 14  1  0
 14 15  2  0
 15 16  1  0
 16 17  2  0
 16 18  2  0
 16 19  1  0
 19 20  1  0
 20 21  2  0
 21 22  1  0
 22 23  2  0
 23 24  1  0
 24 25  2  0
 25 26  1  0
 15 27  1  0
 27 28  2  0
 11  6  1  0
 28 12  1  0
 25 20  1  0
  4 29  1  0
  4 30  1  0
  5 31  1  0
  5 32  1  0
  7 33  1  0
  8 34  1  0
  9 35  1  0
 10 36  1  0
 11 37  1  0
 13 38  1  0
 14 39  1  0
 21 40  1  0
 22 41  1  0
 23 42  1  0
 24 43  1  0
 26 44  1  0
 27 45  1  0
 28 46  1  0
M  CHG  2   3  -1  19  -1
M  END
>  <UniqueID>  (36) 
34

>  <SMILES>  (36) 
O=C([N-]CCc1ccccc1)c1ccc(S(=O)(=O)[N-]c2ccccc2O)cc1

>  <Energy>  (36) 
48.08469733708194

>  <Genealogy>  (36) 
O=C([N-]CCc1ccccc1)c1ccc(S(=O)(=O)[N-]c2ccccc2O)cc1 (protonated)
O=C([N-]CCc1ccccc1)c1ccc(S(=O)(=O)[N-]c2ccccc2O)cc1 (3D coordinates assigned)
O=C([N-]CCc1ccccc1)c1ccc(S(=O)(=O)[N-]c2ccccc2O)cc1 (optimized conformer: 48.08469733708194 kcal/mol)

>  <smiles>  (36) 
O=C(NCCc1ccccc1)c1ccc(S(=O)(=O)Nc2ccccc2O)cc1

>  <score_type>  (36) 
oracle

>  <origin>  (36) 
adgpu

>  <m_score__min__energy>  (36) 
-11.44

>  <m_primary>  (36) 
energy

$$$$
36:0
     RDKit          3D

 44 47  0  0  0  0  0  0  0  0999 V2000
   -4.2440   24.9010  -26.4910 C   0  0  0  0  0  0  0  0  0  0  0  0
   -2.7830   25.0810  -26.7990 C   0  0  0  0  0  0  0  0  0  0  0  0
   -1.9910   25.8590  -25.9380 C   0  0  0  0  0  0  0  0  0  0  0  0
   -0.6350   26.0620  -26.2100 C   0  0  0  0  0  0  0  0  0  0  0  0
   -0.0560   25.4860  -27.3420 C   0  0  0  0  0  0  0  0  0  0  0  0
   -0.8250   24.6960  -28.1970 C   0  0  0  0  0  0  0  0  0  0  0  0
   -2.1830   24.4710  -27.9270 C   0  0  0  0  0  0  0  0  0  0  0  0
   -2.9420   23.6340  -28.8110 N   0  0  0  0  0  0  0  0  0  0  0  0
   -3.1920   22.3150  -28.6720 C   0  0  0  0  0  0  0  0  0  0  0  0
   -2.7290   21.5450  -27.6090 O   0  0  0  0  0  0  0  0  0  0  0  0
   -3.9450   21.8390  -29.7300 C   0  0  0  0  0  0  0  0  0  0  0  0
   -4.1530   22.9290  -30.5550 C   0  0  0  0  0  0  0  0  0  0  0  0
   -5.0880   22.9360  -32.0820 S   0  0  0  0  0  0  0  0  0  0  0  0
   -4.1540   21.5580  -32.7600 C   0  0  0  0  0  0  0  0  0  0  0  0
   -2.8630   21.7820  -33.1310 N   0  0  0  0  0  0  0  0  0  0  0  0
   -2.0960   20.8160  -33.6970 C   0  0  0  0  0  0  0  0  0  0  0  0
   -2.6270   19.5470  -33.9260 C   0  0  0  0  0  0  0  0  0  0  0  0
   -3.9470   19.2840  -33.5610 C   0  0  0  0  0  0  0  0  0  0  0  0
   -4.7290   20.2830  -32.9600 C   0  0  0  0  0  0  0  0  0  0  0  0
   -6.1290   19.9810  -32.5880 C   0  0  0  0  0  0  0  0  0  0  0  0
   -6.4420   18.7690  -31.9460 C   0  0  0  0  0  0  0  0  0  0  0  0
   -7.7630   18.4780  -31.5950 C   0  0  0  0  0  0  0  0  0  0  0  0
   -8.7800   19.3960  -31.8700 C   0  0  0  0  0  0  0  0  0  0  0  0
   -8.4760   20.6100  -32.4920 C   0  0  0  0  0  0  0  0  0  0  0  0
   -7.1560   20.9050  -32.8460 C   0  0  0  0  0  0  0  0  0  0  0  0
   -3.5200   24.0050  -29.9700 C   0  0  0  0  0  0  0  0  0  0  0  0
   -3.4880   25.2960  -30.4820 O   0  0  0  0  0  0  0  0  0  0  0  0
   -4.3894   24.8831  -25.4008 H   0  0  0  0  0  0  0  0  0  0  0  0
   -4.8154   25.7355  -26.9235 H   0  0  0  0  0  0  0  0  0  0  0  0
   -4.5958   23.9527  -26.9235 H   0  0  0  0  0  0  0  0  0  0  0  0
   -2.4416   26.3120  -25.0426 H   0  0  0  0  0  0  0  0  0  0  0  0
   -0.0240   26.6758  -25.5318 H   0  0  0  0  0  0  0  0  0  0  0  0
    1.0087   25.6553  -27.5604 H   0  0  0  0  0  0  0  0  0  0  0  0
   -0.3634   24.2467  -29.0886 H   0  0  0  0  0  0  0  0  0  0  0  0
   -3.3440   20.8980  -27.1300 H   0  0  0  0  0  0  0  0  0  0  0  0
   -4.3030   20.8102  -29.8829 H   0  0  0  0  0  0  0  0  0  0  0  0
   -1.0544   21.0342  -33.9754 H   0  0  0  0  0  0  0  0  0  0  0  0
   -2.0114   18.7620  -34.3895 H   0  0  0  0  0  0  0  0  0  0  0  0
   -4.3776   18.2887  -33.7450 H   0  0  0  0  0  0  0  0  0  0  0  0
   -5.6435   18.0472  -31.7193 H   0  0  0  0  0  0  0  0  0  0  0  0
   -8.0026   17.5246  -31.1014 H   0  0  0  0  0  0  0  0  0  0  0  0
   -9.8198   19.1631  -31.5969 H   0  0  0  0  0  0  0  0  0  0  0  0
   -9.2763   21.3344  -32.7033 H   0  0  0  0  0  0  0  0  0  0  0  0
   -6.9202   21.8649  -33.3287 H   0  0  0  0  0  0  0  0  0  0  0  0
  1  2  1  0
  2  3  2  0
  3  4  1  0
  4  5  2  0
  5  6  1  0
  6  7  2  0
  7  8  1  0
  8  9  1  0
  9 10  1  0
  9 11  2  0
 11 12  1  0
 12 13  1  0
 13 14  1  0
 14 15  2  0
 15 16  1  0
 16 17  2  0
 17 18  1  0
 18 19  2  0
 19 20  1  0
 20 21  2  0
 21 22  1  0
 22 23  2  0
 23 24  1  0
 24 25  2  0
 12 26  2  0
 26 27  1  0
  7  2  1  0
 26  8  1  0
 19 14  1  0
 25 20  1  0
  1 28  1  0
  1 29  1  0
  1 30  1  0
  3 31  1  0
  4 32  1  0
  5 33  1  0
  6 34  1  0
 10 35  1  0
 11 36  1  0
 16 37  1  0
 17 38  1  0
 18 39  1  0
 21 40  1  0
 22 41  1  0
 23 42  1  0
 24 43  1  0
 25 44  1  0
M  CHG  1  27  -1
M  END
>  <UniqueID>  (37) 
35

>  <SMILES>  (37) 
Cc1ccccc1-n1c(O)cc(Sc2ncccc2-c2ccccc2)c1[O-]

>  <Energy>  (37) 
85.90623426978705

>  <Genealogy>  (37) 
Cc1ccccc1-n1c(O)cc(Sc2ncccc2-c2ccccc2)c1[O-] (protonated)
Cc1ccccc1-n1c(O)cc(Sc2ncccc2-c2ccccc2)c1[O-] (3D coordinates assigned)
Cc1ccccc1-n1c(O)cc(Sc2ncccc2-c2ccccc2)c1[O-] (optimized conformer: 85.90623426978705 kcal/mol)

>  <smiles>  (37) 
Cc1ccccc1-n1c(O)cc(Sc2ncccc2-c2ccccc2)c1O

>  <score_type>  (37) 
oracle

>  <origin>  (37) 
adgpu

>  <m_score__min__energy>  (37) 
-12.18

>  <m_primary>  (37) 
energy

$$$$
37:0
     RDKit          3D

 57 60  0  0  0  0  0  0  0  0999 V2000
   -5.4300   26.1010  -30.2780 O   0  0  0  0  0  0  0  0  0  0  0  0
   -4.9080   24.9850  -30.5450 C   0  0  0  0  0  0  0  0  0  0  0  0
   -3.4860   24.8110  -30.4490 N   0  0  0  0  0  0  0  0  0  0  0  0
   -2.7150   24.5410  -29.2670 C   0  0  0  0  0  0  0  0  0  0  0  0
   -3.2980   24.4470  -27.9900 C   0  0  0  0  0  0  0  0  0  0  0  0
   -2.5030   24.2030  -26.8680 C   0  0  0  0  0  0  0  0  0  0  0  0
   -1.1120   24.0840  -26.9980 C   0  0  0  0  0  0  0  0  0  0  0  0
   -0.1040   23.8140  -25.5730 S   0  0  0  0  0  0  0  0  0  0  0  0
   -0.8440   22.9360  -24.6010 O   0  0  0  0  0  0  0  0  0  0  0  0
    1.1540   23.1000  -25.9840 O   0  0  0  0  0  0  0  0  0  0  0  0
    0.3230   25.3200  -24.7910 N   0  0  0  0  0  0  0  0  0  0  0  0
    0.4880   26.4180  -25.7700 C   0  0  0  0  0  0  0  0  0  0  0  0
   -0.7040   27.3920  -25.7510 C   0  0  0  0  0  0  0  0  0  0  0  0
   -0.9180   27.9910  -24.4810 O   0  0  0  0  0  0  0  0  0  0  0  0
   -0.6030   27.1400  -23.3830 C   0  0  0  0  0  0  0  0  0  0  0  0
   -0.6420   25.6390  -23.7190 C   0  0  0  0  0  0  0  0  0  0  0  0
   -0.5280   24.1960  -28.2670 C   0  0  0  0  0  0  0  0  0  0  0  0
   -1.3240   24.4270  -29.3910 C   0  0  0  0  0  0  0  0  0  0  0  0
   -5.7680   23.8380  -30.9180 C   0  0  0  0  0  0  0  0  0  0  0  0
   -5.2450   22.5330  -30.9450 C   0  0  0  0  0  0  0  0  0  0  0  0
   -6.0590   21.4490  -31.2840 C   0  0  0  0  0  0  0  0  0  0  0  0
   -7.4040   21.6550  -31.6210 C   0  0  0  0  0  0  0  0  0  0  0  0
   -8.4380   20.2870  -32.0240 S   0  0  0  0  0  0  0  0  0  0  0  0
   -8.8230   19.5900  -30.7470 O   0  0  0  0  0  0  0  0  0  0  0  0
   -9.6810   20.7810  -32.7140 O   0  0  0  0  0  0  0  0  0  0  0  0
   -7.5870   19.1750  -33.0700 N   0  0  0  0  0  0  0  0  0  0  0  0
   -6.9760   18.0970  -32.2760 C   0  0  0  0  0  0  0  0  0  0  0  0
   -6.2270   17.1170  -33.2070 C   0  0  0  0  0  0  0  0  0  0  0  0
   -6.1510   17.5930  -34.5420 O   0  0  0  0  0  0  0  0  0  0  0  0
   -5.6130   18.8990  -34.5540 C   0  0  0  0  0  0  0  0  0  0  0  0
   -6.5470   19.8920  -33.8300 C   0  0  0  0  0  0  0  0  0  0  0  0
   -7.9330   22.9490  -31.5910 C   0  0  0  0  0  0  0  0  0  0  0  0
   -7.1240   24.0340  -31.2400 C   0  0  0  0  0  0  0  0  0  0  0  0
   -4.3854   24.5663  -27.8747 H   0  0  0  0  0  0  0  0  0  0  0  0
   -2.9705   24.1037  -25.8772 H   0  0  0  0  0  0  0  0  0  0  0  0
    1.4053   26.9747  -25.5279 H   0  0  0  0  0  0  0  0  0  0  0  0
    0.5462   25.9721  -26.7739 H   0  0  0  0  0  0  0  0  0  0  0  0
   -0.5161   28.1886  -26.4859 H   0  0  0  0  0  0  0  0  0  0  0  0
   -1.6053   26.8098  -25.9934 H   0  0  0  0  0  0  0  0  0  0  0  0
    0.4094   27.3891  -23.0324 H   0  0  0  0  0  0  0  0  0  0  0  0
   -1.3731   27.3132  -22.6168 H   0  0  0  0  0  0  0  0  0  0  0  0
   -0.3865   25.0605  -22.8190 H   0  0  0  0  0  0  0  0  0  0  0  0
   -1.6536   25.3795  -24.0643 H   0  0  0  0  0  0  0  0  0  0  0  0
    0.5623   24.1015  -28.3782 H   0  0  0  0  0  0  0  0  0  0  0  0
   -0.8552   24.5202  -30.3817 H   0  0  0  0  0  0  0  0  0  0  0  0
   -4.1866   22.3641  -30.6973 H   0  0  0  0  0  0  0  0  0  0  0  0
   -5.6430   20.4307  -31.2864 H   0  0  0  0  0  0  0  0  0  0  0  0
   -6.2660   18.5314  -31.5568 H   0  0  0  0  0  0  0  0  0  0  0  0
   -7.7653   17.5525  -31.7371 H   0  0  0  0  0  0  0  0  0  0  0  0
   -5.2058   16.9754  -32.8234 H   0  0  0  0  0  0  0  0  0  0  0  0
   -6.7869   16.1702  -33.2190 H   0  0  0  0  0  0  0  0  0  0  0  0
   -4.6366   18.8899  -34.0476 H   0  0  0  0  0  0  0  0  0  0  0  0
   -5.5034   19.2219  -35.5998 H   0  0  0  0  0  0  0  0  0  0  0  0
   -5.9529   20.5059  -33.1370 H   0  0  0  0  0  0  0  0  0  0  0  0
   -7.0362   20.5279  -34.5825 H   0  0  0  0  0  0  0  0  0  0  0  0
   -8.9905   23.1141  -31.8447 H   0  0  0  0  0  0  0  0  0  0  0  0
   -7.5503   25.0478  -31.2154 H   0  0  0  0  0  0  0  0  0  0  0  0
  1  2  2  0
  2  3  1  0
  3  4  1  0
  4  5  2  0
  5  6  1  0
  6  7  2  0
  7  8  1  0
  8  9  2  0
  8 10  2  0
  8 11  1  0
 11 12  1  0
 12 13  1  0
 13 14  1  0
 14 15  1  0
 15 16  1  0
  7 17  1  0
 17 18  2  0
  2 19  1  0
 19 20  2  0
 20 21  1  0
 21 22  2  0
 22 23  1  0
 23 24  2  0
 23 25  2  0
 23 26  1  0
 26 27  1  0
 27 28  1  0
 28 29  1  0
 29 30  1  0
 30 31  1  0
 22 32  1  0
 32 33  2  0
 18  4  1  0
 33 19  1  0
 16 11  1  0
 31 26  1  0
  5 34  1  0
  6 35  1  0
 12 36  1  0
 12 37  1  0
 13 38  1  0
 13 39  1  0
 15 40  1  0
 15 41  1  0
 16 42  1  0
 16 43  1  0
 17 44  1  0
 18 45  1  0
 20 46  1  0
 21 47  1  0
 27 48  1  0
 27 49  1  0
 28 50  1  0
 28 51  1  0
 30 52  1  0
 30 53  1  0
 31 54  1  0
 31 55  1  0
 32 56  1  0
 33 57  1  0
M  CHG  1   3  -1
M  END
>  <UniqueID>  (38) 
36

>  <SMILES>  (38) 
O=C([N-]c1ccc(S(=O)(=O)N2CCOCC2)cc1)c1ccc(S(=O)(=O)N2CCOCC2)cc1

>  <Energy>  (38) 
83.10694367134681

>  <Genealogy>  (38) 
O=C([N-]c1ccc(S(=O)(=O)N2CCOCC2)cc1)c1ccc(S(=O)(=O)N2CCOCC2)cc1 (protonated)
O=C([N-]c1ccc(S(=O)(=O)N2CCOCC2)cc1)c1ccc(S(=O)(=O)N2CCOCC2)cc1 (3D coordinates assigned)
O=C([N-]c1ccc(S(=O)(=O)N2CCOCC2)cc1)c1ccc(S(=O)(=O)N2CCOCC2)cc1 (nonaromatic ring conformer: 83.10694367134681 kcal/mol)

>  <smiles>  (38) 
O=C(Nc1ccc(S(=O)(=O)N2CCOCC2)cc1)c1ccc(S(=O)(=O)N2CCOCC2)cc1

>  <score_type>  (38) 
oracle

>  <origin>  (38) 
adgpu

>  <m_score__min__energy>  (38) 
-11.960000000000001

>  <m_primary>  (38) 
energy

$$$$
38:0
     RDKit          3D

 47 49  0  0  0  0  0  0  0  0999 V2000
    1.2380   24.8490  -27.0270 C   0  0  0  0  0  0  0  0  0  0  0  0
    0.7440   24.3110  -28.2490 O   0  0  0  0  0  0  0  0  0  0  0  0
   -0.5680   23.8550  -28.4410 C   0  0  0  0  0  0  0  0  0  0  0  0
   -1.0720   22.7120  -27.7910 C   0  0  0  0  0  0  0  0  0  0  0  0
   -2.3860   22.3000  -28.0180 C   0  0  0  0  0  0  0  0  0  0  0  0
   -3.2110   23.0180  -28.8860 C   0  0  0  0  0  0  0  0  0  0  0  0
   -2.7200   24.1600  -29.5440 C   0  0  0  0  0  0  0  0  0  0  0  0
   -3.5260   24.9260  -30.4490 N   0  0  0  0  0  0  0  0  0  0  0  0
   -5.2570   25.0150  -30.4160 S   0  0  0  0  0  0  0  0  0  0  0  0
   -5.7200   25.1470  -28.9910 O   0  0  0  0  0  0  0  0  0  0  0  0
   -5.7030   26.2280  -31.1820 O   0  0  0  0  0  0  0  0  0  0  0  0
   -5.9400   23.5810  -31.1740 C   0  0  0  0  0  0  0  0  0  0  0  0
   -7.3300   23.4370  -31.2560 C   0  0  0  0  0  0  0  0  0  0  0  0
   -7.8850   22.3110  -31.8660 C   0  0  0  0  0  0  0  0  0  0  0  0
   -7.0550   21.3220  -32.4000 C   0  0  0  0  0  0  0  0  0  0  0  0
   -5.6620   21.4550  -32.3240 C   0  0  0  0  0  0  0  0  0  0  0  0
   -4.6130   20.2050  -32.9990 S   0  0  0  0  0  0  0  0  0  0  0  0
   -5.2670   19.6190  -34.2200 O   0  0  0  0  0  0  0  0  0  0  0  0
   -4.4460   19.1060  -31.9870 O   0  0  0  0  0  0  0  0  0  0  0  0
   -3.0420   20.8390  -33.4280 N   0  0  0  0  0  0  0  0  0  0  0  0
   -2.3090   21.2750  -32.2240 C   0  0  0  0  0  0  0  0  0  0  0  0
   -0.8240   21.5520  -32.5440 C   0  0  0  0  0  0  0  0  0  0  0  0
   -0.6110   21.6470  -33.9380 O   0  0  0  0  0  0  0  0  0  0  0  0
   -0.8740   20.3970  -34.5510 C   0  0  0  0  0  0  0  0  0  0  0  0
   -2.2650   19.8370  -34.1770 C   0  0  0  0  0  0  0  0  0  0  0  0
   -5.1070   22.5870  -31.7100 C   0  0  0  0  0  0  0  0  0  0  0  0
   -1.4000   24.5690  -29.3120 C   0  0  0  0  0  0  0  0  0  0  0  0
    0.7632   24.3319  -26.1802 H   0  0  0  0  0  0  0  0  0  0  0  0
    2.3278   24.7080  -26.9783 H   0  0  0  0  0  0  0  0  0  0  0  0
    1.0047   25.9229  -26.9783 H   0  0  0  0  0  0  0  0  0  0  0  0
   -0.4291   22.1430  -27.1033 H   0  0  0  0  0  0  0  0  0  0  0  0
   -2.7739   21.4046  -27.5102 H   0  0  0  0  0  0  0  0  0  0  0  0
   -4.2471   22.6898  -29.0556 H   0  0  0  0  0  0  0  0  0  0  0  0
   -7.9871   24.2140  -30.8382 H   0  0  0  0  0  0  0  0  0  0  0  0
   -8.9779   22.2020  -31.9265 H   0  0  0  0  0  0  0  0  0  0  0  0
   -7.4961   20.4367  -32.8813 H   0  0  0  0  0  0  0  0  0  0  0  0
   -3.2060   21.6700  -34.0460 H   0  0  0  0  0  0  0  0  0  0  0  0
   -2.7703   22.1955  -31.8368 H   0  0  0  0  0  0  0  0  0  0  0  0
   -2.3598   20.4709  -31.4751 H   0  0  0  0  0  0  0  0  0  0  0  0
   -0.5253   22.4986  -32.0700 H   0  0  0  0  0  0  0  0  0  0  0  0
   -0.2222   20.7171  -32.1556 H   0  0  0  0  0  0  0  0  0  0  0  0
   -0.8257   20.5221  -35.6428 H   0  0  0  0  0  0  0  0  0  0  0  0
   -0.1181   19.6827  -34.1927 H   0  0  0  0  0  0  0  0  0  0  0  0
   -2.8075   19.5722  -35.0966 H   0  0  0  0  0  0  0  0  0  0  0  0
   -2.1310   18.9467  -33.5450 H   0  0  0  0  0  0  0  0  0  0  0  0
   -4.0142   22.6962  -31.6483 H   0  0  0  0  0  0  0  0  0  0  0  0
   -1.0120   25.4635  -29.8212 H   0  0  0  0  0  0  0  0  0  0  0  0
  1  2  1  0
  2  3  1  0
  3  4  2  0
  4  5  1  0
  5  6  2  0
  6  7  1  0
  7  8  1  0
  8  9  1  0
  9 10  2  0
  9 11  2  0
  9 12  1  0
 12 13  2  0
 13 14  1  0
 14 15  2  0
 15 16  1  0
 16 17  1  0
 17 18  2  0
 17 19  2  0
 17 20  1  0
 20 21  1  0
 21 22  1  0
 22 23  1  0
 23 24  1  0
 24 25  1  0
 16 26  2  0
  7 27  2  0
 27  3  1  0
 26 12  1  0
 25 20  1  0
  1 28  1  0
  1 29  1  0
  1 30  1  0
  4 31  1  0
  5 32  1  0
  6 33  1  0
 13 34  1  0
 14 35  1  0
 15 36  1  0
 20 37  1  0
 21 38  1  0
 21 39  1  0
 22 40  1  0
 22 41  1  0
 24 42  1  0
 24 43  1  0
 25 44  1  0
 25 45  1  0
 26 46  1  0
 27 47  1  0
M  CHG  2   8  -1  20   1
M  END
>  <UniqueID>  (39) 
37

>  <SMILES>  (39) 
COc1cccc([N-]S(=O)(=O)c2cccc(S(=O)(=O)[NH+]3CCOCC3)c2)c1

>  <Energy>  (39) 
57.721118930255095

>  <Genealogy>  (39) 
COc1cccc([N-]S(=O)(=O)c2cccc(S(=O)(=O)[NH+]3CCOCC3)c2)c1 (protonated)
COc1cccc([N-]S(=O)(=O)c2cccc(S(=O)(=O)[NH+]3CCOCC3)c2)c1 (3D coordinates assigned)
COc1cccc([N-]S(=O)(=O)c2cccc(S(=O)(=O)[NH+]3CCOCC3)c2)c1 (nonaromatic ring conformer: 57.721118930255095 kcal/mol)

>  <smiles>  (39) 
COc1cccc(NS(=O)(=O)c2cccc(S(=O)(=O)N3CCOCC3)c2)c1

>  <score_type>  (39) 
oracle

>  <origin>  (39) 
adgpu

>  <m_score__min__energy>  (39) 
-9.8300000000000001

>  <m_primary>  (39) 
energy

$$$$
39:0
     RDKit          3D

 43 45  0  0  0  0  0  0  0  0999 V2000
   -0.2817   26.8210  -28.8582 H   0  0  0  0  0  0  0  0  0  0  0  0
   -0.8450   26.0220  -28.3540 C   0  0  0  0  0  0  0  0  0  0  0  0
   -1.9220   25.4610  -28.9650 N   0  0  0  0  0  0  0  0  0  0  0  0
   -2.6460   24.4650  -28.3820 C   0  0  0  0  0  0  0  0  0  0  0  0
   -3.6720   23.9330  -28.9790 N   0  0  0  0  0  0  0  0  0  0  0  0
   -4.1970   24.2650  -30.2770 C   0  0  0  0  0  0  0  0  0  0  0  0
   -3.8630   25.3450  -30.8380 O   0  0  0  0  0  0  0  0  0  0  0  0
   -5.1470   23.3460  -30.9660 C   0  0  0  0  0  0  0  0  0  0  0  0
   -6.4150   23.8340  -31.3450 C   0  0  0  0  0  0  0  0  0  0  0  0
   -6.6767   24.8821  -31.1378 H   0  0  0  0  0  0  0  0  0  0  0  0
   -7.3420   23.0060  -31.9790 C   0  0  0  0  0  0  0  0  0  0  0  0
   -8.3270   23.4029  -32.2659 H   0  0  0  0  0  0  0  0  0  0  0  0
   -7.0220   21.6780  -32.2490 C   0  0  0  0  0  0  0  0  0  0  0  0
   -7.7551   21.0262  -32.7466 H   0  0  0  0  0  0  0  0  0  0  0  0
   -5.7730   21.1740  -31.8890 C   0  0  0  0  0  0  0  0  0  0  0  0
   -5.5266   20.1247  -32.1085 H   0  0  0  0  0  0  0  0  0  0  0  0
   -4.8220   21.9930  -31.2470 C   0  0  0  0  0  0  0  0  0  0  0  0
   -3.5560   21.4950  -30.8880 O   0  0  0  0  0  0  0  0  0  0  0  0
   -3.3050   20.4220  -29.9810 C   0  0  0  0  0  0  0  0  0  0  0  0
   -4.2306   20.1883  -29.4345 H   0  0  0  0  0  0  0  0  0  0  0  0
   -2.9674   19.5471  -30.5560 H   0  0  0  0  0  0  0  0  0  0  0  0
   -2.2320   20.7930  -28.9960 C   0  0  0  0  0  0  0  0  0  0  0  0
   -2.0950   20.3700  -27.6870 C   0  0  0  0  0  0  0  0  0  0  0  0
   -3.0280   19.4800  -26.9320 C   0  0  0  0  0  0  0  0  0  0  0  0
   -2.8778   19.6233  -25.8518 H   0  0  0  0  0  0  0  0  0  0  0  0
   -4.0665   19.7306  -27.1942 H   0  0  0  0  0  0  0  0  0  0  0  0
   -2.8266   18.4309  -27.1942 H   0  0  0  0  0  0  0  0  0  0  0  0
   -0.9640   20.8860  -27.1660 N   0  0  0  0  0  0  0  0  0  0  0  0
   -0.3990   21.5910  -28.1040 O   0  0  0  0  0  0  0  0  0  0  0  0
   -1.1020   21.5600  -29.2130 C   0  0  0  0  0  0  0  0  0  0  0  0
   -0.7170   22.2670  -30.4710 C   0  0  0  0  0  0  0  0  0  0  0  0
   -0.2047   23.2077  -30.2208 H   0  0  0  0  0  0  0  0  0  0  0  0
   -0.0426   21.6275  -31.0593 H   0  0  0  0  0  0  0  0  0  0  0  0
   -1.6201   22.4865  -31.0593 H   0  0  0  0  0  0  0  0  0  0  0  0
   -2.2820   24.0020  -27.1110 C   0  0  0  0  0  0  0  0  0  0  0  0
   -2.8527   23.1915  -26.6341 H   0  0  0  0  0  0  0  0  0  0  0  0
   -1.1870   24.5760  -26.4490 C   0  0  0  0  0  0  0  0  0  0  0  0
   -0.7650   24.0670  -25.1030 C   0  0  0  0  0  0  0  0  0  0  0  0
   -1.2559   24.6591  -24.3166 H   0  0  0  0  0  0  0  0  0  0  0  0
   -1.0562   23.0110  -25.0025 H   0  0  0  0  0  0  0  0  0  0  0  0
    0.3267   24.1575  -25.0025 H   0  0  0  0  0  0  0  0  0  0  0  0
   -0.4530   25.5850  -27.0870 C   0  0  0  0  0  0  0  0  0  0  0  0
    0.4244   26.0289  -26.5940 H   0  0  0  0  0  0  0  0  0  0  0  0
  1  2  1  0
  2  3  1  0
  3  4  1  0
  4  5  2  0
  5  6  1  0
  6  7  2  0
  6  8  1  0
  8  9  2  0
  9 10  1  0
  9 11  1  0
 11 12  1  0
 11 13  2  0
 13 14  1  0
 13 15  1  0
 15 16  1  0
 15 17  2  0
 17 18  1  0
 18 19  1  0
 19 20  1  0
 19 21  1  0
 19 22  1  0
 22 23  1  0
 23 24  1  0
 24 25  1  0
 24 26  1  0
 24 27  1  0
 23 28  2  0
 28 29  1  0
 29 30  1  0
 30 31  1  0
 31 32  1  0
 31 33  1  0
 31 34  1  0
  4 35  1  0
 35 36  1  0
 35 37  2  0
 37 38  1  0
 38 39  1  0
 38 40  1  0
 38 41  1  0
 37 42  1  0
 42 43  1  0
 42  2  2  0
 17  8  1  0
 30 22  2  0
M  CHG  1   3  -1
M  END
>  <UniqueID>  (40) 
38

>  <SMILES>  (40) 
Cc1cc[n-]/c(=N\C(=O)c2ccccc2OCc2c(C)noc2C)c1

>  <Energy>  (40) 
76.81120730331554

>  <Genealogy>  (40) 
Cc1cc[n-]c(=NC(=O)c2ccccc2OCc2c(C)noc2C)c1 (protonated)
Cc1cc[n-]/c(=N\C(=O)c2ccccc2OCc2c(C)noc2C)c1 (cis-trans isomerization)
Cc1cc[n-]/c(=N\C(=O)c2ccccc2OCc2c(C)noc2C)c1 (3D coordinates assigned)
Cc1cc[n-]/c(=N\C(=O)c2ccccc2OCc2c(C)noc2C)c1 (optimized conformer: 76.81120730331554 kcal/mol)

>  <smiles>  (40) 
Cc1cc[nH]c(=NC(=O)c2ccccc2OCc2c(C)noc2C)c1

>  <score_type>  (40) 
oracle

>  <origin>  (40) 
adgpu

>  <m_score__min__energy>  (40) 
-9.5600000000000005

>  <m_primary>  (40) 
energy

$$$$
40:0
     RDKit          3D

 49 51  0  0  0  0  0  0  0  0999 V2000
   -8.7100   21.0030  -31.3470 C   0  0  0  0  0  0  0  0  0  0  0  0
   -8.2890   22.2220  -31.9480 O   0  0  0  0  0  0  0  0  0  0  0  0
   -7.1510   22.9490  -31.5610 C   0  0  0  0  0  0  0  0  0  0  0  0
   -7.2420   24.1430  -30.8220 C   0  0  0  0  0  0  0  0  0  0  0  0
   -6.0880   24.8440  -30.4660 C   0  0  0  0  0  0  0  0  0  0  0  0
   -4.8290   24.3770  -30.8480 C   0  0  0  0  0  0  0  0  0  0  0  0
   -3.6680   25.1210  -30.4490 N   0  0  0  0  0  0  0  0  0  0  0  0
   -2.8990   24.9130  -29.2580 C   0  0  0  0  0  0  0  0  0  0  0  0
   -1.9400   25.6760  -28.9660 O   0  0  0  0  0  0  0  0  0  0  0  0
   -3.2490   23.7810  -28.3460 C   0  0  0  0  0  0  0  0  0  0  0  0
   -2.5820   22.5280  -28.8160 C   0  0  0  0  0  0  0  0  0  0  0  0
   -2.5600   21.3160  -28.1340 C   0  0  0  0  0  0  0  0  0  0  0  0
   -1.7870   20.3400  -28.7730 C   0  0  0  0  0  0  0  0  0  0  0  0
   -1.2020   20.7930  -29.9470 C   0  0  0  0  0  0  0  0  0  0  0  0
   -0.1660   19.8480  -31.0070 S   0  0  0  0  0  0  0  0  0  0  0  0
    1.0840   19.4730  -30.2590 O   0  0  0  0  0  0  0  0  0  0  0  0
   -0.8830   18.5820  -31.3900 O   0  0  0  0  0  0  0  0  0  0  0  0
    0.2650   20.7320  -32.4490 N   0  0  0  0  0  0  0  0  0  0  0  0
   -0.8760   20.7930  -33.3730 C   0  0  0  0  0  0  0  0  0  0  0  0
   -0.4880   21.5930  -34.6350 C   0  0  0  0  0  0  0  0  0  0  0  0
    0.8940   21.9130  -34.6650 O   0  0  0  0  0  0  0  0  0  0  0  0
    1.6620   20.7370  -34.4990 C   0  0  0  0  0  0  0  0  0  0  0  0
    1.4230   20.1080  -33.1110 C   0  0  0  0  0  0  0  0  0  0  0  0
   -1.6250   22.4010  -30.1950 S   0  0  0  0  0  0  0  0  0  0  0  0
   -4.7280   23.1670  -31.5560 C   0  0  0  0  0  0  0  0  0  0  0  0
   -5.8880   22.4560  -31.9250 C   0  0  0  0  0  0  0  0  0  0  0  0
   -5.8250   21.2550  -32.6500 O   0  0  0  0  0  0  0  0  0  0  0  0
   -4.6460   20.4740  -32.8210 C   0  0  0  0  0  0  0  0  0  0  0  0
   -8.6755   21.1029  -30.2521 H   0  0  0  0  0  0  0  0  0  0  0  0
   -9.7389   20.7750  -31.6621 H   0  0  0  0  0  0  0  0  0  0  0  0
   -8.0411   20.1886  -31.6621 H   0  0  0  0  0  0  0  0  0  0  0  0
   -8.2286   24.5266  -30.5228 H   0  0  0  0  0  0  0  0  0  0  0  0
   -6.1715   25.7712  -29.8801 H   0  0  0  0  0  0  0  0  0  0  0  0
   -2.9095   24.0151  -27.3262 H   0  0  0  0  0  0  0  0  0  0  0  0
   -4.3393   23.6355  -28.3491 H   0  0  0  0  0  0  0  0  0  0  0  0
   -3.0955   21.1424  -27.1889 H   0  0  0  0  0  0  0  0  0  0  0  0
   -1.6566   19.3191  -28.3847 H   0  0  0  0  0  0  0  0  0  0  0  0
   -1.1655   19.7722  -33.6630 H   0  0  0  0  0  0  0  0  0  0  0  0
   -1.7201   21.2912  -32.8737 H   0  0  0  0  0  0  0  0  0  0  0  0
   -0.7315   20.9922  -35.5237 H   0  0  0  0  0  0  0  0  0  0  0  0
   -1.0522   22.5372  -34.6220 H   0  0  0  0  0  0  0  0  0  0  0  0
    1.3796   20.0110  -35.2757 H   0  0  0  0  0  0  0  0  0  0  0  0
    2.7266   21.0004  -34.5842 H   0  0  0  0  0  0  0  0  0  0  0  0
    1.2336   19.0310  -33.2304 H   0  0  0  0  0  0  0  0  0  0  0  0
    2.3160   20.2719  -32.4900 H   0  0  0  0  0  0  0  0  0  0  0  0
   -3.7369   22.7721  -31.8240 H   0  0  0  0  0  0  0  0  0  0  0  0
   -4.2387   20.2042  -31.8354 H   0  0  0  0  0  0  0  0  0  0  0  0
   -4.8904   19.5586  -33.3798 H   0  0  0  0  0  0  0  0  0  0  0  0
   -3.8984   21.0561  -33.3798 H   0  0  0  0  0  0  0  0  0  0  0  0
  1  2  1  0
  2  3  1  0
  3  4  2  0
  4  5  1  0
  5  6  2  0
  6  7  1  0
  7  8  1  0
  8  9  2  0
  8 10  1  0
 10 11  1  0
 11 12  2  0
 12 13  1  0
 13 14  2  0
 14 15  1  0
 15 16  2  0
 15 17  2  0
 15 18  1  0
 18 19  1  0
 19 20  1  0
 20 21  1  0
 21 22  1  0
 22 23  1  0
 14 24  1  0
  6 25  1  0
 25 26  2  0
 26 27  1  0
 27 28  1  0
 26  3  1  0
 24 11  1  0
 23 18  1  0
  1 29  1  0
  1 30  1  0
  1 31  1  0
  4 32  1  0
  5 33  1  0
 10 34  1  0
 10 35  1  0
 12 36  1  0
 13 37  1  0
 19 38  1  0
 19 39  1  0
 20 40  1  0
 20 41  1  0
 22 42  1  0
 22 43  1  0
 23 44  1  0
 23 45  1  0
 25 46  1  0
 28 47  1  0
 28 48  1  0
 28 49  1  0
M  CHG  1   7  -1
M  END
>  <UniqueID>  (41) 
39

>  <SMILES>  (41) 
COc1ccc([N-]C(=O)Cc2ccc(S(=O)(=O)N3CCOCC3)s2)cc1OC

>  <Energy>  (41) 
82.56850015236249

>  <Genealogy>  (41) 
COc1ccc([N-]C(=O)Cc2ccc(S(=O)(=O)N3CCOCC3)s2)cc1OC (protonated)
COc1ccc([N-]C(=O)Cc2ccc(S(=O)(=O)N3CCOCC3)s2)cc1OC (3D coordinates assigned)
COc1ccc([N-]C(=O)Cc2ccc(S(=O)(=O)N3CCOCC3)s2)cc1OC (nonaromatic ring conformer: 82.56850015236249 kcal/mol)

>  <smiles>  (41) 
COc1ccc(NC(=O)Cc2ccc(S(=O)(=O)N3CCOCC3)s2)cc1OC

>  <score_type>  (41) 
oracle

>  <origin>  (41) 
adgpu

>  <m_score__min__energy>  (41) 
-10.27

>  <m_primary>  (41) 
energy

$$$$
41:0
     RDKit          3D

 72 77  0  0  1  0  0  0  0  0999 V2000
    2.3030   19.8850  -27.9190 C   0  0  0  0  0  0  0  0  0  0  0  0
    1.1720   19.8310  -28.8000 O   0  0  0  0  0  0  0  0  0  0  0  0
   -0.1100   20.0170  -28.3040 C   0  0  0  0  0  0  0  0  0  0  0  0
   -0.7460   21.2270  -28.4980 C   0  0  0  0  0  0  0  0  0  0  0  0
   -2.0370   21.4650  -28.0190 C   0  0  0  0  0  0  0  0  0  0  0  0
   -2.7060   22.6990  -28.2130 N   0  0  0  0  0  0  0  0  0  0  0  0
   -2.1020   23.8040  -28.9810 C   0  0  0  0  0  0  0  0  0  0  0  0
   -3.2230   24.5440  -29.7070 C   0  0  0  0  0  0  0  0  0  0  0  0
   -4.2450   23.5740  -29.9710 N   0  0  0  0  0  0  0  0  0  0  0  0
   -4.9630   23.7470  -31.1900 C   0  0  0  0  0  0  0  0  0  0  0  0
   -5.0100   23.1580  -28.8390 C   0  0  0  0  0  0  0  0  0  0  0  0
   -4.0260   22.9880  -27.6760 C   0  0  0  0  0  0  0  0  0  0  0  0
   -2.6280   20.4250  -27.3470 C   0  0  0  0  0  0  0  0  0  0  0  0
   -1.9820   19.1980  -27.1500 C   0  0  0  0  0  0  0  0  0  0  0  0
   -0.7280   18.9800  -27.6200 C   0  0  0  0  0  0  0  0  0  0  0  0
   -0.0020   17.7680  -27.4660 N   0  0  0  0  0  0  0  0  0  0  0  0
    0.3710   17.1780  -28.5510 C   0  0  0  0  0  0  0  0  0  0  0  0
    1.0520   16.0440  -28.4400 N   0  0  0  0  0  0  0  0  0  0  0  0
    1.4950   15.3370  -29.5230 C   0  0  0  0  0  0  0  0  0  0  0  0
    1.1970   15.8660  -30.7660 C   0  0  0  0  0  0  0  0  0  0  0  0
    0.4910   17.0430  -30.8710 C   0  0  0  0  0  0  0  0  0  0  0  0
    0.2410   17.4890  -32.0390 N   0  0  0  0  0  0  0  0  0  0  0  0
   -0.4840   18.7020  -32.2120 C   0  0  0  0  0  0  0  0  0  0  0  0
    0.0880   19.9400  -32.0270 C   0  0  0  0  0  0  0  0  0  0  0  0
   -0.6830   21.0790  -32.2140 C   0  0  0  0  0  0  0  0  0  0  0  0
   -2.0150   21.0190  -32.5810 C   0  0  0  0  0  0  0  0  0  0  0  0
   -2.9800   21.9200  -32.8260 N   0  0  0  0  0  0  0  0  0  0  0  0
   -4.1390   21.2840  -33.1580 C   0  0  0  0  0  0  0  0  0  0  0  0
   -3.8880   19.9260  -33.1190 C   0  0  0  0  0  0  0  0  0  0  0  0
   -4.9840   18.5980  -33.4490 S   0  0  0  0  0  0  0  0  0  0  0  0
   -5.0470   18.3040  -34.9420 O   0  0  0  0  0  0  0  0  0  0  0  0
   -4.3750   17.3430  -32.8450 O   0  0  0  0  0  0  0  0  0  0  0  0
   -6.5830   18.8740  -32.8510 C   0  0  0  0  0  0  0  0  0  0  0  0
   -7.3190   17.9120  -32.1590 C   0  0  0  0  0  0  0  0  0  0  0  0
   -8.6100   18.2160  -31.7070 C   0  0  0  0  0  0  0  0  0  0  0  0
   -9.1590   19.4790  -31.9490 C   0  0  0  0  0  0  0  0  0  0  0  0
   -8.4120   20.4110  -32.6350 C   0  0  0  0  0  0  0  0  0  0  0  0
   -7.1490   20.1270  -33.0820 C   0  0  0  0  0  0  0  0  0  0  0  0
   -2.5610   19.7640  -32.7590 C   0  0  0  0  0  0  0  0  0  0  0  0
   -1.8120   18.6000  -32.5790 C   0  0  0  0  0  0  0  0  0  0  0  0
    0.0720   17.7070  -29.7580 N   0  0  0  0  0  0  0  0  0  0  0  0
    1.9559   19.8684  -26.8753 H   0  0  0  0  0  0  0  0  0  0  0  0
    2.9530   19.0169  -28.1031 H   0  0  0  0  0  0  0  0  0  0  0  0
    2.8673   20.8111  -28.1031 H   0  0  0  0  0  0  0  0  0  0  0  0
   -0.2223   22.0253  -29.0444 H   0  0  0  0  0  0  0  0  0  0  0  0
   -1.5818   24.4921  -28.2984 H   0  0  0  0  0  0  0  0  0  0  0  0
   -1.3727   23.4115  -29.7049 H   0  0  0  0  0  0  0  0  0  0  0  0
   -3.6191   25.3507  -29.0728 H   0  0  0  0  0  0  0  0  0  0  0  0
   -2.8594   25.0031  -30.6382 H   0  0  0  0  0  0  0  0  0  0  0  0
   -6.0100   23.9993  -30.9662 H   0  0  0  0  0  0  0  0  0  0  0  0
   -4.5062   24.5608  -31.7723 H   0  0  0  0  0  0  0  0  0  0  0  0
   -4.9269   22.8145  -31.7723 H   0  0  0  0  0  0  0  0  0  0  0  0
   -5.7624   23.9207  -28.5897 H   0  0  0  0  0  0  0  0  0  0  0  0
   -5.5413   22.2174  -29.0464 H   0  0  0  0  0  0  0  0  0  0  0  0
   -3.9892   23.9151  -27.0852 H   0  0  0  0  0  0  0  0  0  0  0  0
   -4.3538   22.1611  -27.0288 H   0  0  0  0  0  0  0  0  0  0  0  0
   -3.6446   20.5596  -26.9491 H   0  0  0  0  0  0  0  0  0  0  0  0
   -2.5009   18.3962  -26.6041 H   0  0  0  0  0  0  0  0  0  0  0  0
    1.2770   15.6430  -27.4820 H   0  0  0  0  0  0  0  0  0  0  0  0
    2.0578   14.3984  -29.4120 H   0  0  0  0  0  0  0  0  0  0  0  0
    1.5262   15.3429  -31.6760 H   0  0  0  0  0  0  0  0  0  0  0  0
    1.1448   20.0260  -31.7341 H   0  0  0  0  0  0  0  0  0  0  0  0
   -0.2179   22.0646  -32.0649 H   0  0  0  0  0  0  0  0  0  0  0  0
   -2.8120   22.9470  -32.7570 H   0  0  0  0  0  0  0  0  0  0  0  0
   -5.0965   21.7631  -33.4102 H   0  0  0  0  0  0  0  0  0  0  0  0
   -6.8874   16.9182  -31.9688 H   0  0  0  0  0  0  0  0  0  0  0  0
   -9.1927   17.4596  -31.1608 H   0  0  0  0  0  0  0  0  0  0  0  0
  -10.1718   19.7245  -31.5970 H   0  0  0  0  0  0  0  0  0  0  0  0
   -8.8395   21.4059  -32.8282 H   0  0  0  0  0  0  0  0  0  0  0  0
   -6.5773   20.8926  -33.6269 H   0  0  0  0  0  0  0  0  0  0  0  0
   -2.2738   17.6128  -32.7277 H   0  0  0  0  0  0  0  0  0  0  0  0
   -0.4640   18.6030  -29.8570 H   0  0  0  0  0  0  0  0  0  0  0  0
  1  2  1  0
  2  3  1  0
  3  4  2  0
  4  5  1  0
  5  6  1  0
  6  7  1  0
  7  8  1  0
  8  9  1  0
  9 10  1  0
  9 11  1  0
 11 12  1  0
  5 13  2  0
 13 14  1  0
 14 15  2  0
 15 16  1  0
 16 17  2  0
 17 18  1  0
 18 19  1  0
 19 20  2  0
 20 21  1  0
 21 22  2  0
 22 23  1  0
 23 24  2  0
 24 25  1  0
 25 26  2  0
 26 27  1  0
 27 28  1  0
 28 29  2  0
 29 30  1  0
 30 31  2  0
 30 32  2  0
 30 33  1  0
 33 34  2  0
 34 35  1  0
 35 36  2  0
 36 37  1  0
 37 38  2  0
 29 39  1  0
 39 40  2  0
 21 41  1  0
 15  3  1  0
 41 17  1  0
 12  6  1  0
 40 23  1  0
 39 26  1  0
 38 33  1  0
  1 42  1  0
  1 43  1  0
  1 44  1  0
  4 45  1  0
  7 46  1  0
  7 47  1  0
  8 48  1  0
  8 49  1  0
 10 50  1  0
 10 51  1  0
 10 52  1  0
 11 53  1  0
 11 54  1  0
 12 55  1  0
 12 56  1  0
 13 57  1  0
 14 58  1  0
 18 59  1  0
 19 60  1  0
 20 61  1  0
 24 62  1  0
 25 63  1  0
 27 64  1  0
 28 65  1  0
 34 66  1  0
 35 67  1  0
 36 68  1  0
 37 69  1  0
 38 70  1  0
 40 71  1  0
 41 72  1  0
M  END
>  <smiles>  (42) 
COc1cc(N2CCN(C)CC2)ccc1N=c1[nH]ccc(=Nc2ccc3[nH]cc(S(=O)(=O)c4ccccc4)c3c2)[nH]1

>  <score_type>  (42) 
oracle

>  <origin>  (42) 
adgpu

>  <m_score__min__energy>  (42) 
-11.68

>  <m_primary>  (42) 
energy

$$$$
42:0
     RDKit          3D

 45 48  0  0  0  0  0  0  0  0999 V2000
   -3.6122   25.0547  -27.9006 H   0  0  0  0  0  0  0  0  0  0  0  0
   -3.1490   24.0640  -27.7830 C   0  0  0  0  0  0  0  0  0  0  0  0
   -2.1800   23.8630  -26.7960 C   0  0  0  0  0  0  0  0  0  0  0  0
   -1.8809   24.6978  -26.1451 H   0  0  0  0  0  0  0  0  0  0  0  0
   -1.5870   22.6030  -26.6310 C   0  0  0  0  0  0  0  0  0  0  0  0
   -0.5190   22.4000  -25.5980 C   0  0  0  0  0  0  0  0  0  0  0  0
   -0.9597   22.4838  -24.5936 H   0  0  0  0  0  0  0  0  0  0  0  0
   -0.0747   21.4013  -25.7213 H   0  0  0  0  0  0  0  0  0  0  0  0
    0.2608   23.1660  -25.7213 H   0  0  0  0  0  0  0  0  0  0  0  0
   -1.9500   21.5550  -27.4900 C   0  0  0  0  0  0  0  0  0  0  0  0
   -1.4692   20.5711  -27.3860 H   0  0  0  0  0  0  0  0  0  0  0  0
   -2.9190   21.7540  -28.4770 C   0  0  0  0  0  0  0  0  0  0  0  0
   -3.2012   20.9239  -29.1413 H   0  0  0  0  0  0  0  0  0  0  0  0
   -3.5350   23.0080  -28.6260 C   0  0  0  0  0  0  0  0  0  0  0  0
   -4.5540   23.2280  -29.6810 C   0  0  0  0  0  0  0  0  0  0  0  0
   -5.5880   22.2950  -29.8540 C   0  0  0  0  0  0  0  0  0  0  0  0
   -5.6156   21.3925  -29.2257 H   0  0  0  0  0  0  0  0  0  0  0  0
   -6.5850   22.4980  -30.8160 C   0  0  0  0  0  0  0  0  0  0  0  0
   -7.6270   21.5200  -30.9400 N   0  0  0  0  0  0  0  0  0  0  0  0
   -7.5980   20.3150  -31.4490 C   0  0  0  0  0  0  0  0  0  0  0  0
   -8.7070   19.5070  -31.1720 C   0  0  0  0  0  0  0  0  0  0  0  0
   -9.5944   19.9460  -30.6926 H   0  0  0  0  0  0  0  0  0  0  0  0
   -8.6980   18.1540  -31.4970 C   0  0  0  0  0  0  0  0  0  0  0  0
   -9.5713   17.5285  -31.2600 H   0  0  0  0  0  0  0  0  0  0  0  0
   -7.6190   17.6030  -32.1040 N   0  0  0  0  0  0  0  0  0  0  0  0
   -7.6410   16.5790  -32.3120 H   0  0  0  0  0  0  0  0  0  0  0  0
   -6.5450   18.3570  -32.4780 C   0  0  0  0  0  0  0  0  0  0  0  0
   -5.4810   17.7480  -33.1620 C   0  0  0  0  0  0  0  0  0  0  0  0
   -5.4890   16.6604  -33.3265 H   0  0  0  0  0  0  0  0  0  0  0  0
   -4.4150   18.5110  -33.6340 C   0  0  0  0  0  0  0  0  0  0  0  0
   -3.0970   17.7400  -34.4980 Cl  0  0  0  0  0  0  0  0  0  0  0  0
   -4.4190   19.8920  -33.4570 C   0  0  0  0  0  0  0  0  0  0  0  0
   -3.5927   20.4972  -33.8582 H   0  0  0  0  0  0  0  0  0  0  0  0
   -5.4660   20.5130  -32.7730 C   0  0  0  0  0  0  0  0  0  0  0  0
   -5.4730   21.6084  -32.6727 H   0  0  0  0  0  0  0  0  0  0  0  0
   -6.5180   19.7550  -32.2070 C   0  0  0  0  0  0  0  0  0  0  0  0
   -6.5070   23.6100  -31.6840 C   0  0  0  0  0  0  0  0  0  0  0  0
   -7.5170   23.8310  -32.7780 C   0  0  0  0  0  0  0  0  0  0  0  0
   -8.4994   24.0459  -32.3321 H   0  0  0  0  0  0  0  0  0  0  0  0
   -7.2029   24.6817  -33.4007 H   0  0  0  0  0  0  0  0  0  0  0  0
   -7.5868   22.9269  -33.4007 H   0  0  0  0  0  0  0  0  0  0  0  0
   -5.4780   24.5460  -31.5040 C   0  0  0  0  0  0  0  0  0  0  0  0
   -5.4358   25.4377  -32.1467 H   0  0  0  0  0  0  0  0  0  0  0  0
   -4.5060   24.3590  -30.5180 C   0  0  0  0  0  0  0  0  0  0  0  0
   -3.4810   25.2920  -30.3980 O   0  0  0  0  0  0  0  0  0  0  0  0
  1  2  1  0
  2  3  2  0
  3  4  1  0
  3  5  1  0
  5  6  1  0
  6  7  1  0
  6  8  1  0
  6  9  1  0
  5 10  2  0
 10 11  1  0
 10 12  1  0
 12 13  1  0
 12 14  2  0
 14 15  1  0
 15 16  2  0
 16 17  1  0
 16 18  1  0
 18 19  1  0
 19 20  2  0
 20 21  1  0
 21 22  1  0
 21 23  2  0
 23 24  1  0
 23 25  1  0
 25 26  1  0
 25 27  1  0
 27 28  2  0
 28 29  1  0
 28 30  1  0
 30 31  1  0
 30 32  2  0
 32 33  1  0
 32 34  1  0
 34 35  1  0
 34 36  2  0
 18 37  2  0
 37 38  1  0
 38 39  1  0
 38 40  1  0
 38 41  1  0
 37 42  1  0
 42 43  1  0
 42 44  2  0
 44 45  1  0
 14  2  1  0
 44 15  1  0
 36 20  1  0
 36 27  1  0
M  CHG  1  45  -1
M  END
>  <UniqueID>  (43) 
40

>  <SMILES>  (43) 
Cc1ccc(-c2cc(/N=c3/cc[nH]c4cc(Cl)ccc34)c(C)cc2[O-])cc1

>  <Energy>  (43) 
79.1184812652355

>  <Genealogy>  (43) 
Cc1ccc(-c2cc(N=c3cc[nH]c4cc(Cl)ccc34)c(C)cc2[O-])cc1 (protonated)
Cc1ccc(-c2cc(/N=c3/cc[nH]c4cc(Cl)ccc34)c(C)cc2[O-])cc1 (cis-trans isomerization)
Cc1ccc(-c2cc(/N=c3/cc[nH]c4cc(Cl)ccc34)c(C)cc2[O-])cc1 (3D coordinates assigned)
Cc1ccc(-c2cc(/N=c3/cc[nH]c4cc(Cl)ccc34)c(C)cc2[O-])cc1 (optimized conformer: 79.1184812652355 kcal/mol)

>  <smiles>  (43) 
Cc1ccc(-c2cc(N=c3cc[nH]c4cc(Cl)ccc34)c(C)cc2O)cc1

>  <score_type>  (43) 
oracle

>  <origin>  (43) 
adgpu

>  <m_score__min__energy>  (43) 
-12.109999999999999

>  <m_primary>  (43) 
energy

$$$$
43:0
     RDKit          3D

 43 45  0  0  0  0  0  0  0  0999 V2000
   -8.7030   21.2460  -30.3150 O   0  0  0  0  0  0  0  0  0  0  0  0
   -8.1980   21.8220  -31.6100 S   0  0  0  0  0  0  0  0  0  0  0  0
   -9.2940   22.6760  -32.1840 O   0  0  0  0  0  0  0  0  0  0  0  0
   -6.8000   22.8410  -31.2700 C   0  0  0  0  0  0  0  0  0  0  0  0
   -6.8630   24.2210  -31.4980 C   0  0  0  0  0  0  0  0  0  0  0  0
   -5.7580   25.0280  -31.2210 C   0  0  0  0  0  0  0  0  0  0  0  0
   -4.5860   24.4680  -30.7020 C   0  0  0  0  0  0  0  0  0  0  0  0
   -3.5010   25.2950  -30.4400 O   0  0  0  0  0  0  0  0  0  0  0  0
   -4.5200   23.0840  -30.4490 C   0  0  0  0  0  0  0  0  0  0  0  0
   -3.0510   22.3320  -29.8010 S   0  0  0  0  0  0  0  0  0  0  0  0
   -3.3270   20.8770  -29.5410 O   0  0  0  0  0  0  0  0  0  0  0  0
   -1.9510   22.4150  -30.8220 O   0  0  0  0  0  0  0  0  0  0  0  0
   -2.5060   23.0760  -28.3170 N   0  0  0  0  0  0  0  0  0  0  0  0
   -3.5980   23.7150  -27.5870 C   0  0  0  0  0  0  0  0  0  0  0  0
   -2.9680   24.8090  -26.7370 C   0  0  0  0  0  0  0  0  0  0  0  0
   -1.5950   25.0540  -27.3470 C   0  0  0  0  0  0  0  0  0  0  0  0
   -1.5270   24.1340  -28.5550 C   0  0  0  0  0  0  0  0  0  0  0  0
   -5.6340   22.2800  -30.7350 C   0  0  0  0  0  0  0  0  0  0  0  0
   -7.8480   20.5150  -32.7210 N   0  0  0  0  0  0  0  0  0  0  0  0
   -6.4550   20.0350  -32.6440 C   0  0  0  0  0  0  0  0  0  0  0  0
   -6.2830   18.8770  -31.6530 C   0  0  0  0  0  0  0  0  0  0  0  0
   -7.2010   17.8420  -31.9290 O   0  0  0  0  0  0  0  0  0  0  0  0
   -8.5090   18.3180  -31.7100 C   0  0  0  0  0  0  0  0  0  0  0  0
   -8.8560   19.4370  -32.7020 C   0  0  0  0  0  0  0  0  0  0  0  0
   -7.7848   24.6701  -31.8961 H   0  0  0  0  0  0  0  0  0  0  0  0
   -5.8093   26.1101  -31.4119 H   0  0  0  0  0  0  0  0  0  0  0  0
   -4.3221   24.1506  -28.2912 H   0  0  0  0  0  0  0  0  0  0  0  0
   -4.1382   22.9879  -26.9629 H   0  0  0  0  0  0  0  0  0  0  0  0
   -3.5757   25.7250  -26.7763 H   0  0  0  0  0  0  0  0  0  0  0  0
   -2.8994   24.5167  -25.6788 H   0  0  0  0  0  0  0  0  0  0  0  0
   -1.4918   26.1047  -27.6558 H   0  0  0  0  0  0  0  0  0  0  0  0
   -0.7846   24.8534  -26.6307 H   0  0  0  0  0  0  0  0  0  0  0  0
   -1.7795   24.6881  -29.4711 H   0  0  0  0  0  0  0  0  0  0  0  0
   -0.5159   23.7219  -28.6887 H   0  0  0  0  0  0  0  0  0  0  0  0
   -5.5908   21.1988  -30.5370 H   0  0  0  0  0  0  0  0  0  0  0  0
   -6.1447   19.6931  -33.6424 H   0  0  0  0  0  0  0  0  0  0  0  0
   -5.8341   20.8711  -32.2898 H   0  0  0  0  0  0  0  0  0  0  0  0
   -5.2594   18.4823  -31.7334 H   0  0  0  0  0  0  0  0  0  0  0  0
   -6.4694   19.2522  -30.6359 H   0  0  0  0  0  0  0  0  0  0  0  0
   -9.2205   17.4890  -31.8384 H   0  0  0  0  0  0  0  0  0  0  0  0
   -8.5706   18.7213  -30.6884 H   0  0  0  0  0  0  0  0  0  0  0  0
   -8.9266   19.0036  -33.7106 H   0  0  0  0  0  0  0  0  0  0  0  0
   -9.8103   19.8805  -32.3817 H   0  0  0  0  0  0  0  0  0  0  0  0
  1  2  2  0
  2  3  2  0
  2  4  1  0
  4  5  2  0
  5  6  1  0
  6  7  2  0
  7  8  1  0
  7  9  1  0
  9 10  1  0
 10 11  2  0
 10 12  2  0
 10 13  1  0
 13 14  1  0
 14 15  1  0
 15 16  1  0
 16 17  1  0
  9 18  2  0
  2 19  1  0
 19 20  1  0
 20 21  1  0
 21 22  1  0
 22 23  1  0
 23 24  1  0
 18  4  1  0
 24 19  1  0
 17 13  1  0
  5 25  1  0
  6 26  1  0
 14 27  1  0
 14 28  1  0
 15 29  1  0
 15 30  1  0
 16 31  1  0
 16 32  1  0
 17 33  1  0
 17 34  1  0
 18 35  1  0
 20 36  1  0
 20 37  1  0
 21 38  1  0
 21 39  1  0
 23 40  1  0
 23 41  1  0
 24 42  1  0
 24 43  1  0
M  CHG  1   8  -1
M  END
>  <UniqueID>  (44) 
41

>  <SMILES>  (44) 
O=S(=O)(c1ccc([O-])c(S(=O)(=O)N2CCCC2)c1)N1CCOCC1

>  <Energy>  (44) 
50.40475960005048

>  <Genealogy>  (44) 
O=S(=O)(c1ccc([O-])c(S(=O)(=O)N2CCCC2)c1)N1CCOCC1 (protonated)
O=S(=O)(c1ccc([O-])c(S(=O)(=O)N2CCCC2)c1)N1CCOCC1 (3D coordinates assigned)
O=S(=O)(c1ccc([O-])c(S(=O)(=O)N2CCCC2)c1)N1CCOCC1 (nonaromatic ring conformer: 50.40475960005048 kcal/mol)

>  <smiles>  (44) 
O=S(=O)(c1ccc(O)c(S(=O)(=O)N2CCCC2)c1)N1CCOCC1

>  <score_type>  (44) 
oracle

>  <origin>  (44) 
adgpu

>  <m_score__min__energy>  (44) 
-11.58

>  <m_primary>  (44) 
energy

$$$$
44:0
     RDKit          3D

 44 46  0  0  0  0  0  0  0  0999 V2000
   -9.7950   21.5610  -30.7460 C   0  0  0  0  0  0  0  0  0  0  0  0
   -8.3950   21.5390  -30.4880 O   0  0  0  0  0  0  0  0  0  0  0  0
   -7.5230   22.6080  -30.7490 C   0  0  0  0  0  0  0  0  0  0  0  0
   -7.2170   23.5810  -29.7770 C   0  0  0  0  0  0  0  0  0  0  0  0
   -6.3490   24.6330  -30.0800 C   0  0  0  0  0  0  0  0  0  0  0  0
   -5.7840   24.7290  -31.3530 C   0  0  0  0  0  0  0  0  0  0  0  0
   -6.0800   23.7700  -32.3240 C   0  0  0  0  0  0  0  0  0  0  0  0
   -6.9390   22.6970  -32.0230 C   0  0  0  0  0  0  0  0  0  0  0  0
   -7.2660   21.7280  -32.9850 O   0  0  0  0  0  0  0  0  0  0  0  0
   -7.1410   20.3400  -32.8180 C   0  0  0  0  0  0  0  0  0  0  0  0
   -8.2430   19.5530  -32.4390 C   0  0  0  0  0  0  0  0  0  0  0  0
   -8.1070   18.1730  -32.2890 C   0  0  0  0  0  0  0  0  0  0  0  0
   -6.8770   17.5620  -32.5300 C   0  0  0  0  0  0  0  0  0  0  0  0
   -5.7800   18.3290  -32.9260 C   0  0  0  0  0  0  0  0  0  0  0  0
   -5.8970   19.7240  -33.0750 C   0  0  0  0  0  0  0  0  0  0  0  0
   -4.7710   20.5300  -33.4750 N   0  0  0  0  0  0  0  0  0  0  0  0
   -3.1390   20.2140  -32.9760 S   0  0  0  0  0  0  0  0  0  0  0  0
   -3.0740   18.8520  -32.3430 O   0  0  0  0  0  0  0  0  0  0  0  0
   -2.2400   20.2370  -34.1800 O   0  0  0  0  0  0  0  0  0  0  0  0
   -2.6000   21.4530  -31.8470 C   0  0  0  0  0  0  0  0  0  0  0  0
   -3.4850   22.4460  -31.4080 C   0  0  0  0  0  0  0  0  0  0  0  0
   -3.0500   23.4340  -30.5200 C   0  0  0  0  0  0  0  0  0  0  0  0
   -1.7210   23.4420  -30.0580 C   0  0  0  0  0  0  0  0  0  0  0  0
   -1.2550   24.4870  -29.1190 C   0  0  0  0  0  0  0  0  0  0  0  0
   -0.1990   24.3240  -28.4520 O   0  0  0  0  0  0  0  0  0  0  0  0
   -1.9780   25.6650  -28.9620 O   0  0  0  0  0  0  0  0  0  0  0  0
   -0.8400   22.4390  -30.5000 C   0  0  0  0  0  0  0  0  0  0  0  0
   -1.2780   21.4520  -31.3860 C   0  0  0  0  0  0  0  0  0  0  0  0
  -10.3435   21.5696  -29.7925 H   0  0  0  0  0  0  0  0  0  0  0  0
  -10.0475   22.4632  -31.3224 H   0  0  0  0  0  0  0  0  0  0  0  0
  -10.0757   20.6672  -31.3224 H   0  0  0  0  0  0  0  0  0  0  0  0
   -7.6639   23.5120  -28.7742 H   0  0  0  0  0  0  0  0  0  0  0  0
   -6.1105   25.3864  -29.3148 H   0  0  0  0  0  0  0  0  0  0  0  0
   -5.1050   25.5609  -31.5914 H   0  0  0  0  0  0  0  0  0  0  0  0
   -5.6397   23.8538  -33.3285 H   0  0  0  0  0  0  0  0  0  0  0  0
   -9.2185   20.0287  -32.2597 H   0  0  0  0  0  0  0  0  0  0  0  0
   -8.9709   17.5661  -31.9803 H   0  0  0  0  0  0  0  0  0  0  0  0
   -6.7710   16.4740  -32.4079 H   0  0  0  0  0  0  0  0  0  0  0  0
   -4.8152   17.8389  -33.1235 H   0  0  0  0  0  0  0  0  0  0  0  0
   -4.9330   21.4130  -34.0070 H   0  0  0  0  0  0  0  0  0  0  0  0
   -4.5260   22.4483  -31.7633 H   0  0  0  0  0  0  0  0  0  0  0  0
   -3.7513   24.2103  -30.1802 H   0  0  0  0  0  0  0  0  0  0  0  0
    0.2013   22.4317  -30.1455 H   0  0  0  0  0  0  0  0  0  0  0  0
   -0.5812   20.6704  -31.7231 H   0  0  0  0  0  0  0  0  0  0  0  0
  1  2  1  0
  2  3  1  0
  3  4  2  0
  4  5  1  0
  5  6  2  0
  6  7  1  0
  7  8  2  0
  8  9  1  0
  9 10  1  0
 10 11  2  0
 11 12  1  0
 12 13  2  0
 13 14  1  0
 14 15  2  0
 15 16  1  0
 16 17  1  0
 17 18  2  0
 17 19  2  0
 17 20  1  0
 20 21  2  0
 21 22  1  0
 22 23  2  0
 23 24  1  0
 24 25  2  0
 24 26  1  0
 23 27  1  0
 27 28  2  0
  8  3  1  0
 15 10  1  0
 28 20  1  0
  1 29  1  0
  1 30  1  0
  1 31  1  0
  4 32  1  0
  5 33  1  0
  6 34  1  0
  7 35  1  0
 11 36  1  0
 12 37  1  0
 13 38  1  0
 14 39  1  0
 16 40  1  0
 21 41  1  0
 22 42  1  0
 27 43  1  0
 28 44  1  0
M  CHG  1  26  -1
M  END
>  <UniqueID>  (45) 
42

>  <SMILES>  (45) 
COc1ccccc1Oc1ccccc1NS(=O)(=O)c1ccc(C(=O)[O-])cc1

>  <Energy>  (45) 
56.484598146823366

>  <Genealogy>  (45) 
COc1ccccc1Oc1ccccc1NS(=O)(=O)c1ccc(C(=O)[O-])cc1 (protonated)
COc1ccccc1Oc1ccccc1NS(=O)(=O)c1ccc(C(=O)[O-])cc1 (3D coordinates assigned)
COc1ccccc1Oc1ccccc1NS(=O)(=O)c1ccc(C(=O)[O-])cc1 (optimized conformer: 56.484598146823366 kcal/mol)

>  <smiles>  (45) 
COc1ccccc1Oc1ccccc1NS(=O)(=O)c1ccc(C(=O)O)cc1

>  <score_type>  (45) 
oracle

>  <origin>  (45) 
adgpu

>  <m_score__min__energy>  (45) 
-10.58

>  <m_primary>  (45) 
energy

$$$$
45:0
     RDKit          3D

 63 67  0  0  0  0  0  0  0  0999 V2000
   -9.1090   19.2720  -31.5840 C   0  0  0  0  0  0  0  0  0  0  0  0
   -8.3300   20.5350  -31.8050 C   0  0  0  0  0  0  0  0  0  0  0  0
   -8.9870   21.7740  -31.8510 C   0  0  0  0  0  0  0  0  0  0  0  0
   -8.2560   22.9520  -32.0320 C   0  0  0  0  0  0  0  0  0  0  0  0
   -6.8650   22.9020  -32.1620 C   0  0  0  0  0  0  0  0  0  0  0  0
   -6.1990   21.6700  -32.1050 C   0  0  0  0  0  0  0  0  0  0  0  0
   -4.7690   21.6160  -32.2630 N   0  0  0  0  0  0  0  0  0  0  0  0
   -3.9570   22.4780  -31.5640 C   0  0  0  0  0  0  0  0  0  0  0  0
   -4.5190   23.5150  -30.6290 C   0  0  0  0  0  0  0  0  0  0  0  0
   -3.5690   24.6180  -30.5090 N   0  0  0  0  0  0  0  0  0  0  0  0
   -2.7780   24.5550  -28.9640 S   0  0  0  0  0  0  0  0  0  0  0  0
   -1.7050   25.6060  -28.9160 O   0  0  0  0  0  0  0  0  0  0  0  0
   -3.7750   24.8430  -27.8760 O   0  0  0  0  0  0  0  0  0  0  0  0
   -2.0490   22.9710  -28.7140 C   0  0  0  0  0  0  0  0  0  0  0  0
   -2.8260   21.9140  -28.2240 C   0  0  0  0  0  0  0  0  0  0  0  0
   -2.2490   20.6600  -28.0030 C   0  0  0  0  0  0  0  0  0  0  0  0
   -0.8880   20.4510  -28.2700 C   0  0  0  0  0  0  0  0  0  0  0  0
   -0.1630   18.8620  -28.0070 S   0  0  0  0  0  0  0  0  0  0  0  0
    1.2480   19.0380  -27.5180 O   0  0  0  0  0  0  0  0  0  0  0  0
   -0.9370   18.1340  -26.9440 O   0  0  0  0  0  0  0  0  0  0  0  0
   -0.1500   17.9090  -29.4730 N   0  0  0  0  0  0  0  0  0  0  0  0
    0.0980   18.7690  -30.6450 C   0  0  0  0  0  0  0  0  0  0  0  0
    0.6060   17.9340  -31.8320 C   0  0  0  0  0  0  0  0  0  0  0  0
    1.8230   17.2410  -31.5760 O   0  0  0  0  0  0  0  0  0  0  0  0
    2.0730   17.0120  -30.1960 C   0  0  0  0  0  0  0  0  0  0  0  0
    0.7920   16.7720  -29.3780 C   0  0  0  0  0  0  0  0  0  0  0  0
   -0.1080   21.5150  -28.7460 C   0  0  0  0  0  0  0  0  0  0  0  0
   -0.6860   22.7690  -28.9670 C   0  0  0  0  0  0  0  0  0  0  0  0
   -2.6100   22.4300  -31.7350 N   0  0  0  0  0  0  0  0  0  0  0  0
   -2.0300   21.5360  -32.5720 C   0  0  0  0  0  0  0  0  0  0  0  0
   -0.6390   21.5140  -32.7170 C   0  0  0  0  0  0  0  0  0  0  0  0
   -0.0400   20.5920  -33.5800 C   0  0  0  0  0  0  0  0  0  0  0  0
   -0.8290   19.6910  -34.3010 C   0  0  0  0  0  0  0  0  0  0  0  0
   -2.2200   19.7070  -34.1610 C   0  0  0  0  0  0  0  0  0  0  0  0
   -2.8320   20.6320  -33.2940 C   0  0  0  0  0  0  0  0  0  0  0  0
   -4.2250   20.6940  -33.1200 C   0  0  0  0  0  0  0  0  0  0  0  0
   -4.9750   19.9000  -33.7570 O   0  0  0  0  0  0  0  0  0  0  0  0
   -6.9320   20.4910  -31.9100 C   0  0  0  0  0  0  0  0  0  0  0  0
   -9.2192   19.0934  -30.5042 H   0  0  0  0  0  0  0  0  0  0  0  0
  -10.1039   19.3698  -32.0429 H   0  0  0  0  0  0  0  0  0  0  0  0
   -8.5751   18.4268  -32.0429 H   0  0  0  0  0  0  0  0  0  0  0  0
  -10.0809   21.8187  -31.7443 H   0  0  0  0  0  0  0  0  0  0  0  0
   -8.7765   23.9202  -32.0722 H   0  0  0  0  0  0  0  0  0  0  0  0
   -6.2929   23.8299  -32.3091 H   0  0  0  0  0  0  0  0  0  0  0  0
   -5.4723   23.8921  -31.0278 H   0  0  0  0  0  0  0  0  0  0  0  0
   -4.6915   23.0662  -29.6396 H   0  0  0  0  0  0  0  0  0  0  0  0
   -3.8940   22.0710  -28.0123 H   0  0  0  0  0  0  0  0  0  0  0  0
   -2.8649   19.8338  -27.6181 H   0  0  0  0  0  0  0  0  0  0  0  0
   -0.8388   19.2701  -30.9303 H   0  0  0  0  0  0  0  0  0  0  0  0
    0.8636   19.5139  -30.3823 H   0  0  0  0  0  0  0  0  0  0  0  0
   -0.1658   17.1935  -32.0890 H   0  0  0  0  0  0  0  0  0  0  0  0
    0.8084   18.6385  -32.6522 H   0  0  0  0  0  0  0  0  0  0  0  0
    2.7195   16.1272  -30.1002 H   0  0  0  0  0  0  0  0  0  0  0  0
    2.5503   17.9188  -29.7961 H   0  0  0  0  0  0  0  0  0  0  0  0
    0.2944   15.8666  -29.7556 H   0  0  0  0  0  0  0  0  0  0  0  0
    1.0803   16.6581  -28.3226 H   0  0  0  0  0  0  0  0  0  0  0  0
    0.9628   21.3624  -28.9463 H   0  0  0  0  0  0  0  0  0  0  0  0
   -0.0686   23.5992  -29.3406 H   0  0  0  0  0  0  0  0  0  0  0  0
   -0.0161   22.2227  -32.1515 H   0  0  0  0  0  0  0  0  0  0  0  0
    1.0542   20.5754  -33.6920 H   0  0  0  0  0  0  0  0  0  0  0  0
   -0.3543   18.9676  -34.9802 H   0  0  0  0  0  0  0  0  0  0  0  0
   -2.8373   18.9956  -34.7293 H   0  0  0  0  0  0  0  0  0  0  0  0
   -6.4081   19.5264  -31.8390 H   0  0  0  0  0  0  0  0  0  0  0  0
  1  2  1  0
  2  3  2  0
  3  4  1  0
  4  5  2  0
  5  6  1  0
  6  7  1  0
  7  8  1  0
  8  9  1  0
  9 10  1  0
 10 11  1  0
 11 12  2  0
 11 13  2  0
 11 14  1  0
 14 15  2  0
 15 16  1  0
 16 17  2  0
 17 18  1  0
 18 19  2  0
 18 20  2  0
 18 21  1  0
 21 22  1  0
 22 23  1  0
 23 24  1  0
 24 25  1  0
 25 26  1  0
 17 27  1  0
 27 28  2  0
  8 29  2  0
 29 30  1  0
 30 31  2  0
 31 32  1  0
 32 33  2  0
 33 34  1  0
 34 35  2  0
 35 36  1  0
 36 37  2  0
  6 38  2  0
 38  2  1  0
 36  7  1  0
 28 14  1  0
 35 30  1  0
 26 21  1  0
  1 39  1  0
  1 40  1  0
  1 41  1  0
  3 42  1  0
  4 43  1  0
  5 44  1  0
  9 45  1  0
  9 46  1  0
 15 47  1  0
 16 48  1  0
 22 49  1  0
 22 50  1  0
 23 51  1  0
 23 52  1  0
 25 53  1  0
 25 54  1  0
 26 55  1  0
 26 56  1  0
 27 57  1  0
 28 58  1  0
 31 59  1  0
 32 60  1  0
 33 61  1  0
 34 62  1  0
 38 63  1  0
M  CHG  1  10  -1
M  END
>  <UniqueID>  (46) 
43

>  <SMILES>  (46) 
Cc1cccc(-n2c(C[N-]S(=O)(=O)c3ccc(S(=O)(=O)N4CCOCC4)cc3)nc3ccccc3c2=O)c1

>  <Energy>  (46) 
90.27314984548552

>  <Genealogy>  (46) 
Cc1cccc(-n2c(C[N-]S(=O)(=O)c3ccc(S(=O)(=O)N4CCOCC4)cc3)nc3ccccc3c2=O)c1 (protonated)
Cc1cccc(-n2c(C[N-]S(=O)(=O)c3ccc(S(=O)(=O)N4CCOCC4)cc3)nc3ccccc3c2=O)c1 (3D coordinates assigned)
Cc1cccc(-n2c(C[N-]S(=O)(=O)c3ccc(S(=O)(=O)N4CCOCC4)cc3)nc3ccccc3c2=O)c1 (nonaromatic ring conformer: 90.27314984548552 kcal/mol)

>  <smiles>  (46) 
Cc1cccc(-n2c(CNS(=O)(=O)c3ccc(S(=O)(=O)N4CCOCC4)cc3)nc3ccccc3c2=O)c1

>  <score_type>  (46) 
oracle

>  <origin>  (46) 
adgpu

>  <m_score__min__energy>  (46) 
-12.369999999999999

>  <m_primary>  (46) 
energy

$$$$
46:0
     RDKit          3D

 42 44  0  0  0  0  0  0  0  0999 V2000
    1.3840   28.3340  -22.7640 C   0  0  0  0  0  0  0  0  0  0  0  0
    1.0750   29.1130  -24.3320 S   0  0  0  0  0  0  0  0  0  0  0  0
    2.3820   29.4920  -24.9710 O   0  0  0  0  0  0  0  0  0  0  0  0
    0.2610   30.3590  -24.1220 O   0  0  0  0  0  0  0  0  0  0  0  0
    0.2010   27.9970  -25.3760 C   0  0  0  0  0  0  0  0  0  0  0  0
   -0.5360   26.9440  -24.8210 C   0  0  0  0  0  0  0  0  0  0  0  0
   -1.2420   26.0640  -25.6480 C   0  0  0  0  0  0  0  0  0  0  0  0
   -1.2330   26.2410  -27.0440 C   0  0  0  0  0  0  0  0  0  0  0  0
   -1.9270   25.3380  -27.9200 N   0  0  0  0  0  0  0  0  0  0  0  0
   -1.2780   24.3260  -28.7130 C   0  0  0  0  0  0  0  0  0  0  0  0
   -0.0280   24.1730  -28.6510 O   0  0  0  0  0  0  0  0  0  0  0  0
   -2.0610   23.4550  -29.6160 C   0  0  0  0  0  0  0  0  0  0  0  0
   -1.7680   22.0840  -29.6660 C   0  0  0  0  0  0  0  0  0  0  0  0
   -2.4840   21.2350  -30.5150 C   0  0  0  0  0  0  0  0  0  0  0  0
   -3.5140   21.7400  -31.3260 C   0  0  0  0  0  0  0  0  0  0  0  0
   -4.2720   20.8400  -32.2320 C   0  0  0  0  0  0  0  0  0  0  0  0
   -3.6060   19.8490  -32.9800 C   0  0  0  0  0  0  0  0  0  0  0  0
   -4.3220   19.0030  -33.8320 C   0  0  0  0  0  0  0  0  0  0  0  0
   -5.7080   19.1350  -33.9500 C   0  0  0  0  0  0  0  0  0  0  0  0
   -6.4000   18.3140  -34.7760 F   0  0  0  0  0  0  0  0  0  0  0  0
   -6.3800   20.1140  -33.2130 C   0  0  0  0  0  0  0  0  0  0  0  0
   -5.6690   20.9610  -32.3590 C   0  0  0  0  0  0  0  0  0  0  0  0
   -3.8210   23.1090  -31.2600 C   0  0  0  0  0  0  0  0  0  0  0  0
   -3.1130   23.9610  -30.4040 C   0  0  0  0  0  0  0  0  0  0  0  0
   -3.4860   25.2980  -30.3260 O   0  0  0  0  0  0  0  0  0  0  0  0
   -0.4770   27.2870  -27.5940 C   0  0  0  0  0  0  0  0  0  0  0  0
    0.2270   28.1660  -26.7660 C   0  0  0  0  0  0  0  0  0  0  0  0
    1.1105   29.0235  -21.9518 H   0  0  0  0  0  0  0  0  0  0  0  0
    0.7815   27.4171  -22.6850 H   0  0  0  0  0  0  0  0  0  0  0  0
    2.4512   28.0794  -22.6850 H   0  0  0  0  0  0  0  0  0  0  0  0
   -0.5600   26.8080  -23.7297 H   0  0  0  0  0  0  0  0  0  0  0  0
   -1.8065   25.2302  -25.2052 H   0  0  0  0  0  0  0  0  0  0  0  0
   -2.9690   25.3960  -27.9360 H   0  0  0  0  0  0  0  0  0  0  0  0
   -0.9683   21.6736  -29.0319 H   0  0  0  0  0  0  0  0  0  0  0  0
   -2.2390   20.1631  -30.5483 H   0  0  0  0  0  0  0  0  0  0  0  0
   -2.5149   19.7402  -32.8930 H   0  0  0  0  0  0  0  0  0  0  0  0
   -3.7930   18.2316  -34.4109 H   0  0  0  0  0  0  0  0  0  0  0  0
   -7.4712   20.2180  -33.3055 H   0  0  0  0  0  0  0  0  0  0  0  0
   -6.2049   21.7285  -31.7813 H   0  0  0  0  0  0  0  0  0  0  0  0
   -4.6270   23.5164  -31.8881 H   0  0  0  0  0  0  0  0  0  0  0  0
   -0.4379   27.4165  -28.6857 H   0  0  0  0  0  0  0  0  0  0  0  0
    0.8030   28.9927  -27.2074 H   0  0  0  0  0  0  0  0  0  0  0  0
  1  2  1  0
  2  3  2  0
  2  4  2  0
  2  5  1  0
  5  6  2  0
  6  7  1  0
  7  8  2  0
  8  9  1  0
  9 10  1  0
 10 11  2  0
 10 12  1  0
 12 13  2  0
 13 14  1  0
 14 15  2  0
 15 16  1  0
 16 17  2  0
 17 18  1  0
 18 19  2  0
 19 20  1  0
 19 21  1  0
 21 22  2  0
 15 23  1  0
 23 24  2  0
 24 25  1  0
  8 26  1  0
 26 27  2  0
 27  5  1  0
 24 12  1  0
 22 16  1  0
  1 28  1  0
  1 29  1  0
  1 30  1  0
  6 31  1  0
  7 32  1  0
  9 33  1  0
 13 34  1  0
 14 35  1  0
 17 36  1  0
 18 37  1  0
 21 38  1  0
 22 39  1  0
 23 40  1  0
 26 41  1  0
 27 42  1  0
M  CHG  1  25  -1
M  END
>  <UniqueID>  (47) 
44

>  <SMILES>  (47) 
CS(=O)(=O)c1ccc(NC(=O)c2ccc(-c3ccc(F)cc3)cc2[O-])cc1

>  <Energy>  (47) 
56.517064110684984

>  <Genealogy>  (47) 
CS(=O)(=O)c1ccc(NC(=O)c2ccc(-c3ccc(F)cc3)cc2[O-])cc1 (protonated)
CS(=O)(=O)c1ccc(NC(=O)c2ccc(-c3ccc(F)cc3)cc2[O-])cc1 (3D coordinates assigned)
CS(=O)(=O)c1ccc(NC(=O)c2ccc(-c3ccc(F)cc3)cc2[O-])cc1 (optimized conformer: 56.517064110684984 kcal/mol)

>  <smiles>  (47) 
CS(=O)(=O)c1ccc(NC(=O)c2ccc(-c3ccc(F)cc3)cc2O)cc1

>  <score_type>  (47) 
oracle

>  <origin>  (47) 
adgpu

>  <m_score__min__energy>  (47) 
-11.15

>  <m_primary>  (47) 
energy

$$$$
47:0
     RDKit          3D

 63 66  0  0  0  0  0  0  0  0999 V2000
   -9.4640   22.3250  -31.5860 C   0  0  0  0  0  0  0  0  0  0  0  0
   -8.6910   21.1280  -32.0750 C   0  0  0  0  0  0  0  0  0  0  0  0
   -9.3870   19.9230  -32.2800 C   0  0  0  0  0  0  0  0  0  0  0  0
   -8.7200   18.7800  -32.7180 C   0  0  0  0  0  0  0  0  0  0  0  0
   -7.3430   18.8200  -32.9700 C   0  0  0  0  0  0  0  0  0  0  0  0
   -6.6330   17.5950  -33.4010 C   0  0  0  0  0  0  0  0  0  0  0  0
   -7.1490   16.8740  -34.2990 O   0  0  0  0  0  0  0  0  0  0  0  0
   -5.3820   17.1990  -32.8090 N   0  0  0  0  0  0  0  0  0  0  0  0
   -5.3460   16.3780  -31.5950 C   0  0  0  0  0  0  0  0  0  0  0  0
   -4.1530   17.7200  -33.3400 C   0  0  0  0  0  0  0  0  0  0  0  0
   -3.5730   18.8990  -32.8290 C   0  0  0  0  0  0  0  0  0  0  0  0
   -4.2350   19.5850  -31.7480 N   0  0  0  0  0  0  0  0  0  0  0  0
   -2.3840   19.3660  -33.3590 N   0  0  0  0  0  0  0  0  0  0  0  0
   -1.7420   20.5970  -32.8440 C   0  0  0  0  0  0  0  0  0  0  0  0
   -1.3880   20.4580  -31.3830 C   0  0  0  0  0  0  0  0  0  0  0  0
   -0.5200   19.4340  -30.9580 C   0  0  0  0  0  0  0  0  0  0  0  0
   -0.1790   19.3120  -29.6050 C   0  0  0  0  0  0  0  0  0  0  0  0
   -0.7010   20.2070  -28.6680 C   0  0  0  0  0  0  0  0  0  0  0  0
   -1.5550   21.2350  -29.0810 C   0  0  0  0  0  0  0  0  0  0  0  0
   -1.8940   21.3630  -30.4320 C   0  0  0  0  0  0  0  0  0  0  0  0
   -1.7830   18.6660  -34.3820 C   0  0  0  0  0  0  0  0  0  0  0  0
   -0.6950   19.0590  -34.8850 O   0  0  0  0  0  0  0  0  0  0  0  0
   -2.3490   17.5350  -34.8720 N   0  0  0  0  0  0  0  0  0  0  0  0
   -3.5110   17.0520  -34.3790 C   0  0  0  0  0  0  0  0  0  0  0  0
   -4.0050   16.0000  -34.8670 O   0  0  0  0  0  0  0  0  0  0  0  0
   -6.6400   20.0160  -32.7600 C   0  0  0  0  0  0  0  0  0  0  0  0
   -7.3000   21.1860  -32.3480 C   0  0  0  0  0  0  0  0  0  0  0  0
   -6.3650   22.6850  -32.1100 S   0  0  0  0  0  0  0  0  0  0  0  0
   -4.9840   22.5000  -32.6740 O   0  0  0  0  0  0  0  0  0  0  0  0
   -7.0620   23.7830  -32.8640 O   0  0  0  0  0  0  0  0  0  0  0  0
   -6.2400   23.1340  -30.4170 N   0  0  0  0  0  0  0  0  0  0  0  0
   -6.6570   24.5360  -30.1980 C   0  0  0  0  0  0  0  0  0  0  0  0
   -5.5820   25.5610  -30.6450 C   0  0  0  0  0  0  0  0  0  0  0  0
   -4.3030   24.9910  -30.8430 O   0  0  0  0  0  0  0  0  0  0  0  0
   -4.0020   24.1110  -29.7840 C   0  0  0  0  0  0  0  0  0  0  0  0
   -4.8870   22.8540  -29.8720 C   0  0  0  0  0  0  0  0  0  0  0  0
   -9.4695   22.3335  -30.4860 H   0  0  0  0  0  0  0  0  0  0  0  0
   -8.9890   23.2450  -31.9574 H   0  0  0  0  0  0  0  0  0  0  0  0
  -10.4980   22.2705  -31.9574 H   0  0  0  0  0  0  0  0  0  0  0  0
  -10.4701   19.8821  -32.0925 H   0  0  0  0  0  0  0  0  0  0  0  0
   -9.2773   17.8433  -32.8662 H   0  0  0  0  0  0  0  0  0  0  0  0
   -5.3746   17.0307  -30.7100 H   0  0  0  0  0  0  0  0  0  0  0  0
   -6.2155   15.7043  -31.5820 H   0  0  0  0  0  0  0  0  0  0  0  0
   -4.4209   15.7830  -31.5820 H   0  0  0  0  0  0  0  0  0  0  0  0
   -4.5790   19.1040  -30.8930 H   0  0  0  0  0  0  0  0  0  0  0  0
   -4.3930   20.6180  -31.7740 H   0  0  0  0  0  0  0  0  0  0  0  0
   -0.8242   20.7904  -33.4187 H   0  0  0  0  0  0  0  0  0  0  0  0
   -2.4508   21.4311  -32.9528 H   0  0  0  0  0  0  0  0  0  0  0  0
   -0.1076   18.7263  -31.6923 H   0  0  0  0  0  0  0  0  0  0  0  0
    0.5006   18.5105  -29.2799 H   0  0  0  0  0  0  0  0  0  0  0  0
   -0.4402   20.1033  -27.6044 H   0  0  0  0  0  0  0  0  0  0  0  0
   -1.9601   21.9430  -28.3430 H   0  0  0  0  0  0  0  0  0  0  0  0
   -2.5608   22.1768  -30.7531 H   0  0  0  0  0  0  0  0  0  0  0  0
   -5.5521   20.0381  -32.9209 H   0  0  0  0  0  0  0  0  0  0  0  0
   -6.9330   22.5400  -29.9030 H   0  0  0  0  0  0  0  0  0  0  0  0
   -7.5784   24.7217  -30.7694 H   0  0  0  0  0  0  0  0  0  0  0  0
   -6.8123   24.6698  -29.1173 H   0  0  0  0  0  0  0  0  0  0  0  0
   -5.9092   26.0178  -31.5907 H   0  0  0  0  0  0  0  0  0  0  0  0
   -5.4840   26.2991  -29.8353 H   0  0  0  0  0  0  0  0  0  0  0  0
   -2.9441   23.8160  -29.8457 H   0  0  0  0  0  0  0  0  0  0  0  0
   -4.1938   24.6198  -28.8278 H   0  0  0  0  0  0  0  0  0  0  0  0
   -4.3908   22.1210  -30.5250 H   0  0  0  0  0  0  0  0  0  0  0  0
   -5.0171   22.4708  -28.8491 H   0  0  0  0  0  0  0  0  0  0  0  0
  1  2  1  0
  2  3  2  0
  3  4  1  0
  4  5  2  0
  5  6  1  0
  6  7  2  0
  6  8  1  0
  8  9  1  0
  8 10  1  0
 10 11  2  0
 11 12  1  0
 11 13  1  0
 13 14  1  0
 14 15  1  0
 15 16  2  0
 16 17  1  0
 17 18  2  0
 18 19  1  0
 19 20  2  0
 13 21  1  0
 21 22  2  0
 21 23  1  0
 23 24  1  0
 24 25  2  0
  5 26  1  0
 26 27  2  0
 27 28  1  0
 28 29  2  0
 28 30  2  0
 28 31  1  0
 31 32  1  0
 32 33  1  0
 33 34  1  0
 34 35  1  0
 35 36  1  0
 27  2  1  0
 36 31  1  0
 24 10  1  0
 20 15  1  0
  1 37  1  0
  1 38  1  0
  1 39  1  0
  3 40  1  0
  4 41  1  0
  9 42  1  0
  9 43  1  0
  9 44  1  0
 12 45  1  0
 12 46  1  0
 14 47  1  0
 14 48  1  0
 16 49  1  0
 17 50  1  0
 18 51  1  0
 19 52  1  0
 20 53  1  0
 26 54  1  0
 31 55  1  0
 32 56  1  0
 32 57  1  0
 33 58  1  0
 33 59  1  0
 35 60  1  0
 35 61  1  0
 36 62  1  0
 36 63  1  0
M  CHG  2  23  -1  31   1
M  END
>  <UniqueID>  (48) 
45

>  <SMILES>  (48) 
Cc1ccc(C(=O)N(C)c2c(N)n(Cc3ccccc3)c(=O)[n-]c2=O)cc1S(=O)(=O)[NH+]1CCOCC1

>  <Energy>  (48) 
98.27392233342323

>  <Genealogy>  (48) 
Cc1ccc(C(=O)N(C)c2c(N)n(Cc3ccccc3)c(=O)[n-]c2=O)cc1S(=O)(=O)[NH+]1CCOCC1 (protonated)
Cc1ccc(C(=O)N(C)c2c(N)n(Cc3ccccc3)c(=O)[n-]c2=O)cc1S(=O)(=O)[NH+]1CCOCC1 (3D coordinates assigned)
Cc1ccc(C(=O)N(C)c2c(N)n(Cc3ccccc3)c(=O)[n-]c2=O)cc1S(=O)(=O)[NH+]1CCOCC1 (nonaromatic ring conformer: 98.27392233342323 kcal/mol)

>  <smiles>  (48) 
Cc1ccc(C(=O)N(C)c2c(N)n(Cc3ccccc3)c(=O)[nH]c2=O)cc1S(=O)(=O)N1CCOCC1

>  <score_type>  (48) 
oracle

>  <origin>  (48) 
adgpu

>  <m_score__min__energy>  (48) 
-10.85

>  <m_primary>  (48) 
energy

$$$$
48:0
     RDKit          3D

 67 71  0  0  0  0  0  0  0  0999 V2000
   -3.5510   21.1090  -33.8620 O   0  0  0  0  0  0  0  0  0  0  0  0
   -4.1270   20.5910  -32.8680 C   0  0  0  0  0  0  0  0  0  0  0  0
   -3.7050   19.3020  -32.4070 N   0  0  0  0  0  0  0  0  0  0  0  0
   -4.2600   18.0810  -32.9000 C   0  0  0  0  0  0  0  0  0  0  0  0
   -5.5740   17.7160  -32.5730 C   0  0  0  0  0  0  0  0  0  0  0  0
   -6.0780   16.4710  -32.9750 C   0  0  0  0  0  0  0  0  0  0  0  0
   -5.2600   15.5760  -33.6820 C   0  0  0  0  0  0  0  0  0  0  0  0
   -5.8370   13.9520  -34.0640 S   0  0  0  0  0  0  0  0  0  0  0  0
   -7.3190   13.9980  -34.3170 O   0  0  0  0  0  0  0  0  0  0  0  0
   -5.1600   13.4960  -35.3280 O   0  0  0  0  0  0  0  0  0  0  0  0
   -5.4720   12.8180  -32.7810 N   0  0  0  0  0  0  0  0  0  0  0  0
   -4.6690   11.6830  -33.2650 C   0  0  0  0  0  0  0  0  0  0  0  0
   -3.1900   12.0720  -33.5180 C   0  0  0  0  0  0  0  0  0  0  0  0
   -2.7930   13.2580  -32.8530 O   0  0  0  0  0  0  0  0  0  0  0  0
   -3.3320   13.2970  -31.5510 C   0  0  0  0  0  0  0  0  0  0  0  0
   -4.8570   13.4930  -31.6140 C   0  0  0  0  0  0  0  0  0  0  0  0
   -3.9560   15.9600  -34.0310 C   0  0  0  0  0  0  0  0  0  0  0  0
   -3.4610   17.2090  -33.6460 C   0  0  0  0  0  0  0  0  0  0  0  0
   -5.1830   21.3430  -32.1720 C   0  0  0  0  0  0  0  0  0  0  0  0
   -6.5010   20.8650  -32.1790 C   0  0  0  0  0  0  0  0  0  0  0  0
   -7.5240   21.5930  -31.5460 C   0  0  0  0  0  0  0  0  0  0  0  0
   -8.8770   21.0970  -31.5380 N   0  0  0  0  0  0  0  0  0  0  0  0
   -9.7160   21.5580  -30.7330 O   0  0  0  0  0  0  0  0  0  0  0  0
   -9.2690   20.1120  -32.4160 O   0  0  0  0  0  0  0  0  0  0  0  0
   -7.2090   22.8170  -30.9270 C   0  0  0  0  0  0  0  0  0  0  0  0
   -5.8950   23.3070  -30.9270 C   0  0  0  0  0  0  0  0  0  0  0  0
   -5.5440   24.8810  -30.2060 S   0  0  0  0  0  0  0  0  0  0  0  0
   -6.8140   25.5770  -29.8030 O   0  0  0  0  0  0  0  0  0  0  0  0
   -4.8310   25.7270  -31.2210 O   0  0  0  0  0  0  0  0  0  0  0  0
   -4.5350   24.7060  -28.8070 N   0  0  0  0  0  0  0  0  0  0  0  0
   -3.4040   23.8290  -28.7090 C   0  0  0  0  0  0  0  0  0  0  0  0
   -3.5540   22.4670  -28.3870 C   0  0  0  0  0  0  0  0  0  0  0  0
   -2.4290   21.6410  -28.2610 C   0  0  0  0  0  0  0  0  0  0  0  0
   -1.1500   22.1630  -28.5070 C   0  0  0  0  0  0  0  0  0  0  0  0
   -0.9980   23.5140  -28.8500 C   0  0  0  0  0  0  0  0  0  0  0  0
   -2.1210   24.3410  -28.9560 C   0  0  0  0  0  0  0  0  0  0  0  0
   -1.9560   25.6730  -29.3180 O   0  0  0  0  0  0  0  0  0  0  0  0
    0.0350   21.2480  -28.4040 C   0  0  0  0  0  0  0  0  0  0  0  0
   -0.1300   20.3510  -27.1760 C   0  0  0  0  0  0  0  0  0  0  0  0
   -1.4450   19.5370  -27.2000 C   0  0  0  0  0  0  0  0  0  0  0  0
   -2.5940   20.1630  -28.0190 C   0  0  0  0  0  0  0  0  0  0  0  0
   -4.8790   22.5630  -31.5470 C   0  0  0  0  0  0  0  0  0  0  0  0
   -3.5730   23.0430  -31.5620 O   0  0  0  0  0  0  0  0  0  0  0  0
   -6.2099   18.4073  -32.0005 H   0  0  0  0  0  0  0  0  0  0  0  0
   -7.1157   16.1953  -32.7360 H   0  0  0  0  0  0  0  0  0  0  0  0
   -4.6999   10.8817  -32.5121 H   0  0  0  0  0  0  0  0  0  0  0  0
   -5.0978   11.3524  -34.2225 H   0  0  0  0  0  0  0  0  0  0  0  0
   -2.5495   11.2478  -33.1708 H   0  0  0  0  0  0  0  0  0  0  0  0
   -3.0857   12.2574  -34.5972 H   0  0  0  0  0  0  0  0  0  0  0  0
   -3.1080   12.3510  -31.0363 H   0  0  0  0  0  0  0  0  0  0  0  0
   -2.8839   14.1381  -31.0016 H   0  0  0  0  0  0  0  0  0  0  0  0
   -5.3028   13.0838  -30.6954 H   0  0  0  0  0  0  0  0  0  0  0  0
   -5.0498   14.5714  -31.7139 H   0  0  0  0  0  0  0  0  0  0  0  0
   -3.3203   15.2744  -34.6105 H   0  0  0  0  0  0  0  0  0  0  0  0
   -2.4409   17.5066  -33.9304 H   0  0  0  0  0  0  0  0  0  0  0  0
   -6.7360   19.9155  -32.6823 H   0  0  0  0  0  0  0  0  0  0  0  0
   -8.0044   23.3973  -30.4365 H   0  0  0  0  0  0  0  0  0  0  0  0
   -4.5597   22.0487  -28.2334 H   0  0  0  0  0  0  0  0  0  0  0  0
    0.0057   23.9240  -29.0360 H   0  0  0  0  0  0  0  0  0  0  0  0
    0.0994   20.6256  -29.3087 H   0  0  0  0  0  0  0  0  0  0  0  0
    0.9551   21.8430  -28.3072 H   0  0  0  0  0  0  0  0  0  0  0  0
    0.7166   19.6498  -27.1368 H   0  0  0  0  0  0  0  0  0  0  0  0
   -0.1609   21.0037  -26.2911 H   0  0  0  0  0  0  0  0  0  0  0  0
   -1.2241   18.5472  -27.6260 H   0  0  0  0  0  0  0  0  0  0  0  0
   -1.7987   19.5001  -26.1591 H   0  0  0  0  0  0  0  0  0  0  0  0
   -2.6431   19.6548  -28.9933 H   0  0  0  0  0  0  0  0  0  0  0  0
   -3.5152   20.0339  -27.4318 H   0  0  0  0  0  0  0  0  0  0  0  0
  1  2  2  0
  2  3  1  0
  3  4  1  0
  4  5  2  0
  5  6  1  0
  6  7  2  0
  7  8  1  0
  8  9  2  0
  8 10  2  0
  8 11  1  0
 11 12  1  0
 12 13  1  0
 13 14  1  0
 14 15  1  0
 15 16  1  0
  7 17  1  0
 17 18  2  0
  2 19  1  0
 19 20  2  0
 20 21  1  0
 21 22  1  0
 22 23  2  0
 22 24  1  0
 21 25  2  0
 25 26  1  0
 26 27  1  0
 27 28  2  0
 27 29  2  0
 27 30  1  0
 30 31  1  0
 31 32  2  0
 32 33  1  0
 33 34  2  0
 34 35  1  0
 35 36  2  0
 36 37  1  0
 34 38  1  0
 38 39  1  0
 39 40  1  0
 40 41  1  0
 26 42  2  0
 42 43  1  0
 18  4  1  0
 42 19  1  0
 16 11  1  0
 36 31  1  0
 41 33  1  0
  5 44  1  0
  6 45  1  0
 12 46  1  0
 12 47  1  0
 13 48  1  0
 13 49  1  0
 15 50  1  0
 15 51  1  0
 16 52  1  0
 16 53  1  0
 17 54  1  0
 18 55  1  0
 20 56  1  0
 25 57  1  0
 32 58  1  0
 35 59  1  0
 38 60  1  0
 38 61  1  0
 39 62  1  0
 39 63  1  0
 40 64  1  0
 40 65  1  0
 41 66  1  0
 41 67  1  0
M  CHG  6   3  -1  22   1  24  -1  30  -1  37  -1  43  -1
M  END
>  <UniqueID>  (49) 
46

>  <SMILES>  (49) 
O=C([N-]c1ccc(S(=O)(=O)N2CCOCC2)cc1)c1cc([N+](=O)[O-])cc(S(=O)(=O)[N-]c2cc3c(cc2[O-])CCCC3)c1[O-]

>  <Energy>  (49) 
102.27408365356676

>  <Genealogy>  (49) 
O=C([N-]c1ccc(S(=O)(=O)N2CCOCC2)cc1)c1cc([N+](=O)[O-])cc(S(=O)(=O)[N-]c2cc3c(cc2[O-])CCCC3)c1[O-] (protonated)
O=C([N-]c1ccc(S(=O)(=O)N2CCOCC2)cc1)c1cc([N+](=O)[O-])cc(S(=O)(=O)[N-]c2cc3c(cc2[O-])CCCC3)c1[O-] (3D coordinates assigned)
O=C([N-]c1ccc(S(=O)(=O)N2CCOCC2)cc1)c1cc([N+](=O)[O-])cc(S(=O)(=O)[N-]c2cc3c(cc2[O-])CCCC3)c1[O-] (nonaromatic ring conformer: 102.27408365356676 kcal/mol)

>  <smiles>  (49) 
O=C(Nc1ccc(S(=O)(=O)N2CCOCC2)cc1)c1cc([N+](=O)[O-])cc(S(=O)(=O)Nc2cc3c(cc2O)CCCC3)c1O

>  <score_type>  (49) 
oracle

>  <origin>  (49) 
adgpu

>  <m_score__min__energy>  (49) 
-15.81

>  <m_primary>  (49) 
energy

$$$$
