0:0
     RDKit          3D

 28 29  0  0  0  0  0  0  0  0999 V2000
   -8.1255   20.6809  -31.8062 H   0  0  0  0  0  0  0  0  0  0  0  0
   -7.3580   21.3150  -32.2740 C   0  0  0  0  0  0  0  0  0  0  0  0
   -7.3290   22.7550  -31.9410 C   0  0  0  0  0  0  0  0  0  0  0  0
   -8.3650   23.4350  -32.1680 O   0  0  0  0  0  0  0  0  0  0  0  0
   -6.1380   23.4330  -31.3750 C   0  0  0  0  0  0  0  0  0  0  0  0
   -4.8950   22.7750  -31.3660 C   0  0  0  0  0  0  0  0  0  0  0  0
   -4.8072   21.7658  -31.7946 H   0  0  0  0  0  0  0  0  0  0  0  0
   -3.7700   23.3970  -30.8150 C   0  0  0  0  0  0  0  0  0  0  0  0
   -2.7988   22.8805  -30.8218 H   0  0  0  0  0  0  0  0  0  0  0  0
   -3.8770   24.6730  -30.2560 C   0  0  0  0  0  0  0  0  0  0  0  0
   -2.7580   25.2890  -29.7090 O   0  0  0  0  0  0  0  0  0  0  0  0
   -5.1120   25.3280  -30.2430 C   0  0  0  0  0  0  0  0  0  0  0  0
   -5.1969   26.3309  -29.7991 H   0  0  0  0  0  0  0  0  0  0  0  0
   -6.2390   24.7110  -30.7930 C   0  0  0  0  0  0  0  0  0  0  0  0
   -7.2103   25.2268  -30.7710 H   0  0  0  0  0  0  0  0  0  0  0  0
   -6.4870   20.7500  -33.1230 C   0  0  0  0  0  0  0  0  0  0  0  0
   -5.7280   21.3951  -33.5898 H   0  0  0  0  0  0  0  0  0  0  0  0
   -6.4850   19.3070  -33.4710 C   0  0  0  0  0  0  0  0  0  0  0  0
   -7.1990   18.3430  -32.7270 C   0  0  0  0  0  0  0  0  0  0  0  0
   -7.7932   18.6539  -31.8551 H   0  0  0  0  0  0  0  0  0  0  0  0
   -7.1540   16.9940  -33.0940 C   0  0  0  0  0  0  0  0  0  0  0  0
   -7.7167   16.2489  -32.5125 H   0  0  0  0  0  0  0  0  0  0  0  0
   -6.3980   16.5900  -34.1950 C   0  0  0  0  0  0  0  0  0  0  0  0
   -6.3709   15.5290  -34.4839 H   0  0  0  0  0  0  0  0  0  0  0  0
   -5.6760   17.5320  -34.9300 C   0  0  0  0  0  0  0  0  0  0  0  0
   -5.0760   17.2120  -35.7946 H   0  0  0  0  0  0  0  0  0  0  0  0
   -5.7150   18.8820  -34.5680 C   0  0  0  0  0  0  0  0  0  0  0  0
   -5.1380   19.6183  -35.1467 H   0  0  0  0  0  0  0  0  0  0  0  0
  1  2  1  0
  2  3  1  0
  3  4  2  0
  3  5  1  0
  5  6  2  0
  6  7  1  0
  6  8  1  0
  8  9  1  0
  8 10  2  0
 10 11  1  0
 10 12  1  0
 12 13  1  0
 12 14  2  0
 14 15  1  0
  2 16  2  0
 16 17  1  0
 16 18  1  0
 18 19  2  0
 19 20  1  0
 19 21  1  0
 21 22  1  0
 21 23  2  0
 23 24  1  0
 23 25  1  0
 25 26  1  0
 25 27  2  0
 27 28  1  0
 14  5  1  0
 27 18  1  0
M  CHG  1  11  -1
M  END
>  <UniqueID>  (1) 
1

>  <SMILES>  (1) 
O=C(/C=C/c1ccccc1)c1ccc([O-])cc1

>  <Energy>  (1) 
36.09969979192754

>  <Genealogy>  (1) 
O=C(C=Cc1ccccc1)c1ccc([O-])cc1 (protonated)
O=C(/C=C/c1ccccc1)c1ccc([O-])cc1 (cis-trans isomerization)
O=C(/C=C/c1ccccc1)c1ccc([O-])cc1 (3D coordinates assigned)
O=C(/C=C/c1ccccc1)c1ccc([O-])cc1 (optimized conformer: 36.09969979192754 kcal/mol)

>  <smiles>  (1) 
O=C(C=Cc1ccccc1)c1ccc(O)cc1

>  <score_type>  (1) 
oracle

>  <origin>  (1) 
adgpu

>  <m_score__min__energy>  (1) 
-10.640000000000001

>  <m_primary>  (1) 
energy

$$$$
1:0
     RDKit          3D

 50 52  0  0  0  0  0  0  0  0999 V2000
   -9.4820   23.4240  -32.3450 C   0  0  0  0  0  0  0  0  0  0  0  0
   -8.3080   22.8400  -31.6230 C   0  0  0  0  0  0  0  0  0  0  0  0
   -7.2850   23.5620  -31.0420 C   0  0  0  0  0  0  0  0  0  0  0  0
   -6.4000   22.5970  -30.5910 C   0  0  0  0  0  0  0  0  0  0  0  0
   -5.1150   22.8310  -29.9130 C   0  0  0  0  0  0  0  0  0  0  0  0
   -4.0910   22.2150  -30.3140 O   0  0  0  0  0  0  0  0  0  0  0  0
   -5.0280   23.7170  -28.7840 N   0  0  0  0  0  0  0  0  0  0  0  0
   -3.7930   24.2520  -28.2810 C   0  0  0  0  0  0  0  0  0  0  0  0
   -3.6220   24.5460  -26.9150 C   0  0  0  0  0  0  0  0  0  0  0  0
   -2.4020   25.0440  -26.4470 C   0  0  0  0  0  0  0  0  0  0  0  0
   -1.3350   25.2450  -27.3310 C   0  0  0  0  0  0  0  0  0  0  0  0
    0.2010   25.8850  -26.7400 S   0  0  0  0  0  0  0  0  0  0  0  0
    0.2440   27.3690  -26.9790 O   0  0  0  0  0  0  0  0  0  0  0  0
    1.3280   25.2580  -27.5140 O   0  0  0  0  0  0  0  0  0  0  0  0
    0.4170   25.5650  -25.0370 N   0  0  0  0  0  0  0  0  0  0  0  0
    0.4120   24.1170  -24.7970 C   0  0  0  0  0  0  0  0  0  0  0  0
    1.6840   26.1500  -24.5770 C   0  0  0  0  0  0  0  0  0  0  0  0
   -1.4940   24.9340  -28.6880 C   0  0  0  0  0  0  0  0  0  0  0  0
   -2.7120   24.4340  -29.1580 C   0  0  0  0  0  0  0  0  0  0  0  0
   -6.8640   21.3700  -30.9000 N   0  0  0  0  0  0  0  0  0  0  0  0
   -8.0230   21.5240  -31.5210 N   0  0  0  0  0  0  0  0  0  0  0  0
   -8.7870   20.4060  -32.0750 C   0  0  0  0  0  0  0  0  0  0  0  0
   -7.8620   19.4130  -32.7210 C   0  0  0  0  0  0  0  0  0  0  0  0
   -7.9620   18.0490  -32.4030 C   0  0  0  0  0  0  0  0  0  0  0  0
   -7.0890   17.1230  -32.9840 C   0  0  0  0  0  0  0  0  0  0  0  0
   -6.1090   17.5530  -33.8840 C   0  0  0  0  0  0  0  0  0  0  0  0
   -5.2640   16.6540  -34.4450 F   0  0  0  0  0  0  0  0  0  0  0  0
   -6.0020   18.9090  -34.2040 C   0  0  0  0  0  0  0  0  0  0  0  0
   -6.8730   19.8380  -33.6250 C   0  0  0  0  0  0  0  0  0  0  0  0
  -10.2175   23.7898  -31.6134 H   0  0  0  0  0  0  0  0  0  0  0  0
   -9.1456   24.2598  -32.9761 H   0  0  0  0  0  0  0  0  0  0  0  0
   -9.9457   22.6515  -32.9761 H   0  0  0  0  0  0  0  0  0  0  0  0
   -7.1936   24.6549  -30.9567 H   0  0  0  0  0  0  0  0  0  0  0  0
   -5.8980   23.9060  -28.2360 H   0  0  0  0  0  0  0  0  0  0  0  0
   -4.4523   24.3832  -26.2121 H   0  0  0  0  0  0  0  0  0  0  0  0
   -2.2800   25.2789  -25.3793 H   0  0  0  0  0  0  0  0  0  0  0  0
    0.4113   23.9249  -23.7139 H   0  0  0  0  0  0  0  0  0  0  0  0
   -0.4877   23.6736  -25.2486 H   0  0  0  0  0  0  0  0  0  0  0  0
    1.3086   23.6674  -25.2486 H   0  0  0  0  0  0  0  0  0  0  0  0
    1.7054   26.1599  -23.4773 H   0  0  0  0  0  0  0  0  0  0  0  0
    2.5240   25.5486  -24.9547 H   0  0  0  0  0  0  0  0  0  0  0  0
    1.7710   27.1795  -24.9547 H   0  0  0  0  0  0  0  0  0  0  0  0
   -0.6573   25.0838  -29.3861 H   0  0  0  0  0  0  0  0  0  0  0  0
   -2.8242   24.1814  -30.2227 H   0  0  0  0  0  0  0  0  0  0  0  0
   -9.3439   19.9106  -31.2661 H   0  0  0  0  0  0  0  0  0  0  0  0
   -9.4860   20.7901  -32.8326 H   0  0  0  0  0  0  0  0  0  0  0  0
   -8.7302   17.7070  -31.6939 H   0  0  0  0  0  0  0  0  0  0  0  0
   -7.1736   16.0555  -32.7326 H   0  0  0  0  0  0  0  0  0  0  0  0
   -5.2313   19.2466  -34.9126 H   0  0  0  0  0  0  0  0  0  0  0  0
   -6.7837   20.9048  -33.8780 H   0  0  0  0  0  0  0  0  0  0  0  0
  1  2  1  0
  2  3  2  0
  3  4  1  0
  4  5  1  0
  5  6  2  0
  5  7  1  0
  7  8  1  0
  8  9  2  0
  9 10  1  0
 10 11  2  0
 11 12  1  0
 12 13  2  0
 12 14  2  0
 12 15  1  0
 15 16  1  0
 15 17  1  0
 11 18  1  0
 18 19  2  0
  4 20  2  0
 20 21  1  0
 21 22  1  0
 22 23  1  0
 23 24  2  0
 24 25  1  0
 25 26  2  0
 26 27  1  0
 26 28  1  0
 28 29  2  0
 21  2  1  0
 29 23  1  0
 19  8  1  0
  1 30  1  0
  1 31  1  0
  1 32  1  0
  3 33  1  0
  7 34  1  0
  9 35  1  0
 10 36  1  0
 16 37  1  0
 16 38  1  0
 16 39  1  0
 17 40  1  0
 17 41  1  0
 17 42  1  0
 18 43  1  0
 19 44  1  0
 22 45  1  0
 22 46  1  0
 24 47  1  0
 25 48  1  0
 28 49  1  0
 29 50  1  0
M  END
>  <UniqueID>  (2) 
2

>  <SMILES>  (2) 
Cc1cc(C(=O)Nc2ccc(S(=O)(=O)N(C)C)cc2)nn1Cc1ccc(F)cc1

>  <Energy>  (2) 
79.68397015975872

>  <Genealogy>  (2) 
Cc1cc(C(=O)Nc2ccc(S(=O)(=O)N(C)C)cc2)nn1Cc1ccc(F)cc1 (3D coordinates assigned)
Cc1cc(C(=O)Nc2ccc(S(=O)(=O)N(C)C)cc2)nn1Cc1ccc(F)cc1 (optimized conformer: 79.68397015975872 kcal/mol)

>  <smiles>  (2) 
Cc1cc(C(=O)Nc2ccc(S(=O)(=O)N(C)C)cc2)nn1Cc1ccc(F)cc1

>  <score_type>  (2) 
oracle

>  <origin>  (2) 
adgpu

>  <m_score__min__energy>  (2) 
-9.4800000000000004

>  <m_primary>  (2) 
energy

$$$$
2:0
     RDKit          3D

 51 54  0  0  0  0  0  0  0  0999 V2000
   -6.4810   16.2030  -33.6730 C   0  0  0  0  0  0  0  0  0  0  0  0
   -6.5850   17.5890  -33.1340 C   0  0  0  0  0  0  0  0  0  0  0  0
   -6.4710   18.7590  -33.8660 C   0  0  0  0  0  0  0  0  0  0  0  0
   -6.6550   19.7380  -32.9150 C   0  0  0  0  0  0  0  0  0  0  0  0
   -6.6300   21.0140  -33.1550 N   0  0  0  0  0  0  0  0  0  0  0  0
   -6.8530   22.2360  -31.9460 S   0  0  0  0  0  0  0  0  0  0  0  0
   -7.7400   21.7000  -30.8570 O   0  0  0  0  0  0  0  0  0  0  0  0
   -7.5190   23.4310  -32.5680 O   0  0  0  0  0  0  0  0  0  0  0  0
   -5.2910   22.7270  -31.3000 C   0  0  0  0  0  0  0  0  0  0  0  0
   -5.1780   23.8530  -30.4750 C   0  0  0  0  0  0  0  0  0  0  0  0
   -3.9360   24.2140  -29.9460 C   0  0  0  0  0  0  0  0  0  0  0  0
   -2.7960   23.4510  -30.2240 C   0  0  0  0  0  0  0  0  0  0  0  0
   -1.5440   23.8590  -29.6540 N   0  0  0  0  0  0  0  0  0  0  0  0
   -1.3450   24.8270  -28.6140 C   0  0  0  0  0  0  0  0  0  0  0  0
   -1.5900   26.0460  -28.8190 O   0  0  0  0  0  0  0  0  0  0  0  0
   -0.8280   24.3870  -27.3030 C   0  0  0  0  0  0  0  0  0  0  0  0
    0.0740   25.2220  -26.6190 C   0  0  0  0  0  0  0  0  0  0  0  0
    0.6360   24.8220  -25.4060 C   0  0  0  0  0  0  0  0  0  0  0  0
    0.3080   23.5830  -24.8580 C   0  0  0  0  0  0  0  0  0  0  0  0
   -0.6000   22.7490  -25.5130 C   0  0  0  0  0  0  0  0  0  0  0  0
   -1.1930   23.1480  -26.7200 C   0  0  0  0  0  0  0  0  0  0  0  0
   -2.4380   22.0620  -27.4480 S   0  0  0  0  0  0  0  0  0  0  0  0
   -1.2780   20.7080  -27.7200 C   0  0  0  0  0  0  0  0  0  0  0  0
   -0.1170   20.9570  -28.4680 C   0  0  0  0  0  0  0  0  0  0  0  0
    0.8140   19.9390  -28.6880 C   0  0  0  0  0  0  0  0  0  0  0  0
    0.5860   18.6600  -28.1770 C   0  0  0  0  0  0  0  0  0  0  0  0
   -0.5790   18.3930  -27.4550 C   0  0  0  0  0  0  0  0  0  0  0  0
   -1.5200   19.4090  -27.2280 C   0  0  0  0  0  0  0  0  0  0  0  0
   -2.7430   19.0760  -26.5420 C   0  0  0  0  0  0  0  0  0  0  0  0
   -3.7260   18.7980  -25.9970 N   0  0  0  0  0  0  0  0  0  0  0  0
   -2.9040   22.3420  -31.0830 C   0  0  0  0  0  0  0  0  0  0  0  0
   -4.1470   21.9800  -31.6090 C   0  0  0  0  0  0  0  0  0  0  0  0
   -6.8640   19.1730  -31.7100 N   0  0  0  0  0  0  0  0  0  0  0  0
   -6.8180   17.8840  -31.8730 O   0  0  0  0  0  0  0  0  0  0  0  0
   -6.4274   15.4882  -32.8386 H   0  0  0  0  0  0  0  0  0  0  0  0
   -7.3651   15.9819  -34.2890 H   0  0  0  0  0  0  0  0  0  0  0  0
   -5.5738   16.1163  -34.2890 H   0  0  0  0  0  0  0  0  0  0  0  0
   -6.2803   18.8774  -34.9429 H   0  0  0  0  0  0  0  0  0  0  0  0
   -6.0691   24.4547  -30.2428 H   0  0  0  0  0  0  0  0  0  0  0  0
   -3.8536   25.1049  -29.3060 H   0  0  0  0  0  0  0  0  0  0  0  0
    0.3392   26.2009  -27.0449 H   0  0  0  0  0  0  0  0  0  0  0  0
    1.3391   25.4856  -24.8813 H   0  0  0  0  0  0  0  0  0  0  0  0
    0.7644   23.2625  -23.9099 H   0  0  0  0  0  0  0  0  0  0  0  0
   -0.8526   21.7704  -25.0788 H   0  0  0  0  0  0  0  0  0  0  0  0
    0.0610   21.9598  -28.8836 H   0  0  0  0  0  0  0  0  0  0  0  0
    1.7278   20.1454  -29.2645 H   0  0  0  0  0  0  0  0  0  0  0  0
    1.3246   17.8620  -28.3432 H   0  0  0  0  0  0  0  0  0  0  0  0
   -0.7600   17.3815  -27.0623 H   0  0  0  0  0  0  0  0  0  0  0  0
   -2.0079   21.7585  -31.3412 H   0  0  0  0  0  0  0  0  0  0  0  0
   -4.2275   21.1038  -32.2692 H   0  0  0  0  0  0  0  0  0  0  0  0
   -7.0410   19.6450  -30.7960 H   0  0  0  0  0  0  0  0  0  0  0  0
  1  2  1  0
  2  3  2  0
  3  4  1  0
  4  5  2  3
  5  6  1  0
  6  7  2  0
  6  8  2  0
  6  9  1  0
  9 10  2  0
 10 11  1  0
 11 12  2  0
 12 13  1  0
 13 14  1  0
 14 15  2  0
 14 16  1  0
 16 17  2  0
 17 18  1  0
 18 19  2  0
 19 20  1  0
 20 21  2  0
 21 22  1  0
 22 23  1  0
 23 24  2  0
 24 25  1  0
 25 26  2  0
 26 27  1  0
 27 28  2  0
 28 29  1  0
 29 30  3  0
 12 31  1  0
 31 32  2  0
  4 33  1  0
 33 34  1  0
 34  2  1  0
 32  9  1  0
 21 16  1  0
 28 23  1  0
  1 35  1  0
  1 36  1  0
  1 37  1  0
  3 38  1  0
 10 39  1  0
 11 40  1  0
 17 41  1  0
 18 42  1  0
 19 43  1  0
 20 44  1  0
 24 45  1  0
 25 46  1  0
 26 47  1  0
 27 48  1  0
 31 49  1  0
 32 50  1  0
 33 51  1  0
M  CHG  1  13  -1
M  END
>  <UniqueID>  (3) 
3

>  <SMILES>  (3) 
Cc1cc(=NS(=O)(=O)c2ccc([N-]C(=O)c3ccccc3Sc3ccccc3C#N)cc2)[nH]o1

>  <Energy>  (3) 
93.44091451728582

>  <Genealogy>  (3) 
Cc1cc(=NS(=O)(=O)c2ccc([N-]C(=O)c3ccccc3Sc3ccccc3C#N)cc2)[nH]o1 (protonated)
Cc1cc(=NS(=O)(=O)c2ccc([N-]C(=O)c3ccccc3Sc3ccccc3C#N)cc2)[nH]o1 (3D coordinates assigned)
Cc1cc(=NS(=O)(=O)c2ccc([N-]C(=O)c3ccccc3Sc3ccccc3C#N)cc2)[nH]o1 (optimized conformer: 93.44091451728582 kcal/mol)

>  <smiles>  (3) 
Cc1cc(=NS(=O)(=O)c2ccc(NC(=O)c3ccccc3Sc3ccccc3C#N)cc2)[nH]o1

>  <score_type>  (3) 
oracle

>  <origin>  (3) 
adgpu

>  <m_score__min__energy>  (3) 
-12.220000000000001

>  <m_primary>  (3) 
energy

$$$$
3:0
     RDKit          3D

 36 38  0  0  0  0  0  0  0  0999 V2000
   -8.0990   19.0280  -31.9630 C   0  0  0  0  0  0  0  0  0  0  0  0
   -7.8450   20.5050  -31.9150 C   0  0  0  0  0  0  0  0  0  0  0  0
   -8.9140   21.4090  -31.9990 C   0  0  0  0  0  0  0  0  0  0  0  0
   -8.6800   22.7840  -31.9100 C   0  0  0  0  0  0  0  0  0  0  0  0
   -7.3810   23.2630  -31.7200 C   0  0  0  0  0  0  0  0  0  0  0  0
   -6.3050   22.3740  -31.6180 C   0  0  0  0  0  0  0  0  0  0  0  0
   -4.9930   22.9100  -31.3890 N   0  0  0  0  0  0  0  0  0  0  0  0
   -4.5740   24.0520  -30.1510 S   0  0  0  0  0  0  0  0  0  0  0  0
   -4.0860   25.3140  -30.8060 O   0  0  0  0  0  0  0  0  0  0  0  0
   -5.8080   24.3570  -29.3510 O   0  0  0  0  0  0  0  0  0  0  0  0
   -3.3350   23.4030  -29.0660 C   0  0  0  0  0  0  0  0  0  0  0  0
   -3.5220   22.1350  -28.4880 C   0  0  0  0  0  0  0  0  0  0  0  0
   -2.5400   21.5650  -27.6610 C   0  0  0  0  0  0  0  0  0  0  0  0
   -2.7140   20.2150  -27.0750 C   0  0  0  0  0  0  0  0  0  0  0  0
   -1.7450   19.2640  -26.8230 C   0  0  0  0  0  0  0  0  0  0  0  0
   -2.3290   18.1800  -26.2810 N   0  0  0  0  0  0  0  0  0  0  0  0
   -3.6350   18.5150  -26.2230 C   0  0  0  0  0  0  0  0  0  0  0  0
   -3.8650   19.7200  -26.6920 O   0  0  0  0  0  0  0  0  0  0  0  0
   -1.3710   22.2900  -27.3940 C   0  0  0  0  0  0  0  0  0  0  0  0
   -1.1860   23.5600  -27.9410 C   0  0  0  0  0  0  0  0  0  0  0  0
   -2.1580   24.1280  -28.7690 C   0  0  0  0  0  0  0  0  0  0  0  0
   -1.9240   25.4100  -29.2700 O   0  0  0  0  0  0  0  0  0  0  0  0
   -6.5430   20.9900  -31.7120 C   0  0  0  0  0  0  0  0  0  0  0  0
   -8.1667   18.6341  -30.9382 H   0  0  0  0  0  0  0  0  0  0  0  0
   -9.0435   18.8354  -32.4930 H   0  0  0  0  0  0  0  0  0  0  0  0
   -7.2731   18.5310  -32.4930 H   0  0  0  0  0  0  0  0  0  0  0  0
   -9.9394   21.0348  -32.1353 H   0  0  0  0  0  0  0  0  0  0  0  0
   -9.5196   23.4902  -31.9896 H   0  0  0  0  0  0  0  0  0  0  0  0
   -7.2030   24.3463  -31.6501 H   0  0  0  0  0  0  0  0  0  0  0  0
   -4.4513   21.5810  -28.6864 H   0  0  0  0  0  0  0  0  0  0  0  0
   -0.6706   19.3747  -27.0315 H   0  0  0  0  0  0  0  0  0  0  0  0
   -4.4192   17.8529  -25.8272 H   0  0  0  0  0  0  0  0  0  0  0  0
   -0.5938   21.8548  -26.7486 H   0  0  0  0  0  0  0  0  0  0  0  0
   -0.2657   24.1199  -27.7183 H   0  0  0  0  0  0  0  0  0  0  0  0
   -2.0940   25.6740  -30.2310 H   0  0  0  0  0  0  0  0  0  0  0  0
   -5.7039   20.2840  -31.6259 H   0  0  0  0  0  0  0  0  0  0  0  0
  1  2  1  0
  2  3  2  0
  3  4  1  0
  4  5  2  0
  5  6  1  0
  6  7  1  0
  7  8  1  0
  8  9  2  0
  8 10  2  0
  8 11  1  0
 11 12  2  0
 12 13  1  0
 13 14  1  0
 14 15  2  0
 15 16  1  0
 16 17  2  0
 17 18  1  0
 13 19  2  0
 19 20  1  0
 20 21  2  0
 21 22  1  0
  6 23  2  0
 23  2  1  0
 21 11  1  0
 18 14  1  0
  1 24  1  0
  1 25  1  0
  1 26  1  0
  3 27  1  0
  4 28  1  0
  5 29  1  0
 12 30  1  0
 15 31  1  0
 17 32  1  0
 19 33  1  0
 20 34  1  0
 22 35  1  0
 23 36  1  0
M  CHG  1   7  -1
M  END
>  <UniqueID>  (4) 
4

>  <SMILES>  (4) 
Cc1cccc([N-]S(=O)(=O)c2cc(-c3cnco3)ccc2O)c1

>  <Energy>  (4) 
72.9564295691193

>  <Genealogy>  (4) 
Cc1cccc([N-]S(=O)(=O)c2cc(-c3cnco3)ccc2O)c1 (protonated)
Cc1cccc([N-]S(=O)(=O)c2cc(-c3cnco3)ccc2O)c1 (3D coordinates assigned)
Cc1cccc([N-]S(=O)(=O)c2cc(-c3cnco3)ccc2O)c1 (optimized conformer: 72.9564295691193 kcal/mol)

>  <smiles>  (4) 
Cc1cccc(NS(=O)(=O)c2cc(-c3cnco3)ccc2O)c1

>  <score_type>  (4) 
oracle

>  <origin>  (4) 
adgpu

>  <m_score__min__energy>  (4) 
-9.8300000000000001

>  <m_primary>  (4) 
energy

$$$$
4:0
     RDKit          3D

 28 30  0  0  0  0  0  0  0  0999 V2000
   -1.8950   25.5540  -29.0700 O   0  0  0  0  0  0  0  0  0  0  0  0
   -2.6150   24.5000  -29.6200 C   0  0  0  0  0  0  0  0  0  0  0  0
   -2.1540   23.1890  -29.4680 C   0  0  0  0  0  0  0  0  0  0  0  0
   -2.8730   22.1240  -30.0190 C   0  0  0  0  0  0  0  0  0  0  0  0
   -4.0620   22.3610  -30.7290 C   0  0  0  0  0  0  0  0  0  0  0  0
   -4.8170   21.2330  -31.3090 C   0  0  0  0  0  0  0  0  0  0  0  0
   -6.1610   21.1430  -31.3290 N   0  0  0  0  0  0  0  0  0  0  0  0
   -6.4500   19.9980  -31.9270 N   0  0  0  0  0  0  0  0  0  0  0  0
   -5.2710   19.4300  -32.2500 C   0  0  0  0  0  0  0  0  0  0  0  0
   -5.1280   18.1320  -32.9370 C   0  0  0  0  0  0  0  0  0  0  0  0
   -3.8610   17.6900  -33.3520 C   0  0  0  0  0  0  0  0  0  0  0  0
   -3.7190   16.4620  -34.0030 C   0  0  0  0  0  0  0  0  0  0  0  0
   -4.8430   15.6600  -34.2490 C   0  0  0  0  0  0  0  0  0  0  0  0
   -4.7090   14.4340  -34.8980 O   0  0  0  0  0  0  0  0  0  0  0  0
   -6.1090   16.0950  -33.8380 C   0  0  0  0  0  0  0  0  0  0  0  0
   -7.2280   15.3070  -34.0760 O   0  0  0  0  0  0  0  0  0  0  0  0
   -6.2510   17.3250  -33.1860 C   0  0  0  0  0  0  0  0  0  0  0  0
   -4.2650   20.1850  -31.8730 O   0  0  0  0  0  0  0  0  0  0  0  0
   -4.5200   23.6820  -30.8790 C   0  0  0  0  0  0  0  0  0  0  0  0
   -3.7980   24.7460  -30.3260 C   0  0  0  0  0  0  0  0  0  0  0  0
   -4.2610   26.0480  -30.4800 O   0  0  0  0  0  0  0  0  0  0  0  0
   -1.2238   22.9950  -28.9138 H   0  0  0  0  0  0  0  0  0  0  0  0
   -2.5056   21.0945  -29.8959 H   0  0  0  0  0  0  0  0  0  0  0  0
   -2.9753   18.3144  -33.1633 H   0  0  0  0  0  0  0  0  0  0  0  0
   -2.7228   16.1232  -34.3235 H   0  0  0  0  0  0  0  0  0  0  0  0
   -5.5070   13.8290  -35.0570 H   0  0  0  0  0  0  0  0  0  0  0  0
   -7.2481   17.6623  -32.8664 H   0  0  0  0  0  0  0  0  0  0  0  0
   -5.4494   23.8800  -31.4331 H   0  0  0  0  0  0  0  0  0  0  0  0
  1  2  1  0
  2  3  2  0
  3  4  1  0
  4  5  2  0
  5  6  1  0
  6  7  2  0
  7  8  1  0
  8  9  2  0
  9 10  1  0
 10 11  2  0
 11 12  1  0
 12 13  2  0
 13 14  1  0
 13 15  1  0
 15 16  1  0
 15 17  2  0
  9 18  1  0
  5 19  1  0
 19 20  2  0
 20 21  1  0
 20  2  1  0
 18  6  1  0
 17 10  1  0
  3 22  1  0
  4 23  1  0
 11 24  1  0
 12 25  1  0
 14 26  1  0
 17 27  1  0
 19 28  1  0
M  CHG  3   1  -1  16  -1  21  -1
M  END
>  <UniqueID>  (5) 
5

>  <SMILES>  (5) 
[O-]c1ccc(-c2nnc(-c3ccc(O)c([O-])c3)o2)cc1[O-]

>  <Energy>  (5) 
66.13246191291792

>  <Genealogy>  (5) 
[O-]c1ccc(-c2nnc(-c3ccc(O)c([O-])c3)o2)cc1[O-] (protonated)
[O-]c1ccc(-c2nnc(-c3ccc(O)c([O-])c3)o2)cc1[O-] (3D coordinates assigned)
[O-]c1ccc(-c2nnc(-c3ccc(O)c([O-])c3)o2)cc1[O-] (optimized conformer: 66.13246191291792 kcal/mol)

>  <smiles>  (5) 
Oc1ccc(-c2nnc(-c3ccc(O)c(O)c3)o2)cc1O

>  <score_type>  (5) 
oracle

>  <origin>  (5) 
adgpu

>  <m_score__min__energy>  (5) 
-11.789999999999999

>  <m_primary>  (5) 
energy

$$$$
5:0
     RDKit          3D

 37 39  0  0  0  0  0  0  0  0999 V2000
   -9.5190   21.5130  -30.8660 C   0  0  0  0  0  0  0  0  0  0  0  0
   -8.9060   22.3970  -31.9460 C   0  0  0  0  0  0  0  0  0  0  0  0
   -7.4530   22.2090  -31.9990 N   0  0  0  0  0  0  0  0  0  0  0  0
   -6.6890   23.0420  -31.2880 N   0  0  0  0  0  0  0  0  0  0  0  0
   -5.3350   22.9490  -31.2380 C   0  0  0  0  0  0  0  0  0  0  0  0
   -4.6250   23.9030  -30.3600 C   0  0  0  0  0  0  0  0  0  0  0  0
   -4.1620   24.9770  -30.8300 O   0  0  0  0  0  0  0  0  0  0  0  0
   -4.4330   23.5800  -28.9720 N   0  0  0  0  0  0  0  0  0  0  0  0
   -3.5390   24.2880  -28.0950 C   0  0  0  0  0  0  0  0  0  0  0  0
   -3.9710   24.6330  -26.8050 C   0  0  0  0  0  0  0  0  0  0  0  0
   -3.1140   25.3000  -25.9260 C   0  0  0  0  0  0  0  0  0  0  0  0
   -1.8110   25.6170  -26.3230 C   0  0  0  0  0  0  0  0  0  0  0  0
   -0.7340   26.4530  -25.2170 Cl  0  0  0  0  0  0  0  0  0  0  0  0
   -1.3630   25.2570  -27.5980 C   0  0  0  0  0  0  0  0  0  0  0  0
   -2.2200   24.5890  -28.4790 C   0  0  0  0  0  0  0  0  0  0  0  0
   -4.6910   21.9400  -31.9920 C   0  0  0  0  0  0  0  0  0  0  0  0
   -3.2860   21.8290  -32.0780 C   0  0  0  0  0  0  0  0  0  0  0  0
   -2.6980   20.8050  -32.8240 C   0  0  0  0  0  0  0  0  0  0  0  0
   -3.4940   19.8880  -33.5070 C   0  0  0  0  0  0  0  0  0  0  0  0
   -4.8840   19.9990  -33.4650 C   0  0  0  0  0  0  0  0  0  0  0  0
   -5.4940   21.0290  -32.7220 C   0  0  0  0  0  0  0  0  0  0  0  0
   -6.8920   21.1800  -32.7040 C   0  0  0  0  0  0  0  0  0  0  0  0
   -7.6260   20.3730  -33.3420 O   0  0  0  0  0  0  0  0  0  0  0  0
   -9.2477   21.9042  -29.8743 H   0  0  0  0  0  0  0  0  0  0  0  0
  -10.6139   21.5103  -30.9722 H   0  0  0  0  0  0  0  0  0  0  0  0
   -9.1377   20.4867  -30.9722 H   0  0  0  0  0  0  0  0  0  0  0  0
   -9.3412   22.1321  -32.9209 H   0  0  0  0  0  0  0  0  0  0  0  0
   -9.1204   23.4495  -31.7087 H   0  0  0  0  0  0  0  0  0  0  0  0
   -5.0510   22.8480  -28.5540 H   0  0  0  0  0  0  0  0  0  0  0  0
   -4.9913   24.3765  -26.4838 H   0  0  0  0  0  0  0  0  0  0  0  0
   -3.4645   25.5761  -24.9206 H   0  0  0  0  0  0  0  0  0  0  0  0
   -0.3359   25.4993  -27.9083 H   0  0  0  0  0  0  0  0  0  0  0  0
   -1.8605   24.2977  -29.4770 H   0  0  0  0  0  0  0  0  0  0  0  0
   -2.6487   22.5556  -31.5527 H   0  0  0  0  0  0  0  0  0  0  0  0
   -1.6022   20.7222  -32.8724 H   0  0  0  0  0  0  0  0  0  0  0  0
   -3.0255   19.0747  -34.0806 H   0  0  0  0  0  0  0  0  0  0  0  0
   -5.5072   19.2784  -34.0150 H   0  0  0  0  0  0  0  0  0  0  0  0
  1  2  1  0
  2  3  1  0
  3  4  1  0
  4  5  2  0
  5  6  1  0
  6  7  2  0
  6  8  1  0
  8  9  1  0
  9 10  2  0
 10 11  1  0
 11 12  2  0
 12 13  1  0
 12 14  1  0
 14 15  2  0
  5 16  1  0
 16 17  2  0
 17 18  1  0
 18 19  2  0
 19 20  1  0
 20 21  2  0
 21 22  1  0
 22 23  2  0
 22  3  1  0
 15  9  1  0
 21 16  1  0
  1 24  1  0
  1 25  1  0
  1 26  1  0
  2 27  1  0
  2 28  1  0
  8 29  1  0
 10 30  1  0
 11 31  1  0
 14 32  1  0
 15 33  1  0
 17 34  1  0
 18 35  1  0
 19 36  1  0
 20 37  1  0
M  END
>  <UniqueID>  (6) 
6

>  <SMILES>  (6) 
CCn1nc(C(=O)Nc2ccc(Cl)cc2)c2ccccc2c1=O

>  <Energy>  (6) 
52.44795814254535

>  <Genealogy>  (6) 
CCn1nc(C(=O)Nc2ccc(Cl)cc2)c2ccccc2c1=O (3D coordinates assigned)
CCn1nc(C(=O)Nc2ccc(Cl)cc2)c2ccccc2c1=O (optimized conformer: 52.44795814254535 kcal/mol)

>  <smiles>  (6) 
CCn1nc(C(=O)Nc2ccc(Cl)cc2)c2ccccc2c1=O

>  <score_type>  (6) 
oracle

>  <origin>  (6) 
adgpu

>  <m_score__min__energy>  (6) 
-8.5199999999999996

>  <m_primary>  (6) 
energy

$$$$
6:0
     RDKit          3D

 51 54  0  0  0  0  0  0  0  0999 V2000
   -1.9780   19.8410  -26.5440 C   0  0  0  0  0  0  0  0  0  0  0  0
   -1.6880   19.3120  -27.8740 N   0  0  0  0  0  0  0  0  0  0  0  0
   -0.6620   20.4220  -28.7300 S   0  0  0  0  0  0  0  0  0  0  0  0
    0.4540   20.8600  -27.8250 O   0  0  0  0  0  0  0  0  0  0  0  0
   -0.0640   19.7440  -29.9300 O   0  0  0  0  0  0  0  0  0  0  0  0
   -1.5900   21.8360  -29.2280 C   0  0  0  0  0  0  0  0  0  0  0  0
   -2.3390   21.7930  -30.4100 C   0  0  0  0  0  0  0  0  0  0  0  0
   -3.0540   22.9190  -30.8300 C   0  0  0  0  0  0  0  0  0  0  0  0
   -3.0350   24.0970  -30.0630 C   0  0  0  0  0  0  0  0  0  0  0  0
   -3.7540   25.2720  -30.4670 N   0  0  0  0  0  0  0  0  0  0  0  0
   -5.1780   25.3800  -30.6120 C   0  0  0  0  0  0  0  0  0  0  0  0
   -5.7210   26.5040  -30.4390 O   0  0  0  0  0  0  0  0  0  0  0  0
   -6.0230   24.2050  -30.9150 C   0  0  0  0  0  0  0  0  0  0  0  0
   -6.5310   24.0120  -32.2090 C   0  0  0  0  0  0  0  0  0  0  0  0
   -7.2620   22.8600  -32.5160 C   0  0  0  0  0  0  0  0  0  0  0  0
   -7.5050   21.8970  -31.5300 C   0  0  0  0  0  0  0  0  0  0  0  0
   -8.3230   20.3900  -31.9230 S   0  0  0  0  0  0  0  0  0  0  0  0
   -9.1100   19.9280  -30.7260 O   0  0  0  0  0  0  0  0  0  0  0  0
   -9.2600   20.5800  -33.0840 O   0  0  0  0  0  0  0  0  0  0  0  0
   -7.1360   19.2000  -32.3450 N   0  0  0  0  0  0  0  0  0  0  0  0
   -7.2600   17.7740  -32.0480 C   0  0  0  0  0  0  0  0  0  0  0  0
   -5.8830   17.1510  -32.3870 C   0  0  0  0  0  0  0  0  0  0  0  0
   -5.0610   18.3270  -32.7900 C   0  0  0  0  0  0  0  0  0  0  0  0
   -3.7160   18.3510  -33.1640 C   0  0  0  0  0  0  0  0  0  0  0  0
   -3.1400   19.5840  -33.5130 C   0  0  0  0  0  0  0  0  0  0  0  0
   -3.9100   20.7630  -33.4740 C   0  0  0  0  0  0  0  0  0  0  0  0
   -5.2610   20.7130  -33.0950 C   0  0  0  0  0  0  0  0  0  0  0  0
   -5.8100   19.4710  -32.7590 C   0  0  0  0  0  0  0  0  0  0  0  0
   -7.0440   22.1100  -30.2250 C   0  0  0  0  0  0  0  0  0  0  0  0
   -6.3140   23.2580  -29.9170 C   0  0  0  0  0  0  0  0  0  0  0  0
   -2.2600   24.1450  -28.8980 C   0  0  0  0  0  0  0  0  0  0  0  0
   -1.5450   23.0190  -28.4780 C   0  0  0  0  0  0  0  0  0  0  0  0
   -1.5968   19.1456  -25.7817 H   0  0  0  0  0  0  0  0  0  0  0  0
   -1.4903   20.8197  -26.4243 H   0  0  0  0  0  0  0  0  0  0  0  0
   -3.0654   19.9562  -26.4243 H   0  0  0  0  0  0  0  0  0  0  0  0
   -2.3651   20.8713  -31.0098 H   0  0  0  0  0  0  0  0  0  0  0  0
   -3.6336   22.8829  -31.7642 H   0  0  0  0  0  0  0  0  0  0  0  0
   -6.3533   24.7706  -32.9855 H   0  0  0  0  0  0  0  0  0  0  0  0
   -7.6471   22.7103  -33.5355 H   0  0  0  0  0  0  0  0  0  0  0  0
   -7.4971   17.6235  -30.9845 H   0  0  0  0  0  0  0  0  0  0  0  0
   -8.0693   17.3082  -32.6295 H   0  0  0  0  0  0  0  0  0  0  0  0
   -5.4502   16.6510  -31.5080 H   0  0  0  0  0  0  0  0  0  0  0  0
   -5.9416   16.3800  -33.1693 H   0  0  0  0  0  0  0  0  0  0  0  0
   -3.1211   17.4260  -33.1849 H   0  0  0  0  0  0  0  0  0  0  0  0
   -2.0840   19.6289  -33.8178 H   0  0  0  0  0  0  0  0  0  0  0  0
   -3.4512   21.7263  -33.7414 H   0  0  0  0  0  0  0  0  0  0  0  0
   -5.8721   21.6271  -33.0631 H   0  0  0  0  0  0  0  0  0  0  0  0
   -7.2582   21.3696  -29.4402 H   0  0  0  0  0  0  0  0  0  0  0  0
   -5.9639   23.4235  -28.8874 H   0  0  0  0  0  0  0  0  0  0  0  0
   -2.2133   25.0734  -28.3099 H   0  0  0  0  0  0  0  0  0  0  0  0
   -0.9457   23.0619  -27.5566 H   0  0  0  0  0  0  0  0  0  0  0  0
  1  2  1  0
  2  3  1  0
  3  4  2  0
  3  5  2  0
  3  6  1  0
  6  7  2  0
  7  8  1  0
  8  9  2  0
  9 10  1  0
 10 11  1  0
 11 12  2  0
 11 13  1  0
 13 14  2  0
 14 15  1  0
 15 16  2  0
 16 17  1  0
 17 18  2  0
 17 19  2  0
 17 20  1  0
 20 21  1  0
 21 22  1  0
 22 23  1  0
 23 24  2  0
 24 25  1  0
 25 26  2  0
 26 27  1  0
 27 28  2  0
 16 29  1  0
 29 30  2  0
  9 31  1  0
 31 32  2  0
 32  6  1  0
 30 13  1  0
 28 20  1  0
 28 23  1  0
  1 33  1  0
  1 34  1  0
  1 35  1  0
  7 36  1  0
  8 37  1  0
 14 38  1  0
 15 39  1  0
 21 40  1  0
 21 41  1  0
 22 42  1  0
 22 43  1  0
 24 44  1  0
 25 45  1  0
 26 46  1  0
 27 47  1  0
 29 48  1  0
 30 49  1  0
 31 50  1  0
 32 51  1  0
M  CHG  2   2  -1  10  -1
M  END
>  <UniqueID>  (7) 
7

>  <SMILES>  (7) 
C[N-]S(=O)(=O)c1ccc([N-]C(=O)c2ccc(S(=O)(=O)N3CCc4ccccc43)cc2)cc1

>  <Energy>  (7) 
72.7686660609583

>  <Genealogy>  (7) 
C[N-]S(=O)(=O)c1ccc([N-]C(=O)c2ccc(S(=O)(=O)N3CCc4ccccc43)cc2)cc1 (protonated)
C[N-]S(=O)(=O)c1ccc([N-]C(=O)c2ccc(S(=O)(=O)N3CCc4ccccc43)cc2)cc1 (3D coordinates assigned)
C[N-]S(=O)(=O)c1ccc([N-]C(=O)c2ccc(S(=O)(=O)N3CCc4ccccc43)cc2)cc1 (nonaromatic ring conformer: 72.7686660609583 kcal/mol)

>  <smiles>  (7) 
CNS(=O)(=O)c1ccc(NC(=O)c2ccc(S(=O)(=O)N3CCc4ccccc43)cc2)cc1

>  <score_type>  (7) 
oracle

>  <origin>  (7) 
adgpu

>  <m_score__min__energy>  (7) 
-12.34

>  <m_primary>  (7) 
energy

$$$$
7:0
     RDKit          3D

 40 41  0  0  1  0  0  0  0  0999 V2000
   -5.1770   17.8000  -34.8430 C   0  0  0  0  0  0  0  0  0  0  0  0
   -5.6560   19.0100  -34.3230 O   0  0  0  0  0  0  0  0  0  0  0  0
   -6.6840   19.1140  -33.4200 C   0  0  0  0  0  0  0  0  0  0  0  0
   -7.2490   17.9830  -32.8170 C   0  0  0  0  0  0  0  0  0  0  0  0
   -8.2940   18.1720  -31.9090 C   0  0  0  0  0  0  0  0  0  0  0  0
   -8.7520   19.4440  -31.6170 C   0  0  0  0  0  0  0  0  0  0  0  0
   -8.1970   20.5820  -32.2110 C   0  0  0  0  0  0  0  0  0  0  0  0
   -8.7890   21.8730  -31.8490 C   0  0  0  0  0  0  0  0  0  0  0  0
   -8.1780   22.6110  -30.8010 N   0  0  0  0  0  0  0  0  0  0  0  0
   -7.0160   23.3780  -30.8070 C   0  0  0  0  0  0  0  0  0  0  0  0
   -5.8040   22.7820  -31.1990 C   0  0  0  0  0  0  0  0  0  0  0  0
   -4.6150   23.4640  -31.2160 C   0  0  0  0  0  0  0  0  0  0  0  0
   -3.5020   22.9480  -31.5510 N   0  0  0  0  0  0  0  0  0  0  0  0
   -3.4490   21.5520  -31.9460 C   0  0  0  0  0  0  0  0  0  0  0  0
   -2.0420   20.9940  -31.8690 C   0  0  0  0  0  0  0  0  0  0  0  0
   -3.7690   21.5710  -33.4510 C   0  0  0  0  0  0  0  0  0  0  0  0
   -4.6000   24.7680  -30.8410 N   0  0  0  0  0  0  0  0  0  0  0  0
   -5.7480   25.3550  -30.4630 C   0  0  0  0  0  0  0  0  0  0  0  0
   -6.9130   24.6670  -30.4520 N   0  0  0  0  0  0  0  0  0  0  0  0
   -7.1780   20.3650  -33.0950 C   0  0  0  0  0  0  0  0  0  0  0  0
   -4.9100   17.1256  -34.0160 H   0  0  0  0  0  0  0  0  0  0  0  0
   -5.9576   17.3317  -35.4606 H   0  0  0  0  0  0  0  0  0  0  0  0
   -4.2874   17.9929  -35.4606 H   0  0  0  0  0  0  0  0  0  0  0  0
   -6.8801   16.9737  -33.0519 H   0  0  0  0  0  0  0  0  0  0  0  0
   -8.7568   17.3011  -31.4218 H   0  0  0  0  0  0  0  0  0  0  0  0
   -9.5755   19.5639  -30.8977 H   0  0  0  0  0  0  0  0  0  0  0  0
   -8.7721   22.5055  -32.7488 H   0  0  0  0  0  0  0  0  0  0  0  0
   -9.7884   21.6213  -31.4644 H   0  0  0  0  0  0  0  0  0  0  0  0
   -8.7010   22.5670  -29.8550 H   0  0  0  0  0  0  0  0  0  0  0  0
   -5.8104   21.7253  -31.5045 H   0  0  0  0  0  0  0  0  0  0  0  0
   -4.1182   20.9593  -31.3049 H   0  0  0  0  0  0  0  0  0  0  0  0
   -1.7506   20.8784  -30.8146 H   0  0  0  0  0  0  0  0  0  0  0  0
   -2.0082   20.0144  -32.3682 H   0  0  0  0  0  0  0  0  0  0  0  0
   -1.3460   21.6842  -32.3682 H   0  0  0  0  0  0  0  0  0  0  0  0
   -4.8578   21.6356  -33.5936 H   0  0  0  0  0  0  0  0  0  0  0  0
   -3.2857   22.4420  -33.9177 H   0  0  0  0  0  0  0  0  0  0  0  0
   -3.3922   20.6489  -33.9177 H   0  0  0  0  0  0  0  0  0  0  0  0
   -5.7406   26.4117  -30.1576 H   0  0  0  0  0  0  0  0  0  0  0  0
   -7.7450   25.1660  -30.1470 H   0  0  0  0  0  0  0  0  0  0  0  0
   -6.7212   21.2407  -33.5792 H   0  0  0  0  0  0  0  0  0  0  0  0
  1  2  1  0
  2  3  1  0
  3  4  2  0
  4  5  1  0
  5  6  2  0
  6  7  1  0
  7  8  1  0
  8  9  1  0
  9 10  1  0
 10 11  2  0
 11 12  1  0
 12 13  2  0
 13 14  1  0
 14 15  1  0
 14 16  1  0
 12 17  1  0
 17 18  2  0
 18 19  1  0
  7 20  2  0
 20  3  1  0
 19 10  1  0
  1 21  1  0
  1 22  1  0
  1 23  1  0
  4 24  1  0
  5 25  1  0
  6 26  1  0
  8 27  1  0
  8 28  1  0
  9 29  1  0
 11 30  1  0
 14 31  1  0
 15 32  1  0
 15 33  1  0
 15 34  1  0
 16 35  1  0
 16 36  1  0
 16 37  1  0
 18 38  1  0
 19 39  1  0
 20 40  1  0
M  END
>  <smiles>  (8) 
COc1cccc(CNc2cc(=NC(C)C)nc[nH]2)c1

>  <score_type>  (8) 
oracle

>  <origin>  (8) 
adgpu

>  <m_score__min__energy>  (8) 
-7.4800000000000004

>  <m_primary>  (8) 
energy

$$$$
8:0
     RDKit          3D

 43 45  0  0  0  0  0  0  0  0999 V2000
   -3.9510   26.1970  -31.0770 H   0  0  0  0  0  0  0  0  0  0  0  0
   -3.8750   25.3130  -30.5250 N   0  0  0  0  0  0  0  0  0  0  0  0
   -4.5770   24.2640  -30.8210 C   0  0  0  0  0  0  0  0  0  0  0  0
   -5.4320   24.3140  -31.8780 N   0  0  0  0  0  0  0  0  0  0  0  0
   -6.1980   23.2530  -32.2410 C   0  0  0  0  0  0  0  0  0  0  0  0
   -6.8721   23.3329  -33.1065 H   0  0  0  0  0  0  0  0  0  0  0  0
   -6.1310   22.0590  -31.5160 C   0  0  0  0  0  0  0  0  0  0  0  0
   -6.9480   20.8970  -31.9170 C   0  0  0  0  0  0  0  0  0  0  0  0
   -6.2960   19.7790  -32.4630 C   0  0  0  0  0  0  0  0  0  0  0  0
   -5.2022   19.7883  -32.5795 H   0  0  0  0  0  0  0  0  0  0  0  0
   -7.0250   18.6560  -32.8590 C   0  0  0  0  0  0  0  0  0  0  0  0
   -6.5039   17.7827  -33.2781 H   0  0  0  0  0  0  0  0  0  0  0  0
   -8.4120   18.6400  -32.7240 C   0  0  0  0  0  0  0  0  0  0  0  0
   -8.9835   17.7529  -33.0347 H   0  0  0  0  0  0  0  0  0  0  0  0
   -9.0780   19.7480  -32.1950 C   0  0  0  0  0  0  0  0  0  0  0  0
  -10.1743   19.7332  -32.1059 H   0  0  0  0  0  0  0  0  0  0  0  0
   -8.3600   20.8830  -31.7750 C   0  0  0  0  0  0  0  0  0  0  0  0
   -9.1290   22.0880  -31.2870 C   0  0  0  0  0  0  0  0  0  0  0  0
  -10.1059   21.7636  -30.8992 H   0  0  0  0  0  0  0  0  0  0  0  0
   -8.5553   22.5825  -30.4893 H   0  0  0  0  0  0  0  0  0  0  0  0
   -9.3250   22.9920  -32.3390 O   0  0  0  0  0  0  0  0  0  0  0  0
   -8.6980   23.7470  -32.1870 H   0  0  0  0  0  0  0  0  0  0  0  0
   -5.2470   21.9730  -30.4330 C   0  0  0  0  0  0  0  0  0  0  0  0
   -5.1678   21.0329  -29.8673 H   0  0  0  0  0  0  0  0  0  0  0  0
   -4.4610   23.0760  -30.0630 C   0  0  0  0  0  0  0  0  0  0  0  0
   -3.5410   22.9620  -28.9050 C   0  0  0  0  0  0  0  0  0  0  0  0
   -3.2750   23.9640  -28.0440 N   0  0  0  0  0  0  0  0  0  0  0  0
   -2.4180   23.4830  -27.1580 N   0  0  0  0  0  0  0  0  0  0  0  0
   -2.1890   22.2020  -27.5090 C   0  0  0  0  0  0  0  0  0  0  0  0
   -1.2650   21.2680  -26.7600 C   0  0  0  0  0  0  0  0  0  0  0  0
   -0.0210   20.9860  -27.6220 C   0  0  0  0  0  0  0  0  0  0  0  0
    0.8416   20.7905  -26.9680 H   0  0  0  0  0  0  0  0  0  0  0  0
   -0.2064   20.1071  -28.2569 H   0  0  0  0  0  0  0  0  0  0  0  0
    0.1907   21.8589  -28.2569 H   0  0  0  0  0  0  0  0  0  0  0  0
   -1.9830   19.9390  -26.4520 C   0  0  0  0  0  0  0  0  0  0  0  0
   -2.0553   19.8052  -25.3626 H   0  0  0  0  0  0  0  0  0  0  0  0
   -2.9932   19.9587  -26.8868 H   0  0  0  0  0  0  0  0  0  0  0  0
   -1.4128   19.1048  -26.8868 H   0  0  0  0  0  0  0  0  0  0  0  0
   -0.8390   21.9320  -25.4380 C   0  0  0  0  0  0  0  0  0  0  0  0
   -1.2184   21.3406  -24.5917 H   0  0  0  0  0  0  0  0  0  0  0  0
    0.2589   21.9799  -25.3889 H   0  0  0  0  0  0  0  0  0  0  0  0
   -1.2530   22.9499  -25.3889 H   0  0  0  0  0  0  0  0  0  0  0  0
   -2.8760   21.8780  -28.5800 O   0  0  0  0  0  0  0  0  0  0  0  0
  1  2  1  0
  2  3  2  0
  3  4  1  0
  4  5  1  0
  5  6  1  0
  5  7  2  0
  7  8  1  0
  8  9  2  0
  9 10  1  0
  9 11  1  0
 11 12  1  0
 11 13  2  0
 13 14  1  0
 13 15  1  0
 15 16  1  0
 15 17  2  0
 17 18  1  0
 18 19  1  0
 18 20  1  0
 18 21  1  0
 21 22  1  0
  7 23  1  0
 23 24  1  0
 23 25  2  0
 25 26  1  0
 26 27  2  0
 27 28  1  0
 28 29  2  0
 29 30  1  0
 30 31  1  0
 31 32  1  0
 31 33  1  0
 31 34  1  0
 30 35  1  0
 35 36  1  0
 35 37  1  0
 35 38  1  0
 30 39  1  0
 39 40  1  0
 39 41  1  0
 39 42  1  0
 29 43  1  0
 25  3  1  0
 43 26  1  0
 17  8  1  0
M  CHG  1   4  -1
M  END
>  <UniqueID>  (9) 
8

>  <SMILES>  (9) 
[H]/N=c1\[n-]cc(-c2ccccc2CO)cc1-c1nnc(C(C)(C)C)o1

>  <Energy>  (9) 
85.09671502592079

>  <Genealogy>  (9) 
CC(C)(C)c1nnc(-c2cc(-c3ccccc3CO)c[n-]c2=N)o1 (protonated)
[H]/N=c1\[n-]cc(-c2ccccc2CO)cc1-c1nnc(C(C)(C)C)o1 (cis-trans isomerization)
[H]/N=c1\[n-]cc(-c2ccccc2CO)cc1-c1nnc(C(C)(C)C)o1 (3D coordinates assigned)
[H]/N=c1\[n-]cc(-c2ccccc2CO)cc1-c1nnc(C(C)(C)C)o1 (optimized conformer: 85.09671502592079 kcal/mol)

>  <smiles>  (9) 
CC(C)(C)c1nnc(-c2cc(-c3ccccc3CO)c[nH]c2=N)o1

>  <score_type>  (9) 
oracle

>  <origin>  (9) 
adgpu

>  <m_score__min__energy>  (9) 
-10.24

>  <m_primary>  (9) 
energy

$$$$
9:0
     RDKit          3D

 43 46  0  0  0  0  0  0  0  0999 V2000
   -7.8007   17.6882  -32.0584 H   0  0  0  0  0  0  0  0  0  0  0  0
   -7.8470   18.7870  -32.0340 C   0  0  0  0  0  0  0  0  0  0  0  0
   -9.0950   19.4400  -32.0680 C   0  0  0  0  0  0  0  0  0  0  0  0
  -10.0216   18.8492  -32.1167 H   0  0  0  0  0  0  0  0  0  0  0  0
   -9.1600   20.8420  -32.0400 C   0  0  0  0  0  0  0  0  0  0  0  0
  -10.1297   21.3611  -32.0571 H   0  0  0  0  0  0  0  0  0  0  0  0
   -7.9650   21.5620  -31.9900 C   0  0  0  0  0  0  0  0  0  0  0  0
   -6.7570   20.9310  -31.9560 C   0  0  0  0  0  0  0  0  0  0  0  0
   -6.6620   19.5380  -31.9690 C   0  0  0  0  0  0  0  0  0  0  0  0
   -5.6818   19.0404  -31.9293 H   0  0  0  0  0  0  0  0  0  0  0  0
   -5.6660   21.9230  -31.8510 C   0  0  0  0  0  0  0  0  0  0  0  0
   -4.8939   21.7298  -32.6103 H   0  0  0  0  0  0  0  0  0  0  0  0
   -5.1643   21.8822  -30.8729 H   0  0  0  0  0  0  0  0  0  0  0  0
   -6.3160   23.2400  -32.0900 N   0  0  0  0  0  0  0  0  0  0  0  0
   -6.1370   23.5230  -33.0830 H   0  0  0  0  0  0  0  0  0  0  0  0
   -5.8000   24.2910  -31.2390 C   0  0  0  0  0  0  0  0  0  0  0  0
   -6.5810   24.9290  -30.4770 O   0  0  0  0  0  0  0  0  0  0  0  0
   -4.3810   24.4850  -31.1230 N   0  0  0  0  0  0  0  0  0  0  0  0
   -3.5200   23.8880  -30.1430 C   0  0  0  0  0  0  0  0  0  0  0  0
   -3.7430   24.1690  -28.7910 C   0  0  0  0  0  0  0  0  0  0  0  0
   -4.5585   24.8487  -28.5028 H   0  0  0  0  0  0  0  0  0  0  0  0
   -2.9390   23.5940  -27.8030 C   0  0  0  0  0  0  0  0  0  0  0  0
   -3.1183   23.8333  -26.7444 H   0  0  0  0  0  0  0  0  0  0  0  0
   -1.9030   22.7120  -28.1540 C   0  0  0  0  0  0  0  0  0  0  0  0
   -1.0560   22.0880  -27.1100 C   0  0  0  0  0  0  0  0  0  0  0  0
   -1.2470   22.3560  -25.8920 O   0  0  0  0  0  0  0  0  0  0  0  0
   -0.0280   21.1580  -27.4640 N   0  0  0  0  0  0  0  0  0  0  0  0
   -0.1500   19.8620  -27.4650 C   0  0  0  0  0  0  0  0  0  0  0  0
    0.8410   19.0390  -27.8390 N   0  0  0  0  0  0  0  0  0  0  0  0
    0.3640   17.8340  -27.6920 O   0  0  0  0  0  0  0  0  0  0  0  0
   -0.8620   17.8020  -27.2460 N   0  0  0  0  0  0  0  0  0  0  0  0
   -1.2320   19.0860  -27.0870 C   0  0  0  0  0  0  0  0  0  0  0  0
   -2.5690   19.5010  -26.5550 C   0  0  0  0  0  0  0  0  0  0  0  0
   -2.5445   19.4934  -25.4553 H   0  0  0  0  0  0  0  0  0  0  0  0
   -2.8060   20.5150  -26.9095 H   0  0  0  0  0  0  0  0  0  0  0  0
   -3.3385   18.7994  -26.9095 H   0  0  0  0  0  0  0  0  0  0  0  0
   -1.6980   22.4080  -29.5110 C   0  0  0  0  0  0  0  0  0  0  0  0
   -0.8977   21.7104  -29.7988 H   0  0  0  0  0  0  0  0  0  0  0  0
   -2.5030   22.9850  -30.4980 C   0  0  0  0  0  0  0  0  0  0  0  0
   -2.3399   22.7314  -31.5559 H   0  0  0  0  0  0  0  0  0  0  0  0
   -7.7770   23.0270  -31.9190 C   0  0  0  0  0  0  0  0  0  0  0  0
   -8.3367   23.5273  -32.7230 H   0  0  0  0  0  0  0  0  0  0  0  0
   -8.1454   23.4437  -30.9700 H   0  0  0  0  0  0  0  0  0  0  0  0
  1  2  1  0
  2  3  2  0
  3  4  1  0
  3  5  1  0
  5  6  1  0
  5  7  2  0
  7  8  1  0
  8  9  2  0
  9 10  1  0
  8 11  1  0
 11 12  1  0
 11 13  1  0
 11 14  1  0
 14 15  1  0
 14 16  1  0
 16 17  2  0
 16 18  1  0
 18 19  1  0
 19 20  2  0
 20 21  1  0
 20 22  1  0
 22 23  1  0
 22 24  2  0
 24 25  1  0
 25 26  2  0
 25 27  1  0
 27 28  2  0
 28 29  1  0
 29 30  1  0
 30 31  1  0
 31 32  2  0
 32 33  1  0
 33 34  1  0
 33 35  1  0
 33 36  1  0
 24 37  1  0
 37 38  1  0
 37 39  2  0
 39 40  1  0
 14 41  1  0
 41 42  1  0
 41 43  1  0
  9  2  1  0
 39 19  1  0
 41  7  1  0
 32 28  1  0
M  CHG  3  14   1  18  -1  29  -1
M  END
>  <UniqueID>  (10) 
9

>  <SMILES>  (10) 
Cc1no[n-]/c1=N/C(=O)c1ccc([N-]C(=O)[NH+]2Cc3ccccc3C2)cc1

>  <Energy>  (10) 
113.49504669287114

>  <Genealogy>  (10) 
Cc1no[n-]c1=NC(=O)c1ccc([N-]C(=O)[NH+]2Cc3ccccc3C2)cc1 (protonated)
Cc1no[n-]/c1=N/C(=O)c1ccc([N-]C(=O)[NH+]2Cc3ccccc3C2)cc1 (cis-trans isomerization)
Cc1no[n-]/c1=N/C(=O)c1ccc([N-]C(=O)[NH+]2Cc3ccccc3C2)cc1 (3D coordinates assigned)
Cc1no[n-]/c1=N/C(=O)c1ccc([N-]C(=O)[NH+]2Cc3ccccc3C2)cc1 (nonaromatic ring conformer: 113.49504669287114 kcal/mol)

>  <smiles>  (10) 
Cc1no[nH]c1=NC(=O)c1ccc(NC(=O)N2Cc3ccccc3C2)cc1

>  <score_type>  (10) 
oracle

>  <origin>  (10) 
adgpu

>  <m_score__min__energy>  (10) 
-9.9199999999999999

>  <m_primary>  (10) 
energy

$$$$
10:0
     RDKit          3D

 31 32  0  0  0  0  0  0  0  0999 V2000
   -2.4640   22.0860  -31.1550 C   0  0  0  0  0  0  0  0  0  0  0  0
   -3.4840   22.9310  -31.6750 O   0  0  0  0  0  0  0  0  0  0  0  0
   -4.8500   22.6070  -31.7000 C   0  0  0  0  0  0  0  0  0  0  0  0
   -5.3280   21.4480  -32.3430 C   0  0  0  0  0  0  0  0  0  0  0  0
   -6.6920   21.1490  -32.3360 C   0  0  0  0  0  0  0  0  0  0  0  0
   -7.5940   21.9990  -31.6970 C   0  0  0  0  0  0  0  0  0  0  0  0
   -9.4570   21.5790  -31.6800 Br  0  0  0  0  0  0  0  0  0  0  0  0
   -7.1330   23.1530  -31.0580 C   0  0  0  0  0  0  0  0  0  0  0  0
   -5.7640   23.4600  -31.0510 C   0  0  0  0  0  0  0  0  0  0  0  0
   -5.1850   24.8910  -30.1910 S   0  0  0  0  0  0  0  0  0  0  0  0
   -3.8510   25.2860  -30.7580 O   0  0  0  0  0  0  0  0  0  0  0  0
   -6.1410   26.0370  -30.3770 O   0  0  0  0  0  0  0  0  0  0  0  0
   -5.0060   24.5500  -28.4910 N   0  0  0  0  0  0  0  0  0  0  0  0
   -3.7940   23.7630  -28.2320 C   0  0  0  0  0  0  0  0  0  0  0  0
   -2.6950   24.6370  -27.7150 C   0  0  0  0  0  0  0  0  0  0  0  0
   -2.5230   25.0390  -26.3960 C   0  0  0  0  0  0  0  0  0  0  0  0
   -1.3990   25.8520  -26.2110 C   0  0  0  0  0  0  0  0  0  0  0  0
   -0.6750   26.0790  -27.3750 C   0  0  0  0  0  0  0  0  0  0  0  0
   -1.4350   25.2650  -28.6360 S   0  0  0  0  0  0  0  0  0  0  0  0
   -2.4930   22.1100  -30.0556 H   0  0  0  0  0  0  0  0  0  0  0  0
   -2.6282   21.0557  -31.5037 H   0  0  0  0  0  0  0  0  0  0  0  0
   -1.4823   22.4390  -31.5037 H   0  0  0  0  0  0  0  0  0  0  0  0
   -4.6230   20.7752  -32.8532 H   0  0  0  0  0  0  0  0  0  0  0  0
   -7.0562   20.2396  -32.8364 H   0  0  0  0  0  0  0  0  0  0  0  0
   -7.8469   23.8240  -30.5580 H   0  0  0  0  0  0  0  0  0  0  0  0
   -5.8290   23.9640  -28.2200 H   0  0  0  0  0  0  0  0  0  0  0  0
   -4.0200   22.9875  -27.4853 H   0  0  0  0  0  0  0  0  0  0  0  0
   -3.4644   23.3015  -29.1745 H   0  0  0  0  0  0  0  0  0  0  0  0
   -3.2012   24.7479  -25.5804 H   0  0  0  0  0  0  0  0  0  0  0  0
   -1.1151   26.2722  -25.2349 H   0  0  0  0  0  0  0  0  0  0  0  0
    0.2382   26.6866  -27.4578 H   0  0  0  0  0  0  0  0  0  0  0  0
  1  2  1  0
  2  3  1  0
  3  4  2  0
  4  5  1  0
  5  6  2  0
  6  7  1  0
  6  8  1  0
  8  9  2  0
  9 10  1  0
 10 11  2  0
 10 12  2  0
 10 13  1  0
 13 14  1  0
 14 15  1  0
 15 16  2  0
 16 17  1  0
 17 18  2  0
 18 19  1  0
  9  3  1  0
 19 15  1  0
  1 20  1  0
  1 21  1  0
  1 22  1  0
  4 23  1  0
  5 24  1  0
  8 25  1  0
 13 26  1  0
 14 27  1  0
 14 28  1  0
 16 29  1  0
 17 30  1  0
 18 31  1  0
M  END
>  <UniqueID>  (11) 
10

>  <SMILES>  (11) 
COc1ccc(Br)cc1S(=O)(=O)NCc1cccs1

>  <Energy>  (11) 
50.74416227115557

>  <Genealogy>  (11) 
COc1ccc(Br)cc1S(=O)(=O)NCc1cccs1 (3D coordinates assigned)
COc1ccc(Br)cc1S(=O)(=O)NCc1cccs1 (optimized conformer: 50.74416227115557 kcal/mol)

>  <smiles>  (11) 
COc1ccc(Br)cc1S(=O)(=O)NCc1cccs1

>  <score_type>  (11) 
oracle

>  <origin>  (11) 
adgpu

>  <m_score__min__energy>  (11) 
-8.4100000000000001

>  <m_primary>  (11) 
energy

$$$$
11:0
     RDKit          3D

 49 51  0  0  0  0  0  0  0  0999 V2000
   -2.8390   18.8750  -26.2460 C   0  0  0  0  0  0  0  0  0  0  0  0
   -1.9890   19.3940  -27.2610 O   0  0  0  0  0  0  0  0  0  0  0  0
   -2.1390   20.6640  -27.8430 C   0  0  0  0  0  0  0  0  0  0  0  0
   -3.2930   21.3980  -27.5540 C   0  0  0  0  0  0  0  0  0  0  0  0
   -3.4770   22.6780  -28.0890 C   0  0  0  0  0  0  0  0  0  0  0  0
   -2.5020   23.2460  -28.9240 C   0  0  0  0  0  0  0  0  0  0  0  0
   -2.6800   24.6240  -29.4470 C   0  0  0  0  0  0  0  0  0  0  0  0
   -1.9900   25.5630  -28.9610 O   0  0  0  0  0  0  0  0  0  0  0  0
   -3.6470   24.9360  -30.4630 N   0  0  0  0  0  0  0  0  0  0  0  0
   -4.8220   24.1650  -30.7480 C   0  0  0  0  0  0  0  0  0  0  0  0
   -5.9720   24.3540  -29.9710 C   0  0  0  0  0  0  0  0  0  0  0  0
   -7.0910   23.5330  -30.1560 C   0  0  0  0  0  0  0  0  0  0  0  0
   -7.0710   22.5250  -31.1310 C   0  0  0  0  0  0  0  0  0  0  0  0
   -8.3890   21.3650  -31.2670 S   0  0  0  0  0  0  0  0  0  0  0  0
   -9.3890   21.5310  -30.1530 O   0  0  0  0  0  0  0  0  0  0  0  0
   -9.0860   21.5840  -32.5850 O   0  0  0  0  0  0  0  0  0  0  0  0
   -7.7270   19.7570  -31.2320 N   0  0  0  0  0  0  0  0  0  0  0  0
   -6.9250   19.1700  -32.2650 C   0  0  0  0  0  0  0  0  0  0  0  0
   -6.8790   19.7250  -33.5570 C   0  0  0  0  0  0  0  0  0  0  0  0
   -6.1110   19.1290  -34.5580 C   0  0  0  0  0  0  0  0  0  0  0  0
   -5.3540   17.9850  -34.2820 C   0  0  0  0  0  0  0  0  0  0  0  0
   -4.5200   17.3670  -35.3680 C   0  0  0  0  0  0  0  0  0  0  0  0
   -5.3760   17.4390  -32.9870 C   0  0  0  0  0  0  0  0  0  0  0  0
   -6.1650   18.0170  -31.9780 C   0  0  0  0  0  0  0  0  0  0  0  0
   -6.1780   17.4140  -30.6010 C   0  0  0  0  0  0  0  0  0  0  0  0
   -5.9480   22.3830  -31.9540 C   0  0  0  0  0  0  0  0  0  0  0  0
   -4.8330   23.2060  -31.7740 C   0  0  0  0  0  0  0  0  0  0  0  0
   -1.3600   22.4920  -29.2490 C   0  0  0  0  0  0  0  0  0  0  0  0
   -1.1720   21.2180  -28.7020 C   0  0  0  0  0  0  0  0  0  0  0  0
   -2.4264   19.1269  -25.2579 H   0  0  0  0  0  0  0  0  0  0  0  0
   -3.8421   19.3148  -26.3475 H   0  0  0  0  0  0  0  0  0  0  0  0
   -2.9060   17.7817  -26.3475 H   0  0  0  0  0  0  0  0  0  0  0  0
   -4.0641   20.9652  -26.8996 H   0  0  0  0  0  0  0  0  0  0  0  0
   -4.3913   23.2425  -27.8537 H   0  0  0  0  0  0  0  0  0  0  0  0
   -5.9961   25.1504  -29.2126 H   0  0  0  0  0  0  0  0  0  0  0  0
   -7.9875   23.6788  -29.5355 H   0  0  0  0  0  0  0  0  0  0  0  0
   -7.4532   20.6364  -33.7799 H   0  0  0  0  0  0  0  0  0  0  0  0
   -6.1006   19.5609  -35.5696 H   0  0  0  0  0  0  0  0  0  0  0  0
   -3.7141   16.7698  -34.9165 H   0  0  0  0  0  0  0  0  0  0  0  0
   -5.1523   16.7177  -35.9914 H   0  0  0  0  0  0  0  0  0  0  0  0
   -4.0829   18.1610  -35.9914 H   0  0  0  0  0  0  0  0  0  0  0  0
   -4.7692   16.5498  -32.7610 H   0  0  0  0  0  0  0  0  0  0  0  0
   -6.1607   18.2167  -29.8490 H   0  0  0  0  0  0  0  0  0  0  0  0
   -7.0893   16.8114  -30.4732 H   0  0  0  0  0  0  0  0  0  0  0  0
   -5.2935   16.7727  -30.4732 H   0  0  0  0  0  0  0  0  0  0  0  0
   -5.9430   21.6200  -32.7463 H   0  0  0  0  0  0  0  0  0  0  0  0
   -3.9618   23.1024  -32.4375 H   0  0  0  0  0  0  0  0  0  0  0  0
   -0.6095   22.9068  -29.9380 H   0  0  0  0  0  0  0  0  0  0  0  0
   -0.2638   20.6467  -28.9447 H   0  0  0  0  0  0  0  0  0  0  0  0
  1  2  1  0
  2  3  1  0
  3  4  2  0
  4  5  1  0
  5  6  2  0
  6  7  1  0
  7  8  2  0
  7  9  1  0
  9 10  1  0
 10 11  2  0
 11 12  1  0
 12 13  2  0
 13 14  1  0
 14 15  2  0
 14 16  2  0
 14 17  1  0
 17 18  1  0
 18 19  2  0
 19 20  1  0
 20 21  2  0
 21 22  1  0
 21 23  1  0
 23 24  2  0
 24 25  1  0
 13 26  1  0
 26 27  2  0
  6 28  1  0
 28 29  2  0
 29  3  1  0
 27 10  1  0
 24 18  1  0
  1 30  1  0
  1 31  1  0
  1 32  1  0
  4 33  1  0
  5 34  1  0
 11 35  1  0
 12 36  1  0
 19 37  1  0
 20 38  1  0
 22 39  1  0
 22 40  1  0
 22 41  1  0
 23 42  1  0
 25 43  1  0
 25 44  1  0
 25 45  1  0
 26 46  1  0
 27 47  1  0
 28 48  1  0
 29 49  1  0
M  CHG  2   9  -1  17  -1
M  END
>  <UniqueID>  (12) 
11

>  <SMILES>  (12) 
COc1ccc(C(=O)[N-]c2ccc(S(=O)(=O)[N-]c3ccc(C)cc3C)cc2)cc1

>  <Energy>  (12) 
57.57191997821378

>  <Genealogy>  (12) 
COc1ccc(C(=O)[N-]c2ccc(S(=O)(=O)[N-]c3ccc(C)cc3C)cc2)cc1 (protonated)
COc1ccc(C(=O)[N-]c2ccc(S(=O)(=O)[N-]c3ccc(C)cc3C)cc2)cc1 (3D coordinates assigned)
COc1ccc(C(=O)[N-]c2ccc(S(=O)(=O)[N-]c3ccc(C)cc3C)cc2)cc1 (optimized conformer: 57.57191997821378 kcal/mol)

>  <smiles>  (12) 
COc1ccc(C(=O)Nc2ccc(S(=O)(=O)Nc3ccc(C)cc3C)cc2)cc1

>  <score_type>  (12) 
oracle

>  <origin>  (12) 
adgpu

>  <m_score__min__energy>  (12) 
-11.800000000000001

>  <m_primary>  (12) 
energy

$$$$
12:0
     RDKit          3D

 43 46  0  0  0  0  0  0  0  0999 V2000
   -3.9190   25.2930  -30.8430 O   0  0  0  0  0  0  0  0  0  0  0  0
   -4.2050   24.3870  -30.0160 C   0  0  0  0  0  0  0  0  0  0  0  0
   -3.9890   24.5910  -28.6140 N   0  0  0  0  0  0  0  0  0  0  0  0
   -2.7220   24.5980  -27.9400 C   0  0  0  0  0  0  0  0  0  0  0  0
   -2.6700   25.0410  -26.6110 C   0  0  0  0  0  0  0  0  0  0  0  0
   -1.4530   25.0800  -25.9260 C   0  0  0  0  0  0  0  0  0  0  0  0
   -0.2750   24.6910  -26.5670 C   0  0  0  0  0  0  0  0  0  0  0  0
   -0.3090   24.2710  -27.9030 C   0  0  0  0  0  0  0  0  0  0  0  0
    0.8620   23.8990  -28.5600 O   0  0  0  0  0  0  0  0  0  0  0  0
   -1.5290   24.2290  -28.5900 C   0  0  0  0  0  0  0  0  0  0  0  0
   -4.6790   23.0750  -30.4890 C   0  0  0  0  0  0  0  0  0  0  0  0
   -5.9210   22.8150  -31.0330 C   0  0  0  0  0  0  0  0  0  0  0  0
   -6.0360   21.4830  -31.2260 N   0  0  0  0  0  0  0  0  0  0  0  0
   -7.1780   20.7750  -31.7500 C   0  0  0  0  0  0  0  0  0  0  0  0
   -8.4450   21.3860  -31.8340 C   0  0  0  0  0  0  0  0  0  0  0  0
   -9.5390   20.6820  -32.3470 C   0  0  0  0  0  0  0  0  0  0  0  0
   -9.3830   19.3660  -32.7870 C   0  0  0  0  0  0  0  0  0  0  0  0
   -8.1330   18.7510  -32.7160 C   0  0  0  0  0  0  0  0  0  0  0  0
   -7.0350   19.4490  -32.2040 C   0  0  0  0  0  0  0  0  0  0  0  0
   -4.9220   20.8830  -30.8310 N   0  0  0  0  0  0  0  0  0  0  0  0
   -4.0710   21.8280  -30.3860 C   0  0  0  0  0  0  0  0  0  0  0  0
   -2.7070   21.5150  -29.9140 C   0  0  0  0  0  0  0  0  0  0  0  0
   -1.6110   21.7220  -30.7670 C   0  0  0  0  0  0  0  0  0  0  0  0
   -0.3110   21.4560  -30.3250 C   0  0  0  0  0  0  0  0  0  0  0  0
   -0.0950   20.9970  -29.0220 C   0  0  0  0  0  0  0  0  0  0  0  0
    1.1970   20.7320  -28.5840 O   0  0  0  0  0  0  0  0  0  0  0  0
   -1.1790   20.8100  -28.1590 C   0  0  0  0  0  0  0  0  0  0  0  0
   -2.4790   21.0750  -28.5990 C   0  0  0  0  0  0  0  0  0  0  0  0
   -3.5929   25.3598  -26.1045 H   0  0  0  0  0  0  0  0  0  0  0  0
   -1.4227   25.4178  -24.8796 H   0  0  0  0  0  0  0  0  0  0  0  0
    0.6805   24.7144  -26.0224 H   0  0  0  0  0  0  0  0  0  0  0  0
    1.1600   22.9310  -28.6030 H   0  0  0  0  0  0  0  0  0  0  0  0
   -1.5550   23.9065  -29.6413 H   0  0  0  0  0  0  0  0  0  0  0  0
   -6.6884   23.5667  -31.2697 H   0  0  0  0  0  0  0  0  0  0  0  0
   -8.5744   22.4240  -31.4937 H   0  0  0  0  0  0  0  0  0  0  0  0
  -10.5250   21.1662  -32.4041 H   0  0  0  0  0  0  0  0  0  0  0  0
  -10.2455   18.8145  -33.1894 H   0  0  0  0  0  0  0  0  0  0  0  0
   -8.0108   17.7145  -33.0636 H   0  0  0  0  0  0  0  0  0  0  0  0
   -6.0515   18.9588  -32.1553 H   0  0  0  0  0  0  0  0  0  0  0  0
   -1.7758   22.0954  -31.7885 H   0  0  0  0  0  0  0  0  0  0  0  0
    0.5420   21.6080  -31.0028 H   0  0  0  0  0  0  0  0  0  0  0  0
   -1.0086   20.4538  -27.1323 H   0  0  0  0  0  0  0  0  0  0  0  0
   -3.3277   20.9385  -27.9126 H   0  0  0  0  0  0  0  0  0  0  0  0
  1  2  2  0
  2  3  1  0
  3  4  1  0
  4  5  2  0
  5  6  1  0
  6  7  2  0
  7  8  1  0
  8  9  1  0
  8 10  2  0
  2 11  1  0
 11 12  2  0
 12 13  1  0
 13 14  1  0
 14 15  2  0
 15 16  1  0
 16 17  2  0
 17 18  1  0
 18 19  2  0
 13 20  1  0
 20 21  2  0
 21 22  1  0
 22 23  2  0
 23 24  1  0
 24 25  2  0
 25 26  1  0
 25 27  1  0
 27 28  2  0
 10  4  1  0
 21 11  1  0
 28 22  1  0
 19 14  1  0
  5 29  1  0
  6 30  1  0
  7 31  1  0
  9 32  1  0
 10 33  1  0
 12 34  1  0
 15 35  1  0
 16 36  1  0
 17 37  1  0
 18 38  1  0
 19 39  1  0
 23 40  1  0
 24 41  1  0
 27 42  1  0
 28 43  1  0
M  CHG  2   3  -1  26  -1
M  END
>  <UniqueID>  (13) 
12

>  <SMILES>  (13) 
O=C([N-]c1cccc(O)c1)c1cn(-c2ccccc2)nc1-c1ccc([O-])cc1

>  <Energy>  (13) 
89.2090037459456

>  <Genealogy>  (13) 
O=C([N-]c1cccc(O)c1)c1cn(-c2ccccc2)nc1-c1ccc([O-])cc1 (protonated)
O=C([N-]c1cccc(O)c1)c1cn(-c2ccccc2)nc1-c1ccc([O-])cc1 (3D coordinates assigned)
O=C([N-]c1cccc(O)c1)c1cn(-c2ccccc2)nc1-c1ccc([O-])cc1 (optimized conformer: 89.2090037459456 kcal/mol)

>  <smiles>  (13) 
O=C(Nc1cccc(O)c1)c1cn(-c2ccccc2)nc1-c1ccc(O)cc1

>  <score_type>  (13) 
oracle

>  <origin>  (13) 
adgpu

>  <m_score__min__energy>  (13) 
-10.130000000000001

>  <m_primary>  (13) 
energy

$$$$
13:0
     RDKit          3D

 41 43  0  0  0  0  0  0  0  0999 V2000
   -4.2350   24.3280  -30.7900 O   0  0  0  0  0  0  0  0  0  0  0  0
   -4.7040   23.2980  -30.2340 C   0  0  0  0  0  0  0  0  0  0  0  0
   -4.3810   23.0120  -28.8590 N   0  0  0  0  0  0  0  0  0  0  0  0
   -3.4630   23.7890  -28.0730 C   0  0  0  0  0  0  0  0  0  0  0  0
   -3.8810   24.4690  -26.9190 C   0  0  0  0  0  0  0  0  0  0  0  0
   -2.9700   25.2310  -26.1840 C   0  0  0  0  0  0  0  0  0  0  0  0
   -1.6400   25.3580  -26.6000 C   0  0  0  0  0  0  0  0  0  0  0  0
   -1.2170   24.6950  -27.7780 C   0  0  0  0  0  0  0  0  0  0  0  0
   -2.1350   23.9190  -28.4960 C   0  0  0  0  0  0  0  0  0  0  0  0
    0.1050   24.7150  -28.2360 O   0  0  0  0  0  0  0  0  0  0  0  0
    1.2500   24.4970  -27.4200 C   0  0  0  0  0  0  0  0  0  0  0  0
    0.8690   24.3110  -25.9600 C   0  0  0  0  0  0  0  0  0  0  0  0
    0.4870   25.6370  -25.3180 C   0  0  0  0  0  0  0  0  0  0  0  0
   -0.7780   26.0930  -25.7810 O   0  0  0  0  0  0  0  0  0  0  0  0
   -5.5920   22.4030  -31.0170 C   0  0  0  0  0  0  0  0  0  0  0  0
   -6.9890   22.5570  -30.9890 C   0  0  0  0  0  0  0  0  0  0  0  0
   -7.8180   21.7250  -31.7610 C   0  0  0  0  0  0  0  0  0  0  0  0
   -9.3180   21.8790  -31.7000 C   0  0  0  0  0  0  0  0  0  0  0  0
   -9.9440   20.8520  -32.3860 F   0  0  0  0  0  0  0  0  0  0  0  0
   -9.7620   21.8530  -30.3880 F   0  0  0  0  0  0  0  0  0  0  0  0
   -9.6750   23.0860  -32.2710 F   0  0  0  0  0  0  0  0  0  0  0  0
   -7.2390   20.6990  -32.5250 C   0  0  0  0  0  0  0  0  0  0  0  0
   -5.8460   20.5220  -32.5530 C   0  0  0  0  0  0  0  0  0  0  0  0
   -5.2300   19.4610  -33.4320 C   0  0  0  0  0  0  0  0  0  0  0  0
   -3.9490   19.8220  -33.8110 F   0  0  0  0  0  0  0  0  0  0  0  0
   -5.1570   18.2520  -32.7630 F   0  0  0  0  0  0  0  0  0  0  0  0
   -6.0060   19.3010  -34.5650 F   0  0  0  0  0  0  0  0  0  0  0  0
   -5.0300   21.4000  -31.8230 C   0  0  0  0  0  0  0  0  0  0  0  0
   -4.8690   22.2260  -28.3740 H   0  0  0  0  0  0  0  0  0  0  0  0
   -4.9292   24.4018  -26.5922 H   0  0  0  0  0  0  0  0  0  0  0  0
   -3.3024   25.7379  -25.2661 H   0  0  0  0  0  0  0  0  0  0  0  0
   -1.8065   23.4018  -29.4096 H   0  0  0  0  0  0  0  0  0  0  0  0
    1.7717   23.5943  -27.7707 H   0  0  0  0  0  0  0  0  0  0  0  0
    1.9003   25.3809  -27.4961 H   0  0  0  0  0  0  0  0  0  0  0  0
    0.0136   23.6223  -25.8973 H   0  0  0  0  0  0  0  0  0  0  0  0
    1.7370   23.9010  -25.4229 H   0  0  0  0  0  0  0  0  0  0  0  0
    0.4427   25.5065  -24.2267 H   0  0  0  0  0  0  0  0  0  0  0  0
    1.2457   26.3850  -25.5916 H   0  0  0  0  0  0  0  0  0  0  0  0
   -7.4380   23.3368  -30.3563 H   0  0  0  0  0  0  0  0  0  0  0  0
   -7.8842   20.0258  -33.1086 H   0  0  0  0  0  0  0  0  0  0  0  0
   -3.9361   21.3011  -31.8830 H   0  0  0  0  0  0  0  0  0  0  0  0
  1  2  2  0
  2  3  1  0
  3  4  1  0
  4  5  2  0
  5  6  1  0
  6  7  2  0
  7  8  1  0
  8  9  2  0
  8 10  1  0
 10 11  1  0
 11 12  1  0
 12 13  1  0
 13 14  1  0
  2 15  1  0
 15 16  2  0
 16 17  1  0
 17 18  1  0
 18 19  1  0
 18 20  1  0
 18 21  1  0
 17 22  2  0
 22 23  1  0
 23 24  1  0
 24 25  1  0
 24 26  1  0
 24 27  1  0
 23 28  2  0
  9  4  1  0
 28 15  1  0
 14  7  1  0
  3 29  1  0
  5 30  1  0
  6 31  1  0
  9 32  1  0
 11 33  1  0
 11 34  1  0
 12 35  1  0
 12 36  1  0
 13 37  1  0
 13 38  1  0
 16 39  1  0
 22 40  1  0
 28 41  1  0
M  END
>  <UniqueID>  (14) 
13

>  <SMILES>  (14) 
O=C(Nc1ccc2c(c1)OCCCO2)c1cc(C(F)(F)F)cc(C(F)(F)F)c1

>  <Energy>  (14) 
58.984809462658134

>  <Genealogy>  (14) 
O=C(Nc1ccc2c(c1)OCCCO2)c1cc(C(F)(F)F)cc(C(F)(F)F)c1 (3D coordinates assigned)
O=C(Nc1ccc2c(c1)OCCCO2)c1cc(C(F)(F)F)cc(C(F)(F)F)c1 (nonaromatic ring conformer: 58.984809462658134 kcal/mol)

>  <smiles>  (14) 
O=C(Nc1ccc2c(c1)OCCCO2)c1cc(C(F)(F)F)cc(C(F)(F)F)c1

>  <score_type>  (14) 
oracle

>  <origin>  (14) 
adgpu

>  <m_score__min__energy>  (14) 
-6.5599999999999996

>  <m_primary>  (14) 
energy

$$$$
14:0
     RDKit          3D

 53 56  0  0  0  0  0  0  0  0999 V2000
   -1.4350   24.5750  -25.9150 C   0  0  0  0  0  0  0  0  0  0  0  0
   -1.2560   24.2580  -27.3640 C   0  0  0  0  0  0  0  0  0  0  0  0
   -0.4360   24.9410  -28.1890 N   0  0  0  0  0  0  0  0  0  0  0  0
   -0.6190   24.4530  -29.4110 N   0  0  0  0  0  0  0  0  0  0  0  0
   -1.5570   23.4930  -29.3040 C   0  0  0  0  0  0  0  0  0  0  0  0
   -1.9640   23.3350  -28.0400 N   0  0  0  0  0  0  0  0  0  0  0  0
   -3.0500   22.4680  -27.5970 C   0  0  0  0  0  0  0  0  0  0  0  0
   -3.4930   21.5280  -28.7390 C   0  0  0  0  0  0  0  0  0  0  0  0
   -3.4700   22.1700  -30.0780 N   0  0  1  0  0  0  0  0  0  0  0  0
   -4.7390   23.3710  -30.2850 S   0  0  0  0  0  0  0  0  0  0  0  0
   -4.2460   24.4840  -31.1680 O   0  0  0  0  0  0  0  0  0  0  0  0
   -5.0610   23.9640  -28.9400 O   0  0  0  0  0  0  0  0  0  0  0  0
   -6.2360   22.7140  -30.9620 C   0  0  0  0  0  0  0  0  0  0  0  0
   -7.3100   23.5690  -31.2450 C   0  0  0  0  0  0  0  0  0  0  0  0
   -8.5170   23.0500  -31.7170 C   0  0  0  0  0  0  0  0  0  0  0  0
   -8.6530   21.6780  -31.9340 C   0  0  0  0  0  0  0  0  0  0  0  0
   -7.5630   20.8160  -31.7230 C   0  0  0  0  0  0  0  0  0  0  0  0
   -7.6960   19.3550  -31.8970 C   0  0  0  0  0  0  0  0  0  0  0  0
   -6.8320   18.5650  -32.5550 C   0  0  0  0  0  0  0  0  0  0  0  0
   -5.4910   18.9810  -33.0310 C   0  0  0  0  0  0  0  0  0  0  0  0
   -5.2380   19.0130  -34.2640 O   0  0  0  0  0  0  0  0  0  0  0  0
   -4.4470   19.3240  -32.1120 N   0  0  0  0  0  0  0  0  0  0  0  0
   -3.1550   19.8440  -32.4530 C   0  0  0  0  0  0  0  0  0  0  0  0
   -1.9870   19.2420  -31.9500 C   0  0  0  0  0  0  0  0  0  0  0  0
   -0.7320   19.7740  -32.2500 C   0  0  0  0  0  0  0  0  0  0  0  0
   -0.6300   20.9220  -33.0390 C   0  0  0  0  0  0  0  0  0  0  0  0
   -1.7840   21.5450  -33.5210 C   0  0  0  0  0  0  0  0  0  0  0  0
   -3.0510   21.0190  -33.2250 C   0  0  0  0  0  0  0  0  0  0  0  0
   -4.2220   21.6740  -33.7290 N   0  0  0  0  0  0  0  0  0  0  0  0
   -6.3600   21.3420  -31.2270 C   0  0  0  0  0  0  0  0  0  0  0  0
   -2.1340   22.7020  -30.4330 C   0  0  0  0  0  0  0  0  0  0  0  0
   -0.9844   23.7770  -25.3067 H   0  0  0  0  0  0  0  0  0  0  0  0
   -0.9441   25.5323  -25.6857 H   0  0  0  0  0  0  0  0  0  0  0  0
   -2.5083   24.6491  -25.6857 H   0  0  0  0  0  0  0  0  0  0  0  0
   -2.7061   21.8642  -26.7443 H   0  0  0  0  0  0  0  0  0  0  0  0
   -3.9049   23.0930  -27.2994 H   0  0  0  0  0  0  0  0  0  0  0  0
   -2.8173   20.6602  -28.7574 H   0  0  0  0  0  0  0  0  0  0  0  0
   -4.5353   21.2413  -28.5358 H   0  0  0  0  0  0  0  0  0  0  0  0
   -3.6880   21.4160  -30.7710 H   0  0  0  0  0  0  0  0  0  0  0  0
   -7.2014   24.6532  -31.0946 H   0  0  0  0  0  0  0  0  0  0  0  0
   -9.3628   23.7239  -31.9183 H   0  0  0  0  0  0  0  0  0  0  0  0
   -9.6170   21.2697  -32.2715 H   0  0  0  0  0  0  0  0  0  0  0  0
   -8.5778   18.8732  -31.4495 H   0  0  0  0  0  0  0  0  0  0  0  0
   -7.1433   17.5294  -32.7563 H   0  0  0  0  0  0  0  0  0  0  0  0
   -2.0634   18.3462  -31.3162 H   0  0  0  0  0  0  0  0  0  0  0  0
    0.1771   19.2890  -31.8649 H   0  0  0  0  0  0  0  0  0  0  0  0
    0.3599   21.3361  -33.2812 H   0  0  0  0  0  0  0  0  0  0  0  0
   -1.6990   22.4530  -34.1360 H   0  0  0  0  0  0  0  0  0  0  0  0
   -4.2220   22.7050  -33.9040 H   0  0  0  0  0  0  0  0  0  0  0  0
   -5.0930   21.1430  -33.9510 H   0  0  0  0  0  0  0  0  0  0  0  0
   -5.5066   20.6723  -31.0444 H   0  0  0  0  0  0  0  0  0  0  0  0
   -1.4621   21.8624  -30.6647 H   0  0  0  0  0  0  0  0  0  0  0  0
   -2.2397   23.3623  -31.3064 H   0  0  0  0  0  0  0  0  0  0  0  0
  1  2  1  0
  2  3  2  0
  3  4  1  0
  4  5  2  0
  5  6  1  0
  6  7  1  0
  7  8  1  0
  8  9  1  0
  9 10  1  0
 10 11  2  0
 10 12  2  0
 10 13  1  0
 13 14  2  0
 14 15  1  0
 15 16  2  0
 16 17  1  0
 17 18  1  0
 18 19  2  3
 19 20  1  0
 20 21  2  0
 20 22  1  0
 22 23  1  0
 23 24  2  0
 24 25  1  0
 25 26  2  0
 26 27  1  0
 27 28  2  0
 28 29  1  0
 17 30  2  0
  9 31  1  0
  6  2  1  0
 30 13  1  0
 31  5  1  0
 28 23  1  0
  1 32  1  0
  1 33  1  0
  1 34  1  0
  7 35  1  0
  7 36  1  0
  8 37  1  0
  8 38  1  0
  9 39  1  6
 14 40  1  0
 15 41  1  0
 16 42  1  0
 18 43  1  0
 19 44  1  0
 24 45  1  0
 25 46  1  0
 26 47  1  0
 27 48  1  0
 29 49  1  0
 29 50  1  0
 30 51  1  0
 31 52  1  0
 31 53  1  0
M  CHG  2   9   1  22  -1
M  END
>  <UniqueID>  (15) 
14

>  <SMILES>  (15) 
Cc1nnc2n1CC[N@@H+](S(=O)(=O)c1cccc(C=CC(=O)[N-]c3ccccc3N)c1)C2

>  <Energy>  (15) 
106.82752077921629

>  <Genealogy>  (15) 
Cc1nnc2n1CC[NH+](S(=O)(=O)c1cccc(C=CC(=O)[N-]c3ccccc3N)c1)C2 (protonated)
Cc1nnc2n1CC[N@@H+](S(=O)(=O)c1cccc(C=CC(=O)[N-]c3ccccc3N)c1)C2 (chirality)
Cc1nnc2n1CC[N@@H+](S(=O)(=O)c1cccc(C=CC(=O)[N-]c3ccccc3N)c1)C2 (3D coordinates assigned)
Cc1nnc2n1CC[N@@H+](S(=O)(=O)c1cccc(C=CC(=O)[N-]c3ccccc3N)c1)C2 (nonaromatic ring conformer: 106.82752077921629 kcal/mol)

>  <smiles>  (15) 
Cc1nnc2n1CCN(S(=O)(=O)c1cccc(C=CC(=O)Nc3ccccc3N)c1)C2

>  <score_type>  (15) 
oracle

>  <origin>  (15) 
adgpu

>  <m_score__min__energy>  (15) 
-10.83

>  <m_primary>  (15) 
energy

$$$$
15:0
     RDKit          3D

 43 46  0  0  0  0  0  0  0  0999 V2000
    0.5190   24.5250  -29.5150 H   0  0  0  0  0  0  0  0  0  0  0  0
   -0.5070   24.5410  -29.3260 N   0  0  0  0  0  0  0  0  0  0  0  0
   -0.9970   24.9020  -28.1800 C   0  0  0  0  0  0  0  0  0  0  0  0
   -2.3970   24.9070  -27.9630 C   0  0  0  0  0  0  0  0  0  0  0  0
   -3.3740   24.5030  -29.0050 C   0  0  0  0  0  0  0  0  0  0  0  0
   -4.2930   23.5280  -28.8600 N   0  0  0  0  0  0  0  0  0  0  0  0
   -4.9390   23.5880  -30.0430 C   0  0  0  0  0  0  0  0  0  0  0  0
   -6.0820   22.6980  -30.4270 C   0  0  0  0  0  0  0  0  0  0  0  0
   -6.3997   22.1267  -29.5423 H   0  0  0  0  0  0  0  0  0  0  0  0
   -6.8961   23.3347  -30.8036 H   0  0  0  0  0  0  0  0  0  0  0  0
   -5.7030   21.7290  -31.5230 C   0  0  0  0  0  0  0  0  0  0  0  0
   -6.7270   21.1820  -32.3180 C   0  0  0  0  0  0  0  0  0  0  0  0
   -7.7658   21.5128  -32.1718 H   0  0  0  0  0  0  0  0  0  0  0  0
   -6.4370   20.2230  -33.2910 C   0  0  0  0  0  0  0  0  0  0  0  0
   -7.2452   19.8086  -33.9116 H   0  0  0  0  0  0  0  0  0  0  0  0
   -5.1250   19.7900  -33.4770 C   0  0  0  0  0  0  0  0  0  0  0  0
   -4.9015   19.0197  -34.2298 H   0  0  0  0  0  0  0  0  0  0  0  0
   -4.0950   20.3340  -32.7080 C   0  0  0  0  0  0  0  0  0  0  0  0
   -3.0635   19.9796  -32.8507 H   0  0  0  0  0  0  0  0  0  0  0  0
   -4.3620   21.3280  -31.7550 C   0  0  0  0  0  0  0  0  0  0  0  0
   -3.2580   21.8840  -31.0230 N   0  0  0  0  0  0  0  0  0  0  0  0
   -3.3380   22.8720  -30.6930 H   0  0  0  0  0  0  0  0  0  0  0  0
   -2.1010   21.1310  -30.6190 C   0  0  0  0  0  0  0  0  0  0  0  0
   -1.9500   20.6590  -29.2930 C   0  0  0  0  0  0  0  0  0  0  0  0
   -3.1240   21.0100  -28.0300 Cl  0  0  0  0  0  0  0  0  0  0  0  0
   -0.8150   19.9210  -28.9390 C   0  0  0  0  0  0  0  0  0  0  0  0
   -0.7058   19.5446  -27.9112 H   0  0  0  0  0  0  0  0  0  0  0  0
    0.1790   19.6600  -29.8830 C   0  0  0  0  0  0  0  0  0  0  0  0
    1.0622   19.0678  -29.6014 H   0  0  0  0  0  0  0  0  0  0  0  0
    0.0540   20.1490  -31.1830 C   0  0  0  0  0  0  0  0  0  0  0  0
    0.8455   19.9520  -31.9210 H   0  0  0  0  0  0  0  0  0  0  0  0
   -1.0740   20.8890  -31.5520 C   0  0  0  0  0  0  0  0  0  0  0  0
   -1.1970   21.4700  -33.2080 Cl  0  0  0  0  0  0  0  0  0  0  0  0
   -4.4250   24.5230  -30.8640 N   0  0  0  0  0  0  0  0  0  0  0  0
   -3.4630   25.0690  -30.1850 O   0  0  0  0  0  0  0  0  0  0  0  0
   -2.8740   25.2970  -26.7020 C   0  0  0  0  0  0  0  0  0  0  0  0
   -3.9565   25.3065  -26.5068 H   0  0  0  0  0  0  0  0  0  0  0  0
   -1.9870   25.6720  -25.6960 C   0  0  0  0  0  0  0  0  0  0  0  0
   -2.3642   25.9780  -24.7091 H   0  0  0  0  0  0  0  0  0  0  0  0
   -0.6180   25.6560  -25.9510 C   0  0  0  0  0  0  0  0  0  0  0  0
    0.0897   25.9511  -25.1623 H   0  0  0  0  0  0  0  0  0  0  0  0
   -0.1530   25.2770  -27.1710 N   0  0  0  0  0  0  0  0  0  0  0  0
    0.8810   25.2750  -27.3260 H   0  0  0  0  0  0  0  0  0  0  0  0
  1  2  1  0
  2  3  2  0
  3  4  1  0
  4  5  1  0
  5  6  2  0
  6  7  1  0
  7  8  1  0
  8  9  1  0
  8 10  1  0
  8 11  1  0
 11 12  2  0
 12 13  1  0
 12 14  1  0
 14 15  1  0
 14 16  2  0
 16 17  1  0
 16 18  1  0
 18 19  1  0
 18 20  2  0
 20 21  1  0
 21 22  1  0
 21 23  1  0
 23 24  2  0
 24 25  1  0
 24 26  1  0
 26 27  1  0
 26 28  2  0
 28 29  1  0
 28 30  1  0
 30 31  1  0
 30 32  2  0
 32 33  1  0
  7 34  2  0
 34 35  1  0
  4 36  2  0
 36 37  1  0
 36 38  1  0
 38 39  1  0
 38 40  2  0
 40 41  1  0
 40 42  1  0
 42 43  1  0
 42  3  1  0
 35  5  1  0
 20 11  1  0
 32 23  1  0
M  END
>  <UniqueID>  (16) 
15

>  <SMILES>  (16) 
[H]/N=c1\[nH]cccc1-c1nc(Cc2ccccc2Nc2c(Cl)cccc2Cl)no1

>  <Energy>  (16) 
90.74000438888295

>  <Genealogy>  (16) 
[H]/N=c1\[nH]cccc1-c1nc(Cc2ccccc2Nc2c(Cl)cccc2Cl)no1 (cis-trans isomerization)
[H]/N=c1\[nH]cccc1-c1nc(Cc2ccccc2Nc2c(Cl)cccc2Cl)no1 (3D coordinates assigned)
[H]/N=c1\[nH]cccc1-c1nc(Cc2ccccc2Nc2c(Cl)cccc2Cl)no1 (optimized conformer: 90.74000438888295 kcal/mol)

>  <smiles>  (16) 
N=c1[nH]cccc1-c1nc(Cc2ccccc2Nc2c(Cl)cccc2Cl)no1

>  <score_type>  (16) 
oracle

>  <origin>  (16) 
adgpu

>  <m_score__min__energy>  (16) 
-10.48

>  <m_primary>  (16) 
energy

$$$$
16:0
     RDKit          3D

 50 52  0  0  1  0  0  0  0  0999 V2000
   -5.2820   18.7280  -34.5930 C   0  0  0  0  0  0  0  0  0  0  0  0
   -6.2380   18.0010  -33.8100 N   0  0  0  0  0  0  0  0  0  0  0  0
   -7.0250   18.6460  -33.0170 C   0  0  0  0  0  0  0  0  0  0  0  0
   -6.9820   20.0110  -32.8900 C   0  0  0  0  0  0  0  0  0  0  0  0
   -7.8540   20.6190  -32.0230 C   0  0  0  0  0  0  0  0  0  0  0  0
   -7.8990   21.9890  -31.8150 O   0  0  0  0  0  0  0  0  0  0  0  0
   -6.8030   22.7420  -31.4070 C   0  0  0  0  0  0  0  0  0  0  0  0
   -5.6900   22.1240  -30.8600 C   0  0  0  0  0  0  0  0  0  0  0  0
   -4.6170   22.8980  -30.4650 C   0  0  0  0  0  0  0  0  0  0  0  0
   -4.6480   24.2870  -30.6110 C   0  0  0  0  0  0  0  0  0  0  0  0
   -3.4890   24.9880  -30.1710 N   0  0  0  0  0  0  0  0  0  0  0  0
   -2.9920   24.7700  -28.8530 C   0  0  0  0  0  0  0  0  0  0  0  0
   -3.5300   23.9850  -28.0590 O   0  0  0  0  0  0  0  0  0  0  0  0
   -1.8350   25.4970  -28.4740 N   0  0  0  0  0  0  0  0  0  0  0  0
   -1.2490   25.3550  -27.1720 C   0  0  0  0  0  0  0  0  0  0  0  0
   -1.0710   24.1280  -26.5720 C   0  0  0  0  0  0  0  0  0  0  0  0
   -0.5050   24.0590  -25.3260 C   0  0  0  0  0  0  0  0  0  0  0  0
   -0.3110   22.7240  -24.6720 C   0  0  0  0  0  0  0  0  0  0  0  0
    1.0220   22.4440  -24.5980 F   0  0  0  0  0  0  0  0  0  0  0  0
   -0.8500   22.7640  -23.3920 F   0  0  0  0  0  0  0  0  0  0  0  0
   -1.0360   21.7770  -25.3640 F   0  0  0  0  0  0  0  0  0  0  0  0
   -0.1140   25.2340  -24.6770 C   0  0  0  0  0  0  0  0  0  0  0  0
   -0.2790   26.4700  -25.2500 C   0  0  0  0  0  0  0  0  0  0  0  0
    0.2220   27.9220  -24.4110 S   0  0  0  0  0  0  0  0  0  0  0  0
    0.2950   27.5480  -22.7270 N   0  0  0  0  0  0  0  0  0  0  0  0
   -0.8770   28.9400  -24.6630 O   0  0  0  0  0  0  0  0  0  0  0  0
    1.5430   28.4200  -24.9020 O   0  0  0  0  0  0  0  0  0  0  0  0
   -0.8550   26.5260  -26.5160 C   0  0  0  0  0  0  0  0  0  0  0  0
   -5.7490   24.9150  -31.1540 C   0  0  0  0  0  0  0  0  0  0  0  0
   -6.8170   24.1310  -31.5470 C   0  0  0  0  0  0  0  0  0  0  0  0
   -8.7140   19.8460  -31.3350 N   0  0  0  0  0  0  0  0  0  0  0  0
   -8.7520   18.5050  -31.4620 C   0  0  0  0  0  0  0  0  0  0  0  0
   -7.9030   17.8980  -32.3090 N   0  0  0  0  0  0  0  0  0  0  0  0
   -4.5867   19.2568  -33.9245 H   0  0  0  0  0  0  0  0  0  0  0  0
   -4.7193   18.0276  -35.2276 H   0  0  0  0  0  0  0  0  0  0  0  0
   -5.8066   19.4574  -35.2276 H   0  0  0  0  0  0  0  0  0  0  0  0
   -6.2627   20.6062  -33.4717 H   0  0  0  0  0  0  0  0  0  0  0  0
   -5.6616   21.0307  -30.7419 H   0  0  0  0  0  0  0  0  0  0  0  0
   -3.7286   22.4160  -30.0309 H   0  0  0  0  0  0  0  0  0  0  0  0
   -3.0010   25.6670  -30.8190 H   0  0  0  0  0  0  0  0  0  0  0  0
   -1.3640   26.1650  -29.1290 H   0  0  0  0  0  0  0  0  0  0  0  0
   -1.3815   23.2087  -27.0902 H   0  0  0  0  0  0  0  0  0  0  0  0
    0.3395   25.1657  -23.6771 H   0  0  0  0  0  0  0  0  0  0  0  0
    1.1550   27.0020  -22.5070 H   0  0  0  0  0  0  0  0  0  0  0  0
    0.3270   28.4550  -22.2110 H   0  0  0  0  0  0  0  0  0  0  0  0
   -1.0017   27.5002  -27.0052 H   0  0  0  0  0  0  0  0  0  0  0  0
   -5.7764   26.0084  -31.2710 H   0  0  0  0  0  0  0  0  0  0  0  0
   -7.7035   24.6152  -31.9826 H   0  0  0  0  0  0  0  0  0  0  0  0
   -9.3900   20.2700  -30.6680 H   0  0  0  0  0  0  0  0  0  0  0  0
   -9.4714   17.9124  -30.8777 H   0  0  0  0  0  0  0  0  0  0  0  0
  1  2  1  0
  2  3  2  0
  3  4  1  0
  4  5  2  0
  5  6  1  0
  6  7  1  0
  7  8  2  0
  8  9  1  0
  9 10  2  0
 10 11  1  0
 11 12  1  0
 12 13  2  0
 12 14  1  0
 14 15  1  0
 15 16  2  0
 16 17  1  0
 17 18  1  0
 18 19  1  0
 18 20  1  0
 18 21  1  0
 17 22  2  0
 22 23  1  0
 23 24  1  0
 24 25  1  0
 24 26  2  0
 24 27  2  0
 23 28  2  0
 10 29  1  0
 29 30  2  0
  5 31  1  0
 31 32  1  0
 32 33  2  0
 33  3  1  0
 30  7  1  0
 28 15  1  0
  1 34  1  0
  1 35  1  0
  1 36  1  0
  4 37  1  0
  8 38  1  0
  9 39  1  0
 11 40  1  0
 14 41  1  0
 16 42  1  0
 22 43  1  0
 25 44  1  0
 25 45  1  0
 28 46  1  0
 29 47  1  0
 30 48  1  0
 31 49  1  0
 32 50  1  0
M  END
>  <smiles>  (17) 
CN=c1cc(Oc2ccc(NC(=O)Nc3cc(C(F)(F)F)cc(S(N)(=O)=O)c3)cc2)[nH]cn1

>  <score_type>  (17) 
oracle

>  <origin>  (17) 
adgpu

>  <m_score__min__energy>  (17) 
-9.0999999999999996

>  <m_primary>  (17) 
energy

$$$$
17:0
     RDKit          3D

 56 60  0  0  0  0  0  0  0  0999 V2000
   -8.3490   18.2030  -31.8210 N   0  0  0  0  0  0  0  0  0  0  0  0
   -7.2030   18.8950  -32.3330 C   0  0  0  0  0  0  0  0  0  0  0  0
   -6.7790   20.0780  -31.7100 C   0  0  0  0  0  0  0  0  0  0  0  0
   -5.7010   20.8220  -32.2270 C   0  0  0  0  0  0  0  0  0  0  0  0
   -5.2600   22.0750  -31.5620 C   0  0  0  0  0  0  0  0  0  0  0  0
   -5.5650   23.3770  -31.9220 C   0  0  0  0  0  0  0  0  0  0  0  0
   -4.9600   24.2290  -31.0730 N   0  0  0  0  0  0  0  0  0  0  0  0
   -4.2820   23.5150  -30.1870 N   0  0  0  0  0  0  0  0  0  0  0  0
   -3.4950   24.1010  -29.1290 C   0  0  0  0  0  0  0  0  0  0  0  0
   -4.0500   24.2640  -27.8470 C   0  0  0  0  0  0  0  0  0  0  0  0
   -3.3020   24.8290  -26.8120 C   0  0  0  0  0  0  0  0  0  0  0  0
   -1.9790   25.2450  -27.0340 C   0  0  0  0  0  0  0  0  0  0  0  0
   -1.2030   25.8150  -25.9610 N   0  0  0  0  0  0  0  0  0  0  0  0
   -1.0520   25.0890  -24.6930 C   0  0  0  0  0  0  0  0  0  0  0  0
   -0.5540   26.0300  -23.5870 C   0  0  0  0  0  0  0  0  0  0  0  0
   -1.2080   27.3410  -23.6950 N   0  0  0  0  0  0  0  0  0  0  0  0
   -0.8640   28.0460  -24.9470 C   0  0  0  0  0  0  0  0  0  0  0  0
   -0.5240   27.1050  -26.1200 C   0  0  0  0  0  0  0  0  0  0  0  0
   -1.4150   25.0690  -28.3070 C   0  0  0  0  0  0  0  0  0  0  0  0
   -2.1630   24.5060  -29.3440 C   0  0  0  0  0  0  0  0  0  0  0  0
   -4.4390   22.2010  -30.4550 C   0  0  0  0  0  0  0  0  0  0  0  0
   -5.0590   20.3630  -33.3900 C   0  0  0  0  0  0  0  0  0  0  0  0
   -5.4710   19.1820  -34.0090 C   0  0  0  0  0  0  0  0  0  0  0  0
   -6.5220   18.4300  -33.4780 C   0  0  0  0  0  0  0  0  0  0  0  0
   -6.8800   17.2360  -34.1170 O   0  0  0  0  0  0  0  0  0  0  0  0
   -6.3090   15.9850  -33.8420 C   0  0  0  0  0  0  0  0  0  0  0  0
   -6.8710   14.8470  -34.4350 C   0  0  0  0  0  0  0  0  0  0  0  0
   -6.3320   13.5800  -34.1900 C   0  0  0  0  0  0  0  0  0  0  0  0
   -5.2220   13.4420  -33.3530 C   0  0  0  0  0  0  0  0  0  0  0  0
   -4.6470   14.5710  -32.7630 C   0  0  0  0  0  0  0  0  0  0  0  0
   -5.1830   15.8390  -33.0060 C   0  0  0  0  0  0  0  0  0  0  0  0
   -8.8070   18.4870  -30.9280 H   0  0  0  0  0  0  0  0  0  0  0  0
   -8.7140   17.3510  -32.3020 H   0  0  0  0  0  0  0  0  0  0  0  0
   -7.2958   20.4295  -30.8048 H   0  0  0  0  0  0  0  0  0  0  0  0
   -6.2023   23.6695  -32.7695 H   0  0  0  0  0  0  0  0  0  0  0  0
   -5.0849   23.9428  -27.6575 H   0  0  0  0  0  0  0  0  0  0  0  0
   -3.7522   24.9491  -25.8156 H   0  0  0  0  0  0  0  0  0  0  0  0
   -2.0252   24.6688  -24.3990 H   0  0  0  0  0  0  0  0  0  0  0  0
   -0.3156   24.2836  -24.8313 H   0  0  0  0  0  0  0  0  0  0  0  0
   -0.7850   25.5898  -22.6058 H   0  0  0  0  0  0  0  0  0  0  0  0
    0.5324   26.1639  -23.6958 H   0  0  0  0  0  0  0  0  0  0  0  0
   -2.2450   27.1970  -23.6630 H   0  0  0  0  0  0  0  0  0  0  0  0
   -1.7214   28.6695  -25.2403 H   0  0  0  0  0  0  0  0  0  0  0  0
    0.0389   28.6398  -24.7416 H   0  0  0  0  0  0  0  0  0  0  0  0
   -0.8484   27.5704  -27.0624 H   0  0  0  0  0  0  0  0  0  0  0  0
    0.5626   26.9342  -26.1339 H   0  0  0  0  0  0  0  0  0  0  0  0
   -0.3750   25.3770  -28.4899 H   0  0  0  0  0  0  0  0  0  0  0  0
   -1.7078   24.3778  -30.3372 H   0  0  0  0  0  0  0  0  0  0  0  0
   -3.9903   21.3712  -29.8893 H   0  0  0  0  0  0  0  0  0  0  0  0
   -4.2247   20.9396  -33.8160 H   0  0  0  0  0  0  0  0  0  0  0  0
   -4.9637   18.8401  -34.9232 H   0  0  0  0  0  0  0  0  0  0  0  0
   -7.7425   14.9507  -35.0981 H   0  0  0  0  0  0  0  0  0  0  0  0
   -6.7823   12.6915  -34.6566 H   0  0  0  0  0  0  0  0  0  0  0  0
   -4.8006   12.4448  -33.1583 H   0  0  0  0  0  0  0  0  0  0  0  0
   -3.7713   14.4616  -32.1064 H   0  0  0  0  0  0  0  0  0  0  0  0
   -4.7249   16.7257  -32.5435 H   0  0  0  0  0  0  0  0  0  0  0  0
  1  2  1  0
  2  3  2  0
  3  4  1  0
  4  5  1  0
  5  6  1  0
  6  7  2  0
  7  8  1  0
  8  9  1  0
  9 10  2  0
 10 11  1  0
 11 12  2  0
 12 13  1  0
 13 14  1  0
 14 15  1  0
 15 16  1  0
 16 17  1  0
 17 18  1  0
 12 19  1  0
 19 20  2  0
  8 21  1  0
  4 22  2  0
 22 23  1  0
 23 24  2  0
 24 25  1  0
 25 26  1  0
 26 27  2  0
 27 28  1  0
 28 29  2  0
 29 30  1  0
 30 31  2  0
 24  2  1  0
 31 26  1  0
 21  5  2  0
 20  9  1  0
 18 13  1  0
  1 32  1  0
  1 33  1  0
  3 34  1  0
  6 35  1  0
 10 36  1  0
 11 37  1  0
 14 38  1  0
 14 39  1  0
 15 40  1  0
 15 41  1  0
 16 42  1  0
 17 43  1  0
 17 44  1  0
 18 45  1  0
 18 46  1  0
 19 47  1  0
 20 48  1  0
 21 49  1  0
 22 50  1  0
 23 51  1  0
 27 52  1  0
 28 53  1  0
 29 54  1  0
 30 55  1  0
 31 56  1  0
M  END
>  <UniqueID>  (18) 
16

>  <SMILES>  (18) 
Nc1cc(-c2cnn(-c3ccc(N4CCNCC4)cc3)c2)ccc1Oc1ccccc1

>  <Energy>  (18) 
112.9854236746012

>  <Genealogy>  (18) 
Nc1cc(-c2cnn(-c3ccc(N4CCNCC4)cc3)c2)ccc1Oc1ccccc1 (3D coordinates assigned)
Nc1cc(-c2cnn(-c3ccc(N4CCNCC4)cc3)c2)ccc1Oc1ccccc1 (nonaromatic ring conformer: 112.9854236746012 kcal/mol)

>  <smiles>  (18) 
Nc1cc(-c2cnn(-c3ccc(N4CCNCC4)cc3)c2)ccc1Oc1ccccc1

>  <score_type>  (18) 
oracle

>  <origin>  (18) 
adgpu

>  <m_score__min__energy>  (18) 
-9.5800000000000001

>  <m_primary>  (18) 
energy

$$$$
18:0
     RDKit          3D

 46 47  0  0  0  0  0  0  0  0999 V2000
   -4.2470   24.2170  -26.7840 C   0  0  0  0  0  0  0  0  0  0  0  0
   -3.5900   25.3330  -25.9790 C   0  0  0  0  0  0  0  0  0  0  0  0
   -2.1050   25.1550  -25.9460 C   0  0  0  0  0  0  0  0  0  0  0  0
   -1.6120   23.9930  -25.9300 O   0  0  0  0  0  0  0  0  0  0  0  0
   -1.2790   26.2800  -25.8980 O   0  0  0  0  0  0  0  0  0  0  0  0
   -0.6970   26.8540  -27.0640 C   0  0  0  0  0  0  0  0  0  0  0  0
   -0.5700   25.8060  -28.1190 C   0  0  0  0  0  0  0  0  0  0  0  0
    0.4100   25.0150  -28.0900 O   0  0  0  0  0  0  0  0  0  0  0  0
   -1.6130   25.6540  -29.0900 N   0  0  0  0  0  0  0  0  0  0  0  0
   -2.4010   24.4790  -29.3360 C   0  0  0  0  0  0  0  0  0  0  0  0
   -1.9000   23.1810  -29.1330 C   0  0  0  0  0  0  0  0  0  0  0  0
   -2.7010   22.0670  -29.4000 C   0  0  0  0  0  0  0  0  0  0  0  0
   -3.9980   22.2360  -29.8870 C   0  0  0  0  0  0  0  0  0  0  0  0
   -4.4970   23.5220  -30.1280 C   0  0  0  0  0  0  0  0  0  0  0  0
   -6.1170   23.7230  -30.7890 S   0  0  0  0  0  0  0  0  0  0  0  0
   -7.1070   23.1380  -29.8220 O   0  0  0  0  0  0  0  0  0  0  0  0
   -6.4350   25.1780  -30.9930 O   0  0  0  0  0  0  0  0  0  0  0  0
   -6.2400   22.8940  -32.3090 N   0  0  0  0  0  0  0  0  0  0  0  0
   -6.5890   21.5040  -32.4310 C   0  0  0  0  0  0  0  0  0  0  0  0
   -5.6670   20.6130  -33.0010 C   0  0  0  0  0  0  0  0  0  0  0  0
   -5.9840   19.2590  -33.1500 C   0  0  0  0  0  0  0  0  0  0  0  0
   -7.2230   18.7680  -32.7260 C   0  0  0  0  0  0  0  0  0  0  0  0
   -7.4960   17.4020  -32.9020 O   0  0  0  0  0  0  0  0  0  0  0  0
   -6.6820   16.5110  -33.6590 C   0  0  0  0  0  0  0  0  0  0  0  0
   -8.1470   19.6540  -32.1400 C   0  0  0  0  0  0  0  0  0  0  0  0
   -7.8320   21.0080  -31.9940 C   0  0  0  0  0  0  0  0  0  0  0  0
   -3.6960   24.6400  -29.8520 C   0  0  0  0  0  0  0  0  0  0  0  0
   -4.6827   23.4768  -26.0968 H   0  0  0  0  0  0  0  0  0  0  0  0
   -5.0401   24.6402  -27.4180 H   0  0  0  0  0  0  0  0  0  0  0  0
   -3.4921   23.7289  -27.4180 H   0  0  0  0  0  0  0  0  0  0  0  0
   -3.8277   26.3015  -26.4431 H   0  0  0  0  0  0  0  0  0  0  0  0
   -3.9739   25.3001  -24.9487 H   0  0  0  0  0  0  0  0  0  0  0  0
   -1.3377   27.6693  -27.4312 H   0  0  0  0  0  0  0  0  0  0  0  0
    0.2983   27.2540  -26.8203 H   0  0  0  0  0  0  0  0  0  0  0  0
   -0.8737   23.0416  -28.7626 H   0  0  0  0  0  0  0  0  0  0  0  0
   -2.3081   21.0544  -29.2258 H   0  0  0  0  0  0  0  0  0  0  0  0
   -4.6298   21.3569  -30.0820 H   0  0  0  0  0  0  0  0  0  0  0  0
   -6.1760   23.4780  -33.1730 H   0  0  0  0  0  0  0  0  0  0  0  0
   -4.6859   20.9828  -33.3337 H   0  0  0  0  0  0  0  0  0  0  0  0
   -5.2527   18.5745  -33.6045 H   0  0  0  0  0  0  0  0  0  0  0  0
   -6.1008   15.8748  -32.9753 H   0  0  0  0  0  0  0  0  0  0  0  0
   -7.3214   15.8793  -34.2931 H   0  0  0  0  0  0  0  0  0  0  0  0
   -5.9952   17.0909  -34.2931 H   0  0  0  0  0  0  0  0  0  0  0  0
   -9.1219   19.2788  -31.7953 H   0  0  0  0  0  0  0  0  0  0  0  0
   -8.5610   21.6913  -31.5341 H   0  0  0  0  0  0  0  0  0  0  0  0
   -4.0861   25.6509  -30.0415 H   0  0  0  0  0  0  0  0  0  0  0  0
  1  2  1  0
  2  3  1  0
  3  4  2  0
  3  5  1  0
  5  6  1  0
  6  7  1  0
  7  8  2  0
  7  9  1  0
  9 10  1  0
 10 11  2  0
 11 12  1  0
 12 13  2  0
 13 14  1  0
 14 15  1  0
 15 16  2  0
 15 17  2  0
 15 18  1  0
 18 19  1  0
 19 20  2  0
 20 21  1  0
 21 22  2  0
 22 23  1  0
 23 24  1  0
 22 25  1  0
 25 26  2  0
 14 27  2  0
 27 10  1  0
 26 19  1  0
  1 28  1  0
  1 29  1  0
  1 30  1  0
  2 31  1  0
  2 32  1  0
  6 33  1  0
  6 34  1  0
 11 35  1  0
 12 36  1  0
 13 37  1  0
 18 38  1  0
 20 39  1  0
 21 40  1  0
 24 41  1  0
 24 42  1  0
 24 43  1  0
 25 44  1  0
 26 45  1  0
 27 46  1  0
M  CHG  1   9  -1
M  END
>  <UniqueID>  (19) 
17

>  <SMILES>  (19) 
CCC(=O)OCC(=O)[N-]c1cccc(S(=O)(=O)Nc2ccc(OC)cc2)c1

>  <Energy>  (19) 
43.87277501878003

>  <Genealogy>  (19) 
CCC(=O)OCC(=O)[N-]c1cccc(S(=O)(=O)Nc2ccc(OC)cc2)c1 (protonated)
CCC(=O)OCC(=O)[N-]c1cccc(S(=O)(=O)Nc2ccc(OC)cc2)c1 (3D coordinates assigned)
CCC(=O)OCC(=O)[N-]c1cccc(S(=O)(=O)Nc2ccc(OC)cc2)c1 (optimized conformer: 43.87277501878003 kcal/mol)

>  <smiles>  (19) 
CCC(=O)OCC(=O)Nc1cccc(S(=O)(=O)Nc2ccc(OC)cc2)c1

>  <score_type>  (19) 
oracle

>  <origin>  (19) 
adgpu

>  <m_score__min__energy>  (19) 
-9.2699999999999996

>  <m_primary>  (19) 
energy

$$$$
19:0
     RDKit          3D

 50 53  0  0  0  0  0  0  0  0999 V2000
   -4.6070   26.1100  -30.4530 N   0  0  0  0  0  0  0  0  0  0  0  0
   -5.2920   25.1980  -30.6500 C   0  0  0  0  0  0  0  0  0  0  0  0
   -6.1440   24.0640  -30.8960 C   0  0  0  0  0  0  0  0  0  0  0  0
   -6.7390   23.3880  -29.8250 C   0  0  0  0  0  0  0  0  0  0  0  0
   -7.5640   22.2850  -30.0620 C   0  0  0  0  0  0  0  0  0  0  0  0
   -7.7880   21.8370  -31.3770 C   0  0  0  0  0  0  0  0  0  0  0  0
   -8.6510   20.7230  -31.6410 N   0  0  0  0  0  0  0  0  0  0  0  0
   -8.1850   19.4680  -32.1500 C   0  0  0  0  0  0  0  0  0  0  0  0
   -7.1180   19.0370  -32.9260 C   0  0  0  0  0  0  0  0  0  0  0  0
   -6.0020   19.6830  -33.5520 N   0  0  0  0  0  0  0  0  0  0  0  0
   -4.9540   20.3320  -32.8200 C   0  0  0  0  0  0  0  0  0  0  0  0
   -4.0590   21.2100  -33.4530 C   0  0  0  0  0  0  0  0  0  0  0  0
   -3.0630   21.8560  -32.7170 C   0  0  0  0  0  0  0  0  0  0  0  0
   -2.9480   21.6440  -31.3330 C   0  0  0  0  0  0  0  0  0  0  0  0
   -1.8970   22.3400  -30.5530 C   0  0  0  0  0  0  0  0  0  0  0  0
   -0.6830   22.1050  -30.8030 O   0  0  0  0  0  0  0  0  0  0  0  0
   -2.2350   23.2880  -29.5230 N   0  0  0  0  0  0  0  0  0  0  0  0
   -1.3990   24.4720  -29.3010 C   0  0  0  0  0  0  0  0  0  0  0  0
   -0.6380   24.3250  -27.9810 C   0  0  0  0  0  0  0  0  0  0  0  0
   -1.6070   24.0180  -26.8300 C   0  0  0  0  0  0  0  0  0  0  0  0
   -2.4610   22.7790  -27.1370 C   0  0  0  0  0  0  0  0  0  0  0  0
   -3.1960   22.9390  -28.4710 C   0  0  0  0  0  0  0  0  0  0  0  0
   -3.8680   20.7930  -30.6960 C   0  0  0  0  0  0  0  0  0  0  0  0
   -4.8640   20.1470  -31.4340 C   0  0  0  0  0  0  0  0  0  0  0  0
   -7.5810   17.7370  -32.8240 C   0  0  0  0  0  0  0  0  0  0  0  0
   -7.1840   16.6110  -33.2260 O   0  0  0  0  0  0  0  0  0  0  0  0
   -8.6730   18.1780  -32.1080 C   0  0  0  0  0  0  0  0  0  0  0  0
   -9.6870   17.6280  -31.6040 O   0  0  0  0  0  0  0  0  0  0  0  0
   -7.2120   22.5360  -32.4470 C   0  0  0  0  0  0  0  0  0  0  0  0
   -6.3870   23.6390  -32.2090 C   0  0  0  0  0  0  0  0  0  0  0  0
   -6.5570   23.7255  -28.7940 H   0  0  0  0  0  0  0  0  0  0  0  0
   -8.0400   21.7652  -29.2175 H   0  0  0  0  0  0  0  0  0  0  0  0
   -9.6770   20.8300  -31.4740 H   0  0  0  0  0  0  0  0  0  0  0  0
   -5.9800   19.7370  -34.5930 H   0  0  0  0  0  0  0  0  0  0  0  0
   -4.1429   21.3900  -34.5349 H   0  0  0  0  0  0  0  0  0  0  0  0
   -2.3633   22.5360  -33.2250 H   0  0  0  0  0  0  0  0  0  0  0  0
   -0.6808   24.5730  -30.1280 H   0  0  0  0  0  0  0  0  0  0  0  0
   -2.0379   25.3663  -29.2559 H   0  0  0  0  0  0  0  0  0  0  0  0
    0.0877   23.5033  -28.0716 H   0  0  0  0  0  0  0  0  0  0  0  0
   -0.1179   25.2697  -27.7643 H   0  0  0  0  0  0  0  0  0  0  0  0
   -1.0279   23.8361  -25.9126 H   0  0  0  0  0  0  0  0  0  0  0  0
   -2.2782   24.8799  -26.7011 H   0  0  0  0  0  0  0  0  0  0  0  0
   -1.8080   21.8954  -27.1893 H   0  0  0  0  0  0  0  0  0  0  0  0
   -3.2065   22.6589  -26.3371 H   0  0  0  0  0  0  0  0  0  0  0  0
   -3.6950   21.9935  -28.7299 H   0  0  0  0  0  0  0  0  0  0  0  0
   -3.9462   23.7385  -28.3814 H   0  0  0  0  0  0  0  0  0  0  0  0
   -3.8036   20.6344  -29.6094 H   0  0  0  0  0  0  0  0  0  0  0  0
   -5.5822   19.4888  -30.9231 H   0  0  0  0  0  0  0  0  0  0  0  0
   -7.4105   22.2145  -33.4801 H   0  0  0  0  0  0  0  0  0  0  0  0
   -5.9280   24.1740  -33.0534 H   0  0  0  0  0  0  0  0  0  0  0  0
  1  2  3  0
  2  3  1  0
  3  4  2  0
  4  5  1  0
  5  6  2  0
  6  7  1  0
  7  8  1  0
  8  9  2  0
  9 10  1  0
 10 11  1  0
 11 12  2  0
 12 13  1  0
 13 14  2  0
 14 15  1  0
 15 16  2  0
 15 17  1  0
 17 18  1  0
 18 19  1  0
 19 20  1  0
 20 21  1  0
 21 22  1  0
 14 23  1  0
 23 24  2  0
  9 25  1  0
 25 26  2  0
 25 27  1  0
 27 28  2  0
  6 29  1  0
 29 30  2  0
 30  3  1  0
 27  8  1  0
 24 11  1  0
 22 17  1  0
  4 31  1  0
  5 32  1  0
  7 33  1  0
 10 34  1  0
 12 35  1  0
 13 36  1  0
 18 37  1  0
 18 38  1  0
 19 39  1  0
 19 40  1  0
 20 41  1  0
 20 42  1  0
 21 43  1  0
 21 44  1  0
 22 45  1  0
 22 46  1  0
 23 47  1  0
 24 48  1  0
 29 49  1  0
 30 50  1  0
M  END
>  <UniqueID>  (20) 
18

>  <SMILES>  (20) 
N#Cc1ccc(Nc2c(Nc3ccc(C(=O)N4CCCCC4)cc3)c(=O)c2=O)cc1

>  <Energy>  (20) 
50.521691922059965

>  <Genealogy>  (20) 
N#Cc1ccc(Nc2c(Nc3ccc(C(=O)N4CCCCC4)cc3)c(=O)c2=O)cc1 (3D coordinates assigned)
N#Cc1ccc(Nc2c(Nc3ccc(C(=O)N4CCCCC4)cc3)c(=O)c2=O)cc1 (nonaromatic ring conformer: 50.521691922059965 kcal/mol)

>  <smiles>  (20) 
N#Cc1ccc(Nc2c(Nc3ccc(C(=O)N4CCCCC4)cc3)c(=O)c2=O)cc1

>  <score_type>  (20) 
oracle

>  <origin>  (20) 
adgpu

>  <m_score__min__energy>  (20) 
-9.9000000000000004

>  <m_primary>  (20) 
energy

$$$$
20:0
     RDKit          3D

 48 50  0  0  0  0  0  0  0  0999 V2000
    0.9710   23.8100  -24.4670 C   0  0  0  0  0  0  0  0  0  0  0  0
    0.7850   23.2760  -25.7730 O   0  0  0  0  0  0  0  0  0  0  0  0
   -0.1390   23.7690  -26.7060 C   0  0  0  0  0  0  0  0  0  0  0  0
   -1.2910   24.4060  -26.2300 C   0  0  0  0  0  0  0  0  0  0  0  0
   -2.2420   24.9130  -27.1200 C   0  0  0  0  0  0  0  0  0  0  0  0
   -2.0580   24.7770  -28.5070 C   0  0  0  0  0  0  0  0  0  0  0  0
   -2.9820   25.2860  -29.4320 O   0  0  0  0  0  0  0  0  0  0  0  0
   -4.0780   24.5810  -29.9520 C   0  0  0  0  0  0  0  0  0  0  0  0
   -5.3460   25.1690  -29.8950 C   0  0  0  0  0  0  0  0  0  0  0  0
   -6.4630   24.4940  -30.3960 C   0  0  0  0  0  0  0  0  0  0  0  0
   -6.3160   23.2260  -30.9750 C   0  0  0  0  0  0  0  0  0  0  0  0
   -7.7200   22.3350  -31.5550 S   0  0  0  0  0  0  0  0  0  0  0  0
   -8.2750   21.4510  -30.4730 O   0  0  0  0  0  0  0  0  0  0  0  0
   -8.7740   23.3180  -31.9790 O   0  0  0  0  0  0  0  0  0  0  0  0
   -7.2670   21.3530  -32.9130 N   0  0  0  0  0  0  0  0  0  0  0  0
   -6.8050   19.9970  -32.7650 C   0  0  0  0  0  0  0  0  0  0  0  0
   -5.4400   19.6970  -32.9220 C   0  0  0  0  0  0  0  0  0  0  0  0
   -4.9800   18.3860  -32.7960 C   0  0  0  0  0  0  0  0  0  0  0  0
   -5.8740   17.3470  -32.5140 C   0  0  0  0  0  0  0  0  0  0  0  0
   -5.3710   15.9440  -32.3390 C   0  0  0  0  0  0  0  0  0  0  0  0
   -7.2320   17.6380  -32.3260 C   0  0  0  0  0  0  0  0  0  0  0  0
   -7.7100   18.9530  -32.4610 C   0  0  0  0  0  0  0  0  0  0  0  0
   -9.1800   19.2240  -32.2860 C   0  0  0  0  0  0  0  0  0  0  0  0
   -5.0440   22.6500  -31.0680 C   0  0  0  0  0  0  0  0  0  0  0  0
   -3.9290   23.3240  -30.5630 C   0  0  0  0  0  0  0  0  0  0  0  0
   -0.8990   24.1570  -28.9850 C   0  0  0  0  0  0  0  0  0  0  0  0
    0.0540   23.6500  -28.0960 C   0  0  0  0  0  0  0  0  0  0  0  0
    0.7059   23.0488  -23.7185 H   0  0  0  0  0  0  0  0  0  0  0  0
    2.0236   24.1015  -24.3366 H   0  0  0  0  0  0  0  0  0  0  0  0
    0.3273   24.6924  -24.3366 H   0  0  0  0  0  0  0  0  0  0  0  0
   -1.4492   24.5084  -25.1463 H   0  0  0  0  0  0  0  0  0  0  0  0
   -3.1381   25.4205  -26.7335 H   0  0  0  0  0  0  0  0  0  0  0  0
   -5.4650   26.1692  -29.4530 H   0  0  0  0  0  0  0  0  0  0  0  0
   -7.4583   24.9585  -30.3358 H   0  0  0  0  0  0  0  0  0  0  0  0
   -7.2070   21.8290  -33.8390 H   0  0  0  0  0  0  0  0  0  0  0  0
   -4.7276   20.5045  -33.1465 H   0  0  0  0  0  0  0  0  0  0  0  0
   -3.9089   18.1678  -32.9190 H   0  0  0  0  0  0  0  0  0  0  0  0
   -5.2889   15.7150  -31.2662 H   0  0  0  0  0  0  0  0  0  0  0  0
   -6.0731   15.2412  -32.8113 H   0  0  0  0  0  0  0  0  0  0  0  0
   -4.3822   15.8474  -32.8113 H   0  0  0  0  0  0  0  0  0  0  0  0
   -7.9314   16.8285  -32.0700 H   0  0  0  0  0  0  0  0  0  0  0  0
   -9.4195   19.2682  -31.2133 H   0  0  0  0  0  0  0  0  0  0  0  0
   -9.4346   20.1842  -32.7584 H   0  0  0  0  0  0  0  0  0  0  0  0
   -9.7603   18.4177  -32.7584 H   0  0  0  0  0  0  0  0  0  0  0  0
   -4.9216   21.6640  -31.5399 H   0  0  0  0  0  0  0  0  0  0  0  0
   -2.9308   22.8691  -30.6439 H   0  0  0  0  0  0  0  0  0  0  0  0
   -0.7358   24.0675  -30.0691 H   0  0  0  0  0  0  0  0  0  0  0  0
    0.9575   23.1566  -28.4837 H   0  0  0  0  0  0  0  0  0  0  0  0
  1  2  1  0
  2  3  1  0
  3  4  2  0
  4  5  1  0
  5  6  2  0
  6  7  1  0
  7  8  1  0
  8  9  2  0
  9 10  1  0
 10 11  2  0
 11 12  1  0
 12 13  2  0
 12 14  2  0
 12 15  1  0
 15 16  1  0
 16 17  2  0
 17 18  1  0
 18 19  2  0
 19 20  1  0
 19 21  1  0
 21 22  2  0
 22 23  1  0
 11 24  1  0
 24 25  2  0
  6 26  1  0
 26 27  2  0
 27  3  1  0
 25  8  1  0
 22 16  1  0
  1 28  1  0
  1 29  1  0
  1 30  1  0
  4 31  1  0
  5 32  1  0
  9 33  1  0
 10 34  1  0
 15 35  1  0
 17 36  1  0
 18 37  1  0
 20 38  1  0
 20 39  1  0
 20 40  1  0
 21 41  1  0
 23 42  1  0
 23 43  1  0
 23 44  1  0
 24 45  1  0
 25 46  1  0
 26 47  1  0
 27 48  1  0
M  END
>  <UniqueID>  (21) 
19

>  <SMILES>  (21) 
COc1ccc(Oc2ccc(S(=O)(=O)Nc3ccc(C)cc3C)cc2)cc1

>  <Energy>  (21) 
58.68894388310273

>  <Genealogy>  (21) 
COc1ccc(Oc2ccc(S(=O)(=O)Nc3ccc(C)cc3C)cc2)cc1 (3D coordinates assigned)
COc1ccc(Oc2ccc(S(=O)(=O)Nc3ccc(C)cc3C)cc2)cc1 (optimized conformer: 58.68894388310273 kcal/mol)

>  <smiles>  (21) 
COc1ccc(Oc2ccc(S(=O)(=O)Nc3ccc(C)cc3C)cc2)cc1

>  <score_type>  (21) 
oracle

>  <origin>  (21) 
adgpu

>  <m_score__min__energy>  (21) 
-9.5500000000000007

>  <m_primary>  (21) 
energy

$$$$
21:0
     RDKit          3D

 43 45  0  0  0  0  0  0  0  0999 V2000
   -8.6920   18.2510  -31.5830 C   0  0  0  0  0  0  0  0  0  0  0  0
   -7.3360   18.5600  -32.0610 N   0  0  0  0  0  0  0  0  0  0  0  0
   -7.3870   19.5840  -33.1300 C   0  0  0  0  0  0  0  0  0  0  0  0
   -6.1070   19.6320  -33.9960 C   0  0  0  0  0  0  0  0  0  0  0  0
   -4.9840   18.9400  -33.3520 N   0  0  0  0  0  0  0  0  0  0  0  0
   -3.6540   19.4540  -33.5000 C   0  0  0  0  0  0  0  0  0  0  0  0
   -2.7060   18.7030  -34.2090 C   0  0  0  0  0  0  0  0  0  0  0  0
   -1.3940   19.1610  -34.3380 C   0  0  0  0  0  0  0  0  0  0  0  0
   -1.0190   20.3790  -33.7650 C   0  0  0  0  0  0  0  0  0  0  0  0
    0.6260   20.9630  -33.9450 Cl  0  0  0  0  0  0  0  0  0  0  0  0
   -1.9580   21.1400  -33.0630 C   0  0  0  0  0  0  0  0  0  0  0  0
   -3.2800   20.6820  -32.9130 C   0  0  0  0  0  0  0  0  0  0  0  0
   -4.2640   21.4970  -32.2540 N   0  0  0  0  0  0  0  0  0  0  0  0
   -3.9290   22.5940  -31.3870 C   0  0  0  0  0  0  0  0  0  0  0  0
   -2.7330   22.7720  -31.0290 O   0  0  0  0  0  0  0  0  0  0  0  0
   -4.9630   23.5460  -30.9240 C   0  0  0  0  0  0  0  0  0  0  0  0
   -6.3140   23.1570  -30.9670 C   0  0  0  0  0  0  0  0  0  0  0  0
   -7.3170   24.0260  -30.5260 C   0  0  0  0  0  0  0  0  0  0  0  0
   -6.9850   25.2930  -30.0470 C   0  0  0  0  0  0  0  0  0  0  0  0
   -5.6490   25.7000  -30.0170 C   0  0  0  0  0  0  0  0  0  0  0  0
   -4.6380   24.8400  -30.4620 C   0  0  0  0  0  0  0  0  0  0  0  0
   -3.3250   25.2960  -30.4690 O   0  0  0  0  0  0  0  0  0  0  0  0
   -5.1740   17.6390  -32.7020 C   0  0  0  0  0  0  0  0  0  0  0  0
   -6.6610   17.3360  -32.5230 C   0  0  0  0  0  0  0  0  0  0  0  0
   -8.7014   18.2489  -30.4830 H   0  0  0  0  0  0  0  0  0  0  0  0
   -9.3940   19.0122  -31.9542 H   0  0  0  0  0  0  0  0  0  0  0  0
   -8.9949   17.2608  -31.9542 H   0  0  0  0  0  0  0  0  0  0  0  0
   -8.2428   19.3623  -33.7846 H   0  0  0  0  0  0  0  0  0  0  0  0
   -7.4828   20.5630  -32.6376 H   0  0  0  0  0  0  0  0  0  0  0  0
   -6.3138   19.1506  -34.9632 H   0  0  0  0  0  0  0  0  0  0  0  0
   -5.8256   20.6869  -34.1301 H   0  0  0  0  0  0  0  0  0  0  0  0
   -2.9982   17.7464  -34.6667 H   0  0  0  0  0  0  0  0  0  0  0  0
   -0.6548   18.5629  -34.8910 H   0  0  0  0  0  0  0  0  0  0  0  0
   -1.6613   22.1042  -32.6245 H   0  0  0  0  0  0  0  0  0  0  0  0
   -5.2690   21.2890  -32.4470 H   0  0  0  0  0  0  0  0  0  0  0  0
   -6.5836   22.1618  -31.3504 H   0  0  0  0  0  0  0  0  0  0  0  0
   -8.3700   23.7095  -30.5570 H   0  0  0  0  0  0  0  0  0  0  0  0
   -7.7749   25.9717  -29.6929 H   0  0  0  0  0  0  0  0  0  0  0  0
   -5.3901   26.7011  -29.6419 H   0  0  0  0  0  0  0  0  0  0  0  0
   -4.7181   16.8547  -33.3241 H   0  0  0  0  0  0  0  0  0  0  0  0
   -4.6971   17.6660  -31.7111 H   0  0  0  0  0  0  0  0  0  0  0  0
   -7.0921   17.0144  -33.4826 H   0  0  0  0  0  0  0  0  0  0  0  0
   -6.7950   16.5310  -31.7854 H   0  0  0  0  0  0  0  0  0  0  0  0
  1  2  1  0
  2  3  1  0
  3  4  1  0
  4  5  1  0
  5  6  1  0
  6  7  2  0
  7  8  1  0
  8  9  2  0
  9 10  1  0
  9 11  1  0
 11 12  2  0
 12 13  1  0
 13 14  1  0
 14 15  2  0
 14 16  1  0
 16 17  2  0
 17 18  1  0
 18 19  2  0
 19 20  1  0
 20 21  2  0
 21 22  1  0
  5 23  1  0
 23 24  1  0
 24  2  1  0
 12  6  1  0
 21 16  1  0
  1 25  1  0
  1 26  1  0
  1 27  1  0
  3 28  1  0
  3 29  1  0
  4 30  1  0
  4 31  1  0
  7 32  1  0
  8 33  1  0
 11 34  1  0
 13 35  1  0
 17 36  1  0
 18 37  1  0
 19 38  1  0
 20 39  1  0
 23 40  1  0
 23 41  1  0
 24 42  1  0
 24 43  1  0
M  CHG  1  22  -1
M  END
>  <UniqueID>  (22) 
20

>  <SMILES>  (22) 
CN1CCN(c2ccc(Cl)cc2NC(=O)c2ccccc2[O-])CC1

>  <Energy>  (22) 
62.955994528867414

>  <Genealogy>  (22) 
CN1CCN(c2ccc(Cl)cc2NC(=O)c2ccccc2[O-])CC1 (protonated)
CN1CCN(c2ccc(Cl)cc2NC(=O)c2ccccc2[O-])CC1 (3D coordinates assigned)
CN1CCN(c2ccc(Cl)cc2NC(=O)c2ccccc2[O-])CC1 (nonaromatic ring conformer: 62.955994528867414 kcal/mol)

>  <smiles>  (22) 
CN1CCN(c2ccc(Cl)cc2NC(=O)c2ccccc2O)CC1

>  <score_type>  (22) 
oracle

>  <origin>  (22) 
adgpu

>  <m_score__min__energy>  (22) 
-11.44

>  <m_primary>  (22) 
energy

$$$$
22:0
     RDKit          3D

 39 41  0  0  0  0  0  0  0  0999 V2000
    1.3980   19.1280  -36.8260 C   0  0  0  0  0  0  0  0  0  0  0  0
    1.2790   19.7590  -35.5550 O   0  0  0  0  0  0  0  0  0  0  0  0
    0.0680   19.9360  -34.8670 C   0  0  0  0  0  0  0  0  0  0  0  0
   -0.7880   18.8590  -34.5710 C   0  0  0  0  0  0  0  0  0  0  0  0
   -1.9850   19.0730  -33.8870 C   0  0  0  0  0  0  0  0  0  0  0  0
   -2.3580   20.3670  -33.4890 C   0  0  0  0  0  0  0  0  0  0  0  0
   -3.6230   20.6110  -32.7540 C   0  0  0  0  0  0  0  0  0  0  0  0
   -3.9680   19.8060  -31.8470 O   0  0  0  0  0  0  0  0  0  0  0  0
   -4.4580   21.7430  -33.0640 N   0  0  0  0  0  0  0  0  0  0  0  0
   -5.6690   22.0560  -32.3530 C   0  0  0  0  0  0  0  0  0  0  0  0
   -6.8150   21.2530  -32.4970 C   0  0  0  0  0  0  0  0  0  0  0  0
   -7.9800   21.5430  -31.7820 C   0  0  0  0  0  0  0  0  0  0  0  0
   -8.0180   22.6300  -30.9060 C   0  0  0  0  0  0  0  0  0  0  0  0
   -6.8810   23.4300  -30.7330 C   0  0  0  0  0  0  0  0  0  0  0  0
   -6.8910   24.5200  -29.8530 C   0  0  0  0  0  0  0  0  0  0  0  0
   -5.7440   25.3010  -29.7020 C   0  0  0  0  0  0  0  0  0  0  0  0
   -4.5970   24.9850  -30.4320 C   0  0  0  0  0  0  0  0  0  0  0  0
   -4.5990   23.9260  -31.2840 N   0  0  0  0  0  0  0  0  0  0  0  0
   -5.6980   23.1400  -31.4550 C   0  0  0  0  0  0  0  0  0  0  0  0
   -1.4960   21.4400  -33.7710 C   0  0  0  0  0  0  0  0  0  0  0  0
   -0.2860   21.2320  -34.4630 C   0  0  0  0  0  0  0  0  0  0  0  0
    0.5890   22.2870  -34.7680 O   0  0  0  0  0  0  0  0  0  0  0  0
    0.7480   22.8570  -36.0630 C   0  0  0  0  0  0  0  0  0  0  0  0
    1.6002   18.0559  -36.6856 H   0  0  0  0  0  0  0  0  0  0  0  0
    0.4603   19.2539  -37.3871 H   0  0  0  0  0  0  0  0  0  0  0  0
    2.2255   19.5868  -37.3871 H   0  0  0  0  0  0  0  0  0  0  0  0
   -0.5112   17.8406  -34.8813 H   0  0  0  0  0  0  0  0  0  0  0  0
   -2.6420   18.2211  -33.6576 H   0  0  0  0  0  0  0  0  0  0  0  0
   -4.2040   22.3590  -33.8680 H   0  0  0  0  0  0  0  0  0  0  0  0
   -6.7938   20.3895  -33.1782 H   0  0  0  0  0  0  0  0  0  0  0  0
   -8.8718   20.9118  -31.9098 H   0  0  0  0  0  0  0  0  0  0  0  0
   -8.9405   22.8580  -30.3519 H   0  0  0  0  0  0  0  0  0  0  0  0
   -7.8004   24.7598  -29.2825 H   0  0  0  0  0  0  0  0  0  0  0  0
   -5.7440   26.1587  -29.0132 H   0  0  0  0  0  0  0  0  0  0  0  0
   -3.6887   25.5949  -30.3174 H   0  0  0  0  0  0  0  0  0  0  0  0
   -1.7690   22.4553  -33.4476 H   0  0  0  0  0  0  0  0  0  0  0  0
    1.0424   23.9124  -35.9655 H   0  0  0  0  0  0  0  0  0  0  0  0
    1.5273   22.3082  -36.6120 H   0  0  0  0  0  0  0  0  0  0  0  0
   -0.2029   22.7908  -36.6120 H   0  0  0  0  0  0  0  0  0  0  0  0
  1  2  1  0
  2  3  1  0
  3  4  2  0
  4  5  1  0
  5  6  2  0
  6  7  1  0
  7  8  2  0
  7  9  1  0
  9 10  1  0
 10 11  2  0
 11 12  1  0
 12 13  2  0
 13 14  1  0
 14 15  2  0
 15 16  1  0
 16 17  2  0
 17 18  1  0
 18 19  2  0
  6 20  1  0
 20 21  2  0
 21 22  1  0
 22 23  1  0
 21  3  1  0
 19 10  1  0
 19 14  1  0
  1 24  1  0
  1 25  1  0
  1 26  1  0
  4 27  1  0
  5 28  1  0
  9 29  1  0
 11 30  1  0
 12 31  1  0
 13 32  1  0
 15 33  1  0
 16 34  1  0
 17 35  1  0
 20 36  1  0
 23 37  1  0
 23 38  1  0
 23 39  1  0
M  END
>  <UniqueID>  (23) 
21

>  <SMILES>  (23) 
COc1ccc(C(=O)Nc2cccc3cccnc23)cc1OC

>  <Energy>  (23) 
51.52843150862083

>  <Genealogy>  (23) 
COc1ccc(C(=O)Nc2cccc3cccnc23)cc1OC (3D coordinates assigned)
COc1ccc(C(=O)Nc2cccc3cccnc23)cc1OC (optimized conformer: 51.52843150862083 kcal/mol)

>  <smiles>  (23) 
COc1ccc(C(=O)Nc2cccc3cccnc23)cc1OC

>  <score_type>  (23) 
oracle

>  <origin>  (23) 
adgpu

>  <m_score__min__energy>  (23) 
-7.9100000000000001

>  <m_primary>  (23) 
energy

$$$$
23:0
     RDKit          3D

 35 36  0  0  0  0  0  0  0  0999 V2000
   -8.7320   19.5810  -32.3100 C   0  0  0  0  0  0  0  0  0  0  0  0
   -8.3410   20.9030  -32.6670 O   0  0  0  0  0  0  0  0  0  0  0  0
   -7.3830   21.6600  -31.9750 C   0  0  0  0  0  0  0  0  0  0  0  0
   -7.7210   22.5100  -30.9040 C   0  0  0  0  0  0  0  0  0  0  0  0
   -6.7280   23.2420  -30.2470 C   0  0  0  0  0  0  0  0  0  0  0  0
   -5.3900   23.1340  -30.6460 C   0  0  0  0  0  0  0  0  0  0  0  0
   -4.1350   24.0440  -29.8110 S   0  0  0  0  0  0  0  0  0  0  0  0
   -4.5780   24.4120  -28.4230 O   0  0  0  0  0  0  0  0  0  0  0  0
   -3.8510   25.3000  -30.5850 O   0  0  0  0  0  0  0  0  0  0  0  0
   -2.6850   23.1000  -29.7110 N   0  0  0  0  0  0  0  0  0  0  0  0
   -2.2770   22.3130  -28.5820 C   0  0  0  0  0  0  0  0  0  0  0  0
   -2.7390   20.9950  -28.4010 C   0  0  0  0  0  0  0  0  0  0  0  0
   -2.3310   20.2480  -27.2940 C   0  0  0  0  0  0  0  0  0  0  0  0
   -1.4680   20.8060  -26.3530 C   0  0  0  0  0  0  0  0  0  0  0  0
   -1.0040   22.1130  -26.5160 C   0  0  0  0  0  0  0  0  0  0  0  0
   -1.3980   22.8720  -27.6290 C   0  0  0  0  0  0  0  0  0  0  0  0
   -0.7970   24.5240  -27.8120 S   0  0  0  0  0  0  0  0  0  0  0  0
   -1.7940   25.3900  -28.9290 N   0  0  0  0  0  0  0  0  0  0  0  0
   -0.8180   25.2330  -26.4860 O   0  0  0  0  0  0  0  0  0  0  0  0
    0.6190   24.4960  -28.3160 O   0  0  0  0  0  0  0  0  0  0  0  0
   -5.0530   22.2930  -31.7130 C   0  0  0  0  0  0  0  0  0  0  0  0
   -6.0440   21.5600  -32.3720 C   0  0  0  0  0  0  0  0  0  0  0  0
   -8.7589   19.4899  -31.2141 H   0  0  0  0  0  0  0  0  0  0  0  0
   -9.7308   19.3707  -32.7201 H   0  0  0  0  0  0  0  0  0  0  0  0
   -8.0083   18.8612  -32.7201 H   0  0  0  0  0  0  0  0  0  0  0  0
   -8.7696   22.5980  -30.5837 H   0  0  0  0  0  0  0  0  0  0  0  0
   -6.9987   23.9059  -29.4128 H   0  0  0  0  0  0  0  0  0  0  0  0
   -3.4259   20.5510  -29.1366 H   0  0  0  0  0  0  0  0  0  0  0  0
   -2.6916   19.2169  -27.1645 H   0  0  0  0  0  0  0  0  0  0  0  0
   -1.1517   20.2159  -25.4802 H   0  0  0  0  0  0  0  0  0  0  0  0
   -0.3261   22.5501  -25.7681 H   0  0  0  0  0  0  0  0  0  0  0  0
   -1.6780   24.9370  -29.8630 H   0  0  0  0  0  0  0  0  0  0  0  0
   -2.7850   25.2300  -28.6380 H   0  0  0  0  0  0  0  0  0  0  0  0
   -4.0043   22.2086  -32.0341 H   0  0  0  0  0  0  0  0  0  0  0  0
   -5.7701   20.9000  -33.2083 H   0  0  0  0  0  0  0  0  0  0  0  0
  1  2  1  0
  2  3  1  0
  3  4  2  0
  4  5  1  0
  5  6  2  0
  6  7  1  0
  7  8  2  0
  7  9  2  0
  7 10  1  0
 10 11  1  0
 11 12  2  0
 12 13  1  0
 13 14  2  0
 14 15  1  0
 15 16  2  0
 16 17  1  0
 17 18  1  0
 17 19  2  0
 17 20  2  0
  6 21  1  0
 21 22  2  0
 22  3  1  0
 16 11  1  0
  1 23  1  0
  1 24  1  0
  1 25  1  0
  4 26  1  0
  5 27  1  0
 12 28  1  0
 13 29  1  0
 14 30  1  0
 15 31  1  0
 18 32  1  0
 18 33  1  0
 21 34  1  0
 22 35  1  0
M  CHG  1  10  -1
M  END
>  <UniqueID>  (24) 
22

>  <SMILES>  (24) 
COc1ccc(S(=O)(=O)[N-]c2ccccc2S(N)(=O)=O)cc1

>  <Energy>  (24) 
37.23804393542362

>  <Genealogy>  (24) 
COc1ccc(S(=O)(=O)[N-]c2ccccc2S(N)(=O)=O)cc1 (protonated)
COc1ccc(S(=O)(=O)[N-]c2ccccc2S(N)(=O)=O)cc1 (3D coordinates assigned)
COc1ccc(S(=O)(=O)[N-]c2ccccc2S(N)(=O)=O)cc1 (optimized conformer: 37.23804393542362 kcal/mol)

>  <smiles>  (24) 
COc1ccc(S(=O)(=O)Nc2ccccc2S(N)(=O)=O)cc1

>  <score_type>  (24) 
oracle

>  <origin>  (24) 
adgpu

>  <m_score__min__energy>  (24) 
-8.8100000000000005

>  <m_primary>  (24) 
energy

$$$$
24:0
     RDKit          3D

 41 43  0  0  0  0  0  0  0  0999 V2000
   -2.2410   25.2590  -29.3430 N   0  0  0  0  0  0  0  0  0  0  0  0
   -2.3020   23.8450  -29.1570 C   0  0  0  0  0  0  0  0  0  0  0  0
   -1.9700   23.3590  -28.0420 O   0  0  0  0  0  0  0  0  0  0  0  0
   -2.7470   22.9580  -30.2570 C   0  0  0  0  0  0  0  0  0  0  0  0
   -4.0450   23.0680  -30.7860 C   0  0  0  0  0  0  0  0  0  0  0  0
   -4.4610   22.2310  -31.8250 C   0  0  0  0  0  0  0  0  0  0  0  0
   -3.5870   21.2830  -32.3650 C   0  0  0  0  0  0  0  0  0  0  0  0
   -4.0520   20.4310  -33.4220 N   0  0  0  0  0  0  0  0  0  0  0  0
   -3.4610   19.1900  -33.8320 C   0  0  0  0  0  0  0  0  0  0  0  0
   -2.3110   19.2120  -34.3460 O   0  0  0  0  0  0  0  0  0  0  0  0
   -4.1350   17.8900  -33.6020 C   0  0  0  0  0  0  0  0  0  0  0  0
   -3.3780   16.7480  -33.2900 C   0  0  0  0  0  0  0  0  0  0  0  0
   -4.0100   15.5210  -33.0820 C   0  0  0  0  0  0  0  0  0  0  0  0
   -5.3970   15.4400  -33.1930 C   0  0  0  0  0  0  0  0  0  0  0  0
   -6.1190   16.5490  -33.4990 N   0  0  0  0  0  0  0  0  0  0  0  0
   -5.5350   17.7650  -33.6970 C   0  0  0  0  0  0  0  0  0  0  0  0
   -6.3170   18.8840  -34.0150 O   0  0  0  0  0  0  0  0  0  0  0  0
   -7.1950   19.5340  -33.1350 C   0  0  0  0  0  0  0  0  0  0  0  0
   -8.1810   18.7750  -32.4940 C   0  0  0  0  0  0  0  0  0  0  0  0
   -9.0900   19.3850  -31.6280 C   0  0  0  0  0  0  0  0  0  0  0  0
   -9.0240   20.7620  -31.3970 C   0  0  0  0  0  0  0  0  0  0  0  0
   -8.0380   21.5420  -32.0260 C   0  0  0  0  0  0  0  0  0  0  0  0
   -8.0080   23.0370  -31.8310 C   0  0  0  0  0  0  0  0  0  0  0  0
   -7.6440   23.3510  -30.5330 F   0  0  0  0  0  0  0  0  0  0  0  0
   -7.0900   23.5910  -32.7030 F   0  0  0  0  0  0  0  0  0  0  0  0
   -9.2530   23.5890  -32.0760 F   0  0  0  0  0  0  0  0  0  0  0  0
   -7.1440   20.9240  -32.9180 C   0  0  0  0  0  0  0  0  0  0  0  0
   -2.2960   21.1510  -31.8250 C   0  0  0  0  0  0  0  0  0  0  0  0
   -1.8780   21.9870  -30.7860 C   0  0  0  0  0  0  0  0  0  0  0  0
   -1.6070   25.6800  -30.0590 H   0  0  0  0  0  0  0  0  0  0  0  0
   -4.7384   23.8186  -30.3790 H   0  0  0  0  0  0  0  0  0  0  0  0
   -5.4836   22.3188  -32.2207 H   0  0  0  0  0  0  0  0  0  0  0  0
   -2.2834   16.8213  -33.2094 H   0  0  0  0  0  0  0  0  0  0  0  0
   -3.4194   14.6270  -32.8330 H   0  0  0  0  0  0  0  0  0  0  0  0
   -5.9066   14.4784  -33.0329 H   0  0  0  0  0  0  0  0  0  0  0  0
   -8.2399   17.6914  -32.6738 H   0  0  0  0  0  0  0  0  0  0  0  0
   -9.8601   18.7807  -31.1262 H   0  0  0  0  0  0  0  0  0  0  0  0
   -9.7478   21.2380  -30.7191 H   0  0  0  0  0  0  0  0  0  0  0  0
   -6.3982   21.5320  -33.4510 H   0  0  0  0  0  0  0  0  0  0  0  0
   -1.6118   20.3865  -32.2218 H   0  0  0  0  0  0  0  0  0  0  0  0
   -0.8613   21.8847  -30.3788 H   0  0  0  0  0  0  0  0  0  0  0  0
  1  2  1  0
  2  3  2  0
  2  4  1  0
  4  5  2  0
  5  6  1  0
  6  7  2  0
  7  8  1  0
  8  9  1  0
  9 10  2  0
  9 11  1  0
 11 12  2  0
 12 13  1  0
 13 14  2  0
 14 15  1  0
 15 16  2  0
 16 17  1  0
 17 18  1  0
 18 19  2  0
 19 20  1  0
 20 21  2  0
 21 22  1  0
 22 23  1  0
 23 24  1  0
 23 25  1  0
 23 26  1  0
 22 27  2  0
  7 28  1  0
 28 29  2  0
 29  4  1  0
 16 11  1  0
 27 18  1  0
  1 30  1  0
  5 31  1  0
  6 32  1  0
 12 33  1  0
 13 34  1  0
 14 35  1  0
 19 36  1  0
 20 37  1  0
 21 38  1  0
 27 39  1  0
 28 40  1  0
 29 41  1  0
M  CHG  2   1  -1   8  -1
M  END
>  <UniqueID>  (25) 
23

>  <SMILES>  (25) 
[NH-]C(=O)c1ccc([N-]C(=O)c2cccnc2Oc2cccc(C(F)(F)F)c2)cc1

>  <Energy>  (25) 
57.7656911154065

>  <Genealogy>  (25) 
[NH-]C(=O)c1ccc([N-]C(=O)c2cccnc2Oc2cccc(C(F)(F)F)c2)cc1 (protonated)
[NH-]C(=O)c1ccc([N-]C(=O)c2cccnc2Oc2cccc(C(F)(F)F)c2)cc1 (3D coordinates assigned)
[NH-]C(=O)c1ccc([N-]C(=O)c2cccnc2Oc2cccc(C(F)(F)F)c2)cc1 (optimized conformer: 57.7656911154065 kcal/mol)

>  <smiles>  (25) 
NC(=O)c1ccc(NC(=O)c2cccnc2Oc2cccc(C(F)(F)F)c2)cc1

>  <score_type>  (25) 
oracle

>  <origin>  (25) 
adgpu

>  <m_score__min__energy>  (25) 
-10.6

>  <m_primary>  (25) 
energy

$$$$
25:0
     RDKit          3D

 37 39  0  0  0  0  0  0  0  0999 V2000
   -3.3197   21.4081  -32.7589 H   0  0  0  0  0  0  0  0  0  0  0  0
   -3.8260   21.9850  -31.9710 C   0  0  0  0  0  0  0  0  0  0  0  0
   -3.1960   23.0440  -31.3990 N   0  0  0  0  0  0  0  0  0  0  0  0
   -3.7710   23.7810  -30.4130 C   0  0  0  0  0  0  0  0  0  0  0  0
   -3.0710   24.9230  -29.8970 N   0  0  0  0  0  0  0  0  0  0  0  0
   -2.0760   24.9340  -29.0540 C   0  0  0  0  0  0  0  0  0  0  0  0
   -1.6130   26.1360  -28.6150 N   0  0  0  0  0  0  0  0  0  0  0  0
   -0.5720   26.2430  -27.7470 C   0  0  0  0  0  0  0  0  0  0  0  0
   -0.2347   27.2352  -27.4126 H   0  0  0  0  0  0  0  0  0  0  0  0
    0.0690   25.0940  -27.2800 C   0  0  0  0  0  0  0  0  0  0  0  0
    0.9067   25.1727  -26.5715 H   0  0  0  0  0  0  0  0  0  0  0  0
   -0.3660   23.8450  -27.7230 C   0  0  0  0  0  0  0  0  0  0  0  0
    0.1329   22.9311  -27.3682 H   0  0  0  0  0  0  0  0  0  0  0  0
   -1.4350   23.7550  -28.6170 C   0  0  0  0  0  0  0  0  0  0  0  0
   -1.7748   22.7730  -28.9778 H   0  0  0  0  0  0  0  0  0  0  0  0
   -5.0790   23.4850  -30.0060 C   0  0  0  0  0  0  0  0  0  0  0  0
   -5.5754   24.1034  -29.2436 H   0  0  0  0  0  0  0  0  0  0  0  0
   -5.7470   22.4000  -30.5750 C   0  0  0  0  0  0  0  0  0  0  0  0
   -6.7682   22.1532  -30.2489 H   0  0  0  0  0  0  0  0  0  0  0  0
   -5.1210   21.6220  -31.5620 C   0  0  0  0  0  0  0  0  0  0  0  0
   -5.8140   20.4690  -32.1880 C   0  0  0  0  0  0  0  0  0  0  0  0
   -7.0110   20.2210  -31.8750 O   0  0  0  0  0  0  0  0  0  0  0  0
   -5.1550   19.6650  -33.1810 N   0  0  0  0  0  0  0  0  0  0  0  0
   -4.4060   20.1130  -33.7560 H   0  0  0  0  0  0  0  0  0  0  0  0
   -5.5710   18.3340  -33.5340 C   0  0  0  0  0  0  0  0  0  0  0  0
   -6.8480   17.8530  -33.2010 C   0  0  0  0  0  0  0  0  0  0  0  0
   -7.5586   18.5068  -32.6742 H   0  0  0  0  0  0  0  0  0  0  0  0
   -7.2200   16.5500  -33.5350 C   0  0  0  0  0  0  0  0  0  0  0  0
   -8.2264   16.1868  -33.2797 H   0  0  0  0  0  0  0  0  0  0  0  0
   -6.3220   15.7030  -34.1920 C   0  0  0  0  0  0  0  0  0  0  0  0
   -6.8480   14.0700  -34.5860 Cl  0  0  0  0  0  0  0  0  0  0  0  0
   -5.0290   16.1650  -34.5140 C   0  0  0  0  0  0  0  0  0  0  0  0
   -4.0810   15.3210  -35.1790 N   0  0  0  0  0  0  0  0  0  0  0  0
   -3.9340   14.3360  -34.8620 H   0  0  0  0  0  0  0  0  0  0  0  0
   -3.5160   15.6560  -35.9890 H   0  0  0  0  0  0  0  0  0  0  0  0
   -4.6640   17.4770  -34.1750 C   0  0  0  0  0  0  0  0  0  0  0  0
   -3.6531   17.8382  -34.4151 H   0  0  0  0  0  0  0  0  0  0  0  0
  1  2  1  0
  2  3  2  0
  3  4  1  0
  4  5  1  0
  5  6  2  0
  6  7  1  0
  7  8  1  0
  8  9  1  0
  8 10  2  0
 10 11  1  0
 10 12  1  0
 12 13  1  0
 12 14  2  0
 14 15  1  0
  4 16  2  0
 16 17  1  0
 16 18  1  0
 18 19  1  0
 18 20  2  0
 20 21  1  0
 21 22  2  0
 21 23  1  0
 23 24  1  0
 23 25  1  0
 25 26  2  0
 26 27  1  0
 26 28  1  0
 28 29  1  0
 28 30  2  0
 30 31  1  0
 30 32  1  0
 32 33  1  0
 33 34  1  0
 33 35  1  0
 32 36  2  0
 36 37  1  0
 20  2  1  0
 36 25  1  0
 14  6  1  0
M  CHG  1   7  -1
M  END
>  <UniqueID>  (26) 
24

>  <SMILES>  (26) 
Nc1cc(NC(=O)c2ccc(/N=c3\cccc[n-]3)nc2)ccc1Cl

>  <Energy>  (26) 
56.97400314707647

>  <Genealogy>  (26) 
Nc1cc(NC(=O)c2ccc(N=c3cccc[n-]3)nc2)ccc1Cl (protonated)
Nc1cc(NC(=O)c2ccc(/N=c3\cccc[n-]3)nc2)ccc1Cl (cis-trans isomerization)
Nc1cc(NC(=O)c2ccc(/N=c3\cccc[n-]3)nc2)ccc1Cl (3D coordinates assigned)
Nc1cc(NC(=O)c2ccc(/N=c3\cccc[n-]3)nc2)ccc1Cl (optimized conformer: 56.97400314707647 kcal/mol)

>  <smiles>  (26) 
Nc1cc(NC(=O)c2ccc(N=c3cccc[nH]3)nc2)ccc1Cl

>  <score_type>  (26) 
oracle

>  <origin>  (26) 
adgpu

>  <m_score__min__energy>  (26) 
-8.5099999999999998

>  <m_primary>  (26) 
energy

$$$$
26:0
     RDKit          3D

 30 31  0  0  0  0  0  0  0  0999 V2000
   -4.9540   19.8300  -32.2450 C   0  0  0  0  0  0  0  0  0  0  0  0
   -5.8830   20.3020  -31.2750 O   0  0  0  0  0  0  0  0  0  0  0  0
   -6.9560   21.1670  -31.5490 C   0  0  0  0  0  0  0  0  0  0  0  0
   -8.2400   20.6730  -31.8550 C   0  0  0  0  0  0  0  0  0  0  0  0
   -9.3030   21.5500  -32.0780 C   0  0  0  0  0  0  0  0  0  0  0  0
   -9.1030   22.9270  -31.9940 C   0  0  0  0  0  0  0  0  0  0  0  0
   -7.8370   23.4330  -31.7000 C   0  0  0  0  0  0  0  0  0  0  0  0
   -6.7500   22.5650  -31.4910 C   0  0  0  0  0  0  0  0  0  0  0  0
   -5.4170   23.1380  -31.1920 C   0  0  0  0  0  0  0  0  0  0  0  0
   -4.9900   24.1070  -31.8790 O   0  0  0  0  0  0  0  0  0  0  0  0
   -4.5890   22.5750  -30.1610 N   0  0  0  0  0  0  0  0  0  0  0  0
   -3.3760   23.2070  -29.7230 C   0  0  0  0  0  0  0  0  0  0  0  0
   -3.2200   24.6080  -29.7320 C   0  0  0  0  0  0  0  0  0  0  0  0
   -4.2940   25.4810  -30.0970 N   0  0  0  0  0  0  0  0  0  0  0  0
   -2.0390   25.1510  -29.3340 N   0  0  0  0  0  0  0  0  0  0  0  0
   -1.0090   24.3740  -28.9130 C   0  0  0  0  0  0  0  0  0  0  0  0
    0.0730   24.9040  -28.5540 O   0  0  0  0  0  0  0  0  0  0  0  0
   -1.1500   23.0250  -28.8700 N   0  0  0  0  0  0  0  0  0  0  0  0
   -2.3060   22.4280  -29.2590 C   0  0  0  0  0  0  0  0  0  0  0  0
   -2.4010   21.1730  -29.2120 O   0  0  0  0  0  0  0  0  0  0  0  0
   -4.0848   19.3884  -31.7357 H   0  0  0  0  0  0  0  0  0  0  0  0
   -5.4365   19.0677  -32.8744 H   0  0  0  0  0  0  0  0  0  0  0  0
   -4.6229   20.6692  -32.8744 H   0  0  0  0  0  0  0  0  0  0  0  0
   -8.4059   19.5874  -31.9186 H   0  0  0  0  0  0  0  0  0  0  0  0
  -10.3001   21.1538  -32.3204 H   0  0  0  0  0  0  0  0  0  0  0  0
   -9.9448   23.6154  -32.1598 H   0  0  0  0  0  0  0  0  0  0  0  0
   -7.6872   24.5206  -31.6309 H   0  0  0  0  0  0  0  0  0  0  0  0
   -4.7550   21.5820  -29.8810 H   0  0  0  0  0  0  0  0  0  0  0  0
   -5.0630   25.7180  -29.4330 H   0  0  0  0  0  0  0  0  0  0  0  0
   -4.2790   25.9640  -31.0220 H   0  0  0  0  0  0  0  0  0  0  0  0
  1  2  1  0
  2  3  1  0
  3  4  2  0
  4  5  1  0
  5  6  2  0
  6  7  1  0
  7  8  2  0
  8  9  1  0
  9 10  2  0
  9 11  1  0
 11 12  1  0
 12 13  2  0
 13 14  1  0
 13 15  1  0
 15 16  1  0
 16 17  2  0
 16 18  1  0
 18 19  1  0
 19 20  2  0
  8  3  1  0
 19 12  1  0
  1 21  1  0
  1 22  1  0
  1 23  1  0
  4 24  1  0
  5 25  1  0
  6 26  1  0
  7 27  1  0
 11 28  1  0
 14 29  1  0
 14 30  1  0
M  CHG  2  15  -1  18  -1
M  END
>  <UniqueID>  (27) 
25

>  <SMILES>  (27) 
COc1ccccc1C(=O)Nc1c(N)[n-]c(=O)[n-]c1=O

>  <Energy>  (27) 
40.86087727232633

>  <Genealogy>  (27) 
COc1ccccc1C(=O)Nc1c(N)[n-]c(=O)[n-]c1=O (protonated)
COc1ccccc1C(=O)Nc1c(N)[n-]c(=O)[n-]c1=O (3D coordinates assigned)
COc1ccccc1C(=O)Nc1c(N)[n-]c(=O)[n-]c1=O (optimized conformer: 40.86087727232633 kcal/mol)

>  <smiles>  (27) 
COc1ccccc1C(=O)Nc1c(N)[nH]c(=O)[nH]c1=O

>  <score_type>  (27) 
oracle

>  <origin>  (27) 
adgpu

>  <m_score__min__energy>  (27) 
-9.6999999999999993

>  <m_primary>  (27) 
energy

$$$$
27:0
     RDKit          3D

 56 59  0  0  0  0  0  0  0  0999 V2000
    2.6090   22.3450  -36.1420 C   0  0  0  0  0  0  0  0  0  0  0  0
    1.6920   21.5710  -35.2410 C   0  0  0  0  0  0  0  0  0  0  0  0
    2.2150   20.6370  -34.3320 C   0  0  0  0  0  0  0  0  0  0  0  0
    1.3580   19.9040  -33.5070 C   0  0  0  0  0  0  0  0  0  0  0  0
   -0.0250   20.0980  -33.5790 C   0  0  0  0  0  0  0  0  0  0  0  0
   -1.1110   19.1970  -32.4720 S   0  0  0  0  0  0  0  0  0  0  0  0
   -1.7820   20.7020  -31.7470 C   0  0  0  0  0  0  0  0  0  0  0  0
   -1.0710   21.2860  -30.6910 C   0  0  0  0  0  0  0  0  0  0  0  0
   -1.5420   22.4380  -30.0660 C   0  0  0  0  0  0  0  0  0  0  0  0
   -2.7270   23.0410  -30.5020 C   0  0  0  0  0  0  0  0  0  0  0  0
   -3.2390   24.2490  -29.8220 C   0  0  0  0  0  0  0  0  0  0  0  0
   -3.1260   24.3460  -28.5710 O   0  0  0  0  0  0  0  0  0  0  0  0
   -3.9050   25.2990  -30.5340 N   0  0  0  0  0  0  0  0  0  0  0  0
   -5.3290   25.6020  -30.4290 C   0  0  0  0  0  0  0  0  0  0  0  0
   -6.1220   24.3770  -30.7770 C   0  0  0  0  0  0  0  0  0  0  0  0
   -6.6620   23.5740  -29.7600 C   0  0  0  0  0  0  0  0  0  0  0  0
   -7.4190   22.4480  -30.0880 C   0  0  0  0  0  0  0  0  0  0  0  0
   -7.6390   22.1400  -31.4320 C   0  0  0  0  0  0  0  0  0  0  0  0
   -7.1230   22.9360  -32.4070 N   0  0  0  0  0  0  0  0  0  0  0  0
   -6.3810   24.0380  -32.1140 C   0  0  0  0  0  0  0  0  0  0  0  0
   -3.4520   22.4530  -31.5480 C   0  0  0  0  0  0  0  0  0  0  0  0
   -2.9910   21.2880  -32.1940 C   0  0  0  0  0  0  0  0  0  0  0  0
   -3.7290   20.7070  -33.2940 N   0  0  0  0  0  0  0  0  0  0  0  0
   -5.1890   20.7370  -33.4270 C   0  0  0  0  0  0  0  0  0  0  0  0
   -5.7570   19.3410  -33.3830 C   0  0  0  0  0  0  0  0  0  0  0  0
   -6.6970   18.9980  -32.3980 C   0  0  0  0  0  0  0  0  0  0  0  0
   -7.2550   17.7170  -32.3700 C   0  0  0  0  0  0  0  0  0  0  0  0
   -6.8690   16.7630  -33.3160 C   0  0  0  0  0  0  0  0  0  0  0  0
   -5.9170   17.0880  -34.2840 C   0  0  0  0  0  0  0  0  0  0  0  0
   -5.3570   18.3690  -34.3170 C   0  0  0  0  0  0  0  0  0  0  0  0
   -0.5540   20.9950  -34.5150 C   0  0  0  0  0  0  0  0  0  0  0  0
    0.3000   21.7270  -35.3450 C   0  0  0  0  0  0  0  0  0  0  0  0
    3.3089   22.9358  -35.5328 H   0  0  0  0  0  0  0  0  0  0  0  0
    3.1745   21.6470  -36.7768 H   0  0  0  0  0  0  0  0  0  0  0  0
    2.0158   23.0196  -36.7768 H   0  0  0  0  0  0  0  0  0  0  0  0
    3.3022   20.4821  -34.2693 H   0  0  0  0  0  0  0  0  0  0  0  0
    1.7726   19.1718  -32.7985 H   0  0  0  0  0  0  0  0  0  0  0  0
   -0.1296   20.8294  -30.3513 H   0  0  0  0  0  0  0  0  0  0  0  0
   -0.9807   22.8752  -29.2270 H   0  0  0  0  0  0  0  0  0  0  0  0
   -5.5641   25.9122  -29.4002 H   0  0  0  0  0  0  0  0  0  0  0  0
   -5.5851   26.4168  -31.1222 H   0  0  0  0  0  0  0  0  0  0  0  0
   -6.4886   23.8321  -28.7048 H   0  0  0  0  0  0  0  0  0  0  0  0
   -7.8379   21.8100  -29.2959 H   0  0  0  0  0  0  0  0  0  0  0  0
   -8.2302   21.2527  -31.7027 H   0  0  0  0  0  0  0  0  0  0  0  0
   -5.9835   24.6643  -32.9263 H   0  0  0  0  0  0  0  0  0  0  0  0
   -4.3992   22.9097  -31.8709 H   0  0  0  0  0  0  0  0  0  0  0  0
   -3.2070   20.2460  -34.0710 H   0  0  0  0  0  0  0  0  0  0  0  0
   -5.6147   21.3262  -32.6014 H   0  0  0  0  0  0  0  0  0  0  0  0
   -5.4467   21.1933  -34.3941 H   0  0  0  0  0  0  0  0  0  0  0  0
   -6.9958   19.7415  -31.6444 H   0  0  0  0  0  0  0  0  0  0  0  0
   -7.9993   17.4590  -31.6022 H   0  0  0  0  0  0  0  0  0  0  0  0
   -7.3148   15.7575  -33.2977 H   0  0  0  0  0  0  0  0  0  0  0  0
   -5.6065   16.3344  -35.0228 H   0  0  0  0  0  0  0  0  0  0  0  0
   -4.6008   18.6171  -35.0764 H   0  0  0  0  0  0  0  0  0  0  0  0
   -1.6433   21.1239  -34.5973 H   0  0  0  0  0  0  0  0  0  0  0  0
   -0.1195   22.4275  -36.0821 H   0  0  0  0  0  0  0  0  0  0  0  0
  1  2  1  0
  2  3  2  0
  3  4  1  0
  4  5  2  0
  5  6  1  0
  6  7  1  0
  7  8  2  0
  8  9  1  0
  9 10  2  0
 10 11  1  0
 11 12  2  0
 11 13  1  0
 13 14  1  0
 14 15  1  0
 15 16  2  0
 16 17  1  0
 17 18  2  0
 18 19  1  0
 19 20  2  0
 10 21  1  0
 21 22  2  0
 22 23  1  0
 23 24  1  0
 24 25  1  0
 25 26  2  0
 26 27  1  0
 27 28  2  0
 28 29  1  0
 29 30  2  0
  5 31  1  0
 31 32  2  0
 32  2  1  0
 22  7  1  0
 30 25  1  0
 20 15  1  0
  1 33  1  0
  1 34  1  0
  1 35  1  0
  3 36  1  0
  4 37  1  0
  8 38  1  0
  9 39  1  0
 14 40  1  0
 14 41  1  0
 16 42  1  0
 17 43  1  0
 18 44  1  0
 20 45  1  0
 21 46  1  0
 23 47  1  0
 24 48  1  0
 24 49  1  0
 26 50  1  0
 27 51  1  0
 28 52  1  0
 29 53  1  0
 30 54  1  0
 31 55  1  0
 32 56  1  0
M  CHG  1  13  -1
M  END
>  <UniqueID>  (28) 
26

>  <SMILES>  (28) 
Cc1ccc(Sc2ccc(C(=O)[N-]Cc3cccnc3)cc2NCc2ccccc2)cc1

>  <Energy>  (28) 
58.666012677583865

>  <Genealogy>  (28) 
Cc1ccc(Sc2ccc(C(=O)[N-]Cc3cccnc3)cc2NCc2ccccc2)cc1 (protonated)
Cc1ccc(Sc2ccc(C(=O)[N-]Cc3cccnc3)cc2NCc2ccccc2)cc1 (3D coordinates assigned)
Cc1ccc(Sc2ccc(C(=O)[N-]Cc3cccnc3)cc2NCc2ccccc2)cc1 (optimized conformer: 58.666012677583865 kcal/mol)

>  <smiles>  (28) 
Cc1ccc(Sc2ccc(C(=O)NCc3cccnc3)cc2NCc2ccccc2)cc1

>  <score_type>  (28) 
oracle

>  <origin>  (28) 
adgpu

>  <m_score__min__energy>  (28) 
-11.609999999999999

>  <m_primary>  (28) 
energy

$$$$
28:0
     RDKit          3D

 43 45  0  0  0  0  0  0  0  0999 V2000
   -0.9680   21.2940  -33.8200 C   0  0  0  0  0  0  0  0  0  0  0  0
   -2.0220   21.2160  -32.7490 C   0  0  0  0  0  0  0  0  0  0  0  0
   -3.2710   20.6210  -33.0110 C   0  0  0  0  0  0  0  0  0  0  0  0
   -4.2340   20.5350  -31.9970 C   0  0  0  0  0  0  0  0  0  0  0  0
   -3.9600   21.0410  -30.7200 C   0  0  0  0  0  0  0  0  0  0  0  0
   -2.7200   21.6370  -30.4410 C   0  0  0  0  0  0  0  0  0  0  0  0
   -2.5060   22.1600  -29.1490 O   0  0  0  0  0  0  0  0  0  0  0  0
   -3.1550   23.3160  -28.6040 C   0  0  0  0  0  0  0  0  0  0  0  0
   -2.9570   24.5200  -29.4760 C   0  0  0  0  0  0  0  0  0  0  0  0
   -2.0170   25.3190  -29.2180 O   0  0  0  0  0  0  0  0  0  0  0  0
   -3.8640   24.7850  -30.5540 N   0  0  0  0  0  0  0  0  0  0  0  0
   -5.0980   24.0990  -30.8020 C   0  0  0  0  0  0  0  0  0  0  0  0
   -5.9930   23.7790  -29.7630 C   0  0  0  0  0  0  0  0  0  0  0  0
   -7.2110   23.1570  -30.0530 C   0  0  0  0  0  0  0  0  0  0  0  0
   -7.5590   22.8740  -31.3780 C   0  0  0  0  0  0  0  0  0  0  0  0
   -9.1350   22.1050  -31.7480 S   0  0  0  0  0  0  0  0  0  0  0  0
   -8.3800   20.5170  -32.1150 C   0  0  0  0  0  0  0  0  0  0  0  0
   -8.7280   19.3850  -31.3630 C   0  0  0  0  0  0  0  0  0  0  0  0
   -8.1420   18.1450  -31.6490 C   0  0  0  0  0  0  0  0  0  0  0  0
   -7.2070   18.0350  -32.6850 C   0  0  0  0  0  0  0  0  0  0  0  0
   -6.8600   19.1630  -33.4380 C   0  0  0  0  0  0  0  0  0  0  0  0
   -7.4440   20.4050  -33.1540 C   0  0  0  0  0  0  0  0  0  0  0  0
   -6.6810   23.2080  -32.4150 C   0  0  0  0  0  0  0  0  0  0  0  0
   -5.4600   23.8240  -32.1280 C   0  0  0  0  0  0  0  0  0  0  0  0
   -1.7430   21.7040  -31.4590 C   0  0  0  0  0  0  0  0  0  0  0  0
    0.0250   21.3675  -33.3525 H   0  0  0  0  0  0  0  0  0  0  0  0
   -1.0130   20.3901  -34.4452 H   0  0  0  0  0  0  0  0  0  0  0  0
   -1.1455   22.1815  -34.4452 H   0  0  0  0  0  0  0  0  0  0  0  0
   -3.4909   20.2233  -34.0128 H   0  0  0  0  0  0  0  0  0  0  0  0
   -5.2084   20.0686  -32.2044 H   0  0  0  0  0  0  0  0  0  0  0  0
   -4.7221   20.9708  -29.9299 H   0  0  0  0  0  0  0  0  0  0  0  0
   -4.2323   23.1124  -28.5151 H   0  0  0  0  0  0  0  0  0  0  0  0
   -2.7136   23.5272  -27.6188 H   0  0  0  0  0  0  0  0  0  0  0  0
   -5.7333   24.0189  -28.7213 H   0  0  0  0  0  0  0  0  0  0  0  0
   -7.8979   22.8893  -29.2366 H   0  0  0  0  0  0  0  0  0  0  0  0
   -9.4617   19.4711  -30.5480 H   0  0  0  0  0  0  0  0  0  0  0  0
   -8.4166   17.2578  -31.0595 H   0  0  0  0  0  0  0  0  0  0  0  0
   -6.7448   17.0619  -32.9075 H   0  0  0  0  0  0  0  0  0  0  0  0
   -6.1277   19.0744  -34.2540 H   0  0  0  0  0  0  0  0  0  0  0  0
   -7.1688   21.2909  -33.7451 H   0  0  0  0  0  0  0  0  0  0  0  0
   -6.9523   22.9854  -33.4575 H   0  0  0  0  0  0  0  0  0  0  0  0
   -4.7785   24.0948  -32.9479 H   0  0  0  0  0  0  0  0  0  0  0  0
   -0.7571   22.1408  -31.2418 H   0  0  0  0  0  0  0  0  0  0  0  0
  1  2  1  0
  2  3  2  0
  3  4  1  0
  4  5  2  0
  5  6  1  0
  6  7  1  0
  7  8  1  0
  8  9  1  0
  9 10  2  0
  9 11  1  0
 11 12  1  0
 12 13  2  0
 13 14  1  0
 14 15  2  0
 15 16  1  0
 16 17  1  0
 17 18  2  0
 18 19  1  0
 19 20  2  0
 20 21  1  0
 21 22  2  0
 15 23  1  0
 23 24  2  0
  6 25  2  0
 25  2  1  0
 24 12  1  0
 22 17  1  0
  1 26  1  0
  1 27  1  0
  1 28  1  0
  3 29  1  0
  4 30  1  0
  5 31  1  0
  8 32  1  0
  8 33  1  0
 13 34  1  0
 14 35  1  0
 18 36  1  0
 19 37  1  0
 20 38  1  0
 21 39  1  0
 22 40  1  0
 23 41  1  0
 24 42  1  0
 25 43  1  0
M  CHG  1  11  -1
M  END
>  <UniqueID>  (29) 
27

>  <SMILES>  (29) 
Cc1cccc(OCC(=O)[N-]c2ccc(Sc3ccccc3)cc2)c1

>  <Energy>  (29) 
42.32483705870361

>  <Genealogy>  (29) 
Cc1cccc(OCC(=O)[N-]c2ccc(Sc3ccccc3)cc2)c1 (protonated)
Cc1cccc(OCC(=O)[N-]c2ccc(Sc3ccccc3)cc2)c1 (3D coordinates assigned)
Cc1cccc(OCC(=O)[N-]c2ccc(Sc3ccccc3)cc2)c1 (optimized conformer: 42.32483705870361 kcal/mol)

>  <smiles>  (29) 
Cc1cccc(OCC(=O)Nc2ccc(Sc3ccccc3)cc2)c1

>  <score_type>  (29) 
oracle

>  <origin>  (29) 
adgpu

>  <m_score__min__energy>  (29) 
-11.15

>  <m_primary>  (29) 
energy

$$$$
29:0
     RDKit          3D

 44 46  0  0  0  0  0  0  0  0999 V2000
   -8.6940   18.2420  -31.6200 C   0  0  0  0  0  0  0  0  0  0  0  0
   -9.5100   18.9270  -32.7090 C   0  0  0  0  0  0  0  0  0  0  0  0
   -9.7300   20.7030  -32.3440 S   0  0  0  0  0  0  0  0  0  0  0  0
   -7.9760   21.0580  -32.2630 C   0  0  0  0  0  0  0  0  0  0  0  0
   -7.4430   21.9640  -31.4180 N   0  0  0  0  0  0  0  0  0  0  0  0
   -6.1190   21.9130  -31.6720 C   0  0  0  0  0  0  0  0  0  0  0  0
   -5.1460   22.8120  -31.0160 C   0  0  0  0  0  0  0  0  0  0  0  0
   -5.3410   24.2040  -30.9990 C   0  0  0  0  0  0  0  0  0  0  0  0
   -4.4200   25.0400  -30.3620 C   0  0  0  0  0  0  0  0  0  0  0  0
   -3.2940   24.4950  -29.7170 C   0  0  0  0  0  0  0  0  0  0  0  0
   -2.3400   25.2910  -29.0670 O   0  0  0  0  0  0  0  0  0  0  0  0
   -1.7770   24.9930  -27.7920 C   0  0  0  0  0  0  0  0  0  0  0  0
   -3.1140   23.1080  -29.7160 C   0  0  0  0  0  0  0  0  0  0  0  0
   -4.0350   22.2710  -30.3530 C   0  0  0  0  0  0  0  0  0  0  0  0
   -5.8790   20.9630  -32.6580 C   0  0  0  0  0  0  0  0  0  0  0  0
   -4.5780   20.4900  -33.1800 C   0  0  0  0  0  0  0  0  0  0  0  0
   -3.5040   21.3780  -33.3500 C   0  0  0  0  0  0  0  0  0  0  0  0
   -2.2760   20.9170  -33.8330 C   0  0  0  0  0  0  0  0  0  0  0  0
   -2.0950   19.5640  -34.1410 C   0  0  0  0  0  0  0  0  0  0  0  0
   -0.8450   19.1510  -34.6240 O   0  0  0  0  0  0  0  0  0  0  0  0
    0.1640   20.0350  -35.1020 C   0  0  0  0  0  0  0  0  0  0  0  0
   -3.1650   18.6690  -33.9540 C   0  0  0  0  0  0  0  0  0  0  0  0
   -4.3940   19.1290  -33.4710 C   0  0  0  0  0  0  0  0  0  0  0  0
   -7.0600   20.4390  -33.0280 N   0  0  0  0  0  0  0  0  0  0  0  0
   -9.0654   18.5538  -30.6326 H   0  0  0  0  0  0  0  0  0  0  0  0
   -8.7912   17.1509  -31.7205 H   0  0  0  0  0  0  0  0  0  0  0  0
   -7.6363   18.5267  -31.7205 H   0  0  0  0  0  0  0  0  0  0  0  0
   -8.9875   18.8197  -33.6710 H   0  0  0  0  0  0  0  0  0  0  0  0
  -10.5018   18.4533  -32.7536 H   0  0  0  0  0  0  0  0  0  0  0  0
   -6.2243   24.6381  -31.4903 H   0  0  0  0  0  0  0  0  0  0  0  0
   -4.5758   26.1289  -30.3647 H   0  0  0  0  0  0  0  0  0  0  0  0
   -2.4521   25.3504  -27.0005 H   0  0  0  0  0  0  0  0  0  0  0  0
   -1.6423   23.9055  -27.6957 H   0  0  0  0  0  0  0  0  0  0  0  0
   -0.8020   25.4931  -27.6957 H   0  0  0  0  0  0  0  0  0  0  0  0
   -2.2402   22.6719  -29.2096 H   0  0  0  0  0  0  0  0  0  0  0  0
   -3.8872   21.1811  -30.3340 H   0  0  0  0  0  0  0  0  0  0  0  0
   -3.6295   22.4422  -33.1018 H   0  0  0  0  0  0  0  0  0  0  0  0
   -1.4447   21.6238  -33.9722 H   0  0  0  0  0  0  0  0  0  0  0  0
    0.6856   20.4920  -34.2481 H   0  0  0  0  0  0  0  0  0  0  0  0
    0.8847   19.4724  -35.7135 H   0  0  0  0  0  0  0  0  0  0  0  0
   -0.2990   20.8235  -35.7135 H   0  0  0  0  0  0  0  0  0  0  0  0
   -3.0338   17.6024  -34.1889 H   0  0  0  0  0  0  0  0  0  0  0  0
   -5.2214   18.4204  -33.3182 H   0  0  0  0  0  0  0  0  0  0  0  0
   -7.2320   19.6840  -33.7290 H   0  0  0  0  0  0  0  0  0  0  0  0
  1  2  1  0
  2  3  1  0
  3  4  1  0
  4  5  2  0
  5  6  1  0
  6  7  1  0
  7  8  2  0
  8  9  1  0
  9 10  2  0
 10 11  1  0
 11 12  1  0
 10 13  1  0
 13 14  2  0
  6 15  2  0
 15 16  1  0
 16 17  2  0
 17 18  1  0
 18 19  2  0
 19 20  1  0
 20 21  1  0
 19 22  1  0
 22 23  2  0
 15 24  1  0
 24  4  1  0
 14  7  1  0
 23 16  1  0
  1 25  1  0
  1 26  1  0
  1 27  1  0
  2 28  1  0
  2 29  1  0
  8 30  1  0
  9 31  1  0
 12 32  1  0
 12 33  1  0
 12 34  1  0
 13 35  1  0
 14 36  1  0
 17 37  1  0
 18 38  1  0
 21 39  1  0
 21 40  1  0
 21 41  1  0
 22 42  1  0
 23 43  1  0
 24 44  1  0
M  END
>  <UniqueID>  (30) 
28

>  <SMILES>  (30) 
CCSc1nc(-c2ccc(OC)cc2)c(-c2ccc(OC)cc2)[nH]1

>  <Energy>  (30) 
75.08742991565923

>  <Genealogy>  (30) 
CCSc1nc(-c2ccc(OC)cc2)c(-c2ccc(OC)cc2)[nH]1 (3D coordinates assigned)
CCSc1nc(-c2ccc(OC)cc2)c(-c2ccc(OC)cc2)[nH]1 (optimized conformer: 75.08742991565923 kcal/mol)

>  <smiles>  (30) 
CCSc1nc(-c2ccc(OC)cc2)c(-c2ccc(OC)cc2)[nH]1

>  <score_type>  (30) 
oracle

>  <origin>  (30) 
adgpu

>  <m_score__min__energy>  (30) 
-7.6600000000000001

>  <m_primary>  (30) 
energy

$$$$
30:0
     RDKit          3D

 45 48  0  0  0  0  0  0  0  0999 V2000
   -9.4250   19.6430  -33.0030 C   0  0  0  0  0  0  0  0  0  0  0  0
   -8.1810   19.5610  -32.1140 C   0  0  0  0  0  0  0  0  0  0  0  0
   -8.1770   18.3050  -31.2350 C   0  0  0  0  0  0  0  0  0  0  0  0
   -6.9440   19.6610  -32.9130 N   0  0  0  0  0  0  0  0  0  0  0  0
   -6.0000   20.6500  -32.8410 C   0  0  0  0  0  0  0  0  0  0  0  0
   -6.1750   21.9380  -32.1480 C   0  0  0  0  0  0  0  0  0  0  0  0
   -5.0980   22.5640  -31.5020 C   0  0  0  0  0  0  0  0  0  0  0  0
   -5.3050   23.7730  -30.8240 C   0  0  0  0  0  0  0  0  0  0  0  0
   -4.1680   24.4460  -30.1070 C   0  0  0  0  0  0  0  0  0  0  0  0
   -3.8770   25.6750  -30.7140 O   0  0  0  0  0  0  0  0  0  0  0  0
   -6.5980   24.3110  -30.7640 C   0  0  0  0  0  0  0  0  0  0  0  0
   -7.6500   23.6440  -31.3940 C   0  0  0  0  0  0  0  0  0  0  0  0
   -7.4190   22.4810  -32.0590 N   0  0  0  0  0  0  0  0  0  0  0  0
   -4.8040   20.2970  -33.3770 N   0  0  0  0  0  0  0  0  0  0  0  0
   -5.0590   19.0900  -33.9050 C   0  0  0  0  0  0  0  0  0  0  0  0
   -6.3200   18.6940  -33.6220 C   0  0  0  0  0  0  0  0  0  0  0  0
   -6.3010   17.2350  -33.4740 C   0  0  0  0  0  0  0  0  0  0  0  0
   -7.3010   16.4950  -33.2820 O   0  0  0  0  0  0  0  0  0  0  0  0
   -4.9700   16.7460  -33.6950 N   0  0  0  0  0  0  0  0  0  0  0  0
   -4.4910   15.3960  -33.5660 C   0  0  0  0  0  0  0  0  0  0  0  0
   -3.9240   14.7290  -34.6670 C   0  0  0  0  0  0  0  0  0  0  0  0
   -3.4620   13.4150  -34.5340 C   0  0  0  0  0  0  0  0  0  0  0  0
   -3.5610   12.7580  -33.3060 C   0  0  0  0  0  0  0  0  0  0  0  0
   -4.1240   13.4120  -32.2070 C   0  0  0  0  0  0  0  0  0  0  0  0
   -4.5880   14.7250  -32.3350 C   0  0  0  0  0  0  0  0  0  0  0  0
   -4.1910   17.9240  -33.9350 C   0  0  0  0  0  0  0  0  0  0  0  0
   -2.9350   17.9480  -34.0240 O   0  0  0  0  0  0  0  0  0  0  0  0
  -10.3237   19.7022  -32.3715 H   0  0  0  0  0  0  0  0  0  0  0  0
   -9.3634   20.5390  -33.6381 H   0  0  0  0  0  0  0  0  0  0  0  0
   -9.4816   18.7466  -33.6381 H   0  0  0  0  0  0  0  0  0  0  0  0
   -8.2160   20.4254  -31.4346 H   0  0  0  0  0  0  0  0  0  0  0  0
   -8.1779   18.5992  -30.1751 H   0  0  0  0  0  0  0  0  0  0  0  0
   -9.0732   17.7044  -31.4496 H   0  0  0  0  0  0  0  0  0  0  0  0
   -7.2770   17.7101  -31.4496 H   0  0  0  0  0  0  0  0  0  0  0  0
   -4.0971   22.1085  -31.5276 H   0  0  0  0  0  0  0  0  0  0  0  0
   -4.4494   24.6161  -29.0573 H   0  0  0  0  0  0  0  0  0  0  0  0
   -3.2787   23.8005  -30.1558 H   0  0  0  0  0  0  0  0  0  0  0  0
   -4.2240   25.6220  -31.6440 H   0  0  0  0  0  0  0  0  0  0  0  0
   -6.7823   25.2517  -30.2245 H   0  0  0  0  0  0  0  0  0  0  0  0
   -8.6674   24.0600  -31.3523 H   0  0  0  0  0  0  0  0  0  0  0  0
   -3.8435   15.2425  -35.6365 H   0  0  0  0  0  0  0  0  0  0  0  0
   -3.0199   12.8985  -35.3987 H   0  0  0  0  0  0  0  0  0  0  0  0
   -3.1958   11.7255  -33.2037 H   0  0  0  0  0  0  0  0  0  0  0  0
   -4.2023   12.8935  -31.2401 H   0  0  0  0  0  0  0  0  0  0  0  0
   -5.0314   15.2354  -31.4673 H   0  0  0  0  0  0  0  0  0  0  0  0
  1  2  1  0
  2  3  1  0
  2  4  1  0
  4  5  1  0
  5  6  1  0
  6  7  2  0
  7  8  1  0
  8  9  1  0
  9 10  1  0
  8 11  2  0
 11 12  1  0
 12 13  2  0
  5 14  2  0
 14 15  1  0
 15 16  2  0
 16 17  1  0
 17 18  2  0
 17 19  1  0
 19 20  1  0
 20 21  2  0
 21 22  1  0
 22 23  2  0
 23 24  1  0
 24 25  2  0
 19 26  1  0
 26 27  2  0
 16  4  1  0
 25 20  1  0
 13  6  1  0
 26 15  1  0
  1 28  1  0
  1 29  1  0
  1 30  1  0
  2 31  1  0
  3 32  1  0
  3 33  1  0
  3 34  1  0
  7 35  1  0
  9 36  1  0
  9 37  1  0
 10 38  1  0
 11 39  1  0
 12 40  1  0
 21 41  1  0
 22 42  1  0
 23 43  1  0
 24 44  1  0
 25 45  1  0
M  END
>  <UniqueID>  (31) 
29

>  <SMILES>  (31) 
CC(C)n1c(-c2cc(CO)ccn2)nc2c1C(=O)N(c1ccccc1)C2=O

>  <Energy>  (31) 
138.20850462991646

>  <Genealogy>  (31) 
CC(C)n1c(-c2cc(CO)ccn2)nc2c1C(=O)N(c1ccccc1)C2=O (3D coordinates assigned)
CC(C)n1c(-c2cc(CO)ccn2)nc2c1C(=O)N(c1ccccc1)C2=O (nonaromatic ring conformer: 138.20850462991646 kcal/mol)

>  <smiles>  (31) 
CC(C)n1c(-c2cc(CO)ccn2)nc2c1C(=O)N(c1ccccc1)C2=O

>  <score_type>  (31) 
oracle

>  <origin>  (31) 
adgpu

>  <m_score__min__energy>  (31) 
-9.2300000000000004

>  <m_primary>  (31) 
energy

$$$$
31:0
     RDKit          3D

 37 39  0  0  0  0  0  0  0  0999 V2000
   -4.3590   21.1180  -33.1000 C   0  0  0  0  0  0  0  0  0  0  0  0
   -5.3090   20.4570  -32.2710 O   0  0  0  0  0  0  0  0  0  0  0  0
   -6.6620   20.8180  -32.1550 C   0  0  0  0  0  0  0  0  0  0  0  0
   -7.6870   19.9760  -32.6330 C   0  0  0  0  0  0  0  0  0  0  0  0
   -9.0260   20.3470  -32.5110 C   0  0  0  0  0  0  0  0  0  0  0  0
   -9.3640   21.5590  -31.9140 C   0  0  0  0  0  0  0  0  0  0  0  0
   -8.3640   22.4060  -31.4340 C   0  0  0  0  0  0  0  0  0  0  0  0
   -7.0060   22.0510  -31.5470 C   0  0  0  0  0  0  0  0  0  0  0  0
   -5.9720   22.9810  -31.0240 C   0  0  0  0  0  0  0  0  0  0  0  0
   -5.4620   24.0080  -31.7340 N   0  0  0  0  0  0  0  0  0  0  0  0
   -4.6010   24.5740  -30.9440 O   0  0  0  0  0  0  0  0  0  0  0  0
   -4.5700   23.9390  -29.7980 C   0  0  0  0  0  0  0  0  0  0  0  0
   -3.7020   24.3100  -28.6630 C   0  0  0  0  0  0  0  0  0  0  0  0
   -4.2500   24.5520  -27.3980 C   0  0  0  0  0  0  0  0  0  0  0  0
   -3.4280   24.9020  -26.3270 C   0  0  0  0  0  0  0  0  0  0  0  0
   -2.0350   25.0180  -26.4970 C   0  0  0  0  0  0  0  0  0  0  0  0
   -1.1970   25.3560  -25.4200 O   0  0  0  0  0  0  0  0  0  0  0  0
   -1.2970   26.5550  -24.6580 C   0  0  0  0  0  0  0  0  0  0  0  0
   -1.4690   24.7820  -27.7740 C   0  0  0  0  0  0  0  0  0  0  0  0
   -0.0490   24.8940  -28.0060 N   0  0  0  0  0  0  0  0  0  0  0  0
    0.6180   25.8260  -27.5130 O   0  0  0  0  0  0  0  0  0  0  0  0
    0.5970   23.9850  -28.8150 O   0  0  0  0  0  0  0  0  0  0  0  0
   -2.3150   24.4260  -28.8420 C   0  0  0  0  0  0  0  0  0  0  0  0
   -5.4310   22.9020  -29.7890 N   0  0  0  0  0  0  0  0  0  0  0  0
   -3.6186   21.6332  -32.4704 H   0  0  0  0  0  0  0  0  0  0  0  0
   -3.8492   20.3785  -33.7351 H   0  0  0  0  0  0  0  0  0  0  0  0
   -4.8751   21.8530  -33.7351 H   0  0  0  0  0  0  0  0  0  0  0  0
   -7.4282   19.0175  -33.1066 H   0  0  0  0  0  0  0  0  0  0  0  0
   -9.8166   19.6810  -32.8871 H   0  0  0  0  0  0  0  0  0  0  0  0
  -10.4209   21.8492  -31.8206 H   0  0  0  0  0  0  0  0  0  0  0  0
   -8.6395   23.3609  -30.9625 H   0  0  0  0  0  0  0  0  0  0  0  0
   -5.3362   24.4656  -27.2475 H   0  0  0  0  0  0  0  0  0  0  0  0
   -3.8728   25.0895  -25.3386 H   0  0  0  0  0  0  0  0  0  0  0  0
   -1.2766   26.3107  -23.5857 H   0  0  0  0  0  0  0  0  0  0  0  0
   -0.4508   27.2148  -24.8999 H   0  0  0  0  0  0  0  0  0  0  0  0
   -2.2408   27.0655  -24.8999 H   0  0  0  0  0  0  0  0  0  0  0  0
   -1.8808   24.2354  -29.8345 H   0  0  0  0  0  0  0  0  0  0  0  0
  1  2  1  0
  2  3  1  0
  3  4  2  0
  4  5  1  0
  5  6  2  0
  6  7  1  0
  7  8  2  0
  8  9  1  0
  9 10  2  0
 10 11  1  0
 11 12  1  0
 12 13  1  0
 13 14  2  0
 14 15  1  0
 15 16  2  0
 16 17  1  0
 17 18  1  0
 16 19  1  0
 19 20  1  0
 20 21  2  0
 20 22  1  0
 19 23  2  0
 12 24  2  0
  8  3  1  0
 24  9  1  0
 23 13  1  0
  1 25  1  0
  1 26  1  0
  1 27  1  0
  4 28  1  0
  5 29  1  0
  6 30  1  0
  7 31  1  0
 14 32  1  0
 15 33  1  0
 18 34  1  0
 18 35  1  0
 18 36  1  0
 23 37  1  0
M  CHG  2  20   1  22  -1
M  END
>  <UniqueID>  (32) 
30

>  <SMILES>  (32) 
COc1ccccc1-c1noc(-c2ccc(OC)c([N+](=O)[O-])c2)n1

>  <Energy>  (32) 
76.990346365923

>  <Genealogy>  (32) 
COc1ccccc1-c1noc(-c2ccc(OC)c([N+](=O)[O-])c2)n1 (3D coordinates assigned)
COc1ccccc1-c1noc(-c2ccc(OC)c([N+](=O)[O-])c2)n1 (optimized conformer: 76.990346365923 kcal/mol)

>  <smiles>  (32) 
COc1ccccc1-c1noc(-c2ccc(OC)c([N+](=O)[O-])c2)n1

>  <score_type>  (32) 
oracle

>  <origin>  (32) 
adgpu

>  <m_score__min__energy>  (32) 
-8.2400000000000002

>  <m_primary>  (32) 
energy

$$$$
32:0
     RDKit          3D

 50 52  0  0  0  0  0  0  0  0999 V2000
    0.2950   19.2860  -28.9310 C   0  0  0  0  0  0  0  0  0  0  0  0
    0.2060   19.6880  -30.3770 C   0  0  0  0  0  0  0  0  0  0  0  0
    0.9920   19.0160  -31.3290 C   0  0  0  0  0  0  0  0  0  0  0  0
    0.9390   19.3810  -32.6760 C   0  0  0  0  0  0  0  0  0  0  0  0
    0.1110   20.4260  -33.0880 C   0  0  0  0  0  0  0  0  0  0  0  0
   -0.6630   21.1150  -32.1500 C   0  0  0  0  0  0  0  0  0  0  0  0
   -0.6130   20.7620  -30.7940 C   0  0  0  0  0  0  0  0  0  0  0  0
   -1.4090   21.4980  -29.8560 N   0  0  0  0  0  0  0  0  0  0  0  0
   -2.6180   20.8970  -29.2910 C   0  0  0  0  0  0  0  0  0  0  0  0
   -3.8040   21.8860  -29.3400 C   0  0  0  0  0  0  0  0  0  0  0  0
   -3.3960   23.3170  -29.3700 N   0  0  0  0  0  0  0  0  0  0  0  0
   -4.4480   24.2030  -28.8210 C   0  0  0  0  0  0  0  0  0  0  0  0
   -4.9350   25.2300  -29.8730 C   0  0  1  0  0  0  0  0  0  0  0  0
   -3.8910   25.6670  -30.7080 O   0  0  0  0  0  0  0  0  0  0  0  0
   -6.1060   24.6820  -30.7100 C   0  0  0  0  0  0  0  0  0  0  0  0
   -5.6680   24.1850  -31.9780 O   0  0  0  0  0  0  0  0  0  0  0  0
   -5.4910   22.8350  -32.3260 C   0  0  0  0  0  0  0  0  0  0  0  0
   -4.2370   22.2880  -32.6730 C   0  0  0  0  0  0  0  0  0  0  0  0
   -4.1300   20.9360  -33.0120 C   0  0  0  0  0  0  0  0  0  0  0  0
   -5.2630   20.1200  -33.0140 C   0  0  0  0  0  0  0  0  0  0  0  0
   -6.5070   20.6550  -32.6750 C   0  0  0  0  0  0  0  0  0  0  0  0
   -6.6190   22.0060  -32.3350 C   0  0  0  0  0  0  0  0  0  0  0  0
   -2.1140   23.5370  -28.6730 C   0  0  0  0  0  0  0  0  0  0  0  0
   -0.9960   22.8440  -29.4530 C   0  0  0  0  0  0  0  0  0  0  0  0
    0.1011   20.1618  -28.2943 H   0  0  0  0  0  0  0  0  0  0  0  0
   -0.4524   18.5069  -28.7204 H   0  0  0  0  0  0  0  0  0  0  0  0
    1.3014   18.8952  -28.7204 H   0  0  0  0  0  0  0  0  0  0  0  0
    1.6536   18.1968  -31.0108 H   0  0  0  0  0  0  0  0  0  0  0  0
    1.5518   18.8431  -33.4144 H   0  0  0  0  0  0  0  0  0  0  0  0
    0.0675   20.7074  -34.1505 H   0  0  0  0  0  0  0  0  0  0  0  0
   -1.3147   21.9385  -32.4773 H   0  0  0  0  0  0  0  0  0  0  0  0
   -2.8760   19.9973  -29.8688 H   0  0  0  0  0  0  0  0  0  0  0  0
   -2.4217   20.6376  -28.2402 H   0  0  0  0  0  0  0  0  0  0  0  0
   -4.3935   21.6751  -30.2444 H   0  0  0  0  0  0  0  0  0  0  0  0
   -4.3810   21.7382  -28.4152 H   0  0  0  0  0  0  0  0  0  0  0  0
   -5.3018   23.5876  -28.5011 H   0  0  0  0  0  0  0  0  0  0  0  0
   -4.0223   24.7567  -27.9712 H   0  0  0  0  0  0  0  0  0  0  0  0
   -5.2998   26.1015  -29.3096 H   0  0  0  0  0  0  0  0  0  0  0  0
   -4.2350   25.6910  -31.6390 H   0  0  0  0  0  0  0  0  0  0  0  0
   -6.5881   23.8640  -30.1546 H   0  0  0  0  0  0  0  0  0  0  0  0
   -6.8107   25.5068  -30.8918 H   0  0  0  0  0  0  0  0  0  0  0  0
   -3.3417   22.9271  -32.6767 H   0  0  0  0  0  0  0  0  0  0  0  0
   -3.1498   20.5136  -33.2781 H   0  0  0  0  0  0  0  0  0  0  0  0
   -5.1754   19.0568  -33.2824 H   0  0  0  0  0  0  0  0  0  0  0  0
   -7.4000   20.0127  -32.6755 H   0  0  0  0  0  0  0  0  0  0  0  0
   -7.6028   22.4218  -32.0720 H   0  0  0  0  0  0  0  0  0  0  0  0
   -1.9075   24.6158  -28.6131 H   0  0  0  0  0  0  0  0  0  0  0  0
   -2.1689   23.1221  -27.6557 H   0  0  0  0  0  0  0  0  0  0  0  0
   -0.7614   23.4346  -30.3509 H   0  0  0  0  0  0  0  0  0  0  0  0
   -0.1085   22.7653  -28.8079 H   0  0  0  0  0  0  0  0  0  0  0  0
  1  2  1  0
  2  3  2  0
  3  4  1  0
  4  5  2  0
  5  6  1  0
  6  7  2  0
  7  8  1  0
  8  9  1  0
  9 10  1  0
 10 11  1  0
 11 12  1  0
 12 13  1  0
 13 14  1  0
 13 15  1  0
 15 16  1  0
 16 17  1  0
 17 18  2  0
 18 19  1  0
 19 20  2  0
 20 21  1  0
 21 22  2  0
 11 23  1  0
 23 24  1  0
  7  2  1  0
 24  8  1  0
 22 17  1  0
  1 25  1  0
  1 26  1  0
  1 27  1  0
  3 28  1  0
  4 29  1  0
  5 30  1  0
  6 31  1  0
  9 32  1  0
  9 33  1  0
 10 34  1  0
 10 35  1  0
 12 36  1  0
 12 37  1  0
 13 38  1  1
 14 39  1  0
 15 40  1  0
 15 41  1  0
 18 42  1  0
 19 43  1  0
 20 44  1  0
 21 45  1  0
 22 46  1  0
 23 47  1  0
 23 48  1  0
 24 49  1  0
 24 50  1  0
M  END
>  <UniqueID>  (33) 
31

>  <SMILES>  (33) 
Cc1ccccc1N1CCN(C[C@@H](O)COc2ccccc2)CC1

>  <Energy>  (33) 
64.18801256959426

>  <Genealogy>  (33) 
Cc1ccccc1N1CCN(C[C@@H](O)COc2ccccc2)CC1 (chirality)
Cc1ccccc1N1CCN(C[C@@H](O)COc2ccccc2)CC1 (3D coordinates assigned)
Cc1ccccc1N1CCN(C[C@@H](O)COc2ccccc2)CC1 (nonaromatic ring conformer: 64.18801256959426 kcal/mol)

>  <smiles>  (33) 
Cc1ccccc1N1CCN(CC(O)COc2ccccc2)CC1

>  <score_type>  (33) 
oracle

>  <origin>  (33) 
adgpu

>  <m_score__min__energy>  (33) 
-9.1300000000000008

>  <m_primary>  (33) 
energy

$$$$
33:0
     RDKit          3D

 52 54  0  0  0  0  0  0  0  0999 V2000
   -6.8480   16.9780  -33.2860 C   0  0  0  0  0  0  0  0  0  0  0  0
   -6.9420   18.0690  -32.3080 N   0  0  0  0  0  0  0  0  0  0  0  0
   -8.3490   18.3480  -31.9960 C   0  0  0  0  0  0  0  0  0  0  0  0
   -6.1800   19.5050  -32.9470 S   0  0  0  0  0  0  0  0  0  0  0  0
   -4.6860   19.3710  -32.8290 O   0  0  0  0  0  0  0  0  0  0  0  0
   -6.5190   19.6440  -34.4050 O   0  0  0  0  0  0  0  0  0  0  0  0
   -6.7010   20.9560  -32.0880 C   0  0  0  0  0  0  0  0  0  0  0  0
   -7.9670   21.5020  -32.3330 C   0  0  0  0  0  0  0  0  0  0  0  0
   -8.3890   22.6350  -31.6320 C   0  0  0  0  0  0  0  0  0  0  0  0
   -7.5480   23.2320  -30.6910 C   0  0  0  0  0  0  0  0  0  0  0  0
   -6.2680   22.7130  -30.4530 C   0  0  0  0  0  0  0  0  0  0  0  0
   -5.4310   23.3290  -29.4580 N   0  0  0  0  0  0  0  0  0  0  0  0
   -4.1540   23.9290  -29.7470 C   0  0  0  0  0  0  0  0  0  0  0  0
   -3.7630   24.0330  -30.9410 O   0  0  0  0  0  0  0  0  0  0  0  0
   -3.2820   24.4410  -28.6620 C   0  0  0  0  0  0  0  0  0  0  0  0
   -1.9730   24.8600  -28.9600 C   0  0  0  0  0  0  0  0  0  0  0  0
   -1.1370   25.3500  -27.9530 C   0  0  0  0  0  0  0  0  0  0  0  0
   -1.5970   25.4450  -26.6340 C   0  0  0  0  0  0  0  0  0  0  0  0
   -0.5360   26.0580  -25.3610 S   0  0  0  0  0  0  0  0  0  0  0  0
   -1.2420   25.9420  -24.0380 O   0  0  0  0  0  0  0  0  0  0  0  0
    0.7010   25.2050  -25.3030 O   0  0  0  0  0  0  0  0  0  0  0  0
   -0.0660   27.7230  -25.6110 N   0  0  0  0  0  0  0  0  0  0  0  0
   -0.8850   28.6480  -24.8310 C   0  0  0  0  0  0  0  0  0  0  0  0
   -0.8390   29.9810  -25.5620 C   0  0  0  0  0  0  0  0  0  0  0  0
   -0.4090   29.6460  -26.9830 C   0  0  0  0  0  0  0  0  0  0  0  0
   -0.2260   28.1360  -27.0030 C   0  0  0  0  0  0  0  0  0  0  0  0
   -2.9010   25.0320  -26.3310 C   0  0  0  0  0  0  0  0  0  0  0  0
   -3.7390   24.5400  -27.3350 C   0  0  0  0  0  0  0  0  0  0  0  0
   -5.8570   21.5570  -31.1430 C   0  0  0  0  0  0  0  0  0  0  0  0
   -6.7652   16.0173  -32.7567 H   0  0  0  0  0  0  0  0  0  0  0  0
   -7.7490   16.9726  -33.9170 H   0  0  0  0  0  0  0  0  0  0  0  0
   -5.9593   17.1268  -33.9170 H   0  0  0  0  0  0  0  0  0  0  0  0
   -8.4842   18.3748  -30.9047 H   0  0  0  0  0  0  0  0  0  0  0  0
   -8.6339   19.3201  -32.4248 H   0  0  0  0  0  0  0  0  0  0  0  0
   -8.9833   17.5581  -32.4248 H   0  0  0  0  0  0  0  0  0  0  0  0
   -8.6302   21.0385  -33.0782 H   0  0  0  0  0  0  0  0  0  0  0  0
   -9.3866   23.0576  -31.8222 H   0  0  0  0  0  0  0  0  0  0  0  0
   -7.8921   24.1152  -30.1329 H   0  0  0  0  0  0  0  0  0  0  0  0
   -5.8100   23.3730  -28.4870 H   0  0  0  0  0  0  0  0  0  0  0  0
   -1.6040   24.8015  -29.9946 H   0  0  0  0  0  0  0  0  0  0  0  0
   -0.1113   25.6630  -28.1981 H   0  0  0  0  0  0  0  0  0  0  0  0
   -1.9206   28.2821  -24.7713 H   0  0  0  0  0  0  0  0  0  0  0  0
   -0.5091   28.7438  -23.8017 H   0  0  0  0  0  0  0  0  0  0  0  0
   -1.8317   30.4550  -25.5616 H   0  0  0  0  0  0  0  0  0  0  0  0
   -0.1479   30.6886  -25.0808 H   0  0  0  0  0  0  0  0  0  0  0  0
   -1.1845   29.9494  -27.7016 H   0  0  0  0  0  0  0  0  0  0  0  0
    0.5132   30.1741  -27.2671 H   0  0  0  0  0  0  0  0  0  0  0  0
   -1.1091   27.6513  -27.4448 H   0  0  0  0  0  0  0  0  0  0  0  0
    0.6461   27.8473  -27.6080 H   0  0  0  0  0  0  0  0  0  0  0  0
   -3.2676   25.0955  -25.2958 H   0  0  0  0  0  0  0  0  0  0  0  0
   -4.7639   24.2277  -27.0860 H   0  0  0  0  0  0  0  0  0  0  0  0
   -4.8673   21.1222  -30.9396 H   0  0  0  0  0  0  0  0  0  0  0  0
  1  2  1  0
  2  3  1  0
  2  4  1  0
  4  5  2  0
  4  6  2  0
  4  7  1  0
  7  8  2  0
  8  9  1  0
  9 10  2  0
 10 11  1  0
 11 12  1  0
 12 13  1  0
 13 14  2  0
 13 15  1  0
 15 16  2  0
 16 17  1  0
 17 18  2  0
 18 19  1  0
 19 20  2  0
 19 21  2  0
 19 22  1  0
 22 23  1  0
 23 24  1  0
 24 25  1  0
 25 26  1  0
 18 27  1  0
 27 28  2  0
 11 29  2  0
 29  7  1  0
 28 15  1  0
 26 22  1  0
  1 30  1  0
  1 31  1  0
  1 32  1  0
  3 33  1  0
  3 34  1  0
  3 35  1  0
  8 36  1  0
  9 37  1  0
 10 38  1  0
 12 39  1  0
 16 40  1  0
 17 41  1  0
 23 42  1  0
 23 43  1  0
 24 44  1  0
 24 45  1  0
 25 46  1  0
 25 47  1  0
 26 48  1  0
 26 49  1  0
 27 50  1  0
 28 51  1  0
 29 52  1  0
M  END
>  <UniqueID>  (34) 
32

>  <SMILES>  (34) 
CN(C)S(=O)(=O)c1cccc(NC(=O)c2ccc(S(=O)(=O)N3CCCC3)cc2)c1

>  <Energy>  (34) 
58.26244615759404

>  <Genealogy>  (34) 
CN(C)S(=O)(=O)c1cccc(NC(=O)c2ccc(S(=O)(=O)N3CCCC3)cc2)c1 (3D coordinates assigned)
CN(C)S(=O)(=O)c1cccc(NC(=O)c2ccc(S(=O)(=O)N3CCCC3)cc2)c1 (nonaromatic ring conformer: 58.26244615759404 kcal/mol)

>  <smiles>  (34) 
CN(C)S(=O)(=O)c1cccc(NC(=O)c2ccc(S(=O)(=O)N3CCCC3)cc2)c1

>  <score_type>  (34) 
oracle

>  <origin>  (34) 
adgpu

>  <m_score__min__energy>  (34) 
-9.8000000000000007

>  <m_primary>  (34) 
energy

$$$$
34:0
     RDKit          3D

 49 52  0  0  0  0  0  0  0  0999 V2000
   -7.8681   16.8346  -32.4812 H   0  0  0  0  0  0  0  0  0  0  0  0
   -7.8540   17.9300  -32.3820 C   0  0  0  0  0  0  0  0  0  0  0  0
   -8.7750   18.5680  -31.5460 C   0  0  0  0  0  0  0  0  0  0  0  0
   -9.5090   17.9736  -30.9820 H   0  0  0  0  0  0  0  0  0  0  0  0
   -8.7640   19.9620  -31.4260 C   0  0  0  0  0  0  0  0  0  0  0  0
   -9.4840   20.4596  -30.7596 H   0  0  0  0  0  0  0  0  0  0  0  0
   -7.8410   20.7270  -32.1500 C   0  0  0  0  0  0  0  0  0  0  0  0
   -7.8490   22.1200  -31.9980 O   0  0  0  0  0  0  0  0  0  0  0  0
   -6.7690   22.8830  -31.5330 C   0  0  0  0  0  0  0  0  0  0  0  0
   -5.4370   22.4980  -31.7670 C   0  0  0  0  0  0  0  0  0  0  0  0
   -5.2239   21.5730  -32.3229 H   0  0  0  0  0  0  0  0  0  0  0  0
   -4.3820   23.2860  -31.2960 C   0  0  0  0  0  0  0  0  0  0  0  0
   -3.3428   22.9849  -31.4947 H   0  0  0  0  0  0  0  0  0  0  0  0
   -4.6420   24.4560  -30.5730 C   0  0  0  0  0  0  0  0  0  0  0  0
   -3.5350   25.2420  -30.0980 N   0  0  0  0  0  0  0  0  0  0  0  0
   -2.5690   24.8100  -29.3430 C   0  0  0  0  0  0  0  0  0  0  0  0
   -2.4810   23.4960  -29.0010 N   0  0  0  0  0  0  0  0  0  0  0  0
   -1.4520   23.0230  -28.2510 C   0  0  0  0  0  0  0  0  0  0  0  0
   -1.3700   21.5530  -27.9690 C   0  0  0  0  0  0  0  0  0  0  0  0
   -1.4226   21.3938  -26.8819 H   0  0  0  0  0  0  0  0  0  0  0  0
   -0.4192   21.1757  -28.3736 H   0  0  0  0  0  0  0  0  0  0  0  0
   -2.7390   20.6410  -28.7710 S   0  0  0  0  0  0  0  0  0  0  0  0
   -2.0690   20.7270  -30.4370 C   0  0  0  0  0  0  0  0  0  0  0  0
   -0.7270   21.0690  -30.6460 C   0  0  0  0  0  0  0  0  0  0  0  0
   -0.0743   21.2814  -29.7864 H   0  0  0  0  0  0  0  0  0  0  0  0
   -0.2150   21.1410  -31.9460 C   0  0  0  0  0  0  0  0  0  0  0  0
    0.8442   21.3919  -32.1047 H   0  0  0  0  0  0  0  0  0  0  0  0
   -1.0490   20.8940  -33.0500 C   0  0  0  0  0  0  0  0  0  0  0  0
   -0.5080   20.9740  -34.4470 C   0  0  0  0  0  0  0  0  0  0  0  0
    0.5796   21.1348  -34.4104 H   0  0  0  0  0  0  0  0  0  0  0  0
   -0.7221   20.0344  -34.9775 H   0  0  0  0  0  0  0  0  0  0  0  0
   -0.9848   21.8114  -34.9775 H   0  0  0  0  0  0  0  0  0  0  0  0
   -2.3870   20.5280  -32.8330 C   0  0  0  0  0  0  0  0  0  0  0  0
   -3.0378   20.2978  -33.6894 H   0  0  0  0  0  0  0  0  0  0  0  0
   -2.8950   20.4550  -31.5340 C   0  0  0  0  0  0  0  0  0  0  0  0
   -3.9484   20.1827  -31.3723 H   0  0  0  0  0  0  0  0  0  0  0  0
   -0.4490   23.9010  -27.8290 C   0  0  0  0  0  0  0  0  0  0  0  0
    0.3987   23.5404  -27.2278 H   0  0  0  0  0  0  0  0  0  0  0  0
   -0.5490   25.2470  -28.1890 C   0  0  0  0  0  0  0  0  0  0  0  0
    0.3350   26.0650  -27.8260 O   0  0  0  0  0  0  0  0  0  0  0  0
   -1.6000   25.6720  -28.9390 N   0  0  0  0  0  0  0  0  0  0  0  0
   -5.9740   24.8650  -30.3810 C   0  0  0  0  0  0  0  0  0  0  0  0
   -6.1871   25.8053  -29.8515 H   0  0  0  0  0  0  0  0  0  0  0  0
   -7.0280   24.0820  -30.8600 C   0  0  0  0  0  0  0  0  0  0  0  0
   -8.0667   24.4102  -30.7071 H   0  0  0  0  0  0  0  0  0  0  0  0
   -6.9030   20.0770  -32.9730 C   0  0  0  0  0  0  0  0  0  0  0  0
   -6.1570   20.6674  -33.5252 H   0  0  0  0  0  0  0  0  0  0  0  0
   -6.9150   18.6840  -33.0920 C   0  0  0  0  0  0  0  0  0  0  0  0
   -6.1857   18.1814  -33.7442 H   0  0  0  0  0  0  0  0  0  0  0  0
  1  2  1  0
  2  3  2  0
  3  4  1  0
  3  5  1  0
  5  6  1  0
  5  7  2  0
  7  8  1  0
  8  9  1  0
  9 10  2  0
 10 11  1  0
 10 12  1  0
 12 13  1  0
 12 14  2  0
 14 15  1  0
 15 16  2  0
 16 17  1  0
 17 18  1  0
 18 19  1  0
 19 20  1  0
 19 21  1  0
 19 22  1  0
 22 23  1  0
 23 24  2  0
 24 25  1  0
 24 26  1  0
 26 27  1  0
 26 28  2  0
 28 29  1  0
 29 30  1  0
 29 31  1  0
 29 32  1  0
 28 33  1  0
 33 34  1  0
 33 35  2  0
 35 36  1  0
 18 37  2  0
 37 38  1  0
 37 39  1  0
 39 40  2  0
 39 41  1  0
 14 42  1  0
 42 43  1  0
 42 44  2  0
 44 45  1  0
  7 46  1  0
 46 47  1  0
 46 48  2  0
 48 49  1  0
 48  2  1  0
 44  9  1  0
 41 16  1  0
 35 23  1  0
M  CHG  2  17  -1  41  -1
M  END
>  <UniqueID>  (35) 
33

>  <SMILES>  (35) 
Cc1ccc(SCc2cc(=O)[n-]/c(=N/c3ccc(Oc4ccccc4)cc3)[n-]2)cc1

>  <Energy>  (35) 
57.128749588641874

>  <Genealogy>  (35) 
Cc1ccc(SCc2cc(=O)[n-]c(=Nc3ccc(Oc4ccccc4)cc3)[n-]2)cc1 (protonated)
Cc1ccc(SCc2cc(=O)[n-]/c(=N/c3ccc(Oc4ccccc4)cc3)[n-]2)cc1 (cis-trans isomerization)
Cc1ccc(SCc2cc(=O)[n-]/c(=N/c3ccc(Oc4ccccc4)cc3)[n-]2)cc1 (3D coordinates assigned)
Cc1ccc(SCc2cc(=O)[n-]/c(=N/c3ccc(Oc4ccccc4)cc3)[n-]2)cc1 (optimized conformer: 57.128749588641874 kcal/mol)

>  <smiles>  (35) 
Cc1ccc(SCc2cc(=O)[nH]c(=Nc3ccc(Oc4ccccc4)cc3)[nH]2)cc1

>  <score_type>  (35) 
oracle

>  <origin>  (35) 
adgpu

>  <m_score__min__energy>  (35) 
-12.65

>  <m_primary>  (35) 
energy

$$$$
35:0
     RDKit          3D

 35 36  0  0  0  0  0  0  0  0999 V2000
   -9.1100   18.6020  -31.6370 C   0  0  0  0  0  0  0  0  0  0  0  0
   -8.7300   19.6980  -31.3100 C   0  0  0  0  0  0  0  0  0  0  0  0
   -8.2640   21.0330  -30.9140 C   0  0  0  0  0  0  0  0  0  0  0  0
   -8.1480   21.9130  -32.0950 N   0  0  0  0  0  0  0  0  0  0  0  0
   -9.0670   23.0600  -31.9750 C   0  0  0  0  0  0  0  0  0  0  0  0
   -6.7380   22.2970  -32.4050 C   0  0  0  0  0  0  0  0  0  0  0  0
   -6.0840   23.0680  -31.2590 C   0  0  0  0  0  0  0  0  0  0  0  0
   -5.5260   22.4090  -30.1420 C   0  0  0  0  0  0  0  0  0  0  0  0
   -4.9850   23.1410  -29.0800 C   0  0  0  0  0  0  0  0  0  0  0  0
   -5.0180   24.5350  -29.1010 C   0  0  0  0  0  0  0  0  0  0  0  0
   -5.6050   25.2040  -30.1760 C   0  0  0  0  0  0  0  0  0  0  0  0
   -6.1480   24.4780  -31.2400 C   0  0  0  0  0  0  0  0  0  0  0  0
   -5.8910   21.1150  -32.8870 C   0  0  0  0  0  0  0  0  0  0  0  0
   -6.4810   19.9770  -33.4760 C   0  0  0  0  0  0  0  0  0  0  0  0
   -5.6860   18.9140  -33.9130 C   0  0  0  0  0  0  0  0  0  0  0  0
   -4.2980   18.9690  -33.7680 C   0  0  0  0  0  0  0  0  0  0  0  0
   -3.7030   20.0870  -33.1820 C   0  0  0  0  0  0  0  0  0  0  0  0
   -4.4920   21.1540  -32.7420 C   0  0  0  0  0  0  0  0  0  0  0  0
   -9.4568   17.6017  -31.9355 H   0  0  0  0  0  0  0  0  0  0  0  0
   -8.9820   21.4714  -30.2053 H   0  0  0  0  0  0  0  0  0  0  0  0
   -7.2746   20.9387  -30.4426 H   0  0  0  0  0  0  0  0  0  0  0  0
   -9.2427   23.2793  -30.9115 H   0  0  0  0  0  0  0  0  0  0  0  0
   -8.6210   23.9397  -32.4620 H   0  0  0  0  0  0  0  0  0  0  0  0
  -10.0228   22.8165  -32.4620 H   0  0  0  0  0  0  0  0  0  0  0  0
   -6.7870   22.9914  -33.2567 H   0  0  0  0  0  0  0  0  0  0  0  0
   -5.5166   21.3096  -30.1066 H   0  0  0  0  0  0  0  0  0  0  0  0
   -4.5323   22.6158  -28.2260 H   0  0  0  0  0  0  0  0  0  0  0  0
   -4.5811   25.1077  -28.2697 H   0  0  0  0  0  0  0  0  0  0  0  0
   -5.6404   26.3034  -30.1860 H   0  0  0  0  0  0  0  0  0  0  0  0
   -6.6307   25.0116  -32.0720 H   0  0  0  0  0  0  0  0  0  0  0  0
   -7.5737   19.9260  -33.5920 H   0  0  0  0  0  0  0  0  0  0  0  0
   -6.1548   18.0314  -34.3725 H   0  0  0  0  0  0  0  0  0  0  0  0
   -3.6745   18.1320  -34.1153 H   0  0  0  0  0  0  0  0  0  0  0  0
   -2.6099   20.1289  -33.0659 H   0  0  0  0  0  0  0  0  0  0  0  0
   -4.0155   22.0306  -32.2789 H   0  0  0  0  0  0  0  0  0  0  0  0
  1  2  3  0
  2  3  1  0
  3  4  1  0
  4  5  1  0
  4  6  1  0
  6  7  1  0
  7  8  2  0
  8  9  1  0
  9 10  2  0
 10 11  1  0
 11 12  2  0
  6 13  1  0
 13 14  2  0
 14 15  1  0
 15 16  2  0
 16 17  1  0
 17 18  2  0
 12  7  1  0
 18 13  1  0
  1 19  1  0
  3 20  1  0
  3 21  1  0
  5 22  1  0
  5 23  1  0
  5 24  1  0
  6 25  1  0
  8 26  1  0
  9 27  1  0
 10 28  1  0
 11 29  1  0
 12 30  1  0
 14 31  1  0
 15 32  1  0
 16 33  1  0
 17 34  1  0
 18 35  1  0
M  END
>  <UniqueID>  (36) 
34

>  <SMILES>  (36) 
C#CCN(C)C(c1ccccc1)c1ccccc1

>  <Energy>  (36) 
43.16395276049945

>  <Genealogy>  (36) 
C#CCN(C)C(c1ccccc1)c1ccccc1 (3D coordinates assigned)
C#CCN(C)C(c1ccccc1)c1ccccc1 (optimized conformer: 43.16395276049945 kcal/mol)

>  <smiles>  (36) 
C#CCN(C)C(c1ccccc1)c1ccccc1

>  <score_type>  (36) 
oracle

>  <origin>  (36) 
adgpu

>  <m_score__min__energy>  (36) 
-6.8799999999999999

>  <m_primary>  (36) 
energy

$$$$
36:0
     RDKit          3D

 61 64  0  0  0  0  0  0  0  0999 V2000
  -10.0544   22.8326  -31.9624 H   0  0  0  0  0  0  0  0  0  0  0  0
   -9.1030   22.2810  -31.9850 C   0  0  0  0  0  0  0  0  0  0  0  0
   -9.0930   20.9600  -32.3010 N   0  0  0  0  0  0  0  0  0  0  0  0
   -7.9410   20.2370  -32.3380 C   0  0  0  0  0  0  0  0  0  0  0  0
   -8.0030   18.8360  -32.6550 N   0  0  0  0  0  0  0  0  0  0  0  0
   -8.8900   18.3300  -32.4380 H   0  0  0  0  0  0  0  0  0  0  0  0
   -6.9220   18.0910  -33.2430 C   0  0  0  0  0  0  0  0  0  0  0  0
   -6.0980   18.6580  -34.2260 C   0  0  0  0  0  0  0  0  0  0  0  0
   -6.2751   19.6916  -34.5580 H   0  0  0  0  0  0  0  0  0  0  0  0
   -5.0560   17.9200  -34.7850 C   0  0  0  0  0  0  0  0  0  0  0  0
   -4.4047   18.3830  -35.5410 H   0  0  0  0  0  0  0  0  0  0  0  0
   -4.8300   16.5910  -34.3920 C   0  0  0  0  0  0  0  0  0  0  0  0
   -3.7450   15.8530  -34.9840 N   0  0  0  0  0  0  0  0  0  0  0  0
   -3.7420   14.5600  -35.3710 C   0  0  0  0  0  0  0  0  0  0  0  0
   -4.5992   13.8828  -35.2419 H   0  0  0  0  0  0  0  0  0  0  0  0
   -2.5720   14.1880  -35.9340 N   0  0  0  0  0  0  0  0  0  0  0  0
   -1.8150   15.3020  -35.8810 C   0  0  0  0  0  0  0  0  0  0  0  0
   -0.4380   15.4060  -36.4480 C   0  0  0  0  0  0  0  0  0  0  0  0
    0.2930   15.4612  -35.6279 H   0  0  0  0  0  0  0  0  0  0  0  0
   -0.2285   14.5211  -37.0670 H   0  0  0  0  0  0  0  0  0  0  0  0
   -0.3638   16.3123  -37.0670 H   0  0  0  0  0  0  0  0  0  0  0  0
   -2.5320   16.3330  -35.3180 C   0  0  0  0  0  0  0  0  0  0  0  0
   -2.1780   17.3636  -35.1679 H   0  0  0  0  0  0  0  0  0  0  0  0
   -5.6620   16.0050  -33.4140 C   0  0  0  0  0  0  0  0  0  0  0  0
   -5.4050   14.6870  -33.0010 O   0  0  0  0  0  0  0  0  0  0  0  0
   -4.5020   14.3240  -31.9630 C   0  0  0  0  0  0  0  0  0  0  0  0
   -4.9713   14.5126  -30.9862 H   0  0  0  0  0  0  0  0  0  0  0  0
   -4.2533   13.2560  -32.0502 H   0  0  0  0  0  0  0  0  0  0  0  0
   -3.5833   14.9227  -32.0502 H   0  0  0  0  0  0  0  0  0  0  0  0
   -6.7140   16.7600  -32.8580 C   0  0  0  0  0  0  0  0  0  0  0  0
   -7.3795   16.2991  -32.1132 H   0  0  0  0  0  0  0  0  0  0  0  0
   -6.7270   20.8570  -32.0020 C   0  0  0  0  0  0  0  0  0  0  0  0
   -5.7985   20.2682  -31.9661 H   0  0  0  0  0  0  0  0  0  0  0  0
   -6.7010   22.2350  -31.7110 C   0  0  0  0  0  0  0  0  0  0  0  0
   -5.6010   22.8740  -31.4210 N   0  0  0  0  0  0  0  0  0  0  0  0
   -4.2560   22.3670  -31.4660 C   0  0  0  0  0  0  0  0  0  0  0  0
   -3.9510   21.2290  -32.2370 C   0  0  0  0  0  0  0  0  0  0  0  0
   -4.7555   20.6955  -32.7645 H   0  0  0  0  0  0  0  0  0  0  0  0
   -2.6370   20.7730  -32.3370 C   0  0  0  0  0  0  0  0  0  0  0  0
   -2.4123   19.8678  -32.9202 H   0  0  0  0  0  0  0  0  0  0  0  0
   -1.6070   21.4640  -31.6980 C   0  0  0  0  0  0  0  0  0  0  0  0
   -0.5716   21.1005  -31.7743 H   0  0  0  0  0  0  0  0  0  0  0  0
   -1.8890   22.6160  -30.9620 C   0  0  0  0  0  0  0  0  0  0  0  0
   -1.0711   23.1643  -30.4716 H   0  0  0  0  0  0  0  0  0  0  0  0
   -3.2080   23.0800  -30.8430 C   0  0  0  0  0  0  0  0  0  0  0  0
   -3.5080   24.5610  -29.9130 S   0  0  0  0  0  0  0  0  0  0  0  0
   -4.3570   24.2120  -28.7230 O   0  0  0  0  0  0  0  0  0  0  0  0
   -4.2670   25.5630  -30.7390 O   0  0  0  0  0  0  0  0  0  0  0  0
   -2.0200   25.2640  -29.3410 N   0  0  0  0  0  0  0  0  0  0  0  0
   -1.6340   24.7580  -28.0180 C   0  0  0  0  0  0  0  0  0  0  0  0
   -2.4850   24.2326  -27.5600 H   0  0  0  0  0  0  0  0  0  0  0  0
   -0.4740   23.7640  -28.1420 C   0  0  0  0  0  0  0  0  0  0  0  0
   -0.1328   23.4716  -27.1380 H   0  0  0  0  0  0  0  0  0  0  0  0
   -0.8127   22.8715  -28.6885 H   0  0  0  0  0  0  0  0  0  0  0  0
    0.3561   24.2355  -28.6885 H   0  0  0  0  0  0  0  0  0  0  0  0
   -1.2220   25.9430  -27.1450 C   0  0  0  0  0  0  0  0  0  0  0  0
   -1.3177   25.6678  -26.0843 H   0  0  0  0  0  0  0  0  0  0  0  0
   -0.1776   26.2121  -27.3612 H   0  0  0  0  0  0  0  0  0  0  0  0
   -1.8742   26.8020  -27.3612 H   0  0  0  0  0  0  0  0  0  0  0  0
   -7.9090   22.9400  -31.6890 C   0  0  0  0  0  0  0  0  0  0  0  0
   -7.9178   24.0112  -31.4390 H   0  0  0  0  0  0  0  0  0  0  0  0
  1  2  1  0
  2  3  1  0
  3  4  1  0
  4  5  1  0
  5  6  1  0
  5  7  1  0
  7  8  2  0
  8  9  1  0
  8 10  1  0
 10 11  1  0
 10 12  2  0
 12 13  1  0
 13 14  1  0
 14 15  1  0
 14 16  2  0
 16 17  1  0
 17 18  1  0
 18 19  1  0
 18 20  1  0
 18 21  1  0
 17 22  2  0
 22 23  1  0
 12 24  1  0
 24 25  1  0
 25 26  1  0
 26 27  1  0
 26 28  1  0
 26 29  1  0
 24 30  2  0
 30 31  1  0
  4 32  2  0
 32 33  1  0
 32 34  1  0
 34 35  2  0
 35 36  1  0
 36 37  2  0
 37 38  1  0
 37 39  1  0
 39 40  1  0
 39 41  2  0
 41 42  1  0
 41 43  1  0
 43 44  1  0
 43 45  2  0
 45 46  1  0
 46 47  2  0
 46 48  2  0
 46 49  1  0
 49 50  1  0
 50 51  1  0
 50 52  1  0
 52 53  1  0
 52 54  1  0
 52 55  1  0
 50 56  1  0
 56 57  1  0
 56 58  1  0
 56 59  1  0
 34 60  1  0
 60 61  1  0
 60  2  2  0
 30  7  1  0
 45 36  1  0
 22 13  1  0
M  CHG  2   3  -1  49  -1
M  END
>  <UniqueID>  (37) 
35

>  <SMILES>  (37) 
COc1cc(Nc2c/c(=N\c3ccccc3S(=O)(=O)[N-]C(C)C)cc[n-]2)ccc1-n1cnc(C)c1

>  <Energy>  (37) 
107.76332597043135

>  <Genealogy>  (37) 
COc1cc(Nc2cc(=Nc3ccccc3S(=O)(=O)[N-]C(C)C)cc[n-]2)ccc1-n1cnc(C)c1 (protonated)
COc1cc(Nc2c/c(=N\c3ccccc3S(=O)(=O)[N-]C(C)C)cc[n-]2)ccc1-n1cnc(C)c1 (cis-trans isomerization)
COc1cc(Nc2c/c(=N\c3ccccc3S(=O)(=O)[N-]C(C)C)cc[n-]2)ccc1-n1cnc(C)c1 (3D coordinates assigned)
COc1cc(Nc2c/c(=N\c3ccccc3S(=O)(=O)[N-]C(C)C)cc[n-]2)ccc1-n1cnc(C)c1 (optimized conformer: 107.76332597043135 kcal/mol)

>  <smiles>  (37) 
COc1cc(Nc2cc(=Nc3ccccc3S(=O)(=O)NC(C)C)cc[nH]2)ccc1-n1cnc(C)c1

>  <score_type>  (37) 
oracle

>  <origin>  (37) 
adgpu

>  <m_score__min__energy>  (37) 
-11.07

>  <m_primary>  (37) 
energy

$$$$
37:0
     RDKit          3D

 33 35  0  0  0  0  0  0  0  0999 V2000
   -3.1300   20.7270  -33.0220 N   0  0  0  0  0  0  0  0  0  0  0  0
   -4.2190   20.8030  -32.6370 C   0  0  0  0  0  0  0  0  0  0  0  0
   -5.5760   20.8930  -32.1580 C   0  0  0  0  0  0  0  0  0  0  0  0
   -6.5090   19.8340  -32.2520 C   0  0  0  0  0  0  0  0  0  0  0  0
   -6.2320   18.5110  -32.8590 C   0  0  0  0  0  0  0  0  0  0  0  0
   -6.1190   18.3880  -34.2560 C   0  0  0  0  0  0  0  0  0  0  0  0
   -5.8450   17.1460  -34.8350 C   0  0  0  0  0  0  0  0  0  0  0  0
   -5.6730   16.0180  -34.0280 C   0  0  0  0  0  0  0  0  0  0  0  0
   -5.4060   14.8140  -34.5920 F   0  0  0  0  0  0  0  0  0  0  0  0
   -5.7690   16.1330  -32.6380 C   0  0  0  0  0  0  0  0  0  0  0  0
   -6.0430   17.3740  -32.0540 C   0  0  0  0  0  0  0  0  0  0  0  0
   -7.7540   20.1500  -31.7070 C   0  0  0  0  0  0  0  0  0  0  0  0
   -7.7090   21.7290  -31.1360 S   0  0  0  0  0  0  0  0  0  0  0  0
   -6.1080   22.0340  -31.5500 C   0  0  0  0  0  0  0  0  0  0  0  0
   -5.4260   23.2740  -31.2790 N   0  0  0  0  0  0  0  0  0  0  0  0
   -4.0050   23.3000  -30.9250 C   0  0  0  0  0  0  0  0  0  0  0  0
   -3.7340   24.4580  -29.9600 C   0  0  0  0  0  0  0  0  0  0  0  0
   -4.2380   25.6740  -30.4800 O   0  0  0  0  0  0  0  0  0  0  0  0
   -5.6480   25.6080  -30.5660 C   0  0  0  0  0  0  0  0  0  0  0  0
   -6.0830   24.5480  -31.5810 C   0  0  0  0  0  0  0  0  0  0  0  0
   -6.2470   19.2738  -34.8956 H   0  0  0  0  0  0  0  0  0  0  0  0
   -5.7645   17.0560  -35.9284 H   0  0  0  0  0  0  0  0  0  0  0  0
   -5.6288   15.2461  -32.0026 H   0  0  0  0  0  0  0  0  0  0  0  0
   -6.1109   17.4608  -30.9595 H   0  0  0  0  0  0  0  0  0  0  0  0
   -8.6220   19.4760  -31.6592 H   0  0  0  0  0  0  0  0  0  0  0  0
   -3.7311   22.3502  -30.4424 H   0  0  0  0  0  0  0  0  0  0  0  0
   -3.4051   23.4379  -31.8367 H   0  0  0  0  0  0  0  0  0  0  0  0
   -4.2229   24.2472  -28.9974 H   0  0  0  0  0  0  0  0  0  0  0  0
   -2.6469   24.5564  -29.8238 H   0  0  0  0  0  0  0  0  0  0  0  0
   -6.0577   25.3506  -29.5781 H   0  0  0  0  0  0  0  0  0  0  0  0
   -6.0268   26.5869  -30.8951 H   0  0  0  0  0  0  0  0  0  0  0  0
   -7.1740   24.4179  -31.5285 H   0  0  0  0  0  0  0  0  0  0  0  0
   -5.7972   24.8738  -32.5920 H   0  0  0  0  0  0  0  0  0  0  0  0
  1  2  3  0
  2  3  1  0
  3  4  1  0
  4  5  1  0
  5  6  2  0
  6  7  1  0
  7  8  2  0
  8  9  1  0
  8 10  1  0
 10 11  2  0
  4 12  2  0
 12 13  1  0
 13 14  1  0
 14 15  1  0
 15 16  1  0
 16 17  1  0
 17 18  1  0
 18 19  1  0
 19 20  1  0
 14  3  2  0
 20 15  1  0
 11  5  1  0
  6 21  1  0
  7 22  1  0
 10 23  1  0
 11 24  1  0
 12 25  1  0
 16 26  1  0
 16 27  1  0
 17 28  1  0
 17 29  1  0
 19 30  1  0
 19 31  1  0
 20 32  1  0
 20 33  1  0
M  END
>  <UniqueID>  (38) 
36

>  <SMILES>  (38) 
N#Cc1c(-c2ccc(F)cc2)csc1N1CCOCC1

>  <Energy>  (38) 
71.38971042469313

>  <Genealogy>  (38) 
N#Cc1c(-c2ccc(F)cc2)csc1N1CCOCC1 (3D coordinates assigned)
N#Cc1c(-c2ccc(F)cc2)csc1N1CCOCC1 (nonaromatic ring conformer: 71.38971042469313 kcal/mol)

>  <smiles>  (38) 
N#Cc1c(-c2ccc(F)cc2)csc1N1CCOCC1

>  <score_type>  (38) 
oracle

>  <origin>  (38) 
adgpu

>  <m_score__min__energy>  (38) 
-7.71

>  <m_primary>  (38) 
energy

$$$$
38:0
     RDKit          3D

 69 73  0  0  0  0  0  0  0  0999 V2000
   -8.9560   21.9210  -30.0420 O   0  0  0  0  0  0  0  0  0  0  0  0
   -8.6000   22.2700  -31.4590 S   0  0  0  0  0  0  0  0  0  0  0  0
   -9.8600   22.5820  -32.2170 O   0  0  0  0  0  0  0  0  0  0  0  0
   -7.5870   23.6800  -31.4570 N   0  0  0  0  0  0  0  0  0  0  0  0
   -6.3570   23.7760  -30.7180 C   0  0  0  0  0  0  0  0  0  0  0  0
   -5.5020   24.8850  -30.8430 C   0  0  0  0  0  0  0  0  0  0  0  0
   -4.3010   24.9370  -30.1310 C   0  0  0  0  0  0  0  0  0  0  0  0
   -3.9480   23.8990  -29.2570 C   0  0  0  0  0  0  0  0  0  0  0  0
   -2.6950   24.0020  -28.4250 C   0  0  0  0  0  0  0  0  0  0  0  0
   -2.9330   24.7320  -27.0860 C   0  0  0  0  0  0  0  0  0  0  0  0
   -1.7250   25.3640  -26.5250 N   0  0  0  0  0  0  0  0  0  0  0  0
   -2.0160   26.1830  -25.3390 C   0  0  0  0  0  0  0  0  0  0  0  0
   -0.7870   27.0290  -24.9390 C   0  0  1  0  0  0  0  0  0  0  0  0
    0.4140   26.3540  -25.2270 O   0  0  0  0  0  0  0  0  0  0  0  0
   -0.8030   28.3910  -25.6090 C   0  0  0  0  0  0  0  0  0  0  0  0
   -0.3270   28.5420  -26.9200 C   0  0  0  0  0  0  0  0  0  0  0  0
   -0.2930   29.8050  -27.5140 C   0  0  0  0  0  0  0  0  0  0  0  0
   -0.7350   30.9140  -26.7910 C   0  0  0  0  0  0  0  0  0  0  0  0
   -1.1860   30.7610  -25.5190 N   0  0  0  0  0  0  0  0  0  0  0  0
   -1.2290   29.5420  -24.9170 C   0  0  0  0  0  0  0  0  0  0  0  0
   -4.8000   22.7940  -29.1260 C   0  0  0  0  0  0  0  0  0  0  0  0
   -5.9870   22.7260  -29.8630 C   0  0  0  0  0  0  0  0  0  0  0  0
   -7.7760   20.9000  -32.1950 C   0  0  0  0  0  0  0  0  0  0  0  0
   -6.5170   21.0760  -32.7780 C   0  0  0  0  0  0  0  0  0  0  0  0
   -5.8230   19.9840  -33.3010 C   0  0  0  0  0  0  0  0  0  0  0  0
   -6.3850   18.6950  -33.2590 C   0  0  0  0  0  0  0  0  0  0  0  0
   -5.6340   17.5320  -33.7900 C   0  0  0  0  0  0  0  0  0  0  0  0
   -6.0570   16.2230  -33.5070 C   0  0  0  0  0  0  0  0  0  0  0  0
   -5.3430   15.1240  -33.9930 C   0  0  0  0  0  0  0  0  0  0  0  0
   -4.1880   15.3100  -34.7740 C   0  0  0  0  0  0  0  0  0  0  0  0
   -3.4380   14.1750  -35.2550 N   0  0  0  0  0  0  0  0  0  0  0  0
   -2.6760   14.1310  -36.3690 C   0  0  0  0  0  0  0  0  0  0  0  0
   -2.1260   12.8740  -36.5140 C   0  0  0  0  0  0  0  0  0  0  0  0
   -2.5700   12.1230  -35.4450 C   0  0  0  0  0  0  0  0  0  0  0  0
   -3.3760   12.9500  -34.6900 C   0  0  0  0  0  0  0  0  0  0  0  0
   -3.7710   16.6210  -35.0650 C   0  0  0  0  0  0  0  0  0  0  0  0
   -4.4870   17.7200  -34.5800 C   0  0  0  0  0  0  0  0  0  0  0  0
   -7.6650   18.5300  -32.6980 C   0  0  0  0  0  0  0  0  0  0  0  0
   -8.3560   19.6250  -32.1720 C   0  0  0  0  0  0  0  0  0  0  0  0
   -7.8300   24.4360  -32.1370 H   0  0  0  0  0  0  0  0  0  0  0  0
   -5.7805   25.7175  -31.5059 H   0  0  0  0  0  0  0  0  0  0  0  0
   -3.6280   25.7979  -30.2569 H   0  0  0  0  0  0  0  0  0  0  0  0
   -2.3279   22.9870  -28.2130 H   0  0  0  0  0  0  0  0  0  0  0  0
   -1.9602   24.5863  -28.9983 H   0  0  0  0  0  0  0  0  0  0  0  0
   -3.6892   25.5142  -27.2481 H   0  0  0  0  0  0  0  0  0  0  0  0
   -3.2596   23.9709  -26.3621 H   0  0  0  0  0  0  0  0  0  0  0  0
   -1.0100   24.6360  -26.3050 H   0  0  0  0  0  0  0  0  0  0  0  0
   -2.8582   26.8544  -25.5626 H   0  0  0  0  0  0  0  0  0  0  0  0
   -2.2696   25.5142  -24.5033 H   0  0  0  0  0  0  0  0  0  0  0  0
   -0.8437   27.1852  -23.8516 H   0  0  0  0  0  0  0  0  0  0  0  0
    0.2570   25.7550  -26.0040 H   0  0  0  0  0  0  0  0  0  0  0  0
    0.0206   27.6624  -27.4818 H   0  0  0  0  0  0  0  0  0  0  0  0
    0.0787   29.9250  -28.5423 H   0  0  0  0  0  0  0  0  0  0  0  0
   -0.7181   31.9127  -27.2517 H   0  0  0  0  0  0  0  0  0  0  0  0
   -1.5983   29.4544  -23.8845 H   0  0  0  0  0  0  0  0  0  0  0  0
   -4.5340   21.9761  -28.4402 H   0  0  0  0  0  0  0  0  0  0  0  0
   -6.6358   21.8424  -29.7718 H   0  0  0  0  0  0  0  0  0  0  0  0
   -6.0714   22.0806  -32.8246 H   0  0  0  0  0  0  0  0  0  0  0  0
   -4.8295   20.1322  -33.7493 H   0  0  0  0  0  0  0  0  0  0  0  0
   -6.9582   16.0612  -32.8974 H   0  0  0  0  0  0  0  0  0  0  0  0
   -5.6873   14.1050  -33.7627 H   0  0  0  0  0  0  0  0  0  0  0  0
   -2.5173   14.9729  -37.0589 H   0  0  0  0  0  0  0  0  0  0  0  0
   -1.4628   12.5363  -37.3240 H   0  0  0  0  0  0  0  0  0  0  0  0
   -2.3285   11.0705  -35.2356 H   0  0  0  0  0  0  0  0  0  0  0  0
   -3.8920   12.6550  -33.7644 H   0  0  0  0  0  0  0  0  0  0  0  0
   -2.8734   16.7836  -35.6797 H   0  0  0  0  0  0  0  0  0  0  0  0
   -4.1498   18.7395  -34.8187 H   0  0  0  0  0  0  0  0  0  0  0  0
   -8.1253   17.5312  -32.6733 H   0  0  0  0  0  0  0  0  0  0  0  0
   -9.3575   19.4854  -31.7390 H   0  0  0  0  0  0  0  0  0  0  0  0
  1  2  2  0
  2  3  2  0
  2  4  1  0
  4  5  1  0
  5  6  2  0
  6  7  1  0
  7  8  2  0
  8  9  1  0
  9 10  1  0
 10 11  1  0
 11 12  1  0
 12 13  1  0
 13 14  1  0
 13 15  1  0
 15 16  2  0
 16 17  1  0
 17 18  2  0
 18 19  1  0
 19 20  2  0
  8 21  1  0
 21 22  2  0
  2 23  1  0
 23 24  2  0
 24 25  1  0
 25 26  2  0
 26 27  1  0
 27 28  2  0
 28 29  1  0
 29 30  2  0
 30 31  1  0
 31 32  1  0
 32 33  2  0
 33 34  1  0
 34 35  2  0
 30 36  1  0
 36 37  2  0
 26 38  1  0
 38 39  2  0
 22  5  1  0
 39 23  1  0
 20 15  1  0
 37 27  1  0
 35 31  1  0
  4 40  1  0
  6 41  1  0
  7 42  1  0
  9 43  1  0
  9 44  1  0
 10 45  1  0
 10 46  1  0
 11 47  1  0
 12 48  1  0
 12 49  1  0
 13 50  1  1
 14 51  1  0
 16 52  1  0
 17 53  1  0
 18 54  1  0
 20 55  1  0
 21 56  1  0
 22 57  1  0
 24 58  1  0
 25 59  1  0
 28 60  1  0
 29 61  1  0
 32 62  1  0
 33 63  1  0
 34 64  1  0
 35 65  1  0
 36 66  1  0
 37 67  1  0
 38 68  1  0
 39 69  1  0
M  END
>  <UniqueID>  (39) 
37

>  <SMILES>  (39) 
O=S(=O)(Nc1ccc(CCNC[C@@H](O)c2cccnc2)cc1)c1ccc(-c2ccc(-n3cccc3)cc2)cc1

>  <Energy>  (39) 
108.85453880418099

>  <Genealogy>  (39) 
O=S(=O)(Nc1ccc(CCNC[C@@H](O)c2cccnc2)cc1)c1ccc(-c2ccc(-n3cccc3)cc2)cc1 (chirality)
O=S(=O)(Nc1ccc(CCNC[C@@H](O)c2cccnc2)cc1)c1ccc(-c2ccc(-n3cccc3)cc2)cc1 (3D coordinates assigned)
O=S(=O)(Nc1ccc(CCNC[C@@H](O)c2cccnc2)cc1)c1ccc(-c2ccc(-n3cccc3)cc2)cc1 (optimized conformer: 108.85453880418099 kcal/mol)

>  <smiles>  (39) 
O=S(=O)(Nc1ccc(CCNCC(O)c2cccnc2)cc1)c1ccc(-c2ccc(-n3cccc3)cc2)cc1

>  <score_type>  (39) 
oracle

>  <origin>  (39) 
adgpu

>  <m_score__min__energy>  (39) 
-11.24

>  <m_primary>  (39) 
energy

$$$$
39:0
     RDKit          3D

 35 37  0  0  0  0  0  0  0  0999 V2000
    1.4875   24.6209  -27.2700 H   0  0  0  0  0  0  0  0  0  0  0  0
    0.4050   24.7760  -27.1510 C   0  0  0  0  0  0  0  0  0  0  0  0
   -0.3810   24.9450  -28.2480 N   0  0  0  0  0  0  0  0  0  0  0  0
   -1.7230   25.1490  -28.1520 C   0  0  0  0  0  0  0  0  0  0  0  0
   -2.4690   25.2960  -29.3300 O   0  0  0  0  0  0  0  0  0  0  0  0
   -3.6870   24.6570  -29.6070 C   0  0  0  0  0  0  0  0  0  0  0  0
   -4.0270   23.4200  -29.0310 C   0  0  0  0  0  0  0  0  0  0  0  0
   -3.3215   22.9190  -28.3518 H   0  0  0  0  0  0  0  0  0  0  0  0
   -5.2590   22.8250  -29.3190 C   0  0  0  0  0  0  0  0  0  0  0  0
   -5.5072   21.8433  -28.8892 H   0  0  0  0  0  0  0  0  0  0  0  0
   -6.1810   23.4760  -30.1550 C   0  0  0  0  0  0  0  0  0  0  0  0
   -7.4260   22.8570  -30.5110 N   0  0  0  0  0  0  0  0  0  0  0  0
   -7.5970   21.7790  -31.2260 C   0  0  0  0  0  0  0  0  0  0  0  0
   -8.9040   21.3940  -31.5550 C   0  0  0  0  0  0  0  0  0  0  0  0
   -9.7594   21.9965  -31.2156 H   0  0  0  0  0  0  0  0  0  0  0  0
   -9.1150   20.2430  -32.3150 C   0  0  0  0  0  0  0  0  0  0  0  0
  -10.1375   19.9405  -32.5850 H   0  0  0  0  0  0  0  0  0  0  0  0
   -8.0280   19.4780  -32.7310 C   0  0  0  0  0  0  0  0  0  0  0  0
   -8.1839   18.5741  -33.3381 H   0  0  0  0  0  0  0  0  0  0  0  0
   -6.7390   19.8710  -32.3690 C   0  0  0  0  0  0  0  0  0  0  0  0
   -5.8746   19.2685  -32.6849 H   0  0  0  0  0  0  0  0  0  0  0  0
   -6.5450   20.9960  -31.6270 N   0  0  0  0  0  0  0  0  0  0  0  0
   -5.5640   21.2160  -31.3450 H   0  0  0  0  0  0  0  0  0  0  0  0
   -5.8350   24.6980  -30.7390 C   0  0  0  0  0  0  0  0  0  0  0  0
   -6.5349   25.1931  -31.4282 H   0  0  0  0  0  0  0  0  0  0  0  0
   -4.6030   25.2940  -30.4510 C   0  0  0  0  0  0  0  0  0  0  0  0
   -4.3525   26.2705  -30.8912 H   0  0  0  0  0  0  0  0  0  0  0  0
   -2.3300   25.1600  -26.8830 C   0  0  0  0  0  0  0  0  0  0  0  0
   -3.4168   25.3013  -26.7890 H   0  0  0  0  0  0  0  0  0  0  0  0
   -1.5410   24.9900  -25.7440 C   0  0  0  0  0  0  0  0  0  0  0  0
   -2.0048   25.0063  -24.7467 H   0  0  0  0  0  0  0  0  0  0  0  0
   -0.1610   24.7990  -25.8700 C   0  0  0  0  0  0  0  0  0  0  0  0
    0.6570   24.6230  -24.7110 N   0  0  0  0  0  0  0  0  0  0  0  0
    0.2330   24.5830  -23.7590 H   0  0  0  0  0  0  0  0  0  0  0  0
    1.6940   24.5320  -24.7990 H   0  0  0  0  0  0  0  0  0  0  0  0
  1  2  1  0
  2  3  2  0
  3  4  1  0
  4  5  1  0
  5  6  1  0
  6  7  2  0
  7  8  1  0
  7  9  1  0
  9 10  1  0
  9 11  2  0
 11 12  1  0
 12 13  2  0
 13 14  1  0
 14 15  1  0
 14 16  2  0
 16 17  1  0
 16 18  1  0
 18 19  1  0
 18 20  2  0
 20 21  1  0
 20 22  1  0
 22 23  1  0
 11 24  1  0
 24 25  1  0
 24 26  2  0
 26 27  1  0
  4 28  2  0
 28 29  1  0
 28 30  1  0
 30 31  1  0
 30 32  2  0
 32 33  1  0
 33 34  1  0
 33 35  1  0
 32  2  1  0
 26  6  1  0
 22 13  1  0
M  END
>  <UniqueID>  (40) 
38

>  <SMILES>  (40) 
Nc1ccc(Oc2ccc(/N=c3/cccc[nH]3)cc2)nc1

>  <Energy>  (40) 
53.52040112357477

>  <Genealogy>  (40) 
Nc1ccc(Oc2ccc(/N=c3/cccc[nH]3)cc2)nc1 (cis-trans isomerization)
Nc1ccc(Oc2ccc(/N=c3/cccc[nH]3)cc2)nc1 (3D coordinates assigned)
Nc1ccc(Oc2ccc(/N=c3/cccc[nH]3)cc2)nc1 (optimized conformer: 53.52040112357477 kcal/mol)

>  <smiles>  (40) 
Nc1ccc(Oc2ccc(N=c3cccc[nH]3)cc2)nc1

>  <score_type>  (40) 
oracle

>  <origin>  (40) 
adgpu

>  <m_score__min__energy>  (40) 
-7.8099999999999996

>  <m_primary>  (40) 
energy

$$$$
40:0
     RDKit          3D

 46 48  0  0  0  0  0  0  0  0999 V2000
   -3.3040   17.8730  -34.3760 C   0  0  0  0  0  0  0  0  0  0  0  0
   -4.6840   18.3020  -34.0020 C   0  0  0  0  0  0  0  0  0  0  0  0
   -5.7690   17.6170  -34.2760 O   0  0  0  0  0  0  0  0  0  0  0  0
   -6.8340   18.2180  -33.8270 N   0  0  0  0  0  0  0  0  0  0  0  0
   -6.4300   19.3580  -33.2280 C   0  0  0  0  0  0  0  0  0  0  0  0
   -7.3760   20.3460  -32.6670 C   0  0  0  0  0  0  0  0  0  0  0  0
   -8.7210   19.9920  -32.4720 C   0  0  0  0  0  0  0  0  0  0  0  0
   -9.6270   20.9190  -31.9460 C   0  0  0  0  0  0  0  0  0  0  0  0
   -9.2000   22.2080  -31.6220 C   0  0  0  0  0  0  0  0  0  0  0  0
   -7.8690   22.5770  -31.8320 C   0  0  0  0  0  0  0  0  0  0  0  0
   -6.9610   21.6550  -32.3600 C   0  0  0  0  0  0  0  0  0  0  0  0
   -5.0460   19.4460  -33.3120 C   0  0  0  0  0  0  0  0  0  0  0  0
   -4.1390   20.4580  -32.7360 C   0  0  0  0  0  0  0  0  0  0  0  0
   -3.6500   21.3420  -33.4900 O   0  0  0  0  0  0  0  0  0  0  0  0
   -3.8180   20.4330  -31.3350 N   0  0  0  0  0  0  0  0  0  0  0  0
   -3.0980   21.4750  -30.6590 C   0  0  0  0  0  0  0  0  0  0  0  0
   -1.6960   21.4510  -30.5570 C   0  0  0  0  0  0  0  0  0  0  0  0
   -1.0210   22.4670  -29.8730 C   0  0  0  0  0  0  0  0  0  0  0  0
   -1.7370   23.5120  -29.2770 C   0  0  0  0  0  0  0  0  0  0  0  0
   -0.8750   24.7740  -28.4000 S   0  0  0  0  0  0  0  0  0  0  0  0
   -1.2200   26.1220  -28.9720 O   0  0  0  0  0  0  0  0  0  0  0  0
    0.6030   24.5490  -28.5660 O   0  0  0  0  0  0  0  0  0  0  0  0
   -1.2940   24.7130  -26.7060 N   0  0  0  0  0  0  0  0  0  0  0  0
   -1.1090   23.3440  -26.2050 C   0  0  0  0  0  0  0  0  0  0  0  0
   -2.6940   25.1250  -26.5380 C   0  0  0  0  0  0  0  0  0  0  0  0
   -3.1370   23.5230  -29.3510 C   0  0  0  0  0  0  0  0  0  0  0  0
   -3.8110   22.5070  -30.0340 C   0  0  0  0  0  0  0  0  0  0  0  0
   -2.7169   17.6905  -33.4639 H   0  0  0  0  0  0  0  0  0  0  0  0
   -3.3557   16.9485  -34.9699 H   0  0  0  0  0  0  0  0  0  0  0  0
   -2.8225   18.6638  -34.9699 H   0  0  0  0  0  0  0  0  0  0  0  0
   -9.0639   18.9803  -32.7343 H   0  0  0  0  0  0  0  0  0  0  0  0
  -10.6770   20.6320  -31.7875 H   0  0  0  0  0  0  0  0  0  0  0  0
   -9.9118   22.9334  -31.2012 H   0  0  0  0  0  0  0  0  0  0  0  0
   -7.5352   23.5947  -31.5814 H   0  0  0  0  0  0  0  0  0  0  0  0
   -5.9172   21.9540  -32.5364 H   0  0  0  0  0  0  0  0  0  0  0  0
   -4.2320   19.6760  -30.7450 H   0  0  0  0  0  0  0  0  0  0  0  0
   -1.1275   20.6294  -31.0172 H   0  0  0  0  0  0  0  0  0  0  0  0
    0.0766   22.4450  -29.8030 H   0  0  0  0  0  0  0  0  0  0  0  0
   -1.1102   23.3528  -25.1050 H   0  0  0  0  0  0  0  0  0  0  0  0
   -1.9292   22.7069  -26.5675 H   0  0  0  0  0  0  0  0  0  0  0  0
   -0.1491   22.9475  -26.5675 H   0  0  0  0  0  0  0  0  0  0  0  0
   -2.9297   25.1944  -25.4658 H   0  0  0  0  0  0  0  0  0  0  0  0
   -2.8468   26.1062  -27.0112 H   0  0  0  0  0  0  0  0  0  0  0  0
   -3.3539   24.3830  -27.0112 H   0  0  0  0  0  0  0  0  0  0  0  0
   -3.7059   24.3327  -28.8706 H   0  0  0  0  0  0  0  0  0  0  0  0
   -4.9099   22.5174  -30.0814 H   0  0  0  0  0  0  0  0  0  0  0  0
  1  2  1  0
  2  3  1  0
  3  4  1  0
  4  5  2  0
  5  6  1  0
  6  7  2  0
  7  8  1  0
  8  9  2  0
  9 10  1  0
 10 11  2  0
  5 12  1  0
 12 13  1  0
 13 14  2  0
 13 15  1  0
 15 16  1  0
 16 17  2  0
 17 18  1  0
 18 19  2  0
 19 20  1  0
 20 21  2  0
 20 22  2  0
 20 23  1  0
 23 24  1  0
 23 25  1  0
 19 26  1  0
 26 27  2  0
 12  2  2  0
 27 16  1  0
 11  6  1  0
  1 28  1  0
  1 29  1  0
  1 30  1  0
  7 31  1  0
  8 32  1  0
  9 33  1  0
 10 34  1  0
 11 35  1  0
 15 36  1  0
 17 37  1  0
 18 38  1  0
 24 39  1  0
 24 40  1  0
 24 41  1  0
 25 42  1  0
 25 43  1  0
 25 44  1  0
 26 45  1  0
 27 46  1  0
M  END
>  <UniqueID>  (41) 
39

>  <SMILES>  (41) 
Cc1onc(-c2ccccc2)c1C(=O)Nc1ccc(S(=O)(=O)N(C)C)cc1

>  <Energy>  (41) 
85.83901548999565

>  <Genealogy>  (41) 
Cc1onc(-c2ccccc2)c1C(=O)Nc1ccc(S(=O)(=O)N(C)C)cc1 (3D coordinates assigned)
Cc1onc(-c2ccccc2)c1C(=O)Nc1ccc(S(=O)(=O)N(C)C)cc1 (optimized conformer: 85.83901548999565 kcal/mol)

>  <smiles>  (41) 
Cc1onc(-c2ccccc2)c1C(=O)Nc1ccc(S(=O)(=O)N(C)C)cc1

>  <score_type>  (41) 
oracle

>  <origin>  (41) 
adgpu

>  <m_score__min__energy>  (41) 
-9.4199999999999999

>  <m_primary>  (41) 
energy

$$$$
41:0
     RDKit          3D

 38 39  0  0  0  0  0  0  0  0999 V2000
   -6.8880   24.0630  -29.9850 C   0  0  0  0  0  0  0  0  0  0  0  0
   -6.4360   22.7350  -30.5850 C   0  0  0  0  0  0  0  0  0  0  0  0
   -5.6140   22.9710  -31.8210 C   0  0  0  0  0  0  0  0  0  0  0  0
   -6.0320   23.7870  -32.6850 O   0  0  0  0  0  0  0  0  0  0  0  0
   -4.4230   22.2060  -32.0830 N   0  0  0  0  0  0  0  0  0  0  0  0
   -4.4900   21.0920  -33.0360 C   0  0  0  0  0  0  0  0  0  0  0  0
   -5.5650   20.1350  -32.6290 C   0  0  0  0  0  0  0  0  0  0  0  0
   -5.3830   19.0050  -31.8410 C   0  0  0  0  0  0  0  0  0  0  0  0
   -6.5810   18.3560  -31.5250 C   0  0  0  0  0  0  0  0  0  0  0  0
   -7.7000   18.9760  -32.0690 C   0  0  0  0  0  0  0  0  0  0  0  0
   -9.1180   18.5760  -31.8310 C   0  0  0  0  0  0  0  0  0  0  0  0
   -7.2100   20.3480  -32.9090 S   0  0  0  0  0  0  0  0  0  0  0  0
   -3.1160   22.6640  -31.5940 C   0  0  0  0  0  0  0  0  0  0  0  0
   -3.1730   22.9070  -30.1070 C   0  0  0  0  0  0  0  0  0  0  0  0
   -3.0300   21.8290  -29.2150 C   0  0  0  0  0  0  0  0  0  0  0  0
   -3.0450   22.0480  -27.8340 C   0  0  0  0  0  0  0  0  0  0  0  0
   -3.1940   23.3430  -27.3320 C   0  0  0  0  0  0  0  0  0  0  0  0
   -3.3300   24.4220  -28.2080 C   0  0  0  0  0  0  0  0  0  0  0  0
   -3.3170   24.2110  -29.5920 C   0  0  0  0  0  0  0  0  0  0  0  0
   -3.4500   25.3010  -30.4460 O   0  0  0  0  0  0  0  0  0  0  0  0
   -6.8652   23.9961  -28.8873 H   0  0  0  0  0  0  0  0  0  0  0  0
   -6.2121   24.8646  -30.3176 H   0  0  0  0  0  0  0  0  0  0  0  0
   -7.9126   24.2858  -30.3176 H   0  0  0  0  0  0  0  0  0  0  0  0
   -5.8304   22.1906  -29.8455 H   0  0  0  0  0  0  0  0  0  0  0  0
   -7.3242   22.1447  -30.8546 H   0  0  0  0  0  0  0  0  0  0  0  0
   -4.7119   21.4839  -34.0396 H   0  0  0  0  0  0  0  0  0  0  0  0
   -3.5236   20.5667  -33.0461 H   0  0  0  0  0  0  0  0  0  0  0  0
   -4.3969   18.6563  -31.5003 H   0  0  0  0  0  0  0  0  0  0  0  0
   -6.6325   17.4467  -30.9082 H   0  0  0  0  0  0  0  0  0  0  0  0
   -9.3072   18.5226  -30.7487 H   0  0  0  0  0  0  0  0  0  0  0  0
   -9.7898   19.3197  -32.2844 H   0  0  0  0  0  0  0  0  0  0  0  0
   -9.3021   17.5909  -32.2844 H   0  0  0  0  0  0  0  0  0  0  0  0
   -2.3583   21.8958  -31.8080 H   0  0  0  0  0  0  0  0  0  0  0  0
   -2.8517   23.6034  -32.1016 H   0  0  0  0  0  0  0  0  0  0  0  0
   -2.9057   20.8083  -29.6058 H   0  0  0  0  0  0  0  0  0  0  0  0
   -2.9393   21.1994  -27.1421 H   0  0  0  0  0  0  0  0  0  0  0  0
   -3.2042   23.5131  -26.2453 H   0  0  0  0  0  0  0  0  0  0  0  0
   -3.4477   25.4405  -27.8095 H   0  0  0  0  0  0  0  0  0  0  0  0
  1  2  1  0
  2  3  1  0
  3  4  2  0
  3  5  1  0
  5  6  1  0
  6  7  1  0
  7  8  2  0
  8  9  1  0
  9 10  2  0
 10 11  1  0
 10 12  1  0
  5 13  1  0
 13 14  1  0
 14 15  2  0
 15 16  1  0
 16 17  2  0
 17 18  1  0
 18 19  2  0
 19 20  1  0
 12  7  1  0
 19 14  1  0
  1 21  1  0
  1 22  1  0
  1 23  1  0
  2 24  1  0
  2 25  1  0
  6 26  1  0
  6 27  1  0
  8 28  1  0
  9 29  1  0
 11 30  1  0
 11 31  1  0
 11 32  1  0
 13 33  1  0
 13 34  1  0
 15 35  1  0
 16 36  1  0
 17 37  1  0
 18 38  1  0
M  CHG  1  20  -1
M  END
>  <UniqueID>  (42) 
40

>  <SMILES>  (42) 
CCC(=O)N(Cc1ccc(C)s1)Cc1ccccc1[O-]

>  <Energy>  (42) 
58.60334493133189

>  <Genealogy>  (42) 
CCC(=O)N(Cc1ccc(C)s1)Cc1ccccc1[O-] (protonated)
CCC(=O)N(Cc1ccc(C)s1)Cc1ccccc1[O-] (3D coordinates assigned)
CCC(=O)N(Cc1ccc(C)s1)Cc1ccccc1[O-] (optimized conformer: 58.60334493133189 kcal/mol)

>  <smiles>  (42) 
CCC(=O)N(Cc1ccc(C)s1)Cc1ccccc1O

>  <score_type>  (42) 
oracle

>  <origin>  (42) 
adgpu

>  <m_score__min__energy>  (42) 
-10.300000000000001

>  <m_primary>  (42) 
energy

$$$$
42:0
     RDKit          3D

 43 45  0  0  0  0  0  0  0  0999 V2000
   -0.3322   25.1437  -27.8643 H   0  0  0  0  0  0  0  0  0  0  0  0
   -1.2430   24.6880  -28.2800 C   0  0  0  0  0  0  0  0  0  0  0  0
   -1.9790   25.2880  -29.2540 N   0  0  0  0  0  0  0  0  0  0  0  0
   -3.0460   24.5410  -29.6020 C   0  0  0  0  0  0  0  0  0  0  0  0
   -3.8890   24.9180  -30.5140 N   0  0  0  0  0  0  0  0  0  0  0  0
   -5.2760   23.9990  -31.0060 S   0  0  0  0  0  0  0  0  0  0  0  0
   -6.0950   23.6570  -29.7920 O   0  0  0  0  0  0  0  0  0  0  0  0
   -6.1110   24.8270  -31.9400 O   0  0  0  0  0  0  0  0  0  0  0  0
   -4.7620   22.5390  -31.8440 C   0  0  0  0  0  0  0  0  0  0  0  0
   -3.4150   22.3460  -32.1800 C   0  0  0  0  0  0  0  0  0  0  0  0
   -2.6683   23.1069  -31.9092 H   0  0  0  0  0  0  0  0  0  0  0  0
   -3.0170   21.1900  -32.8580 C   0  0  0  0  0  0  0  0  0  0  0  0
   -1.9568   21.0412  -33.1105 H   0  0  0  0  0  0  0  0  0  0  0  0
   -3.9660   20.2160  -33.2190 C   0  0  0  0  0  0  0  0  0  0  0  0
   -3.5810   19.0100  -33.9010 N   0  0  0  0  0  0  0  0  0  0  0  0
   -4.1550   18.7030  -34.7190 H   0  0  0  0  0  0  0  0  0  0  0  0
   -2.3850   18.2700  -33.6110 C   0  0  0  0  0  0  0  0  0  0  0  0
   -1.4850   18.7650  -32.8800 O   0  0  0  0  0  0  0  0  0  0  0  0
   -2.1560   16.9450  -34.2610 C   0  0  0  0  0  0  0  0  0  0  0  0
   -1.1284   16.6085  -34.0589 H   0  0  0  0  0  0  0  0  0  0  0  0
   -2.3009   17.0360  -35.3476 H   0  0  0  0  0  0  0  0  0  0  0  0
   -3.0800   15.9990  -33.7320 O   0  0  0  0  0  0  0  0  0  0  0  0
   -4.4550   16.2320  -33.5770 C   0  0  0  0  0  0  0  0  0  0  0  0
   -5.3260   15.7240  -34.5480 C   0  0  0  0  0  0  0  0  0  0  0  0
   -4.9233   15.1557  -35.3994 H   0  0  0  0  0  0  0  0  0  0  0  0
   -6.7040   15.9340  -34.4430 C   0  0  0  0  0  0  0  0  0  0  0  0
   -7.3804   15.5368  -35.2142 H   0  0  0  0  0  0  0  0  0  0  0  0
   -7.2230   16.6470  -33.3610 C   0  0  0  0  0  0  0  0  0  0  0  0
   -8.3074   16.8157  -33.2857 H   0  0  0  0  0  0  0  0  0  0  0  0
   -6.3680   17.1490  -32.3700 C   0  0  0  0  0  0  0  0  0  0  0  0
   -6.9230   17.9500  -31.2290 C   0  0  0  0  0  0  0  0  0  0  0  0
   -6.6095   17.4975  -30.2767 H   0  0  0  0  0  0  0  0  0  0  0  0
   -6.5449   18.9814  -31.2869 H   0  0  0  0  0  0  0  0  0  0  0  0
   -8.0214   17.9583  -31.2869 H   0  0  0  0  0  0  0  0  0  0  0  0
   -4.9810   16.9530  -32.4880 C   0  0  0  0  0  0  0  0  0  0  0  0
   -4.3033   17.3649  -31.7258 H   0  0  0  0  0  0  0  0  0  0  0  0
   -5.3080   20.4020  -32.8540 C   0  0  0  0  0  0  0  0  0  0  0  0
   -6.0531   19.6320  -33.1027 H   0  0  0  0  0  0  0  0  0  0  0  0
   -5.7050   21.5580  -32.1770 C   0  0  0  0  0  0  0  0  0  0  0  0
   -6.7615   21.6982  -31.9046 H   0  0  0  0  0  0  0  0  0  0  0  0
   -3.1220   23.1060  -28.7160 S   0  0  0  0  0  0  0  0  0  0  0  0
   -1.7250   23.4560  -27.8470 C   0  0  0  0  0  0  0  0  0  0  0  0
   -1.2712   22.8216  -27.0714 H   0  0  0  0  0  0  0  0  0  0  0  0
  1  2  1  0
  2  3  1  0
  3  4  1  0
  4  5  2  0
  5  6  1  0
  6  7  2  0
  6  8  2  0
  6  9  1  0
  9 10  2  0
 10 11  1  0
 10 12  1  0
 12 13  1  0
 12 14  2  0
 14 15  1  0
 15 16  1  0
 15 17  1  0
 17 18  2  0
 17 19  1  0
 19 20  1  0
 19 21  1  0
 19 22  1  0
 22 23  1  0
 23 24  2  0
 24 25  1  0
 24 26  1  0
 26 27  1  0
 26 28  2  0
 28 29  1  0
 28 30  1  0
 30 31  1  0
 31 32  1  0
 31 33  1  0
 31 34  1  0
 30 35  2  0
 35 36  1  0
 14 37  1  0
 37 38  1  0
 37 39  2  0
 39 40  1  0
  4 41  1  0
 41 42  1  0
 42 43  1  0
 42  2  2  0
 39  9  1  0
 35 23  1  0
M  CHG  1   3  -1
M  END
>  <UniqueID>  (43) 
41

>  <SMILES>  (43) 
Cc1cccc(OCC(=O)Nc2ccc(S(=O)(=O)/N=c3/[n-]ccs3)cc2)c1

>  <Energy>  (43) 
79.51775375774885

>  <Genealogy>  (43) 
Cc1cccc(OCC(=O)Nc2ccc(S(=O)(=O)N=c3[n-]ccs3)cc2)c1 (protonated)
Cc1cccc(OCC(=O)Nc2ccc(S(=O)(=O)/N=c3/[n-]ccs3)cc2)c1 (cis-trans isomerization)
Cc1cccc(OCC(=O)Nc2ccc(S(=O)(=O)/N=c3/[n-]ccs3)cc2)c1 (3D coordinates assigned)
Cc1cccc(OCC(=O)Nc2ccc(S(=O)(=O)/N=c3/[n-]ccs3)cc2)c1 (optimized conformer: 79.51775375774885 kcal/mol)

>  <smiles>  (43) 
Cc1cccc(OCC(=O)Nc2ccc(S(=O)(=O)N=c3[nH]ccs3)cc2)c1

>  <score_type>  (43) 
oracle

>  <origin>  (43) 
adgpu

>  <m_score__min__energy>  (43) 
-9.5500000000000007

>  <m_primary>  (43) 
energy

$$$$
43:0
     RDKit          3D

 68 72  0  0  0  0  0  0  0  0999 V2000
    1.2390   17.1930  -31.3810 H   0  0  0  0  0  0  0  0  0  0  0  0
    0.3560   17.6060  -31.7600 N   0  0  0  0  0  0  0  0  0  0  0  0
   -0.1360   18.7060  -31.2860 C   0  0  0  0  0  0  0  0  0  0  0  0
    0.5130   19.3430  -30.2720 N   0  0  0  0  0  0  0  0  0  0  0  0
    0.0520   20.4980  -29.7270 C   0  0  0  0  0  0  0  0  0  0  0  0
    0.6092   20.9779  -28.9089 H   0  0  0  0  0  0  0  0  0  0  0  0
   -1.1310   21.0820  -30.2020 C   0  0  0  0  0  0  0  0  0  0  0  0
   -1.6690   22.3210  -29.5880 C   0  0  0  0  0  0  0  0  0  0  0  0
   -1.2500   22.7010  -28.3020 C   0  0  0  0  0  0  0  0  0  0  0  0
   -0.5667   22.0510  -27.7357 H   0  0  0  0  0  0  0  0  0  0  0  0
   -1.6950   23.8980  -27.7380 C   0  0  0  0  0  0  0  0  0  0  0  0
   -1.3667   24.1846  -26.7280 H   0  0  0  0  0  0  0  0  0  0  0  0
   -2.5550   24.7310  -28.4530 C   0  0  0  0  0  0  0  0  0  0  0  0
   -2.8776   25.6870  -28.0149 H   0  0  0  0  0  0  0  0  0  0  0  0
   -3.0110   24.3610  -29.7230 C   0  0  0  0  0  0  0  0  0  0  0  0
   -3.8400   25.2790  -30.4490 N   0  0  0  0  0  0  0  0  0  0  0  0
   -5.2690   25.2290  -30.4780 C   0  0  0  0  0  0  0  0  0  0  0  0
   -5.9290   26.2180  -30.0580 O   0  0  0  0  0  0  0  0  0  0  0  0
   -5.9620   24.0110  -30.9530 C   0  0  0  0  0  0  0  0  0  0  0  0
   -6.9580   23.4050  -30.1760 C   0  0  0  0  0  0  0  0  0  0  0  0
   -7.2664   23.8691  -29.2276 H   0  0  0  0  0  0  0  0  0  0  0  0
   -7.5640   22.2160  -30.5940 C   0  0  0  0  0  0  0  0  0  0  0  0
   -8.3525   21.7631  -29.9751 H   0  0  0  0  0  0  0  0  0  0  0  0
   -7.1780   21.5870  -31.8010 C   0  0  0  0  0  0  0  0  0  0  0  0
   -7.7820   20.2510  -32.2800 C   0  0  0  0  0  0  0  0  0  0  0  0
   -7.0670   19.8020  -33.5720 C   0  0  0  0  0  0  0  0  0  0  0  0
   -6.1619   19.2336  -33.3116 H   0  0  0  0  0  0  0  0  0  0  0  0
   -7.7424   19.1656  -34.1626 H   0  0  0  0  0  0  0  0  0  0  0  0
   -6.7871   20.6868  -34.1626 H   0  0  0  0  0  0  0  0  0  0  0  0
   -9.2900   20.4340  -32.5640 C   0  0  0  0  0  0  0  0  0  0  0  0
   -9.8370   20.5004  -31.6120 H   0  0  0  0  0  0  0  0  0  0  0  0
   -9.4450   21.3575  -33.1411 H   0  0  0  0  0  0  0  0  0  0  0  0
   -9.6614   19.5743  -33.1411 H   0  0  0  0  0  0  0  0  0  0  0  0
   -7.6370   19.1150  -31.2400 C   0  0  0  0  0  0  0  0  0  0  0  0
   -7.6909   19.5374  -30.2257 H   0  0  0  0  0  0  0  0  0  0  0  0
   -8.4494   18.3862  -31.3774 H   0  0  0  0  0  0  0  0  0  0  0  0
   -6.6676   18.6137  -31.3774 H   0  0  0  0  0  0  0  0  0  0  0  0
   -6.1640   22.2070  -32.5660 C   0  0  0  0  0  0  0  0  0  0  0  0
   -5.8337   21.7380  -33.5046 H   0  0  0  0  0  0  0  0  0  0  0  0
   -5.5740   23.4020  -32.1540 C   0  0  0  0  0  0  0  0  0  0  0  0
   -4.7977   23.8702  -32.7770 H   0  0  0  0  0  0  0  0  0  0  0  0
   -2.5690   23.1480  -30.2920 C   0  0  0  0  0  0  0  0  0  0  0  0
   -2.9840   22.7840  -31.5330 F   0  0  0  0  0  0  0  0  0  0  0  0
   -1.8170   20.4460  -31.2480 C   0  0  0  0  0  0  0  0  0  0  0  0
   -2.7475   20.8871  -31.6349 H   0  0  0  0  0  0  0  0  0  0  0  0
   -1.3300   19.2530  -31.8070 C   0  0  0  0  0  0  0  0  0  0  0  0
   -2.0750   18.6100  -32.9160 C   0  0  0  0  0  0  0  0  0  0  0  0
   -1.9300   18.9340  -34.2160 N   0  0  0  0  0  0  0  0  0  0  0  0
   -2.7500   18.1470  -34.8910 N   0  0  0  0  0  0  0  0  0  0  0  0
   -3.3690   17.3710  -33.9810 C   0  0  0  0  0  0  0  0  0  0  0  0
   -4.4320   16.3490  -34.2930 C   0  0  0  0  0  0  0  0  0  0  0  0
   -4.5037   16.2739  -35.3881 H   0  0  0  0  0  0  0  0  0  0  0  0
   -4.0410   14.9420  -33.7720 C   0  0  0  0  0  0  0  0  0  0  0  0
   -4.1718   14.2174  -34.5892 H   0  0  0  0  0  0  0  0  0  0  0  0
   -2.9960   14.9967  -33.4330 H   0  0  0  0  0  0  0  0  0  0  0  0
   -4.8890   14.4850  -32.5720 C   0  0  0  0  0  0  0  0  0  0  0  0
   -5.8474   14.0888  -32.9387 H   0  0  0  0  0  0  0  0  0  0  0  0
   -4.3344   13.7073  -32.0264 H   0  0  0  0  0  0  0  0  0  0  0  0
   -5.1500   15.6030  -31.6570 N   0  0  0  0  0  0  0  0  0  0  0  0
   -5.6340   15.2280  -30.8090 H   0  0  0  0  0  0  0  0  0  0  0  0
   -4.2430   16.0180  -31.3400 H   0  0  0  0  0  0  0  0  0  0  0  0
   -6.0000   16.6470  -32.2650 C   0  0  0  0  0  0  0  0  0  0  0  0
   -7.0521   16.3970  -32.0638 H   0  0  0  0  0  0  0  0  0  0  0  0
   -5.6987   17.6046  -31.8152 H   0  0  0  0  0  0  0  0  0  0  0  0
   -5.8190   16.7940  -33.7930 C   0  0  0  0  0  0  0  0  0  0  0  0
   -6.5829   16.1817  -34.2946 H   0  0  0  0  0  0  0  0  0  0  0  0
   -5.9203   17.8635  -34.0294 H   0  0  0  0  0  0  0  0  0  0  0  0
   -2.9600   17.6500  -32.7690 O   0  0  0  0  0  0  0  0  0  0  0  0
  1  2  1  0
  2  3  2  0
  3  4  1  0
  4  5  1  0
  5  6  1  0
  5  7  2  0
  7  8  1  0
  8  9  2  0
  9 10  1  0
  9 11  1  0
 11 12  1  0
 11 13  2  0
 13 14  1  0
 13 15  1  0
 15 16  1  0
 16 17  1  0
 17 18  2  0
 17 19  1  0
 19 20  2  0
 20 21  1  0
 20 22  1  0
 22 23  1  0
 22 24  2  0
 24 25  1  0
 25 26  1  0
 26 27  1  0
 26 28  1  0
 26 29  1  0
 25 30  1  0
 30 31  1  0
 30 32  1  0
 30 33  1  0
 25 34  1  0
 34 35  1  0
 34 36  1  0
 34 37  1  0
 24 38  1  0
 38 39  1  0
 38 40  2  0
 40 41  1  0
 15 42  2  0
 42 43  1  0
  7 44  1  0
 44 45  1  0
 44 46  2  0
 46 47  1  0
 47 48  2  0
 48 49  1  0
 49 50  2  0
 50 51  1  0
 51 52  1  0
 51 53  1  0
 53 54  1  0
 53 55  1  0
 53 56  1  0
 56 57  1  0
 56 58  1  0
 56 59  1  0
 59 60  1  0
 59 61  1  0
 59 62  1  0
 62 63  1  0
 62 64  1  0
 62 65  1  0
 65 66  1  0
 65 67  1  0
 50 68  1  0
 46  3  1  0
 68 47  1  0
 42  8  1  0
 65 51  1  0
 40 19  1  0
M  CHG  3   4  -1  16  -1  59   1
M  END
>  <UniqueID>  (44) 
42

>  <SMILES>  (44) 
[H]/N=c1\[n-]cc(-c2cccc([N-]C(=O)c3ccc(C(C)(C)C)cc3)c2F)cc1-c1nnc(C2CC[NH2+]CC2)o1

>  <Energy>  (44) 
133.78364925310038

>  <Genealogy>  (44) 
CC(C)(C)c1ccc(C(=O)[N-]c2cccc(-c3c[n-]c(=N)c(-c4nnc(C5CC[NH2+]CC5)o4)c3)c2F)cc1 (protonated)
[H]/N=c1\[n-]cc(-c2cccc([N-]C(=O)c3ccc(C(C)(C)C)cc3)c2F)cc1-c1nnc(C2CC[NH2+]CC2)o1 (cis-trans isomerization)
[H]/N=c1\[n-]cc(-c2cccc([N-]C(=O)c3ccc(C(C)(C)C)cc3)c2F)cc1-c1nnc(C2CC[NH2+]CC2)o1 (3D coordinates assigned)
[H]/N=c1\[n-]cc(-c2cccc([N-]C(=O)c3ccc(C(C)(C)C)cc3)c2F)cc1-c1nnc(C2CC[NH2+]CC2)o1 (nonaromatic ring conformer: 133.78364925310038 kcal/mol)

>  <smiles>  (44) 
CC(C)(C)c1ccc(C(=O)Nc2cccc(-c3c[nH]c(=N)c(-c4nnc(C5CCNCC5)o4)c3)c2F)cc1

>  <score_type>  (44) 
oracle

>  <origin>  (44) 
adgpu

>  <m_score__min__energy>  (44) 
-13.460000000000001

>  <m_primary>  (44) 
energy

$$$$
44:0
     RDKit          3D

 47 49  0  0  0  0  0  0  0  0999 V2000
    3.2910   18.7500  -33.2190 C   0  0  0  0  0  0  0  0  0  0  0  0
    3.2850   19.8240  -34.1550 O   0  0  0  0  0  0  0  0  0  0  0  0
    2.1420   20.5480  -34.5240 C   0  0  0  0  0  0  0  0  0  0  0  0
    2.2920   21.6120  -35.4180 C   0  0  0  0  0  0  0  0  0  0  0  0
    1.1920   22.3750  -35.8210 C   0  0  0  0  0  0  0  0  0  0  0  0
    1.4110   23.4350  -36.7150 O   0  0  0  0  0  0  0  0  0  0  0  0
    1.0940   24.7970  -36.4430 C   0  0  0  0  0  0  0  0  0  0  0  0
   -0.0850   22.0600  -35.3220 C   0  0  0  0  0  0  0  0  0  0  0  0
   -0.2600   20.9880  -34.4290 C   0  0  0  0  0  0  0  0  0  0  0  0
   -1.6050   20.6620  -33.8950 C   0  0  0  0  0  0  0  0  0  0  0  0
   -2.2890   21.5620  -33.3350 O   0  0  0  0  0  0  0  0  0  0  0  0
   -2.1150   19.3200  -33.9660 N   0  0  0  0  0  0  0  0  0  0  0  0
   -3.5120   18.9920  -33.8750 C   0  0  0  0  0  0  0  0  0  0  0  0
   -4.0840   17.9930  -34.6840 C   0  0  0  0  0  0  0  0  0  0  0  0
   -5.4320   17.6560  -34.5400 C   0  0  0  0  0  0  0  0  0  0  0  0
   -6.2220   18.3090  -33.5900 C   0  0  0  0  0  0  0  0  0  0  0  0
   -5.6720   19.3110  -32.7840 C   0  0  0  0  0  0  0  0  0  0  0  0
   -6.4890   19.9400  -31.8350 O   0  0  0  0  0  0  0  0  0  0  0  0
   -6.6470   21.3280  -31.6990 C   0  0  0  0  0  0  0  0  0  0  0  0
   -7.9080   21.9430  -31.7880 C   0  0  0  0  0  0  0  0  0  0  0  0
   -8.0310   23.3220  -31.6100 C   0  0  0  0  0  0  0  0  0  0  0  0
   -6.9030   24.0990  -31.3390 C   0  0  0  0  0  0  0  0  0  0  0  0
   -5.6330   23.5010  -31.2390 C   0  0  0  0  0  0  0  0  0  0  0  0
   -4.4680   24.2970  -30.9590 N   0  0  0  0  0  0  0  0  0  0  0  0
   -3.3490   23.7620  -30.8130 O   0  0  0  0  0  0  0  0  0  0  0  0
   -4.5660   25.6660  -30.8430 O   0  0  0  0  0  0  0  0  0  0  0  0
   -5.5200   22.1090  -31.4160 C   0  0  0  0  0  0  0  0  0  0  0  0
   -4.3100   19.6340  -32.9140 C   0  0  0  0  0  0  0  0  0  0  0  0
    0.8610   20.2410  -34.0280 C   0  0  0  0  0  0  0  0  0  0  0  0
    3.2887   19.1549  -32.1963 H   0  0  0  0  0  0  0  0  0  0  0  0
    2.3963   18.1279  -33.3690 H   0  0  0  0  0  0  0  0  0  0  0  0
    4.1926   18.1379  -33.3690 H   0  0  0  0  0  0  0  0  0  0  0  0
    3.2910   21.8527  -35.8105 H   0  0  0  0  0  0  0  0  0  0  0  0
    1.0573   24.9547  -35.3550 H   0  0  0  0  0  0  0  0  0  0  0  0
    1.8647   25.4476  -36.8820 H   0  0  0  0  0  0  0  0  0  0  0  0
    0.1152   25.0404  -36.8820 H   0  0  0  0  0  0  0  0  0  0  0  0
   -0.9545   22.6577  -35.6332 H   0  0  0  0  0  0  0  0  0  0  0  0
   -1.4270   18.5320  -33.9850 H   0  0  0  0  0  0  0  0  0  0  0  0
   -3.4671   17.4751  -35.4331 H   0  0  0  0  0  0  0  0  0  0  0  0
   -5.8729   16.8744  -35.1762 H   0  0  0  0  0  0  0  0  0  0  0  0
   -7.2809   18.0338  -33.4757 H   0  0  0  0  0  0  0  0  0  0  0  0
   -8.8006   21.3356  -31.9986 H   0  0  0  0  0  0  0  0  0  0  0  0
   -9.0199   23.7982  -31.6835 H   0  0  0  0  0  0  0  0  0  0  0  0
   -7.0077   25.1855  -31.2028 H   0  0  0  0  0  0  0  0  0  0  0  0
   -4.5339   21.6289  -31.3309 H   0  0  0  0  0  0  0  0  0  0  0  0
   -3.8654   20.3963  -32.2573 H   0  0  0  0  0  0  0  0  0  0  0  0
    0.7361   19.4086  -33.3199 H   0  0  0  0  0  0  0  0  0  0  0  0
  1  2  1  0
  2  3  1  0
  3  4  2  0
  4  5  1  0
  5  6  1  0
  6  7  1  0
  5  8  2  0
  8  9  1  0
  9 10  1  0
 10 11  2  0
 10 12  1  0
 12 13  1  0
 13 14  2  0
 14 15  1  0
 15 16  2  0
 16 17  1  0
 17 18  1  0
 18 19  1  0
 19 20  2  0
 20 21  1  0
 21 22  2  0
 22 23  1  0
 23 24  1  0
 24 25  2  0
 24 26  1  0
 23 27  2  0
 17 28  2  0
  9 29  2  0
 29  3  1  0
 28 13  1  0
 27 19  1  0
  1 30  1  0
  1 31  1  0
  1 32  1  0
  4 33  1  0
  7 34  1  0
  7 35  1  0
  7 36  1  0
  8 37  1  0
 12 38  1  0
 14 39  1  0
 15 40  1  0
 16 41  1  0
 20 42  1  0
 21 43  1  0
 22 44  1  0
 27 45  1  0
 28 46  1  0
 29 47  1  0
M  CHG  2  24   1  26  -1
M  END
>  <UniqueID>  (45) 
43

>  <SMILES>  (45) 
COc1cc(OC)cc(C(=O)Nc2cccc(Oc3cccc([N+](=O)[O-])c3)c2)c1

>  <Energy>  (45) 
61.744922649358465

>  <Genealogy>  (45) 
COc1cc(OC)cc(C(=O)Nc2cccc(Oc3cccc([N+](=O)[O-])c3)c2)c1 (3D coordinates assigned)
COc1cc(OC)cc(C(=O)Nc2cccc(Oc3cccc([N+](=O)[O-])c3)c2)c1 (optimized conformer: 61.744922649358465 kcal/mol)

>  <smiles>  (45) 
COc1cc(OC)cc(C(=O)Nc2cccc(Oc3cccc([N+](=O)[O-])c3)c2)c1

>  <score_type>  (45) 
oracle

>  <origin>  (45) 
adgpu

>  <m_score__min__energy>  (45) 
-8.5

>  <m_primary>  (45) 
energy

$$$$
45:0
     RDKit          3D

 36 38  0  0  0  0  0  0  0  0999 V2000
   -3.7590   18.7120  -33.0400 O   0  0  0  0  0  0  0  0  0  0  0  0
   -4.9330   18.4270  -33.4030 C   0  0  0  0  0  0  0  0  0  0  0  0
   -5.9320   19.4590  -33.4690 N   0  0  0  0  0  0  0  0  0  0  0  0
   -5.8370   20.7110  -32.7690 C   0  0  0  0  0  0  0  0  0  0  0  0
   -4.6130   21.3920  -32.6450 C   0  0  0  0  0  0  0  0  0  0  0  0
   -4.5420   22.5970  -31.9380 C   0  0  0  0  0  0  0  0  0  0  0  0
   -5.6880   23.1280  -31.3320 C   0  0  0  0  0  0  0  0  0  0  0  0
   -5.6010   24.6510  -30.4560 S   0  0  0  0  0  0  0  0  0  0  0  0
   -4.7340   25.6190  -31.2120 O   0  0  0  0  0  0  0  0  0  0  0  0
   -6.9810   25.2310  -30.3150 O   0  0  0  0  0  0  0  0  0  0  0  0
   -4.9230   24.3580  -28.8870 N   0  0  0  0  0  0  0  0  0  0  0  0
   -3.6620   24.5050  -28.6220 C   0  0  0  0  0  0  0  0  0  0  0  0
   -2.7400   24.9000  -29.5270 N   0  0  0  0  0  0  0  0  0  0  0  0
   -1.5010   24.9670  -28.9730 C   0  0  0  0  0  0  0  0  0  0  0  0
   -1.4370   24.6260  -27.6260 C   0  0  0  0  0  0  0  0  0  0  0  0
   -2.9890   24.2250  -27.1100 S   0  0  0  0  0  0  0  0  0  0  0  0
   -6.9060   22.4460  -31.4420 C   0  0  0  0  0  0  0  0  0  0  0  0
   -6.9780   21.2410  -32.1480 C   0  0  0  0  0  0  0  0  0  0  0  0
   -5.2550   17.0390  -33.8140 C   0  0  0  0  0  0  0  0  0  0  0  0
   -6.5890   16.5790  -33.8110 C   0  0  0  0  0  0  0  0  0  0  0  0
   -7.6050   17.3780  -33.3950 F   0  0  0  0  0  0  0  0  0  0  0  0
   -6.8840   15.2670  -34.1990 C   0  0  0  0  0  0  0  0  0  0  0  0
   -5.8590   14.4020  -34.5870 C   0  0  0  0  0  0  0  0  0  0  0  0
   -4.5350   14.8430  -34.5840 C   0  0  0  0  0  0  0  0  0  0  0  0
   -4.2290   16.1520  -34.1980 C   0  0  0  0  0  0  0  0  0  0  0  0
   -2.9330   16.5550  -34.2260 F   0  0  0  0  0  0  0  0  0  0  0  0
   -6.7170   19.3340  -34.1470 H   0  0  0  0  0  0  0  0  0  0  0  0
   -3.7060   20.9747  -33.1067 H   0  0  0  0  0  0  0  0  0  0  0  0
   -3.5828   23.1295  -31.8576 H   0  0  0  0  0  0  0  0  0  0  0  0
   -0.6132   25.2690  -29.5480 H   0  0  0  0  0  0  0  0  0  0  0  0
   -0.5291   24.6194  -27.0049 H   0  0  0  0  0  0  0  0  0  0  0  0
   -7.8099   22.8598  -30.9711 H   0  0  0  0  0  0  0  0  0  0  0  0
   -7.9360   20.7049  -32.2169 H   0  0  0  0  0  0  0  0  0  0  0  0
   -7.9266   14.9163  -34.1983 H   0  0  0  0  0  0  0  0  0  0  0  0
   -6.0951   13.3728  -34.8951 H   0  0  0  0  0  0  0  0  0  0  0  0
   -3.7289   14.1584  -34.8864 H   0  0  0  0  0  0  0  0  0  0  0  0
  1  2  2  0
  2  3  1  0
  3  4  1  0
  4  5  2  0
  5  6  1  0
  6  7  2  0
  7  8  1  0
  8  9  2  0
  8 10  2  0
  8 11  1  0
 11 12  2  3
 12 13  1  0
 13 14  1  0
 14 15  2  0
 15 16  1  0
  7 17  1  0
 17 18  2  0
  2 19  1  0
 19 20  2  0
 20 21  1  0
 20 22  1  0
 22 23  2  0
 23 24  1  0
 24 25  2  0
 25 26  1  0
 18  4  1  0
 25 19  1  0
 16 12  1  0
  3 27  1  0
  5 28  1  0
  6 29  1  0
 14 30  1  0
 15 31  1  0
 17 32  1  0
 18 33  1  0
 22 34  1  0
 23 35  1  0
 24 36  1  0
M  CHG  1  13  -1
M  END
>  <UniqueID>  (46) 
44

>  <SMILES>  (46) 
O=C(Nc1ccc(S(=O)(=O)N=c2[n-]ccs2)cc1)c1c(F)cccc1F

>  <Energy>  (46) 
80.19089847801904

>  <Genealogy>  (46) 
O=C(Nc1ccc(S(=O)(=O)N=c2[n-]ccs2)cc1)c1c(F)cccc1F (protonated)
O=C(Nc1ccc(S(=O)(=O)N=c2[n-]ccs2)cc1)c1c(F)cccc1F (3D coordinates assigned)
O=C(Nc1ccc(S(=O)(=O)N=c2[n-]ccs2)cc1)c1c(F)cccc1F (optimized conformer: 80.19089847801904 kcal/mol)

>  <smiles>  (46) 
O=C(Nc1ccc(S(=O)(=O)N=c2[nH]ccs2)cc1)c1c(F)cccc1F

>  <score_type>  (46) 
oracle

>  <origin>  (46) 
adgpu

>  <m_score__min__energy>  (46) 
-9.2300000000000004

>  <m_primary>  (46) 
energy

$$$$
46:0
     RDKit          3D

 43 45  0  0  0  0  0  0  0  0999 V2000
   -0.6470   29.7920  -25.4100 C   0  0  0  0  0  0  0  0  0  0  0  0
   -0.7180   28.2970  -25.4820 C   0  0  0  0  0  0  0  0  0  0  0  0
   -0.8660   27.5450  -24.3120 C   0  0  0  0  0  0  0  0  0  0  0  0
   -0.9900   26.1560  -24.3800 C   0  0  0  0  0  0  0  0  0  0  0  0
   -0.9730   25.5090  -25.6180 C   0  0  0  0  0  0  0  0  0  0  0  0
   -0.8290   26.2470  -26.8070 C   0  0  0  0  0  0  0  0  0  0  0  0
   -0.8140   25.5650  -28.1240 C   0  0  0  0  0  0  0  0  0  0  0  0
    0.2010   24.9090  -28.4810 O   0  0  0  0  0  0  0  0  0  0  0  0
   -1.9740   25.6070  -28.9680 N   0  0  0  0  0  0  0  0  0  0  0  0
   -2.6810   24.4840  -29.5150 C   0  0  0  0  0  0  0  0  0  0  0  0
   -1.9930   23.2750  -29.6900 C   0  0  0  0  0  0  0  0  0  0  0  0
   -2.6470   22.1540  -30.2090 C   0  0  0  0  0  0  0  0  0  0  0  0
   -4.0010   22.2290  -30.5450 C   0  0  0  0  0  0  0  0  0  0  0  0
   -4.7090   23.4230  -30.3510 C   0  0  0  0  0  0  0  0  0  0  0  0
   -6.4200   23.4960  -30.7600 S   0  0  0  0  0  0  0  0  0  0  0  0
   -7.2180   22.8540  -29.6600 O   0  0  0  0  0  0  0  0  0  0  0  0
   -6.8730   24.9210  -30.9100 O   0  0  0  0  0  0  0  0  0  0  0  0
   -6.7080   22.6500  -32.2460 N   0  0  0  0  0  0  0  0  0  0  0  0
   -7.2580   21.3190  -32.3000 C   0  0  0  0  0  0  0  0  0  0  0  0
   -8.5930   21.0770  -31.9250 C   0  0  0  0  0  0  0  0  0  0  0  0
   -9.1210   19.7840  -31.9740 C   0  0  0  0  0  0  0  0  0  0  0  0
   -8.3290   18.7170  -32.4000 C   0  0  0  0  0  0  0  0  0  0  0  0
   -7.0090   18.9440  -32.7880 C   0  0  0  0  0  0  0  0  0  0  0  0
   -6.4690   20.2350  -32.7470 C   0  0  0  0  0  0  0  0  0  0  0  0
   -4.7910   20.4480  -33.2310 Cl  0  0  0  0  0  0  0  0  0  0  0  0
   -4.0520   24.5460  -29.8260 C   0  0  0  0  0  0  0  0  0  0  0  0
   -0.7150   27.6480  -26.7280 C   0  0  0  0  0  0  0  0  0  0  0  0
   -0.6320   30.1080  -24.3565 H   0  0  0  0  0  0  0  0  0  0  0  0
    0.2687   30.1401  -25.9103 H   0  0  0  0  0  0  0  0  0  0  0  0
   -1.5256   30.2253  -25.9103 H   0  0  0  0  0  0  0  0  0  0  0  0
   -0.8848   28.0497  -23.3348 H   0  0  0  0  0  0  0  0  0  0  0  0
   -1.1014   25.5694  -23.4561 H   0  0  0  0  0  0  0  0  0  0  0  0
   -1.0729   24.4145  -25.6635 H   0  0  0  0  0  0  0  0  0  0  0  0
   -0.9296   23.2081  -29.4166 H   0  0  0  0  0  0  0  0  0  0  0  0
   -2.0958   21.2130  -30.3528 H   0  0  0  0  0  0  0  0  0  0  0  0
   -4.5125   21.3492  -30.9626 H   0  0  0  0  0  0  0  0  0  0  0  0
   -6.3700   23.1150  -33.1180 H   0  0  0  0  0  0  0  0  0  0  0  0
   -9.2258   21.9124  -31.5907 H   0  0  0  0  0  0  0  0  0  0  0  0
  -10.1648   19.6067  -31.6756 H   0  0  0  0  0  0  0  0  0  0  0  0
   -8.7450   17.6991  -32.4297 H   0  0  0  0  0  0  0  0  0  0  0  0
   -6.3876   18.1027  -33.1287 H   0  0  0  0  0  0  0  0  0  0  0  0
   -4.6106   25.4784  -29.6569 H   0  0  0  0  0  0  0  0  0  0  0  0
   -0.6227   28.2400  -27.6505 H   0  0  0  0  0  0  0  0  0  0  0  0
  1  2  1  0
  2  3  2  0
  3  4  1  0
  4  5  2  0
  5  6  1  0
  6  7  1  0
  7  8  2  0
  7  9  1  0
  9 10  1  0
 10 11  2  0
 11 12  1  0
 12 13  2  0
 13 14  1  0
 14 15  1  0
 15 16  2  0
 15 17  2  0
 15 18  1  0
 18 19  1  0
 19 20  2  0
 20 21  1  0
 21 22  2  0
 22 23  1  0
 23 24  2  0
 24 25  1  0
 14 26  2  0
  6 27  2  0
 27  2  1  0
 26 10  1  0
 24 19  1  0
  1 28  1  0
  1 29  1  0
  1 30  1  0
  3 31  1  0
  4 32  1  0
  5 33  1  0
 11 34  1  0
 12 35  1  0
 13 36  1  0
 18 37  1  0
 20 38  1  0
 21 39  1  0
 22 40  1  0
 23 41  1  0
 26 42  1  0
 27 43  1  0
M  CHG  1   9  -1
M  END
>  <UniqueID>  (47) 
45

>  <SMILES>  (47) 
Cc1cccc(C(=O)[N-]c2cccc(S(=O)(=O)Nc3ccccc3Cl)c2)c1

>  <Energy>  (47) 
53.96341928455512

>  <Genealogy>  (47) 
Cc1cccc(C(=O)[N-]c2cccc(S(=O)(=O)Nc3ccccc3Cl)c2)c1 (protonated)
Cc1cccc(C(=O)[N-]c2cccc(S(=O)(=O)Nc3ccccc3Cl)c2)c1 (3D coordinates assigned)
Cc1cccc(C(=O)[N-]c2cccc(S(=O)(=O)Nc3ccccc3Cl)c2)c1 (optimized conformer: 53.96341928455512 kcal/mol)

>  <smiles>  (47) 
Cc1cccc(C(=O)Nc2cccc(S(=O)(=O)Nc3ccccc3Cl)c2)c1

>  <score_type>  (47) 
oracle

>  <origin>  (47) 
adgpu

>  <m_score__min__energy>  (47) 
-11.779999999999999

>  <m_primary>  (47) 
energy

$$$$
47:0
     RDKit          3D

 51 54  0  0  0  0  0  0  0  0999 V2000
   -5.7400   13.5750  -34.5710 C   0  0  0  0  0  0  0  0  0  0  0  0
   -5.5890   15.0180  -34.2120 C   0  0  0  0  0  0  0  0  0  0  0  0
   -4.3490   15.6520  -34.3350 C   0  0  0  0  0  0  0  0  0  0  0  0
   -4.2560   17.0070  -34.0020 C   0  0  0  0  0  0  0  0  0  0  0  0
   -2.9550   17.7340  -34.1380 C   0  0  0  0  0  0  0  0  0  0  0  0
   -5.3630   17.6740  -33.5860 N   0  0  0  0  0  0  0  0  0  0  0  0
   -6.5660   17.0450  -33.4640 C   0  0  0  0  0  0  0  0  0  0  0  0
   -7.6300   17.6890  -33.0840 N   0  0  0  0  0  0  0  0  0  0  0  0
   -7.7040   19.0610  -32.6590 C   0  0  0  0  0  0  0  0  0  0  0  0
   -6.8470   20.0500  -33.1750 C   0  0  0  0  0  0  0  0  0  0  0  0
   -6.9270   21.3650  -32.7090 C   0  0  0  0  0  0  0  0  0  0  0  0
   -7.8570   21.7120  -31.7160 C   0  0  0  0  0  0  0  0  0  0  0  0
   -7.9140   23.1170  -31.1850 C   0  0  0  0  0  0  0  0  0  0  0  0
   -6.5460   23.5650  -30.7500 C   0  0  0  0  0  0  0  0  0  0  0  0
   -6.1610   24.9070  -30.8930 C   0  0  0  0  0  0  0  0  0  0  0  0
   -4.8750   25.3150  -30.5260 C   0  0  0  0  0  0  0  0  0  0  0  0
   -3.9460   24.3780  -30.0410 C   0  0  0  0  0  0  0  0  0  0  0  0
   -2.6380   24.7810  -29.6100 N   0  0  0  0  0  0  0  0  0  0  0  0
   -2.2120   24.9210  -28.3840 C   0  0  0  0  0  0  0  0  0  0  0  0
   -3.0620   24.8140  -27.2640 C   0  0  0  0  0  0  0  0  0  0  0  0
   -2.5350   24.9880  -25.9800 C   0  0  0  0  0  0  0  0  0  0  0  0
   -1.2150   25.2680  -25.8130 N   0  0  0  0  0  0  0  0  0  0  0  0
   -0.3780   25.3960  -26.8770 C   0  0  0  0  0  0  0  0  0  0  0  0
   -0.8620   25.2310  -28.1770 C   0  0  0  0  0  0  0  0  0  0  0  0
   -4.3380   23.0440  -29.8760 C   0  0  0  0  0  0  0  0  0  0  0  0
   -5.6240   22.6350  -30.2430 C   0  0  0  0  0  0  0  0  0  0  0  0
   -8.6820   20.7150  -31.1710 C   0  0  0  0  0  0  0  0  0  0  0  0
   -8.6000   19.3990  -31.6370 C   0  0  0  0  0  0  0  0  0  0  0  0
   -6.6680   15.7290  -33.7880 N   0  0  0  0  0  0  0  0  0  0  0  0
   -5.8030   12.9733  -33.6523 H   0  0  0  0  0  0  0  0  0  0  0  0
   -6.6573   13.4383  -35.1624 H   0  0  0  0  0  0  0  0  0  0  0  0
   -4.8708   13.2514  -35.1624 H   0  0  0  0  0  0  0  0  0  0  0  0
   -3.4662   15.0974  -34.6859 H   0  0  0  0  0  0  0  0  0  0  0  0
   -2.5540   17.9581  -33.1385 H   0  0  0  0  0  0  0  0  0  0  0  0
   -2.2393   17.1051  -34.6877 H   0  0  0  0  0  0  0  0  0  0  0  0
   -3.1155   18.6732  -34.6877 H   0  0  0  0  0  0  0  0  0  0  0  0
   -6.1106   19.7871  -33.9487 H   0  0  0  0  0  0  0  0  0  0  0  0
   -6.2571   22.1331  -33.1228 H   0  0  0  0  0  0  0  0  0  0  0  0
   -8.2822   23.7889  -31.9743 H   0  0  0  0  0  0  0  0  0  0  0  0
   -8.5926   23.1459  -30.3197 H   0  0  0  0  0  0  0  0  0  0  0  0
   -6.8743   25.6412  -31.2957 H   0  0  0  0  0  0  0  0  0  0  0  0
   -4.5891   26.3733  -30.6171 H   0  0  0  0  0  0  0  0  0  0  0  0
   -4.1316   24.5953  -27.3990 H   0  0  0  0  0  0  0  0  0  0  0  0
   -3.1912   24.8979  -25.1018 H   0  0  0  0  0  0  0  0  0  0  0  0
   -0.8380   25.3970  -24.8480 H   0  0  0  0  0  0  0  0  0  0  0  0
    0.6842   25.6304  -26.7134 H   0  0  0  0  0  0  0  0  0  0  0  0
   -0.1844   25.3443  -29.0361 H   0  0  0  0  0  0  0  0  0  0  0  0
   -3.6308   22.3139  -29.4555 H   0  0  0  0  0  0  0  0  0  0  0  0
   -5.9147   21.5797  -30.1340 H   0  0  0  0  0  0  0  0  0  0  0  0
   -9.3959   20.9702  -30.3740 H   0  0  0  0  0  0  0  0  0  0  0  0
   -9.2442   18.6233  -31.1974 H   0  0  0  0  0  0  0  0  0  0  0  0
  1  2  1  0
  2  3  1  0
  3  4  2  0
  4  5  1  0
  4  6  1  0
  6  7  1  0
  7  8  2  3
  8  9  1  0
  9 10  2  0
 10 11  1  0
 11 12  2  0
 12 13  1  0
 13 14  1  0
 14 15  2  0
 15 16  1  0
 16 17  2  0
 17 18  1  0
 18 19  2  3
 19 20  1  0
 20 21  2  0
 21 22  1  0
 22 23  1  0
 23 24  2  0
 17 25  1  0
 25 26  2  0
 12 27  1  0
 27 28  2  0
  7 29  1  0
 29  2  2  0
 28  9  1  0
 26 14  1  0
 24 19  1  0
  1 30  1  0
  1 31  1  0
  1 32  1  0
  3 33  1  0
  5 34  1  0
  5 35  1  0
  5 36  1  0
 10 37  1  0
 11 38  1  0
 13 39  1  0
 13 40  1  0
 15 41  1  0
 16 42  1  0
 20 43  1  0
 21 44  1  0
 22 45  1  0
 23 46  1  0
 24 47  1  0
 25 48  1  0
 26 49  1  0
 27 50  1  0
 28 51  1  0
M  CHG  1   6  -1
M  END
>  <UniqueID>  (48) 
46

>  <SMILES>  (48) 
Cc1cc(C)[n-]c(=Nc2ccc(Cc3ccc(N=c4cc[nH]cc4)cc3)cc2)n1

>  <Energy>  (48) 
67.9716758203835

>  <Genealogy>  (48) 
Cc1cc(C)[n-]c(=Nc2ccc(Cc3ccc(N=c4cc[nH]cc4)cc3)cc2)n1 (protonated)
Cc1cc(C)[n-]c(=Nc2ccc(Cc3ccc(N=c4cc[nH]cc4)cc3)cc2)n1 (3D coordinates assigned)
Cc1cc(C)[n-]c(=Nc2ccc(Cc3ccc(N=c4cc[nH]cc4)cc3)cc2)n1 (optimized conformer: 67.9716758203835 kcal/mol)

>  <smiles>  (48) 
Cc1cc(C)[nH]c(=Nc2ccc(Cc3ccc(N=c4cc[nH]cc4)cc3)cc2)n1

>  <score_type>  (48) 
oracle

>  <origin>  (48) 
adgpu

>  <m_score__min__energy>  (48) 
-11.19

>  <m_primary>  (48) 
energy

$$$$
48:0
     RDKit          3D

 23 24  0  0  0  0  0  0  0  0999 V2000
   -4.5130   21.2230  -33.0770 C   0  0  0  0  0  0  0  0  0  0  0  0
   -5.5840   20.6940  -32.1260 C   0  0  0  0  0  0  0  0  0  0  0  0
   -6.7000   21.6860  -31.9220 C   0  0  0  0  0  0  0  0  0  0  0  0
   -7.9620   21.4670  -32.3570 N   0  0  0  0  0  0  0  0  0  0  0  0
   -8.6490   22.5550  -31.9580 C   0  0  0  0  0  0  0  0  0  0  0  0
   -7.8060   23.4160  -31.2950 C   0  0  0  0  0  0  0  0  0  0  0  0
   -6.5730   22.8790  -31.2910 N   0  0  0  0  0  0  0  0  0  0  0  0
   -5.4090   23.4840  -30.7080 C   0  0  0  0  0  0  0  0  0  0  0  0
   -4.6820   22.8440  -29.6960 C   0  0  0  0  0  0  0  0  0  0  0  0
   -3.5420   23.4590  -29.1810 C   0  0  0  0  0  0  0  0  0  0  0  0
   -3.1420   24.6890  -29.6990 C   0  0  0  0  0  0  0  0  0  0  0  0
   -2.1160   25.2660  -29.2530 O   0  0  0  0  0  0  0  0  0  0  0  0
   -3.8640   25.2620  -30.6960 N   0  0  0  0  0  0  0  0  0  0  0  0
   -4.9580   24.6760  -31.1880 N   0  0  0  0  0  0  0  0  0  0  0  0
   -3.6767   21.6361  -32.4940 H   0  0  0  0  0  0  0  0  0  0  0  0
   -4.1476   20.4017  -33.7111 H   0  0  0  0  0  0  0  0  0  0  0  0
   -4.9431   22.0123  -33.7111 H   0  0  0  0  0  0  0  0  0  0  0  0
   -6.0046   19.7680  -32.5451 H   0  0  0  0  0  0  0  0  0  0  0  0
   -5.1105   20.5110  -31.1502 H   0  0  0  0  0  0  0  0  0  0  0  0
   -9.7207   22.7283  -32.1354 H   0  0  0  0  0  0  0  0  0  0  0  0
   -8.0913   24.3785  -30.8453 H   0  0  0  0  0  0  0  0  0  0  0  0
   -5.0074   21.8661  -29.3116 H   0  0  0  0  0  0  0  0  0  0  0  0
   -2.9657   22.9795  -28.3761 H   0  0  0  0  0  0  0  0  0  0  0  0
  1  2  1  0
  2  3  1  0
  3  4  2  0
  4  5  1  0
  5  6  2  0
  6  7  1  0
  7  8  1  0
  8  9  1  0
  9 10  2  0
 10 11  1  0
 11 12  2  0
 11 13  1  0
 13 14  1  0
  7  3  1  0
 14  8  2  0
  1 15  1  0
  1 16  1  0
  1 17  1  0
  2 18  1  0
  2 19  1  0
  5 20  1  0
  6 21  1  0
  9 22  1  0
 10 23  1  0
M  CHG  1  13  -1
M  END
>  <UniqueID>  (49) 
47

>  <SMILES>  (49) 
CCc1nccn1-c1ccc(=O)[n-]n1

>  <Energy>  (49) 
56.55176509981661

>  <Genealogy>  (49) 
CCc1nccn1-c1ccc(=O)[n-]n1 (protonated)
CCc1nccn1-c1ccc(=O)[n-]n1 (3D coordinates assigned)
CCc1nccn1-c1ccc(=O)[n-]n1 (optimized conformer: 56.55176509981661 kcal/mol)

>  <smiles>  (49) 
CCc1nccn1-c1ccc(=O)[nH]n1

>  <score_type>  (49) 
oracle

>  <origin>  (49) 
adgpu

>  <m_score__min__energy>  (49) 
-7.7699999999999996

>  <m_primary>  (49) 
energy

$$$$
49:0
     RDKit          3D

 39 41  0  0  0  0  0  0  0  0999 V2000
   -6.1150   18.2978  -33.6874 H   0  0  0  0  0  0  0  0  0  0  0  0
   -5.8560   19.2820  -33.2700 C   0  0  0  0  0  0  0  0  0  0  0  0
   -4.5750   19.7960  -33.4510 C   0  0  0  0  0  0  0  0  0  0  0  0
   -3.8264   19.2138  -34.0083 H   0  0  0  0  0  0  0  0  0  0  0  0
   -4.2330   21.0500  -32.9280 C   0  0  0  0  0  0  0  0  0  0  0  0
   -2.8240   21.5500  -33.1150 C   0  0  0  0  0  0  0  0  0  0  0  0
   -2.3598   21.7147  -32.1314 H   0  0  0  0  0  0  0  0  0  0  0  0
   -2.2414   20.8037  -33.6750 H   0  0  0  0  0  0  0  0  0  0  0  0
   -2.8421   22.4966  -33.6750 H   0  0  0  0  0  0  0  0  0  0  0  0
   -5.2160   21.8220  -32.2580 C   0  0  0  0  0  0  0  0  0  0  0  0
   -4.8910   23.1290  -31.7560 N   0  0  0  0  0  0  0  0  0  0  0  0
   -3.9620   23.3730  -30.8780 C   0  0  0  0  0  0  0  0  0  0  0  0
   -3.1670   22.3700  -30.4050 N   0  0  0  0  0  0  0  0  0  0  0  0
   -2.1840   22.6130  -29.5010 C   0  0  0  0  0  0  0  0  0  0  0  0
   -1.3830   21.5720  -29.0210 C   0  0  0  0  0  0  0  0  0  0  0  0
   -1.5458   20.5432  -29.3746 H   0  0  0  0  0  0  0  0  0  0  0  0
   -0.3740   21.8420  -28.0900 C   0  0  0  0  0  0  0  0  0  0  0  0
    0.4230   20.8090  -27.6110 O   0  0  0  0  0  0  0  0  0  0  0  0
   -0.1650   23.1520  -27.6390 C   0  0  0  0  0  0  0  0  0  0  0  0
    0.6290   23.3599  -26.9066 H   0  0  0  0  0  0  0  0  0  0  0  0
   -0.9640   24.1970  -28.1180 C   0  0  0  0  0  0  0  0  0  0  0  0
   -0.7982   25.2250  -27.7633 H   0  0  0  0  0  0  0  0  0  0  0  0
   -1.9730   23.9310  -29.0480 C   0  0  0  0  0  0  0  0  0  0  0  0
   -2.7590   24.9320  -29.5260 N   0  0  0  0  0  0  0  0  0  0  0  0
   -3.7440   24.6860  -30.4290 C   0  0  0  0  0  0  0  0  0  0  0  0
   -4.4510   25.6390  -30.8550 O   0  0  0  0  0  0  0  0  0  0  0  0
   -6.5110   21.2780  -32.0380 C   0  0  0  0  0  0  0  0  0  0  0  0
   -7.6060   22.0190  -31.2750 C   0  0  0  0  0  0  0  0  0  0  0  0
   -7.2120   22.1976  -30.2636 H   0  0  0  0  0  0  0  0  0  0  0  0
   -8.8760   21.1730  -31.1200 C   0  0  0  0  0  0  0  0  0  0  0  0
   -9.0924   21.0289  -30.0512 H   0  0  0  0  0  0  0  0  0  0  0  0
   -9.7211   21.6892  -31.5988 H   0  0  0  0  0  0  0  0  0  0  0  0
   -8.7253   20.1942  -31.5988 H   0  0  0  0  0  0  0  0  0  0  0  0
   -7.9110   23.3950  -31.8820 C   0  0  0  0  0  0  0  0  0  0  0  0
   -8.0727   24.1243  -31.0745 H   0  0  0  0  0  0  0  0  0  0  0  0
   -7.0626   23.7179  -32.5033 H   0  0  0  0  0  0  0  0  0  0  0  0
   -8.8164   23.3292  -32.5033 H   0  0  0  0  0  0  0  0  0  0  0  0
   -6.8110   20.0080  -32.5630 C   0  0  0  0  0  0  0  0  0  0  0  0
   -7.8141   19.5823  -32.4129 H   0  0  0  0  0  0  0  0  0  0  0  0
  1  2  1  0
  2  3  2  0
  3  4  1  0
  3  5  1  0
  5  6  1  0
  6  7  1  0
  6  8  1  0
  6  9  1  0
  5 10  2  0
 10 11  1  0
 11 12  2  0
 12 13  1  0
 13 14  1  0
 14 15  2  0
 15 16  1  0
 15 17  1  0
 17 18  1  0
 17 19  2  0
 19 20  1  0
 19 21  1  0
 21 22  1  0
 21 23  2  0
 23 24  1  0
 24 25  1  0
 25 26  2  0
 10 27  1  0
 27 28  1  0
 28 29  1  0
 28 30  1  0
 30 31  1  0
 30 32  1  0
 30 33  1  0
 28 34  1  0
 34 35  1  0
 34 36  1  0
 34 37  1  0
 27 38  2  0
 38 39  1  0
 38  2  1  0
 25 12  1  0
 23 14  1  0
M  CHG  3  13  -1  18  -1  24  -1
M  END
>  <UniqueID>  (50) 
48

>  <SMILES>  (50) 
Cc1cccc(C(C)C)c1/N=c1\[n-]c2cc([O-])ccc2[n-]c1=O

>  <Energy>  (50) 
52.828864679469

>  <Genealogy>  (50) 
Cc1cccc(C(C)C)c1N=c1[n-]c2cc([O-])ccc2[n-]c1=O (protonated)
Cc1cccc(C(C)C)c1/N=c1\[n-]c2cc([O-])ccc2[n-]c1=O (cis-trans isomerization)
Cc1cccc(C(C)C)c1/N=c1\[n-]c2cc([O-])ccc2[n-]c1=O (3D coordinates assigned)
Cc1cccc(C(C)C)c1/N=c1\[n-]c2cc([O-])ccc2[n-]c1=O (optimized conformer: 52.828864679469 kcal/mol)

>  <smiles>  (50) 
Cc1cccc(C(C)C)c1N=c1[nH]c2cc(O)ccc2[nH]c1=O

>  <score_type>  (50) 
oracle

>  <origin>  (50) 
adgpu

>  <m_score__min__energy>  (50) 
-10.92

>  <m_primary>  (50) 
energy

$$$$
