0:0
     RDKit          3D

 40 41  0  0  0  0  0  0  0  0999 V2000
   -3.6230   22.3280  -31.9720 C   0  0  0  0  0  0  0  0  0  0  0  0
   -3.2820   22.3480  -30.4820 C   0  0  0  0  0  0  0  0  0  0  0  0
   -3.0520   23.7810  -29.9500 C   0  0  0  0  0  0  0  0  0  0  0  0
   -3.7310   24.8120  -30.7490 N   0  0  0  0  0  0  0  0  0  0  0  0
   -5.0220   25.2090  -30.1740 C   0  0  0  0  0  0  0  0  0  0  0  0
   -6.0870   24.2500  -30.6300 C   0  0  0  0  0  0  0  0  0  0  0  0
   -6.4550   24.1920  -31.9840 C   0  0  0  0  0  0  0  0  0  0  0  0
   -7.4200   23.2760  -32.4130 C   0  0  0  0  0  0  0  0  0  0  0  0
   -8.0200   22.4070  -31.4940 C   0  0  0  0  0  0  0  0  0  0  0  0
   -9.2640   21.2380  -32.0440 S   0  0  0  0  0  0  0  0  0  0  0  0
   -8.0440   19.9850  -32.4380 C   0  0  0  0  0  0  0  0  0  0  0  0
   -7.0680   20.2370  -33.4090 C   0  0  0  0  0  0  0  0  0  0  0  0
   -6.1130   19.2610  -33.7140 C   0  0  0  0  0  0  0  0  0  0  0  0
   -6.1220   18.0290  -33.0410 C   0  0  0  0  0  0  0  0  0  0  0  0
   -5.1220   16.9680  -33.3940 C   0  0  0  0  0  0  0  0  0  0  0  0
   -7.1160   17.7730  -32.0840 C   0  0  0  0  0  0  0  0  0  0  0  0
   -8.0700   18.7500  -31.7800 C   0  0  0  0  0  0  0  0  0  0  0  0
   -7.6420   22.4470  -30.1480 C   0  0  0  0  0  0  0  0  0  0  0  0
   -6.6770   23.3610  -29.7170 C   0  0  0  0  0  0  0  0  0  0  0  0
   -4.7139   22.2640  -32.0976 H   0  0  0  0  0  0  0  0  0  0  0  0
   -3.2528   23.2494  -32.4453 H   0  0  0  0  0  0  0  0  0  0  0  0
   -3.1476   21.4562  -32.4453 H   0  0  0  0  0  0  0  0  0  0  0  0
   -4.1129   21.8927  -29.9232 H   0  0  0  0  0  0  0  0  0  0  0  0
   -2.3473   21.7847  -30.3440 H   0  0  0  0  0  0  0  0  0  0  0  0
   -3.4278   23.8351  -28.9176 H   0  0  0  0  0  0  0  0  0  0  0  0
   -1.9720   23.9815  -30.0079 H   0  0  0  0  0  0  0  0  0  0  0  0
   -3.1140   25.6560  -30.8260 H   0  0  0  0  0  0  0  0  0  0  0  0
   -4.9564   25.1899  -29.0761 H   0  0  0  0  0  0  0  0  0  0  0  0
   -5.2758   26.2261  -30.5072 H   0  0  0  0  0  0  0  0  0  0  0  0
   -5.9821   24.8699  -32.7098 H   0  0  0  0  0  0  0  0  0  0  0  0
   -7.7082   23.2380  -33.4739 H   0  0  0  0  0  0  0  0  0  0  0  0
   -7.0517   21.2039  -33.9332 H   0  0  0  0  0  0  0  0  0  0  0  0
   -5.3526   19.4597  -34.4837 H   0  0  0  0  0  0  0  0  0  0  0  0
   -4.7102   16.5311  -32.4723 H   0  0  0  0  0  0  0  0  0  0  0  0
   -5.6149   16.1814  -33.9843 H   0  0  0  0  0  0  0  0  0  0  0  0
   -4.3077   17.4135  -33.9843 H   0  0  0  0  0  0  0  0  0  0  0  0
   -7.1451   16.8004  -31.5709 H   0  0  0  0  0  0  0  0  0  0  0  0
   -8.8417   18.5473  -31.0227 H   0  0  0  0  0  0  0  0  0  0  0  0
   -8.1054   21.7574  -29.4271 H   0  0  0  0  0  0  0  0  0  0  0  0
   -6.3784   23.3843  -28.6586 H   0  0  0  0  0  0  0  0  0  0  0  0
  1  2  1  0
  2  3  1  0
  3  4  1  0
  4  5  1  0
  5  6  1  0
  6  7  2  0
  7  8  1  0
  8  9  2  0
  9 10  1  0
 10 11  1  0
 11 12  2  0
 12 13  1  0
 13 14  2  0
 14 15  1  0
 14 16  1  0
 16 17  2  0
  9 18  1  0
 18 19  2  0
 19  6  1  0
 17 11  1  0
  1 20  1  0
  1 21  1  0
  1 22  1  0
  2 23  1  0
  2 24  1  0
  3 25  1  0
  3 26  1  0
  4 27  1  0
  5 28  1  0
  5 29  1  0
  7 30  1  0
  8 31  1  0
 12 32  1  0
 13 33  1  0
 15 34  1  0
 15 35  1  0
 15 36  1  0
 16 37  1  0
 17 38  1  0
 18 39  1  0
 19 40  1  0
M  END
>  <UniqueID>  (1) 
1

>  <SMILES>  (1) 
CCCNCc1ccc(Sc2ccc(C)cc2)cc1

>  <Energy>  (1) 
32.22242706250691

>  <Genealogy>  (1) 
CCCNCc1ccc(Sc2ccc(C)cc2)cc1 (3D coordinates assigned)
CCCNCc1ccc(Sc2ccc(C)cc2)cc1 (optimized conformer: 32.22242706250691 kcal/mol)

>  <smiles>  (1) 
CCCNCc1ccc(Sc2ccc(C)cc2)cc1

>  <score_type>  (1) 
oracle

>  <origin>  (1) 
adgpu

>  <m_score__min__energy>  (1) 
-8.7599999999999998

>  <m_primary>  (1) 
energy

$$$$
1:0
     RDKit          3D

 61 64  0  0  0  0  0  0  0  0999 V2000
    1.5609   15.3593  -33.0715 H   0  0  0  0  0  0  0  0  0  0  0  0
    0.6370   15.9550  -33.0310 C   0  0  0  0  0  0  0  0  0  0  0  0
    0.5390   17.0020  -31.9940 C   0  0  0  0  0  0  0  0  0  0  0  0
    0.8770   16.7130  -30.8150 O   0  0  0  0  0  0  0  0  0  0  0  0
    0.1050   18.3340  -32.3300 N   0  0  0  0  0  0  0  0  0  0  0  0
   -0.0350   18.5630  -33.3400 H   0  0  0  0  0  0  0  0  0  0  0  0
   -0.3480   19.3060  -31.3740 C   0  0  0  0  0  0  0  0  0  0  0  0
   -0.6330   20.6090  -31.8110 C   0  0  0  0  0  0  0  0  0  0  0  0
   -0.5479   20.8569  -32.8793 H   0  0  0  0  0  0  0  0  0  0  0  0
   -1.0240   21.5940  -30.9000 C   0  0  0  0  0  0  0  0  0  0  0  0
   -1.2475   22.6112  -31.2540 H   0  0  0  0  0  0  0  0  0  0  0  0
   -1.1320   21.2890  -29.5370 C   0  0  0  0  0  0  0  0  0  0  0  0
   -1.5790   22.5370  -28.3800 S   0  0  0  0  0  0  0  0  0  0  0  0
   -0.4350   22.8880  -27.4700 O   0  0  0  0  0  0  0  0  0  0  0  0
   -2.7020   21.9970  -27.5380 O   0  0  0  0  0  0  0  0  0  0  0  0
   -2.1530   23.9600  -29.1930 N   0  0  0  0  0  0  0  0  0  0  0  0
   -3.1950   24.1260  -29.9550 C   0  0  0  0  0  0  0  0  0  0  0  0
   -3.4840   25.2970  -30.4710 O   0  0  0  0  0  0  0  0  0  0  0  0
   -4.5570   25.2440  -31.2030 N   0  0  0  0  0  0  0  0  0  0  0  0
   -4.9980   23.9730  -31.1680 C   0  0  0  0  0  0  0  0  0  0  0  0
   -6.2010   23.5010  -31.9170 C   0  0  0  0  0  0  0  0  0  0  0  0
   -6.9804   23.1952  -31.2036 H   0  0  0  0  0  0  0  0  0  0  0  0
   -6.5823   24.3162  -32.5495 H   0  0  0  0  0  0  0  0  0  0  0  0
   -5.9262   22.6440  -32.5495 H   0  0  0  0  0  0  0  0  0  0  0  0
   -4.1590   23.2060  -30.3720 C   0  0  0  0  0  0  0  0  0  0  0  0
   -4.2730   21.7260  -30.1530 C   0  0  0  0  0  0  0  0  0  0  0  0
   -4.2892   21.5153  -29.0735 H   0  0  0  0  0  0  0  0  0  0  0  0
   -5.2022   21.3578  -30.6125 H   0  0  0  0  0  0  0  0  0  0  0  0
   -3.4112   21.2199  -30.6125 H   0  0  0  0  0  0  0  0  0  0  0  0
   -0.8320   19.9950  -29.0930 C   0  0  0  0  0  0  0  0  0  0  0  0
   -0.9073   19.7531  -28.0226 H   0  0  0  0  0  0  0  0  0  0  0  0
   -0.4370   19.0080  -30.0030 C   0  0  0  0  0  0  0  0  0  0  0  0
   -0.1955   17.9964  -29.6447 H   0  0  0  0  0  0  0  0  0  0  0  0
   -0.3240   15.6800  -33.9280 C   0  0  0  0  0  0  0  0  0  0  0  0
   -0.0792   14.9785  -34.7391 H   0  0  0  0  0  0  0  0  0  0  0  0
   -1.6870   16.2520  -33.9040 C   0  0  0  0  0  0  0  0  0  0  0  0
   -2.6820   15.6290  -33.1400 C   0  0  0  0  0  0  0  0  0  0  0  0
   -2.4402   14.7316  -32.5516 H   0  0  0  0  0  0  0  0  0  0  0  0
   -3.9810   16.1440  -33.1230 C   0  0  0  0  0  0  0  0  0  0  0  0
   -4.7629   15.6367  -32.5388 H   0  0  0  0  0  0  0  0  0  0  0  0
   -4.2930   17.3030  -33.8460 C   0  0  0  0  0  0  0  0  0  0  0  0
   -5.9360   17.9470  -33.8320 S   0  0  0  0  0  0  0  0  0  0  0  0
   -6.9080   16.8190  -34.0480 O   0  0  0  0  0  0  0  0  0  0  0  0
   -6.0960   18.9140  -34.9720 O   0  0  0  0  0  0  0  0  0  0  0  0
   -6.3150   18.7560  -32.3260 N   0  0  0  0  0  0  0  0  0  0  0  0
   -7.5480   18.2240  -31.7340 C   0  0  0  0  0  0  0  0  0  0  0  0
   -7.7441   17.2157  -32.1276 H   0  0  0  0  0  0  0  0  0  0  0  0
   -7.4466   18.1634  -30.6404 H   0  0  0  0  0  0  0  0  0  0  0  0
   -8.6970   19.1520  -32.1020 C   0  0  0  0  0  0  0  0  0  0  0  0
   -9.3272   18.6925  -32.8777 H   0  0  0  0  0  0  0  0  0  0  0  0
   -9.3453   19.3565  -31.2372 H   0  0  0  0  0  0  0  0  0  0  0  0
   -8.0520   20.4190  -32.6280 C   0  0  0  0  0  0  0  0  0  0  0  0
   -8.3505   20.5961  -33.6718 H   0  0  0  0  0  0  0  0  0  0  0  0
   -8.3611   21.3017  -32.0489 H   0  0  0  0  0  0  0  0  0  0  0  0
   -6.5520   20.1870  -32.5380 C   0  0  0  0  0  0  0  0  0  0  0  0
   -6.0700   20.5085  -33.4730 H   0  0  0  0  0  0  0  0  0  0  0  0
   -6.1302   20.7667  -31.7038 H   0  0  0  0  0  0  0  0  0  0  0  0
   -3.2910   17.9450  -34.5860 C   0  0  0  0  0  0  0  0  0  0  0  0
   -3.5267   18.8592  -35.1504 H   0  0  0  0  0  0  0  0  0  0  0  0
   -1.9950   17.4280  -34.6090 C   0  0  0  0  0  0  0  0  0  0  0  0
   -1.2104   17.9437  -35.1820 H   0  0  0  0  0  0  0  0  0  0  0  0
  1  2  1  0
  2  3  1  0
  3  4  2  0
  3  5  1  0
  5  6  1  0
  5  7  1  0
  7  8  2  0
  8  9  1  0
  8 10  1  0
 10 11  1  0
 10 12  2  0
 12 13  1  0
 13 14  2  0
 13 15  2  0
 13 16  1  0
 16 17  2  3
 17 18  1  0
 18 19  1  0
 19 20  1  0
 20 21  1  0
 21 22  1  0
 21 23  1  0
 21 24  1  0
 20 25  2  0
 25 26  1  0
 26 27  1  0
 26 28  1  0
 26 29  1  0
 12 30  1  0
 30 31  1  0
 30 32  2  0
 32 33  1  0
  2 34  2  0
 34 35  1  0
 34 36  1  0
 36 37  2  0
 37 38  1  0
 37 39  1  0
 39 40  1  0
 39 41  2  0
 41 42  1  0
 42 43  2  0
 42 44  2  0
 42 45  1  0
 45 46  1  0
 46 47  1  0
 46 48  1  0
 46 49  1  0
 49 50  1  0
 49 51  1  0
 49 52  1  0
 52 53  1  0
 52 54  1  0
 52 55  1  0
 55 56  1  0
 55 57  1  0
 41 58  1  0
 58 59  1  0
 58 60  2  0
 60 61  1  0
 32  7  1  0
 60 36  1  0
 25 17  1  0
 55 45  1  0
M  CHG  1  19  -1
M  END
>  <UniqueID>  (2) 
2

>  <SMILES>  (2) 
Cc1[n-]oc(=NS(=O)(=O)c2ccc(NC(=O)/C=C\c3ccc(S(=O)(=O)N4CCCC4)cc3)cc2)c1C

>  <Energy>  (2) 
114.37022890562112

>  <Genealogy>  (2) 
Cc1[n-]oc(=NS(=O)(=O)c2ccc(NC(=O)C=Cc3ccc(S(=O)(=O)N4CCCC4)cc3)cc2)c1C (protonated)
Cc1[n-]oc(=NS(=O)(=O)c2ccc(NC(=O)/C=C\c3ccc(S(=O)(=O)N4CCCC4)cc3)cc2)c1C (cis-trans isomerization)
Cc1[n-]oc(=NS(=O)(=O)c2ccc(NC(=O)/C=C\c3ccc(S(=O)(=O)N4CCCC4)cc3)cc2)c1C (3D coordinates assigned)
Cc1[n-]oc(=NS(=O)(=O)c2ccc(NC(=O)/C=C\c3ccc(S(=O)(=O)N4CCCC4)cc3)cc2)c1C (nonaromatic ring conformer: 114.37022890562112 kcal/mol)

>  <smiles>  (2) 
Cc1[nH]oc(=NS(=O)(=O)c2ccc(NC(=O)C=Cc3ccc(S(=O)(=O)N4CCCC4)cc3)cc2)c1C

>  <score_type>  (2) 
oracle

>  <origin>  (2) 
adgpu

>  <m_score__min__energy>  (2) 
-12.43

>  <m_primary>  (2) 
energy

$$$$
2:0
     RDKit          3D

 44 47  0  0  0  0  0  0  0  0999 V2000
   -4.9580   15.4630  -34.1620 C   0  0  0  0  0  0  0  0  0  0  0  0
   -4.2200   16.4130  -34.8700 C   0  0  0  0  0  0  0  0  0  0  0  0
   -4.6530   17.7430  -34.9210 C   0  0  0  0  0  0  0  0  0  0  0  0
   -5.8330   18.1310  -34.2550 C   0  0  0  0  0  0  0  0  0  0  0  0
   -6.2440   19.4700  -34.1900 O   0  0  0  0  0  0  0  0  0  0  0  0
   -5.7060   20.4350  -33.3300 C   0  0  0  0  0  0  0  0  0  0  0  0
   -4.3360   20.4080  -33.0430 C   0  0  0  0  0  0  0  0  0  0  0  0
   -3.7740   21.3630  -32.1880 C   0  0  0  0  0  0  0  0  0  0  0  0
   -4.5840   22.3390  -31.5770 C   0  0  0  0  0  0  0  0  0  0  0  0
   -4.0050   23.3480  -30.6580 C   0  0  0  0  0  0  0  0  0  0  0  0
   -3.2740   23.1030  -29.5120 C   0  0  0  0  0  0  0  0  0  0  0  0
   -2.9710   24.3630  -29.0310 C   0  0  0  0  0  0  0  0  0  0  0  0
   -2.1930   24.6910  -27.7810 C   0  0  0  0  0  0  0  0  0  0  0  0
   -1.4700   23.4480  -27.2270 C   0  0  0  0  0  0  0  0  0  0  0  0
   -0.1250   23.1690  -27.9310 C   0  0  0  0  0  0  0  0  0  0  0  0
    0.6870   24.3710  -28.2130 N   0  0  0  0  0  0  0  0  0  0  0  0
    0.1970   25.5910  -27.5590 C   0  0  0  0  0  0  0  0  0  0  0  0
   -1.2430   25.8970  -27.9880 C   0  0  0  0  0  0  0  0  0  0  0  0
   -3.4950   25.2960  -29.8470 N   0  0  0  0  0  0  0  0  0  0  0  0
   -4.1210   24.6800  -30.8370 N   0  0  0  0  0  0  0  0  0  0  0  0
   -5.9670   22.3410  -31.8420 C   0  0  0  0  0  0  0  0  0  0  0  0
   -6.5220   21.4000  -32.7160 C   0  0  0  0  0  0  0  0  0  0  0  0
   -6.5910   17.1610  -33.5840 C   0  0  0  0  0  0  0  0  0  0  0  0
   -6.1590   15.8310  -33.5400 C   0  0  0  0  0  0  0  0  0  0  0  0
   -4.5973   14.4262  -34.0922 H   0  0  0  0  0  0  0  0  0  0  0  0
   -3.2966   16.1159  -35.3887 H   0  0  0  0  0  0  0  0  0  0  0  0
   -4.0704   18.4880  -35.4828 H   0  0  0  0  0  0  0  0  0  0  0  0
   -3.6981   19.6323  -33.4917 H   0  0  0  0  0  0  0  0  0  0  0  0
   -2.6917   21.3509  -31.9920 H   0  0  0  0  0  0  0  0  0  0  0  0
   -2.9968   22.1295  -29.0813 H   0  0  0  0  0  0  0  0  0  0  0  0
   -2.9153   25.0040  -27.0127 H   0  0  0  0  0  0  0  0  0  0  0  0
   -1.2790   23.6024  -26.1548 H   0  0  0  0  0  0  0  0  0  0  0  0
   -2.1219   22.5805  -27.4072 H   0  0  0  0  0  0  0  0  0  0  0  0
    0.4657   22.5000  -27.2880 H   0  0  0  0  0  0  0  0  0  0  0  0
   -0.3720   22.7258  -28.9070 H   0  0  0  0  0  0  0  0  0  0  0  0
    0.7030   24.5350  -29.2480 H   0  0  0  0  0  0  0  0  0  0  0  0
    0.2268   25.4524  -26.4682 H   0  0  0  0  0  0  0  0  0  0  0  0
    0.8400   26.4329  -27.8553 H   0  0  0  0  0  0  0  0  0  0  0  0
   -1.6152   26.7451  -27.3945 H   0  0  0  0  0  0  0  0  0  0  0  0
   -1.2289   26.1306  -29.0628 H   0  0  0  0  0  0  0  0  0  0  0  0
   -6.6150   23.0871  -31.3588 H   0  0  0  0  0  0  0  0  0  0  0  0
   -7.6022   21.4157  -32.9234 H   0  0  0  0  0  0  0  0  0  0  0  0
   -7.5308   17.4473  -33.0893 H   0  0  0  0  0  0  0  0  0  0  0  0
   -6.7620   15.0740  -33.0172 H   0  0  0  0  0  0  0  0  0  0  0  0
  1  2  2  0
  2  3  1  0
  3  4  2  0
  4  5  1  0
  5  6  1  0
  6  7  2  0
  7  8  1  0
  8  9  2  0
  9 10  1  0
 10 11  1  0
 11 12  2  0
 12 13  1  0
 13 14  1  0
 14 15  1  0
 15 16  1  0
 16 17  1  0
 17 18  1  0
 12 19  1  0
 19 20  1  0
  9 21  1  0
 21 22  2  0
  4 23  1  0
 23 24  2  0
 24  1  1  0
 22  6  1  0
 20 10  2  0
 18 13  1  0
  1 25  1  0
  2 26  1  0
  3 27  1  0
  7 28  1  0
  8 29  1  0
 11 30  1  0
 13 31  1  0
 14 32  1  0
 14 33  1  0
 15 34  1  0
 15 35  1  0
 16 36  1  0
 17 37  1  0
 17 38  1  0
 18 39  1  0
 18 40  1  0
 21 41  1  0
 22 42  1  0
 23 43  1  0
 24 44  1  0
M  CHG  1  19  -1
M  END
>  <UniqueID>  (3) 
3

>  <SMILES>  (3) 
c1ccc(Oc2ccc(-c3cc(C4CCNCC4)[n-]n3)cc2)cc1

>  <Energy>  (3) 
92.24316921417424

>  <Genealogy>  (3) 
c1ccc(Oc2ccc(-c3cc(C4CCNCC4)[n-]n3)cc2)cc1 (protonated)
c1ccc(Oc2ccc(-c3cc(C4CCNCC4)[n-]n3)cc2)cc1 (3D coordinates assigned)
c1ccc(Oc2ccc(-c3cc(C4CCNCC4)[n-]n3)cc2)cc1 (nonaromatic ring conformer: 92.24316921417424 kcal/mol)

>  <smiles>  (3) 
c1ccc(Oc2ccc(-c3cc(C4CCNCC4)[nH]n3)cc2)cc1

>  <score_type>  (3) 
oracle

>  <origin>  (3) 
adgpu

>  <m_score__min__energy>  (3) 
-10.449999999999999

>  <m_primary>  (3) 
energy

$$$$
3:0
     RDKit          3D

 42 44  0  0  0  0  0  0  0  0999 V2000
   -9.0000   18.9300  -32.2670 C   0  0  0  0  0  0  0  0  0  0  0  0
   -7.9930   18.0100  -31.9690 C   0  0  0  0  0  0  0  0  0  0  0  0
   -6.6500   18.3880  -32.0550 C   0  0  0  0  0  0  0  0  0  0  0  0
   -6.3020   19.6910  -32.4500 C   0  0  0  0  0  0  0  0  0  0  0  0
   -4.8440   20.0980  -32.5440 C   0  0  0  0  0  0  0  0  0  0  0  0
   -4.4770   21.2420  -31.6730 N   0  0  0  0  0  0  0  0  0  0  0  0
   -3.1600   21.0810  -31.0150 C   0  0  0  0  0  0  0  0  0  0  0  0
   -2.9660   22.1160  -29.9380 C   0  0  0  0  0  0  0  0  0  0  0  0
   -1.9220   23.0530  -30.0260 C   0  0  0  0  0  0  0  0  0  0  0  0
   -1.7580   24.0200  -29.0290 C   0  0  0  0  0  0  0  0  0  0  0  0
   -2.6400   24.0670  -27.9460 C   0  0  0  0  0  0  0  0  0  0  0  0
   -3.6910   23.1500  -27.8600 C   0  0  0  0  0  0  0  0  0  0  0  0
   -3.8590   22.1810  -28.8540 C   0  0  0  0  0  0  0  0  0  0  0  0
   -4.5980   22.5420  -32.3610 C   0  0  0  0  0  0  0  0  0  0  0  0
   -5.3010   23.5350  -31.4800 C   0  0  0  0  0  0  0  0  0  0  0  0
   -6.5500   23.2340  -30.9190 C   0  0  0  0  0  0  0  0  0  0  0  0
   -7.1730   24.1690  -30.0910 C   0  0  0  0  0  0  0  0  0  0  0  0
   -6.5500   25.3910  -29.8310 C   0  0  0  0  0  0  0  0  0  0  0  0
   -5.3070   25.6590  -30.4070 C   0  0  0  0  0  0  0  0  0  0  0  0
   -4.7140   24.7350  -31.2110 N   0  0  0  0  0  0  0  0  0  0  0  0
   -7.3240   20.6170  -32.7270 C   0  0  0  0  0  0  0  0  0  0  0  0
   -8.6660   20.2340  -32.6400 C   0  0  0  0  0  0  0  0  0  0  0  0
  -10.0561   18.6280  -32.2081 H   0  0  0  0  0  0  0  0  0  0  0  0
   -8.2569   16.9860  -31.6660 H   0  0  0  0  0  0  0  0  0  0  0  0
   -5.8608   17.6612  -31.8120 H   0  0  0  0  0  0  0  0  0  0  0  0
   -4.2252   19.2344  -32.2590 H   0  0  0  0  0  0  0  0  0  0  0  0
   -4.6710   20.4207  -33.5813 H   0  0  0  0  0  0  0  0  0  0  0  0
   -3.1023   20.0787  -30.5656 H   0  0  0  0  0  0  0  0  0  0  0  0
   -2.3717   21.2095  -31.7713 H   0  0  0  0  0  0  0  0  0  0  0  0
   -1.2316   23.0256  -30.8819 H   0  0  0  0  0  0  0  0  0  0  0  0
   -0.9334   24.7448  -29.0974 H   0  0  0  0  0  0  0  0  0  0  0  0
   -2.5069   24.8260  -27.1610 H   0  0  0  0  0  0  0  0  0  0  0  0
   -4.3871   23.1905  -27.0092 H   0  0  0  0  0  0  0  0  0  0  0  0
   -4.6930   21.4668  -28.7876 H   0  0  0  0  0  0  0  0  0  0  0  0
   -3.5935   22.9192  -32.6032 H   0  0  0  0  0  0  0  0  0  0  0  0
   -5.1820   22.4057  -33.2832 H   0  0  0  0  0  0  0  0  0  0  0  0
   -7.0348   22.2693  -31.1296 H   0  0  0  0  0  0  0  0  0  0  0  0
   -8.1526   23.9436  -29.6443 H   0  0  0  0  0  0  0  0  0  0  0  0
   -7.0331   26.1342  -29.1797 H   0  0  0  0  0  0  0  0  0  0  0  0
   -4.8061   26.6185  -30.2107 H   0  0  0  0  0  0  0  0  0  0  0  0
   -7.0663   21.6473  -33.0134 H   0  0  0  0  0  0  0  0  0  0  0  0
   -9.4601   20.9609  -32.8657 H   0  0  0  0  0  0  0  0  0  0  0  0
  1  2  2  0
  2  3  1  0
  3  4  2  0
  4  5  1  0
  5  6  1  0
  6  7  1  0
  7  8  1  0
  8  9  2  0
  9 10  1  0
 10 11  2  0
 11 12  1  0
 12 13  2  0
  6 14  1  0
 14 15  1  0
 15 16  2  0
 16 17  1  0
 17 18  2  0
 18 19  1  0
 19 20  2  0
  4 21  1  0
 21 22  2  0
 22  1  1  0
 13  8  1  0
 20 15  1  0
  1 23  1  0
  2 24  1  0
  3 25  1  0
  5 26  1  0
  5 27  1  0
  7 28  1  0
  7 29  1  0
  9 30  1  0
 10 31  1  0
 11 32  1  0
 12 33  1  0
 13 34  1  0
 14 35  1  0
 14 36  1  0
 16 37  1  0
 17 38  1  0
 18 39  1  0
 19 40  1  0
 21 41  1  0
 22 42  1  0
M  END
>  <UniqueID>  (4) 
4

>  <SMILES>  (4) 
c1ccc(CN(Cc2ccccc2)Cc2ccccn2)cc1

>  <Energy>  (4) 
48.04148933694702

>  <Genealogy>  (4) 
c1ccc(CN(Cc2ccccc2)Cc2ccccn2)cc1 (3D coordinates assigned)
c1ccc(CN(Cc2ccccc2)Cc2ccccn2)cc1 (optimized conformer: 48.04148933694702 kcal/mol)

>  <smiles>  (4) 
c1ccc(CN(Cc2ccccc2)Cc2ccccn2)cc1

>  <score_type>  (4) 
oracle

>  <origin>  (4) 
adgpu

>  <m_score__min__energy>  (4) 
-7.96

>  <m_primary>  (4) 
energy

$$$$
4:0
     RDKit          3D

 28 29  0  0  0  0  0  0  0  0999 V2000
   -3.6580   19.5440  -33.8080 C   0  0  0  0  0  0  0  0  0  0  0  0
   -4.9750   18.9370  -33.5970 N   0  0  0  0  0  0  0  0  0  0  0  0
   -5.2140   17.5340  -33.9490 C   0  0  0  0  0  0  0  0  0  0  0  0
   -6.0430   19.7250  -33.0390 C   0  0  0  0  0  0  0  0  0  0  0  0
   -7.3290   19.2820  -33.0890 N   0  0  0  0  0  0  0  0  0  0  0  0
   -8.3230   20.0020  -32.5700 N   0  0  0  0  0  0  0  0  0  0  0  0
   -8.0890   21.2020  -31.9800 C   0  0  0  0  0  0  0  0  0  0  0  0
   -6.7740   21.6860  -31.9230 C   0  0  0  0  0  0  0  0  0  0  0  0
   -6.4380   22.9870  -31.2870 C   0  0  0  0  0  0  0  0  0  0  0  0
   -7.4350   23.7070  -30.6010 C   0  0  0  0  0  0  0  0  0  0  0  0
   -7.1360   24.9290  -29.9920 C   0  0  0  0  0  0  0  0  0  0  0  0
   -5.8410   25.4440  -30.0520 C   0  0  0  0  0  0  0  0  0  0  0  0
   -4.8340   24.7370  -30.7160 C   0  0  0  0  0  0  0  0  0  0  0  0
   -3.5440   25.2590  -30.7570 O   0  0  0  0  0  0  0  0  0  0  0  0
   -5.1310   23.5120  -31.3300 C   0  0  0  0  0  0  0  0  0  0  0  0
   -5.7820   20.9230  -32.4530 N   0  0  0  0  0  0  0  0  0  0  0  0
   -3.1929   19.7584  -32.8345 H   0  0  0  0  0  0  0  0  0  0  0  0
   -3.0203   18.8490  -34.3739 H   0  0  0  0  0  0  0  0  0  0  0  0
   -3.7722   20.4803  -34.3739 H   0  0  0  0  0  0  0  0  0  0  0  0
   -5.3156   16.9377  -33.0303 H   0  0  0  0  0  0  0  0  0  0  0  0
   -6.1383   17.4567  -34.5404 H   0  0  0  0  0  0  0  0  0  0  0  0
   -4.3675   17.1550  -34.5404 H   0  0  0  0  0  0  0  0  0  0  0  0
   -8.9180   21.7857  -31.5532 H   0  0  0  0  0  0  0  0  0  0  0  0
   -8.4571   23.3045  -30.5440 H   0  0  0  0  0  0  0  0  0  0  0  0
   -7.9240   25.4861  -29.4640 H   0  0  0  0  0  0  0  0  0  0  0  0
   -5.6115   26.4086  -29.5758 H   0  0  0  0  0  0  0  0  0  0  0  0
   -3.1630   25.6640  -31.6050 H   0  0  0  0  0  0  0  0  0  0  0  0
   -4.3369   22.9559  -31.8498 H   0  0  0  0  0  0  0  0  0  0  0  0
  1  2  1  0
  2  3  1  0
  2  4  1  0
  4  5  2  0
  5  6  1  0
  6  7  2  0
  7  8  1  0
  8  9  1  0
  9 10  2  0
 10 11  1  0
 11 12  2  0
 12 13  1  0
 13 14  1  0
 13 15  2  0
  8 16  2  0
 16  4  1  0
 15  9  1  0
  1 17  1  0
  1 18  1  0
  1 19  1  0
  3 20  1  0
  3 21  1  0
  3 22  1  0
  7 23  1  0
 10 24  1  0
 11 25  1  0
 12 26  1  0
 14 27  1  0
 15 28  1  0
M  END
>  <UniqueID>  (5) 
5

>  <SMILES>  (5) 
CN(C)c1nncc(-c2cccc(O)c2)n1

>  <Energy>  (5) 
30.88464253643642

>  <Genealogy>  (5) 
CN(C)c1nncc(-c2cccc(O)c2)n1 (3D coordinates assigned)
CN(C)c1nncc(-c2cccc(O)c2)n1 (optimized conformer: 30.88464253643642 kcal/mol)

>  <smiles>  (5) 
CN(C)c1nncc(-c2cccc(O)c2)n1

>  <score_type>  (5) 
oracle

>  <origin>  (5) 
adgpu

>  <m_score__min__energy>  (5) 
-7.5499999999999998

>  <m_primary>  (5) 
energy

$$$$
5:0
     RDKit          3D

 42 44  0  0  0  0  0  0  0  0999 V2000
    0.1860   23.0290  -25.1100 C   0  0  0  0  0  0  0  0  0  0  0  0
    0.7120   23.0330  -26.4670 N   0  0  0  0  0  0  0  0  0  0  0  0
    0.1880   23.7600  -27.5910 C   0  0  0  0  0  0  0  0  0  0  0  0
    0.9770   24.5190  -28.2160 O   0  0  0  0  0  0  0  0  0  0  0  0
   -1.2260   23.6620  -28.0420 C   0  0  0  0  0  0  0  0  0  0  0  0
   -1.7160   24.5180  -29.0440 C   0  0  0  0  0  0  0  0  0  0  0  0
   -3.0510   24.4080  -29.4670 C   0  0  0  0  0  0  0  0  0  0  0  0
   -3.6100   25.2850  -30.4550 N   0  0  0  0  0  0  0  0  0  0  0  0
   -4.9900   25.3640  -30.8360 C   0  0  0  0  0  0  0  0  0  0  0  0
   -5.7500   26.2160  -30.3060 O   0  0  0  0  0  0  0  0  0  0  0  0
   -5.4940   24.5500  -31.9010 N   0  0  0  0  0  0  0  0  0  0  0  0
   -5.8480   23.1640  -31.8000 C   0  0  0  0  0  0  0  0  0  0  0  0
   -4.8340   22.2030  -31.8570 C   0  0  0  0  0  0  0  0  0  0  0  0
   -5.1380   20.8380  -31.7960 C   0  0  0  0  0  0  0  0  0  0  0  0
   -3.8200   19.6840  -31.9450 Cl  0  0  0  0  0  0  0  0  0  0  0  0
   -6.4780   20.4190  -31.6760 C   0  0  0  0  0  0  0  0  0  0  0  0
   -6.8870   18.6640  -31.5920 S   0  0  0  0  0  0  0  0  0  0  0  0
   -6.2330   18.3100  -33.2310 C   0  0  0  0  0  0  0  0  0  0  0  0
   -6.3530   19.1720  -34.2620 N   0  0  0  0  0  0  0  0  0  0  0  0
   -5.7410   18.5470  -35.2890 C   0  0  0  0  0  0  0  0  0  0  0  0
   -5.2550   17.3290  -34.8660 C   0  0  0  0  0  0  0  0  0  0  0  0
   -5.5530   17.1920  -33.5640 N   0  0  0  0  0  0  0  0  0  0  0  0
   -5.2470   16.0320  -32.7340 C   0  0  0  0  0  0  0  0  0  0  0  0
   -7.5040   21.3860  -31.6690 C   0  0  0  0  0  0  0  0  0  0  0  0
   -9.2040   20.9310  -31.6210 Cl  0  0  0  0  0  0  0  0  0  0  0  0
   -7.1860   22.7470  -31.7300 C   0  0  0  0  0  0  0  0  0  0  0  0
   -3.8820   23.4640  -28.8590 C   0  0  0  0  0  0  0  0  0  0  0  0
   -3.3650   22.6230  -27.8740 C   0  0  0  0  0  0  0  0  0  0  0  0
   -2.0660   22.7380  -27.4950 N   0  0  0  0  0  0  0  0  0  0  0  0
    1.0204   23.0353  -24.3933 H   0  0  0  0  0  0  0  0  0  0  0  0
   -0.4368   23.9224  -24.9555 H   0  0  0  0  0  0  0  0  0  0  0  0
   -0.4232   22.1262  -24.9555 H   0  0  0  0  0  0  0  0  0  0  0  0
   -1.0552   25.2724  -29.4958 H   0  0  0  0  0  0  0  0  0  0  0  0
   -3.7858   22.5232  -31.9508 H   0  0  0  0  0  0  0  0  0  0  0  0
   -5.6447   18.9485  -36.3086 H   0  0  0  0  0  0  0  0  0  0  0  0
   -4.7171   16.5970  -35.4864 H   0  0  0  0  0  0  0  0  0  0  0  0
   -5.3206   16.3110  -31.6725 H   0  0  0  0  0  0  0  0  0  0  0  0
   -5.9633   15.2261  -32.9518 H   0  0  0  0  0  0  0  0  0  0  0  0
   -4.2264   15.6843  -32.9518 H   0  0  0  0  0  0  0  0  0  0  0  0
   -7.9913   23.4963  -31.7230 H   0  0  0  0  0  0  0  0  0  0  0  0
   -4.9383   23.3845  -29.1555 H   0  0  0  0  0  0  0  0  0  0  0  0
   -4.0098   21.8660  -27.4037 H   0  0  0  0  0  0  0  0  0  0  0  0
  1  2  1  0
  2  3  1  0
  3  4  2  0
  3  5  1  0
  5  6  2  0
  6  7  1  0
  7  8  1  0
  8  9  1  0
  9 10  2  0
  9 11  1  0
 11 12  1  0
 12 13  2  0
 13 14  1  0
 14 15  1  0
 14 16  2  0
 16 17  1  0
 17 18  1  0
 18 19  2  0
 19 20  1  0
 20 21  2  0
 21 22  1  0
 22 23  1  0
 16 24  1  0
 24 25  1  0
 24 26  2  0
  7 27  2  0
 27 28  1  0
 28 29  2  0
 29  5  1  0
 26 12  1  0
 22 18  1  0
  1 30  1  0
  1 31  1  0
  1 32  1  0
  6 33  1  0
 13 34  1  0
 20 35  1  0
 21 36  1  0
 23 37  1  0
 23 38  1  0
 23 39  1  0
 26 40  1  0
 27 41  1  0
 28 42  1  0
M  CHG  3   2  -1   8  -1  11  -1
M  END
>  <UniqueID>  (6) 
6

>  <SMILES>  (6) 
C[N-]C(=O)c1cc([N-]C(=O)[N-]c2cc(Cl)c(Sc3nccn3C)c(Cl)c2)ccn1

>  <Energy>  (6) 
79.65829068599147

>  <Genealogy>  (6) 
C[N-]C(=O)c1cc([N-]C(=O)[N-]c2cc(Cl)c(Sc3nccn3C)c(Cl)c2)ccn1 (protonated)
C[N-]C(=O)c1cc([N-]C(=O)[N-]c2cc(Cl)c(Sc3nccn3C)c(Cl)c2)ccn1 (3D coordinates assigned)
C[N-]C(=O)c1cc([N-]C(=O)[N-]c2cc(Cl)c(Sc3nccn3C)c(Cl)c2)ccn1 (optimized conformer: 79.65829068599147 kcal/mol)

>  <smiles>  (6) 
CNC(=O)c1cc(NC(=O)Nc2cc(Cl)c(Sc3nccn3C)c(Cl)c2)ccn1

>  <score_type>  (6) 
oracle

>  <origin>  (6) 
adgpu

>  <m_score__min__energy>  (6) 
-11.300000000000001

>  <m_primary>  (6) 
energy

$$$$
6:0
     RDKit          3D

 46 49  0  0  0  0  0  0  0  0999 V2000
   -8.9310   18.9090  -32.1540 C   0  0  0  0  0  0  0  0  0  0  0  0
   -9.4580   20.2010  -32.0870 C   0  0  0  0  0  0  0  0  0  0  0  0
   -8.6040   21.3020  -31.9700 C   0  0  0  0  0  0  0  0  0  0  0  0
   -7.2120   21.1160  -31.9210 C   0  0  0  0  0  0  0  0  0  0  0  0
   -6.3330   22.2460  -31.7900 N   0  0  0  0  0  0  0  0  0  0  0  0
   -4.9390   22.1640  -32.2350 C   0  0  0  0  0  0  0  0  0  0  0  0
   -4.0430   22.7730  -31.1580 C   0  0  0  0  0  0  0  0  0  0  0  0
   -4.3900   24.1870  -30.8760 N   0  0  0  0  0  0  0  0  0  0  0  0
   -3.8750   24.6510  -29.5600 C   0  0  1  0  0  0  0  0  0  0  0  0
   -4.5680   23.9110  -28.4060 C   0  0  0  0  0  0  0  0  0  0  0  0
   -4.2240   24.5750  -27.0670 C   0  0  0  0  0  0  0  0  0  0  0  0
   -2.7470   24.8580  -26.9120 C   0  0  0  0  0  0  0  0  0  0  0  0
   -2.2510   25.1680  -25.6350 C   0  0  0  0  0  0  0  0  0  0  0  0
   -0.9060   25.5000  -25.4580 C   0  0  0  0  0  0  0  0  0  0  0  0
   -0.0440   25.5350  -26.5560 C   0  0  0  0  0  0  0  0  0  0  0  0
   -0.5250   25.2430  -27.8340 C   0  0  0  0  0  0  0  0  0  0  0  0
   -1.8780   24.9220  -28.0290 C   0  0  0  0  0  0  0  0  0  0  0  0
   -2.3420   24.5340  -29.4150 C   0  0  0  0  0  0  0  0  0  0  0  0
   -5.7740   24.6000  -31.2290 C   0  0  0  0  0  0  0  0  0  0  0  0
   -6.7990   23.4580  -31.1070 C   0  0  0  0  0  0  0  0  0  0  0  0
   -6.6910   19.8130  -31.9850 C   0  0  0  0  0  0  0  0  0  0  0  0
   -7.5470   18.7160  -32.1020 C   0  0  0  0  0  0  0  0  0  0  0  0
   -9.6042   18.0441  -32.2476 H   0  0  0  0  0  0  0  0  0  0  0  0
  -10.5468   20.3525  -32.1264 H   0  0  0  0  0  0  0  0  0  0  0  0
   -9.0234   22.3175  -31.9161 H   0  0  0  0  0  0  0  0  0  0  0  0
   -4.6628   21.1112  -32.3941 H   0  0  0  0  0  0  0  0  0  0  0  0
   -4.8148   22.7135  -33.1798 H   0  0  0  0  0  0  0  0  0  0  0  0
   -4.1545   22.1893  -30.2324 H   0  0  0  0  0  0  0  0  0  0  0  0
   -3.0065   22.7459  -31.5252 H   0  0  0  0  0  0  0  0  0  0  0  0
   -4.1159   25.7232  -29.5112 H   0  0  0  0  0  0  0  0  0  0  0  0
   -5.6571   23.9414  -28.5572 H   0  0  0  0  0  0  0  0  0  0  0  0
   -4.2196   22.8678  -28.3887 H   0  0  0  0  0  0  0  0  0  0  0  0
   -4.7727   25.5257  -26.9956 H   0  0  0  0  0  0  0  0  0  0  0  0
   -4.5112   23.8751  -26.2685 H   0  0  0  0  0  0  0  0  0  0  0  0
   -2.9272   25.1491  -24.7676 H   0  0  0  0  0  0  0  0  0  0  0  0
   -0.5254   25.7341  -24.4528 H   0  0  0  0  0  0  0  0  0  0  0  0
    1.0158   25.7931  -26.4140 H   0  0  0  0  0  0  0  0  0  0  0  0
    0.1607   25.2646  -28.6939 H   0  0  0  0  0  0  0  0  0  0  0  0
   -1.8631   25.1980  -30.1497 H   0  0  0  0  0  0  0  0  0  0  0  0
   -2.0611   23.4847  -29.5884 H   0  0  0  0  0  0  0  0  0  0  0  0
   -6.0777   25.4153  -30.5559 H   0  0  0  0  0  0  0  0  0  0  0  0
   -5.7615   24.9159  -32.2826 H   0  0  0  0  0  0  0  0  0  0  0  0
   -6.9568   23.2308  -30.0424 H   0  0  0  0  0  0  0  0  0  0  0  0
   -7.7376   23.7829  -31.5797 H   0  0  0  0  0  0  0  0  0  0  0  0
   -5.6031   19.6560  -31.9427 H   0  0  0  0  0  0  0  0  0  0  0  0
   -7.1320   17.6986  -32.1533 H   0  0  0  0  0  0  0  0  0  0  0  0
  1  2  2  0
  2  3  1  0
  3  4  2  0
  4  5  1  0
  5  6  1  0
  6  7  1  0
  7  8  1  0
  8  9  1  0
  9 10  1  0
 10 11  1  0
 11 12  1  0
 12 13  2  0
 13 14  1  0
 14 15  2  0
 15 16  1  0
 16 17  2  0
 17 18  1  0
  8 19  1  0
 19 20  1  0
  4 21  1  0
 21 22  2  0
 22  1  1  0
 20  5  1  0
 18  9  1  0
 17 12  1  0
  1 23  1  0
  2 24  1  0
  3 25  1  0
  6 26  1  0
  6 27  1  0
  7 28  1  0
  7 29  1  0
  9 30  1  1
 10 31  1  0
 10 32  1  0
 11 33  1  0
 11 34  1  0
 13 35  1  0
 14 36  1  0
 15 37  1  0
 16 38  1  0
 18 39  1  0
 18 40  1  0
 19 41  1  0
 19 42  1  0
 20 43  1  0
 20 44  1  0
 21 45  1  0
 22 46  1  0
M  END
>  <UniqueID>  (7) 
7

>  <SMILES>  (7) 
c1ccc(N2CCN([C@H]3CCc4ccccc4C3)CC2)cc1

>  <Energy>  (7) 
66.16243004414173

>  <Genealogy>  (7) 
c1ccc(N2CCN([C@H]3CCc4ccccc4C3)CC2)cc1 (chirality)
c1ccc(N2CCN([C@H]3CCc4ccccc4C3)CC2)cc1 (3D coordinates assigned)
c1ccc(N2CCN([C@H]3CCc4ccccc4C3)CC2)cc1 (nonaromatic ring conformer: 66.16243004414173 kcal/mol)

>  <smiles>  (7) 
c1ccc(N2CCN(C3CCc4ccccc4C3)CC2)cc1

>  <score_type>  (7) 
oracle

>  <origin>  (7) 
adgpu

>  <m_score__min__energy>  (7) 
-8.9600000000000009

>  <m_primary>  (7) 
energy

$$$$
7:0
     RDKit          3D

 54 56  0  0  0  0  0  0  0  0999 V2000
   -5.4190   16.6200  -34.2540 C   0  0  0  0  0  0  0  0  0  0  0  0
   -4.1940   17.2520  -34.6100 O   0  0  0  0  0  0  0  0  0  0  0  0
   -3.6800   18.3990  -33.9820 C   0  0  0  0  0  0  0  0  0  0  0  0
   -4.4650   19.5470  -33.7640 C   0  0  0  0  0  0  0  0  0  0  0  0
   -3.9200   20.6680  -33.1380 C   0  0  0  0  0  0  0  0  0  0  0  0
   -2.5800   20.6680  -32.7260 C   0  0  0  0  0  0  0  0  0  0  0  0
   -2.0060   21.8680  -32.0170 C   0  0  0  0  0  0  0  0  0  0  0  0
   -2.3470   21.8480  -30.5270 C   0  0  0  0  0  0  0  0  0  0  0  0
   -2.5590   23.2080  -30.0410 N   0  0  0  0  0  0  0  0  0  0  0  0
   -3.6630   24.0440  -30.4090 C   0  0  0  0  0  0  0  0  0  0  0  0
   -3.4920   25.2900  -30.4560 O   0  0  0  0  0  0  0  0  0  0  0  0
   -4.9850   23.4890  -30.7600 C   0  0  0  0  0  0  0  0  0  0  0  0
   -5.8000   22.9390  -29.7580 C   0  0  0  0  0  0  0  0  0  0  0  0
   -7.0460   22.3960  -30.0820 C   0  0  0  0  0  0  0  0  0  0  0  0
   -7.4870   22.3870  -31.4120 C   0  0  0  0  0  0  0  0  0  0  0  0
   -9.0470   21.6870  -31.8410 S   0  0  0  0  0  0  0  0  0  0  0  0
   -9.7870   21.2730  -30.5980 O   0  0  0  0  0  0  0  0  0  0  0  0
   -9.8560   22.7330  -32.5560 O   0  0  0  0  0  0  0  0  0  0  0  0
   -8.8030   20.3080  -32.8910 N   0  0  0  0  0  0  0  0  0  0  0  0
   -7.3830   19.9480  -32.9480 C   0  0  0  0  0  0  0  0  0  0  0  0
   -7.1200   18.8830  -31.8940 C   0  0  0  0  0  0  0  0  0  0  0  0
   -8.4860   18.3480  -31.5070 C   0  0  0  0  0  0  0  0  0  0  0  0
   -9.4840   19.1260  -32.3520 C   0  0  0  0  0  0  0  0  0  0  0  0
   -6.6650   22.9100  -32.4170 C   0  0  0  0  0  0  0  0  0  0  0  0
   -5.4190   23.4550  -32.0940 C   0  0  0  0  0  0  0  0  0  0  0  0
   -1.7970   19.5230  -32.9330 C   0  0  0  0  0  0  0  0  0  0  0  0
   -2.3400   18.3850  -33.5620 C   0  0  0  0  0  0  0  0  0  0  0  0
   -1.5840   17.2240  -33.7860 O   0  0  0  0  0  0  0  0  0  0  0  0
   -1.1930   16.3080  -32.7680 C   0  0  0  0  0  0  0  0  0  0  0  0
   -5.5040   16.5761  -33.1582 H   0  0  0  0  0  0  0  0  0  0  0  0
   -6.2615   17.1960  -34.6644 H   0  0  0  0  0  0  0  0  0  0  0  0
   -5.4379   15.5996  -34.6644 H   0  0  0  0  0  0  0  0  0  0  0  0
   -5.5156   19.5601  -34.0896 H   0  0  0  0  0  0  0  0  0  0  0  0
   -4.5450   21.5568  -32.9667 H   0  0  0  0  0  0  0  0  0  0  0  0
   -0.9123   21.8644  -32.1344 H   0  0  0  0  0  0  0  0  0  0  0  0
   -2.4419   22.7751  -32.4609 H   0  0  0  0  0  0  0  0  0  0  0  0
   -3.2633   21.2595  -30.3716 H   0  0  0  0  0  0  0  0  0  0  0  0
   -1.5116   21.3947  -29.9733 H   0  0  0  0  0  0  0  0  0  0  0  0
   -5.4562   22.9355  -28.7131 H   0  0  0  0  0  0  0  0  0  0  0  0
   -7.6828   21.9742  -29.2904 H   0  0  0  0  0  0  0  0  0  0  0  0
   -7.1387   19.5533  -33.9453 H   0  0  0  0  0  0  0  0  0  0  0  0
   -6.7586   20.8334  -32.7576 H   0  0  0  0  0  0  0  0  0  0  0  0
   -6.4954   18.0780  -32.3086 H   0  0  0  0  0  0  0  0  0  0  0  0
   -6.5818   19.2923  -31.0264 H   0  0  0  0  0  0  0  0  0  0  0  0
   -8.5534   17.2722  -31.7263 H   0  0  0  0  0  0  0  0  0  0  0  0
   -8.6812   18.4695  -30.4313 H   0  0  0  0  0  0  0  0  0  0  0  0
   -9.8449   18.4951  -33.1776 H   0  0  0  0  0  0  0  0  0  0  0  0
  -10.3459   19.4296  -31.7397 H   0  0  0  0  0  0  0  0  0  0  0  0
   -7.0006   22.8921  -33.4644 H   0  0  0  0  0  0  0  0  0  0  0  0
   -4.7756   23.8592  -32.8894 H   0  0  0  0  0  0  0  0  0  0  0  0
   -0.7484   19.5132  -32.6010 H   0  0  0  0  0  0  0  0  0  0  0  0
   -1.3834   16.7540  -31.7806 H   0  0  0  0  0  0  0  0  0  0  0  0
   -1.7729   15.3787  -32.8685 H   0  0  0  0  0  0  0  0  0  0  0  0
   -0.1208   16.0839  -32.8685 H   0  0  0  0  0  0  0  0  0  0  0  0
  1  2  1  0
  2  3  1  0
  3  4  2  0
  4  5  1  0
  5  6  2  0
  6  7  1  0
  7  8  1  0
  8  9  1  0
  9 10  1  0
 10 11  2  0
 10 12  1  0
 12 13  2  0
 13 14  1  0
 14 15  2  0
 15 16  1  0
 16 17  2  0
 16 18  2  0
 16 19  1  0
 19 20  1  0
 20 21  1  0
 21 22  1  0
 22 23  1  0
 15 24  1  0
 24 25  2  0
  6 26  1  0
 26 27  2  0
 27 28  1  0
 28 29  1  0
 27  3  1  0
 25 12  1  0
 23 19  1  0
  1 30  1  0
  1 31  1  0
  1 32  1  0
  4 33  1  0
  5 34  1  0
  7 35  1  0
  7 36  1  0
  8 37  1  0
  8 38  1  0
 13 39  1  0
 14 40  1  0
 20 41  1  0
 20 42  1  0
 21 43  1  0
 21 44  1  0
 22 45  1  0
 22 46  1  0
 23 47  1  0
 23 48  1  0
 24 49  1  0
 25 50  1  0
 26 51  1  0
 29 52  1  0
 29 53  1  0
 29 54  1  0
M  CHG  1   9  -1
M  END
>  <UniqueID>  (8) 
8

>  <SMILES>  (8) 
COc1ccc(CC[N-]C(=O)c2ccc(S(=O)(=O)N3CCCC3)cc2)cc1OC

>  <Energy>  (8) 
55.84528530807559

>  <Genealogy>  (8) 
COc1ccc(CC[N-]C(=O)c2ccc(S(=O)(=O)N3CCCC3)cc2)cc1OC (protonated)
COc1ccc(CC[N-]C(=O)c2ccc(S(=O)(=O)N3CCCC3)cc2)cc1OC (3D coordinates assigned)
COc1ccc(CC[N-]C(=O)c2ccc(S(=O)(=O)N3CCCC3)cc2)cc1OC (nonaromatic ring conformer: 55.84528530807559 kcal/mol)

>  <smiles>  (8) 
COc1ccc(CCNC(=O)c2ccc(S(=O)(=O)N3CCCC3)cc2)cc1OC

>  <score_type>  (8) 
oracle

>  <origin>  (8) 
adgpu

>  <m_score__min__energy>  (8) 
-11.02

>  <m_primary>  (8) 
energy

$$$$
8:0
     RDKit          3D

 48 52  0  0  0  0  0  0  0  0999 V2000
    2.8260   21.1580  -37.9540 H   0  0  0  0  0  0  0  0  0  0  0  0
    3.6200   21.6690  -37.5070 N   0  0  0  0  0  0  0  0  0  0  0  0
    2.9480   22.6530  -36.2570 S   0  0  0  0  0  0  0  0  0  0  0  0
    4.0350   23.4880  -35.6430 O   0  0  0  0  0  0  0  0  0  0  0  0
    1.9080   23.5690  -36.8400 O   0  0  0  0  0  0  0  0  0  0  0  0
    2.2100   21.6250  -35.0330 C   0  0  0  0  0  0  0  0  0  0  0  0
    2.9100   20.5290  -34.5080 C   0  0  0  0  0  0  0  0  0  0  0  0
    3.9243   20.3016  -34.8678 H   0  0  0  0  0  0  0  0  0  0  0  0
    2.3210   19.7260  -33.5290 C   0  0  0  0  0  0  0  0  0  0  0  0
    2.8775   18.8746  -33.1102 H   0  0  0  0  0  0  0  0  0  0  0  0
    1.0270   20.0010  -33.0800 C   0  0  0  0  0  0  0  0  0  0  0  0
    0.5766   19.3764  -32.2945 H   0  0  0  0  0  0  0  0  0  0  0  0
    0.3000   21.0670  -33.6240 C   0  0  0  0  0  0  0  0  0  0  0  0
   -1.0190   21.3330  -33.1170 N   0  0  0  0  0  0  0  0  0  0  0  0
   -2.0080   20.4910  -33.0360 C   0  0  0  0  0  0  0  0  0  0  0  0
   -3.2120   20.9260  -32.5810 N   0  0  0  0  0  0  0  0  0  0  0  0
   -4.2720   20.0840  -32.4590 C   0  0  0  0  0  0  0  0  0  0  0  0
   -5.5680   20.6120  -31.9890 C   0  0  0  0  0  0  0  0  0  0  0  0
   -5.7990   21.7270  -31.1720 C   0  0  0  0  0  0  0  0  0  0  0  0
   -4.8080   22.7200  -30.7050 C   0  0  0  0  0  0  0  0  0  0  0  0
   -3.6330   22.2850  -30.0680 C   0  0  0  0  0  0  0  0  0  0  0  0
   -3.4545   21.2089  -29.9263 H   0  0  0  0  0  0  0  0  0  0  0  0
   -2.6890   23.2120  -29.6130 C   0  0  0  0  0  0  0  0  0  0  0  0
   -1.7677   22.8632  -29.1236 H   0  0  0  0  0  0  0  0  0  0  0  0
   -2.9160   24.5810  -29.7800 C   0  0  0  0  0  0  0  0  0  0  0  0
   -1.9770   25.5010  -29.3300 O   0  0  0  0  0  0  0  0  0  0  0  0
   -4.0910   25.0240  -30.3950 C   0  0  0  0  0  0  0  0  0  0  0  0
   -4.2713   26.1016  -30.5226 H   0  0  0  0  0  0  0  0  0  0  0  0
   -5.0370   24.1000  -30.8480 C   0  0  0  0  0  0  0  0  0  0  0  0
   -5.9658   24.4544  -31.3190 H   0  0  0  0  0  0  0  0  0  0  0  0
   -7.1140   21.8020  -30.8580 N   0  0  0  0  0  0  0  0  0  0  0  0
   -7.7100   20.7800  -31.4470 N   0  0  0  0  0  0  0  0  0  0  0  0
   -9.0300   20.4720  -31.3660 C   0  0  0  0  0  0  0  0  0  0  0  0
   -9.7254   21.1137  -30.8051 H   0  0  0  0  0  0  0  0  0  0  0  0
   -9.4840   19.3160  -32.0150 C   0  0  0  0  0  0  0  0  0  0  0  0
  -10.5484   19.0411  -31.9770 H   0  0  0  0  0  0  0  0  0  0  0  0
   -8.5680   18.5090  -32.7160 C   0  0  0  0  0  0  0  0  0  0  0  0
   -8.9174   17.5966  -33.2215 H   0  0  0  0  0  0  0  0  0  0  0  0
   -7.2110   18.8630  -32.7730 C   0  0  0  0  0  0  0  0  0  0  0  0
   -6.4809   18.2360  -33.3058 H   0  0  0  0  0  0  0  0  0  0  0  0
   -6.8200   20.0400  -32.1290 C   0  0  0  0  0  0  0  0  0  0  0  0
   -4.1240   18.7380  -32.8090 C   0  0  0  0  0  0  0  0  0  0  0  0
   -4.9710   18.0405  -32.7308 H   0  0  0  0  0  0  0  0  0  0  0  0
   -2.8800   18.3000  -33.2590 C   0  0  0  0  0  0  0  0  0  0  0  0
   -2.7332   17.2442  -33.5305 H   0  0  0  0  0  0  0  0  0  0  0  0
   -1.8490   19.1780  -33.3620 N   0  0  0  0  0  0  0  0  0  0  0  0
    0.9090   21.8950  -34.5860 C   0  0  0  0  0  0  0  0  0  0  0  0
    0.3607   22.7591  -34.9894 H   0  0  0  0  0  0  0  0  0  0  0  0
  1  2  1  0
  2  3  1  0
  3  4  2  0
  3  5  2  0
  3  6  1  0
  6  7  2  0
  7  8  1  0
  7  9  1  0
  9 10  1  0
  9 11  2  0
 11 12  1  0
 11 13  1  0
 13 14  1  0
 14 15  2  0
 15 16  1  0
 16 17  2  0
 17 18  1  0
 18 19  1  0
 19 20  1  0
 20 21  2  0
 21 22  1  0
 21 23  1  0
 23 24  1  0
 23 25  2  0
 25 26  1  0
 25 27  1  0
 27 28  1  0
 27 29  2  0
 29 30  1  0
 19 31  2  0
 31 32  1  0
 32 33  1  0
 33 34  1  0
 33 35  2  0
 35 36  1  0
 35 37  1  0
 37 38  1  0
 37 39  2  0
 39 40  1  0
 39 41  1  0
 17 42  1  0
 42 43  1  0
 42 44  2  0
 44 45  1  0
 44 46  1  0
 13 47  2  0
 47 48  1  0
 47  6  1  0
 46 15  1  0
 41 18  2  0
 29 20  1  0
 41 32  1  0
M  CHG  3   2  -1  26  -1  46  -1
M  END
>  <UniqueID>  (9) 
9

>  <SMILES>  (9) 
[NH-]S(=O)(=O)c1cccc(/N=c2/nc(-c3c(-c4ccc([O-])cc4)nn4ccccc34)cc[n-]2)c1

>  <Energy>  (9) 
105.58634619831815

>  <Genealogy>  (9) 
[NH-]S(=O)(=O)c1cccc(N=c2nc(-c3c(-c4ccc([O-])cc4)nn4ccccc34)cc[n-]2)c1 (protonated)
[NH-]S(=O)(=O)c1cccc(/N=c2/nc(-c3c(-c4ccc([O-])cc4)nn4ccccc34)cc[n-]2)c1 (cis-trans isomerization)
[NH-]S(=O)(=O)c1cccc(/N=c2/nc(-c3c(-c4ccc([O-])cc4)nn4ccccc34)cc[n-]2)c1 (3D coordinates assigned)
[NH-]S(=O)(=O)c1cccc(/N=c2/nc(-c3c(-c4ccc([O-])cc4)nn4ccccc34)cc[n-]2)c1 (optimized conformer: 105.58634619831815 kcal/mol)

>  <smiles>  (9) 
NS(=O)(=O)c1cccc(N=c2nc(-c3c(-c4ccc(O)cc4)nn4ccccc34)cc[nH]2)c1

>  <score_type>  (9) 
oracle

>  <origin>  (9) 
adgpu

>  <m_score__min__energy>  (9) 
-13.5

>  <m_primary>  (9) 
energy

$$$$
9:0
     RDKit          3D

 48 51  0  0  0  0  0  0  0  0999 V2000
   -6.5120   25.2860  -29.7340 C   0  0  0  0  0  0  0  0  0  0  0  0
   -5.0250   24.9070  -29.7400 C   0  0  0  0  0  0  0  0  0  0  0  0
   -4.6080   24.1440  -30.9370 N   0  0  0  0  0  0  0  0  0  0  0  0
   -3.5800   23.1050  -30.6880 C   0  0  0  0  0  0  0  0  0  0  0  0
   -4.1520   21.6780  -30.6800 C   0  0  0  0  0  0  0  0  0  0  0  0
   -5.0030   21.4370  -31.8510 N   0  0  0  0  0  0  0  0  0  0  0  0
   -5.2220   20.0900  -32.2960 C   0  0  0  0  0  0  0  0  0  0  0  0
   -4.1570   19.3340  -32.6840 N   0  0  0  0  0  0  0  0  0  0  0  0
   -4.3190   18.0840  -33.1870 C   0  0  0  0  0  0  0  0  0  0  0  0
   -3.2120   17.3240  -33.5810 C   0  0  0  0  0  0  0  0  0  0  0  0
   -3.4010   16.0420  -34.1090 C   0  0  0  0  0  0  0  0  0  0  0  0
   -4.6930   15.5200  -34.2450 C   0  0  0  0  0  0  0  0  0  0  0  0
   -5.8020   16.2770  -33.8530 C   0  0  0  0  0  0  0  0  0  0  0  0
   -5.6180   17.5590  -33.3240 C   0  0  0  0  0  0  0  0  0  0  0  0
   -6.6820   18.3040  -32.9280 N   0  0  0  0  0  0  0  0  0  0  0  0
   -6.5220   19.5510  -32.4060 C   0  0  0  0  0  0  0  0  0  0  0  0
   -7.6720   20.2710  -31.9430 N   0  0  0  0  0  0  0  0  0  0  0  0
   -7.6130   21.2300  -30.8550 C   0  0  0  0  0  0  0  0  0  0  0  0
   -8.9050   22.0340  -30.9420 C   0  0  0  0  0  0  0  0  0  0  0  0
   -9.8210   21.2580  -31.8870 C   0  0  0  0  0  0  0  0  0  0  0  0
   -8.9050   20.3620  -32.7050 C   0  0  0  0  0  0  0  0  0  0  0  0
   -5.4090   22.5590  -32.7000 C   0  0  0  0  0  0  0  0  0  0  0  0
   -5.7350   23.7700  -31.8240 C   0  0  0  0  0  0  0  0  0  0  0  0
   -6.8634   25.3756  -28.6955 H   0  0  0  0  0  0  0  0  0  0  0  0
   -6.6474   26.2474  -30.2511 H   0  0  0  0  0  0  0  0  0  0  0  0
   -7.0911   24.5067  -30.2511 H   0  0  0  0  0  0  0  0  0  0  0  0
   -4.4312   25.8318  -29.6940 H   0  0  0  0  0  0  0  0  0  0  0  0
   -4.8571   24.2551  -28.8700 H   0  0  0  0  0  0  0  0  0  0  0  0
   -2.8170   23.1716  -31.4776 H   0  0  0  0  0  0  0  0  0  0  0  0
   -3.1585   23.2942  -29.6897 H   0  0  0  0  0  0  0  0  0  0  0  0
   -3.3199   20.9586  -30.6879 H   0  0  0  0  0  0  0  0  0  0  0  0
   -4.7648   21.5552  -29.7748 H   0  0  0  0  0  0  0  0  0  0  0  0
   -2.1963   17.7331  -33.4760 H   0  0  0  0  0  0  0  0  0  0  0  0
   -2.5320   15.4426  -34.4181 H   0  0  0  0  0  0  0  0  0  0  0  0
   -4.8363   14.5119  -34.6612 H   0  0  0  0  0  0  0  0  0  0  0  0
   -6.8164   15.8653  -33.9604 H   0  0  0  0  0  0  0  0  0  0  0  0
   -7.5498   20.7094  -29.8881 H   0  0  0  0  0  0  0  0  0  0  0  0
   -6.7267   21.8770  -30.9322 H   0  0  0  0  0  0  0  0  0  0  0  0
   -9.3678   22.1224  -29.9480 H   0  0  0  0  0  0  0  0  0  0  0  0
   -8.7204   23.0549  -31.3078 H   0  0  0  0  0  0  0  0  0  0  0  0
  -10.5384   20.6521  -31.3140 H   0  0  0  0  0  0  0  0  0  0  0  0
  -10.4075   21.9323  -32.5283 H   0  0  0  0  0  0  0  0  0  0  0  0
   -9.3537   19.3656  -32.8311 H   0  0  0  0  0  0  0  0  0  0  0  0
   -8.7331   20.7653  -33.7139 H   0  0  0  0  0  0  0  0  0  0  0  0
   -4.5890   22.8140  -33.3875 H   0  0  0  0  0  0  0  0  0  0  0  0
   -6.2996   22.2760  -33.2802 H   0  0  0  0  0  0  0  0  0  0  0  0
   -5.9706   24.6244  -32.4755 H   0  0  0  0  0  0  0  0  0  0  0  0
   -6.5902   23.5026  -31.1859 H   0  0  0  0  0  0  0  0  0  0  0  0
  1  2  1  0
  2  3  1  0
  3  4  1  0
  4  5  1  0
  5  6  1  0
  6  7  1  0
  7  8  2  0
  8  9  1  0
  9 10  2  0
 10 11  1  0
 11 12  2  0
 12 13  1  0
 13 14  2  0
 14 15  1  0
 15 16  2  0
 16 17  1  0
 17 18  1  0
 18 19  1  0
 19 20  1  0
 20 21  1  0
  6 22  1  0
 22 23  1  0
 23  3  1  0
 16  7  1  0
 21 17  1  0
 14  9  1  0
  1 24  1  0
  1 25  1  0
  1 26  1  0
  2 27  1  0
  2 28  1  0
  4 29  1  0
  4 30  1  0
  5 31  1  0
  5 32  1  0
 10 33  1  0
 11 34  1  0
 12 35  1  0
 13 36  1  0
 18 37  1  0
 18 38  1  0
 19 39  1  0
 19 40  1  0
 20 41  1  0
 20 42  1  0
 21 43  1  0
 21 44  1  0
 22 45  1  0
 22 46  1  0
 23 47  1  0
 23 48  1  0
M  END
>  <UniqueID>  (10) 
10

>  <SMILES>  (10) 
CCN1CCN(c2nc3ccccc3nc2N2CCCC2)CC1

>  <Energy>  (10) 
69.21717761806777

>  <Genealogy>  (10) 
CCN1CCN(c2nc3ccccc3nc2N2CCCC2)CC1 (3D coordinates assigned)
CCN1CCN(c2nc3ccccc3nc2N2CCCC2)CC1 (nonaromatic ring conformer: 69.21717761806777 kcal/mol)

>  <smiles>  (10) 
CCN1CCN(c2nc3ccccc3nc2N2CCCC2)CC1

>  <score_type>  (10) 
oracle

>  <origin>  (10) 
adgpu

>  <m_score__min__energy>  (10) 
-7.7199999999999998

>  <m_primary>  (10) 
energy

$$$$
10:0
     RDKit          3D

 35 36  0  0  0  0  0  0  0  0999 V2000
   -5.3590   25.2440  -30.2890 C   0  0  0  0  0  0  0  0  0  0  0  0
   -3.9450   25.4180  -30.3230 O   0  0  0  0  0  0  0  0  0  0  0  0
   -3.0130   24.4040  -30.0530 C   0  0  0  0  0  0  0  0  0  0  0  0
   -3.2190   23.0710  -30.4530 C   0  0  0  0  0  0  0  0  0  0  0  0
   -2.2570   22.0880  -30.1760 C   0  0  0  0  0  0  0  0  0  0  0  0
   -2.4750   20.6600  -30.6090 C   0  0  0  0  0  0  0  0  0  0  0  0
   -3.1870   20.6120  -31.8860 N   0  0  0  0  0  0  0  0  0  0  0  0
   -4.6020   20.3720  -32.0220 C   0  0  0  0  0  0  0  0  0  0  0  0
   -5.1440   19.0730  -31.9780 C   0  0  0  0  0  0  0  0  0  0  0  0
   -6.5240   18.8790  -32.1070 C   0  0  0  0  0  0  0  0  0  0  0  0
   -7.3740   19.9730  -32.2850 C   0  0  0  0  0  0  0  0  0  0  0  0
   -9.1030   19.7250  -32.4460 Cl  0  0  0  0  0  0  0  0  0  0  0  0
   -6.8440   21.2650  -32.3380 C   0  0  0  0  0  0  0  0  0  0  0  0
   -5.4660   21.4630  -32.2090 C   0  0  0  0  0  0  0  0  0  0  0  0
   -1.0920   22.4380  -29.4770 C   0  0  0  0  0  0  0  0  0  0  0  0
   -0.8760   23.7670  -29.0700 C   0  0  0  0  0  0  0  0  0  0  0  0
    0.2800   24.1580  -28.3770 O   0  0  0  0  0  0  0  0  0  0  0  0
    0.2880   24.6720  -27.0490 C   0  0  0  0  0  0  0  0  0  0  0  0
   -1.8400   24.7400  -29.3640 C   0  0  0  0  0  0  0  0  0  0  0  0
   -1.6300   26.0570  -28.9680 O   0  0  0  0  0  0  0  0  0  0  0  0
   -5.6983   25.2023  -29.2435 H   0  0  0  0  0  0  0  0  0  0  0  0
   -5.8448   26.0891  -30.7986 H   0  0  0  0  0  0  0  0  0  0  0  0
   -5.6254   24.3063  -30.7986 H   0  0  0  0  0  0  0  0  0  0  0  0
   -4.1411   22.7975  -30.9868 H   0  0  0  0  0  0  0  0  0  0  0  0
   -1.4999   20.1630  -30.7199 H   0  0  0  0  0  0  0  0  0  0  0  0
   -3.0793   20.1467  -29.8466 H   0  0  0  0  0  0  0  0  0  0  0  0
   -2.6320   20.8170  -32.7490 H   0  0  0  0  0  0  0  0  0  0  0  0
   -4.4797   18.2069  -31.8416 H   0  0  0  0  0  0  0  0  0  0  0  0
   -6.9406   17.8617  -32.0681 H   0  0  0  0  0  0  0  0  0  0  0  0
   -7.5118   22.1272  -32.4814 H   0  0  0  0  0  0  0  0  0  0  0  0
   -5.0551   22.4823  -32.2544 H   0  0  0  0  0  0  0  0  0  0  0  0
   -0.3419   21.6674  -29.2455 H   0  0  0  0  0  0  0  0  0  0  0  0
    0.2750   23.8373  -26.3327 H   0  0  0  0  0  0  0  0  0  0  0  0
    1.1956   25.2739  -26.8942 H   0  0  0  0  0  0  0  0  0  0  0  0
   -0.6005   25.3018  -26.8942 H   0  0  0  0  0  0  0  0  0  0  0  0
  1  2  1  0
  2  3  1  0
  3  4  2  0
  4  5  1  0
  5  6  1  0
  6  7  1  0
  7  8  1  0
  8  9  2  0
  9 10  1  0
 10 11  2  0
 11 12  1  0
 11 13  1  0
 13 14  2  0
  5 15  2  0
 15 16  1  0
 16 17  1  0
 17 18  1  0
 16 19  2  0
 19 20  1  0
 19  3  1  0
 14  8  1  0
  1 21  1  0
  1 22  1  0
  1 23  1  0
  4 24  1  0
  6 25  1  0
  6 26  1  0
  7 27  1  0
  9 28  1  0
 10 29  1  0
 13 30  1  0
 14 31  1  0
 15 32  1  0
 18 33  1  0
 18 34  1  0
 18 35  1  0
M  CHG  1  20  -1
M  END
>  <UniqueID>  (11) 
11

>  <SMILES>  (11) 
COc1cc(CNc2ccc(Cl)cc2)cc(OC)c1[O-]

>  <Energy>  (11) 
33.43420248766776

>  <Genealogy>  (11) 
COc1cc(CNc2ccc(Cl)cc2)cc(OC)c1[O-] (protonated)
COc1cc(CNc2ccc(Cl)cc2)cc(OC)c1[O-] (3D coordinates assigned)
COc1cc(CNc2ccc(Cl)cc2)cc(OC)c1[O-] (optimized conformer: 33.43420248766776 kcal/mol)

>  <smiles>  (11) 
COc1cc(CNc2ccc(Cl)cc2)cc(OC)c1O

>  <score_type>  (11) 
oracle

>  <origin>  (11) 
adgpu

>  <m_score__min__energy>  (11) 
-9.9299999999999997

>  <m_primary>  (11) 
energy

$$$$
11:0
     RDKit          3D

 49 52  0  0  1  0  0  0  0  0999 V2000
   -9.8490   21.9100  -31.1760 C   0  0  0  0  0  0  0  0  0  0  0  0
   -8.5410   21.4120  -31.7200 C   0  0  0  0  0  0  0  0  0  0  0  0
   -7.4820   22.2140  -31.8140 N   0  0  0  0  0  0  0  0  0  0  0  0
   -6.2740   21.9010  -32.2760 C   0  0  0  0  0  0  0  0  0  0  0  0
   -5.1850   22.7880  -32.3530 N   0  0  0  0  0  0  0  0  0  0  0  0
   -4.2190   23.0390  -31.3600 C   0  0  0  0  0  0  0  0  0  0  0  0
   -4.5060   23.9760  -30.3570 C   0  0  0  0  0  0  0  0  0  0  0  0
   -3.6180   24.2830  -29.3550 C   0  0  0  0  0  0  0  0  0  0  0  0
   -2.3920   23.6590  -29.3110 C   0  0  0  0  0  0  0  0  0  0  0  0
   -1.2710   24.0590  -28.0300 S   0  0  0  0  0  0  0  0  0  0  0  0
    0.0350   24.5740  -28.5400 O   0  0  0  0  0  0  0  0  0  0  0  0
   -1.0140   22.8200  -27.2230 O   0  0  0  0  0  0  0  0  0  0  0  0
   -2.0400   25.2950  -27.0920 N   0  0  0  0  0  0  0  0  0  0  0  0
   -1.4820   25.6910  -25.9950 C   0  0  0  0  0  0  0  0  0  0  0  0
   -1.7640   26.5740  -25.0620 N   0  0  0  0  0  0  0  0  0  0  0  0
   -1.0000   26.7670  -24.0410 C   0  0  0  0  0  0  0  0  0  0  0  0
    0.1800   26.0150  -23.9080 C   0  0  0  0  0  0  0  0  0  0  0  0
    0.1470   24.9340  -25.4260 S   0  0  0  0  0  0  0  0  0  0  0  0
   -2.0650   22.7320  -30.2750 C   0  0  0  0  0  0  0  0  0  0  0  0
   -2.9850   22.4440  -31.2750 C   0  0  0  0  0  0  0  0  0  0  0  0
   -6.1130   20.5760  -32.7060 C   0  0  0  0  0  0  0  0  0  0  0  0
   -4.8280   20.2080  -33.2070 C   0  0  0  0  0  0  0  0  0  0  0  0
   -3.7650   19.9250  -33.6150 N   0  0  0  0  0  0  0  0  0  0  0  0
   -7.1940   19.7520  -32.6120 C   0  0  0  0  0  0  0  0  0  0  0  0
   -7.0900   18.5460  -32.9900 N   0  0  0  0  0  0  0  0  0  0  0  0
   -5.9740   17.8830  -33.5240 C   0  0  0  0  0  0  0  0  0  0  0  0
   -5.7620   17.9640  -34.8840 C   0  0  0  0  0  0  0  0  0  0  0  0
   -4.6420   17.3430  -35.3910 C   0  0  0  0  0  0  0  0  0  0  0  0
   -3.7590   16.6630  -34.5730 C   0  0  0  0  0  0  0  0  0  0  0  0
   -4.0080   16.6030  -33.2050 C   0  0  0  0  0  0  0  0  0  0  0  0
   -5.1350   17.2210  -32.6520 C   0  0  0  0  0  0  0  0  0  0  0  0
   -8.4030   20.1420  -32.1300 N   0  0  0  0  0  0  0  0  0  0  0  0
   -9.8173   21.8979  -30.0765 H   0  0  0  0  0  0  0  0  0  0  0  0
  -10.0244   22.9378  -31.5265 H   0  0  0  0  0  0  0  0  0  0  0  0
  -10.6635   21.2591  -31.5265 H   0  0  0  0  0  0  0  0  0  0  0  0
   -5.0690   23.3330  -33.2560 H   0  0  0  0  0  0  0  0  0  0  0  0
   -5.4808   24.4853  -30.3733 H   0  0  0  0  0  0  0  0  0  0  0  0
   -3.8861   25.0259  -28.5894 H   0  0  0  0  0  0  0  0  0  0  0  0
   -2.6880   27.1540  -25.1790 H   0  0  0  0  0  0  0  0  0  0  0  0
   -1.2698   27.5143  -23.2802 H   0  0  0  0  0  0  0  0  0  0  0  0
    0.9342   26.0546  -23.1082 H   0  0  0  0  0  0  0  0  0  0  0  0
   -1.0884   22.2263  -30.2536 H   0  0  0  0  0  0  0  0  0  0  0  0
   -2.7105   21.7008  -32.0381 H   0  0  0  0  0  0  0  0  0  0  0  0
   -6.4610   18.5042  -35.5394 H   0  0  0  0  0  0  0  0  0  0  0  0
   -4.4455   17.3892  -36.4723 H   0  0  0  0  0  0  0  0  0  0  0  0
   -2.8698   16.1749  -34.9985 H   0  0  0  0  0  0  0  0  0  0  0  0
   -3.3093   16.0624  -32.5496 H   0  0  0  0  0  0  0  0  0  0  0  0
   -5.3422   17.1808  -31.5724 H   0  0  0  0  0  0  0  0  0  0  0  0
   -9.1980   19.4550  -32.0830 H   0  0  0  0  0  0  0  0  0  0  0  0
  1  2  1  0
  2  3  2  0
  3  4  1  0
  4  5  1  0
  5  6  1  0
  6  7  2  0
  7  8  1  0
  8  9  2  0
  9 10  1  0
 10 11  2  0
 10 12  2  0
 10 13  1  0
 13 14  2  0
 14 15  1  0
 15 16  1  0
 16 17  2  0
 17 18  1  0
  9 19  1  0
 19 20  2  0
  4 21  2  0
 21 22  1  0
 22 23  3  0
 21 24  1  0
 24 25  2  0
 25 26  1  0
 26 27  2  0
 27 28  1  0
 28 29  2  0
 29 30  1  0
 30 31  2  0
 24 32  1  0
 32  2  1  0
 20  6  1  0
 31 26  1  0
 18 14  1  0
  1 33  1  0
  1 34  1  0
  1 35  1  0
  5 36  1  0
  7 37  1  0
  8 38  1  0
 15 39  1  0
 16 40  1  0
 17 41  1  0
 19 42  1  0
 20 43  1  0
 27 44  1  0
 28 45  1  0
 29 46  1  0
 30 47  1  0
 31 48  1  0
 32 49  1  0
M  END
>  <smiles>  (12) 
Cc1nc(Nc2ccc(S(=O)(=O)N=c3[nH]ccs3)cc2)c(C#N)c(=Nc2ccccc2)[nH]1

>  <score_type>  (12) 
oracle

>  <origin>  (12) 
adgpu

>  <m_score__min__energy>  (12) 
-10.18

>  <m_primary>  (12) 
energy

$$$$
12:0
     RDKit          3D

 36 38  0  0  0  0  0  0  0  0999 V2000
    0.3530   28.0130  -27.4070 H   0  0  0  0  0  0  0  0  0  0  0  0
   -0.4840   27.5740  -27.8530 N   0  0  0  0  0  0  0  0  0  0  0  0
   -0.5400   26.3040  -28.0790 C   0  0  0  0  0  0  0  0  0  0  0  0
   -1.6480   25.7710  -28.6590 N   0  0  0  0  0  0  0  0  0  0  0  0
   -1.7330   24.4400  -28.9270 C   0  0  0  0  0  0  0  0  0  0  0  0
   -2.9470   23.9170  -29.4850 N   0  0  0  0  0  0  0  0  0  0  0  0
   -3.0740   22.9470  -30.3500 C   0  0  0  0  0  0  0  0  0  0  0  0
   -1.9710   22.3430  -30.9850 C   0  0  0  0  0  0  0  0  0  0  0  0
   -0.9478   22.6703  -30.7483 H   0  0  0  0  0  0  0  0  0  0  0  0
   -2.1860   21.3270  -31.9160 C   0  0  0  0  0  0  0  0  0  0  0  0
   -1.3290   20.8481  -32.4122 H   0  0  0  0  0  0  0  0  0  0  0  0
   -3.4490   20.9270  -32.2120 N   0  0  0  0  0  0  0  0  0  0  0  0
   -4.5440   21.4880  -31.6270 C   0  0  0  0  0  0  0  0  0  0  0  0
   -5.8960   21.0060  -32.0080 C   0  0  0  0  0  0  0  0  0  0  0  0
   -7.0370   21.8120  -31.8300 C   0  0  0  0  0  0  0  0  0  0  0  0
   -6.9308   22.8221  -31.4076 H   0  0  0  0  0  0  0  0  0  0  0  0
   -8.3010   21.3400  -32.1850 C   0  0  0  0  0  0  0  0  0  0  0  0
   -9.1839   21.9809  -32.0448 H   0  0  0  0  0  0  0  0  0  0  0  0
   -8.4510   20.0540  -32.7190 C   0  0  0  0  0  0  0  0  0  0  0  0
   -9.7140   19.5850  -33.0730 O   0  0  0  0  0  0  0  0  0  0  0  0
   -9.8440   18.9350  -33.8400 H   0  0  0  0  0  0  0  0  0  0  0  0
   -7.3310   19.2310  -32.8950 C   0  0  0  0  0  0  0  0  0  0  0  0
   -7.5240   17.9470  -33.4290 O   0  0  0  0  0  0  0  0  0  0  0  0
   -6.4720   17.0640  -33.8080 C   0  0  0  0  0  0  0  0  0  0  0  0
   -5.9900   16.6594  -32.9058 H   0  0  0  0  0  0  0  0  0  0  0  0
   -6.8843   16.2375  -34.4054 H   0  0  0  0  0  0  0  0  0  0  0  0
   -5.7295   17.6134  -34.4054 H   0  0  0  0  0  0  0  0  0  0  0  0
   -6.0560   19.7110  -32.5340 C   0  0  0  0  0  0  0  0  0  0  0  0
   -5.1752   19.0652  -32.6651 H   0  0  0  0  0  0  0  0  0  0  0  0
   -4.3640   22.5240  -30.6930 C   0  0  0  0  0  0  0  0  0  0  0  0
   -5.2393   23.0035  -30.2305 H   0  0  0  0  0  0  0  0  0  0  0  0
   -0.6810   23.5950  -28.5490 C   0  0  0  0  0  0  0  0  0  0  0  0
   -0.7445   22.5098  -28.7169 H   0  0  0  0  0  0  0  0  0  0  0  0
    0.4490   24.1590  -27.9550 C   0  0  0  0  0  0  0  0  0  0  0  0
    1.4180   23.4300  -27.6180 O   0  0  0  0  0  0  0  0  0  0  0  0
    0.5000   25.4980  -27.7350 N   0  0  0  0  0  0  0  0  0  0  0  0
  1  2  1  0
  2  3  2  0
  3  4  1  0
  4  5  1  0
  5  6  1  0
  6  7  2  0
  7  8  1  0
  8  9  1  0
  8 10  2  0
 10 11  1  0
 10 12  1  0
 12 13  1  0
 13 14  1  0
 14 15  2  0
 15 16  1  0
 15 17  1  0
 17 18  1  0
 17 19  2  0
 19 20  1  0
 20 21  1  0
 19 22  1  0
 22 23  1  0
 23 24  1  0
 24 25  1  0
 24 26  1  0
 24 27  1  0
 22 28  2  0
 28 29  1  0
 13 30  2  0
 30 31  1  0
  5 32  2  0
 32 33  1  0
 32 34  1  0
 34 35  2  0
 34 36  1  0
 36  3  1  0
 30  7  1  0
 28 14  1  0
M  CHG  3   4  -1  12  -1  36  -1
M  END
>  <UniqueID>  (13) 
12

>  <SMILES>  (13) 
[H]/N=c1/[n-]c(/N=c2\cc[n-]c(-c3ccc(O)c(OC)c3)c2)cc(=O)[n-]1

>  <Energy>  (13) 
53.428212433101656

>  <Genealogy>  (13) 
COc1cc(-c2cc(=Nc3cc(=O)[n-]c(=N)[n-]3)cc[n-]2)ccc1O (protonated)
[H]/N=c1/[n-]c(/N=c2\cc[n-]c(-c3ccc(O)c(OC)c3)c2)cc(=O)[n-]1 (cis-trans isomerization)
[H]/N=c1/[n-]c(/N=c2\cc[n-]c(-c3ccc(O)c(OC)c3)c2)cc(=O)[n-]1 (3D coordinates assigned)
[H]/N=c1/[n-]c(/N=c2\cc[n-]c(-c3ccc(O)c(OC)c3)c2)cc(=O)[n-]1 (optimized conformer: 53.428212433101656 kcal/mol)

>  <smiles>  (13) 
COc1cc(-c2cc(=Nc3cc(=O)[nH]c(=N)[nH]3)cc[nH]2)ccc1O

>  <score_type>  (13) 
oracle

>  <origin>  (13) 
adgpu

>  <m_score__min__energy>  (13) 
-9.1699999999999999

>  <m_primary>  (13) 
energy

$$$$
13:0
     RDKit          3D

 60 64  0  0  0  0  0  0  0  0999 V2000
   -2.8240   19.9830  -31.9780 H   0  0  0  0  0  0  0  0  0  0  0  0
   -3.0010   20.7190  -32.6210 O   0  0  0  0  0  0  0  0  0  0  0  0
   -3.3330   20.1140  -33.8420 C   0  0  0  0  0  0  0  0  0  0  0  0
   -2.8417   20.6603  -34.6606 H   0  0  0  0  0  0  0  0  0  0  0  0
   -4.4258   20.1429  -33.9643 H   0  0  0  0  0  0  0  0  0  0  0  0
   -2.8780   18.6640  -33.8670 C   0  0  0  0  0  0  0  0  0  0  0  0
   -3.8160   17.6210  -33.6550 C   0  0  0  0  0  0  0  0  0  0  0  0
   -5.1850   17.8980  -33.3210 N   0  0  0  0  0  0  0  0  0  0  0  0
   -6.1070   18.4280  -34.3290 C   0  0  0  0  0  0  0  0  0  0  0  0
   -5.5470   18.6942  -35.2376 H   0  0  0  0  0  0  0  0  0  0  0  0
   -6.8610   17.6674  -34.5800 H   0  0  0  0  0  0  0  0  0  0  0  0
   -6.7970   19.6760  -33.7660 C   0  0  0  0  0  0  0  0  0  0  0  0
   -6.0405   20.4637  -33.6350 H   0  0  0  0  0  0  0  0  0  0  0  0
   -7.5791   19.9664  -34.4829 H   0  0  0  0  0  0  0  0  0  0  0  0
   -7.4660   19.4410  -32.4560 N   0  0  0  0  0  0  0  0  0  0  0  0
   -7.2810   20.5950  -31.5560 C   0  0  0  0  0  0  0  0  0  0  0  0
   -7.3352   20.2571  -30.5106 H   0  0  0  0  0  0  0  0  0  0  0  0
   -6.2981   21.0521  -31.7431 H   0  0  0  0  0  0  0  0  0  0  0  0
   -8.0718   21.3364  -31.7431 H   0  0  0  0  0  0  0  0  0  0  0  0
   -7.0990   18.1690  -31.7840 C   0  0  0  0  0  0  0  0  0  0  0  0
   -7.3465   18.2510  -30.7153 H   0  0  0  0  0  0  0  0  0  0  0  0
   -7.6640   17.3602  -32.2705 H   0  0  0  0  0  0  0  0  0  0  0  0
   -5.6050   17.8390  -31.9190 C   0  0  0  0  0  0  0  0  0  0  0  0
   -5.0207   18.5664  -31.3364 H   0  0  0  0  0  0  0  0  0  0  0  0
   -5.4329   16.8202  -31.5415 H   0  0  0  0  0  0  0  0  0  0  0  0
   -3.4310   16.3230  -33.7890 N   0  0  0  0  0  0  0  0  0  0  0  0
   -2.1580   15.9720  -34.0910 C   0  0  0  0  0  0  0  0  0  0  0  0
   -1.8923   14.9103  -34.2011 H   0  0  0  0  0  0  0  0  0  0  0  0
   -1.1870   16.9520  -34.2620 C   0  0  0  0  0  0  0  0  0  0  0  0
   -0.1496   16.6652  -34.4889 H   0  0  0  0  0  0  0  0  0  0  0  0
   -1.5310   18.3070  -34.1450 C   0  0  0  0  0  0  0  0  0  0  0  0
   -0.4540   19.3120  -34.3110 C   0  0  0  0  0  0  0  0  0  0  0  0
    0.8660   19.0240  -33.8930 C   0  0  0  0  0  0  0  0  0  0  0  0
    1.0898   18.0534  -33.4262 H   0  0  0  0  0  0  0  0  0  0  0  0
    1.8940   19.9650  -34.0680 C   0  0  0  0  0  0  0  0  0  0  0  0
    2.9175   19.7443  -33.7308 H   0  0  0  0  0  0  0  0  0  0  0  0
    1.5950   21.1850  -34.6770 C   0  0  0  0  0  0  0  0  0  0  0  0
    0.3040   21.4530  -35.1030 C   0  0  0  0  0  0  0  0  0  0  0  0
    0.2610   22.9760  -35.8140 S   0  0  0  0  0  0  0  0  0  0  0  0
    1.9150   23.2370  -35.5250 C   0  0  0  0  0  0  0  0  0  0  0  0
    2.6010   24.2820  -35.8900 N   0  0  0  0  0  0  0  0  0  0  0  0
    2.0910   25.4760  -36.5060 C   0  0  0  0  0  0  0  0  0  0  0  0
    2.6680   25.9200  -37.7020 C   0  0  0  0  0  0  0  0  0  0  0  0
    3.4761   25.3369  -38.1678 H   0  0  0  0  0  0  0  0  0  0  0  0
    2.2250   27.0980  -38.3080 C   0  0  0  0  0  0  0  0  0  0  0  0
    2.6772   27.4283  -39.2548 H   0  0  0  0  0  0  0  0  0  0  0  0
    1.2090   27.8620  -37.7190 C   0  0  0  0  0  0  0  0  0  0  0  0
    0.7960   29.0350  -38.3660 O   0  0  0  0  0  0  0  0  0  0  0  0
   -0.3670   29.7810  -38.0230 C   0  0  0  0  0  0  0  0  0  0  0  0
   -0.4562   29.8382  -36.9281 H   0  0  0  0  0  0  0  0  0  0  0  0
   -0.2868   30.7966  -38.4379 H   0  0  0  0  0  0  0  0  0  0  0  0
   -1.2566   29.2846  -38.4379 H   0  0  0  0  0  0  0  0  0  0  0  0
    0.6490   27.4350  -36.5020 C   0  0  0  0  0  0  0  0  0  0  0  0
   -0.1462   28.0282  -36.0269 H   0  0  0  0  0  0  0  0  0  0  0  0
    1.0990   26.2590  -35.8930 C   0  0  0  0  0  0  0  0  0  0  0  0
    0.6735   25.9455  -34.9283 H   0  0  0  0  0  0  0  0  0  0  0  0
    2.4930   22.1760  -34.9130 N   0  0  0  0  0  0  0  0  0  0  0  0
    3.5060   22.1240  -34.6580 H   0  0  0  0  0  0  0  0  0  0  0  0
   -0.7350   20.5440  -34.9370 C   0  0  0  0  0  0  0  0  0  0  0  0
   -1.7513   20.7801  -35.2854 H   0  0  0  0  0  0  0  0  0  0  0  0
  1  2  1  0
  2  3  1  0
  3  4  1  0
  3  5  1  0
  3  6  1  0
  6  7  2  0
  7  8  1  0
  8  9  1  0
  9 10  1  0
  9 11  1  0
  9 12  1  0
 12 13  1  0
 12 14  1  0
 12 15  1  0
 15 16  1  0
 16 17  1  0
 16 18  1  0
 16 19  1  0
 15 20  1  0
 20 21  1  0
 20 22  1  0
 20 23  1  0
 23 24  1  0
 23 25  1  0
  7 26  1  0
 26 27  2  0
 27 28  1  0
 27 29  1  0
 29 30  1  0
 29 31  2  0
 31 32  1  0
 32 33  2  0
 33 34  1  0
 33 35  1  0
 35 36  1  0
 35 37  2  0
 37 38  1  0
 38 39  1  0
 39 40  1  0
 40 41  2  0
 41 42  1  0
 42 43  2  0
 43 44  1  0
 43 45  1  0
 45 46  1  0
 45 47  2  0
 47 48  1  0
 48 49  1  0
 49 50  1  0
 49 51  1  0
 49 52  1  0
 47 53  1  0
 53 54  1  0
 53 55  2  0
 55 56  1  0
 40 57  1  0
 57 58  1  0
 38 59  2  0
 59 60  1  0
 31  6  1  0
 59 32  1  0
 23  8  1  0
 57 37  1  0
 55 42  1  0
M  END
>  <UniqueID>  (14) 
13

>  <SMILES>  (14) 
COc1ccc(/N=c2/[nH]c3ccc(-c4ccnc(N5CCN(C)CC5)c4CO)cc3s2)cc1

>  <Energy>  (14) 
128.6055565734143

>  <Genealogy>  (14) 
COc1ccc(/N=c2/[nH]c3ccc(-c4ccnc(N5CCN(C)CC5)c4CO)cc3s2)cc1 (cis-trans isomerization)
COc1ccc(/N=c2/[nH]c3ccc(-c4ccnc(N5CCN(C)CC5)c4CO)cc3s2)cc1 (3D coordinates assigned)
COc1ccc(/N=c2/[nH]c3ccc(-c4ccnc(N5CCN(C)CC5)c4CO)cc3s2)cc1 (nonaromatic ring conformer: 128.6055565734143 kcal/mol)

>  <smiles>  (14) 
COc1ccc(N=c2[nH]c3ccc(-c4ccnc(N5CCN(C)CC5)c4CO)cc3s2)cc1

>  <score_type>  (14) 
oracle

>  <origin>  (14) 
adgpu

>  <m_score__min__energy>  (14) 
-8.8599999999999994

>  <m_primary>  (14) 
energy

$$$$
14:0
     RDKit          3D

 43 46  0  0  0  0  0  0  0  0999 V2000
   -0.8630   26.5640  -28.3910 N   0  0  0  0  0  0  0  0  0  0  0  0
   -0.9040   24.8580  -28.1160 S   0  0  0  0  0  0  0  0  0  0  0  0
    0.4070   24.2490  -28.5220 O   0  0  0  0  0  0  0  0  0  0  0  0
   -1.1280   24.5970  -26.6530 O   0  0  0  0  0  0  0  0  0  0  0  0
   -2.2040   24.1420  -29.0640 C   0  0  0  0  0  0  0  0  0  0  0  0
   -2.0590   22.8670  -29.6280 C   0  0  0  0  0  0  0  0  0  0  0  0
   -3.0990   22.3050  -30.3740 C   0  0  0  0  0  0  0  0  0  0  0  0
   -4.2920   23.0120  -30.5630 C   0  0  0  0  0  0  0  0  0  0  0  0
   -5.5850   22.3070  -31.5260 S   0  0  0  0  0  0  0  0  0  0  0  0
   -6.3040   23.3720  -32.3050 O   0  0  0  0  0  0  0  0  0  0  0  0
   -6.5690   21.6350  -30.6120 O   0  0  0  0  0  0  0  0  0  0  0  0
   -4.9250   21.1430  -32.6330 N   0  0  0  0  0  0  0  0  0  0  0  0
   -3.6890   21.1910  -33.1650 C   0  0  0  0  0  0  0  0  0  0  0  0
   -3.4530   20.0480  -33.9020 C   0  0  0  0  0  0  0  0  0  0  0  0
   -4.5900   19.2700  -33.8080 C   0  0  0  0  0  0  0  0  0  0  0  0
   -5.4810   19.9780  -33.0250 C   0  0  0  0  0  0  0  0  0  0  0  0
   -6.8170   19.5040  -32.6340 C   0  0  0  0  0  0  0  0  0  0  0  0
   -7.2730   18.2000  -32.5290 C   0  0  0  0  0  0  0  0  0  0  0  0
   -6.5010   16.9400  -32.6150 C   0  0  0  0  0  0  0  0  0  0  0  0
   -6.5100   16.1500  -33.7760 C   0  0  0  0  0  0  0  0  0  0  0  0
   -5.7610   14.9730  -33.8270 C   0  0  0  0  0  0  0  0  0  0  0  0
   -4.9960   14.6000  -32.7210 C   0  0  0  0  0  0  0  0  0  0  0  0
   -4.9800   15.3820  -31.6100 N   0  0  0  0  0  0  0  0  0  0  0  0
   -5.7030   16.5320  -31.5340 C   0  0  0  0  0  0  0  0  0  0  0  0
   -8.6110   18.2490  -32.3260 N   0  0  0  0  0  0  0  0  0  0  0  0
   -8.9290   19.5140  -32.3190 O   0  0  0  0  0  0  0  0  0  0  0  0
   -7.8980   20.2840  -32.4960 N   0  0  0  0  0  0  0  0  0  0  0  0
   -7.9560   21.6490  -32.6560 O   0  0  0  0  0  0  0  0  0  0  0  0
   -4.4440   24.2820  -29.9900 C   0  0  0  0  0  0  0  0  0  0  0  0
   -3.4040   24.8440  -29.2430 C   0  0  0  0  0  0  0  0  0  0  0  0
   -1.2500   26.7290  -29.3470 H   0  0  0  0  0  0  0  0  0  0  0  0
   -1.1235   22.3067  -29.4831 H   0  0  0  0  0  0  0  0  0  0  0  0
   -2.9794   21.3039  -30.8139 H   0  0  0  0  0  0  0  0  0  0  0  0
   -2.9747   22.0169  -33.0322 H   0  0  0  0  0  0  0  0  0  0  0  0
   -2.5355   19.8038  -34.4575 H   0  0  0  0  0  0  0  0  0  0  0  0
   -4.7536   18.2831  -34.2655 H   0  0  0  0  0  0  0  0  0  0  0  0
   -7.1078   16.4589  -34.6461 H   0  0  0  0  0  0  0  0  0  0  0  0
   -5.7737   14.3455  -34.7304 H   0  0  0  0  0  0  0  0  0  0  0  0
   -4.4056   13.6723  -32.7487 H   0  0  0  0  0  0  0  0  0  0  0  0
   -5.6623   17.1450  -30.6216 H   0  0  0  0  0  0  0  0  0  0  0  0
   -8.0200   22.2590  -31.8500 H   0  0  0  0  0  0  0  0  0  0  0  0
   -5.3832   24.8377  -30.1282 H   0  0  0  0  0  0  0  0  0  0  0  0
   -3.5281   25.8406  -28.7942 H   0  0  0  0  0  0  0  0  0  0  0  0
  1  2  1  0
  2  3  2  0
  2  4  2  0
  2  5  1  0
  5  6  2  0
  6  7  1  0
  7  8  2  0
  8  9  1  0
  9 10  2  0
  9 11  2  0
  9 12  1  0
 12 13  1  0
 13 14  2  0
 14 15  1  0
 15 16  2  0
 16 17  1  0
 17 18  1  0
 18 19  1  0
 19 20  2  0
 20 21  1  0
 21 22  2  0
 22 23  1  0
 23 24  2  0
 18 25  2  0
 25 26  1  0
 26 27  1  0
 27 28  1  0
  8 29  1  0
 29 30  2  0
 30  5  1  0
 16 12  1  0
 27 17  2  0
 24 19  1  0
  1 31  1  0
  6 32  1  0
  7 33  1  0
 13 34  1  0
 14 35  1  0
 15 36  1  0
 20 37  1  0
 21 38  1  0
 22 39  1  0
 24 40  1  0
 28 41  1  0
 29 42  1  0
 30 43  1  0
M  CHG  2   1  -1  27   1
M  END
>  <UniqueID>  (15) 
14

>  <SMILES>  (15) 
[NH-]S(=O)(=O)c1ccc(S(=O)(=O)n2cccc2-c2c(-c3cccnc3)no[n+]2O)cc1

>  <Energy>  (15) 
120.33221009973181

>  <Genealogy>  (15) 
[NH-]S(=O)(=O)c1ccc(S(=O)(=O)n2cccc2-c2c(-c3cccnc3)no[n+]2O)cc1 (protonated)
[NH-]S(=O)(=O)c1ccc(S(=O)(=O)n2cccc2-c2c(-c3cccnc3)no[n+]2O)cc1 (3D coordinates assigned)
[NH-]S(=O)(=O)c1ccc(S(=O)(=O)n2cccc2-c2c(-c3cccnc3)no[n+]2O)cc1 (optimized conformer: 120.33221009973181 kcal/mol)

>  <smiles>  (15) 
NS(=O)(=O)c1ccc(S(=O)(=O)n2cccc2-c2c(-c3cccnc3)no[n+]2[O-])cc1

>  <score_type>  (15) 
oracle

>  <origin>  (15) 
adgpu

>  <m_score__min__energy>  (15) 
-10.369999999999999

>  <m_primary>  (15) 
energy

$$$$
15:0
     RDKit          3D

 35 36  0  0  0  0  0  0  0  0999 V2000
   -3.5270   24.5480  -27.0050 C   0  0  0  0  0  0  0  0  0  0  0  0
   -3.7220   24.1480  -28.2620 C   0  0  0  0  0  0  0  0  0  0  0  0
   -2.7950   24.5790  -29.3640 C   0  0  0  0  0  0  0  0  0  0  0  0
   -3.5300   25.2370  -30.4420 N   0  0  0  0  0  0  0  0  0  0  0  0
   -4.9050   25.0180  -30.7930 C   0  0  0  0  0  0  0  0  0  0  0  0
   -5.6820   26.0070  -30.8260 O   0  0  0  0  0  0  0  0  0  0  0  0
   -5.4560   23.6800  -31.0660 C   0  0  0  0  0  0  0  0  0  0  0  0
   -4.8660   22.4630  -30.7960 C   0  0  0  0  0  0  0  0  0  0  0  0
   -5.6800   21.5290  -31.2220 O   0  0  0  0  0  0  0  0  0  0  0  0
   -6.7190   22.1340  -31.7510 C   0  0  0  0  0  0  0  0  0  0  0  0
   -7.8970   21.4110  -32.3160 C   0  0  0  0  0  0  0  0  0  0  0  0
   -7.4880   20.0290  -32.7420 C   0  0  0  0  0  0  0  0  0  0  0  0
   -6.5190   19.8540  -33.7420 C   0  0  0  0  0  0  0  0  0  0  0  0
   -6.1050   18.5690  -34.1070 C   0  0  0  0  0  0  0  0  0  0  0  0
   -6.6500   17.4390  -33.4680 C   0  0  0  0  0  0  0  0  0  0  0  0
   -6.2670   16.1310  -33.7980 O   0  0  0  0  0  0  0  0  0  0  0  0
   -5.1460   15.4560  -33.2390 C   0  0  0  0  0  0  0  0  0  0  0  0
   -7.6080   17.6190  -32.4630 C   0  0  0  0  0  0  0  0  0  0  0  0
   -8.0210   18.9020  -32.0970 C   0  0  0  0  0  0  0  0  0  0  0  0
   -6.6320   23.4790  -31.6900 N   0  0  0  0  0  0  0  0  0  0  0  0
   -4.2156   24.2227  -26.2112 H   0  0  0  0  0  0  0  0  0  0  0  0
   -2.6776   25.2033  -26.7618 H   0  0  0  0  0  0  0  0  0  0  0  0
   -4.5740   23.4928  -28.4960 H   0  0  0  0  0  0  0  0  0  0  0  0
   -2.0524   25.2801  -28.9553 H   0  0  0  0  0  0  0  0  0  0  0  0
   -2.2994   23.6862  -29.7730 H   0  0  0  0  0  0  0  0  0  0  0  0
   -3.8909   22.3055  -30.3118 H   0  0  0  0  0  0  0  0  0  0  0  0
   -8.6836   21.3396  -31.5504 H   0  0  0  0  0  0  0  0  0  0  0  0
   -8.2784   21.9625  -33.1880 H   0  0  0  0  0  0  0  0  0  0  0  0
   -6.0830   20.7319  -34.2412 H   0  0  0  0  0  0  0  0  0  0  0  0
   -5.3502   18.4406  -34.8968 H   0  0  0  0  0  0  0  0  0  0  0  0
   -5.2062   15.4922  -32.1412 H   0  0  0  0  0  0  0  0  0  0  0  0
   -5.1459   14.4076  -33.5718 H   0  0  0  0  0  0  0  0  0  0  0  0
   -4.2193   15.9464  -33.5718 H   0  0  0  0  0  0  0  0  0  0  0  0
   -8.0391   16.7424  -31.9573 H   0  0  0  0  0  0  0  0  0  0  0  0
   -8.7676   19.0299  -31.2994 H   0  0  0  0  0  0  0  0  0  0  0  0
  1  2  2  0
  2  3  1  0
  3  4  1  0
  4  5  1  0
  5  6  2  0
  5  7  1  0
  7  8  2  0
  8  9  1  0
  9 10  1  0
 10 11  1  0
 11 12  1  0
 12 13  2  0
 13 14  1  0
 14 15  2  0
 15 16  1  0
 16 17  1  0
 15 18  1  0
 18 19  2  0
 10 20  2  0
 20  7  1  0
 19 12  1  0
  1 21  1  0
  1 22  1  0
  2 23  1  0
  3 24  1  0
  3 25  1  0
  8 26  1  0
 11 27  1  0
 11 28  1  0
 13 29  1  0
 14 30  1  0
 17 31  1  0
 17 32  1  0
 17 33  1  0
 18 34  1  0
 19 35  1  0
M  CHG  1   4  -1
M  END
>  <UniqueID>  (16) 
15

>  <SMILES>  (16) 
C=CC[N-]C(=O)c1coc(Cc2ccc(OC)cc2)n1

>  <Energy>  (16) 
61.31614186639531

>  <Genealogy>  (16) 
C=CC[N-]C(=O)c1coc(Cc2ccc(OC)cc2)n1 (protonated)
C=CC[N-]C(=O)c1coc(Cc2ccc(OC)cc2)n1 (3D coordinates assigned)
C=CC[N-]C(=O)c1coc(Cc2ccc(OC)cc2)n1 (optimized conformer: 61.31614186639531 kcal/mol)

>  <smiles>  (16) 
C=CCNC(=O)c1coc(Cc2ccc(OC)cc2)n1

>  <score_type>  (16) 
oracle

>  <origin>  (16) 
adgpu

>  <m_score__min__energy>  (16) 
-8.6099999999999994

>  <m_primary>  (16) 
energy

$$$$
16:0
     RDKit          3D

 45 48  0  0  0  0  0  0  0  0999 V2000
   -3.1700   24.9920  -26.3770 C   0  0  0  0  0  0  0  0  0  0  0  0
   -4.2530   24.5410  -27.3490 C   0  0  0  0  0  0  0  0  0  0  0  0
   -3.6590   24.1940  -28.6820 C   0  0  0  0  0  0  0  0  0  0  0  0
   -4.0860   24.5900  -29.9600 C   0  0  0  0  0  0  0  0  0  0  0  0
   -5.4340   25.7170  -30.3270 S   0  0  0  0  0  0  0  0  0  0  0  0
   -6.7680   24.6140  -29.7260 C   0  0  0  0  0  0  0  0  0  0  0  0
   -6.9080   23.3800  -30.5780 C   0  0  0  0  0  0  0  0  0  0  0  0
   -6.2520   23.2950  -31.8170 C   0  0  0  0  0  0  0  0  0  0  0  0
   -6.4250   22.1720  -32.6310 C   0  0  0  0  0  0  0  0  0  0  0  0
   -7.2530   21.1200  -32.2250 C   0  0  0  0  0  0  0  0  0  0  0  0
   -7.3950   20.0170  -33.0810 O   0  0  0  0  0  0  0  0  0  0  0  0
   -7.6070   18.6810  -32.6400 C   0  0  0  0  0  0  0  0  0  0  0  0
   -7.9120   21.2040  -30.9840 C   0  0  0  0  0  0  0  0  0  0  0  0
   -7.7390   22.3270  -30.1680 C   0  0  0  0  0  0  0  0  0  0  0  0
   -3.4820   23.8400  -30.9190 N   0  0  0  0  0  0  0  0  0  0  0  0
   -2.6410   23.0590  -30.2700 N   0  0  0  0  0  0  0  0  0  0  0  0
   -2.3310   21.7670  -30.4570 C   0  0  0  0  0  0  0  0  0  0  0  0
   -2.3290   21.0630  -31.7580 C   0  0  0  0  0  0  0  0  0  0  0  0
   -3.3930   20.2160  -32.1190 C   0  0  0  0  0  0  0  0  0  0  0  0
   -3.3750   19.5440  -33.3440 C   0  0  0  0  0  0  0  0  0  0  0  0
   -2.3000   19.7080  -34.2190 C   0  0  0  0  0  0  0  0  0  0  0  0
   -1.2380   20.5480  -33.8720 C   0  0  0  0  0  0  0  0  0  0  0  0
    0.1190   20.7440  -34.9660 Cl  0  0  0  0  0  0  0  0  0  0  0  0
   -1.2550   21.2290  -32.6490 C   0  0  0  0  0  0  0  0  0  0  0  0
   -2.2120   21.1550  -29.2490 N   0  0  0  0  0  0  0  0  0  0  0  0
   -2.5080   22.0520  -28.3070 N   0  0  0  0  0  0  0  0  0  0  0  0
   -2.7550   23.1960  -28.9690 C   0  0  0  0  0  0  0  0  0  0  0  0
   -3.5202   24.8462  -25.3445 H   0  0  0  0  0  0  0  0  0  0  0  0
   -2.2587   24.3986  -26.5424 H   0  0  0  0  0  0  0  0  0  0  0  0
   -2.9492   26.0569  -26.5424 H   0  0  0  0  0  0  0  0  0  0  0  0
   -4.7605   23.6556  -26.9385 H   0  0  0  0  0  0  0  0  0  0  0  0
   -4.9704   25.3637  -27.4852 H   0  0  0  0  0  0  0  0  0  0  0  0
   -6.5385   24.3089  -28.6944 H   0  0  0  0  0  0  0  0  0  0  0  0
   -7.7159   25.1698  -29.7756 H   0  0  0  0  0  0  0  0  0  0  0  0
   -5.5991   24.1160  -32.1483 H   0  0  0  0  0  0  0  0  0  0  0  0
   -5.9057   22.1149  -33.5990 H   0  0  0  0  0  0  0  0  0  0  0  0
   -7.6113   18.6542  -31.5403 H   0  0  0  0  0  0  0  0  0  0  0  0
   -8.5739   18.3187  -33.0194 H   0  0  0  0  0  0  0  0  0  0  0  0
   -6.7998   18.0372  -33.0194 H   0  0  0  0  0  0  0  0  0  0  0  0
   -8.5658   20.3831  -30.6544 H   0  0  0  0  0  0  0  0  0  0  0  0
   -8.2575   22.3846  -29.1996 H   0  0  0  0  0  0  0  0  0  0  0  0
   -4.2430   20.0822  -31.4337 H   0  0  0  0  0  0  0  0  0  0  0  0
   -4.2105   18.8838  -33.6196 H   0  0  0  0  0  0  0  0  0  0  0  0
   -2.2885   19.1761  -35.1818 H   0  0  0  0  0  0  0  0  0  0  0  0
   -0.4229   21.8979  -32.3839 H   0  0  0  0  0  0  0  0  0  0  0  0
  1  2  1  0
  2  3  1  0
  3  4  2  0
  4  5  1  0
  5  6  1  0
  6  7  1  0
  7  8  2  0
  8  9  1  0
  9 10  2  0
 10 11  1  0
 11 12  1  0
 10 13  1  0
 13 14  2  0
  4 15  1  0
 15 16  1  0
 16 17  1  0
 17 18  1  0
 18 19  2  0
 19 20  1  0
 20 21  2  0
 21 22  1  0
 22 23  1  0
 22 24  2  0
 17 25  2  0
 25 26  1  0
 26 27  2  0
 27  3  1  0
 14  7  1  0
 27 16  1  0
 24 18  1  0
  1 28  1  0
  1 29  1  0
  1 30  1  0
  2 31  1  0
  2 32  1  0
  6 33  1  0
  6 34  1  0
  8 35  1  0
  9 36  1  0
 12 37  1  0
 12 38  1  0
 12 39  1  0
 13 40  1  0
 14 41  1  0
 19 42  1  0
 20 43  1  0
 21 44  1  0
 24 45  1  0
M  CHG  1  15  -1
M  END
>  <UniqueID>  (17) 
16

>  <SMILES>  (17) 
CCc1c(SCc2ccc(OC)cc2)[n-]n2c(-c3cccc(Cl)c3)nnc12

>  <Energy>  (17) 
134.85639814881048

>  <Genealogy>  (17) 
CCc1c(SCc2ccc(OC)cc2)[n-]n2c(-c3cccc(Cl)c3)nnc12 (protonated)
CCc1c(SCc2ccc(OC)cc2)[n-]n2c(-c3cccc(Cl)c3)nnc12 (3D coordinates assigned)
CCc1c(SCc2ccc(OC)cc2)[n-]n2c(-c3cccc(Cl)c3)nnc12 (optimized conformer: 134.85639814881048 kcal/mol)

>  <smiles>  (17) 
CCc1c(SCc2ccc(OC)cc2)[nH]n2c(-c3cccc(Cl)c3)nnc12

>  <score_type>  (17) 
oracle

>  <origin>  (17) 
adgpu

>  <m_score__min__energy>  (17) 
-9.2799999999999994

>  <m_primary>  (17) 
energy

$$$$
17:0
     RDKit          3D

 47 49  0  0  0  0  0  0  0  0999 V2000
   -2.8270   23.1050  -29.1140 C   0  0  0  0  0  0  0  0  0  0  0  0
   -2.8180   24.4730  -29.7080 C   0  0  0  0  0  0  0  0  0  0  0  0
   -1.9410   25.3010  -29.3450 O   0  0  0  0  0  0  0  0  0  0  0  0
   -3.8710   24.8610  -30.5990 N   0  0  0  0  0  0  0  0  0  0  0  0
   -5.0720   24.1210  -30.8690 C   0  0  0  0  0  0  0  0  0  0  0  0
   -6.0510   24.0420  -29.8710 C   0  0  0  0  0  0  0  0  0  0  0  0
   -7.2260   23.3180  -30.0890 C   0  0  0  0  0  0  0  0  0  0  0  0
   -7.4400   22.6700  -31.3110 C   0  0  0  0  0  0  0  0  0  0  0  0
   -8.6400   21.9170  -31.5030 N   0  0  0  0  0  0  0  0  0  0  0  0
   -8.6530   20.2420  -31.9480 S   0  0  0  0  0  0  0  0  0  0  0  0
   -9.0630   19.4250  -30.7540 O   0  0  0  0  0  0  0  0  0  0  0  0
   -9.6680   20.0300  -33.0360 O   0  0  0  0  0  0  0  0  0  0  0  0
   -7.0720   19.6910  -32.4940 C   0  0  0  0  0  0  0  0  0  0  0  0
   -6.1250   19.2340  -31.5680 C   0  0  0  0  0  0  0  0  0  0  0  0
   -4.8760   18.7830  -32.0040 C   0  0  0  0  0  0  0  0  0  0  0  0
   -4.5670   18.7720  -33.3710 C   0  0  0  0  0  0  0  0  0  0  0  0
   -2.9970   18.1820  -33.9220 S   0  0  0  0  0  0  0  0  0  0  0  0
   -3.1700   17.4840  -35.2430 O   0  0  0  0  0  0  0  0  0  0  0  0
   -2.4750   17.1750  -32.9340 O   0  0  0  0  0  0  0  0  0  0  0  0
   -1.8280   19.4750  -34.0950 N   0  0  0  0  0  0  0  0  0  0  0  0
   -0.7510   19.3470  -33.1080 C   0  0  0  0  0  0  0  0  0  0  0  0
   -1.0720   20.2560  -31.9320 C   0  0  0  0  0  0  0  0  0  0  0  0
   -2.1250   21.2200  -32.4360 C   0  0  0  0  0  0  0  0  0  0  0  0
   -2.4450   20.7850  -33.8600 C   0  0  0  0  0  0  0  0  0  0  0  0
   -5.5150   19.2290  -34.2970 C   0  0  0  0  0  0  0  0  0  0  0  0
   -6.7620   19.6870  -33.8610 C   0  0  0  0  0  0  0  0  0  0  0  0
   -6.4400   22.7030  -32.2930 C   0  0  0  0  0  0  0  0  0  0  0  0
   -5.2610   23.4230  -32.0740 C   0  0  0  0  0  0  0  0  0  0  0  0
   -2.8265   23.1817  -28.0167 H   0  0  0  0  0  0  0  0  0  0  0  0
   -3.7287   22.5681  -29.4436 H   0  0  0  0  0  0  0  0  0  0  0  0
   -1.9324   22.5562  -29.4436 H   0  0  0  0  0  0  0  0  0  0  0  0
   -5.8941   24.5530  -28.9096 H   0  0  0  0  0  0  0  0  0  0  0  0
   -7.9864   23.2570  -29.2965 H   0  0  0  0  0  0  0  0  0  0  0  0
   -6.3653   19.2301  -30.4946 H   0  0  0  0  0  0  0  0  0  0  0  0
   -4.1327   18.4354  -31.2714 H   0  0  0  0  0  0  0  0  0  0  0  0
   -0.6830   18.3042  -32.7646 H   0  0  0  0  0  0  0  0  0  0  0  0
    0.2114   19.6334  -33.5573 H   0  0  0  0  0  0  0  0  0  0  0  0
   -1.4623   19.6682  -31.0881 H   0  0  0  0  0  0  0  0  0  0  0  0
   -0.1773   20.7841  -31.5705 H   0  0  0  0  0  0  0  0  0  0  0  0
   -3.0262   21.1644  -31.8077 H   0  0  0  0  0  0  0  0  0  0  0  0
   -1.7681   22.2600  -32.4029 H   0  0  0  0  0  0  0  0  0  0  0  0
   -3.5348   20.7107  -33.9895 H   0  0  0  0  0  0  0  0  0  0  0  0
   -2.0523   21.5212  -34.5768 H   0  0  0  0  0  0  0  0  0  0  0  0
   -5.2769   19.2273  -35.3709 H   0  0  0  0  0  0  0  0  0  0  0  0
   -7.5015   20.0450  -34.5924 H   0  0  0  0  0  0  0  0  0  0  0  0
   -6.5831   22.1606  -33.2392 H   0  0  0  0  0  0  0  0  0  0  0  0
   -4.4792   23.4430  -32.8475 H   0  0  0  0  0  0  0  0  0  0  0  0
  1  2  1  0
  2  3  2  0
  2  4  1  0
  4  5  1  0
  5  6  2  0
  6  7  1  0
  7  8  2  0
  8  9  1  0
  9 10  1  0
 10 11  2  0
 10 12  2  0
 10 13  1  0
 13 14  2  0
 14 15  1  0
 15 16  2  0
 16 17  1  0
 17 18  2  0
 17 19  2  0
 17 20  1  0
 20 21  1  0
 21 22  1  0
 22 23  1  0
 23 24  1  0
 16 25  1  0
 25 26  2  0
  8 27  1  0
 27 28  2  0
 28  5  1  0
 26 13  1  0
 24 20  1  0
  1 29  1  0
  1 30  1  0
  1 31  1  0
  6 32  1  0
  7 33  1  0
 14 34  1  0
 15 35  1  0
 21 36  1  0
 21 37  1  0
 22 38  1  0
 22 39  1  0
 23 40  1  0
 23 41  1  0
 24 42  1  0
 24 43  1  0
 25 44  1  0
 26 45  1  0
 27 46  1  0
 28 47  1  0
M  CHG  2   4  -1   9  -1
M  END
>  <UniqueID>  (18) 
17

>  <SMILES>  (18) 
CC(=O)[N-]c1ccc([N-]S(=O)(=O)c2ccc(S(=O)(=O)N3CCCC3)cc2)cc1

>  <Energy>  (18) 
55.94522448494793

>  <Genealogy>  (18) 
CC(=O)[N-]c1ccc([N-]S(=O)(=O)c2ccc(S(=O)(=O)N3CCCC3)cc2)cc1 (protonated)
CC(=O)[N-]c1ccc([N-]S(=O)(=O)c2ccc(S(=O)(=O)N3CCCC3)cc2)cc1 (3D coordinates assigned)
CC(=O)[N-]c1ccc([N-]S(=O)(=O)c2ccc(S(=O)(=O)N3CCCC3)cc2)cc1 (nonaromatic ring conformer: 55.94522448494793 kcal/mol)

>  <smiles>  (18) 
CC(=O)Nc1ccc(NS(=O)(=O)c2ccc(S(=O)(=O)N3CCCC3)cc2)cc1

>  <score_type>  (18) 
oracle

>  <origin>  (18) 
adgpu

>  <m_score__min__energy>  (18) 
-11.17

>  <m_primary>  (18) 
energy

$$$$
18:0
     RDKit          3D

 70 74  0  0  0  0  0  0  0  0999 V2000
   -5.2700   25.6770  -30.4890 C   0  0  0  0  0  0  0  0  0  0  0  0
   -3.9020   25.2870  -30.4210 O   0  0  0  0  0  0  0  0  0  0  0  0
   -3.4430   24.1160  -29.8000 C   0  0  0  0  0  0  0  0  0  0  0  0
   -3.3940   22.9390  -30.5540 C   0  0  0  0  0  0  0  0  0  0  0  0
   -2.9420   21.7460  -29.9820 C   0  0  0  0  0  0  0  0  0  0  0  0
   -2.5170   21.7090  -28.6430 C   0  0  0  0  0  0  0  0  0  0  0  0
   -2.0460   20.4770  -28.0530 N   0  0  0  0  0  0  0  0  0  0  0  0
   -2.8850   19.7420  -27.1050 C   0  0  0  0  0  0  0  0  0  0  0  0
   -0.4460   19.8780  -28.4070 S   0  0  0  0  0  0  0  0  0  0  0  0
   -0.1950   18.6110  -27.6350 O   0  0  0  0  0  0  0  0  0  0  0  0
    0.5770   20.9020  -27.9970 O   0  0  0  0  0  0  0  0  0  0  0  0
   -0.2660   19.5200  -30.1250 C   0  0  0  0  0  0  0  0  0  0  0  0
   -0.3110   20.5530  -31.0690 C   0  0  0  0  0  0  0  0  0  0  0  0
   -0.2120   20.2630  -32.4330 C   0  0  0  0  0  0  0  0  0  0  0  0
   -0.0580   18.9430  -32.8610 C   0  0  0  0  0  0  0  0  0  0  0  0
    0.0160   17.8970  -31.9260 C   0  0  0  0  0  0  0  0  0  0  0  0
    0.2050   16.5030  -32.3760 C   0  0  0  0  0  0  0  0  0  0  0  0
    1.1220   15.8010  -31.8740 O   0  0  0  0  0  0  0  0  0  0  0  0
   -0.6920   15.9320  -33.3370 N   0  0  0  0  0  0  0  0  0  0  0  0
   -2.0710   15.6130  -33.1050 C   0  0  0  0  0  0  0  0  0  0  0  0
   -2.4490   14.4650  -32.3880 C   0  0  0  0  0  0  0  0  0  0  0  0
   -3.8010   14.1670  -32.2040 C   0  0  0  0  0  0  0  0  0  0  0  0
   -4.7840   15.0110  -32.7290 C   0  0  0  0  0  0  0  0  0  0  0  0
   -4.4190   16.1550  -33.4490 C   0  0  0  0  0  0  0  0  0  0  0  0
   -5.6680   17.2120  -34.1010 S   0  0  0  0  0  0  0  0  0  0  0  0
   -6.9780   16.4770  -34.1640 O   0  0  0  0  0  0  0  0  0  0  0  0
   -5.2760   17.6110  -35.4970 O   0  0  0  0  0  0  0  0  0  0  0  0
   -5.8310   18.6390  -33.1060 N   0  0  1  0  0  0  0  0  0  0  0  0
   -4.9620   19.7100  -33.6300 C   0  0  0  0  0  0  0  0  0  0  0  0
   -4.9520   20.9100  -32.6760 C   0  0  0  0  0  0  0  0  0  0  0  0
   -6.3370   21.2860  -32.2230 C   0  0  0  0  0  0  0  0  0  0  0  0
   -6.5370   22.5170  -31.5770 C   0  0  0  0  0  0  0  0  0  0  0  0
   -7.8000   22.8610  -31.0870 C   0  0  0  0  0  0  0  0  0  0  0  0
   -8.8720   21.9780  -31.2350 C   0  0  0  0  0  0  0  0  0  0  0  0
   -8.6840   20.7480  -31.8680 C   0  0  0  0  0  0  0  0  0  0  0  0
   -7.4150   20.3830  -32.3470 C   0  0  0  0  0  0  0  0  0  0  0  0
   -7.2430   19.0700  -33.0770 C   0  0  0  0  0  0  0  0  0  0  0  0
   -3.0600   16.4390  -33.6550 C   0  0  0  0  0  0  0  0  0  0  0  0
   -0.0920   18.1960  -30.5540 C   0  0  0  0  0  0  0  0  0  0  0  0
   -2.5750   22.8940  -27.8840 C   0  0  0  0  0  0  0  0  0  0  0  0
   -3.0340   24.0840  -28.4550 C   0  0  0  0  0  0  0  0  0  0  0  0
   -5.6698   25.7910  -29.4706 H   0  0  0  0  0  0  0  0  0  0  0  0
   -5.3522   26.6344  -31.0245 H   0  0  0  0  0  0  0  0  0  0  0  0
   -5.8446   24.9069  -31.0245 H   0  0  0  0  0  0  0  0  0  0  0  0
   -3.7139   22.9521  -31.6064 H   0  0  0  0  0  0  0  0  0  0  0  0
   -2.9188   20.8271  -30.5862 H   0  0  0  0  0  0  0  0  0  0  0  0
   -2.5900   20.0005  -26.0773 H   0  0  0  0  0  0  0  0  0  0  0  0
   -3.9396   20.0122  -27.2627 H   0  0  0  0  0  0  0  0  0  0  0  0
   -2.7559   18.6610  -27.2627 H   0  0  0  0  0  0  0  0  0  0  0  0
   -0.4245   21.5954  -30.7366 H   0  0  0  0  0  0  0  0  0  0  0  0
   -0.2556   21.0773  -33.1713 H   0  0  0  0  0  0  0  0  0  0  0  0
    0.0058   18.7207  -33.9364 H   0  0  0  0  0  0  0  0  0  0  0  0
   -1.6786   13.7998  -31.9709 H   0  0  0  0  0  0  0  0  0  0  0  0
   -4.0931   13.2660  -31.6446 H   0  0  0  0  0  0  0  0  0  0  0  0
   -5.8476   14.7756  -32.5760 H   0  0  0  0  0  0  0  0  0  0  0  0
   -5.5260   18.3840  -32.1360 H   0  0  0  0  0  0  0  0  0  0  0  0
   -3.9373   19.3245  -33.7372 H   0  0  0  0  0  0  0  0  0  0  0  0
   -5.3494   20.0358  -34.6066 H   0  0  0  0  0  0  0  0  0  0  0  0
   -4.3470   20.6559  -31.7931 H   0  0  0  0  0  0  0  0  0  0  0  0
   -4.5283   21.7688  -33.2172 H   0  0  0  0  0  0  0  0  0  0  0  0
   -5.6949   23.2143  -31.4560 H   0  0  0  0  0  0  0  0  0  0  0  0
   -7.9498   23.8279  -30.5844 H   0  0  0  0  0  0  0  0  0  0  0  0
   -9.8661   22.2522  -30.8521 H   0  0  0  0  0  0  0  0  0  0  0  0
   -9.5341   20.0611  -31.9923 H   0  0  0  0  0  0  0  0  0  0  0  0
   -7.8401   18.2989  -32.5682 H   0  0  0  0  0  0  0  0  0  0  0  0
   -7.5790   19.2096  -34.1151 H   0  0  0  0  0  0  0  0  0  0  0  0
   -2.7695   17.3159  -34.2522 H   0  0  0  0  0  0  0  0  0  0  0  0
   -0.0395   17.3848  -29.8130 H   0  0  0  0  0  0  0  0  0  0  0  0
   -2.2559   22.8827  -26.8314 H   0  0  0  0  0  0  0  0  0  0  0  0
   -3.0756   25.0010  -27.8488 H   0  0  0  0  0  0  0  0  0  0  0  0
  1  2  1  0
  2  3  1  0
  3  4  2  0
  4  5  1  0
  5  6  2  0
  6  7  1  0
  7  8  1  0
  7  9  1  0
  9 10  2  0
  9 11  2  0
  9 12  1  0
 12 13  2  0
 13 14  1  0
 14 15  2  0
 15 16  1  0
 16 17  1  0
 17 18  2  0
 17 19  1  0
 19 20  1  0
 20 21  2  0
 21 22  1  0
 22 23  2  0
 23 24  1  0
 24 25  1  0
 25 26  2  0
 25 27  2  0
 25 28  1  0
 28 29  1  0
 29 30  1  0
 30 31  1  0
 31 32  2  0
 32 33  1  0
 33 34  2  0
 34 35  1  0
 35 36  2  0
 36 37  1  0
 24 38  2  0
 16 39  2  0
  6 40  1  0
 40 41  2  0
 41  3  1  0
 39 12  1  0
 38 20  1  0
 37 28  1  0
 36 31  1  0
  1 42  1  0
  1 43  1  0
  1 44  1  0
  4 45  1  0
  5 46  1  0
  8 47  1  0
  8 48  1  0
  8 49  1  0
 13 50  1  0
 14 51  1  0
 15 52  1  0
 21 53  1  0
 22 54  1  0
 23 55  1  0
 28 56  1  1
 29 57  1  0
 29 58  1  0
 30 59  1  0
 30 60  1  0
 32 61  1  0
 33 62  1  0
 34 63  1  0
 35 64  1  0
 37 65  1  0
 37 66  1  0
 38 67  1  0
 39 68  1  0
 40 69  1  0
 41 70  1  0
M  CHG  2  19  -1  28   1
M  END
>  <UniqueID>  (19) 
18

>  <SMILES>  (19) 
COc1ccc(N(C)S(=O)(=O)c2cccc(C(=O)[N-]c3cccc(S(=O)(=O)[N@H+]4CCc5ccccc5C4)c3)c2)cc1

>  <Energy>  (19) 
86.63310196408187

>  <Genealogy>  (19) 
COc1ccc(N(C)S(=O)(=O)c2cccc(C(=O)[N-]c3cccc(S(=O)(=O)[NH+]4CCc5ccccc5C4)c3)c2)cc1 (protonated)
COc1ccc(N(C)S(=O)(=O)c2cccc(C(=O)[N-]c3cccc(S(=O)(=O)[N@H+]4CCc5ccccc5C4)c3)c2)cc1 (chirality)
COc1ccc(N(C)S(=O)(=O)c2cccc(C(=O)[N-]c3cccc(S(=O)(=O)[N@H+]4CCc5ccccc5C4)c3)c2)cc1 (3D coordinates assigned)
COc1ccc(N(C)S(=O)(=O)c2cccc(C(=O)[N-]c3cccc(S(=O)(=O)[N@H+]4CCc5ccccc5C4)c3)c2)cc1 (nonaromatic ring conformer: 86.63310196408187 kcal/mol)

>  <smiles>  (19) 
COc1ccc(N(C)S(=O)(=O)c2cccc(C(=O)Nc3cccc(S(=O)(=O)N4CCc5ccccc5C4)c3)c2)cc1

>  <score_type>  (19) 
oracle

>  <origin>  (19) 
adgpu

>  <m_score__min__energy>  (19) 
-12.390000000000001

>  <m_primary>  (19) 
energy

$$$$
19:0
     RDKit          3D

 48 51  0  0  0  0  0  0  0  0999 V2000
   -0.0930   22.8230  -29.7170 O   0  0  0  0  0  0  0  0  0  0  0  0
   -1.4370   22.1640  -29.8550 S   0  0  0  0  0  0  0  0  0  0  0  0
   -1.5430   21.5540  -31.2240 O   0  0  0  0  0  0  0  0  0  0  0  0
   -2.6790   23.3610  -29.6650 N   0  0  0  0  0  0  0  0  0  0  0  0
   -3.9820   23.2970  -30.2600 C   0  0  0  0  0  0  0  0  0  0  0  0
   -4.7010   22.0920  -30.3470 C   0  0  0  0  0  0  0  0  0  0  0  0
   -5.9610   22.0530  -30.9600 C   0  0  0  0  0  0  0  0  0  0  0  0
   -6.5350   23.2410  -31.4540 C   0  0  0  0  0  0  0  0  0  0  0  0
   -5.8170   24.4420  -31.3650 C   0  0  0  0  0  0  0  0  0  0  0  0
   -4.5530   24.4710  -30.7700 C   0  0  0  0  0  0  0  0  0  0  0  0
   -3.8610   25.6730  -30.6910 O   0  0  0  0  0  0  0  0  0  0  0  0
   -7.8650   23.2320  -32.1630 C   0  0  0  0  0  0  0  0  0  0  0  0
   -8.6300   21.9130  -31.9670 C   0  0  0  0  0  0  0  0  0  0  0  0
   -7.7550   20.7230  -32.0510 N   0  0  0  0  0  0  0  0  0  0  0  0
   -7.1560   20.5140  -33.3880 C   0  0  0  0  0  0  0  0  0  0  0  0
   -6.5420   19.1420  -33.4900 C   0  0  0  0  0  0  0  0  0  0  0  0
   -5.3230   18.9520  -34.1630 C   0  0  0  0  0  0  0  0  0  0  0  0
   -4.7720   17.6710  -34.2700 C   0  0  0  0  0  0  0  0  0  0  0  0
   -5.4340   16.5740  -33.7120 C   0  0  0  0  0  0  0  0  0  0  0  0
   -6.6490   16.7550  -33.0460 C   0  0  0  0  0  0  0  0  0  0  0  0
   -7.2030   18.0340  -32.9350 C   0  0  0  0  0  0  0  0  0  0  0  0
   -6.7340   20.7550  -30.9860 C   0  0  0  0  0  0  0  0  0  0  0  0
   -1.6420   20.8960  -28.6510 C   0  0  0  0  0  0  0  0  0  0  0  0
   -2.8490   20.7660  -27.9450 C   0  0  0  0  0  0  0  0  0  0  0  0
   -3.0060   19.7400  -27.0080 C   0  0  0  0  0  0  0  0  0  0  0  0
   -1.9600   18.8430  -26.7690 C   0  0  0  0  0  0  0  0  0  0  0  0
   -0.7560   18.9720  -27.4670 C   0  0  0  0  0  0  0  0  0  0  0  0
   -0.5950   19.9970  -28.4050 C   0  0  0  0  0  0  0  0  0  0  0  0
   -4.2702   21.1700  -29.9296 H   0  0  0  0  0  0  0  0  0  0  0  0
   -6.2522   25.3689  -31.7668 H   0  0  0  0  0  0  0  0  0  0  0  0
   -8.4786   24.0568  -31.7715 H   0  0  0  0  0  0  0  0  0  0  0  0
   -7.6698   23.3474  -33.2394 H   0  0  0  0  0  0  0  0  0  0  0  0
   -9.1080   21.9282  -30.9764 H   0  0  0  0  0  0  0  0  0  0  0  0
   -9.3702   21.8368  -32.7771 H   0  0  0  0  0  0  0  0  0  0  0  0
   -7.9387   20.6168  -34.1540 H   0  0  0  0  0  0  0  0  0  0  0  0
   -6.3679   21.2656  -33.5430 H   0  0  0  0  0  0  0  0  0  0  0  0
   -4.8011   19.8127  -34.6066 H   0  0  0  0  0  0  0  0  0  0  0  0
   -3.8158   17.5267  -34.7943 H   0  0  0  0  0  0  0  0  0  0  0  0
   -4.9984   15.5675  -33.7971 H   0  0  0  0  0  0  0  0  0  0  0  0
   -7.1701   15.8906  -32.6087 H   0  0  0  0  0  0  0  0  0  0  0  0
   -8.1602   18.1729  -32.4110 H   0  0  0  0  0  0  0  0  0  0  0  0
   -7.2337   20.6232  -30.0150 H   0  0  0  0  0  0  0  0  0  0  0  0
   -6.0176   19.9449  -31.1873 H   0  0  0  0  0  0  0  0  0  0  0  0
   -3.6720   21.4722  -28.1293 H   0  0  0  0  0  0  0  0  0  0  0  0
   -3.9533   19.6383  -26.4583 H   0  0  0  0  0  0  0  0  0  0  0  0
   -2.0848   18.0361  -26.0318 H   0  0  0  0  0  0  0  0  0  0  0  0
    0.0664   18.2662  -27.2783 H   0  0  0  0  0  0  0  0  0  0  0  0
    0.3548   20.0978  -28.9506 H   0  0  0  0  0  0  0  0  0  0  0  0
  1  2  2  0
  2  3  2  0
  2  4  1  0
  4  5  1  0
  5  6  2  0
  6  7  1  0
  7  8  2  0
  8  9  1  0
  9 10  2  0
 10 11  1  0
  8 12  1  0
 12 13  1  0
 13 14  1  0
 14 15  1  0
 15 16  1  0
 16 17  2  0
 17 18  1  0
 18 19  2  0
 19 20  1  0
 20 21  2  0
 14 22  1  0
  2 23  1  0
 23 24  2  0
 24 25  1  0
 25 26  2  0
 26 27  1  0
 27 28  2  0
 10  5  1  0
 21 16  1  0
 28 23  1  0
 22  7  1  0
  6 29  1  0
  9 30  1  0
 12 31  1  0
 12 32  1  0
 13 33  1  0
 13 34  1  0
 15 35  1  0
 15 36  1  0
 17 37  1  0
 18 38  1  0
 19 39  1  0
 20 40  1  0
 21 41  1  0
 22 42  1  0
 22 43  1  0
 24 44  1  0
 25 45  1  0
 26 46  1  0
 27 47  1  0
 28 48  1  0
M  CHG  2   4  -1  11  -1
M  END
>  <UniqueID>  (20) 
19

>  <SMILES>  (20) 
O=S(=O)([N-]c1cc2c(cc1[O-])CCN(Cc1ccccc1)C2)c1ccccc1

>  <Energy>  (20) 
60.792299304043844

>  <Genealogy>  (20) 
O=S(=O)([N-]c1cc2c(cc1[O-])CCN(Cc1ccccc1)C2)c1ccccc1 (protonated)
O=S(=O)([N-]c1cc2c(cc1[O-])CCN(Cc1ccccc1)C2)c1ccccc1 (3D coordinates assigned)
O=S(=O)([N-]c1cc2c(cc1[O-])CCN(Cc1ccccc1)C2)c1ccccc1 (nonaromatic ring conformer: 60.792299304043844 kcal/mol)

>  <smiles>  (20) 
O=S(=O)(Nc1cc2c(cc1O)CCN(Cc1ccccc1)C2)c1ccccc1

>  <score_type>  (20) 
oracle

>  <origin>  (20) 
adgpu

>  <m_score__min__energy>  (20) 
-13.08

>  <m_primary>  (20) 
energy

$$$$
20:0
     RDKit          3D

 37 39  0  0  0  0  0  0  0  0999 V2000
   -0.5450   24.8800  -24.3300 C   0  0  0  0  0  0  0  0  0  0  0  0
   -1.2350   25.8350  -25.2070 N   0  0  0  0  0  0  0  0  0  0  0  0
   -1.2100   27.2620  -24.8610 C   0  0  0  0  0  0  0  0  0  0  0  0
   -1.9300   25.3760  -26.3970 C   0  0  0  0  0  0  0  0  0  0  0  0
   -1.2840   25.3560  -27.6500 C   0  0  0  0  0  0  0  0  0  0  0  0
   -1.9540   24.9130  -28.7940 C   0  0  0  0  0  0  0  0  0  0  0  0
   -3.2840   24.4810  -28.7170 C   0  0  0  0  0  0  0  0  0  0  0  0
   -3.9850   24.0140  -29.9300 C   0  0  0  0  0  0  0  0  0  0  0  0
   -4.6080   24.8210  -30.8110 N   0  0  0  0  0  0  0  0  0  0  0  0
   -5.1070   24.0330  -31.7510 N   0  0  0  0  0  0  0  0  0  0  0  0
   -4.7710   22.7740  -31.4080 C   0  0  0  0  0  0  0  0  0  0  0  0
   -5.1290   21.5720  -32.1860 C   0  0  0  0  0  0  0  0  0  0  0  0
   -6.4750   21.2270  -32.3920 C   0  0  0  0  0  0  0  0  0  0  0  0
   -6.8080   20.0870  -33.1300 C   0  0  0  0  0  0  0  0  0  0  0  0
   -5.8010   19.2690  -33.6740 C   0  0  0  0  0  0  0  0  0  0  0  0
   -6.1400   18.0950  -34.4340 N   0  0  0  0  0  0  0  0  0  0  0  0
   -5.7340   17.9560  -35.6080 O   0  0  0  0  0  0  0  0  0  0  0  0
   -6.9190   17.1040  -33.8820 O   0  0  0  0  0  0  0  0  0  0  0  0
   -4.4560   19.6180  -33.4660 C   0  0  0  0  0  0  0  0  0  0  0  0
   -4.1240   20.7580  -32.7290 C   0  0  0  0  0  0  0  0  0  0  0  0
   -4.0810   22.7570  -30.2920 O   0  0  0  0  0  0  0  0  0  0  0  0
   -3.9370   24.4970  -27.4760 C   0  0  0  0  0  0  0  0  0  0  0  0
   -3.2690   24.9380  -26.3300 C   0  0  0  0  0  0  0  0  0  0  0  0
   -0.7354   25.1435  -23.2791 H   0  0  0  0  0  0  0  0  0  0  0  0
   -0.9194   23.8646  -24.5270 H   0  0  0  0  0  0  0  0  0  0  0  0
    0.5366   24.9166  -24.5270 H   0  0  0  0  0  0  0  0  0  0  0  0
   -1.2080   27.3740  -23.7667 H   0  0  0  0  0  0  0  0  0  0  0  0
   -0.3036   27.7247  -25.2786 H   0  0  0  0  0  0  0  0  0  0  0  0
   -2.0996   27.7562  -25.2786 H   0  0  0  0  0  0  0  0  0  0  0  0
   -0.2399   25.6932  -27.7283 H   0  0  0  0  0  0  0  0  0  0  0  0
   -1.4325   24.9036  -29.7625 H   0  0  0  0  0  0  0  0  0  0  0  0
   -7.2717   21.8574  -31.9703 H   0  0  0  0  0  0  0  0  0  0  0  0
   -7.8655   19.8278  -33.2864 H   0  0  0  0  0  0  0  0  0  0  0  0
   -3.6578   18.9888  -33.8867 H   0  0  0  0  0  0  0  0  0  0  0  0
   -3.0667   21.0189  -32.5736 H   0  0  0  0  0  0  0  0  0  0  0  0
   -4.9817   24.1603  -27.4039 H   0  0  0  0  0  0  0  0  0  0  0  0
   -3.7944   24.9435  -25.3636 H   0  0  0  0  0  0  0  0  0  0  0  0
  1  2  1  0
  2  3  1  0
  2  4  1  0
  4  5  2  0
  5  6  1  0
  6  7  2  0
  7  8  1  0
  8  9  2  0
  9 10  1  0
 10 11  2  0
 11 12  1  0
 12 13  2  0
 13 14  1  0
 14 15  2  0
 15 16  1  0
 16 17  2  0
 16 18  1  0
 15 19  1  0
 19 20  2  0
 11 21  1  0
  7 22  1  0
 22 23  2  0
 23  4  1  0
 21  8  1  0
 20 12  1  0
  1 24  1  0
  1 25  1  0
  1 26  1  0
  3 27  1  0
  3 28  1  0
  3 29  1  0
  5 30  1  0
  6 31  1  0
 13 32  1  0
 14 33  1  0
 19 34  1  0
 20 35  1  0
 22 36  1  0
 23 37  1  0
M  CHG  2  16   1  18  -1
M  END
>  <UniqueID>  (21) 
20

>  <SMILES>  (21) 
CN(C)c1ccc(-c2nnc(-c3ccc([N+](=O)[O-])cc3)o2)cc1

>  <Energy>  (21) 
76.94156438847335

>  <Genealogy>  (21) 
CN(C)c1ccc(-c2nnc(-c3ccc([N+](=O)[O-])cc3)o2)cc1 (3D coordinates assigned)
CN(C)c1ccc(-c2nnc(-c3ccc([N+](=O)[O-])cc3)o2)cc1 (optimized conformer: 76.94156438847335 kcal/mol)

>  <smiles>  (21) 
CN(C)c1ccc(-c2nnc(-c3ccc([N+](=O)[O-])cc3)o2)cc1

>  <score_type>  (21) 
oracle

>  <origin>  (21) 
adgpu

>  <m_score__min__energy>  (21) 
-8.0099999999999998

>  <m_primary>  (21) 
energy

$$$$
21:0
     RDKit          3D

 58 61  0  0  0  0  0  0  0  0999 V2000
   -0.0750   20.9180  -32.0040 C   0  0  0  0  0  0  0  0  0  0  0  0
   -0.4200   21.5750  -30.7910 O   0  0  0  0  0  0  0  0  0  0  0  0
   -0.9300   20.8950  -29.6790 C   0  0  0  0  0  0  0  0  0  0  0  0
   -0.2070   19.9070  -29.0790 N   0  0  0  0  0  0  0  0  0  0  0  0
   -0.6660   19.2400  -27.9880 C   0  0  0  0  0  0  0  0  0  0  0  0
   -1.9110   19.5620  -27.4450 C   0  0  0  0  0  0  0  0  0  0  0  0
   -2.6750   20.5670  -28.0380 C   0  0  0  0  0  0  0  0  0  0  0  0
   -2.1930   21.2370  -29.1690 C   0  0  0  0  0  0  0  0  0  0  0  0
   -3.0010   22.3060  -29.7870 C   0  0  0  0  0  0  0  0  0  0  0  0
   -2.8540   23.6710  -29.5390 C   0  0  0  0  0  0  0  0  0  0  0  0
   -1.9180   24.2960  -28.5780 C   0  0  0  0  0  0  0  0  0  0  0  0
   -1.1800   25.2410  -28.9640 O   0  0  0  0  0  0  0  0  0  0  0  0
   -1.8790   23.9010  -27.1240 C   0  0  0  0  0  0  0  0  0  0  0  0
   -0.4470   23.6680  -26.5920 C   0  0  0  0  0  0  0  0  0  0  0  0
    0.5110   23.1810  -27.6890 C   0  0  0  0  0  0  0  0  0  0  0  0
   -0.4240   22.7150  -25.3880 C   0  0  0  0  0  0  0  0  0  0  0  0
   -3.6730   24.3050  -30.4590 C   0  0  0  0  0  0  0  0  0  0  0  0
   -3.8820   25.6720  -30.5910 O   0  0  0  0  0  0  0  0  0  0  0  0
   -4.2650   23.3270  -31.2250 C   0  0  0  0  0  0  0  0  0  0  0  0
   -5.1700   23.5460  -32.2600 O   0  0  0  0  0  0  0  0  0  0  0  0
   -3.8520   22.1070  -30.8250 N   0  0  0  0  0  0  0  0  0  0  0  0
   -4.2230   20.8480  -31.4140 C   0  0  0  0  0  0  0  0  0  0  0  0
   -3.2820   20.1010  -32.1400 C   0  0  0  0  0  0  0  0  0  0  0  0
   -3.6360   18.8700  -32.6990 C   0  0  0  0  0  0  0  0  0  0  0  0
   -4.9380   18.3630  -32.5440 C   0  0  0  0  0  0  0  0  0  0  0  0
   -5.3140   17.0520  -33.1340 C   0  0  0  0  0  0  0  0  0  0  0  0
   -4.3810   15.9990  -33.1900 C   0  0  0  0  0  0  0  0  0  0  0  0
   -4.7380   14.7660  -33.7460 C   0  0  0  0  0  0  0  0  0  0  0  0
   -6.0250   14.5700  -34.2490 C   0  0  0  0  0  0  0  0  0  0  0  0
   -6.3670   13.3730  -34.7880 F   0  0  0  0  0  0  0  0  0  0  0  0
   -6.9600   15.6070  -34.2000 C   0  0  0  0  0  0  0  0  0  0  0  0
   -6.6080   16.8420  -33.6450 C   0  0  0  0  0  0  0  0  0  0  0  0
   -5.8800   19.1170  -31.8220 C   0  0  0  0  0  0  0  0  0  0  0  0
   -5.5250   20.3490  -31.2650 C   0  0  0  0  0  0  0  0  0  0  0  0
    0.4253   19.9653  -31.7756 H   0  0  0  0  0  0  0  0  0  0  0  0
   -0.9869   20.7227  -32.5874 H   0  0  0  0  0  0  0  0  0  0  0  0
    0.6035   21.5578  -32.5874 H   0  0  0  0  0  0  0  0  0  0  0  0
   -0.0563   18.4459  -27.5324 H   0  0  0  0  0  0  0  0  0  0  0  0
   -2.2856   19.0288  -26.5588 H   0  0  0  0  0  0  0  0  0  0  0  0
   -3.6559   20.8331  -27.6173 H   0  0  0  0  0  0  0  0  0  0  0  0
   -2.3453   24.7022  -26.5319 H   0  0  0  0  0  0  0  0  0  0  0  0
   -2.4203   22.9479  -27.0307 H   0  0  0  0  0  0  0  0  0  0  0  0
   -0.0879   24.6497  -26.2494 H   0  0  0  0  0  0  0  0  0  0  0  0
    1.4001   22.7290  -27.2252 H   0  0  0  0  0  0  0  0  0  0  0  0
    0.0025   22.4319  -28.3138 H   0  0  0  0  0  0  0  0  0  0  0  0
    0.8165   24.0332  -28.3138 H   0  0  0  0  0  0  0  0  0  0  0  0
   -0.4381   23.3003  -24.4568 H   0  0  0  0  0  0  0  0  0  0  0  0
   -1.3066   22.0594  -25.4224 H   0  0  0  0  0  0  0  0  0  0  0  0
    0.4892   22.1027  -25.4224 H   0  0  0  0  0  0  0  0  0  0  0  0
   -5.6190   24.4460  -32.3800 H   0  0  0  0  0  0  0  0  0  0  0  0
   -2.2601   20.4868  -32.2697 H   0  0  0  0  0  0  0  0  0  0  0  0
   -2.8897   18.2931  -33.2649 H   0  0  0  0  0  0  0  0  0  0  0  0
   -3.3654   16.1468  -32.7942 H   0  0  0  0  0  0  0  0  0  0  0  0
   -4.0026   13.9490  -33.7868 H   0  0  0  0  0  0  0  0  0  0  0  0
   -7.9737   15.4523  -34.5981 H   0  0  0  0  0  0  0  0  0  0  0  0
   -7.3483   17.6548  -33.6078 H   0  0  0  0  0  0  0  0  0  0  0  0
   -6.9035   18.7347  -31.6946 H   0  0  0  0  0  0  0  0  0  0  0  0
   -6.2723   20.9312  -30.7058 H   0  0  0  0  0  0  0  0  0  0  0  0
  1  2  1  0
  2  3  1  0
  3  4  2  0
  4  5  1  0
  5  6  2  0
  6  7  1  0
  7  8  2  0
  8  9  1  0
  9 10  2  0
 10 11  1  0
 11 12  2  0
 11 13  1  0
 13 14  1  0
 14 15  1  0
 14 16  1  0
 10 17  1  0
 17 18  1  0
 17 19  2  0
 19 20  1  0
 19 21  1  0
 21 22  1  0
 22 23  2  0
 23 24  1  0
 24 25  2  0
 25 26  1  0
 26 27  2  0
 27 28  1  0
 28 29  2  0
 29 30  1  0
 29 31  1  0
 31 32  2  0
 25 33  1  0
 33 34  2  0
  8  3  1  0
 21  9  1  0
 34 22  1  0
 32 26  1  0
  1 35  1  0
  1 36  1  0
  1 37  1  0
  5 38  1  0
  6 39  1  0
  7 40  1  0
 13 41  1  0
 13 42  1  0
 14 43  1  0
 15 44  1  0
 15 45  1  0
 15 46  1  0
 16 47  1  0
 16 48  1  0
 16 49  1  0
 20 50  1  0
 23 51  1  0
 24 52  1  0
 27 53  1  0
 28 54  1  0
 31 55  1  0
 32 56  1  0
 33 57  1  0
 34 58  1  0
M  CHG  1  18  -1
M  END
>  <UniqueID>  (22) 
21

>  <SMILES>  (22) 
COc1ncccc1-c1c(C(=O)CC(C)C)c([O-])c(O)n1-c1ccc(-c2ccc(F)cc2)cc1

>  <Energy>  (22) 
103.17798796490203

>  <Genealogy>  (22) 
COc1ncccc1-c1c(C(=O)CC(C)C)c([O-])c(O)n1-c1ccc(-c2ccc(F)cc2)cc1 (protonated)
COc1ncccc1-c1c(C(=O)CC(C)C)c([O-])c(O)n1-c1ccc(-c2ccc(F)cc2)cc1 (3D coordinates assigned)
COc1ncccc1-c1c(C(=O)CC(C)C)c([O-])c(O)n1-c1ccc(-c2ccc(F)cc2)cc1 (optimized conformer: 103.17798796490203 kcal/mol)

>  <smiles>  (22) 
COc1ncccc1-c1c(C(=O)CC(C)C)c(O)c(O)n1-c1ccc(-c2ccc(F)cc2)cc1

>  <score_type>  (22) 
oracle

>  <origin>  (22) 
adgpu

>  <m_score__min__energy>  (22) 
-12.050000000000001

>  <m_primary>  (22) 
energy

$$$$
22:0
     RDKit          3D

 31 33  0  0  0  0  0  0  0  0999 V2000
   -8.0660   20.9050  -31.1930 C   0  0  0  0  0  0  0  0  0  0  0  0
   -7.0310   20.0930  -31.9200 C   0  0  0  0  0  0  0  0  0  0  0  0
   -7.3850   18.8650  -32.3810 N   0  0  0  0  0  0  0  0  0  0  0  0
   -6.5070   18.0710  -33.0390 C   0  0  0  0  0  0  0  0  0  0  0  0
   -6.9100   16.8110  -33.4980 C   0  0  0  0  0  0  0  0  0  0  0  0
   -6.0040   15.9900  -34.1750 C   0  0  0  0  0  0  0  0  0  0  0  0
   -4.6920   16.4240  -34.3950 C   0  0  0  0  0  0  0  0  0  0  0  0
   -3.4580   15.2970  -35.3210 Br  0  0  0  0  0  0  0  0  0  0  0  0
   -4.2820   17.6820  -33.9390 C   0  0  0  0  0  0  0  0  0  0  0  0
   -5.1900   18.5160  -33.2570 C   0  0  0  0  0  0  0  0  0  0  0  0
   -4.8320   19.7880  -32.7810 C   0  0  0  0  0  0  0  0  0  0  0  0
   -3.6590   20.2210  -32.9650 O   0  0  0  0  0  0  0  0  0  0  0  0
   -5.7550   20.5610  -32.1240 N   0  0  0  0  0  0  0  0  0  0  0  0
   -5.3720   21.8650  -31.6470 C   0  0  0  0  0  0  0  0  0  0  0  0
   -6.0810   23.0040  -32.0590 C   0  0  0  0  0  0  0  0  0  0  0  0
   -5.7050   24.2690  -31.5980 C   0  0  0  0  0  0  0  0  0  0  0  0
   -4.6190   24.4070  -30.7270 C   0  0  0  0  0  0  0  0  0  0  0  0
   -4.2560   25.6730  -30.2750 O   0  0  0  0  0  0  0  0  0  0  0  0
   -3.9060   23.2710  -30.3190 C   0  0  0  0  0  0  0  0  0  0  0  0
   -4.2800   22.0050  -30.7790 C   0  0  0  0  0  0  0  0  0  0  0  0
   -7.9238   20.7935  -30.1079 H   0  0  0  0  0  0  0  0  0  0  0  0
   -7.9614   21.9645  -31.4695 H   0  0  0  0  0  0  0  0  0  0  0  0
   -9.0702   20.5513  -31.4695 H   0  0  0  0  0  0  0  0  0  0  0  0
   -7.9405   16.4671  -33.3256 H   0  0  0  0  0  0  0  0  0  0  0  0
   -6.3228   15.0009  -34.5355 H   0  0  0  0  0  0  0  0  0  0  0  0
   -3.2498   18.0200  -34.1132 H   0  0  0  0  0  0  0  0  0  0  0  0
   -6.9340   22.9011  -32.7458 H   0  0  0  0  0  0  0  0  0  0  0  0
   -6.2650   25.1589  -31.9212 H   0  0  0  0  0  0  0  0  0  0  0  0
   -4.5890   26.0350  -29.3880 H   0  0  0  0  0  0  0  0  0  0  0  0
   -3.0505   23.3760  -29.6355 H   0  0  0  0  0  0  0  0  0  0  0  0
   -3.7160   21.1164  -30.4591 H   0  0  0  0  0  0  0  0  0  0  0  0
  1  2  1  0
  2  3  2  0
  3  4  1  0
  4  5  2  0
  5  6  1  0
  6  7  2  0
  7  8  1  0
  7  9  1  0
  9 10  2  0
 10 11  1  0
 11 12  2  0
 11 13  1  0
 13 14  1  0
 14 15  2  0
 15 16  1  0
 16 17  2  0
 17 18  1  0
 17 19  1  0
 19 20  2  0
 13  2  1  0
 20 14  1  0
 10  4  1  0
  1 21  1  0
  1 22  1  0
  1 23  1  0
  5 24  1  0
  6 25  1  0
  9 26  1  0
 15 27  1  0
 16 28  1  0
 18 29  1  0
 19 30  1  0
 20 31  1  0
M  END
>  <UniqueID>  (23) 
22

>  <SMILES>  (23) 
Cc1nc2ccc(Br)cc2c(=O)n1-c1ccc(O)cc1

>  <Energy>  (23) 
46.99960644409922

>  <Genealogy>  (23) 
Cc1nc2ccc(Br)cc2c(=O)n1-c1ccc(O)cc1 (3D coordinates assigned)
Cc1nc2ccc(Br)cc2c(=O)n1-c1ccc(O)cc1 (optimized conformer: 46.99960644409922 kcal/mol)

>  <smiles>  (23) 
Cc1nc2ccc(Br)cc2c(=O)n1-c1ccc(O)cc1

>  <score_type>  (23) 
oracle

>  <origin>  (23) 
adgpu

>  <m_score__min__energy>  (23) 
-8.0299999999999994

>  <m_primary>  (23) 
energy

$$$$
23:0
     RDKit          3D

 30 31  0  0  0  0  0  0  0  0999 V2000
   -2.0000   24.9200  -29.3350 N   0  0  0  0  0  0  0  0  0  0  0  0
   -3.5560   24.4520  -29.9260 S   0  0  0  0  0  0  0  0  0  0  0  0
   -4.1740   25.6210  -30.6400 O   0  0  0  0  0  0  0  0  0  0  0  0
   -4.4310   24.0540  -28.7720 O   0  0  0  0  0  0  0  0  0  0  0  0
   -3.3920   23.0910  -31.0310 C   0  0  0  0  0  0  0  0  0  0  0  0
   -2.2380   22.2980  -31.0030 C   0  0  0  0  0  0  0  0  0  0  0  0
   -2.1060   21.2130  -31.8740 C   0  0  0  0  0  0  0  0  0  0  0  0
   -3.1330   20.9070  -32.7860 C   0  0  0  0  0  0  0  0  0  0  0  0
   -3.0370   19.8110  -33.7040 N   0  0  0  0  0  0  0  0  0  0  0  0
   -4.0050   18.3730  -33.6490 S   0  0  0  0  0  0  0  0  0  0  0  0
   -4.0770   17.7770  -35.0290 O   0  0  0  0  0  0  0  0  0  0  0  0
   -3.3630   17.3830  -32.7210 O   0  0  0  0  0  0  0  0  0  0  0  0
   -5.6180   18.7510  -33.0520 C   0  0  0  0  0  0  0  0  0  0  0  0
   -6.3820   19.7450  -33.6790 C   0  0  0  0  0  0  0  0  0  0  0  0
   -7.6680   20.0420  -33.2130 C   0  0  0  0  0  0  0  0  0  0  0  0
   -8.1920   19.3490  -32.1180 C   0  0  0  0  0  0  0  0  0  0  0  0
   -9.4380   19.6370  -31.6660 F   0  0  0  0  0  0  0  0  0  0  0  0
   -7.4310   18.3620  -31.4850 C   0  0  0  0  0  0  0  0  0  0  0  0
   -6.1450   18.0630  -31.9510 C   0  0  0  0  0  0  0  0  0  0  0  0
   -4.2890   21.6970  -32.8030 C   0  0  0  0  0  0  0  0  0  0  0  0
   -4.4210   22.7820  -31.9310 C   0  0  0  0  0  0  0  0  0  0  0  0
   -1.6210   25.6280  -30.0030 H   0  0  0  0  0  0  0  0  0  0  0  0
   -1.4315   22.5303  -30.2919 H   0  0  0  0  0  0  0  0  0  0  0  0
   -1.1958   20.5959  -31.8465 H   0  0  0  0  0  0  0  0  0  0  0  0
   -5.9699   20.2929  -34.5392 H   0  0  0  0  0  0  0  0  0  0  0  0
   -8.2663   20.8208  -33.7085 H   0  0  0  0  0  0  0  0  0  0  0  0
   -7.8425   17.8202  -30.6207 H   0  0  0  0  0  0  0  0  0  0  0  0
   -5.5471   17.2863  -31.4517 H   0  0  0  0  0  0  0  0  0  0  0  0
   -5.0999   21.4621  -33.5081 H   0  0  0  0  0  0  0  0  0  0  0  0
   -5.3345   23.3944  -31.9514 H   0  0  0  0  0  0  0  0  0  0  0  0
  1  2  1  0
  2  3  2  0
  2  4  2  0
  2  5  1  0
  5  6  2  0
  6  7  1  0
  7  8  2  0
  8  9  1  0
  9 10  1  0
 10 11  2  0
 10 12  2  0
 10 13  1  0
 13 14  2  0
 14 15  1  0
 15 16  2  0
 16 17  1  0
 16 18  1  0
 18 19  2  0
  8 20  1  0
 20 21  2  0
 21  5  1  0
 19 13  1  0
  1 22  1  0
  6 23  1  0
  7 24  1  0
 14 25  1  0
 15 26  1  0
 18 27  1  0
 19 28  1  0
 20 29  1  0
 21 30  1  0
M  CHG  2   1  -1   9  -1
M  END
>  <UniqueID>  (24) 
23

>  <SMILES>  (24) 
[NH-]S(=O)(=O)c1ccc([N-]S(=O)(=O)c2ccc(F)cc2)cc1

>  <Energy>  (24) 
33.457557397665255

>  <Genealogy>  (24) 
[NH-]S(=O)(=O)c1ccc([N-]S(=O)(=O)c2ccc(F)cc2)cc1 (protonated)
[NH-]S(=O)(=O)c1ccc([N-]S(=O)(=O)c2ccc(F)cc2)cc1 (3D coordinates assigned)
[NH-]S(=O)(=O)c1ccc([N-]S(=O)(=O)c2ccc(F)cc2)cc1 (optimized conformer: 33.457557397665255 kcal/mol)

>  <smiles>  (24) 
NS(=O)(=O)c1ccc(NS(=O)(=O)c2ccc(F)cc2)cc1

>  <score_type>  (24) 
oracle

>  <origin>  (24) 
adgpu

>  <m_score__min__energy>  (24) 
-10.15

>  <m_primary>  (24) 
energy

$$$$
24:0
     RDKit          3D

 65 69  0  0  0  0  0  0  0  0999 V2000
   -4.4283   26.2827  -29.9223 H   0  0  0  0  0  0  0  0  0  0  0  0
   -5.0710   25.4560  -30.2590 C   0  0  0  0  0  0  0  0  0  0  0  0
   -4.6190   24.5820  -31.1950 N   0  0  0  0  0  0  0  0  0  0  0  0
   -5.3780   23.5430  -31.6330 C   0  0  0  0  0  0  0  0  0  0  0  0
   -4.9769   22.8523  -32.3893 H   0  0  0  0  0  0  0  0  0  0  0  0
   -6.6770   23.3470  -31.1220 C   0  0  0  0  0  0  0  0  0  0  0  0
   -7.5430   22.2420  -31.6050 C   0  0  0  0  0  0  0  0  0  0  0  0
   -6.9690   21.1310  -32.1440 N   0  0  0  0  0  0  0  0  0  0  0  0
   -7.7170   20.0890  -32.6030 C   0  0  0  0  0  0  0  0  0  0  0  0
   -7.1640   19.0200  -33.0970 N   0  0  0  0  0  0  0  0  0  0  0  0
   -5.7660   18.7670  -33.3380 C   0  0  0  0  0  0  0  0  0  0  0  0
   -4.8400   19.8180  -33.4960 C   0  0  0  0  0  0  0  0  0  0  0  0
   -5.1653   20.8573  -33.3413 H   0  0  0  0  0  0  0  0  0  0  0  0
   -3.5020   19.5520  -33.8500 C   0  0  0  0  0  0  0  0  0  0  0  0
   -2.5440   20.6060  -34.0500 N   0  0  0  0  0  0  0  0  0  0  0  0
   -1.5680   21.0630  -33.0990 C   0  0  0  0  0  0  0  0  0  0  0  0
   -0.4860   21.5560  -33.5220 O   0  0  0  0  0  0  0  0  0  0  0  0
   -1.8030   20.9790  -31.6420 C   0  0  0  0  0  0  0  0  0  0  0  0
   -1.0980   20.0580  -30.8550 C   0  0  0  0  0  0  0  0  0  0  0  0
   -0.4352   19.3223  -31.3339 H   0  0  0  0  0  0  0  0  0  0  0  0
   -1.2340   20.0710  -29.4650 C   0  0  0  0  0  0  0  0  0  0  0  0
   -0.6986   19.3298  -28.8535 H   0  0  0  0  0  0  0  0  0  0  0  0
   -2.0490   21.0240  -28.8510 C   0  0  0  0  0  0  0  0  0  0  0  0
   -2.1534   21.0314  -27.7560 H   0  0  0  0  0  0  0  0  0  0  0  0
   -2.7360   21.9730  -29.6250 C   0  0  0  0  0  0  0  0  0  0  0  0
   -3.5210   23.0060  -29.0070 N   0  0  0  0  0  0  0  0  0  0  0  0
   -4.4110   23.2830  -29.4740 H   0  0  0  0  0  0  0  0  0  0  0  0
   -3.0510   23.8250  -27.9200 C   0  0  0  0  0  0  0  0  0  0  0  0
   -3.9800   24.4160  -27.0510 C   0  0  0  0  0  0  0  0  0  0  0  0
   -5.0525   24.2060  -27.1758 H   0  0  0  0  0  0  0  0  0  0  0  0
   -3.5560   25.2700  -26.0270 C   0  0  0  0  0  0  0  0  0  0  0  0
   -4.2952   25.7218  -25.3492 H   0  0  0  0  0  0  0  0  0  0  0  0
   -2.1890   25.5530  -25.8610 C   0  0  0  0  0  0  0  0  0  0  0  0
   -1.7270   26.4430  -24.8300 N   0  0  0  0  0  0  0  0  0  0  0  0
   -2.3420   27.2450  -24.5610 H   0  0  0  0  0  0  0  0  0  0  0  0
   -0.5580   26.1990  -24.0320 C   0  0  0  0  0  0  0  0  0  0  0  0
    0.0450   25.0950  -24.0970 O   0  0  0  0  0  0  0  0  0  0  0  0
   -0.0990   27.2210  -23.0440 C   0  0  0  0  0  0  0  0  0  0  0  0
   -0.2674   26.8461  -22.0236 H   0  0  0  0  0  0  0  0  0  0  0  0
    0.9735   27.4168  -23.1904 H   0  0  0  0  0  0  0  0  0  0  0  0
   -0.6651   28.1527  -23.1904 H   0  0  0  0  0  0  0  0  0  0  0  0
   -1.2570   24.9400  -26.7090 C   0  0  0  0  0  0  0  0  0  0  0  0
   -0.1820   25.1169  -26.5569 H   0  0  0  0  0  0  0  0  0  0  0  0
   -1.6820   24.1060  -27.7460 C   0  0  0  0  0  0  0  0  0  0  0  0
   -0.9425   23.6659  -28.4312 H   0  0  0  0  0  0  0  0  0  0  0  0
   -2.6560   21.9080  -31.0220 C   0  0  0  0  0  0  0  0  0  0  0  0
   -3.2641   22.5877  -31.6370 H   0  0  0  0  0  0  0  0  0  0  0  0
   -3.0840   18.2250  -33.9930 C   0  0  0  0  0  0  0  0  0  0  0  0
   -2.0311   18.0058  -34.2238 H   0  0  0  0  0  0  0  0  0  0  0  0
   -3.9930   17.1780  -33.8450 C   0  0  0  0  0  0  0  0  0  0  0  0
   -3.6538   16.1392  -33.9705 H   0  0  0  0  0  0  0  0  0  0  0  0
   -5.3380   17.4390  -33.5370 C   0  0  0  0  0  0  0  0  0  0  0  0
   -6.3090   16.2970  -33.4020 C   0  0  0  0  0  0  0  0  0  0  0  0
   -6.4853   16.0897  -32.3362 H   0  0  0  0  0  0  0  0  0  0  0  0
   -7.2599   16.5651  -33.8856 H   0  0  0  0  0  0  0  0  0  0  0  0
   -5.8914   15.4016  -33.8856 H   0  0  0  0  0  0  0  0  0  0  0  0
   -9.0700   20.1430  -32.5040 N   0  0  0  0  0  0  0  0  0  0  0  0
   -9.6930   21.2270  -31.9760 C   0  0  0  0  0  0  0  0  0  0  0  0
  -10.7905   21.2499  -31.9048 H   0  0  0  0  0  0  0  0  0  0  0  0
   -8.9430   22.3110  -31.5240 C   0  0  0  0  0  0  0  0  0  0  0  0
   -9.4379   23.2028  -31.1120 H   0  0  0  0  0  0  0  0  0  0  0  0
   -7.1540   24.2500  -30.1570 C   0  0  0  0  0  0  0  0  0  0  0  0
   -8.1645   24.1247  -29.7409 H   0  0  0  0  0  0  0  0  0  0  0  0
   -6.3500   25.3050  -29.7250 C   0  0  0  0  0  0  0  0  0  0  0  0
   -6.7222   26.0121  -28.9691 H   0  0  0  0  0  0  0  0  0  0  0  0
  1  2  1  0
  2  3  2  0
  3  4  1  0
  4  5  1  0
  4  6  2  0
  6  7  1  0
  7  8  2  0
  8  9  1  0
  9 10  2  0
 10 11  1  0
 11 12  2  0
 12 13  1  0
 12 14  1  0
 14 15  1  0
 15 16  1  0
 16 17  2  0
 16 18  1  0
 18 19  2  0
 19 20  1  0
 19 21  1  0
 21 22  1  0
 21 23  2  0
 23 24  1  0
 23 25  1  0
 25 26  1  0
 26 27  1  0
 26 28  1  0
 28 29  2  0
 29 30  1  0
 29 31  1  0
 31 32  1  0
 31 33  2  0
 33 34  1  0
 34 35  1  0
 34 36  1  0
 36 37  2  0
 36 38  1  0
 38 39  1  0
 38 40  1  0
 38 41  1  0
 33 42  1  0
 42 43  1  0
 42 44  2  0
 44 45  1  0
 25 46  2  0
 46 47  1  0
 14 48  2  0
 48 49  1  0
 48 50  1  0
 50 51  1  0
 50 52  2  0
 52 53  1  0
 53 54  1  0
 53 55  1  0
 53 56  1  0
  9 57  1  0
 57 58  1  0
 58 59  1  0
 58 60  2  0
 60 61  1  0
  6 62  1  0
 62 63  1  0
 62 64  2  0
 64 65  1  0
 64  2  1  0
 60  7  1  0
 52 11  1  0
 46 18  1  0
 44 28  1  0
M  CHG  2  15  -1  57  -1
M  END
>  <UniqueID>  (25) 
24

>  <SMILES>  (25) 
CC(=O)Nc1ccc(Nc2cccc(C(=O)[N-]c3ccc(C)c(/N=c4\nc(-c5cccnc5)cc[n-]4)c3)c2)cc1

>  <Energy>  (25) 
93.23070821972449

>  <Genealogy>  (25) 
CC(=O)Nc1ccc(Nc2cccc(C(=O)[N-]c3ccc(C)c(N=c4nc(-c5cccnc5)cc[n-]4)c3)c2)cc1 (protonated)
CC(=O)Nc1ccc(Nc2cccc(C(=O)[N-]c3ccc(C)c(/N=c4\nc(-c5cccnc5)cc[n-]4)c3)c2)cc1 (cis-trans isomerization)
CC(=O)Nc1ccc(Nc2cccc(C(=O)[N-]c3ccc(C)c(/N=c4\nc(-c5cccnc5)cc[n-]4)c3)c2)cc1 (3D coordinates assigned)
CC(=O)Nc1ccc(Nc2cccc(C(=O)[N-]c3ccc(C)c(/N=c4\nc(-c5cccnc5)cc[n-]4)c3)c2)cc1 (optimized conformer: 93.23070821972449 kcal/mol)

>  <smiles>  (25) 
CC(=O)Nc1ccc(Nc2cccc(C(=O)Nc3ccc(C)c(N=c4nc(-c5cccnc5)cc[nH]4)c3)c2)cc1

>  <score_type>  (25) 
oracle

>  <origin>  (25) 
adgpu

>  <m_score__min__energy>  (25) 
-12.539999999999999

>  <m_primary>  (25) 
energy

$$$$
25:0
     RDKit          3D

 40 42  0  0  0  0  0  0  0  0999 V2000
    0.3950   26.8850  -23.4600 C   0  0  0  0  0  0  0  0  0  0  0  0
   -0.9090   26.7830  -24.0250 O   0  0  0  0  0  0  0  0  0  0  0  0
   -1.1690   26.4110  -25.3520 C   0  0  0  0  0  0  0  0  0  0  0  0
   -0.5310   27.0220  -26.4480 C   0  0  0  0  0  0  0  0  0  0  0  0
   -0.8250   26.6130  -27.7510 C   0  0  0  0  0  0  0  0  0  0  0  0
   -1.7540   25.5920  -27.9850 C   0  0  0  0  0  0  0  0  0  0  0  0
   -2.0160   25.1980  -29.3390 N   0  0  0  0  0  0  0  0  0  0  0  0
   -3.5170   24.5440  -29.9110 S   0  0  0  0  0  0  0  0  0  0  0  0
   -4.4100   24.2890  -28.7290 O   0  0  0  0  0  0  0  0  0  0  0  0
   -4.1740   25.5480  -30.8170 O   0  0  0  0  0  0  0  0  0  0  0  0
   -3.2250   23.0580  -30.8220 C   0  0  0  0  0  0  0  0  0  0  0  0
   -2.0820   22.2970  -30.5350 C   0  0  0  0  0  0  0  0  0  0  0  0
   -1.8330   21.1040  -31.2180 C   0  0  0  0  0  0  0  0  0  0  0  0
   -0.7280   20.3740  -30.9270 F   0  0  0  0  0  0  0  0  0  0  0  0
   -2.7170   20.6670  -32.2050 C   0  0  0  0  0  0  0  0  0  0  0  0
   -3.8520   21.4230  -32.5110 C   0  0  0  0  0  0  0  0  0  0  0  0
   -4.1230   22.6160  -31.8170 C   0  0  0  0  0  0  0  0  0  0  0  0
   -5.2690   23.4110  -32.1550 N   0  0  0  0  0  0  0  0  0  0  0  0
   -6.5890   23.2430  -31.6230 C   0  0  0  0  0  0  0  0  0  0  0  0
   -7.0460   24.1180  -30.8430 O   0  0  0  0  0  0  0  0  0  0  0  0
   -7.4040   22.0490  -31.9120 C   0  0  0  0  0  0  0  0  0  0  0  0
   -8.7410   21.8670  -31.6100 C   0  0  0  0  0  0  0  0  0  0  0  0
   -9.0640   20.6150  -32.0880 C   0  0  0  0  0  0  0  0  0  0  0  0
   -7.9110   20.1140  -32.6580 C   0  0  0  0  0  0  0  0  0  0  0  0
   -6.9420   20.9910  -32.5400 O   0  0  0  0  0  0  0  0  0  0  0  0
   -2.3930   24.9830  -26.8910 C   0  0  0  0  0  0  0  0  0  0  0  0
   -2.0990   25.3910  -25.5860 C   0  0  0  0  0  0  0  0  0  0  0  0
    0.3206   26.8792  -22.3625 H   0  0  0  0  0  0  0  0  0  0  0  0
    1.0056   26.0319  -23.7906 H   0  0  0  0  0  0  0  0  0  0  0  0
    0.8655   27.8227  -23.7906 H   0  0  0  0  0  0  0  0  0  0  0  0
    0.2018   27.8245  -26.2778 H   0  0  0  0  0  0  0  0  0  0  0  0
   -0.3221   27.0975  -28.6009 H   0  0  0  0  0  0  0  0  0  0  0  0
   -1.3758   22.6425  -29.7657 H   0  0  0  0  0  0  0  0  0  0  0  0
   -2.5207   19.7275  -32.7423 H   0  0  0  0  0  0  0  0  0  0  0  0
   -4.5383   21.0825  -33.3003 H   0  0  0  0  0  0  0  0  0  0  0  0
   -9.4081   22.5742  -31.0954 H   0  0  0  0  0  0  0  0  0  0  0  0
  -10.0425   20.1162  -32.0274 H   0  0  0  0  0  0  0  0  0  0  0  0
   -7.8184   19.1288  -33.1384 H   0  0  0  0  0  0  0  0  0  0  0  0
   -3.1274   24.1821  -27.0621 H   0  0  0  0  0  0  0  0  0  0  0  0
   -2.6026   24.9065  -24.7365 H   0  0  0  0  0  0  0  0  0  0  0  0
  1  2  1  0
  2  3  1  0
  3  4  2  0
  4  5  1  0
  5  6  2  0
  6  7  1  0
  7  8  1  0
  8  9  2  0
  8 10  2  0
  8 11  1  0
 11 12  2  0
 12 13  1  0
 13 14  1  0
 13 15  2  0
 15 16  1  0
 16 17  2  0
 17 18  1  0
 18 19  1  0
 19 20  2  0
 19 21  1  0
 21 22  2  0
 22 23  1  0
 23 24  2  0
 24 25  1  0
  6 26  1  0
 26 27  2  0
 27  3  1  0
 17 11  1  0
 25 21  1  0
  1 28  1  0
  1 29  1  0
  1 30  1  0
  4 31  1  0
  5 32  1  0
 12 33  1  0
 15 34  1  0
 16 35  1  0
 22 36  1  0
 23 37  1  0
 24 38  1  0
 26 39  1  0
 27 40  1  0
M  CHG  2   7  -1  18  -1
M  END
>  <UniqueID>  (26) 
25

>  <SMILES>  (26) 
COc1ccc([N-]S(=O)(=O)c2cc(F)ccc2[N-]C(=O)c2ccco2)cc1

>  <Energy>  (26) 
76.46149805184287

>  <Genealogy>  (26) 
COc1ccc([N-]S(=O)(=O)c2cc(F)ccc2[N-]C(=O)c2ccco2)cc1 (protonated)
COc1ccc([N-]S(=O)(=O)c2cc(F)ccc2[N-]C(=O)c2ccco2)cc1 (3D coordinates assigned)
COc1ccc([N-]S(=O)(=O)c2cc(F)ccc2[N-]C(=O)c2ccco2)cc1 (optimized conformer: 76.46149805184287 kcal/mol)

>  <smiles>  (26) 
COc1ccc(NS(=O)(=O)c2cc(F)ccc2NC(=O)c2ccco2)cc1

>  <score_type>  (26) 
oracle

>  <origin>  (26) 
adgpu

>  <m_score__min__energy>  (26) 
-10.380000000000001

>  <m_primary>  (26) 
energy

$$$$
26:0
     RDKit          3D

 71 75  0  0  0  0  0  0  0  0999 V2000
    1.9510   21.1740  -33.4770 H   0  0  0  0  0  0  0  0  0  0  0  0
    1.4260   20.6170  -32.8150 O   0  0  0  0  0  0  0  0  0  0  0  0
    0.0770   20.2870  -32.9880 C   0  0  0  0  0  0  0  0  0  0  0  0
   -0.7300   21.1590  -33.7380 C   0  0  0  0  0  0  0  0  0  0  0  0
   -0.1270   22.2540  -34.4430 N   0  0  0  0  0  0  0  0  0  0  0  0
    0.7210   22.1160  -35.3880 N   0  0  0  0  0  0  0  0  0  0  0  0
    1.1670   20.8430  -35.8650 C   0  0  0  0  0  0  0  0  0  0  0  0
    0.3210   20.0660  -36.6680 C   0  0  0  0  0  0  0  0  0  0  0  0
   -0.6848   20.4322  -36.9216 H   0  0  0  0  0  0  0  0  0  0  0  0
    0.7540   18.8260  -37.1470 C   0  0  0  0  0  0  0  0  0  0  0  0
    0.1022   18.2333  -37.8057 H   0  0  0  0  0  0  0  0  0  0  0  0
    2.0240   18.3350  -36.7870 C   0  0  0  0  0  0  0  0  0  0  0  0
    2.4930   17.0470  -37.2150 N   0  0  0  0  0  0  0  0  0  0  0  0
    1.8930   15.9260  -37.0710 N   0  0  0  0  0  0  0  0  0  0  0  0
    0.6730   15.6930  -36.3510 C   0  0  0  0  0  0  0  0  0  0  0  0
    0.6520   15.9390  -34.9740 C   0  0  0  0  0  0  0  0  0  0  0  0
    1.5488   16.3372  -34.4767 H   0  0  0  0  0  0  0  0  0  0  0  0
   -0.4980   15.6830  -34.2270 C   0  0  0  0  0  0  0  0  0  0  0  0
   -0.5010   15.8686  -33.1428 H   0  0  0  0  0  0  0  0  0  0  0  0
   -1.6490   15.1900  -34.8550 C   0  0  0  0  0  0  0  0  0  0  0  0
   -3.0540   14.7320  -33.8980 S   0  0  0  0  0  0  0  0  0  0  0  0
   -2.7610   15.0080  -32.4510 O   0  0  0  0  0  0  0  0  0  0  0  0
   -3.3620   13.2690  -34.0610 O   0  0  0  0  0  0  0  0  0  0  0  0
   -4.4380   15.6600  -34.3870 N   0  0  0  0  0  0  0  0  0  0  0  0
   -5.2360   16.3420  -33.6180 C   0  0  0  0  0  0  0  0  0  0  0  0
   -6.2930   16.9800  -34.1910 N   0  0  0  0  0  0  0  0  0  0  0  0
   -7.1930   17.6970  -33.4660 C   0  0  0  0  0  0  0  0  0  0  0  0
   -8.0385   18.1870  -33.9710 H   0  0  0  0  0  0  0  0  0  0  0  0
   -7.0460   17.8130  -32.0780 C   0  0  0  0  0  0  0  0  0  0  0  0
   -8.0470   18.5800  -31.2660 C   0  0  0  0  0  0  0  0  0  0  0  0
   -7.8460   18.4260  -30.1955 H   0  0  0  0  0  0  0  0  0  0  0  0
   -7.9683   19.6512  -31.5035 H   0  0  0  0  0  0  0  0  0  0  0  0
   -9.0608   18.2253  -31.5035 H   0  0  0  0  0  0  0  0  0  0  0  0
   -5.9740   17.1590  -31.4580 C   0  0  0  0  0  0  0  0  0  0  0  0
   -5.8513   17.2194  -30.3665 H   0  0  0  0  0  0  0  0  0  0  0  0
   -5.0600   16.4300  -32.2230 C   0  0  0  0  0  0  0  0  0  0  0  0
   -4.2089   15.9282  -31.7394 H   0  0  0  0  0  0  0  0  0  0  0  0
   -1.6570   15.0140  -36.2440 C   0  0  0  0  0  0  0  0  0  0  0  0
   -2.5696   14.6604  -36.7461 H   0  0  0  0  0  0  0  0  0  0  0  0
   -0.5090   15.2860  -36.9960 C   0  0  0  0  0  0  0  0  0  0  0  0
   -0.5307   15.1817  -38.0908 H   0  0  0  0  0  0  0  0  0  0  0  0
    2.8870   19.1490  -36.0440 C   0  0  0  0  0  0  0  0  0  0  0  0
    3.9095   18.8053  -35.8285 H   0  0  0  0  0  0  0  0  0  0  0  0
    2.4620   20.3930  -35.5740 C   0  0  0  0  0  0  0  0  0  0  0  0
    3.3290   21.1790  -34.8230 O   0  0  0  0  0  0  0  0  0  0  0  0
   -2.0850   20.8630  -33.9410 C   0  0  0  0  0  0  0  0  0  0  0  0
   -2.7182   21.5573  -34.5128 H   0  0  0  0  0  0  0  0  0  0  0  0
   -2.6350   19.6860  -33.4180 C   0  0  0  0  0  0  0  0  0  0  0  0
   -3.9490   19.2600  -33.8040 N   0  0  0  0  0  0  0  0  0  0  0  0
   -5.0470   19.8180  -33.4670 N   0  0  0  0  0  0  0  0  0  0  0  0
   -5.2190   20.8640  -32.4970 C   0  0  0  0  0  0  0  0  0  0  0  0
   -4.2490   21.0060  -31.4980 C   0  0  0  0  0  0  0  0  0  0  0  0
   -3.4983   20.2153  -31.3523 H   0  0  0  0  0  0  0  0  0  0  0  0
   -4.2240   22.1410  -30.6840 C   0  0  0  0  0  0  0  0  0  0  0  0
   -3.4708   22.2280  -29.8871 H   0  0  0  0  0  0  0  0  0  0  0  0
   -5.1560   23.1690  -30.8800 C   0  0  0  0  0  0  0  0  0  0  0  0
   -5.0270   24.6700  -29.9690 S   0  0  0  0  0  0  0  0  0  0  0  0
   -6.3560   25.3740  -29.9830 O   0  0  0  0  0  0  0  0  0  0  0  0
   -4.6260   24.3820  -28.5530 O   0  0  0  0  0  0  0  0  0  0  0  0
   -3.8720   25.6760  -30.6610 O   0  0  0  0  0  0  0  0  0  0  0  0
   -6.1460   23.0250  -31.8630 C   0  0  0  0  0  0  0  0  0  0  0  0
   -6.8993   23.8145  -32.0018 H   0  0  0  0  0  0  0  0  0  0  0  0
   -6.1790   21.8790  -32.6690 C   0  0  0  0  0  0  0  0  0  0  0  0
   -6.9577   21.7723  -33.4386 H   0  0  0  0  0  0  0  0  0  0  0  0
   -1.8300   18.8070  -32.6910 C   0  0  0  0  0  0  0  0  0  0  0  0
   -2.2600   17.8735  -32.2989 H   0  0  0  0  0  0  0  0  0  0  0  0
   -0.4790   19.1010  -32.4550 C   0  0  0  0  0  0  0  0  0  0  0  0
    0.5140   17.9160  -31.5930 S   0  0  0  0  0  0  0  0  0  0  0  0
    1.0080   18.5110  -30.3060 O   0  0  0  0  0  0  0  0  0  0  0  0
   -0.2870   16.6850  -31.2760 O   0  0  0  0  0  0  0  0  0  0  0  0
    1.8210   17.4780  -32.5570 O   0  0  0  0  0  0  0  0  0  0  0  0
  1  2  1  0
  2  3  1  0
  3  4  2  0
  4  5  1  0
  5  6  2  3
  6  7  1  0
  7  8  2  0
  8  9  1  0
  8 10  1  0
 10 11  1  0
 10 12  2  0
 12 13  1  0
 13 14  2  3
 14 15  1  0
 15 16  2  0
 16 17  1  0
 16 18  1  0
 18 19  1  0
 18 20  2  0
 20 21  1  0
 21 22  2  0
 21 23  2  0
 21 24  1  0
 24 25  2  0
 25 26  1  0
 26 27  1  0
 27 28  1  0
 27 29  2  0
 29 30  1  0
 30 31  1  0
 30 32  1  0
 30 33  1  0
 29 34  1  0
 34 35  1  0
 34 36  2  0
 36 37  1  0
 20 38  1  0
 38 39  1  0
 38 40  2  0
 40 41  1  0
 12 42  1  0
 42 43  1  0
 42 44  2  0
 44 45  1  0
  4 46  1  0
 46 47  1  0
 46 48  2  0
 48 49  1  0
 49 50  2  0
 50 51  1  0
 51 52  2  0
 52 53  1  0
 52 54  1  0
 54 55  1  0
 54 56  2  0
 56 57  1  0
 57 58  2  0
 57 59  2  0
 57 60  1  0
 56 61  1  0
 61 62  1  0
 61 63  2  0
 63 64  1  0
 48 65  1  0
 65 66  1  0
 65 67  2  0
 67 68  1  0
 68 69  2  0
 68 70  2  0
 68 71  1  0
 67  3  1  0
 44  7  1  0
 63 51  1  0
 40 15  1  0
 36 25  1  0
M  CHG  4  26  -1  45  -1  60  -1  71  -1
M  END
>  <UniqueID>  (27) 
26

>  <SMILES>  (27) 
Cc1cc/c(=N\S(=O)(=O)c2ccc(N=Nc3ccc(N=Nc4cc(/N=N\c5ccc(S(=O)(=O)[O-])cc5)cc(S(=O)(=O)[O-])c4O)c([O-])c3)cc2)[n-]c1

>  <Energy>  (27) 
126.24101395444998

>  <Genealogy>  (27) 
Cc1ccc(=NS(=O)(=O)c2ccc(N=Nc3ccc(N=Nc4cc(N=Nc5ccc(S(=O)(=O)[O-])cc5)cc(S(=O)(=O)[O-])c4O)c([O-])c3)cc2)[n-]c1 (protonated)
Cc1cc/c(=N\S(=O)(=O)c2ccc(N=Nc3ccc(N=Nc4cc(/N=N\c5ccc(S(=O)(=O)[O-])cc5)cc(S(=O)(=O)[O-])c4O)c([O-])c3)cc2)[n-]c1 (cis-trans isomerization)
Cc1cc/c(=N\S(=O)(=O)c2ccc(N=Nc3ccc(N=Nc4cc(/N=N\c5ccc(S(=O)(=O)[O-])cc5)cc(S(=O)(=O)[O-])c4O)c([O-])c3)cc2)[n-]c1 (3D coordinates assigned)
Cc1cc/c(=N\S(=O)(=O)c2ccc(N=Nc3ccc(N=Nc4cc(/N=N\c5ccc(S(=O)(=O)[O-])cc5)cc(S(=O)(=O)[O-])c4O)c([O-])c3)cc2)[n-]c1 (optimized conformer: 126.24101395444998 kcal/mol)

>  <smiles>  (27) 
Cc1ccc(=NS(=O)(=O)c2ccc(N=Nc3ccc(N=Nc4cc(N=Nc5ccc(S(=O)(=O)O)cc5)cc(S(=O)(=O)O)c4O)c(O)c3)cc2)[nH]c1

>  <score_type>  (27) 
oracle

>  <origin>  (27) 
adgpu

>  <m_score__min__energy>  (27) 
-15.02

>  <m_primary>  (27) 
energy

$$$$
27:0
     RDKit          3D

 31 32  0  0  0  0  0  0  0  0999 V2000
    0.1280   19.2350  -29.0490 N   0  0  0  0  0  0  0  0  0  0  0  0
   -0.1240   19.5800  -30.1250 C   0  0  0  0  0  0  0  0  0  0  0  0
   -0.4380   20.0130  -31.4700 C   0  0  0  0  0  0  0  0  0  0  0  0
    0.5980   20.0560  -32.4260 C   0  0  0  0  0  0  0  0  0  0  0  0
    1.9140   19.7170  -32.0990 O   0  0  0  0  0  0  0  0  0  0  0  0
    0.3180   20.4520  -33.7350 C   0  0  0  0  0  0  0  0  0  0  0  0
    1.7150   20.5480  -35.0420 Br  0  0  0  0  0  0  0  0  0  0  0  0
   -0.9830   20.7600  -34.1140 C   0  0  0  0  0  0  0  0  0  0  0  0
   -2.0450   20.6880  -33.1960 C   0  0  0  0  0  0  0  0  0  0  0  0
   -3.4510   20.9820  -33.6840 C   0  0  0  0  0  0  0  0  0  0  0  0
   -3.7590   22.3500  -33.5920 O   0  0  0  0  0  0  0  0  0  0  0  0
   -1.7650   20.3920  -31.8290 C   0  0  0  0  0  0  0  0  0  0  0  0
   -2.8700   20.4270  -30.7670 C   0  0  0  0  0  0  0  0  0  0  0  0
   -3.5770   21.7730  -30.6520 C   0  0  0  0  0  0  0  0  0  0  0  0
   -4.9480   21.9040  -30.9950 C   0  0  0  0  0  0  0  0  0  0  0  0
   -5.9920   20.4670  -31.7230 Br  0  0  0  0  0  0  0  0  0  0  0  0
   -5.5950   23.1340  -30.8540 C   0  0  0  0  0  0  0  0  0  0  0  0
   -4.9010   24.2560  -30.4070 C   0  0  0  0  0  0  0  0  0  0  0  0
   -5.7490   25.7860  -30.2400 Cl  0  0  0  0  0  0  0  0  0  0  0  0
   -3.5360   24.1650  -30.1250 C   0  0  0  0  0  0  0  0  0  0  0  0
   -2.8420   25.2980  -29.7140 O   0  0  0  0  0  0  0  0  0  0  0  0
   -2.8650   22.9380  -30.2600 C   0  0  0  0  0  0  0  0  0  0  0  0
   -1.1250   22.9240  -29.9540 Cl  0  0  0  0  0  0  0  0  0  0  0  0
    2.2060   19.4560  -31.1650 H   0  0  0  0  0  0  0  0  0  0  0  0
   -1.1854   21.0657  -35.1511 H   0  0  0  0  0  0  0  0  0  0  0  0
   -3.5365   20.6675  -34.7346 H   0  0  0  0  0  0  0  0  0  0  0  0
   -4.1570   20.4286  -33.0474 H   0  0  0  0  0  0  0  0  0  0  0  0
   -4.1940   22.6090  -34.4460 H   0  0  0  0  0  0  0  0  0  0  0  0
   -3.6194   19.6633  -31.0223 H   0  0  0  0  0  0  0  0  0  0  0  0
   -2.3859   20.2379  -29.7975 H   0  0  0  0  0  0  0  0  0  0  0  0
   -6.6642   23.2174  -31.0986 H   0  0  0  0  0  0  0  0  0  0  0  0
  1  2  3  0
  2  3  1  0
  3  4  2  0
  4  5  1  0
  4  6  1  0
  6  7  1  0
  6  8  2  0
  8  9  1  0
  9 10  1  0
 10 11  1  0
  9 12  2  0
 12 13  1  0
 13 14  1  0
 14 15  2  0
 15 16  1  0
 15 17  1  0
 17 18  2  0
 18 19  1  0
 18 20  1  0
 20 21  1  0
 20 22  2  0
 22 23  1  0
 12  3  1  0
 22 14  1  0
  5 24  1  0
  8 25  1  0
 10 26  1  0
 10 27  1  0
 11 28  1  0
 13 29  1  0
 13 30  1  0
 17 31  1  0
M  CHG  1  21  -1
M  END
>  <UniqueID>  (28) 
27

>  <SMILES>  (28) 
N#Cc1c(O)c(Br)cc(CO)c1Cc1c(Br)cc(Cl)c([O-])c1Cl

>  <Energy>  (28) 
45.65261850669345

>  <Genealogy>  (28) 
N#Cc1c(O)c(Br)cc(CO)c1Cc1c(Br)cc(Cl)c([O-])c1Cl (protonated)
N#Cc1c(O)c(Br)cc(CO)c1Cc1c(Br)cc(Cl)c([O-])c1Cl (3D coordinates assigned)
N#Cc1c(O)c(Br)cc(CO)c1Cc1c(Br)cc(Cl)c([O-])c1Cl (optimized conformer: 45.65261850669345 kcal/mol)

>  <smiles>  (28) 
N#Cc1c(O)c(Br)cc(CO)c1Cc1c(Br)cc(Cl)c(O)c1Cl

>  <score_type>  (28) 
oracle

>  <origin>  (28) 
adgpu

>  <m_score__min__energy>  (28) 
-9.7699999999999996

>  <m_primary>  (28) 
energy

$$$$
28:0
     RDKit          3D

 36 38  0  0  0  0  0  0  0  0999 V2000
   -6.5349   17.7521  -34.6418 H   0  0  0  0  0  0  0  0  0  0  0  0
   -6.0950   18.5450  -34.0190 C   0  0  0  0  0  0  0  0  0  0  0  0
   -4.7450   18.8740  -34.1620 C   0  0  0  0  0  0  0  0  0  0  0  0
   -4.1187   18.3288  -34.8835 H   0  0  0  0  0  0  0  0  0  0  0  0
   -4.1910   19.8970  -33.3870 C   0  0  0  0  0  0  0  0  0  0  0  0
   -2.4990   20.3210  -33.5760 Cl  0  0  0  0  0  0  0  0  0  0  0  0
   -4.9850   20.5840  -32.4610 C   0  0  0  0  0  0  0  0  0  0  0  0
   -4.5499   21.4012  -31.8670 H   0  0  0  0  0  0  0  0  0  0  0  0
   -6.3310   20.2360  -32.2870 C   0  0  0  0  0  0  0  0  0  0  0  0
   -7.1150   20.9700  -31.3330 N   0  0  0  0  0  0  0  0  0  0  0  0
   -6.8050   22.1340  -30.8460 C   0  0  0  0  0  0  0  0  0  0  0  0
   -5.7660   22.8460  -31.2020 O   0  0  0  0  0  0  0  0  0  0  0  0
   -5.8680   23.9590  -30.5090 C   0  0  0  0  0  0  0  0  0  0  0  0
   -4.9240   25.0870  -30.5960 C   0  0  0  0  0  0  0  0  0  0  0  0
   -5.3700   26.2400  -30.8370 O   0  0  0  0  0  0  0  0  0  0  0  0
   -3.5150   24.9210  -30.3820 N   0  0  0  0  0  0  0  0  0  0  0  0
   -2.8750   23.7190  -29.9350 C   0  0  0  0  0  0  0  0  0  0  0  0
   -2.6470   22.7060  -30.8750 C   0  0  0  0  0  0  0  0  0  0  0  0
   -2.9924   22.8356  -31.9113 H   0  0  0  0  0  0  0  0  0  0  0  0
   -1.9860   21.5350  -30.5080 C   0  0  0  0  0  0  0  0  0  0  0  0
   -1.8142   20.7452  -31.2542 H   0  0  0  0  0  0  0  0  0  0  0  0
   -1.5420   21.3620  -29.1980 C   0  0  0  0  0  0  0  0  0  0  0  0
   -1.0020   20.4449  -28.9199 H   0  0  0  0  0  0  0  0  0  0  0  0
   -1.7800   22.3500  -28.2340 C   0  0  0  0  0  0  0  0  0  0  0  0
   -1.2740   22.1400  -26.8990 C   0  0  0  0  0  0  0  0  0  0  0  0
   -0.8670   21.9730  -25.8290 N   0  0  0  0  0  0  0  0  0  0  0  0
   -2.4930   23.5230  -28.5810 C   0  0  0  0  0  0  0  0  0  0  0  0
   -2.8190   24.5540  -27.5250 C   0  0  0  0  0  0  0  0  0  0  0  0
   -2.6796   24.1132  -26.5269 H   0  0  0  0  0  0  0  0  0  0  0  0
   -2.1510   25.4203  -27.6398 H   0  0  0  0  0  0  0  0  0  0  0  0
   -3.8637   24.8788  -27.6398 H   0  0  0  0  0  0  0  0  0  0  0  0
   -6.9600   23.9470  -29.7150 N   0  0  0  0  0  0  0  0  0  0  0  0
   -7.5490   22.7830  -29.9380 N   0  0  0  0  0  0  0  0  0  0  0  0
   -8.4330   22.4610  -29.4860 H   0  0  0  0  0  0  0  0  0  0  0  0
   -6.8890   19.2200  -33.0870 C   0  0  0  0  0  0  0  0  0  0  0  0
   -7.9516   18.9571  -32.9783 H   0  0  0  0  0  0  0  0  0  0  0  0
  1  2  1  0
  2  3  2  0
  3  4  1  0
  3  5  1  0
  5  6  1  0
  5  7  2  0
  7  8  1  0
  7  9  1  0
  9 10  1  0
 10 11  2  0
 11 12  1  0
 12 13  1  0
 13 14  1  0
 14 15  2  0
 14 16  1  0
 16 17  1  0
 17 18  2  0
 18 19  1  0
 18 20  1  0
 20 21  1  0
 20 22  2  0
 22 23  1  0
 22 24  1  0
 24 25  1  0
 25 26  3  0
 24 27  2  0
 27 28  1  0
 28 29  1  0
 28 30  1  0
 28 31  1  0
 13 32  2  0
 32 33  1  0
 33 34  1  0
  9 35  2  0
 35 36  1  0
 35  2  1  0
 33 11  1  0
 27 17  1  0
M  CHG  1  16  -1
M  END
>  <UniqueID>  (29) 
28

>  <SMILES>  (29) 
Cc1c(C#N)cccc1[N-]C(=O)c1n[nH]/c(=N/c2cccc(Cl)c2)o1

>  <Energy>  (29) 
83.20012878932779

>  <Genealogy>  (29) 
Cc1c(C#N)cccc1[N-]C(=O)c1n[nH]c(=Nc2cccc(Cl)c2)o1 (protonated)
Cc1c(C#N)cccc1[N-]C(=O)c1n[nH]/c(=N/c2cccc(Cl)c2)o1 (cis-trans isomerization)
Cc1c(C#N)cccc1[N-]C(=O)c1n[nH]/c(=N/c2cccc(Cl)c2)o1 (3D coordinates assigned)
Cc1c(C#N)cccc1[N-]C(=O)c1n[nH]/c(=N/c2cccc(Cl)c2)o1 (optimized conformer: 83.20012878932779 kcal/mol)

>  <smiles>  (29) 
Cc1c(C#N)cccc1NC(=O)c1n[nH]c(=Nc2cccc(Cl)c2)o1

>  <score_type>  (29) 
oracle

>  <origin>  (29) 
adgpu

>  <m_score__min__energy>  (29) 
-9.4700000000000006

>  <m_primary>  (29) 
energy

$$$$
29:0
     RDKit          3D

 48 51  0  0  0  0  0  0  0  0999 V2000
   -5.6420   18.3660  -35.4030 O   0  0  0  0  0  0  0  0  0  0  0  0
   -6.0350   17.6390  -34.1500 S   0  0  0  0  0  0  0  0  0  0  0  0
   -7.0060   16.5450  -34.4970 O   0  0  0  0  0  0  0  0  0  0  0  0
   -4.6220   16.9340  -33.4280 N   0  0  0  0  0  0  0  0  0  0  0  0
   -3.5530   16.3460  -34.1910 C   0  0  0  0  0  0  0  0  0  0  0  0
   -3.8200   15.5430  -35.3180 C   0  0  0  0  0  0  0  0  0  0  0  0
   -2.7750   14.9710  -36.0450 C   0  0  0  0  0  0  0  0  0  0  0  0
   -1.4530   15.1890  -35.6600 C   0  0  0  0  0  0  0  0  0  0  0  0
   -1.1710   15.9880  -34.5520 C   0  0  0  0  0  0  0  0  0  0  0  0
   -2.2140   16.5860  -33.8200 C   0  0  0  0  0  0  0  0  0  0  0  0
   -1.9450   17.3690  -32.6860 O   0  0  0  0  0  0  0  0  0  0  0  0
   -1.8910   18.7700  -32.6590 C   0  0  0  0  0  0  0  0  0  0  0  0
   -2.7920   19.4930  -33.4500 C   0  0  0  0  0  0  0  0  0  0  0  0
   -2.7580   20.8920  -33.4630 C   0  0  0  0  0  0  0  0  0  0  0  0
   -1.8130   21.5760  -32.6940 C   0  0  0  0  0  0  0  0  0  0  0  0
   -0.8970   20.8630  -31.9150 C   0  0  0  0  0  0  0  0  0  0  0  0
   -0.9300   19.4640  -31.9000 C   0  0  0  0  0  0  0  0  0  0  0  0
   -6.7680   18.7910  -33.0360 C   0  0  0  0  0  0  0  0  0  0  0  0
   -8.0190   18.5270  -32.4650 C   0  0  0  0  0  0  0  0  0  0  0  0
   -8.5840   19.4340  -31.5660 C   0  0  0  0  0  0  0  0  0  0  0  0
   -7.9050   20.6090  -31.2340 C   0  0  0  0  0  0  0  0  0  0  0  0
   -6.6500   20.8930  -31.8040 C   0  0  0  0  0  0  0  0  0  0  0  0
   -5.9240   22.1410  -31.4510 C   0  0  0  0  0  0  0  0  0  0  0  0
   -6.5270   23.3990  -31.6400 C   0  0  0  0  0  0  0  0  0  0  0  0
   -5.8400   24.5710  -31.3110 C   0  0  0  0  0  0  0  0  0  0  0  0
   -4.5450   24.5030  -30.7920 C   0  0  0  0  0  0  0  0  0  0  0  0
   -3.8650   25.6700  -30.4660 O   0  0  0  0  0  0  0  0  0  0  0  0
   -3.9350   23.2610  -30.6000 C   0  0  0  0  0  0  0  0  0  0  0  0
   -4.6180   22.0850  -30.9270 C   0  0  0  0  0  0  0  0  0  0  0  0
   -6.0930   19.9750  -32.7120 C   0  0  0  0  0  0  0  0  0  0  0  0
   -4.6310   16.8330  -32.3880 H   0  0  0  0  0  0  0  0  0  0  0  0
   -4.8606   15.3656  -35.6272 H   0  0  0  0  0  0  0  0  0  0  0  0
   -2.9949   14.3468  -36.9236 H   0  0  0  0  0  0  0  0  0  0  0  0
   -0.6317   14.7306  -36.2304 H   0  0  0  0  0  0  0  0  0  0  0  0
   -0.1266   16.1519  -34.2482 H   0  0  0  0  0  0  0  0  0  0  0  0
   -3.5309   18.9583  -34.0648 H   0  0  0  0  0  0  0  0  0  0  0  0
   -3.4757   21.4535  -34.0791 H   0  0  0  0  0  0  0  0  0  0  0  0
   -1.7898   22.6757  -32.7016 H   0  0  0  0  0  0  0  0  0  0  0  0
   -0.1500   21.4018  -31.3136 H   0  0  0  0  0  0  0  0  0  0  0  0
   -0.2026   18.9049  -31.2931 H   0  0  0  0  0  0  0  0  0  0  0  0
   -8.5575   17.6037  -32.7250 H   0  0  0  0  0  0  0  0  0  0  0  0
   -9.5662   19.2228  -31.1181 H   0  0  0  0  0  0  0  0  0  0  0  0
   -8.3544   21.3170  -30.5222 H   0  0  0  0  0  0  0  0  0  0  0  0
   -7.5461   23.4601  -32.0495 H   0  0  0  0  0  0  0  0  0  0  0  0
   -6.3203   25.5491  -31.4612 H   0  0  0  0  0  0  0  0  0  0  0  0
   -2.9153   23.2078  -30.1908 H   0  0  0  0  0  0  0  0  0  0  0  0
   -4.1319   21.1102  -30.7739 H   0  0  0  0  0  0  0  0  0  0  0  0
   -5.1172   20.1888  -33.1726 H   0  0  0  0  0  0  0  0  0  0  0  0
  1  2  2  0
  2  3  2  0
  2  4  1  0
  4  5  1  0
  5  6  2  0
  6  7  1  0
  7  8  2  0
  8  9  1  0
  9 10  2  0
 10 11  1  0
 11 12  1  0
 12 13  2  0
 13 14  1  0
 14 15  2  0
 15 16  1  0
 16 17  2  0
  2 18  1  0
 18 19  2  0
 19 20  1  0
 20 21  2  0
 21 22  1  0
 22 23  1  0
 23 24  2  0
 24 25  1  0
 25 26  2  0
 26 27  1  0
 26 28  1  0
 28 29  2  0
 22 30  2  0
 10  5  1  0
 17 12  1  0
 30 18  1  0
 29 23  1  0
  4 31  1  0
  6 32  1  0
  7 33  1  0
  8 34  1  0
  9 35  1  0
 13 36  1  0
 14 37  1  0
 15 38  1  0
 16 39  1  0
 17 40  1  0
 19 41  1  0
 20 42  1  0
 21 43  1  0
 24 44  1  0
 25 45  1  0
 28 46  1  0
 29 47  1  0
 30 48  1  0
M  CHG  1  27  -1
M  END
>  <UniqueID>  (30) 
29

>  <SMILES>  (30) 
O=S(=O)(Nc1ccccc1Oc1ccccc1)c1cccc(-c2ccc([O-])cc2)c1

>  <Energy>  (30) 
67.59124468674503

>  <Genealogy>  (30) 
O=S(=O)(Nc1ccccc1Oc1ccccc1)c1cccc(-c2ccc([O-])cc2)c1 (protonated)
O=S(=O)(Nc1ccccc1Oc1ccccc1)c1cccc(-c2ccc([O-])cc2)c1 (3D coordinates assigned)
O=S(=O)(Nc1ccccc1Oc1ccccc1)c1cccc(-c2ccc([O-])cc2)c1 (optimized conformer: 67.59124468674503 kcal/mol)

>  <smiles>  (30) 
O=S(=O)(Nc1ccccc1Oc1ccccc1)c1cccc(-c2ccc(O)cc2)c1

>  <score_type>  (30) 
oracle

>  <origin>  (30) 
adgpu

>  <m_score__min__energy>  (30) 
-13.050000000000001

>  <m_primary>  (30) 
energy

$$$$
30:0
     RDKit          3D

 47 49  0  0  0  0  0  0  0  0999 V2000
   -8.5690   20.0490  -33.8540 H   0  0  0  0  0  0  0  0  0  0  0  0
   -8.3210   20.1340  -32.8440 N   0  0  0  0  0  0  0  0  0  0  0  0
   -8.3590   21.3990  -32.1830 C   0  0  0  0  0  0  0  0  0  0  0  0
   -9.4320   22.0590  -32.1840 O   0  0  0  0  0  0  0  0  0  0  0  0
   -7.1540   21.9310  -31.5060 C   0  0  0  0  0  0  0  0  0  0  0  0
   -5.8700   21.5170  -31.9060 C   0  0  0  0  0  0  0  0  0  0  0  0
   -5.7607   20.7925  -32.7265 H   0  0  0  0  0  0  0  0  0  0  0  0
   -4.7320   22.0200  -31.2680 C   0  0  0  0  0  0  0  0  0  0  0  0
   -3.7339   21.6874  -31.5893 H   0  0  0  0  0  0  0  0  0  0  0  0
   -4.8540   22.9450  -30.2220 C   0  0  0  0  0  0  0  0  0  0  0  0
   -3.6440   23.4820  -29.5500 C   0  0  0  0  0  0  0  0  0  0  0  0
   -3.2020   24.7820  -29.8510 C   0  0  0  0  0  0  0  0  0  0  0  0
   -3.8740   25.5620  -30.7860 O   0  0  0  0  0  0  0  0  0  0  0  0
   -2.1040   25.2900  -29.2410 N   0  0  0  0  0  0  0  0  0  0  0  0
   -1.3940   24.5750  -28.3330 C   0  0  0  0  0  0  0  0  0  0  0  0
   -0.5075   25.0223  -27.8598 H   0  0  0  0  0  0  0  0  0  0  0  0
   -1.7790   23.2740  -27.9930 C   0  0  0  0  0  0  0  0  0  0  0  0
   -1.0100   22.5690  -27.0700 O   0  0  0  0  0  0  0  0  0  0  0  0
   -1.4290   22.0630  -26.2980 H   0  0  0  0  0  0  0  0  0  0  0  0
   -2.9320   22.7100  -28.6010 C   0  0  0  0  0  0  0  0  0  0  0  0
   -3.3870   21.5160  -28.3130 N   0  0  0  0  0  0  0  0  0  0  0  0
   -2.9030   20.5260  -27.3500 C   0  0  0  0  0  0  0  0  0  0  0  0
   -3.7150   19.8193  -27.1235 H   0  0  0  0  0  0  0  0  0  0  0  0
   -2.5823   21.0540  -26.4399 H   0  0  0  0  0  0  0  0  0  0  0  0
   -1.7240   19.7610  -27.8980 C   0  0  0  0  0  0  0  0  0  0  0  0
   -1.1690   18.6980  -27.1710 C   0  0  0  0  0  0  0  0  0  0  0  0
   -1.5835   18.4338  -26.1869 H   0  0  0  0  0  0  0  0  0  0  0  0
   -0.0940   17.9730  -27.6880 C   0  0  0  0  0  0  0  0  0  0  0  0
    0.3420   17.1501  -27.1025 H   0  0  0  0  0  0  0  0  0  0  0  0
    0.4360   18.2880  -28.9540 C   0  0  0  0  0  0  0  0  0  0  0  0
    1.5180   17.5850  -29.5050 O   0  0  0  0  0  0  0  0  0  0  0  0
    1.4100   16.6480  -30.5720 C   0  0  0  0  0  0  0  0  0  0  0  0
    1.2932   15.6348  -30.1598 H   0  0  0  0  0  0  0  0  0  0  0  0
    0.5344   16.8955  -31.1902 H   0  0  0  0  0  0  0  0  0  0  0  0
    2.3189   16.6899  -31.1902 H   0  0  0  0  0  0  0  0  0  0  0  0
   -0.1290   19.3350  -29.6990 C   0  0  0  0  0  0  0  0  0  0  0  0
    0.4160   19.6230  -30.9610 O   0  0  0  0  0  0  0  0  0  0  0  0
   -0.1430   20.5470  -31.8900 C   0  0  0  0  0  0  0  0  0  0  0  0
   -0.6370   21.3635  -31.3429 H   0  0  0  0  0  0  0  0  0  0  0  0
    0.6566   20.9604  -32.5222 H   0  0  0  0  0  0  0  0  0  0  0  0
   -0.8803   20.0306  -32.5222 H   0  0  0  0  0  0  0  0  0  0  0  0
   -1.2160   20.0600  -29.1720 C   0  0  0  0  0  0  0  0  0  0  0  0
   -1.6708   20.8677  -29.7643 H   0  0  0  0  0  0  0  0  0  0  0  0
   -6.1330   23.3600  -29.8180 C   0  0  0  0  0  0  0  0  0  0  0  0
   -6.2391   24.0832  -28.9959 H   0  0  0  0  0  0  0  0  0  0  0  0
   -7.2730   22.8590  -30.4550 C   0  0  0  0  0  0  0  0  0  0  0  0
   -8.2700   23.1930  -30.1319 H   0  0  0  0  0  0  0  0  0  0  0  0
  1  2  1  0
  2  3  1  0
  3  4  2  0
  3  5  1  0
  5  6  2  0
  6  7  1  0
  6  8  1  0
  8  9  1  0
  8 10  2  0
 10 11  1  0
 11 12  2  0
 12 13  1  0
 12 14  1  0
 14 15  1  0
 15 16  1  0
 15 17  2  0
 17 18  1  0
 18 19  1  0
 17 20  1  0
 20 21  2  0
 21 22  1  0
 22 23  1  0
 22 24  1  0
 22 25  1  0
 25 26  2  0
 26 27  1  0
 26 28  1  0
 28 29  1  0
 28 30  2  0
 30 31  1  0
 31 32  1  0
 32 33  1  0
 32 34  1  0
 32 35  1  0
 30 36  1  0
 36 37  1  0
 37 38  1  0
 38 39  1  0
 38 40  1  0
 38 41  1  0
 36 42  2  0
 42 43  1  0
 10 44  1  0
 44 45  1  0
 44 46  2  0
 46 47  1  0
 46  5  1  0
 20 11  1  0
 42 25  1  0
M  CHG  3   2  -1  13  -1  14  -1
M  END
>  <UniqueID>  (31) 
30

>  <SMILES>  (31) 
COc1ccc(C/N=c2\c(O)c[n-]c([O-])c2-c2ccc(C([NH-])=O)cc2)cc1OC

>  <Energy>  (31) 
63.072841407584534

>  <Genealogy>  (31) 
COc1ccc(CN=c2c(O)c[n-]c([O-])c2-c2ccc(C([NH-])=O)cc2)cc1OC (protonated)
COc1ccc(C/N=c2\c(O)c[n-]c([O-])c2-c2ccc(C([NH-])=O)cc2)cc1OC (cis-trans isomerization)
COc1ccc(C/N=c2\c(O)c[n-]c([O-])c2-c2ccc(C([NH-])=O)cc2)cc1OC (3D coordinates assigned)
COc1ccc(C/N=c2\c(O)c[n-]c([O-])c2-c2ccc(C([NH-])=O)cc2)cc1OC (optimized conformer: 63.072841407584534 kcal/mol)

>  <smiles>  (31) 
COc1ccc(CN=c2c(O)c[nH]c(O)c2-c2ccc(C(N)=O)cc2)cc1OC

>  <score_type>  (31) 
oracle

>  <origin>  (31) 
adgpu

>  <m_score__min__energy>  (31) 
-11.619999999999999

>  <m_primary>  (31) 
energy

$$$$
31:0
     RDKit          3D

 53 55  0  0  0  0  0  0  0  0999 V2000
    0.4450   26.9300  -23.4150 C   0  0  0  0  0  0  0  0  0  0  0  0
   -0.8770   26.8990  -23.9500 O   0  0  0  0  0  0  0  0  0  0  0  0
   -1.1950   26.4750  -25.2500 C   0  0  0  0  0  0  0  0  0  0  0  0
   -2.3360   25.6960  -25.5350 C   0  0  0  0  0  0  0  0  0  0  0  0
   -2.6010   25.2890  -26.8470 C   0  0  0  0  0  0  0  0  0  0  0  0
   -1.7230   25.6460  -27.8890 C   0  0  0  0  0  0  0  0  0  0  0  0
   -1.9880   25.2810  -29.2490 N   0  0  0  0  0  0  0  0  0  0  0  0
   -3.1110   24.5130  -29.7000 C   0  0  0  0  0  0  0  0  0  0  0  0
   -3.8690   24.9520  -30.6090 O   0  0  0  0  0  0  0  0  0  0  0  0
   -3.3660   23.1600  -29.1040 C   0  0  0  0  0  0  0  0  0  0  0  0
   -2.1920   22.2960  -29.2800 N   0  0  0  0  0  0  0  0  0  0  0  0
   -1.8480   21.7880  -30.5810 C   0  0  0  0  0  0  0  0  0  0  0  0
   -2.8360   21.6450  -31.5660 C   0  0  0  0  0  0  0  0  0  0  0  0
   -2.4990   21.1890  -32.8440 C   0  0  0  0  0  0  0  0  0  0  0  0
   -1.1720   20.8650  -33.1510 C   0  0  0  0  0  0  0  0  0  0  0  0
   -0.8010   20.4080  -34.5310 C   0  0  0  0  0  0  0  0  0  0  0  0
   -0.1810   21.0370  -32.1740 C   0  0  0  0  0  0  0  0  0  0  0  0
   -0.5160   21.4920  -30.8960 C   0  0  0  0  0  0  0  0  0  0  0  0
   -1.1020   22.0150  -27.9510 S   0  0  0  0  0  0  0  0  0  0  0  0
    0.2120   22.6840  -28.2440 O   0  0  0  0  0  0  0  0  0  0  0  0
   -1.6600   22.6220  -26.6920 O   0  0  0  0  0  0  0  0  0  0  0  0
   -0.8580   20.2870  -27.6990 C   0  0  0  0  0  0  0  0  0  0  0  0
    0.2920   19.5430  -27.9170 C   0  0  0  0  0  0  0  0  0  0  0  0
    1.6120   20.0460  -28.4080 C   0  0  0  0  0  0  0  0  0  0  0  0
    0.0710   18.2610  -27.5650 N   0  0  0  0  0  0  0  0  0  0  0  0
   -1.1770   18.1690  -27.1360 N   0  0  0  0  0  0  0  0  0  0  0  0
   -1.7680   19.3750  -27.2010 C   0  0  0  0  0  0  0  0  0  0  0  0
   -3.1590   19.6540  -26.7290 C   0  0  0  0  0  0  0  0  0  0  0  0
   -0.6110   26.4530  -27.6090 C   0  0  0  0  0  0  0  0  0  0  0  0
   -0.3440   26.8560  -26.2980 C   0  0  0  0  0  0  0  0  0  0  0  0
    0.3960   26.9289  -22.3161 H   0  0  0  0  0  0  0  0  0  0  0  0
    1.0003   26.0446  -23.7582 H   0  0  0  0  0  0  0  0  0  0  0  0
    0.9582   27.8404  -23.7582 H   0  0  0  0  0  0  0  0  0  0  0  0
   -3.0196   25.4076  -24.7229 H   0  0  0  0  0  0  0  0  0  0  0  0
   -3.4968   24.6890  -27.0653 H   0  0  0  0  0  0  0  0  0  0  0  0
   -3.5775   23.2705  -28.0302 H   0  0  0  0  0  0  0  0  0  0  0  0
   -4.2270   22.7016  -29.6125 H   0  0  0  0  0  0  0  0  0  0  0  0
   -3.8818   21.8930  -31.3318 H   0  0  0  0  0  0  0  0  0  0  0  0
   -3.2799   21.0843  -33.6116 H   0  0  0  0  0  0  0  0  0  0  0  0
   -0.1091   19.5557  -34.4614 H   0  0  0  0  0  0  0  0  0  0  0  0
   -1.7082   20.1005  -35.0717 H   0  0  0  0  0  0  0  0  0  0  0  0
   -0.3137   21.2327  -35.0717 H   0  0  0  0  0  0  0  0  0  0  0  0
    0.8683   20.8120  -32.4155 H   0  0  0  0  0  0  0  0  0  0  0  0
    0.2686   21.6180  -30.1354 H   0  0  0  0  0  0  0  0  0  0  0  0
    2.2538   20.2906  -27.5488 H   0  0  0  0  0  0  0  0  0  0  0  0
    2.0964   19.2694  -29.0182 H   0  0  0  0  0  0  0  0  0  0  0  0
    1.4567   20.9480  -29.0182 H   0  0  0  0  0  0  0  0  0  0  0  0
   -1.6130   17.2880  -26.7890 H   0  0  0  0  0  0  0  0  0  0  0  0
   -3.1791   19.6580  -25.6292 H   0  0  0  0  0  0  0  0  0  0  0  0
   -3.4840   20.6352  -27.1053 H   0  0  0  0  0  0  0  0  0  0  0  0
   -3.8373   18.8740  -27.1053 H   0  0  0  0  0  0  0  0  0  0  0  0
    0.0544   26.7704  -28.4254 H   0  0  0  0  0  0  0  0  0  0  0  0
    0.5395   27.4762  -26.0863 H   0  0  0  0  0  0  0  0  0  0  0  0
  1  2  1  0
  2  3  1  0
  3  4  2  0
  4  5  1  0
  5  6  2  0
  6  7  1  0
  7  8  1  0
  8  9  2  0
  8 10  1  0
 10 11  1  0
 11 12  1  0
 12 13  2  0
 13 14  1  0
 14 15  2  0
 15 16  1  0
 15 17  1  0
 17 18  2  0
 11 19  1  0
 19 20  2  0
 19 21  2  0
 19 22  1  0
 22 23  1  0
 23 24  1  0
 23 25  2  0
 25 26  1  0
 26 27  1  0
 27 28  1  0
  6 29  1  0
 29 30  2  0
 30  3  1  0
 18 12  1  0
 27 22  2  0
  1 31  1  0
  1 32  1  0
  1 33  1  0
  4 34  1  0
  5 35  1  0
 10 36  1  0
 10 37  1  0
 13 38  1  0
 14 39  1  0
 16 40  1  0
 16 41  1  0
 16 42  1  0
 17 43  1  0
 18 44  1  0
 24 45  1  0
 24 46  1  0
 24 47  1  0
 26 48  1  0
 28 49  1  0
 28 50  1  0
 28 51  1  0
 29 52  1  0
 30 53  1  0
M  CHG  1   7  -1
M  END
>  <UniqueID>  (32) 
31

>  <SMILES>  (32) 
COc1ccc([N-]C(=O)CN(c2ccc(C)cc2)S(=O)(=O)c2c(C)n[nH]c2C)cc1

>  <Energy>  (32) 
88.04322114930469

>  <Genealogy>  (32) 
COc1ccc([N-]C(=O)CN(c2ccc(C)cc2)S(=O)(=O)c2c(C)n[nH]c2C)cc1 (protonated)
COc1ccc([N-]C(=O)CN(c2ccc(C)cc2)S(=O)(=O)c2c(C)n[nH]c2C)cc1 (3D coordinates assigned)
COc1ccc([N-]C(=O)CN(c2ccc(C)cc2)S(=O)(=O)c2c(C)n[nH]c2C)cc1 (optimized conformer: 88.04322114930469 kcal/mol)

>  <smiles>  (32) 
COc1ccc(NC(=O)CN(c2ccc(C)cc2)S(=O)(=O)c2c(C)n[nH]c2C)cc1

>  <score_type>  (32) 
oracle

>  <origin>  (32) 
adgpu

>  <m_score__min__energy>  (32) 
-10.15

>  <m_primary>  (32) 
energy

$$$$
32:0
     RDKit          3D

 53 55  0  0  0  0  0  0  0  0999 V2000
   -3.1560   16.0870  -35.5640 C   0  0  0  0  0  0  0  0  0  0  0  0
   -3.9830   17.2420  -35.6550 O   0  0  0  0  0  0  0  0  0  0  0  0
   -4.6920   17.8010  -34.5810 C   0  0  0  0  0  0  0  0  0  0  0  0
   -6.1000   17.8430  -34.5590 C   0  0  0  0  0  0  0  0  0  0  0  0
   -6.7740   18.3630  -33.4500 C   0  0  0  0  0  0  0  0  0  0  0  0
   -6.0540   18.8420  -32.3550 C   0  0  0  0  0  0  0  0  0  0  0  0
   -4.6580   18.8140  -32.3700 C   0  0  0  0  0  0  0  0  0  0  0  0
   -3.9740   18.3130  -33.4830 C   0  0  0  0  0  0  0  0  0  0  0  0
   -2.5460   18.3040  -33.4750 N   0  0  0  0  0  0  0  0  0  0  0  0
   -1.6350   19.7660  -33.3100 S   0  0  0  0  0  0  0  0  0  0  0  0
   -0.1900   19.4300  -33.0640 O   0  0  0  0  0  0  0  0  0  0  0  0
   -1.7250   20.5520  -34.5880 O   0  0  0  0  0  0  0  0  0  0  0  0
   -2.2760   20.7300  -31.9870 C   0  0  0  0  0  0  0  0  0  0  0  0
   -3.2910   21.6610  -32.2350 C   0  0  0  0  0  0  0  0  0  0  0  0
   -3.8650   22.3740  -31.1790 C   0  0  0  0  0  0  0  0  0  0  0  0
   -3.4430   22.1460  -29.8550 C   0  0  0  0  0  0  0  0  0  0  0  0
   -4.0320   22.7860  -28.7520 O   0  0  0  0  0  0  0  0  0  0  0  0
   -3.6770   24.0810  -28.2670 C   0  0  0  0  0  0  0  0  0  0  0  0
   -3.0820   24.9120  -29.3630 C   0  0  0  0  0  0  0  0  0  0  0  0
   -1.8830   25.2920  -29.2810 O   0  0  0  0  0  0  0  0  0  0  0  0
   -3.8820   25.2650  -30.4950 N   0  0  0  0  0  0  0  0  0  0  0  0
   -5.2940   25.6190  -30.4080 C   0  0  0  0  0  0  0  0  0  0  0  0
   -6.1600   24.4350  -30.7460 C   0  0  0  0  0  0  0  0  0  0  0  0
   -6.4030   24.0980  -32.0870 C   0  0  0  0  0  0  0  0  0  0  0  0
   -7.2320   23.0180  -32.4070 C   0  0  0  0  0  0  0  0  0  0  0  0
   -7.8340   22.2650  -31.3890 C   0  0  0  0  0  0  0  0  0  0  0  0
   -8.7650   21.1370  -31.7240 C   0  0  0  0  0  0  0  0  0  0  0  0
   -7.6060   22.6100  -30.0490 C   0  0  0  0  0  0  0  0  0  0  0  0
   -6.7670   23.6810  -29.7290 C   0  0  0  0  0  0  0  0  0  0  0  0
   -2.4070   21.2360  -29.6180 C   0  0  0  0  0  0  0  0  0  0  0  0
   -1.8270   20.5280  -30.6750 C   0  0  0  0  0  0  0  0  0  0  0  0
   -2.9816   15.8434  -34.5056 H   0  0  0  0  0  0  0  0  0  0  0  0
   -3.6539   15.2397  -36.0580 H   0  0  0  0  0  0  0  0  0  0  0  0
   -2.1934   16.2854  -36.0580 H   0  0  0  0  0  0  0  0  0  0  0  0
   -6.6721   17.4646  -35.4190 H   0  0  0  0  0  0  0  0  0  0  0  0
   -7.8735   18.3946  -33.4407 H   0  0  0  0  0  0  0  0  0  0  0  0
   -6.5864   19.2419  -31.4794 H   0  0  0  0  0  0  0  0  0  0  0  0
   -4.0935   19.1875  -31.5029 H   0  0  0  0  0  0  0  0  0  0  0  0
   -3.6382   21.8321  -33.2646 H   0  0  0  0  0  0  0  0  0  0  0  0
   -4.6502   23.1169  -31.3830 H   0  0  0  0  0  0  0  0  0  0  0  0
   -4.5776   24.5819  -27.8823 H   0  0  0  0  0  0  0  0  0  0  0  0
   -2.9322   23.9667  -27.4656 H   0  0  0  0  0  0  0  0  0  0  0  0
   -5.5206   25.9519  -29.3844 H   0  0  0  0  0  0  0  0  0  0  0  0
   -5.5017   26.4261  -31.1260 H   0  0  0  0  0  0  0  0  0  0  0  0
   -5.9383   24.6872  -32.8913 H   0  0  0  0  0  0  0  0  0  0  0  0
   -7.4123   22.7585  -33.4607 H   0  0  0  0  0  0  0  0  0  0  0  0
   -9.1399   20.6828  -30.7950 H   0  0  0  0  0  0  0  0  0  0  0  0
   -9.6115   21.5223  -32.3113 H   0  0  0  0  0  0  0  0  0  0  0  0
   -8.2261   20.3789  -32.3113 H   0  0  0  0  0  0  0  0  0  0  0  0
   -8.0899   22.0349  -29.2458 H   0  0  0  0  0  0  0  0  0  0  0  0
   -6.5813   23.9345  -28.6749 H   0  0  0  0  0  0  0  0  0  0  0  0
   -2.0457   21.0762  -28.5914 H   0  0  0  0  0  0  0  0  0  0  0  0
   -1.0167   19.8111  -30.4763 H   0  0  0  0  0  0  0  0  0  0  0  0
  1  2  1  0
  2  3  1  0
  3  4  2  0
  4  5  1  0
  5  6  2  0
  6  7  1  0
  7  8  2  0
  8  9  1  0
  9 10  1  0
 10 11  2  0
 10 12  2  0
 10 13  1  0
 13 14  2  0
 14 15  1  0
 15 16  2  0
 16 17  1  0
 17 18  1  0
 18 19  1  0
 19 20  2  0
 19 21  1  0
 21 22  1  0
 22 23  1  0
 23 24  2  0
 24 25  1  0
 25 26  2  0
 26 27  1  0
 26 28  1  0
 28 29  2  0
 16 30  1  0
 30 31  2  0
  8  3  1  0
 31 13  1  0
 29 23  1  0
  1 32  1  0
  1 33  1  0
  1 34  1  0
  4 35  1  0
  5 36  1  0
  6 37  1  0
  7 38  1  0
 14 39  1  0
 15 40  1  0
 18 41  1  0
 18 42  1  0
 22 43  1  0
 22 44  1  0
 24 45  1  0
 25 46  1  0
 27 47  1  0
 27 48  1  0
 27 49  1  0
 28 50  1  0
 29 51  1  0
 30 52  1  0
 31 53  1  0
M  CHG  2   9  -1  21  -1
M  END
>  <UniqueID>  (33) 
32

>  <SMILES>  (33) 
COc1ccccc1[N-]S(=O)(=O)c1ccc(OCC(=O)[N-]Cc2ccc(C)cc2)cc1

>  <Energy>  (33) 
51.70402166594775

>  <Genealogy>  (33) 
COc1ccccc1[N-]S(=O)(=O)c1ccc(OCC(=O)[N-]Cc2ccc(C)cc2)cc1 (protonated)
COc1ccccc1[N-]S(=O)(=O)c1ccc(OCC(=O)[N-]Cc2ccc(C)cc2)cc1 (3D coordinates assigned)
COc1ccccc1[N-]S(=O)(=O)c1ccc(OCC(=O)[N-]Cc2ccc(C)cc2)cc1 (optimized conformer: 51.70402166594775 kcal/mol)

>  <smiles>  (33) 
COc1ccccc1NS(=O)(=O)c1ccc(OCC(=O)NCc2ccc(C)cc2)cc1

>  <score_type>  (33) 
oracle

>  <origin>  (33) 
adgpu

>  <m_score__min__energy>  (33) 
-10.960000000000001

>  <m_primary>  (33) 
energy

$$$$
33:0
     RDKit          3D

 41 43  0  0  0  0  0  0  0  0999 V2000
   -0.8620   26.5070  -27.9900 C   0  0  0  0  0  0  0  0  0  0  0  0
   -1.4600   25.6690  -28.9730 O   0  0  0  0  0  0  0  0  0  0  0  0
   -1.4270   24.2670  -28.9490 C   0  0  0  0  0  0  0  0  0  0  0  0
   -0.2260   23.5440  -29.0960 C   0  0  0  0  0  0  0  0  0  0  0  0
   -0.2390   22.1480  -29.0980 C   0  0  0  0  0  0  0  0  0  0  0  0
   -1.4430   21.4570  -28.9490 C   0  0  0  0  0  0  0  0  0  0  0  0
   -2.6390   22.1620  -28.7990 C   0  0  0  0  0  0  0  0  0  0  0  0
   -2.6390   23.5630  -28.8020 C   0  0  0  0  0  0  0  0  0  0  0  0
   -3.8800   24.2760  -28.6670 N   0  0  0  0  0  0  0  0  0  0  0  0
   -4.3980   24.5380  -27.3230 C   0  0  0  0  0  0  0  0  0  0  0  0
   -4.5480   24.8460  -29.8150 C   0  0  0  0  0  0  0  0  0  0  0  0
   -3.8660   25.2720  -30.7870 O   0  0  0  0  0  0  0  0  0  0  0  0
   -6.0490   24.9290  -29.9060 C   0  0  0  0  0  0  0  0  0  0  0  0
   -6.5690   23.9130  -30.8700 C   0  0  0  0  0  0  0  0  0  0  0  0
   -6.7480   22.6140  -30.5680 N   0  0  0  0  0  0  0  0  0  0  0  0
   -7.1570   22.1160  -31.7530 C   0  0  0  0  0  0  0  0  0  0  0  0
   -7.4340   20.6850  -31.9900 C   0  0  0  0  0  0  0  0  0  0  0  0
   -8.6210   20.1010  -31.5100 C   0  0  0  0  0  0  0  0  0  0  0  0
   -8.8710   18.7400  -31.7130 C   0  0  0  0  0  0  0  0  0  0  0  0
   -7.9420   17.9510  -32.3940 C   0  0  0  0  0  0  0  0  0  0  0  0
   -6.7610   18.5200  -32.8730 C   0  0  0  0  0  0  0  0  0  0  0  0
   -6.5050   19.8800  -32.6730 C   0  0  0  0  0  0  0  0  0  0  0  0
   -7.2290   23.0650  -32.7100 N   0  0  0  0  0  0  0  0  0  0  0  0
   -6.8580   24.1620  -32.1240 O   0  0  0  0  0  0  0  0  0  0  0  0
   -1.1240   26.1399  -26.9867 H   0  0  0  0  0  0  0  0  0  0  0  0
    0.2311   26.4927  -28.1118 H   0  0  0  0  0  0  0  0  0  0  0  0
   -1.2310   27.5361  -28.1118 H   0  0  0  0  0  0  0  0  0  0  0  0
    0.7264   24.0825  -29.2097 H   0  0  0  0  0  0  0  0  0  0  0  0
    0.7020   21.5909  -29.2173 H   0  0  0  0  0  0  0  0  0  0  0  0
   -1.4495   20.3570  -28.9498 H   0  0  0  0  0  0  0  0  0  0  0  0
   -3.5855   21.6148  -28.6779 H   0  0  0  0  0  0  0  0  0  0  0  0
   -3.6781   24.1739  -26.5752 H   0  0  0  0  0  0  0  0  0  0  0  0
   -4.5472   25.6199  -27.1920 H   0  0  0  0  0  0  0  0  0  0  0  0
   -5.3579   24.0170  -27.1920 H   0  0  0  0  0  0  0  0  0  0  0  0
   -6.4833   24.7419  -28.9128 H   0  0  0  0  0  0  0  0  0  0  0  0
   -6.3303   25.9323  -30.2585 H   0  0  0  0  0  0  0  0  0  0  0  0
   -9.3560   20.7181  -30.9724 H   0  0  0  0  0  0  0  0  0  0  0  0
   -9.8012   18.2904  -31.3355 H   0  0  0  0  0  0  0  0  0  0  0  0
   -8.1409   16.8809  -32.5530 H   0  0  0  0  0  0  0  0  0  0  0  0
   -6.0299   17.8971  -33.4091 H   0  0  0  0  0  0  0  0  0  0  0  0
   -5.5720   20.3226  -33.0519 H   0  0  0  0  0  0  0  0  0  0  0  0
  1  2  1  0
  2  3  1  0
  3  4  2  0
  4  5  1  0
  5  6  2  0
  6  7  1  0
  7  8  2  0
  8  9  1  0
  9 10  1  0
  9 11  1  0
 11 12  2  0
 11 13  1  0
 13 14  1  0
 14 15  2  0
 15 16  1  0
 16 17  1  0
 17 18  2  0
 18 19  1  0
 19 20  2  0
 20 21  1  0
 21 22  2  0
 16 23  2  0
 23 24  1  0
  8  3  1  0
 24 14  1  0
 22 17  1  0
  1 25  1  0
  1 26  1  0
  1 27  1  0
  4 28  1  0
  5 29  1  0
  6 30  1  0
  7 31  1  0
 10 32  1  0
 10 33  1  0
 10 34  1  0
 13 35  1  0
 13 36  1  0
 18 37  1  0
 19 38  1  0
 20 39  1  0
 21 40  1  0
 22 41  1  0
M  END
>  <UniqueID>  (34) 
33

>  <SMILES>  (34) 
COc1ccccc1N(C)C(=O)Cc1nc(-c2ccccc2)no1

>  <Energy>  (34) 
76.369535941168

>  <Genealogy>  (34) 
COc1ccccc1N(C)C(=O)Cc1nc(-c2ccccc2)no1 (3D coordinates assigned)
COc1ccccc1N(C)C(=O)Cc1nc(-c2ccccc2)no1 (optimized conformer: 76.369535941168 kcal/mol)

>  <smiles>  (34) 
COc1ccccc1N(C)C(=O)Cc1nc(-c2ccccc2)no1

>  <score_type>  (34) 
oracle

>  <origin>  (34) 
adgpu

>  <m_score__min__energy>  (34) 
-9.1899999999999995

>  <m_primary>  (34) 
energy

$$$$
34:0
     RDKit          3D

 37 39  0  0  0  0  0  0  0  0999 V2000
   -4.6480   14.3390  -32.6600 C   0  0  0  0  0  0  0  0  0  0  0  0
   -5.7200   14.8950  -33.4130 O   0  0  0  0  0  0  0  0  0  0  0  0
   -5.8490   16.2590  -33.7190 C   0  0  0  0  0  0  0  0  0  0  0  0
   -5.0820   16.8830  -34.7210 C   0  0  0  0  0  0  0  0  0  0  0  0
   -5.2480   18.2450  -34.9860 C   0  0  0  0  0  0  0  0  0  0  0  0
   -6.1740   18.9960  -34.2590 C   0  0  0  0  0  0  0  0  0  0  0  0
   -6.9460   18.3870  -33.2560 C   0  0  0  0  0  0  0  0  0  0  0  0
   -7.9380   19.1940  -32.4570 C   0  0  0  0  0  0  0  0  0  0  0  0
   -7.2970   20.4750  -31.9410 C   0  0  0  0  0  0  0  0  0  0  0  0
   -5.9490   20.5420  -31.4900 C   0  0  0  0  0  0  0  0  0  0  0  0
   -5.1460   19.2750  -31.2650 C   0  0  0  0  0  0  0  0  0  0  0  0
   -5.3800   21.8230  -31.2500 C   0  0  0  0  0  0  0  0  0  0  0  0
   -4.0110   22.0250  -30.9590 C   0  0  0  0  0  0  0  0  0  0  0  0
   -3.5200   23.3080  -30.6980 C   0  0  0  0  0  0  0  0  0  0  0  0
   -4.3740   24.4100  -30.7360 C   0  0  0  0  0  0  0  0  0  0  0  0
   -3.8820   25.6810  -30.4710 O   0  0  0  0  0  0  0  0  0  0  0  0
   -5.7220   24.2350  -31.0530 C   0  0  0  0  0  0  0  0  0  0  0  0
   -6.2240   22.9570  -31.3250 C   0  0  0  0  0  0  0  0  0  0  0  0
   -7.4980   22.8300  -31.6620 O   0  0  0  0  0  0  0  0  0  0  0  0
   -8.0500   21.6680  -31.9770 C   0  0  0  0  0  0  0  0  0  0  0  0
   -9.2630   21.6480  -32.3160 O   0  0  0  0  0  0  0  0  0  0  0  0
   -6.7770   17.0180  -32.9950 C   0  0  0  0  0  0  0  0  0  0  0  0
   -4.8589   14.4484  -31.5860 H   0  0  0  0  0  0  0  0  0  0  0  0
   -4.5418   13.2721  -32.9060 H   0  0  0  0  0  0  0  0  0  0  0  0
   -3.7147   14.8667  -32.9060 H   0  0  0  0  0  0  0  0  0  0  0  0
   -4.3503   16.2971  -35.2967 H   0  0  0  0  0  0  0  0  0  0  0  0
   -4.6467   18.7276  -35.7706 H   0  0  0  0  0  0  0  0  0  0  0  0
   -6.2992   20.0678  -34.4725 H   0  0  0  0  0  0  0  0  0  0  0  0
   -8.7941   19.4512  -33.0980 H   0  0  0  0  0  0  0  0  0  0  0  0
   -8.2719   18.5941  -31.5976 H   0  0  0  0  0  0  0  0  0  0  0  0
   -5.0342   19.0987  -30.1850 H   0  0  0  0  0  0  0  0  0  0  0  0
   -5.6693   18.4230  -31.7234 H   0  0  0  0  0  0  0  0  0  0  0  0
   -4.1521   19.3845  -31.7234 H   0  0  0  0  0  0  0  0  0  0  0  0
   -3.3258   21.1647  -30.9378 H   0  0  0  0  0  0  0  0  0  0  0  0
   -2.4550   23.4488  -30.4616 H   0  0  0  0  0  0  0  0  0  0  0  0
   -6.3932   25.1057  -31.0892 H   0  0  0  0  0  0  0  0  0  0  0  0
   -7.3808   16.5356  -32.2123 H   0  0  0  0  0  0  0  0  0  0  0  0
  1  2  1  0
  2  3  1  0
  3  4  2  0
  4  5  1  0
  5  6  2  0
  6  7  1  0
  7  8  1  0
  8  9  1  0
  9 10  2  0
 10 11  1  0
 10 12  1  0
 12 13  2  0
 13 14  1  0
 14 15  2  0
 15 16  1  0
 15 17  1  0
 17 18  2  0
 18 19  1  0
 19 20  1  0
 20 21  2  0
  7 22  2  0
 22  3  1  0
 20  9  1  0
 18 12  1  0
  1 23  1  0
  1 24  1  0
  1 25  1  0
  4 26  1  0
  5 27  1  0
  6 28  1  0
  8 29  1  0
  8 30  1  0
 11 31  1  0
 11 32  1  0
 11 33  1  0
 13 34  1  0
 14 35  1  0
 17 36  1  0
 22 37  1  0
M  CHG  1  16  -1
M  END
>  <UniqueID>  (35) 
34

>  <SMILES>  (35) 
COc1cccc(Cc2c(C)c3ccc([O-])cc3oc2=O)c1

>  <Energy>  (35) 
51.076718874096095

>  <Genealogy>  (35) 
COc1cccc(Cc2c(C)c3ccc([O-])cc3oc2=O)c1 (protonated)
COc1cccc(Cc2c(C)c3ccc([O-])cc3oc2=O)c1 (3D coordinates assigned)
COc1cccc(Cc2c(C)c3ccc([O-])cc3oc2=O)c1 (optimized conformer: 51.076718874096095 kcal/mol)

>  <smiles>  (35) 
COc1cccc(Cc2c(C)c3ccc(O)cc3oc2=O)c1

>  <score_type>  (35) 
oracle

>  <origin>  (35) 
adgpu

>  <m_score__min__energy>  (35) 
-10.470000000000001

>  <m_primary>  (35) 
energy

$$$$
35:0
     RDKit          3D

 34 35  0  0  0  0  0  0  0  0999 V2000
   -1.2530   20.3845  -28.3188 H   0  0  0  0  0  0  0  0  0  0  0  0
   -2.3520   20.4310  -28.3150 C   0  0  0  0  0  0  0  0  0  0  0  0
   -3.0450   21.1890  -29.3110 N   0  0  0  0  0  0  0  0  0  0  0  0
   -3.2040   22.4800  -29.3160 C   0  0  0  0  0  0  0  0  0  0  0  0
   -3.8670   23.1920  -30.3010 C   0  0  0  0  0  0  0  0  0  0  0  0
   -4.5030   22.6750  -31.5330 C   0  0  0  0  0  0  0  0  0  0  0  0
   -3.7860   22.4600  -32.5460 O   0  0  0  0  0  0  0  0  0  0  0  0
   -5.9550   22.3830  -31.6020 C   0  0  0  0  0  0  0  0  0  0  0  0
   -6.9030   23.4190  -31.5380 C   0  0  0  0  0  0  0  0  0  0  0  0
   -6.5673   24.4619  -31.4401 H   0  0  0  0  0  0  0  0  0  0  0  0
   -8.2690   23.1320  -31.5980 C   0  0  0  0  0  0  0  0  0  0  0  0
   -9.0040   23.9478  -31.5332 H   0  0  0  0  0  0  0  0  0  0  0  0
   -8.7040   21.8130  -31.7400 C   0  0  0  0  0  0  0  0  0  0  0  0
   -9.7809   21.5909  -31.7711 H   0  0  0  0  0  0  0  0  0  0  0  0
   -7.7720   20.7710  -31.8430 C   0  0  0  0  0  0  0  0  0  0  0  0
   -8.2380   19.3500  -31.9610 C   0  0  0  0  0  0  0  0  0  0  0  0
   -8.3773   18.9252  -30.9560 H   0  0  0  0  0  0  0  0  0  0  0  0
   -9.1926   19.3213  -32.5068 H   0  0  0  0  0  0  0  0  0  0  0  0
   -7.4858   18.7616  -32.5068 H   0  0  0  0  0  0  0  0  0  0  0  0
   -6.3990   21.0590  -31.7630 C   0  0  0  0  0  0  0  0  0  0  0  0
   -5.6656   20.2417  -31.8269 H   0  0  0  0  0  0  0  0  0  0  0  0
   -3.7140   24.5100  -29.8980 C   0  0  0  0  0  0  0  0  0  0  0  0
   -4.2370   25.6620  -30.5590 N   0  0  0  0  0  0  0  0  0  0  0  0
   -4.6980   26.4160  -30.0020 H   0  0  0  0  0  0  0  0  0  0  0  0
   -4.2020   25.7570  -31.5960 H   0  0  0  0  0  0  0  0  0  0  0  0
   -3.0240   24.5720  -28.7410 N   0  0  0  0  0  0  0  0  0  0  0  0
   -2.7150   23.3330  -28.3910 N   0  0  0  0  0  0  0  0  0  0  0  0
   -2.1670   23.1030  -27.5330 H   0  0  0  0  0  0  0  0  0  0  0  0
   -3.0480   19.7820  -27.3830 C   0  0  0  0  0  0  0  0  0  0  0  0
   -4.1466   19.8376  -27.3925 H   0  0  0  0  0  0  0  0  0  0  0  0
   -2.3630   18.9800  -26.3250 C   0  0  0  0  0  0  0  0  0  0  0  0
   -2.6719   19.3416  -25.3331 H   0  0  0  0  0  0  0  0  0  0  0  0
   -2.6393   17.9206  -26.4314 H   0  0  0  0  0  0  0  0  0  0  0  0
   -1.2734   19.0872  -26.4314 H   0  0  0  0  0  0  0  0  0  0  0  0
  1  2  1  0
  2  3  1  0
  3  4  2  0
  4  5  1  0
  5  6  1  0
  6  7  2  0
  6  8  1  0
  8  9  2  0
  9 10  1  0
  9 11  1  0
 11 12  1  0
 11 13  2  0
 13 14  1  0
 13 15  1  0
 15 16  1  0
 16 17  1  0
 16 18  1  0
 16 19  1  0
 15 20  2  0
 20 21  1  0
  5 22  2  0
 22 23  1  0
 23 24  1  0
 23 25  1  0
 22 26  1  0
 26 27  1  0
 27 28  1  0
  2 29  2  0
 29 30  1  0
 29 31  1  0
 31 32  1  0
 31 33  1  0
 31 34  1  0
 27  4  1  0
 20  8  1  0
M  CHG  1  26  -1
M  END
>  <UniqueID>  (36) 
35

>  <SMILES>  (36) 
C/C=C/N=c1\[nH][n-]c(N)c1C(=O)c1cccc(C)c1

>  <Energy>  (36) 
67.24029549533068

>  <Genealogy>  (36) 
CC=CN=c1[nH][n-]c(N)c1C(=O)c1cccc(C)c1 (protonated)
C/C=C/N=c1\[nH][n-]c(N)c1C(=O)c1cccc(C)c1 (cis-trans isomerization)
C/C=C/N=c1\[nH][n-]c(N)c1C(=O)c1cccc(C)c1 (3D coordinates assigned)
C/C=C/N=c1\[nH][n-]c(N)c1C(=O)c1cccc(C)c1 (optimized conformer: 67.24029549533068 kcal/mol)

>  <smiles>  (36) 
CC=CN=c1[nH][nH]c(N)c1C(=O)c1cccc(C)c1

>  <score_type>  (36) 
oracle

>  <origin>  (36) 
adgpu

>  <m_score__min__energy>  (36) 
-8.8699999999999992

>  <m_primary>  (36) 
energy

$$$$
36:0
     RDKit          3D

 40 42  0  0  0  0  0  0  0  0999 V2000
   -8.8180   21.2210  -31.9310 C   0  0  0  0  0  0  0  0  0  0  0  0
   -7.3920   21.6860  -31.9090 C   0  0  0  0  0  0  0  0  0  0  0  0
   -6.4090   20.9860  -32.6240 C   0  0  0  0  0  0  0  0  0  0  0  0
   -5.0900   21.4460  -32.6400 C   0  0  0  0  0  0  0  0  0  0  0  0
   -4.7450   22.6140  -31.9560 C   0  0  0  0  0  0  0  0  0  0  0  0
   -5.7210   23.3320  -31.2530 C   0  0  0  0  0  0  0  0  0  0  0  0
   -5.2820   24.8360  -30.4470 S   0  0  0  0  0  0  0  0  0  0  0  0
   -5.8980   24.8460  -29.0780 O   0  0  0  0  0  0  0  0  0  0  0  0
   -5.7850   26.0250  -31.2170 O   0  0  0  0  0  0  0  0  0  0  0  0
   -3.5550   24.9370  -30.3050 N   0  0  0  0  0  0  0  0  0  0  0  0
   -2.7990   24.1890  -29.3350 C   0  0  0  0  0  0  0  0  0  0  0  0
   -3.2040   22.9050  -28.9300 C   0  0  0  0  0  0  0  0  0  0  0  0
   -2.4770   22.1870  -27.9680 C   0  0  0  0  0  0  0  0  0  0  0  0
   -1.3300   22.7720  -27.3840 C   0  0  0  0  0  0  0  0  0  0  0  0
   -0.9060   24.0360  -27.8170 C   0  0  0  0  0  0  0  0  0  0  0  0
   -1.6340   24.7430  -28.7780 C   0  0  0  0  0  0  0  0  0  0  0  0
   -1.1930   26.0030  -29.1680 O   0  0  0  0  0  0  0  0  0  0  0  0
   -0.4830   22.0210  -26.3840 C   0  0  0  0  0  0  0  0  0  0  0  0
   -1.2420   20.8710  -25.7160 C   0  0  0  0  0  0  0  0  0  0  0  0
   -1.9530   20.0200  -26.7670 C   0  0  0  0  0  0  0  0  0  0  0  0
   -3.0090   20.8510  -27.5020 C   0  0  0  0  0  0  0  0  0  0  0  0
   -7.0450   22.8680  -31.2350 C   0  0  0  0  0  0  0  0  0  0  0  0
   -9.1810   21.1026  -30.8994 H   0  0  0  0  0  0  0  0  0  0  0  0
   -9.4378   21.9636  -32.4549 H   0  0  0  0  0  0  0  0  0  0  0  0
   -8.8809   20.2558  -32.4549 H   0  0  0  0  0  0  0  0  0  0  0  0
   -6.6776   20.0719  -33.1739 H   0  0  0  0  0  0  0  0  0  0  0  0
   -4.3209   20.8868  -33.1929 H   0  0  0  0  0  0  0  0  0  0  0  0
   -3.7046   22.9708  -31.9694 H   0  0  0  0  0  0  0  0  0  0  0  0
   -3.0820   25.6790  -30.8670 H   0  0  0  0  0  0  0  0  0  0  0  0
   -4.1048   22.4562  -29.3741 H   0  0  0  0  0  0  0  0  0  0  0  0
    0.0098   24.4763  -27.3958 H   0  0  0  0  0  0  0  0  0  0  0  0
    0.3943   21.6090  -26.9042 H   0  0  0  0  0  0  0  0  0  0  0  0
   -0.1908   22.7301  -25.5954 H   0  0  0  0  0  0  0  0  0  0  0  0
   -0.5309   20.2417  -25.1607 H   0  0  0  0  0  0  0  0  0  0  0  0
   -1.9923   21.2901  -25.0294 H   0  0  0  0  0  0  0  0  0  0  0  0
   -1.2145   19.6486  -27.4927 H   0  0  0  0  0  0  0  0  0  0  0  0
   -2.4488   19.1754  -26.2662 H   0  0  0  0  0  0  0  0  0  0  0  0
   -3.3553   20.2845  -28.3790 H   0  0  0  0  0  0  0  0  0  0  0  0
   -3.8292   21.0472  -26.7957 H   0  0  0  0  0  0  0  0  0  0  0  0
   -7.8154   23.4332  -30.6900 H   0  0  0  0  0  0  0  0  0  0  0  0
  1  2  1  0
  2  3  2  0
  3  4  1  0
  4  5  2  0
  5  6  1  0
  6  7  1  0
  7  8  2  0
  7  9  2  0
  7 10  1  0
 10 11  1  0
 11 12  2  0
 12 13  1  0
 13 14  2  0
 14 15  1  0
 15 16  2  0
 16 17  1  0
 14 18  1  0
 18 19  1  0
 19 20  1  0
 20 21  1  0
  6 22  2  0
 22  2  1  0
 16 11  1  0
 21 13  1  0
  1 23  1  0
  1 24  1  0
  1 25  1  0
  3 26  1  0
  4 27  1  0
  5 28  1  0
 10 29  1  0
 12 30  1  0
 15 31  1  0
 18 32  1  0
 18 33  1  0
 19 34  1  0
 19 35  1  0
 20 36  1  0
 20 37  1  0
 21 38  1  0
 21 39  1  0
 22 40  1  0
M  CHG  1  17  -1
M  END
>  <UniqueID>  (37) 
36

>  <SMILES>  (37) 
Cc1cccc(S(=O)(=O)Nc2cc3c(cc2[O-])CCCC3)c1

>  <Energy>  (37) 
42.70258747909463

>  <Genealogy>  (37) 
Cc1cccc(S(=O)(=O)Nc2cc3c(cc2[O-])CCCC3)c1 (protonated)
Cc1cccc(S(=O)(=O)Nc2cc3c(cc2[O-])CCCC3)c1 (3D coordinates assigned)
Cc1cccc(S(=O)(=O)Nc2cc3c(cc2[O-])CCCC3)c1 (nonaromatic ring conformer: 42.70258747909463 kcal/mol)

>  <smiles>  (37) 
Cc1cccc(S(=O)(=O)Nc2cc3c(cc2O)CCCC3)c1

>  <score_type>  (37) 
oracle

>  <origin>  (37) 
adgpu

>  <m_score__min__energy>  (37) 
-12.65

>  <m_primary>  (37) 
energy

$$$$
37:0
     RDKit          3D

 40 42  0  0  0  0  0  0  0  0999 V2000
   -6.8000   17.7800  -33.4340 C   0  0  0  0  0  0  0  0  0  0  0  0
   -5.4570   18.4310  -33.2740 C   0  0  0  0  0  0  0  0  0  0  0  0
   -4.3190   17.6510  -33.0240 C   0  0  0  0  0  0  0  0  0  0  0  0
   -3.0640   18.2540  -32.9120 C   0  0  0  0  0  0  0  0  0  0  0  0
   -2.9340   19.6380  -33.0580 C   0  0  0  0  0  0  0  0  0  0  0  0
   -4.0640   20.4300  -33.3170 C   0  0  0  0  0  0  0  0  0  0  0  0
   -3.9160   21.9190  -33.4820 C   0  0  0  0  0  0  0  0  0  0  0  0
   -4.1570   22.5900  -32.2450 O   0  0  0  0  0  0  0  0  0  0  0  0
   -5.3800   22.6030  -31.5480 C   0  0  0  0  0  0  0  0  0  0  0  0
   -6.5750   22.1460  -32.1320 C   0  0  0  0  0  0  0  0  0  0  0  0
   -7.7580   22.1490  -31.3850 C   0  0  0  0  0  0  0  0  0  0  0  0
   -9.0370   21.6640  -31.9920 C   0  0  0  0  0  0  0  0  0  0  0  0
   -7.7490   22.6080  -30.1060 N   0  0  0  0  0  0  0  0  0  0  0  0
   -6.6150   23.0660  -29.5170 C   0  0  0  0  0  0  0  0  0  0  0  0
   -5.4030   23.0780  -30.2220 C   0  0  0  0  0  0  0  0  0  0  0  0
   -4.1710   23.5850  -29.5690 C   0  0  0  0  0  0  0  0  0  0  0  0
   -3.5560   22.8360  -28.5530 C   0  0  0  0  0  0  0  0  0  0  0  0
   -2.3910   23.3060  -27.9430 C   0  0  0  0  0  0  0  0  0  0  0  0
   -1.8470   24.5210  -28.3540 C   0  0  0  0  0  0  0  0  0  0  0  0
   -2.4490   25.2400  -29.3370 N   0  0  0  0  0  0  0  0  0  0  0  0
   -3.5850   24.8100  -29.9490 C   0  0  0  0  0  0  0  0  0  0  0  0
   -4.1100   25.5240  -30.8450 O   0  0  0  0  0  0  0  0  0  0  0  0
   -5.3220   19.8190  -33.4400 C   0  0  0  0  0  0  0  0  0  0  0  0
   -7.2275   17.5728  -32.4419 H   0  0  0  0  0  0  0  0  0  0  0  0
   -7.4701   18.4533  -33.9887 H   0  0  0  0  0  0  0  0  0  0  0  0
   -6.6866   16.8369  -33.9887 H   0  0  0  0  0  0  0  0  0  0  0  0
   -4.4148   16.5605  -32.9157 H   0  0  0  0  0  0  0  0  0  0  0  0
   -2.1757   17.6380  -32.7084 H   0  0  0  0  0  0  0  0  0  0  0  0
   -1.9434   20.1081  -32.9697 H   0  0  0  0  0  0  0  0  0  0  0  0
   -2.8947   22.1449  -33.8224 H   0  0  0  0  0  0  0  0  0  0  0  0
   -4.6508   22.2676  -34.2226 H   0  0  0  0  0  0  0  0  0  0  0  0
   -6.5796   21.7876  -33.1720 H   0  0  0  0  0  0  0  0  0  0  0  0
   -9.7437   21.3960  -31.1928 H   0  0  0  0  0  0  0  0  0  0  0  0
   -9.4722   22.4595  -32.6147 H   0  0  0  0  0  0  0  0  0  0  0  0
   -8.8353   20.7799  -32.6147 H   0  0  0  0  0  0  0  0  0  0  0  0
   -6.6471   23.4302  -28.4795 H   0  0  0  0  0  0  0  0  0  0  0  0
   -3.9927   21.8772  -28.2369 H   0  0  0  0  0  0  0  0  0  0  0  0
   -1.9075   22.7225  -27.1457 H   0  0  0  0  0  0  0  0  0  0  0  0
   -0.9283   24.8989  -27.8816 H   0  0  0  0  0  0  0  0  0  0  0  0
   -6.2072   20.4311  -33.6677 H   0  0  0  0  0  0  0  0  0  0  0  0
  1  2  1  0
  2  3  2  0
  3  4  1  0
  4  5  2  0
  5  6  1  0
  6  7  1  0
  7  8  1  0
  8  9  1  0
  9 10  2  0
 10 11  1  0
 11 12  1  0
 11 13  2  0
 13 14  1  0
 14 15  2  0
 15 16  1  0
 16 17  2  0
 17 18  1  0
 18 19  2  0
 19 20  1  0
 20 21  1  0
 21 22  2  0
  6 23  2  0
 23  2  1  0
 15  9  1  0
 21 16  1  0
  1 24  1  0
  1 25  1  0
  1 26  1  0
  3 27  1  0
  4 28  1  0
  5 29  1  0
  7 30  1  0
  7 31  1  0
 10 32  1  0
 12 33  1  0
 12 34  1  0
 12 35  1  0
 14 36  1  0
 17 37  1  0
 18 38  1  0
 19 39  1  0
 23 40  1  0
M  CHG  1  20  -1
M  END
>  <UniqueID>  (38) 
37

>  <SMILES>  (38) 
Cc1cccc(COc2cc(C)ncc2-c2ccc[n-]c2=O)c1

>  <Energy>  (38) 
48.95971706679141

>  <Genealogy>  (38) 
Cc1cccc(COc2cc(C)ncc2-c2ccc[n-]c2=O)c1 (protonated)
Cc1cccc(COc2cc(C)ncc2-c2ccc[n-]c2=O)c1 (3D coordinates assigned)
Cc1cccc(COc2cc(C)ncc2-c2ccc[n-]c2=O)c1 (optimized conformer: 48.95971706679141 kcal/mol)

>  <smiles>  (38) 
Cc1cccc(COc2cc(C)ncc2-c2ccc[nH]c2=O)c1

>  <score_type>  (38) 
oracle

>  <origin>  (38) 
adgpu

>  <m_score__min__energy>  (38) 
-10.130000000000001

>  <m_primary>  (38) 
energy

$$$$
38:0
     RDKit          3D

 41 43  0  0  0  0  0  0  0  0999 V2000
   -4.0540   19.0060  -26.1790 N   0  0  0  0  0  0  0  0  0  0  0  0
   -2.7180   18.9850  -26.6890 C   0  0  0  0  0  0  0  0  0  0  0  0
   -1.9420   18.0610  -26.3250 O   0  0  0  0  0  0  0  0  0  0  0  0
   -2.2260   20.0330  -27.6190 C   0  0  0  0  0  0  0  0  0  0  0  0
   -1.1900   19.7680  -28.5310 C   0  0  0  0  0  0  0  0  0  0  0  0
   -0.7200   20.7720  -29.3800 C   0  0  0  0  0  0  0  0  0  0  0  0
   -1.2810   22.0490  -29.3350 C   0  0  0  0  0  0  0  0  0  0  0  0
   -2.3260   22.3330  -28.4490 C   0  0  0  0  0  0  0  0  0  0  0  0
   -2.8560   23.6650  -28.4200 N   0  0  0  0  0  0  0  0  0  0  0  0
   -2.6300   24.7010  -29.3850 C   0  0  0  0  0  0  0  0  0  0  0  0
   -1.6040   25.4280  -29.3160 O   0  0  0  0  0  0  0  0  0  0  0  0
   -3.5640   24.9240  -30.4470 N   0  0  0  0  0  0  0  0  0  0  0  0
   -4.7550   24.1650  -30.7010 C   0  0  0  0  0  0  0  0  0  0  0  0
   -4.6570   22.7710  -30.7980 C   0  0  0  0  0  0  0  0  0  0  0  0
   -5.7910   21.9990  -31.0680 C   0  0  0  0  0  0  0  0  0  0  0  0
   -7.0300   22.6170  -31.2650 C   0  0  0  0  0  0  0  0  0  0  0  0
   -8.4830   21.6280  -31.6190 S   0  0  0  0  0  0  0  0  0  0  0  0
   -7.5120   20.2680  -32.2700 C   0  0  0  0  0  0  0  0  0  0  0  0
   -7.4690   19.0460  -31.5880 C   0  0  0  0  0  0  0  0  0  0  0  0
   -6.7070   17.9860  -32.0940 C   0  0  0  0  0  0  0  0  0  0  0  0
   -5.9920   18.1470  -33.2840 C   0  0  0  0  0  0  0  0  0  0  0  0
   -6.0370   19.3650  -33.9700 C   0  0  0  0  0  0  0  0  0  0  0  0
   -6.7980   20.4240  -33.4660 C   0  0  0  0  0  0  0  0  0  0  0  0
   -7.1310   24.0100  -31.1930 C   0  0  0  0  0  0  0  0  0  0  0  0
   -5.9980   24.7840  -30.9230 C   0  0  0  0  0  0  0  0  0  0  0  0
   -2.7790   21.3280  -27.5740 C   0  0  0  0  0  0  0  0  0  0  0  0
   -4.3910   18.2250  -25.5740 H   0  0  0  0  0  0  0  0  0  0  0  0
   -4.6840   19.8260  -26.3190 H   0  0  0  0  0  0  0  0  0  0  0  0
   -0.7463   18.7625  -28.5763 H   0  0  0  0  0  0  0  0  0  0  0  0
    0.0949   20.5557  -30.0865 H   0  0  0  0  0  0  0  0  0  0  0  0
   -0.8992   22.8374  -30.0004 H   0  0  0  0  0  0  0  0  0  0  0  0
   -3.6819   22.2807  -30.6609 H   0  0  0  0  0  0  0  0  0  0  0  0
   -5.7085   20.9036  -31.1256 H   0  0  0  0  0  0  0  0  0  0  0  0
   -8.0347   18.9185  -30.6533 H   0  0  0  0  0  0  0  0  0  0  0  0
   -6.6711   17.0275  -31.5555 H   0  0  0  0  0  0  0  0  0  0  0  0
   -5.3930   17.3145  -33.6817 H   0  0  0  0  0  0  0  0  0  0  0  0
   -5.4734   19.4898  -34.9064 H   0  0  0  0  0  0  0  0  0  0  0  0
   -6.8364   21.3802  -34.0084 H   0  0  0  0  0  0  0  0  0  0  0  0
   -8.1043   24.4982  -31.3492 H   0  0  0  0  0  0  0  0  0  0  0  0
   -6.0794   25.8803  -30.8842 H   0  0  0  0  0  0  0  0  0  0  0  0
   -3.5729   21.5560  -26.8476 H   0  0  0  0  0  0  0  0  0  0  0  0
  1  2  1  0
  2  3  2  0
  2  4  1  0
  4  5  2  0
  5  6  1  0
  6  7  2  0
  7  8  1  0
  8  9  1  0
  9 10  1  0
 10 11  2  0
 10 12  1  0
 12 13  1  0
 13 14  2  0
 14 15  1  0
 15 16  2  0
 16 17  1  0
 17 18  1  0
 18 19  2  0
 19 20  1  0
 20 21  2  0
 21 22  1  0
 22 23  2  0
 16 24  1  0
 24 25  2  0
  8 26  2  0
 26  4  1  0
 25 13  1  0
 23 18  1  0
  1 27  1  0
  1 28  1  0
  5 29  1  0
  6 30  1  0
  7 31  1  0
 14 32  1  0
 15 33  1  0
 19 34  1  0
 20 35  1  0
 21 36  1  0
 22 37  1  0
 23 38  1  0
 24 39  1  0
 25 40  1  0
 26 41  1  0
M  CHG  2   9  -1  12  -1
M  END
>  <UniqueID>  (39) 
38

>  <SMILES>  (39) 
NC(=O)c1cccc([N-]C(=O)[N-]c2ccc(Sc3ccccc3)cc2)c1

>  <Energy>  (39) 
47.46543799273436

>  <Genealogy>  (39) 
NC(=O)c1cccc([N-]C(=O)[N-]c2ccc(Sc3ccccc3)cc2)c1 (protonated)
NC(=O)c1cccc([N-]C(=O)[N-]c2ccc(Sc3ccccc3)cc2)c1 (3D coordinates assigned)
NC(=O)c1cccc([N-]C(=O)[N-]c2ccc(Sc3ccccc3)cc2)c1 (optimized conformer: 47.46543799273436 kcal/mol)

>  <smiles>  (39) 
NC(=O)c1cccc(NC(=O)Nc2ccc(Sc3ccccc3)cc2)c1

>  <score_type>  (39) 
oracle

>  <origin>  (39) 
adgpu

>  <m_score__min__energy>  (39) 
-12.91

>  <m_primary>  (39) 
energy

$$$$
39:0
     RDKit          3D

 35 36  0  0  0  0  0  0  0  0999 V2000
   -3.1280   23.9010  -29.6180 C   0  0  0  0  0  0  0  0  0  0  0  0
   -1.3530   23.7970  -29.2360 S   0  0  0  0  0  0  0  0  0  0  0  0
   -1.5760   22.5090  -28.0070 C   0  0  0  0  0  0  0  0  0  0  0  0
   -1.9110   20.9060  -28.3750 S   0  0  0  0  0  0  0  0  0  0  0  0
   -1.8620   20.3320  -26.7890 C   0  0  0  0  0  0  0  0  0  0  0  0
   -2.0810   18.9240  -26.3730 C   0  0  0  0  0  0  0  0  0  0  0  0
   -1.1340   17.9090  -26.7280 N   0  0  0  0  0  0  0  0  0  0  0  0
   -3.1370   18.5950  -25.6890 N   0  0  0  0  0  0  0  0  0  0  0  0
   -1.5730   21.4080  -25.9490 C   0  0  0  0  0  0  0  0  0  0  0  0
   -1.4220   22.6290  -26.6260 C   0  0  0  0  0  0  0  0  0  0  0  0
   -1.0900   23.8900  -25.9320 C   0  0  0  0  0  0  0  0  0  0  0  0
   -1.9540   24.9890  -26.0370 C   0  0  0  0  0  0  0  0  0  0  0  0
   -1.6600   26.1870  -25.3810 C   0  0  0  0  0  0  0  0  0  0  0  0
   -0.4860   26.3120  -24.6180 C   0  0  0  0  0  0  0  0  0  0  0  0
   -0.1680   27.5800  -23.9140 C   0  0  0  0  0  0  0  0  0  0  0  0
   -0.5210   28.8340  -24.5100 N   0  0  0  0  0  0  0  0  0  0  0  0
    0.4230   27.5660  -22.7560 N   0  0  0  0  0  0  0  0  0  0  0  0
    0.3860   25.2150  -24.5260 C   0  0  0  0  0  0  0  0  0  0  0  0
    0.0920   24.0140  -25.1810 C   0  0  0  0  0  0  0  0  0  0  0  0
    0.9820   22.9910  -25.1150 F   0  0  0  0  0  0  0  0  0  0  0  0
   -3.7033   23.9347  -28.6811 H   0  0  0  0  0  0  0  0  0  0  0  0
   -3.3246   24.8122  -30.2020 H   0  0  0  0  0  0  0  0  0  0  0  0
   -3.4297   23.0190  -30.2020 H   0  0  0  0  0  0  0  0  0  0  0  0
   -0.3190   18.1100  -27.3480 H   0  0  0  0  0  0  0  0  0  0  0  0
   -1.2640   16.9250  -26.4050 H   0  0  0  0  0  0  0  0  0  0  0  0
   -3.8520   19.2990  -25.4000 H   0  0  0  0  0  0  0  0  0  0  0  0
   -3.2970   17.6050  -25.3980 H   0  0  0  0  0  0  0  0  0  0  0  0
   -1.4728   21.3090  -24.8581 H   0  0  0  0  0  0  0  0  0  0  0  0
   -2.8702   24.9075  -26.6403 H   0  0  0  0  0  0  0  0  0  0  0  0
   -2.3519   27.0383  -25.4621 H   0  0  0  0  0  0  0  0  0  0  0  0
   -0.9150   28.8810  -25.4760 H   0  0  0  0  0  0  0  0  0  0  0  0
   -0.3440   29.7330  -24.0080 H   0  0  0  0  0  0  0  0  0  0  0  0
    0.6640   26.6730  -22.2720 H   0  0  0  0  0  0  0  0  0  0  0  0
    0.6500   28.4580  -22.2620 H   0  0  0  0  0  0  0  0  0  0  0  0
    1.3088   25.3007  -23.9335 H   0  0  0  0  0  0  0  0  0  0  0  0
  1  2  1  0
  2  3  1  0
  3  4  1  0
  4  5  1  0
  5  6  1  0
  6  7  1  0
  6  8  2  0
  5  9  2  0
  9 10  1  0
 10 11  1  0
 11 12  2  0
 12 13  1  0
 13 14  2  0
 14 15  1  0
 15 16  1  0
 15 17  2  0
 14 18  1  0
 18 19  2  0
 19 20  1  0
 10  3  2  0
 19 11  1  0
  1 21  1  0
  1 22  1  0
  1 23  1  0
  7 24  1  0
  7 25  1  0
  8 26  1  0
  8 27  1  0
  9 28  1  0
 12 29  1  0
 13 30  1  0
 16 31  1  0
 16 32  1  0
 17 33  1  0
 17 34  1  0
 18 35  1  0
M  CHG  2   8   1  17   1
M  END
>  <UniqueID>  (40) 
39

>  <SMILES>  (40) 
CSc1sc(C(N)=[NH2+])cc1-c1ccc(C(N)=[NH2+])cc1F

>  <Energy>  (40) 
64.8328628920436

>  <Genealogy>  (40) 
CSc1sc(C(N)=[NH2+])cc1-c1ccc(C(N)=[NH2+])cc1F (protonated)
CSc1sc(C(N)=[NH2+])cc1-c1ccc(C(N)=[NH2+])cc1F (3D coordinates assigned)
CSc1sc(C(N)=[NH2+])cc1-c1ccc(C(N)=[NH2+])cc1F (optimized conformer: 64.8328628920436 kcal/mol)

>  <smiles>  (40) 
CSc1sc(C(=N)N)cc1-c1ccc(C(=N)N)cc1F

>  <score_type>  (40) 
oracle

>  <origin>  (40) 
adgpu

>  <m_score__min__energy>  (40) 
-6.9000000000000004

>  <m_primary>  (40) 
energy

$$$$
40:0
     RDKit          3D

 55 58  0  0  0  0  0  0  0  0999 V2000
   -1.6210   26.0070  -29.3730 H   0  0  0  0  0  0  0  0  0  0  0  0
   -1.8950   25.6400  -28.4350 N   0  0  0  0  0  0  0  0  0  0  0  0
   -3.0640   24.8390  -28.2760 C   0  0  0  0  0  0  0  0  0  0  0  0
   -3.4880   24.5810  -27.1170 O   0  0  0  0  0  0  0  0  0  0  0  0
   -3.8080   24.3700  -29.4630 C   0  0  0  0  0  0  0  0  0  0  0  0
   -4.6490   25.3020  -30.0960 C   0  0  0  0  0  0  0  0  0  0  0  0
   -4.5757   26.3670  -29.8307 H   0  0  0  0  0  0  0  0  0  0  0  0
   -5.5500   24.9050  -31.0300 N   0  0  0  0  0  0  0  0  0  0  0  0
   -5.6770   23.6040  -31.3900 C   0  0  0  0  0  0  0  0  0  0  0  0
   -6.6220   23.2230  -32.3430 C   0  0  0  0  0  0  0  0  0  0  0  0
   -7.2795   23.9778  -32.7991 H   0  0  0  0  0  0  0  0  0  0  0  0
   -6.7320   21.8820  -32.7170 C   0  0  0  0  0  0  0  0  0  0  0  0
   -7.4743   21.5772  -33.4694 H   0  0  0  0  0  0  0  0  0  0  0  0
   -5.8890   20.9230  -32.1270 C   0  0  0  0  0  0  0  0  0  0  0  0
   -5.9560   19.4850  -32.4980 C   0  0  0  0  0  0  0  0  0  0  0  0
   -6.6060   18.5460  -31.6810 C   0  0  0  0  0  0  0  0  0  0  0  0
   -7.0935   18.8766  -30.7520 H   0  0  0  0  0  0  0  0  0  0  0  0
   -6.6390   17.1980  -32.0370 C   0  0  0  0  0  0  0  0  0  0  0  0
   -7.1604   16.4780  -31.3892 H   0  0  0  0  0  0  0  0  0  0  0  0
   -6.0150   16.7480  -33.2120 C   0  0  0  0  0  0  0  0  0  0  0  0
   -6.0820   15.2840  -33.5590 C   0  0  0  0  0  0  0  0  0  0  0  0
   -6.1092   14.6889  -32.6343 H   0  0  0  0  0  0  0  0  0  0  0  0
   -6.9901   15.0880  -34.1481 H   0  0  0  0  0  0  0  0  0  0  0  0
   -5.1956   15.0059  -34.1481 H   0  0  0  0  0  0  0  0  0  0  0  0
   -5.3660   17.6860  -34.0530 C   0  0  0  0  0  0  0  0  0  0  0  0
   -4.6450   17.2740  -35.3200 C   0  0  0  0  0  0  0  0  0  0  0  0
   -4.4507   18.1665  -35.9329 H   0  0  0  0  0  0  0  0  0  0  0  0
   -5.2763   16.5643  -35.8748 H   0  0  0  0  0  0  0  0  0  0  0  0
   -3.3650   16.6210  -34.9940 N   0  0  0  0  0  0  0  0  0  0  0  0
   -3.5160   15.5960  -34.8430 H   0  0  0  0  0  0  0  0  0  0  0  0
   -2.7120   16.7340  -35.8050 H   0  0  0  0  0  0  0  0  0  0  0  0
   -2.7210   17.2150  -33.8090 C   0  0  0  0  0  0  0  0  0  0  0  0
   -1.9951   16.4949  -33.4034 H   0  0  0  0  0  0  0  0  0  0  0  0
   -3.5108   17.4463  -33.0791 H   0  0  0  0  0  0  0  0  0  0  0  0
   -1.9890   18.5210  -34.1340 C   0  0  0  0  0  0  0  0  0  0  0  0
   -1.7062   19.0255  -33.1983 H   0  0  0  0  0  0  0  0  0  0  0  0
   -1.0841   18.2985  -34.7185 H   0  0  0  0  0  0  0  0  0  0  0  0
   -2.6511   19.1767  -34.7185 H   0  0  0  0  0  0  0  0  0  0  0  0
   -5.3300   19.0390  -33.6750 C   0  0  0  0  0  0  0  0  0  0  0  0
   -4.8017   19.7632  -34.3125 H   0  0  0  0  0  0  0  0  0  0  0  0
   -4.9680   21.3290  -31.2090 N   0  0  0  0  0  0  0  0  0  0  0  0
   -4.8410   22.6280  -30.8170 C   0  0  0  0  0  0  0  0  0  0  0  0
   -3.8540   23.0060  -29.8890 C   0  0  0  0  0  0  0  0  0  0  0  0
   -3.0150   22.0810  -29.4950 N   0  0  0  0  0  0  0  0  0  0  0  0
   -1.7690   22.2100  -28.7960 C   0  0  0  0  0  0  0  0  0  0  0  0
   -1.5640   21.5770  -27.5590 C   0  0  0  0  0  0  0  0  0  0  0  0
   -2.3482   20.9313  -27.1370 H   0  0  0  0  0  0  0  0  0  0  0  0
   -0.3660   21.7650  -26.8620 C   0  0  0  0  0  0  0  0  0  0  0  0
   -0.1991   21.2476  -25.9057 H   0  0  0  0  0  0  0  0  0  0  0  0
    0.6200   22.6110  -27.3810 C   0  0  0  0  0  0  0  0  0  0  0  0
    1.7790   22.7950  -26.7040 F   0  0  0  0  0  0  0  0  0  0  0  0
    0.4030   23.2740  -28.5930 C   0  0  0  0  0  0  0  0  0  0  0  0
    1.1752   23.9448  -28.9977 H   0  0  0  0  0  0  0  0  0  0  0  0
   -0.7930   23.0860  -29.2910 C   0  0  0  0  0  0  0  0  0  0  0  0
   -0.9692   23.6274  -30.2322 H   0  0  0  0  0  0  0  0  0  0  0  0
  1  2  1  0
  2  3  1  0
  3  4  2  0
  3  5  1  0
  5  6  2  0
  6  7  1  0
  6  8  1  0
  8  9  1  0
  9 10  2  0
 10 11  1  0
 10 12  1  0
 12 13  1  0
 12 14  2  0
 14 15  1  0
 15 16  2  0
 16 17  1  0
 16 18  1  0
 18 19  1  0
 18 20  2  0
 20 21  1  0
 21 22  1  0
 21 23  1  0
 21 24  1  0
 20 25  1  0
 25 26  1  0
 26 27  1  0
 26 28  1  0
 26 29  1  0
 29 30  1  0
 29 31  1  0
 29 32  1  0
 32 33  1  0
 32 34  1  0
 32 35  1  0
 35 36  1  0
 35 37  1  0
 35 38  1  0
 25 39  2  0
 39 40  1  0
 14 41  1  0
 41 42  2  0
 42 43  1  0
 43 44  2  0
 44 45  1  0
 45 46  2  0
 46 47  1  0
 46 48  1  0
 48 49  1  0
 48 50  2  0
 50 51  1  0
 50 52  1  0
 52 53  1  0
 52 54  2  0
 54 55  1  0
 43  5  1  0
 54 45  1  0
 42  9  1  0
 39 15  1  0
M  CHG  3   2  -1   8  -1  29   1
M  END
>  <UniqueID>  (41) 
40

>  <SMILES>  (41) 
CC[NH2+]Cc1cc(-c2ccc3[n-]cc(C([NH-])=O)/c(=N\c4ccc(F)cc4)c3n2)ccc1C

>  <Energy>  (41) 
86.21804284149002

>  <Genealogy>  (41) 
CC[NH2+]Cc1cc(-c2ccc3[n-]cc(C([NH-])=O)c(=Nc4ccc(F)cc4)c3n2)ccc1C (protonated)
CC[NH2+]Cc1cc(-c2ccc3[n-]cc(C([NH-])=O)/c(=N\c4ccc(F)cc4)c3n2)ccc1C (cis-trans isomerization)
CC[NH2+]Cc1cc(-c2ccc3[n-]cc(C([NH-])=O)/c(=N\c4ccc(F)cc4)c3n2)ccc1C (3D coordinates assigned)
CC[NH2+]Cc1cc(-c2ccc3[n-]cc(C([NH-])=O)/c(=N\c4ccc(F)cc4)c3n2)ccc1C (optimized conformer: 86.21804284149002 kcal/mol)

>  <smiles>  (41) 
CCNCc1cc(-c2ccc3[nH]cc(C(N)=O)c(=Nc4ccc(F)cc4)c3n2)ccc1C

>  <score_type>  (41) 
oracle

>  <origin>  (41) 
adgpu

>  <m_score__min__energy>  (41) 
-11.15

>  <m_primary>  (41) 
energy

$$$$
41:0
     RDKit          3D

 40 41  0  0  0  0  0  0  0  0999 V2000
   -3.9780   17.5460  -33.5020 C   0  0  0  0  0  0  0  0  0  0  0  0
   -5.0950   18.3370  -34.1140 C   0  0  0  0  0  0  0  0  0  0  0  0
   -5.4180   18.0910  -35.3080 O   0  0  0  0  0  0  0  0  0  0  0  0
   -5.8200   19.3910  -33.3530 C   0  0  0  0  0  0  0  0  0  0  0  0
   -7.2010   19.2890  -33.1010 C   0  0  0  0  0  0  0  0  0  0  0  0
   -7.8670   20.2900  -32.3910 C   0  0  0  0  0  0  0  0  0  0  0  0
   -7.1740   21.4100  -31.9170 C   0  0  0  0  0  0  0  0  0  0  0  0
   -7.8950   22.4260  -31.2060 N   0  0  0  0  0  0  0  0  0  0  0  0
   -7.5930   22.6500  -29.7930 C   0  0  0  0  0  0  0  0  0  0  0  0
   -8.6460   23.4290  -31.9580 C   0  0  0  0  0  0  0  0  0  0  0  0
   -5.7870   21.5210  -32.1460 C   0  0  0  0  0  0  0  0  0  0  0  0
   -4.8540   22.9000  -31.5500 S   0  0  0  0  0  0  0  0  0  0  0  0
   -5.5320   24.1850  -31.9360 O   0  0  0  0  0  0  0  0  0  0  0  0
   -3.4720   22.8470  -32.1360 O   0  0  0  0  0  0  0  0  0  0  0  0
   -4.7560   22.8210  -29.8200 N   0  0  0  0  0  0  0  0  0  0  0  0
   -3.6610   23.2950  -29.0240 C   0  0  0  0  0  0  0  0  0  0  0  0
   -3.1790   22.5620  -27.9220 C   0  0  0  0  0  0  0  0  0  0  0  0
   -2.1090   23.0470  -27.1660 C   0  0  0  0  0  0  0  0  0  0  0  0
   -1.5100   24.2640  -27.4970 C   0  0  0  0  0  0  0  0  0  0  0  0
   -1.9790   24.9990  -28.5880 C   0  0  0  0  0  0  0  0  0  0  0  0
   -3.0510   24.5220  -29.3540 C   0  0  0  0  0  0  0  0  0  0  0  0
   -3.4920   25.2850  -30.4360 O   0  0  0  0  0  0  0  0  0  0  0  0
   -5.1260   20.5160  -32.8700 C   0  0  0  0  0  0  0  0  0  0  0  0
   -4.0503   17.5972  -32.4056 H   0  0  0  0  0  0  0  0  0  0  0  0
   -4.0511   16.4973  -33.8257 H   0  0  0  0  0  0  0  0  0  0  0  0
   -3.0130   17.9632  -33.8257 H   0  0  0  0  0  0  0  0  0  0  0  0
   -7.7596   18.4145  -33.4660 H   0  0  0  0  0  0  0  0  0  0  0  0
   -8.9467   20.1975  -32.2023 H   0  0  0  0  0  0  0  0  0  0  0  0
   -8.3222   22.1091  -29.1720 H   0  0  0  0  0  0  0  0  0  0  0  0
   -6.5797   22.2833  -29.5720 H   0  0  0  0  0  0  0  0  0  0  0  0
   -7.6498   23.7261  -29.5720 H   0  0  0  0  0  0  0  0  0  0  0  0
   -9.1543   24.1079  -31.2574 H   0  0  0  0  0  0  0  0  0  0  0  0
   -7.9556   24.0054  -32.5913 H   0  0  0  0  0  0  0  0  0  0  0  0
   -9.3934   22.9288  -32.5913 H   0  0  0  0  0  0  0  0  0  0  0  0
   -3.6473   21.6031  -27.6554 H   0  0  0  0  0  0  0  0  0  0  0  0
   -1.7373   22.4684  -26.3075 H   0  0  0  0  0  0  0  0  0  0  0  0
   -0.6688   24.6438  -26.8986 H   0  0  0  0  0  0  0  0  0  0  0  0
   -1.5046   25.9570  -28.8472 H   0  0  0  0  0  0  0  0  0  0  0  0
   -3.5700   24.9050  -31.3720 H   0  0  0  0  0  0  0  0  0  0  0  0
   -4.0471   20.6095  -33.0630 H   0  0  0  0  0  0  0  0  0  0  0  0
  1  2  1  0
  2  3  2  0
  2  4  1  0
  4  5  2  0
  5  6  1  0
  6  7  2  0
  7  8  1  0
  8  9  1  0
  8 10  1  0
  7 11  1  0
 11 12  1  0
 12 13  2  0
 12 14  2  0
 12 15  1  0
 15 16  1  0
 16 17  2  0
 17 18  1  0
 18 19  2  0
 19 20  1  0
 20 21  2  0
 21 22  1  0
 11 23  2  0
 23  4  1  0
 21 16  1  0
  1 24  1  0
  1 25  1  0
  1 26  1  0
  5 27  1  0
  6 28  1  0
  9 29  1  0
  9 30  1  0
  9 31  1  0
 10 32  1  0
 10 33  1  0
 10 34  1  0
 17 35  1  0
 18 36  1  0
 19 37  1  0
 20 38  1  0
 22 39  1  0
 23 40  1  0
M  CHG  1  15  -1
M  END
>  <UniqueID>  (42) 
41

>  <SMILES>  (42) 
CC(=O)c1ccc(N(C)C)c(S(=O)(=O)[N-]c2ccccc2O)c1

>  <Energy>  (42) 
49.61928466394744

>  <Genealogy>  (42) 
CC(=O)c1ccc(N(C)C)c(S(=O)(=O)[N-]c2ccccc2O)c1 (protonated)
CC(=O)c1ccc(N(C)C)c(S(=O)(=O)[N-]c2ccccc2O)c1 (3D coordinates assigned)
CC(=O)c1ccc(N(C)C)c(S(=O)(=O)[N-]c2ccccc2O)c1 (optimized conformer: 49.61928466394744 kcal/mol)

>  <smiles>  (42) 
CC(=O)c1ccc(N(C)C)c(S(=O)(=O)Nc2ccccc2O)c1

>  <score_type>  (42) 
oracle

>  <origin>  (42) 
adgpu

>  <m_score__min__energy>  (42) 
-9.7899999999999991

>  <m_primary>  (42) 
energy

$$$$
42:0
     RDKit          3D

 47 49  0  0  1  0  0  0  0  0999 V2000
   -3.0080   20.6940  -27.5100 C   0  0  0  0  0  0  0  0  0  0  0  0
   -3.9000   21.8020  -27.4610 O   0  0  0  0  0  0  0  0  0  0  0  0
   -3.6480   22.8480  -28.3400 C   0  0  0  0  0  0  0  0  0  0  0  0
   -4.5240   23.1010  -29.3740 C   0  0  0  0  0  0  0  0  0  0  0  0
   -4.3430   24.1120  -30.2780 C   0  0  0  0  0  0  0  0  0  0  0  0
   -5.1810   24.3170  -31.2270 N   0  0  0  0  0  0  0  0  0  0  0  0
   -6.5800   23.3890  -31.4720 S   0  0  0  0  0  0  0  0  0  0  0  0
   -7.6000   23.4100  -30.4160 O   0  0  0  0  0  0  0  0  0  0  0  0
   -7.2700   24.0450  -32.6770 O   0  0  0  0  0  0  0  0  0  0  0  0
   -6.1260   21.8020  -32.0370 C   0  0  0  0  0  0  0  0  0  0  0  0
   -7.0320   20.9850  -32.7280 C   0  0  0  0  0  0  0  0  0  0  0  0
   -6.7050   19.7440  -33.1760 C   0  0  0  0  0  0  0  0  0  0  0  0
   -5.4480   19.2180  -32.9710 C   0  0  0  0  0  0  0  0  0  0  0  0
   -5.1690   17.9140  -33.4660 N   0  0  0  0  0  0  0  0  0  0  0  0
   -5.5750   16.8030  -32.6790 C   0  0  0  0  0  0  0  0  0  0  0  0
   -6.1550   17.0320  -31.5940 O   0  0  0  0  0  0  0  0  0  0  0  0
   -5.3490   15.4240  -33.0700 C   0  0  0  0  0  0  0  0  0  0  0  0
   -6.0930   14.9160  -34.1110 C   0  0  0  0  0  0  0  0  0  0  0  0
   -5.9620   13.6170  -34.5670 C   0  0  0  0  0  0  0  0  0  0  0  0
   -5.0370   12.8090  -33.9380 C   0  0  0  0  0  0  0  0  0  0  0  0
   -4.2950   13.3010  -32.9090 C   0  0  0  0  0  0  0  0  0  0  0  0
   -3.0020   12.1940  -32.0200 Br  0  0  0  0  0  0  0  0  0  0  0  0
   -4.4380   14.6000  -32.4640 C   0  0  0  0  0  0  0  0  0  0  0  0
   -4.5300   19.9900  -32.2990 C   0  0  0  0  0  0  0  0  0  0  0  0
   -4.8760   21.2560  -31.8460 C   0  0  0  0  0  0  0  0  0  0  0  0
   -3.2450   24.8880  -30.1340 N   0  0  0  0  0  0  0  0  0  0  0  0
   -2.3690   24.6570  -29.1250 C   0  0  0  0  0  0  0  0  0  0  0  0
   -1.2570   25.4620  -28.9990 O   0  0  0  0  0  0  0  0  0  0  0  0
   -0.7660   25.7300  -27.6900 C   0  0  0  0  0  0  0  0  0  0  0  0
   -2.5690   23.6490  -28.2400 N   0  0  0  0  0  0  0  0  0  0  0  0
   -2.7558   20.3807  -26.4861 H   0  0  0  0  0  0  0  0  0  0  0  0
   -3.4890   19.8592  -28.0409 H   0  0  0  0  0  0  0  0  0  0  0  0
   -2.0898   20.9857  -28.0409 H   0  0  0  0  0  0  0  0  0  0  0  0
   -5.4113   22.4591  -29.4773 H   0  0  0  0  0  0  0  0  0  0  0  0
   -8.0478   21.3633  -32.9150 H   0  0  0  0  0  0  0  0  0  0  0  0
   -7.4582   19.1483  -33.7124 H   0  0  0  0  0  0  0  0  0  0  0  0
   -4.6820   17.7500  -34.3760 H   0  0  0  0  0  0  0  0  0  0  0  0
   -6.8252   15.5734  -34.6026 H   0  0  0  0  0  0  0  0  0  0  0  0
   -6.5731   13.2414  -35.4010 H   0  0  0  0  0  0  0  0  0  0  0  0
   -4.8997   11.7687  -34.2680 H   0  0  0  0  0  0  0  0  0  0  0  0
   -3.8250   14.9705  -31.6291 H   0  0  0  0  0  0  0  0  0  0  0  0
   -3.5162   19.6027  -32.1193 H   0  0  0  0  0  0  0  0  0  0  0  0
   -4.1190   21.8486  -31.3114 H   0  0  0  0  0  0  0  0  0  0  0  0
   -3.0860   25.6790  -30.8260 H   0  0  0  0  0  0  0  0  0  0  0  0
   -1.4766   25.3421  -26.9453 H   0  0  0  0  0  0  0  0  0  0  0  0
    0.2093   25.2391  -27.5566 H   0  0  0  0  0  0  0  0  0  0  0  0
   -0.6513   26.8158  -27.5566 H   0  0  0  0  0  0  0  0  0  0  0  0
  1  2  1  0
  2  3  1  0
  3  4  2  0
  4  5  1  0
  5  6  2  0
  6  7  1  0
  7  8  2  0
  7  9  2  0
  7 10  1  0
 10 11  2  0
 11 12  1  0
 12 13  2  0
 13 14  1  0
 14 15  1  0
 15 16  2  0
 15 17  1  0
 17 18  2  0
 18 19  1  0
 19 20  2  0
 20 21  1  0
 21 22  1  0
 21 23  2  0
 13 24  1  0
 24 25  2  0
  5 26  1  0
 26 27  1  0
 27 28  1  0
 28 29  1  0
 27 30  2  0
 30  3  1  0
 25 10  1  0
 23 17  1  0
  1 31  1  0
  1 32  1  0
  1 33  1  0
  4 34  1  0
 11 35  1  0
 12 36  1  0
 14 37  1  0
 18 38  1  0
 19 39  1  0
 20 40  1  0
 23 41  1  0
 24 42  1  0
 25 43  1  0
 26 44  1  0
 29 45  1  0
 29 46  1  0
 29 47  1  0
M  END
>  <smiles>  (43) 
COc1cc(=NS(=O)(=O)c2ccc(NC(=O)c3cccc(Br)c3)cc2)[nH]c(OC)n1

>  <score_type>  (43) 
oracle

>  <origin>  (43) 
adgpu

>  <m_score__min__energy>  (43) 
-8.8699999999999992

>  <m_primary>  (43) 
energy

$$$$
43:0
     RDKit          3D

 69 72  0  0  0  0  0  0  0  0999 V2000
   -3.9560   19.7440  -32.4290 C   0  0  0  0  0  0  0  0  0  0  0  0
   -3.3970   19.5240  -33.8290 C   0  0  0  0  0  0  0  0  0  0  0  0
   -2.0960   18.8330  -33.7690 N   0  0  0  0  0  0  0  0  0  0  0  0
   -1.7940   17.7570  -34.7240 C   0  0  0  0  0  0  0  0  0  0  0  0
   -3.0300   16.9010  -34.9950 C   0  0  0  0  0  0  0  0  0  0  0  0
   -1.1660   19.1180  -32.7040 C   0  0  0  0  0  0  0  0  0  0  0  0
   -0.6960   18.0790  -31.8850 C   0  0  0  0  0  0  0  0  0  0  0  0
    0.1210   18.3530  -30.7870 C   0  0  0  0  0  0  0  0  0  0  0  0
    0.4500   19.6810  -30.4740 C   0  0  0  0  0  0  0  0  0  0  0  0
    1.1470   20.0190  -29.2670 N   0  0  0  0  0  0  0  0  0  0  0  0
    0.6340   20.8650  -28.2340 C   0  0  0  0  0  0  0  0  0  0  0  0
    1.4350   21.3440  -27.3880 O   0  0  0  0  0  0  0  0  0  0  0  0
   -0.8170   21.1310  -28.1070 C   0  0  0  0  0  0  0  0  0  0  0  0
   -1.3020   22.4420  -28.2640 C   0  0  0  0  0  0  0  0  0  0  0  0
   -2.6510   22.7360  -28.0400 C   0  0  0  0  0  0  0  0  0  0  0  0
   -3.1630   24.0580  -28.2540 N   0  0  0  0  0  0  0  0  0  0  0  0
   -2.7550   24.9100  -29.3340 C   0  0  0  0  0  0  0  0  0  0  0  0
   -1.5970   25.3950  -29.3310 O   0  0  0  0  0  0  0  0  0  0  0  0
   -3.6500   25.2520  -30.4020 N   0  0  0  0  0  0  0  0  0  0  0  0
   -4.7590   24.4580  -30.8390 C   0  0  0  0  0  0  0  0  0  0  0  0
   -6.0680   24.8970  -30.5830 C   0  0  0  0  0  0  0  0  0  0  0  0
   -7.1610   24.1220  -30.9750 C   0  0  0  0  0  0  0  0  0  0  0  0
   -6.9630   22.9150  -31.6630 C   0  0  0  0  0  0  0  0  0  0  0  0
   -8.0790   22.1540  -32.0590 O   0  0  0  0  0  0  0  0  0  0  0  0
   -8.0570   20.7550  -32.1220 C   0  0  0  0  0  0  0  0  0  0  0  0
   -8.8200   20.0030  -31.2210 C   0  0  0  0  0  0  0  0  0  0  0  0
   -8.7230   18.6100  -31.2410 C   0  0  0  0  0  0  0  0  0  0  0  0
   -7.9160   17.9960  -32.1480 N   0  0  0  0  0  0  0  0  0  0  0  0
   -7.1980   18.6950  -33.0720 C   0  0  0  0  0  0  0  0  0  0  0  0
   -6.3490   17.9610  -34.0310 C   0  0  0  0  0  0  0  0  0  0  0  0
   -5.9780   18.5090  -35.1050 O   0  0  0  0  0  0  0  0  0  0  0  0
   -5.9520   16.6190  -33.7340 N   0  0  0  0  0  0  0  0  0  0  0  0
   -5.2940   16.2340  -32.4970 C   0  0  0  0  0  0  0  0  0  0  0  0
   -7.2610   20.0980  -33.0760 C   0  0  0  0  0  0  0  0  0  0  0  0
   -5.6550   22.4640  -31.9020 C   0  0  0  0  0  0  0  0  0  0  0  0
   -4.5660   23.2140  -31.4670 C   0  0  0  0  0  0  0  0  0  0  0  0
   -3.5220   21.7170  -27.6400 C   0  0  0  0  0  0  0  0  0  0  0  0
   -3.0640   20.4050  -27.5190 C   0  0  0  0  0  0  0  0  0  0  0  0
   -1.7220   20.1040  -27.7610 C   0  0  0  0  0  0  0  0  0  0  0  0
   -1.3000   18.8270  -27.5830 F   0  0  0  0  0  0  0  0  0  0  0  0
   -0.0070   20.7160  -31.2960 C   0  0  0  0  0  0  0  0  0  0  0  0
   -0.8030   20.4400  -32.4070 C   0  0  0  0  0  0  0  0  0  0  0  0
   -3.2037   19.4479  -31.6831 H   0  0  0  0  0  0  0  0  0  0  0  0
   -4.2050   20.8072  -32.2965 H   0  0  0  0  0  0  0  0  0  0  0  0
   -4.8629   19.1357  -32.2965 H   0  0  0  0  0  0  0  0  0  0  0  0
   -4.1043   18.9121  -34.4080 H   0  0  0  0  0  0  0  0  0  0  0  0
   -3.2553   20.5028  -34.3106 H   0  0  0  0  0  0  0  0  0  0  0  0
   -1.4502   18.2016  -35.6696 H   0  0  0  0  0  0  0  0  0  0  0  0
   -1.0117   17.1153  -34.2923 H   0  0  0  0  0  0  0  0  0  0  0  0
   -3.4779   16.5908  -34.0394 H   0  0  0  0  0  0  0  0  0  0  0  0
   -3.7624   17.4863  -35.5704 H   0  0  0  0  0  0  0  0  0  0  0  0
   -2.7397   16.0096  -35.5704 H   0  0  0  0  0  0  0  0  0  0  0  0
   -0.9743   17.0390  -32.1108 H   0  0  0  0  0  0  0  0  0  0  0  0
    0.5064   17.5294  -30.1680 H   0  0  0  0  0  0  0  0  0  0  0  0
   -0.6131   23.2445  -28.5661 H   0  0  0  0  0  0  0  0  0  0  0  0
   -6.2331   25.8565  -30.0710 H   0  0  0  0  0  0  0  0  0  0  0  0
   -8.1822   24.4590  -30.7435 H   0  0  0  0  0  0  0  0  0  0  0  0
   -9.4885   20.5037  -30.5052 H   0  0  0  0  0  0  0  0  0  0  0  0
   -9.2996   18.0087  -30.5227 H   0  0  0  0  0  0  0  0  0  0  0  0
   -5.8900   16.5827  -31.6407 H   0  0  0  0  0  0  0  0  0  0  0  0
   -5.2005   15.1387  -32.4569 H   0  0  0  0  0  0  0  0  0  0  0  0
   -4.2934   16.6891  -32.4569 H   0  0  0  0  0  0  0  0  0  0  0  0
   -6.6928   20.6772  -33.8187 H   0  0  0  0  0  0  0  0  0  0  0  0
   -5.4904   21.5156  -32.4344 H   0  0  0  0  0  0  0  0  0  0  0  0
   -3.5457   22.8307  -31.6156 H   0  0  0  0  0  0  0  0  0  0  0  0
   -4.5739   21.9517  -27.4197 H   0  0  0  0  0  0  0  0  0  0  0  0
   -3.7622   19.6049  -27.2320 H   0  0  0  0  0  0  0  0  0  0  0  0
    0.2638   21.7566  -31.0641 H   0  0  0  0  0  0  0  0  0  0  0  0
   -1.1474   21.2614  -33.0525 H   0  0  0  0  0  0  0  0  0  0  0  0
  1  2  1  0
  2  3  1  0
  3  4  1  0
  4  5  1  0
  3  6  1  0
  6  7  2  0
  7  8  1  0
  8  9  2  0
  9 10  1  0
 10 11  1  0
 11 12  2  0
 11 13  1  0
 13 14  2  0
 14 15  1  0
 15 16  1  0
 16 17  1  0
 17 18  2  0
 17 19  1  0
 19 20  1  0
 20 21  2  0
 21 22  1  0
 22 23  2  0
 23 24  1  0
 24 25  1  0
 25 26  2  0
 26 27  1  0
 27 28  2  0
 28 29  1  0
 29 30  1  0
 30 31  2  0
 30 32  1  0
 32 33  1  0
 29 34  2  0
 23 35  1  0
 35 36  2  0
 15 37  2  0
 37 38  1  0
 38 39  2  0
 39 40  1  0
  9 41  1  0
 41 42  2  0
 42  6  1  0
 39 13  1  0
 36 20  1  0
 34 25  1  0
  1 43  1  0
  1 44  1  0
  1 45  1  0
  2 46  1  0
  2 47  1  0
  4 48  1  0
  4 49  1  0
  5 50  1  0
  5 51  1  0
  5 52  1  0
  7 53  1  0
  8 54  1  0
 14 55  1  0
 21 56  1  0
 22 57  1  0
 26 58  1  0
 27 59  1  0
 33 60  1  0
 33 61  1  0
 33 62  1  0
 34 63  1  0
 35 64  1  0
 36 65  1  0
 37 66  1  0
 38 67  1  0
 41 68  1  0
 42 69  1  0
M  CHG  4  10  -1  16  -1  19  -1  32  -1
M  END
>  <UniqueID>  (44) 
42

>  <SMILES>  (44) 
CCN(CC)c1ccc([N-]C(=O)c2cc([N-]C(=O)[N-]c3ccc(Oc4ccnc(C(=O)[N-]C)c4)cc3)ccc2F)cc1

>  <Energy>  (44) 
90.81835477385277

>  <Genealogy>  (44) 
CCN(CC)c1ccc([N-]C(=O)c2cc([N-]C(=O)[N-]c3ccc(Oc4ccnc(C(=O)[N-]C)c4)cc3)ccc2F)cc1 (protonated)
CCN(CC)c1ccc([N-]C(=O)c2cc([N-]C(=O)[N-]c3ccc(Oc4ccnc(C(=O)[N-]C)c4)cc3)ccc2F)cc1 (3D coordinates assigned)
CCN(CC)c1ccc([N-]C(=O)c2cc([N-]C(=O)[N-]c3ccc(Oc4ccnc(C(=O)[N-]C)c4)cc3)ccc2F)cc1 (optimized conformer: 90.81835477385277 kcal/mol)

>  <smiles>  (44) 
CCN(CC)c1ccc(NC(=O)c2cc(NC(=O)Nc3ccc(Oc4ccnc(C(=O)NC)c4)cc3)ccc2F)cc1

>  <score_type>  (44) 
oracle

>  <origin>  (44) 
adgpu

>  <m_score__min__energy>  (44) 
-12.109999999999999

>  <m_primary>  (44) 
energy

$$$$
44:0
     RDKit          3D

 46 47  0  0  0  0  0  0  0  0999 V2000
   -6.4590   24.5780  -30.5350 C   0  0  0  0  0  0  0  0  0  0  0  0
   -5.4130   25.6500  -30.2570 C   0  0  0  0  0  0  0  0  0  0  0  0
   -4.1340   25.2480  -30.7500 O   0  0  0  0  0  0  0  0  0  0  0  0
   -3.4730   24.0460  -30.4480 C   0  0  0  0  0  0  0  0  0  0  0  0
   -3.9750   22.7980  -30.8630 C   0  0  0  0  0  0  0  0  0  0  0  0
   -3.2730   21.6140  -30.5930 C   0  0  0  0  0  0  0  0  0  0  0  0
   -3.8220   20.3370  -30.9430 N   0  0  0  0  0  0  0  0  0  0  0  0
   -4.4550   20.0390  -32.5300 S   0  0  0  0  0  0  0  0  0  0  0  0
   -3.8710   18.7630  -33.0660 O   0  0  0  0  0  0  0  0  0  0  0  0
   -4.0770   21.1620  -33.4550 O   0  0  0  0  0  0  0  0  0  0  0  0
   -6.2070   19.8750  -32.4270 C   0  0  0  0  0  0  0  0  0  0  0  0
   -6.7910   18.6100  -32.5670 C   0  0  0  0  0  0  0  0  0  0  0  0
   -8.1700   18.4570  -32.4270 C   0  0  0  0  0  0  0  0  0  0  0  0
   -8.9750   19.5610  -32.1350 C   0  0  0  0  0  0  0  0  0  0  0  0
   -8.4070   20.8390  -31.9800 C   0  0  0  0  0  0  0  0  0  0  0  0
   -9.2760   22.0010  -31.6510 C   0  0  0  0  0  0  0  0  0  0  0  0
   -9.1120   23.3330  -32.3200 C   0  0  0  0  0  0  0  0  0  0  0  0
  -10.1770   21.8810  -30.7750 O   0  0  0  0  0  0  0  0  0  0  0  0
   -7.0130   20.9840  -32.1340 C   0  0  0  0  0  0  0  0  0  0  0  0
   -2.0290   21.6850  -29.9580 C   0  0  0  0  0  0  0  0  0  0  0  0
   -1.5300   22.9150  -29.5250 C   0  0  0  0  0  0  0  0  0  0  0  0
   -2.2640   24.0890  -29.7210 C   0  0  0  0  0  0  0  0  0  0  0  0
   -1.7330   25.3120  -29.1930 N   0  0  0  0  0  0  0  0  0  0  0  0
   -0.6490   25.4200  -27.8430 S   0  0  0  0  0  0  0  0  0  0  0  0
   -1.3660   24.6410  -26.4090 C   0  0  0  0  0  0  0  0  0  0  0  0
   -0.3270   26.8570  -27.5490 O   0  0  0  0  0  0  0  0  0  0  0  0
    0.6210   24.6940  -28.1850 O   0  0  0  0  0  0  0  0  0  0  0  0
   -6.8429   24.1845  -29.5822 H   0  0  0  0  0  0  0  0  0  0  0  0
   -7.2875   25.0149  -31.1118 H   0  0  0  0  0  0  0  0  0  0  0  0
   -6.0019   23.7605  -31.1118 H   0  0  0  0  0  0  0  0  0  0  0  0
   -5.7135   26.5848  -30.7528 H   0  0  0  0  0  0  0  0  0  0  0  0
   -5.3414   25.8004  -29.1697 H   0  0  0  0  0  0  0  0  0  0  0  0
   -4.9304   22.7507  -31.4062 H   0  0  0  0  0  0  0  0  0  0  0  0
   -4.1230   19.6900  -30.1800 H   0  0  0  0  0  0  0  0  0  0  0  0
   -6.1610   17.7357  -32.7877 H   0  0  0  0  0  0  0  0  0  0  0  0
   -8.6258   17.4631  -32.5469 H   0  0  0  0  0  0  0  0  0  0  0  0
  -10.0617   19.4300  -32.0254 H   0  0  0  0  0  0  0  0  0  0  0  0
   -9.0154   24.1179  -31.5554 H   0  0  0  0  0  0  0  0  0  0  0  0
   -8.2088   23.3193  -32.9477 H   0  0  0  0  0  0  0  0  0  0  0  0
   -9.9916   23.5388  -32.9477 H   0  0  0  0  0  0  0  0  0  0  0  0
   -6.5533   21.9772  -32.0231 H   0  0  0  0  0  0  0  0  0  0  0  0
   -1.4416   20.7686  -29.7991 H   0  0  0  0  0  0  0  0  0  0  0  0
   -0.5511   22.9609  -29.0254 H   0  0  0  0  0  0  0  0  0  0  0  0
   -0.9485   25.0946  -25.4980 H   0  0  0  0  0  0  0  0  0  0  0  0
   -2.4568   24.7821  -26.4220 H   0  0  0  0  0  0  0  0  0  0  0  0
   -1.1352   23.5656  -26.4220 H   0  0  0  0  0  0  0  0  0  0  0  0
  1  2  1  0
  2  3  1  0
  3  4  1  0
  4  5  2  0
  5  6  1  0
  6  7  1  0
  7  8  1  0
  8  9  2  0
  8 10  2  0
  8 11  1  0
 11 12  2  0
 12 13  1  0
 13 14  2  0
 14 15  1  0
 15 16  1  0
 16 17  1  0
 16 18  2  0
 15 19  2  0
  6 20  2  0
 20 21  1  0
 21 22  2  0
 22 23  1  0
 23 24  1  0
 24 25  1  0
 24 26  2  0
 24 27  2  0
 22  4  1  0
 19 11  1  0
  1 28  1  0
  1 29  1  0
  1 30  1  0
  2 31  1  0
  2 32  1  0
  5 33  1  0
  7 34  1  0
 12 35  1  0
 13 36  1  0
 14 37  1  0
 17 38  1  0
 17 39  1  0
 17 40  1  0
 19 41  1  0
 20 42  1  0
 21 43  1  0
 25 44  1  0
 25 45  1  0
 25 46  1  0
M  CHG  1  23  -1
M  END
>  <UniqueID>  (45) 
43

>  <SMILES>  (45) 
CCOc1cc(NS(=O)(=O)c2cccc(C(C)=O)c2)ccc1[N-]S(C)(=O)=O

>  <Energy>  (45) 
48.204704968743854

>  <Genealogy>  (45) 
CCOc1cc(NS(=O)(=O)c2cccc(C(C)=O)c2)ccc1[N-]S(C)(=O)=O (protonated)
CCOc1cc(NS(=O)(=O)c2cccc(C(C)=O)c2)ccc1[N-]S(C)(=O)=O (3D coordinates assigned)
CCOc1cc(NS(=O)(=O)c2cccc(C(C)=O)c2)ccc1[N-]S(C)(=O)=O (optimized conformer: 48.204704968743854 kcal/mol)

>  <smiles>  (45) 
CCOc1cc(NS(=O)(=O)c2cccc(C(C)=O)c2)ccc1NS(C)(=O)=O

>  <score_type>  (45) 
oracle

>  <origin>  (45) 
adgpu

>  <m_score__min__energy>  (45) 
-11.529999999999999

>  <m_primary>  (45) 
energy

$$$$
45:0
     RDKit          3D

 44 47  0  0  0  0  0  0  0  0999 V2000
   -1.4370   25.6890  -28.8730 O   0  0  0  0  0  0  0  0  0  0  0  0
   -2.5620   24.6970  -28.9500 S   0  0  0  0  0  0  0  0  0  0  0  0
   -3.4440   24.8730  -27.7460 O   0  0  0  0  0  0  0  0  0  0  0  0
   -3.4880   24.9970  -30.3860 N   0  0  0  0  0  0  0  0  0  0  0  0
   -4.5570   24.1720  -30.8690 C   0  0  0  0  0  0  0  0  0  0  0  0
   -4.3220   22.9500  -31.5250 C   0  0  0  0  0  0  0  0  0  0  0  0
   -5.3950   22.1780  -31.9820 C   0  0  0  0  0  0  0  0  0  0  0  0
   -6.7120   22.6050  -31.7810 C   0  0  0  0  0  0  0  0  0  0  0  0
   -7.7610   21.8120  -32.2700 O   0  0  0  0  0  0  0  0  0  0  0  0
   -7.7420   20.4130  -32.3780 C   0  0  0  0  0  0  0  0  0  0  0  0
   -6.8400   19.8200  -33.2700 C   0  0  0  0  0  0  0  0  0  0  0  0
   -6.7820   18.4280  -33.3980 C   0  0  0  0  0  0  0  0  0  0  0  0
   -7.6170   17.6190  -32.6220 C   0  0  0  0  0  0  0  0  0  0  0  0
   -8.5060   18.2010  -31.7140 C   0  0  0  0  0  0  0  0  0  0  0  0
   -8.5680   19.5920  -31.5860 C   0  0  0  0  0  0  0  0  0  0  0  0
   -6.9460   23.8370  -31.1460 C   0  0  0  0  0  0  0  0  0  0  0  0
   -5.8740   24.6080  -30.6900 C   0  0  0  0  0  0  0  0  0  0  0  0
   -1.8850   23.0730  -29.0080 C   0  0  0  0  0  0  0  0  0  0  0  0
   -1.0870   22.6950  -30.0950 C   0  0  0  0  0  0  0  0  0  0  0  0
   -0.5430   21.4090  -30.1590 C   0  0  0  0  0  0  0  0  0  0  0  0
   -0.7910   20.4760  -29.1320 C   0  0  0  0  0  0  0  0  0  0  0  0
   -0.2410   19.1420  -29.1800 N   0  0  0  0  0  0  0  0  0  0  0  0
    0.1550   18.3820  -28.1360 C   0  0  0  0  0  0  0  0  0  0  0  0
    0.6030   17.1720  -28.6200 C   0  0  0  0  0  0  0  0  0  0  0  0
    0.4470   17.2610  -29.9890 C   0  0  0  0  0  0  0  0  0  0  0  0
   -0.0660   18.4640  -30.3060 N   0  0  0  0  0  0  0  0  0  0  0  0
   -1.5990   20.8630  -28.0480 C   0  0  0  0  0  0  0  0  0  0  0  0
   -2.1380   22.1520  -27.9840 C   0  0  0  0  0  0  0  0  0  0  0  0
   -3.2905   22.6003  -31.6791 H   0  0  0  0  0  0  0  0  0  0  0  0
   -5.2021   21.2286  -32.5030 H   0  0  0  0  0  0  0  0  0  0  0  0
   -6.1728   20.4526  -33.8739 H   0  0  0  0  0  0  0  0  0  0  0  0
   -6.0791   17.9701  -34.1095 H   0  0  0  0  0  0  0  0  0  0  0  0
   -7.5745   16.5247  -32.7259 H   0  0  0  0  0  0  0  0  0  0  0  0
   -9.1581   17.5635  -31.0989 H   0  0  0  0  0  0  0  0  0  0  0  0
   -9.2636   20.0462  -30.8650 H   0  0  0  0  0  0  0  0  0  0  0  0
   -7.9768   24.1953  -31.0077 H   0  0  0  0  0  0  0  0  0  0  0  0
   -6.0673   25.5663  -30.1858 H   0  0  0  0  0  0  0  0  0  0  0  0
   -0.8872   23.4142  -30.9030 H   0  0  0  0  0  0  0  0  0  0  0  0
    0.0831   21.1230  -31.0170 H   0  0  0  0  0  0  0  0  0  0  0  0
    0.1249   18.6790  -27.0773 H   0  0  0  0  0  0  0  0  0  0  0  0
    0.9978   16.3227  -28.0430 H   0  0  0  0  0  0  0  0  0  0  0  0
    0.7027   16.4702  -30.7096 H   0  0  0  0  0  0  0  0  0  0  0  0
   -1.8093   20.1445  -27.2421 H   0  0  0  0  0  0  0  0  0  0  0  0
   -2.7626   22.4432  -27.1266 H   0  0  0  0  0  0  0  0  0  0  0  0
  1  2  2  0
  2  3  2  0
  2  4  1  0
  4  5  1  0
  5  6  2  0
  6  7  1  0
  7  8  2  0
  8  9  1  0
  9 10  1  0
 10 11  2  0
 11 12  1  0
 12 13  2  0
 13 14  1  0
 14 15  2  0
  8 16  1  0
 16 17  2  0
  2 18  1  0
 18 19  2  0
 19 20  1  0
 20 21  2  0
 21 22  1  0
 22 23  1  0
 23 24  2  0
 24 25  1  0
 25 26  2  0
 21 27  1  0
 27 28  2  0
 17  5  1  0
 28 18  1  0
 15 10  1  0
 26 22  1  0
  6 29  1  0
  7 30  1  0
 11 31  1  0
 12 32  1  0
 13 33  1  0
 14 34  1  0
 15 35  1  0
 16 36  1  0
 17 37  1  0
 19 38  1  0
 20 39  1  0
 23 40  1  0
 24 41  1  0
 25 42  1  0
 27 43  1  0
 28 44  1  0
M  CHG  1   4  -1
M  END
>  <UniqueID>  (46) 
44

>  <SMILES>  (46) 
O=S(=O)([N-]c1ccc(Oc2ccccc2)cc1)c1ccc(-n2cccn2)cc1

>  <Energy>  (46) 
90.4963783698267

>  <Genealogy>  (46) 
O=S(=O)([N-]c1ccc(Oc2ccccc2)cc1)c1ccc(-n2cccn2)cc1 (protonated)
O=S(=O)([N-]c1ccc(Oc2ccccc2)cc1)c1ccc(-n2cccn2)cc1 (3D coordinates assigned)
O=S(=O)([N-]c1ccc(Oc2ccccc2)cc1)c1ccc(-n2cccn2)cc1 (optimized conformer: 90.4963783698267 kcal/mol)

>  <smiles>  (46) 
O=S(=O)(Nc1ccc(Oc2ccccc2)cc1)c1ccc(-n2cccn2)cc1

>  <score_type>  (46) 
oracle

>  <origin>  (46) 
adgpu

>  <m_score__min__energy>  (46) 
-10.390000000000001

>  <m_primary>  (46) 
energy

$$$$
46:0
     RDKit          3D

 49 52  0  0  0  0  0  0  0  0999 V2000
   -1.8580   20.7510  -29.9280 C   0  0  0  0  0  0  0  0  0  0  0  0
   -1.9260   22.1840  -29.4860 C   0  0  0  0  0  0  0  0  0  0  0  0
   -1.1840   22.6170  -28.3770 C   0  0  0  0  0  0  0  0  0  0  0  0
   -1.2860   23.9390  -27.9380 C   0  0  0  0  0  0  0  0  0  0  0  0
   -2.1300   24.8360  -28.5980 C   0  0  0  0  0  0  0  0  0  0  0  0
   -2.8720   24.4170  -29.7160 C   0  0  0  0  0  0  0  0  0  0  0  0
   -3.7730   25.2980  -30.4010 N   0  0  0  0  0  0  0  0  0  0  0  0
   -5.0790   24.9630  -30.8840 C   0  0  0  0  0  0  0  0  0  0  0  0
   -6.0750   25.5820  -30.4260 O   0  0  0  0  0  0  0  0  0  0  0  0
   -5.2590   23.8690  -31.7930 N   0  0  0  0  0  0  0  0  0  0  0  0
   -6.3850   22.9810  -31.8460 C   0  0  0  0  0  0  0  0  0  0  0  0
   -7.6620   23.5010  -31.6070 C   0  0  0  0  0  0  0  0  0  0  0  0
   -8.7800   22.6640  -31.6200 C   0  0  0  0  0  0  0  0  0  0  0  0
   -8.6300   21.2980  -31.8680 C   0  0  0  0  0  0  0  0  0  0  0  0
   -7.3620   20.7570  -32.1040 C   0  0  0  0  0  0  0  0  0  0  0  0
   -7.2490   19.3760  -32.3190 O   0  0  0  0  0  0  0  0  0  0  0  0
   -6.2220   18.7450  -33.0360 C   0  0  0  0  0  0  0  0  0  0  0  0
   -6.3850   17.4790  -33.6200 C   0  0  0  0  0  0  0  0  0  0  0  0
   -5.3500   16.9150  -34.2920 N   0  0  0  0  0  0  0  0  0  0  0  0
   -4.1500   17.5410  -34.4000 C   0  0  0  0  0  0  0  0  0  0  0  0
   -3.9640   18.7960  -33.7940 C   0  0  0  0  0  0  0  0  0  0  0  0
   -2.6730   19.5280  -33.8720 C   0  0  0  0  0  0  0  0  0  0  0  0
   -2.5950   20.8590  -33.4240 C   0  0  0  0  0  0  0  0  0  0  0  0
   -1.3880   21.5610  -33.4830 C   0  0  0  0  0  0  0  0  0  0  0  0
   -0.2380   20.9440  -33.9840 C   0  0  0  0  0  0  0  0  0  0  0  0
    0.9580   21.6550  -34.0360 O   0  0  0  0  0  0  0  0  0  0  0  0
   -0.3000   19.6150  -34.4230 C   0  0  0  0  0  0  0  0  0  0  0  0
   -1.5060   18.9100  -34.3650 C   0  0  0  0  0  0  0  0  0  0  0  0
   -5.0130   19.3570  -33.1320 N   0  0  0  0  0  0  0  0  0  0  0  0
   -6.2350   21.5990  -32.0660 C   0  0  0  0  0  0  0  0  0  0  0  0
   -2.7850   23.0830  -30.1370 C   0  0  0  0  0  0  0  0  0  0  0  0
   -1.8269   20.0960  -29.0448 H   0  0  0  0  0  0  0  0  0  0  0  0
   -2.7458   20.5109  -30.5315 H   0  0  0  0  0  0  0  0  0  0  0  0
   -0.9515   20.5961  -30.5315 H   0  0  0  0  0  0  0  0  0  0  0  0
   -0.5205   21.9140  -27.8521 H   0  0  0  0  0  0  0  0  0  0  0  0
   -0.7000   24.2751  -27.0699 H   0  0  0  0  0  0  0  0  0  0  0  0
   -2.2140   25.8733  -28.2416 H   0  0  0  0  0  0  0  0  0  0  0  0
   -7.7860   24.5756  -31.4077 H   0  0  0  0  0  0  0  0  0  0  0  0
   -9.7806   23.0816  -31.4345 H   0  0  0  0  0  0  0  0  0  0  0  0
   -9.5142   20.6437  -31.8778 H   0  0  0  0  0  0  0  0  0  0  0  0
   -7.3446   16.9482  -33.5335 H   0  0  0  0  0  0  0  0  0  0  0  0
   -3.3281   17.0690  -34.9584 H   0  0  0  0  0  0  0  0  0  0  0  0
   -3.4928   21.3522  -33.0233 H   0  0  0  0  0  0  0  0  0  0  0  0
   -1.3427   22.6031  -33.1338 H   0  0  0  0  0  0  0  0  0  0  0  0
    0.9730   22.6570  -34.1850 H   0  0  0  0  0  0  0  0  0  0  0  0
    0.6033   19.1245  -34.8147 H   0  0  0  0  0  0  0  0  0  0  0  0
   -1.5444   17.8651  -34.7067 H   0  0  0  0  0  0  0  0  0  0  0  0
   -5.2304   21.1743  -32.2092 H   0  0  0  0  0  0  0  0  0  0  0  0
   -3.3950   22.7377  -30.9847 H   0  0  0  0  0  0  0  0  0  0  0  0
  1  2  1  0
  2  3  2  0
  3  4  1  0
  4  5  2  0
  5  6  1  0
  6  7  1  0
  7  8  1  0
  8  9  2  0
  8 10  1  0
 10 11  1  0
 11 12  2  0
 12 13  1  0
 13 14  2  0
 14 15  1  0
 15 16  1  0
 16 17  1  0
 17 18  2  0
 18 19  1  0
 19 20  2  0
 20 21  1  0
 21 22  1  0
 22 23  2  0
 23 24  1  0
 24 25  2  0
 25 26  1  0
 25 27  1  0
 27 28  2  0
 21 29  2  0
 15 30  2  0
  6 31  2  0
 31  2  1  0
 30 11  1  0
 29 17  1  0
 28 22  1  0
  1 32  1  0
  1 33  1  0
  1 34  1  0
  3 35  1  0
  4 36  1  0
  5 37  1  0
 12 38  1  0
 13 39  1  0
 14 40  1  0
 18 41  1  0
 20 42  1  0
 23 43  1  0
 24 44  1  0
 26 45  1  0
 27 46  1  0
 28 47  1  0
 30 48  1  0
 31 49  1  0
M  CHG  2   7  -1  10  -1
M  END
>  <UniqueID>  (47) 
45

>  <SMILES>  (47) 
Cc1cccc([N-]C(=O)[N-]c2cccc(Oc3cncc(-c4ccc(O)cc4)n3)c2)c1

>  <Energy>  (47) 
71.47830631431219

>  <Genealogy>  (47) 
Cc1cccc([N-]C(=O)[N-]c2cccc(Oc3cncc(-c4ccc(O)cc4)n3)c2)c1 (protonated)
Cc1cccc([N-]C(=O)[N-]c2cccc(Oc3cncc(-c4ccc(O)cc4)n3)c2)c1 (3D coordinates assigned)
Cc1cccc([N-]C(=O)[N-]c2cccc(Oc3cncc(-c4ccc(O)cc4)n3)c2)c1 (optimized conformer: 71.47830631431219 kcal/mol)

>  <smiles>  (47) 
Cc1cccc(NC(=O)Nc2cccc(Oc3cncc(-c4ccc(O)cc4)n3)c2)c1

>  <score_type>  (47) 
oracle

>  <origin>  (47) 
adgpu

>  <m_score__min__energy>  (47) 
-12.380000000000001

>  <m_primary>  (47) 
energy

$$$$
47:0
     RDKit          3D

 46 48  0  0  0  0  0  0  0  0999 V2000
   -4.5860   20.2630  -31.3230 O   0  0  0  0  0  0  0  0  0  0  0  0
   -5.0430   21.3220  -32.2890 S   0  0  0  0  0  0  0  0  0  0  0  0
   -4.0950   21.3240  -33.4570 O   0  0  0  0  0  0  0  0  0  0  0  0
   -4.9870   22.8960  -31.4910 C   0  0  0  0  0  0  0  0  0  0  0  0
   -6.1070   23.7370  -31.5120 C   0  0  0  0  0  0  0  0  0  0  0  0
   -6.0830   24.9530  -30.8250 C   0  0  0  0  0  0  0  0  0  0  0  0
   -4.9430   25.3370  -30.1170 C   0  0  0  0  0  0  0  0  0  0  0  0
   -3.8050   24.5170  -30.0990 C   0  0  0  0  0  0  0  0  0  0  0  0
   -2.6450   24.9370  -29.3580 N   0  0  0  0  0  0  0  0  0  0  0  0
   -2.2660   24.3560  -28.0690 C   0  0  0  0  0  0  0  0  0  0  0  0
   -1.7470   25.4130  -27.1300 C   0  0  0  0  0  0  0  0  0  0  0  0
   -2.1260   25.4200  -25.7750 C   0  0  0  0  0  0  0  0  0  0  0  0
   -1.6250   26.3940  -24.9070 C   0  0  0  0  0  0  0  0  0  0  0  0
   -0.7500   27.3740  -25.3840 C   0  0  0  0  0  0  0  0  0  0  0  0
   -0.3770   27.3800  -26.7280 C   0  0  0  0  0  0  0  0  0  0  0  0
    0.4670   28.3350  -27.1930 F   0  0  0  0  0  0  0  0  0  0  0  0
   -0.8720   26.4030  -27.6020 C   0  0  0  0  0  0  0  0  0  0  0  0
   -3.8340   23.2960  -30.8010 C   0  0  0  0  0  0  0  0  0  0  0  0
   -6.6590   20.9390  -32.8450 N   0  0  0  0  0  0  0  0  0  0  0  0
   -6.6700   19.6960  -33.6640 C   0  0  0  0  0  0  0  0  0  0  0  0
   -7.1070   18.4570  -32.8660 C   0  0  0  0  0  0  0  0  0  0  0  0
   -8.5110   18.6370  -32.2640 C   0  0  0  0  0  0  0  0  0  0  0  0
   -8.8650   20.1130  -32.0150 C   0  0  0  0  0  0  0  0  0  0  0  0
   -7.6030   20.9260  -31.7000 C   0  0  0  0  0  0  0  0  0  0  0  0
   -7.0068   23.4394  -32.0704 H   0  0  0  0  0  0  0  0  0  0  0  0
   -6.9651   25.6099  -30.8420 H   0  0  0  0  0  0  0  0  0  0  0  0
   -4.9369   26.2905  -29.5686 H   0  0  0  0  0  0  0  0  0  0  0  0
   -2.0330   25.6750  -29.7770 H   0  0  0  0  0  0  0  0  0  0  0  0
   -3.1472   23.8761  -27.6181 H   0  0  0  0  0  0  0  0  0  0  0  0
   -1.4686   23.6176  -28.2393 H   0  0  0  0  0  0  0  0  0  0  0  0
   -2.8201   24.6550  -25.3970 H   0  0  0  0  0  0  0  0  0  0  0  0
   -1.9196   26.3894  -23.8472 H   0  0  0  0  0  0  0  0  0  0  0  0
   -0.3558   28.1400  -24.7000 H   0  0  0  0  0  0  0  0  0  0  0  0
   -0.5738   26.4122  -28.6608 H   0  0  0  0  0  0  0  0  0  0  0  0
   -2.9435   22.6503  -30.8078 H   0  0  0  0  0  0  0  0  0  0  0  0
   -6.9410   21.7280  -33.4750 H   0  0  0  0  0  0  0  0  0  0  0  0
   -7.3660   19.8356  -34.5043 H   0  0  0  0  0  0  0  0  0  0  0  0
   -5.6407   19.5196  -34.0096 H   0  0  0  0  0  0  0  0  0  0  0  0
   -7.1153   17.5852  -33.5367 H   0  0  0  0  0  0  0  0  0  0  0  0
   -6.3949   18.3109  -32.0404 H   0  0  0  0  0  0  0  0  0  0  0  0
   -9.2493   18.2104  -32.9589 H   0  0  0  0  0  0  0  0  0  0  0  0
   -8.5239   18.1234  -31.2913 H   0  0  0  0  0  0  0  0  0  0  0  0
   -9.3458   20.5259  -32.9141 H   0  0  0  0  0  0  0  0  0  0  0  0
   -9.5489   20.1732  -31.1555 H   0  0  0  0  0  0  0  0  0  0  0  0
   -7.8945   21.9606  -31.4664 H   0  0  0  0  0  0  0  0  0  0  0  0
   -7.0971   20.4563  -30.8436 H   0  0  0  0  0  0  0  0  0  0  0  0
  1  2  2  0
  2  3  2  0
  2  4  1  0
  4  5  2  0
  5  6  1  0
  6  7  2  0
  7  8  1  0
  8  9  1  0
  9 10  1  0
 10 11  1  0
 11 12  2  0
 12 13  1  0
 13 14  2  0
 14 15  1  0
 15 16  1  0
 15 17  2  0
  8 18  2  0
  2 19  1  0
 19 20  1  0
 20 21  1  0
 21 22  1  0
 22 23  1  0
 23 24  1  0
 18  4  1  0
 24 19  1  0
 17 11  1  0
  5 25  1  0
  6 26  1  0
  7 27  1  0
  9 28  1  0
 10 29  1  0
 10 30  1  0
 12 31  1  0
 13 32  1  0
 14 33  1  0
 17 34  1  0
 18 35  1  0
 19 36  1  0
 20 37  1  0
 20 38  1  0
 21 39  1  0
 21 40  1  0
 22 41  1  0
 22 42  1  0
 23 43  1  0
 23 44  1  0
 24 45  1  0
 24 46  1  0
M  CHG  1  19   1
M  END
>  <UniqueID>  (48) 
46

>  <SMILES>  (48) 
O=S(=O)(c1cccc(NCc2cccc(F)c2)c1)[NH+]1CCCCC1

>  <Energy>  (48) 
51.337278156224954

>  <Genealogy>  (48) 
O=S(=O)(c1cccc(NCc2cccc(F)c2)c1)[NH+]1CCCCC1 (protonated)
O=S(=O)(c1cccc(NCc2cccc(F)c2)c1)[NH+]1CCCCC1 (3D coordinates assigned)
O=S(=O)(c1cccc(NCc2cccc(F)c2)c1)[NH+]1CCCCC1 (nonaromatic ring conformer: 51.337278156224954 kcal/mol)

>  <smiles>  (48) 
O=S(=O)(c1cccc(NCc2cccc(F)c2)c1)N1CCCCC1

>  <score_type>  (48) 
oracle

>  <origin>  (48) 
adgpu

>  <m_score__min__energy>  (48) 
-8.7300000000000004

>  <m_primary>  (48) 
energy

$$$$
48:0
     RDKit          3D

 37 39  0  0  0  0  0  0  0  0999 V2000
   -5.3960   15.9100  -31.2220 O   0  0  0  0  0  0  0  0  0  0  0  0
   -5.0300   15.9290  -32.4280 C   0  0  0  0  0  0  0  0  0  0  0  0
   -5.5970   16.8860  -33.3390 N   0  0  0  0  0  0  0  0  0  0  0  0
   -6.2730   18.0840  -32.9210 C   0  0  0  0  0  0  0  0  0  0  0  0
   -5.9420   19.3400  -33.4600 C   0  0  0  0  0  0  0  0  0  0  0  0
   -6.6320   20.4870  -33.0540 C   0  0  0  0  0  0  0  0  0  0  0  0
   -7.6690   20.3920  -32.1180 C   0  0  0  0  0  0  0  0  0  0  0  0
   -8.5410   21.8390  -31.6200 S   0  0  0  0  0  0  0  0  0  0  0  0
   -9.9190   21.8610  -32.2210 O   0  0  0  0  0  0  0  0  0  0  0  0
   -8.6600   21.8430  -30.1230 O   0  0  0  0  0  0  0  0  0  0  0  0
   -7.6820   23.2580  -32.1240 N   0  0  0  0  0  0  0  0  0  0  0  0
   -6.4740   23.7490  -31.5250 C   0  0  0  0  0  0  0  0  0  0  0  0
   -6.5100   24.9810  -30.8580 C   0  0  0  0  0  0  0  0  0  0  0  0
   -5.3580   25.4940  -30.2550 C   0  0  0  0  0  0  0  0  0  0  0  0
   -4.1580   24.7780  -30.3150 C   0  0  0  0  0  0  0  0  0  0  0  0
   -3.0140   25.2880  -29.7150 O   0  0  0  0  0  0  0  0  0  0  0  0
   -4.1120   23.5500  -30.9790 C   0  0  0  0  0  0  0  0  0  0  0  0
   -5.2630   23.0340  -31.5850 C   0  0  0  0  0  0  0  0  0  0  0  0
   -8.0120   19.1420  -31.5910 C   0  0  0  0  0  0  0  0  0  0  0  0
   -7.3240   17.9950  -31.9950 C   0  0  0  0  0  0  0  0  0  0  0  0
   -4.0520   14.9290  -32.8940 C   0  0  0  0  0  0  0  0  0  0  0  0
   -3.6470   13.7810  -32.2200 C   0  0  0  0  0  0  0  0  0  0  0  0
   -2.7140   13.0200  -32.9350 C   0  0  0  0  0  0  0  0  0  0  0  0
   -2.3830   13.5580  -34.1710 C   0  0  0  0  0  0  0  0  0  0  0  0
   -3.2540   14.9800  -34.3750 S   0  0  0  0  0  0  0  0  0  0  0  0
   -5.6110   16.6500  -34.3560 H   0  0  0  0  0  0  0  0  0  0  0  0
   -5.1364   19.4208  -34.2046 H   0  0  0  0  0  0  0  0  0  0  0  0
   -6.3589   21.4673  -33.4716 H   0  0  0  0  0  0  0  0  0  0  0  0
   -7.4512   25.5482  -30.8087 H   0  0  0  0  0  0  0  0  0  0  0  0
   -5.3952   26.4615  -29.7329 H   0  0  0  0  0  0  0  0  0  0  0  0
   -3.1682   22.9869  -31.0257 H   0  0  0  0  0  0  0  0  0  0  0  0
   -5.2213   22.0678  -32.1092 H   0  0  0  0  0  0  0  0  0  0  0  0
   -8.8264   19.0620  -30.8559 H   0  0  0  0  0  0  0  0  0  0  0  0
   -7.6082   17.0149  -31.5843 H   0  0  0  0  0  0  0  0  0  0  0  0
   -4.0222   13.4994  -31.2250 H   0  0  0  0  0  0  0  0  0  0  0  0
   -2.2833   12.0828  -32.5526 H   0  0  0  0  0  0  0  0  0  0  0  0
   -1.6729   13.1275  -34.8924 H   0  0  0  0  0  0  0  0  0  0  0  0
  1  2  2  0
  2  3  1  0
  3  4  1  0
  4  5  2  0
  5  6  1  0
  6  7  2  0
  7  8  1  0
  8  9  2  0
  8 10  2  0
  8 11  1  0
 11 12  1  0
 12 13  2  0
 13 14  1  0
 14 15  2  0
 15 16  1  0
 15 17  1  0
 17 18  2  0
  7 19  1  0
 19 20  2  0
  2 21  1  0
 21 22  2  0
 22 23  1  0
 23 24  2  0
 24 25  1  0
 20  4  1  0
 25 21  1  0
 18 12  1  0
  3 26  1  0
  5 27  1  0
  6 28  1  0
 13 29  1  0
 14 30  1  0
 17 31  1  0
 18 32  1  0
 19 33  1  0
 20 34  1  0
 22 35  1  0
 23 36  1  0
 24 37  1  0
M  CHG  2  11  -1  16  -1
M  END
>  <UniqueID>  (49) 
47

>  <SMILES>  (49) 
O=C(Nc1ccc(S(=O)(=O)[N-]c2ccc([O-])cc2)cc1)c1cccs1

>  <Energy>  (49) 
72.10246704590669

>  <Genealogy>  (49) 
O=C(Nc1ccc(S(=O)(=O)[N-]c2ccc([O-])cc2)cc1)c1cccs1 (protonated)
O=C(Nc1ccc(S(=O)(=O)[N-]c2ccc([O-])cc2)cc1)c1cccs1 (3D coordinates assigned)
O=C(Nc1ccc(S(=O)(=O)[N-]c2ccc([O-])cc2)cc1)c1cccs1 (optimized conformer: 72.10246704590669 kcal/mol)

>  <smiles>  (49) 
O=C(Nc1ccc(S(=O)(=O)Nc2ccc(O)cc2)cc1)c1cccs1

>  <score_type>  (49) 
oracle

>  <origin>  (49) 
adgpu

>  <m_score__min__energy>  (49) 
-11.16

>  <m_primary>  (49) 
energy

$$$$
