0:0
     RDKit          3D

 19 20  0  0  0  0  0  0  0  0999 V2000
   -0.5360   22.1440  -29.5760 C   0  0  0  0  0  0  0  0  0  0  0  0
   -0.6740   23.4090  -28.7840 C   0  0  0  0  0  0  0  0  0  0  0  0
    0.4210   24.1940  -28.5910 N   0  0  0  0  0  0  0  0  0  0  0  0
    0.3590   25.3270  -27.8900 N   0  0  0  0  0  0  0  0  0  0  0  0
   -0.8030   25.7520  -27.3320 C   0  0  0  0  0  0  0  0  0  0  0  0
   -0.8320   26.8240  -26.6750 O   0  0  0  0  0  0  0  0  0  0  0  0
   -1.9610   24.9930  -27.4950 C   0  0  0  0  0  0  0  0  0  0  0  0
   -1.9070   23.8100  -28.2350 C   0  0  0  0  0  0  0  0  0  0  0  0
   -3.4040   22.8360  -28.4450 S   0  0  0  0  0  0  0  0  0  0  0  0
   -4.1850   24.0830  -29.4620 C   0  0  0  0  0  0  0  0  0  0  0  0
   -5.5100   24.3180  -29.4690 N   0  0  0  0  0  0  0  0  0  0  0  0
   -5.6070   25.3180  -30.3670 C   0  0  0  0  0  0  0  0  0  0  0  0
   -4.4100   25.6700  -30.8710 N   0  0  0  0  0  0  0  0  0  0  0  0
   -3.5090   24.8900  -30.2990 N   0  0  0  0  0  0  0  0  0  0  0  0
   -0.4428   21.2898  -28.8893 H   0  0  0  0  0  0  0  0  0  0  0  0
   -1.4248   22.0095  -30.2100 H   0  0  0  0  0  0  0  0  0  0  0  0
    0.3609   22.2043  -30.2100 H   0  0  0  0  0  0  0  0  0  0  0  0
   -2.9088   25.3231  -27.0447 H   0  0  0  0  0  0  0  0  0  0  0  0
   -6.5566   25.7926  -30.6552 H   0  0  0  0  0  0  0  0  0  0  0  0
  1  2  1  0
  2  3  2  0
  3  4  1  0
  4  5  1  0
  5  6  2  0
  5  7  1  0
  7  8  2  0
  8  9  1  0
  9 10  1  0
 10 11  1  0
 11 12  2  0
 12 13  1  0
 13 14  1  0
  8  2  1  0
 14 10  2  0
  1 15  1  0
  1 16  1  0
  1 17  1  0
  7 18  1  0
 12 19  1  0
M  CHG  2   4  -1  13  -1
M  END
>  <UniqueID>  (1) 
1

>  <SMILES>  (1) 
Cc1n[n-]c(=O)cc1Sc1nc[n-]n1

>  <Energy>  (1) 
48.385929867899634

>  <Genealogy>  (1) 
Cc1n[n-]c(=O)cc1Sc1nc[n-]n1 (protonated)
Cc1n[n-]c(=O)cc1Sc1nc[n-]n1 (3D coordinates assigned)
Cc1n[n-]c(=O)cc1Sc1nc[n-]n1 (optimized conformer: 48.385929867899634 kcal/mol)

>  <smiles>  (1) 
Cc1n[nH]c(=O)cc1Sc1nc[nH]n1

>  <score_type>  (1) 
oracle

>  <origin>  (1) 
adgpu

>  <m_score__min__energy>  (1) 
-7.3799999999999999

>  <m_primary>  (1) 
energy

$$$$
1:0
     RDKit          3D

 29 30  0  0  0  0  0  0  0  0999 V2000
   -5.5510   17.3490  -34.3420 C   0  0  0  0  0  0  0  0  0  0  0  0
   -6.3990   18.1450  -33.3850 C   0  0  0  0  0  0  0  0  0  0  0  0
   -7.5980   17.5970  -32.9100 C   0  0  0  0  0  0  0  0  0  0  0  0
   -8.3860   18.3340  -32.0230 C   0  0  0  0  0  0  0  0  0  0  0  0
   -9.4650   17.8500  -31.5900 O   0  0  0  0  0  0  0  0  0  0  0  0
   -8.0070   19.5440  -31.6310 O   0  0  0  0  0  0  0  0  0  0  0  0
   -6.8800   20.1130  -32.0480 C   0  0  0  0  0  0  0  0  0  0  0  0
   -6.5480   21.3920  -31.5870 C   0  0  0  0  0  0  0  0  0  0  0  0
   -5.3650   22.0210  -32.0040 C   0  0  0  0  0  0  0  0  0  0  0  0
   -5.0620   23.3410  -31.5100 N   0  0  0  0  0  0  0  0  0  0  0  0
   -5.7550   23.9970  -30.4010 C   0  0  0  0  0  0  0  0  0  0  0  0
   -5.3770   25.4790  -30.3290 C   0  0  0  0  0  0  0  0  0  0  0  0
   -4.0860   25.6750  -30.8370 O   0  0  0  0  0  0  0  0  0  0  0  0
   -4.5170   21.3480  -32.9050 C   0  0  0  0  0  0  0  0  0  0  0  0
   -4.8400   20.0700  -33.3690 C   0  0  0  0  0  0  0  0  0  0  0  0
   -6.0240   19.4360  -32.9470 C   0  0  0  0  0  0  0  0  0  0  0  0
   -4.8641   16.7042  -33.7741 H   0  0  0  0  0  0  0  0  0  0  0  0
   -6.1995   16.7259  -34.9754 H   0  0  0  0  0  0  0  0  0  0  0  0
   -4.9701   18.0356  -34.9754 H   0  0  0  0  0  0  0  0  0  0  0  0
   -7.9160   16.5947  -33.2330 H   0  0  0  0  0  0  0  0  0  0  0  0
   -7.2224   21.9103  -30.8895 H   0  0  0  0  0  0  0  0  0  0  0  0
   -4.2830   23.8730  -31.9630 H   0  0  0  0  0  0  0  0  0  0  0  0
   -6.8412   23.9080  -30.5504 H   0  0  0  0  0  0  0  0  0  0  0  0
   -5.4586   23.5098  -29.4604 H   0  0  0  0  0  0  0  0  0  0  0  0
   -6.0937   26.0659  -30.9222 H   0  0  0  0  0  0  0  0  0  0  0  0
   -5.4024   25.8050  -29.2787 H   0  0  0  0  0  0  0  0  0  0  0  0
   -4.1770   25.7380  -31.8230 H   0  0  0  0  0  0  0  0  0  0  0  0
   -3.5910   21.8333  -33.2469 H   0  0  0  0  0  0  0  0  0  0  0  0
   -4.1646   19.5560  -34.0687 H   0  0  0  0  0  0  0  0  0  0  0  0
  1  2  1  0
  2  3  2  0
  3  4  1  0
  4  5  2  0
  4  6  1  0
  6  7  1  0
  7  8  2  0
  8  9  1  0
  9 10  1  0
 10 11  1  0
 11 12  1  0
 12 13  1  0
  9 14  2  0
 14 15  1  0
 15 16  2  0
 16  2  1  0
 16  7  1  0
  1 17  1  0
  1 18  1  0
  1 19  1  0
  3 20  1  0
  8 21  1  0
 10 22  1  0
 11 23  1  0
 11 24  1  0
 12 25  1  0
 12 26  1  0
 13 27  1  0
 14 28  1  0
 15 29  1  0
M  END
>  <UniqueID>  (2) 
2

>  <SMILES>  (2) 
Cc1cc(=O)oc2cc(NCCO)ccc12

>  <Energy>  (2) 
31.948648524002312

>  <Genealogy>  (2) 
Cc1cc(=O)oc2cc(NCCO)ccc12 (3D coordinates assigned)
Cc1cc(=O)oc2cc(NCCO)ccc12 (optimized conformer: 31.948648524002312 kcal/mol)

>  <smiles>  (2) 
Cc1cc(=O)oc2cc(NCCO)ccc12

>  <score_type>  (2) 
oracle

>  <origin>  (2) 
adgpu

>  <m_score__min__energy>  (2) 
-7.3899999999999997

>  <m_primary>  (2) 
energy

$$$$
2:0
     RDKit          3D

 51 54  0  0  0  0  0  0  0  0999 V2000
    0.0770   20.2080  -33.1640 C   0  0  0  0  0  0  0  0  0  0  0  0
   -1.0970   20.1770  -33.9690 O   0  0  0  0  0  0  0  0  0  0  0  0
   -2.2650   19.4670  -33.6490 C   0  0  0  0  0  0  0  0  0  0  0  0
   -2.6320   18.2950  -34.3400 C   0  0  0  0  0  0  0  0  0  0  0  0
   -3.8270   17.6380  -34.0370 C   0  0  0  0  0  0  0  0  0  0  0  0
   -4.6740   18.1400  -33.0440 C   0  0  0  0  0  0  0  0  0  0  0  0
   -6.2060   17.3460  -32.6870 S   0  0  0  0  0  0  0  0  0  0  0  0
   -6.2510   17.0230  -31.2190 O   0  0  0  0  0  0  0  0  0  0  0  0
   -6.3120   16.0620  -33.4630 O   0  0  0  0  0  0  0  0  0  0  0  0
   -7.5360   18.4030  -33.0970 N   0  0  0  0  0  0  0  0  0  0  0  0
   -8.5400   18.3920  -32.0090 C   0  0  0  0  0  0  0  0  0  0  0  0
   -9.4700   19.6060  -32.0910 C   0  0  0  0  0  0  0  0  0  0  0  0
   -8.6830   20.9170  -31.9240 C   0  0  0  0  0  0  0  0  0  0  0  0
   -7.2100   20.7840  -32.3470 C   0  0  0  0  0  0  0  0  0  0  0  0
   -7.0470   19.7540  -33.4720 C   0  0  0  0  0  0  0  0  0  0  0  0
   -4.3170   19.3020  -32.3520 C   0  0  0  0  0  0  0  0  0  0  0  0
   -3.1060   19.9550  -32.6270 C   0  0  0  0  0  0  0  0  0  0  0  0
   -2.7770   21.1460  -31.8950 N   0  0  0  0  0  0  0  0  0  0  0  0
   -3.6890   22.2450  -31.7380 C   0  0  0  0  0  0  0  0  0  0  0  0
   -4.7390   22.2990  -32.4360 O   0  0  0  0  0  0  0  0  0  0  0  0
   -3.4050   23.3350  -30.7920 C   0  0  0  0  0  0  0  0  0  0  0  0
   -2.5720   23.2770  -29.6910 C   0  0  0  0  0  0  0  0  0  0  0  0
   -2.6640   24.5410  -29.1420 C   0  0  0  0  0  0  0  0  0  0  0  0
   -1.9700   25.0230  -27.9390 C   0  0  0  0  0  0  0  0  0  0  0  0
   -2.1350   24.5460  -26.6430 C   0  0  0  0  0  0  0  0  0  0  0  0
   -1.3300   25.2070  -25.7060 C   0  0  0  0  0  0  0  0  0  0  0  0
   -0.5340   26.2030  -26.2580 C   0  0  0  0  0  0  0  0  0  0  0  0
   -0.8300   26.2590  -27.9120 S   0  0  0  0  0  0  0  0  0  0  0  0
   -3.5030   25.2960  -29.8750 N   0  0  0  0  0  0  0  0  0  0  0  0
   -3.9560   24.5620  -30.8800 N   0  0  0  0  0  0  0  0  0  0  0  0
   -0.2068   20.2005  -32.1013 H   0  0  0  0  0  0  0  0  0  0  0  0
    0.6961   19.3259  -33.3844 H   0  0  0  0  0  0  0  0  0  0  0  0
    0.6487   21.1216  -33.3844 H   0  0  0  0  0  0  0  0  0  0  0  0
   -1.9725   17.8944  -35.1240 H   0  0  0  0  0  0  0  0  0  0  0  0
   -4.1026   16.7227  -34.5813 H   0  0  0  0  0  0  0  0  0  0  0  0
   -9.1420   17.4747  -32.0874 H   0  0  0  0  0  0  0  0  0  0  0  0
   -8.0072   18.4298  -31.0474 H   0  0  0  0  0  0  0  0  0  0  0  0
   -9.9709   19.6096  -33.0703 H   0  0  0  0  0  0  0  0  0  0  0  0
  -10.2094   19.5359  -31.2796 H   0  0  0  0  0  0  0  0  0  0  0  0
   -9.1577   21.6934  -32.5419 H   0  0  0  0  0  0  0  0  0  0  0  0
   -8.6992   21.1802  -30.8561 H   0  0  0  0  0  0  0  0  0  0  0  0
   -6.8484   21.7611  -32.6999 H   0  0  0  0  0  0  0  0  0  0  0  0
   -6.6270   20.4457  -31.4777 H   0  0  0  0  0  0  0  0  0  0  0  0
   -7.6129   20.1006  -34.3493 H   0  0  0  0  0  0  0  0  0  0  0  0
   -5.9714   19.6671  -33.6853 H   0  0  0  0  0  0  0  0  0  0  0  0
   -4.9924   19.7079  -31.5845 H   0  0  0  0  0  0  0  0  0  0  0  0
   -1.7810   21.2830  -31.6140 H   0  0  0  0  0  0  0  0  0  0  0  0
   -1.9754   22.4240  -29.3352 H   0  0  0  0  0  0  0  0  0  0  0  0
   -2.8272   23.7324  -26.3803 H   0  0  0  0  0  0  0  0  0  0  0  0
   -1.3283   24.9606  -24.6340 H   0  0  0  0  0  0  0  0  0  0  0  0
    0.1693   26.8449  -25.7072 H   0  0  0  0  0  0  0  0  0  0  0  0
  1  2  1  0
  2  3  1  0
  3  4  2  0
  4  5  1  0
  5  6  2  0
  6  7  1  0
  7  8  2  0
  7  9  2  0
  7 10  1  0
 10 11  1  0
 11 12  1  0
 12 13  1  0
 13 14  1  0
 14 15  1  0
  6 16  1  0
 16 17  2  0
 17 18  1  0
 18 19  1  0
 19 20  2  0
 19 21  1  0
 21 22  1  0
 22 23  2  0
 23 24  1  0
 24 25  2  0
 25 26  1  0
 26 27  2  0
 27 28  1  0
 23 29  1  0
 29 30  1  0
 17  3  1  0
 30 21  2  0
 15 10  1  0
 28 24  1  0
  1 31  1  0
  1 32  1  0
  1 33  1  0
  4 34  1  0
  5 35  1  0
 11 36  1  0
 11 37  1  0
 12 38  1  0
 12 39  1  0
 13 40  1  0
 13 41  1  0
 14 42  1  0
 14 43  1  0
 15 44  1  0
 15 45  1  0
 16 46  1  0
 18 47  1  0
 22 48  1  0
 25 49  1  0
 26 50  1  0
 27 51  1  0
M  CHG  1  29  -1
M  END
>  <UniqueID>  (3) 
3

>  <SMILES>  (3) 
COc1ccc(S(=O)(=O)N2CCCCC2)cc1NC(=O)c1cc(-c2cccs2)[n-]n1

>  <Energy>  (3) 
117.72720702874457

>  <Genealogy>  (3) 
COc1ccc(S(=O)(=O)N2CCCCC2)cc1NC(=O)c1cc(-c2cccs2)[n-]n1 (protonated)
COc1ccc(S(=O)(=O)N2CCCCC2)cc1NC(=O)c1cc(-c2cccs2)[n-]n1 (3D coordinates assigned)
COc1ccc(S(=O)(=O)N2CCCCC2)cc1NC(=O)c1cc(-c2cccs2)[n-]n1 (nonaromatic ring conformer: 117.72720702874457 kcal/mol)

>  <smiles>  (3) 
COc1ccc(S(=O)(=O)N2CCCCC2)cc1NC(=O)c1cc(-c2cccs2)[nH]n1

>  <score_type>  (3) 
oracle

>  <origin>  (3) 
adgpu

>  <m_score__min__energy>  (3) 
-11.5

>  <m_primary>  (3) 
energy

$$$$
3:0
     RDKit          3D

 37 39  0  0  0  0  0  0  0  0999 V2000
   -1.8290   17.5050  -33.0020 C   0  0  0  0  0  0  0  0  0  0  0  0
   -2.0700   18.8550  -33.5150 N   0  0  0  0  0  0  0  0  0  0  0  0
   -0.9870   19.5910  -34.1130 C   0  0  0  0  0  0  0  0  0  0  0  0
   -0.4910   20.7500  -33.4950 C   0  0  0  0  0  0  0  0  0  0  0  0
    0.5680   21.4590  -34.0720 C   0  0  0  0  0  0  0  0  0  0  0  0
    1.1490   21.0120  -35.2670 C   0  0  0  0  0  0  0  0  0  0  0  0
    2.4700   21.9150  -35.9990 S   0  0  0  0  0  0  0  0  0  0  0  0
    1.8910   23.4530  -36.5340 N   0  0  0  0  0  0  0  0  0  0  0  0
    3.5710   22.1140  -34.9950 O   0  0  0  0  0  0  0  0  0  0  0  0
    3.0210   21.1530  -37.1710 O   0  0  0  0  0  0  0  0  0  0  0  0
    0.6570   19.8540  -35.8840 C   0  0  0  0  0  0  0  0  0  0  0  0
   -0.4020   19.1450  -35.3070 C   0  0  0  0  0  0  0  0  0  0  0  0
   -3.3490   19.4800  -33.2850 C   0  0  0  0  0  0  0  0  0  0  0  0
   -3.4980   20.6240  -32.5850 N   0  0  0  0  0  0  0  0  0  0  0  0
   -4.7950   21.0400  -32.5340 C   0  0  0  0  0  0  0  0  0  0  0  0
   -5.1830   22.2740  -31.8020 C   0  0  0  0  0  0  0  0  0  0  0  0
   -6.5240   22.5380  -31.4550 C   0  0  0  0  0  0  0  0  0  0  0  0
   -6.8630   23.7080  -30.7690 C   0  0  0  0  0  0  0  0  0  0  0  0
   -5.8740   24.6310  -30.4210 C   0  0  0  0  0  0  0  0  0  0  0  0
   -4.5420   24.3860  -30.7630 C   0  0  0  0  0  0  0  0  0  0  0  0
   -3.5590   25.3050  -30.4180 O   0  0  0  0  0  0  0  0  0  0  0  0
   -4.1970   23.2180  -31.4490 C   0  0  0  0  0  0  0  0  0  0  0  0
   -5.6920   20.2090  -33.2130 C   0  0  0  0  0  0  0  0  0  0  0  0
   -4.8240   18.9370  -33.8880 S   0  0  0  0  0  0  0  0  0  0  0  0
   -1.8325   17.5246  -31.9022 H   0  0  0  0  0  0  0  0  0  0  0  0
   -2.6209   16.8302  -33.3592 H   0  0  0  0  0  0  0  0  0  0  0  0
   -0.8526   17.1459  -33.3592 H   0  0  0  0  0  0  0  0  0  0  0  0
   -0.9370   21.1021  -32.5531 H   0  0  0  0  0  0  0  0  0  0  0  0
    0.9462   22.3706  -33.5863 H   0  0  0  0  0  0  0  0  0  0  0  0
    2.5940   23.8240  -37.2120 H   0  0  0  0  0  0  0  0  0  0  0  0
    1.1048   19.5014  -36.8248 H   0  0  0  0  0  0  0  0  0  0  0  0
   -0.7780   18.2324  -35.7926 H   0  0  0  0  0  0  0  0  0  0  0  0
   -7.3097   21.8175  -31.7263 H   0  0  0  0  0  0  0  0  0  0  0  0
   -7.9123   23.9024  -30.5023 H   0  0  0  0  0  0  0  0  0  0  0  0
   -6.1436   25.5492  -29.8786 H   0  0  0  0  0  0  0  0  0  0  0  0
   -3.1460   23.0335  -31.7161 H   0  0  0  0  0  0  0  0  0  0  0  0
   -6.7785   20.3614  -33.2919 H   0  0  0  0  0  0  0  0  0  0  0  0
  1  2  1  0
  2  3  1  0
  3  4  2  0
  4  5  1  0
  5  6  2  0
  6  7  1  0
  7  8  1  0
  7  9  2  0
  7 10  2  0
  6 11  1  0
 11 12  2  0
  2 13  1  0
 13 14  2  0
 14 15  1  0
 15 16  1  0
 16 17  2  0
 17 18  1  0
 18 19  2  0
 19 20  1  0
 20 21  1  0
 20 22  2  0
 15 23  2  0
 23 24  1  0
 12  3  1  0
 24 13  1  0
 22 16  1  0
  1 25  1  0
  1 26  1  0
  1 27  1  0
  4 28  1  0
  5 29  1  0
  8 30  1  0
 11 31  1  0
 12 32  1  0
 17 33  1  0
 18 34  1  0
 19 35  1  0
 22 36  1  0
 23 37  1  0
M  CHG  2   8  -1  21  -1
M  END
>  <UniqueID>  (4) 
4

>  <SMILES>  (4) 
CN(c1ccc(S([NH-])(=O)=O)cc1)c1nc(-c2cccc([O-])c2)cs1

>  <Energy>  (4) 
76.76175367290621

>  <Genealogy>  (4) 
CN(c1ccc(S([NH-])(=O)=O)cc1)c1nc(-c2cccc([O-])c2)cs1 (protonated)
CN(c1ccc(S([NH-])(=O)=O)cc1)c1nc(-c2cccc([O-])c2)cs1 (3D coordinates assigned)
CN(c1ccc(S([NH-])(=O)=O)cc1)c1nc(-c2cccc([O-])c2)cs1 (optimized conformer: 76.76175367290621 kcal/mol)

>  <smiles>  (4) 
CN(c1ccc(S(N)(=O)=O)cc1)c1nc(-c2cccc(O)c2)cs1

>  <score_type>  (4) 
oracle

>  <origin>  (4) 
adgpu

>  <m_score__min__energy>  (4) 
-11.67

>  <m_primary>  (4) 
energy

$$$$
4:0
     RDKit          3D

 60 63  0  0  0  0  0  0  0  0999 V2000
   -6.9900   16.3541  -34.5477 H   0  0  0  0  0  0  0  0  0  0  0  0
   -6.5630   17.0690  -33.8290 C   0  0  0  0  0  0  0  0  0  0  0  0
   -7.3800   17.8870  -33.1120 N   0  0  0  0  0  0  0  0  0  0  0  0
   -6.8930   18.7430  -32.1670 C   0  0  0  0  0  0  0  0  0  0  0  0
   -7.7510   19.6650  -31.5360 O   0  0  0  0  0  0  0  0  0  0  0  0
   -7.5590   21.0480  -31.5820 C   0  0  0  0  0  0  0  0  0  0  0  0
   -8.6130   21.9320  -31.8710 C   0  0  0  0  0  0  0  0  0  0  0  0
   -9.6314   21.5447  -32.0222 H   0  0  0  0  0  0  0  0  0  0  0  0
   -8.3640   23.3060  -31.9660 C   0  0  0  0  0  0  0  0  0  0  0  0
   -9.1901   23.9984  -32.1854 H   0  0  0  0  0  0  0  0  0  0  0  0
   -7.0680   23.8030  -31.7830 C   0  0  0  0  0  0  0  0  0  0  0  0
   -6.8719   24.8785  -31.9047 H   0  0  0  0  0  0  0  0  0  0  0  0
   -6.0210   22.9380  -31.4460 C   0  0  0  0  0  0  0  0  0  0  0  0
   -4.6840   23.4490  -31.3410 N   0  0  0  0  0  0  0  0  0  0  0  0
   -4.2790   24.4840  -30.4340 C   0  0  0  0  0  0  0  0  0  0  0  0
   -4.2230   25.6700  -30.8510 O   0  0  0  0  0  0  0  0  0  0  0  0
   -3.8430   24.1880  -29.1010 N   0  0  0  0  0  0  0  0  0  0  0  0
   -2.7230   24.5850  -28.5740 C   0  0  0  0  0  0  0  0  0  0  0  0
   -1.7670   25.2780  -29.2250 N   0  0  0  0  0  0  0  0  0  0  0  0
   -0.8050   25.4680  -28.3640 O   0  0  0  0  0  0  0  0  0  0  0  0
   -1.0970   24.9350  -27.1960 C   0  0  0  0  0  0  0  0  0  0  0  0
   -0.1850   24.9580  -25.9870 C   0  0  0  0  0  0  0  0  0  0  0  0
   -0.1320   23.5510  -25.3590 C   0  0  0  0  0  0  0  0  0  0  0  0
   -0.1353   23.6385  -24.2625 H   0  0  0  0  0  0  0  0  0  0  0  0
   -1.0090   22.9715  -25.6832 H   0  0  0  0  0  0  0  0  0  0  0  0
    0.7861   23.0391  -25.6832 H   0  0  0  0  0  0  0  0  0  0  0  0
   -0.6980   25.9690  -24.9410 C   0  0  0  0  0  0  0  0  0  0  0  0
   -0.5017   25.5822  -23.9301 H   0  0  0  0  0  0  0  0  0  0  0  0
   -0.1781   26.9293  -25.0735 H   0  0  0  0  0  0  0  0  0  0  0  0
   -1.7800   26.1165  -25.0735 H   0  0  0  0  0  0  0  0  0  0  0  0
    1.2360   25.3750  -26.4200 C   0  0  0  0  0  0  0  0  0  0  0  0
    1.8530   25.5560  -25.5275 H   0  0  0  0  0  0  0  0  0  0  0  0
    1.6870   24.5713  -27.0206 H   0  0  0  0  0  0  0  0  0  0  0  0
    1.1812   26.2949  -27.0206 H   0  0  0  0  0  0  0  0  0  0  0  0
   -2.3370   24.3230  -27.2820 C   0  0  0  0  0  0  0  0  0  0  0  0
   -2.8797   23.7640  -26.5055 H   0  0  0  0  0  0  0  0  0  0  0  0
   -6.2760   21.5580  -31.3390 C   0  0  0  0  0  0  0  0  0  0  0  0
   -5.4609   20.8732  -31.0621 H   0  0  0  0  0  0  0  0  0  0  0  0
   -5.5190   18.7930  -31.9090 C   0  0  0  0  0  0  0  0  0  0  0  0
   -5.1214   19.4624  -31.1319 H   0  0  0  0  0  0  0  0  0  0  0  0
   -4.6590   17.9810  -32.6520 C   0  0  0  0  0  0  0  0  0  0  0  0
   -3.5770   18.0012  -32.4547 H   0  0  0  0  0  0  0  0  0  0  0  0
   -5.1730   17.1410  -33.6480 C   0  0  0  0  0  0  0  0  0  0  0  0
   -4.2590   16.6240  -34.6910 C   0  0  0  0  0  0  0  0  0  0  0  0
   -4.2590   17.2440  -35.8000 O   0  0  0  0  0  0  0  0  0  0  0  0
   -3.3740   15.4700  -34.4970 N   0  0  0  0  0  0  0  0  0  0  0  0
   -2.4770   15.7420  -34.9520 H   0  0  0  0  0  0  0  0  0  0  0  0
   -3.0440   15.1410  -33.0880 C   0  0  0  0  0  0  0  0  0  0  0  0
   -2.0641   14.6419  -33.0603 H   0  0  0  0  0  0  0  0  0  0  0  0
   -3.0296   16.0799  -32.5151 H   0  0  0  0  0  0  0  0  0  0  0  0
   -4.0960   14.2090  -32.4480 C   0  0  0  0  0  0  0  0  0  0  0  0
   -3.6774   13.1939  -32.3823 H   0  0  0  0  0  0  0  0  0  0  0  0
   -4.3386   14.6060  -31.4512 H   0  0  0  0  0  0  0  0  0  0  0  0
   -5.2930   14.1610  -33.2010 O   0  0  0  0  0  0  0  0  0  0  0  0
   -5.0540   13.6140  -34.4860 C   0  0  0  0  0  0  0  0  0  0  0  0
   -4.8431   12.5401  -34.3753 H   0  0  0  0  0  0  0  0  0  0  0  0
   -5.9533   13.7978  -35.0923 H   0  0  0  0  0  0  0  0  0  0  0  0
   -3.8650   14.2750  -35.2160 C   0  0  0  0  0  0  0  0  0  0  0  0
   -3.0456   13.5454  -35.2948 H   0  0  0  0  0  0  0  0  0  0  0  0
   -4.2091   14.5926  -36.2113 H   0  0  0  0  0  0  0  0  0  0  0  0
  1  2  1  0
  2  3  2  0
  3  4  1  0
  4  5  1  0
  5  6  1  0
  6  7  2  0
  7  8  1  0
  7  9  1  0
  9 10  1  0
  9 11  2  0
 11 12  1  0
 11 13  1  0
 13 14  1  0
 14 15  1  0
 15 16  2  0
 15 17  1  0
 17 18  2  0
 18 19  1  0
 19 20  1  0
 20 21  1  0
 21 22  1  0
 22 23  1  0
 23 24  1  0
 23 25  1  0
 23 26  1  0
 22 27  1  0
 27 28  1  0
 27 29  1  0
 27 30  1  0
 22 31  1  0
 31 32  1  0
 31 33  1  0
 31 34  1  0
 21 35  2  0
 35 36  1  0
 13 37  2  0
 37 38  1  0
  4 39  2  0
 39 40  1  0
 39 41  1  0
 41 42  1  0
 41 43  2  0
 43 44  1  0
 44 45  2  0
 44 46  1  0
 46 47  1  0
 46 48  1  0
 48 49  1  0
 48 50  1  0
 48 51  1  0
 51 52  1  0
 51 53  1  0
 51 54  1  0
 54 55  1  0
 55 56  1  0
 55 57  1  0
 55 58  1  0
 58 59  1  0
 58 60  1  0
 43  2  1  0
 58 46  1  0
 37  6  1  0
 35 18  1  0
M  CHG  3  14  -1  19  -1  46   1
M  END
>  <UniqueID>  (5) 
5

>  <SMILES>  (5) 
CC(C)(C)c1c/c(=N/C(=O)[N-]c2cccc(Oc3ccc(C(=O)[NH+]4CCOCC4)cn3)c2)[n-]o1

>  <Energy>  (5) 
134.29511823092682

>  <Genealogy>  (5) 
CC(C)(C)c1cc(=NC(=O)[N-]c2cccc(Oc3ccc(C(=O)[NH+]4CCOCC4)cn3)c2)[n-]o1 (protonated)
CC(C)(C)c1c/c(=N/C(=O)[N-]c2cccc(Oc3ccc(C(=O)[NH+]4CCOCC4)cn3)c2)[n-]o1 (cis-trans isomerization)
CC(C)(C)c1c/c(=N/C(=O)[N-]c2cccc(Oc3ccc(C(=O)[NH+]4CCOCC4)cn3)c2)[n-]o1 (3D coordinates assigned)
CC(C)(C)c1c/c(=N/C(=O)[N-]c2cccc(Oc3ccc(C(=O)[NH+]4CCOCC4)cn3)c2)[n-]o1 (nonaromatic ring conformer: 134.29511823092682 kcal/mol)

>  <smiles>  (5) 
CC(C)(C)c1cc(=NC(=O)Nc2cccc(Oc3ccc(C(=O)N4CCOCC4)cn3)c2)[nH]o1

>  <score_type>  (5) 
oracle

>  <origin>  (5) 
adgpu

>  <m_score__min__energy>  (5) 
-11.470000000000001

>  <m_primary>  (5) 
energy

$$$$
5:0
     RDKit          3D

 49 51  0  0  0  0  0  0  0  0999 V2000
   -9.4540   18.5140  -32.0680 C   0  0  0  0  0  0  0  0  0  0  0  0
   -8.0190   18.3450  -32.4960 C   0  0  0  0  0  0  0  0  0  0  0  0
   -7.5440   17.0590  -32.7910 C   0  0  0  0  0  0  0  0  0  0  0  0
   -6.2160   16.8510  -33.2050 C   0  0  0  0  0  0  0  0  0  0  0  0
   -5.7620   15.4460  -33.5040 C   0  0  0  0  0  0  0  0  0  0  0  0
   -5.3570   17.9630  -33.3650 C   0  0  0  0  0  0  0  0  0  0  0  0
   -3.6820   17.7810  -33.9220 S   0  0  0  0  0  0  0  0  0  0  0  0
   -3.1250   16.5020  -33.3630 O   0  0  0  0  0  0  0  0  0  0  0  0
   -3.6170   17.7330  -35.4230 O   0  0  0  0  0  0  0  0  0  0  0  0
   -2.6940   19.0980  -33.3720 N   0  0  0  0  0  0  0  0  0  0  0  0
   -3.1710   20.2430  -32.6520 C   0  0  0  0  0  0  0  0  0  0  0  0
   -3.6390   21.3440  -33.3780 C   0  0  0  0  0  0  0  0  0  0  0  0
   -4.0550   22.5040  -32.7170 C   0  0  0  0  0  0  0  0  0  0  0  0
   -4.0140   22.5710  -31.3190 C   0  0  0  0  0  0  0  0  0  0  0  0
   -4.4740   24.0540  -30.4900 S   0  0  0  0  0  0  0  0  0  0  0  0
   -5.3000   24.9270  -31.3950 O   0  0  0  0  0  0  0  0  0  0  0  0
   -5.2800   23.7000  -29.2720 O   0  0  0  0  0  0  0  0  0  0  0  0
   -3.0590   24.9300  -29.9990 N   0  0  0  0  0  0  0  0  0  0  0  0
   -2.2230   24.5930  -28.8820 C   0  0  0  0  0  0  0  0  0  0  0  0
   -2.2750   23.3270  -28.2660 C   0  0  0  0  0  0  0  0  0  0  0  0
   -1.4500   23.0400  -27.1750 C   0  0  0  0  0  0  0  0  0  0  0  0
   -0.5660   24.0090  -26.6900 C   0  0  0  0  0  0  0  0  0  0  0  0
   -0.4960   25.2610  -27.3060 C   0  0  0  0  0  0  0  0  0  0  0  0
   -1.3190   25.5530  -28.4000 C   0  0  0  0  0  0  0  0  0  0  0  0
   -1.2420   26.8070  -28.9990 O   0  0  0  0  0  0  0  0  0  0  0  0
   -3.5740   21.4600  -30.5870 C   0  0  0  0  0  0  0  0  0  0  0  0
   -3.1510   20.3050  -31.2470 C   0  0  0  0  0  0  0  0  0  0  0  0
   -5.8360   19.2470  -33.0650 C   0  0  0  0  0  0  0  0  0  0  0  0
   -7.1610   19.4550  -32.6550 C   0  0  0  0  0  0  0  0  0  0  0  0
   -7.6270   20.8560  -32.3570 C   0  0  0  0  0  0  0  0  0  0  0  0
   -9.5106   18.5207  -30.9695 H   0  0  0  0  0  0  0  0  0  0  0  0
   -9.8444   19.4643  -32.4611 H   0  0  0  0  0  0  0  0  0  0  0  0
  -10.0545   17.6804  -32.4611 H   0  0  0  0  0  0  0  0  0  0  0  0
   -8.2219   16.1978  -32.6970 H   0  0  0  0  0  0  0  0  0  0  0  0
   -5.5882   14.9082  -32.5603 H   0  0  0  0  0  0  0  0  0  0  0  0
   -6.5378   14.9258  -34.0850 H   0  0  0  0  0  0  0  0  0  0  0  0
   -4.8285   15.4781  -34.0850 H   0  0  0  0  0  0  0  0  0  0  0  0
   -3.6799   21.2967  -34.4762 H   0  0  0  0  0  0  0  0  0  0  0  0
   -4.4155   23.3663  -33.2970 H   0  0  0  0  0  0  0  0  0  0  0  0
   -2.9677   22.5613  -28.6453 H   0  0  0  0  0  0  0  0  0  0  0  0
   -1.4961   22.0503  -26.6970 H   0  0  0  0  0  0  0  0  0  0  0  0
    0.0740   23.7855  -25.8237 H   0  0  0  0  0  0  0  0  0  0  0  0
    0.2073   26.0189  -26.9305 H   0  0  0  0  0  0  0  0  0  0  0  0
   -3.5619   21.4982  -29.4877 H   0  0  0  0  0  0  0  0  0  0  0  0
   -2.8005   19.4395  -30.6657 H   0  0  0  0  0  0  0  0  0  0  0  0
   -5.1581   20.1088  -33.1532 H   0  0  0  0  0  0  0  0  0  0  0  0
   -7.6757   21.0024  -31.2679 H   0  0  0  0  0  0  0  0  0  0  0  0
   -6.9206   21.5779  -32.7928 H   0  0  0  0  0  0  0  0  0  0  0  0
   -8.6251   21.0109  -32.7928 H   0  0  0  0  0  0  0  0  0  0  0  0
  1  2  1  0
  2  3  2  0
  3  4  1  0
  4  5  1  0
  4  6  2  0
  6  7  1  0
  7  8  2  0
  7  9  2  0
  7 10  1  0
 10 11  1  0
 11 12  2  0
 12 13  1  0
 13 14  2  0
 14 15  1  0
 15 16  2  0
 15 17  2  0
 15 18  1  0
 18 19  1  0
 19 20  2  0
 20 21  1  0
 21 22  2  0
 22 23  1  0
 23 24  2  0
 24 25  1  0
 14 26  1  0
 26 27  2  0
  6 28  1  0
 28 29  2  0
 29 30  1  0
 29  2  1  0
 27 11  1  0
 24 19  1  0
  1 31  1  0
  1 32  1  0
  1 33  1  0
  3 34  1  0
  5 35  1  0
  5 36  1  0
  5 37  1  0
 12 38  1  0
 13 39  1  0
 20 40  1  0
 21 41  1  0
 22 42  1  0
 23 43  1  0
 26 44  1  0
 27 45  1  0
 28 46  1  0
 30 47  1  0
 30 48  1  0
 30 49  1  0
M  CHG  3  10  -1  18  -1  25  -1
M  END
>  <UniqueID>  (6) 
6

>  <SMILES>  (6) 
Cc1cc(C)c(S(=O)(=O)[N-]c2ccc(S(=O)(=O)[N-]c3ccccc3[O-])cc2)cc1C

>  <Energy>  (6) 
57.994804785007055

>  <Genealogy>  (6) 
Cc1cc(C)c(S(=O)(=O)[N-]c2ccc(S(=O)(=O)[N-]c3ccccc3[O-])cc2)cc1C (protonated)
Cc1cc(C)c(S(=O)(=O)[N-]c2ccc(S(=O)(=O)[N-]c3ccccc3[O-])cc2)cc1C (3D coordinates assigned)
Cc1cc(C)c(S(=O)(=O)[N-]c2ccc(S(=O)(=O)[N-]c3ccccc3[O-])cc2)cc1C (optimized conformer: 57.994804785007055 kcal/mol)

>  <smiles>  (6) 
Cc1cc(C)c(S(=O)(=O)Nc2ccc(S(=O)(=O)Nc3ccccc3O)cc2)cc1C

>  <score_type>  (6) 
oracle

>  <origin>  (6) 
adgpu

>  <m_score__min__energy>  (6) 
-14.279999999999999

>  <m_primary>  (6) 
energy

$$$$
6:0
     RDKit          3D

 51 53  0  0  0  0  0  0  0  0999 V2000
   -5.0360   25.0490  -30.4470 C   0  0  0  0  0  0  0  0  0  0  0  0
   -3.6280   25.2620  -30.4080 O   0  0  0  0  0  0  0  0  0  0  0  0
   -2.7210   24.4450  -29.7140 C   0  0  0  0  0  0  0  0  0  0  0  0
   -2.8100   23.0400  -29.7300 C   0  0  0  0  0  0  0  0  0  0  0  0
   -1.8900   22.2570  -29.0130 C   0  0  0  0  0  0  0  0  0  0  0  0
   -1.9710   20.7560  -29.0630 C   0  0  0  0  0  0  0  0  0  0  0  0
   -2.4420   20.3080  -30.4110 C   0  0  0  0  0  0  0  0  0  0  0  0
   -3.5690   20.6910  -30.8290 O   0  0  0  0  0  0  0  0  0  0  0  0
   -1.5750   19.5340  -31.2550 N   0  0  0  0  0  0  0  0  0  0  0  0
   -2.0030   18.8700  -32.4570 C   0  0  0  0  0  0  0  0  0  0  0  0
   -1.0410   18.3100  -33.3120 C   0  0  0  0  0  0  0  0  0  0  0  0
   -1.4320   17.6280  -34.4660 C   0  0  0  0  0  0  0  0  0  0  0  0
   -2.7880   17.4820  -34.7690 C   0  0  0  0  0  0  0  0  0  0  0  0
   -3.7630   18.0170  -33.9130 C   0  0  0  0  0  0  0  0  0  0  0  0
   -5.4790   17.7950  -34.2670 S   0  0  0  0  0  0  0  0  0  0  0  0
   -5.7740   18.3460  -35.6330 O   0  0  0  0  0  0  0  0  0  0  0  0
   -5.7990   16.3260  -34.2760 O   0  0  0  0  0  0  0  0  0  0  0  0
   -6.4870   18.6010  -33.0880 N   0  0  0  0  0  0  0  0  0  0  0  0
   -6.8610   19.9460  -33.5720 C   0  0  0  0  0  0  0  0  0  0  0  0
   -7.9630   20.5970  -32.7050 C   0  0  0  0  0  0  0  0  0  0  0  0
   -8.1500   19.8660  -31.3740 C   0  0  0  0  0  0  0  0  0  0  0  0
   -8.4480   18.3750  -31.5970 C   0  0  0  0  0  0  0  0  0  0  0  0
   -7.6830   17.7940  -32.8000 C   0  0  0  0  0  0  0  0  0  0  0  0
   -3.3670   18.7070  -32.7590 C   0  0  0  0  0  0  0  0  0  0  0  0
   -0.8610   22.8880  -28.2940 C   0  0  0  0  0  0  0  0  0  0  0  0
   -0.7670   24.2820  -28.2790 C   0  0  0  0  0  0  0  0  0  0  0  0
   -1.6920   25.0570  -28.9840 C   0  0  0  0  0  0  0  0  0  0  0  0
   -1.5860   26.4440  -28.9570 O   0  0  0  0  0  0  0  0  0  0  0  0
   -5.4265   24.9899  -29.4203 H   0  0  0  0  0  0  0  0  0  0  0  0
   -5.5187   25.8843  -30.9754 H   0  0  0  0  0  0  0  0  0  0  0  0
   -5.2500   24.1083  -30.9754 H   0  0  0  0  0  0  0  0  0  0  0  0
   -3.6071   22.5509  -30.3092 H   0  0  0  0  0  0  0  0  0  0  0  0
   -0.9753   20.3317  -28.8666 H   0  0  0  0  0  0  0  0  0  0  0  0
   -2.6841   20.4096  -28.3005 H   0  0  0  0  0  0  0  0  0  0  0  0
   -0.5580   19.5120  -31.0180 H   0  0  0  0  0  0  0  0  0  0  0  0
    0.0278   18.4090  -33.0714 H   0  0  0  0  0  0  0  0  0  0  0  0
   -0.6708   17.2048  -35.1379 H   0  0  0  0  0  0  0  0  0  0  0  0
   -3.0921   16.9465  -35.6805 H   0  0  0  0  0  0  0  0  0  0  0  0
   -5.9691   20.5896  -33.5521 H   0  0  0  0  0  0  0  0  0  0  0  0
   -7.2563   19.8380  -34.5928 H   0  0  0  0  0  0  0  0  0  0  0  0
   -7.6840   21.6412  -32.5008 H   0  0  0  0  0  0  0  0  0  0  0  0
   -8.9108   20.5404  -33.2604 H   0  0  0  0  0  0  0  0  0  0  0  0
   -7.2301   19.9631  -30.7788 H   0  0  0  0  0  0  0  0  0  0  0  0
   -9.0028   20.3168  -30.8454 H   0  0  0  0  0  0  0  0  0  0  0  0
   -8.1591   17.8186  -30.6932 H   0  0  0  0  0  0  0  0  0  0  0  0
   -9.5235   18.2769  -31.8060 H   0  0  0  0  0  0  0  0  0  0  0  0
   -7.3772   16.7625  -32.5707 H   0  0  0  0  0  0  0  0  0  0  0  0
   -8.3418   17.8071  -33.6808 H   0  0  0  0  0  0  0  0  0  0  0  0
   -4.1290   19.1243  -32.0842 H   0  0  0  0  0  0  0  0  0  0  0  0
   -0.1273   22.2829  -27.7413 H   0  0  0  0  0  0  0  0  0  0  0  0
    0.0377   24.7711  -27.7104 H   0  0  0  0  0  0  0  0  0  0  0  0
  1  2  1  0
  2  3  1  0
  3  4  2  0
  4  5  1  0
  5  6  1  0
  6  7  1  0
  7  8  2  0
  7  9  1  0
  9 10  1  0
 10 11  2  0
 11 12  1  0
 12 13  2  0
 13 14  1  0
 14 15  1  0
 15 16  2  0
 15 17  2  0
 15 18  1  0
 18 19  1  0
 19 20  1  0
 20 21  1  0
 21 22  1  0
 22 23  1  0
 14 24  2  0
  5 25  2  0
 25 26  1  0
 26 27  2  0
 27 28  1  0
 27  3  1  0
 24 10  1  0
 23 18  1  0
  1 29  1  0
  1 30  1  0
  1 31  1  0
  4 32  1  0
  6 33  1  0
  6 34  1  0
  9 35  1  0
 11 36  1  0
 12 37  1  0
 13 38  1  0
 19 39  1  0
 19 40  1  0
 20 41  1  0
 20 42  1  0
 21 43  1  0
 21 44  1  0
 22 45  1  0
 22 46  1  0
 23 47  1  0
 23 48  1  0
 24 49  1  0
 25 50  1  0
 26 51  1  0
M  CHG  1  28  -1
M  END
>  <UniqueID>  (7) 
7

>  <SMILES>  (7) 
COc1cc(CC(=O)Nc2cccc(S(=O)(=O)N3CCCCC3)c2)ccc1[O-]

>  <Energy>  (7) 
55.041876231530615

>  <Genealogy>  (7) 
COc1cc(CC(=O)Nc2cccc(S(=O)(=O)N3CCCCC3)c2)ccc1[O-] (protonated)
COc1cc(CC(=O)Nc2cccc(S(=O)(=O)N3CCCCC3)c2)ccc1[O-] (3D coordinates assigned)
COc1cc(CC(=O)Nc2cccc(S(=O)(=O)N3CCCCC3)c2)ccc1[O-] (nonaromatic ring conformer: 55.041876231530615 kcal/mol)

>  <smiles>  (7) 
COc1cc(CC(=O)Nc2cccc(S(=O)(=O)N3CCCCC3)c2)ccc1O

>  <score_type>  (7) 
oracle

>  <origin>  (7) 
adgpu

>  <m_score__min__energy>  (7) 
-11.970000000000001

>  <m_primary>  (7) 
energy

$$$$
7:0
     RDKit          3D

 51 53  0  0  0  0  0  0  0  0999 V2000
    1.9439   20.5069  -32.4877 H   0  0  0  0  0  0  0  0  0  0  0  0
    1.2440   19.6590  -32.4510 C   0  0  0  0  0  0  0  0  0  0  0  0
    0.3351   19.6689  -33.0704 H   0  0  0  0  0  0  0  0  0  0  0  0
    1.4980   18.6170  -31.6540 C   0  0  0  0  0  0  0  0  0  0  0  0
    2.4113   18.6226  -31.0410 H   0  0  0  0  0  0  0  0  0  0  0  0
    0.5690   17.4360  -31.5720 C   0  0  0  0  0  0  0  0  0  0  0  0
   -0.4248   17.7859  -31.2560 H   0  0  0  0  0  0  0  0  0  0  0  0
    0.5250   16.9658  -32.5655 H   0  0  0  0  0  0  0  0  0  0  0  0
    1.0660   16.3920  -30.5740 C   0  0  0  0  0  0  0  0  0  0  0  0
    0.2350   15.7251  -30.3007 H   0  0  0  0  0  0  0  0  0  0  0  0
    1.8767   15.8092  -31.0357 H   0  0  0  0  0  0  0  0  0  0  0  0
    1.5610   17.0330  -29.4020 O   0  0  0  0  0  0  0  0  0  0  0  0
    1.2500   16.5950  -28.1120 C   0  0  0  0  0  0  0  0  0  0  0  0
    1.9430   15.6940  -27.5680 O   0  0  0  0  0  0  0  0  0  0  0  0
    0.1000   17.1500  -27.4590 N   0  0  0  0  0  0  0  0  0  0  0  0
   -0.5760   18.2180  -27.7720 C   0  0  0  0  0  0  0  0  0  0  0  0
   -1.8700   18.7760  -26.8590 S   0  0  0  0  0  0  0  0  0  0  0  0
   -2.1910   20.0690  -27.8970 C   0  0  0  0  0  0  0  0  0  0  0  0
   -3.2150   21.1390  -27.6460 C   0  0  0  0  0  0  0  0  0  0  0  0
   -4.1284   20.9018  -28.2111 H   0  0  0  0  0  0  0  0  0  0  0  0
   -3.4262   21.1743  -26.5670 H   0  0  0  0  0  0  0  0  0  0  0  0
   -2.7060   22.4880  -28.0780 C   0  0  0  0  0  0  0  0  0  0  0  0
   -1.4920   22.9790  -27.5740 C   0  0  0  0  0  0  0  0  0  0  0  0
   -0.9235   22.3860  -26.8425 H   0  0  0  0  0  0  0  0  0  0  0  0
   -1.0020   24.2160  -27.9960 C   0  0  0  0  0  0  0  0  0  0  0  0
   -0.0526   24.5968  -27.5914 H   0  0  0  0  0  0  0  0  0  0  0  0
   -1.7140   24.9720  -28.9310 C   0  0  0  0  0  0  0  0  0  0  0  0
   -1.2140   26.2020  -29.3420 O   0  0  0  0  0  0  0  0  0  0  0  0
   -2.9230   24.4950  -29.4560 C   0  0  0  0  0  0  0  0  0  0  0  0
   -3.6030   25.2840  -30.3970 O   0  0  0  0  0  0  0  0  0  0  0  0
   -5.0170   25.2970  -30.5660 C   0  0  0  0  0  0  0  0  0  0  0  0
   -5.5041   25.3015  -29.5797 H   0  0  0  0  0  0  0  0  0  0  0  0
   -5.3113   26.1979  -31.1244 H   0  0  0  0  0  0  0  0  0  0  0  0
   -5.3278   24.4017  -31.1244 H   0  0  0  0  0  0  0  0  0  0  0  0
   -3.4150   23.2450  -29.0260 C   0  0  0  0  0  0  0  0  0  0  0  0
   -4.3605   22.8600  -29.4357 H   0  0  0  0  0  0  0  0  0  0  0  0
   -1.2480   20.0340  -28.9280 C   0  0  0  0  0  0  0  0  0  0  0  0
   -1.1600   21.2440  -30.2520 S   0  0  0  0  0  0  0  0  0  0  0  0
   -2.4400   20.4360  -31.2110 C   0  0  0  0  0  0  0  0  0  0  0  0
   -2.0940   19.5550  -32.2440 C   0  0  0  0  0  0  0  0  0  0  0  0
   -1.0350   19.3530  -32.4623 H   0  0  0  0  0  0  0  0  0  0  0  0
   -3.0940   18.9320  -32.9980 C   0  0  0  0  0  0  0  0  0  0  0  0
   -2.8205   18.2455  -33.8128 H   0  0  0  0  0  0  0  0  0  0  0  0
   -4.4410   19.1810  -32.7170 C   0  0  0  0  0  0  0  0  0  0  0  0
   -5.2266   18.6944  -33.3137 H   0  0  0  0  0  0  0  0  0  0  0  0
   -4.7890   20.0490  -31.6770 C   0  0  0  0  0  0  0  0  0  0  0  0
   -5.8486   20.2411  -31.4526 H   0  0  0  0  0  0  0  0  0  0  0  0
   -3.7900   20.6730  -30.9220 C   0  0  0  0  0  0  0  0  0  0  0  0
   -4.0650   21.3506  -30.1003 H   0  0  0  0  0  0  0  0  0  0  0  0
   -0.3640   19.0000  -28.8590 N   0  0  0  0  0  0  0  0  0  0  0  0
    0.3620   18.8510  -29.5890 H   0  0  0  0  0  0  0  0  0  0  0  0
  1  2  1  0
  2  3  1  0
  2  4  2  0
  4  5  1  0
  4  6  1  0
  6  7  1  0
  6  8  1  0
  6  9  1  0
  9 10  1  0
  9 11  1  0
  9 12  1  0
 12 13  1  0
 13 14  2  0
 13 15  1  0
 15 16  2  0
 16 17  1  0
 17 18  1  0
 18 19  1  0
 19 20  1  0
 19 21  1  0
 19 22  1  0
 22 23  2  0
 23 24  1  0
 23 25  1  0
 25 26  1  0
 25 27  2  0
 27 28  1  0
 27 29  1  0
 29 30  1  0
 30 31  1  0
 31 32  1  0
 31 33  1  0
 31 34  1  0
 29 35  2  0
 35 36  1  0
 18 37  2  0
 37 38  1  0
 38 39  1  0
 39 40  2  0
 40 41  1  0
 40 42  1  0
 42 43  1  0
 42 44  2  0
 44 45  1  0
 44 46  1  0
 46 47  1  0
 46 48  2  0
 48 49  1  0
 37 50  1  0
 50 51  1  0
 50 16  1  0
 35 22  1  0
 48 39  1  0
M  CHG  1  28  -1
M  END
>  <UniqueID>  (8) 
8

>  <SMILES>  (8) 
C=CCCOC(=O)/N=c1\[nH]c(Sc2ccccc2)c(Cc2ccc([O-])c(OC)c2)s1

>  <Energy>  (8) 
73.9947494603924

>  <Genealogy>  (8) 
C=CCCOC(=O)N=c1[nH]c(Sc2ccccc2)c(Cc2ccc([O-])c(OC)c2)s1 (protonated)
C=CCCOC(=O)/N=c1\[nH]c(Sc2ccccc2)c(Cc2ccc([O-])c(OC)c2)s1 (cis-trans isomerization)
C=CCCOC(=O)/N=c1\[nH]c(Sc2ccccc2)c(Cc2ccc([O-])c(OC)c2)s1 (3D coordinates assigned)
C=CCCOC(=O)/N=c1\[nH]c(Sc2ccccc2)c(Cc2ccc([O-])c(OC)c2)s1 (optimized conformer: 73.9947494603924 kcal/mol)

>  <smiles>  (8) 
C=CCCOC(=O)N=c1[nH]c(Sc2ccccc2)c(Cc2ccc(O)c(OC)c2)s1

>  <score_type>  (8) 
oracle

>  <origin>  (8) 
adgpu

>  <m_score__min__energy>  (8) 
-11.390000000000001

>  <m_primary>  (8) 
energy

$$$$
8:0
     RDKit          3D

 34 35  0  0  0  0  0  0  0  0999 V2000
   -0.1550   22.2790  -26.9320 C   0  0  0  0  0  0  0  0  0  0  0  0
   -0.2220   23.3650  -27.9590 C   0  0  0  0  0  0  0  0  0  0  0  0
    0.8180   24.0370  -28.1930 O   0  0  0  0  0  0  0  0  0  0  0  0
   -1.4610   23.6320  -28.7280 C   0  0  0  0  0  0  0  0  0  0  0  0
   -1.9110   24.8710  -29.1770 C   0  0  0  0  0  0  0  0  0  0  0  0
   -1.3280   26.1220  -28.9800 O   0  0  0  0  0  0  0  0  0  0  0  0
   -3.0870   24.6500  -29.8570 C   0  0  0  0  0  0  0  0  0  0  0  0
   -3.8590   25.6210  -30.4830 O   0  0  0  0  0  0  0  0  0  0  0  0
   -3.3400   23.2920  -29.8150 C   0  0  0  0  0  0  0  0  0  0  0  0
   -4.5000   22.5970  -30.4190 C   0  0  0  0  0  0  0  0  0  0  0  0
   -4.3460   21.3310  -31.0000 C   0  0  0  0  0  0  0  0  0  0  0  0
   -5.4380   20.6710  -31.5690 C   0  0  0  0  0  0  0  0  0  0  0  0
   -6.7190   21.2620  -31.5700 C   0  0  0  0  0  0  0  0  0  0  0  0
   -7.8550   20.5790  -32.1610 N   0  0  0  0  0  0  0  0  0  0  0  0
   -7.6650   19.3510  -32.9450 C   0  0  0  0  0  0  0  0  0  0  0  0
   -9.2150   21.1030  -31.9850 C   0  0  0  0  0  0  0  0  0  0  0  0
   -6.8650   22.5350  -30.9790 C   0  0  0  0  0  0  0  0  0  0  0  0
   -5.7700   23.1930  -30.4130 C   0  0  0  0  0  0  0  0  0  0  0  0
   -2.3460   22.6870  -29.1280 N   0  0  0  0  0  0  0  0  0  0  0  0
   -2.2700   21.3390  -28.8560 O   0  0  0  0  0  0  0  0  0  0  0  0
   -0.1824   22.7234  -25.9261 H   0  0  0  0  0  0  0  0  0  0  0  0
   -1.0131   21.6023  -27.0574 H   0  0  0  0  0  0  0  0  0  0  0  0
    0.7798   21.7129  -27.0574 H   0  0  0  0  0  0  0  0  0  0  0  0
   -1.2490   26.8060  -29.7190 H   0  0  0  0  0  0  0  0  0  0  0  0
   -3.3557   20.8523  -31.0081 H   0  0  0  0  0  0  0  0  0  0  0  0
   -5.2973   19.6784  -32.0217 H   0  0  0  0  0  0  0  0  0  0  0  0
   -7.5330   18.4977  -32.2635 H   0  0  0  0  0  0  0  0  0  0  0  0
   -8.5475   19.1807  -33.5792 H   0  0  0  0  0  0  0  0  0  0  0  0
   -6.7723   19.4553  -33.5792 H   0  0  0  0  0  0  0  0  0  0  0  0
   -9.4387   21.1892  -30.9114 H   0  0  0  0  0  0  0  0  0  0  0  0
   -9.2898   22.0943  -32.4558 H   0  0  0  0  0  0  0  0  0  0  0  0
   -9.9356   20.4181  -32.4558 H   0  0  0  0  0  0  0  0  0  0  0  0
   -7.8542   23.0158  -30.9637 H   0  0  0  0  0  0  0  0  0  0  0  0
   -5.9048   24.1859  -29.9592 H   0  0  0  0  0  0  0  0  0  0  0  0
  1  2  1  0
  2  3  2  0
  2  4  1  0
  4  5  2  0
  5  6  1  0
  5  7  1  0
  7  8  1  0
  7  9  2  0
  9 10  1  0
 10 11  2  0
 11 12  1  0
 12 13  2  0
 13 14  1  0
 14 15  1  0
 14 16  1  0
 13 17  1  0
 17 18  2  0
  9 19  1  0
 19 20  1  0
 19  4  1  0
 18 10  1  0
  1 21  1  0
  1 22  1  0
  1 23  1  0
  6 24  1  0
 11 25  1  0
 12 26  1  0
 15 27  1  0
 15 28  1  0
 15 29  1  0
 16 30  1  0
 16 31  1  0
 16 32  1  0
 17 33  1  0
 18 34  1  0
M  CHG  2   8  -1  20  -1
M  END
>  <UniqueID>  (9) 
9

>  <SMILES>  (9) 
CC(=O)c1c(O)c([O-])c(-c2ccc(N(C)C)cc2)n1[O-]

>  <Energy>  (9) 
72.04892119890422

>  <Genealogy>  (9) 
CC(=O)c1c(O)c([O-])c(-c2ccc(N(C)C)cc2)n1[O-] (protonated)
CC(=O)c1c(O)c([O-])c(-c2ccc(N(C)C)cc2)n1[O-] (3D coordinates assigned)
CC(=O)c1c(O)c([O-])c(-c2ccc(N(C)C)cc2)n1[O-] (optimized conformer: 72.04892119890422 kcal/mol)

>  <smiles>  (9) 
CC(=O)c1c(O)c(O)c(-c2ccc(N(C)C)cc2)n1O

>  <score_type>  (9) 
oracle

>  <origin>  (9) 
adgpu

>  <m_score__min__energy>  (9) 
-10.49

>  <m_primary>  (9) 
energy

$$$$
9:0
     RDKit          3D

 49 53  0  0  0  0  0  0  0  0999 V2000
   -1.3326   21.0868  -31.9104 H   0  0  0  0  0  0  0  0  0  0  0  0
   -1.4250   21.5770  -30.9300 C   0  0  0  0  0  0  0  0  0  0  0  0
   -2.3900   22.5120  -30.7270 N   0  0  0  0  0  0  0  0  0  0  0  0
   -2.5400   23.1500  -29.5320 C   0  0  0  0  0  0  0  0  0  0  0  0
   -3.4900   24.0230  -29.3500 N   0  0  0  0  0  0  0  0  0  0  0  0
   -4.4150   24.4840  -30.3500 C   0  0  0  0  0  0  0  0  0  0  0  0
   -4.2850   25.6500  -30.8070 O   0  0  0  0  0  0  0  0  0  0  0  0
   -5.4860   23.6150  -30.8770 C   0  0  0  0  0  0  0  0  0  0  0  0
   -6.6290   23.3560  -30.1050 C   0  0  0  0  0  0  0  0  0  0  0  0
   -6.7640   23.8635  -29.1385 H   0  0  0  0  0  0  0  0  0  0  0  0
   -7.5970   22.4550  -30.5600 C   0  0  0  0  0  0  0  0  0  0  0  0
   -8.4766   22.2356  -29.9370 H   0  0  0  0  0  0  0  0  0  0  0  0
   -7.4510   21.8290  -31.8090 C   0  0  0  0  0  0  0  0  0  0  0  0
   -8.4200   20.7610  -32.2320 C   0  0  0  0  0  0  0  0  0  0  0  0
   -9.4179   20.9953  -31.8328 H   0  0  0  0  0  0  0  0  0  0  0  0
   -8.4582   20.7218  -33.3306 H   0  0  0  0  0  0  0  0  0  0  0  0
   -7.8770   19.1370  -31.5910 S   0  0  0  0  0  0  0  0  0  0  0  0
   -6.4290   19.0340  -32.6410 C   0  0  0  0  0  0  0  0  0  0  0  0
   -6.4840   18.7630  -33.9560 N   0  0  0  0  0  0  0  0  0  0  0  0
   -5.2400   18.8130  -34.4000 N   0  0  0  0  0  0  0  0  0  0  0  0
   -4.4640   19.1170  -33.3430 C   0  0  0  0  0  0  0  0  0  0  0  0
   -3.0090   19.3530  -33.4330 C   0  0  0  0  0  0  0  0  0  0  0  0
   -2.0930   18.3160  -33.1170 C   0  0  0  0  0  0  0  0  0  0  0  0
   -2.4698   17.3401  -32.7770 H   0  0  0  0  0  0  0  0  0  0  0  0
   -0.7080   18.5260  -33.2350 C   0  0  0  0  0  0  0  0  0  0  0  0
    0.0098   17.7311  -32.9840 H   0  0  0  0  0  0  0  0  0  0  0  0
   -0.2740   19.7700  -33.6790 C   0  0  0  0  0  0  0  0  0  0  0  0
   -1.1420   20.7650  -33.9890 C   0  0  0  0  0  0  0  0  0  0  0  0
   -2.5190   20.6040  -33.8770 C   0  0  0  0  0  0  0  0  0  0  0  0
   -3.2070   21.4252  -34.1263 H   0  0  0  0  0  0  0  0  0  0  0  0
   -0.4380   21.8720  -34.4180 O   0  0  0  0  0  0  0  0  0  0  0  0
    0.9610   21.5560  -34.3710 C   0  0  0  0  0  0  0  0  0  0  0  0
    1.4084   21.6316  -35.3731 H   0  0  0  0  0  0  0  0  0  0  0  0
    1.5197   22.2482  -33.7239 H   0  0  0  0  0  0  0  0  0  0  0  0
    1.0200   20.2050  -33.8930 O   0  0  0  0  0  0  0  0  0  0  0  0
   -5.1750   19.2590  -32.2060 N   0  0  0  0  0  0  0  0  0  0  0  0
   -6.3370   22.1380  -32.6070 C   0  0  0  0  0  0  0  0  0  0  0  0
   -6.2368   21.6870  -33.6053 H   0  0  0  0  0  0  0  0  0  0  0  0
   -5.3560   23.0150  -32.1390 C   0  0  0  0  0  0  0  0  0  0  0  0
   -4.4773   23.2365  -32.7625 H   0  0  0  0  0  0  0  0  0  0  0  0
   -1.6880   22.8290  -28.4690 C   0  0  0  0  0  0  0  0  0  0  0  0
   -1.8123   23.3222  -27.4936 H   0  0  0  0  0  0  0  0  0  0  0  0
   -0.6750   21.8760  -28.6520 C   0  0  0  0  0  0  0  0  0  0  0  0
    0.2270   21.4990  -27.5130 C   0  0  0  0  0  0  0  0  0  0  0  0
   -0.2788   21.7104  -26.5593 H   0  0  0  0  0  0  0  0  0  0  0  0
    0.4640   20.4265  -27.5725 H   0  0  0  0  0  0  0  0  0  0  0  0
    1.1567   22.0838  -27.5725 H   0  0  0  0  0  0  0  0  0  0  0  0
   -0.5510   21.2380  -29.8960 C   0  0  0  0  0  0  0  0  0  0  0  0
    0.4060   20.2990  -30.1050 F   0  0  0  0  0  0  0  0  0  0  0  0
  1  2  1  0
  2  3  1  0
  3  4  1  0
  4  5  2  0
  5  6  1  0
  6  7  2  0
  6  8  1  0
  8  9  2  0
  9 10  1  0
  9 11  1  0
 11 12  1  0
 11 13  2  0
 13 14  1  0
 14 15  1  0
 14 16  1  0
 14 17  1  0
 17 18  1  0
 18 19  2  0
 19 20  1  0
 20 21  1  0
 21 22  1  0
 22 23  2  0
 23 24  1  0
 23 25  1  0
 25 26  1  0
 25 27  2  0
 27 28  1  0
 28 29  2  0
 29 30  1  0
 28 31  1  0
 31 32  1  0
 32 33  1  0
 32 34  1  0
 32 35  1  0
 21 36  2  0
 13 37  1  0
 37 38  1  0
 37 39  2  0
 39 40  1  0
  4 41  1  0
 41 42  1  0
 41 43  2  0
 43 44  1  0
 44 45  1  0
 44 46  1  0
 44 47  1  0
 43 48  1  0
 48 49  1  0
 48  2  2  0
 39  8  1  0
 36 18  1  0
 29 22  1  0
 35 27  1  0
M  CHG  2   3  -1  20  -1
M  END
>  <UniqueID>  (10) 
10

>  <SMILES>  (10) 
Cc1c/c(=N/C(=O)c2ccc(CSc3n[n-]c(-c4ccc5c(c4)OCO5)n3)cc2)[n-]cc1F

>  <Energy>  (10) 
115.4542426489841

>  <Genealogy>  (10) 
Cc1cc(=NC(=O)c2ccc(CSc3n[n-]c(-c4ccc5c(c4)OCO5)n3)cc2)[n-]cc1F (protonated)
Cc1c/c(=N/C(=O)c2ccc(CSc3n[n-]c(-c4ccc5c(c4)OCO5)n3)cc2)[n-]cc1F (cis-trans isomerization)
Cc1c/c(=N/C(=O)c2ccc(CSc3n[n-]c(-c4ccc5c(c4)OCO5)n3)cc2)[n-]cc1F (3D coordinates assigned)
Cc1c/c(=N/C(=O)c2ccc(CSc3n[n-]c(-c4ccc5c(c4)OCO5)n3)cc2)[n-]cc1F (nonaromatic ring conformer: 115.4542426489841 kcal/mol)

>  <smiles>  (10) 
Cc1cc(=NC(=O)c2ccc(CSc3n[nH]c(-c4ccc5c(c4)OCO5)n3)cc2)[nH]cc1F

>  <score_type>  (10) 
oracle

>  <origin>  (10) 
adgpu

>  <m_score__min__energy>  (10) 
-11.539999999999999

>  <m_primary>  (10) 
energy

$$$$
10:0
     RDKit          3D

 29 30  0  0  0  0  0  0  0  0999 V2000
   -4.0760   25.4460  -30.4700 N   0  0  0  0  0  0  0  0  0  0  0  0
   -4.6850   24.1920  -30.7850 C   0  0  0  0  0  0  0  0  0  0  0  0
   -3.9020   23.0390  -30.9060 C   0  0  0  0  0  0  0  0  0  0  0  0
   -4.5320   21.8370  -31.2320 C   0  0  0  0  0  0  0  0  0  0  0  0
   -3.8580   20.7800  -31.3450 O   0  0  0  0  0  0  0  0  0  0  0  0
   -5.8730   21.8080  -31.4330 N   0  0  0  0  0  0  0  0  0  0  0  0
   -6.6210   22.9370  -31.3200 C   0  0  0  0  0  0  0  0  0  0  0  0
   -8.3860   22.8680  -31.6370 S   0  0  0  0  0  0  0  0  0  0  0  0
   -8.5990   21.1690  -30.9970 C   0  0  0  0  0  0  0  0  0  0  0  0
   -8.7610   20.1850  -32.1270 C   0  0  0  0  0  0  0  0  0  0  0  0
   -9.8820   20.1250  -32.7000 O   0  0  0  0  0  0  0  0  0  0  0  0
   -7.6380   19.3600  -32.6490 C   0  0  0  0  0  0  0  0  0  0  0  0
   -7.4090   18.0810  -32.1050 C   0  0  0  0  0  0  0  0  0  0  0  0
   -6.3920   17.2640  -32.6080 C   0  0  0  0  0  0  0  0  0  0  0  0
   -5.5850   17.7140  -33.6540 C   0  0  0  0  0  0  0  0  0  0  0  0
   -5.7890   18.9860  -34.1940 C   0  0  0  0  0  0  0  0  0  0  0  0
   -6.8040   19.8070  -33.6950 C   0  0  0  0  0  0  0  0  0  0  0  0
   -6.0310   24.1160  -30.9850 N   0  0  0  0  0  0  0  0  0  0  0  0
   -3.1130   25.6670  -30.8080 H   0  0  0  0  0  0  0  0  0  0  0  0
   -4.5750   26.1520  -29.8840 H   0  0  0  0  0  0  0  0  0  0  0  0
   -2.8142   23.0789  -30.7478 H   0  0  0  0  0  0  0  0  0  0  0  0
   -7.7143   20.8940  -30.4040 H   0  0  0  0  0  0  0  0  0  0  0  0
   -9.5043   21.1395  -30.3728 H   0  0  0  0  0  0  0  0  0  0  0  0
   -8.0365   17.7214  -31.2762 H   0  0  0  0  0  0  0  0  0  0  0  0
   -6.2276   16.2647  -32.1786 H   0  0  0  0  0  0  0  0  0  0  0  0
   -4.7892   17.0677  -34.0527 H   0  0  0  0  0  0  0  0  0  0  0  0
   -5.1489   19.3426  -35.0144 H   0  0  0  0  0  0  0  0  0  0  0  0
   -6.9537   20.8099  -34.1214 H   0  0  0  0  0  0  0  0  0  0  0  0
   -6.6160   24.9770  -30.8990 H   0  0  0  0  0  0  0  0  0  0  0  0
  1  2  1  0
  2  3  2  0
  3  4  1  0
  4  5  2  0
  4  6  1  0
  6  7  2  0
  7  8  1  0
  8  9  1  0
  9 10  1  0
 10 11  2  0
 10 12  1  0
 12 13  2  0
 13 14  1  0
 14 15  2  0
 15 16  1  0
 16 17  2  0
  7 18  1  0
 18  2  1  0
 17 12  1  0
  1 19  1  0
  1 20  1  0
  3 21  1  0
  9 22  1  0
  9 23  1  0
 13 24  1  0
 14 25  1  0
 15 26  1  0
 16 27  1  0
 17 28  1  0
 18 29  1  0
M  END
>  <UniqueID>  (11) 
11

>  <SMILES>  (11) 
Nc1cc(=O)nc(SCC(=O)c2ccccc2)[nH]1

>  <Energy>  (11) 
25.02542201876621

>  <Genealogy>  (11) 
Nc1cc(=O)nc(SCC(=O)c2ccccc2)[nH]1 (3D coordinates assigned)
Nc1cc(=O)nc(SCC(=O)c2ccccc2)[nH]1 (optimized conformer: 25.02542201876621 kcal/mol)

>  <smiles>  (11) 
Nc1cc(=O)nc(SCC(=O)c2ccccc2)[nH]1

>  <score_type>  (11) 
oracle

>  <origin>  (11) 
adgpu

>  <m_score__min__energy>  (11) 
-7.3600000000000003

>  <m_primary>  (11) 
energy

$$$$
11:0
     RDKit          3D

 55 57  0  0  0  0  0  0  0  0999 V2000
   -1.2940   21.7970  -26.6640 C   0  0  0  0  0  0  0  0  0  0  0  0
   -1.9600   22.7940  -27.5780 C   0  0  0  0  0  0  0  0  0  0  0  0
   -3.0520   22.3530  -28.3400 C   0  0  0  0  0  0  0  0  0  0  0  0
   -3.6590   23.1890  -29.2690 C   0  0  0  0  0  0  0  0  0  0  0  0
   -3.2010   24.4920  -29.4600 C   0  0  0  0  0  0  0  0  0  0  0  0
   -3.8160   25.2700  -30.4990 N   0  0  0  0  0  0  0  0  0  0  0  0
   -5.2000   25.3020  -30.8680 C   0  0  0  0  0  0  0  0  0  0  0  0
   -5.9830   26.0400  -30.2170 O   0  0  0  0  0  0  0  0  0  0  0  0
   -5.7240   24.5350  -31.9600 N   0  0  0  0  0  0  0  0  0  0  0  0
   -6.0870   23.1470  -31.9570 C   0  0  0  0  0  0  0  0  0  0  0  0
   -7.4090   22.8020  -31.6470 C   0  0  0  0  0  0  0  0  0  0  0  0
   -7.8070   21.4630  -31.6250 C   0  0  0  0  0  0  0  0  0  0  0  0
   -6.8890   20.4520  -31.9360 C   0  0  0  0  0  0  0  0  0  0  0  0
   -7.3610   18.7570  -31.8730 S   0  0  0  0  0  0  0  0  0  0  0  0
   -7.1860   18.0530  -33.4430 N   0  0  0  0  0  0  0  0  0  0  0  0
   -8.7920   18.6510  -31.4270 O   0  0  0  0  0  0  0  0  0  0  0  0
   -6.4920   18.0080  -30.9020 O   0  0  0  0  0  0  0  0  0  0  0  0
   -5.5780   20.7930  -32.2920 C   0  0  0  0  0  0  0  0  0  0  0  0
   -5.1820   22.1330  -32.3190 C   0  0  0  0  0  0  0  0  0  0  0  0
   -2.0950   24.9540  -28.7190 C   0  0  0  0  0  0  0  0  0  0  0  0
   -1.6040   26.2330  -28.9580 O   0  0  0  0  0  0  0  0  0  0  0  0
   -1.4660   24.1140  -27.7640 C   0  0  0  0  0  0  0  0  0  0  0  0
   -0.0480   24.7040  -26.8470 S   0  0  0  0  0  0  0  0  0  0  0  0
    0.5670   23.5440  -26.1140 O   0  0  0  0  0  0  0  0  0  0  0  0
    0.9980   25.2430  -27.7840 O   0  0  0  0  0  0  0  0  0  0  0  0
   -0.4730   25.9950  -25.6500 C   0  0  1  0  0  0  0  0  0  0  0  0
    0.0910   25.6100  -24.2610 C   0  0  0  0  0  0  0  0  0  0  0  0
    0.3630   26.8480  -23.3950 C   0  0  0  0  0  0  0  0  0  0  0  0
    1.3490   27.7730  -24.0150 N   0  0  0  0  0  0  0  0  0  0  0  0
    2.7020   27.5500  -23.4840 C   0  0  0  0  0  0  0  0  0  0  0  0
    1.3650   27.7450  -25.5000 C   0  0  0  0  0  0  0  0  0  0  0  0
   -0.0200   27.4210  -26.0750 C   0  0  1  0  0  0  0  0  0  0  0  0
   -0.0030   27.5740  -27.4650 O   0  0  0  0  0  0  0  0  0  0  0  0
   -1.4813   22.0773  -25.6169 H   0  0  0  0  0  0  0  0  0  0  0  0
   -1.7042   20.7942  -26.8541 H   0  0  0  0  0  0  0  0  0  0  0  0
   -0.2106   21.7920  -26.8541 H   0  0  0  0  0  0  0  0  0  0  0  0
   -3.4332   21.3307  -28.2001 H   0  0  0  0  0  0  0  0  0  0  0  0
   -4.5098   22.8190  -29.8600 H   0  0  0  0  0  0  0  0  0  0  0  0
   -8.1397   23.5920  -31.4190 H   0  0  0  0  0  0  0  0  0  0  0  0
   -8.8431   21.2023  -31.3630 H   0  0  0  0  0  0  0  0  0  0  0  0
   -7.3950   18.8030  -34.1400 H   0  0  0  0  0  0  0  0  0  0  0  0
   -4.8575   20.0033  -32.5513 H   0  0  0  0  0  0  0  0  0  0  0  0
   -4.1585   22.3957  -32.6246 H   0  0  0  0  0  0  0  0  0  0  0  0
   -1.5707   26.0502  -25.6047 H   0  0  0  0  0  0  0  0  0  0  0  0
   -0.6385   24.9679  -23.7457 H   0  0  0  0  0  0  0  0  0  0  0  0
    1.0439   25.0817  -24.4125 H   0  0  0  0  0  0  0  0  0  0  0  0
   -0.5831   27.3892  -23.2466 H   0  0  0  0  0  0  0  0  0  0  0  0
    0.7854   26.5011  -22.4404 H   0  0  0  0  0  0  0  0  0  0  0  0
    2.6699   27.5553  -22.3845 H   0  0  0  0  0  0  0  0  0  0  0  0
    3.0781   26.5778  -23.8351 H   0  0  0  0  0  0  0  0  0  0  0  0
    3.3702   28.3501  -23.8351 H   0  0  0  0  0  0  0  0  0  0  0  0
    1.6842   28.7298  -25.8720 H   0  0  0  0  0  0  0  0  0  0  0  0
    2.0630   26.9579  -25.8212 H   0  0  0  0  0  0  0  0  0  0  0  0
   -0.7580   28.1265  -25.6657 H   0  0  0  0  0  0  0  0  0  0  0  0
   -0.5070   26.8030  -27.8400 H   0  0  0  0  0  0  0  0  0  0  0  0
  1  2  1  0
  2  3  2  0
  3  4  1  0
  4  5  2  0
  5  6  1  0
  6  7  1  0
  7  8  2  0
  7  9  1  0
  9 10  1  0
 10 11  2  0
 11 12  1  0
 12 13  2  0
 13 14  1  0
 14 15  1  0
 14 16  2  0
 14 17  2  0
 13 18  1  0
 18 19  2  0
  5 20  1  0
 20 21  1  0
 20 22  2  0
 22 23  1  0
 23 24  2  0
 23 25  2  0
 23 26  1  0
 26 27  1  0
 27 28  1  0
 28 29  1  0
 29 30  1  0
 29 31  1  0
 31 32  1  0
 32 33  1  0
 22  2  1  0
 32 26  1  0
 19 10  1  0
  1 34  1  0
  1 35  1  0
  1 36  1  0
  3 37  1  0
  4 38  1  0
 11 39  1  0
 12 40  1  0
 15 41  1  0
 18 42  1  0
 19 43  1  0
 26 44  1  1
 27 45  1  0
 27 46  1  0
 28 47  1  0
 28 48  1  0
 30 49  1  0
 30 50  1  0
 30 51  1  0
 31 52  1  0
 31 53  1  0
 32 54  1  1
 33 55  1  0
M  CHG  4   6  -1   9  -1  15  -1  21  -1
M  END
>  <UniqueID>  (12) 
12

>  <SMILES>  (12) 
Cc1ccc([N-]C(=O)[N-]c2ccc(S([NH-])(=O)=O)cc2)c([O-])c1S(=O)(=O)[C@H]1CCN(C)C[C@H]1O

>  <Energy>  (12) 
75.56332089015999

>  <Genealogy>  (12) 
Cc1ccc([N-]C(=O)[N-]c2ccc(S([NH-])(=O)=O)cc2)c([O-])c1S(=O)(=O)C1CCN(C)CC1O (protonated)
Cc1ccc([N-]C(=O)[N-]c2ccc(S([NH-])(=O)=O)cc2)c([O-])c1S(=O)(=O)[C@H]1CCN(C)C[C@H]1O (chirality)
Cc1ccc([N-]C(=O)[N-]c2ccc(S([NH-])(=O)=O)cc2)c([O-])c1S(=O)(=O)[C@H]1CCN(C)C[C@H]1O (3D coordinates assigned)
Cc1ccc([N-]C(=O)[N-]c2ccc(S([NH-])(=O)=O)cc2)c([O-])c1S(=O)(=O)[C@H]1CCN(C)C[C@H]1O (nonaromatic ring conformer: 75.56332089015999 kcal/mol)

>  <smiles>  (12) 
Cc1ccc(NC(=O)Nc2ccc(S(N)(=O)=O)cc2)c(O)c1S(=O)(=O)C1CCN(C)CC1O

>  <score_type>  (12) 
oracle

>  <origin>  (12) 
adgpu

>  <m_score__min__energy>  (12) 
-15.289999999999999

>  <m_primary>  (12) 
energy

$$$$
12:0
     RDKit          3D

 44 46  0  0  0  0  0  0  0  0999 V2000
    3.9090   25.2510  -28.5480 C   0  0  0  0  0  0  0  0  0  0  0  0
    3.6400   24.3750  -27.4170 N   0  0  0  0  0  0  0  0  0  0  0  0
    3.8170   24.6840  -26.0240 C   0  0  0  0  0  0  0  0  0  0  0  0
    4.8400   24.2260  -25.4490 O   0  0  0  0  0  0  0  0  0  0  0  0
    2.8590   25.5130  -25.2430 C   0  0  0  0  0  0  0  0  0  0  0  0
    1.5380   25.6890  -25.6940 C   0  0  0  0  0  0  0  0  0  0  0  0
    0.6430   26.4730  -24.9460 C   0  0  0  0  0  0  0  0  0  0  0  0
   -0.6810   26.6880  -25.3590 O   0  0  0  0  0  0  0  0  0  0  0  0
   -1.3530   25.9550  -26.3480 C   0  0  0  0  0  0  0  0  0  0  0  0
   -2.5430   25.3020  -26.0090 C   0  0  0  0  0  0  0  0  0  0  0  0
   -3.2370   24.5520  -26.9640 C   0  0  0  0  0  0  0  0  0  0  0  0
   -2.7500   24.4470  -28.2750 C   0  0  0  0  0  0  0  0  0  0  0  0
   -3.4720   23.6500  -29.2310 N   0  0  0  0  0  0  0  0  0  0  0  0
   -3.8910   24.1200  -30.5190 C   0  0  0  0  0  0  0  0  0  0  0  0
   -3.8650   25.3520  -30.7900 O   0  0  0  0  0  0  0  0  0  0  0  0
   -4.4300   23.1840  -31.4610 N   0  0  0  0  0  0  0  0  0  0  0  0
   -5.8100   22.8200  -31.6080 C   0  0  0  0  0  0  0  0  0  0  0  0
   -6.8290   23.7850  -31.7180 C   0  0  0  0  0  0  0  0  0  0  0  0
   -8.1590   23.3860  -31.8840 C   0  0  0  0  0  0  0  0  0  0  0  0
   -8.4830   22.0290  -31.9540 C   0  0  0  0  0  0  0  0  0  0  0  0
   -7.4730   21.0630  -31.8700 C   0  0  0  0  0  0  0  0  0  0  0  0
   -7.8040   19.6650  -31.9550 C   0  0  0  0  0  0  0  0  0  0  0  0
   -8.0700   18.5400  -32.0230 N   0  0  0  0  0  0  0  0  0  0  0  0
   -6.1400   21.4610  -31.7050 C   0  0  0  0  0  0  0  0  0  0  0  0
   -1.5330   25.0670  -28.6050 C   0  0  0  0  0  0  0  0  0  0  0  0
   -0.8400   25.8160  -27.6490 C   0  0  0  0  0  0  0  0  0  0  0  0
    1.0930   27.0970  -23.7810 C   0  0  0  0  0  0  0  0  0  0  0  0
    2.4090   26.9070  -23.3630 C   0  0  0  0  0  0  0  0  0  0  0  0
    3.2500   26.1280  -24.0930 N   0  0  0  0  0  0  0  0  0  0  0  0
    4.2133   26.2420  -28.1800 H   0  0  0  0  0  0  0  0  0  0  0  0
    4.7171   24.8229  -29.1593 H   0  0  0  0  0  0  0  0  0  0  0  0
    2.9999   25.3502  -29.1593 H   0  0  0  0  0  0  0  0  0  0  0  0
    1.2066   25.2143  -26.6294 H   0  0  0  0  0  0  0  0  0  0  0  0
   -2.9355   25.3790  -24.9843 H   0  0  0  0  0  0  0  0  0  0  0  0
   -4.1705   24.0414  -26.6851 H   0  0  0  0  0  0  0  0  0  0  0  0
   -3.7780   22.6920  -28.9460 H   0  0  0  0  0  0  0  0  0  0  0  0
   -6.5786   24.8552  -31.6733 H   0  0  0  0  0  0  0  0  0  0  0  0
   -8.9530   24.1435  -31.9597 H   0  0  0  0  0  0  0  0  0  0  0  0
   -9.5316   21.7194  -32.0751 H   0  0  0  0  0  0  0  0  0  0  0  0
   -5.3462   20.7014  -31.6511 H   0  0  0  0  0  0  0  0  0  0  0  0
   -1.1234   24.9626  -29.6205 H   0  0  0  0  0  0  0  0  0  0  0  0
    0.1115   26.2988  -27.9166 H   0  0  0  0  0  0  0  0  0  0  0  0
    0.4133   27.7346  -23.1967 H   0  0  0  0  0  0  0  0  0  0  0  0
    2.7674   27.3882  -22.4410 H   0  0  0  0  0  0  0  0  0  0  0  0
  1  2  1  0
  2  3  1  0
  3  4  2  0
  3  5  1  0
  5  6  2  0
  6  7  1  0
  7  8  1  0
  8  9  1  0
  9 10  2  0
 10 11  1  0
 11 12  2  0
 12 13  1  0
 13 14  1  0
 14 15  2  0
 14 16  1  0
 16 17  1  0
 17 18  2  0
 18 19  1  0
 19 20  2  0
 20 21  1  0
 21 22  1  0
 22 23  3  0
 21 24  2  0
 12 25  1  0
 25 26  2  0
  7 27  2  0
 27 28  1  0
 28 29  2  0
 29  5  1  0
 26  9  1  0
 24 17  1  0
  1 30  1  0
  1 31  1  0
  1 32  1  0
  6 33  1  0
 10 34  1  0
 11 35  1  0
 13 36  1  0
 18 37  1  0
 19 38  1  0
 20 39  1  0
 24 40  1  0
 25 41  1  0
 26 42  1  0
 27 43  1  0
 28 44  1  0
M  CHG  2   2  -1  16  -1
M  END
>  <UniqueID>  (13) 
13

>  <SMILES>  (13) 
C[N-]C(=O)c1cc(Oc2ccc(NC(=O)[N-]c3cccc(C#N)c3)cc2)ccn1

>  <Energy>  (13) 
60.27841342774908

>  <Genealogy>  (13) 
C[N-]C(=O)c1cc(Oc2ccc(NC(=O)[N-]c3cccc(C#N)c3)cc2)ccn1 (protonated)
C[N-]C(=O)c1cc(Oc2ccc(NC(=O)[N-]c3cccc(C#N)c3)cc2)ccn1 (3D coordinates assigned)
C[N-]C(=O)c1cc(Oc2ccc(NC(=O)[N-]c3cccc(C#N)c3)cc2)ccn1 (optimized conformer: 60.27841342774908 kcal/mol)

>  <smiles>  (13) 
CNC(=O)c1cc(Oc2ccc(NC(=O)Nc3cccc(C#N)c3)cc2)ccn1

>  <score_type>  (13) 
oracle

>  <origin>  (13) 
adgpu

>  <m_score__min__energy>  (13) 
-10.800000000000001

>  <m_primary>  (13) 
energy

$$$$
13:0
     RDKit          3D

 34 36  0  0  0  0  0  0  0  0999 V2000
   -4.1630   24.5040  -27.1530 C   0  0  0  0  0  0  0  0  0  0  0  0
   -2.7710   24.2360  -27.6630 C   0  0  0  0  0  0  0  0  0  0  0  0
   -1.6760   24.6260  -26.8740 C   0  0  0  0  0  0  0  0  0  0  0  0
   -0.3680   24.4290  -27.3250 C   0  0  0  0  0  0  0  0  0  0  0  0
   -0.1390   23.8380  -28.5670 C   0  0  0  0  0  0  0  0  0  0  0  0
   -1.2140   23.4250  -29.3560 C   0  0  0  0  0  0  0  0  0  0  0  0
   -2.5330   23.5950  -28.9050 C   0  0  0  0  0  0  0  0  0  0  0  0
   -3.6340   23.1200  -29.7620 C   0  0  0  0  0  0  0  0  0  0  0  0
   -4.0330   21.8340  -29.8240 N   0  0  0  0  0  0  0  0  0  0  0  0
   -5.0290   21.7760  -30.7010 N   0  0  0  0  0  0  0  0  0  0  0  0
   -5.2270   23.0290  -31.1550 C   0  0  0  0  0  0  0  0  0  0  0  0
   -6.4620   23.4640  -32.3770 S   0  0  0  0  0  0  0  0  0  0  0  0
   -7.2870   21.8800  -32.2160 C   0  0  0  0  0  0  0  0  0  0  0  0
   -6.7910   20.7560  -32.8890 C   0  0  0  0  0  0  0  0  0  0  0  0
   -7.4280   19.5200  -32.7510 C   0  0  0  0  0  0  0  0  0  0  0  0
   -8.5650   19.4040  -31.9440 C   0  0  0  0  0  0  0  0  0  0  0  0
   -9.0650   20.5250  -31.2760 C   0  0  0  0  0  0  0  0  0  0  0  0
   -8.4280   21.7630  -31.4120 C   0  0  0  0  0  0  0  0  0  0  0  0
   -4.3710   23.8900  -30.5820 N   0  0  0  0  0  0  0  0  0  0  0  0
   -4.3560   25.2890  -30.7000 N   0  0  0  0  0  0  0  0  0  0  0  0
   -4.1570   24.5029  -26.0530 H   0  0  0  0  0  0  0  0  0  0  0  0
   -4.5044   25.4844  -27.5168 H   0  0  0  0  0  0  0  0  0  0  0  0
   -4.8440   23.7205  -27.5168 H   0  0  0  0  0  0  0  0  0  0  0  0
   -1.8498   25.0907  -25.8922 H   0  0  0  0  0  0  0  0  0  0  0  0
    0.4816   24.7405  -26.6996 H   0  0  0  0  0  0  0  0  0  0  0  0
    0.8912   23.6969  -28.9259 H   0  0  0  0  0  0  0  0  0  0  0  0
   -1.0268   22.9636  -30.3369 H   0  0  0  0  0  0  0  0  0  0  0  0
   -5.8993   20.8465  -33.5267 H   0  0  0  0  0  0  0  0  0  0  0  0
   -7.0352   18.6375  -33.2773 H   0  0  0  0  0  0  0  0  0  0  0  0
   -9.0653   18.4304  -31.8353 H   0  0  0  0  0  0  0  0  0  0  0  0
   -9.9599   20.4339  -30.6429 H   0  0  0  0  0  0  0  0  0  0  0  0
   -8.8234   22.6452  -30.8872 H   0  0  0  0  0  0  0  0  0  0  0  0
   -4.5790   25.8950  -29.8810 H   0  0  0  0  0  0  0  0  0  0  0  0
   -4.1800   25.7440  -31.6230 H   0  0  0  0  0  0  0  0  0  0  0  0
  1  2  1  0
  2  3  2  0
  3  4  1  0
  4  5  2  0
  5  6  1  0
  6  7  2  0
  7  8  1  0
  8  9  2  0
  9 10  1  0
 10 11  2  0
 11 12  1  0
 12 13  1  0
 13 14  2  0
 14 15  1  0
 15 16  2  0
 16 17  1  0
 17 18  2  0
 11 19  1  0
 19 20  1  0
  7  2  1  0
 19  8  1  0
 18 13  1  0
  1 21  1  0
  1 22  1  0
  1 23  1  0
  3 24  1  0
  4 25  1  0
  5 26  1  0
  6 27  1  0
 14 28  1  0
 15 29  1  0
 16 30  1  0
 17 31  1  0
 18 32  1  0
 20 33  1  0
 20 34  1  0
M  END
>  <UniqueID>  (14) 
14

>  <SMILES>  (14) 
Cc1ccccc1-c1nnc(Sc2ccccc2)n1N

>  <Energy>  (14) 
74.67684762439096

>  <Genealogy>  (14) 
Cc1ccccc1-c1nnc(Sc2ccccc2)n1N (3D coordinates assigned)
Cc1ccccc1-c1nnc(Sc2ccccc2)n1N (optimized conformer: 74.67684762439096 kcal/mol)

>  <smiles>  (14) 
Cc1ccccc1-c1nnc(Sc2ccccc2)n1N

>  <score_type>  (14) 
oracle

>  <origin>  (14) 
adgpu

>  <m_score__min__energy>  (14) 
-8.4299999999999997

>  <m_primary>  (14) 
energy

$$$$
14:0
     RDKit          3D

 42 44  0  0  0  0  0  0  0  0999 V2000
    1.2260   17.5910  -28.1700 C   0  0  0  0  0  0  0  0  0  0  0  0
   -0.0900   18.3070  -28.2020 C   0  0  0  0  0  0  0  0  0  0  0  0
   -0.8430   18.2440  -27.1950 O   0  0  0  0  0  0  0  0  0  0  0  0
   -0.5020   19.0940  -29.3270 N   0  0  0  0  0  0  0  0  0  0  0  0
   -1.1390   20.3790  -29.2850 C   0  0  0  0  0  0  0  0  0  0  0  0
   -0.5520   21.4500  -29.9670 C   0  0  0  0  0  0  0  0  0  0  0  0
   -1.1360   22.7190  -29.9310 C   0  0  0  0  0  0  0  0  0  0  0  0
   -2.3060   22.9340  -29.1910 C   0  0  0  0  0  0  0  0  0  0  0  0
   -3.0490   24.5330  -29.1790 S   0  0  0  0  0  0  0  0  0  0  0  0
   -4.0420   24.6360  -28.0550 O   0  0  0  0  0  0  0  0  0  0  0  0
   -1.9750   25.5600  -28.9580 O   0  0  0  0  0  0  0  0  0  0  0  0
   -3.8500   24.8680  -30.6890 N   0  0  0  0  0  0  0  0  0  0  0  0
   -5.3060   24.7600  -30.5660 C   0  0  0  0  0  0  0  0  0  0  0  0
   -5.8340   23.5640  -31.3140 C   0  0  0  0  0  0  0  0  0  0  0  0
   -7.2290   23.4090  -31.5220 C   0  0  0  0  0  0  0  0  0  0  0  0
   -7.7280   22.3030  -32.2340 C   0  0  0  0  0  0  0  0  0  0  0  0
   -6.8130   21.3730  -32.7200 C   0  0  0  0  0  0  0  0  0  0  0  0
   -7.0780   20.2530  -33.4120 N   0  0  0  0  0  0  0  0  0  0  0  0
   -5.8740   19.6840  -33.6580 C   0  0  0  0  0  0  0  0  0  0  0  0
   -5.7040   18.3730  -34.3500 C   0  0  0  0  0  0  0  0  0  0  0  0
   -4.8410   20.4360  -33.1050 C   0  0  0  0  0  0  0  0  0  0  0  0
   -5.4660   21.5150  -32.5170 C   0  0  0  0  0  0  0  0  0  0  0  0
   -4.9360   22.5950  -31.8150 C   0  0  0  0  0  0  0  0  0  0  0  0
   -2.8780   21.8720  -28.4770 C   0  0  0  0  0  0  0  0  0  0  0  0
   -2.2940   20.6030  -28.5160 C   0  0  0  0  0  0  0  0  0  0  0  0
    1.5286   17.4264  -27.1253 H   0  0  0  0  0  0  0  0  0  0  0  0
    1.1285   16.6216  -28.6806 H   0  0  0  0  0  0  0  0  0  0  0  0
    1.9870   18.1994  -28.6806 H   0  0  0  0  0  0  0  0  0  0  0  0
    0.3762   21.2921  -30.5358 H   0  0  0  0  0  0  0  0  0  0  0  0
   -0.6761   23.5508  -30.4848 H   0  0  0  0  0  0  0  0  0  0  0  0
   -5.5689   24.6615  -29.5024 H   0  0  0  0  0  0  0  0  0  0  0  0
   -5.7578   25.6652  -30.9978 H   0  0  0  0  0  0  0  0  0  0  0  0
   -7.9265   24.1602  -31.1230 H   0  0  0  0  0  0  0  0  0  0  0  0
   -8.8078   22.1769  -32.4016 H   0  0  0  0  0  0  0  0  0  0  0  0
   -8.0180   19.8910  -33.6920 H   0  0  0  0  0  0  0  0  0  0  0  0
   -5.6004   17.5739  -33.6012 H   0  0  0  0  0  0  0  0  0  0  0  0
   -6.5838   18.1738  -34.9795 H   0  0  0  0  0  0  0  0  0  0  0  0
   -4.8025   18.4048  -34.9795 H   0  0  0  0  0  0  0  0  0  0  0  0
   -3.7633   20.2173  -33.1314 H   0  0  0  0  0  0  0  0  0  0  0  0
   -3.8518   22.6906  -31.6556 H   0  0  0  0  0  0  0  0  0  0  0  0
   -3.7895   22.0380  -27.8841 H   0  0  0  0  0  0  0  0  0  0  0  0
   -2.7397   19.7766  -27.9429 H   0  0  0  0  0  0  0  0  0  0  0  0
  1  2  1  0
  2  3  2  0
  2  4  1  0
  4  5  1  0
  5  6  2  0
  6  7  1  0
  7  8  2  0
  8  9  1  0
  9 10  2  0
  9 11  2  0
  9 12  1  0
 12 13  1  0
 13 14  1  0
 14 15  2  0
 15 16  1  0
 16 17  2  0
 17 18  1  0
 18 19  1  0
 19 20  1  0
 19 21  2  0
 21 22  1  0
 22 23  2  0
  8 24  1  0
 24 25  2  0
 25  5  1  0
 23 14  1  0
 22 17  1  0
  1 26  1  0
  1 27  1  0
  1 28  1  0
  6 29  1  0
  7 30  1  0
 13 31  1  0
 13 32  1  0
 15 33  1  0
 16 34  1  0
 18 35  1  0
 20 36  1  0
 20 37  1  0
 20 38  1  0
 21 39  1  0
 23 40  1  0
 24 41  1  0
 25 42  1  0
M  CHG  2   4  -1  12  -1
M  END
>  <UniqueID>  (15) 
15

>  <SMILES>  (15) 
CC(=O)[N-]c1ccc(S(=O)(=O)[N-]Cc2ccc3[nH]c(C)cc3c2)cc1

>  <Energy>  (15) 
76.57346521563824

>  <Genealogy>  (15) 
CC(=O)[N-]c1ccc(S(=O)(=O)[N-]Cc2ccc3[nH]c(C)cc3c2)cc1 (protonated)
CC(=O)[N-]c1ccc(S(=O)(=O)[N-]Cc2ccc3[nH]c(C)cc3c2)cc1 (3D coordinates assigned)
CC(=O)[N-]c1ccc(S(=O)(=O)[N-]Cc2ccc3[nH]c(C)cc3c2)cc1 (optimized conformer: 76.57346521563824 kcal/mol)

>  <smiles>  (15) 
CC(=O)Nc1ccc(S(=O)(=O)NCc2ccc3[nH]c(C)cc3c2)cc1

>  <score_type>  (15) 
oracle

>  <origin>  (15) 
adgpu

>  <m_score__min__energy>  (15) 
-11.039999999999999

>  <m_primary>  (15) 
energy

$$$$
15:0
     RDKit          3D

 57 60  0  0  0  0  0  0  0  0999 V2000
   -3.2090   21.9730  -28.5740 O   0  0  0  0  0  0  0  0  0  0  0  0
   -2.4380   22.9040  -28.9350 C   0  0  0  0  0  0  0  0  0  0  0  0
   -2.2160   23.1520  -30.3350 N   0  0  0  0  0  0  0  0  0  0  0  0
   -2.6610   22.2620  -31.3730 C   0  0  0  0  0  0  0  0  0  0  0  0
   -1.7440   21.4260  -32.0340 C   0  0  0  0  0  0  0  0  0  0  0  0
   -2.1520   20.6190  -33.1040 C   0  0  0  0  0  0  0  0  0  0  0  0
   -0.9810   19.6010  -33.9480 S   0  0  0  0  0  0  0  0  0  0  0  0
    0.0810   19.1620  -32.9780 O   0  0  0  0  0  0  0  0  0  0  0  0
   -1.6760   18.3710  -34.4640 O   0  0  0  0  0  0  0  0  0  0  0  0
   -0.2330   20.4510  -35.2800 N   0  0  0  0  0  0  0  0  0  0  0  0
   -0.1110   21.8930  -34.9670 C   0  0  0  0  0  0  0  0  0  0  0  0
    0.8940   22.5830  -35.8920 C   0  0  0  0  0  0  0  0  0  0  0  0
    2.3050   21.9920  -35.7160 C   0  0  0  0  0  0  0  0  0  0  0  0
    2.2830   20.5400  -35.2110 C   0  0  0  0  0  0  0  0  0  0  0  0
    1.0310   19.7990  -35.7050 C   0  0  0  0  0  0  0  0  0  0  0  0
   -3.4890   20.6450  -33.5160 C   0  0  0  0  0  0  0  0  0  0  0  0
   -4.4060   21.4800  -32.8760 C   0  0  0  0  0  0  0  0  0  0  0  0
   -4.0020   22.2910  -31.8080 C   0  0  0  0  0  0  0  0  0  0  0  0
   -4.9770   23.1160  -31.1560 N   0  0  0  0  0  0  0  0  0  0  0  0
   -4.6560   24.5050  -30.8230 C   0  0  0  0  0  0  0  0  0  0  0  0
   -5.4480   24.9300  -29.5830 C   0  0  0  0  0  0  0  0  0  0  0  0
   -6.8270   24.6510  -29.7480 O   0  0  0  0  0  0  0  0  0  0  0  0
   -7.0270   23.2520  -29.8280 C   0  0  0  0  0  0  0  0  0  0  0  0
   -6.3690   22.6770  -31.0860 C   0  0  0  0  0  0  0  0  0  0  0  0
   -1.7510   23.7070  -27.9000 C   0  0  0  0  0  0  0  0  0  0  0  0
   -1.5070   23.1280  -26.6420 C   0  0  0  0  0  0  0  0  0  0  0  0
   -0.8490   23.8530  -25.6430 C   0  0  0  0  0  0  0  0  0  0  0  0
   -0.4380   25.1640  -25.8860 C   0  0  0  0  0  0  0  0  0  0  0  0
   -0.6920   25.7580  -27.1230 C   0  0  0  0  0  0  0  0  0  0  0  0
   -1.3550   25.0420  -28.1280 C   0  0  0  0  0  0  0  0  0  0  0  0
   -1.6390   25.6810  -29.3290 O   0  0  0  0  0  0  0  0  0  0  0  0
   -1.6730   23.9940  -30.6220 H   0  0  0  0  0  0  0  0  0  0  0  0
   -0.6939   21.4053  -31.7072 H   0  0  0  0  0  0  0  0  0  0  0  0
   -1.0948   22.3699  -35.0884 H   0  0  0  0  0  0  0  0  0  0  0  0
    0.2467   21.9930  -33.9316 H   0  0  0  0  0  0  0  0  0  0  0  0
    0.5746   22.4460  -36.9357 H   0  0  0  0  0  0  0  0  0  0  0  0
    0.9283   23.6522  -35.6356 H   0  0  0  0  0  0  0  0  0  0  0  0
    2.8211   22.0188  -36.6871 H   0  0  0  0  0  0  0  0  0  0  0  0
    2.8265   22.5980  -34.9605 H   0  0  0  0  0  0  0  0  0  0  0  0
    3.1780   20.0180  -35.5804 H   0  0  0  0  0  0  0  0  0  0  0  0
    2.2684   20.5538  -34.1112 H   0  0  0  0  0  0  0  0  0  0  0  0
    1.0551   19.7638  -36.8042 H   0  0  0  0  0  0  0  0  0  0  0  0
    1.0476   18.7923  -35.2620 H   0  0  0  0  0  0  0  0  0  0  0  0
   -3.8186   20.0048  -34.3476 H   0  0  0  0  0  0  0  0  0  0  0  0
   -5.4530   21.5013  -33.2126 H   0  0  0  0  0  0  0  0  0  0  0  0
   -3.5789   24.5931  -30.6179 H   0  0  0  0  0  0  0  0  0  0  0  0
   -4.9232   25.1555  -31.6689 H   0  0  0  0  0  0  0  0  0  0  0  0
   -5.0708   24.3803  -28.7080 H   0  0  0  0  0  0  0  0  0  0  0  0
   -5.3219   26.0130  -29.4377 H   0  0  0  0  0  0  0  0  0  0  0  0
   -6.5866   22.7739  -28.9406 H   0  0  0  0  0  0  0  0  0  0  0  0
   -8.1079   23.0535  -29.8747 H   0  0  0  0  0  0  0  0  0  0  0  0
   -6.4048   21.5782  -31.0481 H   0  0  0  0  0  0  0  0  0  0  0  0
   -6.9092   23.0328  -31.9757 H   0  0  0  0  0  0  0  0  0  0  0  0
   -1.8359   22.0975  -26.4421 H   0  0  0  0  0  0  0  0  0  0  0  0
   -0.6553   23.3890  -24.6646 H   0  0  0  0  0  0  0  0  0  0  0  0
    0.0866   25.7298  -25.1020 H   0  0  0  0  0  0  0  0  0  0  0  0
   -0.3701   26.7932  -27.3097 H   0  0  0  0  0  0  0  0  0  0  0  0
  1  2  2  0
  2  3  1  0
  3  4  1  0
  4  5  2  0
  5  6  1  0
  6  7  1  0
  7  8  2  0
  7  9  2  0
  7 10  1  0
 10 11  1  0
 11 12  1  0
 12 13  1  0
 13 14  1  0
 14 15  1  0
  6 16  2  0
 16 17  1  0
 17 18  2  0
 18 19  1  0
 19 20  1  0
 20 21  1  0
 21 22  1  0
 22 23  1  0
 23 24  1  0
  2 25  1  0
 25 26  2  0
 26 27  1  0
 27 28  2  0
 28 29  1  0
 29 30  2  0
 30 31  1  0
 18  4  1  0
 24 19  1  0
 30 25  1  0
 15 10  1  0
  3 32  1  0
  5 33  1  0
 11 34  1  0
 11 35  1  0
 12 36  1  0
 12 37  1  0
 13 38  1  0
 13 39  1  0
 14 40  1  0
 14 41  1  0
 15 42  1  0
 15 43  1  0
 16 44  1  0
 17 45  1  0
 20 46  1  0
 20 47  1  0
 21 48  1  0
 21 49  1  0
 23 50  1  0
 23 51  1  0
 24 52  1  0
 24 53  1  0
 26 54  1  0
 27 55  1  0
 28 56  1  0
 29 57  1  0
M  CHG  1  31  -1
M  END
>  <UniqueID>  (16) 
16

>  <SMILES>  (16) 
O=C(Nc1cc(S(=O)(=O)N2CCCCC2)ccc1N1CCOCC1)c1ccccc1[O-]

>  <Energy>  (16) 
78.64273713053191

>  <Genealogy>  (16) 
O=C(Nc1cc(S(=O)(=O)N2CCCCC2)ccc1N1CCOCC1)c1ccccc1[O-] (protonated)
O=C(Nc1cc(S(=O)(=O)N2CCCCC2)ccc1N1CCOCC1)c1ccccc1[O-] (3D coordinates assigned)
O=C(Nc1cc(S(=O)(=O)N2CCCCC2)ccc1N1CCOCC1)c1ccccc1[O-] (nonaromatic ring conformer: 78.64273713053191 kcal/mol)

>  <smiles>  (16) 
O=C(Nc1cc(S(=O)(=O)N2CCCCC2)ccc1N1CCOCC1)c1ccccc1O

>  <score_type>  (16) 
oracle

>  <origin>  (16) 
adgpu

>  <m_score__min__energy>  (16) 
-12.67

>  <m_primary>  (16) 
energy

$$$$
16:0
     RDKit          3D

 41 43  0  0  0  0  0  0  0  0999 V2000
   -5.8910   25.9310  -31.2830 O   0  0  0  0  0  0  0  0  0  0  0  0
   -5.1260   24.9850  -30.9610 C   0  0  0  0  0  0  0  0  0  0  0  0
   -3.8510   25.3000  -30.3840 N   0  0  0  0  0  0  0  0  0  0  0  0
   -3.2080   24.5940  -29.3110 C   0  0  0  0  0  0  0  0  0  0  0  0
   -3.9040   23.5520  -28.6840 C   0  0  0  0  0  0  0  0  0  0  0  0
   -3.3130   22.8350  -27.6400 C   0  0  0  0  0  0  0  0  0  0  0  0
   -2.0280   23.1650  -27.2040 C   0  0  0  0  0  0  0  0  0  0  0  0
   -1.3370   24.2220  -27.8010 C   0  0  0  0  0  0  0  0  0  0  0  0
   -1.9250   24.9490  -28.8430 C   0  0  0  0  0  0  0  0  0  0  0  0
   -1.2400   26.0330  -29.3800 O   0  0  0  0  0  0  0  0  0  0  0  0
   -5.5830   23.5860  -31.1430 C   0  0  0  0  0  0  0  0  0  0  0  0
   -4.7080   22.6230  -31.6720 C   0  0  0  0  0  0  0  0  0  0  0  0
   -5.1310   21.3020  -31.8480 C   0  0  0  0  0  0  0  0  0  0  0  0
   -6.4380   20.9270  -31.5130 C   0  0  0  0  0  0  0  0  0  0  0  0
   -6.9770   19.2630  -31.7530 S   0  0  0  0  0  0  0  0  0  0  0  0
   -6.1560   18.3470  -30.8870 O   0  0  0  0  0  0  0  0  0  0  0  0
   -8.4130   19.1420  -31.3240 O   0  0  0  0  0  0  0  0  0  0  0  0
   -6.8310   18.7680  -33.4240 N   0  0  0  0  0  0  0  0  0  0  0  0
   -6.6860   17.3030  -33.5170 C   0  0  0  0  0  0  0  0  0  0  0  0
   -6.0580   16.9060  -34.8640 C   0  0  0  0  0  0  0  0  0  0  0  0
   -4.7630   17.4520  -35.0840 O   0  0  0  0  0  0  0  0  0  0  0  0
   -4.5020   18.6300  -34.3330 C   0  0  0  0  0  0  0  0  0  0  0  0
   -5.7510   19.5030  -34.1190 C   0  0  0  0  0  0  0  0  0  0  0  0
   -7.3180   21.8860  -30.9920 C   0  0  0  0  0  0  0  0  0  0  0  0
   -6.8970   23.2070  -30.8160 C   0  0  0  0  0  0  0  0  0  0  0  0
   -4.9214   23.2968  -29.0154 H   0  0  0  0  0  0  0  0  0  0  0  0
   -3.8606   22.0098  -27.1612 H   0  0  0  0  0  0  0  0  0  0  0  0
   -1.5597   22.5922  -26.3900 H   0  0  0  0  0  0  0  0  0  0  0  0
   -0.3275   24.4840  -27.4513 H   0  0  0  0  0  0  0  0  0  0  0  0
   -3.6831   22.9100  -31.9497 H   0  0  0  0  0  0  0  0  0  0  0  0
   -4.4335   20.5534  -32.2517 H   0  0  0  0  0  0  0  0  0  0  0  0
   -6.0401   16.9509  -32.6992 H   0  0  0  0  0  0  0  0  0  0  0  0
   -7.6819   16.8423  -33.4403 H   0  0  0  0  0  0  0  0  0  0  0  0
   -5.9812   15.8093  -34.8995 H   0  0  0  0  0  0  0  0  0  0  0  0
   -6.7113   17.3116  -35.6506 H   0  0  0  0  0  0  0  0  0  0  0  0
   -4.1079   18.3367  -33.3488 H   0  0  0  0  0  0  0  0  0  0  0  0
   -3.7793   19.2292  -34.9063 H   0  0  0  0  0  0  0  0  0  0  0  0
   -5.4723   20.3790  -33.5149 H   0  0  0  0  0  0  0  0  0  0  0  0
   -6.1277   19.8038  -35.1077 H   0  0  0  0  0  0  0  0  0  0  0  0
   -8.3442   21.5975  -30.7206 H   0  0  0  0  0  0  0  0  0  0  0  0
   -7.5985   23.9555  -30.4189 H   0  0  0  0  0  0  0  0  0  0  0  0
  1  2  2  0
  2  3  1  0
  3  4  1  0
  4  5  2  0
  5  6  1  0
  6  7  2  0
  7  8  1  0
  8  9  2  0
  9 10  1  0
  2 11  1  0
 11 12  2  0
 12 13  1  0
 13 14  2  0
 14 15  1  0
 15 16  2  0
 15 17  2  0
 15 18  1  0
 18 19  1  0
 19 20  1  0
 20 21  1  0
 21 22  1  0
 22 23  1  0
 14 24  1  0
 24 25  2  0
  9  4  1  0
 25 11  1  0
 23 18  1  0
  5 26  1  0
  6 27  1  0
  7 28  1  0
  8 29  1  0
 12 30  1  0
 13 31  1  0
 19 32  1  0
 19 33  1  0
 20 34  1  0
 20 35  1  0
 22 36  1  0
 22 37  1  0
 23 38  1  0
 23 39  1  0
 24 40  1  0
 25 41  1  0
M  CHG  2   3  -1  10  -1
M  END
>  <UniqueID>  (17) 
17

>  <SMILES>  (17) 
O=C([N-]c1ccccc1[O-])c1ccc(S(=O)(=O)N2CCOCC2)cc1

>  <Energy>  (17) 
63.067913570671045

>  <Genealogy>  (17) 
O=C([N-]c1ccccc1[O-])c1ccc(S(=O)(=O)N2CCOCC2)cc1 (protonated)
O=C([N-]c1ccccc1[O-])c1ccc(S(=O)(=O)N2CCOCC2)cc1 (3D coordinates assigned)
O=C([N-]c1ccccc1[O-])c1ccc(S(=O)(=O)N2CCOCC2)cc1 (nonaromatic ring conformer: 63.067913570671045 kcal/mol)

>  <smiles>  (17) 
O=C(Nc1ccccc1O)c1ccc(S(=O)(=O)N2CCOCC2)cc1

>  <score_type>  (17) 
oracle

>  <origin>  (17) 
adgpu

>  <m_score__min__energy>  (17) 
-14.52

>  <m_primary>  (17) 
energy

$$$$
17:0
     RDKit          3D

 51 54  0  0  0  0  0  0  0  0999 V2000
   -0.4852   26.7681  -24.7239 H   0  0  0  0  0  0  0  0  0  0  0  0
   -0.2760   27.5190  -25.5000 C   0  0  0  0  0  0  0  0  0  0  0  0
    0.4650   28.6190  -25.2050 N   0  0  0  0  0  0  0  0  0  0  0  0
    0.7370   29.5650  -26.1430 C   0  0  0  0  0  0  0  0  0  0  0  0
    1.5740   30.7520  -25.7920 C   0  0  0  0  0  0  0  0  0  0  0  0
    1.6390   30.8442  -24.6978 H   0  0  0  0  0  0  0  0  0  0  0  0
    2.5836   30.6252  -26.2099 H   0  0  0  0  0  0  0  0  0  0  0  0
    1.1156   31.6604  -26.2099 H   0  0  0  0  0  0  0  0  0  0  0  0
    0.2540   29.3900  -27.4450 C   0  0  0  0  0  0  0  0  0  0  0  0
    0.4734   30.1362  -28.2229 H   0  0  0  0  0  0  0  0  0  0  0  0
   -0.4880   28.2910  -27.7400 N   0  0  0  0  0  0  0  0  0  0  0  0
   -0.7730   27.3470  -26.8020 C   0  0  0  0  0  0  0  0  0  0  0  0
   -1.5810   26.1640  -27.1680 C   0  0  0  0  0  0  0  0  0  0  0  0
   -2.1300   25.4790  -26.2620 O   0  0  0  0  0  0  0  0  0  0  0  0
   -1.7750   25.8180  -28.5510 N   0  0  0  0  0  0  0  0  0  0  0  0
   -1.6220   26.5570  -29.2740 H   0  0  0  0  0  0  0  0  0  0  0  0
   -2.3060   24.5620  -29.0000 C   0  0  0  0  0  0  0  0  0  0  0  0
   -3.0980   24.5380  -30.1050 N   0  0  0  0  0  0  0  0  0  0  0  0
   -3.6240   23.3920  -30.6090 C   0  0  0  0  0  0  0  0  0  0  0  0
   -4.3810   23.4720  -31.6690 N   0  0  0  0  0  0  0  0  0  0  0  0
   -5.0970   22.4030  -32.3080 C   0  0  0  0  0  0  0  0  0  0  0  0
   -4.4820   21.6750  -33.1320 O   0  0  0  0  0  0  0  0  0  0  0  0
   -6.5480   22.1880  -32.0820 C   0  0  0  0  0  0  0  0  0  0  0  0
   -7.4590   23.2570  -32.1730 C   0  0  0  0  0  0  0  0  0  0  0  0
   -7.0951   24.2653  -32.4197 H   0  0  0  0  0  0  0  0  0  0  0  0
   -8.8230   23.0460  -31.9520 C   0  0  0  0  0  0  0  0  0  0  0  0
   -9.5268   23.8886  -32.0201 H   0  0  0  0  0  0  0  0  0  0  0  0
   -9.2940   21.7680  -31.6450 C   0  0  0  0  0  0  0  0  0  0  0  0
  -10.3672   21.6050  -31.4670 H   0  0  0  0  0  0  0  0  0  0  0  0
   -8.4010   20.6960  -31.5640 C   0  0  0  0  0  0  0  0  0  0  0  0
   -8.7729   19.6883  -31.3267 H   0  0  0  0  0  0  0  0  0  0  0  0
   -7.0360   20.9020  -31.7840 C   0  0  0  0  0  0  0  0  0  0  0  0
   -6.3387   20.0534  -31.7238 H   0  0  0  0  0  0  0  0  0  0  0  0
   -3.3150   22.1650  -29.9890 C   0  0  0  0  0  0  0  0  0  0  0  0
   -3.7209   21.2257  -30.3927 H   0  0  0  0  0  0  0  0  0  0  0  0
   -2.4880   22.1440  -28.8550 C   0  0  0  0  0  0  0  0  0  0  0  0
   -2.1500   20.8590  -28.1890 C   0  0  0  0  0  0  0  0  0  0  0  0
   -0.9740   20.1680  -28.5300 C   0  0  0  0  0  0  0  0  0  0  0  0
   -0.3017   20.5788  -29.2977 H   0  0  0  0  0  0  0  0  0  0  0  0
   -0.6540   18.9630  -27.9000 C   0  0  0  0  0  0  0  0  0  0  0  0
    0.2691   18.4305  -28.1726 H   0  0  0  0  0  0  0  0  0  0  0  0
   -1.5010   18.4320  -26.9260 C   0  0  0  0  0  0  0  0  0  0  0  0
   -1.2441   17.4825  -26.4337 H   0  0  0  0  0  0  0  0  0  0  0  0
   -2.6780   19.1060  -26.5740 C   0  0  0  0  0  0  0  0  0  0  0  0
   -3.5480   18.5600  -25.5790 N   0  0  0  0  0  0  0  0  0  0  0  0
   -3.1750   17.9430  -24.8230 H   0  0  0  0  0  0  0  0  0  0  0  0
   -4.5710   18.7680  -25.5910 H   0  0  0  0  0  0  0  0  0  0  0  0
   -3.0000   20.3160  -27.2060 C   0  0  0  0  0  0  0  0  0  0  0  0
   -3.9243   20.8454  -26.9316 H   0  0  0  0  0  0  0  0  0  0  0  0
   -1.9780   23.3550  -28.3640 C   0  0  0  0  0  0  0  0  0  0  0  0
   -1.3216   23.3584  -27.4813 H   0  0  0  0  0  0  0  0  0  0  0  0
  1  2  1  0
  2  3  2  0
  3  4  1  0
  4  5  1  0
  5  6  1  0
  5  7  1  0
  5  8  1  0
  4  9  2  0
  9 10  1  0
  9 11  1  0
 11 12  2  0
 12 13  1  0
 13 14  2  0
 13 15  1  0
 15 16  1  0
 15 17  1  0
 17 18  1  0
 18 19  1  0
 19 20  2  0
 20 21  1  0
 21 22  2  0
 21 23  1  0
 23 24  2  0
 24 25  1  0
 24 26  1  0
 26 27  1  0
 26 28  2  0
 28 29  1  0
 28 30  1  0
 30 31  1  0
 30 32  2  0
 32 33  1  0
 19 34  1  0
 34 35  1  0
 34 36  2  0
 36 37  1  0
 37 38  2  0
 38 39  1  0
 38 40  1  0
 40 41  1  0
 40 42  2  0
 42 43  1  0
 42 44  1  0
 44 45  1  0
 45 46  1  0
 45 47  1  0
 44 48  2  0
 48 49  1  0
 36 50  1  0
 50 51  1  0
 12  2  1  0
 50 17  2  0
 32 23  1  0
 48 37  1  0
M  CHG  1  18  -1
M  END
>  <UniqueID>  (18) 
18

>  <SMILES>  (18) 
Cc1cnc(C(=O)Nc2cc(-c3cccc(N)c3)c/c(=N\C(=O)c3ccccc3)[n-]2)cn1

>  <Energy>  (18) 
74.95425099350892

>  <Genealogy>  (18) 
Cc1cnc(C(=O)Nc2cc(-c3cccc(N)c3)cc(=NC(=O)c3ccccc3)[n-]2)cn1 (protonated)
Cc1cnc(C(=O)Nc2cc(-c3cccc(N)c3)c/c(=N\C(=O)c3ccccc3)[n-]2)cn1 (cis-trans isomerization)
Cc1cnc(C(=O)Nc2cc(-c3cccc(N)c3)c/c(=N\C(=O)c3ccccc3)[n-]2)cn1 (3D coordinates assigned)
Cc1cnc(C(=O)Nc2cc(-c3cccc(N)c3)c/c(=N\C(=O)c3ccccc3)[n-]2)cn1 (optimized conformer: 74.95425099350892 kcal/mol)

>  <smiles>  (18) 
Cc1cnc(C(=O)Nc2cc(-c3cccc(N)c3)cc(=NC(=O)c3ccccc3)[nH]2)cn1

>  <score_type>  (18) 
oracle

>  <origin>  (18) 
adgpu

>  <m_score__min__energy>  (18) 
-11.32

>  <m_primary>  (18) 
energy

$$$$
18:0
     RDKit          3D

 74 78  0  0  0  0  0  0  0  0999 V2000
   -0.8610   26.5480  -23.3580 C   0  0  0  0  0  0  0  0  0  0  0  0
   -0.0570   27.0770  -24.5380 C   0  0  0  0  0  0  0  0  0  0  0  0
   -0.9860   27.3870  -25.5810 O   0  0  0  0  0  0  0  0  0  0  0  0
   -1.4360   26.4510  -26.5190 C   0  0  0  0  0  0  0  0  0  0  0  0
   -0.7500   26.3640  -27.7280 C   0  0  0  0  0  0  0  0  0  0  0  0
   -0.9880   25.3090  -28.6150 C   0  0  0  0  0  0  0  0  0  0  0  0
   -2.0160   24.3860  -28.3470 C   0  0  0  0  0  0  0  0  0  0  0  0
   -2.2910   23.3020  -29.2610 N   0  0  0  0  0  0  0  0  0  0  0  0
   -3.2130   23.4660  -30.2660 C   0  0  0  0  0  0  0  0  0  0  0  0
   -3.8070   24.5810  -30.4050 O   0  0  0  0  0  0  0  0  0  0  0  0
   -3.4940   22.4140  -31.1560 C   0  0  0  0  0  0  0  0  0  0  0  0
   -4.4280   22.5380  -32.1990 C   0  0  0  0  0  0  0  0  0  0  0  0
   -4.6230   21.4830  -33.0900 C   0  0  0  0  0  0  0  0  0  0  0  0
   -3.8560   20.3140  -32.9490 C   0  0  0  0  0  0  0  0  0  0  0  0
   -3.8570   19.2560  -34.0180 C   0  0  0  0  0  0  0  0  0  0  0  0
   -5.2590   18.9280  -34.5560 C   0  0  0  0  0  0  0  0  0  0  0  0
   -6.3120   18.9460  -33.4740 C   0  0  0  0  0  0  0  0  0  0  0  0
   -6.3750   17.9090  -32.5260 C   0  0  0  0  0  0  0  0  0  0  0  0
   -7.4130   17.8570  -31.5910 C   0  0  0  0  0  0  0  0  0  0  0  0
   -8.3870   18.8570  -31.5800 C   0  0  0  0  0  0  0  0  0  0  0  0
   -8.3200   19.9090  -32.5030 C   0  0  0  0  0  0  0  0  0  0  0  0
   -7.2880   19.9550  -33.4480 C   0  0  0  0  0  0  0  0  0  0  0  0
   -2.9940   20.1900  -31.9060 N   0  0  0  0  0  0  0  0  0  0  0  0
   -2.7810   21.2010  -30.9990 C   0  0  0  0  0  0  0  0  0  0  0  0
   -1.8920   21.0520  -29.9720 N   0  0  0  0  0  0  0  0  0  0  0  0
   -1.2590   19.7370  -29.7250 C   0  0  0  0  0  0  0  0  0  0  0  0
    0.1550   19.7360  -30.3200 C   0  0  0  0  0  0  0  0  0  0  0  0
    0.0960   19.8050  -31.8150 C   0  0  0  0  0  0  0  0  0  0  0  0
   -0.2270   18.6430  -32.5480 C   0  0  0  0  0  0  0  0  0  0  0  0
   -0.3230   18.7000  -33.9400 C   0  0  0  0  0  0  0  0  0  0  0  0
   -0.0700   19.8970  -34.6090 C   0  0  0  0  0  0  0  0  0  0  0  0
   -0.1260   19.9380  -36.0120 O   0  0  0  0  0  0  0  0  0  0  0  0
    0.8930   19.3120  -36.7990 C   0  0  0  0  0  0  0  0  0  0  0  0
    0.2220   21.0780  -33.8950 C   0  0  0  0  0  0  0  0  0  0  0  0
    0.4510   22.2630  -34.6120 O   0  0  0  0  0  0  0  0  0  0  0  0
    1.6460   22.5320  -35.3610 C   0  0  0  0  0  0  0  0  0  0  0  0
    0.2770   21.0280  -32.4800 C   0  0  0  0  0  0  0  0  0  0  0  0
   -1.6520   22.0890  -29.1020 C   0  0  0  0  0  0  0  0  0  0  0  0
   -0.8650   21.9190  -28.1240 O   0  0  0  0  0  0  0  0  0  0  0  0
   -2.7720   24.5330  -27.1610 C   0  0  0  0  0  0  0  0  0  0  0  0
   -2.5060   25.5690  -26.2640 C   0  0  0  0  0  0  0  0  0  0  0  0
   -0.3832   26.8624  -22.4184 H   0  0  0  0  0  0  0  0  0  0  0  0
   -1.8840   26.9500  -23.4016 H   0  0  0  0  0  0  0  0  0  0  0  0
   -0.8966   25.4494  -23.4016 H   0  0  0  0  0  0  0  0  0  0  0  0
    0.4934   27.9825  -24.2428 H   0  0  0  0  0  0  0  0  0  0  0  0
    0.6744   26.3289  -24.8776 H   0  0  0  0  0  0  0  0  0  0  0  0
   -0.0108   27.1357  -27.9889 H   0  0  0  0  0  0  0  0  0  0  0  0
   -0.3728   25.2010  -29.5204 H   0  0  0  0  0  0  0  0  0  0  0  0
   -5.0053   23.4674  -32.3125 H   0  0  0  0  0  0  0  0  0  0  0  0
   -5.3690   21.5650  -33.8943 H   0  0  0  0  0  0  0  0  0  0  0  0
   -3.2362   19.6069  -34.8555 H   0  0  0  0  0  0  0  0  0  0  0  0
   -3.4623   18.3359  -33.5624 H   0  0  0  0  0  0  0  0  0  0  0  0
   -5.5263   19.6719  -35.3209 H   0  0  0  0  0  0  0  0  0  0  0  0
   -5.2271   17.9113  -34.9746 H   0  0  0  0  0  0  0  0  0  0  0  0
   -5.5985   17.1298  -32.5202 H   0  0  0  0  0  0  0  0  0  0  0  0
   -7.4621   17.0309  -30.8664 H   0  0  0  0  0  0  0  0  0  0  0  0
   -9.2065   18.8191  -30.8472 H   0  0  0  0  0  0  0  0  0  0  0  0
   -9.0817   20.7024  -32.4851 H   0  0  0  0  0  0  0  0  0  0  0  0
   -7.2418   20.7827  -34.1710 H   0  0  0  0  0  0  0  0  0  0  0  0
   -1.2021   19.5541  -28.6418 H   0  0  0  0  0  0  0  0  0  0  0  0
   -1.8584   18.9447  -30.1972 H   0  0  0  0  0  0  0  0  0  0  0  0
    0.7084   20.6070  -29.9391 H   0  0  0  0  0  0  0  0  0  0  0  0
    0.6632   18.8055  -30.0270 H   0  0  0  0  0  0  0  0  0  0  0  0
   -0.4031   17.6926  -32.0229 H   0  0  0  0  0  0  0  0  0  0  0  0
   -0.5984   17.7999  -34.5092 H   0  0  0  0  0  0  0  0  0  0  0  0
    1.6397   18.8533  -36.1342 H   0  0  0  0  0  0  0  0  0  0  0  0
    0.4410   18.5356  -37.4337 H   0  0  0  0  0  0  0  0  0  0  0  0
    1.3812   20.0662  -37.4337 H   0  0  0  0  0  0  0  0  0  0  0  0
    2.4790   22.7195  -34.6675 H   0  0  0  0  0  0  0  0  0  0  0  0
    1.8845   21.6651  -35.9947 H   0  0  0  0  0  0  0  0  0  0  0  0
    1.4900   23.4175  -35.9947 H   0  0  0  0  0  0  0  0  0  0  0  0
    0.4613   21.9464  -31.9033 H   0  0  0  0  0  0  0  0  0  0  0  0
   -3.5812   23.8208  -26.9422 H   0  0  0  0  0  0  0  0  0  0  0  0
   -3.1267   25.6963  -25.3648 H   0  0  0  0  0  0  0  0  0  0  0  0
  1  2  1  0
  2  3  1  0
  3  4  1  0
  4  5  2  0
  5  6  1  0
  6  7  2  0
  7  8  1  0
  8  9  1  0
  9 10  2  0
  9 11  1  0
 11 12  2  0
 12 13  1  0
 13 14  2  0
 14 15  1  0
 15 16  1  0
 16 17  1  0
 17 18  2  0
 18 19  1  0
 19 20  2  0
 20 21  1  0
 21 22  2  0
 14 23  1  0
 23 24  2  0
 24 25  1  0
 25 26  1  0
 26 27  1  0
 27 28  1  0
 28 29  2  0
 29 30  1  0
 30 31  2  0
 31 32  1  0
 32 33  1  0
 31 34  1  0
 34 35  1  0
 35 36  1  0
 34 37  2  0
 25 38  1  0
 38 39  2  0
  7 40  1  0
 40 41  2  0
 41  4  1  0
 38  8  1  0
 24 11  1  0
 37 28  1  0
 22 17  1  0
  1 42  1  0
  1 43  1  0
  1 44  1  0
  2 45  1  0
  2 46  1  0
  5 47  1  0
  6 48  1  0
 12 49  1  0
 13 50  1  0
 15 51  1  0
 15 52  1  0
 16 53  1  0
 16 54  1  0
 18 55  1  0
 19 56  1  0
 20 57  1  0
 21 58  1  0
 22 59  1  0
 26 60  1  0
 26 61  1  0
 27 62  1  0
 27 63  1  0
 29 64  1  0
 30 65  1  0
 33 66  1  0
 33 67  1  0
 33 68  1  0
 36 69  1  0
 36 70  1  0
 36 71  1  0
 37 72  1  0
 40 73  1  0
 41 74  1  0
M  END
>  <UniqueID>  (19) 
19

>  <SMILES>  (19) 
CCOc1ccc(-n2c(=O)c3ccc(CCc4ccccc4)nc3n(CCc3ccc(OC)c(OC)c3)c2=O)cc1

>  <Energy>  (19) 
106.49775626212654

>  <Genealogy>  (19) 
CCOc1ccc(-n2c(=O)c3ccc(CCc4ccccc4)nc3n(CCc3ccc(OC)c(OC)c3)c2=O)cc1 (3D coordinates assigned)
CCOc1ccc(-n2c(=O)c3ccc(CCc4ccccc4)nc3n(CCc3ccc(OC)c(OC)c3)c2=O)cc1 (optimized conformer: 106.49775626212654 kcal/mol)

>  <smiles>  (19) 
CCOc1ccc(-n2c(=O)c3ccc(CCc4ccccc4)nc3n(CCc3ccc(OC)c(OC)c3)c2=O)cc1

>  <score_type>  (19) 
oracle

>  <origin>  (19) 
adgpu

>  <m_score__min__energy>  (19) 
-10.640000000000001

>  <m_primary>  (19) 
energy

$$$$
19:0
     RDKit          3D

 45 47  0  0  0  0  0  0  0  0999 V2000
   -6.1240   16.3010  -32.8010 C   0  0  0  0  0  0  0  0  0  0  0  0
   -6.8900   17.3570  -33.3730 O   0  0  0  0  0  0  0  0  0  0  0  0
   -6.7050   18.7190  -33.0860 C   0  0  0  0  0  0  0  0  0  0  0  0
   -7.7070   19.4940  -32.4720 C   0  0  0  0  0  0  0  0  0  0  0  0
   -7.5020   20.8530  -32.2270 C   0  0  0  0  0  0  0  0  0  0  0  0
   -6.2930   21.4700  -32.5940 C   0  0  0  0  0  0  0  0  0  0  0  0
   -6.0540   22.8700  -32.3660 N   0  0  0  0  0  0  0  0  0  0  0  0
   -6.1150   23.6210  -30.8030 S   0  0  0  0  0  0  0  0  0  0  0  0
   -7.1190   22.9030  -29.9470 O   0  0  0  0  0  0  0  0  0  0  0  0
   -6.5420   25.0540  -30.9620 O   0  0  0  0  0  0  0  0  0  0  0  0
   -4.5380   23.5240  -30.0260 C   0  0  0  0  0  0  0  0  0  0  0  0
   -4.1150   22.3160  -29.4520 C   0  0  0  0  0  0  0  0  0  0  0  0
   -2.8580   22.2300  -28.8450 C   0  0  0  0  0  0  0  0  0  0  0  0
   -2.0200   23.3480  -28.8060 C   0  0  0  0  0  0  0  0  0  0  0  0
   -2.4390   24.5560  -29.3730 C   0  0  0  0  0  0  0  0  0  0  0  0
   -1.6070   25.6680  -29.3310 O   0  0  0  0  0  0  0  0  0  0  0  0
   -3.6960   24.6450  -29.9810 C   0  0  0  0  0  0  0  0  0  0  0  0
   -5.2910   20.6950  -33.1940 C   0  0  0  0  0  0  0  0  0  0  0  0
   -5.4870   19.3260  -33.4380 C   0  0  0  0  0  0  0  0  0  0  0  0
   -4.4460   18.5490  -34.0550 N   0  0  0  0  0  0  0  0  0  0  0  0
   -3.0450   18.8250  -33.7250 C   0  0  0  0  0  0  0  0  0  0  0  0
   -2.2300   17.5290  -33.8050 C   0  0  0  0  0  0  0  0  0  0  0  0
   -2.4320   16.8510  -35.0940 N   0  0  0  0  0  0  0  0  0  0  0  0
   -3.8500   16.5200  -35.2970 C   0  0  0  0  0  0  0  0  0  0  0  0
   -4.7260   17.7790  -35.2680 C   0  0  0  0  0  0  0  0  0  0  0  0
   -6.1714   16.3663  -31.7040 H   0  0  0  0  0  0  0  0  0  0  0  0
   -6.5316   15.3333  -33.1287 H   0  0  0  0  0  0  0  0  0  0  0  0
   -5.0775   16.3880  -33.1287 H   0  0  0  0  0  0  0  0  0  0  0  0
   -8.6591   19.0250  -32.1829 H   0  0  0  0  0  0  0  0  0  0  0  0
   -8.2923   21.4457  -31.7431 H   0  0  0  0  0  0  0  0  0  0  0  0
   -5.9200   23.5020  -33.1880 H   0  0  0  0  0  0  0  0  0  0  0  0
   -4.7730   21.4349  -29.4794 H   0  0  0  0  0  0  0  0  0  0  0  0
   -2.5282   21.2808  -28.3975 H   0  0  0  0  0  0  0  0  0  0  0  0
   -1.0311   23.2778  -28.3294 H   0  0  0  0  0  0  0  0  0  0  0  0
   -4.0247   25.5963  -30.4248 H   0  0  0  0  0  0  0  0  0  0  0  0
   -4.3381   21.1656  -33.4776 H   0  0  0  0  0  0  0  0  0  0  0  0
   -2.6387   19.5570  -34.4385 H   0  0  0  0  0  0  0  0  0  0  0  0
   -2.9844   19.2309  -32.7044 H   0  0  0  0  0  0  0  0  0  0  0  0
   -1.1627   17.7689  -33.6894 H   0  0  0  0  0  0  0  0  0  0  0  0
   -2.5663   16.8566  -33.0020 H   0  0  0  0  0  0  0  0  0  0  0  0
   -2.1170   17.4860  -35.8660 H   0  0  0  0  0  0  0  0  0  0  0  0
   -3.9663   16.0250  -36.2724 H   0  0  0  0  0  0  0  0  0  0  0  0
   -4.1713   15.8547  -34.4821 H   0  0  0  0  0  0  0  0  0  0  0  0
   -4.5072   18.3967  -36.1515 H   0  0  0  0  0  0  0  0  0  0  0  0
   -5.7859   17.4847  -35.2753 H   0  0  0  0  0  0  0  0  0  0  0  0
  1  2  1  0
  2  3  1  0
  3  4  2  0
  4  5  1  0
  5  6  2  0
  6  7  1  0
  7  8  1  0
  8  9  2  0
  8 10  2  0
  8 11  1  0
 11 12  2  0
 12 13  1  0
 13 14  2  0
 14 15  1  0
 15 16  1  0
 15 17  2  0
  6 18  1  0
 18 19  2  0
 19 20  1  0
 20 21  1  0
 21 22  1  0
 22 23  1  0
 23 24  1  0
 24 25  1  0
 19  3  1  0
 25 20  1  0
 17 11  1  0
  1 26  1  0
  1 27  1  0
  1 28  1  0
  4 29  1  0
  5 30  1  0
  7 31  1  0
 12 32  1  0
 13 33  1  0
 14 34  1  0
 17 35  1  0
 18 36  1  0
 21 37  1  0
 21 38  1  0
 22 39  1  0
 22 40  1  0
 23 41  1  0
 24 42  1  0
 24 43  1  0
 25 44  1  0
 25 45  1  0
M  CHG  1  16  -1
M  END
>  <UniqueID>  (20) 
20

>  <SMILES>  (20) 
COc1ccc(NS(=O)(=O)c2cccc([O-])c2)cc1N1CCNCC1

>  <Energy>  (20) 
51.47571886383659

>  <Genealogy>  (20) 
COc1ccc(NS(=O)(=O)c2cccc([O-])c2)cc1N1CCNCC1 (protonated)
COc1ccc(NS(=O)(=O)c2cccc([O-])c2)cc1N1CCNCC1 (3D coordinates assigned)
COc1ccc(NS(=O)(=O)c2cccc([O-])c2)cc1N1CCNCC1 (nonaromatic ring conformer: 51.47571886383659 kcal/mol)

>  <smiles>  (20) 
COc1ccc(NS(=O)(=O)c2cccc(O)c2)cc1N1CCNCC1

>  <score_type>  (20) 
oracle

>  <origin>  (20) 
adgpu

>  <m_score__min__energy>  (20) 
-10.57

>  <m_primary>  (20) 
energy

$$$$
20:0
     RDKit          3D

 45 47  0  0  0  0  0  0  0  0999 V2000
   -1.5820   18.0550  -32.4360 O   0  0  0  0  0  0  0  0  0  0  0  0
   -2.2240   18.9930  -32.9830 C   0  0  0  0  0  0  0  0  0  0  0  0
   -2.7940   18.8010  -34.2830 N   0  0  0  0  0  0  0  0  0  0  0  0
   -3.7930   17.7820  -34.5830 C   0  0  0  0  0  0  0  0  0  0  0  0
   -5.0790   18.1040  -33.8680 C   0  0  0  0  0  0  0  0  0  0  0  0
   -5.7430   19.3190  -34.1040 C   0  0  0  0  0  0  0  0  0  0  0  0
   -6.9610   19.5900  -33.4710 C   0  0  0  0  0  0  0  0  0  0  0  0
   -7.5270   18.6480  -32.6030 C   0  0  0  0  0  0  0  0  0  0  0  0
   -9.0560   18.9870  -31.8150 Cl  0  0  0  0  0  0  0  0  0  0  0  0
   -6.8760   17.4310  -32.3750 C   0  0  0  0  0  0  0  0  0  0  0  0
   -5.6590   17.1570  -33.0070 C   0  0  0  0  0  0  0  0  0  0  0  0
   -2.4050   20.2810  -32.2760 C   0  0  0  0  0  0  0  0  0  0  0  0
   -3.6860   20.7100  -31.8870 C   0  0  0  0  0  0  0  0  0  0  0  0
   -3.8450   21.8760  -31.1340 C   0  0  0  0  0  0  0  0  0  0  0  0
   -2.7270   22.6320  -30.7530 C   0  0  0  0  0  0  0  0  0  0  0  0
   -2.8780   23.8000  -29.8130 C   0  0  0  0  0  0  0  0  0  0  0  0
   -3.5570   24.9210  -30.4720 N   0  0  0  0  0  0  0  0  0  0  0  0
   -5.1850   25.1240  -29.8810 S   0  0  0  0  0  0  0  0  0  0  0  0
   -5.6640   26.5230  -30.1590 O   0  0  0  0  0  0  0  0  0  0  0  0
   -5.2010   24.8970  -28.3960 O   0  0  0  0  0  0  0  0  0  0  0  0
   -6.2520   23.9450  -30.6440 C   0  0  0  0  0  0  0  0  0  0  0  0
   -7.0440   23.0820  -29.8690 C   0  0  0  0  0  0  0  0  0  0  0  0
   -7.9290   22.1940  -30.4910 C   0  0  0  0  0  0  0  0  0  0  0  0
   -8.0200   22.1580  -31.8860 C   0  0  0  0  0  0  0  0  0  0  0  0
   -7.2230   23.0040  -32.6610 C   0  0  0  0  0  0  0  0  0  0  0  0
   -6.3370   23.8920  -32.0420 C   0  0  0  0  0  0  0  0  0  0  0  0
   -1.4500   22.2370  -31.1830 C   0  0  0  0  0  0  0  0  0  0  0  0
   -1.2900   21.0710  -31.9360 C   0  0  0  0  0  0  0  0  0  0  0  0
   -3.9745   17.7563  -35.6676 H   0  0  0  0  0  0  0  0  0  0  0  0
   -3.4251   16.8016  -34.2461 H   0  0  0  0  0  0  0  0  0  0  0  0
   -5.3041   20.0598  -34.7886 H   0  0  0  0  0  0  0  0  0  0  0  0
   -7.4750   20.5449  -33.6555 H   0  0  0  0  0  0  0  0  0  0  0  0
   -7.3222   16.6882  -31.6974 H   0  0  0  0  0  0  0  0  0  0  0  0
   -5.1537   16.1962  -32.8294 H   0  0  0  0  0  0  0  0  0  0  0  0
   -4.5698   20.1232  -32.1777 H   0  0  0  0  0  0  0  0  0  0  0  0
   -4.8528   22.2029  -30.8383 H   0  0  0  0  0  0  0  0  0  0  0  0
   -3.4683   23.4850  -28.9399 H   0  0  0  0  0  0  0  0  0  0  0  0
   -1.8762   24.1312  -29.5019 H   0  0  0  0  0  0  0  0  0  0  0  0
   -6.9686   23.1041  -28.7718 H   0  0  0  0  0  0  0  0  0  0  0  0
   -8.5535   21.5238  -29.8821 H   0  0  0  0  0  0  0  0  0  0  0  0
   -8.7196   21.4631  -32.3734 H   0  0  0  0  0  0  0  0  0  0  0  0
   -7.2922   22.9718  -33.7584 H   0  0  0  0  0  0  0  0  0  0  0  0
   -5.7046   24.5512  -32.6548 H   0  0  0  0  0  0  0  0  0  0  0  0
   -0.5721   22.8480  -30.9260 H   0  0  0  0  0  0  0  0  0  0  0  0
   -0.2853   20.7678  -32.2658 H   0  0  0  0  0  0  0  0  0  0  0  0
  1  2  2  0
  2  3  1  0
  3  4  1  0
  4  5  1  0
  5  6  2  0
  6  7  1  0
  7  8  2  0
  8  9  1  0
  8 10  1  0
 10 11  2  0
  2 12  1  0
 12 13  2  0
 13 14  1  0
 14 15  2  0
 15 16  1  0
 16 17  1  0
 17 18  1  0
 18 19  2  0
 18 20  2  0
 18 21  1  0
 21 22  2  0
 22 23  1  0
 23 24  2  0
 24 25  1  0
 25 26  2  0
 15 27  1  0
 27 28  2  0
 11  5  1  0
 28 12  1  0
 26 21  1  0
  4 29  1  0
  4 30  1  0
  6 31  1  0
  7 32  1  0
 10 33  1  0
 11 34  1  0
 13 35  1  0
 14 36  1  0
 16 37  1  0
 16 38  1  0
 22 39  1  0
 23 40  1  0
 24 41  1  0
 25 42  1  0
 26 43  1  0
 27 44  1  0
 28 45  1  0
M  CHG  2   3  -1  17  -1
M  END
>  <UniqueID>  (21) 
21

>  <SMILES>  (21) 
O=C([N-]Cc1ccc(Cl)cc1)c1ccc(C[N-]S(=O)(=O)c2ccccc2)cc1

>  <Energy>  (21) 
39.25058267765289

>  <Genealogy>  (21) 
O=C([N-]Cc1ccc(Cl)cc1)c1ccc(C[N-]S(=O)(=O)c2ccccc2)cc1 (protonated)
O=C([N-]Cc1ccc(Cl)cc1)c1ccc(C[N-]S(=O)(=O)c2ccccc2)cc1 (3D coordinates assigned)
O=C([N-]Cc1ccc(Cl)cc1)c1ccc(C[N-]S(=O)(=O)c2ccccc2)cc1 (optimized conformer: 39.25058267765289 kcal/mol)

>  <smiles>  (21) 
O=C(NCc1ccc(Cl)cc1)c1ccc(CNS(=O)(=O)c2ccccc2)cc1

>  <score_type>  (21) 
oracle

>  <origin>  (21) 
adgpu

>  <m_score__min__energy>  (21) 
-11.16

>  <m_primary>  (21) 
energy

$$$$
21:0
     RDKit          3D

 38 40  0  0  0  0  0  0  0  0999 V2000
   -6.4410   15.9990  -33.6680 C   0  0  0  0  0  0  0  0  0  0  0  0
   -6.5580   17.4770  -33.4390 C   0  0  0  0  0  0  0  0  0  0  0  0
   -5.6470   18.3630  -34.0340 C   0  0  0  0  0  0  0  0  0  0  0  0
   -5.7790   19.7420  -33.8450 C   0  0  0  0  0  0  0  0  0  0  0  0
   -6.8290   20.2560  -33.0740 C   0  0  0  0  0  0  0  0  0  0  0  0
   -6.9290   21.6770  -32.9130 N   0  0  0  0  0  0  0  0  0  0  0  0
   -7.2590   22.4910  -31.4170 S   0  0  0  0  0  0  0  0  0  0  0  0
   -7.9610   23.7880  -31.7070 O   0  0  0  0  0  0  0  0  0  0  0  0
   -8.1540   21.6280  -30.5730 O   0  0  0  0  0  0  0  0  0  0  0  0
   -5.7550   22.7730  -30.5460 C   0  0  0  0  0  0  0  0  0  0  0  0
   -5.6650   23.7960  -29.5920 C   0  0  0  0  0  0  0  0  0  0  0  0
   -4.4610   24.0250  -28.9190 C   0  0  0  0  0  0  0  0  0  0  0  0
   -3.3340   23.2350  -29.1950 C   0  0  0  0  0  0  0  0  0  0  0  0
   -2.0990   23.4610  -28.4970 N   0  0  0  0  0  0  0  0  0  0  0  0
   -1.3240   24.5620  -28.5730 C   0  0  0  0  0  0  0  0  0  0  0  0
   -1.6240   25.6760  -29.3500 O   0  0  0  0  0  0  0  0  0  0  0  0
   -0.1910   24.4270  -27.7980 C   0  0  0  0  0  0  0  0  0  0  0  0
   -0.2720   23.1760  -27.2130 C   0  0  0  0  0  0  0  0  0  0  0  0
   -1.4540   22.6180  -27.6580 C   0  0  0  0  0  0  0  0  0  0  0  0
   -1.9280   21.3700  -27.2590 O   0  0  0  0  0  0  0  0  0  0  0  0
   -3.4330   22.2010  -30.1390 C   0  0  0  0  0  0  0  0  0  0  0  0
   -4.6370   21.9750  -30.8130 C   0  0  0  0  0  0  0  0  0  0  0  0
   -7.7520   19.3680  -32.4910 C   0  0  0  0  0  0  0  0  0  0  0  0
   -7.6190   17.9890  -32.6790 C   0  0  0  0  0  0  0  0  0  0  0  0
   -6.3999   15.4799  -32.6990 H   0  0  0  0  0  0  0  0  0  0  0  0
   -7.3140   15.6458  -34.2364 H   0  0  0  0  0  0  0  0  0  0  0  0
   -5.5233   15.7875  -34.2364 H   0  0  0  0  0  0  0  0  0  0  0  0
   -4.8256   17.9710  -34.6517 H   0  0  0  0  0  0  0  0  0  0  0  0
   -5.0528   20.4282  -34.3053 H   0  0  0  0  0  0  0  0  0  0  0  0
   -6.5437   24.4202  -29.3723 H   0  0  0  0  0  0  0  0  0  0  0  0
   -4.3967   24.8279  -28.1698 H   0  0  0  0  0  0  0  0  0  0  0  0
    0.6145   25.1652  -27.6708 H   0  0  0  0  0  0  0  0  0  0  0  0
    0.4587   22.7177  -26.5303 H   0  0  0  0  0  0  0  0  0  0  0  0
   -1.6300   20.9350  -26.3960 H   0  0  0  0  0  0  0  0  0  0  0  0
   -2.5599   21.5659  -30.3494 H   0  0  0  0  0  0  0  0  0  0  0  0
   -4.7056   21.1668  -31.5560 H   0  0  0  0  0  0  0  0  0  0  0  0
   -8.5817   19.7605  -31.8848 H   0  0  0  0  0  0  0  0  0  0  0  0
   -8.3506   17.3022  -32.2283 H   0  0  0  0  0  0  0  0  0  0  0  0
  1  2  1  0
  2  3  2  0
  3  4  1  0
  4  5  2  0
  5  6  1  0
  6  7  1  0
  7  8  2  0
  7  9  2  0
  7 10  1  0
 10 11  2  0
 11 12  1  0
 12 13  2  0
 13 14  1  0
 14 15  1  0
 15 16  1  0
 15 17  2  0
 17 18  1  0
 18 19  2  0
 19 20  1  0
 13 21  1  0
 21 22  2  0
  5 23  1  0
 23 24  2  0
 24  2  1  0
 22 10  1  0
 19 14  1  0
  1 25  1  0
  1 26  1  0
  1 27  1  0
  3 28  1  0
  4 29  1  0
 11 30  1  0
 12 31  1  0
 17 32  1  0
 18 33  1  0
 20 34  1  0
 21 35  1  0
 22 36  1  0
 23 37  1  0
 24 38  1  0
M  CHG  2   6  -1  16  -1
M  END
>  <UniqueID>  (22) 
22

>  <SMILES>  (22) 
Cc1ccc([N-]S(=O)(=O)c2ccc(-n3c([O-])ccc3O)cc2)cc1

>  <Energy>  (22) 
76.1803641607448

>  <Genealogy>  (22) 
Cc1ccc([N-]S(=O)(=O)c2ccc(-n3c([O-])ccc3O)cc2)cc1 (protonated)
Cc1ccc([N-]S(=O)(=O)c2ccc(-n3c([O-])ccc3O)cc2)cc1 (3D coordinates assigned)
Cc1ccc([N-]S(=O)(=O)c2ccc(-n3c([O-])ccc3O)cc2)cc1 (optimized conformer: 76.1803641607448 kcal/mol)

>  <smiles>  (22) 
Cc1ccc(NS(=O)(=O)c2ccc(-n3c(O)ccc3O)cc2)cc1

>  <score_type>  (22) 
oracle

>  <origin>  (22) 
adgpu

>  <m_score__min__energy>  (22) 
-10.390000000000001

>  <m_primary>  (22) 
energy

$$$$
22:0
     RDKit          3D

 35 36  0  0  0  0  0  0  0  0999 V2000
   -3.8670   25.2980  -30.5990 O   0  0  0  0  0  0  0  0  0  0  0  0
   -4.9570   24.7880  -30.2260 C   0  0  0  0  0  0  0  0  0  0  0  0
   -6.0440   24.5510  -31.2340 C   0  0  0  0  0  0  0  0  0  0  0  0
   -5.7580   23.3170  -32.0970 C   0  0  0  0  0  0  0  0  0  0  0  0
   -6.9010   22.3330  -32.0780 C   0  0  0  0  0  0  0  0  0  0  0  0
   -8.1650   22.7190  -31.6020 C   0  0  0  0  0  0  0  0  0  0  0  0
   -9.2240   21.8060  -31.5920 C   0  0  0  0  0  0  0  0  0  0  0  0
   -9.0360   20.5100  -32.0790 C   0  0  0  0  0  0  0  0  0  0  0  0
   -7.7850   20.1210  -32.5640 C   0  0  0  0  0  0  0  0  0  0  0  0
   -6.7190   21.0260  -32.5610 C   0  0  0  0  0  0  0  0  0  0  0  0
   -5.1490   24.4000  -28.8580 N   0  0  0  0  0  0  0  0  0  0  0  0
   -4.0910   24.4930  -27.8570 C   0  0  0  0  0  0  0  0  0  0  0  0
   -2.8430   23.8290  -28.3660 C   0  0  0  0  0  0  0  0  0  0  0  0
   -2.8830   22.4950  -28.8050 C   0  0  0  0  0  0  0  0  0  0  0  0
   -1.7250   21.8790  -29.2890 C   0  0  0  0  0  0  0  0  0  0  0  0
   -0.5260   22.5920  -29.3520 C   0  0  0  0  0  0  0  0  0  0  0  0
   -0.4840   23.9280  -28.9390 C   0  0  0  0  0  0  0  0  0  0  0  0
   -1.6390   24.5460  -28.4520 C   0  0  0  0  0  0  0  0  0  0  0  0
   -6.9959   24.4020  -30.7033 H   0  0  0  0  0  0  0  0  0  0  0  0
   -6.0947   25.4280  -31.8960 H   0  0  0  0  0  0  0  0  0  0  0  0
   -5.5868   23.6415  -33.1340 H   0  0  0  0  0  0  0  0  0  0  0  0
   -4.8713   22.8136  -31.6843 H   0  0  0  0  0  0  0  0  0  0  0  0
   -8.3224   23.7441  -31.2355 H   0  0  0  0  0  0  0  0  0  0  0  0
  -10.2064   22.1085  -31.2002 H   0  0  0  0  0  0  0  0  0  0  0  0
   -9.8729   19.7961  -32.0805 H   0  0  0  0  0  0  0  0  0  0  0  0
   -7.6383   19.1010  -32.9489 H   0  0  0  0  0  0  0  0  0  0  0  0
   -5.7341   20.7136  -32.9382 H   0  0  0  0  0  0  0  0  0  0  0  0
   -6.0450   23.9370  -28.5830 H   0  0  0  0  0  0  0  0  0  0  0  0
   -3.8805   25.5520  -27.6466 H   0  0  0  0  0  0  0  0  0  0  0  0
   -4.4192   23.9882  -26.9364 H   0  0  0  0  0  0  0  0  0  0  0  0
   -3.8282   21.9336  -28.7678 H   0  0  0  0  0  0  0  0  0  0  0  0
   -1.7585   20.8308  -29.6208 H   0  0  0  0  0  0  0  0  0  0  0  0
    0.3855   22.1032  -29.7264 H   0  0  0  0  0  0  0  0  0  0  0  0
    0.4585   24.4922  -28.9976 H   0  0  0  0  0  0  0  0  0  0  0  0
   -1.6046   25.5987  -28.1347 H   0  0  0  0  0  0  0  0  0  0  0  0
  1  2  2  0
  2  3  1  0
  3  4  1  0
  4  5  1  0
  5  6  2  0
  6  7  1  0
  7  8  2  0
  8  9  1  0
  9 10  2  0
  2 11  1  0
 11 12  1  0
 12 13  1  0
 13 14  2  0
 14 15  1  0
 15 16  2  0
 16 17  1  0
 17 18  2  0
 10  5  1  0
 18 13  1  0
  3 19  1  0
  3 20  1  0
  4 21  1  0
  4 22  1  0
  6 23  1  0
  7 24  1  0
  8 25  1  0
  9 26  1  0
 10 27  1  0
 11 28  1  0
 12 29  1  0
 12 30  1  0
 14 31  1  0
 15 32  1  0
 16 33  1  0
 17 34  1  0
 18 35  1  0
M  END
>  <UniqueID>  (23) 
23

>  <SMILES>  (23) 
O=C(CCc1ccccc1)NCc1ccccc1

>  <Energy>  (23) 
25.358207535528045

>  <Genealogy>  (23) 
O=C(CCc1ccccc1)NCc1ccccc1 (3D coordinates assigned)
O=C(CCc1ccccc1)NCc1ccccc1 (optimized conformer: 25.358207535528045 kcal/mol)

>  <smiles>  (23) 
O=C(CCc1ccccc1)NCc1ccccc1

>  <score_type>  (23) 
oracle

>  <origin>  (23) 
adgpu

>  <m_score__min__energy>  (23) 
-7.6200000000000001

>  <m_primary>  (23) 
energy

$$$$
23:0
     RDKit          3D

 60 64  0  0  0  0  0  0  0  0999 V2000
   -4.0915   25.4480  -30.4779 H   0  0  0  0  0  0  0  0  0  0  0  0
   -3.4730   24.8250  -29.8150 C   0  0  0  0  0  0  0  0  0  0  0  0
   -2.2900   25.2980  -29.3550 N   0  0  0  0  0  0  0  0  0  0  0  0
   -1.5210   24.5930  -28.4850 C   0  0  0  0  0  0  0  0  0  0  0  0
   -0.3370   25.1660  -28.0070 C   0  0  0  0  0  0  0  0  0  0  0  0
    0.0010   26.1311  -28.4124 H   0  0  0  0  0  0  0  0  0  0  0  0
    0.4260   24.5250  -27.0160 C   0  0  0  0  0  0  0  0  0  0  0  0
    1.7030   25.1350  -26.5500 C   0  0  0  0  0  0  0  0  0  0  0  0
    1.7460   25.9230  -25.4370 N   0  0  0  0  0  0  0  0  0  0  0  0
    2.9820   26.4100  -25.1980 C   0  0  0  0  0  0  0  0  0  0  0  0
    3.3020   27.3210  -24.0470 C   0  0  0  0  0  0  0  0  0  0  0  0
    4.2950   27.0607  -23.6519 H   0  0  0  0  0  0  0  0  0  0  0  0
    3.2831   28.3575  -24.4149 H   0  0  0  0  0  0  0  0  0  0  0  0
    2.3080   27.2000  -22.9610 N   0  0  0  0  0  0  0  0  0  0  0  0
    2.8090   27.1180  -22.0430 H   0  0  0  0  0  0  0  0  0  0  0  0
    1.7770   26.3040  -23.0880 H   0  0  0  0  0  0  0  0  0  0  0  0
    1.3750   28.3490  -22.8970 C   0  0  0  0  0  0  0  0  0  0  0  0
    0.3717   27.9751  -22.6447 H   0  0  0  0  0  0  0  0  0  0  0  0
    1.7520   29.0435  -22.1318 H   0  0  0  0  0  0  0  0  0  0  0  0
    1.2950   29.1180  -24.2280 C   0  0  0  0  0  0  0  0  0  0  0  0
    1.8310   30.0734  -24.1285 H   0  0  0  0  0  0  0  0  0  0  0  0
    1.7545   28.5107  -25.0218 H   0  0  0  0  0  0  0  0  0  0  0  0
   -0.1220   29.3850  -24.5810 N   0  0  0  0  0  0  0  0  0  0  0  0
   -0.8890   28.1430  -24.8470 C   0  0  0  0  0  0  0  0  0  0  0  0
   -0.5403   27.3573  -24.1607 H   0  0  0  0  0  0  0  0  0  0  0  0
   -1.9553   28.3645  -24.6925 H   0  0  0  0  0  0  0  0  0  0  0  0
   -0.7120   27.6480  -26.3030 C   0  0  0  0  0  0  0  0  0  0  0  0
   -0.5287   26.5634  -26.2925 H   0  0  0  0  0  0  0  0  0  0  0  0
   -1.6293   27.8833  -26.8627 H   0  0  0  0  0  0  0  0  0  0  0  0
    0.3760   28.2930  -26.9390 O   0  0  0  0  0  0  0  0  0  0  0  0
    0.1080   29.6810  -27.0630 C   0  0  0  0  0  0  0  0  0  0  0  0
    1.0033   30.1790  -27.4637 H   0  0  0  0  0  0  0  0  0  0  0  0
   -0.7539   29.7968  -27.7366 H   0  0  0  0  0  0  0  0  0  0  0  0
   -0.2610   30.3360  -25.7080 C   0  0  0  0  0  0  0  0  0  0  0  0
    0.4052   31.1939  -25.5341 H   0  0  0  0  0  0  0  0  0  0  0  0
   -1.3124   30.6555  -25.7579 H   0  0  0  0  0  0  0  0  0  0  0  0
    4.0810   25.8880  -26.3550 S   0  0  0  0  0  0  0  0  0  0  0  0
    2.9340   24.9990  -27.2040 C   0  0  0  0  0  0  0  0  0  0  0  0
    3.1185   24.4119  -28.1157 H   0  0  0  0  0  0  0  0  0  0  0  0
   -0.0610   23.3250  -26.4690 C   0  0  0  0  0  0  0  0  0  0  0  0
    0.4884   22.8397  -25.6488 H   0  0  0  0  0  0  0  0  0  0  0  0
   -1.2340   22.7410  -26.9540 C   0  0  0  0  0  0  0  0  0  0  0  0
   -1.6156   21.8219  -26.4852 H   0  0  0  0  0  0  0  0  0  0  0  0
   -1.9370   23.3130  -28.0370 C   0  0  0  0  0  0  0  0  0  0  0  0
   -3.1040   22.7330  -28.6270 C   0  0  0  0  0  0  0  0  0  0  0  0
   -3.4530   21.4760  -28.4990 N   0  0  0  0  0  0  0  0  0  0  0  0
   -2.6950   20.3480  -28.0300 C   0  0  0  0  0  0  0  0  0  0  0  0
   -3.0830   19.6620  -26.8630 C   0  0  0  0  0  0  0  0  0  0  0  0
   -3.9950   19.9645  -26.3275 H   0  0  0  0  0  0  0  0  0  0  0  0
   -2.3140   18.5980  -26.3820 C   0  0  0  0  0  0  0  0  0  0  0  0
   -2.6305   18.0545  -25.4795 H   0  0  0  0  0  0  0  0  0  0  0  0
   -1.1430   18.2250  -27.0480 C   0  0  0  0  0  0  0  0  0  0  0  0
   -0.5413   17.3844  -26.6721 H   0  0  0  0  0  0  0  0  0  0  0  0
   -0.7350   18.9200  -28.1930 C   0  0  0  0  0  0  0  0  0  0  0  0
    0.1876   18.6250  -28.7144 H   0  0  0  0  0  0  0  0  0  0  0  0
   -1.4990   19.9900  -28.6760 C   0  0  0  0  0  0  0  0  0  0  0  0
   -0.9450   20.8650  -30.0970 Cl  0  0  0  0  0  0  0  0  0  0  0  0
   -3.9110   23.5490  -29.4510 C   0  0  0  0  0  0  0  0  0  0  0  0
   -5.1490   23.0570  -30.0120 C   0  0  0  0  0  0  0  0  0  0  0  0
   -6.1390   22.6630  -30.4620 N   0  0  0  0  0  0  0  0  0  0  0  0
  1  2  1  0
  2  3  1  0
  3  4  1  0
  4  5  2  0
  5  6  1  0
  5  7  1  0
  7  8  1  0
  8  9  1  0
  9 10  2  0
 10 11  1  0
 11 12  1  0
 11 13  1  0
 11 14  1  0
 14 15  1  0
 14 16  1  0
 14 17  1  0
 17 18  1  0
 17 19  1  0
 17 20  1  0
 20 21  1  0
 20 22  1  0
 20 23  1  0
 23 24  1  0
 24 25  1  0
 24 26  1  0
 24 27  1  0
 27 28  1  0
 27 29  1  0
 27 30  1  0
 30 31  1  0
 31 32  1  0
 31 33  1  0
 31 34  1  0
 34 35  1  0
 34 36  1  0
 10 37  1  0
 37 38  1  0
 38 39  1  0
  7 40  2  0
 40 41  1  0
 40 42  1  0
 42 43  1  0
 42 44  2  0
 44 45  1  0
 45 46  2  0
 46 47  1  0
 47 48  2  0
 48 49  1  0
 48 50  1  0
 50 51  1  0
 50 52  2  0
 52 53  1  0
 52 54  1  0
 54 55  1  0
 54 56  2  0
 56 57  1  0
 45 58  1  0
 58 59  1  0
 59 60  3  0
 58  2  2  0
 44  4  1  0
 56 47  1  0
 38  8  2  0
 34 23  1  0
M  CHG  2   3  -1  14   1
M  END
>  <UniqueID>  (24) 
24

>  <SMILES>  (24) 
N#Cc1c[n-]c2cc(-c3csc(C[NH2+]CCN4CCOCC4)n3)ccc2/c1=N\c1ccccc1Cl

>  <Energy>  (24) 
134.48410267375942

>  <Genealogy>  (24) 
N#Cc1c[n-]c2cc(-c3csc(C[NH2+]CCN4CCOCC4)n3)ccc2c1=Nc1ccccc1Cl (protonated)
N#Cc1c[n-]c2cc(-c3csc(C[NH2+]CCN4CCOCC4)n3)ccc2/c1=N\c1ccccc1Cl (cis-trans isomerization)
N#Cc1c[n-]c2cc(-c3csc(C[NH2+]CCN4CCOCC4)n3)ccc2/c1=N\c1ccccc1Cl (3D coordinates assigned)
N#Cc1c[n-]c2cc(-c3csc(C[NH2+]CCN4CCOCC4)n3)ccc2/c1=N\c1ccccc1Cl (nonaromatic ring conformer: 134.48410267375942 kcal/mol)

>  <smiles>  (24) 
N#Cc1c[nH]c2cc(-c3csc(CNCCN4CCOCC4)n3)ccc2c1=Nc1ccccc1Cl

>  <score_type>  (24) 
oracle

>  <origin>  (24) 
adgpu

>  <m_score__min__energy>  (24) 
-11.99

>  <m_primary>  (24) 
energy

$$$$
24:0
     RDKit          3D

 35 37  0  0  0  0  0  0  0  0999 V2000
   -0.6591   28.6401  -24.0201 H   0  0  0  0  0  0  0  0  0  0  0  0
   -0.7820   27.9160  -24.8390 C   0  0  0  0  0  0  0  0  0  0  0  0
   -1.3770   26.6770  -24.5930 C   0  0  0  0  0  0  0  0  0  0  0  0
   -1.7197   26.4244  -23.5787 H   0  0  0  0  0  0  0  0  0  0  0  0
   -1.5380   25.7570  -25.6330 C   0  0  0  0  0  0  0  0  0  0  0  0
   -2.0011   24.7800  -25.4304 H   0  0  0  0  0  0  0  0  0  0  0  0
   -1.1120   26.0710  -26.9380 C   0  0  0  0  0  0  0  0  0  0  0  0
   -1.2840   25.0840  -28.0320 C   0  0  0  0  0  0  0  0  0  0  0  0
   -0.2390   24.3170  -28.4590 N   0  0  0  0  0  0  0  0  0  0  0  0
   -0.8470   23.3730  -29.6850 S   0  0  0  0  0  0  0  0  0  0  0  0
   -2.3960   23.9540  -29.6360 C   0  0  0  0  0  0  0  0  0  0  0  0
   -3.3600   23.5730  -30.4190 N   0  0  0  0  0  0  0  0  0  0  0  0
   -4.9700   24.2170  -30.3700 S   0  0  0  0  0  0  0  0  0  0  0  0
   -5.3160   24.5720  -28.9520 O   0  0  0  0  0  0  0  0  0  0  0  0
   -5.0260   25.4600  -31.2140 O   0  0  0  0  0  0  0  0  0  0  0  0
   -6.1180   23.0160  -30.9540 C   0  0  0  0  0  0  0  0  0  0  0  0
   -7.3670   22.8640  -30.3350 C   0  0  0  0  0  0  0  0  0  0  0  0
   -7.6244   23.4798  -29.4606 H   0  0  0  0  0  0  0  0  0  0  0  0
   -8.2860   21.9320  -30.8260 C   0  0  0  0  0  0  0  0  0  0  0  0
   -9.2610   21.8113  -30.3313 H   0  0  0  0  0  0  0  0  0  0  0  0
   -7.9700   21.1500  -31.9470 C   0  0  0  0  0  0  0  0  0  0  0  0
   -8.9430   20.1260  -32.4530 C   0  0  0  0  0  0  0  0  0  0  0  0
   -9.4217   19.6222  -31.6003 H   0  0  0  0  0  0  0  0  0  0  0  0
   -9.7114   20.6212  -33.0648 H   0  0  0  0  0  0  0  0  0  0  0  0
   -8.4092   19.3839  -33.0648 H   0  0  0  0  0  0  0  0  0  0  0  0
   -6.7100   21.2870  -32.5500 C   0  0  0  0  0  0  0  0  0  0  0  0
   -6.4448   20.6586  -33.4130 H   0  0  0  0  0  0  0  0  0  0  0  0
   -5.7910   22.2180  -32.0590 C   0  0  0  0  0  0  0  0  0  0  0  0
   -4.8080   22.3250  -32.5410 H   0  0  0  0  0  0  0  0  0  0  0  0
   -2.4870   24.8890  -28.6650 N   0  0  0  0  0  0  0  0  0  0  0  0
   -3.3690   25.3780  -28.4030 H   0  0  0  0  0  0  0  0  0  0  0  0
   -0.5030   27.3200  -27.1710 C   0  0  0  0  0  0  0  0  0  0  0  0
   -0.1513   27.5768  -28.1811 H   0  0  0  0  0  0  0  0  0  0  0  0
   -0.3430   28.2350  -26.1260 C   0  0  0  0  0  0  0  0  0  0  0  0
    0.1302   29.2093  -26.3181 H   0  0  0  0  0  0  0  0  0  0  0  0
  1  2  1  0
  2  3  2  0
  3  4  1  0
  3  5  1  0
  5  6  1  0
  5  7  2  0
  7  8  1  0
  8  9  2  0
  9 10  1  0
 10 11  1  0
 11 12  2  0
 12 13  1  0
 13 14  2  0
 13 15  2  0
 13 16  1  0
 16 17  2  0
 17 18  1  0
 17 19  1  0
 19 20  1  0
 19 21  2  0
 21 22  1  0
 22 23  1  0
 22 24  1  0
 22 25  1  0
 21 26  1  0
 26 27  1  0
 26 28  2  0
 28 29  1  0
 11 30  1  0
 30 31  1  0
  7 32  1  0
 32 33  1  0
 32 34  2  0
 34 35  1  0
 34  2  1  0
 30  8  1  0
 28 16  1  0
M  END
>  <UniqueID>  (25) 
25

>  <SMILES>  (25) 
Cc1ccc(S(=O)(=O)/N=c2\[nH]c(-c3ccccc3)ns2)cc1

>  <Energy>  (25) 
79.42126199768562

>  <Genealogy>  (25) 
Cc1ccc(S(=O)(=O)/N=c2\[nH]c(-c3ccccc3)ns2)cc1 (cis-trans isomerization)
Cc1ccc(S(=O)(=O)/N=c2\[nH]c(-c3ccccc3)ns2)cc1 (3D coordinates assigned)
Cc1ccc(S(=O)(=O)/N=c2\[nH]c(-c3ccccc3)ns2)cc1 (optimized conformer: 79.42126199768562 kcal/mol)

>  <smiles>  (25) 
Cc1ccc(S(=O)(=O)N=c2[nH]c(-c3ccccc3)ns2)cc1

>  <score_type>  (25) 
oracle

>  <origin>  (25) 
adgpu

>  <m_score__min__energy>  (25) 
-9.1500000000000004

>  <m_primary>  (25) 
energy

$$$$
25:0
     RDKit          3D

 38 40  0  0  0  0  0  0  0  0999 V2000
   -1.5270   22.6750  -28.4420 C   0  0  0  0  0  0  0  0  0  0  0  0
   -2.5680   23.0610  -29.4100 N   0  0  0  0  0  0  0  0  0  0  0  0
   -3.2170   22.0920  -30.1410 C   0  0  0  0  0  0  0  0  0  0  0  0
   -2.9220   20.7320  -29.9830 O   0  0  0  0  0  0  0  0  0  0  0  0
   -4.2120   22.4530  -31.0650 C   0  0  0  0  0  0  0  0  0  0  0  0
   -4.9160   21.4130  -31.8650 C   0  0  0  0  0  0  0  0  0  0  0  0
   -4.2550   20.5040  -32.5320 N   0  0  0  0  0  0  0  0  0  0  0  0
   -2.8330   20.4280  -32.7280 C   0  0  0  0  0  0  0  0  0  0  0  0
   -2.1750   19.2240  -32.4480 C   0  0  0  0  0  0  0  0  0  0  0  0
   -0.7960   19.1080  -32.6540 C   0  0  0  0  0  0  0  0  0  0  0  0
   -0.0710   20.1880  -33.1650 C   0  0  0  0  0  0  0  0  0  0  0  0
   -0.7260   21.3810  -33.4810 C   0  0  0  0  0  0  0  0  0  0  0  0
   -2.1040   21.5000  -33.2750 C   0  0  0  0  0  0  0  0  0  0  0  0
   -6.4040   21.3490  -31.8540 C   0  0  0  0  0  0  0  0  0  0  0  0
   -7.0860   20.4660  -32.7150 C   0  0  0  0  0  0  0  0  0  0  0  0
   -8.4830   20.4040  -32.7100 C   0  0  0  0  0  0  0  0  0  0  0  0
   -9.2170   21.2170  -31.8440 C   0  0  0  0  0  0  0  0  0  0  0  0
  -10.5720   21.1540  -31.8410 F   0  0  0  0  0  0  0  0  0  0  0  0
   -8.5570   22.0930  -30.9820 C   0  0  0  0  0  0  0  0  0  0  0  0
   -7.1610   22.1610  -30.9830 C   0  0  0  0  0  0  0  0  0  0  0  0
   -4.5110   23.8110  -31.2240 C   0  0  0  0  0  0  0  0  0  0  0  0
   -5.3790   24.1870  -32.0560 O   0  0  0  0  0  0  0  0  0  0  0  0
   -3.8560   24.7330  -30.4840 N   0  0  0  0  0  0  0  0  0  0  0  0
   -2.9010   24.3810  -29.5890 C   0  0  0  0  0  0  0  0  0  0  0  0
   -2.3290   25.2910  -28.9290 O   0  0  0  0  0  0  0  0  0  0  0  0
   -1.9069   22.8159  -27.4193 H   0  0  0  0  0  0  0  0  0  0  0  0
   -1.2606   21.6183  -28.5919 H   0  0  0  0  0  0  0  0  0  0  0  0
   -0.6361   23.3026  -28.5919 H   0  0  0  0  0  0  0  0  0  0  0  0
   -3.3210   19.9980  -30.5530 H   0  0  0  0  0  0  0  0  0  0  0  0
   -2.7452   18.3652  -32.0642 H   0  0  0  0  0  0  0  0  0  0  0  0
   -0.2819   18.1657  -32.4135 H   0  0  0  0  0  0  0  0  0  0  0  0
    1.0146   20.0989  -33.3183 H   0  0  0  0  0  0  0  0  0  0  0  0
   -0.1570   22.2277  -33.8924 H   0  0  0  0  0  0  0  0  0  0  0  0
   -2.6196   22.4345  -33.5414 H   0  0  0  0  0  0  0  0  0  0  0  0
   -6.5142   19.8197  -33.3972 H   0  0  0  0  0  0  0  0  0  0  0  0
   -9.0045   19.7137  -33.3893 H   0  0  0  0  0  0  0  0  0  0  0  0
   -9.1368   22.7319  -30.2997 H   0  0  0  0  0  0  0  0  0  0  0  0
   -6.6482   22.8533  -30.2991 H   0  0  0  0  0  0  0  0  0  0  0  0
  1  2  1  0
  2  3  1  0
  3  4  1  0
  3  5  2  0
  5  6  1  0
  6  7  2  3
  7  8  1  0
  8  9  2  0
  9 10  1  0
 10 11  2  0
 11 12  1  0
 12 13  2  0
  6 14  1  0
 14 15  2  0
 15 16  1  0
 16 17  2  0
 17 18  1  0
 17 19  1  0
 19 20  2  0
  5 21  1  0
 21 22  2  0
 21 23  1  0
 23 24  1  0
 24 25  2  0
 24  2  1  0
 13  8  1  0
 20 14  1  0
  1 26  1  0
  1 27  1  0
  1 28  1  0
  4 29  1  0
  9 30  1  0
 10 31  1  0
 11 32  1  0
 12 33  1  0
 13 34  1  0
 15 35  1  0
 16 36  1  0
 19 37  1  0
 20 38  1  0
M  CHG  1  23  -1
M  END
>  <UniqueID>  (26) 
26

>  <SMILES>  (26) 
Cn1c(O)c(C(=Nc2ccccc2)c2ccc(F)cc2)c(=O)[n-]c1=O

>  <Energy>  (26) 
61.69983099354871

>  <Genealogy>  (26) 
Cn1c(O)c(C(=Nc2ccccc2)c2ccc(F)cc2)c(=O)[n-]c1=O (protonated)
Cn1c(O)c(C(=Nc2ccccc2)c2ccc(F)cc2)c(=O)[n-]c1=O (3D coordinates assigned)
Cn1c(O)c(C(=Nc2ccccc2)c2ccc(F)cc2)c(=O)[n-]c1=O (optimized conformer: 61.69983099354871 kcal/mol)

>  <smiles>  (26) 
Cn1c(O)c(C(=Nc2ccccc2)c2ccc(F)cc2)c(=O)[nH]c1=O

>  <score_type>  (26) 
oracle

>  <origin>  (26) 
adgpu

>  <m_score__min__energy>  (26) 
-8.1199999999999992

>  <m_primary>  (26) 
energy

$$$$
26:0
     RDKit          3D

 55 57  0  0  0  0  0  0  0  0999 V2000
   -6.8700   15.7810  -34.2380 C   0  0  0  0  0  0  0  0  0  0  0  0
   -6.9020   16.5370  -33.0310 O   0  0  0  0  0  0  0  0  0  0  0  0
   -6.2230   17.7500  -32.8320 C   0  0  0  0  0  0  0  0  0  0  0  0
   -6.8430   18.8660  -32.2520 C   0  0  0  0  0  0  0  0  0  0  0  0
   -6.1440   20.0690  -32.0770 C   0  0  0  0  0  0  0  0  0  0  0  0
   -4.7870   20.1750  -32.4650 C   0  0  0  0  0  0  0  0  0  0  0  0
   -4.1750   19.0340  -33.0360 C   0  0  0  0  0  0  0  0  0  0  0  0
   -4.8850   17.8350  -33.2280 C   0  0  0  0  0  0  0  0  0  0  0  0
   -4.2900   16.6990  -33.8010 O   0  0  0  0  0  0  0  0  0  0  0  0
   -3.1000   16.7140  -34.5840 C   0  0  0  0  0  0  0  0  0  0  0  0
   -3.9500   21.4580  -32.1770 C   0  0  2  0  0  0  0  0  0  0  0  0
   -3.1560   21.8300  -33.4590 C   0  0  0  0  0  0  0  0  0  0  0  0
   -2.9280   21.0830  -31.0730 C   0  0  0  0  0  0  0  0  0  0  0  0
   -3.6010   21.0080  -29.7140 C   0  0  0  0  0  0  0  0  0  0  0  0
   -4.0550   22.3830  -29.2280 C   0  0  0  0  0  0  0  0  0  0  0  0
   -4.5450   23.3960  -30.3260 C   0  0  1  0  0  0  0  0  0  0  0  0
   -5.7930   24.1200  -29.7410 C   0  0  0  0  0  0  0  0  0  0  0  0
   -3.4920   24.5440  -30.4860 C   0  0  0  0  0  0  0  0  0  0  0  0
   -3.1190   25.1110  -29.2370 O   0  0  0  0  0  0  0  0  0  0  0  0
   -1.9390   24.7750  -28.5710 C   0  0  0  0  0  0  0  0  0  0  0  0
   -2.0190   24.2020  -27.1970 C   0  0  0  0  0  0  0  0  0  0  0  0
   -0.8160   24.9530  -29.1170 O   0  0  0  0  0  0  0  0  0  0  0  0
   -4.8380   22.7340  -31.7620 C   0  0  2  0  0  0  0  0  0  0  0  0
   -6.3320   22.5080  -32.1070 C   0  0  0  0  0  0  0  0  0  0  0  0
   -6.8520   21.2350  -31.4670 C   0  0  0  0  0  0  0  0  0  0  0  0
   -6.8246   14.7085  -33.9978 H   0  0  0  0  0  0  0  0  0  0  0  0
   -7.7777   15.9874  -34.8241 H   0  0  0  0  0  0  0  0  0  0  0  0
   -5.9830   16.0634  -34.8241 H   0  0  0  0  0  0  0  0  0  0  0  0
   -7.8925   18.7968  -31.9297 H   0  0  0  0  0  0  0  0  0  0  0  0
   -3.1183   19.0860  -33.3370 H   0  0  0  0  0  0  0  0  0  0  0  0
   -2.2237   16.7250  -33.9191 H   0  0  0  0  0  0  0  0  0  0  0  0
   -3.0674   15.8162  -35.2187 H   0  0  0  0  0  0  0  0  0  0  0  0
   -3.0900   17.6123  -35.2187 H   0  0  0  0  0  0  0  0  0  0  0  0
   -2.1934   22.2810  -33.1762 H   0  0  0  0  0  0  0  0  0  0  0  0
   -2.9751   20.9229  -34.0544 H   0  0  0  0  0  0  0  0  0  0  0  0
   -3.7372   22.5495  -34.0544 H   0  0  0  0  0  0  0  0  0  0  0  0
   -2.4849   20.1045  -31.3099 H   0  0  0  0  0  0  0  0  0  0  0  0
   -2.1492   21.8590  -31.0370 H   0  0  0  0  0  0  0  0  0  0  0  0
   -4.4786   20.3489  -29.7874 H   0  0  0  0  0  0  0  0  0  0  0  0
   -2.8699   20.6150  -28.9922 H   0  0  0  0  0  0  0  0  0  0  0  0
   -4.8850   22.2294  -28.5226 H   0  0  0  0  0  0  0  0  0  0  0  0
   -3.1577   22.8445  -28.7900 H   0  0  0  0  0  0  0  0  0  0  0  0
   -5.7498   24.0950  -28.6421 H   0  0  0  0  0  0  0  0  0  0  0  0
   -5.8048   25.1652  -30.0838 H   0  0  0  0  0  0  0  0  0  0  0  0
   -6.7061   23.6114  -30.0838 H   0  0  0  0  0  0  0  0  0  0  0  0
   -2.5936   24.1350  -30.9714 H   0  0  0  0  0  0  0  0  0  0  0  0
   -3.9498   25.3387  -31.0934 H   0  0  0  0  0  0  0  0  0  0  0  0
   -1.9065   25.0077  -26.4566 H   0  0  0  0  0  0  0  0  0  0  0  0
   -2.9943   23.7119  -27.0603 H   0  0  0  0  0  0  0  0  0  0  0  0
   -1.2152   23.4636  -27.0603 H   0  0  0  0  0  0  0  0  0  0  0  0
   -4.4807   23.5534  -32.4030 H   0  0  0  0  0  0  0  0  0  0  0  0
   -6.9193   23.3618  -31.7381 H   0  0  0  0  0  0  0  0  0  0  0  0
   -6.4291   22.4159  -33.1988 H   0  0  0  0  0  0  0  0  0  0  0  0
   -6.6598   21.2597  -30.3842 H   0  0  0  0  0  0  0  0  0  0  0  0
   -7.9354   21.1460  -31.6355 H   0  0  0  0  0  0  0  0  0  0  0  0
  1  2  1  0
  2  3  1  0
  3  4  2  0
  4  5  1  0
  5  6  2  0
  6  7  1  0
  7  8  2  0
  8  9  1  0
  9 10  1  0
  6 11  1  0
 11 12  1  6
 11 13  1  0
 13 14  1  0
 14 15  1  0
 15 16  1  0
 16 17  1  1
 16 18  1  0
 18 19  1  0
 19 20  1  0
 20 21  1  0
 20 22  2  0
 16 23  1  0
 23 24  1  0
 24 25  1  0
  8  3  1  0
 23 11  1  0
 25  5  1  0
  1 26  1  0
  1 27  1  0
  1 28  1  0
  4 29  1  0
  7 30  1  0
 10 31  1  0
 10 32  1  0
 10 33  1  0
 12 34  1  0
 12 35  1  0
 12 36  1  0
 13 37  1  0
 13 38  1  0
 14 39  1  0
 14 40  1  0
 15 41  1  0
 15 42  1  0
 17 43  1  0
 17 44  1  0
 17 45  1  0
 18 46  1  0
 18 47  1  0
 21 48  1  0
 21 49  1  0
 21 50  1  0
 23 51  1  6
 24 52  1  0
 24 53  1  0
 25 54  1  0
 25 55  1  0
M  END
>  <UniqueID>  (27) 
27

>  <SMILES>  (27) 
COc1cc2c(cc1OC)[C@]1(C)CCC[C@@](C)(COC(C)=O)C1CC2

>  <Energy>  (27) 
80.25811407747452

>  <Genealogy>  (27) 
COc1cc2c(cc1OC)[C@]1(C)CCC[C@@](C)(COC(C)=O)C1CC2 (chirality)
COc1cc2c(cc1OC)[C@]1(C)CCC[C@@](C)(COC(C)=O)C1CC2 (3D coordinates assigned)
COc1cc2c(cc1OC)[C@]1(C)CCC[C@@](C)(COC(C)=O)C1CC2 (nonaromatic ring conformer: 80.25811407747452 kcal/mol)

>  <smiles>  (27) 
COc1cc2c(cc1OC)C1(C)CCCC(C)(COC(C)=O)C1CC2

>  <score_type>  (27) 
oracle

>  <origin>  (27) 
adgpu

>  <m_score__min__energy>  (27) 
-7.5099999999999998

>  <m_primary>  (27) 
energy

$$$$
27:0
     RDKit          3D

 34 36  0  0  0  0  0  0  0  0999 V2000
   -0.6010   22.3020  -35.4200 H   0  0  0  0  0  0  0  0  0  0  0  0
   -0.1370   21.9070  -34.6100 O   0  0  0  0  0  0  0  0  0  0  0  0
   -0.8530   21.2650  -33.6010 C   0  0  0  0  0  0  0  0  0  0  0  0
   -2.2490   21.3850  -33.5320 C   0  0  0  0  0  0  0  0  0  0  0  0
   -2.7830   22.0036  -34.2683 H   0  0  0  0  0  0  0  0  0  0  0  0
   -2.9650   20.7200  -32.5290 C   0  0  0  0  0  0  0  0  0  0  0  0
   -4.3850   20.9000  -32.4400 N   0  0  0  0  0  0  0  0  0  0  0  0
   -5.0800   21.9260  -32.0200 C   0  0  0  0  0  0  0  0  0  0  0  0
   -6.4350   21.9450  -32.3790 C   0  0  0  0  0  0  0  0  0  0  0  0
   -6.8908   21.0552  -32.8378 H   0  0  0  0  0  0  0  0  0  0  0  0
   -7.2080   23.0820  -32.1590 C   0  0  0  0  0  0  0  0  0  0  0  0
   -8.2622   23.0974  -32.4727 H   0  0  0  0  0  0  0  0  0  0  0  0
   -6.6660   24.1690  -31.5600 N   0  0  0  0  0  0  0  0  0  0  0  0
   -5.3830   24.1730  -31.1120 C   0  0  0  0  0  0  0  0  0  0  0  0
   -4.8950   25.2960  -30.4430 C   0  0  0  0  0  0  0  0  0  0  0  0
   -5.5139   26.2024  -30.3689 H   0  0  0  0  0  0  0  0  0  0  0  0
   -3.6600   25.2730  -29.8840 N   0  0  0  0  0  0  0  0  0  0  0  0
   -2.8660   24.1710  -29.9330 C   0  0  0  0  0  0  0  0  0  0  0  0
   -1.6980   24.1440  -29.3550 N   0  0  0  0  0  0  0  0  0  0  0  0
   -1.0260   25.1790  -28.6140 C   0  0  0  0  0  0  0  0  0  0  0  0
   -1.2190   26.3770  -28.9530 O   0  0  0  0  0  0  0  0  0  0  0  0
   -0.1110   24.9040  -27.4590 C   0  0  0  0  0  0  0  0  0  0  0  0
   -0.6525   25.0667  -26.5154 H   0  0  0  0  0  0  0  0  0  0  0  0
    0.2370   23.8616  -27.5070 H   0  0  0  0  0  0  0  0  0  0  0  0
    0.7540   25.5819  -27.5070 H   0  0  0  0  0  0  0  0  0  0  0  0
   -3.3160   23.0250  -30.6030 C   0  0  0  0  0  0  0  0  0  0  0  0
   -2.6980   22.1150  -30.6048 H   0  0  0  0  0  0  0  0  0  0  0  0
   -4.5580   23.0310  -31.2760 C   0  0  0  0  0  0  0  0  0  0  0  0
   -2.2710   19.9830  -31.5540 C   0  0  0  0  0  0  0  0  0  0  0  0
   -2.8231   19.5007  -30.7339 H   0  0  0  0  0  0  0  0  0  0  0  0
   -0.8800   19.8620  -31.6250 C   0  0  0  0  0  0  0  0  0  0  0  0
   -0.3418   19.2663  -30.8730 H   0  0  0  0  0  0  0  0  0  0  0  0
   -0.1720   20.4960  -32.6490 C   0  0  0  0  0  0  0  0  0  0  0  0
    1.1780   20.3760  -32.7090 F   0  0  0  0  0  0  0  0  0  0  0  0
  1  2  1  0
  2  3  1  0
  3  4  2  0
  4  5  1  0
  4  6  1  0
  6  7  1  0
  7  8  2  0
  8  9  1  0
  9 10  1  0
  9 11  2  0
 11 12  1  0
 11 13  1  0
 13 14  1  0
 14 15  2  0
 15 16  1  0
 15 17  1  0
 17 18  1  0
 18 19  2  3
 19 20  1  0
 20 21  2  0
 20 22  1  0
 22 23  1  0
 22 24  1  0
 22 25  1  0
 18 26  1  0
 26 27  1  0
 26 28  2  0
  6 29  2  0
 29 30  1  0
 29 31  1  0
 31 32  1  0
 31 33  2  0
 33 34  1  0
 33  3  1  0
 28  8  1  0
 28 14  1  0
M  CHG  2  13  -1  17  -1
M  END
>  <UniqueID>  (28) 
28

>  <SMILES>  (28) 
CC(=O)N=c1cc2/c(=N\c3ccc(F)c(O)c3)cc[n-]c2c[n-]1

>  <Energy>  (28) 
63.52224615402693

>  <Genealogy>  (28) 
CC(=O)N=c1cc2c(=Nc3ccc(F)c(O)c3)cc[n-]c2c[n-]1 (protonated)
CC(=O)N=c1cc2/c(=N\c3ccc(F)c(O)c3)cc[n-]c2c[n-]1 (cis-trans isomerization)
CC(=O)N=c1cc2/c(=N\c3ccc(F)c(O)c3)cc[n-]c2c[n-]1 (3D coordinates assigned)
CC(=O)N=c1cc2/c(=N\c3ccc(F)c(O)c3)cc[n-]c2c[n-]1 (optimized conformer: 63.52224615402693 kcal/mol)

>  <smiles>  (28) 
CC(=O)N=c1cc2c(=Nc3ccc(F)c(O)c3)cc[nH]c2c[nH]1

>  <score_type>  (28) 
oracle

>  <origin>  (28) 
adgpu

>  <m_score__min__energy>  (28) 
-8.9499999999999993

>  <m_primary>  (28) 
energy

$$$$
28:0
     RDKit          3D

 39 40  0  0  1  0  0  0  0  0999 V2000
   -3.8890   18.6220  -26.3170 C   0  0  0  0  0  0  0  0  0  0  0  0
   -2.3870   18.7930  -26.3440 C   0  0  0  0  0  0  0  0  0  0  0  0
   -1.9580   20.1100  -25.9900 N   0  0  0  0  0  0  0  0  0  0  0  0
   -0.9090   20.8360  -27.1520 S   0  0  0  0  0  0  0  0  0  0  0  0
    0.2860   20.0140  -27.4710 O   0  0  0  0  0  0  0  0  0  0  0  0
   -0.4030   22.1210  -26.5210 O   0  0  0  0  0  0  0  0  0  0  0  0
   -1.7790   21.2440  -28.6150 C   0  0  0  0  0  0  0  0  0  0  0  0
   -1.4310   20.6580  -29.8170 C   0  0  0  0  0  0  0  0  0  0  0  0
   -2.1600   21.0280  -30.9180 C   0  0  0  0  0  0  0  0  0  0  0  0
   -3.1920   21.9300  -30.8750 C   0  0  0  0  0  0  0  0  0  0  0  0
   -4.0550   22.3140  -32.4080 S   0  0  0  0  0  0  0  0  0  0  0  0
   -5.5260   21.3380  -32.5280 C   0  0  0  0  0  0  0  0  0  0  0  0
   -5.5890   20.0970  -33.1160 C   0  0  0  0  0  0  0  0  0  0  0  0
   -6.7950   19.4250  -33.1530 C   0  0  0  0  0  0  0  0  0  0  0  0
   -7.9420   19.9670  -32.6130 C   0  0  0  0  0  0  0  0  0  0  0  0
   -9.4830   19.1250  -32.6500 Cl  0  0  0  0  0  0  0  0  0  0  0  0
   -7.8970   21.2140  -32.0170 C   0  0  0  0  0  0  0  0  0  0  0  0
   -6.6940   21.8790  -31.9830 C   0  0  0  0  0  0  0  0  0  0  0  0
   -3.5480   22.5190  -29.6850 C   0  0  0  0  0  0  0  0  0  0  0  0
   -4.6470   23.4630  -29.7090 C   0  0  0  0  0  0  0  0  0  0  0  0
   -5.9170   23.0500  -29.2480 O   0  0  0  0  0  0  0  0  0  0  0  0
   -4.5900   24.6740  -30.1160 N   0  0  0  0  0  0  0  0  0  0  0  0
   -3.4970   25.2940  -30.5980 O   0  0  0  0  0  0  0  0  0  0  0  0
   -2.8300   22.1620  -28.5720 C   0  0  0  0  0  0  0  0  0  0  0  0
   -4.2348   18.5826  -25.2735 H   0  0  0  0  0  0  0  0  0  0  0  0
   -4.3641   19.4719  -26.8289 H   0  0  0  0  0  0  0  0  0  0  0  0
   -4.1609   17.6871  -26.8289 H   0  0  0  0  0  0  0  0  0  0  0  0
   -1.9422   18.0793  -25.6350 H   0  0  0  0  0  0  0  0  0  0  0  0
   -2.0586   18.6120  -27.3781 H   0  0  0  0  0  0  0  0  0  0  0  0
   -1.5050   20.0600  -25.0530 H   0  0  0  0  0  0  0  0  0  0  0  0
   -0.6092   19.9302  -29.8873 H   0  0  0  0  0  0  0  0  0  0  0  0
   -1.9031   20.5770  -31.8878 H   0  0  0  0  0  0  0  0  0  0  0  0
   -4.6872   19.6434  -33.5530 H   0  0  0  0  0  0  0  0  0  0  0  0
   -6.8416   18.4325  -33.6251 H   0  0  0  0  0  0  0  0  0  0  0  0
   -8.8015   21.6630  -31.5808 H   0  0  0  0  0  0  0  0  0  0  0  0
   -6.6492   22.8713  -31.5105 H   0  0  0  0  0  0  0  0  0  0  0  0
   -6.4950   23.7000  -28.6930 H   0  0  0  0  0  0  0  0  0  0  0  0
   -3.4060   25.4860  -31.5880 H   0  0  0  0  0  0  0  0  0  0  0  0
   -3.0931   22.6177  -27.6060 H   0  0  0  0  0  0  0  0  0  0  0  0
  1  2  1  0
  2  3  1  0
  3  4  1  0
  4  5  2  0
  4  6  2  0
  4  7  1  0
  7  8  2  0
  8  9  1  0
  9 10  2  0
 10 11  1  0
 11 12  1  0
 12 13  2  0
 13 14  1  0
 14 15  2  0
 15 16  1  0
 15 17  1  0
 17 18  2  0
 10 19  1  0
 19 20  1  0
 20 21  1  0
 20 22  2  0
 22 23  1  0
 19 24  2  0
 24  7  1  0
 18 12  1  0
  1 25  1  0
  1 26  1  0
  1 27  1  0
  2 28  1  0
  2 29  1  0
  3 30  1  0
  8 31  1  0
  9 32  1  0
 13 33  1  0
 14 34  1  0
 17 35  1  0
 18 36  1  0
 21 37  1  0
 23 38  1  0
 24 39  1  0
M  END
>  <smiles>  (29) 
CCNS(=O)(=O)c1ccc(Sc2ccc(Cl)cc2)c(C(O)=NO)c1

>  <score_type>  (29) 
oracle

>  <origin>  (29) 
adgpu

>  <m_score__min__energy>  (29) 
-10.029999999999999

>  <m_primary>  (29) 
energy

$$$$
29:0
     RDKit          3D

 43 45  0  0  0  0  0  0  0  0999 V2000
    0.2830   18.7870  -33.0210 C   0  0  0  0  0  0  0  0  0  0  0  0
   -1.0910   19.3810  -33.1090 C   0  0  0  0  0  0  0  0  0  0  0  0
   -2.2200   18.6000  -32.8210 C   0  0  0  0  0  0  0  0  0  0  0  0
   -3.4980   19.1640  -32.8670 C   0  0  0  0  0  0  0  0  0  0  0  0
   -3.6680   20.5170  -33.2000 C   0  0  0  0  0  0  0  0  0  0  0  0
   -4.9930   21.0790  -33.2210 N   0  0  0  0  0  0  0  0  0  0  0  0
   -5.4550   22.0710  -32.2890 C   0  0  0  0  0  0  0  0  0  0  0  0
   -4.5640   23.0450  -31.8220 C   0  0  0  0  0  0  0  0  0  0  0  0
   -5.0160   24.0660  -30.9870 C   0  0  0  0  0  0  0  0  0  0  0  0
   -4.1910   24.9260  -30.5700 O   0  0  0  0  0  0  0  0  0  0  0  0
   -6.3360   24.1360  -30.6330 N   0  0  0  0  0  0  0  0  0  0  0  0
   -6.8000   25.2080  -29.7410 C   0  0  0  0  0  0  0  0  0  0  0  0
   -7.2240   23.1960  -31.0750 C   0  0  0  0  0  0  0  0  0  0  0  0
   -6.8140   22.1420  -31.9100 C   0  0  0  0  0  0  0  0  0  0  0  0
   -7.8100   21.1210  -32.3250 C   0  0  0  0  0  0  0  0  0  0  0  0
   -8.9850   21.1610  -31.8680 O   0  0  0  0  0  0  0  0  0  0  0  0
   -7.4050   20.0570  -33.2040 N   0  0  0  0  0  0  0  0  0  0  0  0
   -6.8690   18.9030  -32.9100 C   0  0  0  0  0  0  0  0  0  0  0  0
   -6.7060   18.4360  -31.5880 C   0  0  0  0  0  0  0  0  0  0  0  0
   -6.1300   17.1830  -31.3650 C   0  0  0  0  0  0  0  0  0  0  0  0
   -5.7360   16.4110  -32.4140 N   0  0  0  0  0  0  0  0  0  0  0  0
   -5.9000   16.8270  -33.6990 C   0  0  0  0  0  0  0  0  0  0  0  0
   -6.4720   18.0710  -33.9660 C   0  0  0  0  0  0  0  0  0  0  0  0
   -2.5320   21.3060  -33.4530 C   0  0  0  0  0  0  0  0  0  0  0  0
   -1.2550   20.7420  -33.4080 C   0  0  0  0  0  0  0  0  0  0  0  0
    0.5631   18.6659  -31.9642 H   0  0  0  0  0  0  0  0  0  0  0  0
    0.2905   17.8053  -33.5171 H   0  0  0  0  0  0  0  0  0  0  0  0
    1.0033   19.4541  -33.5171 H   0  0  0  0  0  0  0  0  0  0  0  0
   -2.0990   17.5388  -32.5577 H   0  0  0  0  0  0  0  0  0  0  0  0
   -4.3772   18.5429  -32.6405 H   0  0  0  0  0  0  0  0  0  0  0  0
   -5.6430   20.7900  -33.9870 H   0  0  0  0  0  0  0  0  0  0  0  0
   -3.5044   23.0045  -32.1147 H   0  0  0  0  0  0  0  0  0  0  0  0
   -6.6657   24.8978  -28.6942 H   0  0  0  0  0  0  0  0  0  0  0  0
   -6.2165   26.1210  -29.9306 H   0  0  0  0  0  0  0  0  0  0  0  0
   -7.8650   25.4075  -29.9306 H   0  0  0  0  0  0  0  0  0  0  0  0
   -8.2791   23.2654  -30.7718 H   0  0  0  0  0  0  0  0  0  0  0  0
   -7.0305   19.0549  -30.7385 H   0  0  0  0  0  0  0  0  0  0  0  0
   -5.9942   16.8185  -30.3361 H   0  0  0  0  0  0  0  0  0  0  0  0
   -5.3080   15.4770  -32.2300 H   0  0  0  0  0  0  0  0  0  0  0  0
   -5.5806   16.1805  -34.5297 H   0  0  0  0  0  0  0  0  0  0  0  0
   -6.6117   18.3995  -35.0065 H   0  0  0  0  0  0  0  0  0  0  0  0
   -2.6497   22.3742  -33.6878 H   0  0  0  0  0  0  0  0  0  0  0  0
   -0.3731   21.3682  -33.6081 H   0  0  0  0  0  0  0  0  0  0  0  0
  1  2  1  0
  2  3  2  0
  3  4  1  0
  4  5  2  0
  5  6  1  0
  6  7  1  0
  7  8  2  0
  8  9  1  0
  9 10  2  0
  9 11  1  0
 11 12  1  0
 11 13  1  0
 13 14  2  0
 14 15  1  0
 15 16  2  0
 15 17  1  0
 17 18  2  3
 18 19  1  0
 19 20  2  0
 20 21  1  0
 21 22  1  0
 22 23  2  0
  5 24  1  0
 24 25  2  0
 25  2  1  0
 14  7  1  0
 23 18  1  0
  1 26  1  0
  1 27  1  0
  1 28  1  0
  3 29  1  0
  4 30  1  0
  6 31  1  0
  8 32  1  0
 12 33  1  0
 12 34  1  0
 12 35  1  0
 13 36  1  0
 19 37  1  0
 20 38  1  0
 21 39  1  0
 22 40  1  0
 23 41  1  0
 24 42  1  0
 25 43  1  0
M  END
>  <UniqueID>  (30) 
29

>  <SMILES>  (30) 
Cc1ccc(Nc2cc(=O)n(C)cc2C(=O)N=c2cc[nH]cc2)cc1

>  <Energy>  (30) 
63.87063636346221

>  <Genealogy>  (30) 
Cc1ccc(Nc2cc(=O)n(C)cc2C(=O)N=c2cc[nH]cc2)cc1 (3D coordinates assigned)
Cc1ccc(Nc2cc(=O)n(C)cc2C(=O)N=c2cc[nH]cc2)cc1 (optimized conformer: 63.87063636346221 kcal/mol)

>  <smiles>  (30) 
Cc1ccc(Nc2cc(=O)n(C)cc2C(=O)N=c2cc[nH]cc2)cc1

>  <score_type>  (30) 
oracle

>  <origin>  (30) 
adgpu

>  <m_score__min__energy>  (30) 
-8.2100000000000009

>  <m_primary>  (30) 
energy

$$$$
30:0
     RDKit          3D

 23 24  0  0  0  0  0  0  0  0999 V2000
   -6.2868   25.9454  -30.6275 H   0  0  0  0  0  0  0  0  0  0  0  0
   -5.8680   24.9430  -30.8000 C   0  0  0  0  0  0  0  0  0  0  0  0
   -6.4690   24.1800  -31.7250 C   0  0  0  0  0  0  0  0  0  0  0  0
   -7.2275   24.6606  -32.3604 H   0  0  0  0  0  0  0  0  0  0  0  0
   -6.1960   22.7460  -31.9610 C   0  0  0  0  0  0  0  0  0  0  0  0
   -4.9070   22.3460  -32.3420 C   0  0  0  0  0  0  0  0  0  0  0  0
   -4.1058   23.0942  -32.4328 H   0  0  0  0  0  0  0  0  0  0  0  0
   -4.6360   21.0000  -32.6070 C   0  0  0  0  0  0  0  0  0  0  0  0
   -3.6194   20.6902  -32.8908 H   0  0  0  0  0  0  0  0  0  0  0  0
   -5.6540   20.0480  -32.5120 C   0  0  0  0  0  0  0  0  0  0  0  0
   -5.4369   18.9885  -32.7127 H   0  0  0  0  0  0  0  0  0  0  0  0
   -6.9480   20.4420  -32.1620 C   0  0  0  0  0  0  0  0  0  0  0  0
   -7.7511   19.6933  -32.0949 H   0  0  0  0  0  0  0  0  0  0  0  0
   -7.2230   21.7870  -31.8970 C   0  0  0  0  0  0  0  0  0  0  0  0
   -8.2462   22.0963  -31.6375 H   0  0  0  0  0  0  0  0  0  0  0  0
   -4.6940   24.5560  -29.9930 C   0  0  0  0  0  0  0  0  0  0  0  0
   -3.4980   25.0620  -30.1850 O   0  0  0  0  0  0  0  0  0  0  0  0
   -2.6610   24.4970  -29.3450 C   0  0  0  0  0  0  0  0  0  0  0  0
   -1.5882   24.7281  -29.2691 H   0  0  0  0  0  0  0  0  0  0  0  0
   -3.3290   23.5710  -28.5730 C   0  0  0  0  0  0  0  0  0  0  0  0
   -2.9010   22.9376  -27.7821 H   0  0  0  0  0  0  0  0  0  0  0  0
   -4.6410   23.5990  -28.9920 C   0  0  0  0  0  0  0  0  0  0  0  0
   -5.4733   22.9888  -28.6113 H   0  0  0  0  0  0  0  0  0  0  0  0
  1  2  1  0
  2  3  2  0
  3  4  1  0
  3  5  1  0
  5  6  2  0
  6  7  1  0
  6  8  1  0
  8  9  1  0
  8 10  2  0
 10 11  1  0
 10 12  1  0
 12 13  1  0
 12 14  2  0
 14 15  1  0
  2 16  1  0
 16 17  1  0
 17 18  1  0
 18 19  1  0
 18 20  2  0
 20 21  1  0
 20 22  1  0
 22 23  1  0
 14  5  1  0
 22 16  2  0
M  END
>  <UniqueID>  (31) 
30

>  <SMILES>  (31) 
C(=C\c1ccco1)\c1ccccc1

>  <Energy>  (31) 
57.72157274836838

>  <Genealogy>  (31) 
C(=C\c1ccco1)\c1ccccc1 (cis-trans isomerization)
C(=C\c1ccco1)\c1ccccc1 (3D coordinates assigned)
C(=C\c1ccco1)\c1ccccc1 (optimized conformer: 57.72157274836838 kcal/mol)

>  <smiles>  (31) 
C(=Cc1ccco1)c1ccccc1

>  <score_type>  (31) 
oracle

>  <origin>  (31) 
adgpu

>  <m_score__min__energy>  (31) 
-6.2800000000000002

>  <m_primary>  (31) 
energy

$$$$
31:0
     RDKit          3D

 44 47  0  0  0  0  0  0  0  0999 V2000
    0.4320   24.8970  -28.2000 O   0  0  0  0  0  0  0  0  0  0  0  0
   -0.5750   25.6150  -27.9650 C   0  0  0  0  0  0  0  0  0  0  0  0
   -1.6220   25.6700  -28.9440 N   0  0  0  0  0  0  0  0  0  0  0  0
   -2.7540   24.7900  -29.0220 C   0  0  0  0  0  0  0  0  0  0  0  0
   -3.0930   23.9300  -27.9630 C   0  0  0  0  0  0  0  0  0  0  0  0
   -4.1790   23.0600  -28.0860 C   0  0  0  0  0  0  0  0  0  0  0  0
   -4.9280   23.0350  -29.2640 C   0  0  0  0  0  0  0  0  0  0  0  0
   -4.6050   23.8860  -30.3280 C   0  0  0  0  0  0  0  0  0  0  0  0
   -5.3780   23.8070  -31.5330 N   0  0  0  0  0  0  0  0  0  0  0  0
   -5.6470   22.6210  -32.2930 C   0  0  0  0  0  0  0  0  0  0  0  0
   -4.7860   22.1700  -33.0960 O   0  0  0  0  0  0  0  0  0  0  0  0
   -6.9840   21.9930  -32.2300 C   0  0  0  0  0  0  0  0  0  0  0  0
   -8.0990   22.8340  -32.0660 C   0  0  0  0  0  0  0  0  0  0  0  0
   -9.3800   22.3050  -31.9260 C   0  0  0  0  0  0  0  0  0  0  0  0
   -9.5780   20.9260  -31.9530 C   0  0  0  0  0  0  0  0  0  0  0  0
   -8.4930   20.0600  -32.1450 C   0  0  0  0  0  0  0  0  0  0  0  0
   -8.7080   18.6740  -32.1980 C   0  0  0  0  0  0  0  0  0  0  0  0
   -7.6400   17.8050  -32.4240 C   0  0  0  0  0  0  0  0  0  0  0  0
   -6.3540   18.3110  -32.6130 C   0  0  0  0  0  0  0  0  0  0  0  0
   -6.1220   19.6880  -32.5610 C   0  0  0  0  0  0  0  0  0  0  0  0
   -7.1810   20.5860  -32.3000 C   0  0  0  0  0  0  0  0  0  0  0  0
   -3.4960   24.7450  -30.2100 C   0  0  0  0  0  0  0  0  0  0  0  0
   -0.6210   26.4180  -26.7190 C   0  0  0  0  0  0  0  0  0  0  0  0
   -0.3600   27.8000  -26.7410 C   0  0  0  0  0  0  0  0  0  0  0  0
   -0.4030   28.5460  -25.5580 C   0  0  0  0  0  0  0  0  0  0  0  0
   -0.6970   27.9190  -24.3460 C   0  0  0  0  0  0  0  0  0  0  0  0
   -0.9440   26.5450  -24.3100 C   0  0  0  0  0  0  0  0  0  0  0  0
   -0.9010   25.7950  -25.4900 C   0  0  0  0  0  0  0  0  0  0  0  0
   -2.5018   23.9421  -27.0354 H   0  0  0  0  0  0  0  0  0  0  0  0
   -4.4447   22.3930  -27.2527 H   0  0  0  0  0  0  0  0  0  0  0  0
   -5.7774   22.3422  -29.3568 H   0  0  0  0  0  0  0  0  0  0  0  0
   -7.9577   23.9247  -32.0480 H   0  0  0  0  0  0  0  0  0  0  0  0
  -10.2392   22.9790  -31.7935 H   0  0  0  0  0  0  0  0  0  0  0  0
  -10.5902   20.5154  -31.8231 H   0  0  0  0  0  0  0  0  0  0  0  0
   -9.7224   18.2713  -32.0608 H   0  0  0  0  0  0  0  0  0  0  0  0
   -7.8125   16.7190  -32.4532 H   0  0  0  0  0  0  0  0  0  0  0  0
   -5.5178   17.6223  -32.8040 H   0  0  0  0  0  0  0  0  0  0  0  0
   -5.1059   20.0762  -32.7247 H   0  0  0  0  0  0  0  0  0  0  0  0
   -3.2096   25.3859  -31.0569 H   0  0  0  0  0  0  0  0  0  0  0  0
   -0.1209   28.2967  -27.6929 H   0  0  0  0  0  0  0  0  0  0  0  0
   -0.2049   29.6277  -25.5831 H   0  0  0  0  0  0  0  0  0  0  0  0
   -0.7342   28.5081  -23.4178 H   0  0  0  0  0  0  0  0  0  0  0  0
   -1.1725   26.0523  -23.3534 H   0  0  0  0  0  0  0  0  0  0  0  0
   -1.0873   24.7114  -25.4562 H   0  0  0  0  0  0  0  0  0  0  0  0
  1  2  2  0
  2  3  1  0
  3  4  1  0
  4  5  2  0
  5  6  1  0
  6  7  2  0
  7  8  1  0
  8  9  1  0
  9 10  1  0
 10 11  2  0
 10 12  1  0
 12 13  2  0
 13 14  1  0
 14 15  2  0
 15 16  1  0
 16 17  2  0
 17 18  1  0
 18 19  2  0
 19 20  1  0
 20 21  2  0
  8 22  2  0
  2 23  1  0
 23 24  2  0
 24 25  1  0
 25 26  2  0
 26 27  1  0
 27 28  2  0
 22  4  1  0
 28 23  1  0
 21 12  1  0
 21 16  1  0
  5 29  1  0
  6 30  1  0
  7 31  1  0
 13 32  1  0
 14 33  1  0
 15 34  1  0
 17 35  1  0
 18 36  1  0
 19 37  1  0
 20 38  1  0
 22 39  1  0
 24 40  1  0
 25 41  1  0
 26 42  1  0
 27 43  1  0
 28 44  1  0
M  CHG  2   3  -1   9  -1
M  END
>  <UniqueID>  (32) 
31

>  <SMILES>  (32) 
O=C([N-]c1cccc([N-]C(=O)c2cccc3ccccc23)c1)c1ccccc1

>  <Energy>  (32) 
69.64737329028513

>  <Genealogy>  (32) 
O=C([N-]c1cccc([N-]C(=O)c2cccc3ccccc23)c1)c1ccccc1 (protonated)
O=C([N-]c1cccc([N-]C(=O)c2cccc3ccccc23)c1)c1ccccc1 (3D coordinates assigned)
O=C([N-]c1cccc([N-]C(=O)c2cccc3ccccc23)c1)c1ccccc1 (optimized conformer: 69.64737329028513 kcal/mol)

>  <smiles>  (32) 
O=C(Nc1cccc(NC(=O)c2cccc3ccccc23)c1)c1ccccc1

>  <score_type>  (32) 
oracle

>  <origin>  (32) 
adgpu

>  <m_score__min__energy>  (32) 
-12.58

>  <m_primary>  (32) 
energy

$$$$
32:0
     RDKit          3D

 27 28  0  0  0  0  0  0  0  0999 V2000
   -4.0460   19.6590  -33.4500 C   0  0  0  0  0  0  0  0  0  0  0  0
   -5.5470   19.5500  -33.4720 C   0  0  0  0  0  0  0  0  0  0  0  0
   -6.1040   19.4470  -34.5540 O   0  0  0  0  0  0  0  0  0  0  0  0
   -6.3980   19.6050  -32.2150 C   0  0  2  0  0  0  0  0  0  0  0  0
   -7.6490   18.7130  -32.3540 C   0  0  0  0  0  0  0  0  0  0  0  0
   -8.7180   19.3970  -33.0940 N   0  0  0  0  0  0  0  0  0  0  0  0
   -9.2020   20.5770  -32.3630 C   0  0  0  0  0  0  0  0  0  0  0  0
   -8.0780   21.5040  -31.9660 C   0  0  0  0  0  0  0  0  0  0  0  0
   -8.3700   22.8360  -31.6300 C   0  0  0  0  0  0  0  0  0  0  0  0
   -7.3580   23.6930  -31.1930 C   0  0  0  0  0  0  0  0  0  0  0  0
   -6.0480   23.2260  -31.0730 C   0  0  0  0  0  0  0  0  0  0  0  0
   -4.7780   24.3060  -30.5250 Cl  0  0  0  0  0  0  0  0  0  0  0  0
   -5.7470   21.8980  -31.3900 C   0  0  0  0  0  0  0  0  0  0  0  0
   -6.7560   21.0250  -31.8320 C   0  0  0  0  0  0  0  0  0  0  0  0
   -3.6955   19.6845  -32.4077 H   0  0  0  0  0  0  0  0  0  0  0  0
   -3.6077   18.7903  -33.9631 H   0  0  0  0  0  0  0  0  0  0  0  0
   -3.7378   20.5819  -33.9631 H   0  0  0  0  0  0  0  0  0  0  0  0
   -5.7927   19.2028  -31.3892 H   0  0  0  0  0  0  0  0  0  0  0  0
   -7.3744   17.7932  -32.8912 H   0  0  0  0  0  0  0  0  0  0  0  0
   -8.0213   18.4808  -31.3453 H   0  0  0  0  0  0  0  0  0  0  0  0
   -9.5180   18.7310  -33.2160 H   0  0  0  0  0  0  0  0  0  0  0  0
   -8.3860   19.6750  -34.0450 H   0  0  0  0  0  0  0  0  0  0  0  0
   -9.9049   21.1277  -33.0054 H   0  0  0  0  0  0  0  0  0  0  0  0
   -9.6909   20.2262  -31.4422 H   0  0  0  0  0  0  0  0  0  0  0  0
   -9.4025   23.2065  -31.7116 H   0  0  0  0  0  0  0  0  0  0  0  0
   -7.5934   24.7380  -30.9429 H   0  0  0  0  0  0  0  0  0  0  0  0
   -4.7136   21.5339  -31.2928 H   0  0  0  0  0  0  0  0  0  0  0  0
  1  2  1  0
  2  3  2  0
  2  4  1  0
  4  5  1  0
  5  6  1  0
  6  7  1  0
  7  8  1  0
  8  9  2  0
  9 10  1  0
 10 11  2  0
 11 12  1  0
 11 13  1  0
 13 14  2  0
 14  4  1  0
 14  8  1  0
  1 15  1  0
  1 16  1  0
  1 17  1  0
  4 18  1  1
  5 19  1  0
  5 20  1  0
  6 21  1  0
  6 22  1  0
  7 23  1  0
  7 24  1  0
  9 25  1  0
 10 26  1  0
 13 27  1  0
M  CHG  1   6   1
M  END
>  <UniqueID>  (33) 
32

>  <SMILES>  (33) 
CC(=O)[C@@H]1C[NH2+]Cc2ccc(Cl)cc21

>  <Energy>  (33) 
27.463249874186964

>  <Genealogy>  (33) 
CC(=O)C1C[NH2+]Cc2ccc(Cl)cc21 (protonated)
CC(=O)[C@@H]1C[NH2+]Cc2ccc(Cl)cc21 (chirality)
CC(=O)[C@@H]1C[NH2+]Cc2ccc(Cl)cc21 (3D coordinates assigned)
CC(=O)[C@@H]1C[NH2+]Cc2ccc(Cl)cc21 (nonaromatic ring conformer: 27.463249874186964 kcal/mol)

>  <smiles>  (33) 
CC(=O)C1CNCc2ccc(Cl)cc21

>  <score_type>  (33) 
oracle

>  <origin>  (33) 
adgpu

>  <m_score__min__energy>  (33) 
-6.21

>  <m_primary>  (33) 
energy

$$$$
33:0
     RDKit          3D

 51 53  0  0  0  0  0  0  0  0999 V2000
    4.7820   25.7370  -36.6170 C   0  0  0  0  0  0  0  0  0  0  0  0
    4.6550   24.5930  -35.6580 C   0  0  0  0  0  0  0  0  0  0  0  0
    4.9410   24.7810  -34.4470 O   0  0  0  0  0  0  0  0  0  0  0  0
    4.1750   23.3040  -36.0650 N   0  0  0  0  0  0  0  0  0  0  0  0
    2.9000   22.7260  -35.7570 C   0  0  0  0  0  0  0  0  0  0  0  0
    1.7380   23.4100  -36.1330 C   0  0  0  0  0  0  0  0  0  0  0  0
    0.4780   22.8920  -35.8250 C   0  0  0  0  0  0  0  0  0  0  0  0
    0.3610   21.6910  -35.1020 C   0  0  0  0  0  0  0  0  0  0  0  0
   -0.9210   21.1220  -34.7910 N   0  0  0  0  0  0  0  0  0  0  0  0
   -1.3470   20.7840  -33.4560 C   0  0  0  0  0  0  0  0  0  0  0  0
   -0.5370   20.8870  -32.4940 O   0  0  0  0  0  0  0  0  0  0  0  0
   -2.7230   20.3000  -33.1840 C   0  0  0  0  0  0  0  0  0  0  0  0
   -3.8220   21.1240  -33.4880 C   0  0  0  0  0  0  0  0  0  0  0  0
   -5.1260   20.6930  -33.2320 C   0  0  0  0  0  0  0  0  0  0  0  0
   -5.3550   19.4350  -32.6610 C   0  0  0  0  0  0  0  0  0  0  0  0
   -7.0050   18.9100  -32.3320 S   0  0  0  0  0  0  0  0  0  0  0  0
   -7.0460   18.0630  -31.0900 O   0  0  0  0  0  0  0  0  0  0  0  0
   -7.4990   18.0750  -33.4810 O   0  0  0  0  0  0  0  0  0  0  0  0
   -8.0410   20.2940  -32.1160 N   0  0  0  0  0  0  0  0  0  0  0  0
   -9.4780   20.1550  -32.3460 C   0  0  0  0  0  0  0  0  0  0  0  0
   -7.4860   21.5700  -31.7380 C   0  0  0  0  0  0  0  0  0  0  0  0
   -7.1490   21.8340  -30.3980 C   0  0  0  0  0  0  0  0  0  0  0  0
   -6.6030   23.0680  -30.0330 C   0  0  0  0  0  0  0  0  0  0  0  0
   -6.3880   24.0570  -31.0000 C   0  0  0  0  0  0  0  0  0  0  0  0
   -5.8210   25.3250  -30.6210 C   0  0  0  0  0  0  0  0  0  0  0  0
   -5.3630   26.3450  -30.3170 N   0  0  0  0  0  0  0  0  0  0  0  0
   -6.7150   23.8040  -32.3350 C   0  0  0  0  0  0  0  0  0  0  0  0
   -7.2580   22.5680  -32.7030 C   0  0  0  0  0  0  0  0  0  0  0  0
   -4.2670   18.6110  -32.3480 C   0  0  0  0  0  0  0  0  0  0  0  0
   -2.9610   19.0410  -32.6010 C   0  0  0  0  0  0  0  0  0  0  0  0
    1.5260   21.0100  -34.7220 C   0  0  0  0  0  0  0  0  0  0  0  0
    2.7870   21.5300  -35.0310 C   0  0  0  0  0  0  0  0  0  0  0  0
    4.8863   26.6768  -36.0549 H   0  0  0  0  0  0  0  0  0  0  0  0
    5.6691   25.5880  -37.2501 H   0  0  0  0  0  0  0  0  0  0  0  0
    3.8838   25.7862  -37.2501 H   0  0  0  0  0  0  0  0  0  0  0  0
    1.8179   24.3635  -36.6756 H   0  0  0  0  0  0  0  0  0  0  0  0
   -0.4274   23.4259  -36.1494 H   0  0  0  0  0  0  0  0  0  0  0  0
   -1.5490   20.9120  -35.5970 H   0  0  0  0  0  0  0  0  0  0  0  0
   -3.6531   22.1165  -33.9312 H   0  0  0  0  0  0  0  0  0  0  0  0
   -5.9767   21.3447  -33.4801 H   0  0  0  0  0  0  0  0  0  0  0  0
  -10.0008   20.1044  -31.3795 H   0  0  0  0  0  0  0  0  0  0  0  0
   -9.8437   21.0220  -32.9158 H   0  0  0  0  0  0  0  0  0  0  0  0
   -9.6707   19.2340  -32.9158 H   0  0  0  0  0  0  0  0  0  0  0  0
   -7.3165   21.0632  -29.6313 H   0  0  0  0  0  0  0  0  0  0  0  0
   -6.3414   23.2625  -28.9824 H   0  0  0  0  0  0  0  0  0  0  0  0
   -6.5452   24.5780  -33.0979 H   0  0  0  0  0  0  0  0  0  0  0  0
   -7.5089   22.3749  -33.7565 H   0  0  0  0  0  0  0  0  0  0  0  0
   -4.4406   17.6210  -31.9011 H   0  0  0  0  0  0  0  0  0  0  0  0
   -2.1126   18.3903  -32.3424 H   0  0  0  0  0  0  0  0  0  0  0  0
    1.4476   20.0583  -34.1760 H   0  0  0  0  0  0  0  0  0  0  0  0
    3.6936   20.9998  -34.7039 H   0  0  0  0  0  0  0  0  0  0  0  0
  1  2  1  0
  2  3  2  0
  2  4  1  0
  4  5  1  0
  5  6  2  0
  6  7  1  0
  7  8  2  0
  8  9  1  0
  9 10  1  0
 10 11  2  0
 10 12  1  0
 12 13  2  0
 13 14  1  0
 14 15  2  0
 15 16  1  0
 16 17  2  0
 16 18  2  0
 16 19  1  0
 19 20  1  0
 19 21  1  0
 21 22  2  0
 22 23  1  0
 23 24  2  0
 24 25  1  0
 25 26  3  0
 24 27  1  0
 27 28  2  0
 15 29  1  0
 29 30  2  0
  8 31  1  0
 31 32  2  0
 32  5  1  0
 30 12  1  0
 28 21  1  0
  1 33  1  0
  1 34  1  0
  1 35  1  0
  6 36  1  0
  7 37  1  0
  9 38  1  0
 13 39  1  0
 14 40  1  0
 20 41  1  0
 20 42  1  0
 20 43  1  0
 22 44  1  0
 23 45  1  0
 27 46  1  0
 28 47  1  0
 29 48  1  0
 30 49  1  0
 31 50  1  0
 32 51  1  0
M  CHG  1   4  -1
M  END
>  <UniqueID>  (34) 
33

>  <SMILES>  (34) 
CC(=O)[N-]c1ccc(NC(=O)c2ccc(S(=O)(=O)N(C)c3ccc(C#N)cc3)cc2)cc1

>  <Energy>  (34) 
67.40432905246466

>  <Genealogy>  (34) 
CC(=O)[N-]c1ccc(NC(=O)c2ccc(S(=O)(=O)N(C)c3ccc(C#N)cc3)cc2)cc1 (protonated)
CC(=O)[N-]c1ccc(NC(=O)c2ccc(S(=O)(=O)N(C)c3ccc(C#N)cc3)cc2)cc1 (3D coordinates assigned)
CC(=O)[N-]c1ccc(NC(=O)c2ccc(S(=O)(=O)N(C)c3ccc(C#N)cc3)cc2)cc1 (optimized conformer: 67.40432905246466 kcal/mol)

>  <smiles>  (34) 
CC(=O)Nc1ccc(NC(=O)c2ccc(S(=O)(=O)N(C)c3ccc(C#N)cc3)cc2)cc1

>  <score_type>  (34) 
oracle

>  <origin>  (34) 
adgpu

>  <m_score__min__energy>  (34) 
-9.8000000000000007

>  <m_primary>  (34) 
energy

$$$$
34:0
     RDKit          3D

 51 53  0  0  0  0  0  0  0  0999 V2000
   -3.8310   25.2910  -30.7530 N   0  0  0  0  0  0  0  0  0  0  0  0
   -5.2710   24.9000  -29.8810 S   0  0  0  0  0  0  0  0  0  0  0  0
   -6.1390   26.1230  -29.7770 O   0  0  0  0  0  0  0  0  0  0  0  0
   -4.9120   24.4480  -28.4930 O   0  0  0  0  0  0  0  0  0  0  0  0
   -6.1420   23.6200  -30.7210 C   0  0  0  0  0  0  0  0  0  0  0  0
   -7.2410   22.9970  -30.1120 C   0  0  0  0  0  0  0  0  0  0  0  0
   -7.9250   21.9700  -30.7720 C   0  0  0  0  0  0  0  0  0  0  0  0
   -7.5180   21.5580  -32.0520 C   0  0  0  0  0  0  0  0  0  0  0  0
   -8.2290   20.4270  -32.7520 C   0  0  0  0  0  0  0  0  0  0  0  0
   -8.5530   19.2850  -31.7840 C   0  0  0  0  0  0  0  0  0  0  0  0
   -7.4590   18.3190  -31.7650 N   0  0  0  0  0  0  0  0  0  0  0  0
   -6.5730   18.0770  -32.8650 C   0  0  0  0  0  0  0  0  0  0  0  0
   -6.9820   17.3820  -33.8330 O   0  0  0  0  0  0  0  0  0  0  0  0
   -5.2100   18.6410  -32.9100 C   0  0  0  0  0  0  0  0  0  0  0  0
   -4.3280   18.2970  -33.9450 C   0  0  0  0  0  0  0  0  0  0  0  0
   -3.0430   18.8470  -33.9870 C   0  0  0  0  0  0  0  0  0  0  0  0
   -2.6260   19.7470  -32.9960 C   0  0  0  0  0  0  0  0  0  0  0  0
   -0.9970   20.4220  -33.0490 S   0  0  0  0  0  0  0  0  0  0  0  0
   -1.1070   21.9250  -33.0560 O   0  0  0  0  0  0  0  0  0  0  0  0
   -0.2510   19.9950  -31.8120 O   0  0  0  0  0  0  0  0  0  0  0  0
   -0.1820   19.8640  -34.5060 N   0  0  0  0  0  0  0  0  0  0  0  0
    1.2710   19.6790  -34.2940 C   0  0  0  0  0  0  0  0  0  0  0  0
    2.0810   20.9500  -34.6250 C   0  0  0  0  0  0  0  0  0  0  0  0
    1.2730   22.1020  -34.5150 O   0  0  0  0  0  0  0  0  0  0  0  0
    0.2870   22.0980  -35.5320 C   0  0  0  0  0  0  0  0  0  0  0  0
   -0.4460   20.7400  -35.6600 C   0  0  0  0  0  0  0  0  0  0  0  0
   -3.5150   20.1080  -31.9740 C   0  0  0  0  0  0  0  0  0  0  0  0
   -4.8030   19.5640  -31.9360 C   0  0  0  0  0  0  0  0  0  0  0  0
   -6.4070   22.1740  -32.6530 C   0  0  0  0  0  0  0  0  0  0  0  0
   -5.7240   23.2000  -31.9910 C   0  0  0  0  0  0  0  0  0  0  0  0
   -3.9880   26.2200  -31.2030 H   0  0  0  0  0  0  0  0  0  0  0  0
   -7.5667   23.3170  -29.1112 H   0  0  0  0  0  0  0  0  0  0  0  0
   -8.7842   21.4837  -30.2870 H   0  0  0  0  0  0  0  0  0  0  0  0
   -9.1667   20.8068  -33.1839 H   0  0  0  0  0  0  0  0  0  0  0  0
   -7.5666   20.0362  -33.5384 H   0  0  0  0  0  0  0  0  0  0  0  0
   -8.6949   19.6942  -30.7728 H   0  0  0  0  0  0  0  0  0  0  0  0
   -9.4728   18.7813  -32.1159 H   0  0  0  0  0  0  0  0  0  0  0  0
   -4.6483   17.5921  -34.7264 H   0  0  0  0  0  0  0  0  0  0  0  0
   -2.3562   18.5723  -34.8012 H   0  0  0  0  0  0  0  0  0  0  0  0
    1.4433   19.4149  -33.2402 H   0  0  0  0  0  0  0  0  0  0  0  0
    1.6093   18.8804  -34.9705 H   0  0  0  0  0  0  0  0  0  0  0  0
    2.9245   21.0329  -33.9239 H   0  0  0  0  0  0  0  0  0  0  0  0
    2.4486   20.8745  -35.6590 H   0  0  0  0  0  0  0  0  0  0  0  0
   -0.4555   22.8767  -35.3032 H   0  0  0  0  0  0  0  0  0  0  0  0
    0.7992   22.2863  -36.4871 H   0  0  0  0  0  0  0  0  0  0  0  0
   -1.5284   20.9247  -35.7263 H   0  0  0  0  0  0  0  0  0  0  0  0
   -0.0744   20.2352  -36.5639 H   0  0  0  0  0  0  0  0  0  0  0  0
   -3.1985   20.8217  -31.1991 H   0  0  0  0  0  0  0  0  0  0  0  0
   -5.4998   19.8615  -31.1385 H   0  0  0  0  0  0  0  0  0  0  0  0
   -6.0727   21.8478  -33.6489 H   0  0  0  0  0  0  0  0  0  0  0  0
   -4.8563   23.6784  -32.4688 H   0  0  0  0  0  0  0  0  0  0  0  0
  1  2  1  0
  2  3  2  0
  2  4  2  0
  2  5  1  0
  5  6  2  0
  6  7  1  0
  7  8  2  0
  8  9  1  0
  9 10  1  0
 10 11  1  0
 11 12  1  0
 12 13  2  0
 12 14  1  0
 14 15  2  0
 15 16  1  0
 16 17  2  0
 17 18  1  0
 18 19  2  0
 18 20  2  0
 18 21  1  0
 21 22  1  0
 22 23  1  0
 23 24  1  0
 24 25  1  0
 25 26  1  0
 17 27  1  0
 27 28  2  0
  8 29  1  0
 29 30  2  0
 30  5  1  0
 28 14  1  0
 26 21  1  0
  1 31  1  0
  6 32  1  0
  7 33  1  0
  9 34  1  0
  9 35  1  0
 10 36  1  0
 10 37  1  0
 15 38  1  0
 16 39  1  0
 22 40  1  0
 22 41  1  0
 23 42  1  0
 23 43  1  0
 25 44  1  0
 25 45  1  0
 26 46  1  0
 26 47  1  0
 27 48  1  0
 28 49  1  0
 29 50  1  0
 30 51  1  0
M  CHG  2   1  -1  11  -1
M  END
>  <UniqueID>  (35) 
34

>  <SMILES>  (35) 
[NH-]S(=O)(=O)c1ccc(CC[N-]C(=O)c2ccc(S(=O)(=O)N3CCOCC3)cc2)cc1

>  <Energy>  (35) 
65.4847043881084

>  <Genealogy>  (35) 
[NH-]S(=O)(=O)c1ccc(CC[N-]C(=O)c2ccc(S(=O)(=O)N3CCOCC3)cc2)cc1 (protonated)
[NH-]S(=O)(=O)c1ccc(CC[N-]C(=O)c2ccc(S(=O)(=O)N3CCOCC3)cc2)cc1 (3D coordinates assigned)
[NH-]S(=O)(=O)c1ccc(CC[N-]C(=O)c2ccc(S(=O)(=O)N3CCOCC3)cc2)cc1 (nonaromatic ring conformer: 65.4847043881084 kcal/mol)

>  <smiles>  (35) 
NS(=O)(=O)c1ccc(CCNC(=O)c2ccc(S(=O)(=O)N3CCOCC3)cc2)cc1

>  <score_type>  (35) 
oracle

>  <origin>  (35) 
adgpu

>  <m_score__min__energy>  (35) 
-11.33

>  <m_primary>  (35) 
energy

$$$$
35:0
     RDKit          3D

 51 55  0  0  0  0  0  0  0  0999 V2000
   -8.1680   23.1190  -32.1740 O   0  0  0  0  0  0  0  0  0  0  0  0
   -7.3430   22.3090  -31.6670 C   0  0  0  0  0  0  0  0  0  0  0  0
   -7.4830   20.8740  -32.0200 C   0  0  0  0  0  0  0  0  0  0  0  0
   -8.6700   20.1470  -31.7290 C   0  0  0  0  0  0  0  0  0  0  0  0
   -8.7800   18.7840  -32.0580 C   0  0  0  0  0  0  0  0  0  0  0  0
   -7.6910   18.1670  -32.6610 C   0  0  0  0  0  0  0  0  0  0  0  0
   -7.5910   16.9080  -33.0440 O   0  0  0  0  0  0  0  0  0  0  0  0
   -6.3850   16.7680  -33.5580 C   0  0  0  0  0  0  0  0  0  0  0  0
   -5.8200   15.6130  -34.0940 C   0  0  0  0  0  0  0  0  0  0  0  0
   -4.5060   15.6920  -34.5920 C   0  0  0  0  0  0  0  0  0  0  0  0
   -3.7900   16.9100  -34.5420 C   0  0  0  0  0  0  0  0  0  0  0  0
   -4.3810   18.0640  -33.9960 C   0  0  0  0  0  0  0  0  0  0  0  0
   -5.6830   17.9540  -33.5130 C   0  0  0  0  0  0  0  0  0  0  0  0
   -6.5320   18.8630  -32.9300 C   0  0  0  0  0  0  0  0  0  0  0  0
   -6.3890   20.2110  -32.6180 C   0  0  0  0  0  0  0  0  0  0  0  0
   -6.3430   22.8180  -30.7440 N   0  0  0  0  0  0  0  0  0  0  0  0
   -6.4260   24.2790  -30.6350 C   0  0  0  0  0  0  0  0  0  0  0  0
   -5.5550   24.7970  -29.4830 C   0  0  0  0  0  0  0  0  0  0  0  0
   -4.2720   24.0770  -29.3020 N   0  0  0  0  0  0  0  0  0  0  0  0
   -3.3340   24.5540  -28.2850 C   0  0  0  0  0  0  0  0  0  0  0  0
   -1.9990   24.8920  -28.6130 C   0  0  0  0  0  0  0  0  0  0  0  0
   -1.1050   25.3430  -27.6390 C   0  0  0  0  0  0  0  0  0  0  0  0
   -1.5040   25.4610  -26.3010 C   0  0  0  0  0  0  0  0  0  0  0  0
   -0.5500   25.9960  -25.2630 C   0  0  0  0  0  0  0  0  0  0  0  0
    0.1690   27.0450  -25.8030 F   0  0  0  0  0  0  0  0  0  0  0  0
    0.3300   25.0090  -24.8530 F   0  0  0  0  0  0  0  0  0  0  0  0
   -1.2410   26.4470  -24.1510 F   0  0  0  0  0  0  0  0  0  0  0  0
   -2.8320   25.1670  -25.9650 C   0  0  0  0  0  0  0  0  0  0  0  0
   -3.7310   24.7160  -26.9350 C   0  0  0  0  0  0  0  0  0  0  0  0
   -3.9850   22.7990  -29.9930 C   0  0  0  0  0  0  0  0  0  0  0  0
   -4.9710   22.4420  -31.1110 C   0  0  0  0  0  0  0  0  0  0  0  0
   -9.5131   20.6573  -31.2403 H   0  0  0  0  0  0  0  0  0  0  0  0
   -9.7015   18.2228  -31.8441 H   0  0  0  0  0  0  0  0  0  0  0  0
   -6.3832   14.6687  -34.1270 H   0  0  0  0  0  0  0  0  0  0  0  0
   -4.0320   14.7983  -35.0239 H   0  0  0  0  0  0  0  0  0  0  0  0
   -2.7629   16.9557  -34.9330 H   0  0  0  0  0  0  0  0  0  0  0  0
   -3.8351   19.0180  -33.9521 H   0  0  0  0  0  0  0  0  0  0  0  0
   -5.4511   20.7449  -32.8309 H   0  0  0  0  0  0  0  0  0  0  0  0
   -6.5560   22.3990  -29.8060 H   0  0  0  0  0  0  0  0  0  0  0  0
   -6.0809   24.7298  -31.5772 H   0  0  0  0  0  0  0  0  0  0  0  0
   -7.4716   24.5557  -30.4344 H   0  0  0  0  0  0  0  0  0  0  0  0
   -5.3290   25.8564  -29.6744 H   0  0  0  0  0  0  0  0  0  0  0  0
   -6.1331   24.6365  -28.5610 H   0  0  0  0  0  0  0  0  0  0  0  0
   -1.6591   24.7977  -29.6549 H   0  0  0  0  0  0  0  0  0  0  0  0
   -0.0767   25.6084  -27.9255 H   0  0  0  0  0  0  0  0  0  0  0  0
   -3.1707   25.2926  -24.9260 H   0  0  0  0  0  0  0  0  0  0  0  0
   -4.7660   24.4825  -26.6449 H   0  0  0  0  0  0  0  0  0  0  0  0
   -2.9783   22.8647  -30.4315 H   0  0  0  0  0  0  0  0  0  0  0  0
   -4.0746   22.0077  -29.2342 H   0  0  0  0  0  0  0  0  0  0  0  0
   -4.6844   22.9779  -32.0279 H   0  0  0  0  0  0  0  0  0  0  0  0
   -4.9375   21.3545  -31.2733 H   0  0  0  0  0  0  0  0  0  0  0  0
  1  2  2  0
  2  3  1  0
  3  4  2  0
  4  5  1  0
  5  6  2  0
  6  7  1  0
  7  8  1  0
  8  9  2  0
  9 10  1  0
 10 11  2  0
 11 12  1  0
 12 13  2  0
 13 14  1  0
 14 15  2  0
  2 16  1  0
 16 17  1  0
 17 18  1  0
 18 19  1  0
 19 20  1  0
 20 21  2  0
 21 22  1  0
 22 23  2  0
 23 24  1  0
 24 25  1  0
 24 26  1  0
 24 27  1  0
 23 28  1  0
 28 29  2  0
 19 30  1  0
 30 31  1  0
 15  3  1  0
 31 16  1  0
 14  6  1  0
 29 20  1  0
 13  8  1  0
  4 32  1  0
  5 33  1  0
  9 34  1  0
 10 35  1  0
 11 36  1  0
 12 37  1  0
 15 38  1  0
 16 39  1  0
 17 40  1  0
 17 41  1  0
 18 42  1  0
 18 43  1  0
 21 44  1  0
 22 45  1  0
 28 46  1  0
 29 47  1  0
 30 48  1  0
 30 49  1  0
 31 50  1  0
 31 51  1  0
M  CHG  1  16   1
M  END
>  <UniqueID>  (36) 
35

>  <SMILES>  (36) 
O=C(c1ccc2oc3ccccc3c2c1)[NH+]1CCN(c2ccc(C(F)(F)F)cc2)CC1

>  <Energy>  (36) 
117.43385799119552

>  <Genealogy>  (36) 
O=C(c1ccc2oc3ccccc3c2c1)[NH+]1CCN(c2ccc(C(F)(F)F)cc2)CC1 (protonated)
O=C(c1ccc2oc3ccccc3c2c1)[NH+]1CCN(c2ccc(C(F)(F)F)cc2)CC1 (3D coordinates assigned)
O=C(c1ccc2oc3ccccc3c2c1)[NH+]1CCN(c2ccc(C(F)(F)F)cc2)CC1 (nonaromatic ring conformer: 117.43385799119552 kcal/mol)

>  <smiles>  (36) 
O=C(c1ccc2oc3ccccc3c2c1)N1CCN(c2ccc(C(F)(F)F)cc2)CC1

>  <score_type>  (36) 
oracle

>  <origin>  (36) 
adgpu

>  <m_score__min__energy>  (36) 
-8.8699999999999992

>  <m_primary>  (36) 
energy

$$$$
36:0
     RDKit          3D

 31 32  0  0  0  0  0  0  0  0999 V2000
   -2.5560   21.8340  -31.6570 C   0  0  0  0  0  0  0  0  0  0  0  0
   -3.5530   22.8510  -31.6710 O   0  0  0  0  0  0  0  0  0  0  0  0
   -4.9370   22.6130  -31.6770 C   0  0  0  0  0  0  0  0  0  0  0  0
   -5.4950   21.5160  -32.3640 C   0  0  0  0  0  0  0  0  0  0  0  0
   -6.8730   21.2920  -32.3390 C   0  0  0  0  0  0  0  0  0  0  0  0
   -7.7110   22.1520  -31.6280 C   0  0  0  0  0  0  0  0  0  0  0  0
   -9.4400   21.8610  -31.5900 Cl  0  0  0  0  0  0  0  0  0  0  0  0
   -7.1710   23.2440  -30.9440 C   0  0  0  0  0  0  0  0  0  0  0  0
   -5.7890   23.4870  -30.9700 C   0  0  0  0  0  0  0  0  0  0  0  0
   -5.1500   24.8730  -30.0750 S   0  0  0  0  0  0  0  0  0  0  0  0
   -6.1420   26.0010  -30.1500 O   0  0  0  0  0  0  0  0  0  0  0  0
   -3.8600   25.3470  -30.6850 O   0  0  0  0  0  0  0  0  0  0  0  0
   -4.9030   24.4550  -28.4070 N   0  0  0  0  0  0  0  0  0  0  0  0
   -3.8250   23.4700  -28.2940 C   0  0  0  0  0  0  0  0  0  0  0  0
   -2.5130   24.1730  -28.1440 C   0  0  0  0  0  0  0  0  0  0  0  0
   -2.1530   25.0330  -27.1290 C   0  0  0  0  0  0  0  0  0  0  0  0
   -0.8920   25.4860  -27.4610 C   0  0  0  0  0  0  0  0  0  0  0  0
   -0.5140   24.9550  -28.6030 O   0  0  0  0  0  0  0  0  0  0  0  0
   -1.4670   24.1670  -29.0440 C   0  0  0  0  0  0  0  0  0  0  0  0
   -2.3065   21.5795  -30.6164 H   0  0  0  0  0  0  0  0  0  0  0  0
   -2.9371   20.9398  -32.1719 H   0  0  0  0  0  0  0  0  0  0  0  0
   -1.6544   22.1973  -32.1719 H   0  0  0  0  0  0  0  0  0  0  0  0
   -4.8404   20.8317  -32.9237 H   0  0  0  0  0  0  0  0  0  0  0  0
   -7.2992   20.4352  -32.8813 H   0  0  0  0  0  0  0  0  0  0  0  0
   -7.8336   23.9180  -30.3812 H   0  0  0  0  0  0  0  0  0  0  0  0
   -4.5950   25.3300  -27.9220 H   0  0  0  0  0  0  0  0  0  0  0  0
   -4.0017   22.8340  -27.4141 H   0  0  0  0  0  0  0  0  0  0  0  0
   -3.8033   22.8481  -29.2011 H   0  0  0  0  0  0  0  0  0  0  0  0
   -2.7453   25.3016  -26.2419 H   0  0  0  0  0  0  0  0  0  0  0  0
   -0.2931   26.1863  -26.8602 H   0  0  0  0  0  0  0  0  0  0  0  0
   -1.4365   23.5931  -29.9820 H   0  0  0  0  0  0  0  0  0  0  0  0
  1  2  1  0
  2  3  1  0
  3  4  2  0
  4  5  1  0
  5  6  2  0
  6  7  1  0
  6  8  1  0
  8  9  2  0
  9 10  1  0
 10 11  2  0
 10 12  2  0
 10 13  1  0
 13 14  1  0
 14 15  1  0
 15 16  1  0
 16 17  2  0
 17 18  1  0
 18 19  1  0
  9  3  1  0
 19 15  2  0
  1 20  1  0
  1 21  1  0
  1 22  1  0
  4 23  1  0
  5 24  1  0
  8 25  1  0
 13 26  1  0
 14 27  1  0
 14 28  1  0
 16 29  1  0
 17 30  1  0
 19 31  1  0
M  END
>  <UniqueID>  (37) 
36

>  <SMILES>  (37) 
COc1ccc(Cl)cc1S(=O)(=O)NCc1ccoc1

>  <Energy>  (37) 
54.14493128229748

>  <Genealogy>  (37) 
COc1ccc(Cl)cc1S(=O)(=O)NCc1ccoc1 (3D coordinates assigned)
COc1ccc(Cl)cc1S(=O)(=O)NCc1ccoc1 (optimized conformer: 54.14493128229748 kcal/mol)

>  <smiles>  (37) 
COc1ccc(Cl)cc1S(=O)(=O)NCc1ccoc1

>  <score_type>  (37) 
oracle

>  <origin>  (37) 
adgpu

>  <m_score__min__energy>  (37) 
-8.0099999999999998

>  <m_primary>  (37) 
energy

$$$$
37:0
     RDKit          3D

 46 50  0  0  0  0  0  0  0  0999 V2000
   -8.1320   18.9150  -32.3300 C   0  0  0  0  0  0  0  0  0  0  0  0
   -6.8890   18.4890  -33.0540 C   0  0  0  0  0  0  0  0  0  0  0  0
   -6.8600   17.2620  -33.7330 C   0  0  0  0  0  0  0  0  0  0  0  0
   -5.7190   16.8800  -34.4440 C   0  0  0  0  0  0  0  0  0  0  0  0
   -4.5990   17.7140  -34.4740 C   0  0  0  0  0  0  0  0  0  0  0  0
   -4.6050   18.9350  -33.7910 C   0  0  0  0  0  0  0  0  0  0  0  0
   -3.4500   19.7330  -33.8320 O   0  0  0  0  0  0  0  0  0  0  0  0
   -3.0480   20.6110  -32.8180 C   0  0  0  0  0  0  0  0  0  0  0  0
   -1.7350   20.6790  -32.4720 N   0  0  0  0  0  0  0  0  0  0  0  0
   -1.3120   21.5010  -31.4740 C   0  0  0  0  0  0  0  0  0  0  0  0
   -2.2380   22.2910  -30.7900 C   0  0  0  0  0  0  0  0  0  0  0  0
   -1.8510   23.1300  -29.8000 N   0  0  0  0  0  0  0  0  0  0  0  0
   -2.7450   23.9120  -29.1360 C   0  0  0  0  0  0  0  0  0  0  0  0
   -2.2330   24.8020  -28.0630 C   0  0  0  0  0  0  0  0  0  0  0  0
   -2.6720   24.7910  -26.7400 C   0  0  0  0  0  0  0  0  0  0  0  0
   -2.0250   25.7280  -25.9240 C   0  0  0  0  0  0  0  0  0  0  0  0
   -1.0740   26.4870  -26.5890 C   0  0  0  0  0  0  0  0  0  0  0  0
   -1.0390   25.9870  -28.1920 S   0  0  0  0  0  0  0  0  0  0  0  0
   -4.1120   23.8420  -29.5000 C   0  0  0  0  0  0  0  0  0  0  0  0
   -4.9690   24.5470  -28.8980 O   0  0  0  0  0  0  0  0  0  0  0  0
   -4.5100   22.9940  -30.5050 N   0  0  0  0  0  0  0  0  0  0  0  0
   -5.8960   22.9430  -30.9090 C   0  0  0  0  0  0  0  0  0  0  0  0
   -6.2950   23.4960  -32.1380 C   0  0  0  0  0  0  0  0  0  0  0  0
   -7.6280   23.4050  -32.5510 C   0  0  0  0  0  0  0  0  0  0  0  0
   -8.5690   22.7590  -31.7440 C   0  0  0  0  0  0  0  0  0  0  0  0
   -8.1800   22.2070  -30.5210 C   0  0  0  0  0  0  0  0  0  0  0  0
   -6.8500   22.3000  -30.1010 C   0  0  0  0  0  0  0  0  0  0  0  0
   -3.5880   22.2120  -31.1480 C   0  0  0  0  0  0  0  0  0  0  0  0
   -3.9580   21.3700  -32.1500 N   0  0  0  0  0  0  0  0  0  0  0  0
   -5.7700   19.3350  -33.1090 C   0  0  0  0  0  0  0  0  0  0  0  0
   -7.9623   18.8569  -31.2447 H   0  0  0  0  0  0  0  0  0  0  0  0
   -8.3813   19.9499  -32.6072 H   0  0  0  0  0  0  0  0  0  0  0  0
   -8.9637   18.2506  -32.6072 H   0  0  0  0  0  0  0  0  0  0  0  0
   -7.7373   16.5989  -33.7058 H   0  0  0  0  0  0  0  0  0  0  0  0
   -5.7030   15.9203  -34.9812 H   0  0  0  0  0  0  0  0  0  0  0  0
   -3.7058   17.4086  -35.0387 H   0  0  0  0  0  0  0  0  0  0  0  0
   -0.2457   21.5431  -31.2072 H   0  0  0  0  0  0  0  0  0  0  0  0
   -3.4534   24.1102  -26.3712 H   0  0  0  0  0  0  0  0  0  0  0  0
   -2.2506   25.8504  -24.8544 H   0  0  0  0  0  0  0  0  0  0  0  0
   -0.4517   27.2778  -26.1447 H   0  0  0  0  0  0  0  0  0  0  0  0
   -5.5564   24.0020  -32.7771 H   0  0  0  0  0  0  0  0  0  0  0  0
   -7.9364   23.8423  -33.5121 H   0  0  0  0  0  0  0  0  0  0  0  0
   -9.6163   22.6852  -32.0721 H   0  0  0  0  0  0  0  0  0  0  0  0
   -8.9216   21.6983  -29.8875 H   0  0  0  0  0  0  0  0  0  0  0  0
   -6.5488   21.8686  -29.1350 H   0  0  0  0  0  0  0  0  0  0  0  0
   -5.8036   20.3176  -32.6157 H   0  0  0  0  0  0  0  0  0  0  0  0
  1  2  1  0
  2  3  2  0
  3  4  1  0
  4  5  2  0
  5  6  1  0
  6  7  1  0
  7  8  1  0
  8  9  2  0
  9 10  1  0
 10 11  2  0
 11 12  1  0
 12 13  2  0
 13 14  1  0
 14 15  2  0
 15 16  1  0
 16 17  2  0
 17 18  1  0
 13 19  1  0
 19 20  2  0
 19 21  1  0
 21 22  1  0
 22 23  2  0
 23 24  1  0
 24 25  2  0
 25 26  1  0
 26 27  2  0
 21 28  1  0
 28 29  2  0
  6 30  2  0
 30  2  1  0
 29  8  1  0
 28 11  1  0
 18 14  1  0
 27 22  1  0
  1 31  1  0
  1 32  1  0
  1 33  1  0
  3 34  1  0
  4 35  1  0
  5 36  1  0
 10 37  1  0
 15 38  1  0
 16 39  1  0
 17 40  1  0
 23 41  1  0
 24 42  1  0
 25 43  1  0
 26 44  1  0
 27 45  1  0
 30 46  1  0
M  END
>  <UniqueID>  (38) 
37

>  <SMILES>  (38) 
Cc1cccc(Oc2ncc3nc(-c4cccs4)c(=O)n(-c4ccccc4)c3n2)c1

>  <Energy>  (38) 
97.54955448454889

>  <Genealogy>  (38) 
Cc1cccc(Oc2ncc3nc(-c4cccs4)c(=O)n(-c4ccccc4)c3n2)c1 (3D coordinates assigned)
Cc1cccc(Oc2ncc3nc(-c4cccs4)c(=O)n(-c4ccccc4)c3n2)c1 (optimized conformer: 97.54955448454889 kcal/mol)

>  <smiles>  (38) 
Cc1cccc(Oc2ncc3nc(-c4cccs4)c(=O)n(-c4ccccc4)c3n2)c1

>  <score_type>  (38) 
oracle

>  <origin>  (38) 
adgpu

>  <m_score__min__energy>  (38) 
-9.0800000000000001

>  <m_primary>  (38) 
energy

$$$$
38:0
     RDKit          3D

 39 42  0  0  0  0  0  0  0  0999 V2000
   -6.8456   21.0560  -33.5987 H   0  0  0  0  0  0  0  0  0  0  0  0
   -6.8580   21.7000  -32.7070 C   0  0  0  0  0  0  0  0  0  0  0  0
   -7.9320   21.7740  -31.8300 C   0  0  0  0  0  0  0  0  0  0  0  0
   -9.4280   20.8750  -31.9720 Cl  0  0  0  0  0  0  0  0  0  0  0  0
   -7.5730   22.8600  -30.5980 S   0  0  0  0  0  0  0  0  0  0  0  0
   -6.0430   23.2470  -31.1780 C   0  0  0  0  0  0  0  0  0  0  0  0
   -4.9230   24.3540  -30.4100 S   0  0  0  0  0  0  0  0  0  0  0  0
   -4.8970   25.6380  -31.1890 O   0  0  0  0  0  0  0  0  0  0  0  0
   -5.3530   24.6470  -28.9990 O   0  0  0  0  0  0  0  0  0  0  0  0
   -3.3320   23.6620  -30.4010 N   0  0  0  0  0  0  0  0  0  0  0  0
   -2.3540   23.9420  -29.5850 C   0  0  0  0  0  0  0  0  0  0  0  0
   -1.0990   23.2770  -29.7130 C   0  0  0  0  0  0  0  0  0  0  0  0
   -0.8640   22.3050  -30.5560 N   0  0  0  0  0  0  0  0  0  0  0  0
   -1.7910   21.5890  -31.3860 C   0  0  0  0  0  0  0  0  0  0  0  0
   -2.8230   20.8270  -30.8140 C   0  0  0  0  0  0  0  0  0  0  0  0
   -2.9444   20.7999  -29.7211 H   0  0  0  0  0  0  0  0  0  0  0  0
   -3.6960   20.1030  -31.6310 C   0  0  0  0  0  0  0  0  0  0  0  0
   -4.5178   19.5259  -31.1820 H   0  0  0  0  0  0  0  0  0  0  0  0
   -3.5250   20.1120  -33.0190 C   0  0  0  0  0  0  0  0  0  0  0  0
   -4.3700   19.4070  -33.8110 F   0  0  0  0  0  0  0  0  0  0  0  0
   -2.4750   20.8400  -33.5900 C   0  0  0  0  0  0  0  0  0  0  0  0
   -2.3355   20.8405  -34.6811 H   0  0  0  0  0  0  0  0  0  0  0  0
   -1.6030   21.5670  -32.7730 C   0  0  0  0  0  0  0  0  0  0  0  0
   -0.7668   22.1232  -33.2218 H   0  0  0  0  0  0  0  0  0  0  0  0
   -0.0670   23.6800  -28.9260 N   0  0  0  0  0  0  0  0  0  0  0  0
   -0.2040   24.6530  -27.9940 C   0  0  0  0  0  0  0  0  0  0  0  0
    0.8830   25.0270  -27.1950 C   0  0  0  0  0  0  0  0  0  0  0  0
    1.8586   24.5364  -27.3277 H   0  0  0  0  0  0  0  0  0  0  0  0
    0.7270   26.0250  -26.2280 C   0  0  0  0  0  0  0  0  0  0  0  0
    1.5811   26.3198  -25.6006 H   0  0  0  0  0  0  0  0  0  0  0  0
   -0.5130   26.6490  -26.0570 C   0  0  0  0  0  0  0  0  0  0  0  0
   -0.6323   27.4321  -25.2937 H   0  0  0  0  0  0  0  0  0  0  0  0
   -1.6020   26.2800  -26.8540 C   0  0  0  0  0  0  0  0  0  0  0  0
   -2.5757   26.7733  -26.7181 H   0  0  0  0  0  0  0  0  0  0  0  0
   -1.4510   25.2790  -27.8280 C   0  0  0  0  0  0  0  0  0  0  0  0
   -2.4930   24.9120  -28.6250 N   0  0  0  0  0  0  0  0  0  0  0  0
   -3.4010   25.4080  -28.4950 H   0  0  0  0  0  0  0  0  0  0  0  0
   -5.7940   22.5290  -32.3390 C   0  0  0  0  0  0  0  0  0  0  0  0
   -4.8570   22.6042  -32.9104 H   0  0  0  0  0  0  0  0  0  0  0  0
  1  2  1  0
  2  3  2  0
  3  4  1  0
  3  5  1  0
  5  6  1  0
  6  7  1  0
  7  8  2  0
  7  9  2  0
  7 10  1  0
 10 11  2  0
 11 12  1  0
 12 13  2  0
 13 14  1  0
 14 15  2  0
 15 16  1  0
 15 17  1  0
 17 18  1  0
 17 19  2  0
 19 20  1  0
 19 21  1  0
 21 22  1  0
 21 23  2  0
 23 24  1  0
 12 25  1  0
 25 26  1  0
 26 27  2  0
 27 28  1  0
 27 29  1  0
 29 30  1  0
 29 31  2  0
 31 32  1  0
 31 33  1  0
 33 34  1  0
 33 35  2  0
 35 36  1  0
 36 37  1  0
  6 38  2  0
 38 39  1  0
 38  2  1  0
 36 11  1  0
 23 14  1  0
 35 26  1  0
M  CHG  1  25  -1
M  END
>  <UniqueID>  (39) 
38

>  <SMILES>  (39) 
O=S(=O)(/N=c1\[nH]c2ccccc2[n-]c1=Nc1ccc(F)cc1)c1ccc(Cl)s1

>  <Energy>  (39) 
92.2594308839233

>  <Genealogy>  (39) 
O=S(=O)(N=c1[nH]c2ccccc2[n-]c1=Nc1ccc(F)cc1)c1ccc(Cl)s1 (protonated)
O=S(=O)(/N=c1\[nH]c2ccccc2[n-]c1=Nc1ccc(F)cc1)c1ccc(Cl)s1 (cis-trans isomerization)
O=S(=O)(/N=c1\[nH]c2ccccc2[n-]c1=Nc1ccc(F)cc1)c1ccc(Cl)s1 (3D coordinates assigned)
O=S(=O)(/N=c1\[nH]c2ccccc2[n-]c1=Nc1ccc(F)cc1)c1ccc(Cl)s1 (optimized conformer: 92.2594308839233 kcal/mol)

>  <smiles>  (39) 
O=S(=O)(N=c1[nH]c2ccccc2[nH]c1=Nc1ccc(F)cc1)c1ccc(Cl)s1

>  <score_type>  (39) 
oracle

>  <origin>  (39) 
adgpu

>  <m_score__min__energy>  (39) 
-10.02

>  <m_primary>  (39) 
energy

$$$$
39:0
     RDKit          3D

 55 58  0  0  0  0  0  0  0  0999 V2000
    0.4640   17.5160  -33.2570 C   0  0  0  0  0  0  0  0  0  0  0  0
   -0.9860   17.9020  -33.3210 C   0  0  0  0  0  0  0  0  0  0  0  0
   -1.5200   18.7930  -32.3800 C   0  0  0  0  0  0  0  0  0  0  0  0
   -2.8760   19.1270  -32.4140 C   0  0  0  0  0  0  0  0  0  0  0  0
   -3.7200   18.5670  -33.3860 C   0  0  0  0  0  0  0  0  0  0  0  0
   -5.1340   18.9810  -33.4270 C   0  0  0  0  0  0  0  0  0  0  0  0
   -5.5800   19.9970  -34.1880 N   0  0  0  0  0  0  0  0  0  0  0  0
   -6.8920   20.0540  -34.0230 N   0  0  0  0  0  0  0  0  0  0  0  0
   -7.2240   19.0790  -33.1580 C   0  0  0  0  0  0  0  0  0  0  0  0
   -8.9210   18.7280  -32.6790 S   0  0  0  0  0  0  0  0  0  0  0  0
   -8.7530   19.4060  -30.9930 C   0  0  0  0  0  0  0  0  0  0  0  0
   -8.1670   20.7830  -31.0360 C   0  0  0  0  0  0  0  0  0  0  0  0
   -8.9070   21.7760  -30.8020 O   0  0  0  0  0  0  0  0  0  0  0  0
   -6.7800   20.9590  -31.3650 N   0  0  0  0  0  0  0  0  0  0  0  0
   -6.0510   22.1800  -31.1590 C   0  0  0  0  0  0  0  0  0  0  0  0
   -4.6760   22.1190  -30.8700 C   0  0  0  0  0  0  0  0  0  0  0  0
   -3.9460   23.2900  -30.6380 C   0  0  0  0  0  0  0  0  0  0  0  0
   -4.5870   24.5320  -30.6850 C   0  0  0  0  0  0  0  0  0  0  0  0
   -3.8610   25.6960  -30.4670 O   0  0  0  0  0  0  0  0  0  0  0  0
   -5.9590   24.6020  -30.9530 C   0  0  0  0  0  0  0  0  0  0  0  0
   -6.6920   23.4340  -31.1830 C   0  0  0  0  0  0  0  0  0  0  0  0
   -6.1420   18.3830  -32.7550 N   0  0  0  0  0  0  0  0  0  0  0  0
   -6.1010   17.1750  -31.9210 C   0  0  0  0  0  0  0  0  0  0  0  0
   -5.7520   15.9560  -32.7390 C   0  0  0  0  0  0  0  0  0  0  0  0
   -4.6590   15.1450  -32.3780 C   0  0  0  0  0  0  0  0  0  0  0  0
   -4.3790   13.9820  -33.1010 C   0  0  0  0  0  0  0  0  0  0  0  0
   -5.1740   13.6260  -34.2000 C   0  0  0  0  0  0  0  0  0  0  0  0
   -6.2460   14.4390  -34.5790 C   0  0  0  0  0  0  0  0  0  0  0  0
   -6.5380   15.5970  -33.8480 C   0  0  0  0  0  0  0  0  0  0  0  0
   -3.1980   17.6440  -34.3210 C   0  0  0  0  0  0  0  0  0  0  0  0
   -4.0790   17.0180  -35.3750 C   0  0  0  0  0  0  0  0  0  0  0  0
   -1.8310   17.3170  -34.2770 C   0  0  0  0  0  0  0  0  0  0  0  0
    0.7753   17.4331  -32.2052 H   0  0  0  0  0  0  0  0  0  0  0  0
    0.6083   16.5482  -33.7594 H   0  0  0  0  0  0  0  0  0  0  0  0
    1.0704   18.2840  -33.7594 H   0  0  0  0  0  0  0  0  0  0  0  0
   -0.8677   19.2317  -31.6105 H   0  0  0  0  0  0  0  0  0  0  0  0
   -3.2845   19.8324  -31.6754 H   0  0  0  0  0  0  0  0  0  0  0  0
   -9.7452   19.4497  -30.5202 H   0  0  0  0  0  0  0  0  0  0  0  0
   -8.0841   18.7534  -30.4128 H   0  0  0  0  0  0  0  0  0  0  0  0
   -6.3020   20.1830  -31.8800 H   0  0  0  0  0  0  0  0  0  0  0  0
   -4.1704   21.1431  -30.8260 H   0  0  0  0  0  0  0  0  0  0  0  0
   -2.8695   23.2337  -30.4190 H   0  0  0  0  0  0  0  0  0  0  0  0
   -6.4623   25.5796  -30.9828 H   0  0  0  0  0  0  0  0  0  0  0  0
   -7.7719   23.4944  -31.3832 H   0  0  0  0  0  0  0  0  0  0  0  0
   -5.3433   17.3079  -31.1347 H   0  0  0  0  0  0  0  0  0  0  0  0
   -7.0972   17.0236  -31.4797 H   0  0  0  0  0  0  0  0  0  0  0  0
   -4.0242   15.4273  -31.5252 H   0  0  0  0  0  0  0  0  0  0  0  0
   -3.5325   13.3441  -32.8070 H   0  0  0  0  0  0  0  0  0  0  0  0
   -4.9541   12.7073  -34.7636 H   0  0  0  0  0  0  0  0  0  0  0  0
   -6.8599   14.1692  -35.4510 H   0  0  0  0  0  0  0  0  0  0  0  0
   -7.3878   16.2299  -34.1433 H   0  0  0  0  0  0  0  0  0  0  0  0
   -4.8832   16.4465  -34.8885 H   0  0  0  0  0  0  0  0  0  0  0  0
   -4.5181   17.8078  -36.0022 H   0  0  0  0  0  0  0  0  0  0  0  0
   -3.4776   16.3435  -36.0022 H   0  0  0  0  0  0  0  0  0  0  0  0
   -1.4200   16.5958  -34.9987 H   0  0  0  0  0  0  0  0  0  0  0  0
  1  2  1  0
  2  3  2  0
  3  4  1  0
  4  5  2  0
  5  6  1  0
  6  7  2  0
  7  8  1  0
  8  9  2  0
  9 10  1  0
 10 11  1  0
 11 12  1  0
 12 13  2  0
 12 14  1  0
 14 15  1  0
 15 16  2  0
 16 17  1  0
 17 18  2  0
 18 19  1  0
 18 20  1  0
 20 21  2  0
  9 22  1  0
 22 23  1  0
 23 24  1  0
 24 25  2  0
 25 26  1  0
 26 27  2  0
 27 28  1  0
 28 29  2  0
  5 30  1  0
 30 31  1  0
 30 32  2  0
 32  2  1  0
 22  6  1  0
 29 24  1  0
 21 15  1  0
  1 33  1  0
  1 34  1  0
  1 35  1  0
  3 36  1  0
  4 37  1  0
 11 38  1  0
 11 39  1  0
 14 40  1  0
 16 41  1  0
 17 42  1  0
 20 43  1  0
 21 44  1  0
 23 45  1  0
 23 46  1  0
 25 47  1  0
 26 48  1  0
 27 49  1  0
 28 50  1  0
 29 51  1  0
 31 52  1  0
 31 53  1  0
 31 54  1  0
 32 55  1  0
M  CHG  1  19  -1
M  END
>  <UniqueID>  (40) 
39

>  <SMILES>  (40) 
Cc1ccc(-c2nnc(SCC(=O)Nc3ccc([O-])cc3)n2Cc2ccccc2)c(C)c1

>  <Energy>  (40) 
94.89610218573912

>  <Genealogy>  (40) 
Cc1ccc(-c2nnc(SCC(=O)Nc3ccc([O-])cc3)n2Cc2ccccc2)c(C)c1 (protonated)
Cc1ccc(-c2nnc(SCC(=O)Nc3ccc([O-])cc3)n2Cc2ccccc2)c(C)c1 (3D coordinates assigned)
Cc1ccc(-c2nnc(SCC(=O)Nc3ccc([O-])cc3)n2Cc2ccccc2)c(C)c1 (optimized conformer: 94.89610218573912 kcal/mol)

>  <smiles>  (40) 
Cc1ccc(-c2nnc(SCC(=O)Nc3ccc(O)cc3)n2Cc2ccccc2)c(C)c1

>  <score_type>  (40) 
oracle

>  <origin>  (40) 
adgpu

>  <m_score__min__energy>  (40) 
-12.390000000000001

>  <m_primary>  (40) 
energy

$$$$
40:0
     RDKit          3D

 45 47  0  0  0  0  0  0  0  0999 V2000
   -6.7750   17.9700  -33.0510 C   0  0  0  0  0  0  0  0  0  0  0  0
   -5.8040   18.6230  -33.9760 C   0  0  0  0  0  0  0  0  0  0  0  0
   -5.9930   18.5600  -35.2210 O   0  0  0  0  0  0  0  0  0  0  0  0
   -4.7300   19.3990  -33.4330 N   0  0  0  0  0  0  0  0  0  0  0  0
   -4.8500   20.6020  -32.6590 C   0  0  0  0  0  0  0  0  0  0  0  0
   -6.0960   21.0920  -32.2270 C   0  0  0  0  0  0  0  0  0  0  0  0
   -6.1700   22.2830  -31.4980 C   0  0  0  0  0  0  0  0  0  0  0  0
   -5.0050   23.0050  -31.2050 C   0  0  0  0  0  0  0  0  0  0  0  0
   -5.0940   24.5140  -30.3050 S   0  0  0  0  0  0  0  0  0  0  0  0
   -6.4440   24.6120  -29.6530 O   0  0  0  0  0  0  0  0  0  0  0  0
   -4.9080   25.6920  -31.2190 O   0  0  0  0  0  0  0  0  0  0  0  0
   -3.8650   24.5460  -29.0770 N   0  0  0  0  0  0  0  0  0  0  0  0
   -3.1900   23.3720  -28.5690 C   0  0  0  0  0  0  0  0  0  0  0  0
   -3.9280   22.2370  -28.1810 C   0  0  0  0  0  0  0  0  0  0  0  0
   -3.3000   21.1320  -27.6130 C   0  0  0  0  0  0  0  0  0  0  0  0
   -1.9140   21.1200  -27.4430 C   0  0  0  0  0  0  0  0  0  0  0  0
   -1.1430   22.2240  -27.8430 C   0  0  0  0  0  0  0  0  0  0  0  0
   -1.7790   23.3660  -28.3960 C   0  0  0  0  0  0  0  0  0  0  0  0
   -0.9760   24.5440  -28.7840 C   0  0  0  0  0  0  0  0  0  0  0  0
    0.2740   24.5420  -28.6280 O   0  0  0  0  0  0  0  0  0  0  0  0
   -1.5990   25.6680  -29.3160 O   0  0  0  0  0  0  0  0  0  0  0  0
    0.3550   22.1280  -27.6350 C   0  0  0  0  0  0  0  0  0  0  0  0
    0.8790   20.7470  -28.0640 C   0  0  0  0  0  0  0  0  0  0  0  0
    0.0440   19.5530  -27.5360 C   0  0  0  0  0  0  0  0  0  0  0  0
   -1.2320   19.9530  -26.7790 C   0  0  0  0  0  0  0  0  0  0  0  0
   -3.7650   22.5260  -31.6490 C   0  0  0  0  0  0  0  0  0  0  0  0
   -3.6910   21.3370  -32.3790 C   0  0  0  0  0  0  0  0  0  0  0  0
   -6.4800   18.1684  -32.0100 H   0  0  0  0  0  0  0  0  0  0  0  0
   -7.7817   18.3753  -33.2304 H   0  0  0  0  0  0  0  0  0  0  0  0
   -6.7793   16.8847  -33.2304 H   0  0  0  0  0  0  0  0  0  0  0  0
   -7.0153   20.5362  -32.4635 H   0  0  0  0  0  0  0  0  0  0  0  0
   -7.1462   22.6546  -31.1532 H   0  0  0  0  0  0  0  0  0  0  0  0
   -3.6810   25.4820  -28.6580 H   0  0  0  0  0  0  0  0  0  0  0  0
   -5.0179   22.2234  -28.3291 H   0  0  0  0  0  0  0  0  0  0  0  0
   -3.8981   20.2647  -27.2968 H   0  0  0  0  0  0  0  0  0  0  0  0
    0.8527   22.9046  -28.2343 H   0  0  0  0  0  0  0  0  0  0  0  0
    0.5723   22.2709  -26.5662 H   0  0  0  0  0  0  0  0  0  0  0  0
    0.8809   20.7061  -29.1632 H   0  0  0  0  0  0  0  0  0  0  0  0
    1.8841   20.6437  -27.6292 H   0  0  0  0  0  0  0  0  0  0  0  0
   -0.2470   18.9307  -28.3951 H   0  0  0  0  0  0  0  0  0  0  0  0
    0.6814   19.0201  -26.8151 H   0  0  0  0  0  0  0  0  0  0  0  0
   -1.9221   19.0966  -26.7608 H   0  0  0  0  0  0  0  0  0  0  0  0
   -0.9534   20.2473  -25.7564 H   0  0  0  0  0  0  0  0  0  0  0  0
   -2.8470   23.0880  -31.4220 H   0  0  0  0  0  0  0  0  0  0  0  0
   -2.7155   20.9755  -32.7364 H   0  0  0  0  0  0  0  0  0  0  0  0
  1  2  1  0
  2  3  2  0
  2  4  1  0
  4  5  1  0
  5  6  2  0
  6  7  1  0
  7  8  2  0
  8  9  1  0
  9 10  2  0
  9 11  2  0
  9 12  1  0
 12 13  1  0
 13 14  2  0
 14 15  1  0
 15 16  2  0
 16 17  1  0
 17 18  2  0
 18 19  1  0
 19 20  2  0
 19 21  1  0
 17 22  1  0
 22 23  1  0
 23 24  1  0
 24 25  1  0
  8 26  1  0
 26 27  2  0
 27  5  1  0
 18 13  1  0
 25 16  1  0
  1 28  1  0
  1 29  1  0
  1 30  1  0
  6 31  1  0
  7 32  1  0
 12 33  1  0
 14 34  1  0
 15 35  1  0
 22 36  1  0
 22 37  1  0
 23 38  1  0
 23 39  1  0
 24 40  1  0
 24 41  1  0
 25 42  1  0
 25 43  1  0
 26 44  1  0
 27 45  1  0
M  CHG  2   4  -1  21  -1
M  END
>  <UniqueID>  (41) 
40

>  <SMILES>  (41) 
CC(=O)[N-]c1ccc(S(=O)(=O)Nc2ccc3c(c2C(=O)[O-])CCCC3)cc1

>  <Energy>  (41) 
65.68001619675519

>  <Genealogy>  (41) 
CC(=O)[N-]c1ccc(S(=O)(=O)Nc2ccc3c(c2C(=O)[O-])CCCC3)cc1 (protonated)
CC(=O)[N-]c1ccc(S(=O)(=O)Nc2ccc3c(c2C(=O)[O-])CCCC3)cc1 (3D coordinates assigned)
CC(=O)[N-]c1ccc(S(=O)(=O)Nc2ccc3c(c2C(=O)[O-])CCCC3)cc1 (nonaromatic ring conformer: 65.68001619675519 kcal/mol)

>  <smiles>  (41) 
CC(=O)Nc1ccc(S(=O)(=O)Nc2ccc3c(c2C(=O)O)CCCC3)cc1

>  <score_type>  (41) 
oracle

>  <origin>  (41) 
adgpu

>  <m_score__min__energy>  (41) 
-11.65

>  <m_primary>  (41) 
energy

$$$$
41:0
     RDKit          3D

 91 97  0  0  1  0  0  0  0  0999 V2000
   -5.0130   23.7430  -31.2260 C   0  0  0  0  0  0  0  0  0  0  0  0
   -6.2030   22.8480  -31.4600 C   0  0  0  0  0  0  0  0  0  0  0  0
   -7.4320   23.4360  -31.2010 C   0  0  0  0  0  0  0  0  0  0  0  0
   -8.5500   22.6540  -31.4030 C   0  0  0  0  0  0  0  0  0  0  0  0
   -8.3630   21.3680  -31.8420 C   0  0  0  0  0  0  0  0  0  0  0  0
   -9.4710   20.5900  -32.0430 C   0  0  0  0  0  0  0  0  0  0  0  0
   -9.4250   19.2860  -32.4790 C   0  0  0  0  0  0  0  0  0  0  0  0
   -8.1900   18.7450  -32.7230 C   0  0  0  0  0  0  0  0  0  0  0  0
   -6.9990   19.4790  -32.5400 C   0  0  0  0  0  0  0  0  0  0  0  0
   -5.8560   18.9520  -32.7720 O   0  0  0  0  0  0  0  0  0  0  0  0
   -4.7120   18.4240  -32.9980 C   0  0  0  0  0  0  0  0  0  0  0  0
   -3.5650   18.8900  -32.4130 N   0  0  0  0  0  0  0  0  0  0  0  0
   -2.3920   18.2990  -32.6790 C   0  0  0  0  0  0  0  0  0  0  0  0
   -1.3130   18.6880  -32.2160 N   0  0  0  0  0  0  0  0  0  0  0  0
   -1.0320   19.7520  -31.3680 C   0  0  0  0  0  0  0  0  0  0  0  0
   -0.2730   19.7390  -30.2290 C   0  0  0  0  0  0  0  0  0  0  0  0
   -0.1380   20.8850  -29.4320 C   0  0  0  0  0  0  0  0  0  0  0  0
   -0.7600   22.0590  -29.7620 C   0  0  0  0  0  0  0  0  0  0  0  0
   -0.7230   23.2820  -28.9820 C   0  0  0  0  0  0  0  0  0  0  0  0
   -0.9380   24.4280  -29.5140 O   0  0  0  0  0  0  0  0  0  0  0  0
   -0.4540   23.3220  -27.5790 N   0  0  0  0  0  0  0  0  0  0  0  0
   -0.4670   24.6370  -26.9970 C   0  0  0  0  0  0  0  0  0  0  0  0
   -1.6300   25.2450  -26.5770 C   0  0  0  0  0  0  0  0  0  0  0  0
   -2.9430   24.5500  -26.7190 C   0  0  0  0  0  0  0  0  0  0  0  0
   -1.6270   26.5210  -26.0110 C   0  0  0  0  0  0  0  0  0  0  0  0
   -0.4180   27.1540  -25.8850 C   0  0  0  0  0  0  0  0  0  0  0  0
    0.7810   26.5740  -26.2980 C   0  0  0  0  0  0  0  0  0  0  0  0
    0.7380   25.3020  -26.8570 C   0  0  0  0  0  0  0  0  0  0  0  0
    1.9760   24.6040  -27.3270 C   0  0  0  0  0  0  0  0  0  0  0  0
   -1.5220   22.0710  -30.9110 C   0  0  0  0  0  0  0  0  0  0  0  0
   -1.6590   20.9700  -31.6900 C   0  0  0  0  0  0  0  0  0  0  0  0
   -2.3500   17.1990  -33.5630 C   0  0  0  0  0  0  0  0  0  0  0  0
   -1.0880   16.5900  -33.7980 N   0  0  0  0  0  0  0  0  0  0  0  0
   -0.4900   15.6030  -32.9140 C   0  0  0  0  0  0  0  0  0  0  0  0
   -0.2770   14.3590  -33.7510 C   0  0  0  0  0  0  0  0  0  0  0  0
    0.1850   14.5800  -35.0160 O   0  0  0  0  0  0  0  0  0  0  0  0
    0.6910   15.8230  -35.2880 C   0  0  0  0  0  0  0  0  0  0  0  0
   -0.2970   16.9310  -34.9860 C   0  0  0  0  0  0  0  0  0  0  0  0
   -3.4960   16.7290  -34.1530 C   0  0  0  0  0  0  0  0  0  0  0  0
   -3.5120   15.5960  -35.0340 N   0  0  0  0  0  0  0  0  0  0  0  0
   -3.1020   15.6940  -36.3990 C   0  0  0  0  0  0  0  0  0  0  0  0
   -2.3190   14.5110  -36.8280 C   0  0  0  0  0  0  0  0  0  0  0  0
   -2.4040   13.3890  -35.9470 N   0  0  0  0  0  0  0  0  0  0  0  0
   -2.0450   12.1700  -36.6300 C   0  0  0  0  0  0  0  0  0  0  0  0
   -3.7340   13.2400  -35.3760 C   0  0  0  0  0  0  0  0  0  0  0  0
   -4.0050   14.3650  -34.4080 C   0  0  0  0  0  0  0  0  0  0  0  0
   -4.6380   17.3450  -33.8610 N   0  0  0  0  0  0  0  0  0  0  0  0
   -7.1310   20.8090  -32.0920 C   0  0  0  0  0  0  0  0  0  0  0  0
   -6.0560   21.5900  -31.8880 N   0  0  0  0  0  0  0  0  0  0  0  0
   -4.8522   23.8639  -30.1446 H   0  0  0  0  0  0  0  0  0  0  0  0
   -4.1193   23.2913  -31.6813 H   0  0  0  0  0  0  0  0  0  0  0  0
   -5.1990   24.7269  -31.6813 H   0  0  0  0  0  0  0  0  0  0  0  0
   -7.5113   24.4759  -30.8513 H   0  0  0  0  0  0  0  0  0  0  0  0
   -9.5598   23.0491  -31.2179 H   0  0  0  0  0  0  0  0  0  0  0  0
  -10.4575   21.0341  -31.8440 H   0  0  0  0  0  0  0  0  0  0  0  0
  -10.3443   18.7002  -32.6261 H   0  0  0  0  0  0  0  0  0  0  0  0
   -8.1249   17.7042  -33.0731 H   0  0  0  0  0  0  0  0  0  0  0  0
    0.2407   18.8123  -29.9333 H   0  0  0  0  0  0  0  0  0  0  0  0
    0.4802   20.8396  -28.5233 H   0  0  0  0  0  0  0  0  0  0  0  0
   -0.2690   22.4600  -27.0580 H   0  0  0  0  0  0  0  0  0  0  0  0
   -3.3528   24.3331  -25.7215 H   0  0  0  0  0  0  0  0  0  0  0  0
   -3.6422   25.1961  -27.2701 H   0  0  0  0  0  0  0  0  0  0  0  0
   -2.8018   23.6085  -27.2701 H   0  0  0  0  0  0  0  0  0  0  0  0
   -2.5597   27.0003  -25.6787 H   0  0  0  0  0  0  0  0  0  0  0  0
   -0.3924   28.1598  -25.4403 H   0  0  0  0  0  0  0  0  0  0  0  0
    1.7355   27.1088  -26.1845 H   0  0  0  0  0  0  0  0  0  0  0  0
    2.5629   24.2731  -26.4575 H   0  0  0  0  0  0  0  0  0  0  0  0
    1.6963   23.7306  -27.9344 H   0  0  0  0  0  0  0  0  0  0  0  0
    2.5785   25.2953  -27.9344 H   0  0  0  0  0  0  0  0  0  0  0  0
   -2.0331   23.0000  -31.2038 H   0  0  0  0  0  0  0  0  0  0  0  0
   -2.2768   21.0303  -32.5981 H   0  0  0  0  0  0  0  0  0  0  0  0
    0.4715   15.9711  -32.5266 H   0  0  0  0  0  0  0  0  0  0  0  0
   -1.1362   15.3972  -32.0479 H   0  0  0  0  0  0  0  0  0  0  0  0
    0.4507   13.7193  -33.2302 H   0  0  0  0  0  0  0  0  0  0  0  0
   -1.2681   13.8956  -33.8654 H   0  0  0  0  0  0  0  0  0  0  0  0
    1.5925   15.9782  -34.6771 H   0  0  0  0  0  0  0  0  0  0  0  0
    0.9190   15.8628  -36.3634 H   0  0  0  0  0  0  0  0  0  0  0  0
    0.2508   17.8670  -34.8022 H   0  0  0  0  0  0  0  0  0  0  0  0
   -0.9725   17.0557  -35.8452 H   0  0  0  0  0  0  0  0  0  0  0  0
   -3.9965   15.7775  -37.0337 H   0  0  0  0  0  0  0  0  0  0  0  0
   -2.4601   16.5817  -36.4989 H   0  0  0  0  0  0  0  0  0  0  0  0
   -2.6841   14.1985  -37.8175 H   0  0  0  0  0  0  0  0  0  0  0  0
   -1.2639   14.8219  -36.8354 H   0  0  0  0  0  0  0  0  0  0  0  0
   -1.8151   11.3892  -35.8901 H   0  0  0  0  0  0  0  0  0  0  0  0
   -2.8847   11.8419  -37.2603 H   0  0  0  0  0  0  0  0  0  0  0  0
   -1.1616   12.3494  -37.2603 H   0  0  0  0  0  0  0  0  0  0  0  0
   -4.4820   13.2641  -36.1821 H   0  0  0  0  0  0  0  0  0  0  0  0
   -3.7940   12.2800  -34.8423 H   0  0  0  0  0  0  0  0  0  0  0  0
   -5.0849   14.4455  -34.2148 H   0  0  0  0  0  0  0  0  0  0  0  0
   -3.5030   14.1851  -33.4459 H   0  0  0  0  0  0  0  0  0  0  0  0
   -5.5200   16.9820  -34.3170 H   0  0  0  0  0  0  0  0  0  0  0  0
  1  2  1  0
  2  3  2  0
  3  4  1  0
  4  5  2  0
  5  6  1  0
  6  7  2  0
  7  8  1  0
  8  9  2  0
  9 10  1  0
 10 11  1  0
 11 12  2  0
 12 13  1  0
 13 14  2  0
 14 15  1  0
 15 16  2  0
 16 17  1  0
 17 18  2  0
 18 19  1  0
 19 20  2  0
 19 21  1  0
 21 22  1  0
 22 23  2  0
 23 24  1  0
 23 25  1  0
 25 26  2  0
 26 27  1  0
 27 28  2  0
 28 29  1  0
 18 30  1  0
 30 31  2  0
 13 32  1  0
 32 33  1  0
 33 34  1  0
 34 35  1  0
 35 36  1  0
 36 37  1  0
 37 38  1  0
 32 39  2  0
 39 40  1  0
 40 41  1  0
 41 42  1  0
 42 43  1  0
 43 44  1  0
 43 45  1  0
 45 46  1  0
 39 47  1  0
  9 48  1  0
 48 49  2  0
 49  2  1  0
 48  5  1  0
 47 11  1  0
 31 15  1  0
 38 33  1  0
 46 40  1  0
 28 22  1  0
  1 50  1  0
  1 51  1  0
  1 52  1  0
  3 53  1  0
  4 54  1  0
  6 55  1  0
  7 56  1  0
  8 57  1  0
 16 58  1  0
 17 59  1  0
 21 60  1  0
 24 61  1  0
 24 62  1  0
 24 63  1  0
 25 64  1  0
 26 65  1  0
 27 66  1  0
 29 67  1  0
 29 68  1  0
 29 69  1  0
 30 70  1  0
 31 71  1  0
 34 72  1  0
 34 73  1  0
 35 74  1  0
 35 75  1  0
 37 76  1  0
 37 77  1  0
 38 78  1  0
 38 79  1  0
 41 80  1  0
 41 81  1  0
 42 82  1  0
 42 83  1  0
 44 84  1  0
 44 85  1  0
 44 86  1  0
 45 87  1  0
 45 88  1  0
 46 89  1  0
 46 90  1  0
 47 91  1  0
M  END
>  <smiles>  (42) 
Cc1ccc2cccc(Oc3nc(=Nc4ccc(C(=O)Nc5c(C)cccc5C)cc4)c(N4CCOCC4)c(N4CCN(C)CC4)[nH]3)c2n1

>  <score_type>  (42) 
oracle

>  <origin>  (42) 
adgpu

>  <m_score__min__energy>  (42) 
-10.789999999999999

>  <m_primary>  (42) 
energy

$$$$
42:0
     RDKit          3D

 41 43  0  0  0  0  0  0  0  0999 V2000
   -5.6570   26.4040  -30.5870 O   0  0  0  0  0  0  0  0  0  0  0  0
   -5.0650   25.3030  -30.7540 C   0  0  0  0  0  0  0  0  0  0  0  0
   -3.6640   25.2240  -30.4510 N   0  0  0  0  0  0  0  0  0  0  0  0
   -3.0650   24.4980  -29.3660 C   0  0  0  0  0  0  0  0  0  0  0  0
   -3.6390   23.3200  -28.8590 C   0  0  0  0  0  0  0  0  0  0  0  0
   -3.0030   22.6070  -27.8380 C   0  0  0  0  0  0  0  0  0  0  0  0
   -1.7750   23.0470  -27.3350 C   0  0  0  0  0  0  0  0  0  0  0  0
   -1.1810   24.2010  -27.8520 C   0  0  0  0  0  0  0  0  0  0  0  0
   -1.8280   24.9300  -28.8560 C   0  0  0  0  0  0  0  0  0  0  0  0
   -1.2370   26.0920  -29.3390 O   0  0  0  0  0  0  0  0  0  0  0  0
   -5.8450   24.1160  -31.1730 C   0  0  0  0  0  0  0  0  0  0  0  0
   -7.2430   24.1300  -31.0980 C   0  0  0  0  0  0  0  0  0  0  0  0
   -7.9790   23.0050  -31.4640 C   0  0  0  0  0  0  0  0  0  0  0  0
   -7.3330   21.8450  -31.9010 C   0  0  0  0  0  0  0  0  0  0  0  0
   -8.3340   20.4610  -32.3290 Cl  0  0  0  0  0  0  0  0  0  0  0  0
   -5.9220   21.7990  -31.9660 C   0  0  0  0  0  0  0  0  0  0  0  0
   -5.1020   20.2990  -32.4800 S   0  0  0  0  0  0  0  0  0  0  0  0
   -5.5220   20.0000  -33.8930 O   0  0  0  0  0  0  0  0  0  0  0  0
   -5.5800   19.1830  -31.5920 O   0  0  0  0  0  0  0  0  0  0  0  0
   -3.3530   20.3220  -32.4290 N   0  0  0  0  0  0  0  0  0  0  0  0
   -2.7820   21.1640  -33.4980 C   0  0  0  0  0  0  0  0  0  0  0  0
   -1.2400   21.2340  -33.4080 C   0  0  0  0  0  0  0  0  0  0  0  0
   -0.7210   20.7930  -32.1700 O   0  0  0  0  0  0  0  0  0  0  0  0
   -1.4910   21.3100  -31.1110 C   0  0  0  0  0  0  0  0  0  0  0  0
   -2.8430   20.5920  -31.0700 C   0  0  0  0  0  0  0  0  0  0  0  0
   -5.1910   22.9440  -31.5970 C   0  0  0  0  0  0  0  0  0  0  0  0
   -4.5936   22.9568  -29.2674 H   0  0  0  0  0  0  0  0  0  0  0  0
   -3.4697   21.6984  -27.4299 H   0  0  0  0  0  0  0  0  0  0  0  0
   -1.2764   22.4844  -26.5320 H   0  0  0  0  0  0  0  0  0  0  0  0
   -0.2054   24.5363  -27.4701 H   0  0  0  0  0  0  0  0  0  0  0  0
   -7.7631   25.0340  -30.7483 H   0  0  0  0  0  0  0  0  0  0  0  0
   -9.0773   23.0299  -31.4086 H   0  0  0  0  0  0  0  0  0  0  0  0
   -3.0634   20.7411  -34.4737 H   0  0  0  0  0  0  0  0  0  0  0  0
   -3.1791   22.1831  -33.3811 H   0  0  0  0  0  0  0  0  0  0  0  0
   -0.8170   20.6052  -34.2053 H   0  0  0  0  0  0  0  0  0  0  0  0
   -0.9603   22.2925  -33.5141 H   0  0  0  0  0  0  0  0  0  0  0  0
   -0.9616   21.1508  -30.1600 H   0  0  0  0  0  0  0  0  0  0  0  0
   -1.6508   22.3876  -31.2637 H   0  0  0  0  0  0  0  0  0  0  0  0
   -2.7249   19.6375  -30.5362 H   0  0  0  0  0  0  0  0  0  0  0  0
   -3.5640   21.2425  -30.5534 H   0  0  0  0  0  0  0  0  0  0  0  0
   -4.0921   22.9225  -31.6407 H   0  0  0  0  0  0  0  0  0  0  0  0
  1  2  2  0
  2  3  1  0
  3  4  1  0
  4  5  2  0
  5  6  1  0
  6  7  2  0
  7  8  1  0
  8  9  2  0
  9 10  1  0
  2 11  1  0
 11 12  2  0
 12 13  1  0
 13 14  2  0
 14 15  1  0
 14 16  1  0
 16 17  1  0
 17 18  2  0
 17 19  2  0
 17 20  1  0
 20 21  1  0
 21 22  1  0
 22 23  1  0
 23 24  1  0
 24 25  1  0
 16 26  2  0
  9  4  1  0
 26 11  1  0
 25 20  1  0
  5 27  1  0
  6 28  1  0
  7 29  1  0
  8 30  1  0
 12 31  1  0
 13 32  1  0
 21 33  1  0
 21 34  1  0
 22 35  1  0
 22 36  1  0
 24 37  1  0
 24 38  1  0
 25 39  1  0
 25 40  1  0
 26 41  1  0
M  CHG  2   3  -1  10  -1
M  END
>  <UniqueID>  (43) 
41

>  <SMILES>  (43) 
O=C([N-]c1ccccc1[O-])c1ccc(Cl)c(S(=O)(=O)N2CCOCC2)c1

>  <Energy>  (43) 
61.88165904899974

>  <Genealogy>  (43) 
O=C([N-]c1ccccc1[O-])c1ccc(Cl)c(S(=O)(=O)N2CCOCC2)c1 (protonated)
O=C([N-]c1ccccc1[O-])c1ccc(Cl)c(S(=O)(=O)N2CCOCC2)c1 (3D coordinates assigned)
O=C([N-]c1ccccc1[O-])c1ccc(Cl)c(S(=O)(=O)N2CCOCC2)c1 (nonaromatic ring conformer: 61.88165904899974 kcal/mol)

>  <smiles>  (43) 
O=C(Nc1ccccc1O)c1ccc(Cl)c(S(=O)(=O)N2CCOCC2)c1

>  <score_type>  (43) 
oracle

>  <origin>  (43) 
adgpu

>  <m_score__min__energy>  (43) 
-14.25

>  <m_primary>  (43) 
energy

$$$$
43:0
     RDKit          3D

 45 47  0  0  0  0  0  0  0  0999 V2000
   -0.1580   23.1160  -28.6390 C   0  0  0  0  0  0  0  0  0  0  0  0
   -0.9560   22.5720  -29.7950 C   0  0  0  0  0  0  0  0  0  0  0  0
   -0.4680   21.4550  -30.4870 C   0  0  0  0  0  0  0  0  0  0  0  0
   -1.1650   20.8980  -31.5690 C   0  0  0  0  0  0  0  0  0  0  0  0
   -0.4470   19.4800  -32.3650 S   0  0  0  0  0  0  0  0  0  0  0  0
    0.4430   18.7490  -31.4000 O   0  0  0  0  0  0  0  0  0  0  0  0
   -1.5300   18.5330  -32.8010 O   0  0  0  0  0  0  0  0  0  0  0  0
    0.4630   19.9660  -33.7930 C   0  0  0  0  0  0  0  0  0  0  0  0
    1.4490   19.1200  -34.3230 C   0  0  0  0  0  0  0  0  0  0  0  0
    2.1680   19.5060  -35.4580 C   0  0  0  0  0  0  0  0  0  0  0  0
    1.9110   20.7380  -36.0660 C   0  0  0  0  0  0  0  0  0  0  0  0
    2.6270   21.1200  -37.1940 O   0  0  0  0  0  0  0  0  0  0  0  0
    0.9350   21.5880  -35.5360 C   0  0  0  0  0  0  0  0  0  0  0  0
    0.2140   21.2050  -34.4010 C   0  0  0  0  0  0  0  0  0  0  0  0
   -2.4080   21.4650  -31.9540 C   0  0  0  0  0  0  0  0  0  0  0  0
   -3.3820   20.8600  -33.3120 S   0  0  0  0  0  0  0  0  0  0  0  0
   -2.4790   20.3780  -34.4130 O   0  0  0  0  0  0  0  0  0  0  0  0
   -4.2250   21.9750  -33.8590 O   0  0  0  0  0  0  0  0  0  0  0  0
   -4.3950   19.5070  -32.8040 C   0  0  0  0  0  0  0  0  0  0  0  0
   -4.3170   18.2800  -33.4810 C   0  0  0  0  0  0  0  0  0  0  0  0
   -5.1140   17.2030  -33.0820 C   0  0  0  0  0  0  0  0  0  0  0  0
   -5.9990   17.3460  -32.0110 C   0  0  0  0  0  0  0  0  0  0  0  0
   -6.0910   18.5670  -31.3390 C   0  0  0  0  0  0  0  0  0  0  0  0
   -5.2970   19.6490  -31.7340 C   0  0  0  0  0  0  0  0  0  0  0  0
   -5.4110   20.8280  -31.0740 F   0  0  0  0  0  0  0  0  0  0  0  0
   -2.8920   22.5820  -31.2560 C   0  0  0  0  0  0  0  0  0  0  0  0
   -2.1930   23.1340  -30.1740 C   0  0  0  0  0  0  0  0  0  0  0  0
   -2.8790   24.5380  -29.3370 S   0  0  0  0  0  0  0  0  0  0  0  0
   -1.6480   25.6910  -28.9580 N   0  0  0  0  0  0  0  0  0  0  0  0
   -3.9010   25.2070  -30.2130 O   0  0  0  0  0  0  0  0  0  0  0  0
   -3.5290   24.0880  -28.0600 O   0  0  0  0  0  0  0  0  0  0  0  0
   -0.6214   22.8001  -27.6927 H   0  0  0  0  0  0  0  0  0  0  0  0
    0.8710   22.7305  -28.6901 H   0  0  0  0  0  0  0  0  0  0  0  0
   -0.1408   24.2147  -28.6901 H   0  0  0  0  0  0  0  0  0  0  0  0
    0.4852   21.0042  -30.1737 H   0  0  0  0  0  0  0  0  0  0  0  0
    1.6565   18.1515  -33.8446 H   0  0  0  0  0  0  0  0  0  0  0  0
    2.9376   18.8388  -35.8734 H   0  0  0  0  0  0  0  0  0  0  0  0
    0.7344   22.5589  -36.0126 H   0  0  0  0  0  0  0  0  0  0  0  0
   -0.5504   21.8771  -33.9839 H   0  0  0  0  0  0  0  0  0  0  0  0
   -3.6259   18.1653  -34.3291 H   0  0  0  0  0  0  0  0  0  0  0  0
   -5.0440   16.2418  -33.6122 H   0  0  0  0  0  0  0  0  0  0  0  0
   -6.6237   16.4969  -31.6967 H   0  0  0  0  0  0  0  0  0  0  0  0
   -6.7898   18.6782  -30.4968 H   0  0  0  0  0  0  0  0  0  0  0  0
   -3.8447   23.0361  -31.5661 H   0  0  0  0  0  0  0  0  0  0  0  0
   -1.2310   26.0020  -29.8640 H   0  0  0  0  0  0  0  0  0  0  0  0
  1  2  1  0
  2  3  2  0
  3  4  1  0
  4  5  1  0
  5  6  2  0
  5  7  2  0
  5  8  1  0
  8  9  2  0
  9 10  1  0
 10 11  2  0
 11 12  1  0
 11 13  1  0
 13 14  2  0
  4 15  2  0
 15 16  1  0
 16 17  2  0
 16 18  2  0
 16 19  1  0
 19 20  2  0
 20 21  1  0
 21 22  2  0
 22 23  1  0
 23 24  2  0
 24 25  1  0
 15 26  1  0
 26 27  2  0
 27 28  1  0
 28 29  1  0
 28 30  2  0
 28 31  2  0
 27  2  1  0
 14  8  1  0
 24 19  1  0
  1 32  1  0
  1 33  1  0
  1 34  1  0
  3 35  1  0
  9 36  1  0
 10 37  1  0
 13 38  1  0
 14 39  1  0
 20 40  1  0
 21 41  1  0
 22 42  1  0
 23 43  1  0
 26 44  1  0
 29 45  1  0
M  CHG  2  12  -1  29  -1
M  END
>  <UniqueID>  (44) 
42

>  <SMILES>  (44) 
Cc1cc(S(=O)(=O)c2ccc([O-])cc2)c(S(=O)(=O)c2ccccc2F)cc1S([NH-])(=O)=O

>  <Energy>  (44) 
57.11762090318851

>  <Genealogy>  (44) 
Cc1cc(S(=O)(=O)c2ccc([O-])cc2)c(S(=O)(=O)c2ccccc2F)cc1S([NH-])(=O)=O (protonated)
Cc1cc(S(=O)(=O)c2ccc([O-])cc2)c(S(=O)(=O)c2ccccc2F)cc1S([NH-])(=O)=O (3D coordinates assigned)
Cc1cc(S(=O)(=O)c2ccc([O-])cc2)c(S(=O)(=O)c2ccccc2F)cc1S([NH-])(=O)=O (optimized conformer: 57.11762090318851 kcal/mol)

>  <smiles>  (44) 
Cc1cc(S(=O)(=O)c2ccc(O)cc2)c(S(=O)(=O)c2ccccc2F)cc1S(N)(=O)=O

>  <score_type>  (44) 
oracle

>  <origin>  (44) 
adgpu

>  <m_score__min__energy>  (44) 
-11.699999999999999

>  <m_primary>  (44) 
energy

$$$$
44:0
     RDKit          3D

 39 41  0  0  0  0  0  0  0  0999 V2000
   -8.9230   21.2510  -31.0940 C   0  0  0  0  0  0  0  0  0  0  0  0
   -8.7260   19.6580  -31.8600 S   0  0  0  0  0  0  0  0  0  0  0  0
   -9.1050   18.5820  -30.8810 O   0  0  0  0  0  0  0  0  0  0  0  0
   -9.6270   19.5600  -33.0580 O   0  0  0  0  0  0  0  0  0  0  0  0
   -7.0500   19.4530  -32.3580 C   0  0  0  0  0  0  0  0  0  0  0  0
   -6.3920   20.4710  -33.0590 C   0  0  0  0  0  0  0  0  0  0  0  0
   -5.0650   20.3010  -33.4660 C   0  0  0  0  0  0  0  0  0  0  0  0
   -4.3780   19.1120  -33.1700 C   0  0  0  0  0  0  0  0  0  0  0  0
   -2.9760   18.9220  -33.6020 C   0  0  0  0  0  0  0  0  0  0  0  0
   -2.5470   18.0250  -34.5630 C   0  0  0  0  0  0  0  0  0  0  0  0
   -1.2580   18.1750  -34.7630 O   0  0  0  0  0  0  0  0  0  0  0  0
   -0.8080   19.1280  -33.9800 C   0  0  0  0  0  0  0  0  0  0  0  0
   -1.8450   19.6350  -33.2200 C   0  0  0  0  0  0  0  0  0  0  0  0
   -1.7150   20.6600  -32.1610 C   0  0  0  0  0  0  0  0  0  0  0  0
   -2.6680   21.6840  -32.0300 C   0  0  0  0  0  0  0  0  0  0  0  0
   -2.5400   22.6440  -31.0220 C   0  0  0  0  0  0  0  0  0  0  0  0
   -1.4650   22.5880  -30.1260 C   0  0  0  0  0  0  0  0  0  0  0  0
   -1.3120   23.7890  -28.8480 S   0  0  0  0  0  0  0  0  0  0  0  0
   -2.1510   25.2290  -29.3050 N   0  0  0  0  0  0  0  0  0  0  0  0
   -1.8970   23.2500  -27.5720 O   0  0  0  0  0  0  0  0  0  0  0  0
    0.1380   24.1080  -28.6180 O   0  0  0  0  0  0  0  0  0  0  0  0
   -0.5270   21.5540  -30.2370 C   0  0  0  0  0  0  0  0  0  0  0  0
   -0.6520   20.5940  -31.2450 C   0  0  0  0  0  0  0  0  0  0  0  0
   -5.0510   18.0850  -32.4890 C   0  0  0  0  0  0  0  0  0  0  0  0
   -6.3780   18.2560  -32.0840 C   0  0  0  0  0  0  0  0  0  0  0  0
   -8.9088   21.1361  -30.0001 H   0  0  0  0  0  0  0  0  0  0  0  0
   -8.0997   21.9113  -31.4041 H   0  0  0  0  0  0  0  0  0  0  0  0
   -9.8824   21.6908  -31.4041 H   0  0  0  0  0  0  0  0  0  0  0  0
   -6.9207   21.4075  -33.2903 H   0  0  0  0  0  0  0  0  0  0  0  0
   -4.5562   21.1029  -34.0211 H   0  0  0  0  0  0  0  0  0  0  0  0
   -3.1881   17.2966  -35.0811 H   0  0  0  0  0  0  0  0  0  0  0  0
    0.2362   19.4710  -33.9356 H   0  0  0  0  0  0  0  0  0  0  0  0
   -3.5197   21.7306  -32.7246 H   0  0  0  0  0  0  0  0  0  0  0  0
   -3.2867   23.4467  -30.9321 H   0  0  0  0  0  0  0  0  0  0  0  0
   -1.6050   25.6670  -30.0800 H   0  0  0  0  0  0  0  0  0  0  0  0
    0.3118   21.4972  -29.5277 H   0  0  0  0  0  0  0  0  0  0  0  0
    0.0862   19.7821  -31.3215 H   0  0  0  0  0  0  0  0  0  0  0  0
   -4.5309   17.1401  -32.2729 H   0  0  0  0  0  0  0  0  0  0  0  0
   -6.8960   17.4470  -31.5481 H   0  0  0  0  0  0  0  0  0  0  0  0
  1  2  1  0
  2  3  2  0
  2  4  2  0
  2  5  1  0
  5  6  2  0
  6  7  1  0
  7  8  2  0
  8  9  1  0
  9 10  2  0
 10 11  1  0
 11 12  1  0
 12 13  2  0
 13 14  1  0
 14 15  2  0
 15 16  1  0
 16 17  2  0
 17 18  1  0
 18 19  1  0
 18 20  2  0
 18 21  2  0
 17 22  1  0
 22 23  2  0
  8 24  1  0
 24 25  2  0
 25  5  1  0
 13  9  1  0
 23 14  1  0
  1 26  1  0
  1 27  1  0
  1 28  1  0
  6 29  1  0
  7 30  1  0
 10 31  1  0
 12 32  1  0
 15 33  1  0
 16 34  1  0
 19 35  1  0
 22 36  1  0
 23 37  1  0
 24 38  1  0
 25 39  1  0
M  CHG  1  19  -1
M  END
>  <UniqueID>  (45) 
43

>  <SMILES>  (45) 
CS(=O)(=O)c1ccc(-c2cocc2-c2ccc(S([NH-])(=O)=O)cc2)cc1

>  <Energy>  (45) 
73.178532162164

>  <Genealogy>  (45) 
CS(=O)(=O)c1ccc(-c2cocc2-c2ccc(S([NH-])(=O)=O)cc2)cc1 (protonated)
CS(=O)(=O)c1ccc(-c2cocc2-c2ccc(S([NH-])(=O)=O)cc2)cc1 (3D coordinates assigned)
CS(=O)(=O)c1ccc(-c2cocc2-c2ccc(S([NH-])(=O)=O)cc2)cc1 (optimized conformer: 73.178532162164 kcal/mol)

>  <smiles>  (45) 
CS(=O)(=O)c1ccc(-c2cocc2-c2ccc(S(N)(=O)=O)cc2)cc1

>  <score_type>  (45) 
oracle

>  <origin>  (45) 
adgpu

>  <m_score__min__energy>  (45) 
-10.630000000000001

>  <m_primary>  (45) 
energy

$$$$
45:0
     RDKit          3D

 59 63  0  0  0  0  0  0  0  0999 V2000
   -8.0500   22.5300  -31.4210 O   0  0  0  0  0  0  0  0  0  0  0  0
   -6.8900   22.0290  -31.4590 C   0  0  0  0  0  0  0  0  0  0  0  0
   -5.7820   22.8460  -30.9370 C   0  0  0  0  0  0  0  0  0  0  0  0
   -4.4930   22.6990  -31.4650 C   0  0  0  0  0  0  0  0  0  0  0  0
   -3.4320   23.4500  -30.9490 C   0  0  0  0  0  0  0  0  0  0  0  0
   -3.6420   24.3340  -29.8840 C   0  0  0  0  0  0  0  0  0  0  0  0
   -2.5230   25.0550  -29.3650 N   0  0  0  0  0  0  0  0  0  0  0  0
   -1.4150   24.4500  -28.1740 S   0  0  0  0  0  0  0  0  0  0  0  0
   -1.7610   25.0220  -26.8270 O   0  0  0  0  0  0  0  0  0  0  0  0
   -0.0110   24.8390  -28.5560 O   0  0  0  0  0  0  0  0  0  0  0  0
   -1.5440   22.6900  -28.0850 C   0  0  0  0  0  0  0  0  0  0  0  0
   -1.9380   22.0840  -26.8820 C   0  0  0  0  0  0  0  0  0  0  0  0
   -2.0240   20.6900  -26.7820 C   0  0  0  0  0  0  0  0  0  0  0  0
   -1.7020   19.8870  -27.8780 C   0  0  0  0  0  0  0  0  0  0  0  0
   -1.2980   20.4720  -29.0840 C   0  0  0  0  0  0  0  0  0  0  0  0
   -0.9570   19.6830  -30.1890 C   0  0  0  0  0  0  0  0  0  0  0  0
   -0.5480   20.2910  -31.3760 C   0  0  0  0  0  0  0  0  0  0  0  0
   -0.4790   21.6840  -31.4480 C   0  0  0  0  0  0  0  0  0  0  0  0
   -0.8140   22.4400  -30.3700 N   0  0  0  0  0  0  0  0  0  0  0  0
   -1.2200   21.8810  -29.1940 C   0  0  0  0  0  0  0  0  0  0  0  0
   -4.9430   24.5090  -29.3780 C   0  0  0  0  0  0  0  0  0  0  0  0
   -6.0080   23.7660  -29.9060 C   0  0  0  0  0  0  0  0  0  0  0  0
   -6.6710   20.7520  -32.1190 N   0  0  1  0  0  0  0  0  0  0  0  0
   -5.5220   20.0050  -31.5480 C   0  0  0  0  0  0  0  0  0  0  0  0
   -5.1810   18.7450  -32.3790 C   0  0  0  0  0  0  0  0  0  0  0  0
   -6.3940   18.1680  -33.1510 C   0  0  1  0  0  0  0  0  0  0  0  0
   -6.5080   18.8420  -34.3840 O   0  0  0  0  0  0  0  0  0  0  0  0
   -6.1670   16.6800  -33.4100 C   0  0  0  0  0  0  0  0  0  0  0  0
   -5.1850   15.9680  -32.6920 C   0  0  0  0  0  0  0  0  0  0  0  0
   -4.9960   14.6060  -32.9430 C   0  0  0  0  0  0  0  0  0  0  0  0
   -5.7890   13.9550  -33.8850 C   0  0  0  0  0  0  0  0  0  0  0  0
   -6.7700   14.6800  -34.5680 C   0  0  0  0  0  0  0  0  0  0  0  0
   -6.9380   16.0070  -34.3160 N   0  0  0  0  0  0  0  0  0  0  0  0
   -7.6750   18.4160  -32.3240 C   0  0  0  0  0  0  0  0  0  0  0  0
   -7.9110   19.9230  -32.0610 C   0  0  0  0  0  0  0  0  0  0  0  0
   -4.3147   21.9910  -32.2877 H   0  0  0  0  0  0  0  0  0  0  0  0
   -2.4265   23.3454  -31.3826 H   0  0  0  0  0  0  0  0  0  0  0  0
   -2.1813   22.7094  -26.0104 H   0  0  0  0  0  0  0  0  0  0  0  0
   -2.3460   20.2264  -25.8378 H   0  0  0  0  0  0  0  0  0  0  0  0
   -1.7659   18.7921  -27.7936 H   0  0  0  0  0  0  0  0  0  0  0  0
   -1.0114   18.5864  -30.1214 H   0  0  0  0  0  0  0  0  0  0  0  0
   -0.2817   19.6775  -32.2493 H   0  0  0  0  0  0  0  0  0  0  0  0
   -0.1528   22.1700  -32.3793 H   0  0  0  0  0  0  0  0  0  0  0  0
   -5.1247   25.2297  -28.5671 H   0  0  0  0  0  0  0  0  0  0  0  0
   -7.0243   23.9062  -29.5092 H   0  0  0  0  0  0  0  0  0  0  0  0
   -6.4580   20.9790  -33.1190 H   0  0  0  0  0  0  0  0  0  0  0  0
   -4.6430   20.6661  -31.5279 H   0  0  0  0  0  0  0  0  0  0  0  0
   -5.7976   19.6797  -30.5340 H   0  0  0  0  0  0  0  0  0  0  0  0
   -4.3987   19.0084  -33.1060 H   0  0  0  0  0  0  0  0  0  0  0  0
   -4.8490   17.9706  -31.6718 H   0  0  0  0  0  0  0  0  0  0  0  0
   -6.8180   18.1860  -35.0590 H   0  0  0  0  0  0  0  0  0  0  0  0
   -4.5705   16.4816  -31.9380 H   0  0  0  0  0  0  0  0  0  0  0  0
   -4.2211   14.0483  -32.3966 H   0  0  0  0  0  0  0  0  0  0  0  0
   -5.6452   12.8837  -34.0890 H   0  0  0  0  0  0  0  0  0  0  0  0
   -7.4072   14.1771  -35.3104 H   0  0  0  0  0  0  0  0  0  0  0  0
   -8.5373   18.0120  -32.8747 H   0  0  0  0  0  0  0  0  0  0  0  0
   -7.5547   17.9156  -31.3518 H   0  0  0  0  0  0  0  0  0  0  0  0
   -8.6146   20.3000  -32.8179 H   0  0  0  0  0  0  0  0  0  0  0  0
   -8.3033   20.0092  -31.0370 H   0  0  0  0  0  0  0  0  0  0  0  0
  1  2  2  0
  2  3  1  0
  3  4  2  0
  4  5  1  0
  5  6  2  0
  6  7  1  0
  7  8  1  0
  8  9  2  0
  8 10  2  0
  8 11  1  0
 11 12  2  0
 12 13  1  0
 13 14  2  0
 14 15  1  0
 15 16  2  0
 16 17  1  0
 17 18  2  0
 18 19  1  0
 19 20  2  0
  6 21  1  0
 21 22  2  0
  2 23  1  0
 23 24  1  0
 24 25  1  0
 25 26  1  0
 26 27  1  6
 26 28  1  0
 28 29  2  0
 29 30  1  0
 30 31  2  0
 31 32  1  0
 32 33  2  0
 26 34  1  0
 34 35  1  0
 22  3  1  0
 35 23  1  0
 20 11  1  0
 33 28  1  0
 20 15  1  0
  4 36  1  0
  5 37  1  0
 12 38  1  0
 13 39  1  0
 14 40  1  0
 16 41  1  0
 17 42  1  0
 18 43  1  0
 21 44  1  0
 22 45  1  0
 23 46  1  6
 24 47  1  0
 24 48  1  0
 25 49  1  0
 25 50  1  0
 27 51  1  0
 29 52  1  0
 30 53  1  0
 31 54  1  0
 32 55  1  0
 34 56  1  0
 34 57  1  0
 35 58  1  0
 35 59  1  0
M  CHG  2   7  -1  23   1
M  END
>  <UniqueID>  (46) 
44

>  <SMILES>  (46) 
O=C(c1ccc([N-]S(=O)(=O)c2cccc3cccnc23)cc1)[NH+]1CCC(O)(c2ccccn2)CC1

>  <Energy>  (46) 
98.5260352055284

>  <Genealogy>  (46) 
O=C(c1ccc([N-]S(=O)(=O)c2cccc3cccnc23)cc1)[NH+]1CCC(O)(c2ccccn2)CC1 (protonated)
O=C(c1ccc([N-]S(=O)(=O)c2cccc3cccnc23)cc1)[NH+]1CCC(O)(c2ccccn2)CC1 (3D coordinates assigned)
O=C(c1ccc([N-]S(=O)(=O)c2cccc3cccnc23)cc1)[NH+]1CCC(O)(c2ccccn2)CC1 (nonaromatic ring conformer: 98.5260352055284 kcal/mol)

>  <smiles>  (46) 
O=C(c1ccc(NS(=O)(=O)c2cccc3cccnc23)cc1)N1CCC(O)(c2ccccn2)CC1

>  <score_type>  (46) 
oracle

>  <origin>  (46) 
adgpu

>  <m_score__min__energy>  (46) 
-10.85

>  <m_primary>  (46) 
energy

$$$$
46:0
     RDKit          3D

 51 54  0  0  0  0  0  0  0  0999 V2000
    0.0610   22.2290  -27.4530 C   0  0  0  0  0  0  0  0  0  0  0  0
    0.4530   23.8350  -28.2140 S   0  0  0  0  0  0  0  0  0  0  0  0
   -0.2640   24.7840  -26.8650 C   0  0  0  0  0  0  0  0  0  0  0  0
    0.3060   24.6950  -25.5880 C   0  0  0  0  0  0  0  0  0  0  0  0
   -0.2330   25.4220  -24.5250 C   0  0  0  0  0  0  0  0  0  0  0  0
   -1.3520   26.2320  -24.7280 C   0  0  0  0  0  0  0  0  0  0  0  0
   -1.9290   26.3230  -25.9970 C   0  0  0  0  0  0  0  0  0  0  0  0
   -1.3800   25.6130  -27.0800 C   0  0  0  0  0  0  0  0  0  0  0  0
   -1.9770   25.6710  -28.3860 N   0  0  0  0  0  0  0  0  0  0  0  0
   -2.6940   24.6110  -29.0270 C   0  0  0  0  0  0  0  0  0  0  0  0
   -2.6060   23.4470  -28.5550 O   0  0  0  0  0  0  0  0  0  0  0  0
   -3.4170   24.8460  -30.2460 N   0  0  0  0  0  0  0  0  0  0  0  0
   -4.4210   23.9590  -30.7670 C   0  0  0  0  0  0  0  0  0  0  0  0
   -5.7890   24.1600  -30.5150 C   0  0  0  0  0  0  0  0  0  0  0  0
   -6.7350   23.2900  -31.0590 C   0  0  0  0  0  0  0  0  0  0  0  0
   -6.3140   22.2330  -31.8700 C   0  0  0  0  0  0  0  0  0  0  0  0
   -7.2690   21.3490  -32.3910 O   0  0  0  0  0  0  0  0  0  0  0  0
   -7.0290   20.0130  -32.7440 C   0  0  0  0  0  0  0  0  0  0  0  0
   -6.2380   19.6610  -33.8510 C   0  0  0  0  0  0  0  0  0  0  0  0
   -6.0350   18.3150  -34.1730 C   0  0  0  0  0  0  0  0  0  0  0  0
   -6.6280   17.2980  -33.4060 C   0  0  0  0  0  0  0  0  0  0  0  0
   -6.4150   15.9100  -33.7380 N   0  0  0  0  0  0  0  0  0  0  0  0
   -7.2340   15.1000  -34.4470 C   0  0  0  0  0  0  0  0  0  0  0  0
   -6.7510   13.8460  -34.5700 N   0  0  0  0  0  0  0  0  0  0  0  0
   -5.5730   13.8860  -33.9170 C   0  0  0  0  0  0  0  0  0  0  0  0
   -4.6900   12.6990  -33.7160 C   0  0  0  0  0  0  0  0  0  0  0  0
   -5.3640   15.1420  -33.3950 C   0  0  0  0  0  0  0  0  0  0  0  0
   -7.4360   17.6580  -32.3120 C   0  0  0  0  0  0  0  0  0  0  0  0
   -7.6380   19.0040  -31.9920 C   0  0  0  0  0  0  0  0  0  0  0  0
   -4.9850   22.0580  -32.1110 N   0  0  0  0  0  0  0  0  0  0  0  0
   -4.0440   22.8920  -31.5940 C   0  0  0  0  0  0  0  0  0  0  0  0
    0.0849   22.3267  -26.3576 H   0  0  0  0  0  0  0  0  0  0  0  0
   -0.9419   21.9077  -27.7707 H   0  0  0  0  0  0  0  0  0  0  0  0
    0.8031   21.4818  -27.7707 H   0  0  0  0  0  0  0  0  0  0  0  0
    1.1815   24.0499  -25.4225 H   0  0  0  0  0  0  0  0  0  0  0  0
    0.2243   25.3566  -23.5267 H   0  0  0  0  0  0  0  0  0  0  0  0
   -1.7796   26.7990  -23.8880 H   0  0  0  0  0  0  0  0  0  0  0  0
   -2.8174   26.9533  -26.1501 H   0  0  0  0  0  0  0  0  0  0  0  0
   -3.1310   25.6630  -30.8300 H   0  0  0  0  0  0  0  0  0  0  0  0
   -6.1143   25.0036  -29.8885 H   0  0  0  0  0  0  0  0  0  0  0  0
   -7.8052   23.4355  -30.8506 H   0  0  0  0  0  0  0  0  0  0  0  0
   -5.7766   20.4471  -34.4667 H   0  0  0  0  0  0  0  0  0  0  0  0
   -5.4051   18.0501  -35.0350 H   0  0  0  0  0  0  0  0  0  0  0  0
   -8.1916   15.4284  -34.8774 H   0  0  0  0  0  0  0  0  0  0  0  0
   -4.5565   12.5195  -32.6390 H   0  0  0  0  0  0  0  0  0  0  0  0
   -5.1521   11.8154  -34.1805 H   0  0  0  0  0  0  0  0  0  0  0  0
   -3.7109   12.8875  -34.1805 H   0  0  0  0  0  0  0  0  0  0  0  0
   -4.4935   15.4614  -32.8031 H   0  0  0  0  0  0  0  0  0  0  0  0
   -7.9123   16.8748  -31.7039 H   0  0  0  0  0  0  0  0  0  0  0  0
   -8.2818   19.2714  -31.1411 H   0  0  0  0  0  0  0  0  0  0  0  0
   -2.9812   22.7286  -31.8259 H   0  0  0  0  0  0  0  0  0  0  0  0
  1  2  1  0
  2  3  1  0
  3  4  2  0
  4  5  1  0
  5  6  2  0
  6  7  1  0
  7  8  2  0
  8  9  1  0
  9 10  1  0
 10 11  2  0
 10 12  1  0
 12 13  1  0
 13 14  2  0
 14 15  1  0
 15 16  2  0
 16 17  1  0
 17 18  1  0
 18 19  2  0
 19 20  1  0
 20 21  2  0
 21 22  1  0
 22 23  1  0
 23 24  2  0
 24 25  1  0
 25 26  1  0
 25 27  2  0
 21 28  1  0
 28 29  2  0
 16 30  1  0
 30 31  2  0
  8  3  1  0
 31 13  1  0
 29 18  1  0
 27 22  1  0
  1 32  1  0
  1 33  1  0
  1 34  1  0
  4 35  1  0
  5 36  1  0
  6 37  1  0
  7 38  1  0
 12 39  1  0
 14 40  1  0
 15 41  1  0
 19 42  1  0
 20 43  1  0
 23 44  1  0
 26 45  1  0
 26 46  1  0
 26 47  1  0
 27 48  1  0
 28 49  1  0
 29 50  1  0
 31 51  1  0
M  CHG  1   9  -1
M  END
>  <UniqueID>  (47) 
45

>  <SMILES>  (47) 
CSc1ccccc1[N-]C(=O)Nc1ccc(Oc2ccc(-n3cnc(C)c3)cc2)nc1

>  <Energy>  (47) 
95.37676541125663

>  <Genealogy>  (47) 
CSc1ccccc1[N-]C(=O)Nc1ccc(Oc2ccc(-n3cnc(C)c3)cc2)nc1 (protonated)
CSc1ccccc1[N-]C(=O)Nc1ccc(Oc2ccc(-n3cnc(C)c3)cc2)nc1 (3D coordinates assigned)
CSc1ccccc1[N-]C(=O)Nc1ccc(Oc2ccc(-n3cnc(C)c3)cc2)nc1 (optimized conformer: 95.37676541125663 kcal/mol)

>  <smiles>  (47) 
CSc1ccccc1NC(=O)Nc1ccc(Oc2ccc(-n3cnc(C)c3)cc2)nc1

>  <score_type>  (47) 
oracle

>  <origin>  (47) 
adgpu

>  <m_score__min__energy>  (47) 
-10.289999999999999

>  <m_primary>  (47) 
energy

$$$$
47:0
     RDKit          3D

 55 58  0  0  0  0  0  0  0  0999 V2000
   -1.4110   21.4940  -33.8790 O   0  0  0  0  0  0  0  0  0  0  0  0
   -1.8950   20.7750  -32.9630 C   0  0  0  0  0  0  0  0  0  0  0  0
   -1.4370   20.9240  -31.6120 N   0  0  0  0  0  0  0  0  0  0  0  0
   -2.0750   21.6680  -30.5620 C   0  0  0  0  0  0  0  0  0  0  0  0
   -3.4120   21.4360  -30.1890 C   0  0  0  0  0  0  0  0  0  0  0  0
   -4.0040   22.2110  -29.1880 C   0  0  0  0  0  0  0  0  0  0  0  0
   -3.2780   23.2270  -28.5620 C   0  0  0  0  0  0  0  0  0  0  0  0
   -1.9510   23.4770  -28.9370 C   0  0  0  0  0  0  0  0  0  0  0  0
   -1.0410   24.7850  -28.1710 S   0  0  0  0  0  0  0  0  0  0  0  0
    0.4260   24.4600  -28.2290 O   0  0  0  0  0  0  0  0  0  0  0  0
   -1.2640   26.0550  -28.9450 O   0  0  0  0  0  0  0  0  0  0  0  0
   -1.4990   25.0470  -26.5050 N   0  0  0  0  0  0  0  0  0  0  0  0
   -0.6200   24.3390  -25.5760 C   0  0  0  0  0  0  0  0  0  0  0  0
   -0.6930   25.0970  -24.2590 C   0  0  0  0  0  0  0  0  0  0  0  0
   -1.2290   26.4770  -24.6160 C   0  0  0  0  0  0  0  0  0  0  0  0
   -1.4120   26.4550  -26.1260 C   0  0  0  0  0  0  0  0  0  0  0  0
   -1.3610   22.7040  -29.9480 C   0  0  0  0  0  0  0  0  0  0  0  0
   -2.9730   19.8070  -33.2760 C   0  0  0  0  0  0  0  0  0  0  0  0
   -2.6780   18.4420  -33.4500 C   0  0  0  0  0  0  0  0  0  0  0  0
   -3.6950   17.5310  -33.7440 C   0  0  0  0  0  0  0  0  0  0  0  0
   -5.0130   17.9700  -33.8850 C   0  0  0  0  0  0  0  0  0  0  0  0
   -5.3230   19.3290  -33.7400 C   0  0  0  0  0  0  0  0  0  0  0  0
   -6.6700   19.7910  -33.8820 N   0  0  0  0  0  0  0  0  0  0  0  0
   -7.6640   20.1010  -32.4950 S   0  0  0  0  0  0  0  0  0  0  0  0
   -7.5100   18.9730  -31.5140 O   0  0  0  0  0  0  0  0  0  0  0  0
   -9.1040   20.1650  -32.9230 O   0  0  0  0  0  0  0  0  0  0  0  0
   -7.2350   21.6280  -31.7290 C   0  0  0  0  0  0  0  0  0  0  0  0
   -6.3870   22.5300  -32.3900 C   0  0  0  0  0  0  0  0  0  0  0  0
   -6.0080   23.7240  -31.7670 C   0  0  0  0  0  0  0  0  0  0  0  0
   -6.4790   24.0250  -30.4830 C   0  0  0  0  0  0  0  0  0  0  0  0
   -6.0000   25.5200  -29.7010 Cl  0  0  0  0  0  0  0  0  0  0  0  0
   -7.3240   23.1270  -29.8210 C   0  0  0  0  0  0  0  0  0  0  0  0
   -7.7000   21.9310  -30.4410 C   0  0  0  0  0  0  0  0  0  0  0  0
   -4.3050   20.2390  -33.4170 C   0  0  0  0  0  0  0  0  0  0  0  0
   -3.9916   20.6440  -30.6858 H   0  0  0  0  0  0  0  0  0  0  0  0
   -5.0460   22.0201  -28.8918 H   0  0  0  0  0  0  0  0  0  0  0  0
   -3.7488   23.8320  -27.7731 H   0  0  0  0  0  0  0  0  0  0  0  0
   -0.9649   23.3035  -25.4393 H   0  0  0  0  0  0  0  0  0  0  0  0
    0.4114   24.2949  -25.9558 H   0  0  0  0  0  0  0  0  0  0  0  0
   -1.3733   24.5889  -23.5597 H   0  0  0  0  0  0  0  0  0  0  0  0
    0.2882   25.1544  -23.7650 H   0  0  0  0  0  0  0  0  0  0  0  0
   -2.1904   26.6593  -24.1135 H   0  0  0  0  0  0  0  0  0  0  0  0
   -0.5470   27.2785  -24.2960 H   0  0  0  0  0  0  0  0  0  0  0  0
   -2.3354   26.9831  -26.4060 H   0  0  0  0  0  0  0  0  0  0  0  0
   -0.5783   26.9575  -26.6384 H   0  0  0  0  0  0  0  0  0  0  0  0
   -0.3276   22.9138  -30.2613 H   0  0  0  0  0  0  0  0  0  0  0  0
   -1.6401   18.0904  -33.3539 H   0  0  0  0  0  0  0  0  0  0  0  0
   -3.4569   16.4639  -33.8649 H   0  0  0  0  0  0  0  0  0  0  0  0
   -5.8105   17.2468  -34.1106 H   0  0  0  0  0  0  0  0  0  0  0  0
   -7.1690   19.5890  -34.7770 H   0  0  0  0  0  0  0  0  0  0  0  0
   -6.0194   22.2976  -33.4004 H   0  0  0  0  0  0  0  0  0  0  0  0
   -5.3396   24.4268  -32.2861 H   0  0  0  0  0  0  0  0  0  0  0  0
   -7.6929   23.3621  -28.8117 H   0  0  0  0  0  0  0  0  0  0  0  0
   -8.3622   21.2261  -29.9170 H   0  0  0  0  0  0  0  0  0  0  0  0
   -4.5506   21.3014  -33.2724 H   0  0  0  0  0  0  0  0  0  0  0  0
  1  2  2  0
  2  3  1  0
  3  4  1  0
  4  5  2  0
  5  6  1  0
  6  7  2  0
  7  8  1  0
  8  9  1  0
  9 10  2  0
  9 11  2  0
  9 12  1  0
 12 13  1  0
 13 14  1  0
 14 15  1  0
 15 16  1  0
  8 17  2  0
  2 18  1  0
 18 19  2  0
 19 20  1  0
 20 21  2  0
 21 22  1  0
 22 23  1  0
 23 24  1  0
 24 25  2  0
 24 26  2  0
 24 27  1  0
 27 28  2  0
 28 29  1  0
 29 30  2  0
 30 31  1  0
 30 32  1  0
 32 33  2  0
 22 34  2  0
 17  4  1  0
 34 18  1  0
 16 12  1  0
 33 27  1  0
  5 35  1  0
  6 36  1  0
  7 37  1  0
 13 38  1  0
 13 39  1  0
 14 40  1  0
 14 41  1  0
 15 42  1  0
 15 43  1  0
 16 44  1  0
 16 45  1  0
 17 46  1  0
 19 47  1  0
 20 48  1  0
 21 49  1  0
 23 50  1  0
 28 51  1  0
 29 52  1  0
 32 53  1  0
 33 54  1  0
 34 55  1  0
M  CHG  1   3  -1
M  END
>  <UniqueID>  (48) 
46

>  <SMILES>  (48) 
O=C([N-]c1cccc(S(=O)(=O)N2CCCC2)c1)c1cccc(NS(=O)(=O)c2ccc(Cl)cc2)c1

>  <Energy>  (48) 
70.31568414972664

>  <Genealogy>  (48) 
O=C([N-]c1cccc(S(=O)(=O)N2CCCC2)c1)c1cccc(NS(=O)(=O)c2ccc(Cl)cc2)c1 (protonated)
O=C([N-]c1cccc(S(=O)(=O)N2CCCC2)c1)c1cccc(NS(=O)(=O)c2ccc(Cl)cc2)c1 (3D coordinates assigned)
O=C([N-]c1cccc(S(=O)(=O)N2CCCC2)c1)c1cccc(NS(=O)(=O)c2ccc(Cl)cc2)c1 (nonaromatic ring conformer: 70.31568414972664 kcal/mol)

>  <smiles>  (48) 
O=C(Nc1cccc(S(=O)(=O)N2CCCC2)c1)c1cccc(NS(=O)(=O)c2ccc(Cl)cc2)c1

>  <score_type>  (48) 
oracle

>  <origin>  (48) 
adgpu

>  <m_score__min__energy>  (48) 
-12.16

>  <m_primary>  (48) 
energy

$$$$
48:0
     RDKit          3D

 49 51  0  0  0  0  0  0  0  0999 V2000
    0.2100   24.4500  -27.5350 C   0  0  0  0  0  0  0  0  0  0  0  0
   -0.0830   24.1980  -28.9050 O   0  0  0  0  0  0  0  0  0  0  0  0
   -0.8300   23.1030  -29.3730 C   0  0  0  0  0  0  0  0  0  0  0  0
   -0.2160   21.8890  -29.7420 C   0  0  0  0  0  0  0  0  0  0  0  0
   -0.9860   20.8190  -30.2040 C   0  0  0  0  0  0  0  0  0  0  0  0
   -2.3710   20.9450  -30.3020 C   0  0  0  0  0  0  0  0  0  0  0  0
   -2.9930   22.1410  -29.9400 C   0  0  0  0  0  0  0  0  0  0  0  0
   -2.2310   23.2270  -29.4770 C   0  0  0  0  0  0  0  0  0  0  0  0
   -2.9180   24.5190  -29.1090 C   0  0  0  0  0  0  0  0  0  0  0  0
   -4.3230   24.2970  -28.7550 N   0  0  0  0  0  0  0  0  0  0  0  0
   -5.3900   24.7060  -30.0680 S   0  0  0  0  0  0  0  0  0  0  0  0
   -6.3750   25.7350  -29.5930 O   0  0  0  0  0  0  0  0  0  0  0  0
   -4.5900   25.2990  -31.1940 O   0  0  0  0  0  0  0  0  0  0  0  0
   -6.2800   23.2920  -30.6280 C   0  0  0  0  0  0  0  0  0  0  0  0
   -7.5880   23.0470  -30.1860 C   0  0  0  0  0  0  0  0  0  0  0  0
   -8.2850   21.9260  -30.6470 C   0  0  0  0  0  0  0  0  0  0  0  0
   -7.6810   21.0480  -31.5500 C   0  0  0  0  0  0  0  0  0  0  0  0
   -6.3780   21.2890  -32.0030 C   0  0  0  0  0  0  0  0  0  0  0  0
   -5.6140   20.1640  -33.1230 S   0  0  0  0  0  0  0  0  0  0  0  0
   -6.4840   20.0260  -34.3410 O   0  0  0  0  0  0  0  0  0  0  0  0
   -4.2750   20.6990  -33.5500 O   0  0  0  0  0  0  0  0  0  0  0  0
   -5.4200   18.6030  -32.3610 N   0  0  0  0  0  0  0  0  0  0  0  0
   -4.4110   17.8100  -33.0880 C   0  0  0  0  0  0  0  0  0  0  0  0
   -4.5810   16.3120  -32.7870 C   0  0  0  0  0  0  0  0  0  0  0  0
   -5.8510   15.7840  -33.1520 O   0  0  0  0  0  0  0  0  0  0  0  0
   -6.8710   16.7670  -33.2560 C   0  0  0  0  0  0  0  0  0  0  0  0
   -6.7210   17.9070  -32.2340 C   0  0  0  0  0  0  0  0  0  0  0  0
   -5.6780   22.4100  -31.5350 C   0  0  0  0  0  0  0  0  0  0  0  0
   -0.4713   23.8641  -26.9005 H   0  0  0  0  0  0  0  0  0  0  0  0
    1.2495   24.1594  -27.3229 H   0  0  0  0  0  0  0  0  0  0  0  0
    0.0782   25.5213  -27.3229 H   0  0  0  0  0  0  0  0  0  0  0  0
    0.8763   21.7836  -29.6657 H   0  0  0  0  0  0  0  0  0  0  0  0
   -0.4988   19.8755  -30.4910 H   0  0  0  0  0  0  0  0  0  0  0  0
   -2.9747   20.1003  -30.6653 H   0  0  0  0  0  0  0  0  0  0  0  0
   -4.0863   22.2339  -30.0176 H   0  0  0  0  0  0  0  0  0  0  0  0
   -2.3991   24.9677  -28.2491 H   0  0  0  0  0  0  0  0  0  0  0  0
   -2.8828   25.1896  -29.9803 H   0  0  0  0  0  0  0  0  0  0  0  0
   -8.0663   23.7375  -29.4758 H   0  0  0  0  0  0  0  0  0  0  0  0
   -9.3106   21.7352  -30.2980 H   0  0  0  0  0  0  0  0  0  0  0  0
   -8.2307   20.1644  -31.9065 H   0  0  0  0  0  0  0  0  0  0  0  0
   -4.5296   17.9774  -34.1687 H   0  0  0  0  0  0  0  0  0  0  0  0
   -3.4091   18.1259  -32.7619 H   0  0  0  0  0  0  0  0  0  0  0  0
   -3.8062   15.7593  -33.3385 H   0  0  0  0  0  0  0  0  0  0  0  0
   -4.4923   16.1967  -31.6967 H   0  0  0  0  0  0  0  0  0  0  0  0
   -6.8392   17.1980  -34.2676 H   0  0  0  0  0  0  0  0  0  0  0  0
   -7.8288   16.2671  -33.0495 H   0  0  0  0  0  0  0  0  0  0  0  0
   -7.5297   18.6353  -32.3941 H   0  0  0  0  0  0  0  0  0  0  0  0
   -6.7725   17.4674  -31.2270 H   0  0  0  0  0  0  0  0  0  0  0  0
   -4.6511   22.5980  -31.8816 H   0  0  0  0  0  0  0  0  0  0  0  0
  1  2  1  0
  2  3  1  0
  3  4  2  0
  4  5  1  0
  5  6  2  0
  6  7  1  0
  7  8  2  0
  8  9  1  0
  9 10  1  0
 10 11  1  0
 11 12  2  0
 11 13  2  0
 11 14  1  0
 14 15  2  0
 15 16  1  0
 16 17  2  0
 17 18  1  0
 18 19  1  0
 19 20  2  0
 19 21  2  0
 19 22  1  0
 22 23  1  0
 23 24  1  0
 24 25  1  0
 25 26  1  0
 26 27  1  0
 18 28  2  0
  8  3  1  0
 28 14  1  0
 27 22  1  0
  1 29  1  0
  1 30  1  0
  1 31  1  0
  4 32  1  0
  5 33  1  0
  6 34  1  0
  7 35  1  0
  9 36  1  0
  9 37  1  0
 15 38  1  0
 16 39  1  0
 17 40  1  0
 23 41  1  0
 23 42  1  0
 24 43  1  0
 24 44  1  0
 26 45  1  0
 26 46  1  0
 27 47  1  0
 27 48  1  0
 28 49  1  0
M  CHG  1  10  -1
M  END
>  <UniqueID>  (49) 
47

>  <SMILES>  (49) 
COc1ccccc1C[N-]S(=O)(=O)c1cccc(S(=O)(=O)N2CCOCC2)c1

>  <Energy>  (49) 
60.280572359305445

>  <Genealogy>  (49) 
COc1ccccc1C[N-]S(=O)(=O)c1cccc(S(=O)(=O)N2CCOCC2)c1 (protonated)
COc1ccccc1C[N-]S(=O)(=O)c1cccc(S(=O)(=O)N2CCOCC2)c1 (3D coordinates assigned)
COc1ccccc1C[N-]S(=O)(=O)c1cccc(S(=O)(=O)N2CCOCC2)c1 (nonaromatic ring conformer: 60.280572359305445 kcal/mol)

>  <smiles>  (49) 
COc1ccccc1CNS(=O)(=O)c1cccc(S(=O)(=O)N2CCOCC2)c1

>  <score_type>  (49) 
oracle

>  <origin>  (49) 
adgpu

>  <m_score__min__energy>  (49) 
-10.4

>  <m_primary>  (49) 
energy

$$$$
49:0
     RDKit          3D

 47 49  0  0  1  0  0  0  0  0999 V2000
   -0.5410   30.1970  -25.2090 C   0  0  0  0  0  0  0  0  0  0  0  0
    0.6800   29.5230  -25.4410 O   0  0  0  0  0  0  0  0  0  0  0  0
    0.7560   28.1830  -25.7500 C   0  0  0  0  0  0  0  0  0  0  0  0
    1.5720   27.3910  -24.9650 C   0  0  0  0  0  0  0  0  0  0  0  0
    1.6640   26.0460  -25.2560 C   0  0  0  0  0  0  0  0  0  0  0  0
    0.9760   25.4530  -26.2990 C   0  0  0  0  0  0  0  0  0  0  0  0
    1.1090   23.7400  -26.6490 Cl  0  0  0  0  0  0  0  0  0  0  0  0
    0.1280   26.2750  -27.1160 C   0  0  0  0  0  0  0  0  0  0  0  0
   -0.4500   25.6470  -28.1980 N   0  0  0  0  0  0  0  0  0  0  0  0
   -1.5420   25.0580  -28.2690 C   0  0  0  0  0  0  0  0  0  0  0  0
   -1.8660   24.5220  -29.4940 N   0  0  0  0  0  0  0  0  0  0  0  0
   -3.0110   23.8890  -29.7030 C   0  0  0  0  0  0  0  0  0  0  0  0
   -3.3000   23.3920  -30.8560 N   0  0  0  0  0  0  0  0  0  0  0  0
   -4.5120   22.7050  -31.1380 C   0  0  0  0  0  0  0  0  0  0  0  0
   -4.5760   21.3460  -31.3720 C   0  0  0  0  0  0  0  0  0  0  0  0
   -5.7570   20.6840  -31.6440 C   0  0  0  0  0  0  0  0  0  0  0  0
   -6.9410   21.4000  -31.6890 C   0  0  0  0  0  0  0  0  0  0  0  0
   -8.4140   20.5290  -32.0360 S   0  0  0  0  0  0  0  0  0  0  0  0
   -9.8520   21.5440  -31.7730 C   0  0  0  0  0  0  0  0  0  0  0  0
   -8.4540   20.0550  -33.4650 O   0  0  0  0  0  0  0  0  0  0  0  0
   -8.4740   19.3350  -31.1260 O   0  0  0  0  0  0  0  0  0  0  0  0
   -6.9190   22.7680  -31.4590 C   0  0  0  0  0  0  0  0  0  0  0  0
   -5.7210   23.4010  -31.1890 C   0  0  0  0  0  0  0  0  0  0  0  0
   -3.8690   23.7720  -28.7040 N   0  0  0  0  0  0  0  0  0  0  0  0
   -3.5980   24.2700  -27.5160 C   0  0  0  0  0  0  0  0  0  0  0  0
   -2.4040   24.9600  -27.1920 C   0  0  0  0  0  0  0  0  0  0  0  0
   -2.1650   25.4690  -25.8580 C   0  0  0  0  0  0  0  0  0  0  0  0
   -1.6350   24.7040  -24.8790 F   0  0  0  0  0  0  0  0  0  0  0  0
   -3.4900   25.3070  -25.2800 F   0  0  0  0  0  0  0  0  0  0  0  0
   -2.2240   26.8340  -25.6700 F   0  0  0  0  0  0  0  0  0  0  0  0
    0.0510   27.6340  -26.8020 C   0  0  0  0  0  0  0  0  0  0  0  0
   -0.7087   30.2896  -24.1258 H   0  0  0  0  0  0  0  0  0  0  0  0
   -0.4981   31.1992  -25.6603 H   0  0  0  0  0  0  0  0  0  0  0  0
   -1.3662   29.6266  -25.6603 H   0  0  0  0  0  0  0  0  0  0  0  0
    2.1362   27.8240  -24.1259 H   0  0  0  0  0  0  0  0  0  0  0  0
    2.3139   25.4165  -24.6303 H   0  0  0  0  0  0  0  0  0  0  0  0
   -1.2050   24.6000  -30.3060 H   0  0  0  0  0  0  0  0  0  0  0  0
   -3.6433   20.7636  -31.3403 H   0  0  0  0  0  0  0  0  0  0  0  0
   -5.7570   19.5987  -31.8231 H   0  0  0  0  0  0  0  0  0  0  0  0
  -10.0231   21.6647  -30.6931 H   0  0  0  0  0  0  0  0  0  0  0  0
   -9.6930   22.5311  -32.2317 H   0  0  0  0  0  0  0  0  0  0  0  0
  -10.7288   21.0635  -32.2317 H   0  0  0  0  0  0  0  0  0  0  0  0
   -7.8534   23.3474  -31.4915 H   0  0  0  0  0  0  0  0  0  0  0  0
   -5.7198   24.4861  -31.0088 H   0  0  0  0  0  0  0  0  0  0  0  0
   -4.7740   23.2730  -28.8700 H   0  0  0  0  0  0  0  0  0  0  0  0
   -4.3486   24.1418  -26.7221 H   0  0  0  0  0  0  0  0  0  0  0  0
   -0.5911   28.2866  -27.4118 H   0  0  0  0  0  0  0  0  0  0  0  0
  1  2  1  0
  2  3  1  0
  3  4  2  0
  4  5  1  0
  5  6  2  0
  6  7  1  0
  6  8  1  0
  8  9  1  0
  9 10  2  0
 10 11  1  0
 11 12  1  0
 12 13  2  0
 13 14  1  0
 14 15  2  0
 15 16  1  0
 16 17  2  0
 17 18  1  0
 18 19  1  0
 18 20  2  0
 18 21  2  0
 17 22  1  0
 22 23  2  0
 12 24  1  0
 24 25  1  0
 25 26  2  0
 26 27  1  0
 27 28  1  0
 27 29  1  0
 27 30  1  0
  8 31  2  0
 31  3  1  0
 26 10  1  0
 23 14  1  0
  1 32  1  0
  1 33  1  0
  1 34  1  0
  4 35  1  0
  5 36  1  0
 11 37  1  0
 15 38  1  0
 16 39  1  0
 19 40  1  0
 19 41  1  0
 19 42  1  0
 22 43  1  0
 23 44  1  0
 24 45  1  0
 25 46  1  0
 31 47  1  0
M  END
>  <smiles>  (50) 
COc1ccc(Cl)c(N=c2[nH]c(=Nc3ccc(S(C)(=O)=O)cc3)[nH]cc2C(F)(F)F)c1

>  <score_type>  (50) 
oracle

>  <origin>  (50) 
adgpu

>  <m_score__min__energy>  (50) 
-9.3200000000000003

>  <m_primary>  (50) 
energy

$$$$
