0:0
     RDKit          3D

 50 53  0  0  0  0  0  0  0  0999 V2000
   -0.9235   22.5939  -27.2724 H   0  0  0  0  0  0  0  0  0  0  0  0
   -1.6150   23.1160  -27.9500 C   0  0  0  0  0  0  0  0  0  0  0  0
   -2.8800   22.5870  -28.2230 C   0  0  0  0  0  0  0  0  0  0  0  0
   -3.3060   21.2870  -27.6180 C   0  0  0  0  0  0  0  0  0  0  0  0
   -3.2798   21.3669  -26.5212 H   0  0  0  0  0  0  0  0  0  0  0  0
   -4.3292   21.0487  -27.9439 H   0  0  0  0  0  0  0  0  0  0  0  0
   -2.6222   20.4894  -27.9439 H   0  0  0  0  0  0  0  0  0  0  0  0
   -3.7160   23.2470  -29.0670 N   0  0  0  0  0  0  0  0  0  0  0  0
   -3.3500   24.4240  -29.6440 C   0  0  0  0  0  0  0  0  0  0  0  0
   -4.1530   25.0550  -30.4470 N   0  0  0  0  0  0  0  0  0  0  0  0
   -5.4920   24.5960  -30.8180 C   0  0  0  0  0  0  0  0  0  0  0  0
   -6.0898   24.4492  -29.9064 H   0  0  0  0  0  0  0  0  0  0  0  0
   -5.9621   25.3539  -31.4619 H   0  0  0  0  0  0  0  0  0  0  0  0
   -5.4140   23.3040  -31.5690 C   0  0  0  0  0  0  0  0  0  0  0  0
   -4.5440   23.0460  -32.5160 O   0  0  0  0  0  0  0  0  0  0  0  0
   -4.7260   21.8530  -33.0030 N   0  0  0  0  0  0  0  0  0  0  0  0
   -5.7680   21.3070  -32.3410 C   0  0  0  0  0  0  0  0  0  0  0  0
   -6.2910   19.9460  -32.6110 C   0  0  0  0  0  0  0  0  0  0  0  0
   -5.6400   19.0750  -33.5080 C   0  0  0  0  0  0  0  0  0  0  0  0
   -4.7243   19.4040  -34.0211 H   0  0  0  0  0  0  0  0  0  0  0  0
   -6.1500   17.7960  -33.7500 C   0  0  0  0  0  0  0  0  0  0  0  0
   -5.6352   17.1237  -34.4521 H   0  0  0  0  0  0  0  0  0  0  0  0
   -7.3120   17.3700  -33.1020 C   0  0  0  0  0  0  0  0  0  0  0  0
   -7.7109   16.3630  -33.2939 H   0  0  0  0  0  0  0  0  0  0  0  0
   -7.9670   18.2220  -32.2110 C   0  0  0  0  0  0  0  0  0  0  0  0
   -8.8817   17.8855  -31.7011 H   0  0  0  0  0  0  0  0  0  0  0  0
   -7.4620   19.5020  -31.9660 C   0  0  0  0  0  0  0  0  0  0  0  0
   -7.9835   20.1685  -31.2633 H   0  0  0  0  0  0  0  0  0  0  0  0
   -6.2400   22.2140  -31.4070 C   0  0  0  0  0  0  0  0  0  0  0  0
   -7.0763   22.0926  -30.7028 H   0  0  0  0  0  0  0  0  0  0  0  0
   -2.1250   24.9500  -29.3780 N   0  0  0  0  0  0  0  0  0  0  0  0
   -1.2460   24.3200  -28.5540 C   0  0  0  0  0  0  0  0  0  0  0  0
    0.0400   24.8860  -28.2480 N   0  0  0  0  0  0  0  0  0  0  0  0
    0.3600   25.6970  -27.2800 C   0  0  0  0  0  0  0  0  0  0  0  0
   -0.4740   26.2690  -26.3320 C   0  0  0  0  0  0  0  0  0  0  0  0
   -1.5592   26.1364  -26.2103 H   0  0  0  0  0  0  0  0  0  0  0  0
    0.3850   27.0470  -25.5750 C   0  0  0  0  0  0  0  0  0  0  0  0
   -0.0110   27.9040  -24.4030 C   0  0  0  0  0  0  0  0  0  0  0  0
    0.8979   28.3222  -23.9458 H   0  0  0  0  0  0  0  0  0  0  0  0
   -0.8900   29.0680  -24.8680 C   0  0  0  0  0  0  0  0  0  0  0  0
   -1.2904   29.5982  -23.9913 H   0  0  0  0  0  0  0  0  0  0  0  0
   -0.2889   29.7623  -25.4734 H   0  0  0  0  0  0  0  0  0  0  0  0
   -1.7224   28.6798  -25.4734 H   0  0  0  0  0  0  0  0  0  0  0  0
   -0.7330   27.0600  -23.3470 C   0  0  0  0  0  0  0  0  0  0  0  0
   -0.4412   27.4011  -22.3428 H   0  0  0  0  0  0  0  0  0  0  0  0
   -1.8205   27.1704  -23.4702 H   0  0  0  0  0  0  0  0  0  0  0  0
   -0.4555   26.0027  -23.4702 H   0  0  0  0  0  0  0  0  0  0  0  0
    1.6450   26.9460  -26.0470 N   0  0  0  0  0  0  0  0  0  0  0  0
    1.6190   26.1250  -27.0840 N   0  0  0  0  0  0  0  0  0  0  0  0
    2.4580   25.8670  -27.6480 H   0  0  0  0  0  0  0  0  0  0  0  0
  1  2  1  0
  2  3  1  0
  3  4  1  0
  4  5  1  0
  4  6  1  0
  4  7  1  0
  3  8  2  0
  8  9  1  0
  9 10  2  0
 10 11  1  0
 11 12  1  0
 11 13  1  0
 11 14  1  0
 14 15  1  0
 15 16  1  0
 16 17  2  0
 17 18  1  0
 18 19  2  0
 19 20  1  0
 19 21  1  0
 21 22  1  0
 21 23  2  0
 23 24  1  0
 23 25  1  0
 25 26  1  0
 25 27  2  0
 27 28  1  0
 17 29  1  0
 29 30  1  0
  9 31  1  0
 31 32  1  0
 32 33  1  0
 33 34  2  0
 34 35  1  0
 35 36  1  0
 35 37  2  0
 37 38  1  0
 38 39  1  0
 38 40  1  0
 40 41  1  0
 40 42  1  0
 40 43  1  0
 38 44  1  0
 44 45  1  0
 44 46  1  0
 44 47  1  0
 37 48  1  0
 48 49  1  0
 49 50  1  0
 32  2  2  0
 49 34  1  0
 29 14  2  0
 27 18  1  0
M  CHG  2  31  -1  48  -1
M  END
>  <UniqueID>  (1) 
1

>  <SMILES>  (1) 
Cc1cc(/N=c2\cc(C(C)C)[n-][nH]2)[n-]/c(=N/Cc2cc(-c3ccccc3)no2)n1

>  <Energy>  (1) 
113.65309886385322

>  <Genealogy>  (1) 
Cc1cc(N=c2cc(C(C)C)[n-][nH]2)[n-]c(=NCc2cc(-c3ccccc3)no2)n1 (protonated)
Cc1cc(/N=c2\cc(C(C)C)[n-][nH]2)[n-]/c(=N/Cc2cc(-c3ccccc3)no2)n1 (cis-trans isomerization)
Cc1cc(/N=c2\cc(C(C)C)[n-][nH]2)[n-]/c(=N/Cc2cc(-c3ccccc3)no2)n1 (3D coordinates assigned)
Cc1cc(/N=c2\cc(C(C)C)[n-][nH]2)[n-]/c(=N/Cc2cc(-c3ccccc3)no2)n1 (optimized conformer: 113.65309886385322 kcal/mol)

>  <smiles>  (1) 
Cc1cc(N=c2cc(C(C)C)[nH][nH]2)[nH]c(=NCc2cc(-c3ccccc3)no2)n1

>  <score_type>  (1) 
oracle

>  <origin>  (1) 
adgpu

>  <m_score__min__energy>  (1) 
-11.210000000000001

>  <m_primary>  (1) 
energy

$$$$
1:0
     RDKit          3D

 48 50  0  0  0  0  0  0  0  0999 V2000
   -0.2600   20.4760  -32.1200 C   0  0  0  0  0  0  0  0  0  0  0  0
    0.1600   20.4730  -30.7600 O   0  0  0  0  0  0  0  0  0  0  0  0
   -0.6450   20.8580  -29.6750 C   0  0  0  0  0  0  0  0  0  0  0  0
   -1.2090   22.1420  -29.5900 C   0  0  0  0  0  0  0  0  0  0  0  0
   -1.9750   22.5120  -28.4780 C   0  0  0  0  0  0  0  0  0  0  0  0
   -2.5850   23.8080  -28.3760 N   0  0  0  0  0  0  0  0  0  0  0  0
   -2.5020   24.8720  -29.3350 C   0  0  0  0  0  0  0  0  0  0  0  0
   -1.5250   25.6630  -29.2850 O   0  0  0  0  0  0  0  0  0  0  0  0
   -3.4970   25.0610  -30.3490 N   0  0  0  0  0  0  0  0  0  0  0  0
   -4.7490   24.3670  -30.4340 C   0  0  0  0  0  0  0  0  0  0  0  0
   -4.7490   23.0080  -30.7680 C   0  0  0  0  0  0  0  0  0  0  0  0
   -5.9530   22.3040  -30.8550 C   0  0  0  0  0  0  0  0  0  0  0  0
   -7.1710   22.9460  -30.6020 C   0  0  0  0  0  0  0  0  0  0  0  0
   -8.3850   22.1850  -30.6720 N   0  0  0  0  0  0  0  0  0  0  0  0
   -8.7940   21.3440  -31.7580 C   0  0  0  0  0  0  0  0  0  0  0  0
   -9.8550   21.6250  -32.3760 O   0  0  0  0  0  0  0  0  0  0  0  0
   -8.0440   20.1330  -32.1360 C   0  0  0  0  0  0  0  0  0  0  0  0
   -8.2360   18.8470  -31.6420 C   0  0  0  0  0  0  0  0  0  0  0  0
   -7.3900   17.8990  -32.2290 C   0  0  0  0  0  0  0  0  0  0  0  0
   -6.5360   18.4270  -33.1880 C   0  0  0  0  0  0  0  0  0  0  0  0
   -6.8400   20.0750  -33.3100 S   0  0  0  0  0  0  0  0  0  0  0  0
   -7.1670   24.2990  -30.2190 C   0  0  0  0  0  0  0  0  0  0  0  0
   -5.9650   25.0060  -30.1410 C   0  0  0  0  0  0  0  0  0  0  0  0
   -2.2100   21.5800  -27.4670 C   0  0  0  0  0  0  0  0  0  0  0  0
   -1.6760   20.2780  -27.5390 C   0  0  0  0  0  0  0  0  0  0  0  0
   -1.9060   19.3470  -26.5130 O   0  0  0  0  0  0  0  0  0  0  0  0
   -3.1900   18.9160  -26.0750 C   0  0  0  0  0  0  0  0  0  0  0  0
   -0.8890   19.9150  -28.6620 C   0  0  0  0  0  0  0  0  0  0  0  0
   -0.3250   18.6360  -28.8390 O   0  0  0  0  0  0  0  0  0  0  0  0
    0.4410   17.9090  -27.8860 C   0  0  0  0  0  0  0  0  0  0  0  0
   -1.3591   20.4839  -32.1643 H   0  0  0  0  0  0  0  0  0  0  0  0
    0.1337   21.3714  -32.6234 H   0  0  0  0  0  0  0  0  0  0  0  0
    0.1208   19.5751  -32.6234 H   0  0  0  0  0  0  0  0  0  0  0  0
   -1.0473   22.8632  -30.4046 H   0  0  0  0  0  0  0  0  0  0  0  0
   -3.7974   22.4918  -30.9628 H   0  0  0  0  0  0  0  0  0  0  0  0
   -5.9436   21.2375  -31.1243 H   0  0  0  0  0  0  0  0  0  0  0  0
   -8.9778   18.6000  -30.8682 H   0  0  0  0  0  0  0  0  0  0  0  0
   -7.4007   16.8336  -31.9557 H   0  0  0  0  0  0  0  0  0  0  0  0
   -5.7896   17.8639  -33.7675 H   0  0  0  0  0  0  0  0  0  0  0  0
   -8.1150   24.8030  -29.9797 H   0  0  0  0  0  0  0  0  0  0  0  0
   -5.9707   26.0666  -29.8492 H   0  0  0  0  0  0  0  0  0  0  0  0
   -2.8223   21.8662  -26.5992 H   0  0  0  0  0  0  0  0  0  0  0  0
   -3.2182   18.9065  -24.9754 H   0  0  0  0  0  0  0  0  0  0  0  0
   -3.9578   19.6057  -26.4556 H   0  0  0  0  0  0  0  0  0  0  0  0
   -3.3862   17.9027  -26.4556 H   0  0  0  0  0  0  0  0  0  0  0  0
    0.1345   18.1999  -26.8704 H   0  0  0  0  0  0  0  0  0  0  0  0
    0.2721   16.8310  -28.0253 H   0  0  0  0  0  0  0  0  0  0  0  0
    1.5087   18.1339  -28.0253 H   0  0  0  0  0  0  0  0  0  0  0  0
  1  2  1  0
  2  3  1  0
  3  4  2  0
  4  5  1  0
  5  6  1  0
  6  7  1  0
  7  8  2  0
  7  9  1  0
  9 10  1  0
 10 11  2  0
 11 12  1  0
 12 13  2  0
 13 14  1  0
 14 15  1  0
 15 16  2  0
 15 17  1  0
 17 18  2  0
 18 19  1  0
 19 20  2  0
 20 21  1  0
 13 22  1  0
 22 23  2  0
  5 24  2  0
 24 25  1  0
 25 26  1  0
 26 27  1  0
 25 28  2  0
 28 29  1  0
 29 30  1  0
 28  3  1  0
 23 10  1  0
 21 17  1  0
  1 31  1  0
  1 32  1  0
  1 33  1  0
  4 34  1  0
 11 35  1  0
 12 36  1  0
 18 37  1  0
 19 38  1  0
 20 39  1  0
 22 40  1  0
 23 41  1  0
 24 42  1  0
 27 43  1  0
 27 44  1  0
 27 45  1  0
 30 46  1  0
 30 47  1  0
 30 48  1  0
M  CHG  3   6  -1   9  -1  14  -1
M  END
>  <UniqueID>  (2) 
2

>  <SMILES>  (2) 
COc1cc([N-]C(=O)[N-]c2ccc([N-]C(=O)c3cccs3)cc2)cc(OC)c1OC

>  <Energy>  (2) 
86.41944335534056

>  <Genealogy>  (2) 
COc1cc([N-]C(=O)[N-]c2ccc([N-]C(=O)c3cccs3)cc2)cc(OC)c1OC (protonated)
COc1cc([N-]C(=O)[N-]c2ccc([N-]C(=O)c3cccs3)cc2)cc(OC)c1OC (3D coordinates assigned)
COc1cc([N-]C(=O)[N-]c2ccc([N-]C(=O)c3cccs3)cc2)cc(OC)c1OC (optimized conformer: 86.41944335534056 kcal/mol)

>  <smiles>  (2) 
COc1cc(NC(=O)Nc2ccc(NC(=O)c3cccs3)cc2)cc(OC)c1OC

>  <score_type>  (2) 
oracle

>  <origin>  (2) 
adgpu

>  <m_score__min__energy>  (2) 
-10.58

>  <m_primary>  (2) 
energy

$$$$
2:0
     RDKit          3D

 25 27  0  0  0  0  0  0  0  0999 V2000
   -3.8480   25.2950  -30.6070 O   0  0  0  0  0  0  0  0  0  0  0  0
   -4.8530   24.5550  -30.7710 C   0  0  0  0  0  0  0  0  0  0  0  0
   -6.0820   24.9030  -30.1990 C   0  0  0  0  0  0  0  0  0  0  0  0
   -7.1880   24.0710  -30.3880 C   0  0  0  0  0  0  0  0  0  0  0  0
   -7.0580   22.9000  -31.1460 C   0  0  0  0  0  0  0  0  0  0  0  0
   -8.1460   22.0410  -31.3510 C   0  0  0  0  0  0  0  0  0  0  0  0
   -7.9850   20.8790  -32.1110 C   0  0  0  0  0  0  0  0  0  0  0  0
   -6.7400   20.5660  -32.6810 C   0  0  0  0  0  0  0  0  0  0  0  0
   -6.5650   19.2970  -33.4660 C   0  0  0  0  0  0  0  0  0  0  0  0
   -6.2970   18.1550  -32.5410 C   0  0  0  0  0  0  0  0  0  0  0  0
   -5.7080   17.0010  -32.9110 N   0  0  0  0  0  0  0  0  0  0  0  0
   -5.6060   16.3010  -31.7920 N   0  0  0  0  0  0  0  0  0  0  0  0
   -6.1020   17.0080  -30.7920 N   0  0  0  0  0  0  0  0  0  0  0  0
   -6.5380   18.1800  -31.2160 N   0  0  0  0  0  0  0  0  0  0  0  0
   -5.6450   21.4210  -32.4650 C   0  0  0  0  0  0  0  0  0  0  0  0
   -5.8010   22.5850  -31.7060 C   0  0  0  0  0  0  0  0  0  0  0  0
   -4.7400   23.4150  -31.5040 N   0  0  0  0  0  0  0  0  0  0  0  0
   -6.1762   25.8243  -29.6054 H   0  0  0  0  0  0  0  0  0  0  0  0
   -8.1587   24.3346  -29.9427 H   0  0  0  0  0  0  0  0  0  0  0  0
   -9.1265   22.2811  -30.9140 H   0  0  0  0  0  0  0  0  0  0  0  0
   -8.8402   20.2043  -32.2639 H   0  0  0  0  0  0  0  0  0  0  0  0
   -7.4819   19.0940  -34.0388 H   0  0  0  0  0  0  0  0  0  0  0  0
   -5.7132   19.4124  -34.1524 H   0  0  0  0  0  0  0  0  0  0  0  0
   -6.1360   16.6870  -29.7990 H   0  0  0  0  0  0  0  0  0  0  0  0
   -4.6629   21.1736  -32.8942 H   0  0  0  0  0  0  0  0  0  0  0  0
  1  2  2  0
  2  3  1  0
  3  4  2  0
  4  5  1  0
  5  6  2  0
  6  7  1  0
  7  8  2  0
  8  9  1  0
  9 10  1  0
 10 11  1  0
 11 12  2  0
 12 13  1  0
 13 14  1  0
  8 15  1  0
 15 16  2  0
 16 17  1  0
 17  2  1  0
 16  5  1  0
 14 10  2  0
  3 18  1  0
  4 19  1  0
  6 20  1  0
  7 21  1  0
  9 22  1  0
  9 23  1  0
 13 24  1  0
 15 25  1  0
M  CHG  1  17  -1
M  END
>  <UniqueID>  (3) 
3

>  <SMILES>  (3) 
O=c1ccc2ccc(Cc3nn[nH]n3)cc2[n-]1

>  <Energy>  (3) 
67.3252494839404

>  <Genealogy>  (3) 
O=c1ccc2ccc(Cc3nn[nH]n3)cc2[n-]1 (protonated)
O=c1ccc2ccc(Cc3nn[nH]n3)cc2[n-]1 (3D coordinates assigned)
O=c1ccc2ccc(Cc3nn[nH]n3)cc2[n-]1 (optimized conformer: 67.3252494839404 kcal/mol)

>  <smiles>  (3) 
O=c1ccc2ccc(Cc3nn[nH]n3)cc2[nH]1

>  <score_type>  (3) 
oracle

>  <origin>  (3) 
adgpu

>  <m_score__min__energy>  (3) 
-8.9199999999999999

>  <m_primary>  (3) 
energy

$$$$
3:0
     RDKit          3D

 35 37  0  0  0  0  0  0  0  0999 V2000
   -8.8226   17.5587  -32.2646 H   0  0  0  0  0  0  0  0  0  0  0  0
   -8.3280   18.5400  -32.2150 C   0  0  0  0  0  0  0  0  0  0  0  0
   -6.9440   18.6340  -32.3870 C   0  0  0  0  0  0  0  0  0  0  0  0
   -6.3501   17.7272  -32.5742 H   0  0  0  0  0  0  0  0  0  0  0  0
   -6.3140   19.8820  -32.3210 C   0  0  0  0  0  0  0  0  0  0  0  0
   -5.2251   19.9538  -32.4593 H   0  0  0  0  0  0  0  0  0  0  0  0
   -7.0660   21.0430  -32.0790 C   0  0  0  0  0  0  0  0  0  0  0  0
   -6.3850   22.3850  -32.0350 C   0  0  0  0  0  0  0  0  0  0  0  0
   -7.0971   23.1413  -31.6732 H   0  0  0  0  0  0  0  0  0  0  0  0
   -6.0407   22.6442  -33.0471 H   0  0  0  0  0  0  0  0  0  0  0  0
   -5.2330   22.3410  -31.1390 N   0  0  0  0  0  0  0  0  0  0  0  0
   -4.5480   23.3850  -30.7780 C   0  0  0  0  0  0  0  0  0  0  0  0
   -4.8260   24.6490  -31.1420 N   0  0  0  0  0  0  0  0  0  0  0  0
   -3.9150   25.3970  -30.5370 N   0  0  0  0  0  0  0  0  0  0  0  0
   -3.8640   26.4350  -30.6250 H   0  0  0  0  0  0  0  0  0  0  0  0
   -3.0730   24.6770  -29.8060 N   0  0  0  0  0  0  0  0  0  0  0  0
   -3.4540   23.3910  -29.9380 C   0  0  0  0  0  0  0  0  0  0  0  0
   -2.7650   22.2340  -29.3160 C   0  0  0  0  0  0  0  0  0  0  0  0
   -2.9570   21.9800  -27.9440 C   0  0  0  0  0  0  0  0  0  0  0  0
   -3.5928   22.6526  -27.3497 H   0  0  0  0  0  0  0  0  0  0  0  0
   -2.3490   20.8840  -27.3310 C   0  0  0  0  0  0  0  0  0  0  0  0
   -2.5040   20.7000  -26.2576 H   0  0  0  0  0  0  0  0  0  0  0  0
   -1.5460   20.0220  -28.0750 C   0  0  0  0  0  0  0  0  0  0  0  0
   -1.0716   19.1566  -27.5891 H   0  0  0  0  0  0  0  0  0  0  0  0
   -1.3430   20.2550  -29.4350 C   0  0  0  0  0  0  0  0  0  0  0  0
   -0.7130   19.5665  -30.0172 H   0  0  0  0  0  0  0  0  0  0  0  0
   -1.9360   21.3620  -30.0700 C   0  0  0  0  0  0  0  0  0  0  0  0
   -1.6700   21.5840  -31.5360 C   0  0  0  0  0  0  0  0  0  0  0  0
   -0.8304   22.2847  -31.6543 H   0  0  0  0  0  0  0  0  0  0  0  0
   -1.4172   20.6251  -32.0121 H   0  0  0  0  0  0  0  0  0  0  0  0
   -2.5682   22.0042  -32.0121 H   0  0  0  0  0  0  0  0  0  0  0  0
   -8.4580   20.9410  -31.9130 C   0  0  0  0  0  0  0  0  0  0  0  0
   -9.0565   21.8456  -31.7300 H   0  0  0  0  0  0  0  0  0  0  0  0
   -9.0840   19.6920  -31.9800 C   0  0  0  0  0  0  0  0  0  0  0  0
  -10.1734   19.6161  -31.8475 H   0  0  0  0  0  0  0  0  0  0  0  0
  1  2  1  0
  2  3  2  0
  3  4  1  0
  3  5  1  0
  5  6  1  0
  5  7  2  0
  7  8  1  0
  8  9  1  0
  8 10  1  0
  8 11  1  0
 11 12  2  0
 12 13  1  0
 13 14  1  0
 14 15  1  0
 14 16  1  0
 16 17  2  0
 17 18  1  0
 18 19  2  0
 19 20  1  0
 19 21  1  0
 21 22  1  0
 21 23  2  0
 23 24  1  0
 23 25  1  0
 25 26  1  0
 25 27  2  0
 27 28  1  0
 28 29  1  0
 28 30  1  0
 28 31  1  0
  7 32  1  0
 32 33  1  0
 32 34  2  0
 34 35  1  0
 34  2  1  0
 17 12  1  0
 27 18  1  0
M  CHG  1  13  -1
M  END
>  <UniqueID>  (4) 
4

>  <SMILES>  (4) 
Cc1ccccc1-c1n[nH][n-]/c1=N\Cc1ccccc1

>  <Energy>  (4) 
77.19233306272908

>  <Genealogy>  (4) 
Cc1ccccc1-c1n[nH][n-]c1=NCc1ccccc1 (protonated)
Cc1ccccc1-c1n[nH][n-]/c1=N\Cc1ccccc1 (cis-trans isomerization)
Cc1ccccc1-c1n[nH][n-]/c1=N\Cc1ccccc1 (3D coordinates assigned)
Cc1ccccc1-c1n[nH][n-]/c1=N\Cc1ccccc1 (optimized conformer: 77.19233306272908 kcal/mol)

>  <smiles>  (4) 
Cc1ccccc1-c1n[nH][nH]c1=NCc1ccccc1

>  <score_type>  (4) 
oracle

>  <origin>  (4) 
adgpu

>  <m_score__min__energy>  (4) 
-9.4900000000000002

>  <m_primary>  (4) 
energy

$$$$
4:0
     RDKit          3D

 33 34  0  0  0  0  0  0  0  0999 V2000
   -9.8640   21.6160  -30.8450 C   0  0  0  0  0  0  0  0  0  0  0  0
   -8.9570   22.5770  -31.4630 N   0  0  0  0  0  0  0  0  0  0  0  0
   -7.5270   22.3910  -31.5290 C   0  0  0  0  0  0  0  0  0  0  0  0
   -6.6520   23.2980  -30.8960 C   0  0  0  0  0  0  0  0  0  0  0  0
   -5.2650   23.1100  -30.9420 C   0  0  0  0  0  0  0  0  0  0  0  0
   -4.1950   24.2530  -30.1350 S   0  0  0  0  0  0  0  0  0  0  0  0
   -4.7140   24.4870  -28.5020 N   0  0  0  0  0  0  0  0  0  0  0  0
   -4.2260   25.5740  -30.8500 O   0  0  0  0  0  0  0  0  0  0  0  0
   -2.7930   23.7130  -30.1440 O   0  0  0  0  0  0  0  0  0  0  0  0
   -4.7380   22.0010  -31.6090 C   0  0  0  0  0  0  0  0  0  0  0  0
   -5.5880   21.0960  -32.2440 C   0  0  0  0  0  0  0  0  0  0  0  0
   -6.9750   21.2850  -32.2210 C   0  0  0  0  0  0  0  0  0  0  0  0
   -8.0040   20.1020  -33.1050 S   0  0  0  0  0  0  0  0  0  0  0  0
   -6.7200   18.8490  -33.1190 C   0  0  0  0  0  0  0  0  0  0  0  0
   -5.8700   18.7220  -34.2260 C   0  0  0  0  0  0  0  0  0  0  0  0
   -4.8650   17.7500  -34.2300 C   0  0  0  0  0  0  0  0  0  0  0  0
   -4.7090   16.8990  -33.1300 C   0  0  0  0  0  0  0  0  0  0  0  0
   -3.4470   15.6800  -33.1360 Cl  0  0  0  0  0  0  0  0  0  0  0  0
   -5.5610   17.0190  -32.0270 C   0  0  0  0  0  0  0  0  0  0  0  0
   -6.5660   17.9920  -32.0220 C   0  0  0  0  0  0  0  0  0  0  0  0
   -9.7904   21.6940  -29.7502 H   0  0  0  0  0  0  0  0  0  0  0  0
  -10.8959   21.8312  -31.1594 H   0  0  0  0  0  0  0  0  0  0  0  0
   -9.5896   20.5982  -31.1594 H   0  0  0  0  0  0  0  0  0  0  0  0
   -9.3880   23.4450  -31.8490 H   0  0  0  0  0  0  0  0  0  0  0  0
   -7.0645   24.1648  -30.3589 H   0  0  0  0  0  0  0  0  0  0  0  0
   -5.7190   24.2040  -28.4580 H   0  0  0  0  0  0  0  0  0  0  0  0
   -4.6810   25.5150  -28.3160 H   0  0  0  0  0  0  0  0  0  0  0  0
   -3.6499   21.8414  -31.6333 H   0  0  0  0  0  0  0  0  0  0  0  0
   -5.1650   20.2260  -32.7676 H   0  0  0  0  0  0  0  0  0  0  0  0
   -5.9937   19.3879  -35.0928 H   0  0  0  0  0  0  0  0  0  0  0  0
   -4.1965   17.6541  -35.0983 H   0  0  0  0  0  0  0  0  0  0  0  0
   -5.4407   16.3482  -31.1636 H   0  0  0  0  0  0  0  0  0  0  0  0
   -7.2366   18.0842  -31.1549 H   0  0  0  0  0  0  0  0  0  0  0  0
  1  2  1  0
  2  3  1  0
  3  4  2  0
  4  5  1  0
  5  6  1  0
  6  7  1  0
  6  8  2  0
  6  9  2  0
  5 10  2  0
 10 11  1  0
 11 12  2  0
 12 13  1  0
 13 14  1  0
 14 15  2  0
 15 16  1  0
 16 17  2  0
 17 18  1  0
 17 19  1  0
 19 20  2  0
 12  3  1  0
 20 14  1  0
  1 21  1  0
  1 22  1  0
  1 23  1  0
  2 24  1  0
  4 25  1  0
  7 26  1  0
  7 27  1  0
 10 28  1  0
 11 29  1  0
 15 30  1  0
 16 31  1  0
 19 32  1  0
 20 33  1  0
M  END
>  <UniqueID>  (5) 
5

>  <SMILES>  (5) 
CNc1cc(S(N)(=O)=O)ccc1Sc1ccc(Cl)cc1

>  <Energy>  (5) 
27.42900136470008

>  <Genealogy>  (5) 
CNc1cc(S(N)(=O)=O)ccc1Sc1ccc(Cl)cc1 (3D coordinates assigned)
CNc1cc(S(N)(=O)=O)ccc1Sc1ccc(Cl)cc1 (optimized conformer: 27.42900136470008 kcal/mol)

>  <smiles>  (5) 
CNc1cc(S(N)(=O)=O)ccc1Sc1ccc(Cl)cc1

>  <score_type>  (5) 
oracle

>  <origin>  (5) 
adgpu

>  <m_score__min__energy>  (5) 
-8.7300000000000004

>  <m_primary>  (5) 
energy

$$$$
5:0
     RDKit          3D

 49 52  0  0  0  0  0  0  0  0999 V2000
   -2.1560   24.8050  -27.7940 C   0  0  0  0  0  0  0  0  0  0  0  0
   -2.3410   24.8160  -29.2060 O   0  0  0  0  0  0  0  0  0  0  0  0
   -2.9400   23.7770  -29.9380 C   0  0  0  0  0  0  0  0  0  0  0  0
   -2.4910   22.4450  -29.8470 C   0  0  0  0  0  0  0  0  0  0  0  0
   -3.1150   21.4380  -30.5850 C   0  0  0  0  0  0  0  0  0  0  0  0
   -4.1870   21.7460  -31.4330 C   0  0  0  0  0  0  0  0  0  0  0  0
   -4.8700   20.6710  -32.1940 C   0  0  0  0  0  0  0  0  0  0  0  0
   -4.1230   19.7680  -32.9940 C   0  0  0  0  0  0  0  0  0  0  0  0
   -2.6580   19.8870  -33.1770 C   0  0  0  0  0  0  0  0  0  0  0  0
   -1.8730   19.1940  -32.4750 O   0  0  0  0  0  0  0  0  0  0  0  0
   -2.1280   20.8380  -34.1130 N   0  0  0  0  0  0  0  0  0  0  0  0
   -0.8020   20.7590  -34.6640 C   0  0  0  0  0  0  0  0  0  0  0  0
   -0.2180   19.5010  -34.8780 C   0  0  0  0  0  0  0  0  0  0  0  0
    1.0800   19.4000  -35.3890 C   0  0  0  0  0  0  0  0  0  0  0  0
    1.8110   20.5560  -35.6750 C   0  0  0  0  0  0  0  0  0  0  0  0
    3.0710   20.4540  -36.1680 F   0  0  0  0  0  0  0  0  0  0  0  0
    1.2480   21.8150  -35.4440 C   0  0  0  0  0  0  0  0  0  0  0  0
    1.9640   22.9370  -35.7030 F   0  0  0  0  0  0  0  0  0  0  0  0
   -0.0500   21.9190  -34.9350 C   0  0  0  0  0  0  0  0  0  0  0  0
   -4.7390   18.7690  -33.6170 O   0  0  0  0  0  0  0  0  0  0  0  0
   -6.0460   18.5580  -33.5570 C   0  0  0  0  0  0  0  0  0  0  0  0
   -6.5360   17.5840  -34.1900 O   0  0  0  0  0  0  0  0  0  0  0  0
   -6.8680   19.4070  -32.7980 C   0  0  0  0  0  0  0  0  0  0  0  0
   -8.2580   19.2020  -32.7140 C   0  0  0  0  0  0  0  0  0  0  0  0
   -9.0480   20.0430  -31.9310 C   0  0  0  0  0  0  0  0  0  0  0  0
   -8.4640   21.0900  -31.2200 C   0  0  0  0  0  0  0  0  0  0  0  0
   -7.0860   21.3080  -31.2940 C   0  0  0  0  0  0  0  0  0  0  0  0
   -6.2680   20.4800  -32.0940 C   0  0  0  0  0  0  0  0  0  0  0  0
   -4.6360   23.0700  -31.5290 C   0  0  0  0  0  0  0  0  0  0  0  0
   -4.0200   24.0900  -30.7780 C   0  0  0  0  0  0  0  0  0  0  0  0
   -4.4550   25.4230  -30.8370 O   0  0  0  0  0  0  0  0  0  0  0  0
   -5.7260   25.8780  -30.3840 C   0  0  0  0  0  0  0  0  0  0  0  0
   -3.1348   24.8632  -27.2955 H   0  0  0  0  0  0  0  0  0  0  0  0
   -1.6484   23.8751  -27.4979 H   0  0  0  0  0  0  0  0  0  0  0  0
   -1.5418   25.6682  -27.4979 H   0  0  0  0  0  0  0  0  0  0  0  0
   -1.6438   22.1970  -29.1906 H   0  0  0  0  0  0  0  0  0  0  0  0
   -2.7640   20.3989  -30.5006 H   0  0  0  0  0  0  0  0  0  0  0  0
   -2.7270   21.6480  -34.3940 H   0  0  0  0  0  0  0  0  0  0  0  0
   -0.7849   18.5883  -34.6423 H   0  0  0  0  0  0  0  0  0  0  0  0
    1.5257   18.4100  -35.5659 H   0  0  0  0  0  0  0  0  0  0  0  0
   -0.4860   22.9109  -34.7453 H   0  0  0  0  0  0  0  0  0  0  0  0
   -8.7235   18.3741  -33.2689 H   0  0  0  0  0  0  0  0  0  0  0  0
  -10.1343   19.8798  -31.8743 H   0  0  0  0  0  0  0  0  0  0  0  0
   -9.0902   21.7469  -30.5985 H   0  0  0  0  0  0  0  0  0  0  0  0
   -6.6337   22.1326  -30.7236 H   0  0  0  0  0  0  0  0  0  0  0  0
   -5.4759   23.3145  -32.1959 H   0  0  0  0  0  0  0  0  0  0  0  0
   -5.7427   25.8840  -29.2841 H   0  0  0  0  0  0  0  0  0  0  0  0
   -5.9059   26.8964  -30.7590 H   0  0  0  0  0  0  0  0  0  0  0  0
   -6.5113   25.2052  -30.7590 H   0  0  0  0  0  0  0  0  0  0  0  0
  1  2  1  0
  2  3  1  0
  3  4  2  0
  4  5  1  0
  5  6  2  0
  6  7  1  0
  7  8  2  0
  8  9  1  0
  9 10  2  0
  9 11  1  0
 11 12  1  0
 12 13  2  0
 13 14  1  0
 14 15  2  0
 15 16  1  0
 15 17  1  0
 17 18  1  0
 17 19  2  0
  8 20  1  0
 20 21  1  0
 21 22  2  0
 21 23  1  0
 23 24  2  0
 24 25  1  0
 25 26  2  0
 26 27  1  0
 27 28  2  0
  6 29  1  0
 29 30  2  0
 30 31  1  0
 31 32  1  0
 30  3  1  0
 28  7  1  0
 19 12  1  0
 28 23  1  0
  1 33  1  0
  1 34  1  0
  1 35  1  0
  4 36  1  0
  5 37  1  0
 11 38  1  0
 13 39  1  0
 14 40  1  0
 19 41  1  0
 24 42  1  0
 25 43  1  0
 26 44  1  0
 27 45  1  0
 29 46  1  0
 32 47  1  0
 32 48  1  0
 32 49  1  0
M  END
>  <UniqueID>  (6) 
6

>  <SMILES>  (6) 
COc1ccc(-c2c(C(=O)Nc3ccc(F)c(F)c3)oc(=O)c3ccccc23)cc1OC

>  <Energy>  (6) 
73.96281595158368

>  <Genealogy>  (6) 
COc1ccc(-c2c(C(=O)Nc3ccc(F)c(F)c3)oc(=O)c3ccccc23)cc1OC (3D coordinates assigned)
COc1ccc(-c2c(C(=O)Nc3ccc(F)c(F)c3)oc(=O)c3ccccc23)cc1OC (optimized conformer: 73.96281595158368 kcal/mol)

>  <smiles>  (6) 
COc1ccc(-c2c(C(=O)Nc3ccc(F)c(F)c3)oc(=O)c3ccccc23)cc1OC

>  <score_type>  (6) 
oracle

>  <origin>  (6) 
adgpu

>  <m_score__min__energy>  (6) 
-10.33

>  <m_primary>  (6) 
energy

$$$$
6:0
     RDKit          3D

 42 44  0  0  0  0  0  0  0  0999 V2000
   -5.0257   19.7896  -33.4833 H   0  0  0  0  0  0  0  0  0  0  0  0
   -5.5800   20.5690  -32.9400 C   0  0  0  0  0  0  0  0  0  0  0  0
   -6.9590   20.4460  -32.7600 C   0  0  0  0  0  0  0  0  0  0  0  0
   -7.4917   19.5756  -33.1706 H   0  0  0  0  0  0  0  0  0  0  0  0
   -7.6630   21.4290  -32.0580 C   0  0  0  0  0  0  0  0  0  0  0  0
   -9.3900   21.2580  -31.8040 Cl  0  0  0  0  0  0  0  0  0  0  0  0
   -6.9870   22.5430  -31.5460 C   0  0  0  0  0  0  0  0  0  0  0  0
   -7.5397   23.3069  -30.9794 H   0  0  0  0  0  0  0  0  0  0  0  0
   -5.6010   22.6890  -31.7540 C   0  0  0  0  0  0  0  0  0  0  0  0
   -4.8630   23.8050  -31.2260 N   0  0  0  0  0  0  0  0  0  0  0  0
   -3.8170   23.7510  -30.4540 C   0  0  0  0  0  0  0  0  0  0  0  0
   -3.2100   24.9040  -30.0770 N   0  0  0  0  0  0  0  0  0  0  0  0
   -2.1350   24.8750  -29.2500 C   0  0  0  0  0  0  0  0  0  0  0  0
   -1.5220   26.0750  -28.8790 O   0  0  0  0  0  0  0  0  0  0  0  0
   -0.8740   26.2510  -27.6250 C   0  0  0  0  0  0  0  0  0  0  0  0
   -1.5893   26.0567  -26.8122 H   0  0  0  0  0  0  0  0  0  0  0  0
   -0.0304   25.5494  -27.5465 H   0  0  0  0  0  0  0  0  0  0  0  0
   -0.5012   27.2829  -27.5465 H   0  0  0  0  0  0  0  0  0  0  0  0
   -1.6680   23.6840  -28.7910 N   0  0  0  0  0  0  0  0  0  0  0  0
   -2.2730   22.5220  -29.1550 C   0  0  0  0  0  0  0  0  0  0  0  0
   -1.7640   21.2200  -28.6550 C   0  0  0  0  0  0  0  0  0  0  0  0
   -0.6820   20.5850  -29.2860 C   0  0  0  0  0  0  0  0  0  0  0  0
   -0.2090   21.0551  -30.1608 H   0  0  0  0  0  0  0  0  0  0  0  0
   -0.2010   19.3620  -28.8130 C   0  0  0  0  0  0  0  0  0  0  0  0
    0.6482   18.8773  -29.3168 H   0  0  0  0  0  0  0  0  0  0  0  0
   -0.7950   18.7460  -27.6970 C   0  0  0  0  0  0  0  0  0  0  0  0
   -0.3390   17.5170  -27.1940 O   0  0  0  0  0  0  0  0  0  0  0  0
    0.7760   16.7970  -27.7120 C   0  0  0  0  0  0  0  0  0  0  0  0
    1.3797   16.4072  -26.8792 H   0  0  0  0  0  0  0  0  0  0  0  0
    0.4174   15.9595  -28.3284 H   0  0  0  0  0  0  0  0  0  0  0  0
    1.3918   17.4685  -28.3284 H   0  0  0  0  0  0  0  0  0  0  0  0
   -1.8790   19.3660  -27.0590 C   0  0  0  0  0  0  0  0  0  0  0  0
   -2.4540   18.7250  -25.9500 O   0  0  0  0  0  0  0  0  0  0  0  0
   -3.8540   18.5510  -25.7530 C   0  0  0  0  0  0  0  0  0  0  0  0
   -4.0720   18.5239  -24.6752 H   0  0  0  0  0  0  0  0  0  0  0  0
   -4.3963   19.3887  -26.2159 H   0  0  0  0  0  0  0  0  0  0  0  0
   -4.1748   17.6061  -26.2159 H   0  0  0  0  0  0  0  0  0  0  0  0
   -2.3580   20.6010  -27.5390 C   0  0  0  0  0  0  0  0  0  0  0  0
   -3.2065   21.0874  -27.0355 H   0  0  0  0  0  0  0  0  0  0  0  0
   -3.3490   22.5650  -29.9810 N   0  0  0  0  0  0  0  0  0  0  0  0
   -4.9020   21.6810  -32.4310 C   0  0  0  0  0  0  0  0  0  0  0  0
   -3.8132   21.7649  -32.5629 H   0  0  0  0  0  0  0  0  0  0  0  0
  1  2  1  0
  2  3  2  0
  3  4  1  0
  3  5  1  0
  5  6  1  0
  5  7  2  0
  7  8  1  0
  7  9  1  0
  9 10  1  0
 10 11  2  0
 11 12  1  0
 12 13  2  0
 13 14  1  0
 14 15  1  0
 15 16  1  0
 15 17  1  0
 15 18  1  0
 13 19  1  0
 19 20  2  0
 20 21  1  0
 21 22  2  0
 22 23  1  0
 22 24  1  0
 24 25  1  0
 24 26  2  0
 26 27  1  0
 27 28  1  0
 28 29  1  0
 28 30  1  0
 28 31  1  0
 26 32  1  0
 32 33  1  0
 33 34  1  0
 34 35  1  0
 34 36  1  0
 34 37  1  0
 32 38  2  0
 38 39  1  0
 20 40  1  0
  9 41  2  0
 41 42  1  0
 41  2  1  0
 40 11  1  0
 38 21  1  0
M  CHG  1  40  -1
M  END
>  <UniqueID>  (7) 
7

>  <SMILES>  (7) 
COc1nc(-c2ccc(OC)c(OC)c2)[n-]/c(=N\c2cccc(Cl)c2)n1

>  <Energy>  (7) 
48.10454677445673

>  <Genealogy>  (7) 
COc1nc(-c2ccc(OC)c(OC)c2)[n-]c(=Nc2cccc(Cl)c2)n1 (protonated)
COc1nc(-c2ccc(OC)c(OC)c2)[n-]/c(=N\c2cccc(Cl)c2)n1 (cis-trans isomerization)
COc1nc(-c2ccc(OC)c(OC)c2)[n-]/c(=N\c2cccc(Cl)c2)n1 (3D coordinates assigned)
COc1nc(-c2ccc(OC)c(OC)c2)[n-]/c(=N\c2cccc(Cl)c2)n1 (optimized conformer: 48.10454677445673 kcal/mol)

>  <smiles>  (7) 
COc1nc(-c2ccc(OC)c(OC)c2)[nH]c(=Nc2cccc(Cl)c2)n1

>  <score_type>  (7) 
oracle

>  <origin>  (7) 
adgpu

>  <m_score__min__energy>  (7) 
-9.5600000000000005

>  <m_primary>  (7) 
energy

$$$$
7:0
     RDKit          3D

 42 44  0  0  0  0  0  0  0  0999 V2000
   -2.9680   17.0920  -34.5320 C   0  0  0  0  0  0  0  0  0  0  0  0
   -4.1510   17.8500  -34.7710 O   0  0  0  0  0  0  0  0  0  0  0  0
   -5.1460   18.1060  -33.8170 C   0  0  0  0  0  0  0  0  0  0  0  0
   -6.4910   17.7500  -34.0480 C   0  0  0  0  0  0  0  0  0  0  0  0
   -7.4580   17.9560  -33.0640 C   0  0  0  0  0  0  0  0  0  0  0  0
   -7.0990   18.5120  -31.8370 C   0  0  0  0  0  0  0  0  0  0  0  0
   -5.7740   18.8780  -31.5980 C   0  0  0  0  0  0  0  0  0  0  0  0
   -4.7960   18.7090  -32.5850 C   0  0  0  0  0  0  0  0  0  0  0  0
   -3.4640   19.1570  -32.2870 N   0  0  0  0  0  0  0  0  0  0  0  0
   -2.7740   20.6900  -32.7230 S   0  0  0  0  0  0  0  0  0  0  0  0
   -1.3820   20.7770  -32.1670 O   0  0  0  0  0  0  0  0  0  0  0  0
   -2.7130   20.7940  -34.2220 O   0  0  0  0  0  0  0  0  0  0  0  0
   -3.7270   22.0100  -32.0470 C   0  0  0  0  0  0  0  0  0  0  0  0
   -5.0970   22.1030  -32.3130 C   0  0  0  0  0  0  0  0  0  0  0  0
   -5.8600   23.1110  -31.7230 C   0  0  0  0  0  0  0  0  0  0  0  0
   -5.2620   24.0470  -30.8640 C   0  0  0  0  0  0  0  0  0  0  0  0
   -6.0980   25.1220  -30.2260 C   0  0  0  0  0  0  0  0  0  0  0  0
   -3.8730   23.9860  -30.6270 C   0  0  0  0  0  0  0  0  0  0  0  0
   -3.2670   24.9360  -29.7350 N   0  0  0  0  0  0  0  0  0  0  0  0
   -2.6910   24.6550  -28.4530 C   0  0  0  0  0  0  0  0  0  0  0  0
   -3.4200   24.3140  -27.4820 O   0  0  0  0  0  0  0  0  0  0  0  0
   -1.2350   24.7150  -28.2820 C   0  0  0  0  0  0  0  0  0  0  0  0
   -0.3090   23.7530  -28.6240 C   0  0  0  0  0  0  0  0  0  0  0  0
    0.9200   24.1960  -28.2940 N   0  0  0  0  0  0  0  0  0  0  0  0
    0.8060   25.4020  -27.7570 N   0  0  0  0  0  0  0  0  0  0  0  0
   -0.4970   25.7430  -27.7380 C   0  0  0  0  0  0  0  0  0  0  0  0
   -3.1180   22.9550  -31.2130 C   0  0  0  0  0  0  0  0  0  0  0  0
   -2.8101   16.9908  -33.4481 H   0  0  0  0  0  0  0  0  0  0  0  0
   -3.0750   16.0938  -34.9817 H   0  0  0  0  0  0  0  0  0  0  0  0
   -2.1059   17.6063  -34.9817 H   0  0  0  0  0  0  0  0  0  0  0  0
   -6.7799   17.3062  -35.0122 H   0  0  0  0  0  0  0  0  0  0  0  0
   -8.5051   17.6794  -33.2564 H   0  0  0  0  0  0  0  0  0  0  0  0
   -7.8603   18.6621  -31.0573 H   0  0  0  0  0  0  0  0  0  0  0  0
   -5.4949   19.3041  -30.6231 H   0  0  0  0  0  0  0  0  0  0  0  0
   -5.5744   21.3790  -32.9896 H   0  0  0  0  0  0  0  0  0  0  0  0
   -6.9381   23.1730  -31.9323 H   0  0  0  0  0  0  0  0  0  0  0  0
   -6.0317   25.0368  -29.1313 H   0  0  0  0  0  0  0  0  0  0  0  0
   -5.7279   26.1091  -30.5400 H   0  0  0  0  0  0  0  0  0  0  0  0
   -7.1459   25.0064  -30.5400 H   0  0  0  0  0  0  0  0  0  0  0  0
   -0.5361   22.7828  -29.0899 H   0  0  0  0  0  0  0  0  0  0  0  0
   -0.9052   26.6884  -27.3511 H   0  0  0  0  0  0  0  0  0  0  0  0
   -2.0381   22.8903  -31.0142 H   0  0  0  0  0  0  0  0  0  0  0  0
  1  2  1  0
  2  3  1  0
  3  4  2  0
  4  5  1  0
  5  6  2  0
  6  7  1  0
  7  8  2  0
  8  9  1  0
  9 10  1  0
 10 11  2  0
 10 12  2  0
 10 13  1  0
 13 14  2  0
 14 15  1  0
 15 16  2  0
 16 17  1  0
 16 18  1  0
 18 19  1  0
 19 20  1  0
 20 21  2  0
 20 22  1  0
 22 23  1  0
 23 24  2  0
 24 25  1  0
 25 26  1  0
 18 27  2  0
  8  3  1  0
 27 13  1  0
 26 22  2  0
  1 28  1  0
  1 29  1  0
  1 30  1  0
  4 31  1  0
  5 32  1  0
  6 33  1  0
  7 34  1  0
 14 35  1  0
 15 36  1  0
 17 37  1  0
 17 38  1  0
 17 39  1  0
 23 40  1  0
 26 41  1  0
 27 42  1  0
M  CHG  3   9  -1  19  -1  25  -1
M  END
>  <UniqueID>  (8) 
8

>  <SMILES>  (8) 
COc1ccccc1[N-]S(=O)(=O)c1ccc(C)c([N-]C(=O)c2cn[n-]c2)c1

>  <Energy>  (8) 
81.18943112850869

>  <Genealogy>  (8) 
COc1ccccc1[N-]S(=O)(=O)c1ccc(C)c([N-]C(=O)c2cn[n-]c2)c1 (protonated)
COc1ccccc1[N-]S(=O)(=O)c1ccc(C)c([N-]C(=O)c2cn[n-]c2)c1 (3D coordinates assigned)
COc1ccccc1[N-]S(=O)(=O)c1ccc(C)c([N-]C(=O)c2cn[n-]c2)c1 (optimized conformer: 81.18943112850869 kcal/mol)

>  <smiles>  (8) 
COc1ccccc1NS(=O)(=O)c1ccc(C)c(NC(=O)c2cn[nH]c2)c1

>  <score_type>  (8) 
oracle

>  <origin>  (8) 
adgpu

>  <m_score__min__energy>  (8) 
-10.92

>  <m_primary>  (8) 
energy

$$$$
8:0
     RDKit          3D

 40 42  0  0  0  0  0  0  0  0999 V2000
   -2.6300   19.2920  -33.1050 O   0  0  0  0  0  0  0  0  0  0  0  0
   -2.8280   20.5290  -33.2500 C   0  0  0  0  0  0  0  0  0  0  0  0
   -1.8230   21.3480  -33.8720 N   0  0  0  0  0  0  0  0  0  0  0  0
   -0.4500   20.9530  -34.0320 C   0  0  0  0  0  0  0  0  0  0  0  0
    0.2310   21.1400  -35.2500 C   0  0  0  0  0  0  0  0  0  0  0  0
    1.5590   20.7230  -35.3870 C   0  0  0  0  0  0  0  0  0  0  0  0
    2.2150   20.1060  -34.3170 C   0  0  0  0  0  0  0  0  0  0  0  0
    3.8800   19.5810  -34.4930 Cl  0  0  0  0  0  0  0  0  0  0  0  0
    1.5390   19.8970  -33.1120 C   0  0  0  0  0  0  0  0  0  0  0  0
    0.2100   20.3120  -32.9720 C   0  0  0  0  0  0  0  0  0  0  0  0
   -4.1040   21.1340  -32.7940 C   0  0  0  0  0  0  0  0  0  0  0  0
   -4.0620   22.3130  -32.0300 C   0  0  0  0  0  0  0  0  0  0  0  0
   -5.2400   22.9150  -31.5620 C   0  0  0  0  0  0  0  0  0  0  0  0
   -5.1410   24.3950  -30.5990 S   0  0  0  0  0  0  0  0  0  0  0  0
   -5.9390   25.4740  -31.2760 O   0  0  0  0  0  0  0  0  0  0  0  0
   -5.6920   24.1250  -29.2270 O   0  0  0  0  0  0  0  0  0  0  0  0
   -3.4900   24.9110  -30.4590 N   0  0  0  0  0  0  0  0  0  0  0  0
   -2.4970   24.2920  -29.6320 C   0  0  0  0  0  0  0  0  0  0  0  0
   -1.8770   23.0790  -29.9850 C   0  0  0  0  0  0  0  0  0  0  0  0
   -0.9130   22.5120  -29.1450 C   0  0  0  0  0  0  0  0  0  0  0  0
   -0.5620   23.1480  -27.9510 C   0  0  0  0  0  0  0  0  0  0  0  0
   -1.1730   24.3530  -27.5960 C   0  0  0  0  0  0  0  0  0  0  0  0
   -2.1370   24.9220  -28.4320 C   0  0  0  0  0  0  0  0  0  0  0  0
   -6.4810   22.3260  -31.8630 C   0  0  0  0  0  0  0  0  0  0  0  0
   -8.0020   23.0230  -31.3090 Cl  0  0  0  0  0  0  0  0  0  0  0  0
   -6.5310   21.1570  -32.6250 C   0  0  0  0  0  0  0  0  0  0  0  0
   -5.3580   20.5560  -33.0940 C   0  0  0  0  0  0  0  0  0  0  0  0
   -5.5220   19.1180  -34.0990 Cl  0  0  0  0  0  0  0  0  0  0  0  0
   -2.1300   22.2430  -34.3160 H   0  0  0  0  0  0  0  0  0  0  0  0
   -0.2836   21.6162  -36.0976 H   0  0  0  0  0  0  0  0  0  0  0  0
    2.0885   20.8806  -36.3382 H   0  0  0  0  0  0  0  0  0  0  0  0
    2.0523   19.4056  -32.2723 H   0  0  0  0  0  0  0  0  0  0  0  0
   -0.3209   20.1347  -32.0251 H   0  0  0  0  0  0  0  0  0  0  0  0
   -3.0900   22.7712  -31.7951 H   0  0  0  0  0  0  0  0  0  0  0  0
   -2.1512   22.5755  -30.9238 H   0  0  0  0  0  0  0  0  0  0  0  0
   -0.4303   21.5639  -29.4246 H   0  0  0  0  0  0  0  0  0  0  0  0
    0.1952   22.6998  -27.2909 H   0  0  0  0  0  0  0  0  0  0  0  0
   -0.8949   24.8544  -26.6573 H   0  0  0  0  0  0  0  0  0  0  0  0
   -2.6166   25.8701  -28.1471 H   0  0  0  0  0  0  0  0  0  0  0  0
   -7.5051   20.7029  -32.8595 H   0  0  0  0  0  0  0  0  0  0  0  0
  1  2  2  0
  2  3  1  0
  3  4  1  0
  4  5  2  0
  5  6  1  0
  6  7  2  0
  7  8  1  0
  7  9  1  0
  9 10  2  0
  2 11  1  0
 11 12  2  0
 12 13  1  0
 13 14  1  0
 14 15  2  0
 14 16  2  0
 14 17  1  0
 17 18  1  0
 18 19  2  0
 19 20  1  0
 20 21  2  0
 21 22  1  0
 22 23  2  0
 13 24  2  0
 24 25  1  0
 24 26  1  0
 26 27  2  0
 27 28  1  0
 10  4  1  0
 27 11  1  0
 23 18  1  0
  3 29  1  0
  5 30  1  0
  6 31  1  0
  9 32  1  0
 10 33  1  0
 12 34  1  0
 19 35  1  0
 20 36  1  0
 21 37  1  0
 22 38  1  0
 23 39  1  0
 26 40  1  0
M  CHG  1  17  -1
M  END
>  <UniqueID>  (9) 
9

>  <SMILES>  (9) 
O=C(Nc1ccc(Cl)cc1)c1cc(S(=O)(=O)[N-]c2ccccc2)c(Cl)cc1Cl

>  <Energy>  (9) 
56.962362171243996

>  <Genealogy>  (9) 
O=C(Nc1ccc(Cl)cc1)c1cc(S(=O)(=O)[N-]c2ccccc2)c(Cl)cc1Cl (protonated)
O=C(Nc1ccc(Cl)cc1)c1cc(S(=O)(=O)[N-]c2ccccc2)c(Cl)cc1Cl (3D coordinates assigned)
O=C(Nc1ccc(Cl)cc1)c1cc(S(=O)(=O)[N-]c2ccccc2)c(Cl)cc1Cl (optimized conformer: 56.962362171243996 kcal/mol)

>  <smiles>  (9) 
O=C(Nc1ccc(Cl)cc1)c1cc(S(=O)(=O)Nc2ccccc2)c(Cl)cc1Cl

>  <score_type>  (9) 
oracle

>  <origin>  (9) 
adgpu

>  <m_score__min__energy>  (9) 
-10.6

>  <m_primary>  (9) 
energy

$$$$
9:0
     RDKit          3D

 34 35  0  0  0  0  0  0  0  0999 V2000
   -4.9590   15.1160  -32.6610 C   0  0  0  0  0  0  0  0  0  0  0  0
   -5.7300   15.5870  -33.8880 C   0  0  0  0  0  0  0  0  0  0  0  0
   -5.6040   17.0450  -34.0490 N   0  0  0  0  0  0  0  0  0  0  0  0
   -4.6380   17.5620  -35.0330 C   0  0  0  0  0  0  0  0  0  0  0  0
   -3.3080   17.8950  -34.3640 C   0  0  0  0  0  0  0  0  0  0  0  0
   -6.4160   17.9240  -33.2240 C   0  0  0  0  0  0  0  0  0  0  0  0
   -6.0170   19.2330  -32.9070 C   0  0  0  0  0  0  0  0  0  0  0  0
   -6.8600   20.0160  -32.1000 C   0  0  0  0  0  0  0  0  0  0  0  0
   -6.5060   21.4050  -31.7130 C   0  0  0  0  0  0  0  0  0  0  0  0
   -7.5210   22.2920  -31.3110 C   0  0  0  0  0  0  0  0  0  0  0  0
   -7.2120   23.6020  -30.9340 C   0  0  0  0  0  0  0  0  0  0  0  0
   -5.8850   24.0400  -30.9430 C   0  0  0  0  0  0  0  0  0  0  0  0
   -5.4980   25.6840  -30.4670 Cl  0  0  0  0  0  0  0  0  0  0  0  0
   -4.8650   23.1640  -31.3270 C   0  0  0  0  0  0  0  0  0  0  0  0
   -5.1700   21.8540  -31.7060 C   0  0  0  0  0  0  0  0  0  0  0  0
   -8.0150   19.5080  -31.6790 O   0  0  0  0  0  0  0  0  0  0  0  0
   -8.4000   18.2760  -31.9820 C   0  0  0  0  0  0  0  0  0  0  0  0
   -9.5010   17.8410  -31.5570 O   0  0  0  0  0  0  0  0  0  0  0  0
   -7.6100   17.4820  -32.7470 N   0  0  0  0  0  0  0  0  0  0  0  0
   -5.4861   15.4380  -31.7508 H   0  0  0  0  0  0  0  0  0  0  0  0
   -4.8854   14.0185  -32.6732 H   0  0  0  0  0  0  0  0  0  0  0  0
   -3.9489   15.5514  -32.6732 H   0  0  0  0  0  0  0  0  0  0  0  0
   -5.3273   15.0881  -34.7819 H   0  0  0  0  0  0  0  0  0  0  0  0
   -6.7927   15.3343  -33.7585 H   0  0  0  0  0  0  0  0  0  0  0  0
   -4.4707   16.8001  -35.8086 H   0  0  0  0  0  0  0  0  0  0  0  0
   -5.0473   18.4801  -35.4797 H   0  0  0  0  0  0  0  0  0  0  0  0
   -3.4295   17.8646  -33.2712 H   0  0  0  0  0  0  0  0  0  0  0  0
   -2.5496   17.1590  -34.6692 H   0  0  0  0  0  0  0  0  0  0  0  0
   -2.9859   18.9015  -34.6692 H   0  0  0  0  0  0  0  0  0  0  0  0
   -5.0651   19.6366  -33.2824 H   0  0  0  0  0  0  0  0  0  0  0  0
   -8.5669   21.9518  -31.2932 H   0  0  0  0  0  0  0  0  0  0  0  0
   -8.0149   24.2895  -30.6296 H   0  0  0  0  0  0  0  0  0  0  0  0
   -3.8198   23.5069  -31.3308 H   0  0  0  0  0  0  0  0  0  0  0  0
   -4.3618   21.1685  -32.0009 H   0  0  0  0  0  0  0  0  0  0  0  0
  1  2  1  0
  2  3  1  0
  3  4  1  0
  4  5  1  0
  3  6  1  0
  6  7  1  0
  7  8  2  0
  8  9  1  0
  9 10  2  0
 10 11  1  0
 11 12  2  0
 12 13  1  0
 12 14  1  0
 14 15  2  0
  8 16  1  0
 16 17  1  0
 17 18  2  0
 17 19  1  0
 19  6  2  0
 15  9  1  0
  1 20  1  0
  1 21  1  0
  1 22  1  0
  2 23  1  0
  2 24  1  0
  4 25  1  0
  4 26  1  0
  5 27  1  0
  5 28  1  0
  5 29  1  0
  7 30  1  0
 10 31  1  0
 11 32  1  0
 14 33  1  0
 15 34  1  0
M  END
>  <UniqueID>  (10) 
10

>  <SMILES>  (10) 
CCN(CC)c1cc(-c2ccc(Cl)cc2)oc(=O)n1

>  <Energy>  (10) 
34.46718563509455

>  <Genealogy>  (10) 
CCN(CC)c1cc(-c2ccc(Cl)cc2)oc(=O)n1 (3D coordinates assigned)
CCN(CC)c1cc(-c2ccc(Cl)cc2)oc(=O)n1 (optimized conformer: 34.46718563509455 kcal/mol)

>  <smiles>  (10) 
CCN(CC)c1cc(-c2ccc(Cl)cc2)oc(=O)n1

>  <score_type>  (10) 
oracle

>  <origin>  (10) 
adgpu

>  <m_score__min__energy>  (10) 
-6.7999999999999998

>  <m_primary>  (10) 
energy

$$$$
10:0
     RDKit          3D

 42 44  0  0  0  0  0  0  0  0999 V2000
   -2.6460   23.5700  -28.8460 O   0  0  0  0  0  0  0  0  0  0  0  0
   -2.5760   24.7000  -29.3960 C   0  0  0  0  0  0  0  0  0  0  0  0
   -1.6060   25.6660  -28.9680 N   0  0  0  0  0  0  0  0  0  0  0  0
   -1.2510   26.0110  -27.6220 C   0  0  0  0  0  0  0  0  0  0  0  0
   -1.6400   25.2300  -26.5180 C   0  0  0  0  0  0  0  0  0  0  0  0
   -1.2420   25.5910  -25.2260 C   0  0  0  0  0  0  0  0  0  0  0  0
   -0.4430   26.7210  -25.0270 C   0  0  0  0  0  0  0  0  0  0  0  0
    0.0590   27.1690  -23.4070 Cl  0  0  0  0  0  0  0  0  0  0  0  0
   -0.0340   27.4860  -26.1230 C   0  0  0  0  0  0  0  0  0  0  0  0
   -0.4320   27.1290  -27.4150 C   0  0  0  0  0  0  0  0  0  0  0  0
   -3.4770   25.0100  -30.4650 N   0  0  0  0  0  0  0  0  0  0  0  0
   -4.7270   24.3500  -30.7000 C   0  0  0  0  0  0  0  0  0  0  0  0
   -5.8960   24.7240  -30.0160 C   0  0  0  0  0  0  0  0  0  0  0  0
   -7.1070   24.0770  -30.2840 C   0  0  0  0  0  0  0  0  0  0  0  0
   -7.1590   23.0490  -31.2340 C   0  0  0  0  0  0  0  0  0  0  0  0
   -8.6940   22.3060  -31.6730 S   0  0  0  0  0  0  0  0  0  0  0  0
   -9.5730   23.2970  -32.3870 O   0  0  0  0  0  0  0  0  0  0  0  0
   -9.3930   21.8650  -30.4190 O   0  0  0  0  0  0  0  0  0  0  0  0
   -8.4120   20.9180  -32.6860 N   0  0  0  0  0  0  0  0  0  0  0  0
   -7.8220   19.8090  -31.9290 C   0  0  0  0  0  0  0  0  0  0  0  0
   -7.0210   18.8970  -32.8210 C   0  0  0  0  0  0  0  0  0  0  0  0
   -7.1060   17.5040  -32.6820 C   0  0  0  0  0  0  0  0  0  0  0  0
   -6.3490   16.6710  -33.5070 C   0  0  0  0  0  0  0  0  0  0  0  0
   -5.5240   17.2380  -34.4790 C   0  0  0  0  0  0  0  0  0  0  0  0
   -5.4640   18.5890  -34.6180 N   0  0  0  0  0  0  0  0  0  0  0  0
   -6.1890   19.4230  -33.8240 C   0  0  0  0  0  0  0  0  0  0  0  0
   -5.9850   22.6460  -31.8830 C   0  0  0  0  0  0  0  0  0  0  0  0
   -4.7740   23.2850  -31.6080 C   0  0  0  0  0  0  0  0  0  0  0  0
   -2.2586   24.3334  -26.6710 H   0  0  0  0  0  0  0  0  0  0  0  0
   -1.5585   24.9843  -24.3648 H   0  0  0  0  0  0  0  0  0  0  0  0
    0.6019   28.3702  -25.9689 H   0  0  0  0  0  0  0  0  0  0  0  0
   -0.1000   27.7297  -28.2746 H   0  0  0  0  0  0  0  0  0  0  0  0
   -5.8588   25.5286  -29.2669 H   0  0  0  0  0  0  0  0  0  0  0  0
   -8.0198   24.3760  -29.7479 H   0  0  0  0  0  0  0  0  0  0  0  0
   -7.1613   20.2188  -31.1509 H   0  0  0  0  0  0  0  0  0  0  0  0
   -8.6385   19.2239  -31.4807 H   0  0  0  0  0  0  0  0  0  0  0  0
   -7.7703   17.0674  -31.9216 H   0  0  0  0  0  0  0  0  0  0  0  0
   -6.4022   15.5783  -33.3921 H   0  0  0  0  0  0  0  0  0  0  0  0
   -4.9215   16.5911  -35.1336 H   0  0  0  0  0  0  0  0  0  0  0  0
   -6.1237   20.5116  -33.9676 H   0  0  0  0  0  0  0  0  0  0  0  0
   -6.0170   21.8230  -32.6121 H   0  0  0  0  0  0  0  0  0  0  0  0
   -3.8527   22.9501  -32.1070 H   0  0  0  0  0  0  0  0  0  0  0  0
  1  2  2  0
  2  3  1  0
  3  4  1  0
  4  5  2  0
  5  6  1  0
  6  7  2  0
  7  8  1  0
  7  9  1  0
  9 10  2  0
  2 11  1  0
 11 12  1  0
 12 13  2  0
 13 14  1  0
 14 15  2  0
 15 16  1  0
 16 17  2  0
 16 18  2  0
 16 19  1  0
 19 20  1  0
 20 21  1  0
 21 22  2  0
 22 23  1  0
 23 24  2  0
 24 25  1  0
 25 26  2  0
 15 27  1  0
 27 28  2  0
 10  4  1  0
 28 12  1  0
 26 21  1  0
  5 29  1  0
  6 30  1  0
  9 31  1  0
 10 32  1  0
 13 33  1  0
 14 34  1  0
 20 35  1  0
 20 36  1  0
 22 37  1  0
 23 38  1  0
 24 39  1  0
 26 40  1  0
 27 41  1  0
 28 42  1  0
M  CHG  3   3  -1  11  -1  19  -1
M  END
>  <UniqueID>  (11) 
11

>  <SMILES>  (11) 
O=C([N-]c1ccc(Cl)cc1)[N-]c1ccc(S(=O)(=O)[N-]Cc2cccnc2)cc1

>  <Energy>  (11) 
47.22041988253652

>  <Genealogy>  (11) 
O=C([N-]c1ccc(Cl)cc1)[N-]c1ccc(S(=O)(=O)[N-]Cc2cccnc2)cc1 (protonated)
O=C([N-]c1ccc(Cl)cc1)[N-]c1ccc(S(=O)(=O)[N-]Cc2cccnc2)cc1 (3D coordinates assigned)
O=C([N-]c1ccc(Cl)cc1)[N-]c1ccc(S(=O)(=O)[N-]Cc2cccnc2)cc1 (optimized conformer: 47.22041988253652 kcal/mol)

>  <smiles>  (11) 
O=C(Nc1ccc(Cl)cc1)Nc1ccc(S(=O)(=O)NCc2cccnc2)cc1

>  <score_type>  (11) 
oracle

>  <origin>  (11) 
adgpu

>  <m_score__min__energy>  (11) 
-12.93

>  <m_primary>  (11) 
energy

$$$$
11:0
     RDKit          3D

 41 43  0  0  0  0  0  0  0  0999 V2000
   -3.2000   21.8690  -33.8330 O   0  0  0  0  0  0  0  0  0  0  0  0
   -3.3480   20.5650  -33.0980 S   0  0  0  0  0  0  0  0  0  0  0  0
   -2.9920   19.4170  -34.0020 O   0  0  0  0  0  0  0  0  0  0  0  0
   -4.9950   20.3930  -32.5790 N   0  0  0  0  0  0  0  0  0  0  0  0
   -5.8120   21.4620  -32.0840 C   0  0  0  0  0  0  0  0  0  0  0  0
   -7.2000   21.3820  -32.2540 C   0  0  0  0  0  0  0  0  0  0  0  0
   -8.0310   22.3880  -31.7540 C   0  0  0  0  0  0  0  0  0  0  0  0
   -7.4820   23.4780  -31.0730 C   0  0  0  0  0  0  0  0  0  0  0  0
   -6.0960   23.5720  -30.8990 C   0  0  0  0  0  0  0  0  0  0  0  0
   -5.4070   24.9350  -30.0200 S   0  0  0  0  0  0  0  0  0  0  0  0
   -4.3370   25.5610  -30.8680 O   0  0  0  0  0  0  0  0  0  0  0  0
   -6.4680   25.9590  -29.7290 O   0  0  0  0  0  0  0  0  0  0  0  0
   -4.7050   24.4070  -28.5220 N   0  0  0  0  0  0  0  0  0  0  0  0
   -3.2880   24.3160  -28.2880 C   0  0  0  0  0  0  0  0  0  0  0  0
   -2.7290   24.5560  -27.0180 C   0  0  0  0  0  0  0  0  0  0  0  0
   -1.3510   24.4290  -26.8180 C   0  0  0  0  0  0  0  0  0  0  0  0
   -0.5180   24.0680  -27.8790 C   0  0  0  0  0  0  0  0  0  0  0  0
   -1.0620   23.8350  -29.1450 C   0  0  0  0  0  0  0  0  0  0  0  0
   -2.4390   23.9620  -29.3500 C   0  0  0  0  0  0  0  0  0  0  0  0
   -5.2630   22.5740  -31.4220 C   0  0  0  0  0  0  0  0  0  0  0  0
   -2.2610   20.5660  -31.7060 C   0  0  0  0  0  0  0  0  0  0  0  0
   -2.7960   20.4810  -30.4100 C   0  0  0  0  0  0  0  0  0  0  0  0
   -1.9540   20.4830  -29.2940 C   0  0  0  0  0  0  0  0  0  0  0  0
   -2.6950   20.3660  -27.5370 Br  0  0  0  0  0  0  0  0  0  0  0  0
   -0.5700   20.5680  -29.4630 C   0  0  0  0  0  0  0  0  0  0  0  0
   -0.0270   20.6520  -30.7460 C   0  0  0  0  0  0  0  0  0  0  0  0
   -0.8610   20.6520  -31.8710 C   0  0  0  0  0  0  0  0  0  0  0  0
   -0.0350   20.7660  -33.5990 Br  0  0  0  0  0  0  0  0  0  0  0  0
   -7.6380   20.5231  -32.7836 H   0  0  0  0  0  0  0  0  0  0  0  0
   -9.1197   22.3219  -31.8967 H   0  0  0  0  0  0  0  0  0  0  0  0
   -8.1401   24.2635  -30.6730 H   0  0  0  0  0  0  0  0  0  0  0  0
   -5.3590   24.2670  -27.7190 H   0  0  0  0  0  0  0  0  0  0  0  0
   -3.3795   24.8448  -26.1793 H   0  0  0  0  0  0  0  0  0  0  0  0
   -0.9219   24.6140  -25.8222 H   0  0  0  0  0  0  0  0  0  0  0  0
    0.5655   23.9671  -27.7184 H   0  0  0  0  0  0  0  0  0  0  0  0
   -0.4059   23.5513  -29.9811 H   0  0  0  0  0  0  0  0  0  0  0  0
   -2.8609   23.7835  -30.3501 H   0  0  0  0  0  0  0  0  0  0  0  0
   -4.1718   22.6613  -31.3138 H   0  0  0  0  0  0  0  0  0  0  0  0
   -3.8852   20.4124  -30.2722 H   0  0  0  0  0  0  0  0  0  0  0  0
    0.0921   20.5687  -28.5846 H   0  0  0  0  0  0  0  0  0  0  0  0
    1.0634   20.7187  -30.8744 H   0  0  0  0  0  0  0  0  0  0  0  0
  1  2  2  0
  2  3  2  0
  2  4  1  0
  4  5  1  0
  5  6  2  0
  6  7  1  0
  7  8  2  0
  8  9  1  0
  9 10  1  0
 10 11  2  0
 10 12  2  0
 10 13  1  0
 13 14  1  0
 14 15  2  0
 15 16  1  0
 16 17  2  0
 17 18  1  0
 18 19  2  0
  9 20  2  0
  2 21  1  0
 21 22  2  0
 22 23  1  0
 23 24  1  0
 23 25  2  0
 25 26  1  0
 26 27  2  0
 27 28  1  0
 20  5  1  0
 27 21  1  0
 19 14  1  0
  6 29  1  0
  7 30  1  0
  8 31  1  0
 13 32  1  0
 15 33  1  0
 16 34  1  0
 17 35  1  0
 18 36  1  0
 19 37  1  0
 20 38  1  0
 22 39  1  0
 25 40  1  0
 26 41  1  0
M  CHG  1   4  -1
M  END
>  <UniqueID>  (12) 
12

>  <SMILES>  (12) 
O=S(=O)([N-]c1cccc(S(=O)(=O)Nc2ccccc2)c1)c1cc(Br)ccc1Br

>  <Energy>  (12) 
50.89779852207245

>  <Genealogy>  (12) 
O=S(=O)([N-]c1cccc(S(=O)(=O)Nc2ccccc2)c1)c1cc(Br)ccc1Br (protonated)
O=S(=O)([N-]c1cccc(S(=O)(=O)Nc2ccccc2)c1)c1cc(Br)ccc1Br (3D coordinates assigned)
O=S(=O)([N-]c1cccc(S(=O)(=O)Nc2ccccc2)c1)c1cc(Br)ccc1Br (optimized conformer: 50.89779852207245 kcal/mol)

>  <smiles>  (12) 
O=S(=O)(Nc1ccccc1)c1cccc(NS(=O)(=O)c2cc(Br)ccc2Br)c1

>  <score_type>  (12) 
oracle

>  <origin>  (12) 
adgpu

>  <m_score__min__energy>  (12) 
-11.66

>  <m_primary>  (12) 
energy

$$$$
12:0
     RDKit          3D

 50 52  0  0  0  0  0  0  0  0999 V2000
   -8.0150   19.1190  -32.0540 C   0  0  0  0  0  0  0  0  0  0  0  0
   -7.6920   20.3270  -32.9310 C   0  0  0  0  0  0  0  0  0  0  0  0
   -6.4190   20.9430  -32.5290 N   0  0  0  0  0  0  0  0  0  0  0  0
   -6.4270   22.1390  -31.7210 C   0  0  0  0  0  0  0  0  0  0  0  0
   -5.7380   23.2900  -32.1380 C   0  0  0  0  0  0  0  0  0  0  0  0
   -5.7590   24.4510  -31.3590 C   0  0  0  0  0  0  0  0  0  0  0  0
   -6.4530   24.4720  -30.1410 C   0  0  0  0  0  0  0  0  0  0  0  0
   -6.5200   25.7300  -29.3280 C   0  0  0  0  0  0  0  0  0  0  0  0
   -7.1430   23.3260  -29.7220 C   0  0  0  0  0  0  0  0  0  0  0  0
   -7.1240   22.1670  -30.5020 C   0  0  0  0  0  0  0  0  0  0  0  0
   -5.1660   20.3760  -32.9710 C   0  0  0  0  0  0  0  0  0  0  0  0
   -5.1480   19.2390  -33.7190 N   0  0  0  0  0  0  0  0  0  0  0  0
   -3.9790   18.6840  -34.1370 C   0  0  0  0  0  0  0  0  0  0  0  0
   -3.9960   17.4230  -34.9380 C   0  0  0  0  0  0  0  0  0  0  0  0
   -2.7660   19.2880  -33.7900 C   0  0  0  0  0  0  0  0  0  0  0  0
   -2.7940   20.4480  -33.0190 C   0  0  0  0  0  0  0  0  0  0  0  0
   -1.5930   21.0660  -32.6580 O   0  0  0  0  0  0  0  0  0  0  0  0
   -0.9790   20.8690  -31.3880 C   0  0  0  0  0  0  0  0  0  0  0  0
   -1.7820   21.5720  -30.3340 C   0  0  0  0  0  0  0  0  0  0  0  0
   -2.3080   20.8460  -29.2550 C   0  0  0  0  0  0  0  0  0  0  0  0
   -3.0330   21.4970  -28.2540 C   0  0  0  0  0  0  0  0  0  0  0  0
   -3.2350   22.8780  -28.3210 C   0  0  0  0  0  0  0  0  0  0  0  0
   -2.7080   23.6170  -29.3880 C   0  0  0  0  0  0  0  0  0  0  0  0
   -2.9140   25.0300  -29.4550 N   0  0  0  0  0  0  0  0  0  0  0  0
   -1.9770   22.9620  -30.3910 C   0  0  0  0  0  0  0  0  0  0  0  0
   -3.9880   20.9640  -32.6250 N   0  0  0  0  0  0  0  0  0  0  0  0
   -7.9387   19.4043  -30.9944 H   0  0  0  0  0  0  0  0  0  0  0  0
   -9.0371   18.7733  -32.2680 H   0  0  0  0  0  0  0  0  0  0  0  0
   -7.3018   18.3093  -32.2680 H   0  0  0  0  0  0  0  0  0  0  0  0
   -7.6193   20.0016  -33.9793 H   0  0  0  0  0  0  0  0  0  0  0  0
   -8.4942   21.0705  -32.8137 H   0  0  0  0  0  0  0  0  0  0  0  0
   -5.1777   23.2779  -33.0845 H   0  0  0  0  0  0  0  0  0  0  0  0
   -5.2290   25.3513  -31.7031 H   0  0  0  0  0  0  0  0  0  0  0  0
   -6.5065   25.4761  -28.2578 H   0  0  0  0  0  0  0  0  0  0  0  0
   -5.6545   26.3662  -29.5649 H   0  0  0  0  0  0  0  0  0  0  0  0
   -7.4482   26.2707  -29.5649 H   0  0  0  0  0  0  0  0  0  0  0  0
   -7.7020   23.3393  -28.7747 H   0  0  0  0  0  0  0  0  0  0  0  0
   -7.6591   21.2694  -30.1587 H   0  0  0  0  0  0  0  0  0  0  0  0
   -4.0077   16.5575  -34.2592 H   0  0  0  0  0  0  0  0  0  0  0  0
   -4.8945   17.4036  -35.5723 H   0  0  0  0  0  0  0  0  0  0  0  0
   -3.0984   17.3794  -35.5723 H   0  0  0  0  0  0  0  0  0  0  0  0
   -1.8095   18.8559  -34.1192 H   0  0  0  0  0  0  0  0  0  0  0  0
   -0.9387   19.7931  -31.1624 H   0  0  0  0  0  0  0  0  0  0  0  0
    0.0425   21.2767  -31.4057 H   0  0  0  0  0  0  0  0  0  0  0  0
   -2.1488   19.7591  -29.1969 H   0  0  0  0  0  0  0  0  0  0  0  0
   -3.4454   20.9217  -27.4120 H   0  0  0  0  0  0  0  0  0  0  0  0
   -3.8099   23.3867  -27.5331 H   0  0  0  0  0  0  0  0  0  0  0  0
   -2.1380   25.6730  -29.7340 H   0  0  0  0  0  0  0  0  0  0  0  0
   -3.8470   25.4450  -29.2380 H   0  0  0  0  0  0  0  0  0  0  0  0
   -1.5545   23.5400  -31.2261 H   0  0  0  0  0  0  0  0  0  0  0  0
  1  2  1  0
  2  3  1  0
  3  4  1  0
  4  5  2  0
  5  6  1  0
  6  7  2  0
  7  8  1  0
  7  9  1  0
  9 10  2  0
  3 11  1  0
 11 12  2  0
 12 13  1  0
 13 14  1  0
 13 15  2  0
 15 16  1  0
 16 17  1  0
 17 18  1  0
 18 19  1  0
 19 20  2  0
 20 21  1  0
 21 22  2  0
 22 23  1  0
 23 24  1  0
 23 25  2  0
 16 26  2  0
 10  4  1  0
 26 11  1  0
 25 19  1  0
  1 27  1  0
  1 28  1  0
  1 29  1  0
  2 30  1  0
  2 31  1  0
  5 32  1  0
  6 33  1  0
  8 34  1  0
  8 35  1  0
  8 36  1  0
  9 37  1  0
 10 38  1  0
 14 39  1  0
 14 40  1  0
 14 41  1  0
 15 42  1  0
 18 43  1  0
 18 44  1  0
 20 45  1  0
 21 46  1  0
 22 47  1  0
 24 48  1  0
 24 49  1  0
 25 50  1  0
M  END
>  <UniqueID>  (13) 
13

>  <SMILES>  (13) 
CCN(c1ccc(C)cc1)c1nc(C)cc(OCc2cccc(N)c2)n1

>  <Energy>  (13) 
49.884360206862624

>  <Genealogy>  (13) 
CCN(c1ccc(C)cc1)c1nc(C)cc(OCc2cccc(N)c2)n1 (3D coordinates assigned)
CCN(c1ccc(C)cc1)c1nc(C)cc(OCc2cccc(N)c2)n1 (optimized conformer: 49.884360206862624 kcal/mol)

>  <smiles>  (13) 
CCN(c1ccc(C)cc1)c1nc(C)cc(OCc2cccc(N)c2)n1

>  <score_type>  (13) 
oracle

>  <origin>  (13) 
adgpu

>  <m_score__min__energy>  (13) 
-8.4499999999999993

>  <m_primary>  (13) 
energy

$$$$
13:0
     RDKit          3D

 46 48  0  0  0  0  0  0  0  0999 V2000
   -0.0350   21.1890  -35.7650 C   0  0  0  0  0  0  0  0  0  0  0  0
   -0.0370   20.5310  -34.3870 C   0  0  0  0  0  0  0  0  0  0  0  0
   -1.1700   19.6130  -34.2730 N   0  0  0  0  0  0  0  0  0  0  0  0
   -1.0350   18.2220  -34.7210 C   0  0  0  0  0  0  0  0  0  0  0  0
   -2.4050   20.0500  -33.6740 C   0  0  0  0  0  0  0  0  0  0  0  0
   -2.5360   21.2080  -32.9950 N   0  0  0  0  0  0  0  0  0  0  0  0
   -3.8380   21.1910  -32.6360 C   0  0  0  0  0  0  0  0  0  0  0  0
   -4.4830   22.3520  -31.9680 C   0  0  0  0  0  0  0  0  0  0  0  0
   -5.8350   22.6720  -32.1940 C   0  0  0  0  0  0  0  0  0  0  0  0
   -6.4060   23.7980  -31.5910 C   0  0  0  0  0  0  0  0  0  0  0  0
   -5.6250   24.6450  -30.8020 C   0  0  0  0  0  0  0  0  0  0  0  0
   -4.2650   24.3750  -30.6050 C   0  0  0  0  0  0  0  0  0  0  0  0
   -3.4910   25.2990  -29.8270 N   0  0  0  0  0  0  0  0  0  0  0  0
   -2.0430   24.9160  -28.9490 S   0  0  0  0  0  0  0  0  0  0  0  0
   -2.4470   24.4100  -27.2880 C   0  0  0  0  0  0  0  0  0  0  0  0
   -1.3380   23.7710  -29.6310 O   0  0  0  0  0  0  0  0  0  0  0  0
   -1.1250   26.1120  -28.9310 O   0  0  0  0  0  0  0  0  0  0  0  0
   -3.7030   23.2180  -31.1790 C   0  0  0  0  0  0  0  0  0  0  0  0
   -4.4470   20.0620  -33.0670 N   0  0  0  0  0  0  0  0  0  0  0  0
   -5.7640   19.5710  -32.7640 C   0  0  0  0  0  0  0  0  0  0  0  0
   -5.9310   18.5580  -31.8040 C   0  0  0  0  0  0  0  0  0  0  0  0
   -7.2110   18.0810  -31.4920 C   0  0  0  0  0  0  0  0  0  0  0  0
   -8.3340   18.6250  -32.1230 C   0  0  0  0  0  0  0  0  0  0  0  0
   -9.5740   18.1610  -31.8210 F   0  0  0  0  0  0  0  0  0  0  0  0
   -8.1770   19.6530  -33.0600 C   0  0  0  0  0  0  0  0  0  0  0  0
   -6.8990   20.1340  -33.3730 C   0  0  0  0  0  0  0  0  0  0  0  0
   -3.5540   19.3470  -33.7300 N   0  0  0  0  0  0  0  0  0  0  0  0
   -0.0317   22.2829  -35.6490 H   0  0  0  0  0  0  0  0  0  0  0  0
    0.8622   20.8763  -36.3193 H   0  0  0  0  0  0  0  0  0  0  0  0
   -0.9341   20.8818  -36.3193 H   0  0  0  0  0  0  0  0  0  0  0  0
    0.9002   19.9719  -34.2489 H   0  0  0  0  0  0  0  0  0  0  0  0
   -0.1240   21.3097  -33.6150 H   0  0  0  0  0  0  0  0  0  0  0  0
   -0.9707   17.5594  -33.8453 H   0  0  0  0  0  0  0  0  0  0  0  0
   -1.9105   17.9453  -35.3267 H   0  0  0  0  0  0  0  0  0  0  0  0
   -0.1226   18.1188  -35.3267 H   0  0  0  0  0  0  0  0  0  0  0  0
   -6.4461   22.0331  -32.8485 H   0  0  0  0  0  0  0  0  0  0  0  0
   -7.4738   24.0168  -31.7390 H   0  0  0  0  0  0  0  0  0  0  0  0
   -6.0806   25.5293  -30.3325 H   0  0  0  0  0  0  0  0  0  0  0  0
   -1.9272   25.0610  -26.5697 H   0  0  0  0  0  0  0  0  0  0  0  0
   -3.5334   24.4888  -27.1347 H   0  0  0  0  0  0  0  0  0  0  0  0
   -2.1297   23.3680  -27.1347 H   0  0  0  0  0  0  0  0  0  0  0  0
   -2.6409   22.9883  -31.0084 H   0  0  0  0  0  0  0  0  0  0  0  0
   -5.0516   18.1372  -31.2946 H   0  0  0  0  0  0  0  0  0  0  0  0
   -7.3325   17.2780  -30.7501 H   0  0  0  0  0  0  0  0  0  0  0  0
   -9.0607   20.0849  -33.5525 H   0  0  0  0  0  0  0  0  0  0  0  0
   -6.7834   20.9541  -34.0970 H   0  0  0  0  0  0  0  0  0  0  0  0
  1  2  1  0
  2  3  1  0
  3  4  1  0
  3  5  1  0
  5  6  1  0
  6  7  2  0
  7  8  1  0
  8  9  2  0
  9 10  1  0
 10 11  2  0
 11 12  1  0
 12 13  1  0
 13 14  1  0
 14 15  1  0
 14 16  2  0
 14 17  2  0
 12 18  2  0
  7 19  1  0
 19 20  1  0
 20 21  2  0
 21 22  1  0
 22 23  2  0
 23 24  1  0
 23 25  1  0
 25 26  2  0
 19 27  1  0
 27  5  2  0
 18  8  1  0
 26 20  1  0
  1 28  1  0
  1 29  1  0
  1 30  1  0
  2 31  1  0
  2 32  1  0
  4 33  1  0
  4 34  1  0
  4 35  1  0
  9 36  1  0
 10 37  1  0
 11 38  1  0
 15 39  1  0
 15 40  1  0
 15 41  1  0
 18 42  1  0
 21 43  1  0
 22 44  1  0
 25 45  1  0
 26 46  1  0
M  CHG  1  13  -1
M  END
>  <UniqueID>  (14) 
14

>  <SMILES>  (14) 
CCN(C)c1nc(-c2cccc([N-]S(C)(=O)=O)c2)n(-c2ccc(F)cc2)n1

>  <Energy>  (14) 
84.17768268930224

>  <Genealogy>  (14) 
CCN(C)c1nc(-c2cccc([N-]S(C)(=O)=O)c2)n(-c2ccc(F)cc2)n1 (protonated)
CCN(C)c1nc(-c2cccc([N-]S(C)(=O)=O)c2)n(-c2ccc(F)cc2)n1 (3D coordinates assigned)
CCN(C)c1nc(-c2cccc([N-]S(C)(=O)=O)c2)n(-c2ccc(F)cc2)n1 (optimized conformer: 84.17768268930224 kcal/mol)

>  <smiles>  (14) 
CCN(C)c1nc(-c2cccc(NS(C)(=O)=O)c2)n(-c2ccc(F)cc2)n1

>  <score_type>  (14) 
oracle

>  <origin>  (14) 
adgpu

>  <m_score__min__energy>  (14) 
-10.449999999999999

>  <m_primary>  (14) 
energy

$$$$
14:0
     RDKit          3D

 64 68  0  0  0  0  0  0  0  0999 V2000
   -6.5290   24.8270  -30.1780 C   0  0  0  0  0  0  0  0  0  0  0  0
   -5.9860   23.6740  -30.9650 C   0  0  0  0  0  0  0  0  0  0  0  0
   -4.6570   23.4790  -31.3000 C   0  0  0  0  0  0  0  0  0  0  0  0
   -3.5490   24.2620  -30.8600 N   0  0  0  0  0  0  0  0  0  0  0  0
   -3.0860   24.2440  -29.1960 S   0  0  0  0  0  0  0  0  0  0  0  0
   -4.3160   24.1530  -28.3390 O   0  0  0  0  0  0  0  0  0  0  0  0
   -2.3500   25.5090  -28.8530 O   0  0  0  0  0  0  0  0  0  0  0  0
   -2.0570   22.8440  -28.9150 C   0  0  0  0  0  0  0  0  0  0  0  0
   -1.8410   22.3770  -27.6130 C   0  0  0  0  0  0  0  0  0  0  0  0
   -1.0800   21.2250  -27.3970 C   0  0  0  0  0  0  0  0  0  0  0  0
   -0.5310   20.5190  -28.4820 C   0  0  0  0  0  0  0  0  0  0  0  0
    0.2390   19.3220  -28.2620 N   0  0  0  0  0  0  0  0  0  0  0  0
   -0.3510   18.2040  -27.5080 C   0  0  0  0  0  0  0  0  0  0  0  0
    0.5820   16.9880  -27.4860 C   0  0  0  0  0  0  0  0  0  0  0  0
    1.1330   16.7580  -28.8300 N   0  0  0  0  0  0  0  0  0  0  0  0
    1.0480   15.4580  -29.4400 C   0  0  0  0  0  0  0  0  0  0  0  0
    1.4500   14.3120  -28.7320 C   0  0  0  0  0  0  0  0  0  0  0  0
    1.3660   13.0480  -29.3250 C   0  0  0  0  0  0  0  0  0  0  0  0
    0.8740   12.9170  -30.6260 C   0  0  0  0  0  0  0  0  0  0  0  0
    0.7930   11.6910  -31.1990 F   0  0  0  0  0  0  0  0  0  0  0  0
    0.4650   14.0490  -31.3360 C   0  0  0  0  0  0  0  0  0  0  0  0
    0.5510   15.3150  -30.7480 C   0  0  0  0  0  0  0  0  0  0  0  0
    1.7330   17.8760  -29.5750 C   0  0  0  0  0  0  0  0  0  0  0  0
    1.5980   19.1970  -28.8100 C   0  0  0  0  0  0  0  0  0  0  0  0
   -0.7650   20.9850  -29.7870 C   0  0  0  0  0  0  0  0  0  0  0  0
   -1.5210   22.1400  -30.0010 C   0  0  0  0  0  0  0  0  0  0  0  0
   -4.6050   22.2150  -31.8410 C   0  0  0  0  0  0  0  0  0  0  0  0
   -3.5650   21.6280  -32.2430 O   0  0  0  0  0  0  0  0  0  0  0  0
   -5.8460   21.6880  -31.8700 N   0  0  0  0  0  0  0  0  0  0  0  0
   -6.1990   20.3880  -32.3770 C   0  0  0  0  0  0  0  0  0  0  0  0
   -5.7710   19.9850  -33.6510 C   0  0  0  0  0  0  0  0  0  0  0  0
   -6.1100   18.7210  -34.1400 C   0  0  0  0  0  0  0  0  0  0  0  0
   -6.8730   17.8490  -33.3590 C   0  0  0  0  0  0  0  0  0  0  0  0
   -7.2930   18.2380  -32.0840 C   0  0  0  0  0  0  0  0  0  0  0  0
   -6.9560   19.5030  -31.5920 C   0  0  0  0  0  0  0  0  0  0  0  0
   -6.6830   22.5630  -31.3120 N   0  0  0  0  0  0  0  0  0  0  0  0
   -8.1080   22.3310  -31.0630 C   0  0  0  0  0  0  0  0  0  0  0  0
   -6.4298   24.6163  -29.1029 H   0  0  0  0  0  0  0  0  0  0  0  0
   -5.9655   25.7384  -30.4266 H   0  0  0  0  0  0  0  0  0  0  0  0
   -7.5905   24.9731  -30.4266 H   0  0  0  0  0  0  0  0  0  0  0  0
   -2.2715   22.9184  -26.7577 H   0  0  0  0  0  0  0  0  0  0  0  0
   -0.9092   20.8679  -26.3707 H   0  0  0  0  0  0  0  0  0  0  0  0
   -0.5387   18.5295  -26.4742 H   0  0  0  0  0  0  0  0  0  0  0  0
   -1.2890   17.9109  -28.0022 H   0  0  0  0  0  0  0  0  0  0  0  0
    1.4055   17.1724  -26.7804 H   0  0  0  0  0  0  0  0  0  0  0  0
    0.0143   16.1005  -27.1696 H   0  0  0  0  0  0  0  0  0  0  0  0
    1.8329   14.4099  -27.7055 H   0  0  0  0  0  0  0  0  0  0  0  0
    1.6875   12.1565  -28.7666 H   0  0  0  0  0  0  0  0  0  0  0  0
    0.0748   13.9441  -32.3591 H   0  0  0  0  0  0  0  0  0  0  0  0
    0.2284   16.2032  -31.3111 H   0  0  0  0  0  0  0  0  0  0  0  0
    2.8001   17.6649  -29.7383 H   0  0  0  0  0  0  0  0  0  0  0  0
    1.2026   17.9763  -30.5335 H   0  0  0  0  0  0  0  0  0  0  0  0
    2.3267   19.2174  -27.9862 H   0  0  0  0  0  0  0  0  0  0  0  0
    1.7896   20.0344  -29.4971 H   0  0  0  0  0  0  0  0  0  0  0  0
   -0.3501   20.4366  -30.6456 H   0  0  0  0  0  0  0  0  0  0  0  0
   -1.6961   22.4981  -31.0262 H   0  0  0  0  0  0  0  0  0  0  0  0
   -5.1663   20.6668  -34.2670 H   0  0  0  0  0  0  0  0  0  0  0  0
   -5.7758   18.4118  -35.1413 H   0  0  0  0  0  0  0  0  0  0  0  0
   -7.1432   16.8561  -33.7478 H   0  0  0  0  0  0  0  0  0  0  0  0
   -7.8888   17.5490  -31.4673 H   0  0  0  0  0  0  0  0  0  0  0  0
   -7.2849   19.8058  -30.5869 H   0  0  0  0  0  0  0  0  0  0  0  0
   -8.2907   22.3013  -29.9787 H   0  0  0  0  0  0  0  0  0  0  0  0
   -8.6959   23.1452  -31.5117 H   0  0  0  0  0  0  0  0  0  0  0  0
   -8.4073   21.3723  -31.5117 H   0  0  0  0  0  0  0  0  0  0  0  0
  1  2  1  0
  2  3  2  0
  3  4  1  0
  4  5  1  0
  5  6  2  0
  5  7  2  0
  5  8  1  0
  8  9  2  0
  9 10  1  0
 10 11  2  0
 11 12  1  0
 12 13  1  0
 13 14  1  0
 14 15  1  0
 15 16  1  0
 16 17  2  0
 17 18  1  0
 18 19  2  0
 19 20  1  0
 19 21  1  0
 21 22  2  0
 15 23  1  0
 23 24  1  0
 11 25  1  0
 25 26  2  0
  3 27  1  0
 27 28  2  0
 27 29  1  0
 29 30  1  0
 30 31  2  0
 31 32  1  0
 32 33  2  0
 33 34  1  0
 34 35  2  0
 29 36  1  0
 36 37  1  0
 36  2  1  0
 26  8  1  0
 35 30  1  0
 24 12  1  0
 22 16  1  0
  1 38  1  0
  1 39  1  0
  1 40  1  0
  9 41  1  0
 10 42  1  0
 13 43  1  0
 13 44  1  0
 14 45  1  0
 14 46  1  0
 17 47  1  0
 18 48  1  0
 21 49  1  0
 22 50  1  0
 23 51  1  0
 23 52  1  0
 24 53  1  0
 24 54  1  0
 25 55  1  0
 26 56  1  0
 31 57  1  0
 32 58  1  0
 33 59  1  0
 34 60  1  0
 35 61  1  0
 37 62  1  0
 37 63  1  0
 37 64  1  0
M  CHG  1   4  -1
M  END
>  <UniqueID>  (15) 
15

>  <SMILES>  (15) 
Cc1c([N-]S(=O)(=O)c2ccc(N3CCN(c4ccc(F)cc4)CC3)cc2)c(=O)n(-c2ccccc2)n1C

>  <Energy>  (15) 
126.73619720687195

>  <Genealogy>  (15) 
Cc1c([N-]S(=O)(=O)c2ccc(N3CCN(c4ccc(F)cc4)CC3)cc2)c(=O)n(-c2ccccc2)n1C (protonated)
Cc1c([N-]S(=O)(=O)c2ccc(N3CCN(c4ccc(F)cc4)CC3)cc2)c(=O)n(-c2ccccc2)n1C (3D coordinates assigned)
Cc1c([N-]S(=O)(=O)c2ccc(N3CCN(c4ccc(F)cc4)CC3)cc2)c(=O)n(-c2ccccc2)n1C (nonaromatic ring conformer: 126.73619720687195 kcal/mol)

>  <smiles>  (15) 
Cc1c(NS(=O)(=O)c2ccc(N3CCN(c4ccc(F)cc4)CC3)cc2)c(=O)n(-c2ccccc2)n1C

>  <score_type>  (15) 
oracle

>  <origin>  (15) 
adgpu

>  <m_score__min__energy>  (15) 
-11.16

>  <m_primary>  (15) 
energy

$$$$
15:0
     RDKit          3D

 47 49  0  0  0  0  0  0  0  0999 V2000
    0.1780   25.5000  -24.5690 C   0  0  0  0  0  0  0  0  0  0  0  0
    0.2610   25.2870  -25.9740 O   0  0  0  0  0  0  0  0  0  0  0  0
   -0.8250   24.9310  -26.7860 C   0  0  0  0  0  0  0  0  0  0  0  0
   -0.5740   24.5810  -28.1180 C   0  0  0  0  0  0  0  0  0  0  0  0
   -1.6230   24.2170  -28.9670 C   0  0  0  0  0  0  0  0  0  0  0  0
   -2.9410   24.1820  -28.4890 C   0  0  0  0  0  0  0  0  0  0  0  0
   -4.0460   23.8190  -29.4000 C   0  0  0  0  0  0  0  0  0  0  0  0
   -5.0110   24.7100  -29.8330 C   0  0  0  0  0  0  0  0  0  0  0  0
   -5.8600   24.0040  -30.6590 C   0  0  0  0  0  0  0  0  0  0  0  0
   -5.3720   22.7130  -30.7110 C   0  0  0  0  0  0  0  0  0  0  0  0
   -5.9790   21.6290  -31.5090 C   0  0  0  0  0  0  0  0  0  0  0  0
   -7.2590   21.1560  -31.1730 C   0  0  0  0  0  0  0  0  0  0  0  0
   -7.8580   20.1440  -31.9280 C   0  0  0  0  0  0  0  0  0  0  0  0
   -7.1820   19.5890  -33.0160 C   0  0  0  0  0  0  0  0  0  0  0  0
   -5.9020   20.0380  -33.3470 C   0  0  0  0  0  0  0  0  0  0  0  0
   -5.2920   21.0520  -32.5980 C   0  0  0  0  0  0  0  0  0  0  0  0
   -3.6910   21.6040  -33.0770 Cl  0  0  0  0  0  0  0  0  0  0  0  0
   -4.2620   22.5930  -29.9400 N   0  0  0  0  0  0  0  0  0  0  0  0
   -3.4230   21.3940  -29.7970 C   0  0  0  0  0  0  0  0  0  0  0  0
   -3.2740   21.0220  -28.3510 C   0  0  0  0  0  0  0  0  0  0  0  0
   -3.8540   21.7160  -27.4740 O   0  0  0  0  0  0  0  0  0  0  0  0
   -2.4240   19.9220  -27.9770 N   0  0  0  0  0  0  0  0  0  0  0  0
   -2.5900   19.1550  -26.9300 C   0  0  0  0  0  0  0  0  0  0  0  0
   -3.7520   19.2450  -26.0970 N   0  0  0  0  0  0  0  0  0  0  0  0
   -1.6160   18.1460  -26.6400 N   0  0  0  0  0  0  0  0  0  0  0  0
   -3.1990   24.5500  -27.1610 C   0  0  0  0  0  0  0  0  0  0  0  0
   -2.1510   24.9150  -26.3110 C   0  0  0  0  0  0  0  0  0  0  0  0
    0.5283   24.6011  -24.0405 H   0  0  0  0  0  0  0  0  0  0  0  0
    0.8076   26.3579  -24.2904 H   0  0  0  0  0  0  0  0  0  0  0  0
   -0.8661   25.7057  -24.2904 H   0  0  0  0  0  0  0  0  0  0  0  0
    0.4576   24.5925  -28.4998 H   0  0  0  0  0  0  0  0  0  0  0  0
   -1.4138   23.9567  -30.0151 H   0  0  0  0  0  0  0  0  0  0  0  0
   -5.0866   25.7753  -29.5696 H   0  0  0  0  0  0  0  0  0  0  0  0
   -6.7505   24.3925  -31.1749 H   0  0  0  0  0  0  0  0  0  0  0  0
   -7.7920   21.5845  -30.3114 H   0  0  0  0  0  0  0  0  0  0  0  0
   -8.8636   19.7842  -31.6646 H   0  0  0  0  0  0  0  0  0  0  0  0
   -7.6581   18.7973  -33.6131 H   0  0  0  0  0  0  0  0  0  0  0  0
   -5.3699   19.5929  -34.2006 H   0  0  0  0  0  0  0  0  0  0  0  0
   -3.8910   20.5588  -30.3386 H   0  0  0  0  0  0  0  0  0  0  0  0
   -2.4270   21.6070  -30.2124 H   0  0  0  0  0  0  0  0  0  0  0  0
   -1.6110   19.7290  -28.6050 H   0  0  0  0  0  0  0  0  0  0  0  0
   -3.7990   18.6910  -25.2130 H   0  0  0  0  0  0  0  0  0  0  0  0
   -4.6280   19.7200  -26.4060 H   0  0  0  0  0  0  0  0  0  0  0  0
   -1.7490   17.5030  -25.8280 H   0  0  0  0  0  0  0  0  0  0  0  0
   -0.7670   18.0270  -27.2360 H   0  0  0  0  0  0  0  0  0  0  0  0
   -4.2329   24.5515  -26.7855 H   0  0  0  0  0  0  0  0  0  0  0  0
   -2.3626   25.1907  -25.2674 H   0  0  0  0  0  0  0  0  0  0  0  0
  1  2  1  0
  2  3  1  0
  3  4  2  0
  4  5  1  0
  5  6  2  0
  6  7  1  0
  7  8  2  0
  8  9  1  0
  9 10  2  0
 10 11  1  0
 11 12  2  0
 12 13  1  0
 13 14  2  0
 14 15  1  0
 15 16  2  0
 16 17  1  0
 10 18  1  0
 18 19  1  0
 19 20  1  0
 20 21  2  0
 20 22  1  0
 22 23  2  3
 23 24  1  0
 23 25  1  0
  6 26  1  0
 26 27  2  0
 27  3  1  0
 18  7  1  0
 16 11  1  0
  1 28  1  0
  1 29  1  0
  1 30  1  0
  4 31  1  0
  5 32  1  0
  8 33  1  0
  9 34  1  0
 12 35  1  0
 13 36  1  0
 14 37  1  0
 15 38  1  0
 19 39  1  0
 19 40  1  0
 22 41  1  0
 24 42  1  0
 24 43  1  0
 25 44  1  0
 25 45  1  0
 26 46  1  0
 27 47  1  0
M  CHG  1  22   1
M  END
>  <UniqueID>  (16) 
16

>  <SMILES>  (16) 
COc1ccc(-c2ccc(-c3ccccc3Cl)n2CC(=O)[NH+]=C(N)N)cc1

>  <Energy>  (16) 
86.73884761049766

>  <Genealogy>  (16) 
COc1ccc(-c2ccc(-c3ccccc3Cl)n2CC(=O)[NH+]=C(N)N)cc1 (protonated)
COc1ccc(-c2ccc(-c3ccccc3Cl)n2CC(=O)[NH+]=C(N)N)cc1 (3D coordinates assigned)
COc1ccc(-c2ccc(-c3ccccc3Cl)n2CC(=O)[NH+]=C(N)N)cc1 (optimized conformer: 86.73884761049766 kcal/mol)

>  <smiles>  (16) 
COc1ccc(-c2ccc(-c3ccccc3Cl)n2CC(=O)N=C(N)N)cc1

>  <score_type>  (16) 
oracle

>  <origin>  (16) 
adgpu

>  <m_score__min__energy>  (16) 
-7.9800000000000004

>  <m_primary>  (16) 
energy

$$$$
16:0
     RDKit          3D

 37 39  0  0  0  0  0  0  0  0999 V2000
   -2.5730   21.5800  -31.8500 C   0  0  0  0  0  0  0  0  0  0  0  0
   -3.4610   21.5650  -33.0920 C   0  0  0  0  0  0  0  0  0  0  0  0
   -4.4320   20.3800  -33.0830 C   0  0  0  0  0  0  0  0  0  0  0  0
   -5.3020   20.4310  -31.9500 O   0  0  0  0  0  0  0  0  0  0  0  0
   -6.6300   20.8920  -31.9450 C   0  0  0  0  0  0  0  0  0  0  0  0
   -7.7010   20.0600  -32.3360 C   0  0  0  0  0  0  0  0  0  0  0  0
   -9.0130   20.5350  -32.3160 C   0  0  0  0  0  0  0  0  0  0  0  0
   -9.2790   21.8390  -31.9080 C   0  0  0  0  0  0  0  0  0  0  0  0
   -8.2340   22.6760  -31.5160 C   0  0  0  0  0  0  0  0  0  0  0  0
   -6.9010   22.2200  -31.5290 C   0  0  0  0  0  0  0  0  0  0  0  0
   -5.8180   23.1480  -31.1150 C   0  0  0  0  0  0  0  0  0  0  0  0
   -5.3790   24.1870  -31.8560 N   0  0  0  0  0  0  0  0  0  0  0  0
   -4.4440   24.7400  -31.1460 O   0  0  0  0  0  0  0  0  0  0  0  0
   -4.3050   24.0860  -30.0210 C   0  0  0  0  0  0  0  0  0  0  0  0
   -3.3390   24.4340  -28.9760 C   0  0  0  0  0  0  0  0  0  0  0  0
   -3.3160   23.9180  -27.6940 C   0  0  0  0  0  0  0  0  0  0  0  0
   -2.2460   24.5240  -27.0680 C   0  0  0  0  0  0  0  0  0  0  0  0
   -1.6930   25.3720  -28.0090 C   0  0  0  0  0  0  0  0  0  0  0  0
   -0.4960   26.2360  -27.8020 C   0  0  0  0  0  0  0  0  0  0  0  0
   -2.3610   25.2960  -29.1370 O   0  0  0  0  0  0  0  0  0  0  0  0
   -5.1600   23.0500  -29.9380 N   0  0  0  0  0  0  0  0  0  0  0  0
   -3.2032   21.5694  -30.9485 H   0  0  0  0  0  0  0  0  0  0  0  0
   -1.9228   20.6927  -31.8534 H   0  0  0  0  0  0  0  0  0  0  0  0
   -1.9532   22.4887  -31.8534 H   0  0  0  0  0  0  0  0  0  0  0  0
   -4.0401   22.4996  -33.1269 H   0  0  0  0  0  0  0  0  0  0  0  0
   -2.8122   21.4686  -33.9750 H   0  0  0  0  0  0  0  0  0  0  0  0
   -5.0373   20.4055  -34.0012 H   0  0  0  0  0  0  0  0  0  0  0  0
   -3.8458   19.4507  -33.0295 H   0  0  0  0  0  0  0  0  0  0  0  0
   -7.4997   19.0280  -32.6593 H   0  0  0  0  0  0  0  0  0  0  0  0
   -9.8393   19.8772  -32.6235 H   0  0  0  0  0  0  0  0  0  0  0  0
  -10.3145   22.2100  -31.8947 H   0  0  0  0  0  0  0  0  0  0  0  0
   -8.4534   23.7043  -31.1929 H   0  0  0  0  0  0  0  0  0  0  0  0
   -4.0067   23.1784  -27.2627 H   0  0  0  0  0  0  0  0  0  0  0  0
   -1.9041   24.3652  -26.0346 H   0  0  0  0  0  0  0  0  0  0  0  0
   -0.3183   26.3642  -26.7240 H   0  0  0  0  0  0  0  0  0  0  0  0
    0.3825   25.7624  -28.2646 H   0  0  0  0  0  0  0  0  0  0  0  0
   -0.6688   27.2189  -28.2646 H   0  0  0  0  0  0  0  0  0  0  0  0
  1  2  1  0
  2  3  1  0
  3  4  1  0
  4  5  1  0
  5  6  2  0
  6  7  1  0
  7  8  2  0
  8  9  1  0
  9 10  2  0
 10 11  1  0
 11 12  2  0
 12 13  1  0
 13 14  1  0
 14 15  1  0
 15 16  2  0
 16 17  1  0
 17 18  2  0
 18 19  1  0
 18 20  1  0
 14 21  2  0
 10  5  1  0
 21 11  1  0
 20 15  1  0
  1 22  1  0
  1 23  1  0
  1 24  1  0
  2 25  1  0
  2 26  1  0
  3 27  1  0
  3 28  1  0
  6 29  1  0
  7 30  1  0
  8 31  1  0
  9 32  1  0
 16 33  1  0
 17 34  1  0
 19 35  1  0
 19 36  1  0
 19 37  1  0
M  END
>  <UniqueID>  (17) 
17

>  <SMILES>  (17) 
CCCOc1ccccc1-c1noc(-c2ccc(C)o2)n1

>  <Energy>  (17) 
93.51987857490323

>  <Genealogy>  (17) 
CCCOc1ccccc1-c1noc(-c2ccc(C)o2)n1 (3D coordinates assigned)
CCCOc1ccccc1-c1noc(-c2ccc(C)o2)n1 (optimized conformer: 93.51987857490323 kcal/mol)

>  <smiles>  (17) 
CCCOc1ccccc1-c1noc(-c2ccc(C)o2)n1

>  <score_type>  (17) 
oracle

>  <origin>  (17) 
adgpu

>  <m_score__min__energy>  (17) 
-8.3100000000000005

>  <m_primary>  (17) 
energy

$$$$
17:0
     RDKit          3D

 39 41  0  0  1  0  0  0  0  0999 V2000
   -3.3330   16.3270  -35.3100 C   0  0  0  0  0  0  0  0  0  0  0  0
   -4.6210   16.0710  -34.7740 O   0  0  0  0  0  0  0  0  0  0  0  0
   -5.3780   17.0650  -34.1790 C   0  0  0  0  0  0  0  0  0  0  0  0
   -6.1540   16.8730  -33.0580 C   0  0  0  0  0  0  0  0  0  0  0  0
   -6.8970   17.9260  -32.5080 C   0  0  0  0  0  0  0  0  0  0  0  0
   -6.8860   19.1910  -33.0540 C   0  0  0  0  0  0  0  0  0  0  0  0
   -7.6560   20.2900  -32.4860 C   0  0  0  0  0  0  0  0  0  0  0  0
   -7.1510   21.5670  -32.3370 C   0  0  0  0  0  0  0  0  0  0  0  0
   -7.8970   22.5980  -31.7950 C   0  0  0  0  0  0  0  0  0  0  0  0
   -7.4190   23.7780  -31.6620 N   0  0  0  0  0  0  0  0  0  0  0  0
   -6.0930   24.1330  -32.0530 C   0  0  0  0  0  0  0  0  0  0  0  0
   -5.1530   24.3060  -30.9030 C   0  0  0  0  0  0  0  0  0  0  0  0
   -5.2460   23.7180  -29.6370 C   0  0  0  0  0  0  0  0  0  0  0  0
   -4.1850   24.1300  -28.8560 C   0  0  0  0  0  0  0  0  0  0  0  0
   -3.9350   23.7200  -27.4490 C   0  0  0  0  0  0  0  0  0  0  0  0
   -3.4690   24.9530  -29.6470 N   0  0  0  0  0  0  0  0  0  0  0  0
   -4.0350   25.0530  -30.8350 N   0  0  0  0  0  0  0  0  0  0  0  0
   -9.1580   22.3520  -31.3980 N   0  0  0  0  0  0  0  0  0  0  0  0
   -9.6680   21.1110  -31.5350 C   0  0  0  0  0  0  0  0  0  0  0  0
   -8.9280   20.1030  -32.0690 N   0  0  0  0  0  0  0  0  0  0  0  0
   -6.0990   19.3650  -34.1820 C   0  0  0  0  0  0  0  0  0  0  0  0
   -5.3670   18.3290  -34.7240 C   0  0  0  0  0  0  0  0  0  0  0  0
   -2.6156   16.4696  -34.4884 H   0  0  0  0  0  0  0  0  0  0  0  0
   -3.0171   15.4741  -35.9287 H   0  0  0  0  0  0  0  0  0  0  0  0
   -3.3673   17.2359  -35.9287 H   0  0  0  0  0  0  0  0  0  0  0  0
   -6.1912   15.8793  -32.5877 H   0  0  0  0  0  0  0  0  0  0  0  0
   -7.5078   17.7369  -31.6129 H   0  0  0  0  0  0  0  0  0  0  0  0
   -6.1197   21.7711  -32.6606 H   0  0  0  0  0  0  0  0  0  0  0  0
   -5.6998   23.3405  -32.7067 H   0  0  0  0  0  0  0  0  0  0  0  0
   -6.1580   25.1049  -32.5640 H   0  0  0  0  0  0  0  0  0  0  0  0
   -6.0428   23.0322  -29.3134 H   0  0  0  0  0  0  0  0  0  0  0  0
   -4.3843   24.4569  -26.7670 H   0  0  0  0  0  0  0  0  0  0  0  0
   -4.3847   22.7323  -27.2695 H   0  0  0  0  0  0  0  0  0  0  0  0
   -2.8510   23.6675  -27.2695 H   0  0  0  0  0  0  0  0  0  0  0  0
   -3.6350   25.6450  -31.5950 H   0  0  0  0  0  0  0  0  0  0  0  0
  -10.6995   20.9110  -31.2094 H   0  0  0  0  0  0  0  0  0  0  0  0
   -9.4220   19.1860  -32.1280 H   0  0  0  0  0  0  0  0  0  0  0  0
   -6.0571   20.3560  -34.6576 H   0  0  0  0  0  0  0  0  0  0  0  0
   -4.7560   18.5187  -35.6188 H   0  0  0  0  0  0  0  0  0  0  0  0
  1  2  1  0
  2  3  1  0
  3  4  2  0
  4  5  1  0
  5  6  2  0
  6  7  1  0
  7  8  2  0
  8  9  1  0
  9 10  2  0
 10 11  1  0
 11 12  1  0
 12 13  2  0
 13 14  1  0
 14 15  1  0
 14 16  2  0
 16 17  1  0
  9 18  1  0
 18 19  2  0
 19 20  1  0
  6 21  1  0
 21 22  2  0
 22  3  1  0
 20  7  1  0
 17 12  1  0
  1 23  1  0
  1 24  1  0
  1 25  1  0
  4 26  1  0
  5 27  1  0
  8 28  1  0
 11 29  1  0
 11 30  1  0
 13 31  1  0
 15 32  1  0
 15 33  1  0
 15 34  1  0
 17 35  1  0
 19 36  1  0
 20 37  1  0
 21 38  1  0
 22 39  1  0
M  END
>  <smiles>  (18) 
COc1ccc(-c2cc(=NCc3cc(C)n[nH]3)nc[nH]2)cc1

>  <score_type>  (18) 
oracle

>  <origin>  (18) 
adgpu

>  <m_score__min__energy>  (18) 
-8.5

>  <m_primary>  (18) 
energy

$$$$
18:0
     RDKit          3D

 40 43  0  0  0  0  0  0  0  0999 V2000
   -3.2656   21.9496  -28.5218 H   0  0  0  0  0  0  0  0  0  0  0  0
   -2.5900   22.8020  -28.6860 C   0  0  0  0  0  0  0  0  0  0  0  0
   -2.2260   23.1140  -29.8920 N   0  0  0  0  0  0  0  0  0  0  0  0
   -2.6440   22.4180  -31.0440 N   0  0  0  0  0  0  0  0  0  0  0  0
   -3.8950   22.5710  -31.5730 C   0  0  0  0  0  0  0  0  0  0  0  0
   -4.9530   23.3800  -30.9270 C   0  0  0  0  0  0  0  0  0  0  0  0
   -6.2000   22.7950  -30.6470 C   0  0  0  0  0  0  0  0  0  0  0  0
   -6.3780   21.7394  -30.8999 H   0  0  0  0  0  0  0  0  0  0  0  0
   -7.2150   23.5470  -30.0490 C   0  0  0  0  0  0  0  0  0  0  0  0
   -8.1897   23.0833  -29.8371 H   0  0  0  0  0  0  0  0  0  0  0  0
   -6.9940   24.8860  -29.7200 C   0  0  0  0  0  0  0  0  0  0  0  0
   -7.7973   25.4784  -29.2577 H   0  0  0  0  0  0  0  0  0  0  0  0
   -5.7520   25.4740  -29.9780 C   0  0  0  0  0  0  0  0  0  0  0  0
   -5.5789   26.5278  -29.7142 H   0  0  0  0  0  0  0  0  0  0  0  0
   -4.7280   24.7260  -30.5710 C   0  0  0  0  0  0  0  0  0  0  0  0
   -3.4880   25.3190  -30.7790 O   0  0  0  0  0  0  0  0  0  0  0  0
   -4.0980   21.9170  -32.7870 C   0  0  0  0  0  0  0  0  0  0  0  0
   -5.0319   21.9106  -33.3682 H   0  0  0  0  0  0  0  0  0  0  0  0
   -2.6690   21.1400  -33.2090 S   0  0  0  0  0  0  0  0  0  0  0  0
   -1.8410   21.6560  -31.8330 C   0  0  0  0  0  0  0  0  0  0  0  0
   -0.5690   21.4850  -31.6030 N   0  0  0  0  0  0  0  0  0  0  0  0
    0.3440   20.6930  -32.3780 C   0  0  0  0  0  0  0  0  0  0  0  0
    0.8800   19.5320  -31.8110 C   0  0  0  0  0  0  0  0  0  0  0  0
    0.6222   19.2595  -30.7769 H   0  0  0  0  0  0  0  0  0  0  0  0
    1.7410   18.7160  -32.5500 C   0  0  0  0  0  0  0  0  0  0  0  0
    2.1725   17.8152  -32.0892 H   0  0  0  0  0  0  0  0  0  0  0  0
    2.0560   19.0410  -33.8740 C   0  0  0  0  0  0  0  0  0  0  0  0
    3.1420   17.9910  -34.7740 Cl  0  0  0  0  0  0  0  0  0  0  0  0
    1.4940   20.1860  -34.4630 C   0  0  0  0  0  0  0  0  0  0  0  0
    1.8380   20.6130  -36.1340 Cl  0  0  0  0  0  0  0  0  0  0  0  0
    0.6320   21.0010  -33.7200 C   0  0  0  0  0  0  0  0  0  0  0  0
    0.1775   21.8868  -34.1879 H   0  0  0  0  0  0  0  0  0  0  0  0
   -2.1060   23.5790  -27.5420 C   0  0  0  0  0  0  0  0  0  0  0  0
   -0.7540   23.1900  -26.6220 S   0  0  0  0  0  0  0  0  0  0  0  0
   -0.8720   24.4910  -25.5640 C   0  0  0  0  0  0  0  0  0  0  0  0
   -0.1883   24.7062  -24.7296 H   0  0  0  0  0  0  0  0  0  0  0  0
   -1.9800   25.2480  -25.9230 C   0  0  0  0  0  0  0  0  0  0  0  0
   -2.2844   26.1603  -25.3891 H   0  0  0  0  0  0  0  0  0  0  0  0
   -2.6730   24.7400  -27.0290 C   0  0  0  0  0  0  0  0  0  0  0  0
   -3.5738   25.2115  -27.4488 H   0  0  0  0  0  0  0  0  0  0  0  0
  1  2  1  0
  2  3  2  0
  3  4  1  0
  4  5  1  0
  5  6  1  0
  6  7  2  0
  7  8  1  0
  7  9  1  0
  9 10  1  0
  9 11  2  0
 11 12  1  0
 11 13  1  0
 13 14  1  0
 13 15  2  0
 15 16  1  0
  5 17  2  0
 17 18  1  0
 17 19  1  0
 19 20  1  0
 20 21  2  0
 21 22  1  0
 22 23  2  0
 23 24  1  0
 23 25  1  0
 25 26  1  0
 25 27  2  0
 27 28  1  0
 27 29  1  0
 29 30  1  0
 29 31  2  0
 31 32  1  0
  2 33  1  0
 33 34  1  0
 34 35  1  0
 35 36  1  0
 35 37  2  0
 37 38  1  0
 37 39  1  0
 39 40  1  0
 20  4  1  0
 31 22  1  0
 39 33  2  0
 15  6  1  0
M  CHG  1  16  -1
M  END
>  <UniqueID>  (19) 
18

>  <SMILES>  (19) 
[O-]c1ccccc1-c1cs/c(=N\c2ccc(Cl)c(Cl)c2)n1/N=C/c1cccs1

>  <Energy>  (19) 
118.72811097837683

>  <Genealogy>  (19) 
[O-]c1ccccc1-c1csc(=Nc2ccc(Cl)c(Cl)c2)n1N=Cc1cccs1 (protonated)
[O-]c1ccccc1-c1cs/c(=N\c2ccc(Cl)c(Cl)c2)n1/N=C/c1cccs1 (cis-trans isomerization)
[O-]c1ccccc1-c1cs/c(=N\c2ccc(Cl)c(Cl)c2)n1/N=C/c1cccs1 (3D coordinates assigned)
[O-]c1ccccc1-c1cs/c(=N\c2ccc(Cl)c(Cl)c2)n1/N=C/c1cccs1 (optimized conformer: 118.72811097837683 kcal/mol)

>  <smiles>  (19) 
Oc1ccccc1-c1csc(=Nc2ccc(Cl)c(Cl)c2)n1N=Cc1cccs1

>  <score_type>  (19) 
oracle

>  <origin>  (19) 
adgpu

>  <m_score__min__energy>  (19) 
-11.19

>  <m_primary>  (19) 
energy

$$$$
19:0
     RDKit          3D

 34 35  0  0  0  0  0  0  0  0999 V2000
   -0.4920   26.4390  -23.4710 C   0  0  0  0  0  0  0  0  0  0  0  0
   -0.6440   26.8220  -24.8330 O   0  0  0  0  0  0  0  0  0  0  0  0
   -0.4440   25.9340  -25.8940 C   0  0  0  0  0  0  0  0  0  0  0  0
    0.7280   25.6070  -26.2310 O   0  0  0  0  0  0  0  0  0  0  0  0
   -1.6080   25.3810  -26.6220 C   0  0  0  0  0  0  0  0  0  0  0  0
   -1.4550   24.8730  -27.9230 C   0  0  0  0  0  0  0  0  0  0  0  0
   -2.5530   24.3510  -28.6130 C   0  0  0  0  0  0  0  0  0  0  0  0
   -3.8200   24.3120  -28.0140 C   0  0  0  0  0  0  0  0  0  0  0  0
   -4.9360   23.7900  -28.7550 N   0  0  0  0  0  0  0  0  0  0  0  0
   -5.0370   23.8250  -30.1880 C   0  0  0  0  0  0  0  0  0  0  0  0
   -4.2610   24.5550  -30.8610 O   0  0  0  0  0  0  0  0  0  0  0  0
   -6.0530   22.9990  -30.8800 C   0  0  0  0  0  0  0  0  0  0  0  0
   -7.2850   22.7740  -30.2380 C   0  0  0  0  0  0  0  0  0  0  0  0
   -8.2490   21.9480  -30.8170 C   0  0  0  0  0  0  0  0  0  0  0  0
   -7.9990   21.3330  -32.0420 C   0  0  0  0  0  0  0  0  0  0  0  0
   -6.7870   21.5530  -32.7000 C   0  0  0  0  0  0  0  0  0  0  0  0
   -5.8110   22.3930  -32.1400 C   0  0  0  0  0  0  0  0  0  0  0  0
   -4.6160   22.6550  -32.8880 N   0  0  0  0  0  0  0  0  0  0  0  0
   -3.9800   24.8400  -26.7210 C   0  0  0  0  0  0  0  0  0  0  0  0
   -2.8840   25.3640  -26.0300 C   0  0  0  0  0  0  0  0  0  0  0  0
   -0.8190   27.2630  -22.8197 H   0  0  0  0  0  0  0  0  0  0  0  0
   -1.1046   25.5477  -23.2702 H   0  0  0  0  0  0  0  0  0  0  0  0
    0.5651   26.2103  -23.2702 H   0  0  0  0  0  0  0  0  0  0  0  0
   -0.4647   24.8861  -28.4018 H   0  0  0  0  0  0  0  0  0  0  0  0
   -2.4217   23.9673  -29.6355 H   0  0  0  0  0  0  0  0  0  0  0  0
   -5.7660   23.4510  -28.2170 H   0  0  0  0  0  0  0  0  0  0  0  0
   -7.4901   23.2542  -29.2698 H   0  0  0  0  0  0  0  0  0  0  0  0
   -9.2084   21.7820  -30.3052 H   0  0  0  0  0  0  0  0  0  0  0  0
   -8.7566   20.6739  -32.4910 H   0  0  0  0  0  0  0  0  0  0  0  0
   -6.5951   21.0636  -33.6662 H   0  0  0  0  0  0  0  0  0  0  0  0
   -4.5820   22.4610  -33.9140 H   0  0  0  0  0  0  0  0  0  0  0  0
   -3.7970   23.1460  -32.4700 H   0  0  0  0  0  0  0  0  0  0  0  0
   -4.9741   24.8407  -26.2501 H   0  0  0  0  0  0  0  0  0  0  0  0
   -3.0202   25.7663  -25.0153 H   0  0  0  0  0  0  0  0  0  0  0  0
  1  2  1  0
  2  3  1  0
  3  4  2  0
  3  5  1  0
  5  6  2  0
  6  7  1  0
  7  8  2  0
  8  9  1  0
  9 10  1  0
 10 11  2  0
 10 12  1  0
 12 13  2  0
 13 14  1  0
 14 15  2  0
 15 16  1  0
 16 17  2  0
 17 18  1  0
  8 19  1  0
 19 20  2  0
 20  5  1  0
 17 12  1  0
  1 21  1  0
  1 22  1  0
  1 23  1  0
  6 24  1  0
  7 25  1  0
  9 26  1  0
 13 27  1  0
 14 28  1  0
 15 29  1  0
 16 30  1  0
 18 31  1  0
 18 32  1  0
 19 33  1  0
 20 34  1  0
M  END
>  <UniqueID>  (20) 
19

>  <SMILES>  (20) 
COC(=O)c1ccc(NC(=O)c2ccccc2N)cc1

>  <Energy>  (20) 
41.75948644679919

>  <Genealogy>  (20) 
COC(=O)c1ccc(NC(=O)c2ccccc2N)cc1 (3D coordinates assigned)
COC(=O)c1ccc(NC(=O)c2ccccc2N)cc1 (optimized conformer: 41.75948644679919 kcal/mol)

>  <smiles>  (20) 
COC(=O)c1ccc(NC(=O)c2ccccc2N)cc1

>  <score_type>  (20) 
oracle

>  <origin>  (20) 
adgpu

>  <m_score__min__energy>  (20) 
-6.8600000000000003

>  <m_primary>  (20) 
energy

$$$$
20:0
     RDKit          3D

 54 56  0  0  0  0  0  0  0  0999 V2000
   -0.1390   23.4010  -26.2370 C   0  0  0  0  0  0  0  0  0  0  0  0
   -0.2660   23.8040  -27.6760 C   0  0  0  0  0  0  0  0  0  0  0  0
    0.7550   24.2650  -28.2550 O   0  0  0  0  0  0  0  0  0  0  0  0
   -1.5370   23.6660  -28.4410 C   0  0  0  0  0  0  0  0  0  0  0  0
   -2.1330   22.3950  -28.5420 C   0  0  0  0  0  0  0  0  0  0  0  0
   -3.3260   22.2150  -29.2470 C   0  0  0  0  0  0  0  0  0  0  0  0
   -3.9520   23.3020  -29.8750 C   0  0  0  0  0  0  0  0  0  0  0  0
   -5.1970   23.1120  -30.6530 C   0  0  0  0  0  0  0  0  0  0  0  0
   -5.2350   23.4710  -31.8620 O   0  0  0  0  0  0  0  0  0  0  0  0
   -6.3720   22.5470  -30.0480 N   0  0  0  0  0  0  0  0  0  0  0  0
   -7.3860   21.8910  -30.8230 C   0  0  0  0  0  0  0  0  0  0  0  0
   -8.5470   22.5820  -31.1920 C   0  0  0  0  0  0  0  0  0  0  0  0
   -9.5200   21.9500  -31.9720 C   0  0  0  0  0  0  0  0  0  0  0  0
   -9.3490   20.6200  -32.3720 C   0  0  0  0  0  0  0  0  0  0  0  0
   -8.2080   19.9030  -31.9760 C   0  0  0  0  0  0  0  0  0  0  0  0
   -8.0360   18.4560  -32.3670 C   0  0  0  0  0  0  0  0  0  0  0  0
   -6.6280   18.1540  -32.6180 N   0  0  0  0  0  0  0  0  0  0  0  0
   -6.1070   17.7950  -33.9010 C   0  0  0  0  0  0  0  0  0  0  0  0
   -6.5140   16.7420  -34.4570 O   0  0  0  0  0  0  0  0  0  0  0  0
   -5.1000   18.6060  -34.5230 N   0  0  0  0  0  0  0  0  0  0  0  0
   -4.0740   19.3700  -33.8720 C   0  0  0  0  0  0  0  0  0  0  0  0
   -4.3010   20.6650  -33.3790 C   0  0  0  0  0  0  0  0  0  0  0  0
   -3.3020   21.3320  -32.6670 C   0  0  0  0  0  0  0  0  0  0  0  0
   -2.0670   20.7130  -32.4140 C   0  0  0  0  0  0  0  0  0  0  0  0
   -1.0190   21.4520  -31.6250 C   0  0  0  0  0  0  0  0  0  0  0  0
   -1.8340   19.4070  -32.9030 C   0  0  0  0  0  0  0  0  0  0  0  0
   -0.5380   18.6900  -32.6260 C   0  0  0  0  0  0  0  0  0  0  0  0
   -2.8440   18.7510  -33.6250 C   0  0  0  0  0  0  0  0  0  0  0  0
   -7.2360   20.5460  -31.1930 C   0  0  0  0  0  0  0  0  0  0  0  0
   -3.3610   24.5700  -29.7840 C   0  0  0  0  0  0  0  0  0  0  0  0
   -2.1770   24.7620  -29.0640 C   0  0  0  0  0  0  0  0  0  0  0  0
   -1.6660   26.0510  -28.9660 O   0  0  0  0  0  0  0  0  0  0  0  0
   -0.4070   24.2515  -25.5930 H   0  0  0  0  0  0  0  0  0  0  0  0
   -0.8150   22.5580  -26.0313 H   0  0  0  0  0  0  0  0  0  0  0  0
    0.8982   23.0979  -26.0313 H   0  0  0  0  0  0  0  0  0  0  0  0
   -1.6529   21.5311  -28.0591 H   0  0  0  0  0  0  0  0  0  0  0  0
   -3.7774   21.2139  -29.3100 H   0  0  0  0  0  0  0  0  0  0  0  0
   -6.5400   22.7030  -29.0270 H   0  0  0  0  0  0  0  0  0  0  0  0
   -8.6934   23.6229  -30.8678 H   0  0  0  0  0  0  0  0  0  0  0  0
  -10.4237   22.5005  -32.2725 H   0  0  0  0  0  0  0  0  0  0  0  0
  -10.1111   20.1342  -32.9990 H   0  0  0  0  0  0  0  0  0  0  0  0
   -8.4033   17.8153  -31.5518 H   0  0  0  0  0  0  0  0  0  0  0  0
   -8.6084   18.2672  -33.2872 H   0  0  0  0  0  0  0  0  0  0  0  0
   -5.2696   21.1560  -33.5544 H   0  0  0  0  0  0  0  0  0  0  0  0
   -3.4842   22.3530  -32.3004 H   0  0  0  0  0  0  0  0  0  0  0  0
   -1.2079   21.3188  -30.5496 H   0  0  0  0  0  0  0  0  0  0  0  0
   -0.0241   21.0546  -31.8745 H   0  0  0  0  0  0  0  0  0  0  0  0
   -1.0593   22.5226  -31.8745 H   0  0  0  0  0  0  0  0  0  0  0  0
   -0.3895   18.6078  -31.5392 H   0  0  0  0  0  0  0  0  0  0  0  0
   -0.5740   17.6835  -33.0683 H   0  0  0  0  0  0  0  0  0  0  0  0
    0.2956   19.2553  -33.0683 H   0  0  0  0  0  0  0  0  0  0  0  0
   -2.6651   17.7335  -34.0027 H   0  0  0  0  0  0  0  0  0  0  0  0
   -6.3461   19.9885  -30.8657 H   0  0  0  0  0  0  0  0  0  0  0  0
   -3.8351   25.4263  -30.2860 H   0  0  0  0  0  0  0  0  0  0  0  0
  1  2  1  0
  2  3  2  0
  2  4  1  0
  4  5  2  0
  5  6  1  0
  6  7  2  0
  7  8  1  0
  8  9  2  0
  8 10  1  0
 10 11  1  0
 11 12  2  0
 12 13  1  0
 13 14  2  0
 14 15  1  0
 15 16  1  0
 16 17  1  0
 17 18  1  0
 18 19  2  0
 18 20  1  0
 20 21  1  0
 21 22  2  0
 22 23  1  0
 23 24  2  0
 24 25  1  0
 24 26  1  0
 26 27  1  0
 26 28  2  0
 15 29  2  0
  7 30  1  0
 30 31  2  0
 31 32  1  0
 31  4  1  0
 29 11  1  0
 28 21  1  0
  1 33  1  0
  1 34  1  0
  1 35  1  0
  5 36  1  0
  6 37  1  0
 10 38  1  0
 12 39  1  0
 13 40  1  0
 14 41  1  0
 16 42  1  0
 16 43  1  0
 22 44  1  0
 23 45  1  0
 25 46  1  0
 25 47  1  0
 25 48  1  0
 27 49  1  0
 27 50  1  0
 27 51  1  0
 28 52  1  0
 29 53  1  0
 30 54  1  0
M  CHG  3  17  -1  20  -1  32  -1
M  END
>  <UniqueID>  (21) 
20

>  <SMILES>  (21) 
CC(=O)c1ccc(C(=O)Nc2cccc(C[N-]C(=O)[N-]c3ccc(C)c(C)c3)c2)cc1[O-]

>  <Energy>  (21) 
62.67489543520307

>  <Genealogy>  (21) 
CC(=O)c1ccc(C(=O)Nc2cccc(C[N-]C(=O)[N-]c3ccc(C)c(C)c3)c2)cc1[O-] (protonated)
CC(=O)c1ccc(C(=O)Nc2cccc(C[N-]C(=O)[N-]c3ccc(C)c(C)c3)c2)cc1[O-] (3D coordinates assigned)
CC(=O)c1ccc(C(=O)Nc2cccc(C[N-]C(=O)[N-]c3ccc(C)c(C)c3)c2)cc1[O-] (optimized conformer: 62.67489543520307 kcal/mol)

>  <smiles>  (21) 
CC(=O)c1ccc(C(=O)Nc2cccc(CNC(=O)Nc3ccc(C)c(C)c3)c2)cc1O

>  <score_type>  (21) 
oracle

>  <origin>  (21) 
adgpu

>  <m_score__min__energy>  (21) 
-13.76

>  <m_primary>  (21) 
energy

$$$$
21:0
     RDKit          3D

 44 47  0  0  0  0  0  0  0  0999 V2000
    1.4560   20.8150  -34.2020 C   0  0  0  0  0  0  0  0  0  0  0  0
    0.8800   20.8800  -32.8620 N   0  0  0  0  0  0  0  0  0  0  0  0
   -0.5060   21.1730  -32.6070 C   0  0  0  0  0  0  0  0  0  0  0  0
   -0.9550   21.5830  -31.3370 C   0  0  0  0  0  0  0  0  0  0  0  0
   -2.3080   21.8600  -31.1210 C   0  0  0  0  0  0  0  0  0  0  0  0
   -3.2360   21.7380  -32.1670 C   0  0  0  0  0  0  0  0  0  0  0  0
   -4.6750   22.0200  -31.9370 C   0  0  0  0  0  0  0  0  0  0  0  0
   -5.6370   21.0920  -32.3600 C   0  0  0  0  0  0  0  0  0  0  0  0
   -6.9730   21.3070  -32.1560 N   0  0  0  0  0  0  0  0  0  0  0  0
   -7.9290   20.2700  -32.5830 C   0  0  0  0  0  0  0  0  0  0  0  0
   -7.1940   19.0270  -33.0100 C   0  0  0  0  0  0  0  0  0  0  0  0
   -6.4720   19.0120  -34.2150 C   0  0  0  0  0  0  0  0  0  0  0  0
   -5.7610   17.8690  -34.5960 C   0  0  0  0  0  0  0  0  0  0  0  0
   -5.7590   16.7390  -33.7760 C   0  0  0  0  0  0  0  0  0  0  0  0
   -6.4680   16.7490  -32.5710 C   0  0  0  0  0  0  0  0  0  0  0  0
   -7.1810   17.8880  -32.1870 C   0  0  0  0  0  0  0  0  0  0  0  0
   -7.4090   22.4430  -31.5200 C   0  0  0  0  0  0  0  0  0  0  0  0
   -8.6420   22.6270  -31.3220 O   0  0  0  0  0  0  0  0  0  0  0  0
   -6.4820   23.4100  -31.0890 C   0  0  0  0  0  0  0  0  0  0  0  0
   -6.8760   24.5990  -30.4530 C   0  0  0  0  0  0  0  0  0  0  0  0
   -5.9410   25.5070  -30.0740 N   0  0  0  0  0  0  0  0  0  0  0  0
   -4.6210   25.2890  -30.3000 C   0  0  0  0  0  0  0  0  0  0  0  0
   -4.2140   24.1460  -30.9100 N   0  0  0  0  0  0  0  0  0  0  0  0
   -5.1070   23.1970  -31.3030 C   0  0  0  0  0  0  0  0  0  0  0  0
   -2.7900   21.3200  -33.4310 C   0  0  0  0  0  0  0  0  0  0  0  0
   -1.4380   21.0430  -33.6470 C   0  0  0  0  0  0  0  0  0  0  0  0
    2.5465   20.6919  -34.1268 H   0  0  0  0  0  0  0  0  0  0  0  0
    1.0270   19.9596  -34.7444 H   0  0  0  0  0  0  0  0  0  0  0  0
    1.2284   21.7445  -34.7444 H   0  0  0  0  0  0  0  0  0  0  0  0
    1.5170   20.7000  -32.0530 H   0  0  0  0  0  0  0  0  0  0  0  0
   -0.2369   21.6859  -30.5101 H   0  0  0  0  0  0  0  0  0  0  0  0
   -2.6480   22.1760  -30.1237 H   0  0  0  0  0  0  0  0  0  0  0  0
   -5.3110   20.1716  -32.8666 H   0  0  0  0  0  0  0  0  0  0  0  0
   -8.5984   20.0261  -31.7449 H   0  0  0  0  0  0  0  0  0  0  0  0
   -8.5139   20.6503  -33.4334 H   0  0  0  0  0  0  0  0  0  0  0  0
   -6.4657   19.9021  -34.8612 H   0  0  0  0  0  0  0  0  0  0  0  0
   -5.2024   17.8605  -35.5436 H   0  0  0  0  0  0  0  0  0  0  0  0
   -5.1998   15.8411  -34.0779 H   0  0  0  0  0  0  0  0  0  0  0  0
   -6.4646   15.8592  -31.9243 H   0  0  0  0  0  0  0  0  0  0  0  0
   -7.7344   17.8930  -31.2364 H   0  0  0  0  0  0  0  0  0  0  0  0
   -7.9416   24.7941  -30.2623 H   0  0  0  0  0  0  0  0  0  0  0  0
   -3.8793   26.0393  -29.9886 H   0  0  0  0  0  0  0  0  0  0  0  0
   -3.5093   21.2100  -34.2559 H   0  0  0  0  0  0  0  0  0  0  0  0
   -1.1009   20.7196  -34.6429 H   0  0  0  0  0  0  0  0  0  0  0  0
  1  2  1  0
  2  3  1  0
  3  4  2  0
  4  5  1  0
  5  6  2  0
  6  7  1  0
  7  8  2  0
  8  9  1  0
  9 10  1  0
 10 11  1  0
 11 12  2  0
 12 13  1  0
 13 14  2  0
 14 15  1  0
 15 16  2  0
  9 17  1  0
 17 18  2  0
 17 19  1  0
 19 20  2  0
 20 21  1  0
 21 22  2  0
 22 23  1  0
 23 24  2  0
  6 25  1  0
 25 26  2  0
 26  3  1  0
 24  7  1  0
 16 11  1  0
 24 19  1  0
  1 27  1  0
  1 28  1  0
  1 29  1  0
  2 30  1  0
  4 31  1  0
  5 32  1  0
  8 33  1  0
 10 34  1  0
 10 35  1  0
 12 36  1  0
 13 37  1  0
 14 38  1  0
 15 39  1  0
 16 40  1  0
 20 41  1  0
 22 42  1  0
 25 43  1  0
 26 44  1  0
M  END
>  <UniqueID>  (22) 
21

>  <SMILES>  (22) 
CNc1ccc(-c2cn(Cc3ccccc3)c(=O)c3cncnc23)cc1

>  <Energy>  (22) 
60.55679712433725

>  <Genealogy>  (22) 
CNc1ccc(-c2cn(Cc3ccccc3)c(=O)c3cncnc23)cc1 (3D coordinates assigned)
CNc1ccc(-c2cn(Cc3ccccc3)c(=O)c3cncnc23)cc1 (optimized conformer: 60.55679712433725 kcal/mol)

>  <smiles>  (22) 
CNc1ccc(-c2cn(Cc3ccccc3)c(=O)c3cncnc23)cc1

>  <score_type>  (22) 
oracle

>  <origin>  (22) 
adgpu

>  <m_score__min__energy>  (22) 
-8.5999999999999996

>  <m_primary>  (22) 
energy

$$$$
22:0
     RDKit          3D

 50 53  0  0  0  0  0  0  0  0999 V2000
   -5.5153   14.9225  -34.3382 H   0  0  0  0  0  0  0  0  0  0  0  0
   -5.6160   16.0060  -34.1770 C   0  0  0  0  0  0  0  0  0  0  0  0
   -6.5610   16.4820  -33.3270 N   0  0  0  0  0  0  0  0  0  0  0  0
   -6.7130   17.8150  -33.1100 C   0  0  0  0  0  0  0  0  0  0  0  0
   -7.6410   18.2080  -32.2820 N   0  0  0  0  0  0  0  0  0  0  0  0
   -8.0440   19.5570  -31.9950 C   0  0  0  0  0  0  0  0  0  0  0  0
   -9.3670   19.9380  -32.2420 C   0  0  0  0  0  0  0  0  0  0  0  0
  -10.0911   19.1963  -32.6102 H   0  0  0  0  0  0  0  0  0  0  0  0
   -9.7720   21.2560  -32.0230 C   0  0  0  0  0  0  0  0  0  0  0  0
  -10.8167   21.5462  -32.2085 H   0  0  0  0  0  0  0  0  0  0  0  0
   -8.8550   22.2080  -31.5690 C   0  0  0  0  0  0  0  0  0  0  0  0
   -9.1846   23.2415  -31.3866 H   0  0  0  0  0  0  0  0  0  0  0  0
   -7.5130   21.8520  -31.3440 C   0  0  0  0  0  0  0  0  0  0  0  0
   -6.5360   22.8520  -30.8430 C   0  0  0  0  0  0  0  0  0  0  0  0
   -5.1580   22.6430  -31.0230 C   0  0  0  0  0  0  0  0  0  0  0  0
   -4.8079   21.7379  -31.5408 H   0  0  0  0  0  0  0  0  0  0  0  0
   -4.2220   23.5790  -30.5480 C   0  0  0  0  0  0  0  0  0  0  0  0
   -2.8090   23.3750  -30.6900 N   0  0  0  0  0  0  0  0  0  0  0  0
   -1.8320   23.4290  -29.6420 C   0  0  0  0  0  0  0  0  0  0  0  0
   -1.3250   24.5360  -29.3070 O   0  0  0  0  0  0  0  0  0  0  0  0
   -1.4490   22.1940  -28.9170 C   0  0  0  0  0  0  0  0  0  0  0  0
   -0.1160   21.7460  -28.9270 C   0  0  0  0  0  0  0  0  0  0  0  0
    0.6508   22.3245  -29.4630 H   0  0  0  0  0  0  0  0  0  0  0  0
    0.2410   20.5700  -28.2600 C   0  0  0  0  0  0  0  0  0  0  0  0
    1.2852   20.2246  -28.2782 H   0  0  0  0  0  0  0  0  0  0  0  0
   -0.7240   19.8330  -27.5710 C   0  0  0  0  0  0  0  0  0  0  0  0
   -0.4390   18.9050  -27.0538 H   0  0  0  0  0  0  0  0  0  0  0  0
   -2.0560   20.2720  -27.5360 C   0  0  0  0  0  0  0  0  0  0  0  0
   -3.1040   19.4540  -26.8420 C   0  0  0  0  0  0  0  0  0  0  0  0
   -2.9819   19.5493  -25.7530 H   0  0  0  0  0  0  0  0  0  0  0  0
   -4.1020   19.8144  -27.1320 H   0  0  0  0  0  0  0  0  0  0  0  0
   -2.9968   18.3983  -27.1320 H   0  0  0  0  0  0  0  0  0  0  0  0
   -2.4150   21.4430  -28.2220 C   0  0  0  0  0  0  0  0  0  0  0  0
   -3.4630   21.7772  -28.2162 H   0  0  0  0  0  0  0  0  0  0  0  0
   -4.6720   24.7080  -29.8570 C   0  0  0  0  0  0  0  0  0  0  0  0
   -3.9434   25.4277  -29.4557 H   0  0  0  0  0  0  0  0  0  0  0  0
   -6.0430   24.9310  -29.6710 C   0  0  0  0  0  0  0  0  0  0  0  0
   -6.4920   26.0960  -28.9730 N   0  0  0  0  0  0  0  0  0  0  0  0
   -5.8220   26.6850  -28.4280 H   0  0  0  0  0  0  0  0  0  0  0  0
   -7.4960   26.3820  -29.0010 H   0  0  0  0  0  0  0  0  0  0  0  0
   -6.9700   24.0060  -30.1680 C   0  0  0  0  0  0  0  0  0  0  0  0
   -8.0465   24.1842  -30.0289 H   0  0  0  0  0  0  0  0  0  0  0  0
   -7.1120   20.5260  -31.5870 C   0  0  0  0  0  0  0  0  0  0  0  0
   -6.0567   20.2444  -31.4561 H   0  0  0  0  0  0  0  0  0  0  0  0
   -5.8700   18.6970  -33.7350 N   0  0  0  0  0  0  0  0  0  0  0  0
   -5.9010   19.7200  -33.5380 H   0  0  0  0  0  0  0  0  0  0  0  0
   -4.9180   18.2540  -34.6000 C   0  0  0  0  0  0  0  0  0  0  0  0
   -4.2598   18.9744  -35.1077 H   0  0  0  0  0  0  0  0  0  0  0  0
   -4.7750   16.8910  -34.8440 C   0  0  0  0  0  0  0  0  0  0  0  0
   -4.0145   16.5222  -35.5480 H   0  0  0  0  0  0  0  0  0  0  0  0
  1  2  1  0
  2  3  2  0
  3  4  1  0
  4  5  2  0
  5  6  1  0
  6  7  2  0
  7  8  1  0
  7  9  1  0
  9 10  1  0
  9 11  2  0
 11 12  1  0
 11 13  1  0
 13 14  1  0
 14 15  2  0
 15 16  1  0
 15 17  1  0
 17 18  1  0
 18 19  1  0
 19 20  2  0
 19 21  1  0
 21 22  2  0
 22 23  1  0
 22 24  1  0
 24 25  1  0
 24 26  2  0
 26 27  1  0
 26 28  1  0
 28 29  1  0
 29 30  1  0
 29 31  1  0
 29 32  1  0
 28 33  2  0
 33 34  1  0
 17 35  2  0
 35 36  1  0
 35 37  1  0
 37 38  1  0
 38 39  1  0
 38 40  1  0
 37 41  2  0
 41 42  1  0
 13 43  2  0
 43 44  1  0
  4 45  1  0
 45 46  1  0
 45 47  1  0
 47 48  1  0
 47 49  2  0
 49 50  1  0
 49  2  1  0
 43  6  1  0
 41 14  1  0
 33 21  1  0
M  CHG  1  18  -1
M  END
>  <UniqueID>  (23) 
22

>  <SMILES>  (23) 
Cc1cccc(C(=O)[N-]c2cc(N)cc(-c3cccc(/N=c4/nccc[nH]4)c3)c2)c1

>  <Energy>  (23) 
71.44578922282942

>  <Genealogy>  (23) 
Cc1cccc(C(=O)[N-]c2cc(N)cc(-c3cccc(N=c4nccc[nH]4)c3)c2)c1 (protonated)
Cc1cccc(C(=O)[N-]c2cc(N)cc(-c3cccc(/N=c4/nccc[nH]4)c3)c2)c1 (cis-trans isomerization)
Cc1cccc(C(=O)[N-]c2cc(N)cc(-c3cccc(/N=c4/nccc[nH]4)c3)c2)c1 (3D coordinates assigned)
Cc1cccc(C(=O)[N-]c2cc(N)cc(-c3cccc(/N=c4/nccc[nH]4)c3)c2)c1 (optimized conformer: 71.44578922282942 kcal/mol)

>  <smiles>  (23) 
Cc1cccc(C(=O)Nc2cc(N)cc(-c3cccc(N=c4nccc[nH]4)c3)c2)c1

>  <score_type>  (23) 
oracle

>  <origin>  (23) 
adgpu

>  <m_score__min__energy>  (23) 
-11.1

>  <m_primary>  (23) 
energy

$$$$
23:0
     RDKit          3D

 37 39  0  0  0  0  0  0  0  0999 V2000
   -2.8390   20.0900  -27.1940 C   0  0  0  0  0  0  0  0  0  0  0  0
   -2.4530   21.2290  -28.0850 C   0  0  0  0  0  0  0  0  0  0  0  0
   -2.9610   22.5100  -28.0250 C   0  0  0  0  0  0  0  0  0  0  0  0
   -2.3280   23.1740  -29.0650 C   0  0  0  0  0  0  0  0  0  0  0  0
   -2.5360   24.5780  -29.4670 C   0  0  0  0  0  0  0  0  0  0  0  0
   -1.8170   25.4730  -28.9510 O   0  0  0  0  0  0  0  0  0  0  0  0
   -3.4890   24.9490  -30.4710 N   0  0  0  0  0  0  0  0  0  0  0  0
   -4.8210   24.4330  -30.6020 C   0  0  0  0  0  0  0  0  0  0  0  0
   -5.9270   25.1080  -30.0610 C   0  0  0  0  0  0  0  0  0  0  0  0
   -7.2130   24.5890  -30.2220 C   0  0  0  0  0  0  0  0  0  0  0  0
   -7.4080   23.4040  -30.9350 C   0  0  0  0  0  0  0  0  0  0  0  0
   -6.3160   22.7270  -31.5060 C   0  0  0  0  0  0  0  0  0  0  0  0
   -6.5390   21.4760  -32.2690 C   0  0  0  0  0  0  0  0  0  0  0  0
   -5.6180   20.7610  -33.0140 C   0  0  0  0  0  0  0  0  0  0  0  0
   -6.2830   19.7080  -33.5160 N   0  0  0  0  0  0  0  0  0  0  0  0
   -5.7560   18.7040  -34.4290 C   0  0  0  0  0  0  0  0  0  0  0  0
   -7.5440   19.7770  -33.1250 N   0  0  0  0  0  0  0  0  0  0  0  0
   -7.7280   20.8400  -32.3580 N   0  0  0  0  0  0  0  0  0  0  0  0
   -5.0220   23.2580  -31.3380 C   0  0  0  0  0  0  0  0  0  0  0  0
   -1.5090   22.3270  -29.7200 N   0  0  0  0  0  0  0  0  0  0  0  0
   -1.5920   21.1500  -29.1190 N   0  0  0  0  0  0  0  0  0  0  0  0
   -0.8370   19.9740  -29.5370 C   0  0  0  0  0  0  0  0  0  0  0  0
   -2.7354   20.3957  -26.1424 H   0  0  0  0  0  0  0  0  0  0  0  0
   -3.8833   19.8069  -27.3924 H   0  0  0  0  0  0  0  0  0  0  0  0
   -2.1820   19.2303  -27.3924 H   0  0  0  0  0  0  0  0  0  0  0  0
   -3.6988   22.9124  -27.3152 H   0  0  0  0  0  0  0  0  0  0  0  0
   -5.7798   26.0480  -29.5090 H   0  0  0  0  0  0  0  0  0  0  0  0
   -8.0752   25.1149  -29.7860 H   0  0  0  0  0  0  0  0  0  0  0  0
   -8.4235   22.9973  -31.0507 H   0  0  0  0  0  0  0  0  0  0  0  0
   -4.5562   21.0056  -33.1645 H   0  0  0  0  0  0  0  0  0  0  0  0
   -5.3210   17.8752  -33.8512 H   0  0  0  0  0  0  0  0  0  0  0  0
   -6.5697   18.3216  -35.0629 H   0  0  0  0  0  0  0  0  0  0  0  0
   -4.9792   19.1565  -35.0629 H   0  0  0  0  0  0  0  0  0  0  0  0
   -4.1603   22.7446  -31.7895 H   0  0  0  0  0  0  0  0  0  0  0  0
   -0.4867   19.4283  -28.6485 H   0  0  0  0  0  0  0  0  0  0  0  0
   -1.4833   19.3182  -30.1389 H   0  0  0  0  0  0  0  0  0  0  0  0
    0.0283   20.2887  -30.1389 H   0  0  0  0  0  0  0  0  0  0  0  0
  1  2  1  0
  2  3  2  0
  3  4  1  0
  4  5  1  0
  5  6  2  0
  5  7  1  0
  7  8  1  0
  8  9  2  0
  9 10  1  0
 10 11  2  0
 11 12  1  0
 12 13  1  0
 13 14  2  0
 14 15  1  0
 15 16  1  0
 15 17  1  0
 17 18  2  0
 12 19  2  0
  4 20  2  0
 20 21  1  0
 21 22  1  0
 21  2  1  0
 19  8  1  0
 18 13  1  0
  1 23  1  0
  1 24  1  0
  1 25  1  0
  3 26  1  0
  9 27  1  0
 10 28  1  0
 11 29  1  0
 14 30  1  0
 16 31  1  0
 16 32  1  0
 16 33  1  0
 19 34  1  0
 22 35  1  0
 22 36  1  0
 22 37  1  0
M  CHG  1   7  -1
M  END
>  <UniqueID>  (24) 
23

>  <SMILES>  (24) 
Cc1cc(C(=O)[N-]c2cccc(-c3cn(C)nn3)c2)nn1C

>  <Energy>  (24) 
106.95695978172144

>  <Genealogy>  (24) 
Cc1cc(C(=O)[N-]c2cccc(-c3cn(C)nn3)c2)nn1C (protonated)
Cc1cc(C(=O)[N-]c2cccc(-c3cn(C)nn3)c2)nn1C (3D coordinates assigned)
Cc1cc(C(=O)[N-]c2cccc(-c3cn(C)nn3)c2)nn1C (optimized conformer: 106.95695978172144 kcal/mol)

>  <smiles>  (24) 
Cc1cc(C(=O)Nc2cccc(-c3cn(C)nn3)c2)nn1C

>  <score_type>  (24) 
oracle

>  <origin>  (24) 
adgpu

>  <m_score__min__energy>  (24) 
-9.5

>  <m_primary>  (24) 
energy

$$$$
24:0
     RDKit          3D

 41 43  0  0  0  0  0  0  0  0999 V2000
   -0.9300   24.7140  -28.9680 C   0  0  0  0  0  0  0  0  0  0  0  0
   -2.2650   24.1560  -29.3350 C   0  0  0  0  0  0  0  0  0  0  0  0
   -2.6650   22.8440  -29.1720 C   0  0  0  0  0  0  0  0  0  0  0  0
   -3.9480   22.7780  -29.6730 C   0  0  0  0  0  0  0  0  0  0  0  0
   -4.2390   24.0540  -30.1160 C   0  0  0  0  0  0  0  0  0  0  0  0
   -5.7410   24.5660  -30.8620 S   0  0  0  0  0  0  0  0  0  0  0  0
   -6.8930   24.3650  -29.9180 O   0  0  0  0  0  0  0  0  0  0  0  0
   -5.6360   26.0320  -31.1750 O   0  0  0  0  0  0  0  0  0  0  0  0
   -6.0030   23.6960  -32.3410 N   0  0  0  0  0  0  0  0  0  0  0  0
   -6.4830   22.3450  -32.3690 C   0  0  0  0  0  0  0  0  0  0  0  0
   -7.7550   21.9010  -32.0350 C   0  0  0  0  0  0  0  0  0  0  0  0
   -8.9280   22.7580  -31.6570 C   0  0  0  0  0  0  0  0  0  0  0  0
   -7.8080   20.5590  -32.2340 N   0  0  0  0  0  0  0  0  0  0  0  0
   -8.9900   19.7100  -32.0630 C   0  0  0  0  0  0  0  0  0  0  0  0
   -6.6060   20.1350  -32.6230 N   0  0  0  0  0  0  0  0  0  0  0  0
   -6.2390   18.7700  -32.8930 C   0  0  0  0  0  0  0  0  0  0  0  0
   -6.0810   17.8600  -31.8370 C   0  0  0  0  0  0  0  0  0  0  0  0
   -5.7350   16.5310  -32.0980 C   0  0  0  0  0  0  0  0  0  0  0  0
   -5.5530   16.1010  -33.4160 C   0  0  0  0  0  0  0  0  0  0  0  0
   -5.7210   16.9990  -34.4730 C   0  0  0  0  0  0  0  0  0  0  0  0
   -6.0620   18.3300  -34.2140 C   0  0  0  0  0  0  0  0  0  0  0  0
   -5.7880   21.2020  -32.7130 C   0  0  0  0  0  0  0  0  0  0  0  0
   -4.5670   21.1340  -33.0130 O   0  0  0  0  0  0  0  0  0  0  0  0
   -3.2190   24.8540  -29.9050 O   0  0  0  0  0  0  0  0  0  0  0  0
   -0.8373   24.7527  -27.8726 H   0  0  0  0  0  0  0  0  0  0  0  0
   -0.1381   24.0716  -29.3805 H   0  0  0  0  0  0  0  0  0  0  0  0
   -0.8308   25.7289  -29.3805 H   0  0  0  0  0  0  0  0  0  0  0  0
   -2.0808   22.0217  -28.7332 H   0  0  0  0  0  0  0  0  0  0  0  0
   -4.6025   21.8948  -29.7118 H   0  0  0  0  0  0  0  0  0  0  0  0
   -5.6060   24.1130  -33.2090 H   0  0  0  0  0  0  0  0  0  0  0  0
   -9.0037   22.8133  -30.5610 H   0  0  0  0  0  0  0  0  0  0  0  0
   -8.7901   23.7696  -32.0665 H   0  0  0  0  0  0  0  0  0  0  0  0
   -9.8498   22.3192  -32.0665 H   0  0  0  0  0  0  0  0  0  0  0  0
   -9.1875   19.5682  -30.9902 H   0  0  0  0  0  0  0  0  0  0  0  0
   -9.8589   20.1917  -32.5352 H   0  0  0  0  0  0  0  0  0  0  0  0
   -8.8110   18.7328  -32.5352 H   0  0  0  0  0  0  0  0  0  0  0  0
   -6.2300   18.1936  -30.7995 H   0  0  0  0  0  0  0  0  0  0  0  0
   -5.6058   15.8231  -31.2660 H   0  0  0  0  0  0  0  0  0  0  0  0
   -5.2776   15.0559  -33.6206 H   0  0  0  0  0  0  0  0  0  0  0  0
   -5.5849   16.6585  -35.5101 H   0  0  0  0  0  0  0  0  0  0  0  0
   -6.1920   19.0348  -35.0485 H   0  0  0  0  0  0  0  0  0  0  0  0
  1  2  1  0
  2  3  2  0
  3  4  1  0
  4  5  2  0
  5  6  1  0
  6  7  2  0
  6  8  2  0
  6  9  1  0
  9 10  1  0
 10 11  2  0
 11 12  1  0
 11 13  1  0
 13 14  1  0
 13 15  1  0
 15 16  1  0
 16 17  2  0
 17 18  1  0
 18 19  2  0
 19 20  1  0
 20 21  2  0
 15 22  1  0
 22 23  2  0
  5 24  1  0
 24  2  1  0
 22 10  1  0
 21 16  1  0
  1 25  1  0
  1 26  1  0
  1 27  1  0
  3 28  1  0
  4 29  1  0
  9 30  1  0
 12 31  1  0
 12 32  1  0
 12 33  1  0
 14 34  1  0
 14 35  1  0
 14 36  1  0
 17 37  1  0
 18 38  1  0
 19 39  1  0
 20 40  1  0
 21 41  1  0
M  END
>  <UniqueID>  (25) 
24

>  <SMILES>  (25) 
Cc1ccc(S(=O)(=O)Nc2c(C)n(C)n(-c3ccccc3)c2=O)o1

>  <Energy>  (25) 
112.20343187408368

>  <Genealogy>  (25) 
Cc1ccc(S(=O)(=O)Nc2c(C)n(C)n(-c3ccccc3)c2=O)o1 (3D coordinates assigned)
Cc1ccc(S(=O)(=O)Nc2c(C)n(C)n(-c3ccccc3)c2=O)o1 (optimized conformer: 112.20343187408368 kcal/mol)

>  <smiles>  (25) 
Cc1ccc(S(=O)(=O)Nc2c(C)n(C)n(-c3ccccc3)c2=O)o1

>  <score_type>  (25) 
oracle

>  <origin>  (25) 
adgpu

>  <m_score__min__energy>  (25) 
-9

>  <m_primary>  (25) 
energy

$$$$
25:0
     RDKit          3D

 59 62  0  0  0  0  0  0  0  0999 V2000
   -3.0320   20.8850  -33.2420 C   0  0  0  0  0  0  0  0  0  0  0  0
   -1.8560   20.3690  -32.4510 C   0  0  0  0  0  0  0  0  0  0  0  0
   -1.5730   18.8870  -32.4450 C   0  0  0  0  0  0  0  0  0  0  0  0
   -1.1110   21.2470  -31.7400 C   0  0  0  0  0  0  0  0  0  0  0  0
   -0.0300   20.8620  -30.7560 C   0  0  0  0  0  0  0  0  0  0  0  0
   -0.5770   20.2300  -29.4880 C   0  0  0  0  0  0  0  0  0  0  0  0
   -1.6080   20.8540  -28.7350 C   0  0  0  0  0  0  0  0  0  0  0  0
   -2.2380   22.1290  -29.1630 C   0  0  0  0  0  0  0  0  0  0  0  0
   -3.5050   22.0810  -29.7770 C   0  0  0  0  0  0  0  0  0  0  0  0
   -4.1140   20.8350  -29.9660 O   0  0  0  0  0  0  0  0  0  0  0  0
   -4.1310   23.2730  -30.2040 C   0  0  0  0  0  0  0  0  0  0  0  0
   -5.4720   23.2510  -30.8260 C   0  0  0  0  0  0  0  0  0  0  0  0
   -6.5580   22.6740  -30.1490 C   0  0  0  0  0  0  0  0  0  0  0  0
   -7.8230   22.6460  -30.7430 C   0  0  0  0  0  0  0  0  0  0  0  0
   -8.0110   23.1900  -32.0180 C   0  0  0  0  0  0  0  0  0  0  0  0
   -9.2690   23.1620  -32.6070 O   0  0  0  0  0  0  0  0  0  0  0  0
   -6.9320   23.7620  -32.7000 C   0  0  0  0  0  0  0  0  0  0  0  0
   -5.6660   23.7900  -32.1080 C   0  0  0  0  0  0  0  0  0  0  0  0
   -3.4780   24.5020  -30.0210 C   0  0  0  0  0  0  0  0  0  0  0  0
   -4.0790   25.6860  -30.4390 O   0  0  0  0  0  0  0  0  0  0  0  0
   -2.2270   24.5550  -29.3990 C   0  0  0  0  0  0  0  0  0  0  0  0
   -1.6150   25.7900  -29.2130 O   0  0  0  0  0  0  0  0  0  0  0  0
   -1.6030   23.3780  -28.9520 C   0  0  0  0  0  0  0  0  0  0  0  0
   -0.2770   23.4750  -28.2950 C   0  0  0  0  0  0  0  0  0  0  0  0
    0.3590   22.3150  -27.8310 C   0  0  0  0  0  0  0  0  0  0  0  0
    1.6120   22.3940  -27.2150 C   0  0  0  0  0  0  0  0  0  0  0  0
    2.2480   23.6310  -27.0780 C   0  0  0  0  0  0  0  0  0  0  0  0
    3.4900   23.7110  -26.4620 O   0  0  0  0  0  0  0  0  0  0  0  0
    1.6370   24.7870  -27.5740 C   0  0  0  0  0  0  0  0  0  0  0  0
    0.3860   24.7090  -28.1930 C   0  0  0  0  0  0  0  0  0  0  0  0
   -2.1500   20.1970  -27.6210 C   0  0  0  0  0  0  0  0  0  0  0  0
   -1.6410   18.9670  -27.1910 C   0  0  0  0  0  0  0  0  0  0  0  0
   -2.2350   18.2870  -25.9910 C   0  0  0  0  0  0  0  0  0  0  0  0
   -0.6340   18.3400  -27.9390 C   0  0  0  0  0  0  0  0  0  0  0  0
   -0.1510   17.0930  -27.5560 O   0  0  0  0  0  0  0  0  0  0  0  0
   -0.1190   18.9550  -29.0860 C   0  0  0  0  0  0  0  0  0  0  0  0
    0.8320   18.2710  -29.8360 O   0  0  0  0  0  0  0  0  0  0  0  0
   -3.8159   21.2290  -32.5513 H   0  0  0  0  0  0  0  0  0  0  0  0
   -2.7080   21.7236  -33.8758 H   0  0  0  0  0  0  0  0  0  0  0  0
   -3.4297   20.0787  -33.8758 H   0  0  0  0  0  0  0  0  0  0  0  0
   -1.5050   18.5309  -31.4065 H   0  0  0  0  0  0  0  0  0  0  0  0
   -2.3860   18.3564  -32.9621 H   0  0  0  0  0  0  0  0  0  0  0  0
   -0.6216   18.6933  -32.9621 H   0  0  0  0  0  0  0  0  0  0  0  0
   -1.3064   22.3192  -31.8890 H   0  0  0  0  0  0  0  0  0  0  0  0
    0.6461   20.1432  -31.2420 H   0  0  0  0  0  0  0  0  0  0  0  0
    0.4919   21.7852  -30.4639 H   0  0  0  0  0  0  0  0  0  0  0  0
   -3.5980   19.9880  -30.1630 H   0  0  0  0  0  0  0  0  0  0  0  0
   -6.4130   22.2424  -29.1476 H   0  0  0  0  0  0  0  0  0  0  0  0
   -8.6716   22.1957  -30.2073 H   0  0  0  0  0  0  0  0  0  0  0  0
   -7.0798   24.1899  -33.7025 H   0  0  0  0  0  0  0  0  0  0  0  0
   -4.8183   24.2361  -32.6487 H   0  0  0  0  0  0  0  0  0  0  0  0
   -0.1303   21.3373  -27.9521 H   0  0  0  0  0  0  0  0  0  0  0  0
    2.0975   21.4818  -26.8380 H   0  0  0  0  0  0  0  0  0  0  0  0
    2.1417   25.7595  -27.4769 H   0  0  0  0  0  0  0  0  0  0  0  0
   -0.0808   25.6173  -28.6017 H   0  0  0  0  0  0  0  0  0  0  0  0
   -2.9885   20.6560  -27.0768 H   0  0  0  0  0  0  0  0  0  0  0  0
   -1.8348   18.7451  -25.0745 H   0  0  0  0  0  0  0  0  0  0  0  0
   -3.3290   18.3998  -26.0098 H   0  0  0  0  0  0  0  0  0  0  0  0
   -1.9762   17.2180  -26.0098 H   0  0  0  0  0  0  0  0  0  0  0  0
  1  2  1  0
  2  3  1  0
  2  4  2  3
  4  5  1  0
  5  6  1  0
  6  7  2  0
  7  8  1  0
  8  9  2  0
  9 10  1  0
  9 11  1  0
 11 12  1  0
 12 13  2  0
 13 14  1  0
 14 15  2  0
 15 16  1  0
 15 17  1  0
 17 18  2  0
 11 19  2  0
 19 20  1  0
 19 21  1  0
 21 22  1  0
 21 23  2  0
 23 24  1  0
 24 25  2  0
 25 26  1  0
 26 27  2  0
 27 28  1  0
 27 29  1  0
 29 30  2  0
  7 31  1  0
 31 32  2  0
 32 33  1  0
 32 34  1  0
 34 35  1  0
 34 36  2  0
 36 37  1  0
 36  6  1  0
 23  8  1  0
 30 24  1  0
 18 12  1  0
  1 38  1  0
  1 39  1  0
  1 40  1  0
  3 41  1  0
  3 42  1  0
  3 43  1  0
  4 44  1  0
  5 45  1  0
  5 46  1  0
 10 47  1  0
 13 48  1  0
 14 49  1  0
 17 50  1  0
 18 51  1  0
 25 52  1  0
 26 53  1  0
 29 54  1  0
 30 55  1  0
 31 56  1  0
 33 57  1  0
 33 58  1  0
 33 59  1  0
M  CHG  6  16  -1  20  -1  22  -1  28  -1  35  -1  37  -1
M  END
>  <UniqueID>  (26) 
25

>  <SMILES>  (26) 
CC(C)=CCc1c(-c2c(O)c(-c3ccc([O-])cc3)c([O-])c([O-])c2-c2ccc([O-])cc2)cc(C)c([O-])c1[O-]

>  <Energy>  (26) 
85.93768342993756

>  <Genealogy>  (26) 
CC(C)=CCc1c(-c2c(O)c(-c3ccc([O-])cc3)c([O-])c([O-])c2-c2ccc([O-])cc2)cc(C)c([O-])c1[O-] (protonated)
CC(C)=CCc1c(-c2c(O)c(-c3ccc([O-])cc3)c([O-])c([O-])c2-c2ccc([O-])cc2)cc(C)c([O-])c1[O-] (3D coordinates assigned)
CC(C)=CCc1c(-c2c(O)c(-c3ccc([O-])cc3)c([O-])c([O-])c2-c2ccc([O-])cc2)cc(C)c([O-])c1[O-] (optimized conformer: 85.93768342993756 kcal/mol)

>  <smiles>  (26) 
CC(C)=CCc1c(-c2c(O)c(-c3ccc(O)cc3)c(O)c(O)c2-c2ccc(O)cc2)cc(C)c(O)c1O

>  <score_type>  (26) 
oracle

>  <origin>  (26) 
adgpu

>  <m_score__min__energy>  (26) 
-13.58

>  <m_primary>  (26) 
energy

$$$$
26:0
     RDKit          3D

 32 33  0  0  0  0  0  0  0  0999 V2000
   -1.2690   26.1740  -28.9490 O   0  0  0  0  0  0  0  0  0  0  0  0
   -1.5370   24.9420  -28.9640 C   0  0  0  0  0  0  0  0  0  0  0  0
   -2.9550   24.4950  -29.1290 C   0  0  0  0  0  0  0  0  0  0  0  0
   -3.4920   24.9110  -30.4260 N   0  0  0  0  0  0  0  0  0  0  0  0
   -5.2330   24.8760  -30.4370 S   0  0  0  0  0  0  0  0  0  0  0  0
   -5.7510   24.9370  -29.0280 O   0  0  0  0  0  0  0  0  0  0  0  0
   -5.7400   26.0800  -31.1790 O   0  0  0  0  0  0  0  0  0  0  0  0
   -5.8310   23.4240  -31.2390 C   0  0  0  0  0  0  0  0  0  0  0  0
   -7.2090   23.1670  -31.3120 C   0  0  0  0  0  0  0  0  0  0  0  0
   -7.6740   22.0040  -31.9340 C   0  0  0  0  0  0  0  0  0  0  0  0
   -6.7660   21.0920  -32.4820 C   0  0  0  0  0  0  0  0  0  0  0  0
   -5.3930   21.3420  -32.4070 C   0  0  0  0  0  0  0  0  0  0  0  0
   -4.9250   22.5040  -31.7840 C   0  0  0  0  0  0  0  0  0  0  0  0
   -0.5090   23.9650  -28.7580 N   0  0  0  0  0  0  0  0  0  0  0  0
   -0.7060   22.5840  -28.4210 C   0  0  0  0  0  0  0  0  0  0  0  0
   -0.5100   21.6140  -29.4130 C   0  0  0  0  0  0  0  0  0  0  0  0
   -0.6710   20.2580  -29.1190 C   0  0  0  0  0  0  0  0  0  0  0  0
   -1.0140   19.8580  -27.8250 C   0  0  0  0  0  0  0  0  0  0  0  0
   -1.1880   20.8150  -26.8210 C   0  0  0  0  0  0  0  0  0  0  0  0
   -1.5000   20.4240  -25.5610 F   0  0  0  0  0  0  0  0  0  0  0  0
   -1.0290   22.1740  -27.1130 C   0  0  0  0  0  0  0  0  0  0  0  0
   -2.9963   23.3980  -29.0583 H   0  0  0  0  0  0  0  0  0  0  0  0
   -3.5612   24.9570  -28.3358 H   0  0  0  0  0  0  0  0  0  0  0  0
   -7.9244   23.8817  -30.8792 H   0  0  0  0  0  0  0  0  0  0  0  0
   -8.7545   21.8063  -31.9923 H   0  0  0  0  0  0  0  0  0  0  0  0
   -7.1326   20.1780  -32.9720 H   0  0  0  0  0  0  0  0  0  0  0  0
   -4.6795   20.6244  -32.8383 H   0  0  0  0  0  0  0  0  0  0  0  0
   -3.8437   22.6959  -31.7218 H   0  0  0  0  0  0  0  0  0  0  0  0
   -0.2274   21.9225  -30.4303 H   0  0  0  0  0  0  0  0  0  0  0  0
   -0.5276   19.5042  -29.9072 H   0  0  0  0  0  0  0  0  0  0  0  0
   -1.1471   18.7903  -27.5963 H   0  0  0  0  0  0  0  0  0  0  0  0
   -1.1566   22.9243  -26.3188 H   0  0  0  0  0  0  0  0  0  0  0  0
  1  2  2  0
  2  3  1  0
  3  4  1  0
  4  5  1  0
  5  6  2  0
  5  7  2  0
  5  8  1  0
  8  9  2  0
  9 10  1  0
 10 11  2  0
 11 12  1  0
 12 13  2  0
  2 14  1  0
 14 15  1  0
 15 16  2  0
 16 17  1  0
 17 18  2  0
 18 19  1  0
 19 20  1  0
 19 21  2  0
 13  8  1  0
 21 15  1  0
  3 22  1  0
  3 23  1  0
  9 24  1  0
 10 25  1  0
 11 26  1  0
 12 27  1  0
 13 28  1  0
 16 29  1  0
 17 30  1  0
 18 31  1  0
 21 32  1  0
M  CHG  2   4  -1  14  -1
M  END
>  <UniqueID>  (27) 
26

>  <SMILES>  (27) 
O=C(C[N-]S(=O)(=O)c1ccccc1)[N-]c1cccc(F)c1

>  <Energy>  (27) 
34.03494428580984

>  <Genealogy>  (27) 
O=C(C[N-]S(=O)(=O)c1ccccc1)[N-]c1cccc(F)c1 (protonated)
O=C(C[N-]S(=O)(=O)c1ccccc1)[N-]c1cccc(F)c1 (3D coordinates assigned)
O=C(C[N-]S(=O)(=O)c1ccccc1)[N-]c1cccc(F)c1 (optimized conformer: 34.03494428580984 kcal/mol)

>  <smiles>  (27) 
O=C(CNS(=O)(=O)c1ccccc1)Nc1cccc(F)c1

>  <score_type>  (27) 
oracle

>  <origin>  (27) 
adgpu

>  <m_score__min__energy>  (27) 
-10.029999999999999

>  <m_primary>  (27) 
energy

$$$$
27:0
     RDKit          3D

 49 50  0  0  0  0  0  0  0  0999 V2000
   -3.8319   21.1354  -30.3434 H   0  0  0  0  0  0  0  0  0  0  0  0
   -3.8190   22.2330  -30.2720 C   0  0  0  0  0  0  0  0  0  0  0  0
   -2.7070   22.8690  -29.8230 N   0  0  0  0  0  0  0  0  0  0  0  0
   -2.6680   24.2240  -29.7160 C   0  0  0  0  0  0  0  0  0  0  0  0
   -1.6030   24.8320  -29.2840 N   0  0  0  0  0  0  0  0  0  0  0  0
   -0.3710   24.1670  -28.8630 C   0  0  0  0  0  0  0  0  0  0  0  0
    0.4456   24.9036  -28.8363 H   0  0  0  0  0  0  0  0  0  0  0  0
   -0.1399   23.3654  -29.5800 H   0  0  0  0  0  0  0  0  0  0  0  0
   -0.5350   23.5510  -27.4760 C   0  0  0  0  0  0  0  0  0  0  0  0
   -0.3320   24.3136  -26.7097 H   0  0  0  0  0  0  0  0  0  0  0  0
   -1.5635   23.1788  -27.3594 H   0  0  0  0  0  0  0  0  0  0  0  0
    0.1723   22.7167  -27.3594 H   0  0  0  0  0  0  0  0  0  0  0  0
   -3.7560   24.9580  -30.0660 N   0  0  0  0  0  0  0  0  0  0  0  0
   -4.8920   24.3740  -30.5340 C   0  0  0  0  0  0  0  0  0  0  0  0
   -6.0710   25.2580  -30.8520 C   0  0  0  0  0  0  0  0  0  0  0  0
   -5.7145   26.1657  -31.3609 H   0  0  0  0  0  0  0  0  0  0  0  0
   -6.7637   24.7025  -31.5013 H   0  0  0  0  0  0  0  0  0  0  0  0
   -6.8080   25.6560  -29.5770 C   0  0  0  0  0  0  0  0  0  0  0  0
   -6.2225   25.3398  -28.7011 H   0  0  0  0  0  0  0  0  0  0  0  0
   -6.9397   26.7479  -29.5553 H   0  0  0  0  0  0  0  0  0  0  0  0
   -7.7933   25.1673  -29.5553 H   0  0  0  0  0  0  0  0  0  0  0  0
   -4.9480   22.9690  -30.6440 C   0  0  0  0  0  0  0  0  0  0  0  0
   -6.1480   22.2560  -31.1320 C   0  0  0  0  0  0  0  0  0  0  0  0
   -6.1370   21.5010  -32.3260 C   0  0  0  0  0  0  0  0  0  0  0  0
   -4.9440   21.3780  -33.1200 N   0  0  0  0  0  0  0  0  0  0  0  0
   -4.6290   22.1830  -33.7080 H   0  0  0  0  0  0  0  0  0  0  0  0
   -4.1650   20.1380  -33.1390 C   0  0  0  0  0  0  0  0  0  0  0  0
   -3.1471   20.3615  -33.4910 H   0  0  0  0  0  0  0  0  0  0  0  0
   -4.1472   19.7278  -32.1185 H   0  0  0  0  0  0  0  0  0  0  0  0
   -4.7950   19.0860  -34.0690 C   0  0  0  0  0  0  0  0  0  0  0  0
   -4.8064   19.4846  -35.0942 H   0  0  0  0  0  0  0  0  0  0  0  0
   -4.1885   18.1714  -33.9943 H   0  0  0  0  0  0  0  0  0  0  0  0
   -6.1760   18.7370  -33.6830 N   0  0  0  0  0  0  0  0  0  0  0  0
   -6.3010   18.9560  -32.6670 H   0  0  0  0  0  0  0  0  0  0  0  0
   -6.8720   19.3040  -34.2200 H   0  0  0  0  0  0  0  0  0  0  0  0
   -6.4640   17.3110  -33.8760 C   0  0  0  0  0  0  0  0  0  0  0  0
   -6.5630   16.8210  -32.8961 H   0  0  0  0  0  0  0  0  0  0  0  0
   -7.4028   17.1994  -34.4383 H   0  0  0  0  0  0  0  0  0  0  0  0
   -5.6421   16.8438  -34.4383 H   0  0  0  0  0  0  0  0  0  0  0  0
   -7.2770   20.8690  -32.7240 N   0  0  0  0  0  0  0  0  0  0  0  0
   -8.4330   20.9300  -32.0120 C   0  0  0  0  0  0  0  0  0  0  0  0
   -9.6500   20.2140  -32.5030 C   0  0  0  0  0  0  0  0  0  0  0  0
  -10.2421   19.8657  -31.6439 H   0  0  0  0  0  0  0  0  0  0  0  0
  -10.2571   20.8989  -33.1132 H   0  0  0  0  0  0  0  0  0  0  0  0
   -9.3463   19.3506  -33.1132 H   0  0  0  0  0  0  0  0  0  0  0  0
   -8.4740   21.6560  -30.8170 C   0  0  0  0  0  0  0  0  0  0  0  0
   -9.4027   21.7069  -30.2297 H   0  0  0  0  0  0  0  0  0  0  0  0
   -7.3270   22.3140  -30.3780 C   0  0  0  0  0  0  0  0  0  0  0  0
   -7.3474   22.8812  -29.4357 H   0  0  0  0  0  0  0  0  0  0  0  0
  1  2  1  0
  2  3  2  0
  3  4  1  0
  4  5  2  0
  5  6  1  0
  6  7  1  0
  6  8  1  0
  6  9  1  0
  9 10  1  0
  9 11  1  0
  9 12  1  0
  4 13  1  0
 13 14  1  0
 14 15  1  0
 15 16  1  0
 15 17  1  0
 15 18  1  0
 18 19  1  0
 18 20  1  0
 18 21  1  0
 14 22  2  0
 22 23  1  0
 23 24  2  0
 24 25  1  0
 25 26  1  0
 25 27  1  0
 27 28  1  0
 27 29  1  0
 27 30  1  0
 30 31  1  0
 30 32  1  0
 30 33  1  0
 33 34  1  0
 33 35  1  0
 33 36  1  0
 36 37  1  0
 36 38  1  0
 36 39  1  0
 24 40  1  0
 40 41  2  0
 41 42  1  0
 42 43  1  0
 42 44  1  0
 42 45  1  0
 41 46  1  0
 46 47  1  0
 46 48  2  0
 48 49  1  0
 22  2  1  0
 48 23  1  0
M  CHG  2  13  -1  33   1
M  END
>  <UniqueID>  (28) 
27

>  <SMILES>  (28) 
CC/N=c1\ncc(-c2ccc(C)nc2NCC[NH2+]C)c(CC)[n-]1

>  <Energy>  (28) 
47.139550806888465

>  <Genealogy>  (28) 
CCN=c1ncc(-c2ccc(C)nc2NCC[NH2+]C)c(CC)[n-]1 (protonated)
CC/N=c1\ncc(-c2ccc(C)nc2NCC[NH2+]C)c(CC)[n-]1 (cis-trans isomerization)
CC/N=c1\ncc(-c2ccc(C)nc2NCC[NH2+]C)c(CC)[n-]1 (3D coordinates assigned)
CC/N=c1\ncc(-c2ccc(C)nc2NCC[NH2+]C)c(CC)[n-]1 (optimized conformer: 47.139550806888465 kcal/mol)

>  <smiles>  (28) 
CCN=c1ncc(-c2ccc(C)nc2NCCNC)c(CC)[nH]1

>  <score_type>  (28) 
oracle

>  <origin>  (28) 
adgpu

>  <m_score__min__energy>  (28) 
-8.1099999999999994

>  <m_primary>  (28) 
energy

$$$$
28:0
     RDKit          3D

 40 42  0  0  0  0  0  0  0  0999 V2000
   -9.8450   20.8110  -32.3220 C   0  0  0  0  0  0  0  0  0  0  0  0
   -8.6200   19.9470  -32.3760 C   0  0  0  0  0  0  0  0  0  0  0  0
   -8.6750   18.6160  -31.9340 C   0  0  0  0  0  0  0  0  0  0  0  0
   -7.5460   17.7980  -32.0240 C   0  0  0  0  0  0  0  0  0  0  0  0
   -6.3580   18.2990  -32.5640 C   0  0  0  0  0  0  0  0  0  0  0  0
   -6.2910   19.6250  -33.0190 C   0  0  0  0  0  0  0  0  0  0  0  0
   -5.0280   20.1540  -33.6460 C   0  0  0  0  0  0  0  0  0  0  0  0
   -4.1060   20.6380  -32.6050 N   0  0  0  0  0  0  0  0  0  0  0  0
   -2.9020   20.0080  -32.4430 C   0  0  0  0  0  0  0  0  0  0  0  0
   -2.0090   20.4190  -31.4540 C   0  0  0  0  0  0  0  0  0  0  0  0
   -2.3550   21.4710  -30.6130 C   0  0  0  0  0  0  0  0  0  0  0  0
   -3.6010   22.0960  -30.7510 C   0  0  0  0  0  0  0  0  0  0  0  0
   -3.9790   23.2000  -29.9130 N   0  0  0  0  0  0  0  0  0  0  0  0
   -3.4110   24.5140  -29.9420 C   0  0  0  0  0  0  0  0  0  0  0  0
   -3.8760   25.3590  -30.7510 O   0  0  0  0  0  0  0  0  0  0  0  0
   -2.3490   24.9220  -29.0020 C   0  0  0  0  0  0  0  0  0  0  0  0
   -2.2620   24.5570  -27.6740 C   0  0  0  0  0  0  0  0  0  0  0  0
   -1.0970   25.1550  -27.2460 C   0  0  0  0  0  0  0  0  0  0  0  0
   -0.4960   25.0250  -25.8870 C   0  0  0  0  0  0  0  0  0  0  0  0
   -0.5130   25.8090  -28.2680 N   0  0  0  0  0  0  0  0  0  0  0  0
   -1.2800   25.6700  -29.3380 N   0  0  0  0  0  0  0  0  0  0  0  0
   -4.4640   21.6740  -31.7750 C   0  0  0  0  0  0  0  0  0  0  0  0
   -5.5760   22.2540  -31.9180 O   0  0  0  0  0  0  0  0  0  0  0  0
   -7.4310   20.4420  -32.9330 C   0  0  0  0  0  0  0  0  0  0  0  0
  -10.1139   21.0007  -31.2724 H   0  0  0  0  0  0  0  0  0  0  0  0
   -9.6420   21.7669  -32.8270 H   0  0  0  0  0  0  0  0  0  0  0  0
  -10.6774   20.2990  -32.8270 H   0  0  0  0  0  0  0  0  0  0  0  0
   -9.6101   18.2156  -31.5154 H   0  0  0  0  0  0  0  0  0  0  0  0
   -7.5920   16.7578  -31.6693 H   0  0  0  0  0  0  0  0  0  0  0  0
   -5.4717   17.6511  -32.6326 H   0  0  0  0  0  0  0  0  0  0  0  0
   -4.5412   19.3493  -34.2166 H   0  0  0  0  0  0  0  0  0  0  0  0
   -5.2827   20.9889  -34.3154 H   0  0  0  0  0  0  0  0  0  0  0  0
   -2.6355   19.1675  -33.1007 H   0  0  0  0  0  0  0  0  0  0  0  0
   -1.0380   19.9148  -31.3399 H   0  0  0  0  0  0  0  0  0  0  0  0
   -1.6507   21.8121  -29.8399 H   0  0  0  0  0  0  0  0  0  0  0  0
   -2.9591   23.9348  -27.0935 H   0  0  0  0  0  0  0  0  0  0  0  0
   -1.2718   25.1928  -25.1254 H   0  0  0  0  0  0  0  0  0  0  0  0
   -0.0764   24.0153  -25.7667 H   0  0  0  0  0  0  0  0  0  0  0  0
    0.3034   25.7710  -25.7667 H   0  0  0  0  0  0  0  0  0  0  0  0
   -7.3911   21.4765  -33.3048 H   0  0  0  0  0  0  0  0  0  0  0  0
  1  2  1  0
  2  3  2  0
  3  4  1  0
  4  5  2  0
  5  6  1  0
  6  7  1  0
  7  8  1  0
  8  9  1  0
  9 10  2  0
 10 11  1  0
 11 12  2  0
 12 13  1  0
 13 14  1  0
 14 15  2  0
 14 16  1  0
 16 17  2  0
 17 18  1  0
 18 19  1  0
 18 20  2  0
 20 21  1  0
 12 22  1  0
 22 23  2  0
  6 24  2  0
 24  2  1  0
 22  8  1  0
 21 16  1  0
  1 25  1  0
  1 26  1  0
  1 27  1  0
  3 28  1  0
  4 29  1  0
  5 30  1  0
  7 31  1  0
  7 32  1  0
  9 33  1  0
 10 34  1  0
 11 35  1  0
 17 36  1  0
 19 37  1  0
 19 38  1  0
 19 39  1  0
 24 40  1  0
M  CHG  2  13  -1  21  -1
M  END
>  <UniqueID>  (29) 
28

>  <SMILES>  (29) 
Cc1cccc(Cn2cccc([N-]C(=O)c3cc(C)n[n-]3)c2=O)c1

>  <Energy>  (29) 
76.03518423732845

>  <Genealogy>  (29) 
Cc1cccc(Cn2cccc([N-]C(=O)c3cc(C)n[n-]3)c2=O)c1 (protonated)
Cc1cccc(Cn2cccc([N-]C(=O)c3cc(C)n[n-]3)c2=O)c1 (3D coordinates assigned)
Cc1cccc(Cn2cccc([N-]C(=O)c3cc(C)n[n-]3)c2=O)c1 (optimized conformer: 76.03518423732845 kcal/mol)

>  <smiles>  (29) 
Cc1cccc(Cn2cccc(NC(=O)c3cc(C)n[nH]3)c2=O)c1

>  <score_type>  (29) 
oracle

>  <origin>  (29) 
adgpu

>  <m_score__min__energy>  (29) 
-11.27

>  <m_primary>  (29) 
energy

$$$$
29:0
     RDKit          3D

 40 42  0  0  0  0  0  0  0  0999 V2000
   -0.2290   20.1710  -34.1320 C   0  0  0  0  0  0  0  0  0  0  0  0
   -1.0310   19.0130  -33.9230 O   0  0  0  0  0  0  0  0  0  0  0  0
   -2.4330   19.0150  -33.8930 C   0  0  0  0  0  0  0  0  0  0  0  0
   -3.1110   17.8580  -34.2920 C   0  0  0  0  0  0  0  0  0  0  0  0
   -4.5070   17.8110  -34.2780 C   0  0  0  0  0  0  0  0  0  0  0  0
   -5.2540   18.9210  -33.8590 C   0  0  0  0  0  0  0  0  0  0  0  0
   -6.6910   18.8370  -33.8510 N   0  0  0  0  0  0  0  0  0  0  0  0
   -7.6650   19.0950  -32.4380 S   0  0  0  0  0  0  0  0  0  0  0  0
   -7.0600   18.3610  -31.2750 O   0  0  0  0  0  0  0  0  0  0  0  0
   -9.0470   18.5570  -32.6880 O   0  0  0  0  0  0  0  0  0  0  0  0
   -7.7190   20.8130  -32.0560 C   0  0  0  0  0  0  0  0  0  0  0  0
   -8.8970   21.5360  -32.2800 C   0  0  0  0  0  0  0  0  0  0  0  0
   -8.9570   22.8930  -31.9650 C   0  0  0  0  0  0  0  0  0  0  0  0
   -7.8420   23.5390  -31.4260 C   0  0  0  0  0  0  0  0  0  0  0  0
   -6.6500   22.8310  -31.1970 C   0  0  0  0  0  0  0  0  0  0  0  0
   -5.4820   23.5340  -30.6220 C   0  0  0  0  0  0  0  0  0  0  0  0
   -4.8560   23.2820  -29.4130 C   0  0  0  0  0  0  0  0  0  0  0  0
   -3.8460   24.2190  -29.3710 C   0  0  0  0  0  0  0  0  0  0  0  0
   -2.8140   24.3470  -28.3010 C   0  0  0  0  0  0  0  0  0  0  0  0
   -3.8640   24.9630  -30.4930 N   0  0  0  0  0  0  0  0  0  0  0  0
   -4.8580   24.5300  -31.2130 O   0  0  0  0  0  0  0  0  0  0  0  0
   -6.5970   21.4610  -31.5190 C   0  0  0  0  0  0  0  0  0  0  0  0
   -4.5760   20.0890  -33.4650 C   0  0  0  0  0  0  0  0  0  0  0  0
   -3.1770   20.1350  -33.4800 C   0  0  0  0  0  0  0  0  0  0  0  0
    0.0642   20.5943  -33.1600 H   0  0  0  0  0  0  0  0  0  0  0  0
    0.6725   19.8952  -34.6987 H   0  0  0  0  0  0  0  0  0  0  0  0
   -0.8042   20.9180  -34.6987 H   0  0  0  0  0  0  0  0  0  0  0  0
   -2.5394   16.9772  -34.6198 H   0  0  0  0  0  0  0  0  0  0  0  0
   -5.0248   16.8950  -34.5986 H   0  0  0  0  0  0  0  0  0  0  0  0
   -7.1850   18.5140  -34.7120 H   0  0  0  0  0  0  0  0  0  0  0  0
   -9.7774   21.0322  -32.7056 H   0  0  0  0  0  0  0  0  0  0  0  0
   -9.8851   23.4564  -32.1415 H   0  0  0  0  0  0  0  0  0  0  0  0
   -7.8974   24.6095  -31.1791 H   0  0  0  0  0  0  0  0  0  0  0  0
   -5.1054   22.5160  -28.6640 H   0  0  0  0  0  0  0  0  0  0  0  0
   -3.2985   24.2869  -27.3153 H   0  0  0  0  0  0  0  0  0  0  0  0
   -2.0808   23.5329  -28.3995 H   0  0  0  0  0  0  0  0  0  0  0  0
   -2.3019   25.3155  -28.3995 H   0  0  0  0  0  0  0  0  0  0  0  0
   -5.6692   20.8953  -31.3482 H   0  0  0  0  0  0  0  0  0  0  0  0
   -5.1486   20.9714  -33.1432 H   0  0  0  0  0  0  0  0  0  0  0  0
   -2.6566   21.0522  -33.1670 H   0  0  0  0  0  0  0  0  0  0  0  0
  1  2  1  0
  2  3  1  0
  3  4  2  0
  4  5  1  0
  5  6  2  0
  6  7  1  0
  7  8  1  0
  8  9  2  0
  8 10  2  0
  8 11  1  0
 11 12  2  0
 12 13  1  0
 13 14  2  0
 14 15  1  0
 15 16  1  0
 16 17  2  0
 17 18  1  0
 18 19  1  0
 18 20  2  0
 20 21  1  0
 15 22  2  0
  6 23  1  0
 23 24  2  0
 24  3  1  0
 22 11  1  0
 21 16  1  0
  1 25  1  0
  1 26  1  0
  1 27  1  0
  4 28  1  0
  5 29  1  0
  7 30  1  0
 12 31  1  0
 13 32  1  0
 14 33  1  0
 17 34  1  0
 19 35  1  0
 19 36  1  0
 19 37  1  0
 22 38  1  0
 23 39  1  0
 24 40  1  0
M  END
>  <UniqueID>  (30) 
29

>  <SMILES>  (30) 
COc1ccc(NS(=O)(=O)c2cccc(-c3cc(C)no3)c2)cc1

>  <Energy>  (30) 
73.9857290774429

>  <Genealogy>  (30) 
COc1ccc(NS(=O)(=O)c2cccc(-c3cc(C)no3)c2)cc1 (3D coordinates assigned)
COc1ccc(NS(=O)(=O)c2cccc(-c3cc(C)no3)c2)cc1 (optimized conformer: 73.9857290774429 kcal/mol)

>  <smiles>  (30) 
COc1ccc(NS(=O)(=O)c2cccc(-c3cc(C)no3)c2)cc1

>  <score_type>  (30) 
oracle

>  <origin>  (30) 
adgpu

>  <m_score__min__energy>  (30) 
-9.5199999999999996

>  <m_primary>  (30) 
energy

$$$$
30:0
     RDKit          3D

 73 77  0  0  0  0  0  0  0  0999 V2000
   -6.0890   25.9630  -29.9930 C   0  0  0  0  0  0  0  0  0  0  0  0
   -6.0940   25.2690  -31.2350 O   0  0  0  0  0  0  0  0  0  0  0  0
   -6.1650   23.8730  -31.3700 C   0  0  0  0  0  0  0  0  0  0  0  0
   -7.3660   23.2130  -31.6940 C   0  0  0  0  0  0  0  0  0  0  0  0
   -7.4050   21.8180  -31.8180 C   0  0  0  0  0  0  0  0  0  0  0  0
   -6.2200   21.0710  -31.6520 C   0  0  0  0  0  0  0  0  0  0  0  0
   -5.0300   21.7260  -31.3080 C   0  0  0  0  0  0  0  0  0  0  0  0
   -4.9940   23.1270  -31.1720 C   0  0  0  0  0  0  0  0  0  0  0  0
   -3.8150   23.8120  -30.8390 O   0  0  0  0  0  0  0  0  0  0  0  0
   -3.0280   23.5500  -29.6810 C   0  0  0  0  0  0  0  0  0  0  0  0
   -6.2420   19.5650  -31.7270 C   0  0  0  0  0  0  0  0  0  0  0  0
   -7.3970   19.0960  -32.5140 N   0  0  0  0  0  0  0  0  0  0  0  0
   -7.4080   17.6340  -32.7560 C   0  0  0  0  0  0  0  0  0  0  0  0
   -6.7130   17.1520  -34.0520 C   0  0  0  0  0  0  0  0  0  0  0  0
   -5.2210   17.3630  -34.0590 C   0  0  0  0  0  0  0  0  0  0  0  0
   -4.3490   16.2680  -34.1790 C   0  0  0  0  0  0  0  0  0  0  0  0
   -2.9650   16.4640  -34.1920 C   0  0  0  0  0  0  0  0  0  0  0  0
   -2.4290   17.7600  -34.1000 C   0  0  0  0  0  0  0  0  0  0  0  0
   -1.0110   17.9840  -34.0910 N   0  0  0  0  0  0  0  0  0  0  0  0
   -0.0890   17.2360  -33.2770 C   0  0  0  0  0  0  0  0  0  0  0  0
   -0.5070   16.2870  -32.5580 O   0  0  0  0  0  0  0  0  0  0  0  0
    1.3610   17.5500  -33.2890 C   0  0  0  0  0  0  0  0  0  0  0  0
    2.2510   16.7880  -32.5070 C   0  0  0  0  0  0  0  0  0  0  0  0
    3.6160   17.0820  -32.4950 C   0  0  0  0  0  0  0  0  0  0  0  0
    4.1090   18.1450  -33.2510 C   0  0  0  0  0  0  0  0  0  0  0  0
    3.2410   18.9130  -34.0250 C   0  0  0  0  0  0  0  0  0  0  0  0
    1.8700   18.6150  -34.0680 C   0  0  0  0  0  0  0  0  0  0  0  0
    0.9930   19.4020  -34.8790 N   0  0  0  0  0  0  0  0  0  0  0  0
    0.0690   20.7290  -34.2580 S   0  0  0  0  0  0  0  0  0  0  0  0
    0.8180   22.0090  -34.4970 O   0  0  0  0  0  0  0  0  0  0  0  0
   -1.2390   20.8000  -34.9960 O   0  0  0  0  0  0  0  0  0  0  0  0
   -0.2610   20.5330  -32.5390 C   0  0  0  0  0  0  0  0  0  0  0  0
    0.7650   20.1580  -31.6590 C   0  0  0  0  0  0  0  0  0  0  0  0
    0.4920   19.9670  -30.3020 C   0  0  0  0  0  0  0  0  0  0  0  0
   -0.8080   20.1470  -29.8160 C   0  0  0  0  0  0  0  0  0  0  0  0
   -1.1510   19.9000  -28.1150 Cl  0  0  0  0  0  0  0  0  0  0  0  0
   -1.8350   20.5200  -30.6920 C   0  0  0  0  0  0  0  0  0  0  0  0
   -1.5620   20.7120  -32.0500 C   0  0  0  0  0  0  0  0  0  0  0  0
   -3.3000   18.8500  -33.9640 C   0  0  0  0  0  0  0  0  0  0  0  0
   -4.6840   18.6570  -33.9590 C   0  0  0  0  0  0  0  0  0  0  0  0
   -8.6620   19.6370  -31.9890 C   0  0  0  0  0  0  0  0  0  0  0  0
   -8.6970   21.1490  -32.2220 C   0  0  0  0  0  0  0  0  0  0  0  0
   -6.0942   25.2365  -29.1670 H   0  0  0  0  0  0  0  0  0  0  0  0
   -5.1863   26.5880  -29.9259 H   0  0  0  0  0  0  0  0  0  0  0  0
   -6.9826   26.6010  -29.9259 H   0  0  0  0  0  0  0  0  0  0  0  0
   -8.2835   23.7990  -31.8514 H   0  0  0  0  0  0  0  0  0  0  0  0
   -4.1143   21.1395  -31.1424 H   0  0  0  0  0  0  0  0  0  0  0  0
   -3.6254   23.7489  -28.7790 H   0  0  0  0  0  0  0  0  0  0  0  0
   -2.7091   22.4972  -29.6849 H   0  0  0  0  0  0  0  0  0  0  0  0
   -2.1417   24.2016  -29.6849 H   0  0  0  0  0  0  0  0  0  0  0  0
   -5.3147   19.2142  -32.2036 H   0  0  0  0  0  0  0  0  0  0  0  0
   -6.3244   19.1627  -30.7065 H   0  0  0  0  0  0  0  0  0  0  0  0
   -6.9064   17.1490  -31.9056 H   0  0  0  0  0  0  0  0  0  0  0  0
   -8.4676   17.3620  -32.8709 H   0  0  0  0  0  0  0  0  0  0  0  0
   -6.9114   16.0767  -34.1721 H   0  0  0  0  0  0  0  0  0  0  0  0
   -7.1244   17.7519  -34.8772 H   0  0  0  0  0  0  0  0  0  0  0  0
   -4.7578   15.2503  -34.2632 H   0  0  0  0  0  0  0  0  0  0  0  0
   -2.2912   15.5985  -34.2748 H   0  0  0  0  0  0  0  0  0  0  0  0
   -0.6340   18.6760  -34.7760 H   0  0  0  0  0  0  0  0  0  0  0  0
    1.8674   15.9542  -31.9006 H   0  0  0  0  0  0  0  0  0  0  0  0
    4.3034   16.4742  -31.8883 H   0  0  0  0  0  0  0  0  0  0  0  0
    5.1840   18.3776  -33.2364 H   0  0  0  0  0  0  0  0  0  0  0  0
    3.6336   19.7598  -34.6071 H   0  0  0  0  0  0  0  0  0  0  0  0
    1.7874   20.0139  -32.0383 H   0  0  0  0  0  0  0  0  0  0  0  0
    1.2998   19.6748  -29.6149 H   0  0  0  0  0  0  0  0  0  0  0  0
   -2.8573   20.6621  -30.3115 H   0  0  0  0  0  0  0  0  0  0  0  0
   -2.3706   21.0043  -32.7361 H   0  0  0  0  0  0  0  0  0  0  0  0
   -2.8906   19.8657  -33.8604 H   0  0  0  0  0  0  0  0  0  0  0  0
   -5.3567   19.5234  -33.8763 H   0  0  0  0  0  0  0  0  0  0  0  0
   -9.5083   19.1648  -32.5093 H   0  0  0  0  0  0  0  0  0  0  0  0
   -8.7353   19.4270  -30.9117 H   0  0  0  0  0  0  0  0  0  0  0  0
   -8.8752   21.3388  -33.2908 H   0  0  0  0  0  0  0  0  0  0  0  0
   -9.5029   21.5679  -31.6014 H   0  0  0  0  0  0  0  0  0  0  0  0
  1  2  1  0
  2  3  1  0
  3  4  2  0
  4  5  1  0
  5  6  2  0
  6  7  1  0
  7  8  2  0
  8  9  1  0
  9 10  1  0
  6 11  1  0
 11 12  1  0
 12 13  1  0
 13 14  1  0
 14 15  1  0
 15 16  2  0
 16 17  1  0
 17 18  2  0
 18 19  1  0
 19 20  1  0
 20 21  2  0
 20 22  1  0
 22 23  2  0
 23 24  1  0
 24 25  2  0
 25 26  1  0
 26 27  2  0
 27 28  1  0
 28 29  1  0
 29 30  2  0
 29 31  2  0
 29 32  1  0
 32 33  2  0
 33 34  1  0
 34 35  2  0
 35 36  1  0
 35 37  1  0
 37 38  2  0
 18 39  1  0
 39 40  2  0
 12 41  1  0
 41 42  1  0
  8  3  1  0
 40 15  1  0
 42  5  1  0
 27 22  1  0
 38 32  1  0
  1 43  1  0
  1 44  1  0
  1 45  1  0
  4 46  1  0
  7 47  1  0
 10 48  1  0
 10 49  1  0
 10 50  1  0
 11 51  1  0
 11 52  1  0
 13 53  1  0
 13 54  1  0
 14 55  1  0
 14 56  1  0
 16 57  1  0
 17 58  1  0
 19 59  1  0
 23 60  1  0
 24 61  1  0
 25 62  1  0
 26 63  1  0
 33 64  1  0
 34 65  1  0
 37 66  1  0
 38 67  1  0
 39 68  1  0
 40 69  1  0
 41 70  1  0
 41 71  1  0
 42 72  1  0
 42 73  1  0
M  CHG  1  28  -1
M  END
>  <UniqueID>  (31) 
30

>  <SMILES>  (31) 
COc1cc2c(cc1OC)CN(CCc1ccc(NC(=O)c3ccccc3[N-]S(=O)(=O)c3ccc(Cl)cc3)cc1)CC2

>  <Energy>  (31) 
100.36228196859747

>  <Genealogy>  (31) 
COc1cc2c(cc1OC)CN(CCc1ccc(NC(=O)c3ccccc3[N-]S(=O)(=O)c3ccc(Cl)cc3)cc1)CC2 (protonated)
COc1cc2c(cc1OC)CN(CCc1ccc(NC(=O)c3ccccc3[N-]S(=O)(=O)c3ccc(Cl)cc3)cc1)CC2 (3D coordinates assigned)
COc1cc2c(cc1OC)CN(CCc1ccc(NC(=O)c3ccccc3[N-]S(=O)(=O)c3ccc(Cl)cc3)cc1)CC2 (nonaromatic ring conformer: 100.36228196859747 kcal/mol)

>  <smiles>  (31) 
COc1cc2c(cc1OC)CN(CCc1ccc(NC(=O)c3ccccc3NS(=O)(=O)c3ccc(Cl)cc3)cc1)CC2

>  <score_type>  (31) 
oracle

>  <origin>  (31) 
adgpu

>  <m_score__min__energy>  (31) 
-11.960000000000001

>  <m_primary>  (31) 
energy

$$$$
31:0
     RDKit          3D

 41 43  0  0  0  0  0  0  0  0999 V2000
   -9.2910   19.6300  -32.8020 C   0  0  0  0  0  0  0  0  0  0  0  0
   -8.6660   20.8370  -32.1800 C   0  0  0  0  0  0  0  0  0  0  0  0
   -9.3750   21.8820  -31.7150 N   0  0  0  0  0  0  0  0  0  0  0  0
   -8.5310   22.7920  -31.2550 N   0  0  0  0  0  0  0  0  0  0  0  0
   -7.2720   22.3370  -31.4150 C   0  0  0  0  0  0  0  0  0  0  0  0
   -6.0810   23.0960  -30.9740 C   0  0  0  0  0  0  0  0  0  0  0  0
   -4.9920   22.4490  -30.3600 C   0  0  0  0  0  0  0  0  0  0  0  0
   -3.8770   23.1830  -29.9450 C   0  0  0  0  0  0  0  0  0  0  0  0
   -3.8430   24.5690  -30.1250 C   0  0  0  0  0  0  0  0  0  0  0  0
   -2.7340   25.2970  -29.7120 O   0  0  0  0  0  0  0  0  0  0  0  0
   -4.9290   25.2220  -30.7150 C   0  0  0  0  0  0  0  0  0  0  0  0
   -6.0450   24.4910  -31.1320 C   0  0  0  0  0  0  0  0  0  0  0  0
   -7.3140   21.0790  -32.0040 C   0  0  0  0  0  0  0  0  0  0  0  0
   -6.1870   20.2470  -32.4740 C   0  0  0  0  0  0  0  0  0  0  0  0
   -6.2510   18.8500  -32.3840 C   0  0  0  0  0  0  0  0  0  0  0  0
   -5.1810   18.0650  -32.8180 C   0  0  0  0  0  0  0  0  0  0  0  0
   -4.0290   18.6640  -33.3500 C   0  0  0  0  0  0  0  0  0  0  0  0
   -2.9240   17.8430  -33.7620 N   0  0  0  0  0  0  0  0  0  0  0  0
   -1.7080   17.8360  -32.9500 C   0  0  0  0  0  0  0  0  0  0  0  0
   -3.1640   16.7200  -34.6680 C   0  0  0  0  0  0  0  0  0  0  0  0
   -3.9620   20.0700  -33.4570 C   0  0  0  0  0  0  0  0  0  0  0  0
   -2.8190   20.7140  -34.0330 N   0  0  0  0  0  0  0  0  0  0  0  0
   -5.0410   20.8490  -33.0170 C   0  0  0  0  0  0  0  0  0  0  0  0
   -9.6427   18.9507  -32.0115 H   0  0  0  0  0  0  0  0  0  0  0  0
  -10.1427   19.9385  -33.4261 H   0  0  0  0  0  0  0  0  0  0  0  0
   -8.5475   19.1125  -33.4261 H   0  0  0  0  0  0  0  0  0  0  0  0
   -5.0185   21.3602  -30.2060 H   0  0  0  0  0  0  0  0  0  0  0  0
   -3.0249   22.6692  -29.4760 H   0  0  0  0  0  0  0  0  0  0  0  0
   -4.9053   26.3133  -30.8514 H   0  0  0  0  0  0  0  0  0  0  0  0
   -6.9006   25.0117  -31.5868 H   0  0  0  0  0  0  0  0  0  0  0  0
   -7.1492   18.3692  -31.9691 H   0  0  0  0  0  0  0  0  0  0  0  0
   -5.2415   16.9693  -32.7423 H   0  0  0  0  0  0  0  0  0  0  0  0
   -1.9790   17.8376  -31.8839 H   0  0  0  0  0  0  0  0  0  0  0  0
   -1.1203   16.9345  -33.1776 H   0  0  0  0  0  0  0  0  0  0  0  0
   -1.1099   18.7307  -33.1776 H   0  0  0  0  0  0  0  0  0  0  0  0
   -3.3584   15.8103  -34.0809 H   0  0  0  0  0  0  0  0  0  0  0  0
   -4.0353   16.9403  -35.3022 H   0  0  0  0  0  0  0  0  0  0  0  0
   -2.2787   16.5649  -35.3022 H   0  0  0  0  0  0  0  0  0  0  0  0
   -1.8870   20.2430  -34.0340 H   0  0  0  0  0  0  0  0  0  0  0  0
   -2.8760   21.6760  -34.4350 H   0  0  0  0  0  0  0  0  0  0  0  0
   -4.9892   21.9448  -33.0981 H   0  0  0  0  0  0  0  0  0  0  0  0
  1  2  1  0
  2  3  1  0
  3  4  1  0
  4  5  2  0
  5  6  1  0
  6  7  2  0
  7  8  1  0
  8  9  2  0
  9 10  1  0
  9 11  1  0
 11 12  2  0
  5 13  1  0
 13 14  1  0
 14 15  2  0
 15 16  1  0
 16 17  2  0
 17 18  1  0
 18 19  1  0
 18 20  1  0
 17 21  1  0
 21 22  1  0
 21 23  2  0
 13  2  2  0
 23 14  1  0
 12  6  1  0
  1 24  1  0
  1 25  1  0
  1 26  1  0
  7 27  1  0
  8 28  1  0
 11 29  1  0
 12 30  1  0
 15 31  1  0
 16 32  1  0
 19 33  1  0
 19 34  1  0
 19 35  1  0
 20 36  1  0
 20 37  1  0
 20 38  1  0
 22 39  1  0
 22 40  1  0
 23 41  1  0
M  CHG  2   3  -1  10  -1
M  END
>  <UniqueID>  (32) 
31

>  <SMILES>  (32) 
Cc1[n-]nc(-c2ccc([O-])cc2)c1-c1ccc(N(C)C)c(N)c1

>  <Energy>  (32) 
83.86242149132906

>  <Genealogy>  (32) 
Cc1[n-]nc(-c2ccc([O-])cc2)c1-c1ccc(N(C)C)c(N)c1 (protonated)
Cc1[n-]nc(-c2ccc([O-])cc2)c1-c1ccc(N(C)C)c(N)c1 (3D coordinates assigned)
Cc1[n-]nc(-c2ccc([O-])cc2)c1-c1ccc(N(C)C)c(N)c1 (optimized conformer: 83.86242149132906 kcal/mol)

>  <smiles>  (32) 
Cc1[nH]nc(-c2ccc(O)cc2)c1-c1ccc(N(C)C)c(N)c1

>  <score_type>  (32) 
oracle

>  <origin>  (32) 
adgpu

>  <m_score__min__energy>  (32) 
-10.98

>  <m_primary>  (32) 
energy

$$$$
32:0
     RDKit          3D

 55 58  0  0  0  0  0  0  0  0999 V2000
   -8.7200   19.4110  -31.6000 C   0  0  0  0  0  0  0  0  0  0  0  0
   -8.0230   20.4580  -32.4170 C   0  0  0  0  0  0  0  0  0  0  0  0
   -7.3760   20.1010  -33.4360 O   0  0  0  0  0  0  0  0  0  0  0  0
   -8.0290   21.8460  -32.0520 N   0  0  0  0  0  0  0  0  0  0  0  0
   -6.9140   22.6240  -31.5970 C   0  0  0  0  0  0  0  0  0  0  0  0
   -5.6210   22.2160  -31.9460 C   0  0  0  0  0  0  0  0  0  0  0  0
   -4.5100   22.9590  -31.5350 C   0  0  0  0  0  0  0  0  0  0  0  0
   -4.6740   24.1300  -30.7870 C   0  0  0  0  0  0  0  0  0  0  0  0
   -3.5000   24.8450  -30.3760 N   0  0  0  0  0  0  0  0  0  0  0  0
   -2.5280   24.5380  -28.9690 S   0  0  0  0  0  0  0  0  0  0  0  0
   -3.3530   24.6740  -27.7190 O   0  0  0  0  0  0  0  0  0  0  0  0
   -1.4410   25.5760  -28.9330 O   0  0  0  0  0  0  0  0  0  0  0  0
   -1.7890   22.9380  -29.0450 C   0  0  0  0  0  0  0  0  0  0  0  0
   -1.1420   22.5030  -30.2050 C   0  0  0  0  0  0  0  0  0  0  0  0
   -0.5710   21.2310  -30.2570 C   0  0  0  0  0  0  0  0  0  0  0  0
   -0.6140   20.3790  -29.1390 C   0  0  0  0  0  0  0  0  0  0  0  0
   -0.0290   19.1010  -29.1760 O   0  0  0  0  0  0  0  0  0  0  0  0
    1.2520   18.7770  -28.7120 C   0  0  0  0  0  0  0  0  0  0  0  0
    2.2960   19.6730  -28.9660 C   0  0  0  0  0  0  0  0  0  0  0  0
    3.5940   19.3990  -28.5240 C   0  0  0  0  0  0  0  0  0  0  0  0
    3.8670   18.2140  -27.8360 C   0  0  0  0  0  0  0  0  0  0  0  0
    2.8410   17.2900  -27.5980 C   0  0  0  0  0  0  0  0  0  0  0  0
    3.0970   16.0840  -26.9310 C   0  0  0  0  0  0  0  0  0  0  0  0
    2.0640   15.1590  -26.7320 C   0  0  0  0  0  0  0  0  0  0  0  0
    2.3260   13.8790  -25.9900 C   0  0  0  0  0  0  0  0  0  0  0  0
    0.7760   15.4730  -27.1890 C   0  0  0  0  0  0  0  0  0  0  0  0
    0.5430   16.6480  -27.8320 N   0  0  0  0  0  0  0  0  0  0  0  0
    1.5260   17.5650  -28.0410 C   0  0  0  0  0  0  0  0  0  0  0  0
   -1.2760   20.8070  -27.9670 C   0  0  0  0  0  0  0  0  0  0  0  0
   -1.3660   19.9240  -26.7780 C   0  0  0  0  0  0  0  0  0  0  0  0
   -1.1960   18.5090  -26.8960 N   0  0  0  0  0  0  0  0  0  0  0  0
   -1.5980   20.4170  -25.6410 O   0  0  0  0  0  0  0  0  0  0  0  0
   -1.8600   22.0860  -27.9350 C   0  0  0  0  0  0  0  0  0  0  0  0
   -5.9750   24.5610  -30.4660 C   0  0  0  0  0  0  0  0  0  0  0  0
   -7.0860   23.8180  -30.8780 C   0  0  0  0  0  0  0  0  0  0  0  0
   -8.5773   19.6253  -30.5306 H   0  0  0  0  0  0  0  0  0  0  0  0
   -9.7946   19.4176  -31.8351 H   0  0  0  0  0  0  0  0  0  0  0  0
   -8.2993   18.4222  -31.8351 H   0  0  0  0  0  0  0  0  0  0  0  0
   -5.4783   21.3058  -32.5469 H   0  0  0  0  0  0  0  0  0  0  0  0
   -3.4982   22.6199  -31.8021 H   0  0  0  0  0  0  0  0  0  0  0  0
   -1.0827   23.1662  -31.0806 H   0  0  0  0  0  0  0  0  0  0  0  0
   -0.0822   20.8911  -31.1820 H   0  0  0  0  0  0  0  0  0  0  0  0
    2.0938   20.6022  -29.5189 H   0  0  0  0  0  0  0  0  0  0  0  0
    4.4028   20.1187  -28.7186 H   0  0  0  0  0  0  0  0  0  0  0  0
    4.8873   18.0065  -27.4812 H   0  0  0  0  0  0  0  0  0  0  0  0
    4.1101   15.8637  -26.5635 H   0  0  0  0  0  0  0  0  0  0  0  0
    2.2872   14.0684  -24.9071 H   0  0  0  0  0  0  0  0  0  0  0  0
    1.5614   13.1357  -26.2598 H   0  0  0  0  0  0  0  0  0  0  0  0
    3.3212   13.4959  -26.2598 H   0  0  0  0  0  0  0  0  0  0  0  0
   -0.0500   14.7650  -27.0264 H   0  0  0  0  0  0  0  0  0  0  0  0
   -1.2380   17.9050  -26.0450 H   0  0  0  0  0  0  0  0  0  0  0  0
   -1.1250   18.0460  -27.8280 H   0  0  0  0  0  0  0  0  0  0  0  0
   -2.3798   22.4222  -27.0257 H   0  0  0  0  0  0  0  0  0  0  0  0
   -6.1185   25.4862  -29.8886 H   0  0  0  0  0  0  0  0  0  0  0  0
   -8.0998   24.1707  -30.6376 H   0  0  0  0  0  0  0  0  0  0  0  0
  1  2  1  0
  2  3  2  0
  2  4  1  0
  4  5  1  0
  5  6  2  0
  6  7  1  0
  7  8  2  0
  8  9  1  0
  9 10  1  0
 10 11  2  0
 10 12  2  0
 10 13  1  0
 13 14  2  0
 14 15  1  0
 15 16  2  0
 16 17  1  0
 17 18  1  0
 18 19  2  0
 19 20  1  0
 20 21  2  0
 21 22  1  0
 22 23  2  0
 23 24  1  0
 24 25  1  0
 24 26  2  0
 26 27  1  0
 27 28  2  0
 16 29  1  0
 29 30  1  0
 30 31  1  0
 30 32  2  0
 29 33  2  0
  8 34  1  0
 34 35  2  0
 35  5  1  0
 33 13  1  0
 28 18  1  0
 28 22  1  0
  1 36  1  0
  1 37  1  0
  1 38  1  0
  6 39  1  0
  7 40  1  0
 14 41  1  0
 15 42  1  0
 19 43  1  0
 20 44  1  0
 21 45  1  0
 23 46  1  0
 25 47  1  0
 25 48  1  0
 25 49  1  0
 26 50  1  0
 31 51  1  0
 31 52  1  0
 33 53  1  0
 34 54  1  0
 35 55  1  0
M  CHG  2   4  -1   9  -1
M  END
>  <UniqueID>  (33) 
32

>  <SMILES>  (33) 
CC(=O)[N-]c1ccc([N-]S(=O)(=O)c2ccc(Oc3cccc4cc(C)cnc34)c(C(N)=O)c2)cc1

>  <Energy>  (33) 
80.33829581083897

>  <Genealogy>  (33) 
CC(=O)[N-]c1ccc([N-]S(=O)(=O)c2ccc(Oc3cccc4cc(C)cnc34)c(C(N)=O)c2)cc1 (protonated)
CC(=O)[N-]c1ccc([N-]S(=O)(=O)c2ccc(Oc3cccc4cc(C)cnc34)c(C(N)=O)c2)cc1 (3D coordinates assigned)
CC(=O)[N-]c1ccc([N-]S(=O)(=O)c2ccc(Oc3cccc4cc(C)cnc34)c(C(N)=O)c2)cc1 (optimized conformer: 80.33829581083897 kcal/mol)

>  <smiles>  (33) 
CC(=O)Nc1ccc(NS(=O)(=O)c2ccc(Oc3cccc4cc(C)cnc34)c(C(N)=O)c2)cc1

>  <score_type>  (33) 
oracle

>  <origin>  (33) 
adgpu

>  <m_score__min__energy>  (33) 
-11.35

>  <m_primary>  (33) 
energy

$$$$
33:0
     RDKit          3D

 24 26  0  0  0  0  0  0  0  0999 V2000
   -1.8680   27.2880  -28.9690 H   0  0  0  0  0  0  0  0  0  0  0  0
   -1.1740   26.5210  -28.8220 N   0  0  0  0  0  0  0  0  0  0  0  0
   -1.4610   25.2940  -29.1130 C   0  0  0  0  0  0  0  0  0  0  0  0
   -2.6650   24.9260  -29.6220 N   0  0  0  0  0  0  0  0  0  0  0  0
   -2.5210   23.5980  -29.7570 C   0  0  0  0  0  0  0  0  0  0  0  0
   -3.4290   22.6620  -30.2690 C   0  0  0  0  0  0  0  0  0  0  0  0
   -4.7910   23.0260  -30.7300 C   0  0  0  0  0  0  0  0  0  0  0  0
   -5.5760   23.9630  -30.0320 C   0  0  0  0  0  0  0  0  0  0  0  0
   -5.1749   24.4475  -29.1296 H   0  0  0  0  0  0  0  0  0  0  0  0
   -6.8620   24.2820  -30.4780 C   0  0  0  0  0  0  0  0  0  0  0  0
   -7.4659   25.0206  -29.9304 H   0  0  0  0  0  0  0  0  0  0  0  0
   -7.3810   23.6640  -31.6180 C   0  0  0  0  0  0  0  0  0  0  0  0
   -8.3908   23.9205  -31.9708 H   0  0  0  0  0  0  0  0  0  0  0  0
   -6.6190   22.7210  -32.3100 C   0  0  0  0  0  0  0  0  0  0  0  0
   -7.0310   22.2313  -33.2047 H   0  0  0  0  0  0  0  0  0  0  0  0
   -5.3320   22.3980  -31.8670 C   0  0  0  0  0  0  0  0  0  0  0  0
   -4.7390   21.6481  -32.4111 H   0  0  0  0  0  0  0  0  0  0  0  0
   -3.0070   21.3620  -30.3580 N   0  0  0  0  0  0  0  0  0  0  0  0
   -1.7590   20.9650  -29.9550 C   0  0  0  0  0  0  0  0  0  0  0  0
   -1.4676   19.9078  -30.0406 H   0  0  0  0  0  0  0  0  0  0  0  0
   -0.8490   21.9000  -29.4330 C   0  0  0  0  0  0  0  0  0  0  0  0
    0.1562   21.6008  -29.1013 H   0  0  0  0  0  0  0  0  0  0  0  0
   -1.2770   23.2200  -29.3550 C   0  0  0  0  0  0  0  0  0  0  0  0
   -0.5750   24.2830  -28.9340 N   0  0  0  0  0  0  0  0  0  0  0  0
  1  2  1  0
  2  3  2  0
  3  4  1  0
  4  5  1  0
  5  6  2  0
  6  7  1  0
  7  8  2  0
  8  9  1  0
  8 10  1  0
 10 11  1  0
 10 12  2  0
 12 13  1  0
 12 14  1  0
 14 15  1  0
 14 16  2  0
 16 17  1  0
  6 18  1  0
 18 19  2  0
 19 20  1  0
 19 21  1  0
 21 22  1  0
 21 23  2  0
 23 24  1  0
 24  3  1  0
 23  5  1  0
 16  7  1  0
M  CHG  2   4  -1  24  -1
M  END
>  <UniqueID>  (34) 
33

>  <SMILES>  (34) 
[H]/N=c1/[n-]c2ccnc(-c3ccccc3)c2[n-]1

>  <Energy>  (34) 
67.72400761847514

>  <Genealogy>  (34) 
N=c1[n-]c2ccnc(-c3ccccc3)c2[n-]1 (protonated)
[H]/N=c1/[n-]c2ccnc(-c3ccccc3)c2[n-]1 (cis-trans isomerization)
[H]/N=c1/[n-]c2ccnc(-c3ccccc3)c2[n-]1 (3D coordinates assigned)
[H]/N=c1/[n-]c2ccnc(-c3ccccc3)c2[n-]1 (optimized conformer: 67.72400761847514 kcal/mol)

>  <smiles>  (34) 
N=c1[nH]c2ccnc(-c3ccccc3)c2[nH]1

>  <score_type>  (34) 
oracle

>  <origin>  (34) 
adgpu

>  <m_score__min__energy>  (34) 
-8.9900000000000002

>  <m_primary>  (34) 
energy

$$$$
34:0
     RDKit          3D

 30 32  0  0  0  0  0  0  0  0999 V2000
   -8.0150   18.3910  -31.7790 O   0  0  0  0  0  0  0  0  0  0  0  0
   -6.9730   19.0790  -31.9420 C   0  0  0  0  0  0  0  0  0  0  0  0
   -6.9500   20.3640  -31.5000 N   0  0  0  0  0  0  0  0  0  0  0  0
   -5.8610   21.1590  -31.6730 C   0  0  0  0  0  0  0  0  0  0  0  0
   -5.8660   22.5580  -31.1790 C   0  0  0  0  0  0  0  0  0  0  0  0
   -7.0740   23.1920  -30.8310 C   0  0  0  0  0  0  0  0  0  0  0  0
   -7.0750   24.5110  -30.3660 C   0  0  0  0  0  0  0  0  0  0  0  0
   -5.8750   25.2120  -30.2410 C   0  0  0  0  0  0  0  0  0  0  0  0
   -4.6680   24.5960  -30.5830 C   0  0  0  0  0  0  0  0  0  0  0  0
   -3.4730   25.2950  -30.4590 O   0  0  0  0  0  0  0  0  0  0  0  0
   -4.6610   23.2770  -31.0490 C   0  0  0  0  0  0  0  0  0  0  0  0
   -4.7660   20.6580  -32.3070 N   0  0  0  0  0  0  0  0  0  0  0  0
   -4.7380   19.3810  -32.7680 C   0  0  0  0  0  0  0  0  0  0  0  0
   -5.8460   18.5420  -32.5910 C   0  0  0  0  0  0  0  0  0  0  0  0
   -5.8100   17.1420  -33.0840 C   0  0  0  0  0  0  0  0  0  0  0  0
   -6.8770   16.6170  -33.8360 C   0  0  0  0  0  0  0  0  0  0  0  0
   -6.8400   15.2950  -34.2890 C   0  0  0  0  0  0  0  0  0  0  0  0
   -5.7410   14.4820  -33.9930 C   0  0  0  0  0  0  0  0  0  0  0  0
   -5.7060   13.1690  -34.4450 O   0  0  0  0  0  0  0  0  0  0  0  0
   -4.6780   14.9920  -33.2420 C   0  0  0  0  0  0  0  0  0  0  0  0
   -4.7120   16.3140  -32.7860 C   0  0  0  0  0  0  0  0  0  0  0  0
   -8.0241   22.6458  -30.9256 H   0  0  0  0  0  0  0  0  0  0  0  0
   -8.0246   24.9972  -30.0980 H   0  0  0  0  0  0  0  0  0  0  0  0
   -5.8790   26.2488  -29.8735 H   0  0  0  0  0  0  0  0  0  0  0  0
   -3.7077   22.7975  -31.3160 H   0  0  0  0  0  0  0  0  0  0  0  0
   -3.8419   19.0038  -33.2824 H   0  0  0  0  0  0  0  0  0  0  0  0
   -7.7455   17.2506  -34.0689 H   0  0  0  0  0  0  0  0  0  0  0  0
   -7.6768   14.8934  -34.8794 H   0  0  0  0  0  0  0  0  0  0  0  0
   -3.8135   14.3528  -33.0093 H   0  0  0  0  0  0  0  0  0  0  0  0
   -3.8753   16.7087  -32.1909 H   0  0  0  0  0  0  0  0  0  0  0  0
  1  2  2  0
  2  3  1  0
  3  4  2  0
  4  5  1  0
  5  6  2  0
  6  7  1  0
  7  8  2  0
  8  9  1  0
  9 10  1  0
  9 11  2  0
  4 12  1  0
 12 13  1  0
 13 14  2  0
 14 15  1  0
 15 16  2  0
 16 17  1  0
 17 18  2  0
 18 19  1  0
 18 20  1  0
 20 21  2  0
 14  2  1  0
 21 15  1  0
 11  5  1  0
  6 22  1  0
  7 23  1  0
  8 24  1  0
 11 25  1  0
 13 26  1  0
 16 27  1  0
 17 28  1  0
 20 29  1  0
 21 30  1  0
M  CHG  3  10  -1  12  -1  19  -1
M  END
>  <UniqueID>  (35) 
34

>  <SMILES>  (35) 
O=c1nc(-c2cccc([O-])c2)[n-]cc1-c1ccc([O-])cc1

>  <Energy>  (35) 
42.79612946223884

>  <Genealogy>  (35) 
O=c1nc(-c2cccc([O-])c2)[n-]cc1-c1ccc([O-])cc1 (protonated)
O=c1nc(-c2cccc([O-])c2)[n-]cc1-c1ccc([O-])cc1 (3D coordinates assigned)
O=c1nc(-c2cccc([O-])c2)[n-]cc1-c1ccc([O-])cc1 (optimized conformer: 42.79612946223884 kcal/mol)

>  <smiles>  (35) 
O=c1nc(-c2cccc(O)c2)[nH]cc1-c1ccc(O)cc1

>  <score_type>  (35) 
oracle

>  <origin>  (35) 
adgpu

>  <m_score__min__energy>  (35) 
-10.300000000000001

>  <m_primary>  (35) 
energy

$$$$
35:0
     RDKit          3D

 41 44  0  0  0  0  0  0  0  0999 V2000
   -5.3678   22.8514  -30.4660 H   0  0  0  0  0  0  0  0  0  0  0  0
   -4.3930   22.3480  -30.3860 C   0  0  0  0  0  0  0  0  0  0  0  0
   -3.8310   21.7370  -31.5100 C   0  0  0  0  0  0  0  0  0  0  0  0
   -4.3758   21.7404  -32.4656 H   0  0  0  0  0  0  0  0  0  0  0  0
   -2.5760   21.1200  -31.4240 C   0  0  0  0  0  0  0  0  0  0  0  0
   -1.8790   20.3320  -32.8350 S   0  0  0  0  0  0  0  0  0  0  0  0
   -2.2470   21.1070  -34.0700 O   0  0  0  0  0  0  0  0  0  0  0  0
   -0.3820   20.2930  -32.7000 O   0  0  0  0  0  0  0  0  0  0  0  0
   -2.5090   18.7180  -32.9360 N   0  0  0  0  0  0  0  0  0  0  0  0
   -3.6480   18.3660  -33.4580 C   0  0  0  0  0  0  0  0  0  0  0  0
   -3.9960   17.0090  -33.4530 C   0  0  0  0  0  0  0  0  0  0  0  0
   -3.3134   16.2657  -33.0153 H   0  0  0  0  0  0  0  0  0  0  0  0
   -5.2110   16.6040  -34.0050 C   0  0  0  0  0  0  0  0  0  0  0  0
   -5.4900   15.5400  -34.0032 H   0  0  0  0  0  0  0  0  0  0  0  0
   -6.0710   17.5510  -34.5590 C   0  0  0  0  0  0  0  0  0  0  0  0
   -7.0314   17.2413  -34.9968 H   0  0  0  0  0  0  0  0  0  0  0  0
   -5.7000   18.8960  -34.5520 C   0  0  0  0  0  0  0  0  0  0  0  0
   -6.3717   19.6511  -34.9863 H   0  0  0  0  0  0  0  0  0  0  0  0
   -4.5100   19.2790  -34.0100 N   0  0  0  0  0  0  0  0  0  0  0  0
   -4.2850   20.2970  -34.0320 H   0  0  0  0  0  0  0  0  0  0  0  0
   -1.8880   21.1200  -30.2030 C   0  0  0  0  0  0  0  0  0  0  0  0
   -0.9023   20.6373  -30.1290 H   0  0  0  0  0  0  0  0  0  0  0  0
   -2.4510   21.7320  -29.0780 C   0  0  0  0  0  0  0  0  0  0  0  0
   -1.8952   21.7496  -28.1289 H   0  0  0  0  0  0  0  0  0  0  0  0
   -3.7180   22.3220  -29.1540 C   0  0  0  0  0  0  0  0  0  0  0  0
   -4.2560   22.9710  -27.9920 N   0  0  0  0  0  0  0  0  0  0  0  0
   -3.7050   23.9320  -27.3500 N   0  0  0  0  0  0  0  0  0  0  0  0
   -2.5320   24.6460  -27.7640 C   0  0  0  0  0  0  0  0  0  0  0  0
   -2.3060   25.2920  -28.9750 C   0  0  0  0  0  0  0  0  0  0  0  0
   -3.1730   25.2880  -30.0600 O   0  0  0  0  0  0  0  0  0  0  0  0
   -1.1390   25.9800  -28.9680 N   0  0  0  0  0  0  0  0  0  0  0  0
   -0.6490   25.7820  -27.7280 C   0  0  0  0  0  0  0  0  0  0  0  0
    0.5350   26.3050  -27.2090 C   0  0  0  0  0  0  0  0  0  0  0  0
    1.1937   26.9352  -27.8245 H   0  0  0  0  0  0  0  0  0  0  0  0
    0.8620   26.0020  -25.8730 C   0  0  0  0  0  0  0  0  0  0  0  0
    1.7908   26.3967  -25.4353 H   0  0  0  0  0  0  0  0  0  0  0  0
    0.0060   25.1950  -25.0910 C   0  0  0  0  0  0  0  0  0  0  0  0
    0.2720   24.9665  -24.0484 H   0  0  0  0  0  0  0  0  0  0  0  0
   -1.1840   24.6820  -25.6370 C   0  0  0  0  0  0  0  0  0  0  0  0
   -1.8608   24.0547  -25.0383 H   0  0  0  0  0  0  0  0  0  0  0  0
   -1.4760   24.9960  -26.9630 C   0  0  0  0  0  0  0  0  0  0  0  0
  1  2  1  0
  2  3  2  0
  3  4  1  0
  3  5  1  0
  5  6  1  0
  6  7  2  0
  6  8  2  0
  6  9  1  0
  9 10  2  0
 10 11  1  0
 11 12  1  0
 11 13  2  0
 13 14  1  0
 13 15  1  0
 15 16  1  0
 15 17  2  0
 17 18  1  0
 17 19  1  0
 19 20  1  0
  5 21  2  0
 21 22  1  0
 21 23  1  0
 23 24  1  0
 23 25  2  0
 25 26  1  0
 26 27  2  0
 27 28  1  0
 28 29  2  0
 29 30  1  0
 29 31  1  0
 31 32  1  0
 32 33  2  0
 33 34  1  0
 33 35  1  0
 35 36  1  0
 35 37  2  0
 37 38  1  0
 37 39  1  0
 39 40  1  0
 39 41  2  0
 25  2  1  0
 41 28  1  0
 19 10  1  0
 41 32  1  0
M  CHG  2  30  -1  31  -1
M  END
>  <UniqueID>  (36) 
35

>  <SMILES>  (36) 
O=S(=O)(/N=c1/cccc[nH]1)c1ccc(/N=N\c2c([O-])[n-]c3ccccc23)cc1

>  <Energy>  (36) 
99.21202757471161

>  <Genealogy>  (36) 
O=S(=O)(N=c1cccc[nH]1)c1ccc(N=Nc2c([O-])[n-]c3ccccc23)cc1 (protonated)
O=S(=O)(/N=c1/cccc[nH]1)c1ccc(/N=N\c2c([O-])[n-]c3ccccc23)cc1 (cis-trans isomerization)
O=S(=O)(/N=c1/cccc[nH]1)c1ccc(/N=N\c2c([O-])[n-]c3ccccc23)cc1 (3D coordinates assigned)
O=S(=O)(/N=c1/cccc[nH]1)c1ccc(/N=N\c2c([O-])[n-]c3ccccc23)cc1 (optimized conformer: 99.21202757471161 kcal/mol)

>  <smiles>  (36) 
O=S(=O)(N=c1cccc[nH]1)c1ccc(N=Nc2c(O)[nH]c3ccccc23)cc1

>  <score_type>  (36) 
oracle

>  <origin>  (36) 
adgpu

>  <m_score__min__energy>  (36) 
-12.869999999999999

>  <m_primary>  (36) 
energy

$$$$
36:0
     RDKit          3D

 27 29  0  0  0  0  0  0  0  0999 V2000
   -1.2310   26.3180  -28.9700 O   0  0  0  0  0  0  0  0  0  0  0  0
   -1.8140   25.2110  -28.8250 C   0  0  0  0  0  0  0  0  0  0  0  0
   -2.9040   24.9320  -29.5860 N   0  0  0  0  0  0  0  0  0  0  0  0
   -3.6000   23.7620  -29.4990 C   0  0  0  0  0  0  0  0  0  0  0  0
   -4.7880   23.5660  -30.3920 C   0  0  0  0  0  0  0  0  0  0  0  0
   -5.9940   24.2390  -30.1000 C   0  0  0  0  0  0  0  0  0  0  0  0
   -7.1210   24.0790  -30.9110 C   0  0  0  0  0  0  0  0  0  0  0  0
   -7.0700   23.2460  -32.0270 C   0  0  0  0  0  0  0  0  0  0  0  0
   -5.8900   22.5710  -32.3350 C   0  0  0  0  0  0  0  0  0  0  0  0
   -4.7570   22.7240  -31.5300 C   0  0  0  0  0  0  0  0  0  0  0  0
   -3.1680   22.7930  -28.5710 C   0  0  0  0  0  0  0  0  0  0  0  0
   -2.0470   23.0430  -27.7670 C   0  0  0  0  0  0  0  0  0  0  0  0
   -1.6070   22.0850  -26.8380 C   0  0  0  0  0  0  0  0  0  0  0  0
   -0.4890   22.3420  -26.0400 C   0  0  0  0  0  0  0  0  0  0  0  0
    0.1970   23.5520  -26.1600 C   0  0  0  0  0  0  0  0  0  0  0  0
   -0.2310   24.5140  -27.0790 C   0  0  0  0  0  0  0  0  0  0  0  0
   -1.3550   24.2690  -27.8900 C   0  0  0  0  0  0  0  0  0  0  0  0
   -6.0476   24.8989  -29.2215 H   0  0  0  0  0  0  0  0  0  0  0  0
   -8.0516   24.6125  -30.6675 H   0  0  0  0  0  0  0  0  0  0  0  0
   -7.9587   23.1215  -32.6632 H   0  0  0  0  0  0  0  0  0  0  0  0
   -5.8499   21.9142  -33.2164 H   0  0  0  0  0  0  0  0  0  0  0  0
   -3.8323   22.1848  -31.7833 H   0  0  0  0  0  0  0  0  0  0  0  0
   -3.7104   21.8406  -28.4776 H   0  0  0  0  0  0  0  0  0  0  0  0
   -2.1440   21.1302  -26.7386 H   0  0  0  0  0  0  0  0  0  0  0  0
   -0.1483   21.5883  -25.3148 H   0  0  0  0  0  0  0  0  0  0  0  0
    1.0767   23.7487  -25.5296 H   0  0  0  0  0  0  0  0  0  0  0  0
    0.3125   25.4661  -27.1688 H   0  0  0  0  0  0  0  0  0  0  0  0
  1  2  2  0
  2  3  1  0
  3  4  1  0
  4  5  1  0
  5  6  2  0
  6  7  1  0
  7  8  2  0
  8  9  1  0
  9 10  2  0
  4 11  2  0
 11 12  1  0
 12 13  2  0
 13 14  1  0
 14 15  2  0
 15 16  1  0
 16 17  2  0
 17  2  1  0
 10  5  1  0
 17 12  1  0
  6 18  1  0
  7 19  1  0
  8 20  1  0
  9 21  1  0
 10 22  1  0
 11 23  1  0
 13 24  1  0
 14 25  1  0
 15 26  1  0
 16 27  1  0
M  CHG  1   3  -1
M  END
>  <UniqueID>  (37) 
36

>  <SMILES>  (37) 
O=c1[n-]c(-c2ccccc2)cc2ccccc12

>  <Energy>  (37) 
39.94994293317755

>  <Genealogy>  (37) 
O=c1[n-]c(-c2ccccc2)cc2ccccc12 (protonated)
O=c1[n-]c(-c2ccccc2)cc2ccccc12 (3D coordinates assigned)
O=c1[n-]c(-c2ccccc2)cc2ccccc12 (optimized conformer: 39.94994293317755 kcal/mol)

>  <smiles>  (37) 
O=c1[nH]c(-c2ccccc2)cc2ccccc12

>  <score_type>  (37) 
oracle

>  <origin>  (37) 
adgpu

>  <m_score__min__energy>  (37) 
-8.3100000000000005

>  <m_primary>  (37) 
energy

$$$$
37:0
     RDKit          3D

 53 56  0  0  1  0  0  0  0  0999 V2000
   -2.2030   12.8240  -31.3190 C   0  0  0  0  0  0  0  0  0  0  0  0
   -3.6050   12.9370  -31.1720 O   0  0  0  0  0  0  0  0  0  0  0  0
   -4.3360   13.5290  -32.1870 C   0  0  0  0  0  0  0  0  0  0  0  0
   -5.3630   12.9120  -32.8600 C   0  0  0  0  0  0  0  0  0  0  0  0
   -6.0750   13.5280  -33.8680 C   0  0  0  0  0  0  0  0  0  0  0  0
   -7.0900   12.8000  -34.4700 O   0  0  0  0  0  0  0  0  0  0  0  0
   -7.0370   12.5400  -35.8610 C   0  0  0  0  0  0  0  0  0  0  0  0
   -5.7430   14.8130  -34.2170 C   0  0  0  0  0  0  0  0  0  0  0  0
   -4.7100   15.4560  -33.5520 C   0  0  0  0  0  0  0  0  0  0  0  0
   -4.3380   16.7510  -33.8660 O   0  0  0  0  0  0  0  0  0  0  0  0
   -5.0530   17.8730  -33.4650 C   0  0  0  0  0  0  0  0  0  0  0  0
   -4.5230   19.1030  -33.4140 N   0  0  0  0  0  0  0  0  0  0  0  0
   -5.2380   20.1660  -33.0230 C   0  0  0  0  0  0  0  0  0  0  0  0
   -4.7130   21.2900  -33.0250 N   0  0  0  0  0  0  0  0  0  0  0  0
   -5.1240   22.5710  -32.7050 C   0  0  0  0  0  0  0  0  0  0  0  0
   -4.8260   23.0500  -31.3300 C   0  0  0  0  0  0  0  0  0  0  0  0
   -3.8630   22.4360  -30.5170 C   0  0  0  0  0  0  0  0  0  0  0  0
   -3.5870   22.8880  -29.2420 C   0  0  0  0  0  0  0  0  0  0  0  0
   -4.2450   23.9670  -28.6990 C   0  0  0  0  0  0  0  0  0  0  0  0
   -3.8830   24.5270  -27.0820 Cl  0  0  0  0  0  0  0  0  0  0  0  0
   -5.1910   24.5860  -29.4710 C   0  0  0  0  0  0  0  0  0  0  0  0
   -5.4610   24.1310  -30.7400 C   0  0  0  0  0  0  0  0  0  0  0  0
   -6.5560   20.0380  -32.6540 C   0  0  0  0  0  0  0  0  0  0  0  0
   -7.2560   21.1280  -32.2540 C   0  0  0  0  0  0  0  0  0  0  0  0
   -8.6040   20.8980  -31.8900 C   0  0  0  0  0  0  0  0  0  0  0  0
   -9.4830   22.0020  -31.4370 C   0  0  0  0  0  0  0  0  0  0  0  0
   -9.0870   19.6330  -31.9660 C   0  0  0  0  0  0  0  0  0  0  0  0
   -8.3660   18.5320  -32.3730 C   0  0  0  0  0  0  0  0  0  0  0  0
   -7.0630   18.7510  -32.7230 C   0  0  0  0  0  0  0  0  0  0  0  0
   -6.3380   17.6910  -33.1180 N   0  0  0  0  0  0  0  0  0  0  0  0
   -4.0080   14.8250  -32.5450 C   0  0  0  0  0  0  0  0  0  0  0  0
   -1.7321   12.7860  -30.3256 H   0  0  0  0  0  0  0  0  0  0  0  0
   -1.9654   11.9038  -31.8729 H   0  0  0  0  0  0  0  0  0  0  0  0
   -1.8211   13.6943  -31.8729 H   0  0  0  0  0  0  0  0  0  0  0  0
   -5.6290   11.8813  -32.5826 H   0  0  0  0  0  0  0  0  0  0  0  0
   -6.8198   11.4745  -36.0268 H   0  0  0  0  0  0  0  0  0  0  0  0
   -8.0051   12.7924  -36.3183 H   0  0  0  0  0  0  0  0  0  0  0  0
   -6.2450   13.1512  -36.3183 H   0  0  0  0  0  0  0  0  0  0  0  0
   -6.2922   15.3291  -35.0183 H   0  0  0  0  0  0  0  0  0  0  0  0
   -4.6379   23.2616  -33.4099 H   0  0  0  0  0  0  0  0  0  0  0  0
   -6.2219   22.5433  -32.7669 H   0  0  0  0  0  0  0  0  0  0  0  0
   -3.3107   21.5681  -30.9066 H   0  0  0  0  0  0  0  0  0  0  0  0
   -2.8209   22.3718  -28.6448 H   0  0  0  0  0  0  0  0  0  0  0  0
   -5.7387   25.4531  -29.0734 H   0  0  0  0  0  0  0  0  0  0  0  0
   -6.2297   24.6585  -31.3238 H   0  0  0  0  0  0  0  0  0  0  0  0
   -6.8037   22.1300  -32.2148 H   0  0  0  0  0  0  0  0  0  0  0  0
   -9.5030   22.0271  -30.3375 H   0  0  0  0  0  0  0  0  0  0  0  0
   -9.0965   22.9586  -31.8187 H   0  0  0  0  0  0  0  0  0  0  0  0
  -10.5018   21.8397  -31.8187 H   0  0  0  0  0  0  0  0  0  0  0  0
  -10.1372   19.4736  -31.6801 H   0  0  0  0  0  0  0  0  0  0  0  0
   -8.8155   17.5289  -32.4142 H   0  0  0  0  0  0  0  0  0  0  0  0
   -6.7540   16.7250  -33.1600 H   0  0  0  0  0  0  0  0  0  0  0  0
   -3.1908   15.3503  -32.0289 H   0  0  0  0  0  0  0  0  0  0  0  0
  1  2  1  0
  2  3  1  0
  3  4  2  0
  4  5  1  0
  5  6  1  0
  6  7  1  0
  5  8  2  0
  8  9  1  0
  9 10  1  0
 10 11  1  0
 11 12  2  0
 12 13  1  0
 13 14  2  0
 14 15  1  0
 15 16  1  0
 16 17  2  0
 17 18  1  0
 18 19  2  0
 19 20  1  0
 19 21  1  0
 21 22  2  0
 13 23  1  0
 23 24  2  0
 24 25  1  0
 25 26  1  0
 25 27  2  0
 27 28  1  0
 28 29  2  0
 29 30  1  0
  9 31  2  0
 31  3  1  0
 30 11  1  0
 22 16  1  0
 29 23  1  0
  1 32  1  0
  1 33  1  0
  1 34  1  0
  4 35  1  0
  7 36  1  0
  7 37  1  0
  7 38  1  0
  8 39  1  0
 15 40  1  0
 15 41  1  0
 17 42  1  0
 18 43  1  0
 21 44  1  0
 22 45  1  0
 24 46  1  0
 26 47  1  0
 26 48  1  0
 26 49  1  0
 27 50  1  0
 28 51  1  0
 30 52  1  0
 31 53  1  0
M  END
>  <smiles>  (38) 
COc1cc(OC)cc(Oc2nc(=NCc3ccc(Cl)cc3)c3cc(C)ccc3[nH]2)c1

>  <score_type>  (38) 
oracle

>  <origin>  (38) 
adgpu

>  <m_score__min__energy>  (38) 
-8.9100000000000001

>  <m_primary>  (38) 
energy

$$$$
38:0
     RDKit          3D

 45 48  0  0  0  0  0  0  0  0999 V2000
    0.7027   23.2145  -25.1647 H   0  0  0  0  0  0  0  0  0  0  0  0
    0.1140   23.5870  -26.0160 C   0  0  0  0  0  0  0  0  0  0  0  0
    0.4520   23.2310  -27.2830 N   0  0  0  0  0  0  0  0  0  0  0  0
   -0.2430   23.6820  -28.3610 C   0  0  0  0  0  0  0  0  0  0  0  0
    0.0473   23.3643  -29.3733 H   0  0  0  0  0  0  0  0  0  0  0  0
   -1.3300   24.5520  -28.1850 C   0  0  0  0  0  0  0  0  0  0  0  0
   -2.1250   24.9820  -29.2990 N   0  0  0  0  0  0  0  0  0  0  0  0
   -3.2690   24.5180  -29.7290 C   0  0  0  0  0  0  0  0  0  0  0  0
   -3.9630   25.2930  -30.6040 N   0  0  0  0  0  0  0  0  0  0  0  0
   -5.2180   24.9860  -31.0180 C   0  0  0  0  0  0  0  0  0  0  0  0
   -5.7426   25.6390  -31.7310 H   0  0  0  0  0  0  0  0  0  0  0  0
   -5.8410   23.8270  -30.5280 C   0  0  0  0  0  0  0  0  0  0  0  0
   -7.2510   23.4010  -30.8770 C   0  0  0  0  0  0  0  0  0  0  0  0
   -7.6647   24.4043  -30.6975 H   0  0  0  0  0  0  0  0  0  0  0  0
   -7.4100   22.3480  -31.9640 C   0  0  0  0  0  0  0  0  0  0  0  0
   -8.2494   22.4107  -32.6722 H   0  0  0  0  0  0  0  0  0  0  0  0
   -6.7664   21.9504  -32.7625 H   0  0  0  0  0  0  0  0  0  0  0  0
   -7.6680   21.9860  -30.5060 C   0  0  0  0  0  0  0  0  0  0  0  0
   -8.6936   21.7872  -30.1617 H   0  0  0  0  0  0  0  0  0  0  0  0
   -7.2877   21.2185  -29.8159 H   0  0  0  0  0  0  0  0  0  0  0  0
   -5.1220   23.0100  -29.7180 N   0  0  0  0  0  0  0  0  0  0  0  0
   -3.8540   23.2860  -29.3140 C   0  0  0  0  0  0  0  0  0  0  0  0
   -3.1050   22.2070  -28.6260 C   0  0  0  0  0  0  0  0  0  0  0  0
   -2.9270   22.2720  -27.3810 O   0  0  0  0  0  0  0  0  0  0  0  0
   -2.6200   21.0570  -29.3320 N   0  0  0  0  0  0  0  0  0  0  0  0
   -1.9540   21.0770  -30.5990 C   0  0  0  0  0  0  0  0  0  0  0  0
   -2.6600   21.3470  -31.7840 C   0  0  0  0  0  0  0  0  0  0  0  0
   -3.7442   21.5290  -31.7467 H   0  0  0  0  0  0  0  0  0  0  0  0
   -1.9890   21.3850  -33.0100 C   0  0  0  0  0  0  0  0  0  0  0  0
   -2.5501   21.5731  -33.9372 H   0  0  0  0  0  0  0  0  0  0  0  0
   -0.6030   21.1840  -33.0600 C   0  0  0  0  0  0  0  0  0  0  0  0
    0.2410   21.2160  -34.6060 S   0  0  0  0  0  0  0  0  0  0  0  0
    1.7180   21.0710  -34.3700 O   0  0  0  0  0  0  0  0  0  0  0  0
   -0.2410   20.0850  -35.4730 O   0  0  0  0  0  0  0  0  0  0  0  0
   -0.0700   22.7110  -35.4160 N   0  0  0  0  0  0  0  0  0  0  0  0
   -1.0580   22.9750  -35.2050 H   0  0  0  0  0  0  0  0  0  0  0  0
    0.5380   23.4340  -34.9680 H   0  0  0  0  0  0  0  0  0  0  0  0
    0.1060   20.9510  -31.8740 C   0  0  0  0  0  0  0  0  0  0  0  0
    1.1956   20.8036  -31.9076 H   0  0  0  0  0  0  0  0  0  0  0  0
   -0.5650   20.9050  -30.6480 C   0  0  0  0  0  0  0  0  0  0  0  0
   -0.0004   20.7333  -29.7197 H   0  0  0  0  0  0  0  0  0  0  0  0
   -1.7150   24.8960  -26.8850 C   0  0  0  0  0  0  0  0  0  0  0  0
   -2.5948   25.5359  -26.7223 H   0  0  0  0  0  0  0  0  0  0  0  0
   -0.9810   24.4260  -25.7940 C   0  0  0  0  0  0  0  0  0  0  0  0
   -1.2620   24.7134  -24.7701 H   0  0  0  0  0  0  0  0  0  0  0  0
  1  2  1  0
  2  3  2  0
  3  4  1  0
  4  5  1  0
  4  6  2  0
  6  7  1  0
  7  8  2  0
  8  9  1  0
  9 10  1  0
 10 11  1  0
 10 12  2  0
 12 13  1  0
 13 14  1  0
 13 15  1  0
 15 16  1  0
 15 17  1  0
 15 18  1  0
 18 19  1  0
 18 20  1  0
 12 21  1  0
 21 22  2  0
 22 23  1  0
 23 24  2  0
 23 25  1  0
 25 26  1  0
 26 27  2  0
 27 28  1  0
 27 29  1  0
 29 30  1  0
 29 31  2  0
 31 32  1  0
 32 33  2  0
 32 34  2  0
 32 35  1  0
 35 36  1  0
 35 37  1  0
 31 38  1  0
 38 39  1  0
 38 40  2  0
 40 41  1  0
  6 42  1  0
 42 43  1  0
 42 44  2  0
 44 45  1  0
 44  2  1  0
 22  8  1  0
 40 26  1  0
 18 13  1  0
M  CHG  2   9  -1  25  -1
M  END
>  <UniqueID>  (39) 
37

>  <SMILES>  (39) 
NS(=O)(=O)c1ccc([N-]C(=O)c2nc(C3CC3)c[n-]/c2=N/c2cccnc2)cc1

>  <Energy>  (39) 
345.26997410505726

>  <Genealogy>  (39) 
NS(=O)(=O)c1ccc([N-]C(=O)c2nc(C3CC3)c[n-]c2=Nc2cccnc2)cc1 (protonated)
NS(=O)(=O)c1ccc([N-]C(=O)c2nc(C3CC3)c[n-]/c2=N/c2cccnc2)cc1 (cis-trans isomerization)
NS(=O)(=O)c1ccc([N-]C(=O)c2nc(C3CC3)c[n-]/c2=N/c2cccnc2)cc1 (3D coordinates assigned)
NS(=O)(=O)c1ccc([N-]C(=O)c2nc(C3CC3)c[n-]/c2=N/c2cccnc2)cc1 (nonaromatic ring conformer: 345.26997410505726 kcal/mol)

>  <smiles>  (39) 
NS(=O)(=O)c1ccc(NC(=O)c2nc(C3CC3)c[nH]c2=Nc2cccnc2)cc1

>  <score_type>  (39) 
oracle

>  <origin>  (39) 
adgpu

>  <m_score__min__energy>  (39) 
-10.710000000000001

>  <m_primary>  (39) 
energy

$$$$
39:0
     RDKit          3D

 39 42  0  0  0  0  0  0  0  0999 V2000
   -1.9260   24.4880  -29.7050 O   0  0  0  0  0  0  0  0  0  0  0  0
   -3.1020   24.2620  -30.0970 C   0  0  0  0  0  0  0  0  0  0  0  0
   -3.9010   25.3070  -30.4450 N   0  0  0  0  0  0  0  0  0  0  0  0
   -5.1850   25.1240  -30.8510 C   0  0  0  0  0  0  0  0  0  0  0  0
   -5.7240   23.8380  -30.9100 C   0  0  0  0  0  0  0  0  0  0  0  0
   -4.9290   22.7470  -30.5580 C   0  0  0  0  0  0  0  0  0  0  0  0
   -3.5970   22.9450  -30.1630 C   0  0  0  0  0  0  0  0  0  0  0  0
   -2.7610   21.7800  -29.7970 C   0  0  0  0  0  0  0  0  0  0  0  0
   -2.8160   21.2950  -28.4800 C   0  0  0  0  0  0  0  0  0  0  0  0
   -2.0420   20.1960  -28.0760 C   0  0  0  0  0  0  0  0  0  0  0  0
   -2.1620   19.7430  -26.6290 C   0  0  0  0  0  0  0  0  0  0  0  0
   -3.3840   18.9140  -26.2570 C   0  0  0  0  0  0  0  0  0  0  0  0
   -2.0120   18.2550  -26.3470 C   0  0  0  0  0  0  0  0  0  0  0  0
   -1.2020   19.5760  -29.0230 C   0  0  0  0  0  0  0  0  0  0  0  0
   -1.1510   20.0430  -30.3360 C   0  0  0  0  0  0  0  0  0  0  0  0
   -1.9300   21.1330  -30.7370 C   0  0  0  0  0  0  0  0  0  0  0  0
   -1.8600   21.6410  -32.4640 S   0  0  0  0  0  0  0  0  0  0  0  0
   -3.0610   20.4160  -32.9860 C   0  0  0  0  0  0  0  0  0  0  0  0
   -2.6310   19.2040  -33.5340 C   0  0  0  0  0  0  0  0  0  0  0  0
   -3.5640   18.2530  -33.9540 C   0  0  0  0  0  0  0  0  0  0  0  0
   -4.9350   18.5040  -33.8190 C   0  0  0  0  0  0  0  0  0  0  0  0
   -6.0820   17.2850  -34.3580 Cl  0  0  0  0  0  0  0  0  0  0  0  0
   -5.3710   19.7160  -33.2530 C   0  0  0  0  0  0  0  0  0  0  0  0
   -7.0830   20.0700  -33.0600 Cl  0  0  0  0  0  0  0  0  0  0  0  0
   -4.4310   20.6650  -32.8340 C   0  0  0  0  0  0  0  0  0  0  0  0
   -5.8004   25.9908  -31.1336 H   0  0  0  0  0  0  0  0  0  0  0  0
   -6.7652   23.6862  -31.2308 H   0  0  0  0  0  0  0  0  0  0  0  0
   -5.3469   21.7300  -30.5901 H   0  0  0  0  0  0  0  0  0  0  0  0
   -3.4781   21.7857  -27.7514 H   0  0  0  0  0  0  0  0  0  0  0  0
   -1.6944   20.6590  -26.2386 H   0  0  0  0  0  0  0  0  0  0  0  0
   -3.8650   19.0519  -25.2774 H   0  0  0  0  0  0  0  0  0  0  0  0
   -4.3676   18.7293  -26.7136 H   0  0  0  0  0  0  0  0  0  0  0  0
   -1.5030   17.9171  -25.4323 H   0  0  0  0  0  0  0  0  0  0  0  0
   -1.5954   17.3974  -26.8955 H   0  0  0  0  0  0  0  0  0  0  0  0
   -0.5823   18.7177  -28.7242 H   0  0  0  0  0  0  0  0  0  0  0  0
   -0.4910   19.5487  -31.0641 H   0  0  0  0  0  0  0  0  0  0  0  0
   -1.5551   18.9986  -33.6348 H   0  0  0  0  0  0  0  0  0  0  0  0
   -3.2207   17.3042  -34.3921 H   0  0  0  0  0  0  0  0  0  0  0  0
   -4.7695   21.6098  -32.3837 H   0  0  0  0  0  0  0  0  0  0  0  0
  1  2  2  0
  2  3  1  0
  3  4  1  0
  4  5  2  0
  5  6  1  0
  6  7  2  0
  7  8  1  0
  8  9  2  0
  9 10  1  0
 10 11  1  0
 11 12  1  0
 12 13  1  0
 10 14  2  0
 14 15  1  0
 15 16  2  0
 16 17  1  0
 17 18  1  0
 18 19  2  0
 19 20  1  0
 20 21  2  0
 21 22  1  0
 21 23  1  0
 23 24  1  0
 23 25  2  0
  7  2  1  0
 16  8  1  0
 25 18  1  0
 13 11  1  0
  4 26  1  0
  5 27  1  0
  6 28  1  0
  9 29  1  0
 11 30  1  0
 12 31  1  0
 12 32  1  0
 13 33  1  0
 13 34  1  0
 14 35  1  0
 15 36  1  0
 19 37  1  0
 20 38  1  0
 25 39  1  0
M  CHG  1   3  -1
M  END
>  <UniqueID>  (40) 
38

>  <SMILES>  (40) 
O=c1[n-]cccc1-c1cc(C2CC2)ccc1Sc1ccc(Cl)c(Cl)c1

>  <Energy>  (40) 
315.04952435187016

>  <Genealogy>  (40) 
O=c1[n-]cccc1-c1cc(C2CC2)ccc1Sc1ccc(Cl)c(Cl)c1 (protonated)
O=c1[n-]cccc1-c1cc(C2CC2)ccc1Sc1ccc(Cl)c(Cl)c1 (3D coordinates assigned)
O=c1[n-]cccc1-c1cc(C2CC2)ccc1Sc1ccc(Cl)c(Cl)c1 (nonaromatic ring conformer: 315.04952435187016 kcal/mol)

>  <smiles>  (40) 
O=c1[nH]cccc1-c1cc(C2CC2)ccc1Sc1ccc(Cl)c(Cl)c1

>  <score_type>  (40) 
oracle

>  <origin>  (40) 
adgpu

>  <m_score__min__energy>  (40) 
-10.98

>  <m_primary>  (40) 
energy

$$$$
40:0
     RDKit          3D

 47 50  0  0  0  0  0  0  0  0999 V2000
    0.7260   25.8770  -36.8100 C   0  0  0  0  0  0  0  0  0  0  0  0
    1.5300   24.7690  -37.2020 O   0  0  0  0  0  0  0  0  0  0  0  0
    1.6700   23.5900  -36.4560 C   0  0  0  0  0  0  0  0  0  0  0  0
    0.5700   22.7910  -36.0900 C   0  0  0  0  0  0  0  0  0  0  0  0
    0.7620   21.6230  -35.3460 C   0  0  0  0  0  0  0  0  0  0  0  0
    2.0520   21.2290  -34.9530 C   0  0  0  0  0  0  0  0  0  0  0  0
    2.2570   19.9930  -34.1620 C   0  0  0  0  0  0  0  0  0  0  0  0
    3.0790   19.1220  -34.5590 O   0  0  0  0  0  0  0  0  0  0  0  0
    1.4840   19.7630  -32.9760 N   0  0  0  0  0  0  0  0  0  0  0  0
    0.1200   20.1500  -32.7550 C   0  0  0  0  0  0  0  0  0  0  0  0
   -0.8810   19.5500  -33.5290 C   0  0  0  0  0  0  0  0  0  0  0  0
   -2.2210   19.9120  -33.3620 C   0  0  0  0  0  0  0  0  0  0  0  0
   -2.5790   20.8970  -32.4280 C   0  0  0  0  0  0  0  0  0  0  0  0
   -3.9960   21.2770  -32.2560 C   0  0  0  0  0  0  0  0  0  0  0  0
   -5.0350   20.4320  -32.5010 N   0  0  0  0  0  0  0  0  0  0  0  0
   -6.0980   21.2010  -32.2110 C   0  0  0  0  0  0  0  0  0  0  0  0
   -7.4430   20.8540  -32.2740 C   0  0  0  0  0  0  0  0  0  0  0  0
   -8.3950   21.8280  -31.8970 C   0  0  0  0  0  0  0  0  0  0  0  0
   -9.8590   21.5160  -31.9750 C   0  0  0  0  0  0  0  0  0  0  0  0
   -7.9640   23.1210  -31.4980 C   0  0  0  0  0  0  0  0  0  0  0  0
   -6.5900   23.4430  -31.4620 C   0  0  0  0  0  0  0  0  0  0  0  0
   -6.1140   24.7860  -30.9970 C   0  0  0  0  0  0  0  0  0  0  0  0
   -5.6890   22.4380  -31.8180 C   0  0  0  0  0  0  0  0  0  0  0  0
   -4.3840   22.4750  -31.8470 O   0  0  0  0  0  0  0  0  0  0  0  0
   -1.5730   21.5190  -31.6700 C   0  0  0  0  0  0  0  0  0  0  0  0
   -0.2330   21.1540  -31.8370 C   0  0  0  0  0  0  0  0  0  0  0  0
    3.1480   22.0320  -35.3210 C   0  0  0  0  0  0  0  0  0  0  0  0
    2.9550   23.1990  -36.0650 C   0  0  0  0  0  0  0  0  0  0  0  0
    0.6866   25.9312  -35.7120 H   0  0  0  0  0  0  0  0  0  0  0  0
    1.1621   26.8053  -37.2076 H   0  0  0  0  0  0  0  0  0  0  0  0
   -0.2918   25.7504  -37.2076 H   0  0  0  0  0  0  0  0  0  0  0  0
   -0.4457   23.0873  -36.3910 H   0  0  0  0  0  0  0  0  0  0  0  0
   -0.1050   21.0068  -35.0657 H   0  0  0  0  0  0  0  0  0  0  0  0
   -0.6107   18.7876  -34.2745 H   0  0  0  0  0  0  0  0  0  0  0  0
   -2.9992   19.4223  -33.9658 H   0  0  0  0  0  0  0  0  0  0  0  0
   -7.7560   19.8533  -32.6067 H   0  0  0  0  0  0  0  0  0  0  0  0
  -10.2699   21.4284  -30.9584 H   0  0  0  0  0  0  0  0  0  0  0  0
  -10.3779   22.3237  -32.5119 H   0  0  0  0  0  0  0  0  0  0  0  0
  -10.0035   20.5669  -32.5119 H   0  0  0  0  0  0  0  0  0  0  0  0
   -8.7084   23.8794  -31.2141 H   0  0  0  0  0  0  0  0  0  0  0  0
   -6.1050   24.8113  -29.8973 H   0  0  0  0  0  0  0  0  0  0  0  0
   -5.0973   24.9661  -31.3762 H   0  0  0  0  0  0  0  0  0  0  0  0
   -6.7904   25.5662  -31.3762 H   0  0  0  0  0  0  0  0  0  0  0  0
   -1.8406   22.2978  -30.9407 H   0  0  0  0  0  0  0  0  0  0  0  0
    0.5484   21.6553  -31.2469 H   0  0  0  0  0  0  0  0  0  0  0  0
    4.1646   21.7385  -35.0205 H   0  0  0  0  0  0  0  0  0  0  0  0
    3.8214   23.8158  -36.3458 H   0  0  0  0  0  0  0  0  0  0  0  0
  1  2  1  0
  2  3  1  0
  3  4  2  0
  4  5  1  0
  5  6  2  0
  6  7  1  0
  7  8  2  0
  7  9  1  0
  9 10  1  0
 10 11  2  0
 11 12  1  0
 12 13  2  0
 13 14  1  0
 14 15  2  0
 15 16  1  0
 16 17  2  0
 17 18  1  0
 18 19  1  0
 18 20  2  0
 20 21  1  0
 21 22  1  0
 21 23  2  0
 23 24  1  0
 13 25  1  0
 25 26  2  0
  6 27  1  0
 27 28  2  0
 28  3  1  0
 26 10  1  0
 24 14  1  0
 23 16  1  0
  1 29  1  0
  1 30  1  0
  1 31  1  0
  4 32  1  0
  5 33  1  0
 11 34  1  0
 12 35  1  0
 17 36  1  0
 19 37  1  0
 19 38  1  0
 19 39  1  0
 20 40  1  0
 22 41  1  0
 22 42  1  0
 22 43  1  0
 25 44  1  0
 26 45  1  0
 27 46  1  0
 28 47  1  0
M  CHG  1   9  -1
M  END
>  <UniqueID>  (41) 
39

>  <SMILES>  (41) 
COc1ccc(C(=O)[N-]c2ccc(-c3nc4cc(C)cc(C)c4o3)cc2)cc1

>  <Energy>  (41) 
90.79834531686377

>  <Genealogy>  (41) 
COc1ccc(C(=O)[N-]c2ccc(-c3nc4cc(C)cc(C)c4o3)cc2)cc1 (protonated)
COc1ccc(C(=O)[N-]c2ccc(-c3nc4cc(C)cc(C)c4o3)cc2)cc1 (3D coordinates assigned)
COc1ccc(C(=O)[N-]c2ccc(-c3nc4cc(C)cc(C)c4o3)cc2)cc1 (optimized conformer: 90.79834531686377 kcal/mol)

>  <smiles>  (41) 
COc1ccc(C(=O)Nc2ccc(-c3nc4cc(C)cc(C)c4o3)cc2)cc1

>  <score_type>  (41) 
oracle

>  <origin>  (41) 
adgpu

>  <m_score__min__energy>  (41) 
-9.7699999999999996

>  <m_primary>  (41) 
energy

$$$$
41:0
     RDKit          3D

 29 31  0  0  0  0  0  0  0  0999 V2000
   -5.7450   23.7860  -32.8660 O   0  0  0  0  0  0  0  0  0  0  0  0
   -5.4590   23.6110  -31.6520 C   0  0  0  0  0  0  0  0  0  0  0  0
   -4.5300   24.3390  -31.0020 N   0  0  0  0  0  0  0  0  0  0  0  0
   -4.5420   23.7810  -29.7670 C   0  0  0  0  0  0  0  0  0  0  0  0
   -3.6770   24.2470  -28.6550 C   0  0  0  0  0  0  0  0  0  0  0  0
   -2.2950   24.4540  -28.8360 C   0  0  0  0  0  0  0  0  0  0  0  0
   -1.4980   24.8930  -27.7740 C   0  0  0  0  0  0  0  0  0  0  0  0
   -2.0690   25.1330  -26.5210 C   0  0  0  0  0  0  0  0  0  0  0  0
   -1.0660   25.6850  -25.1910 Cl  0  0  0  0  0  0  0  0  0  0  0  0
   -3.4380   24.9350  -26.3290 C   0  0  0  0  0  0  0  0  0  0  0  0
   -4.2380   24.4960  -27.3890 C   0  0  0  0  0  0  0  0  0  0  0  0
   -5.4350   22.7700  -29.6850 N   0  0  0  0  0  0  0  0  0  0  0  0
   -6.0150   22.6660  -30.8680 N   0  0  0  0  0  0  0  0  0  0  0  0
   -7.0340   21.7050  -31.2060 C   0  0  0  0  0  0  0  0  0  0  0  0
   -6.6920   20.4040  -31.6190 C   0  0  0  0  0  0  0  0  0  0  0  0
   -7.6890   19.4830  -31.9520 C   0  0  0  0  0  0  0  0  0  0  0  0
   -9.0350   19.8490  -31.8780 C   0  0  0  0  0  0  0  0  0  0  0  0
   -9.3860   21.1390  -31.4750 C   0  0  0  0  0  0  0  0  0  0  0  0
   -8.3920   22.0650  -31.1430 C   0  0  0  0  0  0  0  0  0  0  0  0
   -1.8396   24.2689  -29.8200 H   0  0  0  0  0  0  0  0  0  0  0  0
   -0.4197   25.0497  -27.9250 H   0  0  0  0  0  0  0  0  0  0  0  0
   -3.8876   25.1245  -25.3431 H   0  0  0  0  0  0  0  0  0  0  0  0
   -5.3160   24.3440  -27.2313 H   0  0  0  0  0  0  0  0  0  0  0  0
   -5.6710   22.1880  -28.8520 H   0  0  0  0  0  0  0  0  0  0  0  0
   -5.6337   20.1102  -31.6801 H   0  0  0  0  0  0  0  0  0  0  0  0
   -7.4132   18.4677  -32.2731 H   0  0  0  0  0  0  0  0  0  0  0  0
   -9.8181   19.1213  -32.1371 H   0  0  0  0  0  0  0  0  0  0  0  0
  -10.4460   21.4273  -31.4186 H   0  0  0  0  0  0  0  0  0  0  0  0
   -8.6741   23.0813  -30.8306 H   0  0  0  0  0  0  0  0  0  0  0  0
  1  2  2  0
  2  3  1  0
  3  4  2  0
  4  5  1  0
  5  6  2  0
  6  7  1  0
  7  8  2  0
  8  9  1  0
  8 10  1  0
 10 11  2  0
  4 12  1  0
 12 13  1  0
 13 14  1  0
 14 15  2  0
 15 16  1  0
 16 17  2  0
 17 18  1  0
 18 19  2  0
 13  2  1  0
 19 14  1  0
 11  5  1  0
  6 20  1  0
  7 21  1  0
 10 22  1  0
 11 23  1  0
 12 24  1  0
 15 25  1  0
 16 26  1  0
 17 27  1  0
 18 28  1  0
 19 29  1  0
M  END
>  <UniqueID>  (42) 
40

>  <SMILES>  (42) 
O=c1nc(-c2ccc(Cl)cc2)[nH]n1-c1ccccc1

>  <Energy>  (42) 
73.28058820570186

>  <Genealogy>  (42) 
O=c1nc(-c2ccc(Cl)cc2)[nH]n1-c1ccccc1 (3D coordinates assigned)
O=c1nc(-c2ccc(Cl)cc2)[nH]n1-c1ccccc1 (optimized conformer: 73.28058820570186 kcal/mol)

>  <smiles>  (42) 
O=c1nc(-c2ccc(Cl)cc2)[nH]n1-c1ccccc1

>  <score_type>  (42) 
oracle

>  <origin>  (42) 
adgpu

>  <m_score__min__energy>  (42) 
-7.25

>  <m_primary>  (42) 
energy

$$$$
42:0
     RDKit          3D

 41 43  0  0  0  0  0  0  0  0999 V2000
   -3.5720   25.2980  -30.3610 N   0  0  0  0  0  0  0  0  0  0  0  0
   -4.6430   23.9830  -30.6840 S   0  0  0  0  0  0  0  0  0  0  0  0
   -5.5150   24.3210  -31.8610 O   0  0  0  0  0  0  0  0  0  0  0  0
   -5.5210   23.7470  -29.4870 O   0  0  0  0  0  0  0  0  0  0  0  0
   -3.7080   22.5320  -31.0300 C   0  0  0  0  0  0  0  0  0  0  0  0
   -3.4260   21.6150  -30.0100 C   0  0  0  0  0  0  0  0  0  0  0  0
   -2.6820   20.4650  -30.2830 C   0  0  0  0  0  0  0  0  0  0  0  0
   -2.2180   20.2090  -31.5860 C   0  0  0  0  0  0  0  0  0  0  0  0
   -1.4600   18.9740  -31.8940 C   0  0  0  0  0  0  0  0  0  0  0  0
   -0.3480   18.7780  -31.3350 O   0  0  0  0  0  0  0  0  0  0  0  0
   -1.9690   17.9670  -32.7820 N   0  0  0  0  0  0  0  0  0  0  0  0
   -3.2410   17.9940  -33.4460 C   0  0  0  0  0  0  0  0  0  0  0  0
   -3.3480   17.4480  -34.7300 C   0  0  0  0  0  0  0  0  0  0  0  0
   -4.5780   17.4400  -35.3930 C   0  0  0  0  0  0  0  0  0  0  0  0
   -5.7090   17.9840  -34.7800 C   0  0  0  0  0  0  0  0  0  0  0  0
   -5.6140   18.5530  -33.5010 C   0  0  0  0  0  0  0  0  0  0  0  0
   -6.8040   19.1400  -32.8520 C   0  0  0  0  0  0  0  0  0  0  0  0
   -7.8480   18.2870  -32.4540 C   0  0  0  0  0  0  0  0  0  0  0  0
   -8.9760   18.8000  -31.8120 C   0  0  0  0  0  0  0  0  0  0  0  0
   -9.0780   20.1680  -31.5630 C   0  0  0  0  0  0  0  0  0  0  0  0
   -8.0560   21.0310  -31.9650 C   0  0  0  0  0  0  0  0  0  0  0  0
   -6.9170   20.5330  -32.6180 C   0  0  0  0  0  0  0  0  0  0  0  0
   -5.9160   21.4540  -33.0720 N   0  0  0  0  0  0  0  0  0  0  0  0
   -4.3720   18.5800  -32.8490 C   0  0  0  0  0  0  0  0  0  0  0  0
   -2.4780   21.1470  -32.5990 C   0  0  0  0  0  0  0  0  0  0  0  0
   -3.2200   22.3000  -32.3220 C   0  0  0  0  0  0  0  0  0  0  0  0
   -3.5570   25.8970  -31.2180 H   0  0  0  0  0  0  0  0  0  0  0  0
   -3.7920   21.8012  -28.9895 H   0  0  0  0  0  0  0  0  0  0  0  0
   -2.4574   19.7547  -29.4737 H   0  0  0  0  0  0  0  0  0  0  0  0
   -2.4595   17.0230  -35.2198 H   0  0  0  0  0  0  0  0  0  0  0  0
   -4.6557   17.0043  -36.4000 H   0  0  0  0  0  0  0  0  0  0  0  0
   -6.6773   17.9663  -35.3016 H   0  0  0  0  0  0  0  0  0  0  0  0
   -7.7753   17.2071  -32.6500 H   0  0  0  0  0  0  0  0  0  0  0  0
   -9.7862   18.1237  -31.5018 H   0  0  0  0  0  0  0  0  0  0  0  0
   -9.9645   20.5682  -31.0493 H   0  0  0  0  0  0  0  0  0  0  0  0
   -8.1441   22.1097  -31.7684 H   0  0  0  0  0  0  0  0  0  0  0  0
   -6.0140   22.4760  -32.8860 H   0  0  0  0  0  0  0  0  0  0  0  0
   -5.1010   21.1470  -33.6470 H   0  0  0  0  0  0  0  0  0  0  0  0
   -4.2820   19.0625  -31.8646 H   0  0  0  0  0  0  0  0  0  0  0  0
   -2.0959   20.9738  -33.6158 H   0  0  0  0  0  0  0  0  0  0  0  0
   -3.4210   23.0274  -33.1223 H   0  0  0  0  0  0  0  0  0  0  0  0
  1  2  1  0
  2  3  2  0
  2  4  2  0
  2  5  1  0
  5  6  2  0
  6  7  1  0
  7  8  2  0
  8  9  1  0
  9 10  2  0
  9 11  1  0
 11 12  1  0
 12 13  2  0
 13 14  1  0
 14 15  2  0
 15 16  1  0
 16 17  1  0
 17 18  2  0
 18 19  1  0
 19 20  2  0
 20 21  1  0
 21 22  2  0
 22 23  1  0
 16 24  2  0
  8 25  1  0
 25 26  2  0
 26  5  1  0
 24 12  1  0
 22 17  1  0
  1 27  1  0
  6 28  1  0
  7 29  1  0
 13 30  1  0
 14 31  1  0
 15 32  1  0
 18 33  1  0
 19 34  1  0
 20 35  1  0
 21 36  1  0
 23 37  1  0
 23 38  1  0
 24 39  1  0
 25 40  1  0
 26 41  1  0
M  CHG  2   1  -1  11  -1
M  END
>  <UniqueID>  (43) 
41

>  <SMILES>  (43) 
[NH-]S(=O)(=O)c1ccc(C(=O)[N-]c2cccc(-c3ccccc3N)c2)cc1

>  <Energy>  (43) 
56.79136895136267

>  <Genealogy>  (43) 
[NH-]S(=O)(=O)c1ccc(C(=O)[N-]c2cccc(-c3ccccc3N)c2)cc1 (protonated)
[NH-]S(=O)(=O)c1ccc(C(=O)[N-]c2cccc(-c3ccccc3N)c2)cc1 (3D coordinates assigned)
[NH-]S(=O)(=O)c1ccc(C(=O)[N-]c2cccc(-c3ccccc3N)c2)cc1 (optimized conformer: 56.79136895136267 kcal/mol)

>  <smiles>  (43) 
Nc1ccccc1-c1cccc(NC(=O)c2ccc(S(N)(=O)=O)cc2)c1

>  <score_type>  (43) 
oracle

>  <origin>  (43) 
adgpu

>  <m_score__min__energy>  (43) 
-11.69

>  <m_primary>  (43) 
energy

$$$$
43:0
     RDKit          3D

 57 62  0  0  0  0  0  0  0  0999 V2000
    0.9040   17.8760  -27.0170 H   0  0  0  0  0  0  0  0  0  0  0  0
    0.8540   17.9730  -28.0570 N   0  0  0  0  0  0  0  0  0  0  0  0
    0.4640   19.0740  -28.6170 C   0  0  0  0  0  0  0  0  0  0  0  0
    0.1110   20.1300  -27.8380 N   0  0  0  0  0  0  0  0  0  0  0  0
   -0.3210   21.3120  -28.3500 C   0  0  0  0  0  0  0  0  0  0  0  0
   -0.6910   22.3730  -27.4890 C   0  0  0  0  0  0  0  0  0  0  0  0
   -0.6470   22.2420  -26.0100 C   0  0  0  0  0  0  0  0  0  0  0  0
   -1.1890   21.2220  -25.2460 C   0  0  0  0  0  0  0  0  0  0  0  0
   -1.7596   20.3675  -25.6387 H   0  0  0  0  0  0  0  0  0  0  0  0
   -0.9080   21.4400  -23.9460 N   0  0  0  0  0  0  0  0  0  0  0  0
   -0.2050   22.5580  -23.8670 N   0  0  0  0  0  0  0  0  0  0  0  0
    0.1580   22.9610  -22.9750 H   0  0  0  0  0  0  0  0  0  0  0  0
   -0.0230   23.0700  -25.0950 C   0  0  0  0  0  0  0  0  0  0  0  0
    0.5287   23.9915  -25.3327 H   0  0  0  0  0  0  0  0  0  0  0  0
   -1.1140   23.5890  -28.0510 C   0  0  0  0  0  0  0  0  0  0  0  0
   -1.3811   24.4288  -27.3927 H   0  0  0  0  0  0  0  0  0  0  0  0
   -1.1990   23.7430  -29.4350 C   0  0  0  0  0  0  0  0  0  0  0  0
   -1.5491   24.6957  -29.8591 H   0  0  0  0  0  0  0  0  0  0  0  0
   -0.8430   22.6970  -30.2820 C   0  0  0  0  0  0  0  0  0  0  0  0
   -0.9254   22.8239  -31.3715 H   0  0  0  0  0  0  0  0  0  0  0  0
   -0.3790   21.4800  -29.7540 C   0  0  0  0  0  0  0  0  0  0  0  0
    0.0240   20.4170  -30.5890 C   0  0  0  0  0  0  0  0  0  0  0  0
    0.0640   20.5810  -31.9810 O   0  0  0  0  0  0  0  0  0  0  0  0
   -0.7720   19.8260  -32.8610 C   0  0  0  0  0  0  0  0  0  0  0  0
   -0.4398   19.9812  -33.8981 H   0  0  0  0  0  0  0  0  0  0  0  0
   -0.6990   18.7610  -32.5955 H   0  0  0  0  0  0  0  0  0  0  0  0
   -2.2050   20.2640  -32.7290 C   0  0  0  0  0  0  0  0  0  0  0  0
   -2.6240   21.4880  -33.2720 C   0  0  0  0  0  0  0  0  0  0  0  0
   -1.9178   22.1001  -33.8521 H   0  0  0  0  0  0  0  0  0  0  0  0
   -3.9350   21.9330  -33.0790 C   0  0  0  0  0  0  0  0  0  0  0  0
   -4.2562   22.8936  -33.5080 H   0  0  0  0  0  0  0  0  0  0  0  0
   -4.8430   21.1590  -32.3400 C   0  0  0  0  0  0  0  0  0  0  0  0
   -6.2190   21.6470  -32.1050 C   0  0  0  0  0  0  0  0  0  0  0  0
   -7.2870   20.7860  -32.4120 C   0  0  0  0  0  0  0  0  0  0  0  0
   -7.0790   19.7600  -32.7496 H   0  0  0  0  0  0  0  0  0  0  0  0
   -8.6080   21.2190  -32.2930 C   0  0  0  0  0  0  0  0  0  0  0  0
   -9.4348   20.5347  -32.5340 H   0  0  0  0  0  0  0  0  0  0  0  0
   -8.8800   22.5180  -31.8690 C   0  0  0  0  0  0  0  0  0  0  0  0
   -9.9217   22.8619  -31.7878 H   0  0  0  0  0  0  0  0  0  0  0  0
   -7.8340   23.3840  -31.5470 C   0  0  0  0  0  0  0  0  0  0  0  0
   -8.0593   24.4079  -31.2142 H   0  0  0  0  0  0  0  0  0  0  0  0
   -6.4940   22.9630  -31.6430 C   0  0  0  0  0  0  0  0  0  0  0  0
   -5.4270   23.9010  -31.2120 C   0  0  0  0  0  0  0  0  0  0  0  0
   -5.5040   25.2430  -31.2770 N   0  0  0  0  0  0  0  0  0  0  0  0
   -4.3330   25.6730  -30.8380 N   0  0  0  0  0  0  0  0  0  0  0  0
   -3.5670   24.6400  -30.5260 N   0  0  0  0  0  0  0  0  0  0  0  0
   -4.2210   23.5140  -30.7540 N   0  0  0  0  0  0  0  0  0  0  0  0
   -4.4180   19.9430  -31.7820 C   0  0  0  0  0  0  0  0  0  0  0  0
   -5.1193   19.3381  -31.1885 H   0  0  0  0  0  0  0  0  0  0  0  0
   -3.1090   19.4980  -31.9770 C   0  0  0  0  0  0  0  0  0  0  0  0
   -2.7848   18.5424  -31.5391 H   0  0  0  0  0  0  0  0  0  0  0  0
    0.4060   19.1830  -30.0210 C   0  0  0  0  0  0  0  0  0  0  0  0
    0.7660   17.9970  -30.8940 C   0  0  0  0  0  0  0  0  0  0  0  0
    0.4685   18.2068  -31.9320 H   0  0  0  0  0  0  0  0  0  0  0  0
    1.8518   17.8292  -30.8400 H   0  0  0  0  0  0  0  0  0  0  0  0
    0.1040   16.8460  -30.4470 O   0  0  0  0  0  0  0  0  0  0  0  0
    0.2200   16.8180  -29.4610 H   0  0  0  0  0  0  0  0  0  0  0  0
  1  2  1  0
  2  3  2  0
  3  4  1  0
  4  5  1  0
  5  6  2  0
  6  7  1  0
  7  8  1  0
  8  9  1  0
  8 10  2  0
 10 11  1  0
 11 12  1  0
 11 13  1  0
 13 14  1  0
  6 15  1  0
 15 16  1  0
 15 17  2  0
 17 18  1  0
 17 19  1  0
 19 20  1  0
 19 21  2  0
 21 22  1  0
 22 23  1  0
 23 24  1  0
 24 25  1  0
 24 26  1  0
 24 27  1  0
 27 28  2  0
 28 29  1  0
 28 30  1  0
 30 31  1  0
 30 32  2  0
 32 33  1  0
 33 34  2  0
 34 35  1  0
 34 36  1  0
 36 37  1  0
 36 38  2  0
 38 39  1  0
 38 40  1  0
 40 41  1  0
 40 42  2  0
 42 43  1  0
 43 44  1  0
 44 45  2  0
 45 46  1  0
 46 47  1  0
 32 48  1  0
 48 49  1  0
 48 50  2  0
 50 51  1  0
 22 52  2  0
 52 53  1  0
 53 54  1  0
 53 55  1  0
 53 56  1  0
 56 57  1  0
 52  3  1  0
 21  5  1  0
 50 27  1  0
 13  7  2  0
 42 33  1  0
 47 43  2  0
M  CHG  2   4  -1  46  -1
M  END
>  <UniqueID>  (44) 
42

>  <SMILES>  (44) 
[H]/N=c1\[n-]c2c(-c3cn[nH]c3)cccc2c(OCc2ccc(-c3ccccc3-c3nn[n-]n3)cc2)c1CO

>  <Energy>  (44) 
158.47403587223556

>  <Genealogy>  (44) 
N=c1[n-]c2c(-c3cn[nH]c3)cccc2c(OCc2ccc(-c3ccccc3-c3nn[n-]n3)cc2)c1CO (protonated)
[H]/N=c1\[n-]c2c(-c3cn[nH]c3)cccc2c(OCc2ccc(-c3ccccc3-c3nn[n-]n3)cc2)c1CO (cis-trans isomerization)
[H]/N=c1\[n-]c2c(-c3cn[nH]c3)cccc2c(OCc2ccc(-c3ccccc3-c3nn[n-]n3)cc2)c1CO (3D coordinates assigned)
[H]/N=c1\[n-]c2c(-c3cn[nH]c3)cccc2c(OCc2ccc(-c3ccccc3-c3nn[n-]n3)cc2)c1CO (optimized conformer: 158.47403587223556 kcal/mol)

>  <smiles>  (44) 
N=c1[nH]c2c(-c3cn[nH]c3)cccc2c(OCc2ccc(-c3ccccc3-c3nn[nH]n3)cc2)c1CO

>  <score_type>  (44) 
oracle

>  <origin>  (44) 
adgpu

>  <m_score__min__energy>  (44) 
-11.49

>  <m_primary>  (44) 
energy

$$$$
44:0
     RDKit          3D

 38 40  0  0  0  0  0  0  0  0999 V2000
   -0.4140   21.1290  -32.3710 C   0  0  0  0  0  0  0  0  0  0  0  0
   -0.8050   21.9080  -31.1190 C   0  0  0  0  0  0  0  0  0  0  0  0
   -2.2560   22.0760  -31.0380 N   0  0  0  0  0  0  0  0  0  0  0  0
   -2.8440   23.1490  -30.2930 C   0  0  0  0  0  0  0  0  0  0  0  0
   -2.1100   23.9690  -29.6750 O   0  0  0  0  0  0  0  0  0  0  0  0
   -4.3410   23.2710  -30.2090 C   0  0  2  0  0  0  0  0  0  0  0  0
   -4.9590   22.6370  -31.3100 O   0  0  0  0  0  0  0  0  0  0  0  0
   -6.0380   23.4480  -31.7340 C   0  0  1  0  0  0  0  0  0  0  0  0
   -7.2740   22.6610  -31.8140 N   0  0  0  0  0  0  0  0  0  0  0  0
   -8.5500   23.1220  -31.8830 C   0  0  0  0  0  0  0  0  0  0  0  0
   -9.4720   22.1330  -32.0170 N   0  0  0  0  0  0  0  0  0  0  0  0
   -8.7200   21.0170  -32.0370 C   0  0  0  0  0  0  0  0  0  0  0  0
   -9.1570   19.7010  -32.1730 C   0  0  0  0  0  0  0  0  0  0  0  0
   -8.1820   18.6860  -32.1900 C   0  0  0  0  0  0  0  0  0  0  0  0
   -6.8090   19.0100  -32.0760 C   0  0  0  0  0  0  0  0  0  0  0  0
   -6.4010   20.3490  -31.9410 C   0  0  0  0  0  0  0  0  0  0  0  0
   -7.3970   21.3290  -31.9210 C   0  0  0  0  0  0  0  0  0  0  0  0
   -6.1790   24.6520  -30.7910 C   0  0  1  0  0  0  0  0  0  0  0  0
   -7.2000   24.4750  -29.8340 O   0  0  0  0  0  0  0  0  0  0  0  0
   -4.8180   24.7250  -30.1380 C   0  0  2  0  0  0  0  0  0  0  0  0
   -3.9680   25.6110  -30.8330 O   0  0  0  0  0  0  0  0  0  0  0  0
    0.0618   20.1811  -32.0794 H   0  0  0  0  0  0  0  0  0  0  0  0
   -1.3136   20.9192  -32.9682 H   0  0  0  0  0  0  0  0  0  0  0  0
    0.2918   21.7250  -32.9682 H   0  0  0  0  0  0  0  0  0  0  0  0
   -0.4561   21.3605  -30.2310 H   0  0  0  0  0  0  0  0  0  0  0  0
   -0.3390   22.9033  -31.1657 H   0  0  0  0  0  0  0  0  0  0  0  0
   -2.8880   21.3990  -31.5230 H   0  0  0  0  0  0  0  0  0  0  0  0
   -4.6334   22.7732  -29.2727 H   0  0  0  0  0  0  0  0  0  0  0  0
   -5.8362   23.8312  -32.7452 H   0  0  0  0  0  0  0  0  0  0  0  0
   -8.8108   24.1896  -31.8352 H   0  0  0  0  0  0  0  0  0  0  0  0
  -10.2272   19.4634  -32.2640 H   0  0  0  0  0  0  0  0  0  0  0  0
   -8.4890   17.6347  -32.2925 H   0  0  0  0  0  0  0  0  0  0  0  0
   -6.0556   18.2087  -32.0931 H   0  0  0  0  0  0  0  0  0  0  0  0
   -5.3372   20.6151  -31.8544 H   0  0  0  0  0  0  0  0  0  0  0  0
   -6.4659   25.5720  -31.3215 H   0  0  0  0  0  0  0  0  0  0  0  0
   -6.7920   24.5220  -28.9300 H   0  0  0  0  0  0  0  0  0  0  0  0
   -4.8321   25.1162  -29.1100 H   0  0  0  0  0  0  0  0  0  0  0  0
   -3.1050   25.6640  -30.3450 H   0  0  0  0  0  0  0  0  0  0  0  0
  1  2  1  0
  2  3  1  0
  3  4  1  0
  4  5  2  0
  4  6  1  0
  6  7  1  0
  7  8  1  0
  8  9  1  0
  9 10  1  0
 10 11  2  0
 11 12  1  0
 12 13  2  0
 13 14  1  0
 14 15  2  0
 15 16  1  0
 16 17  2  0
  8 18  1  0
 18 19  1  0
 18 20  1  0
 20 21  1  0
 20  6  1  0
 17  9  1  0
 17 12  1  0
  1 22  1  0
  1 23  1  0
  1 24  1  0
  2 25  1  0
  2 26  1  0
  3 27  1  0
  6 28  1  1
  8 29  1  6
 10 30  1  0
 13 31  1  0
 14 32  1  0
 15 33  1  0
 16 34  1  0
 18 35  1  6
 19 36  1  0
 20 37  1  1
 21 38  1  0
M  END
>  <UniqueID>  (45) 
43

>  <SMILES>  (45) 
CCNC(=O)[C@@H]1O[C@@H](n2cnc3ccccc32)C(O)C1O

>  <Energy>  (45) 
77.11170403045197

>  <Genealogy>  (45) 
CCNC(=O)[C@@H]1O[C@@H](n2cnc3ccccc32)C(O)C1O (chirality)
CCNC(=O)[C@@H]1O[C@@H](n2cnc3ccccc32)C(O)C1O (3D coordinates assigned)
CCNC(=O)[C@@H]1O[C@@H](n2cnc3ccccc32)C(O)C1O (nonaromatic ring conformer: 77.11170403045197 kcal/mol)

>  <smiles>  (45) 
CCNC(=O)C1OC(n2cnc3ccccc32)C(O)C1O

>  <score_type>  (45) 
oracle

>  <origin>  (45) 
adgpu

>  <m_score__min__energy>  (45) 
-8.1799999999999997

>  <m_primary>  (45) 
energy

$$$$
45:0
     RDKit          3D

 47 49  0  0  0  0  0  0  0  0999 V2000
   -6.5780   15.0080  -34.2180 C   0  0  0  0  0  0  0  0  0  0  0  0
   -5.8560   15.8010  -33.2810 O   0  0  0  0  0  0  0  0  0  0  0  0
   -6.1880   17.1200  -32.9330 C   0  0  0  0  0  0  0  0  0  0  0  0
   -7.1120   17.4150  -31.9140 C   0  0  0  0  0  0  0  0  0  0  0  0
   -7.4160   18.7410  -31.5970 C   0  0  0  0  0  0  0  0  0  0  0  0
   -6.8060   19.8000  -32.2910 C   0  0  0  0  0  0  0  0  0  0  0  0
   -7.1300   21.2090  -31.9520 C   0  0  0  0  0  0  0  0  0  0  0  0
   -8.3730   21.7630  -32.3090 C   0  0  0  0  0  0  0  0  0  0  0  0
   -8.6780   23.0860  -31.9840 C   0  0  0  0  0  0  0  0  0  0  0  0
   -7.7510   23.8730  -31.2950 C   0  0  0  0  0  0  0  0  0  0  0  0
   -6.5120   23.3350  -30.9190 C   0  0  0  0  0  0  0  0  0  0  0  0
   -5.5050   24.1770  -30.1820 C   0  0  0  0  0  0  0  0  0  0  0  0
   -4.2340   24.1270  -30.8310 O   0  0  0  0  0  0  0  0  0  0  0  0
   -3.1620   23.2940  -30.4760 C   0  0  0  0  0  0  0  0  0  0  0  0
   -3.1390   21.9320  -30.8440 C   0  0  0  0  0  0  0  0  0  0  0  0
   -2.0370   21.1330  -30.5370 C   0  0  0  0  0  0  0  0  0  0  0  0
   -0.9450   21.6760  -29.8650 C   0  0  0  0  0  0  0  0  0  0  0  0
   -0.9590   23.0180  -29.4830 C   0  0  0  0  0  0  0  0  0  0  0  0
   -2.0670   23.8310  -29.7580 C   0  0  0  0  0  0  0  0  0  0  0  0
   -2.0010   25.2010  -29.3330 N   0  0  0  0  0  0  0  0  0  0  0  0
   -1.0980   25.8440  -27.9980 S   0  0  0  0  0  0  0  0  0  0  0  0
   -1.9440   25.5280  -26.4610 C   0  0  0  0  0  0  0  0  0  0  0  0
    0.2330   25.1490  -27.9450 O   0  0  0  0  0  0  0  0  0  0  0  0
   -0.8660   27.3170  -28.1840 O   0  0  0  0  0  0  0  0  0  0  0  0
   -6.2010   22.0100  -31.2630 C   0  0  0  0  0  0  0  0  0  0  0  0
   -5.8840   19.5040  -33.3090 C   0  0  0  0  0  0  0  0  0  0  0  0
   -5.5780   18.1760  -33.6270 C   0  0  0  0  0  0  0  0  0  0  0  0
   -4.4140   17.8470  -34.9020 Cl  0  0  0  0  0  0  0  0  0  0  0  0
   -7.2233   14.2993  -33.6783 H   0  0  0  0  0  0  0  0  0  0  0  0
   -7.1983   15.6608  -34.8497 H   0  0  0  0  0  0  0  0  0  0  0  0
   -5.8701   14.4514  -34.8497 H   0  0  0  0  0  0  0  0  0  0  0  0
   -7.5982   16.5962  -31.3634 H   0  0  0  0  0  0  0  0  0  0  0  0
   -8.1392   18.9583  -30.7971 H   0  0  0  0  0  0  0  0  0  0  0  0
   -9.1098   21.1493  -32.8480 H   0  0  0  0  0  0  0  0  0  0  0  0
   -9.6513   23.5105  -32.2712 H   0  0  0  0  0  0  0  0  0  0  0  0
   -7.9940   24.9168  -31.0472 H   0  0  0  0  0  0  0  0  0  0  0  0
   -5.8561   25.2191  -30.1552 H   0  0  0  0  0  0  0  0  0  0  0  0
   -5.3961   23.7847  -29.1601 H   0  0  0  0  0  0  0  0  0  0  0  0
   -3.9969   21.4965  -31.3773 H   0  0  0  0  0  0  0  0  0  0  0  0
   -2.0309   20.0718  -30.8265 H   0  0  0  0  0  0  0  0  0  0  0  0
   -0.0719   21.0475  -29.6354 H   0  0  0  0  0  0  0  0  0  0  0  0
   -0.0898   23.4430  -28.9596 H   0  0  0  0  0  0  0  0  0  0  0  0
   -1.2804   25.7759  -25.6195 H   0  0  0  0  0  0  0  0  0  0  0  0
   -2.8511   26.1479  -26.4076 H   0  0  0  0  0  0  0  0  0  0  0  0
   -2.2226   24.4652  -26.4076 H   0  0  0  0  0  0  0  0  0  0  0  0
   -5.2200   21.5934  -30.9908 H   0  0  0  0  0  0  0  0  0  0  0  0
   -5.3987   20.3228  -33.8605 H   0  0  0  0  0  0  0  0  0  0  0  0
  1  2  1  0
  2  3  1  0
  3  4  2  0
  4  5  1  0
  5  6  2  0
  6  7  1  0
  7  8  2  0
  8  9  1  0
  9 10  2  0
 10 11  1  0
 11 12  1  0
 12 13  1  0
 13 14  1  0
 14 15  2  0
 15 16  1  0
 16 17  2  0
 17 18  1  0
 18 19  2  0
 19 20  1  0
 20 21  1  0
 21 22  1  0
 21 23  2  0
 21 24  2  0
 11 25  2  0
  6 26  1  0
 26 27  2  0
 27 28  1  0
 27  3  1  0
 25  7  1  0
 19 14  1  0
  1 29  1  0
  1 30  1  0
  1 31  1  0
  4 32  1  0
  5 33  1  0
  8 34  1  0
  9 35  1  0
 10 36  1  0
 12 37  1  0
 12 38  1  0
 15 39  1  0
 16 40  1  0
 17 41  1  0
 18 42  1  0
 22 43  1  0
 22 44  1  0
 22 45  1  0
 25 46  1  0
 26 47  1  0
M  CHG  1  20  -1
M  END
>  <UniqueID>  (46) 
44

>  <SMILES>  (46) 
COc1ccc(-c2cccc(COc3ccccc3[N-]S(C)(=O)=O)c2)cc1Cl

>  <Energy>  (46) 
56.15014809882379

>  <Genealogy>  (46) 
COc1ccc(-c2cccc(COc3ccccc3[N-]S(C)(=O)=O)c2)cc1Cl (protonated)
COc1ccc(-c2cccc(COc3ccccc3[N-]S(C)(=O)=O)c2)cc1Cl (3D coordinates assigned)
COc1ccc(-c2cccc(COc3ccccc3[N-]S(C)(=O)=O)c2)cc1Cl (optimized conformer: 56.15014809882379 kcal/mol)

>  <smiles>  (46) 
COc1ccc(-c2cccc(COc3ccccc3NS(C)(=O)=O)c2)cc1Cl

>  <score_type>  (46) 
oracle

>  <origin>  (46) 
adgpu

>  <m_score__min__energy>  (46) 
-11.199999999999999

>  <m_primary>  (46) 
energy

$$$$
46:0
     RDKit          3D

 52 53  0  0  0  0  0  0  0  0999 V2000
   -5.7600   18.3570  -34.9210 C   0  0  0  0  0  0  0  0  0  0  0  0
   -6.0310   19.1270  -33.6200 C   0  0  0  0  0  0  0  0  0  0  0  0
   -7.0220   18.4890  -32.7220 N   0  0  0  0  0  0  0  0  0  0  0  0
   -6.4080   17.6600  -31.6660 C   0  0  0  0  0  0  0  0  0  0  0  0
   -5.5580   16.5390  -32.2610 C   0  0  0  0  0  0  0  0  0  0  0  0
   -8.2210   19.6230  -32.1160 S   0  0  0  0  0  0  0  0  0  0  0  0
   -9.3260   19.7660  -33.1270 O   0  0  0  0  0  0  0  0  0  0  0  0
   -8.8360   19.0700  -30.8620 O   0  0  0  0  0  0  0  0  0  0  0  0
   -7.5710   21.2270  -31.7570 C   0  0  0  0  0  0  0  0  0  0  0  0
   -8.3690   22.3670  -31.9290 C   0  0  0  0  0  0  0  0  0  0  0  0
   -7.8720   23.6310  -31.6050 C   0  0  0  0  0  0  0  0  0  0  0  0
   -6.5760   23.7670  -31.1010 C   0  0  0  0  0  0  0  0  0  0  0  0
   -5.7630   22.6340  -30.9230 C   0  0  0  0  0  0  0  0  0  0  0  0
   -4.4410   22.7440  -30.3670 N   0  0  0  0  0  0  0  0  0  0  0  0
   -3.7940   23.9960  -30.0930 C   0  0  0  0  0  0  0  0  0  0  0  0
   -4.0870   25.0180  -30.7720 O   0  0  0  0  0  0  0  0  0  0  0  0
   -2.7270   24.0920  -29.0770 C   0  0  0  0  0  0  0  0  0  0  0  0
   -1.9420   25.1790  -28.9490 N   0  0  0  0  0  0  0  0  0  0  0  0
   -1.0700   24.9320  -27.9550 C   0  0  0  0  0  0  0  0  0  0  0  0
   -0.0420   25.9250  -27.5090 C   0  0  0  0  0  0  0  0  0  0  0  0
   -1.2930   23.6640  -27.4240 C   0  0  0  0  0  0  0  0  0  0  0  0
   -0.5380   23.0070  -26.3320 C   0  0  0  0  0  0  0  0  0  0  0  0
   -0.5120   23.5720  -24.9470 C   0  0  0  0  0  0  0  0  0  0  0  0
    0.0730   21.9280  -26.5540 O   0  0  0  0  0  0  0  0  0  0  0  0
   -2.3780   23.1390  -28.1240 C   0  0  0  0  0  0  0  0  0  0  0  0
   -2.9950   21.7780  -27.9430 C   0  0  0  0  0  0  0  0  0  0  0  0
   -6.2780   21.3660  -31.2330 C   0  0  0  0  0  0  0  0  0  0  0  0
   -5.4037   17.3445  -34.6804 H   0  0  0  0  0  0  0  0  0  0  0  0
   -6.6883   18.2893  -35.5072 H   0  0  0  0  0  0  0  0  0  0  0  0
   -4.9939   18.8857  -35.5072 H   0  0  0  0  0  0  0  0  0  0  0  0
   -5.0816   19.2206  -33.0723 H   0  0  0  0  0  0  0  0  0  0  0  0
   -6.4560   20.0979  -33.9145 H   0  0  0  0  0  0  0  0  0  0  0  0
   -5.7698   18.2974  -31.0364 H   0  0  0  0  0  0  0  0  0  0  0  0
   -7.2135   17.2050  -31.0709 H   0  0  0  0  0  0  0  0  0  0  0  0
   -5.1099   15.9480  -31.4487 H   0  0  0  0  0  0  0  0  0  0  0  0
   -6.1917   15.8882  -32.8814 H   0  0  0  0  0  0  0  0  0  0  0  0
   -4.7603   16.9735  -32.8814 H   0  0  0  0  0  0  0  0  0  0  0  0
   -9.3917   22.2651  -32.3211 H   0  0  0  0  0  0  0  0  0  0  0  0
   -8.5021   24.5215  -31.7468 H   0  0  0  0  0  0  0  0  0  0  0  0
   -6.1904   24.7642  -30.8425 H   0  0  0  0  0  0  0  0  0  0  0  0
   -3.8870   21.8690  -30.2330 H   0  0  0  0  0  0  0  0  0  0  0  0
   -1.9910   26.0510  -29.5260 H   0  0  0  0  0  0  0  0  0  0  0  0
   -0.0124   25.9535  -26.4098 H   0  0  0  0  0  0  0  0  0  0  0  0
    0.9448   25.6295  -27.8948 H   0  0  0  0  0  0  0  0  0  0  0  0
   -0.3031   26.9215  -27.8948 H   0  0  0  0  0  0  0  0  0  0  0  0
   -0.5498   22.7514  -24.2155 H   0  0  0  0  0  0  0  0  0  0  0  0
    0.4136   24.1487  -24.8036 H   0  0  0  0  0  0  0  0  0  0  0  0
   -1.3808   24.2313  -24.8036 H   0  0  0  0  0  0  0  0  0  0  0  0
   -3.0938   21.5601  -26.8693 H   0  0  0  0  0  0  0  0  0  0  0  0
   -3.9891   21.7605  -28.4137 H   0  0  0  0  0  0  0  0  0  0  0  0
   -2.3530   21.0188  -28.4137 H   0  0  0  0  0  0  0  0  0  0  0  0
   -5.6607   20.4715  -31.0631 H   0  0  0  0  0  0  0  0  0  0  0  0
  1  2  1  0
  2  3  1  0
  3  4  1  0
  4  5  1  0
  3  6  1  0
  6  7  2  0
  6  8  2  0
  6  9  1  0
  9 10  2  0
 10 11  1  0
 11 12  2  0
 12 13  1  0
 13 14  1  0
 14 15  1  0
 15 16  2  0
 15 17  1  0
 17 18  1  0
 18 19  1  0
 19 20  1  0
 19 21  2  0
 21 22  1  0
 22 23  1  0
 22 24  2  0
 21 25  1  0
 25 26  1  0
 13 27  2  0
 27  9  1  0
 25 17  2  0
  1 28  1  0
  1 29  1  0
  1 30  1  0
  2 31  1  0
  2 32  1  0
  4 33  1  0
  4 34  1  0
  5 35  1  0
  5 36  1  0
  5 37  1  0
 10 38  1  0
 11 39  1  0
 12 40  1  0
 14 41  1  0
 18 42  1  0
 20 43  1  0
 20 44  1  0
 20 45  1  0
 23 46  1  0
 23 47  1  0
 23 48  1  0
 26 49  1  0
 26 50  1  0
 26 51  1  0
 27 52  1  0
M  END
>  <UniqueID>  (47) 
45

>  <SMILES>  (47) 
CCN(CC)S(=O)(=O)c1cccc(NC(=O)c2[nH]c(C)c(C(C)=O)c2C)c1

>  <Energy>  (47) 
85.45500209994562

>  <Genealogy>  (47) 
CCN(CC)S(=O)(=O)c1cccc(NC(=O)c2[nH]c(C)c(C(C)=O)c2C)c1 (3D coordinates assigned)
CCN(CC)S(=O)(=O)c1cccc(NC(=O)c2[nH]c(C)c(C(C)=O)c2C)c1 (optimized conformer: 85.45500209994562 kcal/mol)

>  <smiles>  (47) 
CCN(CC)S(=O)(=O)c1cccc(NC(=O)c2[nH]c(C)c(C(C)=O)c2C)c1

>  <score_type>  (47) 
oracle

>  <origin>  (47) 
adgpu

>  <m_score__min__energy>  (47) 
-9.9100000000000001

>  <m_primary>  (47) 
energy

$$$$
47:0
     RDKit          3D

 49 53  0  0  0  0  0  0  0  0999 V2000
    4.9070   23.8000  -25.9990 O   0  0  0  0  0  0  0  0  0  0  0  0
    3.9770   24.2110  -26.7430 C   0  0  0  0  0  0  0  0  0  0  0  0
    4.2110   24.3100  -28.1100 O   0  0  0  0  0  0  0  0  0  0  0  0
    2.6610   24.5820  -26.1670 C   0  0  0  0  0  0  0  0  0  0  0  0
    1.4870   24.4160  -26.9290 C   0  0  0  0  0  0  0  0  0  0  0  0
    0.2280   24.7570  -26.4040 C   0  0  0  0  0  0  0  0  0  0  0  0
   -1.0030   24.5790  -27.2160 C   0  0  0  0  0  0  0  0  0  0  0  0
   -0.9200   24.3170  -28.5930 C   0  0  0  0  0  0  0  0  0  0  0  0
   -2.0780   24.1500  -29.3580 C   0  0  0  0  0  0  0  0  0  0  0  0
   -3.3490   24.2330  -28.7600 C   0  0  0  0  0  0  0  0  0  0  0  0
   -4.5940   24.0710  -29.5550 C   0  0  0  0  0  0  0  0  0  0  0  0
   -5.6950   24.9270  -29.3930 C   0  0  0  0  0  0  0  0  0  0  0  0
   -6.8420   24.7250  -30.1610 C   0  0  0  0  0  0  0  0  0  0  0  0
   -6.8920   23.6860  -31.0920 C   0  0  0  0  0  0  0  0  0  0  0  0
   -8.3820   23.4190  -31.9850 Cl  0  0  0  0  0  0  0  0  0  0  0  0
   -5.7670   22.8570  -31.2500 C   0  0  0  0  0  0  0  0  0  0  0  0
   -5.7510   21.7900  -32.2130 N   0  0  0  0  0  0  0  0  0  0  0  0
   -4.5780   21.4620  -33.0310 C   0  0  0  0  0  0  0  0  0  0  0  0
   -4.7460   19.9860  -33.4660 C   0  0  0  0  0  0  0  0  0  0  0  0
   -6.0270   19.5840  -32.8290 C   0  0  0  0  0  0  0  0  0  0  0  0
   -6.6640   18.3440  -32.8840 C   0  0  0  0  0  0  0  0  0  0  0  0
   -7.8800   18.1840  -32.2000 C   0  0  0  0  0  0  0  0  0  0  0  0
   -8.4340   19.2590  -31.4800 C   0  0  0  0  0  0  0  0  0  0  0  0
   -7.7750   20.4980  -31.4400 C   0  0  0  0  0  0  0  0  0  0  0  0
   -6.5600   20.6280  -32.1230 C   0  0  0  0  0  0  0  0  0  0  0  0
   -4.6650   23.0750  -30.4810 N   0  0  0  0  0  0  0  0  0  0  0  0
   -3.4300   24.5080  -27.3830 C   0  0  0  0  0  0  0  0  0  0  0  0
   -2.2720   24.6750  -26.6200 C   0  0  0  0  0  0  0  0  0  0  0  0
    0.1500   25.2690  -25.0990 C   0  0  0  0  0  0  0  0  0  0  0  0
    1.3060   25.4390  -24.3360 C   0  0  0  0  0  0  0  0  0  0  0  0
    2.5550   25.1000  -24.8600 C   0  0  0  0  0  0  0  0  0  0  0  0
    3.6540   25.2820  -24.0850 F   0  0  0  0  0  0  0  0  0  0  0  0
    1.5568   24.0134  -27.9503 H   0  0  0  0  0  0  0  0  0  0  0  0
    0.0662   24.2424  -29.0746 H   0  0  0  0  0  0  0  0  0  0  0  0
   -1.9949   23.9520  -30.4368 H   0  0  0  0  0  0  0  0  0  0  0  0
   -5.6535   25.7511  -28.6656 H   0  0  0  0  0  0  0  0  0  0  0  0
   -7.7108   25.3873  -30.0324 H   0  0  0  0  0  0  0  0  0  0  0  0
   -4.5354   22.1162  -33.9143 H   0  0  0  0  0  0  0  0  0  0  0  0
   -3.6453   21.6071  -32.4661 H   0  0  0  0  0  0  0  0  0  0  0  0
   -4.8076   19.9028  -34.5611 H   0  0  0  0  0  0  0  0  0  0  0  0
   -3.8993   19.3507  -33.1670 H   0  0  0  0  0  0  0  0  0  0  0  0
   -6.2236   17.5103  -33.4505 H   0  0  0  0  0  0  0  0  0  0  0  0
   -8.4011   17.2156  -32.2270 H   0  0  0  0  0  0  0  0  0  0  0  0
   -9.3870   19.1279  -30.9466 H   0  0  0  0  0  0  0  0  0  0  0  0
   -8.2030   21.3461  -30.8854 H   0  0  0  0  0  0  0  0  0  0  0  0
   -4.4156   24.5924  -26.9019 H   0  0  0  0  0  0  0  0  0  0  0  0
   -2.3541   24.8835  -25.5431 H   0  0  0  0  0  0  0  0  0  0  0  0
   -0.8288   25.5379  -24.6752 H   0  0  0  0  0  0  0  0  0  0  0  0
    1.2328   25.8426  -23.3153 H   0  0  0  0  0  0  0  0  0  0  0  0
  1  2  2  0
  2  3  1  0
  2  4  1  0
  4  5  2  0
  5  6  1  0
  6  7  1  0
  7  8  2  0
  8  9  1  0
  9 10  2  0
 10 11  1  0
 11 12  2  0
 12 13  1  0
 13 14  2  0
 14 15  1  0
 14 16  1  0
 16 17  1  0
 17 18  1  0
 18 19  1  0
 19 20  1  0
 20 21  2  0
 21 22  1  0
 22 23  2  0
 23 24  1  0
 24 25  2  0
 16 26  2  0
 10 27  1  0
 27 28  2  0
  6 29  2  0
 29 30  1  0
 30 31  2  0
 31 32  1  0
 31  4  1  0
 28  7  1  0
 26 11  1  0
 25 17  1  0
 25 20  1  0
  5 33  1  0
  8 34  1  0
  9 35  1  0
 12 36  1  0
 13 37  1  0
 18 38  1  0
 18 39  1  0
 19 40  1  0
 19 41  1  0
 21 42  1  0
 22 43  1  0
 23 44  1  0
 24 45  1  0
 27 46  1  0
 28 47  1  0
 29 48  1  0
 30 49  1  0
M  CHG  1   3  -1
M  END
>  <UniqueID>  (48) 
46

>  <SMILES>  (48) 
O=C([O-])c1cc(-c2ccc(-c3ccc(Cl)c(N4CCc5ccccc54)n3)cc2)ccc1F

>  <Energy>  (48) 
87.39943326811614

>  <Genealogy>  (48) 
O=C([O-])c1cc(-c2ccc(-c3ccc(Cl)c(N4CCc5ccccc54)n3)cc2)ccc1F (protonated)
O=C([O-])c1cc(-c2ccc(-c3ccc(Cl)c(N4CCc5ccccc54)n3)cc2)ccc1F (3D coordinates assigned)
O=C([O-])c1cc(-c2ccc(-c3ccc(Cl)c(N4CCc5ccccc54)n3)cc2)ccc1F (nonaromatic ring conformer: 87.39943326811614 kcal/mol)

>  <smiles>  (48) 
O=C(O)c1cc(-c2ccc(-c3ccc(Cl)c(N4CCc5ccccc54)n3)cc2)ccc1F

>  <score_type>  (48) 
oracle

>  <origin>  (48) 
adgpu

>  <m_score__min__energy>  (48) 
-10.789999999999999

>  <m_primary>  (48) 
energy

$$$$
48:0
     RDKit          3D

 26 28  0  0  0  0  0  0  0  0999 V2000
   -7.5870   23.7970  -33.0820 O   0  0  0  0  0  0  0  0  0  0  0  0
   -7.0810   23.0400  -32.2110 C   0  0  0  0  0  0  0  0  0  0  0  0
   -7.4840   21.6160  -32.1700 C   0  0  0  0  0  0  0  0  0  0  0  0
   -8.6690   21.2330  -31.5170 C   0  0  0  0  0  0  0  0  0  0  0  0
   -9.0620   19.8930  -31.4900 C   0  0  0  0  0  0  0  0  0  0  0  0
   -8.2820   18.9220  -32.1210 C   0  0  0  0  0  0  0  0  0  0  0  0
   -7.1080   19.2890  -32.7860 C   0  0  0  0  0  0  0  0  0  0  0  0
   -6.1390   18.0580  -33.5780 Cl  0  0  0  0  0  0  0  0  0  0  0  0
   -6.7090   20.6330  -32.8170 C   0  0  0  0  0  0  0  0  0  0  0  0
   -5.5590   20.9730  -33.4540 F   0  0  0  0  0  0  0  0  0  0  0  0
   -6.1290   23.6140  -31.2400 C   0  0  0  0  0  0  0  0  0  0  0  0
   -6.3730   24.7000  -30.3990 C   0  0  0  0  0  0  0  0  0  0  0  0
   -5.2800   24.9820  -29.6540 N   0  0  0  0  0  0  0  0  0  0  0  0
   -4.3480   24.0930  -30.0290 C   0  0  0  0  0  0  0  0  0  0  0  0
   -3.0750   24.0310  -29.5710 N   0  0  0  0  0  0  0  0  0  0  0  0
   -2.2400   23.0870  -30.1010 C   0  0  0  0  0  0  0  0  0  0  0  0
   -2.6820   22.2420  -31.0850 N   0  0  0  0  0  0  0  0  0  0  0  0
   -3.9620   22.3050  -31.5550 C   0  0  0  0  0  0  0  0  0  0  0  0
   -4.8160   23.2490  -30.9930 C   0  0  0  0  0  0  0  0  0  0  0  0
   -9.2911   21.9944  -31.0238 H   0  0  0  0  0  0  0  0  0  0  0  0
   -9.9872   19.6023  -30.9709 H   0  0  0  0  0  0  0  0  0  0  0  0
   -8.5915   17.8668  -32.0949 H   0  0  0  0  0  0  0  0  0  0  0  0
   -7.3236   25.2512  -30.3487 H   0  0  0  0  0  0  0  0  0  0  0  0
   -5.1790   25.7450  -28.9480 H   0  0  0  0  0  0  0  0  0  0  0  0
   -1.2059   23.0052  -29.7349 H   0  0  0  0  0  0  0  0  0  0  0  0
   -4.3074   21.6309  -32.3527 H   0  0  0  0  0  0  0  0  0  0  0  0
  1  2  2  0
  2  3  1  0
  3  4  2  0
  4  5  1  0
  5  6  2  0
  6  7  1  0
  7  8  1  0
  7  9  2  0
  9 10  1  0
  2 11  1  0
 11 12  2  0
 12 13  1  0
 13 14  1  0
 14 15  2  0
 15 16  1  0
 16 17  2  0
 17 18  1  0
 18 19  2  0
  9  3  1  0
 19 11  1  0
 19 14  1  0
  4 20  1  0
  5 21  1  0
  6 22  1  0
 12 23  1  0
 13 24  1  0
 16 25  1  0
 18 26  1  0
M  END
>  <UniqueID>  (49) 
47

>  <SMILES>  (49) 
O=C(c1cccc(Cl)c1F)c1c[nH]c2ncncc12

>  <Energy>  (49) 
71.84110309602406

>  <Genealogy>  (49) 
O=C(c1cccc(Cl)c1F)c1c[nH]c2ncncc12 (3D coordinates assigned)
O=C(c1cccc(Cl)c1F)c1c[nH]c2ncncc12 (optimized conformer: 71.84110309602406 kcal/mol)

>  <smiles>  (49) 
O=C(c1cccc(Cl)c1F)c1c[nH]c2ncncc12

>  <score_type>  (49) 
oracle

>  <origin>  (49) 
adgpu

>  <m_score__min__energy>  (49) 
-7.4199999999999999

>  <m_primary>  (49) 
energy

$$$$
