0:0
     RDKit          3D

 33 35  0  0  0  0  0  0  0  0999 V2000
   -2.1910   21.9600  -27.1220 O   0  0  0  0  0  0  0  0  0  0  0  0
   -2.0070   23.0280  -27.7640 C   0  0  0  0  0  0  0  0  0  0  0  0
   -2.8910   23.3990  -28.7780 C   0  0  0  0  0  0  0  0  0  0  0  0
   -2.6480   24.5910  -29.4780 C   0  0  0  0  0  0  0  0  0  0  0  0
   -3.5340   25.0500  -30.5100 N   0  0  0  0  0  0  0  0  0  0  0  0
   -4.9030   24.6340  -30.6590 C   0  0  0  0  0  0  0  0  0  0  0  0
   -5.9120   25.1320  -29.8160 C   0  0  0  0  0  0  0  0  0  0  0  0
   -7.2310   24.6970  -29.9650 C   0  0  0  0  0  0  0  0  0  0  0  0
   -7.5510   23.7470  -30.9380 C   0  0  0  0  0  0  0  0  0  0  0  0
   -6.5540   23.2120  -31.7600 C   0  0  0  0  0  0  0  0  0  0  0  0
   -6.9170   22.2550  -32.7210 O   0  0  0  0  0  0  0  0  0  0  0  0
   -6.5980   20.8930  -32.6470 C   0  0  0  0  0  0  0  0  0  0  0  0
   -5.2640   20.5070  -32.8190 C   0  0  0  0  0  0  0  0  0  0  0  0
   -4.9040   19.1590  -32.7450 C   0  0  0  0  0  0  0  0  0  0  0  0
   -5.8800   18.1850  -32.5120 C   0  0  0  0  0  0  0  0  0  0  0  0
   -5.4280   16.4930  -32.4210 Cl  0  0  0  0  0  0  0  0  0  0  0  0
   -7.2200   18.5600  -32.3640 C   0  0  0  0  0  0  0  0  0  0  0  0
   -7.5860   19.9090  -32.4370 C   0  0  0  0  0  0  0  0  0  0  0  0
   -9.2910   20.3290  -32.3330 Cl  0  0  0  0  0  0  0  0  0  0  0  0
   -5.2270   23.6630  -31.6180 C   0  0  0  0  0  0  0  0  0  0  0  0
   -1.5850   25.3620  -29.1260 N   0  0  0  0  0  0  0  0  0  0  0  0
   -0.7360   24.9850  -28.1340 C   0  0  0  0  0  0  0  0  0  0  0  0
    0.2460   25.7130  -27.8360 O   0  0  0  0  0  0  0  0  0  0  0  0
   -0.9480   23.8230  -27.4630 N   0  0  0  0  0  0  0  0  0  0  0  0
   -3.7598   22.7706  -29.0235 H   0  0  0  0  0  0  0  0  0  0  0  0
   -3.1520   25.7320  -31.2040 H   0  0  0  0  0  0  0  0  0  0  0  0
   -5.6619   25.8667  -29.0365 H   0  0  0  0  0  0  0  0  0  0  0  0
   -8.0196   25.1034  -29.3147 H   0  0  0  0  0  0  0  0  0  0  0  0
   -8.5936   23.4177  -31.0584 H   0  0  0  0  0  0  0  0  0  0  0  0
   -4.4947   21.2688  -33.0135 H   0  0  0  0  0  0  0  0  0  0  0  0
   -3.8518   18.8636  -32.8701 H   0  0  0  0  0  0  0  0  0  0  0  0
   -7.9882   17.7922  -32.1897 H   0  0  0  0  0  0  0  0  0  0  0  0
   -4.4385   23.2503  -32.2645 H   0  0  0  0  0  0  0  0  0  0  0  0
  1  2  2  0
  2  3  1  0
  3  4  2  0
  4  5  1  0
  5  6  1  0
  6  7  2  0
  7  8  1  0
  8  9  2  0
  9 10  1  0
 10 11  1  0
 11 12  1  0
 12 13  2  0
 13 14  1  0
 14 15  2  0
 15 16  1  0
 15 17  1  0
 17 18  2  0
 18 19  1  0
 10 20  2  0
  4 21  1  0
 21 22  1  0
 22 23  2  0
 22 24  1  0
 24  2  1  0
 20  6  1  0
 18 12  1  0
  3 25  1  0
  5 26  1  0
  7 27  1  0
  8 28  1  0
  9 29  1  0
 13 30  1  0
 14 31  1  0
 17 32  1  0
 20 33  1  0
M  CHG  2  21  -1  24  -1
M  END
>  <UniqueID>  (1) 
1

>  <SMILES>  (1) 
O=c1cc(Nc2cccc(Oc3ccc(Cl)cc3Cl)c2)[n-]c(=O)[n-]1

>  <Energy>  (1) 
50.92118961133398

>  <Genealogy>  (1) 
O=c1cc(Nc2cccc(Oc3ccc(Cl)cc3Cl)c2)[n-]c(=O)[n-]1 (protonated)
O=c1cc(Nc2cccc(Oc3ccc(Cl)cc3Cl)c2)[n-]c(=O)[n-]1 (3D coordinates assigned)
O=c1cc(Nc2cccc(Oc3ccc(Cl)cc3Cl)c2)[n-]c(=O)[n-]1 (optimized conformer: 50.92118961133398 kcal/mol)

>  <smiles>  (1) 
O=c1cc(Nc2cccc(Oc3ccc(Cl)cc3Cl)c2)[nH]c(=O)[nH]1

>  <score_type>  (1) 
oracle

>  <origin>  (1) 
adgpu

>  <m_score__min__energy>  (1) 
-11.529999999999999

>  <m_primary>  (1) 
energy

$$$$
1:0
     RDKit          3D

 59 63  0  0  0  0  0  0  0  0999 V2000
   -4.4190   24.5490  -29.7570 C   0  0  0  0  0  0  0  0  0  0  0  0
   -3.0720   24.9260  -30.0210 O   0  0  0  0  0  0  0  0  0  0  0  0
   -1.9650   24.5140  -29.2620 C   0  0  0  0  0  0  0  0  0  0  0  0
   -1.3190   25.3820  -28.3590 C   0  0  0  0  0  0  0  0  0  0  0  0
   -0.2210   24.9410  -27.6160 C   0  0  0  0  0  0  0  0  0  0  0  0
    0.2460   23.6360  -27.7640 C   0  0  0  0  0  0  0  0  0  0  0  0
   -0.3820   22.7650  -28.6550 C   0  0  0  0  0  0  0  0  0  0  0  0
   -1.4870   23.1930  -29.4110 C   0  0  0  0  0  0  0  0  0  0  0  0
   -2.1710   22.2240  -30.3540 C   0  0  0  0  0  0  0  0  0  0  0  0
   -1.1970   21.4360  -31.1480 N   0  0  1  0  0  0  0  0  0  0  0  0
   -1.2350   20.0080  -30.7040 C   0  0  0  0  0  0  0  0  0  0  0  0
   -0.4620   19.0120  -31.6290 C   0  0  0  0  0  0  0  0  0  0  0  0
   -0.7670   19.2630  -33.1260 C   0  0  2  0  0  0  0  0  0  0  0  0
   -2.2060   18.8260  -33.5030 C   0  0  0  0  0  0  0  0  0  0  0  0
   -2.5200   17.7800  -34.3840 C   0  0  0  0  0  0  0  0  0  0  0  0
   -4.1920   17.6850  -34.5240 S   0  0  0  0  0  0  0  0  0  0  0  0
   -4.4720   18.9650  -33.4720 C   0  0  0  0  0  0  0  0  0  0  0  0
   -5.7970   19.5060  -33.0920 C   0  0  0  0  0  0  0  0  0  0  0  0
   -6.9330   18.6810  -33.0650 C   0  0  0  0  0  0  0  0  0  0  0  0
   -8.1790   19.2040  -32.7120 C   0  0  0  0  0  0  0  0  0  0  0  0
   -8.3130   20.5550  -32.3800 C   0  0  0  0  0  0  0  0  0  0  0  0
   -9.9090   21.1620  -31.9490 Cl  0  0  0  0  0  0  0  0  0  0  0  0
   -7.1840   21.3970  -32.3970 C   0  0  0  0  0  0  0  0  0  0  0  0
   -7.3070   22.8550  -32.0490 C   0  0  0  0  0  0  0  0  0  0  0  0
   -5.9340   20.8650  -32.7560 C   0  0  0  0  0  0  0  0  0  0  0  0
   -3.3050   19.4650  -33.0120 N   0  0  0  0  0  0  0  0  0  0  0  0
    0.2340   18.6790  -34.1280 C   0  0  0  0  0  0  0  0  0  0  0  0
    0.2660   19.5470  -35.2570 O   0  0  0  0  0  0  0  0  0  0  0  0
   -0.3220   20.7800  -34.8660 C   0  0  0  0  0  0  0  0  0  0  0  0
   -0.4720   20.7150  -33.3690 C   0  0  1  0  0  0  0  0  0  0  0  0
   -1.4420   21.6100  -32.6080 C   0  0  0  0  0  0  0  0  0  0  0  0
   -4.5807   24.5037  -28.6699 H   0  0  0  0  0  0  0  0  0  0  0  0
   -5.1007   25.2909  -30.1985 H   0  0  0  0  0  0  0  0  0  0  0  0
   -4.6165   23.5611  -30.1985 H   0  0  0  0  0  0  0  0  0  0  0  0
   -1.6816   26.4135  -28.2384 H   0  0  0  0  0  0  0  0  0  0  0  0
    0.2761   25.6252  -26.9126 H   0  0  0  0  0  0  0  0  0  0  0  0
    1.1108   23.2923  -27.1775 H   0  0  0  0  0  0  0  0  0  0  0  0
   -0.0096   21.7360  -28.7666 H   0  0  0  0  0  0  0  0  0  0  0  0
   -2.7898   21.5320  -29.7639 H   0  0  0  0  0  0  0  0  0  0  0  0
   -2.7842   22.8095  -31.0548 H   0  0  0  0  0  0  0  0  0  0  0  0
   -0.2360   21.7970  -30.9340 H   0  0  0  0  0  0  0  0  0  0  0  0
   -0.7955   19.9510  -29.6972 H   0  0  0  0  0  0  0  0  0  0  0  0
   -2.2913   19.7025  -30.7349 H   0  0  0  0  0  0  0  0  0  0  0  0
    0.6181   19.1345  -31.4603 H   0  0  0  0  0  0  0  0  0  0  0  0
   -0.7877   17.9912  -31.3801 H   0  0  0  0  0  0  0  0  0  0  0  0
   -1.7942   17.1316  -34.8966 H   0  0  0  0  0  0  0  0  0  0  0  0
   -6.8409   17.6158  -33.3236 H   0  0  0  0  0  0  0  0  0  0  0  0
   -9.0616   18.5476  -32.6952 H   0  0  0  0  0  0  0  0  0  0  0  0
   -7.3168   22.9713  -30.9552 H   0  0  0  0  0  0  0  0  0  0  0  0
   -6.4521   23.4055  -32.4686 H   0  0  0  0  0  0  0  0  0  0  0  0
   -8.2420   23.2545  -32.4686 H   0  0  0  0  0  0  0  0  0  0  0  0
   -5.0506   21.5202  -32.7745 H   0  0  0  0  0  0  0  0  0  0  0  0
    1.2327   18.6209  -33.6706 H   0  0  0  0  0  0  0  0  0  0  0  0
   -0.0658   17.6641  -34.4281 H   0  0  0  0  0  0  0  0  0  0  0  0
    0.3295   21.6201  -35.1483 H   0  0  0  0  0  0  0  0  0  0  0  0
   -1.2918   20.9374  -35.3606 H   0  0  0  0  0  0  0  0  0  0  0  0
    0.4524   21.1389  -32.9497 H   0  0  0  0  0  0  0  0  0  0  0  0
   -1.2771   22.6605  -32.8897 H   0  0  0  0  0  0  0  0  0  0  0  0
   -2.4791   21.3365  -32.8522 H   0  0  0  0  0  0  0  0  0  0  0  0
  1  2  1  0
  2  3  1  0
  3  4  2  0
  4  5  1  0
  5  6  2  0
  6  7  1  0
  7  8  2  0
  8  9  1  0
  9 10  1  0
 10 11  1  0
 11 12  1  0
 12 13  1  0
 13 14  1  6
 14 15  2  0
 15 16  1  0
 16 17  1  0
 17 18  1  0
 18 19  2  0
 19 20  1  0
 20 21  2  0
 21 22  1  0
 21 23  1  0
 23 24  1  0
 23 25  2  0
 17 26  2  0
 13 27  1  0
 27 28  1  0
 28 29  1  0
 29 30  1  0
 30 31  1  0
  8  3  1  0
 31 10  1  0
 30 13  1  0
 26 14  1  0
 25 18  1  0
  1 32  1  0
  1 33  1  0
  1 34  1  0
  4 35  1  0
  5 36  1  0
  6 37  1  0
  7 38  1  0
  9 39  1  0
  9 40  1  0
 10 41  1  6
 11 42  1  0
 11 43  1  0
 12 44  1  0
 12 45  1  0
 15 46  1  0
 19 47  1  0
 20 48  1  0
 24 49  1  0
 24 50  1  0
 24 51  1  0
 25 52  1  0
 27 53  1  0
 27 54  1  0
 29 55  1  0
 29 56  1  0
 30 57  1  1
 31 58  1  0
 31 59  1  0
M  CHG  1  10   1
M  END
>  <UniqueID>  (2) 
2

>  <SMILES>  (2) 
COc1ccccc1C[N@H+]1CC[C@]2(c3csc(-c4ccc(Cl)c(C)c4)n3)COCC2C1

>  <Energy>  (2) 
117.34142625957651

>  <Genealogy>  (2) 
COc1ccccc1C[NH+]1CCC2(c3csc(-c4ccc(Cl)c(C)c4)n3)COCC2C1 (protonated)
COc1ccccc1C[N@H+]1CC[C@]2(c3csc(-c4ccc(Cl)c(C)c4)n3)COCC2C1 (chirality)
COc1ccccc1C[N@H+]1CC[C@]2(c3csc(-c4ccc(Cl)c(C)c4)n3)COCC2C1 (3D coordinates assigned)
COc1ccccc1C[N@H+]1CC[C@]2(c3csc(-c4ccc(Cl)c(C)c4)n3)COCC2C1 (nonaromatic ring conformer: 117.34142625957651 kcal/mol)

>  <smiles>  (2) 
COc1ccccc1CN1CCC2(c3csc(-c4ccc(Cl)c(C)c4)n3)COCC2C1

>  <score_type>  (2) 
oracle

>  <origin>  (2) 
adgpu

>  <m_score__min__energy>  (2) 
-9.4800000000000004

>  <m_primary>  (2) 
energy

$$$$
2:0
     RDKit          3D

 24 25  0  0  0  0  0  0  0  0999 V2000
   -5.9210   26.7530  -28.4690 H   0  0  0  0  0  0  0  0  0  0  0  0
   -6.5070   26.0510  -28.9720 N   0  0  0  0  0  0  0  0  0  0  0  0
   -5.9710   25.0880  -29.6500 C   0  0  0  0  0  0  0  0  0  0  0  0
   -6.8430   23.9240  -30.4860 S   0  0  0  0  0  0  0  0  0  0  0  0
   -5.4550   23.1260  -31.0270 C   0  0  0  0  0  0  0  0  0  0  0  0
   -5.4550   21.9720  -31.9510 C   0  0  0  0  0  0  0  0  0  0  0  0
   -4.4590   21.7880  -32.7020 O   0  0  0  0  0  0  0  0  0  0  0  0
   -6.6130   21.0510  -32.0500 C   0  0  0  0  0  0  0  0  0  0  0  0
   -7.9300   21.5450  -32.1060 C   0  0  0  0  0  0  0  0  0  0  0  0
   -8.1080   22.6303  -32.0859 H   0  0  0  0  0  0  0  0  0  0  0  0
   -9.0130   20.6650  -32.1870 C   0  0  0  0  0  0  0  0  0  0  0  0
  -10.0384   21.0596  -32.2398 H   0  0  0  0  0  0  0  0  0  0  0  0
   -8.7950   19.2850  -32.2010 C   0  0  0  0  0  0  0  0  0  0  0  0
   -9.8470   18.4330  -32.2790 F   0  0  0  0  0  0  0  0  0  0  0  0
   -7.4930   18.7830  -32.1310 C   0  0  0  0  0  0  0  0  0  0  0  0
   -7.3220   17.6964  -32.1404 H   0  0  0  0  0  0  0  0  0  0  0  0
   -6.4070   19.6600  -32.0490 C   0  0  0  0  0  0  0  0  0  0  0  0
   -5.3848   19.2591  -31.9833 H   0  0  0  0  0  0  0  0  0  0  0  0
   -4.3400   23.8200  -30.5320 C   0  0  0  0  0  0  0  0  0  0  0  0
   -2.9850   23.4190  -30.7540 N   0  0  0  0  0  0  0  0  0  0  0  0
   -2.7730   22.6550  -31.4360 H   0  0  0  0  0  0  0  0  0  0  0  0
   -2.1850   23.9110  -30.3030 H   0  0  0  0  0  0  0  0  0  0  0  0
   -4.6390   24.9040  -29.7670 N   0  0  0  0  0  0  0  0  0  0  0  0
   -3.9210   25.5160  -29.3180 H   0  0  0  0  0  0  0  0  0  0  0  0
  1  2  1  0
  2  3  2  0
  3  4  1  0
  4  5  1  0
  5  6  1  0
  6  7  2  0
  6  8  1  0
  8  9  2  0
  9 10  1  0
  9 11  1  0
 11 12  1  0
 11 13  2  0
 13 14  1  0
 13 15  1  0
 15 16  1  0
 15 17  2  0
 17 18  1  0
  5 19  2  0
 19 20  1  0
 20 21  1  0
 20 22  1  0
 19 23  1  0
 23 24  1  0
 23  3  1  0
 17  8  1  0
M  END
>  <UniqueID>  (3) 
3

>  <SMILES>  (3) 
[H]/N=c1\[nH]c(N)c(C(=O)c2ccc(F)cc2)s1

>  <Energy>  (3) 
60.08900846113971

>  <Genealogy>  (3) 
[H]/N=c1\[nH]c(N)c(C(=O)c2ccc(F)cc2)s1 (cis-trans isomerization)
[H]/N=c1\[nH]c(N)c(C(=O)c2ccc(F)cc2)s1 (3D coordinates assigned)
[H]/N=c1\[nH]c(N)c(C(=O)c2ccc(F)cc2)s1 (optimized conformer: 60.08900846113971 kcal/mol)

>  <smiles>  (3) 
N=c1[nH]c(N)c(C(=O)c2ccc(F)cc2)s1

>  <score_type>  (3) 
oracle

>  <origin>  (3) 
adgpu

>  <m_score__min__energy>  (3) 
-6.2000000000000002

>  <m_primary>  (3) 
energy

$$$$
3:0
     RDKit          3D

 45 47  0  0  0  0  0  0  0  0999 V2000
   -0.6090   25.6260  -27.7530 C   0  0  0  0  0  0  0  0  0  0  0  0
   -1.0980   24.9850  -28.9230 O   0  0  0  0  0  0  0  0  0  0  0  0
   -2.2740   24.2260  -28.9730 C   0  0  0  0  0  0  0  0  0  0  0  0
   -3.3340   24.5350  -29.8490 C   0  0  0  0  0  0  0  0  0  0  0  0
   -4.5250   23.7950  -29.8140 C   0  0  0  0  0  0  0  0  0  0  0  0
   -5.9040   24.3290  -30.7790 S   0  0  0  0  0  0  0  0  0  0  0  0
   -5.7370   25.7630  -31.2020 O   0  0  0  0  0  0  0  0  0  0  0  0
   -7.1470   24.2070  -29.9460 O   0  0  0  0  0  0  0  0  0  0  0  0
   -6.0490   23.3210  -32.1870 N   0  0  0  0  0  0  0  0  0  0  0  0
   -6.4820   21.9650  -32.0510 C   0  0  0  0  0  0  0  0  0  0  0  0
   -7.7890   21.5090  -32.0030 C   0  0  0  0  0  0  0  0  0  0  0  0
   -9.0100   22.3320  -31.7270 C   0  0  0  0  0  0  0  0  0  0  0  0
   -7.7960   20.1830  -32.2920 N   0  0  0  0  0  0  0  0  0  0  0  0
   -8.9900   19.3380  -32.3820 C   0  0  0  0  0  0  0  0  0  0  0  0
   -6.5500   19.7950  -32.5570 N   0  0  0  0  0  0  0  0  0  0  0  0
   -6.1580   18.5320  -33.1230 C   0  0  0  0  0  0  0  0  0  0  0  0
   -6.1630   17.3720  -32.3340 C   0  0  0  0  0  0  0  0  0  0  0  0
   -5.7290   16.1560  -32.8670 C   0  0  0  0  0  0  0  0  0  0  0  0
   -5.2830   16.0890  -34.1900 C   0  0  0  0  0  0  0  0  0  0  0  0
   -5.2660   17.2400  -34.9800 C   0  0  0  0  0  0  0  0  0  0  0  0
   -5.6940   18.4580  -34.4480 C   0  0  0  0  0  0  0  0  0  0  0  0
   -5.7380   20.8610  -32.4040 C   0  0  0  0  0  0  0  0  0  0  0  0
   -4.5050   20.8620  -32.6560 O   0  0  0  0  0  0  0  0  0  0  0  0
   -4.6380   22.7060  -28.9370 C   0  0  0  0  0  0  0  0  0  0  0  0
   -3.5760   22.3750  -28.0910 C   0  0  0  0  0  0  0  0  0  0  0  0
   -2.4030   23.1360  -28.1020 C   0  0  0  0  0  0  0  0  0  0  0  0
   -1.3980   22.8270  -27.2430 F   0  0  0  0  0  0  0  0  0  0  0  0
   -1.0008   25.1124  -26.8626 H   0  0  0  0  0  0  0  0  0  0  0  0
    0.4903   25.5861  -27.7453 H   0  0  0  0  0  0  0  0  0  0  0  0
   -0.9379   26.6756  -27.7453 H   0  0  0  0  0  0  0  0  0  0  0  0
   -3.2264   25.3627  -30.5655 H   0  0  0  0  0  0  0  0  0  0  0  0
   -6.2350   23.8020  -33.0990 H   0  0  0  0  0  0  0  0  0  0  0  0
   -9.1504   22.4266  -30.6401 H   0  0  0  0  0  0  0  0  0  0  0  0
   -8.8861   23.3316  -32.1691 H   0  0  0  0  0  0  0  0  0  0  0  0
   -9.8901   21.8421  -32.1691 H   0  0  0  0  0  0  0  0  0  0  0  0
   -9.3407   19.0898  -31.3694 H   0  0  0  0  0  0  0  0  0  0  0  0
   -9.7816   19.8781  -32.9221 H   0  0  0  0  0  0  0  0  0  0  0  0
   -8.7439   18.4119  -32.9221 H   0  0  0  0  0  0  0  0  0  0  0  0
   -6.5101   17.4203  -31.2913 H   0  0  0  0  0  0  0  0  0  0  0  0
   -5.7382   15.2493  -32.2443 H   0  0  0  0  0  0  0  0  0  0  0  0
   -4.9454   15.1295  -34.6087 H   0  0  0  0  0  0  0  0  0  0  0  0
   -4.9155   17.1874  -36.0213 H   0  0  0  0  0  0  0  0  0  0  0  0
   -5.6680   19.3652  -35.0695 H   0  0  0  0  0  0  0  0  0  0  0  0
   -5.5635   22.1119  -28.9152 H   0  0  0  0  0  0  0  0  0  0  0  0
   -3.6632   21.5125  -27.4139 H   0  0  0  0  0  0  0  0  0  0  0  0
  1  2  1  0
  2  3  1  0
  3  4  2  0
  4  5  1  0
  5  6  1  0
  6  7  2  0
  6  8  2  0
  6  9  1  0
  9 10  1  0
 10 11  2  0
 11 12  1  0
 11 13  1  0
 13 14  1  0
 13 15  1  0
 15 16  1  0
 16 17  2  0
 17 18  1  0
 18 19  2  0
 19 20  1  0
 20 21  2  0
 15 22  1  0
 22 23  2  0
  5 24  2  0
 24 25  1  0
 25 26  2  0
 26 27  1  0
 26  3  1  0
 22 10  1  0
 21 16  1  0
  1 28  1  0
  1 29  1  0
  1 30  1  0
  4 31  1  0
  9 32  1  0
 12 33  1  0
 12 34  1  0
 12 35  1  0
 14 36  1  0
 14 37  1  0
 14 38  1  0
 17 39  1  0
 18 40  1  0
 19 41  1  0
 20 42  1  0
 21 43  1  0
 24 44  1  0
 25 45  1  0
M  END
>  <UniqueID>  (4) 
4

>  <SMILES>  (4) 
COc1cc(S(=O)(=O)Nc2c(C)n(C)n(-c3ccccc3)c2=O)ccc1F

>  <Energy>  (4) 
91.1148839505794

>  <Genealogy>  (4) 
COc1cc(S(=O)(=O)Nc2c(C)n(C)n(-c3ccccc3)c2=O)ccc1F (3D coordinates assigned)
COc1cc(S(=O)(=O)Nc2c(C)n(C)n(-c3ccccc3)c2=O)ccc1F (optimized conformer: 91.1148839505794 kcal/mol)

>  <smiles>  (4) 
COc1cc(S(=O)(=O)Nc2c(C)n(C)n(-c3ccccc3)c2=O)ccc1F

>  <score_type>  (4) 
oracle

>  <origin>  (4) 
adgpu

>  <m_score__min__energy>  (4) 
-8.8200000000000003

>  <m_primary>  (4) 
energy

$$$$
4:0
     RDKit          3D

 27 29  0  0  0  0  0  0  0  0999 V2000
   -6.1170   25.6740  -29.7410 Cl  0  0  0  0  0  0  0  0  0  0  0  0
   -6.1350   24.1070  -30.5280 C   0  0  0  0  0  0  0  0  0  0  0  0
   -4.9330   23.4730  -30.8510 C   0  0  0  0  0  0  0  0  0  0  0  0
   -4.9470   22.2260  -31.4810 C   0  0  0  0  0  0  0  0  0  0  0  0
   -6.1620   21.5920  -31.7850 C   0  0  0  0  0  0  0  0  0  0  0  0
   -6.1380   20.3040  -32.4200 N   0  0  0  0  0  0  0  0  0  0  0  0
   -6.7830   19.1890  -32.0010 C   0  0  0  0  0  0  0  0  0  0  0  0
   -6.4400   18.1740  -32.8600 C   0  0  0  0  0  0  0  0  0  0  0  0
   -5.5730   18.7250  -33.7580 C   0  0  0  0  0  0  0  0  0  0  0  0
   -5.3990   20.0320  -33.4900 N   0  0  0  0  0  0  0  0  0  0  0  0
   -5.0710   17.9700  -34.9490 C   0  0  0  0  0  0  0  0  0  0  0  0
   -5.0890   16.4450  -34.6650 C   0  0  0  0  0  0  0  0  0  0  0  0
   -6.2890   15.9840  -33.8470 C   0  0  0  0  0  0  0  0  0  0  0  0
   -6.8690   16.7780  -32.9340 C   0  0  0  0  0  0  0  0  0  0  0  0
   -7.3760   22.2480  -31.4760 C   0  0  0  0  0  0  0  0  0  0  0  0
   -8.9390   21.5840  -31.9400 Cl  0  0  0  0  0  0  0  0  0  0  0  0
   -7.3520   23.4980  -30.8450 C   0  0  0  0  0  0  0  0  0  0  0  0
   -3.9747   23.9558  -30.6092 H   0  0  0  0  0  0  0  0  0  0  0  0
   -3.9970   21.7364  -31.7413 H   0  0  0  0  0  0  0  0  0  0  0  0
   -7.4560   19.1111  -31.1344 H   0  0  0  0  0  0  0  0  0  0  0  0
   -5.7155   18.1859  -35.8139 H   0  0  0  0  0  0  0  0  0  0  0  0
   -4.0381   18.2826  -35.1622 H   0  0  0  0  0  0  0  0  0  0  0  0
   -5.1013   15.9134  -35.6279 H   0  0  0  0  0  0  0  0  0  0  0  0
   -4.1914   16.2201  -34.0702 H   0  0  0  0  0  0  0  0  0  0  0  0
   -6.6907   14.9729  -34.0093 H   0  0  0  0  0  0  0  0  0  0  0  0
   -7.6461   16.3893  -32.2595 H   0  0  0  0  0  0  0  0  0  0  0  0
   -8.2971   24.0035  -30.5974 H   0  0  0  0  0  0  0  0  0  0  0  0
  1  2  1  0
  2  3  2  0
  3  4  1  0
  4  5  2  0
  5  6  1  0
  6  7  1  0
  7  8  2  0
  8  9  1  0
  9 10  2  0
  9 11  1  0
 11 12  1  0
 12 13  1  0
 13 14  2  0
  5 15  1  0
 15 16  1  0
 15 17  2  0
 17  2  1  0
 10  6  1  0
 14  8  1  0
  3 18  1  0
  4 19  1  0
  7 20  1  0
 11 21  1  0
 11 22  1  0
 12 23  1  0
 12 24  1  0
 13 25  1  0
 14 26  1  0
 17 27  1  0
M  END
>  <UniqueID>  (5) 
5

>  <SMILES>  (5) 
Clc1ccc(-n2cc3c(n2)CCC=C3)c(Cl)c1

>  <Energy>  (5) 
70.2894631301243

>  <Genealogy>  (5) 
Clc1ccc(-n2cc3c(n2)CCC=C3)c(Cl)c1 (3D coordinates assigned)
Clc1ccc(-n2cc3c(n2)CCC=C3)c(Cl)c1 (nonaromatic ring conformer: 70.2894631301243 kcal/mol)

>  <smiles>  (5) 
Clc1ccc(-n2cc3c(n2)CCC=C3)c(Cl)c1

>  <score_type>  (5) 
oracle

>  <origin>  (5) 
adgpu

>  <m_score__min__energy>  (5) 
-7.4299999999999997

>  <m_primary>  (5) 
energy

$$$$
5:0
     RDKit          3D

 56 59  0  0  0  0  0  0  0  0999 V2000
   -5.7150   26.3860  -30.4990 O   0  0  0  0  0  0  0  0  0  0  0  0
   -5.0750   25.3310  -30.7590 C   0  0  0  0  0  0  0  0  0  0  0  0
   -3.6770   25.2750  -30.4620 N   0  0  0  0  0  0  0  0  0  0  0  0
   -3.1440   24.5340  -29.3600 C   0  0  0  0  0  0  0  0  0  0  0  0
   -3.7960   23.3850  -28.8750 C   0  0  0  0  0  0  0  0  0  0  0  0
   -3.2250   22.6430  -27.8380 C   0  0  0  0  0  0  0  0  0  0  0  0
   -2.0140   23.0500  -27.2690 C   0  0  0  0  0  0  0  0  0  0  0  0
   -1.3770   24.2150  -27.7210 C   0  0  0  0  0  0  0  0  0  0  0  0
    0.1010   24.7840  -26.9390 S   0  0  0  0  0  0  0  0  0  0  0  0
    1.2390   24.7510  -27.9260 O   0  0  0  0  0  0  0  0  0  0  0  0
    0.4440   23.8540  -25.8080 O   0  0  0  0  0  0  0  0  0  0  0  0
   -0.0680   26.4230  -26.3350 N   0  0  0  0  0  0  0  0  0  0  0  0
   -1.3790   26.6260  -25.7130 C   0  0  0  0  0  0  0  0  0  0  0  0
   -1.2220   26.4360  -24.2130 C   0  0  0  0  0  0  0  0  0  0  0  0
    0.2520   26.6520  -23.9320 C   0  0  0  0  0  0  0  0  0  0  0  0
    0.9300   26.7210  -25.2950 C   0  0  0  0  0  0  0  0  0  0  0  0
   -1.9360   24.9420  -28.7830 C   0  0  0  0  0  0  0  0  0  0  0  0
   -5.7800   24.1380  -31.2920 C   0  0  0  0  0  0  0  0  0  0  0  0
   -7.1810   24.0370  -31.2110 C   0  0  0  0  0  0  0  0  0  0  0  0
   -7.8300   22.8700  -31.6190 C   0  0  0  0  0  0  0  0  0  0  0  0
   -7.0890   21.7810  -32.0910 C   0  0  0  0  0  0  0  0  0  0  0  0
   -7.7400   20.6440  -32.4400 F   0  0  0  0  0  0  0  0  0  0  0  0
   -5.6910   21.8660  -32.1820 C   0  0  0  0  0  0  0  0  0  0  0  0
   -4.7270   20.4770  -32.6970 S   0  0  0  0  0  0  0  0  0  0  0  0
   -3.8500   20.9010  -33.8440 O   0  0  0  0  0  0  0  0  0  0  0  0
   -3.8360   20.0330  -31.5720 O   0  0  0  0  0  0  0  0  0  0  0  0
   -5.7570   19.1630  -33.2150 N   0  0  0  0  0  0  0  0  0  0  0  0
   -6.1700   18.3550  -32.0530 C   0  0  0  0  0  0  0  0  0  0  0  0
   -6.8710   17.0560  -32.5060 C   0  0  0  0  0  0  0  0  0  0  0  0
   -7.1140   17.0520  -33.9010 O   0  0  0  0  0  0  0  0  0  0  0  0
   -5.8830   17.1110  -34.6040 C   0  0  0  0  0  0  0  0  0  0  0  0
   -5.0210   18.3190  -34.1740 C   0  0  0  0  0  0  0  0  0  0  0  0
   -5.0460   23.0530  -31.8080 C   0  0  0  0  0  0  0  0  0  0  0  0
   -4.7552   23.0711  -29.3124 H   0  0  0  0  0  0  0  0  0  0  0  0
   -3.7286   21.7375  -27.4686 H   0  0  0  0  0  0  0  0  0  0  0  0
   -1.5593   22.4542  -26.4639 H   0  0  0  0  0  0  0  0  0  0  0  0
   -1.7390   27.6436  -25.9247 H   0  0  0  0  0  0  0  0  0  0  0  0
   -2.1080   25.9070  -26.1149 H   0  0  0  0  0  0  0  0  0  0  0  0
   -1.8299   27.1718  -23.6661 H   0  0  0  0  0  0  0  0  0  0  0  0
   -1.5585   25.4400  -23.8894 H   0  0  0  0  0  0  0  0  0  0  0  0
    0.4030   27.5922  -23.3813 H   0  0  0  0  0  0  0  0  0  0  0  0
    0.6685   25.8432  -23.3137 H   0  0  0  0  0  0  0  0  0  0  0  0
    1.3400   27.7293  -25.4537 H   0  0  0  0  0  0  0  0  0  0  0  0
    1.7503   25.9896  -25.3426 H   0  0  0  0  0  0  0  0  0  0  0  0
   -1.4223   25.8370  -29.1639 H   0  0  0  0  0  0  0  0  0  0  0  0
   -7.7686   24.8825  -30.8239 H   0  0  0  0  0  0  0  0  0  0  0  0
   -8.9270   22.8066  -31.5692 H   0  0  0  0  0  0  0  0  0  0  0  0
   -5.2805   18.0962  -31.4599 H   0  0  0  0  0  0  0  0  0  0  0  0
   -6.8766   18.9434  -31.4492 H   0  0  0  0  0  0  0  0  0  0  0  0
   -6.2305   16.1982  -32.2531 H   0  0  0  0  0  0  0  0  0  0  0  0
   -7.8395   16.9902  -31.9887 H   0  0  0  0  0  0  0  0  0  0  0  0
   -5.3194   16.1867  -34.4091 H   0  0  0  0  0  0  0  0  0  0  0  0
   -6.1111   17.2236  -35.6742 H   0  0  0  0  0  0  0  0  0  0  0  0
   -4.0973   17.9545  -33.7008 H   0  0  0  0  0  0  0  0  0  0  0  0
   -4.7799   18.9189  -35.0640 H   0  0  0  0  0  0  0  0  0  0  0  0
   -3.9549   23.1377  -31.9188 H   0  0  0  0  0  0  0  0  0  0  0  0
  1  2  2  0
  2  3  1  0
  3  4  1  0
  4  5  2  0
  5  6  1  0
  6  7  2  0
  7  8  1  0
  8  9  1  0
  9 10  2  0
  9 11  2  0
  9 12  1  0
 12 13  1  0
 13 14  1  0
 14 15  1  0
 15 16  1  0
  8 17  2  0
  2 18  1  0
 18 19  2  0
 19 20  1  0
 20 21  2  0
 21 22  1  0
 21 23  1  0
 23 24  1  0
 24 25  2  0
 24 26  2  0
 24 27  1  0
 27 28  1  0
 28 29  1  0
 29 30  1  0
 30 31  1  0
 31 32  1  0
 23 33  2  0
 17  4  1  0
 33 18  1  0
 16 12  1  0
 32 27  1  0
  5 34  1  0
  6 35  1  0
  7 36  1  0
 13 37  1  0
 13 38  1  0
 14 39  1  0
 14 40  1  0
 15 41  1  0
 15 42  1  0
 16 43  1  0
 16 44  1  0
 17 45  1  0
 19 46  1  0
 20 47  1  0
 28 48  1  0
 28 49  1  0
 29 50  1  0
 29 51  1  0
 31 52  1  0
 31 53  1  0
 32 54  1  0
 32 55  1  0
 33 56  1  0
M  CHG  1   3  -1
M  END
>  <UniqueID>  (6) 
6

>  <SMILES>  (6) 
O=C([N-]c1cccc(S(=O)(=O)N2CCCC2)c1)c1ccc(F)c(S(=O)(=O)N2CCOCC2)c1

>  <Energy>  (6) 
73.68427597549916

>  <Genealogy>  (6) 
O=C([N-]c1cccc(S(=O)(=O)N2CCCC2)c1)c1ccc(F)c(S(=O)(=O)N2CCOCC2)c1 (protonated)
O=C([N-]c1cccc(S(=O)(=O)N2CCCC2)c1)c1ccc(F)c(S(=O)(=O)N2CCOCC2)c1 (3D coordinates assigned)
O=C([N-]c1cccc(S(=O)(=O)N2CCCC2)c1)c1ccc(F)c(S(=O)(=O)N2CCOCC2)c1 (nonaromatic ring conformer: 73.68427597549916 kcal/mol)

>  <smiles>  (6) 
O=C(Nc1cccc(S(=O)(=O)N2CCCC2)c1)c1ccc(F)c(S(=O)(=O)N2CCOCC2)c1

>  <score_type>  (6) 
oracle

>  <origin>  (6) 
adgpu

>  <m_score__min__energy>  (6) 
-12.279999999999999

>  <m_primary>  (6) 
energy

$$$$
6:0
     RDKit          3D

 59 61  0  0  0  0  0  0  0  0999 V2000
   -1.2270   24.6120  -25.5100 C   0  0  0  0  0  0  0  0  0  0  0  0
   -0.3800   23.3710  -25.7680 C   0  0  0  0  0  0  0  0  0  0  0  0
   -0.7270   22.7790  -27.0620 N   0  0  0  0  0  0  0  0  0  0  0  0
   -0.8930   21.3610  -27.1940 C   0  0  0  0  0  0  0  0  0  0  0  0
    0.1220   20.5850  -27.7740 C   0  0  0  0  0  0  0  0  0  0  0  0
   -0.0350   19.2010  -27.8970 C   0  0  0  0  0  0  0  0  0  0  0  0
   -1.2040   18.5850  -27.4410 C   0  0  0  0  0  0  0  0  0  0  0  0
   -2.2190   19.3530  -26.8630 C   0  0  0  0  0  0  0  0  0  0  0  0
   -2.0650   20.7380  -26.7390 C   0  0  0  0  0  0  0  0  0  0  0  0
   -0.7080   23.7670  -28.4900 S   0  0  0  0  0  0  0  0  0  0  0  0
    0.7040   24.1760  -28.8060 O   0  0  0  0  0  0  0  0  0  0  0  0
   -1.5190   25.0140  -28.2720 O   0  0  0  0  0  0  0  0  0  0  0  0
   -1.3880   22.8440  -29.8230 C   0  0  0  0  0  0  0  0  0  0  0  0
   -0.5430   22.1550  -30.6990 C   0  0  0  0  0  0  0  0  0  0  0  0
   -1.0770   21.4370  -31.7710 C   0  0  0  0  0  0  0  0  0  0  0  0
   -2.4660   21.4150  -31.9940 C   0  0  0  0  0  0  0  0  0  0  0  0
   -3.0350   20.7050  -33.0650 O   0  0  0  0  0  0  0  0  0  0  0  0
   -3.7240   19.4660  -32.9350 C   0  0  0  0  0  0  0  0  0  0  0  0
   -3.3170   22.1330  -31.1310 C   0  0  0  0  0  0  0  0  0  0  0  0
   -4.7400   22.1030  -31.3410 N   0  0  0  0  0  0  0  0  0  0  0  0
   -5.5580   23.2790  -31.4110 C   0  0  0  0  0  0  0  0  0  0  0  0
   -5.0370   24.4160  -31.5750 O   0  0  0  0  0  0  0  0  0  0  0  0
   -7.0520   23.1570  -31.3360 C   0  0  0  0  0  0  0  0  0  0  0  0
   -7.4480   21.7350  -31.2890 N   0  0  0  0  0  0  0  0  0  0  0  0
   -7.1480   21.0720  -32.5810 C   0  0  0  0  0  0  0  0  0  0  0  0
   -7.9130   19.7540  -32.7310 C   0  0  0  0  0  0  0  0  0  0  0  0
   -9.4330   19.9930  -32.7300 C   0  0  0  0  0  0  0  0  0  0  0  0
   -9.8320   21.2700  -31.9690 C   0  0  0  0  0  0  0  0  0  0  0  0
   -8.8520   21.5590  -30.8230 C   0  0  0  0  0  0  0  0  0  0  0  0
   -2.7700   22.8320  -30.0400 C   0  0  0  0  0  0  0  0  0  0  0  0
   -1.3318   24.7655  -24.4258 H   0  0  0  0  0  0  0  0  0  0  0  0
   -0.7384   25.4893  -25.9590 H   0  0  0  0  0  0  0  0  0  0  0  0
   -2.2220   24.4767  -25.9590 H   0  0  0  0  0  0  0  0  0  0  0  0
    0.6836   23.6517  -25.7708 H   0  0  0  0  0  0  0  0  0  0  0  0
   -0.5731   22.6345  -24.9741 H   0  0  0  0  0  0  0  0  0  0  0  0
    1.0436   21.0666  -28.1328 H   0  0  0  0  0  0  0  0  0  0  0  0
    0.7625   18.5962  -28.3532 H   0  0  0  0  0  0  0  0  0  0  0  0
   -1.3252   17.4959  -27.5370 H   0  0  0  0  0  0  0  0  0  0  0  0
   -3.1393   18.8681  -26.5055 H   0  0  0  0  0  0  0  0  0  0  0  0
   -2.8649   21.3402  -26.2835 H   0  0  0  0  0  0  0  0  0  0  0  0
    0.5456   22.1788  -30.5430 H   0  0  0  0  0  0  0  0  0  0  0  0
   -0.4068   20.8846  -32.4460 H   0  0  0  0  0  0  0  0  0  0  0  0
   -3.8554   19.2297  -31.8688 H   0  0  0  0  0  0  0  0  0  0  0  0
   -4.7094   19.5420  -33.4179 H   0  0  0  0  0  0  0  0  0  0  0  0
   -3.1395   18.6690  -33.4179 H   0  0  0  0  0  0  0  0  0  0  0  0
   -5.2020   21.1770  -31.4950 H   0  0  0  0  0  0  0  0  0  0  0  0
   -7.4125   23.6643  -30.4290 H   0  0  0  0  0  0  0  0  0  0  0  0
   -7.4945   23.6225  -32.2290 H   0  0  0  0  0  0  0  0  0  0  0  0
   -7.4336   21.7456  -33.4024 H   0  0  0  0  0  0  0  0  0  0  0  0
   -6.0712   20.8494  -32.6108 H   0  0  0  0  0  0  0  0  0  0  0  0
   -7.6248   19.2772  -33.6795 H   0  0  0  0  0  0  0  0  0  0  0  0
   -7.6607   19.1046  -31.8798 H   0  0  0  0  0  0  0  0  0  0  0  0
   -9.7761   20.0820  -33.7713 H   0  0  0  0  0  0  0  0  0  0  0  0
   -9.9035   19.1403  -32.2186 H   0  0  0  0  0  0  0  0  0  0  0  0
   -9.8292   22.1200  -32.6672 H   0  0  0  0  0  0  0  0  0  0  0  0
  -10.8353   21.1236  -31.5424 H   0  0  0  0  0  0  0  0  0  0  0  0
   -9.1704   22.4803  -30.3133 H   0  0  0  0  0  0  0  0  0  0  0  0
   -8.8686   20.6902  -30.1485 H   0  0  0  0  0  0  0  0  0  0  0  0
   -3.4347   23.3740  -29.3513 H   0  0  0  0  0  0  0  0  0  0  0  0
  1  2  1  0
  2  3  1  0
  3  4  1  0
  4  5  2  0
  5  6  1  0
  6  7  2  0
  7  8  1  0
  8  9  2  0
  3 10  1  0
 10 11  2  0
 10 12  2  0
 10 13  1  0
 13 14  2  0
 14 15  1  0
 15 16  2  0
 16 17  1  0
 17 18  1  0
 16 19  1  0
 19 20  1  0
 20 21  1  0
 21 22  2  0
 21 23  1  0
 23 24  1  0
 24 25  1  0
 25 26  1  0
 26 27  1  0
 27 28  1  0
 28 29  1  0
 19 30  2  0
  9  4  1  0
 30 13  1  0
 29 24  1  0
  1 31  1  0
  1 32  1  0
  1 33  1  0
  2 34  1  0
  2 35  1  0
  5 36  1  0
  6 37  1  0
  7 38  1  0
  8 39  1  0
  9 40  1  0
 14 41  1  0
 15 42  1  0
 18 43  1  0
 18 44  1  0
 18 45  1  0
 20 46  1  0
 23 47  1  0
 23 48  1  0
 25 49  1  0
 25 50  1  0
 26 51  1  0
 26 52  1  0
 27 53  1  0
 27 54  1  0
 28 55  1  0
 28 56  1  0
 29 57  1  0
 29 58  1  0
 30 59  1  0
M  END
>  <UniqueID>  (7) 
7

>  <SMILES>  (7) 
CCN(c1ccccc1)S(=O)(=O)c1ccc(OC)c(NC(=O)CN2CCCCC2)c1

>  <Energy>  (7) 
70.92846990933701

>  <Genealogy>  (7) 
CCN(c1ccccc1)S(=O)(=O)c1ccc(OC)c(NC(=O)CN2CCCCC2)c1 (3D coordinates assigned)
CCN(c1ccccc1)S(=O)(=O)c1ccc(OC)c(NC(=O)CN2CCCCC2)c1 (nonaromatic ring conformer: 70.92846990933701 kcal/mol)

>  <smiles>  (7) 
CCN(c1ccccc1)S(=O)(=O)c1ccc(OC)c(NC(=O)CN2CCCCC2)c1

>  <score_type>  (7) 
oracle

>  <origin>  (7) 
adgpu

>  <m_score__min__energy>  (7) 
-9.3399999999999999

>  <m_primary>  (7) 
energy

$$$$
7:0
     RDKit          3D

 35 37  0  0  0  0  0  0  0  0999 V2000
   -4.9202   23.4466  -27.9076 H   0  0  0  0  0  0  0  0  0  0  0  0
   -4.3710   24.0090  -28.6770 C   0  0  0  0  0  0  0  0  0  0  0  0
   -3.0000   24.1310  -28.8250 C   0  0  0  0  0  0  0  0  0  0  0  0
   -1.9560   23.5170  -27.9620 C   0  0  0  0  0  0  0  0  0  0  0  0
   -2.1680   22.2390  -27.4080 C   0  0  0  0  0  0  0  0  0  0  0  0
   -3.1035   21.7019  -27.6233 H   0  0  0  0  0  0  0  0  0  0  0  0
   -1.2050   21.6460  -26.5890 C   0  0  0  0  0  0  0  0  0  0  0  0
   -1.4280   20.4180  -26.0620 F   0  0  0  0  0  0  0  0  0  0  0  0
   -0.0180   22.3180  -26.3080 C   0  0  0  0  0  0  0  0  0  0  0  0
    0.7384   21.8498  -25.6609 H   0  0  0  0  0  0  0  0  0  0  0  0
    0.2130   23.5840  -26.8460 C   0  0  0  0  0  0  0  0  0  0  0  0
    1.1527   24.1090  -26.6195 H   0  0  0  0  0  0  0  0  0  0  0  0
   -0.7460   24.1970  -27.6770 C   0  0  0  0  0  0  0  0  0  0  0  0
   -0.5200   25.4660  -28.2380 O   0  0  0  0  0  0  0  0  0  0  0  0
   -0.5920   26.6960  -27.5230 C   0  0  0  0  0  0  0  0  0  0  0  0
   -0.5801   26.4929  -26.4420 H   0  0  0  0  0  0  0  0  0  0  0  0
    0.2709   27.3249  -27.7875 H   0  0  0  0  0  0  0  0  0  0  0  0
   -1.5224   27.2199  -27.7875 H   0  0  0  0  0  0  0  0  0  0  0  0
   -2.7400   24.9170  -29.8910 N   0  0  0  0  0  0  0  0  0  0  0  0
   -3.8880   25.2970  -30.4310 N   0  0  0  0  0  0  0  0  0  0  0  0
   -4.8910   24.7540  -29.7150 C   0  0  0  0  0  0  0  0  0  0  0  0
   -6.3180   24.9690  -30.0150 C   0  0  0  0  0  0  0  0  0  0  0  0
   -6.8730   26.0330  -29.6360 O   0  0  0  0  0  0  0  0  0  0  0  0
   -7.1120   23.9570  -30.6490 N   0  0  0  0  0  0  0  0  0  0  0  0
   -6.6760   22.9690  -31.3810 C   0  0  0  0  0  0  0  0  0  0  0  0
   -7.5970   22.0180  -31.8390 C   0  0  0  0  0  0  0  0  0  0  0  0
   -8.6627   22.1128  -31.5834 H   0  0  0  0  0  0  0  0  0  0  0  0
   -7.1560   20.9500  -32.6210 C   0  0  0  0  0  0  0  0  0  0  0  0
   -7.8721   20.1954  -32.9785 H   0  0  0  0  0  0  0  0  0  0  0  0
   -5.8050   20.8420  -32.9480 C   0  0  0  0  0  0  0  0  0  0  0  0
   -5.4460   19.9989  -33.5565 H   0  0  0  0  0  0  0  0  0  0  0  0
   -4.9130   21.8150  -32.4950 C   0  0  0  0  0  0  0  0  0  0  0  0
   -3.8464   21.7424  -32.7540 H   0  0  0  0  0  0  0  0  0  0  0  0
   -5.3560   22.8540  -31.7340 N   0  0  0  0  0  0  0  0  0  0  0  0
   -4.6540   23.5730  -31.4520 H   0  0  0  0  0  0  0  0  0  0  0  0
  1  2  1  0
  2  3  1  0
  3  4  1  0
  4  5  2  0
  5  6  1  0
  5  7  1  0
  7  8  1  0
  7  9  2  0
  9 10  1  0
  9 11  1  0
 11 12  1  0
 11 13  2  0
 13 14  1  0
 14 15  1  0
 15 16  1  0
 15 17  1  0
 15 18  1  0
  3 19  2  0
 19 20  1  0
 20 21  1  0
 21 22  1  0
 22 23  2  0
 22 24  1  0
 24 25  2  0
 25 26  1  0
 26 27  1  0
 26 28  2  0
 28 29  1  0
 28 30  1  0
 30 31  1  0
 30 32  2  0
 32 33  1  0
 32 34  1  0
 34 35  1  0
 21  2  2  0
 34 25  1  0
 13  4  1  0
M  CHG  1  20  -1
M  END
>  <UniqueID>  (8) 
8

>  <SMILES>  (8) 
COc1ccc(F)cc1-c1cc(C(=O)/N=c2/cccc[nH]2)[n-]n1

>  <Energy>  (8) 
77.99889794339289

>  <Genealogy>  (8) 
COc1ccc(F)cc1-c1cc(C(=O)N=c2cccc[nH]2)[n-]n1 (protonated)
COc1ccc(F)cc1-c1cc(C(=O)/N=c2/cccc[nH]2)[n-]n1 (cis-trans isomerization)
COc1ccc(F)cc1-c1cc(C(=O)/N=c2/cccc[nH]2)[n-]n1 (3D coordinates assigned)
COc1ccc(F)cc1-c1cc(C(=O)/N=c2/cccc[nH]2)[n-]n1 (optimized conformer: 77.99889794339289 kcal/mol)

>  <smiles>  (8) 
COc1ccc(F)cc1-c1cc(C(=O)N=c2cccc[nH]2)[nH]n1

>  <score_type>  (8) 
oracle

>  <origin>  (8) 
adgpu

>  <m_score__min__energy>  (8) 
-9.5899999999999999

>  <m_primary>  (8) 
energy

$$$$
8:0
     RDKit          3D

 40 43  0  0  0  0  0  0  0  0999 V2000
   -2.4550   16.3840  -34.9510 C   0  0  0  0  0  0  0  0  0  0  0  0
   -3.8070   16.7560  -35.1960 O   0  0  0  0  0  0  0  0  0  0  0  0
   -4.4600   17.8270  -34.5670 C   0  0  0  0  0  0  0  0  0  0  0  0
   -5.8600   17.9080  -34.4750 C   0  0  0  0  0  0  0  0  0  0  0  0
   -6.4650   18.9970  -33.8390 C   0  0  0  0  0  0  0  0  0  0  0  0
   -5.6830   20.0280  -33.2810 C   0  0  0  0  0  0  0  0  0  0  0  0
   -6.3100   21.1930  -32.5990 C   0  0  0  0  0  0  0  0  0  0  0  0
   -7.6330   21.1790  -32.2850 N   0  0  0  0  0  0  0  0  0  0  0  0
   -8.3350   22.1770  -31.6640 C   0  0  0  0  0  0  0  0  0  0  0  0
   -9.5610   21.9970  -31.4490 O   0  0  0  0  0  0  0  0  0  0  0  0
   -7.7590   23.3990  -31.2490 C   0  0  0  0  0  0  0  0  0  0  0  0
   -6.4150   23.7200  -31.4320 C   0  0  0  0  0  0  0  0  0  0  0  0
   -5.7480   25.2900  -30.8940 S   0  0  0  0  0  0  0  0  0  0  0  0
   -4.4240   24.5050  -29.9850 C   0  0  0  0  0  0  0  0  0  0  0  0
   -4.6280   23.4330  -29.1770 N   0  0  0  0  0  0  0  0  0  0  0  0
   -3.3910   23.1750  -28.7280 C   0  0  0  0  0  0  0  0  0  0  0  0
   -2.9960   22.1610  -27.8590 C   0  0  0  0  0  0  0  0  0  0  0  0
   -1.6260   22.0800  -27.5190 C   0  0  0  0  0  0  0  0  0  0  0  0
   -1.1390   20.9840  -26.6200 C   0  0  0  0  0  0  0  0  0  0  0  0
   -0.7040   22.9990  -28.0840 C   0  0  0  0  0  0  0  0  0  0  0  0
   -1.1440   24.0090  -28.9590 C   0  0  0  0  0  0  0  0  0  0  0  0
   -2.5030   24.0610  -29.2550 C   0  0  0  0  0  0  0  0  0  0  0  0
   -3.1340   24.9250  -30.0640 N   0  0  0  0  0  0  0  0  0  0  0  0
   -5.4290   22.5800  -32.1830 S   0  0  0  0  0  0  0  0  0  0  0  0
   -4.2830   19.9360  -33.3770 C   0  0  0  0  0  0  0  0  0  0  0  0
   -3.6800   18.8480  -34.0150 C   0  0  0  0  0  0  0  0  0  0  0  0
   -2.2789   16.3355  -33.8663 H   0  0  0  0  0  0  0  0  0  0  0  0
   -2.2590   15.3985  -35.3987 H   0  0  0  0  0  0  0  0  0  0  0  0
   -1.7824   17.1305  -35.3987 H   0  0  0  0  0  0  0  0  0  0  0  0
   -6.4835   17.1106  -34.9055 H   0  0  0  0  0  0  0  0  0  0  0  0
   -7.5618   19.0491  -33.7738 H   0  0  0  0  0  0  0  0  0  0  0  0
   -8.4070   24.1375  -30.7543 H   0  0  0  0  0  0  0  0  0  0  0  0
   -3.7259   21.4466  -27.4505 H   0  0  0  0  0  0  0  0  0  0  0  0
   -1.2725   21.2843  -25.5702 H   0  0  0  0  0  0  0  0  0  0  0  0
   -1.7143   20.0670  -26.8150 H   0  0  0  0  0  0  0  0  0  0  0  0
   -0.0728   20.7964  -26.8150 H   0  0  0  0  0  0  0  0  0  0  0  0
    0.3647   22.9209  -27.8355 H   0  0  0  0  0  0  0  0  0  0  0  0
   -0.4386   24.7323  -29.3940 H   0  0  0  0  0  0  0  0  0  0  0  0
   -3.6552   20.7293  -32.9451 H   0  0  0  0  0  0  0  0  0  0  0  0
   -2.5834   18.7946  -34.0833 H   0  0  0  0  0  0  0  0  0  0  0  0
  1  2  1  0
  2  3  1  0
  3  4  2  0
  4  5  1  0
  5  6  2  0
  6  7  1  0
  7  8  2  0
  8  9  1  0
  9 10  2  0
  9 11  1  0
 11 12  2  0
 12 13  1  0
 13 14  1  0
 14 15  2  0
 15 16  1  0
 16 17  2  0
 17 18  1  0
 18 19  1  0
 18 20  2  0
 20 21  1  0
 21 22  2  0
 22 23  1  0
 12 24  1  0
  6 25  1  0
 25 26  2  0
 26  3  1  0
 24  7  1  0
 23 14  1  0
 22 16  1  0
  1 27  1  0
  1 28  1  0
  1 29  1  0
  4 30  1  0
  5 31  1  0
 11 32  1  0
 17 33  1  0
 19 34  1  0
 19 35  1  0
 19 36  1  0
 20 37  1  0
 21 38  1  0
 25 39  1  0
 26 40  1  0
M  CHG  1  23  -1
M  END
>  <UniqueID>  (9) 
9

>  <SMILES>  (9) 
COc1ccc(-c2nc(=O)cc(Sc3nc4cc(C)ccc4[n-]3)s2)cc1

>  <Energy>  (9) 
79.6886553558143

>  <Genealogy>  (9) 
COc1ccc(-c2nc(=O)cc(Sc3nc4cc(C)ccc4[n-]3)s2)cc1 (protonated)
COc1ccc(-c2nc(=O)cc(Sc3nc4cc(C)ccc4[n-]3)s2)cc1 (3D coordinates assigned)
COc1ccc(-c2nc(=O)cc(Sc3nc4cc(C)ccc4[n-]3)s2)cc1 (optimized conformer: 79.6886553558143 kcal/mol)

>  <smiles>  (9) 
COc1ccc(-c2nc(=O)cc(Sc3nc4cc(C)ccc4[nH]3)s2)cc1

>  <score_type>  (9) 
oracle

>  <origin>  (9) 
adgpu

>  <m_score__min__energy>  (9) 
-9.7599999999999998

>  <m_primary>  (9) 
energy

$$$$
9:0
     RDKit          3D

 49 51  0  0  0  0  0  0  0  0999 V2000
   -8.6850   18.7010  -31.1560 C   0  0  0  0  0  0  0  0  0  0  0  0
   -8.7200   19.6440  -32.6660 S   0  0  0  0  0  0  0  0  0  0  0  0
   -9.9350   19.2920  -33.4770 O   0  0  0  0  0  0  0  0  0  0  0  0
   -7.4920   19.3170  -33.4680 O   0  0  0  0  0  0  0  0  0  0  0  0
   -8.7140   21.3410  -32.3090 N   0  0  0  0  0  0  0  0  0  0  0  0
   -7.6260   22.0740  -31.7310 C   0  0  0  0  0  0  0  0  0  0  0  0
   -6.3970   22.0840  -32.4000 C   0  0  0  0  0  0  0  0  0  0  0  0
   -5.3060   22.7840  -31.8760 C   0  0  0  0  0  0  0  0  0  0  0  0
   -5.4280   23.4950  -30.6690 C   0  0  0  0  0  0  0  0  0  0  0  0
   -4.2760   24.2360  -30.0990 C   0  0  0  0  0  0  0  0  0  0  0  0
   -3.8780   25.2920  -30.6630 O   0  0  0  0  0  0  0  0  0  0  0  0
   -3.5780   23.7390  -28.9450 N   0  0  0  0  0  0  0  0  0  0  0  0
   -2.7500   24.5570  -28.1000 C   0  0  0  0  0  0  0  0  0  0  0  0
   -3.0870   24.7120  -26.7480 C   0  0  0  0  0  0  0  0  0  0  0  0
   -2.3060   25.5140  -25.9090 C   0  0  0  0  0  0  0  0  0  0  0  0
   -1.1810   26.1790  -26.4170 C   0  0  0  0  0  0  0  0  0  0  0  0
   -0.1840   27.1720  -25.3530 S   0  0  0  0  0  0  0  0  0  0  0  0
   -0.9410   27.4260  -24.0790 O   0  0  0  0  0  0  0  0  0  0  0  0
    0.0640   28.5020  -26.0100 O   0  0  0  0  0  0  0  0  0  0  0  0
    1.3500   26.4180  -24.9690 N   0  0  0  0  0  0  0  0  0  0  0  0
    2.4750   27.0160  -25.7120 C   0  0  0  0  0  0  0  0  0  0  0  0
    2.6220   26.4510  -27.1450 C   0  0  0  0  0  0  0  0  0  0  0  0
    1.7990   25.3270  -27.3920 O   0  0  0  0  0  0  0  0  0  0  0  0
    1.9380   24.3980  -26.3440 C   0  0  0  0  0  0  0  0  0  0  0  0
    1.3030   24.9430  -25.0550 C   0  0  0  0  0  0  0  0  0  0  0  0
   -0.8590   26.0520  -27.7740 C   0  0  0  0  0  0  0  0  0  0  0  0
   -1.6380   25.2500  -28.6120 C   0  0  0  0  0  0  0  0  0  0  0  0
   -6.6620   23.4760  -29.9940 C   0  0  0  0  0  0  0  0  0  0  0  0
   -7.7520   22.7760  -30.5190 C   0  0  0  0  0  0  0  0  0  0  0  0
   -8.7104   19.3857  -30.2954 H   0  0  0  0  0  0  0  0  0  0  0  0
   -9.5590   18.0341  -31.1199 H   0  0  0  0  0  0  0  0  0  0  0  0
   -7.7640   18.1007  -31.1199 H   0  0  0  0  0  0  0  0  0  0  0  0
   -6.2882   21.5358  -33.3474 H   0  0  0  0  0  0  0  0  0  0  0  0
   -4.3453   22.7785  -32.4118 H   0  0  0  0  0  0  0  0  0  0  0  0
   -3.5800   22.7080  -28.7760 H   0  0  0  0  0  0  0  0  0  0  0  0
   -3.9722   24.1991  -26.3438 H   0  0  0  0  0  0  0  0  0  0  0  0
   -2.5752   25.6232  -24.8480 H   0  0  0  0  0  0  0  0  0  0  0  0
    2.3134   28.1020  -25.7783 H   0  0  0  0  0  0  0  0  0  0  0  0
    3.3976   26.7706  -25.1655 H   0  0  0  0  0  0  0  0  0  0  0  0
    2.3558   27.2424  -27.8611 H   0  0  0  0  0  0  0  0  0  0  0  0
    3.6653   26.1215  -27.2592 H   0  0  0  0  0  0  0  0  0  0  0  0
    1.4392   23.4585  -26.6243 H   0  0  0  0  0  0  0  0  0  0  0  0
    3.0087   24.2198  -26.1658 H   0  0  0  0  0  0  0  0  0  0  0  0
    0.2512   24.6228  -25.0194 H   0  0  0  0  0  0  0  0  0  0  0  0
    1.8814   24.5446  -24.2084 H   0  0  0  0  0  0  0  0  0  0  0  0
    0.0116   26.5863  -28.1822 H   0  0  0  0  0  0  0  0  0  0  0  0
   -1.3804   25.1600  -29.6776 H   0  0  0  0  0  0  0  0  0  0  0  0
   -6.7703   24.0178  -29.0428 H   0  0  0  0  0  0  0  0  0  0  0  0
   -8.7121   22.7742  -29.9821 H   0  0  0  0  0  0  0  0  0  0  0  0
  1  2  1  0
  2  3  2  0
  2  4  2  0
  2  5  1  0
  5  6  1  0
  6  7  2  0
  7  8  1  0
  8  9  2  0
  9 10  1  0
 10 11  2  0
 10 12  1  0
 12 13  1  0
 13 14  2  0
 14 15  1  0
 15 16  2  0
 16 17  1  0
 17 18  2  0
 17 19  2  0
 17 20  1  0
 20 21  1  0
 21 22  1  0
 22 23  1  0
 23 24  1  0
 24 25  1  0
 16 26  1  0
 26 27  2  0
  9 28  1  0
 28 29  2  0
 29  6  1  0
 27 13  1  0
 25 20  1  0
  1 30  1  0
  1 31  1  0
  1 32  1  0
  7 33  1  0
  8 34  1  0
 12 35  1  0
 14 36  1  0
 15 37  1  0
 21 38  1  0
 21 39  1  0
 22 40  1  0
 22 41  1  0
 24 42  1  0
 24 43  1  0
 25 44  1  0
 25 45  1  0
 26 46  1  0
 27 47  1  0
 28 48  1  0
 29 49  1  0
M  CHG  1   5  -1
M  END
>  <UniqueID>  (10) 
10

>  <SMILES>  (10) 
CS(=O)(=O)[N-]c1ccc(C(=O)Nc2ccc(S(=O)(=O)N3CCOCC3)cc2)cc1

>  <Energy>  (10) 
65.4210188969583

>  <Genealogy>  (10) 
CS(=O)(=O)[N-]c1ccc(C(=O)Nc2ccc(S(=O)(=O)N3CCOCC3)cc2)cc1 (protonated)
CS(=O)(=O)[N-]c1ccc(C(=O)Nc2ccc(S(=O)(=O)N3CCOCC3)cc2)cc1 (3D coordinates assigned)
CS(=O)(=O)[N-]c1ccc(C(=O)Nc2ccc(S(=O)(=O)N3CCOCC3)cc2)cc1 (nonaromatic ring conformer: 65.4210188969583 kcal/mol)

>  <smiles>  (10) 
CS(=O)(=O)Nc1ccc(C(=O)Nc2ccc(S(=O)(=O)N3CCOCC3)cc2)cc1

>  <score_type>  (10) 
oracle

>  <origin>  (10) 
adgpu

>  <m_score__min__energy>  (10) 
-8.7799999999999994

>  <m_primary>  (10) 
energy

$$$$
10:0
     RDKit          3D

 32 34  0  0  0  0  0  0  0  0999 V2000
   -2.9790   21.1450  -34.5860 H   0  0  0  0  0  0  0  0  0  0  0  0
   -2.6560   21.6240  -33.7150 N   0  0  0  0  0  0  0  0  0  0  0  0
   -3.4720   21.9370  -32.7590 C   0  0  0  0  0  0  0  0  0  0  0  0
   -2.9930   22.5590  -31.6510 N   0  0  0  0  0  0  0  0  0  0  0  0
   -3.8120   22.9090  -30.6250 C   0  0  0  0  0  0  0  0  0  0  0  0
   -3.2570   23.5880  -29.4420 C   0  0  0  0  0  0  0  0  0  0  0  0
   -2.3910   24.5760  -29.4960 O   0  0  0  0  0  0  0  0  0  0  0  0
   -2.1070   24.9430  -28.2690 C   0  0  0  0  0  0  0  0  0  0  0  0
   -1.1690   26.0510  -27.9220 C   0  0  0  0  0  0  0  0  0  0  0  0
   -1.0944   26.1392  -26.8281 H   0  0  0  0  0  0  0  0  0  0  0  0
   -0.1752   25.8349  -28.3411 H   0  0  0  0  0  0  0  0  0  0  0  0
   -1.5462   26.9955  -28.3411 H   0  0  0  0  0  0  0  0  0  0  0  0
   -2.8140   24.1770  -27.3650 C   0  0  0  0  0  0  0  0  0  0  0  0
   -2.7901   24.2524  -26.2678 H   0  0  0  0  0  0  0  0  0  0  0  0
   -3.5570   23.2970  -28.1240 C   0  0  0  0  0  0  0  0  0  0  0  0
   -4.2465   22.5228  -27.7563 H   0  0  0  0  0  0  0  0  0  0  0  0
   -5.1780   22.6210  -30.7080 C   0  0  0  0  0  0  0  0  0  0  0  0
   -5.8598   22.9035  -29.8923 H   0  0  0  0  0  0  0  0  0  0  0  0
   -5.6630   21.9670  -31.8470 C   0  0  0  0  0  0  0  0  0  0  0  0
   -7.1070   21.6660  -31.9820 C   0  0  0  0  0  0  0  0  0  0  0  0
   -8.0340   22.7140  -31.8520 C   0  0  0  0  0  0  0  0  0  0  0  0
   -7.6782   23.7376  -31.6631 H   0  0  0  0  0  0  0  0  0  0  0  0
   -9.4040   22.4650  -31.9610 C   0  0  0  0  0  0  0  0  0  0  0  0
  -10.1223   23.2911  -31.8534 H   0  0  0  0  0  0  0  0  0  0  0  0
   -9.8630   21.1710  -32.2060 C   0  0  0  0  0  0  0  0  0  0  0  0
  -10.9429   20.9769  -32.2844 H   0  0  0  0  0  0  0  0  0  0  0  0
   -8.9530   20.1210  -32.3520 C   0  0  0  0  0  0  0  0  0  0  0  0
   -9.3192   19.1032  -32.5520 H   0  0  0  0  0  0  0  0  0  0  0  0
   -7.5770   20.3580  -32.2450 C   0  0  0  0  0  0  0  0  0  0  0  0
   -6.4780   19.0090  -32.5160 Cl  0  0  0  0  0  0  0  0  0  0  0  0
   -4.8020   21.6480  -32.8570 N   0  0  0  0  0  0  0  0  0  0  0  0
   -5.1670   21.1650  -33.7100 H   0  0  0  0  0  0  0  0  0  0  0  0
  1  2  1  0
  2  3  2  0
  3  4  1  0
  4  5  2  0
  5  6  1  0
  6  7  1  0
  7  8  1  0
  8  9  1  0
  9 10  1  0
  9 11  1  0
  9 12  1  0
  8 13  2  0
 13 14  1  0
 13 15  1  0
 15 16  1  0
  5 17  1  0
 17 18  1  0
 17 19  2  0
 19 20  1  0
 20 21  2  0
 21 22  1  0
 21 23  1  0
 23 24  1  0
 23 25  2  0
 25 26  1  0
 25 27  1  0
 27 28  1  0
 27 29  2  0
 29 30  1  0
 19 31  1  0
 31 32  1  0
 31  3  1  0
 15  6  2  0
 29 20  1  0
M  END
>  <UniqueID>  (11) 
11

>  <SMILES>  (11) 
[H]/N=c1/nc(-c2ccc(C)o2)cc(-c2ccccc2Cl)[nH]1

>  <Energy>  (11) 
66.5557486942728

>  <Genealogy>  (11) 
[H]/N=c1/nc(-c2ccc(C)o2)cc(-c2ccccc2Cl)[nH]1 (cis-trans isomerization)
[H]/N=c1/nc(-c2ccc(C)o2)cc(-c2ccccc2Cl)[nH]1 (3D coordinates assigned)
[H]/N=c1/nc(-c2ccc(C)o2)cc(-c2ccccc2Cl)[nH]1 (optimized conformer: 66.5557486942728 kcal/mol)

>  <smiles>  (11) 
Cc1ccc(-c2cc(-c3ccccc3Cl)[nH]c(=N)n2)o1

>  <score_type>  (11) 
oracle

>  <origin>  (11) 
adgpu

>  <m_score__min__energy>  (11) 
-7.9199999999999999

>  <m_primary>  (11) 
energy

$$$$
11:0
     RDKit          3D

 36 37  0  0  0  0  0  0  0  0999 V2000
   -5.8540   18.6940  -34.3880 C   0  0  0  0  0  0  0  0  0  0  0  0
   -6.1930   19.2090  -33.1050 O   0  0  0  0  0  0  0  0  0  0  0  0
   -6.0930   20.5600  -32.7380 C   0  0  0  0  0  0  0  0  0  0  0  0
   -4.8580   21.2360  -32.7090 C   0  0  0  0  0  0  0  0  0  0  0  0
   -4.7970   22.5800  -32.3370 C   0  0  0  0  0  0  0  0  0  0  0  0
   -5.9650   23.2760  -32.0000 C   0  0  0  0  0  0  0  0  0  0  0  0
   -5.8920   24.7120  -31.5600 C   0  0  0  0  0  0  0  0  0  0  0  0
   -5.0990   24.8190  -30.2970 C   0  0  0  0  0  0  0  0  0  0  0  0
   -5.6950   24.8420  -29.1870 O   0  0  0  0  0  0  0  0  0  0  0  0
   -3.6790   25.0020  -30.3740 N   0  0  0  0  0  0  0  0  0  0  0  0
   -2.6760   24.2090  -29.7230 C   0  0  0  0  0  0  0  0  0  0  0  0
   -2.6720   22.8040  -29.8030 C   0  0  0  0  0  0  0  0  0  0  0  0
   -1.6640   22.0660  -29.1740 C   0  0  0  0  0  0  0  0  0  0  0  0
   -0.6490   22.7210  -28.4720 C   0  0  0  0  0  0  0  0  0  0  0  0
   -0.6350   24.1160  -28.4060 C   0  0  0  0  0  0  0  0  0  0  0  0
   -1.6400   24.8590  -29.0340 C   0  0  0  0  0  0  0  0  0  0  0  0
   -1.6090   26.2480  -28.9660 O   0  0  0  0  0  0  0  0  0  0  0  0
   -7.1960   22.6020  -32.0150 C   0  0  0  0  0  0  0  0  0  0  0  0
   -7.2660   21.2460  -32.3870 C   0  0  0  0  0  0  0  0  0  0  0  0
   -8.4820   20.5430  -32.4140 O   0  0  0  0  0  0  0  0  0  0  0  0
   -8.7580   19.3750  -31.6480 C   0  0  0  0  0  0  0  0  0  0  0  0
   -5.2527   17.7806  -34.2693 H   0  0  0  0  0  0  0  0  0  0  0  0
   -6.7739   18.4579  -34.9431 H   0  0  0  0  0  0  0  0  0  0  0  0
   -5.2735   19.4456  -34.9431 H   0  0  0  0  0  0  0  0  0  0  0  0
   -3.9358   20.7017  -32.9811 H   0  0  0  0  0  0  0  0  0  0  0  0
   -3.8258   23.0957  -32.3083 H   0  0  0  0  0  0  0  0  0  0  0  0
   -5.4078   25.3099  -32.3461 H   0  0  0  0  0  0  0  0  0  0  0  0
   -6.9103   25.0873  -31.3805 H   0  0  0  0  0  0  0  0  0  0  0  0
   -3.4642   22.2845  -30.3620 H   0  0  0  0  0  0  0  0  0  0  0  0
   -1.6704   20.9676  -29.2321 H   0  0  0  0  0  0  0  0  0  0  0  0
    0.1385   22.1384  -27.9716 H   0  0  0  0  0  0  0  0  0  0  0  0
    0.1681   24.6315  -27.8590 H   0  0  0  0  0  0  0  0  0  0  0  0
   -8.1144   23.1381  -31.7336 H   0  0  0  0  0  0  0  0  0  0  0  0
   -8.7008   19.6172  -30.5765 H   0  0  0  0  0  0  0  0  0  0  0  0
   -9.7673   19.0092  -31.8878 H   0  0  0  0  0  0  0  0  0  0  0  0
   -8.0192   18.5962  -31.8878 H   0  0  0  0  0  0  0  0  0  0  0  0
  1  2  1  0
  2  3  1  0
  3  4  2  0
  4  5  1  0
  5  6  2  0
  6  7  1  0
  7  8  1  0
  8  9  2  0
  8 10  1  0
 10 11  1  0
 11 12  2  0
 12 13  1  0
 13 14  2  0
 14 15  1  0
 15 16  2  0
 16 17  1  0
  6 18  1  0
 18 19  2  0
 19 20  1  0
 20 21  1  0
 19  3  1  0
 16 11  1  0
  1 22  1  0
  1 23  1  0
  1 24  1  0
  4 25  1  0
  5 26  1  0
  7 27  1  0
  7 28  1  0
 12 29  1  0
 13 30  1  0
 14 31  1  0
 15 32  1  0
 18 33  1  0
 21 34  1  0
 21 35  1  0
 21 36  1  0
M  CHG  2  10  -1  17  -1
M  END
>  <UniqueID>  (12) 
12

>  <SMILES>  (12) 
COc1ccc(CC(=O)[N-]c2ccccc2[O-])cc1OC

>  <Energy>  (12) 
36.897770025864986

>  <Genealogy>  (12) 
COc1ccc(CC(=O)[N-]c2ccccc2[O-])cc1OC (protonated)
COc1ccc(CC(=O)[N-]c2ccccc2[O-])cc1OC (3D coordinates assigned)
COc1ccc(CC(=O)[N-]c2ccccc2[O-])cc1OC (optimized conformer: 36.897770025864986 kcal/mol)

>  <smiles>  (12) 
COc1ccc(CC(=O)Nc2ccccc2O)cc1OC

>  <score_type>  (12) 
oracle

>  <origin>  (12) 
adgpu

>  <m_score__min__energy>  (12) 
-11.859999999999999

>  <m_primary>  (12) 
energy

$$$$
12:0
     RDKit          3D

 28 30  0  0  0  0  0  0  0  0999 V2000
   -6.0990   24.5770  -31.7970 O   0  0  0  0  0  0  0  0  0  0  0  0
   -5.4520   23.5070  -31.6380 C   0  0  0  0  0  0  0  0  0  0  0  0
   -5.9630   22.3220  -32.1680 C   0  0  0  0  0  0  0  0  0  0  0  0
   -5.2500   21.1230  -31.9940 C   0  0  0  0  0  0  0  0  0  0  0  0
   -5.7460   19.8330  -32.5350 C   0  0  0  0  0  0  0  0  0  0  0  0
   -6.6570   19.0710  -31.7810 C   0  0  0  0  0  0  0  0  0  0  0  0
   -7.1330   17.8500  -32.2640 C   0  0  0  0  0  0  0  0  0  0  0  0
   -6.6990   17.3630  -33.5020 C   0  0  0  0  0  0  0  0  0  0  0  0
   -7.1710   16.1440  -33.9890 O   0  0  0  0  0  0  0  0  0  0  0  0
   -5.7810   18.1030  -34.2540 C   0  0  0  0  0  0  0  0  0  0  0  0
   -5.3340   17.6220  -35.4800 O   0  0  0  0  0  0  0  0  0  0  0  0
   -5.3040   19.3280  -33.7750 C   0  0  0  0  0  0  0  0  0  0  0  0
   -4.1050   21.1350  -31.3160 O   0  0  0  0  0  0  0  0  0  0  0  0
   -3.5780   22.2370  -30.7930 C   0  0  0  0  0  0  0  0  0  0  0  0
   -2.3670   22.1530  -30.0990 C   0  0  0  0  0  0  0  0  0  0  0  0
   -1.7920   23.2980  -29.5430 C   0  0  0  0  0  0  0  0  0  0  0  0
   -0.5880   23.2000  -28.8560 O   0  0  0  0  0  0  0  0  0  0  0  0
   -2.4270   24.5370  -29.6750 C   0  0  0  0  0  0  0  0  0  0  0  0
   -1.8500   25.6730  -29.1180 O   0  0  0  0  0  0  0  0  0  0  0  0
   -3.6420   24.6390  -30.3660 C   0  0  0  0  0  0  0  0  0  0  0  0
   -4.2480   25.8880  -30.4810 O   0  0  0  0  0  0  0  0  0  0  0  0
   -4.2310   23.4850  -30.9350 C   0  0  0  0  0  0  0  0  0  0  0  0
   -6.9159   22.3258  -32.7175 H   0  0  0  0  0  0  0  0  0  0  0  0
   -6.9975   19.4401  -30.8023 H   0  0  0  0  0  0  0  0  0  0  0  0
   -7.8523   17.2686  -31.6686 H   0  0  0  0  0  0  0  0  0  0  0  0
   -6.8470   15.7660  -34.8710 H   0  0  0  0  0  0  0  0  0  0  0  0
   -4.5785   19.9016  -34.3705 H   0  0  0  0  0  0  0  0  0  0  0  0
   -1.8647   21.1804  -29.9904 H   0  0  0  0  0  0  0  0  0  0  0  0
  1  2  2  0
  2  3  1  0
  3  4  2  0
  4  5  1  0
  5  6  2  0
  6  7  1  0
  7  8  2  0
  8  9  1  0
  8 10  1  0
 10 11  1  0
 10 12  2  0
  4 13  1  0
 13 14  1  0
 14 15  2  0
 15 16  1  0
 16 17  1  0
 16 18  2  0
 18 19  1  0
 18 20  1  0
 20 21  1  0
 20 22  2  0
 22  2  1  0
 12  5  1  0
 22 14  1  0
  3 23  1  0
  6 24  1  0
  7 25  1  0
  9 26  1  0
 12 27  1  0
 15 28  1  0
M  CHG  4  11  -1  17  -1  19  -1  21  -1
M  END
>  <UniqueID>  (13) 
13

>  <SMILES>  (13) 
O=c1cc(-c2ccc(O)c([O-])c2)oc2cc([O-])c([O-])c([O-])c12

>  <Energy>  (13) 
42.13567764768797

>  <Genealogy>  (13) 
O=c1cc(-c2ccc(O)c([O-])c2)oc2cc([O-])c([O-])c([O-])c12 (protonated)
O=c1cc(-c2ccc(O)c([O-])c2)oc2cc([O-])c([O-])c([O-])c12 (3D coordinates assigned)
O=c1cc(-c2ccc(O)c([O-])c2)oc2cc([O-])c([O-])c([O-])c12 (optimized conformer: 42.13567764768797 kcal/mol)

>  <smiles>  (13) 
O=c1cc(-c2ccc(O)c(O)c2)oc2cc(O)c(O)c(O)c12

>  <score_type>  (13) 
oracle

>  <origin>  (13) 
adgpu

>  <m_score__min__energy>  (13) 
-12.609999999999999

>  <m_primary>  (13) 
energy

$$$$
13:0
     RDKit          3D

 31 33  0  0  0  0  0  0  0  0999 V2000
   -6.6940   17.5700  -33.7160 C   0  0  0  0  0  0  0  0  0  0  0  0
   -7.6080   17.8000  -32.6810 C   0  0  0  0  0  0  0  0  0  0  0  0
   -7.5200   18.9640  -31.9100 C   0  0  0  0  0  0  0  0  0  0  0  0
   -6.5150   19.9010  -32.1760 C   0  0  0  0  0  0  0  0  0  0  0  0
   -6.4130   21.0370  -31.4390 N   0  0  0  0  0  0  0  0  0  0  0  0
   -5.4430   21.9650  -31.6780 C   0  0  0  0  0  0  0  0  0  0  0  0
   -5.3720   23.1600  -30.8640 N   0  0  0  0  0  0  0  0  0  0  0  0
   -4.1160   23.5070  -30.1800 C   0  0  0  0  0  0  0  0  0  0  0  0
   -4.3780   24.1950  -28.8230 C   0  0  0  0  0  0  0  0  0  0  0  0
   -5.5880   25.0500  -28.7910 N   0  0  0  0  0  0  0  0  0  0  0  0
   -6.0820   25.4150  -30.1230 C   0  0  0  0  0  0  0  0  0  0  0  0
   -6.4550   24.1540  -30.9060 C   0  0  0  0  0  0  0  0  0  0  0  0
   -4.5270   21.7240  -32.7230 C   0  0  0  0  0  0  0  0  0  0  0  0
   -4.6270   20.5890  -33.4630 N   0  0  0  0  0  0  0  0  0  0  0  0
   -5.5960   19.6700  -33.2170 C   0  0  0  0  0  0  0  0  0  0  0  0
   -5.6870   18.5040  -33.9860 C   0  0  0  0  0  0  0  0  0  0  0  0
   -6.7673   16.6528  -34.3188 H   0  0  0  0  0  0  0  0  0  0  0  0
   -8.3979   17.0632  -32.4733 H   0  0  0  0  0  0  0  0  0  0  0  0
   -8.2389   19.1424  -31.0967 H   0  0  0  0  0  0  0  0  0  0  0  0
   -3.5376   22.5873  -30.0080 H   0  0  0  0  0  0  0  0  0  0  0  0
   -3.5591   24.2082  -30.8189 H   0  0  0  0  0  0  0  0  0  0  0  0
   -4.4894   23.4132  -28.0572 H   0  0  0  0  0  0  0  0  0  0  0  0
   -3.5207   24.8590  -28.6382 H   0  0  0  0  0  0  0  0  0  0  0  0
   -5.3730   25.9280  -28.2640 H   0  0  0  0  0  0  0  0  0  0  0  0
   -6.3500   24.5530  -28.2720 H   0  0  0  0  0  0  0  0  0  0  0  0
   -6.9702   26.0556  -30.0193 H   0  0  0  0  0  0  0  0  0  0  0  0
   -5.2929   25.9567  -30.6651 H   0  0  0  0  0  0  0  0  0  0  0  0
   -7.3624   23.7143  -30.4663 H   0  0  0  0  0  0  0  0  0  0  0  0
   -6.6283   24.4350  -31.9553 H   0  0  0  0  0  0  0  0  0  0  0  0
   -3.7328   22.4539  -32.9386 H   0  0  0  0  0  0  0  0  0  0  0  0
   -4.9696   18.3223  -34.7998 H   0  0  0  0  0  0  0  0  0  0  0  0
  1  2  2  0
  2  3  1  0
  3  4  2  0
  4  5  1  0
  5  6  2  0
  6  7  1  0
  7  8  1  0
  8  9  1  0
  9 10  1  0
 10 11  1  0
 11 12  1  0
  6 13  1  0
 13 14  2  0
 14 15  1  0
 15 16  2  0
 16  1  1  0
 15  4  1  0
 12  7  1  0
  1 17  1  0
  2 18  1  0
  3 19  1  0
  8 20  1  0
  8 21  1  0
  9 22  1  0
  9 23  1  0
 10 24  1  0
 10 25  1  0
 11 26  1  0
 11 27  1  0
 12 28  1  0
 12 29  1  0
 13 30  1  0
 16 31  1  0
M  CHG  1  10   1
M  END
>  <UniqueID>  (14) 
14

>  <SMILES>  (14) 
c1ccc2nc(N3CC[NH2+]CC3)cnc2c1

>  <Energy>  (14) 
42.49647523081659

>  <Genealogy>  (14) 
c1ccc2nc(N3CC[NH2+]CC3)cnc2c1 (protonated)
c1ccc2nc(N3CC[NH2+]CC3)cnc2c1 (3D coordinates assigned)
c1ccc2nc(N3CC[NH2+]CC3)cnc2c1 (nonaromatic ring conformer: 42.49647523081659 kcal/mol)

>  <smiles>  (14) 
c1ccc2nc(N3CCNCC3)cnc2c1

>  <score_type>  (14) 
oracle

>  <origin>  (14) 
adgpu

>  <m_score__min__energy>  (14) 
-6.21

>  <m_primary>  (14) 
energy

$$$$
14:0
     RDKit          3D

 31 32  0  0  0  0  0  0  0  0999 V2000
    0.0520   25.1920  -27.1890 C   0  0  0  0  0  0  0  0  0  0  0  0
   -0.8110   26.2820  -27.8240 C   0  0  0  0  0  0  0  0  0  0  0  0
   -1.7530   25.7350  -28.7180 O   0  0  0  0  0  0  0  0  0  0  0  0
   -2.6820   24.7840  -28.3060 C   0  0  0  0  0  0  0  0  0  0  0  0
   -3.0890   24.8540  -27.1170 O   0  0  0  0  0  0  0  0  0  0  0  0
   -3.1350   23.7690  -29.2450 C   0  0  0  0  0  0  0  0  0  0  0  0
   -2.9840   22.4280  -28.9360 C   0  0  0  0  0  0  0  0  0  0  0  0
   -3.4040   21.4690  -29.8060 N   0  0  0  0  0  0  0  0  0  0  0  0
   -3.9690   21.7730  -30.9710 C   0  0  0  0  0  0  0  0  0  0  0  0
   -4.4290   20.7710  -31.9230 C   0  0  0  0  0  0  0  0  0  0  0  0
   -5.7630   20.5690  -32.1980 C   0  0  0  0  0  0  0  0  0  0  0  0
   -6.1790   19.6090  -33.1090 C   0  0  0  0  0  0  0  0  0  0  0  0
   -5.2540   18.8120  -33.7810 C   0  0  0  0  0  0  0  0  0  0  0  0
   -5.7380   17.5920  -34.9360 Cl  0  0  0  0  0  0  0  0  0  0  0  0
   -3.9240   19.0250  -33.4980 C   0  0  0  0  0  0  0  0  0  0  0  0
   -3.5250   19.9780  -32.5940 C   0  0  0  0  0  0  0  0  0  0  0  0
   -4.1150   23.0780  -31.2690 N   0  0  0  0  0  0  0  0  0  0  0  0
   -3.7230   24.0650  -30.4580 C   0  0  0  0  0  0  0  0  0  0  0  0
   -3.8650   25.3170  -30.7450 N   0  0  0  0  0  0  0  0  0  0  0  0
   -0.0084   25.2683  -26.0933 H   0  0  0  0  0  0  0  0  0  0  0  0
   -0.3114   24.2041  -27.5083 H   0  0  0  0  0  0  0  0  0  0  0  0
    1.0969   25.3191  -27.5083 H   0  0  0  0  0  0  0  0  0  0  0  0
   -1.3444   26.8246  -27.0296 H   0  0  0  0  0  0  0  0  0  0  0  0
   -0.1533   26.9613  -28.3862 H   0  0  0  0  0  0  0  0  0  0  0  0
   -2.5218   22.1356  -27.9816 H   0  0  0  0  0  0  0  0  0  0  0  0
   -3.2610   20.4930  -29.5160 H   0  0  0  0  0  0  0  0  0  0  0  0
   -6.5165   21.1832  -31.6833 H   0  0  0  0  0  0  0  0  0  0  0  0
   -7.2533   19.4750  -33.3036 H   0  0  0  0  0  0  0  0  0  0  0  0
   -3.1625   18.4170  -34.0084 H   0  0  0  0  0  0  0  0  0  0  0  0
   -2.4506   20.1122  -32.3998 H   0  0  0  0  0  0  0  0  0  0  0  0
   -4.2980   25.6400  -31.6380 H   0  0  0  0  0  0  0  0  0  0  0  0
  1  2  1  0
  2  3  1  0
  3  4  1  0
  4  5  2  0
  4  6  1  0
  6  7  2  0
  7  8  1  0
  8  9  1  0
  9 10  1  0
 10 11  2  0
 11 12  1  0
 12 13  2  0
 13 14  1  0
 13 15  1  0
 15 16  2  0
  9 17  2  0
 17 18  1  0
 18 19  2  3
 18  6  1  0
 16 10  1  0
  1 20  1  0
  1 21  1  0
  1 22  1  0
  2 23  1  0
  2 24  1  0
  7 25  1  0
  8 26  1  0
 11 27  1  0
 12 28  1  0
 15 29  1  0
 16 30  1  0
 19 31  1  0
M  END
>  <smiles>  (15) 
CCOC(=O)c1c[nH]c(-c2ccc(Cl)cc2)nc1=N

>  <score_type>  (15) 
oracle

>  <origin>  (15) 
adgpu

>  <m_score__min__energy>  (15) 
-6.9800000000000004

>  <m_primary>  (15) 
energy

$$$$
15:0
     RDKit          3D

 56 59  0  0  0  0  0  0  0  0999 V2000
   -9.3980   21.5890  -31.5150 C   0  0  0  0  0  0  0  0  0  0  0  0
   -9.2410   20.1770  -31.6090 O   0  0  0  0  0  0  0  0  0  0  0  0
   -8.0980   19.5400  -32.1150 C   0  0  0  0  0  0  0  0  0  0  0  0
   -7.4110   20.1490  -33.1740 C   0  0  0  0  0  0  0  0  0  0  0  0
   -6.2600   19.5600  -33.7060 C   0  0  0  0  0  0  0  0  0  0  0  0
   -5.7860   18.3470  -33.1910 C   0  0  0  0  0  0  0  0  0  0  0  0
   -4.3000   17.6430  -33.8210 S   0  0  0  0  0  0  0  0  0  0  0  0
   -3.5690   16.9060  -32.7320 O   0  0  0  0  0  0  0  0  0  0  0  0
   -4.6380   16.6710  -34.9180 O   0  0  0  0  0  0  0  0  0  0  0  0
   -3.3020   18.9030  -34.4640 N   0  0  0  0  0  0  0  0  0  0  0  0
   -1.9350   19.0410  -34.0610 C   0  0  0  0  0  0  0  0  0  0  0  0
   -0.9810   18.1600  -34.5900 C   0  0  0  0  0  0  0  0  0  0  0  0
   -1.3640   17.1680  -35.4360 F   0  0  0  0  0  0  0  0  0  0  0  0
    0.3710   18.3160  -34.2790 C   0  0  0  0  0  0  0  0  0  0  0  0
    0.7800   19.3510  -33.4360 C   0  0  0  0  0  0  0  0  0  0  0  0
   -0.1610   20.2310  -32.8960 C   0  0  0  0  0  0  0  0  0  0  0  0
   -1.5270   20.0820  -33.1930 C   0  0  0  0  0  0  0  0  0  0  0  0
   -2.5060   21.0110  -32.5830 C   0  0  0  0  0  0  0  0  0  0  0  0
   -3.6510   21.4040  -33.2930 C   0  0  0  0  0  0  0  0  0  0  0  0
   -4.5530   22.3060  -32.7300 C   0  0  0  0  0  0  0  0  0  0  0  0
   -4.3280   22.8310  -31.4500 C   0  0  0  0  0  0  0  0  0  0  0  0
   -5.2430   23.7930  -30.9030 N   0  0  0  0  0  0  0  0  0  0  0  0
   -6.6080   23.4680  -30.5390 C   0  0  0  0  0  0  0  0  0  0  0  0
   -7.2140   24.7730  -30.0390 C   0  0  0  0  0  0  0  0  0  0  0  0
   -6.0320   25.6860  -29.7170 C   0  0  0  0  0  0  0  0  0  0  0  0
   -4.8460   25.1300  -30.4950 C   0  0  0  0  0  0  0  0  0  0  0  0
   -3.1960   22.4290  -30.7160 C   0  0  0  0  0  0  0  0  0  0  0  0
   -3.0040   22.9490  -29.4260 O   0  0  0  0  0  0  0  0  0  0  0  0
   -3.6020   22.4240  -28.2450 C   0  0  0  0  0  0  0  0  0  0  0  0
   -2.2950   21.5100  -31.2880 C   0  0  0  0  0  0  0  0  0  0  0  0
   -6.4700   17.7300  -32.1330 C   0  0  0  0  0  0  0  0  0  0  0  0
   -7.6180   18.3220  -31.5940 C   0  0  0  0  0  0  0  0  0  0  0  0
   -9.4309   21.8846  -30.4560 H   0  0  0  0  0  0  0  0  0  0  0  0
   -8.5496   22.0859  -32.0082 H   0  0  0  0  0  0  0  0  0  0  0  0
  -10.3349   21.8874  -32.0082 H   0  0  0  0  0  0  0  0  0  0  0  0
   -7.7803   21.0980  -33.5899 H   0  0  0  0  0  0  0  0  0  0  0  0
   -5.7248   20.0511  -34.5321 H   0  0  0  0  0  0  0  0  0  0  0  0
    1.1148   17.6227  -34.6986 H   0  0  0  0  0  0  0  0  0  0  0  0
    1.8465   19.4739  -33.1963 H   0  0  0  0  0  0  0  0  0  0  0  0
    0.1689   21.0455  -32.2344 H   0  0  0  0  0  0  0  0  0  0  0  0
   -3.8377   20.9985  -34.2984 H   0  0  0  0  0  0  0  0  0  0  0  0
   -5.4476   22.6078  -33.2944 H   0  0  0  0  0  0  0  0  0  0  0  0
   -7.1618   23.0967  -31.4139 H   0  0  0  0  0  0  0  0  0  0  0  0
   -6.6509   22.6775  -29.7752 H   0  0  0  0  0  0  0  0  0  0  0  0
   -7.8457   25.2249  -30.8179 H   0  0  0  0  0  0  0  0  0  0  0  0
   -7.8517   24.6110  -29.1574 H   0  0  0  0  0  0  0  0  0  0  0  0
   -6.2479   26.7167  -30.0347 H   0  0  0  0  0  0  0  0  0  0  0  0
   -5.8273   25.7132  -28.6366 H   0  0  0  0  0  0  0  0  0  0  0  0
   -4.6369   25.7548  -31.3759 H   0  0  0  0  0  0  0  0  0  0  0  0
   -3.9291   25.1163  -29.8875 H   0  0  0  0  0  0  0  0  0  0  0  0
   -3.1096   22.8563  -27.3614 H   0  0  0  0  0  0  0  0  0  0  0  0
   -4.6717   22.6801  -28.2307 H   0  0  0  0  0  0  0  0  0  0  0  0
   -3.4866   21.3302  -28.2307 H   0  0  0  0  0  0  0  0  0  0  0  0
   -1.4167   21.1798  -30.7139 H   0  0  0  0  0  0  0  0  0  0  0  0
   -6.1025   16.7768  -31.7252 H   0  0  0  0  0  0  0  0  0  0  0  0
   -8.1469   17.8351  -30.7614 H   0  0  0  0  0  0  0  0  0  0  0  0
  1  2  1  0
  2  3  1  0
  3  4  2  0
  4  5  1  0
  5  6  2  0
  6  7  1  0
  7  8  2  0
  7  9  2  0
  7 10  1  0
 10 11  1  0
 11 12  2  0
 12 13  1  0
 12 14  1  0
 14 15  2  0
 15 16  1  0
 16 17  2  0
 17 18  1  0
 18 19  2  0
 19 20  1  0
 20 21  2  0
 21 22  1  0
 22 23  1  0
 23 24  1  0
 24 25  1  0
 25 26  1  0
 21 27  1  0
 27 28  1  0
 28 29  1  0
 27 30  2  0
  6 31  1  0
 31 32  2  0
 32  3  1  0
 17 11  1  0
 30 18  1  0
 26 22  1  0
  1 33  1  0
  1 34  1  0
  1 35  1  0
  4 36  1  0
  5 37  1  0
 14 38  1  0
 15 39  1  0
 16 40  1  0
 19 41  1  0
 20 42  1  0
 23 43  1  0
 23 44  1  0
 24 45  1  0
 24 46  1  0
 25 47  1  0
 25 48  1  0
 26 49  1  0
 26 50  1  0
 29 51  1  0
 29 52  1  0
 29 53  1  0
 30 54  1  0
 31 55  1  0
 32 56  1  0
M  CHG  1  10  -1
M  END
>  <UniqueID>  (16) 
15

>  <SMILES>  (16) 
COc1ccc(S(=O)(=O)[N-]c2c(F)cccc2-c2ccc(N3CCCC3)c(OC)c2)cc1

>  <Energy>  (16) 
76.49288788527046

>  <Genealogy>  (16) 
COc1ccc(S(=O)(=O)[N-]c2c(F)cccc2-c2ccc(N3CCCC3)c(OC)c2)cc1 (protonated)
COc1ccc(S(=O)(=O)[N-]c2c(F)cccc2-c2ccc(N3CCCC3)c(OC)c2)cc1 (3D coordinates assigned)
COc1ccc(S(=O)(=O)[N-]c2c(F)cccc2-c2ccc(N3CCCC3)c(OC)c2)cc1 (nonaromatic ring conformer: 76.49288788527046 kcal/mol)

>  <smiles>  (16) 
COc1ccc(S(=O)(=O)Nc2c(F)cccc2-c2ccc(N3CCCC3)c(OC)c2)cc1

>  <score_type>  (16) 
oracle

>  <origin>  (16) 
adgpu

>  <m_score__min__energy>  (16) 
-10.33

>  <m_primary>  (16) 
energy

$$$$
16:0
     RDKit          3D

 39 41  0  0  0  0  0  0  0  0999 V2000
    0.1708   25.2638  -29.2701 H   0  0  0  0  0  0  0  0  0  0  0  0
   -0.6570   24.9610  -28.6120 C   0  0  0  0  0  0  0  0  0  0  0  0
   -1.9130   24.8370  -29.1150 N   0  0  0  0  0  0  0  0  0  0  0  0
   -2.9680   24.4620  -28.3370 C   0  0  0  0  0  0  0  0  0  0  0  0
   -4.1680   24.3460  -28.8320 N   0  0  0  0  0  0  0  0  0  0  0  0
   -4.5720   24.5740  -30.1930 C   0  0  0  0  0  0  0  0  0  0  0  0
   -4.3200   25.6730  -30.7630 O   0  0  0  0  0  0  0  0  0  0  0  0
   -5.2920   23.5120  -30.9350 C   0  0  0  0  0  0  0  0  0  0  0  0
   -6.5000   23.7960  -31.5990 C   0  0  0  0  0  0  0  0  0  0  0  0
   -6.9142   24.8145  -31.5665 H   0  0  0  0  0  0  0  0  0  0  0  0
   -7.1780   22.7930  -32.3000 C   0  0  0  0  0  0  0  0  0  0  0  0
   -8.1246   23.0275  -32.8088 H   0  0  0  0  0  0  0  0  0  0  0  0
   -6.6620   21.4950  -32.3590 C   0  0  0  0  0  0  0  0  0  0  0  0
   -7.3790   20.5200  -33.0690 O   0  0  0  0  0  0  0  0  0  0  0  0
   -6.9070   19.2300  -33.3430 C   0  0  0  0  0  0  0  0  0  0  0  0
   -5.8150   19.0840  -34.2080 C   0  0  0  0  0  0  0  0  0  0  0  0
   -5.3459   19.9747  -34.6514 H   0  0  0  0  0  0  0  0  0  0  0  0
   -5.3180   17.8140  -34.5110 C   0  0  0  0  0  0  0  0  0  0  0  0
   -4.4667   17.7063  -35.1993 H   0  0  0  0  0  0  0  0  0  0  0  0
   -5.9020   16.6810  -33.9400 C   0  0  0  0  0  0  0  0  0  0  0  0
   -5.5166   15.6807  -34.1866 H   0  0  0  0  0  0  0  0  0  0  0  0
   -6.9750   16.8170  -33.0560 C   0  0  0  0  0  0  0  0  0  0  0  0
   -7.4261   15.9231  -32.6006 H   0  0  0  0  0  0  0  0  0  0  0  0
   -7.4790   18.0870  -32.7470 C   0  0  0  0  0  0  0  0  0  0  0  0
   -8.7730   18.2190  -31.5640 Cl  0  0  0  0  0  0  0  0  0  0  0  0
   -5.4630   21.2010  -31.6850 C   0  0  0  0  0  0  0  0  0  0  0  0
   -5.0582   20.1785  -31.7097 H   0  0  0  0  0  0  0  0  0  0  0  0
   -4.7830   22.2010  -30.9840 C   0  0  0  0  0  0  0  0  0  0  0  0
   -3.8424   21.9612  -30.4665 H   0  0  0  0  0  0  0  0  0  0  0  0
   -2.7620   24.1960  -26.9780 C   0  0  0  0  0  0  0  0  0  0  0  0
   -3.6054   23.8922  -26.3405 H   0  0  0  0  0  0  0  0  0  0  0  0
   -1.4710   24.3190  -26.4310 C   0  0  0  0  0  0  0  0  0  0  0  0
   -1.1980   24.0680  -25.0790 O   0  0  0  0  0  0  0  0  0  0  0  0
   -0.4300   24.9250  -24.2400 C   0  0  0  0  0  0  0  0  0  0  0  0
   -0.6400   24.6906  -23.1860 H   0  0  0  0  0  0  0  0  0  0  0  0
    0.6405   24.7737  -24.4430 H   0  0  0  0  0  0  0  0  0  0  0  0
   -0.6973   25.9726  -24.4430 H   0  0  0  0  0  0  0  0  0  0  0  0
   -0.4160   24.7050  -27.2630 C   0  0  0  0  0  0  0  0  0  0  0  0
    0.6004   24.8063  -26.8548 H   0  0  0  0  0  0  0  0  0  0  0  0
  1  2  1  0
  2  3  1  0
  3  4  1  0
  4  5  2  0
  5  6  1  0
  6  7  2  0
  6  8  1  0
  8  9  2  0
  9 10  1  0
  9 11  1  0
 11 12  1  0
 11 13  2  0
 13 14  1  0
 14 15  1  0
 15 16  2  0
 16 17  1  0
 16 18  1  0
 18 19  1  0
 18 20  2  0
 20 21  1  0
 20 22  1  0
 22 23  1  0
 22 24  2  0
 24 25  1  0
 13 26  1  0
 26 27  1  0
 26 28  2  0
 28 29  1  0
  4 30  1  0
 30 31  1  0
 30 32  2  0
 32 33  1  0
 33 34  1  0
 34 35  1  0
 34 36  1  0
 34 37  1  0
 32 38  1  0
 38 39  1  0
 38  2  2  0
 28  8  1  0
 24 15  1  0
M  CHG  1   3  -1
M  END
>  <UniqueID>  (17) 
16

>  <SMILES>  (17) 
COc1cc[n-]/c(=N\C(=O)c2ccc(Oc3ccccc3Cl)cc2)c1

>  <Energy>  (17) 
54.08467150901948

>  <Genealogy>  (17) 
COc1cc[n-]c(=NC(=O)c2ccc(Oc3ccccc3Cl)cc2)c1 (protonated)
COc1cc[n-]/c(=N\C(=O)c2ccc(Oc3ccccc3Cl)cc2)c1 (cis-trans isomerization)
COc1cc[n-]/c(=N\C(=O)c2ccc(Oc3ccccc3Cl)cc2)c1 (3D coordinates assigned)
COc1cc[n-]/c(=N\C(=O)c2ccc(Oc3ccccc3Cl)cc2)c1 (optimized conformer: 54.08467150901948 kcal/mol)

>  <smiles>  (17) 
COc1cc[nH]c(=NC(=O)c2ccc(Oc3ccccc3Cl)cc2)c1

>  <score_type>  (17) 
oracle

>  <origin>  (17) 
adgpu

>  <m_score__min__energy>  (17) 
-10.42

>  <m_primary>  (17) 
energy

$$$$
17:0
     RDKit          3D

 43 45  0  0  0  0  0  0  0  0999 V2000
   -4.1410   25.6640  -31.5960 H   0  0  0  0  0  0  0  0  0  0  0  0
   -3.9140   25.6770  -30.6090 O   0  0  0  0  0  0  0  0  0  0  0  0
   -3.6280   24.5050  -29.9090 C   0  0  0  0  0  0  0  0  0  0  0  0
   -2.7870   24.5490  -28.7870 C   0  0  0  0  0  0  0  0  0  0  0  0
   -2.3502   25.5070  -28.4685 H   0  0  0  0  0  0  0  0  0  0  0  0
   -2.5010   23.3840  -28.0720 C   0  0  0  0  0  0  0  0  0  0  0  0
   -1.8454   23.4266  -27.1897 H   0  0  0  0  0  0  0  0  0  0  0  0
   -3.0480   22.1650  -28.4780 C   0  0  0  0  0  0  0  0  0  0  0  0
   -2.8207   21.2471  -27.9161 H   0  0  0  0  0  0  0  0  0  0  0  0
   -3.8830   22.1090  -29.5960 C   0  0  0  0  0  0  0  0  0  0  0  0
   -4.3030   21.1439  -29.9158 H   0  0  0  0  0  0  0  0  0  0  0  0
   -4.1910   23.2770  -30.3160 C   0  0  0  0  0  0  0  0  0  0  0  0
   -5.0580   23.2020  -31.5180 C   0  0  0  0  0  0  0  0  0  0  0  0
   -5.5860   24.2590  -31.9550 O   0  0  0  0  0  0  0  0  0  0  0  0
   -5.3130   21.9430  -32.2480 C   0  0  0  0  0  0  0  0  0  0  0  0
   -4.9522   21.8531  -33.2832 H   0  0  0  0  0  0  0  0  0  0  0  0
   -5.9650   20.9050  -31.7040 C   0  0  0  0  0  0  0  0  0  0  0  0
   -6.3211   21.0037  -30.6679 H   0  0  0  0  0  0  0  0  0  0  0  0
   -6.2350   19.6310  -32.4160 C   0  0  0  0  0  0  0  0  0  0  0  0
   -7.1050   18.6460  -31.9090 C   0  0  0  0  0  0  0  0  0  0  0  0
   -7.6200   18.8131  -30.9515 H   0  0  0  0  0  0  0  0  0  0  0  0
   -7.3190   17.4570  -32.6140 C   0  0  0  0  0  0  0  0  0  0  0  0
   -8.0036   16.6969  -32.2096 H   0  0  0  0  0  0  0  0  0  0  0  0
   -6.6630   17.2280  -33.8380 C   0  0  0  0  0  0  0  0  0  0  0  0
   -6.8490   16.0570  -34.5890 O   0  0  0  0  0  0  0  0  0  0  0  0
   -6.4590   14.7440  -34.1820 C   0  0  0  0  0  0  0  0  0  0  0  0
   -7.1242   14.4047  -33.3743 H   0  0  0  0  0  0  0  0  0  0  0  0
   -6.5330   14.0706  -35.0486 H   0  0  0  0  0  0  0  0  0  0  0  0
   -5.0370   14.7360  -33.6860 C   0  0  0  0  0  0  0  0  0  0  0  0
   -4.0230   15.3850  -34.4110 C   0  0  0  0  0  0  0  0  0  0  0  0
   -4.2683   15.9107  -35.3456 H   0  0  0  0  0  0  0  0  0  0  0  0
   -2.7040   15.3650  -33.9490 C   0  0  0  0  0  0  0  0  0  0  0  0
   -1.9153   15.8805  -34.5166 H   0  0  0  0  0  0  0  0  0  0  0  0
   -2.3860   14.6910  -32.7670 C   0  0  0  0  0  0  0  0  0  0  0  0
   -1.3480   14.6792  -32.4031 H   0  0  0  0  0  0  0  0  0  0  0  0
   -3.3860   14.0320  -32.0470 C   0  0  0  0  0  0  0  0  0  0  0  0
   -3.1337   13.4984  -31.1188 H   0  0  0  0  0  0  0  0  0  0  0  0
   -4.7070   14.0500  -32.5050 C   0  0  0  0  0  0  0  0  0  0  0  0
   -5.4906   13.5253  -31.9388 H   0  0  0  0  0  0  0  0  0  0  0  0
   -5.7850   18.1970  -34.3290 C   0  0  0  0  0  0  0  0  0  0  0  0
   -5.2593   18.0231  -35.2795 H   0  0  0  0  0  0  0  0  0  0  0  0
   -5.5670   19.3850  -33.6260 C   0  0  0  0  0  0  0  0  0  0  0  0
   -4.8662   20.1336  -34.0241 H   0  0  0  0  0  0  0  0  0  0  0  0
  1  2  1  0
  2  3  1  0
  3  4  2  0
  4  5  1  0
  4  6  1  0
  6  7  1  0
  6  8  2  0
  8  9  1  0
  8 10  1  0
 10 11  1  0
 10 12  2  0
 12 13  1  0
 13 14  2  0
 13 15  1  0
 15 16  1  0
 15 17  2  0
 17 18  1  0
 17 19  1  0
 19 20  2  0
 20 21  1  0
 20 22  1  0
 22 23  1  0
 22 24  2  0
 24 25  1  0
 25 26  1  0
 26 27  1  0
 26 28  1  0
 26 29  1  0
 29 30  2  0
 30 31  1  0
 30 32  1  0
 32 33  1  0
 32 34  2  0
 34 35  1  0
 34 36  1  0
 36 37  1  0
 36 38  2  0
 38 39  1  0
 24 40  1  0
 40 41  1  0
 40 42  2  0
 42 43  1  0
 12  3  1  0
 42 19  1  0
 38 29  1  0
M  END
>  <UniqueID>  (18) 
17

>  <SMILES>  (18) 
O=C(/C=C/c1ccc(OCc2ccccc2)cc1)c1ccccc1O

>  <Energy>  (18) 
53.33329338027245

>  <Genealogy>  (18) 
O=C(/C=C/c1ccc(OCc2ccccc2)cc1)c1ccccc1O (cis-trans isomerization)
O=C(/C=C/c1ccc(OCc2ccccc2)cc1)c1ccccc1O (3D coordinates assigned)
O=C(/C=C/c1ccc(OCc2ccccc2)cc1)c1ccccc1O (optimized conformer: 53.33329338027245 kcal/mol)

>  <smiles>  (18) 
O=C(C=Cc1ccc(OCc2ccccc2)cc1)c1ccccc1O

>  <score_type>  (18) 
oracle

>  <origin>  (18) 
adgpu

>  <m_score__min__energy>  (18) 
-9.5700000000000003

>  <m_primary>  (18) 
energy

$$$$
18:0
     RDKit          3D

 48 51  0  0  0  0  0  0  0  0999 V2000
   -5.6780   16.4830  -32.8430 C   0  0  0  0  0  0  0  0  0  0  0  0
   -6.3240   17.7670  -32.4410 C   0  0  0  0  0  0  0  0  0  0  0  0
   -7.1830   18.5230  -33.2120 C   0  0  0  0  0  0  0  0  0  0  0  0
   -7.4550   19.5980  -32.3960 C   0  0  0  0  0  0  0  0  0  0  0  0
   -8.2380   20.5830  -32.7090 N   0  0  0  0  0  0  0  0  0  0  0  0
   -8.5610   21.9180  -31.6520 S   0  0  0  0  0  0  0  0  0  0  0  0
   -9.1700   21.4200  -30.3710 O   0  0  0  0  0  0  0  0  0  0  0  0
   -9.5460   22.8400  -32.3140 O   0  0  0  0  0  0  0  0  0  0  0  0
   -7.0710   22.7970  -31.3190 C   0  0  0  0  0  0  0  0  0  0  0  0
   -5.8940   22.4750  -32.0090 C   0  0  0  0  0  0  0  0  0  0  0  0
   -4.7090   23.1670  -31.7430 C   0  0  0  0  0  0  0  0  0  0  0  0
   -4.6840   24.1790  -30.7660 C   0  0  0  0  0  0  0  0  0  0  0  0
   -3.4970   24.9310  -30.4760 N   0  0  0  0  0  0  0  0  0  0  0  0
   -2.4470   24.5670  -29.5700 C   0  0  0  0  0  0  0  0  0  0  0  0
   -1.5540   25.4040  -29.2700 O   0  0  0  0  0  0  0  0  0  0  0  0
   -2.4140   23.1950  -29.0020 C   0  0  0  0  0  0  0  0  0  0  0  0
   -2.6820   22.1060  -29.8580 C   0  0  0  0  0  0  0  0  0  0  0  0
   -2.7260   20.8000  -29.3660 C   0  0  0  0  0  0  0  0  0  0  0  0
   -2.5030   20.5570  -28.0130 C   0  0  0  0  0  0  0  0  0  0  0  0
   -2.2240   21.6160  -27.1470 C   0  0  0  0  0  0  0  0  0  0  0  0
   -2.1650   22.9370  -27.6240 C   0  0  0  0  0  0  0  0  0  0  0  0
   -1.8040   24.0060  -26.6640 C   0  0  0  0  0  0  0  0  0  0  0  0
   -0.6050   23.9330  -25.9340 C   0  0  0  0  0  0  0  0  0  0  0  0
   -0.2770   24.9400  -25.0190 C   0  0  0  0  0  0  0  0  0  0  0  0
   -1.1460   26.0180  -24.8200 C   0  0  0  0  0  0  0  0  0  0  0  0
   -2.3440   26.0920  -25.5390 C   0  0  0  0  0  0  0  0  0  0  0  0
   -2.6780   25.0860  -26.4510 C   0  0  0  0  0  0  0  0  0  0  0  0
   -5.8670   24.5070  -30.0910 C   0  0  0  0  0  0  0  0  0  0  0  0
   -7.0510   23.8160  -30.3580 C   0  0  0  0  0  0  0  0  0  0  0  0
   -6.7970   19.4880  -31.2260 N   0  0  0  0  0  0  0  0  0  0  0  0
   -6.1240   18.3730  -31.2920 O   0  0  0  0  0  0  0  0  0  0  0  0
   -5.3938   15.9180  -31.9430 H   0  0  0  0  0  0  0  0  0  0  0  0
   -6.3844   15.8887  -33.4411 H   0  0  0  0  0  0  0  0  0  0  0  0
   -4.7797   16.6960  -33.4411 H   0  0  0  0  0  0  0  0  0  0  0  0
   -7.5572   18.3179  -34.2259 H   0  0  0  0  0  0  0  0  0  0  0  0
   -5.9030   21.6742  -32.7631 H   0  0  0  0  0  0  0  0  0  0  0  0
   -3.7930   22.9195  -32.2994 H   0  0  0  0  0  0  0  0  0  0  0  0
   -2.8588   22.2884  -30.9283 H   0  0  0  0  0  0  0  0  0  0  0  0
   -2.9369   19.9627  -30.0474 H   0  0  0  0  0  0  0  0  0  0  0  0
   -2.5468   19.5284  -27.6257 H   0  0  0  0  0  0  0  0  0  0  0  0
   -2.0485   21.4145  -26.0800 H   0  0  0  0  0  0  0  0  0  0  0  0
    0.0769   23.0827  -26.0822 H   0  0  0  0  0  0  0  0  0  0  0  0
    0.6659   24.8837  -24.4553 H   0  0  0  0  0  0  0  0  0  0  0  0
   -0.8876   26.8072  -24.0986 H   0  0  0  0  0  0  0  0  0  0  0  0
   -3.0242   26.9429  -25.3866 H   0  0  0  0  0  0  0  0  0  0  0  0
   -3.6277   25.1400  -27.0034 H   0  0  0  0  0  0  0  0  0  0  0  0
   -5.8633   25.3152  -29.3448 H   0  0  0  0  0  0  0  0  0  0  0  0
   -7.9707   24.0728  -29.8119 H   0  0  0  0  0  0  0  0  0  0  0  0
  1  2  1  0
  2  3  2  0
  3  4  1  0
  4  5  2  3
  5  6  1  0
  6  7  2  0
  6  8  2  0
  6  9  1  0
  9 10  2  0
 10 11  1  0
 11 12  2  0
 12 13  1  0
 13 14  1  0
 14 15  2  0
 14 16  1  0
 16 17  2  0
 17 18  1  0
 18 19  2  0
 19 20  1  0
 20 21  2  0
 21 22  1  0
 22 23  2  0
 23 24  1  0
 24 25  2  0
 25 26  1  0
 26 27  2  0
 12 28  1  0
 28 29  2  0
  4 30  1  0
 30 31  1  0
 31  2  1  0
 29  9  1  0
 21 16  1  0
 27 22  1  0
  1 32  1  0
  1 33  1  0
  1 34  1  0
  3 35  1  0
 10 36  1  0
 11 37  1  0
 17 38  1  0
 18 39  1  0
 19 40  1  0
 20 41  1  0
 23 42  1  0
 24 43  1  0
 25 44  1  0
 26 45  1  0
 27 46  1  0
 28 47  1  0
 29 48  1  0
M  CHG  2  13  -1  30  -1
M  END
>  <UniqueID>  (19) 
18

>  <SMILES>  (19) 
Cc1cc(=NS(=O)(=O)c2ccc([N-]C(=O)c3ccccc3-c3ccccc3)cc2)[n-]o1

>  <Energy>  (19) 
100.14723533293198

>  <Genealogy>  (19) 
Cc1cc(=NS(=O)(=O)c2ccc([N-]C(=O)c3ccccc3-c3ccccc3)cc2)[n-]o1 (protonated)
Cc1cc(=NS(=O)(=O)c2ccc([N-]C(=O)c3ccccc3-c3ccccc3)cc2)[n-]o1 (3D coordinates assigned)
Cc1cc(=NS(=O)(=O)c2ccc([N-]C(=O)c3ccccc3-c3ccccc3)cc2)[n-]o1 (optimized conformer: 100.14723533293198 kcal/mol)

>  <smiles>  (19) 
Cc1cc(=NS(=O)(=O)c2ccc(NC(=O)c3ccccc3-c3ccccc3)cc2)[nH]o1

>  <score_type>  (19) 
oracle

>  <origin>  (19) 
adgpu

>  <m_score__min__energy>  (19) 
-12.07

>  <m_primary>  (19) 
energy

$$$$
19:0
     RDKit          3D

 56 59  0  0  0  0  0  0  0  0999 V2000
    4.8200   23.2340  -35.8410 C   0  0  0  0  0  0  0  0  0  0  0  0
    4.4280   22.0200  -36.6230 C   0  0  0  0  0  0  0  0  0  0  0  0
    4.3600   21.9980  -37.9670 N   0  0  0  0  0  0  0  0  0  0  0  0
    3.9830   20.8020  -38.3080 O   0  0  0  0  0  0  0  0  0  0  0  0
    3.7990   20.0380  -37.2580 C   0  0  0  0  0  0  0  0  0  0  0  0
    3.4450   18.7900  -37.3840 N   0  0  0  0  0  0  0  0  0  0  0  0
    3.2150   17.5630  -36.1770 S   0  0  0  0  0  0  0  0  0  0  0  0
    4.2150   17.7990  -35.0810 O   0  0  0  0  0  0  0  0  0  0  0  0
    3.4730   16.2060  -36.7700 O   0  0  0  0  0  0  0  0  0  0  0  0
    1.6060   17.6570  -35.4680 C   0  0  0  0  0  0  0  0  0  0  0  0
    1.0730   18.8930  -35.0750 C   0  0  0  0  0  0  0  0  0  0  0  0
   -0.2060   18.9630  -34.5180 C   0  0  0  0  0  0  0  0  0  0  0  0
   -0.9670   17.7940  -34.3390 C   0  0  0  0  0  0  0  0  0  0  0  0
   -2.2710   17.8360  -33.7340 N   0  0  0  0  0  0  0  0  0  0  0  0
   -3.4960   17.7270  -34.4770 C   0  0  0  0  0  0  0  0  0  0  0  0
   -3.5000   17.1420  -35.5960 O   0  0  0  0  0  0  0  0  0  0  0  0
   -4.7630   18.2550  -33.9210 C   0  0  0  0  0  0  0  0  0  0  0  0
   -4.9960   19.6400  -33.8550 C   0  0  0  0  0  0  0  0  0  0  0  0
   -6.2000   20.1310  -33.3460 C   0  0  0  0  0  0  0  0  0  0  0  0
   -7.1890   19.2500  -32.8940 C   0  0  0  0  0  0  0  0  0  0  0  0
   -8.7120   19.8950  -32.2850 S   0  0  0  0  0  0  0  0  0  0  0  0
   -9.8780   19.3980  -33.0950 O   0  0  0  0  0  0  0  0  0  0  0  0
   -8.8910   19.4450  -30.8630 O   0  0  0  0  0  0  0  0  0  0  0  0
   -8.6720   21.6300  -32.3340 N   0  0  0  0  0  0  0  0  0  0  0  0
   -7.6700   22.4550  -31.7220 C   0  0  0  0  0  0  0  0  0  0  0  0
   -6.9380   23.4120  -32.4530 C   0  0  0  0  0  0  0  0  0  0  0  0
   -5.9680   24.1920  -31.8180 C   0  0  0  0  0  0  0  0  0  0  0  0
   -5.7260   24.0320  -30.4510 C   0  0  0  0  0  0  0  0  0  0  0  0
   -6.4500   23.0870  -29.7180 C   0  0  0  0  0  0  0  0  0  0  0  0
   -7.4220   22.3050  -30.3520 C   0  0  0  0  0  0  0  0  0  0  0  0
   -6.9650   17.8690  -32.9600 C   0  0  0  0  0  0  0  0  0  0  0  0
   -5.7640   17.3730  -33.4760 C   0  0  0  0  0  0  0  0  0  0  0  0
   -0.4160   16.5560  -34.7030 C   0  0  0  0  0  0  0  0  0  0  0  0
    0.8600   16.4890  -35.2690 C   0  0  0  0  0  0  0  0  0  0  0  0
    4.0630   20.7850  -36.1090 C   0  0  0  0  0  0  0  0  0  0  0  0
    3.9620   20.4350  -34.6540 C   0  0  0  0  0  0  0  0  0  0  0  0
    4.7495   23.0157  -34.7652 H   0  0  0  0  0  0  0  0  0  0  0  0
    5.8540   23.5134  -36.0915 H   0  0  0  0  0  0  0  0  0  0  0  0
    4.1446   24.0654  -36.0915 H   0  0  0  0  0  0  0  0  0  0  0  0
    1.6645   19.8112  -35.2059 H   0  0  0  0  0  0  0  0  0  0  0  0
   -0.6199   19.9370  -34.2180 H   0  0  0  0  0  0  0  0  0  0  0  0
   -2.3280   17.8510  -32.6920 H   0  0  0  0  0  0  0  0  0  0  0  0
   -4.2249   20.3413  -34.2066 H   0  0  0  0  0  0  0  0  0  0  0  0
   -6.3721   21.2165  -33.3000 H   0  0  0  0  0  0  0  0  0  0  0  0
   -7.1310   23.5455  -33.5277 H   0  0  0  0  0  0  0  0  0  0  0  0
   -5.3944   24.9326  -32.3946 H   0  0  0  0  0  0  0  0  0  0  0  0
   -4.9654   24.6500  -29.9514 H   0  0  0  0  0  0  0  0  0  0  0  0
   -6.2556   22.9582  -28.6430 H   0  0  0  0  0  0  0  0  0  0  0  0
   -7.9949   21.5677  -29.7704 H   0  0  0  0  0  0  0  0  0  0  0  0
   -7.7375   17.1714  -32.6042 H   0  0  0  0  0  0  0  0  0  0  0  0
   -5.6011   16.2867  -33.5343 H   0  0  0  0  0  0  0  0  0  0  0  0
   -0.9918   15.6327  -34.5419 H   0  0  0  0  0  0  0  0  0  0  0  0
    1.2800   15.5147  -35.5593 H   0  0  0  0  0  0  0  0  0  0  0  0
    4.2162   21.3160  -34.0464 H   0  0  0  0  0  0  0  0  0  0  0  0
    2.9349   20.1152  -34.4242 H   0  0  0  0  0  0  0  0  0  0  0  0
    4.6608   19.6171  -34.4242 H   0  0  0  0  0  0  0  0  0  0  0  0
  1  2  1  0
  2  3  1  0
  3  4  1  0
  4  5  1  0
  5  6  2  3
  6  7  1  0
  7  8  2  0
  7  9  2  0
  7 10  1  0
 10 11  2  0
 11 12  1  0
 12 13  2  0
 13 14  1  0
 14 15  1  0
 15 16  2  0
 15 17  1  0
 17 18  2  0
 18 19  1  0
 19 20  2  0
 20 21  1  0
 21 22  2  0
 21 23  2  0
 21 24  1  0
 24 25  1  0
 25 26  2  0
 26 27  1  0
 27 28  2  0
 28 29  1  0
 29 30  2  0
 20 31  1  0
 31 32  2  0
 13 33  1  0
 33 34  2  0
  5 35  1  0
 35 36  1  0
 35  2  2  0
 34 10  1  0
 32 17  1  0
 30 25  1  0
  1 37  1  0
  1 38  1  0
  1 39  1  0
 11 40  1  0
 12 41  1  0
 14 42  1  0
 18 43  1  0
 19 44  1  0
 26 45  1  0
 27 46  1  0
 28 47  1  0
 29 48  1  0
 30 49  1  0
 31 50  1  0
 32 51  1  0
 33 52  1  0
 34 53  1  0
 36 54  1  0
 36 55  1  0
 36 56  1  0
M  CHG  2   3  -1  24  -1
M  END
>  <UniqueID>  (20) 
19

>  <SMILES>  (20) 
Cc1[n-]oc(=NS(=O)(=O)c2ccc(NC(=O)c3ccc(S(=O)(=O)[N-]c4ccccc4)cc3)cc2)c1C

>  <Energy>  (20) 
109.10318425077782

>  <Genealogy>  (20) 
Cc1[n-]oc(=NS(=O)(=O)c2ccc(NC(=O)c3ccc(S(=O)(=O)[N-]c4ccccc4)cc3)cc2)c1C (protonated)
Cc1[n-]oc(=NS(=O)(=O)c2ccc(NC(=O)c3ccc(S(=O)(=O)[N-]c4ccccc4)cc3)cc2)c1C (3D coordinates assigned)
Cc1[n-]oc(=NS(=O)(=O)c2ccc(NC(=O)c3ccc(S(=O)(=O)[N-]c4ccccc4)cc3)cc2)c1C (optimized conformer: 109.10318425077782 kcal/mol)

>  <smiles>  (20) 
Cc1[nH]oc(=NS(=O)(=O)c2ccc(NC(=O)c3ccc(S(=O)(=O)Nc4ccccc4)cc3)cc2)c1C

>  <score_type>  (20) 
oracle

>  <origin>  (20) 
adgpu

>  <m_score__min__energy>  (20) 
-10.140000000000001

>  <m_primary>  (20) 
energy

$$$$
20:0
     RDKit          3D

 48 51  0  0  0  0  0  0  0  0999 V2000
   -1.5090   18.5540  -27.1310 C   0  0  0  0  0  0  0  0  0  0  0  0
   -2.0620   19.7330  -27.8750 C   0  0  0  0  0  0  0  0  0  0  0  0
   -1.5920   20.0420  -29.1610 C   0  0  0  0  0  0  0  0  0  0  0  0
   -2.0790   21.1620  -29.8380 C   0  0  0  0  0  0  0  0  0  0  0  0
   -3.0300   21.9990  -29.2340 C   0  0  0  0  0  0  0  0  0  0  0  0
   -3.5200   23.1610  -29.9260 N   0  0  0  0  0  0  0  0  0  0  0  0
   -4.6290   23.2850  -30.6930 C   0  0  0  0  0  0  0  0  0  0  0  0
   -5.5050   22.1800  -31.1380 C   0  0  0  0  0  0  0  0  0  0  0  0
   -6.8740   22.1650  -30.8200 C   0  0  0  0  0  0  0  0  0  0  0  0
   -7.6830   21.1050  -31.2340 C   0  0  0  0  0  0  0  0  0  0  0  0
   -7.1340   20.0450  -31.9580 C   0  0  0  0  0  0  0  0  0  0  0  0
   -5.7700   20.0390  -32.2710 C   0  0  0  0  0  0  0  0  0  0  0  0
   -5.0800   18.6800  -33.1550 S   0  0  0  0  0  0  0  0  0  0  0  0
   -5.6260   17.4010  -32.5850 O   0  0  0  0  0  0  0  0  0  0  0  0
   -5.4730   18.7630  -34.6050 O   0  0  0  0  0  0  0  0  0  0  0  0
   -3.3400   18.6980  -33.0000 N   0  0  0  0  0  0  0  0  0  0  0  0
   -2.7790   17.4070  -33.4400 C   0  0  0  0  0  0  0  0  0  0  0  0
   -1.2450   17.4810  -33.5890 C   0  0  0  0  0  0  0  0  0  0  0  0
   -0.7300   18.6650  -33.0140 O   0  0  0  0  0  0  0  0  0  0  0  0
   -1.2250   19.7900  -33.7180 C   0  0  0  0  0  0  0  0  0  0  0  0
   -2.7690   19.8100  -33.7810 C   0  0  0  0  0  0  0  0  0  0  0  0
   -4.9560   21.1000  -31.8500 C   0  0  0  0  0  0  0  0  0  0  0  0
   -4.8400   24.5710  -31.0390 N   0  0  0  0  0  0  0  0  0  0  0  0
   -3.8690   25.2900  -30.4950 N   0  0  0  0  0  0  0  0  0  0  0  0
   -3.0760   24.4320  -29.8290 C   0  0  0  0  0  0  0  0  0  0  0  0
   -1.8030   24.9190  -28.9200 S   0  0  0  0  0  0  0  0  0  0  0  0
   -3.4880   21.6990  -27.9420 C   0  0  0  0  0  0  0  0  0  0  0  0
   -3.0010   20.5770  -27.2640 C   0  0  0  0  0  0  0  0  0  0  0  0
   -1.5923   18.7315  -26.0486 H   0  0  0  0  0  0  0  0  0  0  0  0
   -2.0777   17.6515  -27.3994 H   0  0  0  0  0  0  0  0  0  0  0  0
   -0.4514   18.4143  -27.3994 H   0  0  0  0  0  0  0  0  0  0  0  0
   -0.8370   19.3993  -29.6374 H   0  0  0  0  0  0  0  0  0  0  0  0
   -1.7151   21.3896  -30.8508 H   0  0  0  0  0  0  0  0  0  0  0  0
   -7.3104   22.9928  -30.2418 H   0  0  0  0  0  0  0  0  0  0  0  0
   -8.7554   21.1051  -30.9892 H   0  0  0  0  0  0  0  0  0  0  0  0
   -7.7752   19.2125  -32.2832 H   0  0  0  0  0  0  0  0  0  0  0  0
   -3.1170   18.8420  -31.9860 H   0  0  0  0  0  0  0  0  0  0  0  0
   -3.0295   16.6359  -32.6966 H   0  0  0  0  0  0  0  0  0  0  0  0
   -3.2104   17.1585  -34.4209 H   0  0  0  0  0  0  0  0  0  0  0  0
   -0.7938   16.6128  -33.0863 H   0  0  0  0  0  0  0  0  0  0  0  0
   -0.9998   17.4805  -34.6613 H   0  0  0  0  0  0  0  0  0  0  0  0
   -0.8798   20.7038  -33.2121 H   0  0  0  0  0  0  0  0  0  0  0  0
   -0.8469   19.7344  -34.7495 H   0  0  0  0  0  0  0  0  0  0  0  0
   -3.1342   20.7632  -33.3711 H   0  0  0  0  0  0  0  0  0  0  0  0
   -3.0801   19.6997  -34.8303 H   0  0  0  0  0  0  0  0  0  0  0  0
   -3.8801   21.0870  -32.0786 H   0  0  0  0  0  0  0  0  0  0  0  0
   -4.2333   22.3491  -27.4604 H   0  0  0  0  0  0  0  0  0  0  0  0
   -3.3560   20.3553  -26.2467 H   0  0  0  0  0  0  0  0  0  0  0  0
  1  2  1  0
  2  3  2  0
  3  4  1  0
  4  5  2  0
  5  6  1  0
  6  7  1  0
  7  8  1  0
  8  9  2  0
  9 10  1  0
 10 11  2  0
 11 12  1  0
 12 13  1  0
 13 14  2  0
 13 15  2  0
 13 16  1  0
 16 17  1  0
 17 18  1  0
 18 19  1  0
 19 20  1  0
 20 21  1  0
 12 22  2  0
  7 23  2  0
 23 24  1  0
 24 25  1  0
 25 26  2  0
  5 27  1  0
 27 28  2  0
 28  2  1  0
 25  6  1  0
 22  8  1  0
 21 16  1  0
  1 29  1  0
  1 30  1  0
  1 31  1  0
  3 32  1  0
  4 33  1  0
  9 34  1  0
 10 35  1  0
 11 36  1  0
 16 37  1  0
 17 38  1  0
 17 39  1  0
 18 40  1  0
 18 41  1  0
 20 42  1  0
 20 43  1  0
 21 44  1  0
 21 45  1  0
 22 46  1  0
 27 47  1  0
 28 48  1  0
M  CHG  2  16   1  24  -1
M  END
>  <UniqueID>  (21) 
20

>  <SMILES>  (21) 
Cc1ccc(-n2c(-c3cccc(S(=O)(=O)[NH+]4CCOCC4)c3)n[n-]c2=S)cc1

>  <Energy>  (21) 
102.9982978014829

>  <Genealogy>  (21) 
Cc1ccc(-n2c(-c3cccc(S(=O)(=O)[NH+]4CCOCC4)c3)n[n-]c2=S)cc1 (protonated)
Cc1ccc(-n2c(-c3cccc(S(=O)(=O)[NH+]4CCOCC4)c3)n[n-]c2=S)cc1 (3D coordinates assigned)
Cc1ccc(-n2c(-c3cccc(S(=O)(=O)[NH+]4CCOCC4)c3)n[n-]c2=S)cc1 (nonaromatic ring conformer: 102.9982978014829 kcal/mol)

>  <smiles>  (21) 
Cc1ccc(-n2c(-c3cccc(S(=O)(=O)N4CCOCC4)c3)n[nH]c2=S)cc1

>  <score_type>  (21) 
oracle

>  <origin>  (21) 
adgpu

>  <m_score__min__energy>  (21) 
-9.7100000000000009

>  <m_primary>  (21) 
energy

$$$$
21:0
     RDKit          3D

 43 45  0  0  1  0  0  0  0  0999 V2000
    0.4800   25.1380  -24.0840 N   0  0  0  0  0  0  0  0  0  0  0  0
   -0.4980   26.2970  -24.8860 S   0  0  0  0  0  0  0  0  0  0  0  0
   -1.6380   26.7940  -24.0200 O   0  0  0  0  0  0  0  0  0  0  0  0
    0.3620   27.4750  -25.2630 O   0  0  0  0  0  0  0  0  0  0  0  0
   -1.1730   25.5770  -26.3240 C   0  0  0  0  0  0  0  0  0  0  0  0
   -2.1530   24.6190  -26.1570 C   0  0  0  0  0  0  0  0  0  0  0  0
   -2.7360   24.0020  -27.2440 C   0  0  0  0  0  0  0  0  0  0  0  0
   -2.3260   24.3550  -28.5210 C   0  0  0  0  0  0  0  0  0  0  0  0
   -2.9580   23.6890  -29.6180 N   0  0  0  0  0  0  0  0  0  0  0  0
   -4.1890   24.0080  -29.8670 C   0  0  0  0  0  0  0  0  0  0  0  0
   -4.8250   24.9260  -29.1150 N   0  0  0  0  0  0  0  0  0  0  0  0
   -6.1050   25.2170  -29.4200 C   0  0  0  0  0  0  0  0  0  0  0  0
   -6.7480   24.6160  -30.4480 N   0  0  0  0  0  0  0  0  0  0  0  0
   -6.1650   23.6930  -31.2340 C   0  0  0  0  0  0  0  0  0  0  0  0
   -6.8250   23.0500  -32.3160 N   0  0  0  0  0  0  0  0  0  0  0  0
   -8.0450   22.3260  -32.2430 C   0  0  0  0  0  0  0  0  0  0  0  0
   -7.9570   20.8710  -32.2420 C   0  0  0  0  0  0  0  0  0  0  0  0
   -8.8210   20.0090  -31.6040 C   0  0  0  0  0  0  0  0  0  0  0  0
   -8.6940   18.6350  -31.6430 C   0  0  0  0  0  0  0  0  0  0  0  0
   -7.6590   18.0760  -32.3500 C   0  0  0  0  0  0  0  0  0  0  0  0
   -6.7650   18.8980  -33.0080 C   0  0  0  0  0  0  0  0  0  0  0  0
   -6.9150   20.2680  -32.9520 C   0  0  0  0  0  0  0  0  0  0  0  0
   -4.8320   23.3990  -30.9030 C   0  0  0  0  0  0  0  0  0  0  0  0
   -4.1260   22.4320  -31.6780 N   0  0  0  0  0  0  0  0  0  0  0  0
   -4.2880   22.4970  -32.9160 O   0  0  0  0  0  0  0  0  0  0  0  0
   -1.3460   25.3120  -28.7080 C   0  0  0  0  0  0  0  0  0  0  0  0
   -0.7560   25.9360  -27.6040 C   0  0  0  0  0  0  0  0  0  0  0  0
    1.0570   25.5960  -23.3480 H   0  0  0  0  0  0  0  0  0  0  0  0
   -0.0660   24.3390  -23.7080 H   0  0  0  0  0  0  0  0  0  0  0  0
   -2.4737   24.3436  -25.1415 H   0  0  0  0  0  0  0  0  0  0  0  0
   -3.5160   23.2399  -27.1000 H   0  0  0  0  0  0  0  0  0  0  0  0
   -4.3430   25.3940  -28.3250 H   0  0  0  0  0  0  0  0  0  0  0  0
   -6.6420   25.9637  -28.8167 H   0  0  0  0  0  0  0  0  0  0  0  0
   -6.3280   23.1410  -33.2550 H   0  0  0  0  0  0  0  0  0  0  0  0
   -8.5537   22.6274  -31.3154 H   0  0  0  0  0  0  0  0  0  0  0  0
   -8.5798   22.5771  -33.1709 H   0  0  0  0  0  0  0  0  0  0  0  0
   -9.6572   20.4384  -31.0327 H   0  0  0  0  0  0  0  0  0  0  0  0
   -9.4147   17.9949  -31.1130 H   0  0  0  0  0  0  0  0  0  0  0  0
   -7.5424   16.9830  -32.3923 H   0  0  0  0  0  0  0  0  0  0  0  0
   -5.9323   18.4595  -33.5774 H   0  0  0  0  0  0  0  0  0  0  0  0
   -6.1924   20.9056  -33.4824 H   0  0  0  0  0  0  0  0  0  0  0  0
   -1.0299   25.5830  -29.7262 H   0  0  0  0  0  0  0  0  0  0  0  0
    0.0248   26.6981  -27.7441 H   0  0  0  0  0  0  0  0  0  0  0  0
  1  2  1  0
  2  3  2  0
  2  4  2  0
  2  5  1  0
  5  6  2  0
  6  7  1  0
  7  8  2  0
  8  9  1  0
  9 10  2  0
 10 11  1  0
 11 12  1  0
 12 13  2  0
 13 14  1  0
 14 15  1  0
 15 16  1  0
 16 17  1  0
 17 18  2  0
 18 19  1  0
 19 20  2  0
 20 21  1  0
 21 22  2  0
 14 23  2  0
 23 24  1  0
 24 25  2  0
  8 26  1  0
 26 27  2  0
 27  5  1  0
 23 10  1  0
 22 17  1  0
  1 28  1  0
  1 29  1  0
  6 30  1  0
  7 31  1  0
 11 32  1  0
 12 33  1  0
 15 34  1  0
 16 35  1  0
 16 36  1  0
 18 37  1  0
 19 38  1  0
 20 39  1  0
 21 40  1  0
 22 41  1  0
 26 42  1  0
 27 43  1  0
M  END
>  <smiles>  (22) 
NS(=O)(=O)c1ccc(N=c2[nH]cnc(NCc3ccccc3)c2N=O)cc1

>  <score_type>  (22) 
oracle

>  <origin>  (22) 
adgpu

>  <m_score__min__energy>  (22) 
-9.6099999999999994

>  <m_primary>  (22) 
energy

$$$$
22:0
     RDKit          3D

 42 44  0  0  0  0  0  0  0  0999 V2000
   -6.8660   16.2630  -34.1530 C   0  0  0  0  0  0  0  0  0  0  0  0
   -5.6180   17.0410  -33.8670 C   0  0  0  0  0  0  0  0  0  0  0  0
   -4.3440   16.6540  -34.2350 C   0  0  0  0  0  0  0  0  0  0  0  0
   -3.5390   17.6930  -33.8100 C   0  0  0  0  0  0  0  0  0  0  0  0
   -2.0840   17.7840  -33.9800 C   0  0  0  0  0  0  0  0  0  0  0  0
   -1.5300   17.2450  -34.9750 O   0  0  0  0  0  0  0  0  0  0  0  0
   -1.3010   18.4860  -33.0080 N   0  0  0  0  0  0  0  0  0  0  0  0
   -0.7830   19.8340  -33.2100 C   0  0  0  0  0  0  0  0  0  0  0  0
   -1.7340   20.8490  -32.6390 C   0  0  0  0  0  0  0  0  0  0  0  0
   -1.5180   21.3680  -31.3530 C   0  0  0  0  0  0  0  0  0  0  0  0
   -2.4120   22.2910  -30.8040 C   0  0  0  0  0  0  0  0  0  0  0  0
   -3.5330   22.7080  -31.5360 C   0  0  0  0  0  0  0  0  0  0  0  0
   -4.6700   23.8560  -30.8370 S   0  0  0  0  0  0  0  0  0  0  0  0
   -3.8240   25.2810  -30.3470 N   0  0  0  0  0  0  0  0  0  0  0  0
   -5.3450   23.2400  -29.6440 O   0  0  0  0  0  0  0  0  0  0  0  0
   -5.7190   24.2170  -31.8510 O   0  0  0  0  0  0  0  0  0  0  0  0
   -3.7590   22.1820  -32.8150 C   0  0  0  0  0  0  0  0  0  0  0  0
   -2.8650   21.2580  -33.3640 C   0  0  0  0  0  0  0  0  0  0  0  0
   -4.2860   18.6440  -33.2150 N   0  0  0  0  0  0  0  0  0  0  0  0
   -5.5460   18.2380  -33.2390 N   0  0  0  0  0  0  0  0  0  0  0  0
   -6.6240   19.0180  -32.6960 C   0  0  0  0  0  0  0  0  0  0  0  0
   -7.6910   18.3750  -32.0460 C   0  0  0  0  0  0  0  0  0  0  0  0
   -8.7560   19.1190  -31.5290 C   0  0  0  0  0  0  0  0  0  0  0  0
   -8.7720   20.5090  -31.6700 C   0  0  0  0  0  0  0  0  0  0  0  0
   -9.8070   21.2290  -31.1710 F   0  0  0  0  0  0  0  0  0  0  0  0
   -7.7260   21.1560  -32.3330 C   0  0  0  0  0  0  0  0  0  0  0  0
   -6.6590   20.4150  -32.8500 C   0  0  0  0  0  0  0  0  0  0  0  0
   -7.3394   15.9679  -33.2050 H   0  0  0  0  0  0  0  0  0  0  0  0
   -7.5626   16.8871  -34.7320 H   0  0  0  0  0  0  0  0  0  0  0  0
   -6.6123   15.3628  -34.7320 H   0  0  0  0  0  0  0  0  0  0  0  0
   -4.0401   15.7301  -34.7488 H   0  0  0  0  0  0  0  0  0  0  0  0
    0.1915   19.9273  -32.7084 H   0  0  0  0  0  0  0  0  0  0  0  0
   -0.6703   20.0163  -34.2889 H   0  0  0  0  0  0  0  0  0  0  0  0
   -0.6398   21.0463  -30.7739 H   0  0  0  0  0  0  0  0  0  0  0  0
   -2.2359   22.6916  -29.7948 H   0  0  0  0  0  0  0  0  0  0  0  0
   -3.5990   25.8140  -31.2170 H   0  0  0  0  0  0  0  0  0  0  0  0
   -4.6428   22.4972  -33.3890 H   0  0  0  0  0  0  0  0  0  0  0  0
   -3.0484   20.8494  -34.3687 H   0  0  0  0  0  0  0  0  0  0  0  0
   -7.6884   17.2798  -31.9433 H   0  0  0  0  0  0  0  0  0  0  0  0
   -9.5819   18.6096  -31.0109 H   0  0  0  0  0  0  0  0  0  0  0  0
   -7.7420   22.2498  -32.4484 H   0  0  0  0  0  0  0  0  0  0  0  0
   -5.8427   20.9277  -33.3800 H   0  0  0  0  0  0  0  0  0  0  0  0
  1  2  1  0
  2  3  2  0
  3  4  1  0
  4  5  1  0
  5  6  2  0
  5  7  1  0
  7  8  1  0
  8  9  1  0
  9 10  2  0
 10 11  1  0
 11 12  2  0
 12 13  1  0
 13 14  1  0
 13 15  2  0
 13 16  2  0
 12 17  1  0
 17 18  2  0
  4 19  2  0
 19 20  1  0
 20 21  1  0
 21 22  2  0
 22 23  1  0
 23 24  2  0
 24 25  1  0
 24 26  1  0
 26 27  2  0
 20  2  1  0
 27 21  1  0
 18  9  1  0
  1 28  1  0
  1 29  1  0
  1 30  1  0
  3 31  1  0
  8 32  1  0
  8 33  1  0
 10 34  1  0
 11 35  1  0
 14 36  1  0
 17 37  1  0
 18 38  1  0
 22 39  1  0
 23 40  1  0
 26 41  1  0
 27 42  1  0
M  CHG  2   7  -1  14  -1
M  END
>  <UniqueID>  (23) 
21

>  <SMILES>  (23) 
Cc1cc(C(=O)[N-]Cc2ccc(S([NH-])(=O)=O)cc2)nn1-c1ccc(F)cc1

>  <Energy>  (23) 
74.99615569751295

>  <Genealogy>  (23) 
Cc1cc(C(=O)[N-]Cc2ccc(S([NH-])(=O)=O)cc2)nn1-c1ccc(F)cc1 (protonated)
Cc1cc(C(=O)[N-]Cc2ccc(S([NH-])(=O)=O)cc2)nn1-c1ccc(F)cc1 (3D coordinates assigned)
Cc1cc(C(=O)[N-]Cc2ccc(S([NH-])(=O)=O)cc2)nn1-c1ccc(F)cc1 (optimized conformer: 74.99615569751295 kcal/mol)

>  <smiles>  (23) 
Cc1cc(C(=O)NCc2ccc(S(N)(=O)=O)cc2)nn1-c1ccc(F)cc1

>  <score_type>  (23) 
oracle

>  <origin>  (23) 
adgpu

>  <m_score__min__energy>  (23) 
-11.050000000000001

>  <m_primary>  (23) 
energy

$$$$
23:0
     RDKit          3D

 77 82  0  0  0  0  0  0  0  0999 V2000
   -3.7300   24.4810  -29.5160 C   0  0  0  0  0  0  0  0  0  0  0  0
   -4.3300   24.2770  -30.8430 N   0  0  0  0  0  0  0  0  0  0  0  0
   -3.9310   22.9680  -31.4260 C   0  0  0  0  0  0  0  0  0  0  0  0
   -5.0760   21.9460  -31.4180 C   0  0  0  0  0  0  0  0  0  0  0  0
   -6.2380   22.4580  -32.1780 N   0  0  0  0  0  0  0  0  0  0  0  0
   -7.4530   21.6210  -32.0530 C   0  0  0  0  0  0  0  0  0  0  0  0
   -7.2630   20.1990  -32.5420 C   0  0  0  0  0  0  0  0  0  0  0  0
   -7.9040   19.1240  -31.9070 C   0  0  0  0  0  0  0  0  0  0  0  0
   -7.6700   17.8110  -32.3270 C   0  0  0  0  0  0  0  0  0  0  0  0
   -6.7930   17.5520  -33.3910 C   0  0  0  0  0  0  0  0  0  0  0  0
   -6.4960   16.1570  -33.7940 C   0  0  0  0  0  0  0  0  0  0  0  0
   -7.2290   15.5870  -34.6460 O   0  0  0  0  0  0  0  0  0  0  0  0
   -5.3720   15.4410  -33.2610 N   0  0  0  0  0  0  0  0  0  0  0  0
   -4.0000   15.7980  -33.4760 C   0  0  0  0  0  0  0  0  0  0  0  0
   -3.0670   14.8580  -33.9380 C   0  0  0  0  0  0  0  0  0  0  0  0
   -1.7270   15.2110  -34.0820 C   0  0  0  0  0  0  0  0  0  0  0  0
   -1.2880   16.5040  -33.7550 C   0  0  0  0  0  0  0  0  0  0  0  0
    0.1650   16.7860  -33.8050 C   0  0  0  0  0  0  0  0  0  0  0  0
    0.8000   16.5290  -34.8640 O   0  0  0  0  0  0  0  0  0  0  0  0
    0.8660   17.3310  -32.6700 N   0  0  0  0  0  0  0  0  0  0  0  0
    1.5630   18.6220  -32.8310 C   0  0  0  0  0  0  0  0  0  0  0  0
    2.2910   19.0800  -31.5530 C   0  0  0  0  0  0  0  0  0  0  0  0
    1.5070   18.7280  -30.3180 C   0  0  0  0  0  0  0  0  0  0  0  0
    1.4440   19.6000  -29.2230 C   0  0  0  0  0  0  0  0  0  0  0  0
    0.7750   19.2140  -28.0570 C   0  0  0  0  0  0  0  0  0  0  0  0
    0.1860   17.9480  -27.9690 C   0  0  0  0  0  0  0  0  0  0  0  0
   -0.4700   17.5740  -26.7990 O   0  0  0  0  0  0  0  0  0  0  0  0
    0.2620   17.0660  -29.0570 C   0  0  0  0  0  0  0  0  0  0  0  0
    0.9060   17.4630  -30.2380 C   0  0  0  0  0  0  0  0  0  0  0  0
    0.9910   16.5490  -31.4260 C   0  0  0  0  0  0  0  0  0  0  0  0
   -2.2360   17.4770  -33.3420 C   0  0  0  0  0  0  0  0  0  0  0  0
   -1.8530   18.8800  -33.0520 C   0  0  0  0  0  0  0  0  0  0  0  0
   -1.6760   19.7960  -34.1020 C   0  0  0  0  0  0  0  0  0  0  0  0
   -1.3400   21.1270  -33.8320 C   0  0  0  0  0  0  0  0  0  0  0  0
   -1.1630   21.5490  -32.5130 C   0  0  0  0  0  0  0  0  0  0  0  0
   -1.3040   20.6380  -31.4630 C   0  0  0  0  0  0  0  0  0  0  0  0
   -1.6420   19.3070  -31.7290 C   0  0  0  0  0  0  0  0  0  0  0  0
   -3.5870   17.1070  -33.2150 C   0  0  0  0  0  0  0  0  0  0  0  0
   -6.2020   18.6330  -34.0680 C   0  0  0  0  0  0  0  0  0  0  0  0
   -6.4330   19.9430  -33.6440 C   0  0  0  0  0  0  0  0  0  0  0  0
   -6.4800   23.9140  -32.0300 C   0  0  0  0  0  0  0  0  0  0  0  0
   -5.7930   24.4870  -30.7840 C   0  0  0  0  0  0  0  0  0  0  0  0
   -4.4664   24.2306  -28.7382 H   0  0  0  0  0  0  0  0  0  0  0  0
   -2.8483   23.8322  -29.4086 H   0  0  0  0  0  0  0  0  0  0  0  0
   -3.4265   25.5328  -29.4086 H   0  0  0  0  0  0  0  0  0  0  0  0
   -3.6091   23.1285  -32.4655 H   0  0  0  0  0  0  0  0  0  0  0  0
   -3.1168   22.5617  -30.8079 H   0  0  0  0  0  0  0  0  0  0  0  0
   -4.7276   21.0095  -31.8780 H   0  0  0  0  0  0  0  0  0  0  0  0
   -5.3843   21.7677  -30.3772 H   0  0  0  0  0  0  0  0  0  0  0  0
   -7.7451   21.5882  -30.9930 H   0  0  0  0  0  0  0  0  0  0  0  0
   -8.2270   22.0792  -32.6862 H   0  0  0  0  0  0  0  0  0  0  0  0
   -8.5953   19.3157  -31.0731 H   0  0  0  0  0  0  0  0  0  0  0  0
   -8.1765   16.9763  -31.8202 H   0  0  0  0  0  0  0  0  0  0  0  0
   -3.3947   13.8380  -34.1876 H   0  0  0  0  0  0  0  0  0  0  0  0
   -1.0057   14.4693  -34.4556 H   0  0  0  0  0  0  0  0  0  0  0  0
    2.3032   18.5218  -33.6385 H   0  0  0  0  0  0  0  0  0  0  0  0
    0.8000   19.3797  -33.0629 H   0  0  0  0  0  0  0  0  0  0  0  0
    3.2737   18.5881  -31.5052 H   0  0  0  0  0  0  0  0  0  0  0  0
    2.4031   20.1736  -31.5917 H   0  0  0  0  0  0  0  0  0  0  0  0
    1.9213   20.5894  -29.2805 H   0  0  0  0  0  0  0  0  0  0  0  0
    0.7117   19.9083  -27.2061 H   0  0  0  0  0  0  0  0  0  0  0  0
   -0.4360   16.6230  -26.4540 H   0  0  0  0  0  0  0  0  0  0  0  0
   -0.1835   16.0629  -28.9840 H   0  0  0  0  0  0  0  0  0  0  0  0
    1.9603   16.0291  -31.4177 H   0  0  0  0  0  0  0  0  0  0  0  0
    0.1745   15.8135  -31.3766 H   0  0  0  0  0  0  0  0  0  0  0  0
   -1.8024   19.4647  -35.1433 H   0  0  0  0  0  0  0  0  0  0  0  0
   -1.2152   21.8412  -34.6592 H   0  0  0  0  0  0  0  0  0  0  0  0
   -0.9125   22.5988  -32.3004 H   0  0  0  0  0  0  0  0  0  0  0  0
   -1.1489   20.9681  -30.4252 H   0  0  0  0  0  0  0  0  0  0  0  0
   -1.7432   18.5914  -30.8998 H   0  0  0  0  0  0  0  0  0  0  0  0
   -4.3285   17.8584  -32.9060 H   0  0  0  0  0  0  0  0  0  0  0  0
   -5.5538   18.4457  -34.9368 H   0  0  0  0  0  0  0  0  0  0  0  0
   -5.9607   20.7808  -34.1779 H   0  0  0  0  0  0  0  0  0  0  0  0
   -6.0907   24.4309  -32.9195 H   0  0  0  0  0  0  0  0  0  0  0  0
   -7.5637   24.0690  -31.9220 H   0  0  0  0  0  0  0  0  0  0  0  0
   -5.9996   25.5657  -30.7230 H   0  0  0  0  0  0  0  0  0  0  0  0
   -6.1864   23.9691  -29.8968 H   0  0  0  0  0  0  0  0  0  0  0  0
  1  2  1  0
  2  3  1  0
  3  4  1  0
  4  5  1  0
  5  6  1  0
  6  7  1  0
  7  8  2  0
  8  9  1  0
  9 10  2  0
 10 11  1  0
 11 12  2  0
 11 13  1  0
 13 14  1  0
 14 15  2  0
 15 16  1  0
 16 17  2  0
 17 18  1  0
 18 19  2  0
 18 20  1  0
 20 21  1  0
 21 22  1  0
 22 23  1  0
 23 24  2  0
 24 25  1  0
 25 26  2  0
 26 27  1  0
 26 28  1  0
 28 29  2  0
 29 30  1  0
 17 31  1  0
 31 32  1  0
 32 33  2  0
 33 34  1  0
 34 35  2  0
 35 36  1  0
 36 37  2  0
 31 38  2  0
 10 39  1  0
 39 40  2  0
  5 41  1  0
 41 42  1  0
 42  2  1  0
 40  7  1  0
 38 14  1  0
 30 20  1  0
 37 32  1  0
 29 23  1  0
  1 43  1  0
  1 44  1  0
  1 45  1  0
  3 46  1  0
  3 47  1  0
  4 48  1  0
  4 49  1  0
  6 50  1  0
  6 51  1  0
  8 52  1  0
  9 53  1  0
 15 54  1  0
 16 55  1  0
 21 56  1  0
 21 57  1  0
 22 58  1  0
 22 59  1  0
 24 60  1  0
 25 61  1  0
 27 62  1  0
 28 63  1  0
 30 64  1  0
 30 65  1  0
 33 66  1  0
 34 67  1  0
 35 68  1  0
 36 69  1  0
 37 70  1  0
 38 71  1  0
 39 72  1  0
 40 73  1  0
 41 74  1  0
 41 75  1  0
 42 76  1  0
 42 77  1  0
M  CHG  1  13  -1
M  END
>  <UniqueID>  (24) 
22

>  <SMILES>  (24) 
CN1CCN(Cc2ccc(C(=O)[N-]c3ccc(C(=O)N4CCc5ccc(O)cc5C4)c(-c4ccccc4)c3)cc2)CC1

>  <Energy>  (24) 
114.61058737128545

>  <Genealogy>  (24) 
CN1CCN(Cc2ccc(C(=O)[N-]c3ccc(C(=O)N4CCc5ccc(O)cc5C4)c(-c4ccccc4)c3)cc2)CC1 (protonated)
CN1CCN(Cc2ccc(C(=O)[N-]c3ccc(C(=O)N4CCc5ccc(O)cc5C4)c(-c4ccccc4)c3)cc2)CC1 (3D coordinates assigned)
CN1CCN(Cc2ccc(C(=O)[N-]c3ccc(C(=O)N4CCc5ccc(O)cc5C4)c(-c4ccccc4)c3)cc2)CC1 (nonaromatic ring conformer: 114.61058737128545 kcal/mol)

>  <smiles>  (24) 
CN1CCN(Cc2ccc(C(=O)Nc3ccc(C(=O)N4CCc5ccc(O)cc5C4)c(-c4ccccc4)c3)cc2)CC1

>  <score_type>  (24) 
oracle

>  <origin>  (24) 
adgpu

>  <m_score__min__energy>  (24) 
-13.81

>  <m_primary>  (24) 
energy

$$$$
24:0
     RDKit          3D

 43 46  0  0  0  0  0  0  0  0999 V2000
    1.9340   24.4250  -25.1740 O   0  0  0  0  0  0  0  0  0  0  0  0
    0.8490   24.4360  -25.8150 C   0  0  0  0  0  0  0  0  0  0  0  0
   -0.3170   24.5710  -25.0860 C   0  0  0  0  0  0  0  0  0  0  0  0
   -1.6230   24.6120  -25.5380 C   0  0  0  0  0  0  0  0  0  0  0  0
   -2.1360   24.5290  -26.8410 C   0  0  0  0  0  0  0  0  0  0  0  0
   -3.5480   24.6140  -26.9190 C   0  0  0  0  0  0  0  0  0  0  0  0
   -4.2240   24.5420  -28.1280 C   0  0  0  0  0  0  0  0  0  0  0  0
   -3.5230   24.3750  -29.3090 C   0  0  0  0  0  0  0  0  0  0  0  0
   -4.2390   24.3180  -30.5150 O   0  0  0  0  0  0  0  0  0  0  0  0
   -5.0570   23.2550  -30.9270 C   0  0  0  0  0  0  0  0  0  0  0  0
   -6.4070   23.5110  -31.1910 C   0  0  0  0  0  0  0  0  0  0  0  0
   -7.2600   22.4770  -31.5900 C   0  0  0  0  0  0  0  0  0  0  0  0
   -6.7690   21.1710  -31.7240 C   0  0  0  0  0  0  0  0  0  0  0  0
   -7.8510   19.8770  -32.2300 S   0  0  0  0  0  0  0  0  0  0  0  0
   -8.4890   19.2260  -31.0340 O   0  0  0  0  0  0  0  0  0  0  0  0
   -8.9350   20.4540  -33.0980 O   0  0  0  0  0  0  0  0  0  0  0  0
   -6.9340   18.6600  -33.1100 C   0  0  0  0  0  0  0  0  0  0  0  0
   -6.1070   19.0470  -34.1750 C   0  0  0  0  0  0  0  0  0  0  0  0
   -5.3900   18.0850  -34.8930 C   0  0  0  0  0  0  0  0  0  0  0  0
   -5.4960   16.7330  -34.5520 C   0  0  0  0  0  0  0  0  0  0  0  0
   -6.3220   16.3420  -33.4950 C   0  0  0  0  0  0  0  0  0  0  0  0
   -7.0420   17.3020  -32.7750 C   0  0  0  0  0  0  0  0  0  0  0  0
   -5.4220   20.9050  -31.4390 C   0  0  0  0  0  0  0  0  0  0  0  0
   -4.5720   21.9390  -31.0350 C   0  0  0  0  0  0  0  0  0  0  0  0
   -2.1260   24.3170  -29.2720 C   0  0  0  0  0  0  0  0  0  0  0  0
   -1.3890   24.3760  -28.0530 C   0  0  0  0  0  0  0  0  0  0  0  0
    0.0260   24.2800  -28.1670 C   0  0  0  0  0  0  0  0  0  0  0  0
    0.5280   24.1450  -29.3170 O   0  0  0  0  0  0  0  0  0  0  0  0
    0.9200   24.3150  -27.1530 N   0  0  0  0  0  0  0  0  0  0  0  0
   -0.1886   24.6577  -23.9970 H   0  0  0  0  0  0  0  0  0  0  0  0
   -2.3812   24.7283  -24.7496 H   0  0  0  0  0  0  0  0  0  0  0  0
   -4.1262   24.7411  -25.9919 H   0  0  0  0  0  0  0  0  0  0  0  0
   -5.3212   24.6179  -28.1479 H   0  0  0  0  0  0  0  0  0  0  0  0
   -6.8002   24.5327  -31.0840 H   0  0  0  0  0  0  0  0  0  0  0  0
   -8.3189   22.6892  -31.7992 H   0  0  0  0  0  0  0  0  0  0  0  0
   -6.0224   20.1098  -34.4459 H   0  0  0  0  0  0  0  0  0  0  0  0
   -4.7418   18.3921  -35.7270 H   0  0  0  0  0  0  0  0  0  0  0  0
   -4.9292   15.9774  -35.1158 H   0  0  0  0  0  0  0  0  0  0  0  0
   -6.4064   15.2781  -33.2285 H   0  0  0  0  0  0  0  0  0  0  0  0
   -7.6937   16.9913  -31.9451 H   0  0  0  0  0  0  0  0  0  0  0  0
   -5.0332   19.8804  -31.5335 H   0  0  0  0  0  0  0  0  0  0  0  0
   -3.5193   21.7224  -30.8006 H   0  0  0  0  0  0  0  0  0  0  0  0
   -1.5751   24.2223  -30.2194 H   0  0  0  0  0  0  0  0  0  0  0  0
  1  2  2  0
  2  3  1  0
  3  4  2  0
  4  5  1  0
  5  6  2  0
  6  7  1  0
  7  8  2  0
  8  9  1  0
  9 10  1  0
 10 11  2  0
 11 12  1  0
 12 13  2  0
 13 14  1  0
 14 15  2  0
 14 16  2  0
 14 17  1  0
 17 18  2  0
 18 19  1  0
 19 20  2  0
 20 21  1  0
 21 22  2  0
 13 23  1  0
 23 24  2  0
  8 25  1  0
 25 26  2  0
 26 27  1  0
 27 28  2  0
 27 29  1  0
 29  2  1  0
 26  5  1  0
 24 10  1  0
 22 17  1  0
  3 30  1  0
  4 31  1  0
  6 32  1  0
  7 33  1  0
 11 34  1  0
 12 35  1  0
 18 36  1  0
 19 37  1  0
 20 38  1  0
 21 39  1  0
 22 40  1  0
 23 41  1  0
 24 42  1  0
 25 43  1  0
M  CHG  1  29  -1
M  END
>  <UniqueID>  (25) 
23

>  <SMILES>  (25) 
O=c1ccc2ccc(Oc3ccc(S(=O)(=O)c4ccccc4)cc3)cc2c(=O)[n-]1

>  <Energy>  (25) 
87.49911219078423

>  <Genealogy>  (25) 
O=c1ccc2ccc(Oc3ccc(S(=O)(=O)c4ccccc4)cc3)cc2c(=O)[n-]1 (protonated)
O=c1ccc2ccc(Oc3ccc(S(=O)(=O)c4ccccc4)cc3)cc2c(=O)[n-]1 (3D coordinates assigned)
O=c1ccc2ccc(Oc3ccc(S(=O)(=O)c4ccccc4)cc3)cc2c(=O)[n-]1 (optimized conformer: 87.49911219078423 kcal/mol)

>  <smiles>  (25) 
O=c1ccc2ccc(Oc3ccc(S(=O)(=O)c4ccccc4)cc3)cc2c(=O)[nH]1

>  <score_type>  (25) 
oracle

>  <origin>  (25) 
adgpu

>  <m_score__min__energy>  (25) 
-10.75

>  <m_primary>  (25) 
energy

$$$$
25:0
     RDKit          3D

 38 40  0  0  0  0  0  0  0  0999 V2000
   -6.0310   18.4100  -34.2700 C   0  0  0  0  0  0  0  0  0  0  0  0
   -6.5750   18.6270  -32.9740 O   0  0  0  0  0  0  0  0  0  0  0  0
   -7.1630   19.8280  -32.5400 C   0  0  0  0  0  0  0  0  0  0  0  0
   -8.5630   19.9660  -32.4440 C   0  0  0  0  0  0  0  0  0  0  0  0
   -9.1310   21.1700  -32.0260 C   0  0  0  0  0  0  0  0  0  0  0  0
   -8.3150   22.2510  -31.6990 C   0  0  0  0  0  0  0  0  0  0  0  0
   -6.9260   22.1330  -31.7860 C   0  0  0  0  0  0  0  0  0  0  0  0
   -6.3360   20.9240  -32.1990 C   0  0  0  0  0  0  0  0  0  0  0  0
   -4.8590   20.8430  -32.2800 C   0  0  0  0  0  0  0  0  0  0  0  0
   -4.0450   20.6000  -31.2300 N   0  0  0  0  0  0  0  0  0  0  0  0
   -2.8180   20.5990  -31.7230 N   0  0  0  0  0  0  0  0  0  0  0  0
   -1.6210   20.2860  -30.9450 C   0  0  0  0  0  0  0  0  0  0  0  0
   -1.5440   21.1590  -29.7740 N   0  0  0  0  0  0  0  0  0  0  0  0
   -2.5220   22.1680  -29.4530 C   0  0  0  0  0  0  0  0  0  0  0  0
   -3.2930   22.0290  -28.2880 C   0  0  0  0  0  0  0  0  0  0  0  0
   -4.2570   22.9850  -27.9560 C   0  0  0  0  0  0  0  0  0  0  0  0
   -4.4590   24.0920  -28.7830 C   0  0  0  0  0  0  0  0  0  0  0  0
   -3.6890   24.2530  -29.9410 C   0  0  0  0  0  0  0  0  0  0  0  0
   -3.8760   25.3570  -30.7700 O   0  0  0  0  0  0  0  0  0  0  0  0
   -2.7200   23.2980  -30.2720 C   0  0  0  0  0  0  0  0  0  0  0  0
   -2.9170   20.8280  -33.0460 C   0  0  0  0  0  0  0  0  0  0  0  0
   -1.6600   20.8870  -34.0940 S   0  0  0  0  0  0  0  0  0  0  0  0
   -4.1700   20.9870  -33.3940 O   0  0  0  0  0  0  0  0  0  0  0  0
   -5.0129   18.0039  -34.1770 H   0  0  0  0  0  0  0  0  0  0  0  0
   -6.6624   17.6949  -34.8177 H   0  0  0  0  0  0  0  0  0  0  0  0
   -5.9969   19.3634  -34.8177 H   0  0  0  0  0  0  0  0  0  0  0  0
   -9.2133   19.1168  -32.7010 H   0  0  0  0  0  0  0  0  0  0  0  0
  -10.2245   21.2659  -31.9545 H   0  0  0  0  0  0  0  0  0  0  0  0
   -8.7657   23.1995  -31.3716 H   0  0  0  0  0  0  0  0  0  0  0  0
   -6.2883   22.9918  -31.5297 H   0  0  0  0  0  0  0  0  0  0  0  0
   -1.6644   19.2374  -30.6156 H   0  0  0  0  0  0  0  0  0  0  0  0
   -0.7310   20.4431  -31.5721 H   0  0  0  0  0  0  0  0  0  0  0  0
   -0.7820   20.9660  -29.0850 H   0  0  0  0  0  0  0  0  0  0  0  0
   -3.1371   21.1606  -27.6311 H   0  0  0  0  0  0  0  0  0  0  0  0
   -4.8574   22.8653  -27.0421 H   0  0  0  0  0  0  0  0  0  0  0  0
   -5.2243   24.8386  -28.5241 H   0  0  0  0  0  0  0  0  0  0  0  0
   -3.3070   25.5020  -31.5950 H   0  0  0  0  0  0  0  0  0  0  0  0
   -2.1092   23.4305  -31.1772 H   0  0  0  0  0  0  0  0  0  0  0  0
  1  2  1  0
  2  3  1  0
  3  4  2  0
  4  5  1  0
  5  6  2  0
  6  7  1  0
  7  8  2  0
  8  9  1  0
  9 10  2  0
 10 11  1  0
 11 12  1  0
 12 13  1  0
 13 14  1  0
 14 15  2  0
 15 16  1  0
 16 17  2  0
 17 18  1  0
 18 19  1  0
 18 20  2  0
 11 21  1  0
 21 22  2  0
 21 23  1  0
  8  3  1  0
 23  9  1  0
 20 14  1  0
  1 24  1  0
  1 25  1  0
  1 26  1  0
  4 27  1  0
  5 28  1  0
  6 29  1  0
  7 30  1  0
 12 31  1  0
 12 32  1  0
 13 33  1  0
 15 34  1  0
 16 35  1  0
 17 36  1  0
 19 37  1  0
 20 38  1  0
M  END
>  <UniqueID>  (26) 
24

>  <SMILES>  (26) 
COc1ccccc1-c1nn(CNc2cccc(O)c2)c(=S)o1

>  <Energy>  (26) 
76.07206606142037

>  <Genealogy>  (26) 
COc1ccccc1-c1nn(CNc2cccc(O)c2)c(=S)o1 (3D coordinates assigned)
COc1ccccc1-c1nn(CNc2cccc(O)c2)c(=S)o1 (optimized conformer: 76.07206606142037 kcal/mol)

>  <smiles>  (26) 
COc1ccccc1-c1nn(CNc2cccc(O)c2)c(=S)o1

>  <score_type>  (26) 
oracle

>  <origin>  (26) 
adgpu

>  <m_score__min__energy>  (26) 
-7.9400000000000004

>  <m_primary>  (26) 
energy

$$$$
26:0
     RDKit          3D

 47 49  0  0  0  0  0  0  0  0999 V2000
   -5.1960   17.4710  -34.9380 C   0  0  0  0  0  0  0  0  0  0  0  0
   -5.1780   18.6950  -34.0280 C   0  0  0  0  0  0  0  0  0  0  0  0
   -3.7720   19.1890  -33.8150 C   0  0  0  0  0  0  0  0  0  0  0  0
   -2.8690   18.7450  -34.5750 O   0  0  0  0  0  0  0  0  0  0  0  0
   -3.4360   20.1530  -32.7900 N   0  0  0  0  0  0  0  0  0  0  0  0
   -4.4740   20.9360  -32.0960 C   0  0  0  0  0  0  0  0  0  0  0  0
   -3.9740   22.3510  -31.7960 C   0  0  0  0  0  0  0  0  0  0  0  0
   -2.6370   22.2920  -31.2020 N   0  0  0  0  0  0  0  0  0  0  0  0
   -2.3360   22.9740  -29.9700 C   0  0  0  0  0  0  0  0  0  0  0  0
   -1.5340   22.3400  -29.0090 C   0  0  0  0  0  0  0  0  0  0  0  0
   -1.2370   22.9790  -27.8030 C   0  0  0  0  0  0  0  0  0  0  0  0
   -1.7290   24.2600  -27.5510 C   0  0  0  0  0  0  0  0  0  0  0  0
   -2.5220   24.9050  -28.5030 C   0  0  0  0  0  0  0  0  0  0  0  0
   -2.8480   24.2630  -29.7120 C   0  0  0  0  0  0  0  0  0  0  0  0
   -3.6190   24.9350  -30.7210 N   0  0  0  0  0  0  0  0  0  0  0  0
   -5.0160   25.2520  -30.6520 C   0  0  0  0  0  0  0  0  0  0  0  0
   -5.3510   26.4530  -30.4690 O   0  0  0  0  0  0  0  0  0  0  0  0
   -6.0690   24.2260  -30.8420 C   0  0  0  0  0  0  0  0  0  0  0  0
   -6.5590   23.5070  -29.7370 C   0  0  0  0  0  0  0  0  0  0  0  0
   -7.5560   22.5420  -29.9070 C   0  0  0  0  0  0  0  0  0  0  0  0
   -8.0790   22.2900  -31.1770 C   0  0  0  0  0  0  0  0  0  0  0  0
   -7.6100   23.0090  -32.2790 C   0  0  0  0  0  0  0  0  0  0  0  0
   -6.6140   23.9750  -32.1150 C   0  0  0  0  0  0  0  0  0  0  0  0
   -1.6020   21.5490  -31.9200 C   0  0  0  0  0  0  0  0  0  0  0  0
   -2.0890   20.1280  -32.1950 C   0  0  0  0  0  0  0  0  0  0  0  0
   -5.2094   16.5581  -34.3244 H   0  0  0  0  0  0  0  0  0  0  0  0
   -6.0938   17.4993  -35.5729 H   0  0  0  0  0  0  0  0  0  0  0  0
   -4.2977   17.4729  -35.5729 H   0  0  0  0  0  0  0  0  0  0  0  0
   -5.7743   19.4955  -34.4902 H   0  0  0  0  0  0  0  0  0  0  0  0
   -5.6015   18.4126  -33.0528 H   0  0  0  0  0  0  0  0  0  0  0  0
   -5.3678   20.9966  -32.7343 H   0  0  0  0  0  0  0  0  0  0  0  0
   -4.7167   20.4378  -31.1458 H   0  0  0  0  0  0  0  0  0  0  0  0
   -3.9325   22.9290  -32.7310 H   0  0  0  0  0  0  0  0  0  0  0  0
   -4.6631   22.8361  -31.0891 H   0  0  0  0  0  0  0  0  0  0  0  0
   -1.1367   21.3335  -29.2066 H   0  0  0  0  0  0  0  0  0  0  0  0
   -0.6146   22.4717  -27.0512 H   0  0  0  0  0  0  0  0  0  0  0  0
   -1.4922   24.7626  -26.6016 H   0  0  0  0  0  0  0  0  0  0  0  0
   -2.8940   25.9213  -28.3063 H   0  0  0  0  0  0  0  0  0  0  0  0
   -6.1553   23.7052  -28.7331 H   0  0  0  0  0  0  0  0  0  0  0  0
   -7.9294   21.9799  -29.0383 H   0  0  0  0  0  0  0  0  0  0  0  0
   -8.8594   21.5262  -31.3095 H   0  0  0  0  0  0  0  0  0  0  0  0
   -8.0259   22.8141  -33.2785 H   0  0  0  0  0  0  0  0  0  0  0  0
   -6.2538   24.5425  -32.9857 H   0  0  0  0  0  0  0  0  0  0  0  0
   -1.3848   22.0525  -32.8736 H   0  0  0  0  0  0  0  0  0  0  0  0
   -0.6890   21.5102  -31.3077 H   0  0  0  0  0  0  0  0  0  0  0  0
   -1.3944   19.6352  -32.8911 H   0  0  0  0  0  0  0  0  0  0  0  0
   -2.1287   19.5744  -31.2453 H   0  0  0  0  0  0  0  0  0  0  0  0
  1  2  1  0
  2  3  1  0
  3  4  2  0
  3  5  1  0
  5  6  1  0
  6  7  1  0
  7  8  1  0
  8  9  1  0
  9 10  2  0
 10 11  1  0
 11 12  2  0
 12 13  1  0
 13 14  2  0
 14 15  1  0
 15 16  1  0
 16 17  2  0
 16 18  1  0
 18 19  2  0
 19 20  1  0
 20 21  2  0
 21 22  1  0
 22 23  2  0
  8 24  1  0
 24 25  1  0
 25  5  1  0
 14  9  1  0
 23 18  1  0
  1 26  1  0
  1 27  1  0
  1 28  1  0
  2 29  1  0
  2 30  1  0
  6 31  1  0
  6 32  1  0
  7 33  1  0
  7 34  1  0
 10 35  1  0
 11 36  1  0
 12 37  1  0
 13 38  1  0
 19 39  1  0
 20 40  1  0
 21 41  1  0
 22 42  1  0
 23 43  1  0
 24 44  1  0
 24 45  1  0
 25 46  1  0
 25 47  1  0
M  CHG  1  15  -1
M  END
>  <UniqueID>  (27) 
25

>  <SMILES>  (27) 
CCC(=O)N1CCN(c2ccccc2[N-]C(=O)c2ccccc2)CC1

>  <Energy>  (27) 
57.40819595665995

>  <Genealogy>  (27) 
CCC(=O)N1CCN(c2ccccc2[N-]C(=O)c2ccccc2)CC1 (protonated)
CCC(=O)N1CCN(c2ccccc2[N-]C(=O)c2ccccc2)CC1 (3D coordinates assigned)
CCC(=O)N1CCN(c2ccccc2[N-]C(=O)c2ccccc2)CC1 (nonaromatic ring conformer: 57.40819595665995 kcal/mol)

>  <smiles>  (27) 
CCC(=O)N1CCN(c2ccccc2NC(=O)c2ccccc2)CC1

>  <score_type>  (27) 
oracle

>  <origin>  (27) 
adgpu

>  <m_score__min__energy>  (27) 
-9.4900000000000002

>  <m_primary>  (27) 
energy

$$$$
27:0
     RDKit          3D

 45 47  0  0  0  0  0  0  0  0999 V2000
   -1.9850   19.4190  -26.9970 C   0  0  0  0  0  0  0  0  0  0  0  0
   -2.1390   20.7670  -27.6500 C   0  0  0  0  0  0  0  0  0  0  0  0
   -3.3420   21.4720  -27.4900 C   0  0  0  0  0  0  0  0  0  0  0  0
   -3.5110   22.7290  -28.0700 C   0  0  0  0  0  0  0  0  0  0  0  0
   -2.4800   23.3130  -28.8200 C   0  0  0  0  0  0  0  0  0  0  0  0
   -2.6400   24.6690  -29.3950 C   0  0  0  0  0  0  0  0  0  0  0  0
   -1.9230   25.6130  -28.9670 O   0  0  0  0  0  0  0  0  0  0  0  0
   -3.5680   24.9340  -30.4570 N   0  0  0  0  0  0  0  0  0  0  0  0
   -4.7740   24.1950  -30.6950 C   0  0  0  0  0  0  0  0  0  0  0  0
   -4.7030   22.9540  -31.3370 C   0  0  0  0  0  0  0  0  0  0  0  0
   -5.8550   22.1770  -31.4990 C   0  0  0  0  0  0  0  0  0  0  0  0
   -7.0910   22.6470  -31.0370 C   0  0  0  0  0  0  0  0  0  0  0  0
   -8.5240   21.6260  -31.1120 S   0  0  0  0  0  0  0  0  0  0  0  0
   -9.3810   21.9000  -29.9100 O   0  0  0  0  0  0  0  0  0  0  0  0
   -9.3150   21.9100  -32.3580 O   0  0  0  0  0  0  0  0  0  0  0  0
   -8.0520   19.9540  -31.1060 N   0  0  0  0  0  0  0  0  0  0  0  0
   -7.4210   19.3270  -32.0600 C   0  0  0  0  0  0  0  0  0  0  0  0
   -7.0690   17.9870  -31.8590 C   0  0  0  0  0  0  0  0  0  0  0  0
   -6.3590   17.3030  -32.8470 C   0  0  0  0  0  0  0  0  0  0  0  0
   -6.0130   17.9550  -34.0300 C   0  0  0  0  0  0  0  0  0  0  0  0
   -6.3910   19.2860  -34.2100 C   0  0  0  0  0  0  0  0  0  0  0  0
   -7.0810   19.9430  -33.2370 N   0  0  0  0  0  0  0  0  0  0  0  0
   -7.1750   23.9190  -30.4560 C   0  0  0  0  0  0  0  0  0  0  0  0
   -6.0250   24.6920  -30.2890 C   0  0  0  0  0  0  0  0  0  0  0  0
   -1.2890   22.5970  -29.0170 C   0  0  0  0  0  0  0  0  0  0  0  0
   -1.1080   21.3260  -28.4430 C   0  0  0  0  0  0  0  0  0  0  0  0
    0.1950   20.6010  -28.6520 C   0  0  0  0  0  0  0  0  0  0  0  0
   -1.9985   19.5376  -25.9035 H   0  0  0  0  0  0  0  0  0  0  0  0
   -2.8143   18.7654  -27.3052 H   0  0  0  0  0  0  0  0  0  0  0  0
   -1.0296   18.9693  -27.3052 H   0  0  0  0  0  0  0  0  0  0  0  0
   -4.1591   21.0290  -26.9017 H   0  0  0  0  0  0  0  0  0  0  0  0
   -4.4613   23.2670  -27.9380 H   0  0  0  0  0  0  0  0  0  0  0  0
   -3.7375   22.5877  -31.7159 H   0  0  0  0  0  0  0  0  0  0  0  0
   -5.7900   21.1949  -31.9902 H   0  0  0  0  0  0  0  0  0  0  0  0
   -7.3507   17.4756  -30.9267 H   0  0  0  0  0  0  0  0  0  0  0  0
   -6.0731   16.2521  -32.6928 H   0  0  0  0  0  0  0  0  0  0  0  0
   -5.4486   17.4262  -34.8122 H   0  0  0  0  0  0  0  0  0  0  0  0
   -6.1303   19.8074  -35.1428 H   0  0  0  0  0  0  0  0  0  0  0  0
   -7.3460   20.9320  -33.4320 H   0  0  0  0  0  0  0  0  0  0  0  0
   -8.1504   24.3097  -30.1304 H   0  0  0  0  0  0  0  0  0  0  0  0
   -6.0976   25.6929  -29.8385 H   0  0  0  0  0  0  0  0  0  0  0  0
   -0.4867   23.0358  -29.6284 H   0  0  0  0  0  0  0  0  0  0  0  0
    0.6381   20.3545  -27.6758 H   0  0  0  0  0  0  0  0  0  0  0  0
    0.0127   19.6746  -29.2164 H   0  0  0  0  0  0  0  0  0  0  0  0
    0.8861   21.2443  -29.2164 H   0  0  0  0  0  0  0  0  0  0  0  0
  1  2  1  0
  2  3  2  0
  3  4  1  0
  4  5  2  0
  5  6  1  0
  6  7  2  0
  6  8  1  0
  8  9  1  0
  9 10  2  0
 10 11  1  0
 11 12  2  0
 12 13  1  0
 13 14  2  0
 13 15  2  0
 13 16  1  0
 16 17  2  3
 17 18  1  0
 18 19  2  0
 19 20  1  0
 20 21  2  0
 21 22  1  0
 12 23  1  0
 23 24  2  0
  5 25  1  0
 25 26  2  0
 26 27  1  0
 26  2  1  0
 24  9  1  0
 22 17  1  0
  1 28  1  0
  1 29  1  0
  1 30  1  0
  3 31  1  0
  4 32  1  0
 10 33  1  0
 11 34  1  0
 18 35  1  0
 19 36  1  0
 20 37  1  0
 21 38  1  0
 22 39  1  0
 23 40  1  0
 24 41  1  0
 25 42  1  0
 27 43  1  0
 27 44  1  0
 27 45  1  0
M  CHG  1   8  -1
M  END
>  <UniqueID>  (28) 
26

>  <SMILES>  (28) 
Cc1ccc(C(=O)[N-]c2ccc(S(=O)(=O)N=c3cccc[nH]3)cc2)cc1C

>  <Energy>  (28) 
58.17584503132044

>  <Genealogy>  (28) 
Cc1ccc(C(=O)[N-]c2ccc(S(=O)(=O)N=c3cccc[nH]3)cc2)cc1C (protonated)
Cc1ccc(C(=O)[N-]c2ccc(S(=O)(=O)N=c3cccc[nH]3)cc2)cc1C (3D coordinates assigned)
Cc1ccc(C(=O)[N-]c2ccc(S(=O)(=O)N=c3cccc[nH]3)cc2)cc1C (optimized conformer: 58.17584503132044 kcal/mol)

>  <smiles>  (28) 
Cc1ccc(C(=O)Nc2ccc(S(=O)(=O)N=c3cccc[nH]3)cc2)cc1C

>  <score_type>  (28) 
oracle

>  <origin>  (28) 
adgpu

>  <m_score__min__energy>  (28) 
-11.5

>  <m_primary>  (28) 
energy

$$$$
28:0
     RDKit          3D

 50 53  0  0  0  0  0  0  0  0999 V2000
    0.5040   18.6660  -27.9150 C   0  0  0  0  0  0  0  0  0  0  0  0
   -0.5860   19.7020  -27.8410 C   0  0  0  0  0  0  0  0  0  0  0  0
   -0.4400   20.9070  -28.5460 C   0  0  0  0  0  0  0  0  0  0  0  0
   -1.4430   21.8770  -28.5130 C   0  0  0  0  0  0  0  0  0  0  0  0
   -2.6090   21.6650  -27.7610 C   0  0  0  0  0  0  0  0  0  0  0  0
   -3.6990   22.5950  -27.7750 N   0  0  0  0  0  0  0  0  0  0  0  0
   -3.8060   23.7670  -28.5920 C   0  0  0  0  0  0  0  0  0  0  0  0
   -2.9350   24.6760  -28.5030 O   0  0  0  0  0  0  0  0  0  0  0  0
   -4.9380   23.8940  -29.5410 C   0  0  0  0  0  0  0  0  0  0  0  0
   -6.0410   23.0280  -29.4150 C   0  0  0  0  0  0  0  0  0  0  0  0
   -7.0400   22.9870  -30.3990 C   0  0  0  0  0  0  0  0  0  0  0  0
   -8.1190   21.9430  -30.3310 C   0  0  0  0  0  0  0  0  0  0  0  0
   -8.5820   21.3760  -32.0110 S   0  0  0  0  0  0  0  0  0  0  0  0
   -7.8070   19.7580  -31.8600 C   0  0  0  0  0  0  0  0  0  0  0  0
   -8.5330   18.6280  -31.7820 N   0  0  0  0  0  0  0  0  0  0  0  0
   -7.6470   17.6460  -31.7180 N   0  0  0  0  0  0  0  0  0  0  0  0
   -6.4220   18.1440  -31.7660 N   0  0  0  0  0  0  0  0  0  0  0  0
   -6.4830   19.4630  -31.8560 N   0  0  0  0  0  0  0  0  0  0  0  0
   -5.3020   20.2900  -32.0060 C   0  0  0  0  0  0  0  0  0  0  0  0
   -5.1510   21.2220  -33.0520 C   0  0  0  0  0  0  0  0  0  0  0  0
   -4.0220   22.0430  -33.1190 C   0  0  0  0  0  0  0  0  0  0  0  0
   -3.0240   21.9460  -32.1490 C   0  0  0  0  0  0  0  0  0  0  0  0
   -3.1530   21.0250  -31.1100 C   0  0  0  0  0  0  0  0  0  0  0  0
   -4.2820   20.2060  -31.0370 C   0  0  0  0  0  0  0  0  0  0  0  0
   -6.9710   23.8690  -31.4860 C   0  0  0  0  0  0  0  0  0  0  0  0
   -5.9170   24.7770  -31.5880 C   0  0  0  0  0  0  0  0  0  0  0  0
   -4.8940   24.7870  -30.6340 C   0  0  0  0  0  0  0  0  0  0  0  0
   -3.8320   25.6690  -30.8000 O   0  0  0  0  0  0  0  0  0  0  0  0
   -2.7670   20.4610  -27.0680 C   0  0  0  0  0  0  0  0  0  0  0  0
   -1.7690   19.4730  -27.0980 C   0  0  0  0  0  0  0  0  0  0  0  0
   -1.9830   18.1840  -26.3490 C   0  0  0  0  0  0  0  0  0  0  0  0
    0.8064   18.3786  -26.8972 H   0  0  0  0  0  0  0  0  0  0  0  0
    0.1322   17.7803  -28.4509 H   0  0  0  0  0  0  0  0  0  0  0  0
    1.3697   19.0823  -28.4509 H   0  0  0  0  0  0  0  0  0  0  0  0
    0.4741   21.0886  -29.1303 H   0  0  0  0  0  0  0  0  0  0  0  0
   -1.3191   22.8120  -29.0790 H   0  0  0  0  0  0  0  0  0  0  0  0
   -6.1204   22.3750  -28.5334 H   0  0  0  0  0  0  0  0  0  0  0  0
   -7.7539   21.0844  -29.7484 H   0  0  0  0  0  0  0  0  0  0  0  0
   -9.0054   22.3826  -29.8503 H   0  0  0  0  0  0  0  0  0  0  0  0
   -5.9301   21.3042  -33.8241 H   0  0  0  0  0  0  0  0  0  0  0  0
   -3.9199   22.7684  -33.9396 H   0  0  0  0  0  0  0  0  0  0  0  0
   -2.1373   22.5946  -32.2037 H   0  0  0  0  0  0  0  0  0  0  0  0
   -2.3648   20.9434  -30.3471 H   0  0  0  0  0  0  0  0  0  0  0  0
   -4.3764   19.4852  -30.2115 H   0  0  0  0  0  0  0  0  0  0  0  0
   -7.7508   23.8451  -32.2615 H   0  0  0  0  0  0  0  0  0  0  0  0
   -5.8901   25.4904  -32.4248 H   0  0  0  0  0  0  0  0  0  0  0  0
   -3.6866   20.2848  -26.4907 H   0  0  0  0  0  0  0  0  0  0  0  0
   -1.9506   18.3790  -25.2669 H   0  0  0  0  0  0  0  0  0  0  0  0
   -2.9634   17.7629  -26.6165 H   0  0  0  0  0  0  0  0  0  0  0  0
   -1.1913   17.4687  -26.6165 H   0  0  0  0  0  0  0  0  0  0  0  0
  1  2  1  0
  2  3  2  0
  3  4  1  0
  4  5  2  0
  5  6  1  0
  6  7  1  0
  7  8  2  0
  7  9  1  0
  9 10  2  0
 10 11  1  0
 11 12  1  0
 12 13  1  0
 13 14  1  0
 14 15  2  0
 15 16  1  0
 16 17  2  0
 17 18  1  0
 18 19  1  0
 19 20  2  0
 20 21  1  0
 21 22  2  0
 22 23  1  0
 23 24  2  0
 11 25  2  0
 25 26  1  0
 26 27  2  0
 27 28  1  0
  5 29  1  0
 29 30  2  0
 30 31  1  0
 30  2  1  0
 27  9  1  0
 18 14  1  0
 24 19  1  0
  1 32  1  0
  1 33  1  0
  1 34  1  0
  3 35  1  0
  4 36  1  0
 10 37  1  0
 12 38  1  0
 12 39  1  0
 20 40  1  0
 21 41  1  0
 22 42  1  0
 23 43  1  0
 24 44  1  0
 25 45  1  0
 26 46  1  0
 29 47  1  0
 31 48  1  0
 31 49  1  0
 31 50  1  0
M  CHG  2   6  -1  28  -1
M  END
>  <UniqueID>  (29) 
27

>  <SMILES>  (29) 
Cc1ccc([N-]C(=O)c2cc(CSc3nnnn3-c3ccccc3)ccc2[O-])cc1C

>  <Energy>  (29) 
99.10976787169825

>  <Genealogy>  (29) 
Cc1ccc([N-]C(=O)c2cc(CSc3nnnn3-c3ccccc3)ccc2[O-])cc1C (protonated)
Cc1ccc([N-]C(=O)c2cc(CSc3nnnn3-c3ccccc3)ccc2[O-])cc1C (3D coordinates assigned)
Cc1ccc([N-]C(=O)c2cc(CSc3nnnn3-c3ccccc3)ccc2[O-])cc1C (optimized conformer: 99.10976787169825 kcal/mol)

>  <smiles>  (29) 
Cc1ccc(NC(=O)c2cc(CSc3nnnn3-c3ccccc3)ccc2O)cc1C

>  <score_type>  (29) 
oracle

>  <origin>  (29) 
adgpu

>  <m_score__min__energy>  (29) 
-14.73

>  <m_primary>  (29) 
energy

$$$$
29:0
     RDKit          3D

 55 57  0  0  0  0  0  0  0  0999 V2000
   -1.3190   25.7340  -25.2120 C   0  0  0  0  0  0  0  0  0  0  0  0
   -1.4120   24.5840  -26.2140 C   0  0  0  0  0  0  0  0  0  0  0  0
   -2.8670   24.3640  -26.7180 C   0  0  0  0  0  0  0  0  0  0  0  0
   -3.0020   23.9070  -28.1280 N   0  0  1  0  0  0  0  0  0  0  0  0
   -2.6580   24.9240  -29.0990 C   0  0  0  0  0  0  0  0  0  0  0  0
   -1.6040   25.6130  -28.9700 O   0  0  0  0  0  0  0  0  0  0  0  0
   -3.5120   25.1290  -30.2330 N   0  0  0  0  0  0  0  0  0  0  0  0
   -4.6720   24.3500  -30.5630 C   0  0  0  0  0  0  0  0  0  0  0  0
   -5.9320   24.9010  -30.3000 C   0  0  0  0  0  0  0  0  0  0  0  0
   -7.0950   24.1890  -30.6030 C   0  0  0  0  0  0  0  0  0  0  0  0
   -7.0070   22.9250  -31.1860 C   0  0  0  0  0  0  0  0  0  0  0  0
   -5.7580   22.3770  -31.4860 C   0  0  0  0  0  0  0  0  0  0  0  0
   -4.5760   23.0920  -31.1980 C   0  0  0  0  0  0  0  0  0  0  0  0
   -3.3130   22.5960  -31.5570 O   0  0  0  0  0  0  0  0  0  0  0  0
   -3.0840   21.5820  -32.5290 C   0  0  0  0  0  0  0  0  0  0  0  0
   -2.3470   22.6300  -28.3960 C   0  0  0  0  0  0  0  0  0  0  0  0
   -1.1550   22.6000  -29.1490 C   0  0  0  0  0  0  0  0  0  0  0  0
   -0.4930   21.3960  -29.3970 C   0  0  0  0  0  0  0  0  0  0  0  0
   -1.0050   20.1900  -28.9020 C   0  0  0  0  0  0  0  0  0  0  0  0
   -0.2780   18.9270  -29.1510 C   0  0  0  0  0  0  0  0  0  0  0  0
    0.1830   18.2300  -28.0780 N   0  0  0  0  0  0  0  0  0  0  0  0
    0.8370   17.0490  -28.2220 C   0  0  0  0  0  0  0  0  0  0  0  0
    1.3530   16.3280  -27.0210 C   0  0  0  0  0  0  0  0  0  0  0  0
    1.0650   16.5480  -29.4630 N   0  0  0  0  0  0  0  0  0  0  0  0
    0.6400   17.2080  -30.5720 C   0  0  0  0  0  0  0  0  0  0  0  0
   -0.0300   18.4320  -30.4540 C   0  0  0  0  0  0  0  0  0  0  0  0
   -0.4570   19.1640  -31.6990 C   0  0  0  0  0  0  0  0  0  0  0  0
   -2.1670   20.2110  -28.1190 C   0  0  0  0  0  0  0  0  0  0  0  0
   -2.8320   21.4140  -27.8670 C   0  0  0  0  0  0  0  0  0  0  0  0
   -1.3515   25.3321  -24.1886 H   0  0  0  0  0  0  0  0  0  0  0  0
   -0.3741   26.2765  -25.3631 H   0  0  0  0  0  0  0  0  0  0  0  0
   -2.1645   26.4212  -25.3631 H   0  0  0  0  0  0  0  0  0  0  0  0
   -0.7684   24.8120  -27.0765 H   0  0  0  0  0  0  0  0  0  0  0  0
   -1.0867   23.6644  -25.7057 H   0  0  0  0  0  0  0  0  0  0  0  0
   -3.3374   23.6082  -26.0718 H   0  0  0  0  0  0  0  0  0  0  0  0
   -3.3500   25.3514  -26.6765 H   0  0  0  0  0  0  0  0  0  0  0  0
   -4.0300   23.7490  -28.2570 H   0  0  0  0  0  0  0  0  0  0  0  0
   -6.0067   25.9025  -29.8512 H   0  0  0  0  0  0  0  0  0  0  0  0
   -8.0803   24.6252  -30.3818 H   0  0  0  0  0  0  0  0  0  0  0  0
   -7.9231   22.3587  -31.4099 H   0  0  0  0  0  0  0  0  0  0  0  0
   -5.6952   21.3815  -31.9498 H   0  0  0  0  0  0  0  0  0  0  0  0
   -2.8690   20.6298  -32.0219 H   0  0  0  0  0  0  0  0  0  0  0  0
   -3.9791   21.4684  -33.1582 H   0  0  0  0  0  0  0  0  0  0  0  0
   -2.2269   21.8641  -33.1582 H   0  0  0  0  0  0  0  0  0  0  0  0
   -0.7410   23.5384  -29.5465 H   0  0  0  0  0  0  0  0  0  0  0  0
    0.4367   21.3946  -29.9850 H   0  0  0  0  0  0  0  0  0  0  0  0
    0.9942   16.8294  -26.1101 H   0  0  0  0  0  0  0  0  0  0  0  0
    0.9922   15.2889  -27.0340 H   0  0  0  0  0  0  0  0  0  0  0  0
    2.4529   16.3344  -27.0340 H   0  0  0  0  0  0  0  0  0  0  0  0
    0.8232   16.7785  -31.5680 H   0  0  0  0  0  0  0  0  0  0  0  0
   -0.9929   20.0828  -31.4185 H   0  0  0  0  0  0  0  0  0  0  0  0
    0.4308   19.4245  -32.2939 H   0  0  0  0  0  0  0  0  0  0  0  0
   -1.1208   18.5194  -32.2939 H   0  0  0  0  0  0  0  0  0  0  0  0
   -2.5589   19.2728  -27.6993 H   0  0  0  0  0  0  0  0  0  0  0  0
   -3.7427   21.4136  -27.2501 H   0  0  0  0  0  0  0  0  0  0  0  0
  1  2  1  0
  2  3  1  0
  3  4  1  0
  4  5  1  0
  5  6  2  0
  5  7  1  0
  7  8  1  0
  8  9  2  0
  9 10  1  0
 10 11  2  0
 11 12  1  0
 12 13  2  0
 13 14  1  0
 14 15  1  0
  4 16  1  0
 16 17  2  0
 17 18  1  0
 18 19  2  0
 19 20  1  0
 20 21  2  0
 21 22  1  0
 22 23  1  0
 22 24  2  0
 24 25  1  0
 25 26  2  0
 26 27  1  0
 19 28  1  0
 28 29  2  0
 13  8  1  0
 29 16  1  0
 26 20  1  0
  1 30  1  0
  1 31  1  0
  1 32  1  0
  2 33  1  0
  2 34  1  0
  3 35  1  0
  3 36  1  0
  4 37  1  6
  9 38  1  0
 10 39  1  0
 11 40  1  0
 12 41  1  0
 15 42  1  0
 15 43  1  0
 15 44  1  0
 17 45  1  0
 18 46  1  0
 23 47  1  0
 23 48  1  0
 23 49  1  0
 25 50  1  0
 27 51  1  0
 27 52  1  0
 27 53  1  0
 28 54  1  0
 29 55  1  0
M  CHG  2   4   1   7  -1
M  END
>  <UniqueID>  (30) 
28

>  <SMILES>  (30) 
CCC[N@@H+](C(=O)[N-]c1ccccc1OC)c1ccc(-c2nc(C)ncc2C)cc1

>  <Energy>  (30) 
78.50795553070506

>  <Genealogy>  (30) 
CCC[NH+](C(=O)[N-]c1ccccc1OC)c1ccc(-c2nc(C)ncc2C)cc1 (protonated)
CCC[N@@H+](C(=O)[N-]c1ccccc1OC)c1ccc(-c2nc(C)ncc2C)cc1 (chirality)
CCC[N@@H+](C(=O)[N-]c1ccccc1OC)c1ccc(-c2nc(C)ncc2C)cc1 (3D coordinates assigned)
CCC[N@@H+](C(=O)[N-]c1ccccc1OC)c1ccc(-c2nc(C)ncc2C)cc1 (optimized conformer: 78.50795553070506 kcal/mol)

>  <smiles>  (30) 
CCCN(C(=O)Nc1ccccc1OC)c1ccc(-c2nc(C)ncc2C)cc1

>  <score_type>  (30) 
oracle

>  <origin>  (30) 
adgpu

>  <m_score__min__energy>  (30) 
-8.9100000000000001

>  <m_primary>  (30) 
energy

$$$$
30:0
     RDKit          3D

 51 54  0  0  0  0  0  0  0  0999 V2000
   -1.0100   25.2960  -26.1890 C   0  0  0  0  0  0  0  0  0  0  0  0
   -1.5960   24.5500  -27.3510 C   0  0  0  0  0  0  0  0  0  0  0  0
   -1.5950   23.1500  -27.3640 C   0  0  0  0  0  0  0  0  0  0  0  0
   -2.1730   22.4540  -28.4300 C   0  0  0  0  0  0  0  0  0  0  0  0
   -2.7650   23.1470  -29.4990 C   0  0  0  0  0  0  0  0  0  0  0  0
   -3.3630   22.3770  -30.6150 C   0  0  0  0  0  0  0  0  0  0  0  0
   -4.7520   22.2170  -30.7330 C   0  0  0  0  0  0  0  0  0  0  0  0
   -5.2840   21.4980  -31.8140 C   0  0  0  0  0  0  0  0  0  0  0  0
   -6.7530   21.3160  -31.9480 C   0  0  0  0  0  0  0  0  0  0  0  0
   -7.2820   20.1320  -32.4980 C   0  0  0  0  0  0  0  0  0  0  0  0
   -8.6630   19.9650  -32.6230 C   0  0  0  0  0  0  0  0  0  0  0  0
   -9.5330   20.9740  -32.2020 C   0  0  0  0  0  0  0  0  0  0  0  0
   -9.0210   22.1530  -31.6560 C   0  0  0  0  0  0  0  0  0  0  0  0
   -7.6400   22.3250  -31.5290 C   0  0  0  0  0  0  0  0  0  0  0  0
   -4.4070   20.9590  -32.7690 C   0  0  0  0  0  0  0  0  0  0  0  0
   -3.0230   21.1510  -32.6350 C   0  0  0  0  0  0  0  0  0  0  0  0
   -2.0760   20.6080  -33.6330 C   0  0  0  0  0  0  0  0  0  0  0  0
   -2.5080   19.9220  -34.5990 O   0  0  0  0  0  0  0  0  0  0  0  0
   -0.6660   20.8590  -33.5110 N   0  0  0  0  0  0  0  0  0  0  0  0
    0.2950   20.4240  -34.5220 C   0  0  0  0  0  0  0  0  0  0  0  0
    1.0200   21.6110  -35.0950 C   0  0  0  0  0  0  0  0  0  0  0  0
    2.4190   21.6890  -35.0050 C   0  0  0  0  0  0  0  0  0  0  0  0
    3.0970   22.8000  -35.5160 C   0  0  0  0  0  0  0  0  0  0  0  0
    4.4480   22.8680  -35.4280 F   0  0  0  0  0  0  0  0  0  0  0  0
    2.3830   23.8420  -36.1130 C   0  0  0  0  0  0  0  0  0  0  0  0
    0.9890   23.7760  -36.2010 C   0  0  0  0  0  0  0  0  0  0  0  0
    0.2970   24.7900  -36.7760 F   0  0  0  0  0  0  0  0  0  0  0  0
    0.3080   22.6650  -35.6910 C   0  0  0  0  0  0  0  0  0  0  0  0
   -2.5490   21.8520  -31.5710 N   0  0  0  0  0  0  0  0  0  0  0  0
   -2.8030   24.5570  -29.4620 C   0  0  0  0  0  0  0  0  0  0  0  0
   -3.4460   25.2830  -30.4610 O   0  0  0  0  0  0  0  0  0  0  0  0
   -2.2180   25.2490  -28.3950 C   0  0  0  0  0  0  0  0  0  0  0  0
   -1.3630   24.8466  -25.2491 H   0  0  0  0  0  0  0  0  0  0  0  0
    0.0877   25.2394  -26.2329 H   0  0  0  0  0  0  0  0  0  0  0  0
   -1.3249   26.3490  -26.2329 H   0  0  0  0  0  0  0  0  0  0  0  0
   -1.1374   22.5951  -26.5317 H   0  0  0  0  0  0  0  0  0  0  0  0
   -2.1641   21.3540  -28.4316 H   0  0  0  0  0  0  0  0  0  0  0  0
   -5.4229   22.6546  -29.9791 H   0  0  0  0  0  0  0  0  0  0  0  0
   -6.6028   19.3335  -32.8313 H   0  0  0  0  0  0  0  0  0  0  0  0
   -9.0667   19.0369  -33.0539 H   0  0  0  0  0  0  0  0  0  0  0  0
  -10.6203   20.8398  -32.3005 H   0  0  0  0  0  0  0  0  0  0  0  0
   -9.7060   22.9477  -31.3253 H   0  0  0  0  0  0  0  0  0  0  0  0
   -7.2433   23.2562  -31.0982 H   0  0  0  0  0  0  0  0  0  0  0  0
   -4.8039   20.3872  -33.6208 H   0  0  0  0  0  0  0  0  0  0  0  0
   -0.3000   21.3720  -32.6780 H   0  0  0  0  0  0  0  0  0  0  0  0
    1.0237   19.7413  -34.0606 H   0  0  0  0  0  0  0  0  0  0  0  0
   -0.2437   19.9081  -35.3305 H   0  0  0  0  0  0  0  0  0  0  0  0
    2.9838   20.8729  -34.5307 H   0  0  0  0  0  0  0  0  0  0  0  0
    2.9181   24.7153  -36.5143 H   0  0  0  0  0  0  0  0  0  0  0  0
   -0.7890   22.6169  -35.7571 H   0  0  0  0  0  0  0  0  0  0  0  0
   -2.2465   26.3485  -28.3756 H   0  0  0  0  0  0  0  0  0  0  0  0
  1  2  1  0
  2  3  2  0
  3  4  1  0
  4  5  2  0
  5  6  1  0
  6  7  2  0
  7  8  1  0
  8  9  1  0
  9 10  2  0
 10 11  1  0
 11 12  2  0
 12 13  1  0
 13 14  2  0
  8 15  2  0
 15 16  1  0
 16 17  1  0
 17 18  2  0
 17 19  1  0
 19 20  1  0
 20 21  1  0
 21 22  2  0
 22 23  1  0
 23 24  1  0
 23 25  2  0
 25 26  1  0
 26 27  1  0
 26 28  2  0
 16 29  2  0
  5 30  1  0
 30 31  1  0
 30 32  2  0
 32  2  1  0
 29  6  1  0
 14  9  1  0
 28 21  1  0
  1 33  1  0
  1 34  1  0
  1 35  1  0
  3 36  1  0
  4 37  1  0
  7 38  1  0
 10 39  1  0
 11 40  1  0
 12 41  1  0
 13 42  1  0
 14 43  1  0
 15 44  1  0
 19 45  1  0
 20 46  1  0
 20 47  1  0
 22 48  1  0
 25 49  1  0
 28 50  1  0
 32 51  1  0
M  CHG  1  31  -1
M  END
>  <UniqueID>  (31) 
29

>  <SMILES>  (31) 
Cc1ccc(-c2cc(-c3ccccc3)cc(C(=O)NCc3cc(F)cc(F)c3)n2)c([O-])c1

>  <Energy>  (31) 
64.08728239409804

>  <Genealogy>  (31) 
Cc1ccc(-c2cc(-c3ccccc3)cc(C(=O)NCc3cc(F)cc(F)c3)n2)c([O-])c1 (protonated)
Cc1ccc(-c2cc(-c3ccccc3)cc(C(=O)NCc3cc(F)cc(F)c3)n2)c([O-])c1 (3D coordinates assigned)
Cc1ccc(-c2cc(-c3ccccc3)cc(C(=O)NCc3cc(F)cc(F)c3)n2)c([O-])c1 (optimized conformer: 64.08728239409804 kcal/mol)

>  <smiles>  (31) 
Cc1ccc(-c2cc(-c3ccccc3)cc(C(=O)NCc3cc(F)cc(F)c3)n2)c(O)c1

>  <score_type>  (31) 
oracle

>  <origin>  (31) 
adgpu

>  <m_score__min__energy>  (31) 
-13.07

>  <m_primary>  (31) 
energy

$$$$
31:0
     RDKit          3D

 32 33  0  0  0  0  0  0  0  0999 V2000
   -6.3560   24.6810  -30.1420 C   0  0  0  0  0  0  0  0  0  0  0  0
   -5.2180   25.6240  -30.3850 C   0  0  0  0  0  0  0  0  0  0  0  0
   -5.4550   26.8570  -30.4650 O   0  0  0  0  0  0  0  0  0  0  0  0
   -3.8610   25.1700  -30.4870 N   0  0  0  0  0  0  0  0  0  0  0  0
   -3.4140   23.8080  -30.5240 C   0  0  0  0  0  0  0  0  0  0  0  0
   -2.3500   23.4240  -29.6970 C   0  0  0  0  0  0  0  0  0  0  0  0
   -1.8720   22.1120  -29.7240 C   0  0  0  0  0  0  0  0  0  0  0  0
   -2.4380   21.1780  -30.5950 C   0  0  0  0  0  0  0  0  0  0  0  0
   -3.4810   21.5550  -31.4550 C   0  0  0  0  0  0  0  0  0  0  0  0
   -4.0610   20.5510  -32.4170 C   0  0  0  0  0  0  0  0  0  0  0  0
   -5.1990   21.1270  -33.1350 N   0  0  0  0  0  0  0  0  0  0  0  0
   -6.5680   21.0300  -32.6890 C   0  0  0  0  0  0  0  0  0  0  0  0
   -7.2490   22.1500  -32.1890 C   0  0  0  0  0  0  0  0  0  0  0  0
   -8.5350   22.0320  -31.7700 N   0  0  0  0  0  0  0  0  0  0  0  0
   -9.1830   20.8680  -31.8190 N   0  0  0  0  0  0  0  0  0  0  0  0
   -8.5810   19.7440  -32.2890 C   0  0  0  0  0  0  0  0  0  0  0  0
   -9.2200   18.6580  -32.3240 O   0  0  0  0  0  0  0  0  0  0  0  0
   -7.2540   19.8010  -32.7340 C   0  0  0  0  0  0  0  0  0  0  0  0
   -6.4900   18.3450  -33.3720 Cl  0  0  0  0  0  0  0  0  0  0  0  0
   -3.9620   22.8740  -31.4200 C   0  0  0  0  0  0  0  0  0  0  0  0
   -6.5050   24.5575  -29.0592 H   0  0  0  0  0  0  0  0  0  0  0  0
   -7.2724   25.0880  -30.5942 H   0  0  0  0  0  0  0  0  0  0  0  0
   -6.1263   23.7049  -30.5942 H   0  0  0  0  0  0  0  0  0  0  0  0
   -1.8885   24.1603  -29.0225 H   0  0  0  0  0  0  0  0  0  0  0  0
   -1.0486   21.8137  -29.0584 H   0  0  0  0  0  0  0  0  0  0  0  0
   -2.0648   20.1433  -30.6068 H   0  0  0  0  0  0  0  0  0  0  0  0
   -3.2879   20.2554  -33.1415 H   0  0  0  0  0  0  0  0  0  0  0  0
   -4.4052   19.6732  -31.8504 H   0  0  0  0  0  0  0  0  0  0  0  0
   -4.9770   21.6920  -33.9850 H   0  0  0  0  0  0  0  0  0  0  0  0
   -6.7408   23.1242  -32.1364 H   0  0  0  0  0  0  0  0  0  0  0  0
  -10.1730   20.8270  -31.4870 H   0  0  0  0  0  0  0  0  0  0  0  0
   -4.7729   23.1781  -32.0982 H   0  0  0  0  0  0  0  0  0  0  0  0
  1  2  1  0
  2  3  2  0
  2  4  1  0
  4  5  1  0
  5  6  2  0
  6  7  1  0
  7  8  2  0
  8  9  1  0
  9 10  1  0
 10 11  1  0
 11 12  1  0
 12 13  1  0
 13 14  2  0
 14 15  1  0
 15 16  1  0
 16 17  2  0
 16 18  1  0
 18 19  1  0
  9 20  2  0
 20  5  1  0
 18 12  2  0
  1 21  1  0
  1 22  1  0
  1 23  1  0
  6 24  1  0
  7 25  1  0
  8 26  1  0
 10 27  1  0
 10 28  1  0
 11 29  1  0
 13 30  1  0
 15 31  1  0
 20 32  1  0
M  CHG  1   4  -1
M  END
>  <UniqueID>  (32) 
30

>  <SMILES>  (32) 
CC(=O)[N-]c1cccc(CNc2cn[nH]c(=O)c2Cl)c1

>  <Energy>  (32) 
37.73810009918593

>  <Genealogy>  (32) 
CC(=O)[N-]c1cccc(CNc2cn[nH]c(=O)c2Cl)c1 (protonated)
CC(=O)[N-]c1cccc(CNc2cn[nH]c(=O)c2Cl)c1 (3D coordinates assigned)
CC(=O)[N-]c1cccc(CNc2cn[nH]c(=O)c2Cl)c1 (optimized conformer: 37.73810009918593 kcal/mol)

>  <smiles>  (32) 
CC(=O)Nc1cccc(CNc2cn[nH]c(=O)c2Cl)c1

>  <score_type>  (32) 
oracle

>  <origin>  (32) 
adgpu

>  <m_score__min__energy>  (32) 
-9.2100000000000009

>  <m_primary>  (32) 
energy

$$$$
32:0
     RDKit          3D

 28 29  0  0  0  0  0  0  0  0999 V2000
   -6.0330   25.6540  -29.9930 C   0  0  0  0  0  0  0  0  0  0  0  0
   -5.5850   24.4090  -30.6390 N   0  0  0  0  0  0  0  0  0  0  0  0
   -4.2510   24.0880  -30.6900 C   0  0  0  0  0  0  0  0  0  0  0  0
   -3.2490   24.9210  -30.0860 N   0  0  0  0  0  0  0  0  0  0  0  0
   -2.5270   24.5710  -29.0630 C   0  0  0  0  0  0  0  0  0  0  0  0
   -1.5970   25.4740  -28.5340 C   0  0  0  0  0  0  0  0  0  0  0  0
   -0.8170   25.0940  -27.4390 C   0  0  0  0  0  0  0  0  0  0  0  0
   -0.9680   23.8200  -26.8870 C   0  0  0  0  0  0  0  0  0  0  0  0
   -1.9000   22.9420  -27.4430 C   0  0  0  0  0  0  0  0  0  0  0  0
   -2.6510   23.3300  -28.5080 N   0  0  0  0  0  0  0  0  0  0  0  0
   -3.8360   22.9380  -31.3540 C   0  0  0  0  0  0  0  0  0  0  0  0
   -4.7900   22.0970  -31.9130 C   0  0  0  0  0  0  0  0  0  0  0  0
   -4.4060   21.0400  -32.4870 O   0  0  0  0  0  0  0  0  0  0  0  0
   -6.1200   22.4090  -31.8290 N   0  0  0  0  0  0  0  0  0  0  0  0
   -7.1290   21.4880  -32.3790 C   0  0  0  0  0  0  0  0  0  0  0  0
   -6.5150   23.5460  -31.1660 C   0  0  0  0  0  0  0  0  0  0  0  0
   -7.7470   23.7990  -31.0410 O   0  0  0  0  0  0  0  0  0  0  0  0
   -5.9905   25.5359  -28.9002 H   0  0  0  0  0  0  0  0  0  0  0  0
   -5.3765   26.4822  -30.2981 H   0  0  0  0  0  0  0  0  0  0  0  0
   -7.0667   25.8740  -30.2981 H   0  0  0  0  0  0  0  0  0  0  0  0
   -1.4814   26.4743  -28.9768 H   0  0  0  0  0  0  0  0  0  0  0  0
   -0.0857   25.7965  -27.0127 H   0  0  0  0  0  0  0  0  0  0  0  0
   -0.3595   23.5120  -26.0240 H   0  0  0  0  0  0  0  0  0  0  0  0
   -2.0270   21.9350  -27.0190 H   0  0  0  0  0  0  0  0  0  0  0  0
   -2.7657   22.6976  -31.4354 H   0  0  0  0  0  0  0  0  0  0  0  0
   -7.6663   20.9976  -31.5539 H   0  0  0  0  0  0  0  0  0  0  0  0
   -7.8427   22.0526  -32.9970 H   0  0  0  0  0  0  0  0  0  0  0  0
   -6.6317   20.7259  -32.9970 H   0  0  0  0  0  0  0  0  0  0  0  0
  1  2  1  0
  2  3  1  0
  3  4  1  0
  4  5  2  3
  5  6  1  0
  6  7  2  0
  7  8  1  0
  8  9  2  0
  9 10  1  0
  3 11  2  0
 11 12  1  0
 12 13  2  0
 12 14  1  0
 14 15  1  0
 14 16  1  0
 16 17  2  0
 16  2  1  0
 10  5  1  0
  1 18  1  0
  1 19  1  0
  1 20  1  0
  6 21  1  0
  7 22  1  0
  8 23  1  0
  9 24  1  0
 11 25  1  0
 15 26  1  0
 15 27  1  0
 15 28  1  0
M  CHG  1  10  -1
M  END
>  <UniqueID>  (33) 
31

>  <SMILES>  (33) 
Cn1c(N=c2cccc[n-]2)cc(=O)n(C)c1=O

>  <Energy>  (33) 
44.97559806545033

>  <Genealogy>  (33) 
Cn1c(N=c2cccc[n-]2)cc(=O)n(C)c1=O (protonated)
Cn1c(N=c2cccc[n-]2)cc(=O)n(C)c1=O (3D coordinates assigned)
Cn1c(N=c2cccc[n-]2)cc(=O)n(C)c1=O (optimized conformer: 44.97559806545033 kcal/mol)

>  <smiles>  (33) 
Cn1c(N=c2cccc[nH]2)cc(=O)n(C)c1=O

>  <score_type>  (33) 
oracle

>  <origin>  (33) 
adgpu

>  <m_score__min__energy>  (33) 
-6.25

>  <m_primary>  (33) 
energy

$$$$
33:0
     RDKit          3D

 31 33  0  0  0  0  0  0  0  0999 V2000
   -9.7397   23.3496  -31.7480 H   0  0  0  0  0  0  0  0  0  0  0  0
   -8.8870   22.6680  -31.8830 C   0  0  0  0  0  0  0  0  0  0  0  0
   -9.1030   21.2910  -31.9710 C   0  0  0  0  0  0  0  0  0  0  0  0
  -10.1247   20.8894  -31.9017 H   0  0  0  0  0  0  0  0  0  0  0  0
   -8.0220   20.4230  -32.1470 C   0  0  0  0  0  0  0  0  0  0  0  0
   -8.2960   18.6940  -32.2660 Cl  0  0  0  0  0  0  0  0  0  0  0  0
   -6.7210   20.9340  -32.2310 C   0  0  0  0  0  0  0  0  0  0  0  0
   -5.8729   20.2494  -32.3792 H   0  0  0  0  0  0  0  0  0  0  0  0
   -6.4930   22.3170  -32.1270 C   0  0  0  0  0  0  0  0  0  0  0  0
   -5.1150   22.8530  -32.2340 C   0  0  0  0  0  0  0  0  0  0  0  0
   -4.3280   22.3610  -33.0870 O   0  0  0  0  0  0  0  0  0  0  0  0
   -4.6540   23.9540  -31.4350 N   0  0  0  0  0  0  0  0  0  0  0  0
   -3.8260   23.8690  -30.4360 C   0  0  0  0  0  0  0  0  0  0  0  0
   -3.2130   22.7280  -30.0520 N   0  0  0  0  0  0  0  0  0  0  0  0
   -2.4520   23.1540  -29.0220 C   0  0  0  0  0  0  0  0  0  0  0  0
   -1.7938   22.5035  -28.4273 H   0  0  0  0  0  0  0  0  0  0  0  0
   -2.6010   24.4800  -28.8140 N   0  0  0  0  0  0  0  0  0  0  0  0
   -1.9630   25.3010  -27.8120 C   0  0  0  0  0  0  0  0  0  0  0  0
   -0.8610   26.1220  -28.1260 C   0  0  0  0  0  0  0  0  0  0  0  0
   -0.4714   26.1433  -29.1545 H   0  0  0  0  0  0  0  0  0  0  0  0
   -0.2600   26.9090  -27.1400 C   0  0  0  0  0  0  0  0  0  0  0  0
    0.5997   27.5458  -27.3956 H   0  0  0  0  0  0  0  0  0  0  0  0
   -0.7470   26.8900  -25.8310 C   0  0  0  0  0  0  0  0  0  0  0  0
   -0.1610   27.6550  -24.8770 F   0  0  0  0  0  0  0  0  0  0  0  0
   -1.8390   26.0840  -25.5070 C   0  0  0  0  0  0  0  0  0  0  0  0
   -2.2241   26.0700  -24.4767 H   0  0  0  0  0  0  0  0  0  0  0  0
   -2.4450   25.2940  -26.4890 C   0  0  0  0  0  0  0  0  0  0  0  0
   -3.3057   24.6616  -26.2256 H   0  0  0  0  0  0  0  0  0  0  0  0
   -3.4640   24.9370  -29.7050 N   0  0  0  0  0  0  0  0  0  0  0  0
   -7.5900   23.1820  -31.9660 C   0  0  0  0  0  0  0  0  0  0  0  0
   -7.4265   24.2681  -31.9051 H   0  0  0  0  0  0  0  0  0  0  0  0
  1  2  1  0
  2  3  2  0
  3  4  1  0
  3  5  1  0
  5  6  1  0
  5  7  2  0
  7  8  1  0
  7  9  1  0
  9 10  1  0
 10 11  2  0
 10 12  1  0
 12 13  2  0
 13 14  1  0
 14 15  2  0
 15 16  1  0
 15 17  1  0
 17 18  1  0
 18 19  2  0
 19 20  1  0
 19 21  1  0
 21 22  1  0
 21 23  2  0
 23 24  1  0
 23 25  1  0
 25 26  1  0
 25 27  2  0
 27 28  1  0
 17 29  1  0
  9 30  2  0
 30 31  1  0
 30  2  1  0
 29 13  1  0
 27 18  1  0
M  CHG  1  29  -1
M  END
>  <UniqueID>  (34) 
32

>  <SMILES>  (34) 
O=C(/N=c1\ncn(-c2ccc(F)cc2)[n-]1)c1cccc(Cl)c1

>  <Energy>  (34) 
77.11758842670518

>  <Genealogy>  (34) 
O=C(N=c1ncn(-c2ccc(F)cc2)[n-]1)c1cccc(Cl)c1 (protonated)
O=C(/N=c1\ncn(-c2ccc(F)cc2)[n-]1)c1cccc(Cl)c1 (cis-trans isomerization)
O=C(/N=c1\ncn(-c2ccc(F)cc2)[n-]1)c1cccc(Cl)c1 (3D coordinates assigned)
O=C(/N=c1\ncn(-c2ccc(F)cc2)[n-]1)c1cccc(Cl)c1 (optimized conformer: 77.11758842670518 kcal/mol)

>  <smiles>  (34) 
O=C(N=c1ncn(-c2ccc(F)cc2)[nH]1)c1cccc(Cl)c1

>  <score_type>  (34) 
oracle

>  <origin>  (34) 
adgpu

>  <m_score__min__energy>  (34) 
-8.9700000000000006

>  <m_primary>  (34) 
energy

$$$$
34:0
     RDKit          3D

 55 57  0  0  0  0  0  0  0  0999 V2000
   -2.6990   21.2670  -31.5870 C   0  0  0  0  0  0  0  0  0  0  0  0
   -4.1700   21.3180  -31.1660 C   0  0  0  0  0  0  0  0  0  0  0  0
   -5.1260   21.4590  -32.3780 C   0  0  2  0  0  0  0  0  0  0  0  0
   -5.3970   22.8710  -32.7270 N   0  0  0  0  0  0  0  0  0  0  0  0
   -5.6130   23.7140  -31.5880 C   0  0  0  0  0  0  0  0  0  0  0  0
   -4.7940   24.3610  -30.6790 C   0  0  0  0  0  0  0  0  0  0  0  0
   -3.3800   24.4220  -30.4790 N   0  0  0  0  0  0  0  0  0  0  0  0
   -2.7540   24.0790  -29.2370 C   0  0  0  0  0  0  0  0  0  0  0  0
   -3.0880   22.8660  -28.6180 C   0  0  0  0  0  0  0  0  0  0  0  0
   -2.4500   22.4740  -27.4400 C   0  0  0  0  0  0  0  0  0  0  0  0
   -1.4610   23.2830  -26.8770 C   0  0  0  0  0  0  0  0  0  0  0  0
   -1.1070   24.4970  -27.4830 C   0  0  0  0  0  0  0  0  0  0  0  0
   -0.0110   25.3000  -26.9040 C   0  0  0  0  0  0  0  0  0  0  0  0
    1.1310   25.2390  -27.4370 O   0  0  0  0  0  0  0  0  0  0  0  0
   -0.2130   26.1330  -25.7460 N   0  0  0  0  0  0  0  0  0  0  0  0
    0.7010   27.2510  -25.5010 C   0  0  0  0  0  0  0  0  0  0  0  0
   -1.2460   25.7930  -24.7620 C   0  0  0  0  0  0  0  0  0  0  0  0
   -1.7430   24.8890  -28.6780 C   0  0  0  0  0  0  0  0  0  0  0  0
   -1.3340   26.0440  -29.3390 O   0  0  0  0  0  0  0  0  0  0  0  0
   -5.9120   24.8630  -30.0360 C   0  0  0  0  0  0  0  0  0  0  0  0
   -6.1110   25.5780  -29.0200 O   0  0  0  0  0  0  0  0  0  0  0  0
   -6.7260   24.2450  -30.9630 C   0  0  0  0  0  0  0  0  0  0  0  0
   -7.9680   24.1790  -31.1520 O   0  0  0  0  0  0  0  0  0  0  0  0
   -6.4050   20.5980  -32.3990 C   0  0  0  0  0  0  0  0  0  0  0  0
   -7.5800   21.2500  -31.9600 C   0  0  0  0  0  0  0  0  0  0  0  0
   -8.8050   20.5900  -31.9060 C   0  0  0  0  0  0  0  0  0  0  0  0
   -8.8940   19.2560  -32.2800 C   0  0  0  0  0  0  0  0  0  0  0  0
   -7.7540   18.5720  -32.6970 C   0  0  0  0  0  0  0  0  0  0  0  0
   -6.4980   19.2090  -32.7460 C   0  0  0  0  0  0  0  0  0  0  0  0
   -5.3350   18.3660  -33.2070 C   0  0  0  0  0  0  0  0  0  0  0  0
   -2.0617   21.2449  -30.6907 H   0  0  0  0  0  0  0  0  0  0  0  0
   -2.5203   20.3621  -32.1864 H   0  0  0  0  0  0  0  0  0  0  0  0
   -2.4581   22.1573  -32.1864 H   0  0  0  0  0  0  0  0  0  0  0  0
   -4.4160   20.3907  -30.6279 H   0  0  0  0  0  0  0  0  0  0  0  0
   -4.3058   22.2027  -30.5265 H   0  0  0  0  0  0  0  0  0  0  0  0
   -4.5296   20.9995  -33.1800 H   0  0  0  0  0  0  0  0  0  0  0  0
   -6.2490   22.9230  -33.3330 H   0  0  0  0  0  0  0  0  0  0  0  0
   -4.5970   23.2620  -33.2790 H   0  0  0  0  0  0  0  0  0  0  0  0
   -2.7770   24.5850  -31.3160 H   0  0  0  0  0  0  0  0  0  0  0  0
   -3.8579   22.2190  -29.0637 H   0  0  0  0  0  0  0  0  0  0  0  0
   -2.7267   21.5265  -26.9546 H   0  0  0  0  0  0  0  0  0  0  0  0
   -0.9564   22.9661  -25.9524 H   0  0  0  0  0  0  0  0  0  0  0  0
    0.8200   27.3966  -24.4172 H   0  0  0  0  0  0  0  0  0  0  0  0
    1.6801   27.0296  -25.9509 H   0  0  0  0  0  0  0  0  0  0  0  0
    0.2894   28.1665  -25.9509 H   0  0  0  0  0  0  0  0  0  0  0  0
   -0.8433   25.9255  -23.7470 H   0  0  0  0  0  0  0  0  0  0  0  0
   -2.1155   26.4523  -24.9005 H   0  0  0  0  0  0  0  0  0  0  0  0
   -1.5539   24.7461  -24.9005 H   0  0  0  0  0  0  0  0  0  0  0  0
   -7.5253   22.3050  -31.6534 H   0  0  0  0  0  0  0  0  0  0  0  0
   -9.7034   21.1264  -31.5665 H   0  0  0  0  0  0  0  0  0  0  0  0
   -9.8644   18.7391  -32.2471 H   0  0  0  0  0  0  0  0  0  0  0  0
   -7.8359   17.5158  -32.9933 H   0  0  0  0  0  0  0  0  0  0  0  0
   -4.7957   17.9751  -32.3316 H   0  0  0  0  0  0  0  0  0  0  0  0
   -5.7077   17.5269  -33.8128 H   0  0  0  0  0  0  0  0  0  0  0  0
   -4.6535   18.9813  -33.8128 H   0  0  0  0  0  0  0  0  0  0  0  0
  1  2  1  0
  2  3  1  0
  3  4  1  0
  4  5  1  0
  5  6  2  0
  6  7  1  0
  7  8  1  0
  8  9  2  0
  9 10  1  0
 10 11  2  0
 11 12  1  0
 12 13  1  0
 13 14  2  0
 13 15  1  0
 15 16  1  0
 15 17  1  0
 12 18  2  0
 18 19  1  0
  6 20  1  0
 20 21  2  0
 20 22  1  0
 22 23  2  0
  3 24  1  0
 24 25  2  0
 25 26  1  0
 26 27  2  0
 27 28  1  0
 28 29  2  0
 29 30  1  0
 22  5  1  0
 29 24  1  0
 18  8  1  0
  1 31  1  0
  1 32  1  0
  1 33  1  0
  2 34  1  0
  2 35  1  0
  3 36  1  6
  4 37  1  0
  4 38  1  0
  7 39  1  0
  9 40  1  0
 10 41  1  0
 11 42  1  0
 16 43  1  0
 16 44  1  0
 16 45  1  0
 17 46  1  0
 17 47  1  0
 17 48  1  0
 25 49  1  0
 26 50  1  0
 27 51  1  0
 28 52  1  0
 30 53  1  0
 30 54  1  0
 30 55  1  0
M  CHG  2   4   1  19  -1
M  END
>  <UniqueID>  (35) 
33

>  <SMILES>  (35) 
CC[C@H]([NH2+]c1c(Nc2cccc(C(=O)N(C)C)c2[O-])c(=O)c1=O)c1ccccc1C

>  <Energy>  (35) 
64.42671809425994

>  <Genealogy>  (35) 
CCC([NH2+]c1c(Nc2cccc(C(=O)N(C)C)c2[O-])c(=O)c1=O)c1ccccc1C (protonated)
CC[C@H]([NH2+]c1c(Nc2cccc(C(=O)N(C)C)c2[O-])c(=O)c1=O)c1ccccc1C (chirality)
CC[C@H]([NH2+]c1c(Nc2cccc(C(=O)N(C)C)c2[O-])c(=O)c1=O)c1ccccc1C (3D coordinates assigned)
CC[C@H]([NH2+]c1c(Nc2cccc(C(=O)N(C)C)c2[O-])c(=O)c1=O)c1ccccc1C (optimized conformer: 64.42671809425994 kcal/mol)

>  <smiles>  (35) 
CCC(Nc1c(Nc2cccc(C(=O)N(C)C)c2O)c(=O)c1=O)c1ccccc1C

>  <score_type>  (35) 
oracle

>  <origin>  (35) 
adgpu

>  <m_score__min__energy>  (35) 
-12.57

>  <m_primary>  (35) 
energy

$$$$
35:0
     RDKit          3D

 43 46  0  0  0  0  0  0  0  0999 V2000
   -2.3920   24.8930  -27.1870 C   0  0  0  0  0  0  0  0  0  0  0  0
   -2.0260   24.9030  -28.5640 O   0  0  0  0  0  0  0  0  0  0  0  0
   -2.2980   23.8620  -29.4670 C   0  0  0  0  0  0  0  0  0  0  0  0
   -1.6200   22.6320  -29.4130 C   0  0  0  0  0  0  0  0  0  0  0  0
   -1.9180   21.6190  -30.3270 C   0  0  0  0  0  0  0  0  0  0  0  0
   -2.8980   21.8140  -31.3140 C   0  0  0  0  0  0  0  0  0  0  0  0
   -3.2260   20.7460  -32.2880 C   0  0  0  0  0  0  0  0  0  0  0  0
   -4.0810   19.6750  -32.1110 C   0  0  0  0  0  0  0  0  0  0  0  0
   -4.0650   18.9840  -33.2660 N   0  0  0  0  0  0  0  0  0  0  0  0
   -4.7490   17.7570  -33.5600 C   0  0  0  0  0  0  0  0  0  0  0  0
   -4.0880   16.6670  -34.1200 C   0  0  0  0  0  0  0  0  0  0  0  0
   -5.1730   15.3910  -34.2220 S   0  0  0  0  0  0  0  0  0  0  0  0
   -6.4970   16.1990  -33.5760 C   0  0  0  0  0  0  0  0  0  0  0  0
   -6.1130   17.5030  -33.2720 C   0  0  0  0  0  0  0  0  0  0  0  0
   -7.0830   18.5080  -32.7880 C   0  0  0  0  0  0  0  0  0  0  0  0
   -6.9680   19.8560  -33.1720 C   0  0  0  0  0  0  0  0  0  0  0  0
   -7.8900   20.8010  -32.7140 C   0  0  0  0  0  0  0  0  0  0  0  0
   -8.9400   20.4080  -31.8790 C   0  0  0  0  0  0  0  0  0  0  0  0
   -9.0730   19.0680  -31.5070 C   0  0  0  0  0  0  0  0  0  0  0  0
   -8.1520   18.1190  -31.9630 C   0  0  0  0  0  0  0  0  0  0  0  0
   -3.2250   19.5810  -34.0970 N   0  0  0  0  0  0  0  0  0  0  0  0
   -2.7050   20.6600  -33.5300 N   0  0  0  0  0  0  0  0  0  0  0  0
   -3.5760   23.0440  -31.3650 C   0  0  0  0  0  0  0  0  0  0  0  0
   -3.2810   24.0690  -30.4460 C   0  0  0  0  0  0  0  0  0  0  0  0
   -3.9410   25.3090  -30.4740 O   0  0  0  0  0  0  0  0  0  0  0  0
   -5.3550   25.4720  -30.4350 C   0  0  0  0  0  0  0  0  0  0  0  0
   -1.4843   24.9178  -26.5662 H   0  0  0  0  0  0  0  0  0  0  0  0
   -3.0117   25.7745  -26.9659 H   0  0  0  0  0  0  0  0  0  0  0  0
   -2.9626   23.9789  -26.9659 H   0  0  0  0  0  0  0  0  0  0  0  0
   -0.8495   22.4661  -28.6457 H   0  0  0  0  0  0  0  0  0  0  0  0
   -1.3808   20.6606  -30.2735 H   0  0  0  0  0  0  0  0  0  0  0  0
   -4.6593   19.4350  -31.2066 H   0  0  0  0  0  0  0  0  0  0  0  0
   -3.0359   16.6459  -34.4403 H   0  0  0  0  0  0  0  0  0  0  0  0
   -7.4980   15.7706  -33.4196 H   0  0  0  0  0  0  0  0  0  0  0  0
   -6.1484   20.1680  -33.8360 H   0  0  0  0  0  0  0  0  0  0  0  0
   -7.7894   21.8554  -33.0109 H   0  0  0  0  0  0  0  0  0  0  0  0
   -9.6617   21.1540  -31.5148 H   0  0  0  0  0  0  0  0  0  0  0  0
   -9.9030   18.7588  -30.8547 H   0  0  0  0  0  0  0  0  0  0  0  0
   -8.2651   17.0635  -31.6745 H   0  0  0  0  0  0  0  0  0  0  0  0
   -4.3468   23.2079  -32.1325 H   0  0  0  0  0  0  0  0  0  0  0  0
   -5.6909   25.5107  -29.3883 H   0  0  0  0  0  0  0  0  0  0  0  0
   -5.6304   26.4078  -30.9433 H   0  0  0  0  0  0  0  0  0  0  0  0
   -5.8361   24.6234  -30.9433 H   0  0  0  0  0  0  0  0  0  0  0  0
  1  2  1  0
  2  3  1  0
  3  4  2  0
  4  5  1  0
  5  6  2  0
  6  7  1  0
  7  8  2  0
  8  9  1  0
  9 10  1  0
 10 11  2  0
 11 12  1  0
 12 13  1  0
 13 14  2  0
 14 15  1  0
 15 16  2  0
 16 17  1  0
 17 18  2  0
 18 19  1  0
 19 20  2  0
  9 21  1  0
 21 22  2  0
  6 23  1  0
 23 24  2  0
 24 25  1  0
 25 26  1  0
 24  3  1  0
 22  7  1  0
 14 10  1  0
 20 15  1  0
  1 27  1  0
  1 28  1  0
  1 29  1  0
  4 30  1  0
  5 31  1  0
  8 32  1  0
 11 33  1  0
 13 34  1  0
 16 35  1  0
 17 36  1  0
 18 37  1  0
 19 38  1  0
 20 39  1  0
 23 40  1  0
 26 41  1  0
 26 42  1  0
 26 43  1  0
M  END
>  <UniqueID>  (36) 
34

>  <SMILES>  (36) 
COc1ccc(-c2cn(-c3cscc3-c3ccccc3)nn2)cc1OC

>  <Energy>  (36) 
116.66937038850722

>  <Genealogy>  (36) 
COc1ccc(-c2cn(-c3cscc3-c3ccccc3)nn2)cc1OC (3D coordinates assigned)
COc1ccc(-c2cn(-c3cscc3-c3ccccc3)nn2)cc1OC (optimized conformer: 116.66937038850722 kcal/mol)

>  <smiles>  (36) 
COc1ccc(-c2cn(-c3cscc3-c3ccccc3)nn2)cc1OC

>  <score_type>  (36) 
oracle

>  <origin>  (36) 
adgpu

>  <m_score__min__energy>  (36) 
-9.3800000000000008

>  <m_primary>  (36) 
energy

$$$$
36:0
     RDKit          3D

 49 51  0  0  1  0  0  0  0  0999 V2000
   -0.4000   28.3810  -35.6630 C   0  0  0  0  0  0  0  0  0  0  0  0
    0.8590   28.1220  -36.2550 O   0  0  0  0  0  0  0  0  0  0  0  0
    1.4650   26.9040  -35.9650 C   0  0  0  0  0  0  0  0  0  0  0  0
    0.7310   25.7320  -36.0400 C   0  0  0  0  0  0  0  0  0  0  0  0
    1.3370   24.5090  -35.7480 C   0  0  0  0  0  0  0  0  0  0  0  0
    0.6380   23.4210  -35.8230 N   0  0  0  0  0  0  0  0  0  0  0  0
    1.3420   21.8710  -35.4720 S   0  0  0  0  0  0  0  0  0  0  0  0
    1.7010   21.1130  -36.6960 O   0  0  0  0  0  0  0  0  0  0  0  0
    2.5330   21.9710  -34.5840 O   0  0  0  0  0  0  0  0  0  0  0  0
    0.0420   20.9550  -34.6970 C   0  0  0  0  0  0  0  0  0  0  0  0
   -0.7380   21.5470  -33.7190 C   0  0  0  0  0  0  0  0  0  0  0  0
   -1.7400   20.8180  -33.1310 C   0  0  0  0  0  0  0  0  0  0  0  0
   -1.9700   19.5090  -33.5090 C   0  0  0  0  0  0  0  0  0  0  0  0
   -3.0060   18.7210  -32.9170 N   0  0  0  0  0  0  0  0  0  0  0  0
   -4.3610   19.1840  -32.9120 C   0  0  0  0  0  0  0  0  0  0  0  0
   -4.5670   20.2960  -33.4470 O   0  0  0  0  0  0  0  0  0  0  0  0
   -5.3790   18.3950  -32.3240 N   0  0  0  0  0  0  0  0  0  0  0  0
   -6.7430   18.7290  -32.2510 C   0  0  0  0  0  0  0  0  0  0  0  0
   -7.0910   20.0570  -32.4250 C   0  0  0  0  0  0  0  0  0  0  0  0
   -8.4040   20.4640  -32.3680 C   0  0  0  0  0  0  0  0  0  0  0  0
   -9.4440   19.5900  -32.1370 C   0  0  0  0  0  0  0  0  0  0  0  0
   -9.1110   18.2640  -31.9630 C   0  0  0  0  0  0  0  0  0  0  0  0
   -7.7730   17.8520  -32.0210 C   0  0  0  0  0  0  0  0  0  0  0  0
   -1.2050   18.8950  -34.4820 C   0  0  0  0  0  0  0  0  0  0  0  0
   -0.1840   19.6370  -35.0810 C   0  0  0  0  0  0  0  0  0  0  0  0
    2.6540   24.4580  -35.3870 N   0  0  0  0  0  0  0  0  0  0  0  0
    3.3310   25.5960  -35.3240 C   0  0  0  0  0  0  0  0  0  0  0  0
    4.6800   25.6240  -34.9640 O   0  0  0  0  0  0  0  0  0  0  0  0
    5.1070   26.4250  -33.8790 C   0  0  0  0  0  0  0  0  0  0  0  0
    2.7580   26.8020  -35.6050 N   0  0  0  0  0  0  0  0  0  0  0  0
   -0.3013   28.3607  -34.5676 H   0  0  0  0  0  0  0  0  0  0  0  0
   -0.7577   29.3715  -35.9806 H   0  0  0  0  0  0  0  0  0  0  0  0
   -1.1197   27.6121  -35.9806 H   0  0  0  0  0  0  0  0  0  0  0  0
   -0.3297   25.7649  -36.3297 H   0  0  0  0  0  0  0  0  0  0  0  0
   -0.5566   22.5891  -33.4170 H   0  0  0  0  0  0  0  0  0  0  0  0
   -2.3654   21.2790  -32.3524 H   0  0  0  0  0  0  0  0  0  0  0  0
   -2.7520   17.8020  -32.4900 H   0  0  0  0  0  0  0  0  0  0  0  0
   -5.0620   17.4820  -31.9110 H   0  0  0  0  0  0  0  0  0  0  0  0
   -6.3030   20.8013  -32.6124 H   0  0  0  0  0  0  0  0  0  0  0  0
   -8.6328   21.5302  -32.5127 H   0  0  0  0  0  0  0  0  0  0  0  0
  -10.4881   19.9336  -32.0936 H   0  0  0  0  0  0  0  0  0  0  0  0
   -9.9023   17.5229  -31.7770 H   0  0  0  0  0  0  0  0  0  0  0  0
   -7.5398   16.7867  -31.8769 H   0  0  0  0  0  0  0  0  0  0  0  0
   -1.3943   17.8522  -34.7765 H   0  0  0  0  0  0  0  0  0  0  0  0
    0.4434   19.1775  -35.8590 H   0  0  0  0  0  0  0  0  0  0  0  0
    3.1130   23.5340  -35.1680 H   0  0  0  0  0  0  0  0  0  0  0  0
    4.8435   25.9307  -32.9323 H   0  0  0  0  0  0  0  0  0  0  0  0
    6.1973   26.5611  -33.9305 H   0  0  0  0  0  0  0  0  0  0  0  0
    4.6122   27.4061  -33.9305 H   0  0  0  0  0  0  0  0  0  0  0  0
  1  2  1  0
  2  3  1  0
  3  4  2  0
  4  5  1  0
  5  6  2  0
  6  7  1  0
  7  8  2  0
  7  9  2  0
  7 10  1  0
 10 11  2  0
 11 12  1  0
 12 13  2  0
 13 14  1  0
 14 15  1  0
 15 16  2  0
 15 17  1  0
 17 18  1  0
 18 19  2  0
 19 20  1  0
 20 21  2  0
 21 22  1  0
 22 23  2  0
 13 24  1  0
 24 25  2  0
  5 26  1  0
 26 27  1  0
 27 28  1  0
 28 29  1  0
 27 30  2  0
 30  3  1  0
 25 10  1  0
 23 18  1  0
  1 31  1  0
  1 32  1  0
  1 33  1  0
  4 34  1  0
 11 35  1  0
 12 36  1  0
 14 37  1  0
 17 38  1  0
 19 39  1  0
 20 40  1  0
 21 41  1  0
 22 42  1  0
 23 43  1  0
 24 44  1  0
 25 45  1  0
 26 46  1  0
 29 47  1  0
 29 48  1  0
 29 49  1  0
M  END
>  <smiles>  (37) 
COc1cc(=NS(=O)(=O)c2ccc(NC(=O)Nc3ccccc3)cc2)[nH]c(OC)n1

>  <score_type>  (37) 
oracle

>  <origin>  (37) 
adgpu

>  <m_score__min__energy>  (37) 
-9.1899999999999995

>  <m_primary>  (37) 
energy

$$$$
37:0
     RDKit          3D

 47 49  0  0  0  0  0  0  0  0999 V2000
   -2.7418   19.4365  -34.1654 H   0  0  0  0  0  0  0  0  0  0  0  0
   -3.7790   19.3120  -33.8210 C   0  0  0  0  0  0  0  0  0  0  0  0
   -4.6570   18.5790  -34.5520 N   0  0  0  0  0  0  0  0  0  0  0  0
   -5.9430   18.4140  -34.1510 C   0  0  0  0  0  0  0  0  0  0  0  0
   -6.6377   17.8148  -34.7580 H   0  0  0  0  0  0  0  0  0  0  0  0
   -6.3820   19.0080  -32.9640 C   0  0  0  0  0  0  0  0  0  0  0  0
   -7.6280   18.8560  -32.6090 N   0  0  0  0  0  0  0  0  0  0  0  0
   -8.2800   19.4230  -31.4270 C   0  0  0  0  0  0  0  0  0  0  0  0
   -9.3219   19.0724  -31.3875 H   0  0  0  0  0  0  0  0  0  0  0  0
   -7.7302   19.0963  -30.5320 H   0  0  0  0  0  0  0  0  0  0  0  0
   -8.2680   20.9310  -31.4760 C   0  0  0  0  0  0  0  0  0  0  0  0
   -9.1780   21.6260  -32.2890 C   0  0  0  0  0  0  0  0  0  0  0  0
   -9.9035   21.0683  -32.8994 H   0  0  0  0  0  0  0  0  0  0  0  0
   -9.1660   23.0220  -32.3260 C   0  0  0  0  0  0  0  0  0  0  0  0
   -9.8877   23.5606  -32.9578 H   0  0  0  0  0  0  0  0  0  0  0  0
   -8.2390   23.7360  -31.5620 C   0  0  0  0  0  0  0  0  0  0  0  0
   -8.2323   24.8355  -31.5942 H   0  0  0  0  0  0  0  0  0  0  0  0
   -7.3180   23.0550  -30.7550 C   0  0  0  0  0  0  0  0  0  0  0  0
   -6.3700   23.7870  -29.9710 N   0  0  0  0  0  0  0  0  0  0  0  0
   -5.5700   24.2810  -30.4250 H   0  0  0  0  0  0  0  0  0  0  0  0
   -6.4620   23.8380  -28.9320 H   0  0  0  0  0  0  0  0  0  0  0  0
   -7.3320   21.6530  -30.7170 C   0  0  0  0  0  0  0  0  0  0  0  0
   -6.6059   21.1157  -30.0893 H   0  0  0  0  0  0  0  0  0  0  0  0
   -5.4940   19.7350  -32.2180 N   0  0  0  0  0  0  0  0  0  0  0  0
   -5.7850   20.1450  -31.3060 H   0  0  0  0  0  0  0  0  0  0  0  0
   -4.2010   19.9100  -32.6240 C   0  0  0  0  0  0  0  0  0  0  0  0
   -3.2650   20.7360  -31.8170 C   0  0  0  0  0  0  0  0  0  0  0  0
   -1.9500   20.3020  -31.5990 C   0  0  0  0  0  0  0  0  0  0  0  0
   -1.6132   19.3456  -32.0255 H   0  0  0  0  0  0  0  0  0  0  0  0
   -1.0660   21.0730  -30.8460 C   0  0  0  0  0  0  0  0  0  0  0  0
   -0.0375   20.7184  -30.6837 H   0  0  0  0  0  0  0  0  0  0  0  0
   -1.4740   22.2980  -30.2920 C   0  0  0  0  0  0  0  0  0  0  0  0
   -0.4850   23.1010  -29.4880 C   0  0  0  0  0  0  0  0  0  0  0  0
   -0.6740   22.9476  -28.4153 H   0  0  0  0  0  0  0  0  0  0  0  0
    0.5367   22.7736  -29.7308 H   0  0  0  0  0  0  0  0  0  0  0  0
   -0.5955   24.1682  -29.7308 H   0  0  0  0  0  0  0  0  0  0  0  0
   -2.8010   22.7440  -30.5010 C   0  0  0  0  0  0  0  0  0  0  0  0
   -3.3820   24.2860  -29.8440 S   0  0  0  0  0  0  0  0  0  0  0  0
   -4.1760   25.0300  -30.8820 O   0  0  0  0  0  0  0  0  0  0  0  0
   -4.2800   24.0180  -28.6680 O   0  0  0  0  0  0  0  0  0  0  0  0
   -2.0500   25.2770  -29.3330 N   0  0  0  0  0  0  0  0  0  0  0  0
   -1.9830   25.2990  -27.8760 C   0  0  0  0  0  0  0  0  0  0  0  0
   -2.9503   24.9814  -27.4596 H   0  0  0  0  0  0  0  0  0  0  0  0
   -1.1939   24.6128  -27.5348 H   0  0  0  0  0  0  0  0  0  0  0  0
   -1.7543   26.3194  -27.5348 H   0  0  0  0  0  0  0  0  0  0  0  0
   -3.6800   21.9590  -31.2660 C   0  0  0  0  0  0  0  0  0  0  0  0
   -4.7093   22.3079  -31.4359 H   0  0  0  0  0  0  0  0  0  0  0  0
  1  2  1  0
  2  3  1  0
  3  4  2  0
  4  5  1  0
  4  6  1  0
  6  7  2  0
  7  8  1  0
  8  9  1  0
  8 10  1  0
  8 11  1  0
 11 12  2  0
 12 13  1  0
 12 14  1  0
 14 15  1  0
 14 16  2  0
 16 17  1  0
 16 18  1  0
 18 19  1  0
 19 20  1  0
 19 21  1  0
 18 22  2  0
 22 23  1  0
  6 24  1  0
 24 25  1  0
 24 26  1  0
 26 27  1  0
 27 28  2  0
 28 29  1  0
 28 30  1  0
 30 31  1  0
 30 32  2  0
 32 33  1  0
 33 34  1  0
 33 35  1  0
 33 36  1  0
 32 37  1  0
 37 38  1  0
 38 39  2  0
 38 40  2  0
 38 41  1  0
 41 42  1  0
 42 43  1  0
 42 44  1  0
 42 45  1  0
 37 46  2  0
 46 47  1  0
 26  2  2  0
 46 27  1  0
 22 11  1  0
M  CHG  1  41  -1
M  END
>  <UniqueID>  (38) 
35

>  <SMILES>  (38) 
C[N-]S(=O)(=O)c1cc(-c2cnc/c(=N/Cc3cccc(N)c3)[nH]2)ccc1C

>  <Energy>  (38) 
54.21034257977088

>  <Genealogy>  (38) 
C[N-]S(=O)(=O)c1cc(-c2cncc(=NCc3cccc(N)c3)[nH]2)ccc1C (protonated)
C[N-]S(=O)(=O)c1cc(-c2cnc/c(=N/Cc3cccc(N)c3)[nH]2)ccc1C (cis-trans isomerization)
C[N-]S(=O)(=O)c1cc(-c2cnc/c(=N/Cc3cccc(N)c3)[nH]2)ccc1C (3D coordinates assigned)
C[N-]S(=O)(=O)c1cc(-c2cnc/c(=N/Cc3cccc(N)c3)[nH]2)ccc1C (optimized conformer: 54.21034257977088 kcal/mol)

>  <smiles>  (38) 
CNS(=O)(=O)c1cc(-c2cncc(=NCc3cccc(N)c3)[nH]2)ccc1C

>  <score_type>  (38) 
oracle

>  <origin>  (38) 
adgpu

>  <m_score__min__energy>  (38) 
-9.8399999999999999

>  <m_primary>  (38) 
energy

$$$$
38:0
     RDKit          3D

 46 49  0  0  0  0  0  0  0  0999 V2000
   -3.0790   23.2370  -29.4280 O   0  0  0  0  0  0  0  0  0  0  0  0
   -3.0690   24.4560  -29.7400 C   0  0  0  0  0  0  0  0  0  0  0  0
   -4.1570   24.9860  -30.5030 N   0  0  0  0  0  0  0  0  0  0  0  0
   -5.3800   24.3000  -30.8000 C   0  0  0  0  0  0  0  0  0  0  0  0
   -6.2600   23.8830  -29.7830 C   0  0  0  0  0  0  0  0  0  0  0  0
   -7.4410   23.2090  -30.1090 C   0  0  0  0  0  0  0  0  0  0  0  0
   -7.7540   22.9490  -31.4480 C   0  0  0  0  0  0  0  0  0  0  0  0
   -9.2230   22.0110  -31.8690 S   0  0  0  0  0  0  0  0  0  0  0  0
   -8.2840   20.5010  -32.1010 C   0  0  0  0  0  0  0  0  0  0  0  0
   -8.5580   19.3790  -31.3150 C   0  0  0  0  0  0  0  0  0  0  0  0
   -7.7980   18.2210  -31.4880 C   0  0  0  0  0  0  0  0  0  0  0  0
   -6.7780   18.2040  -32.3880 N   0  0  0  0  0  0  0  0  0  0  0  0
   -6.4720   19.2920  -33.1490 C   0  0  0  0  0  0  0  0  0  0  0  0
   -5.3200   19.2280  -34.0640 C   0  0  0  0  0  0  0  0  0  0  0  0
   -5.3520   18.4210  -35.0300 O   0  0  0  0  0  0  0  0  0  0  0  0
   -4.1350   20.0090  -33.8540 N   0  0  0  0  0  0  0  0  0  0  0  0
   -3.4470   20.1380  -32.5730 C   0  0  0  0  0  0  0  0  0  0  0  0
   -2.5970   21.3900  -32.4510 C   0  0  0  0  0  0  0  0  0  0  0  0
   -3.9480   21.3150  -31.7560 C   0  0  0  0  0  0  0  0  0  0  0  0
   -7.2520   20.4520  -33.0410 C   0  0  0  0  0  0  0  0  0  0  0  0
   -6.9000   23.3960  -32.4610 C   0  0  0  0  0  0  0  0  0  0  0  0
   -5.7240   24.0790  -32.1380 C   0  0  0  0  0  0  0  0  0  0  0  0
   -1.9870   25.3060  -29.3310 N   0  0  0  0  0  0  0  0  0  0  0  0
   -1.4020   25.3870  -28.0240 C   0  0  0  0  0  0  0  0  0  0  0  0
   -0.9430   26.6020  -27.4830 C   0  0  0  0  0  0  0  0  0  0  0  0
   -0.3530   26.6280  -26.2150 C   0  0  0  0  0  0  0  0  0  0  0  0
   -0.2060   25.4470  -25.4840 C   0  0  0  0  0  0  0  0  0  0  0  0
   -0.6390   24.2330  -26.0260 C   0  0  0  0  0  0  0  0  0  0  0  0
   -0.4400   22.7460  -25.1160 Cl  0  0  0  0  0  0  0  0  0  0  0  0
   -1.2280   24.2040  -27.2950 C   0  0  0  0  0  0  0  0  0  0  0  0
   -6.0179   24.0879  -28.7297 H   0  0  0  0  0  0  0  0  0  0  0  0
   -8.1251   22.8827  -29.3118 H   0  0  0  0  0  0  0  0  0  0  0  0
   -9.3644   19.4078  -30.5674 H   0  0  0  0  0  0  0  0  0  0  0  0
   -8.0240   17.3217  -30.8963 H   0  0  0  0  0  0  0  0  0  0  0  0
   -3.2759   19.0670  -32.3896 H   0  0  0  0  0  0  0  0  0  0  0  0
   -1.6711   21.3707  -31.8575 H   0  0  0  0  0  0  0  0  0  0  0  0
   -2.1256   22.0831  -33.1633 H   0  0  0  0  0  0  0  0  0  0  0  0
   -3.9994   21.2416  -30.6597 H   0  0  0  0  0  0  0  0  0  0  0  0
   -4.8590   21.9315  -31.7572 H   0  0  0  0  0  0  0  0  0  0  0  0
   -7.0529   21.3166  -33.6913 H   0  0  0  0  0  0  0  0  0  0  0  0
   -7.1543   23.2097  -33.5148 H   0  0  0  0  0  0  0  0  0  0  0  0
   -5.0657   24.4446  -32.9398 H   0  0  0  0  0  0  0  0  0  0  0  0
   -1.0484   27.5335  -28.0585 H   0  0  0  0  0  0  0  0  0  0  0  0
   -0.0037   27.5816  -25.7922 H   0  0  0  0  0  0  0  0  0  0  0  0
    0.2498   25.4719  -24.4832 H   0  0  0  0  0  0  0  0  0  0  0  0
   -1.5566   23.2454  -27.7229 H   0  0  0  0  0  0  0  0  0  0  0  0
  1  2  2  0
  2  3  1  0
  3  4  1  0
  4  5  2  0
  5  6  1  0
  6  7  2  0
  7  8  1  0
  8  9  1  0
  9 10  2  0
 10 11  1  0
 11 12  2  0
 12 13  1  0
 13 14  1  0
 14 15  2  0
 14 16  1  0
 16 17  1  0
 17 18  1  0
 18 19  1  0
 13 20  2  0
  7 21  1  0
 21 22  2  0
  2 23  1  0
 23 24  1  0
 24 25  2  0
 25 26  1  0
 26 27  2  0
 27 28  1  0
 28 29  1  0
 28 30  2  0
 22  4  1  0
 30 24  1  0
 20  9  1  0
 19 17  1  0
  5 31  1  0
  6 32  1  0
 10 33  1  0
 11 34  1  0
 17 35  1  0
 18 36  1  0
 18 37  1  0
 19 38  1  0
 19 39  1  0
 20 40  1  0
 21 41  1  0
 22 42  1  0
 25 43  1  0
 26 44  1  0
 27 45  1  0
 30 46  1  0
M  CHG  3   3  -1  16  -1  23  -1
M  END
>  <UniqueID>  (39) 
36

>  <SMILES>  (39) 
O=C([N-]c1ccc(Sc2ccnc(C(=O)[N-]C3CC3)c2)cc1)[N-]c1cccc(Cl)c1

>  <Energy>  (39) 
318.11827598893353

>  <Genealogy>  (39) 
O=C([N-]c1ccc(Sc2ccnc(C(=O)[N-]C3CC3)c2)cc1)[N-]c1cccc(Cl)c1 (protonated)
O=C([N-]c1ccc(Sc2ccnc(C(=O)[N-]C3CC3)c2)cc1)[N-]c1cccc(Cl)c1 (3D coordinates assigned)
O=C([N-]c1ccc(Sc2ccnc(C(=O)[N-]C3CC3)c2)cc1)[N-]c1cccc(Cl)c1 (nonaromatic ring conformer: 318.11827598893353 kcal/mol)

>  <smiles>  (39) 
O=C(Nc1ccc(Sc2ccnc(C(=O)NC3CC3)c2)cc1)Nc1cccc(Cl)c1

>  <score_type>  (39) 
oracle

>  <origin>  (39) 
adgpu

>  <m_score__min__energy>  (39) 
-12.91

>  <m_primary>  (39) 
energy

$$$$
39:0
     RDKit          3D

 36 38  0  0  0  0  0  0  0  0999 V2000
   -5.8940   20.2000  -33.8210 F   0  0  0  0  0  0  0  0  0  0  0  0
   -5.7770   18.8480  -33.8170 C   0  0  0  0  0  0  0  0  0  0  0  0
   -4.5680   18.2710  -34.2170 C   0  0  0  0  0  0  0  0  0  0  0  0
   -4.4180   16.8820  -34.2150 C   0  0  0  0  0  0  0  0  0  0  0  0
   -5.4780   16.0670  -33.8150 C   0  0  0  0  0  0  0  0  0  0  0  0
   -6.6900   16.6370  -33.4130 C   0  0  0  0  0  0  0  0  0  0  0  0
   -6.8510   18.0370  -33.4040 C   0  0  0  0  0  0  0  0  0  0  0  0
   -8.0880   18.6520  -32.9900 N   0  0  0  0  0  0  0  0  0  0  0  0
   -8.3490   19.1560  -31.6400 C   0  0  0  0  0  0  0  0  0  0  0  0
   -8.2230   20.6570  -31.5970 C   0  0  0  0  0  0  0  0  0  0  0  0
   -9.2900   21.4720  -31.9990 C   0  0  0  0  0  0  0  0  0  0  0  0
   -9.1660   22.8630  -31.9630 C   0  0  0  0  0  0  0  0  0  0  0  0
   -7.9760   23.4510  -31.5310 C   0  0  0  0  0  0  0  0  0  0  0  0
   -6.8890   22.6510  -31.1330 C   0  0  0  0  0  0  0  0  0  0  0  0
   -5.6230   23.2740  -30.6690 C   0  0  0  0  0  0  0  0  0  0  0  0
   -4.6770   22.5300  -29.9440 C   0  0  0  0  0  0  0  0  0  0  0  0
   -3.4920   23.1290  -29.5140 C   0  0  0  0  0  0  0  0  0  0  0  0
   -3.2580   24.4720  -29.8100 C   0  0  0  0  0  0  0  0  0  0  0  0
   -4.1770   25.1840  -30.5130 N   0  0  0  0  0  0  0  0  0  0  0  0
   -5.3400   24.6250  -30.9420 C   0  0  0  0  0  0  0  0  0  0  0  0
   -7.0220   21.2510  -31.1770 C   0  0  0  0  0  0  0  0  0  0  0  0
   -3.7326   18.9124  -34.5342 H   0  0  0  0  0  0  0  0  0  0  0  0
   -3.4650   16.4310  -34.5285 H   0  0  0  0  0  0  0  0  0  0  0  0
   -5.3597   14.9734  -33.8160 H   0  0  0  0  0  0  0  0  0  0  0  0
   -7.5226   15.9888  -33.1020 H   0  0  0  0  0  0  0  0  0  0  0  0
   -8.8390   18.8030  -33.7020 H   0  0  0  0  0  0  0  0  0  0  0  0
   -9.3678   18.8706  -31.3389 H   0  0  0  0  0  0  0  0  0  0  0  0
   -7.6106   18.7197  -30.9513 H   0  0  0  0  0  0  0  0  0  0  0  0
  -10.2289   21.0145  -32.3443 H   0  0  0  0  0  0  0  0  0  0  0  0
  -10.0087   23.4969  -32.2760 H   0  0  0  0  0  0  0  0  0  0  0  0
   -7.8874   24.5470  -31.5015 H   0  0  0  0  0  0  0  0  0  0  0  0
   -4.8710   21.4718  -29.7145 H   0  0  0  0  0  0  0  0  0  0  0  0
   -2.7498   22.5478  -28.9472 H   0  0  0  0  0  0  0  0  0  0  0  0
   -2.3286   24.9549  -29.4739 H   0  0  0  0  0  0  0  0  0  0  0  0
   -6.0636   25.2323  -31.5056 H   0  0  0  0  0  0  0  0  0  0  0  0
   -6.1756   20.6147  -30.8790 H   0  0  0  0  0  0  0  0  0  0  0  0
  1  2  1  0
  2  3  2  0
  3  4  1  0
  4  5  2  0
  5  6  1  0
  6  7  2  0
  7  8  1  0
  8  9  1  0
  9 10  1  0
 10 11  2  0
 11 12  1  0
 12 13  2  0
 13 14  1  0
 14 15  1  0
 15 16  2  0
 16 17  1  0
 17 18  2  0
 18 19  1  0
 19 20  2  0
 14 21  2  0
  7  2  1  0
 21 10  1  0
 20 15  1  0
  3 22  1  0
  4 23  1  0
  5 24  1  0
  6 25  1  0
  8 26  1  0
  9 27  1  0
  9 28  1  0
 11 29  1  0
 12 30  1  0
 13 31  1  0
 16 32  1  0
 17 33  1  0
 18 34  1  0
 20 35  1  0
 21 36  1  0
M  END
>  <UniqueID>  (40) 
37

>  <SMILES>  (40) 
Fc1ccccc1NCc1cccc(-c2cccnc2)c1

>  <Energy>  (40) 
44.35146392595927

>  <Genealogy>  (40) 
Fc1ccccc1NCc1cccc(-c2cccnc2)c1 (3D coordinates assigned)
Fc1ccccc1NCc1cccc(-c2cccnc2)c1 (optimized conformer: 44.35146392595927 kcal/mol)

>  <smiles>  (40) 
Fc1ccccc1NCc1cccc(-c2cccnc2)c1

>  <score_type>  (40) 
oracle

>  <origin>  (40) 
adgpu

>  <m_score__min__energy>  (40) 
-8.4299999999999997

>  <m_primary>  (40) 
energy

$$$$
40:0
     RDKit          3D

 45 48  0  0  0  0  0  0  0  0999 V2000
   -1.9660   25.6610  -29.3400 O   0  0  0  0  0  0  0  0  0  0  0  0
   -1.9020   24.3680  -28.8310 C   0  0  0  0  0  0  0  0  0  0  0  0
   -0.8550   24.0370  -27.9640 C   0  0  0  0  0  0  0  0  0  0  0  0
   -0.7540   22.7490  -27.4380 C   0  0  0  0  0  0  0  0  0  0  0  0
   -1.7000   21.7810  -27.7770 C   0  0  0  0  0  0  0  0  0  0  0  0
   -2.7510   22.1010  -28.6410 C   0  0  0  0  0  0  0  0  0  0  0  0
   -2.8720   23.3990  -29.1780 C   0  0  0  0  0  0  0  0  0  0  0  0
   -4.0150   23.7390  -30.1250 C   0  0  2  0  0  0  0  0  0  0  0  0
   -5.0730   24.6360  -29.4510 C   0  0  0  0  0  0  0  0  0  0  0  0
   -6.1910   25.0610  -30.4280 C   0  0  0  0  0  0  0  0  0  0  0  0
   -6.2940   24.1650  -31.6740 C   0  0  0  0  0  0  0  0  0  0  0  0
   -5.9580   22.7730  -31.3480 N   0  0  0  0  0  0  0  0  0  0  0  0
   -6.7660   21.6870  -31.8310 C   0  0  0  0  0  0  0  0  0  0  0  0
   -6.1630   20.6000  -32.3880 N   0  0  0  0  0  0  0  0  0  0  0  0
   -6.8620   19.5270  -32.8550 C   0  0  0  0  0  0  0  0  0  0  0  0
   -6.1220   18.3830  -33.4470 C   0  0  0  0  0  0  0  0  0  0  0  0
   -6.5790   17.0580  -33.3170 C   0  0  0  0  0  0  0  0  0  0  0  0
   -5.8630   16.0080  -33.8950 C   0  0  0  0  0  0  0  0  0  0  0  0
   -4.6960   16.2850  -34.6060 C   0  0  0  0  0  0  0  0  0  0  0  0
   -4.2680   17.5670  -34.7360 N   0  0  0  0  0  0  0  0  0  0  0  0
   -4.9460   18.6080  -34.1850 C   0  0  0  0  0  0  0  0  0  0  0  0
   -8.2640   19.5250  -32.7410 C   0  0  0  0  0  0  0  0  0  0  0  0
   -8.9070   20.6180  -32.1580 C   0  0  0  0  0  0  0  0  0  0  0  0
   -8.1630   21.7040  -31.6960 C   0  0  0  0  0  0  0  0  0  0  0  0
   -8.7950   22.7320  -31.0760 F   0  0  0  0  0  0  0  0  0  0  0  0
   -4.6830   22.4650  -30.6830 C   0  0  0  0  0  0  0  0  0  0  0  0
   -0.1067   24.7972  -27.6954 H   0  0  0  0  0  0  0  0  0  0  0  0
    0.0713   22.4965  -26.7560 H   0  0  0  0  0  0  0  0  0  0  0  0
   -1.6185   20.7648  -27.3638 H   0  0  0  0  0  0  0  0  0  0  0  0
   -3.4918   21.3318  -28.9049 H   0  0  0  0  0  0  0  0  0  0  0  0
   -3.5729   24.2998  -30.9617 H   0  0  0  0  0  0  0  0  0  0  0  0
   -5.5255   24.0821  -28.6153 H   0  0  0  0  0  0  0  0  0  0  0  0
   -4.5670   25.5482  -29.1020 H   0  0  0  0  0  0  0  0  0  0  0  0
   -7.1518   25.0252  -29.8936 H   0  0  0  0  0  0  0  0  0  0  0  0
   -5.9446   26.0740  -30.7789 H   0  0  0  0  0  0  0  0  0  0  0  0
   -7.3222   24.2057  -32.0628 H   0  0  0  0  0  0  0  0  0  0  0  0
   -5.5827   24.5305  -32.4293 H   0  0  0  0  0  0  0  0  0  0  0  0
   -7.5032   16.8492  -32.7582 H   0  0  0  0  0  0  0  0  0  0  0  0
   -6.2163   14.9716  -33.7904 H   0  0  0  0  0  0  0  0  0  0  0  0
   -4.1220   15.4648  -35.0617 H   0  0  0  0  0  0  0  0  0  0  0  0
   -4.5723   19.6341  -34.3172 H   0  0  0  0  0  0  0  0  0  0  0  0
   -8.8489   18.6689  -33.1084 H   0  0  0  0  0  0  0  0  0  0  0  0
  -10.0028   20.6232  -32.0626 H   0  0  0  0  0  0  0  0  0  0  0  0
   -4.8716   21.7676  -29.8536 H   0  0  0  0  0  0  0  0  0  0  0  0
   -4.0059   22.0165  -31.4249 H   0  0  0  0  0  0  0  0  0  0  0  0
  1  2  1  0
  2  3  2  0
  3  4  1  0
  4  5  2  0
  5  6  1  0
  6  7  2  0
  7  8  1  0
  8  9  1  0
  9 10  1  0
 10 11  1  0
 11 12  1  0
 12 13  1  0
 13 14  2  0
 14 15  1  0
 15 16  1  0
 16 17  2  0
 17 18  1  0
 18 19  2  0
 19 20  1  0
 20 21  2  0
 15 22  2  0
 22 23  1  0
 23 24  2  0
 24 25  1  0
 12 26  1  0
  7  2  1  0
 26  8  1  0
 24 13  1  0
 21 16  1  0
  3 27  1  0
  4 28  1  0
  5 29  1  0
  6 30  1  0
  8 31  1  6
  9 32  1  0
  9 33  1  0
 10 34  1  0
 10 35  1  0
 11 36  1  0
 11 37  1  0
 17 38  1  0
 18 39  1  0
 19 40  1  0
 21 41  1  0
 22 42  1  0
 23 43  1  0
 26 44  1  0
 26 45  1  0
M  CHG  1   1  -1
M  END
>  <UniqueID>  (41) 
38

>  <SMILES>  (41) 
[O-]c1ccccc1[C@@H]1CCCN(c2nc(-c3cccnc3)ccc2F)C1

>  <Energy>  (41) 
62.35039473964146

>  <Genealogy>  (41) 
[O-]c1ccccc1C1CCCN(c2nc(-c3cccnc3)ccc2F)C1 (protonated)
[O-]c1ccccc1[C@@H]1CCCN(c2nc(-c3cccnc3)ccc2F)C1 (chirality)
[O-]c1ccccc1[C@@H]1CCCN(c2nc(-c3cccnc3)ccc2F)C1 (3D coordinates assigned)
[O-]c1ccccc1[C@@H]1CCCN(c2nc(-c3cccnc3)ccc2F)C1 (nonaromatic ring conformer: 62.35039473964146 kcal/mol)

>  <smiles>  (41) 
Oc1ccccc1C1CCCN(c2nc(-c3cccnc3)ccc2F)C1

>  <score_type>  (41) 
oracle

>  <origin>  (41) 
adgpu

>  <m_score__min__energy>  (41) 
-12.279999999999999

>  <m_primary>  (41) 
energy

$$$$
41:0
     RDKit          3D

 45 47  0  0  0  0  0  0  0  0999 V2000
   -3.6080   25.2600  -30.3700 N   0  0  0  0  0  0  0  0  0  0  0  0
   -4.6560   23.9540  -30.7940 S   0  0  0  0  0  0  0  0  0  0  0  0
   -5.6220   24.4050  -31.8540 O   0  0  0  0  0  0  0  0  0  0  0  0
   -5.4340   23.5290  -29.5800 O   0  0  0  0  0  0  0  0  0  0  0  0
   -3.7020   22.6070  -31.4070 C   0  0  0  0  0  0  0  0  0  0  0  0
   -3.8790   22.1730  -32.7270 C   0  0  0  0  0  0  0  0  0  0  0  0
   -3.1280   21.1020  -33.2220 C   0  0  0  0  0  0  0  0  0  0  0  0
   -2.2020   20.4440  -32.4030 C   0  0  0  0  0  0  0  0  0  0  0  0
   -1.4370   19.3640  -32.9580 N   0  0  0  0  0  0  0  0  0  0  0  0
   -1.9290   18.0670  -33.3250 C   0  0  0  0  0  0  0  0  0  0  0  0
   -1.1600   17.0680  -33.2900 O   0  0  0  0  0  0  0  0  0  0  0  0
   -3.3540   17.8920  -33.6920 C   0  0  0  0  0  0  0  0  0  0  0  0
   -3.7180   17.5740  -35.0140 C   0  0  0  0  0  0  0  0  0  0  0  0
   -5.0620   17.4100  -35.3570 C   0  0  0  0  0  0  0  0  0  0  0  0
   -6.0580   17.5600  -34.3900 C   0  0  0  0  0  0  0  0  0  0  0  0
   -5.7140   17.8780  -33.0710 C   0  0  0  0  0  0  0  0  0  0  0  0
   -6.9740   18.0810  -31.8500 S   0  0  0  0  0  0  0  0  0  0  0  0
   -8.2220   17.3770  -32.3070 O   0  0  0  0  0  0  0  0  0  0  0  0
   -6.5250   17.4420  -30.5650 O   0  0  0  0  0  0  0  0  0  0  0  0
   -7.3350   19.7650  -31.5590 N   0  0  0  0  0  0  0  0  0  0  0  0
   -8.7860   19.9670  -31.4270 C   0  0  0  0  0  0  0  0  0  0  0  0
   -9.1230   21.4720  -31.3710 C   0  0  0  0  0  0  0  0  0  0  0  0
   -7.9530   22.2550  -31.2380 O   0  0  0  0  0  0  0  0  0  0  0  0
   -7.1280   22.0850  -32.3780 C   0  0  0  0  0  0  0  0  0  0  0  0
   -6.8040   20.6000  -32.6460 C   0  0  0  0  0  0  0  0  0  0  0  0
   -4.3650   18.0400  -32.7240 C   0  0  0  0  0  0  0  0  0  0  0  0
   -2.0060   20.8990  -31.0870 C   0  0  0  0  0  0  0  0  0  0  0  0
   -2.7540   21.9730  -30.5920 C   0  0  0  0  0  0  0  0  0  0  0  0
   -3.8500   26.0620  -30.9950 H   0  0  0  0  0  0  0  0  0  0  0  0
   -4.6108   22.6760  -33.3762 H   0  0  0  0  0  0  0  0  0  0  0  0
   -3.2658   20.7739  -34.2629 H   0  0  0  0  0  0  0  0  0  0  0  0
   -2.9393   17.4539  -35.7816 H   0  0  0  0  0  0  0  0  0  0  0  0
   -5.3368   17.1618  -36.3928 H   0  0  0  0  0  0  0  0  0  0  0  0
   -7.1148   17.4280  -34.6652 H   0  0  0  0  0  0  0  0  0  0  0  0
   -9.2939   19.5149  -32.2917 H   0  0  0  0  0  0  0  0  0  0  0  0
   -9.1263   19.4929  -30.4946 H   0  0  0  0  0  0  0  0  0  0  0  0
   -9.6422   21.7578  -32.2977 H   0  0  0  0  0  0  0  0  0  0  0  0
   -9.7635   21.6524  -30.4951 H   0  0  0  0  0  0  0  0  0  0  0  0
   -7.6465   22.4986  -33.2556 H   0  0  0  0  0  0  0  0  0  0  0  0
   -6.1795   22.6093  -32.1900 H   0  0  0  0  0  0  0  0  0  0  0  0
   -7.2621   20.2933  -33.5979 H   0  0  0  0  0  0  0  0  0  0  0  0
   -5.7127   20.4726  -32.6988 H   0  0  0  0  0  0  0  0  0  0  0  0
   -4.0946   18.2849  -31.6863 H   0  0  0  0  0  0  0  0  0  0  0  0
   -1.2610   20.4082  -30.4435 H   0  0  0  0  0  0  0  0  0  0  0  0
   -2.5976   22.3208  -29.5602 H   0  0  0  0  0  0  0  0  0  0  0  0
  1  2  1  0
  2  3  2  0
  2  4  2  0
  2  5  1  0
  5  6  2  0
  6  7  1  0
  7  8  2  0
  8  9  1  0
  9 10  1  0
 10 11  2  0
 10 12  1  0
 12 13  2  0
 13 14  1  0
 14 15  2  0
 15 16  1  0
 16 17  1  0
 17 18  2  0
 17 19  2  0
 17 20  1  0
 20 21  1  0
 21 22  1  0
 22 23  1  0
 23 24  1  0
 24 25  1  0
 16 26  2  0
  8 27  1  0
 27 28  2  0
 28  5  1  0
 26 12  1  0
 25 20  1  0
  1 29  1  0
  6 30  1  0
  7 31  1  0
 13 32  1  0
 14 33  1  0
 15 34  1  0
 21 35  1  0
 21 36  1  0
 22 37  1  0
 22 38  1  0
 24 39  1  0
 24 40  1  0
 25 41  1  0
 25 42  1  0
 26 43  1  0
 27 44  1  0
 28 45  1  0
M  CHG  2   1  -1   9  -1
M  END
>  <UniqueID>  (42) 
39

>  <SMILES>  (42) 
[NH-]S(=O)(=O)c1ccc([N-]C(=O)c2cccc(S(=O)(=O)N3CCOCC3)c2)cc1

>  <Energy>  (42) 
57.67636107417554

>  <Genealogy>  (42) 
[NH-]S(=O)(=O)c1ccc([N-]C(=O)c2cccc(S(=O)(=O)N3CCOCC3)c2)cc1 (protonated)
[NH-]S(=O)(=O)c1ccc([N-]C(=O)c2cccc(S(=O)(=O)N3CCOCC3)c2)cc1 (3D coordinates assigned)
[NH-]S(=O)(=O)c1ccc([N-]C(=O)c2cccc(S(=O)(=O)N3CCOCC3)c2)cc1 (nonaromatic ring conformer: 57.67636107417554 kcal/mol)

>  <smiles>  (42) 
NS(=O)(=O)c1ccc(NC(=O)c2cccc(S(=O)(=O)N3CCOCC3)c2)cc1

>  <score_type>  (42) 
oracle

>  <origin>  (42) 
adgpu

>  <m_score__min__energy>  (42) 
-11.91

>  <m_primary>  (42) 
energy

$$$$
42:0
     RDKit          3D

 37 39  0  0  0  0  0  0  0  0999 V2000
   -5.8630   17.4650  -34.9880 O   0  0  0  0  0  0  0  0  0  0  0  0
   -6.1610   16.7460  -33.9970 C   0  0  0  0  0  0  0  0  0  0  0  0
   -6.1950   17.3110  -32.6760 N   0  0  0  0  0  0  0  0  0  0  0  0
   -6.2720   18.7220  -32.4100 C   0  0  0  0  0  0  0  0  0  0  0  0
   -5.1540   19.5620  -32.5680 C   0  0  0  0  0  0  0  0  0  0  0  0
   -5.2640   20.9350  -32.3290 C   0  0  0  0  0  0  0  0  0  0  0  0
   -6.4900   21.4890  -31.9430 C   0  0  0  0  0  0  0  0  0  0  0  0
   -6.6120   23.2200  -31.6430 S   0  0  0  0  0  0  0  0  0  0  0  0
   -5.7960   23.9510  -32.6700 O   0  0  0  0  0  0  0  0  0  0  0  0
   -8.0400   23.6800  -31.7340 O   0  0  0  0  0  0  0  0  0  0  0  0
   -5.9970   23.5870  -30.0640 N   0  0  0  0  0  0  0  0  0  0  0  0
   -4.6160   23.5290  -29.6780 C   0  0  0  0  0  0  0  0  0  0  0  0
   -4.0870   22.3000  -29.2640 C   0  0  0  0  0  0  0  0  0  0  0  0
   -2.7480   22.1990  -28.8750 C   0  0  0  0  0  0  0  0  0  0  0  0
   -1.9260   23.3280  -28.9000 C   0  0  0  0  0  0  0  0  0  0  0  0
   -2.4420   24.5600  -29.3130 C   0  0  0  0  0  0  0  0  0  0  0  0
   -1.6240   25.6820  -29.3390 O   0  0  0  0  0  0  0  0  0  0  0  0
   -3.7840   24.6640  -29.7010 C   0  0  0  0  0  0  0  0  0  0  0  0
   -7.6110   20.6610  -31.8070 C   0  0  0  0  0  0  0  0  0  0  0  0
   -7.5040   19.2880  -32.0460 C   0  0  0  0  0  0  0  0  0  0  0  0
   -6.4310   15.3150  -34.2150 C   0  0  0  0  0  0  0  0  0  0  0  0
   -5.5710   14.2630  -33.9580 C   0  0  0  0  0  0  0  0  0  0  0  0
   -6.2620   13.1230  -34.3070 C   0  0  0  0  0  0  0  0  0  0  0  0
   -7.4980   13.5460  -34.7530 C   0  0  0  0  0  0  0  0  0  0  0  0
   -7.5680   14.8560  -34.6860 O   0  0  0  0  0  0  0  0  0  0  0  0
   -6.0600   16.6700  -31.8620 H   0  0  0  0  0  0  0  0  0  0  0  0
   -4.1892   19.1363  -32.8810 H   0  0  0  0  0  0  0  0  0  0  0  0
   -4.3828   21.5831  -32.4449 H   0  0  0  0  0  0  0  0  0  0  0  0
   -4.7299   21.4076  -29.2448 H   0  0  0  0  0  0  0  0  0  0  0  0
   -2.3417   21.2301  -28.5491 H   0  0  0  0  0  0  0  0  0  0  0  0
   -0.8723   23.2478  -28.5946 H   0  0  0  0  0  0  0  0  0  0  0  0
   -4.1883   25.6346  -30.0243 H   0  0  0  0  0  0  0  0  0  0  0  0
   -8.5787   21.0923  -31.5112 H   0  0  0  0  0  0  0  0  0  0  0  0
   -8.3919   18.6461  -31.9481 H   0  0  0  0  0  0  0  0  0  0  0  0
   -4.5480   14.3236  -33.5581 H   0  0  0  0  0  0  0  0  0  0  0  0
   -5.9016   12.0857  -34.2431 H   0  0  0  0  0  0  0  0  0  0  0  0
   -8.3023   12.8861  -35.1103 H   0  0  0  0  0  0  0  0  0  0  0  0
  1  2  2  0
  2  3  1  0
  3  4  1  0
  4  5  2  0
  5  6  1  0
  6  7  2  0
  7  8  1  0
  8  9  2  0
  8 10  2  0
  8 11  1  0
 11 12  1  0
 12 13  2  0
 13 14  1  0
 14 15  2  0
 15 16  1  0
 16 17  1  0
 16 18  2  0
  7 19  1  0
 19 20  2  0
  2 21  1  0
 21 22  2  0
 22 23  1  0
 23 24  2  0
 24 25  1  0
 20  4  1  0
 25 21  1  0
 18 12  1  0
  3 26  1  0
  5 27  1  0
  6 28  1  0
 13 29  1  0
 14 30  1  0
 15 31  1  0
 18 32  1  0
 19 33  1  0
 20 34  1  0
 22 35  1  0
 23 36  1  0
 24 37  1  0
M  CHG  2  11  -1  17  -1
M  END
>  <UniqueID>  (43) 
40

>  <SMILES>  (43) 
O=C(Nc1ccc(S(=O)(=O)[N-]c2cccc([O-])c2)cc1)c1ccco1

>  <Energy>  (43) 
71.63816122337502

>  <Genealogy>  (43) 
O=C(Nc1ccc(S(=O)(=O)[N-]c2cccc([O-])c2)cc1)c1ccco1 (protonated)
O=C(Nc1ccc(S(=O)(=O)[N-]c2cccc([O-])c2)cc1)c1ccco1 (3D coordinates assigned)
O=C(Nc1ccc(S(=O)(=O)[N-]c2cccc([O-])c2)cc1)c1ccco1 (optimized conformer: 71.63816122337502 kcal/mol)

>  <smiles>  (43) 
O=C(Nc1ccc(S(=O)(=O)Nc2cccc(O)c2)cc1)c1ccco1

>  <score_type>  (43) 
oracle

>  <origin>  (43) 
adgpu

>  <m_score__min__energy>  (43) 
-10.859999999999999

>  <m_primary>  (43) 
energy

$$$$
43:0
     RDKit          3D

 39 40  0  0  0  0  0  0  0  0999 V2000
   -3.6290   25.2910  -30.4200 N   0  0  0  0  0  0  0  0  0  0  0  0
   -4.6160   23.9150  -30.7620 S   0  0  0  0  0  0  0  0  0  0  0  0
   -5.4340   24.1800  -31.9950 O   0  0  0  0  0  0  0  0  0  0  0  0
   -5.5490   23.6680  -29.6090 O   0  0  0  0  0  0  0  0  0  0  0  0
   -3.5920   22.5060  -31.0180 C   0  0  0  0  0  0  0  0  0  0  0  0
   -2.2980   22.4690  -30.4800 C   0  0  0  0  0  0  0  0  0  0  0  0
   -1.4890   21.3480  -30.6780 C   0  0  0  0  0  0  0  0  0  0  0  0
   -1.9600   20.2650  -31.4230 C   0  0  0  0  0  0  0  0  0  0  0  0
   -3.2410   20.3000  -31.9940 C   0  0  0  0  0  0  0  0  0  0  0  0
   -3.7080   19.1660  -32.7460 N   0  0  0  0  0  0  0  0  0  0  0  0
   -3.2290   18.8130  -34.0530 C   0  0  0  0  0  0  0  0  0  0  0  0
   -2.1910   19.3520  -34.5250 O   0  0  0  0  0  0  0  0  0  0  0  0
   -3.9080   17.7270  -34.8310 C   0  0  0  0  0  0  0  0  0  0  0  0
   -4.0590   16.4690  -33.9730 C   0  0  0  0  0  0  0  0  0  0  0  0
   -5.1510   16.6260  -33.0160 N   0  0  0  0  0  0  0  0  0  0  0  0
   -6.5060   16.9680  -33.3370 C   0  0  0  0  0  0  0  0  0  0  0  0
   -7.1990   16.1460  -33.9930 O   0  0  0  0  0  0  0  0  0  0  0  0
   -7.1190   18.2420  -32.9120 C   0  0  0  0  0  0  0  0  0  0  0  0
   -8.1680   18.2570  -31.9780 C   0  0  0  0  0  0  0  0  0  0  0  0
   -8.7350   19.4700  -31.5760 C   0  0  0  0  0  0  0  0  0  0  0  0
   -8.2500   20.6760  -32.0920 C   0  0  0  0  0  0  0  0  0  0  0  0
   -8.9640   22.1980  -31.5880 Cl  0  0  0  0  0  0  0  0  0  0  0  0
   -7.1900   20.6690  -33.0040 C   0  0  0  0  0  0  0  0  0  0  0  0
   -6.6210   19.4570  -33.4070 C   0  0  0  0  0  0  0  0  0  0  0  0
   -4.0610   21.4220  -31.7720 C   0  0  0  0  0  0  0  0  0  0  0  0
   -3.7380   25.9520  -31.2210 H   0  0  0  0  0  0  0  0  0  0  0  0
   -1.9193   23.3242  -29.9010 H   0  0  0  0  0  0  0  0  0  0  0  0
   -0.4779   21.3181  -30.2458 H   0  0  0  0  0  0  0  0  0  0  0  0
   -1.3229   19.3792  -31.5630 H   0  0  0  0  0  0  0  0  0  0  0  0
   -4.3740   18.5090  -32.2790 H   0  0  0  0  0  0  0  0  0  0  0  0
   -4.9039   18.0739  -35.1437 H   0  0  0  0  0  0  0  0  0  0  0  0
   -3.2970   17.4854  -35.7132 H   0  0  0  0  0  0  0  0  0  0  0  0
   -4.2716   15.6097  -34.6260 H   0  0  0  0  0  0  0  0  0  0  0  0
   -3.1233   16.3041  -33.4186 H   0  0  0  0  0  0  0  0  0  0  0  0
   -8.5446   17.3111  -31.5615 H   0  0  0  0  0  0  0  0  0  0  0  0
   -9.5638   19.4759  -30.8528 H   0  0  0  0  0  0  0  0  0  0  0  0
   -6.8035   21.6177  -33.4047 H   0  0  0  0  0  0  0  0  0  0  0  0
   -5.7793   19.4559  -34.1152 H   0  0  0  0  0  0  0  0  0  0  0  0
   -5.0768   21.4482  -32.1932 H   0  0  0  0  0  0  0  0  0  0  0  0
  1  2  1  0
  2  3  2  0
  2  4  2  0
  2  5  1  0
  5  6  2  0
  6  7  1  0
  7  8  2  0
  8  9  1  0
  9 10  1  0
 10 11  1  0
 11 12  2  0
 11 13  1  0
 13 14  1  0
 14 15  1  0
 15 16  1  0
 16 17  2  0
 16 18  1  0
 18 19  2  0
 19 20  1  0
 20 21  2  0
 21 22  1  0
 21 23  1  0
 23 24  2  0
  9 25  2  0
 25  5  1  0
 24 18  1  0
  1 26  1  0
  6 27  1  0
  7 28  1  0
  8 29  1  0
 10 30  1  0
 13 31  1  0
 13 32  1  0
 14 33  1  0
 14 34  1  0
 19 35  1  0
 20 36  1  0
 23 37  1  0
 24 38  1  0
 25 39  1  0
M  CHG  2   1  -1  15  -1
M  END
>  <UniqueID>  (44) 
41

>  <SMILES>  (44) 
[NH-]S(=O)(=O)c1cccc(NC(=O)CC[N-]C(=O)c2ccc(Cl)cc2)c1

>  <Energy>  (44) 
42.79845759334548

>  <Genealogy>  (44) 
[NH-]S(=O)(=O)c1cccc(NC(=O)CC[N-]C(=O)c2ccc(Cl)cc2)c1 (protonated)
[NH-]S(=O)(=O)c1cccc(NC(=O)CC[N-]C(=O)c2ccc(Cl)cc2)c1 (3D coordinates assigned)
[NH-]S(=O)(=O)c1cccc(NC(=O)CC[N-]C(=O)c2ccc(Cl)cc2)c1 (optimized conformer: 42.79845759334548 kcal/mol)

>  <smiles>  (44) 
NS(=O)(=O)c1cccc(NC(=O)CCNC(=O)c2ccc(Cl)cc2)c1

>  <score_type>  (44) 
oracle

>  <origin>  (44) 
adgpu

>  <m_score__min__energy>  (44) 
-11.369999999999999

>  <m_primary>  (44) 
energy

$$$$
44:0
     RDKit          3D

 56 59  0  0  1  0  0  0  0  0999 V2000
   -5.8860   21.5780  -32.4580 C   0  0  0  0  0  0  0  0  0  0  0  0
   -4.3960   21.4510  -32.4640 C   0  0  0  0  0  0  0  0  0  0  0  0
   -3.7330   22.0770  -31.4760 N   0  0  0  0  0  0  0  0  0  0  0  0
   -2.3940   21.9830  -31.4530 C   0  0  0  0  0  0  0  0  0  0  0  0
   -1.7730   22.5930  -30.4930 N   0  0  0  0  0  0  0  0  0  0  0  0
   -2.6120   23.4770  -29.3110 S   0  0  0  0  0  0  0  0  0  0  0  0
   -2.6360   22.6730  -28.0420 O   0  0  0  0  0  0  0  0  0  0  0  0
   -1.8810   24.7700  -28.9800 O   0  0  0  0  0  0  0  0  0  0  0  0
   -4.2370   23.8930  -29.7150 C   0  0  0  0  0  0  0  0  0  0  0  0
   -4.4880   25.0550  -30.4190 C   0  0  0  0  0  0  0  0  0  0  0  0
   -5.7560   25.4450  -30.7730 C   0  0  0  0  0  0  0  0  0  0  0  0
   -6.8330   24.6480  -30.4160 C   0  0  0  0  0  0  0  0  0  0  0  0
   -6.6130   23.4740  -29.7100 C   0  0  0  0  0  0  0  0  0  0  0  0
   -5.3180   23.1020  -29.3630 C   0  0  0  0  0  0  0  0  0  0  0  0
   -1.6820   21.2570  -32.4210 C   0  0  0  0  0  0  0  0  0  0  0  0
   -0.3390   21.2230  -32.3130 O   0  0  0  0  0  0  0  0  0  0  0  0
    0.6420   20.9240  -33.1980 C   0  0  0  0  0  0  0  0  0  0  0  0
    1.6460   20.0450  -32.7380 C   0  0  0  0  0  0  0  0  0  0  0  0
    2.6920   19.6630  -33.5310 C   0  0  0  0  0  0  0  0  0  0  0  0
    2.8230   20.1170  -34.8250 C   0  0  0  0  0  0  0  0  0  0  0  0
    1.8530   20.9760  -35.2880 C   0  0  0  0  0  0  0  0  0  0  0  0
    0.7880   21.3610  -34.4730 C   0  0  0  0  0  0  0  0  0  0  0  0
   -0.1300   22.2190  -35.0250 O   0  0  0  0  0  0  0  0  0  0  0  0
   -2.4550   20.6540  -33.3880 C   0  0  0  0  0  0  0  0  0  0  0  0
   -1.8310   19.9250  -34.3770 O   0  0  0  0  0  0  0  0  0  0  0  0
   -1.3210   18.6200  -34.2190 C   0  0  0  0  0  0  0  0  0  0  0  0
   -2.3920   17.5790  -34.6340 C   0  0  0  0  0  0  0  0  0  0  0  0
   -3.5640   17.7390  -34.1150 O   0  0  0  0  0  0  0  0  0  0  0  0
   -4.6980   17.9360  -33.5660 C   0  0  0  0  0  0  0  0  0  0  0  0
   -5.0170   17.3820  -32.3520 N   0  0  0  0  0  0  0  0  0  0  0  0
   -6.2000   17.5750  -31.7570 C   0  0  0  0  0  0  0  0  0  0  0  0
   -7.1190   18.3530  -32.3920 C   0  0  0  0  0  0  0  0  0  0  0  0
   -8.8070   18.6570  -31.5970 Br  0  0  0  0  0  0  0  0  0  0  0  0
   -6.8430   18.9200  -33.5980 C   0  0  0  0  0  0  0  0  0  0  0  0
   -5.6640   18.7110  -34.1600 N   0  0  0  0  0  0  0  0  0  0  0  0
   -3.7940   20.7360  -33.4290 N   0  0  0  0  0  0  0  0  0  0  0  0
   -6.2472   21.6088  -31.4194 H   0  0  0  0  0  0  0  0  0  0  0  0
   -6.1771   22.5042  -32.9751 H   0  0  0  0  0  0  0  0  0  0  0  0
   -6.3297   20.7144  -32.9751 H   0  0  0  0  0  0  0  0  0  0  0  0
   -3.6391   25.6924  -30.7071 H   0  0  0  0  0  0  0  0  0  0  0  0
   -5.9155   26.3783  -31.3330 H   0  0  0  0  0  0  0  0  0  0  0  0
   -7.8559   24.9448  -30.6909 H   0  0  0  0  0  0  0  0  0  0  0  0
   -7.4630   22.8369  -29.4244 H   0  0  0  0  0  0  0  0  0  0  0  0
   -5.1510   22.1699  -28.8032 H   0  0  0  0  0  0  0  0  0  0  0  0
    1.5850   19.6558  -31.7110 H   0  0  0  0  0  0  0  0  0  0  0  0
    3.4486   18.9753  -33.1253 H   0  0  0  0  0  0  0  0  0  0  0  0
    3.6658   19.8065  -35.4600 H   0  0  0  0  0  0  0  0  0  0  0  0
    1.9181   21.3646  -36.3150 H   0  0  0  0  0  0  0  0  0  0  0  0
   -1.1110   21.9180  -34.9830 H   0  0  0  0  0  0  0  0  0  0  0  0
   -0.4297   18.4980  -34.8520 H   0  0  0  0  0  0  0  0  0  0  0  0
   -1.0533   18.4620  -33.1638 H   0  0  0  0  0  0  0  0  0  0  0  0
   -2.4988   17.6228  -35.7279 H   0  0  0  0  0  0  0  0  0  0  0  0
   -2.0288   16.6113  -34.2575 H   0  0  0  0  0  0  0  0  0  0  0  0
   -6.4236   17.1177  -30.7819 H   0  0  0  0  0  0  0  0  0  0  0  0
   -7.5940   19.5468  -34.1011 H   0  0  0  0  0  0  0  0  0  0  0  0
   -4.3220   20.2540  -34.1910 H   0  0  0  0  0  0  0  0  0  0  0  0
  1  2  1  0
  2  3  2  0
  3  4  1  0
  4  5  2  0
  5  6  1  0
  6  7  2  0
  6  8  2  0
  6  9  1  0
  9 10  2  0
 10 11  1  0
 11 12  2  0
 12 13  1  0
 13 14  2  0
  4 15  1  0
 15 16  1  0
 16 17  1  0
 17 18  2  0
 18 19  1  0
 19 20  2  0
 20 21  1  0
 21 22  2  0
 22 23  1  0
 15 24  2  0
 24 25  1  0
 25 26  1  0
 26 27  1  0
 27 28  1  0
 28 29  1  0
 29 30  2  0
 30 31  1  0
 31 32  2  0
 32 33  1  0
 32 34  1  0
 34 35  2  0
 24 36  1  0
 36  2  1  0
 14  9  1  0
 22 17  1  0
 35 29  1  0
  1 37  1  0
  1 38  1  0
  1 39  1  0
 10 40  1  0
 11 41  1  0
 12 42  1  0
 13 43  1  0
 14 44  1  0
 18 45  1  0
 19 46  1  0
 20 47  1  0
 21 48  1  0
 23 49  1  0
 26 50  1  0
 26 51  1  0
 27 52  1  0
 27 53  1  0
 31 54  1  0
 34 55  1  0
 36 56  1  0
M  END
>  <smiles>  (45) 
Cc1nc(=NS(=O)(=O)c2ccccc2)c(Oc2ccccc2O)c(OCCOc2ncc(Br)cn2)[nH]1

>  <score_type>  (45) 
oracle

>  <origin>  (45) 
adgpu

>  <m_score__min__energy>  (45) 
-10.619999999999999

>  <m_primary>  (45) 
energy

$$$$
45:0
     RDKit          3D

 28 29  0  0  0  0  0  0  0  0999 V2000
    0.8260   24.1870  -28.2440 O   0  0  0  0  0  0  0  0  0  0  0  0
   -0.2190   23.5580  -27.9280 C   0  0  0  0  0  0  0  0  0  0  0  0
   -1.3650   23.4730  -28.8500 C   0  0  0  0  0  0  0  0  0  0  0  0
   -1.7530   22.2270  -29.3620 C   0  0  0  0  0  0  0  0  0  0  0  0
   -2.8370   22.1270  -30.2380 C   0  0  0  0  0  0  0  0  0  0  0  0
   -3.5560   23.2780  -30.6160 C   0  0  0  0  0  0  0  0  0  0  0  0
   -4.6550   23.2280  -31.4890 O   0  0  0  0  0  0  0  0  0  0  0  0
   -4.9280   22.1740  -32.4140 C   0  0  0  0  0  0  0  0  0  0  0  0
   -6.3440   21.6760  -32.2620 C   0  0  0  0  0  0  0  0  0  0  0  0
   -7.2980   22.4790  -31.6130 C   0  0  0  0  0  0  0  0  0  0  0  0
   -8.6170   22.0370  -31.4760 C   0  0  0  0  0  0  0  0  0  0  0  0
   -8.9980   20.7970  -31.9950 C   0  0  0  0  0  0  0  0  0  0  0  0
   -8.0620   19.9990  -32.6560 C   0  0  0  0  0  0  0  0  0  0  0  0
   -6.7390   20.4350  -32.7970 C   0  0  0  0  0  0  0  0  0  0  0  0
   -5.8520   19.6450  -33.4530 F   0  0  0  0  0  0  0  0  0  0  0  0
   -3.1660   24.5230  -30.1060 C   0  0  0  0  0  0  0  0  0  0  0  0
   -3.8600   25.6710  -30.4680 O   0  0  0  0  0  0  0  0  0  0  0  0
   -2.0790   24.6220  -29.2300 C   0  0  0  0  0  0  0  0  0  0  0  0
   -0.2767   23.0639  -26.9469 H   0  0  0  0  0  0  0  0  0  0  0  0
   -1.2000   21.3214  -29.0720 H   0  0  0  0  0  0  0  0  0  0  0  0
   -3.1306   21.1440  -30.6347 H   0  0  0  0  0  0  0  0  0  0  0  0
   -4.7862   22.5485  -33.4385 H   0  0  0  0  0  0  0  0  0  0  0  0
   -4.2392   21.3409  -32.2101 H   0  0  0  0  0  0  0  0  0  0  0  0
   -7.0051   23.4601  -31.2110 H   0  0  0  0  0  0  0  0  0  0  0  0
   -9.3562   22.6664  -30.9588 H   0  0  0  0  0  0  0  0  0  0  0  0
  -10.0356   20.4493  -31.8829 H   0  0  0  0  0  0  0  0  0  0  0  0
   -8.3650   19.0248  -33.0672 H   0  0  0  0  0  0  0  0  0  0  0  0
   -1.7818   25.6053  -28.8366 H   0  0  0  0  0  0  0  0  0  0  0  0
  1  2  2  0
  2  3  1  0
  3  4  2  0
  4  5  1  0
  5  6  2  0
  6  7  1  0
  7  8  1  0
  8  9  1  0
  9 10  2  0
 10 11  1  0
 11 12  2  0
 12 13  1  0
 13 14  2  0
 14 15  1  0
  6 16  1  0
 16 17  1  0
 16 18  2  0
 18  3  1  0
 14  9  1  0
  2 19  1  0
  4 20  1  0
  5 21  1  0
  8 22  1  0
  8 23  1  0
 10 24  1  0
 11 25  1  0
 12 26  1  0
 13 27  1  0
 18 28  1  0
M  CHG  1  17  -1
M  END
>  <UniqueID>  (46) 
42

>  <SMILES>  (46) 
O=Cc1ccc(OCc2ccccc2F)c([O-])c1

>  <Energy>  (46) 
29.356017633730463

>  <Genealogy>  (46) 
O=Cc1ccc(OCc2ccccc2F)c([O-])c1 (protonated)
O=Cc1ccc(OCc2ccccc2F)c([O-])c1 (3D coordinates assigned)
O=Cc1ccc(OCc2ccccc2F)c([O-])c1 (optimized conformer: 29.356017633730463 kcal/mol)

>  <smiles>  (46) 
O=Cc1ccc(OCc2ccccc2F)c(O)c1

>  <score_type>  (46) 
oracle

>  <origin>  (46) 
adgpu

>  <m_score__min__energy>  (46) 
-9.9299999999999997

>  <m_primary>  (46) 
energy

$$$$
46:0
     RDKit          3D

 41 42  0  0  0  0  0  0  0  0999 V2000
    2.4400   24.1830  -27.2610 C   0  0  0  0  0  0  0  0  0  0  0  0
    1.0200   24.0480  -27.7050 C   0  0  0  0  0  0  0  0  0  0  0  0
    0.4100   25.0580  -28.1500 O   0  0  0  0  0  0  0  0  0  0  0  0
    0.3480   22.7870  -27.5760 N   0  0  0  0  0  0  0  0  0  0  0  0
   -1.0740   22.6140  -27.8670 C   0  0  0  0  0  0  0  0  0  0  0  0
   -1.3180   22.4470  -29.3730 C   0  0  0  0  0  0  0  0  0  0  0  0
   -2.6000   23.1350  -29.8180 C   0  0  0  0  0  0  0  0  0  0  0  0
   -2.7490   24.5470  -29.7280 C   0  0  0  0  0  0  0  0  0  0  0  0
   -1.7630   25.3930  -29.1220 N   0  0  0  0  0  0  0  0  0  0  0  0
   -3.8490   25.1420  -30.2550 N   0  0  0  0  0  0  0  0  0  0  0  0
   -4.8210   24.4550  -30.8980 C   0  0  0  0  0  0  0  0  0  0  0  0
   -5.8010   25.0830  -31.3830 O   0  0  0  0  0  0  0  0  0  0  0  0
   -4.7290   23.0650  -31.0260 C   0  0  0  0  0  0  0  0  0  0  0  0
   -5.7350   22.3530  -31.7820 C   0  0  0  0  0  0  0  0  0  0  0  0
   -6.5400   21.7900  -32.3940 N   0  0  0  0  0  0  0  0  0  0  0  0
   -3.6360   22.3890  -30.4430 C   0  0  0  0  0  0  0  0  0  0  0  0
   -3.5590   20.5780  -30.5280 S   0  0  0  0  0  0  0  0  0  0  0  0
   -2.2270   20.5550  -31.7390 C   0  0  0  0  0  0  0  0  0  0  0  0
   -1.0390   19.8700  -31.4530 C   0  0  0  0  0  0  0  0  0  0  0  0
    0.0030   19.8430  -32.3850 C   0  0  0  0  0  0  0  0  0  0  0  0
   -0.1420   20.4800  -33.6270 C   0  0  0  0  0  0  0  0  0  0  0  0
    0.9890   20.4850  -34.6110 C   0  0  0  0  0  0  0  0  0  0  0  0
   -1.3350   21.1610  -33.9150 C   0  0  0  0  0  0  0  0  0  0  0  0
   -2.3760   21.1870  -32.9810 C   0  0  0  0  0  0  0  0  0  0  0  0
    2.4817   24.1870  -26.1618 H   0  0  0  0  0  0  0  0  0  0  0  0
    3.0270   23.3366  -27.6471 H   0  0  0  0  0  0  0  0  0  0  0  0
    2.8569   25.1248  -27.6471 H   0  0  0  0  0  0  0  0  0  0  0  0
    0.8690   21.9780  -27.1710 H   0  0  0  0  0  0  0  0  0  0  0  0
   -1.4408   21.7191  -27.3430 H   0  0  0  0  0  0  0  0  0  0  0  0
   -1.6103   23.5117  -27.5255 H   0  0  0  0  0  0  0  0  0  0  0  0
   -0.4706   22.8841  -29.9215 H   0  0  0  0  0  0  0  0  0  0  0  0
   -1.4153   21.3723  -29.5862 H   0  0  0  0  0  0  0  0  0  0  0  0
   -0.9870   25.7740  -29.7070 H   0  0  0  0  0  0  0  0  0  0  0  0
   -1.7330   25.6180  -28.1060 H   0  0  0  0  0  0  0  0  0  0  0  0
   -0.9253   19.3506  -30.4901 H   0  0  0  0  0  0  0  0  0  0  0  0
    0.9403   19.3203  -32.1437 H   0  0  0  0  0  0  0  0  0  0  0  0
    1.9463   20.4892  -34.0692 H   0  0  0  0  0  0  0  0  0  0  0  0
    0.9292   19.5866  -35.2429 H   0  0  0  0  0  0  0  0  0  0  0  0
    0.9213   21.3829  -35.2429 H   0  0  0  0  0  0  0  0  0  0  0  0
   -1.4519   21.6766  -34.8796 H   0  0  0  0  0  0  0  0  0  0  0  0
   -3.3155   21.7057  -33.2224 H   0  0  0  0  0  0  0  0  0  0  0  0
  1  2  1  0
  2  3  2  0
  2  4  1  0
  4  5  1  0
  5  6  1  0
  6  7  1  0
  7  8  2  0
  8  9  1  0
  8 10  1  0
 10 11  1  0
 11 12  2  0
 11 13  1  0
 13 14  1  0
 14 15  3  0
 13 16  2  0
 16 17  1  0
 17 18  1  0
 18 19  2  0
 19 20  1  0
 20 21  2  0
 21 22  1  0
 21 23  1  0
 23 24  2  0
 16  7  1  0
 24 18  1  0
  1 25  1  0
  1 26  1  0
  1 27  1  0
  4 28  1  0
  5 29  1  0
  5 30  1  0
  6 31  1  0
  6 32  1  0
  9 33  1  0
  9 34  1  0
 19 35  1  0
 20 36  1  0
 22 37  1  0
 22 38  1  0
 22 39  1  0
 23 40  1  0
 24 41  1  0
M  CHG  1  10  -1
M  END
>  <UniqueID>  (47) 
43

>  <SMILES>  (47) 
CC(=O)NCCc1c(N)[n-]c(=O)c(C#N)c1Sc1ccc(C)cc1

>  <Energy>  (47) 
36.60450928697158

>  <Genealogy>  (47) 
CC(=O)NCCc1c(N)[n-]c(=O)c(C#N)c1Sc1ccc(C)cc1 (protonated)
CC(=O)NCCc1c(N)[n-]c(=O)c(C#N)c1Sc1ccc(C)cc1 (3D coordinates assigned)
CC(=O)NCCc1c(N)[n-]c(=O)c(C#N)c1Sc1ccc(C)cc1 (optimized conformer: 36.60450928697158 kcal/mol)

>  <smiles>  (47) 
CC(=O)NCCc1c(N)[nH]c(=O)c(C#N)c1Sc1ccc(C)cc1

>  <score_type>  (47) 
oracle

>  <origin>  (47) 
adgpu

>  <m_score__min__energy>  (47) 
-9.2799999999999994

>  <m_primary>  (47) 
energy

$$$$
47:0
     RDKit          3D

 51 53  0  0  0  0  0  0  0  0999 V2000
   -6.0020   24.3790  -29.7360 C   0  0  0  0  0  0  0  0  0  0  0  0
   -5.2370   25.4020  -30.5600 C   0  0  0  0  0  0  0  0  0  0  0  0
   -3.9110   24.9330  -30.7870 O   0  0  0  0  0  0  0  0  0  0  0  0
   -3.5020   23.5950  -30.6660 C   0  0  0  0  0  0  0  0  0  0  0  0
   -3.7560   22.6500  -31.6790 C   0  0  0  0  0  0  0  0  0  0  0  0
   -3.3840   21.3080  -31.5190 C   0  0  0  0  0  0  0  0  0  0  0  0
   -3.6840   20.2920  -32.6060 C   0  0  0  0  0  0  0  0  0  0  0  0
   -5.0760   20.3530  -33.1200 N   0  0  1  0  0  0  0  0  0  0  0  0
   -5.3180   19.3350  -34.1600 C   0  0  0  0  0  0  0  0  0  0  0  0
   -6.0740   20.2650  -32.0260 C   0  0  0  0  0  0  0  0  0  0  0  0
   -7.0310   21.4310  -32.0480 C   0  0  0  0  0  0  0  0  0  0  0  0
   -6.6570   22.6700  -32.4330 N   0  0  0  0  0  0  0  0  0  0  0  0
   -7.7850   23.4030  -32.3330 C   0  0  0  0  0  0  0  0  0  0  0  0
   -8.8180   22.6060  -31.8940 C   0  0  0  0  0  0  0  0  0  0  0  0
   -8.3400   21.3630  -31.7200 N   0  0  0  0  0  0  0  0  0  0  0  0
   -9.0920   20.2050  -31.2430 C   0  0  0  0  0  0  0  0  0  0  0  0
   -2.7310   20.9130  -30.3440 C   0  0  0  0  0  0  0  0  0  0  0  0
   -2.4640   21.8410  -29.3380 C   0  0  0  0  0  0  0  0  0  0  0  0
   -2.8400   23.1860  -29.4880 C   0  0  0  0  0  0  0  0  0  0  0  0
   -2.5380   24.1530  -28.4040 C   0  0  0  0  0  0  0  0  0  0  0  0
   -1.3370   24.8850  -28.4100 C   0  0  0  0  0  0  0  0  0  0  0  0
   -1.0570   25.7910  -27.3840 C   0  0  0  0  0  0  0  0  0  0  0  0
   -1.9660   25.9690  -26.3370 C   0  0  0  0  0  0  0  0  0  0  0  0
   -1.6900   26.8490  -25.3430 F   0  0  0  0  0  0  0  0  0  0  0  0
   -3.1590   25.2390  -26.3170 C   0  0  0  0  0  0  0  0  0  0  0  0
   -4.0430   25.4100  -25.3020 F   0  0  0  0  0  0  0  0  0  0  0  0
   -3.4430   24.3330  -27.3430 C   0  0  0  0  0  0  0  0  0  0  0  0
   -5.8499   24.5825  -28.6657 H   0  0  0  0  0  0  0  0  0  0  0  0
   -7.0741   24.4450  -29.9730 H   0  0  0  0  0  0  0  0  0  0  0  0
   -5.6356   23.3693  -29.9730 H   0  0  0  0  0  0  0  0  0  0  0  0
   -5.7442   25.5489  -31.5250 H   0  0  0  0  0  0  0  0  0  0  0  0
   -5.2000   26.3574  -30.0161 H   0  0  0  0  0  0  0  0  0  0  0  0
   -4.2525   22.9690  -32.6073 H   0  0  0  0  0  0  0  0  0  0  0  0
   -2.9966   20.4705  -33.4460 H   0  0  0  0  0  0  0  0  0  0  0  0
   -3.5531   19.2964  -32.1570 H   0  0  0  0  0  0  0  0  0  0  0  0
   -5.1760   21.2920  -33.5770 H   0  0  0  0  0  0  0  0  0  0  0  0
   -5.5472   18.3707  -33.6829 H   0  0  0  0  0  0  0  0  0  0  0  0
   -6.1674   19.6453  -34.7863 H   0  0  0  0  0  0  0  0  0  0  0  0
   -4.4198   19.2299  -34.7863 H   0  0  0  0  0  0  0  0  0  0  0  0
   -6.6460   19.3323  -32.1396 H   0  0  0  0  0  0  0  0  0  0  0  0
   -5.5344   20.2826  -31.0676 H   0  0  0  0  0  0  0  0  0  0  0  0
   -7.8669   24.4748  -32.5667 H   0  0  0  0  0  0  0  0  0  0  0  0
   -9.8540   22.9305  -31.7167 H   0  0  0  0  0  0  0  0  0  0  0  0
   -9.0963   20.1984  -30.1430 H   0  0  0  0  0  0  0  0  0  0  0  0
  -10.1262   20.2615  -31.6134 H   0  0  0  0  0  0  0  0  0  0  0  0
   -8.6197   19.2832  -31.6134 H   0  0  0  0  0  0  0  0  0  0  0  0
   -2.4269   19.8639  -30.2142 H   0  0  0  0  0  0  0  0  0  0  0  0
   -1.9543   21.5168  -28.4187 H   0  0  0  0  0  0  0  0  0  0  0  0
   -0.6142   24.7434  -29.2270 H   0  0  0  0  0  0  0  0  0  0  0  0
   -0.1191   26.3656  -27.4001 H   0  0  0  0  0  0  0  0  0  0  0  0
   -4.3801   23.7574  -27.3202 H   0  0  0  0  0  0  0  0  0  0  0  0
  1  2  1  0
  2  3  1  0
  3  4  1  0
  4  5  2  0
  5  6  1  0
  6  7  1  0
  7  8  1  0
  8  9  1  0
  8 10  1  0
 10 11  1  0
 11 12  2  0
 12 13  1  0
 13 14  2  0
 14 15  1  0
 15 16  1  0
  6 17  2  0
 17 18  1  0
 18 19  2  0
 19 20  1  0
 20 21  2  0
 21 22  1  0
 22 23  2  0
 23 24  1  0
 23 25  1  0
 25 26  1  0
 25 27  2  0
 19  4  1  0
 27 20  1  0
 15 11  1  0
  1 28  1  0
  1 29  1  0
  1 30  1  0
  2 31  1  0
  2 32  1  0
  5 33  1  0
  7 34  1  0
  7 35  1  0
  8 36  1  6
  9 37  1  0
  9 38  1  0
  9 39  1  0
 10 40  1  0
 10 41  1  0
 13 42  1  0
 14 43  1  0
 16 44  1  0
 16 45  1  0
 16 46  1  0
 17 47  1  0
 18 48  1  0
 21 49  1  0
 22 50  1  0
 27 51  1  0
M  CHG  1   8   1
M  END
>  <UniqueID>  (48) 
44

>  <SMILES>  (48) 
CCOc1cc(C[N@@H+](C)Cc2nccn2C)ccc1-c1ccc(F)c(F)c1

>  <Energy>  (48) 
86.36343993183573

>  <Genealogy>  (48) 
CCOc1cc(C[NH+](C)Cc2nccn2C)ccc1-c1ccc(F)c(F)c1 (protonated)
CCOc1cc(C[N@@H+](C)Cc2nccn2C)ccc1-c1ccc(F)c(F)c1 (chirality)
CCOc1cc(C[N@@H+](C)Cc2nccn2C)ccc1-c1ccc(F)c(F)c1 (3D coordinates assigned)
CCOc1cc(C[N@@H+](C)Cc2nccn2C)ccc1-c1ccc(F)c(F)c1 (optimized conformer: 86.36343993183573 kcal/mol)

>  <smiles>  (48) 
CCOc1cc(CN(C)Cc2nccn2C)ccc1-c1ccc(F)c(F)c1

>  <score_type>  (48) 
oracle

>  <origin>  (48) 
adgpu

>  <m_score__min__energy>  (48) 
-7.6600000000000001

>  <m_primary>  (48) 
energy

$$$$
48:0
     RDKit          3D

 26 27  0  0  0  0  0  0  0  0999 V2000
   -3.0903   23.9054  -28.0399 H   0  0  0  0  0  0  0  0  0  0  0  0
   -3.5590   24.2170  -28.9850 C   0  0  0  0  0  0  0  0  0  0  0  0
   -3.1080   25.1510  -29.7930 O   0  0  0  0  0  0  0  0  0  0  0  0
   -3.8780   25.2970  -30.8320 N   0  0  0  0  0  0  0  0  0  0  0  0
   -4.8780   24.4120  -30.6890 C   0  0  0  0  0  0  0  0  0  0  0  0
   -5.8390   24.2890  -31.5530 N   0  0  0  0  0  0  0  0  0  0  0  0
   -7.1540   23.1660  -31.4030 S   0  0  0  0  0  0  0  0  0  0  0  0
   -8.3810   23.7620  -32.0370 O   0  0  0  0  0  0  0  0  0  0  0  0
   -7.4260   22.9190  -29.9460 O   0  0  0  0  0  0  0  0  0  0  0  0
   -6.7430   21.6370  -32.1740 C   0  0  0  0  0  0  0  0  0  0  0  0
   -7.7260   20.6580  -32.3710 C   0  0  0  0  0  0  0  0  0  0  0  0
   -8.7582   20.8417  -32.0380 H   0  0  0  0  0  0  0  0  0  0  0  0
   -7.3980   19.4500  -32.9890 C   0  0  0  0  0  0  0  0  0  0  0  0
   -8.1727   18.6845  -33.1433 H   0  0  0  0  0  0  0  0  0  0  0  0
   -6.0880   19.2110  -33.4120 C   0  0  0  0  0  0  0  0  0  0  0  0
   -5.8367   18.2577  -33.8998 H   0  0  0  0  0  0  0  0  0  0  0  0
   -5.0930   20.1770  -33.2190 C   0  0  0  0  0  0  0  0  0  0  0  0
   -3.7930   19.8910  -33.6620 O   0  0  0  0  0  0  0  0  0  0  0  0
   -2.6690   20.7390  -33.4540 C   0  0  0  0  0  0  0  0  0  0  0  0
   -2.5004   20.8662  -32.3745 H   0  0  0  0  0  0  0  0  0  0  0  0
   -1.7780   20.2861  -33.9134 H   0  0  0  0  0  0  0  0  0  0  0  0
   -2.8599   21.7201  -33.9134 H   0  0  0  0  0  0  0  0  0  0  0  0
   -5.4270   21.3930  -32.5910 C   0  0  0  0  0  0  0  0  0  0  0  0
   -4.6510   22.1552  -32.4270 H   0  0  0  0  0  0  0  0  0  0  0  0
   -4.7170   23.6930  -29.5190 C   0  0  0  0  0  0  0  0  0  0  0  0
   -5.3575   22.8962  -29.1128 H   0  0  0  0  0  0  0  0  0  0  0  0
  1  2  1  0
  2  3  1  0
  3  4  1  0
  4  5  1  0
  5  6  2  0
  6  7  1  0
  7  8  2  0
  7  9  2  0
  7 10  1  0
 10 11  2  0
 11 12  1  0
 11 13  1  0
 13 14  1  0
 13 15  2  0
 15 16  1  0
 15 17  1  0
 17 18  1  0
 18 19  1  0
 19 20  1  0
 19 21  1  0
 19 22  1  0
 17 23  2  0
 23 24  1  0
  5 25  1  0
 25 26  1  0
 25  2  2  0
 23 10  1  0
M  CHG  1   4  -1
M  END
>  <UniqueID>  (49) 
45

>  <SMILES>  (49) 
COc1cccc(S(=O)(=O)/N=c2\cco[n-]2)c1

>  <Energy>  (49) 
59.80174418104725

>  <Genealogy>  (49) 
COc1cccc(S(=O)(=O)N=c2cco[n-]2)c1 (protonated)
COc1cccc(S(=O)(=O)/N=c2\cco[n-]2)c1 (cis-trans isomerization)
COc1cccc(S(=O)(=O)/N=c2\cco[n-]2)c1 (3D coordinates assigned)
COc1cccc(S(=O)(=O)/N=c2\cco[n-]2)c1 (optimized conformer: 59.80174418104725 kcal/mol)

>  <smiles>  (49) 
COc1cccc(S(=O)(=O)N=c2cco[nH]2)c1

>  <score_type>  (49) 
oracle

>  <origin>  (49) 
adgpu

>  <m_score__min__energy>  (49) 
-8.5800000000000001

>  <m_primary>  (49) 
energy

$$$$
