0:0
     RDKit          3D

 41 43  0  0  0  0  0  0  0  0999 V2000
   -5.8650   24.3470  -31.8440 O   0  0  0  0  0  0  0  0  0  0  0  0
   -5.5930   23.3720  -31.0910 C   0  0  0  0  0  0  0  0  0  0  0  0
   -6.4570   22.2270  -31.0720 N   0  0  0  0  0  0  0  0  0  0  0  0
   -6.2810   21.0110  -31.8140 C   0  0  0  0  0  0  0  0  0  0  0  0
   -7.1100   19.8910  -31.6180 C   0  0  0  0  0  0  0  0  0  0  0  0
   -6.8900   18.7180  -32.3450 C   0  0  0  0  0  0  0  0  0  0  0  0
   -5.8380   18.6440  -33.2660 C   0  0  0  0  0  0  0  0  0  0  0  0
   -5.5720   17.1610  -34.1790 S   0  0  0  0  0  0  0  0  0  0  0  0
   -5.1540   17.5220  -35.5760 O   0  0  0  0  0  0  0  0  0  0  0  0
   -6.8430   16.3590  -34.2320 O   0  0  0  0  0  0  0  0  0  0  0  0
   -4.3200   16.2150  -33.4090 N   0  0  0  0  0  0  0  0  0  0  0  0
   -4.8790   15.3580  -32.3370 C   0  0  0  0  0  0  0  0  0  0  0  0
   -4.9570   13.8800  -32.7580 C   0  0  0  0  0  0  0  0  0  0  0  0
   -3.7000   13.3350  -33.1280 O   0  0  0  0  0  0  0  0  0  0  0  0
   -2.8410   14.2650  -33.7780 C   0  0  0  0  0  0  0  0  0  0  0  0
   -3.5720   15.4510  -34.4250 C   0  0  0  0  0  0  0  0  0  0  0  0
   -4.9920   19.7480  -33.4400 C   0  0  0  0  0  0  0  0  0  0  0  0
   -5.2100   20.9210  -32.7120 C   0  0  0  0  0  0  0  0  0  0  0  0
   -4.3480   23.3970  -30.2760 C   0  0  0  0  0  0  0  0  0  0  0  0
   -3.9470   22.2310  -29.5900 C   0  0  0  0  0  0  0  0  0  0  0  0
   -2.7850   22.2190  -28.8170 C   0  0  0  0  0  0  0  0  0  0  0  0
   -2.0000   23.3680  -28.7130 C   0  0  0  0  0  0  0  0  0  0  0  0
   -0.8450   23.3470  -27.9390 O   0  0  0  0  0  0  0  0  0  0  0  0
   -2.3770   24.5340  -29.3850 C   0  0  0  0  0  0  0  0  0  0  0  0
   -1.5900   25.6760  -29.2800 O   0  0  0  0  0  0  0  0  0  0  0  0
   -3.5410   24.5550  -30.1660 C   0  0  0  0  0  0  0  0  0  0  0  0
   -3.8770   25.7320  -30.8260 O   0  0  0  0  0  0  0  0  0  0  0  0
   -7.9336   19.9389  -30.8904 H   0  0  0  0  0  0  0  0  0  0  0  0
   -7.5465   17.8486  -32.1930 H   0  0  0  0  0  0  0  0  0  0  0  0
   -4.2377   15.4398  -31.4471 H   0  0  0  0  0  0  0  0  0  0  0  0
   -5.9015   15.7041  -32.1257 H   0  0  0  0  0  0  0  0  0  0  0  0
   -5.3557   13.2972  -31.9145 H   0  0  0  0  0  0  0  0  0  0  0  0
   -5.6084   13.8270  -33.6428 H   0  0  0  0  0  0  0  0  0  0  0  0
   -2.1338   14.6600  -33.0337 H   0  0  0  0  0  0  0  0  0  0  0  0
   -2.3419   13.7189  -34.5921 H   0  0  0  0  0  0  0  0  0  0  0  0
   -2.8351   16.1120  -34.9047 H   0  0  0  0  0  0  0  0  0  0  0  0
   -4.2808   15.0661  -35.1730 H   0  0  0  0  0  0  0  0  0  0  0  0
   -4.1547   19.6910  -34.1511 H   0  0  0  0  0  0  0  0  0  0  0  0
   -4.5355   21.7797  -32.8453 H   0  0  0  0  0  0  0  0  0  0  0  0
   -4.5582   21.3196  -29.6654 H   0  0  0  0  0  0  0  0  0  0  0  0
   -2.4872   21.3015  -28.2884 H   0  0  0  0  0  0  0  0  0  0  0  0
  1  2  2  0
  2  3  1  0
  3  4  1  0
  4  5  2  0
  5  6  1  0
  6  7  2  0
  7  8  1  0
  8  9  2  0
  8 10  2  0
  8 11  1  0
 11 12  1  0
 12 13  1  0
 13 14  1  0
 14 15  1  0
 15 16  1  0
  7 17  1  0
 17 18  2  0
  2 19  1  0
 19 20  2  0
 20 21  1  0
 21 22  2  0
 22 23  1  0
 22 24  1  0
 24 25  1  0
 24 26  2  0
 26 27  1  0
 18  4  1  0
 26 19  1  0
 16 11  1  0
  5 28  1  0
  6 29  1  0
 12 30  1  0
 12 31  1  0
 13 32  1  0
 13 33  1  0
 15 34  1  0
 15 35  1  0
 16 36  1  0
 16 37  1  0
 17 38  1  0
 18 39  1  0
 20 40  1  0
 21 41  1  0
M  CHG  4   3  -1  23  -1  25  -1  27  -1
M  END
>  <UniqueID>  (1) 
1

>  <SMILES>  (1) 
O=C([N-]c1ccc(S(=O)(=O)N2CCOCC2)cc1)c1ccc([O-])c([O-])c1[O-]

>  <Energy>  (1) 
62.10692704519864

>  <Genealogy>  (1) 
O=C([N-]c1ccc(S(=O)(=O)N2CCOCC2)cc1)c1ccc([O-])c([O-])c1[O-] (protonated)
O=C([N-]c1ccc(S(=O)(=O)N2CCOCC2)cc1)c1ccc([O-])c([O-])c1[O-] (3D coordinates assigned)
O=C([N-]c1ccc(S(=O)(=O)N2CCOCC2)cc1)c1ccc([O-])c([O-])c1[O-] (nonaromatic ring conformer: 62.10692704519864 kcal/mol)

>  <smiles>  (1) 
O=C(Nc1ccc(S(=O)(=O)N2CCOCC2)cc1)c1ccc(O)c(O)c1O

>  <score_type>  (1) 
oracle

>  <origin>  (1) 
adgpu

>  <m_score__min__energy>  (1) 
-14.76

>  <m_primary>  (1) 
energy

$$$$
1:0
     RDKit          3D

 55 57  0  0  0  0  0  0  0  0999 V2000
    0.7380   23.2150  -36.0580 C   0  0  0  0  0  0  0  0  0  0  0  0
    0.2820   21.8890  -35.4500 C   0  0  0  0  0  0  0  0  0  0  0  0
    1.4430   20.9060  -35.2220 C   0  0  0  0  0  0  0  0  0  0  0  0
    1.0500   19.4310  -35.4020 C   0  0  0  0  0  0  0  0  0  0  0  0
   -0.3070   19.1750  -34.9230 N   0  0  0  0  0  0  0  0  0  0  0  0
   -0.8850   17.8610  -34.8940 C   0  0  0  0  0  0  0  0  0  0  0  0
   -0.2250   16.8720  -35.3180 O   0  0  0  0  0  0  0  0  0  0  0  0
   -2.2710   17.6520  -34.3960 C   0  0  0  0  0  0  0  0  0  0  0  0
   -2.9780   16.6150  -35.0070 C   0  0  0  0  0  0  0  0  0  0  0  0
   -4.0230   15.9170  -34.4770 N   0  0  0  0  0  0  0  0  0  0  0  0
   -4.2290   14.5620  -35.0390 C   0  0  0  0  0  0  0  0  0  0  0  0
   -3.1150   14.2130  -36.0230 C   0  0  0  0  0  0  0  0  0  0  0  0
   -4.8710   16.3340  -33.4820 C   0  0  0  0  0  0  0  0  0  0  0  0
   -5.5920   15.4600  -32.9140 O   0  0  0  0  0  0  0  0  0  0  0  0
   -5.1080   17.6830  -33.1320 C   0  0  0  0  0  0  0  0  0  0  0  0
   -6.4130   17.9920  -32.6710 C   0  0  0  0  0  0  0  0  0  0  0  0
   -6.7580   19.2630  -32.2290 C   0  0  0  0  0  0  0  0  0  0  0  0
   -5.8080   20.2810  -32.2040 C   0  0  0  0  0  0  0  0  0  0  0  0
   -6.1740   21.6410  -31.7310 C   0  0  0  0  0  0  0  0  0  0  0  0
   -7.4490   22.1690  -31.9970 C   0  0  0  0  0  0  0  0  0  0  0  0
   -7.7930   23.4450  -31.5490 C   0  0  0  0  0  0  0  0  0  0  0  0
   -6.8720   24.2130  -30.8350 C   0  0  0  0  0  0  0  0  0  0  0  0
   -5.5880   23.7090  -30.5580 C   0  0  0  0  0  0  0  0  0  0  0  0
   -4.6070   24.5240  -29.8030 C   0  0  0  0  0  0  0  0  0  0  0  0
   -3.6170   25.2890  -30.4890 N   0  0  0  0  0  0  0  0  0  0  0  0
   -4.6360   24.5480  -28.5430 O   0  0  0  0  0  0  0  0  0  0  0  0
   -5.2490   22.4210  -31.0110 C   0  0  0  0  0  0  0  0  0  0  0  0
   -4.5060   19.9960  -32.6280 C   0  0  0  0  0  0  0  0  0  0  0  0
   -4.1260   18.7130  -33.1070 C   0  0  0  0  0  0  0  0  0  0  0  0
   -2.7670   18.5380  -33.4280 C   0  0  0  0  0  0  0  0  0  0  0  0
   -1.9280   19.3010  -32.8650 O   0  0  0  0  0  0  0  0  0  0  0  0
    0.9816   23.9233  -35.2524 H   0  0  0  0  0  0  0  0  0  0  0  0
    1.6296   23.0460  -36.6796 H   0  0  0  0  0  0  0  0  0  0  0  0
   -0.0690   23.6301  -36.6796 H   0  0  0  0  0  0  0  0  0  0  0  0
   -0.2002   22.0935  -34.4827 H   0  0  0  0  0  0  0  0  0  0  0  0
   -0.4131   21.4203  -36.1621 H   0  0  0  0  0  0  0  0  0  0  0  0
    2.2433   21.1419  -35.9389 H   0  0  0  0  0  0  0  0  0  0  0  0
    1.7653   21.0270  -34.1773 H   0  0  0  0  0  0  0  0  0  0  0  0
    1.1063   19.1741  -36.4701 H   0  0  0  0  0  0  0  0  0  0  0  0
    1.7454   18.8146  -34.8133 H   0  0  0  0  0  0  0  0  0  0  0  0
   -0.8720   19.9920  -34.5950 H   0  0  0  0  0  0  0  0  0  0  0  0
   -2.6593   16.3314  -36.0209 H   0  0  0  0  0  0  0  0  0  0  0  0
   -4.2312   13.8275  -34.2201 H   0  0  0  0  0  0  0  0  0  0  0  0
   -5.1914   14.5415  -35.5713 H   0  0  0  0  0  0  0  0  0  0  0  0
   -2.2096   13.9294  -35.4663 H   0  0  0  0  0  0  0  0  0  0  0  0
   -3.4349   13.3720  -36.6558 H   0  0  0  0  0  0  0  0  0  0  0  0
   -2.8979   15.0862  -36.6558 H   0  0  0  0  0  0  0  0  0  0  0  0
   -7.1764   17.2001  -32.6632 H   0  0  0  0  0  0  0  0  0  0  0  0
   -7.7868   19.4664  -31.8971 H   0  0  0  0  0  0  0  0  0  0  0  0
   -8.1805   21.5726  -32.5620 H   0  0  0  0  0  0  0  0  0  0  0  0
   -8.7948   23.8475  -31.7596 H   0  0  0  0  0  0  0  0  0  0  0  0
   -7.1516   25.2183  -30.4868 H   0  0  0  0  0  0  0  0  0  0  0  0
   -3.8850   26.0960  -31.0940 H   0  0  0  0  0  0  0  0  0  0  0  0
   -4.2476   22.0178  -30.7998 H   0  0  0  0  0  0  0  0  0  0  0  0
   -3.7491   20.7933  -32.5894 H   0  0  0  0  0  0  0  0  0  0  0  0
  1  2  1  0
  2  3  1  0
  3  4  1  0
  4  5  1  0
  5  6  1  0
  6  7  2  0
  6  8  1  0
  8  9  2  0
  9 10  1  0
 10 11  1  0
 11 12  1  0
 10 13  1  0
 13 14  2  0
 13 15  1  0
 15 16  2  0
 16 17  1  0
 17 18  2  0
 18 19  1  0
 19 20  2  0
 20 21  1  0
 21 22  2  0
 22 23  1  0
 23 24  1  0
 24 25  1  0
 24 26  2  0
 23 27  2  0
 18 28  1  0
 28 29  2  0
 29 30  1  0
 30 31  2  0
 30  8  1  0
 29 15  1  0
 27 19  1  0
  1 32  1  0
  1 33  1  0
  1 34  1  0
  2 35  1  0
  2 36  1  0
  3 37  1  0
  3 38  1  0
  4 39  1  0
  4 40  1  0
  5 41  1  0
  9 42  1  0
 11 43  1  0
 11 44  1  0
 12 45  1  0
 12 46  1  0
 12 47  1  0
 16 48  1  0
 17 49  1  0
 20 50  1  0
 21 51  1  0
 22 52  1  0
 25 53  1  0
 27 54  1  0
 28 55  1  0
M  CHG  1  25  -1
M  END
>  <UniqueID>  (2) 
2

>  <SMILES>  (2) 
CCCCNC(=O)c1cn(CC)c(=O)c2ccc(-c3cccc(C([NH-])=O)c3)cc2c1=O

>  <Energy>  (2) 
107.17107064575889

>  <Genealogy>  (2) 
CCCCNC(=O)c1cn(CC)c(=O)c2ccc(-c3cccc(C([NH-])=O)c3)cc2c1=O (protonated)
CCCCNC(=O)c1cn(CC)c(=O)c2ccc(-c3cccc(C([NH-])=O)c3)cc2c1=O (3D coordinates assigned)
CCCCNC(=O)c1cn(CC)c(=O)c2ccc(-c3cccc(C([NH-])=O)c3)cc2c1=O (optimized conformer: 107.17107064575889 kcal/mol)

>  <smiles>  (2) 
CCCCNC(=O)c1cn(CC)c(=O)c2ccc(-c3cccc(C(N)=O)c3)cc2c1=O

>  <score_type>  (2) 
oracle

>  <origin>  (2) 
adgpu

>  <m_score__min__energy>  (2) 
-11.18

>  <m_primary>  (2) 
energy

$$$$
2:0
     RDKit          3D

 59 63  0  0  0  0  0  0  0  0999 V2000
   -6.5690   22.0300  -32.3190 C   0  0  0  0  0  0  0  0  0  0  0  0
   -6.2020   23.1410  -31.3720 C   0  0  0  0  0  0  0  0  0  0  0  0
   -7.2100   23.9280  -30.7940 C   0  0  0  0  0  0  0  0  0  0  0  0
   -6.8860   24.9970  -29.9580 C   0  0  0  0  0  0  0  0  0  0  0  0
   -5.5570   25.2670  -29.6620 C   0  0  0  0  0  0  0  0  0  0  0  0
   -4.5430   24.5080  -30.2490 C   0  0  0  0  0  0  0  0  0  0  0  0
   -4.8520   23.4720  -31.1430 C   0  0  0  0  0  0  0  0  0  0  0  0
   -3.8170   22.7730  -31.8590 N   0  0  0  0  0  0  0  0  0  0  0  0
   -3.3940   21.4190  -31.6400 C   0  0  0  0  0  0  0  0  0  0  0  0
   -4.2240   20.5430  -31.2600 O   0  0  0  0  0  0  0  0  0  0  0  0
   -1.9660   21.0460  -31.8110 C   0  0  0  0  0  0  0  0  0  0  0  0
   -1.3770   21.2030  -33.0830 C   0  0  0  0  0  0  0  0  0  0  0  0
   -0.0270   20.8970  -33.2970 C   0  0  0  0  0  0  0  0  0  0  0  0
    0.6820   21.1070  -34.9000 S   0  0  0  0  0  0  0  0  0  0  0  0
    1.8060   20.1300  -35.0790 O   0  0  0  0  0  0  0  0  0  0  0  0
   -0.3620   20.8240  -35.9440 O   0  0  0  0  0  0  0  0  0  0  0  0
    1.2630   22.7410  -35.0820 N   0  0  0  0  0  0  0  0  0  0  0  0
    2.6130   22.7640  -35.6440 C   0  0  0  0  0  0  0  0  0  0  0  0
    2.7480   24.0740  -36.3980 C   0  0  0  0  0  0  0  0  0  0  0  0
    1.3240   24.5650  -36.6200 C   0  0  0  0  0  0  0  0  0  0  0  0
    0.4330   23.4990  -36.0140 C   0  0  0  0  0  0  0  0  0  0  0  0
    0.7460   20.4170  -32.2310 C   0  0  0  0  0  0  0  0  0  0  0  0
    0.1710   20.2320  -30.9670 C   0  0  0  0  0  0  0  0  0  0  0  0
   -1.1810   20.5220  -30.7490 C   0  0  0  0  0  0  0  0  0  0  0  0
   -1.8850   20.1460  -29.1310 S   0  0  0  0  0  0  0  0  0  0  0  0
   -1.6130   21.7960  -28.4760 C   0  0  0  0  0  0  0  0  0  0  0  0
   -1.3460   21.9570  -27.0890 C   0  0  0  0  0  0  0  0  0  0  0  0
   -1.0960   23.2320  -26.5480 C   0  0  0  0  0  0  0  0  0  0  0  0
   -1.1560   24.3110  -27.4140 C   0  0  0  0  0  0  0  0  0  0  0  0
   -1.0370   25.6660  -27.2210 C   0  0  0  0  0  0  0  0  0  0  0  0
   -0.6520   26.3750  -25.9570 C   0  0  0  0  0  0  0  0  0  0  0  0
   -1.2760   26.2880  -28.4070 N   0  0  0  0  0  0  0  0  0  0  0  0
   -1.5240   25.3690  -29.3440 N   0  0  0  0  0  0  0  0  0  0  0  0
   -1.4420   24.1670  -28.7480 C   0  0  0  0  0  0  0  0  0  0  0  0
   -1.6380   22.9170  -29.3270 C   0  0  0  0  0  0  0  0  0  0  0  0
   -6.8630   21.1398  -31.7435 H   0  0  0  0  0  0  0  0  0  0  0  0
   -7.4089   22.3509  -32.9527 H   0  0  0  0  0  0  0  0  0  0  0  0
   -5.7033   21.7874  -32.9527 H   0  0  0  0  0  0  0  0  0  0  0  0
   -8.2658   23.6998  -31.0021 H   0  0  0  0  0  0  0  0  0  0  0  0
   -7.6831   25.6253  -29.5338 H   0  0  0  0  0  0  0  0  0  0  0  0
   -5.3028   26.0790  -28.9649 H   0  0  0  0  0  0  0  0  0  0  0  0
   -3.4917   24.7243  -30.0082 H   0  0  0  0  0  0  0  0  0  0  0  0
   -1.9877   21.5717  -33.9204 H   0  0  0  0  0  0  0  0  0  0  0  0
    3.3602   22.7113  -34.8384 H   0  0  0  0  0  0  0  0  0  0  0  0
    2.7795   21.9046  -36.3101 H   0  0  0  0  0  0  0  0  0  0  0  0
    3.3175   24.8030  -35.8029 H   0  0  0  0  0  0  0  0  0  0  0  0
    3.2873   23.9441  -37.3479 H   0  0  0  0  0  0  0  0  0  0  0  0
    1.1666   25.5303  -36.1166 H   0  0  0  0  0  0  0  0  0  0  0  0
    1.1067   24.7226  -37.6867 H   0  0  0  0  0  0  0  0  0  0  0  0
   -0.4078   23.9658  -35.4800 H   0  0  0  0  0  0  0  0  0  0  0  0
    0.0119   22.8451  -36.7919 H   0  0  0  0  0  0  0  0  0  0  0  0
    1.8096   20.1843  -32.3876 H   0  0  0  0  0  0  0  0  0  0  0  0
    0.7879   19.8552  -30.1378 H   0  0  0  0  0  0  0  0  0  0  0  0
   -1.3347   21.0753  -26.4313 H   0  0  0  0  0  0  0  0  0  0  0  0
   -0.8626   23.3659  -25.4814 H   0  0  0  0  0  0  0  0  0  0  0  0
   -0.9750   25.7801  -25.0899 H   0  0  0  0  0  0  0  0  0  0  0  0
    0.4400   26.5039  -25.9269 H   0  0  0  0  0  0  0  0  0  0  0  0
   -1.1386   27.3611  -25.9269 H   0  0  0  0  0  0  0  0  0  0  0  0
   -1.8061   22.8089  -30.4087 H   0  0  0  0  0  0  0  0  0  0  0  0
  1  2  1  0
  2  3  2  0
  3  4  1  0
  4  5  2  0
  5  6  1  0
  6  7  2  0
  7  8  1  0
  8  9  1  0
  9 10  2  0
  9 11  1  0
 11 12  2  0
 12 13  1  0
 13 14  1  0
 14 15  2  0
 14 16  2  0
 14 17  1  0
 17 18  1  0
 18 19  1  0
 19 20  1  0
 20 21  1  0
 13 22  2  0
 22 23  1  0
 23 24  2  0
 24 25  1  0
 25 26  1  0
 26 27  1  0
 27 28  2  0
 28 29  1  0
 29 30  2  0
 30 31  1  0
 30 32  1  0
 32 33  1  0
 33 34  2  0
 34 35  1  0
  7  2  1  0
 24 11  1  0
 35 26  2  0
 21 17  1  0
 34 29  1  0
  1 36  1  0
  1 37  1  0
  1 38  1  0
  3 39  1  0
  4 40  1  0
  5 41  1  0
  6 42  1  0
 12 43  1  0
 18 44  1  0
 18 45  1  0
 19 46  1  0
 19 47  1  0
 20 48  1  0
 20 49  1  0
 21 50  1  0
 21 51  1  0
 22 52  1  0
 23 53  1  0
 27 54  1  0
 28 55  1  0
 31 56  1  0
 31 57  1  0
 31 58  1  0
 35 59  1  0
M  CHG  2   8  -1  32  -1
M  END
>  <UniqueID>  (3) 
3

>  <SMILES>  (3) 
Cc1ccccc1[N-]C(=O)c1cc(S(=O)(=O)N2CCCC2)ccc1Sc1ccc2c(C)[n-]nc2c1

>  <Energy>  (3) 
107.43431866758274

>  <Genealogy>  (3) 
Cc1ccccc1[N-]C(=O)c1cc(S(=O)(=O)N2CCCC2)ccc1Sc1ccc2c(C)[n-]nc2c1 (protonated)
Cc1ccccc1[N-]C(=O)c1cc(S(=O)(=O)N2CCCC2)ccc1Sc1ccc2c(C)[n-]nc2c1 (3D coordinates assigned)
Cc1ccccc1[N-]C(=O)c1cc(S(=O)(=O)N2CCCC2)ccc1Sc1ccc2c(C)[n-]nc2c1 (nonaromatic ring conformer: 107.43431866758274 kcal/mol)

>  <smiles>  (3) 
Cc1ccccc1NC(=O)c1cc(S(=O)(=O)N2CCCC2)ccc1Sc1ccc2c(C)[nH]nc2c1

>  <score_type>  (3) 
oracle

>  <origin>  (3) 
adgpu

>  <m_score__min__energy>  (3) 
-12.43

>  <m_primary>  (3) 
energy

$$$$
3:0
     RDKit          3D

 70 74  0  0  0  0  0  0  0  0999 V2000
   -5.5940   24.0250  -32.1700 O   0  0  0  0  0  0  0  0  0  0  0  0
   -5.4470   23.1920  -31.2340 C   0  0  0  0  0  0  0  0  0  0  0  0
   -6.3470   22.0880  -31.1070 N   0  0  0  0  0  0  0  0  0  0  0  0
   -7.0800   21.5460  -32.2470 C   0  0  0  0  0  0  0  0  0  0  0  0
   -6.2540   20.4690  -32.9020 C   0  0  0  0  0  0  0  0  0  0  0  0
   -6.8620   19.3080  -33.4050 C   0  0  0  0  0  0  0  0  0  0  0  0
   -6.0780   18.2540  -33.8850 C   0  0  0  0  0  0  0  0  0  0  0  0
   -4.6840   18.3380  -33.8390 C   0  0  0  0  0  0  0  0  0  0  0  0
   -4.0630   19.4940  -33.3430 C   0  0  0  0  0  0  0  0  0  0  0  0
   -2.6370   19.5390  -33.1770 N   0  0  0  0  0  0  0  0  0  0  0  0
   -1.9420   20.8250  -33.0370 C   0  0  0  0  0  0  0  0  0  0  0  0
   -0.5540   20.6210  -32.4140 C   0  0  0  0  0  0  0  0  0  0  0  0
   -0.6200   19.5980  -31.3600 N   0  0  0  0  0  0  0  0  0  0  0  0
   -0.9500   18.2580  -31.8920 C   0  0  0  0  0  0  0  0  0  0  0  0
   -1.8610   18.2950  -33.1370 C   0  0  0  0  0  0  0  0  0  0  0  0
   -4.8530   20.5650  -32.9020 C   0  0  0  0  0  0  0  0  0  0  0  0
   -4.2940   23.3050  -30.3350 C   0  0  0  0  0  0  0  0  0  0  0  0
   -3.4040   22.2910  -30.0120 C   0  0  0  0  0  0  0  0  0  0  0  0
   -2.3190   22.7190  -29.2280 C   0  0  0  0  0  0  0  0  0  0  0  0
   -1.0800   21.5750  -28.6840 S   0  0  0  0  0  0  0  0  0  0  0  0
   -0.3590   22.1110  -27.4810 O   0  0  0  0  0  0  0  0  0  0  0  0
   -0.0690   21.4170  -29.7860 O   0  0  0  0  0  0  0  0  0  0  0  0
   -1.7410   20.0040  -28.2930 N   0  0  0  0  0  0  0  0  0  0  0  0
   -0.8360   19.2130  -27.4610 C   0  0  0  0  0  0  0  0  0  0  0  0
   -1.7090   18.2220  -26.7200 C   0  0  0  0  0  0  0  0  0  0  0  0
   -3.0490   18.9220  -26.5790 C   0  0  0  0  0  0  0  0  0  0  0  0
   -2.9990   20.1000  -27.5490 C   0  0  0  0  0  0  0  0  0  0  0  0
   -2.3450   24.0980  -28.9610 C   0  0  0  0  0  0  0  0  0  0  0  0
   -1.0960   25.0650  -28.1530 S   0  0  0  0  0  0  0  0  0  0  0  0
   -1.2390   26.4950  -28.5960 O   0  0  0  0  0  0  0  0  0  0  0  0
    0.2600   24.5620  -28.5580 O   0  0  0  0  0  0  0  0  0  0  0  0
   -1.1840   25.0210  -26.4060 N   0  0  0  0  0  0  0  0  0  0  0  0
    0.1380   25.1260  -25.7830 C   0  0  0  0  0  0  0  0  0  0  0  0
   -0.0390   25.9070  -24.4980 C   0  0  0  0  0  0  0  0  0  0  0  0
   -1.2560   26.7740  -24.7390 C   0  0  0  0  0  0  0  0  0  0  0  0
   -2.0340   26.0810  -25.8490 C   0  0  0  0  0  0  0  0  0  0  0  0
   -3.7200   24.7400  -29.6860 S   0  0  0  0  0  0  0  0  0  0  0  0
   -8.0334   21.1195  -31.9020 H   0  0  0  0  0  0  0  0  0  0  0  0
   -7.2815   22.3487  -32.9717 H   0  0  0  0  0  0  0  0  0  0  0  0
   -7.9589   19.2270  -33.4217 H   0  0  0  0  0  0  0  0  0  0  0  0
   -6.5601   17.3565  -34.2998 H   0  0  0  0  0  0  0  0  0  0  0  0
   -4.0718   17.4953  -34.1927 H   0  0  0  0  0  0  0  0  0  0  0  0
   -1.8291   21.2854  -34.0296 H   0  0  0  0  0  0  0  0  0  0  0  0
   -2.5339   21.4796  -32.3804 H   0  0  0  0  0  0  0  0  0  0  0  0
    0.1507   20.2957  -33.1935 H   0  0  0  0  0  0  0  0  0  0  0  0
   -0.2130   21.5700  -31.9745 H   0  0  0  0  0  0  0  0  0  0  0  0
    0.3060   19.5540  -30.8740 H   0  0  0  0  0  0  0  0  0  0  0  0
   -1.3410   19.8800  -30.6520 H   0  0  0  0  0  0  0  0  0  0  0  0
   -0.0122   17.7504  -32.1622 H   0  0  0  0  0  0  0  0  0  0  0  0
   -1.5021   17.7249  -31.1039 H   0  0  0  0  0  0  0  0  0  0  0  0
   -1.2386   18.2288  -34.0416 H   0  0  0  0  0  0  0  0  0  0  0  0
   -2.5583   17.4455  -33.0894 H   0  0  0  0  0  0  0  0  0  0  0  0
   -4.3706   21.4897  -32.5525 H   0  0  0  0  0  0  0  0  0  0  0  0
   -3.5353   21.2490  -30.3391 H   0  0  0  0  0  0  0  0  0  0  0  0
   -0.1045   18.6832  -28.0889 H   0  0  0  0  0  0  0  0  0  0  0  0
   -0.2688   19.8490  -26.7655 H   0  0  0  0  0  0  0  0  0  0  0  0
   -1.8158   17.2915  -27.2968 H   0  0  0  0  0  0  0  0  0  0  0  0
   -1.2829   17.9372  -25.7467 H   0  0  0  0  0  0  0  0  0  0  0  0
   -3.8692   18.2392  -26.8457 H   0  0  0  0  0  0  0  0  0  0  0  0
   -3.2297   19.2523  -25.5454 H   0  0  0  0  0  0  0  0  0  0  0  0
   -3.8507   20.0513  -28.2434 H   0  0  0  0  0  0  0  0  0  0  0  0
   -3.0551   21.0537  -27.0038 H   0  0  0  0  0  0  0  0  0  0  0  0
    0.5332   24.1231  -25.5641 H   0  0  0  0  0  0  0  0  0  0  0  0
    0.8492   25.6300  -26.4539 H   0  0  0  0  0  0  0  0  0  0  0  0
   -0.2094   25.2263  -23.6508 H   0  0  0  0  0  0  0  0  0  0  0  0
    0.8518   26.5013  -24.2465 H   0  0  0  0  0  0  0  0  0  0  0  0
   -1.8663   26.8425  -23.8264 H   0  0  0  0  0  0  0  0  0  0  0  0
   -0.9774   27.8016  -25.0154 H   0  0  0  0  0  0  0  0  0  0  0  0
   -2.9569   25.6434  -25.4408 H   0  0  0  0  0  0  0  0  0  0  0  0
   -2.3066   26.8032  -26.6326 H   0  0  0  0  0  0  0  0  0  0  0  0
  1  2  2  0
  2  3  1  0
  3  4  1  0
  4  5  1  0
  5  6  2  0
  6  7  1  0
  7  8  2  0
  8  9  1  0
  9 10  1  0
 10 11  1  0
 11 12  1  0
 12 13  1  0
 13 14  1  0
 14 15  1  0
  9 16  2  0
  2 17  1  0
 17 18  2  0
 18 19  1  0
 19 20  1  0
 20 21  2  0
 20 22  2  0
 20 23  1  0
 23 24  1  0
 24 25  1  0
 25 26  1  0
 26 27  1  0
 19 28  2  0
 28 29  1  0
 29 30  2  0
 29 31  2  0
 29 32  1  0
 32 33  1  0
 33 34  1  0
 34 35  1  0
 35 36  1  0
 28 37  1  0
 16  5  1  0
 37 17  1  0
 15 10  1  0
 27 23  1  0
 36 32  1  0
  4 38  1  0
  4 39  1  0
  6 40  1  0
  7 41  1  0
  8 42  1  0
 11 43  1  0
 11 44  1  0
 12 45  1  0
 12 46  1  0
 13 47  1  0
 13 48  1  0
 14 49  1  0
 14 50  1  0
 15 51  1  0
 15 52  1  0
 16 53  1  0
 18 54  1  0
 24 55  1  0
 24 56  1  0
 25 57  1  0
 25 58  1  0
 26 59  1  0
 26 60  1  0
 27 61  1  0
 27 62  1  0
 33 63  1  0
 33 64  1  0
 34 65  1  0
 34 66  1  0
 35 67  1  0
 35 68  1  0
 36 69  1  0
 36 70  1  0
M  CHG  2   3  -1  13   1
M  END
>  <UniqueID>  (4) 
4

>  <SMILES>  (4) 
O=C([N-]Cc1cccc(N2CC[NH2+]CC2)c1)c1cc(S(=O)(=O)N2CCCC2)c(S(=O)(=O)N2CCCC2)s1

>  <Energy>  (4) 
110.16450675834008

>  <Genealogy>  (4) 
O=C([N-]Cc1cccc(N2CC[NH2+]CC2)c1)c1cc(S(=O)(=O)N2CCCC2)c(S(=O)(=O)N2CCCC2)s1 (protonated)
O=C([N-]Cc1cccc(N2CC[NH2+]CC2)c1)c1cc(S(=O)(=O)N2CCCC2)c(S(=O)(=O)N2CCCC2)s1 (3D coordinates assigned)
O=C([N-]Cc1cccc(N2CC[NH2+]CC2)c1)c1cc(S(=O)(=O)N2CCCC2)c(S(=O)(=O)N2CCCC2)s1 (nonaromatic ring conformer: 110.16450675834008 kcal/mol)

>  <smiles>  (4) 
O=C(NCc1cccc(N2CCNCC2)c1)c1cc(S(=O)(=O)N2CCCC2)c(S(=O)(=O)N2CCCC2)s1

>  <score_type>  (4) 
oracle

>  <origin>  (4) 
adgpu

>  <m_score__min__energy>  (4) 
-13.07

>  <m_primary>  (4) 
energy

$$$$
4:0
     RDKit          3D

 62 66  0  0  0  0  0  0  0  0999 V2000
   -5.9860   24.7100  -29.8750 O   0  0  0  0  0  0  0  0  0  0  0  0
   -4.6500   24.3830  -30.4800 S   0  0  0  0  0  0  0  0  0  0  0  0
   -3.9270   25.6700  -30.7650 O   0  0  0  0  0  0  0  0  0  0  0  0
   -4.9000   23.5250  -31.9660 N   0  0  0  0  0  0  0  0  0  0  0  0
   -5.4270   22.1940  -32.0110 C   0  0  0  0  0  0  0  0  0  0  0  0
   -4.5520   21.1070  -32.0580 C   0  0  0  0  0  0  0  0  0  0  0  0
   -5.0390   19.8030  -32.0900 C   0  0  0  0  0  0  0  0  0  0  0  0
   -6.4170   19.5460  -32.0420 C   0  0  0  0  0  0  0  0  0  0  0  0
   -6.9580   17.8540  -32.0370 S   0  0  0  0  0  0  0  0  0  0  0  0
   -8.4520   17.8330  -31.8640 O   0  0  0  0  0  0  0  0  0  0  0  0
   -6.3120   17.1180  -30.8940 O   0  0  0  0  0  0  0  0  0  0  0  0
   -6.5440   17.0510  -33.5360 N   0  0  0  0  0  0  0  0  0  0  0  0
   -6.0730   18.0080  -34.5510 C   0  0  0  0  0  0  0  0  0  0  0  0
   -4.6490   17.6380  -34.9270 C   0  0  0  0  0  0  0  0  0  0  0  0
   -4.5110   16.1990  -34.4990 C   0  0  0  0  0  0  0  0  0  0  0  0
   -5.4600   16.0810  -33.3240 C   0  0  0  0  0  0  0  0  0  0  0  0
   -7.3250   20.6380  -32.0030 C   0  0  0  0  0  0  0  0  0  0  0  0
   -8.7250   20.4470  -32.0080 C   0  0  0  0  0  0  0  0  0  0  0  0
   -9.5950   21.5370  -31.9600 C   0  0  0  0  0  0  0  0  0  0  0  0
   -9.0940   22.8350  -31.9120 C   0  0  0  0  0  0  0  0  0  0  0  0
   -7.7180   23.0550  -31.9210 C   0  0  0  0  0  0  0  0  0  0  0  0
   -6.8190   21.9700  -31.9710 C   0  0  0  0  0  0  0  0  0  0  0  0
   -3.7230   23.4190  -29.3340 C   0  0  0  0  0  0  0  0  0  0  0  0
   -4.1660   22.1410  -28.9650 C   0  0  0  0  0  0  0  0  0  0  0  0
   -3.4040   21.3600  -28.0910 C   0  0  0  0  0  0  0  0  0  0  0  0
   -2.1950   21.8490  -27.5770 C   0  0  0  0  0  0  0  0  0  0  0  0
   -1.2380   20.8640  -26.4690 S   0  0  0  0  0  0  0  0  0  0  0  0
   -2.1530   19.9370  -25.7160 O   0  0  0  0  0  0  0  0  0  0  0  0
   -0.5660   21.7610  -25.4680 O   0  0  0  0  0  0  0  0  0  0  0  0
   -0.0250   19.9210  -27.3090 N   0  0  0  0  0  0  0  0  0  0  0  0
   -0.6420   18.8770  -28.1330 C   0  0  0  0  0  0  0  0  0  0  0  0
   -0.7240   19.3820  -29.5650 C   0  0  0  0  0  0  0  0  0  0  0  0
    0.2030   20.5810  -29.6320 C   0  0  0  0  0  0  0  0  0  0  0  0
    0.7570   20.7580  -28.2240 C   0  0  0  0  0  0  0  0  0  0  0  0
   -1.7500   23.1240  -27.9540 C   0  0  0  0  0  0  0  0  0  0  0  0
   -2.5100   23.9060  -28.8270 C   0  0  0  0  0  0  0  0  0  0  0  0
   -3.4662   21.2827  -32.0699 H   0  0  0  0  0  0  0  0  0  0  0  0
   -4.3327   18.9621  -32.1539 H   0  0  0  0  0  0  0  0  0  0  0  0
   -6.7185   17.9556  -35.4401 H   0  0  0  0  0  0  0  0  0  0  0  0
   -6.1067   19.0325  -34.1520 H   0  0  0  0  0  0  0  0  0  0  0  0
   -4.4940   17.7383  -36.0114 H   0  0  0  0  0  0  0  0  0  0  0  0
   -3.9052   18.2915  -34.4478 H   0  0  0  0  0  0  0  0  0  0  0  0
   -4.8058   15.5182  -35.3112 H   0  0  0  0  0  0  0  0  0  0  0  0
   -3.4766   15.9286  -34.2402 H   0  0  0  0  0  0  0  0  0  0  0  0
   -5.8715   15.0621  -33.2738 H   0  0  0  0  0  0  0  0  0  0  0  0
   -4.9355   16.2848  -32.3788 H   0  0  0  0  0  0  0  0  0  0  0  0
   -9.1340   19.4268  -32.0502 H   0  0  0  0  0  0  0  0  0  0  0  0
  -10.6822   21.3698  -31.9601 H   0  0  0  0  0  0  0  0  0  0  0  0
   -9.7859   23.6889  -31.8669 H   0  0  0  0  0  0  0  0  0  0  0  0
   -7.3299   24.0838  -31.8888 H   0  0  0  0  0  0  0  0  0  0  0  0
   -5.1146   21.7522  -29.3638 H   0  0  0  0  0  0  0  0  0  0  0  0
   -3.7547   20.3573  -27.8054 H   0  0  0  0  0  0  0  0  0  0  0  0
   -0.0298   17.9639  -28.0955 H   0  0  0  0  0  0  0  0  0  0  0  0
   -1.6488   18.6437  -27.7562 H   0  0  0  0  0  0  0  0  0  0  0  0
   -0.3930   18.6018  -30.2662 H   0  0  0  0  0  0  0  0  0  0  0  0
   -1.7542   19.6497  -29.8424 H   0  0  0  0  0  0  0  0  0  0  0  0
    1.0201   20.3938  -30.3442 H   0  0  0  0  0  0  0  0  0  0  0  0
   -0.3260   21.4825  -29.9747 H   0  0  0  0  0  0  0  0  0  0  0  0
    1.8126   20.4495  -28.1989 H   0  0  0  0  0  0  0  0  0  0  0  0
    0.6888   21.8134  -27.9215 H   0  0  0  0  0  0  0  0  0  0  0  0
   -0.7981   23.5102  -27.5606 H   0  0  0  0  0  0  0  0  0  0  0  0
   -2.1560   24.9062  -29.1173 H   0  0  0  0  0  0  0  0  0  0  0  0
  1  2  2  0
  2  3  2  0
  2  4  1  0
  4  5  1  0
  5  6  2  0
  6  7  1  0
  7  8  2  0
  8  9  1  0
  9 10  2  0
  9 11  2  0
  9 12  1  0
 12 13  1  0
 13 14  1  0
 14 15  1  0
 15 16  1  0
  8 17  1  0
 17 18  2  0
 18 19  1  0
 19 20  2  0
 20 21  1  0
 21 22  2  0
  2 23  1  0
 23 24  2  0
 24 25  1  0
 25 26  2  0
 26 27  1  0
 27 28  2  0
 27 29  2  0
 27 30  1  0
 30 31  1  0
 31 32  1  0
 32 33  1  0
 33 34  1  0
 26 35  1  0
 35 36  2  0
 22  5  1  0
 36 23  1  0
 16 12  1  0
 22 17  1  0
 34 30  1  0
  6 37  1  0
  7 38  1  0
 13 39  1  0
 13 40  1  0
 14 41  1  0
 14 42  1  0
 15 43  1  0
 15 44  1  0
 16 45  1  0
 16 46  1  0
 18 47  1  0
 19 48  1  0
 20 49  1  0
 21 50  1  0
 24 51  1  0
 25 52  1  0
 31 53  1  0
 31 54  1  0
 32 55  1  0
 32 56  1  0
 33 57  1  0
 33 58  1  0
 34 59  1  0
 34 60  1  0
 35 61  1  0
 36 62  1  0
M  CHG  1   4  -1
M  END
>  <UniqueID>  (5) 
5

>  <SMILES>  (5) 
O=S(=O)([N-]c1ccc(S(=O)(=O)N2CCCC2)c2ccccc12)c1ccc(S(=O)(=O)N2CCCC2)cc1

>  <Energy>  (5) 
83.33888680691362

>  <Genealogy>  (5) 
O=S(=O)([N-]c1ccc(S(=O)(=O)N2CCCC2)c2ccccc12)c1ccc(S(=O)(=O)N2CCCC2)cc1 (protonated)
O=S(=O)([N-]c1ccc(S(=O)(=O)N2CCCC2)c2ccccc12)c1ccc(S(=O)(=O)N2CCCC2)cc1 (3D coordinates assigned)
O=S(=O)([N-]c1ccc(S(=O)(=O)N2CCCC2)c2ccccc12)c1ccc(S(=O)(=O)N2CCCC2)cc1 (nonaromatic ring conformer: 83.33888680691362 kcal/mol)

>  <smiles>  (5) 
O=S(=O)(Nc1ccc(S(=O)(=O)N2CCCC2)c2ccccc12)c1ccc(S(=O)(=O)N2CCCC2)cc1

>  <score_type>  (5) 
oracle

>  <origin>  (5) 
adgpu

>  <m_score__min__energy>  (5) 
-13.119999999999999

>  <m_primary>  (5) 
energy

$$$$
5:0
     RDKit          3D

 39 41  0  0  1  0  0  0  0  0999 V2000
   -6.7340   25.4830  -29.8630 N   0  0  0  0  0  0  0  0  0  0  0  0
   -5.6810   24.7600  -30.0850 C   0  0  0  0  0  0  0  0  0  0  0  0
   -4.5880   24.9300  -29.3180 N   0  0  0  0  0  0  0  0  0  0  0  0
   -3.4570   24.1990  -29.5070 C   0  0  0  0  0  0  0  0  0  0  0  0
   -2.4820   24.4350  -28.7300 N   0  0  0  0  0  0  0  0  0  0  0  0
   -3.4830   23.2760  -30.5220 C   0  0  0  0  0  0  0  0  0  0  0  0
   -2.3970   22.5020  -30.7830 C   0  0  0  0  0  0  0  0  0  0  0  0
   -2.3980   21.5720  -31.7930 C   0  0  0  0  0  0  0  0  0  0  0  0
   -0.9320   20.6300  -32.0320 Cl  0  0  0  0  0  0  0  0  0  0  0  0
   -3.5250   21.3670  -32.6180 C   0  0  0  0  0  0  0  0  0  0  0  0
   -3.4620   20.3970  -33.6320 N   0  0  0  0  0  0  0  0  0  0  0  0
   -3.7380   19.0020  -33.5950 C   0  0  0  0  0  0  0  0  0  0  0  0
   -4.7400   18.5470  -34.5640 C   0  0  0  0  0  0  0  0  0  0  0  0
   -6.0350   18.6160  -34.4590 C   0  0  0  0  0  0  0  0  0  0  0  0
   -6.8340   19.1320  -33.3940 C   0  0  0  0  0  0  0  0  0  0  0  0
   -7.1340   20.4240  -33.0930 C   0  0  0  0  0  0  0  0  0  0  0  0
   -8.0300   20.8080  -32.0860 C   0  0  0  0  0  0  0  0  0  0  0  0
   -8.6650   19.8520  -31.3270 C   0  0  0  0  0  0  0  0  0  0  0  0
   -8.3680   18.5410  -31.6210 C   0  0  0  0  0  0  0  0  0  0  0  0
   -7.4920   18.1700  -32.6080 C   0  0  0  0  0  0  0  0  0  0  0  0
   -4.5970   22.1670  -32.3220 C   0  0  0  0  0  0  0  0  0  0  0  0
   -4.6030   23.1080  -31.3040 C   0  0  0  0  0  0  0  0  0  0  0  0
   -5.7210   23.8600  -31.0840 N   0  0  0  0  0  0  0  0  0  0  0  0
   -6.6880   26.1710  -29.0910 H   0  0  0  0  0  0  0  0  0  0  0  0
   -4.6170   25.6450  -28.5550 H   0  0  0  0  0  0  0  0  0  0  0  0
   -1.5890   23.9570  -28.7720 H   0  0  0  0  0  0  0  0  0  0  0  0
   -1.4928   22.6238  -30.1686 H   0  0  0  0  0  0  0  0  0  0  0  0
   -3.1590   20.7800  -34.5930 H   0  0  0  0  0  0  0  0  0  0  0  0
   -2.8003   18.4624  -33.7936 H   0  0  0  0  0  0  0  0  0  0  0  0
   -4.1552   18.7955  -32.5984 H   0  0  0  0  0  0  0  0  0  0  0  0
   -4.3513   18.0942  -35.4881 H   0  0  0  0  0  0  0  0  0  0  0  0
   -6.5970   18.2183  -35.3169 H   0  0  0  0  0  0  0  0  0  0  0  0
   -6.6428   21.2169  -33.6762 H   0  0  0  0  0  0  0  0  0  0  0  0
   -8.2258   21.8747  -31.9022 H   0  0  0  0  0  0  0  0  0  0  0  0
   -9.3719   20.1212  -30.5283 H   0  0  0  0  0  0  0  0  0  0  0  0
   -8.8585   17.7504  -31.0341 H   0  0  0  0  0  0  0  0  0  0  0  0
   -7.3008   17.1018  -32.7880 H   0  0  0  0  0  0  0  0  0  0  0  0
   -5.5079   22.0560  -32.9286 H   0  0  0  0  0  0  0  0  0  0  0  0
   -6.5660   23.7360  -31.6710 H   0  0  0  0  0  0  0  0  0  0  0  0
  1  2  2  3
  2  3  1  0
  3  4  1  0
  4  5  2  3
  4  6  1  0
  6  7  2  0
  7  8  1  0
  8  9  1  0
  8 10  2  0
 10 11  1  0
 11 12  1  0
 12 13  1  0
 13 14  2  0
 14 15  1  0
 15 16  2  0
 16 17  1  0
 17 18  2  0
 18 19  1  0
 19 20  2  0
 10 21  1  0
 21 22  2  0
 22 23  1  0
 23  2  1  0
 22  6  1  0
 20 15  1  0
  1 24  1  0
  3 25  1  0
  5 26  1  0
  7 27  1  0
 11 28  1  0
 12 29  1  0
 12 30  1  0
 13 31  1  0
 14 32  1  0
 16 33  1  0
 17 34  1  0
 18 35  1  0
 19 36  1  0
 20 37  1  0
 21 38  1  0
 23 39  1  0
M  END
>  <smiles>  (6) 
N=c1[nH]c(=N)c2cc(Cl)c(NCC=Cc3ccccc3)cc2[nH]1

>  <score_type>  (6) 
oracle

>  <origin>  (6) 
adgpu

>  <m_score__min__energy>  (6) 
-8.8300000000000001

>  <m_primary>  (6) 
energy

$$$$
6:0
     RDKit          3D

 48 50  0  0  0  0  0  0  0  0999 V2000
   -2.4910   19.8330  -27.1060 C   0  0  0  0  0  0  0  0  0  0  0  0
   -1.7260   20.8130  -27.7990 O   0  0  0  0  0  0  0  0  0  0  0  0
   -2.2760   21.9060  -28.4860 C   0  0  0  0  0  0  0  0  0  0  0  0
   -1.8040   23.1860  -28.1820 C   0  0  0  0  0  0  0  0  0  0  0  0
   -2.3200   24.3080  -28.8320 C   0  0  0  0  0  0  0  0  0  0  0  0
   -3.3250   24.1680  -29.8070 C   0  0  0  0  0  0  0  0  0  0  0  0
   -3.8690   25.2790  -30.4750 O   0  0  0  0  0  0  0  0  0  0  0  0
   -5.2380   25.6670  -30.4180 C   0  0  0  0  0  0  0  0  0  0  0  0
   -3.8070   22.8820  -30.1200 C   0  0  0  0  0  0  0  0  0  0  0  0
   -4.8970   22.7090  -31.1470 C   0  0  0  0  0  0  0  0  0  0  0  0
   -5.5920   21.4830  -30.9250 O   0  0  0  0  0  0  0  0  0  0  0  0
   -6.8930   21.1920  -31.3670 C   0  0  0  0  0  0  0  0  0  0  0  0
   -8.0240   21.7890  -30.7750 C   0  0  0  0  0  0  0  0  0  0  0  0
   -9.3040   21.5110  -31.2560 C   0  0  0  0  0  0  0  0  0  0  0  0
   -9.4740   20.6420  -32.3330 C   0  0  0  0  0  0  0  0  0  0  0  0
   -8.3640   20.0420  -32.9290 C   0  0  0  0  0  0  0  0  0  0  0  0
   -7.0680   20.2950  -32.4450 C   0  0  0  0  0  0  0  0  0  0  0  0
   -5.9080   19.6870  -33.1330 C   0  0  0  0  0  0  0  0  0  0  0  0
   -6.0440   19.2870  -34.3210 O   0  0  0  0  0  0  0  0  0  0  0  0
   -4.6410   19.5620  -32.4650 N   0  0  0  0  0  0  0  0  0  0  0  0
   -3.3950   19.3860  -33.1600 C   0  0  0  0  0  0  0  0  0  0  0  0
   -2.9500   18.1090  -33.5490 C   0  0  0  0  0  0  0  0  0  0  0  0
   -1.7320   17.9610  -34.2170 C   0  0  0  0  0  0  0  0  0  0  0  0
   -0.9420   19.0810  -34.4910 C   0  0  0  0  0  0  0  0  0  0  0  0
   -1.3660   20.3500  -34.0890 C   0  0  0  0  0  0  0  0  0  0  0  0
   -2.5830   20.5030  -33.4180 C   0  0  0  0  0  0  0  0  0  0  0  0
   -2.9850   21.7440  -33.0430 F   0  0  0  0  0  0  0  0  0  0  0  0
   -3.2790   21.7580  -29.4610 C   0  0  0  0  0  0  0  0  0  0  0  0
   -2.3774   19.9786  -26.0216 H   0  0  0  0  0  0  0  0  0  0  0  0
   -3.5514   19.9342  -27.3804 H   0  0  0  0  0  0  0  0  0  0  0  0
   -2.1354   18.8289  -27.3804 H   0  0  0  0  0  0  0  0  0  0  0  0
   -1.0178   23.3103  -27.4227 H   0  0  0  0  0  0  0  0  0  0  0  0
   -1.9385   25.3086  -28.5805 H   0  0  0  0  0  0  0  0  0  0  0  0
   -5.5505   25.7556  -29.3671 H   0  0  0  0  0  0  0  0  0  0  0  0
   -5.3656   26.6367  -30.9215 H   0  0  0  0  0  0  0  0  0  0  0  0
   -5.8554   24.9085  -30.9215 H   0  0  0  0  0  0  0  0  0  0  0  0
   -5.6051   23.5473  -31.0703 H   0  0  0  0  0  0  0  0  0  0  0  0
   -4.4458   22.6897  -32.1500 H   0  0  0  0  0  0  0  0  0  0  0  0
   -7.8969   22.4790  -29.9278 H   0  0  0  0  0  0  0  0  0  0  0  0
  -10.1809   21.9785  -30.7844 H   0  0  0  0  0  0  0  0  0  0  0  0
  -10.4840   20.4292  -32.7132 H   0  0  0  0  0  0  0  0  0  0  0  0
   -8.5039   19.3653  -33.7848 H   0  0  0  0  0  0  0  0  0  0  0  0
   -4.5970   19.7640  -31.4410 H   0  0  0  0  0  0  0  0  0  0  0  0
   -3.5637   17.2237  -33.3262 H   0  0  0  0  0  0  0  0  0  0  0  0
   -1.3941   16.9614  -34.5278 H   0  0  0  0  0  0  0  0  0  0  0  0
    0.0135   18.9633  -35.0231 H   0  0  0  0  0  0  0  0  0  0  0  0
   -0.7413   21.2303  -34.3008 H   0  0  0  0  0  0  0  0  0  0  0  0
   -3.6535   20.7541  -29.7100 H   0  0  0  0  0  0  0  0  0  0  0  0
  1  2  1  0
  2  3  1  0
  3  4  2  0
  4  5  1  0
  5  6  2  0
  6  7  1  0
  7  8  1  0
  6  9  1  0
  9 10  1  0
 10 11  1  0
 11 12  1  0
 12 13  2  0
 13 14  1  0
 14 15  2  0
 15 16  1  0
 16 17  2  0
 17 18  1  0
 18 19  2  0
 18 20  1  0
 20 21  1  0
 21 22  2  0
 22 23  1  0
 23 24  2  0
 24 25  1  0
 25 26  2  0
 26 27  1  0
  9 28  2  0
 28  3  1  0
 17 12  1  0
 26 21  1  0
  1 29  1  0
  1 30  1  0
  1 31  1  0
  4 32  1  0
  5 33  1  0
  8 34  1  0
  8 35  1  0
  8 36  1  0
 10 37  1  0
 10 38  1  0
 13 39  1  0
 14 40  1  0
 15 41  1  0
 16 42  1  0
 20 43  1  0
 22 44  1  0
 23 45  1  0
 24 46  1  0
 25 47  1  0
 28 48  1  0
M  END
>  <UniqueID>  (7) 
6

>  <SMILES>  (7) 
COc1ccc(OC)c(COc2ccccc2C(=O)Nc2ccccc2F)c1

>  <Energy>  (7) 
56.97982780120295

>  <Genealogy>  (7) 
COc1ccc(OC)c(COc2ccccc2C(=O)Nc2ccccc2F)c1 (3D coordinates assigned)
COc1ccc(OC)c(COc2ccccc2C(=O)Nc2ccccc2F)c1 (optimized conformer: 56.97982780120295 kcal/mol)

>  <smiles>  (7) 
COc1ccc(OC)c(COc2ccccc2C(=O)Nc2ccccc2F)c1

>  <score_type>  (7) 
oracle

>  <origin>  (7) 
adgpu

>  <m_score__min__energy>  (7) 
-8.3599999999999994

>  <m_primary>  (7) 
energy

$$$$
7:0
     RDKit          3D

 44 47  0  0  0  0  0  0  0  0999 V2000
   -6.1927   25.9341  -31.2187 H   0  0  0  0  0  0  0  0  0  0  0  0
   -5.8620   24.8850  -31.2100 C   0  0  0  0  0  0  0  0  0  0  0  0
   -4.5920   24.5780  -30.8400 N   0  0  0  0  0  0  0  0  0  0  0  0
   -4.1380   23.2950  -30.8140 C   0  0  0  0  0  0  0  0  0  0  0  0
   -2.7440   23.0350  -30.4020 C   0  0  0  0  0  0  0  0  0  0  0  0
   -1.8880   22.1460  -31.0160 C   0  0  0  0  0  0  0  0  0  0  0  0
   -2.1318   21.5348  -31.8975 H   0  0  0  0  0  0  0  0  0  0  0  0
   -0.7050   22.1420  -30.3680 N   0  0  0  0  0  0  0  0  0  0  0  0
   -0.8690   23.0220  -29.3590 C   0  0  0  0  0  0  0  0  0  0  0  0
   -0.0830   23.2661  -28.6292 H   0  0  0  0  0  0  0  0  0  0  0  0
   -2.1010   23.5700  -29.3420 N   0  0  0  0  0  0  0  0  0  0  0  0
   -2.6000   24.5120  -28.3430 C   0  0  0  0  0  0  0  0  0  0  0  0
   -2.3933   24.1217  -27.3355 H   0  0  0  0  0  0  0  0  0  0  0  0
   -2.0976   25.4822  -28.4706 H   0  0  0  0  0  0  0  0  0  0  0  0
   -3.6849   24.6413  -28.4706 H   0  0  0  0  0  0  0  0  0  0  0  0
   -5.0120   22.2480  -31.1420 C   0  0  0  0  0  0  0  0  0  0  0  0
   -4.6667   21.2049  -31.0892 H   0  0  0  0  0  0  0  0  0  0  0  0
   -6.3290   22.5340  -31.5380 C   0  0  0  0  0  0  0  0  0  0  0  0
   -7.2480   21.4360  -31.9370 C   0  0  0  0  0  0  0  0  0  0  0  0
   -6.7240   20.2490  -32.4810 C   0  0  0  0  0  0  0  0  0  0  0  0
   -5.6350   20.1320  -32.5833 H   0  0  0  0  0  0  0  0  0  0  0  0
   -7.5780   19.2090  -32.8960 C   0  0  0  0  0  0  0  0  0  0  0  0
   -7.0760   17.9750  -33.4370 N   0  0  0  0  0  0  0  0  0  0  0  0
   -5.8370   17.6750  -33.7050 C   0  0  0  0  0  0  0  0  0  0  0  0
   -4.8440   18.5980  -33.5650 N   0  0  0  0  0  0  0  0  0  0  0  0
   -3.5490   18.3000  -33.8520 C   0  0  0  0  0  0  0  0  0  0  0  0
   -2.4810   19.3380  -33.6690 C   0  0  0  0  0  0  0  0  0  0  0  0
   -3.0080   20.6090  -33.8210 F   0  0  0  0  0  0  0  0  0  0  0  0
   -1.4850   19.1500  -34.6100 F   0  0  0  0  0  0  0  0  0  0  0  0
   -1.9380   19.2280  -32.4020 F   0  0  0  0  0  0  0  0  0  0  0  0
   -3.2270   17.0210  -34.3170 C   0  0  0  0  0  0  0  0  0  0  0  0
   -2.1867   16.7558  -34.5568 H   0  0  0  0  0  0  0  0  0  0  0  0
   -4.2520   16.0900  -34.4700 C   0  0  0  0  0  0  0  0  0  0  0  0
   -4.0241   15.0783  -34.8367 H   0  0  0  0  0  0  0  0  0  0  0  0
   -5.5340   16.4290  -34.1670 N   0  0  0  0  0  0  0  0  0  0  0  0
   -6.2890   15.7180  -34.2890 H   0  0  0  0  0  0  0  0  0  0  0  0
   -8.9580   19.3430  -32.7050 C   0  0  0  0  0  0  0  0  0  0  0  0
   -9.6314   18.5218  -32.9917 H   0  0  0  0  0  0  0  0  0  0  0  0
   -9.4860   20.5120  -32.1530 C   0  0  0  0  0  0  0  0  0  0  0  0
  -10.5731   20.6095  -32.0159 H   0  0  0  0  0  0  0  0  0  0  0  0
   -8.6420   21.5580  -31.7740 C   0  0  0  0  0  0  0  0  0  0  0  0
   -9.1840   22.6650  -31.2050 F   0  0  0  0  0  0  0  0  0  0  0  0
   -6.7480   23.8730  -31.5790 C   0  0  0  0  0  0  0  0  0  0  0  0
   -7.7699   24.1229  -31.9005 H   0  0  0  0  0  0  0  0  0  0  0  0
  1  2  1  0
  2  3  2  0
  3  4  1  0
  4  5  1  0
  5  6  2  0
  6  7  1  0
  6  8  1  0
  8  9  2  0
  9 10  1  0
  9 11  1  0
 11 12  1  0
 12 13  1  0
 12 14  1  0
 12 15  1  0
  4 16  2  0
 16 17  1  0
 16 18  1  0
 18 19  1  0
 19 20  2  0
 20 21  1  0
 20 22  1  0
 22 23  1  0
 23 24  2  0
 24 25  1  0
 25 26  2  0
 26 27  1  0
 27 28  1  0
 27 29  1  0
 27 30  1  0
 26 31  1  0
 31 32  1  0
 31 33  2  0
 33 34  1  0
 33 35  1  0
 35 36  1  0
 22 37  2  0
 37 38  1  0
 37 39  1  0
 39 40  1  0
 39 41  2  0
 41 42  1  0
 18 43  2  0
 43 44  1  0
 43  2  1  0
 11  5  1  0
 41 19  1  0
 35 24  1  0
M  END
>  <UniqueID>  (8) 
7

>  <SMILES>  (8) 
Cn1cncc1-c1cc(-c2cc(/N=c3\nc(C(F)(F)F)cc[nH]3)ccc2F)ccn1

>  <Energy>  (8) 
94.00896072962408

>  <Genealogy>  (8) 
Cn1cncc1-c1cc(-c2cc(/N=c3\nc(C(F)(F)F)cc[nH]3)ccc2F)ccn1 (cis-trans isomerization)
Cn1cncc1-c1cc(-c2cc(/N=c3\nc(C(F)(F)F)cc[nH]3)ccc2F)ccn1 (3D coordinates assigned)
Cn1cncc1-c1cc(-c2cc(/N=c3\nc(C(F)(F)F)cc[nH]3)ccc2F)ccn1 (optimized conformer: 94.00896072962408 kcal/mol)

>  <smiles>  (8) 
Cn1cncc1-c1cc(-c2cc(N=c3nc(C(F)(F)F)cc[nH]3)ccc2F)ccn1

>  <score_type>  (8) 
oracle

>  <origin>  (8) 
adgpu

>  <m_score__min__energy>  (8) 
-8.5

>  <m_primary>  (8) 
energy

$$$$
8:0
     RDKit          3D

 50 53  0  0  0  0  0  0  0  0999 V2000
   -6.6980   23.7590  -29.3750 O   0  0  0  0  0  0  0  0  0  0  0  0
   -5.6300   23.2850  -29.8480 C   0  0  0  0  0  0  0  0  0  0  0  0
   -5.7090   22.2580  -30.9120 C   0  0  0  0  0  0  0  0  0  0  0  0
   -6.7800   22.2680  -31.8190 C   0  0  0  0  0  0  0  0  0  0  0  0
   -6.8540   21.3150  -32.8400 C   0  0  0  0  0  0  0  0  0  0  0  0
   -5.8460   20.3440  -32.9790 C   0  0  0  0  0  0  0  0  0  0  0  0
   -5.8740   19.3670  -33.9840 O   0  0  0  0  0  0  0  0  0  0  0  0
   -4.7360   18.6330  -34.4260 C   0  0  0  0  0  0  0  0  0  0  0  0
   -4.9440   17.1770  -34.1310 C   0  0  0  0  0  0  0  0  0  0  0  0
   -6.2260   16.6100  -34.2250 C   0  0  0  0  0  0  0  0  0  0  0  0
   -6.4250   15.2620  -33.9120 C   0  0  0  0  0  0  0  0  0  0  0  0
   -5.3490   14.4730  -33.4930 C   0  0  0  0  0  0  0  0  0  0  0  0
   -4.0740   15.0340  -33.3820 C   0  0  0  0  0  0  0  0  0  0  0  0
   -3.8710   16.3820  -33.6920 C   0  0  0  0  0  0  0  0  0  0  0  0
   -4.7690   20.3470  -32.0850 C   0  0  0  0  0  0  0  0  0  0  0  0
   -4.6950   21.2980  -31.0640 C   0  0  0  0  0  0  0  0  0  0  0  0
   -4.3420   23.7810  -29.3230 C   0  0  0  0  0  0  0  0  0  0  0  0
   -3.6080   23.2040  -28.2970 C   0  0  0  0  0  0  0  0  0  0  0  0
   -2.4560   23.8890  -28.1120 N   0  0  0  0  0  0  0  0  0  0  0  0
   -1.3960   23.5560  -27.1600 C   0  0  0  0  0  0  0  0  0  0  0  0
   -0.9750   22.0880  -27.2990 C   0  0  2  0  0  0  0  0  0  0  0  0
   -0.8560   21.6500  -28.7500 C   0  0  0  0  0  0  0  0  0  0  0  0
   -1.1920   20.1940  -28.6760 C   0  0  0  0  0  0  0  0  0  0  0  0
   -2.0910   20.1100  -27.4570 C   0  0  0  0  0  0  0  0  0  0  0  0
   -1.9170   21.2590  -26.6560 O   0  0  0  0  0  0  0  0  0  0  0  0
   -2.4370   24.8770  -29.0270 C   0  0  0  0  0  0  0  0  0  0  0  0
   -1.3960   25.7850  -29.1790 O   0  0  0  0  0  0  0  0  0  0  0  0
   -3.5780   24.8380  -29.7910 C   0  0  0  0  0  0  0  0  0  0  0  0
   -3.8720   25.6750  -30.8610 O   0  0  0  0  0  0  0  0  0  0  0  0
   -7.5670   23.0309  -31.7262 H   0  0  0  0  0  0  0  0  0  0  0  0
   -7.7045   21.3249  -33.5375 H   0  0  0  0  0  0  0  0  0  0  0  0
   -4.6050   18.7740  -35.5090 H   0  0  0  0  0  0  0  0  0  0  0  0
   -3.8380   18.9920  -33.9019 H   0  0  0  0  0  0  0  0  0  0  0  0
   -7.0766   17.2291  -34.5462 H   0  0  0  0  0  0  0  0  0  0  0  0
   -7.4294   14.8213  -33.9954 H   0  0  0  0  0  0  0  0  0  0  0  0
   -5.5062   13.4115  -33.2510 H   0  0  0  0  0  0  0  0  0  0  0  0
   -3.2284   14.4137  -33.0500 H   0  0  0  0  0  0  0  0  0  0  0  0
   -2.8679   16.8222  -33.5920 H   0  0  0  0  0  0  0  0  0  0  0  0
   -3.9737   19.5939  -32.1871 H   0  0  0  0  0  0  0  0  0  0  0  0
   -3.8375   21.2948  -30.3751 H   0  0  0  0  0  0  0  0  0  0  0  0
   -3.9169   22.3203  -27.7193 H   0  0  0  0  0  0  0  0  0  0  0  0
   -0.5249   24.1999  -27.3515 H   0  0  0  0  0  0  0  0  0  0  0  0
   -1.7768   23.7168  -26.1406 H   0  0  0  0  0  0  0  0  0  0  0  0
    0.0163   21.9948  -26.8314 H   0  0  0  0  0  0  0  0  0  0  0  0
   -1.5698   22.1910  -29.3886 H   0  0  0  0  0  0  0  0  0  0  0  0
    0.1322   21.8507  -29.1895 H   0  0  0  0  0  0  0  0  0  0  0  0
   -1.7227   19.8647  -29.5815 H   0  0  0  0  0  0  0  0  0  0  0  0
   -0.3043   19.5485  -28.6039 H   0  0  0  0  0  0  0  0  0  0  0  0
   -3.1404   20.0456  -27.7806 H   0  0  0  0  0  0  0  0  0  0  0  0
   -1.8285   19.2159  -26.8724 H   0  0  0  0  0  0  0  0  0  0  0  0
  1  2  2  0
  2  3  1  0
  3  4  2  0
  4  5  1  0
  5  6  2  0
  6  7  1  0
  7  8  1  0
  8  9  1  0
  9 10  2  0
 10 11  1  0
 11 12  2  0
 12 13  1  0
 13 14  2  0
  6 15  1  0
 15 16  2  0
  2 17  1  0
 17 18  2  0
 18 19  1  0
 19 20  1  0
 20 21  1  0
 21 22  1  0
 22 23  1  0
 23 24  1  0
 24 25  1  0
 19 26  1  0
 26 27  1  0
 26 28  2  0
 28 29  1  0
 16  3  1  0
 28 17  1  0
 14  9  1  0
 25 21  1  0
  4 30  1  0
  5 31  1  0
  8 32  1  0
  8 33  1  0
 10 34  1  0
 11 35  1  0
 12 36  1  0
 13 37  1  0
 14 38  1  0
 15 39  1  0
 16 40  1  0
 18 41  1  0
 20 42  1  0
 20 43  1  0
 21 44  1  1
 22 45  1  0
 22 46  1  0
 23 47  1  0
 23 48  1  0
 24 49  1  0
 24 50  1  0
M  CHG  2  27  -1  29  -1
M  END
>  <UniqueID>  (9) 
8

>  <SMILES>  (9) 
O=C(c1ccc(OCc2ccccc2)cc1)c1cn(C[C@@H]2CCCO2)c([O-])c1[O-]

>  <Energy>  (9) 
83.91979948803066

>  <Genealogy>  (9) 
O=C(c1ccc(OCc2ccccc2)cc1)c1cn(CC2CCCO2)c([O-])c1[O-] (protonated)
O=C(c1ccc(OCc2ccccc2)cc1)c1cn(C[C@@H]2CCCO2)c([O-])c1[O-] (chirality)
O=C(c1ccc(OCc2ccccc2)cc1)c1cn(C[C@@H]2CCCO2)c([O-])c1[O-] (3D coordinates assigned)
O=C(c1ccc(OCc2ccccc2)cc1)c1cn(C[C@@H]2CCCO2)c([O-])c1[O-] (nonaromatic ring conformer: 83.91979948803066 kcal/mol)

>  <smiles>  (9) 
O=C(c1ccc(OCc2ccccc2)cc1)c1cn(CC2CCCO2)c(O)c1O

>  <score_type>  (9) 
oracle

>  <origin>  (9) 
adgpu

>  <m_score__min__energy>  (9) 
-13.970000000000001

>  <m_primary>  (9) 
energy

$$$$
9:0
     RDKit          3D

 48 51  0  0  0  0  0  0  0  0999 V2000
   -8.6770   19.4630  -32.3900 C   0  0  0  0  0  0  0  0  0  0  0  0
   -7.2730   19.8760  -32.6010 N   0  0  0  0  0  0  0  0  0  0  0  0
   -6.4390   19.0840  -33.3480 C   0  0  0  0  0  0  0  0  0  0  0  0
   -6.8620   18.0160  -33.8760 O   0  0  0  0  0  0  0  0  0  0  0  0
   -5.1030   19.4460  -33.5420 C   0  0  0  0  0  0  0  0  0  0  0  0
   -4.3660   18.6930  -34.2410 O   0  0  0  0  0  0  0  0  0  0  0  0
   -4.6030   20.5930  -32.9850 N   0  0  0  0  0  0  0  0  0  0  0  0
   -3.1850   20.9510  -33.2020 C   0  0  0  0  0  0  0  0  0  0  0  0
   -5.4320   21.4120  -32.2470 C   0  0  0  0  0  0  0  0  0  0  0  0
   -4.9600   22.6170  -31.6670 C   0  0  0  0  0  0  0  0  0  0  0  0
   -5.8130   23.4610  -30.9510 C   0  0  0  0  0  0  0  0  0  0  0  0
   -5.2180   24.9770  -30.2750 S   0  0  0  0  0  0  0  0  0  0  0  0
   -5.5650   26.1000  -31.2130 O   0  0  0  0  0  0  0  0  0  0  0  0
   -5.8650   25.2680  -28.9490 O   0  0  0  0  0  0  0  0  0  0  0  0
   -3.4920   24.9070  -30.1080 N   0  0  0  0  0  0  0  0  0  0  0  0
   -2.7530   23.8870  -29.4180 C   0  0  0  0  0  0  0  0  0  0  0  0
   -2.0370   22.8920  -30.1060 C   0  0  0  0  0  0  0  0  0  0  0  0
   -1.3190   21.9120  -29.4040 C   0  0  0  0  0  0  0  0  0  0  0  0
   -1.3480   21.8990  -27.9940 C   0  0  0  0  0  0  0  0  0  0  0  0
   -2.0610   22.8920  -27.3100 C   0  0  0  0  0  0  0  0  0  0  0  0
   -2.7700   23.8740  -28.0170 C   0  0  0  0  0  0  0  0  0  0  0  0
   -3.4930   24.8440  -27.3310 O   0  0  0  0  0  0  0  0  0  0  0  0
   -0.5530   20.8770  -27.2130 C   0  0  0  0  0  0  0  0  0  0  0  0
   -0.2280   19.6870  -28.0100 N   0  0  0  0  0  0  0  0  0  0  0  0
    0.3850   20.0640  -29.2890 C   0  0  0  0  0  0  0  0  0  0  0  0
   -0.6140   20.8250  -30.1700 C   0  0  0  0  0  0  0  0  0  0  0  0
   -7.1520   23.1130  -30.7940 C   0  0  0  0  0  0  0  0  0  0  0  0
   -7.6400   21.9260  -31.3310 C   0  0  0  0  0  0  0  0  0  0  0  0
   -6.7970   21.0530  -32.0630 C   0  0  0  0  0  0  0  0  0  0  0  0
   -8.8832   19.4023  -31.3112 H   0  0  0  0  0  0  0  0  0  0  0  0
   -9.3496   20.2013  -32.8509 H   0  0  0  0  0  0  0  0  0  0  0  0
   -8.8427   18.4781  -32.8509 H   0  0  0  0  0  0  0  0  0  0  0  0
   -2.6858   21.0770  -32.2300 H   0  0  0  0  0  0  0  0  0  0  0  0
   -2.6873   20.1503  -33.7687 H   0  0  0  0  0  0  0  0  0  0  0  0
   -3.1270   21.8920  -33.7687 H   0  0  0  0  0  0  0  0  0  0  0  0
   -3.9015   22.8927  -31.7831 H   0  0  0  0  0  0  0  0  0  0  0  0
   -2.0396   22.8816  -31.2059 H   0  0  0  0  0  0  0  0  0  0  0  0
   -2.0648   22.9016  -26.2100 H   0  0  0  0  0  0  0  0  0  0  0  0
   -4.1060   25.4860  -27.8160 H   0  0  0  0  0  0  0  0  0  0  0  0
    0.3849   21.3425  -26.8760 H   0  0  0  0  0  0  0  0  0  0  0  0
   -1.1715   20.5512  -26.3637 H   0  0  0  0  0  0  0  0  0  0  0  0
   -1.1100   19.1540  -28.1950 H   0  0  0  0  0  0  0  0  0  0  0  0
    1.2569   20.7062  -29.0954 H   0  0  0  0  0  0  0  0  0  0  0  0
    0.6924   19.1484  -29.8155 H   0  0  0  0  0  0  0  0  0  0  0  0
   -0.0722   21.2777  -31.0135 H   0  0  0  0  0  0  0  0  0  0  0  0
   -1.3711   20.1102  -30.5247 H   0  0  0  0  0  0  0  0  0  0  0  0
   -7.8288   23.7813  -30.2415 H   0  0  0  0  0  0  0  0  0  0  0  0
   -8.6975   21.6607  -31.1851 H   0  0  0  0  0  0  0  0  0  0  0  0
  1  2  1  0
  2  3  1  0
  3  4  2  0
  3  5  1  0
  5  6  2  0
  5  7  1  0
  7  8  1  0
  7  9  1  0
  9 10  2  0
 10 11  1  0
 11 12  1  0
 12 13  2  0
 12 14  2  0
 12 15  1  0
 15 16  1  0
 16 17  2  0
 17 18  1  0
 18 19  2  0
 19 20  1  0
 20 21  2  0
 21 22  1  0
 19 23  1  0
 23 24  1  0
 24 25  1  0
 25 26  1  0
 11 27  2  0
 27 28  1  0
 28 29  2  0
 29  2  1  0
 29  9  1  0
 21 16  1  0
 26 18  1  0
  1 30  1  0
  1 31  1  0
  1 32  1  0
  8 33  1  0
  8 34  1  0
  8 35  1  0
 10 36  1  0
 17 37  1  0
 20 38  1  0
 22 39  1  0
 23 40  1  0
 23 41  1  0
 24 42  1  0
 25 43  1  0
 25 44  1  0
 26 45  1  0
 26 46  1  0
 27 47  1  0
 28 48  1  0
M  CHG  1  15  -1
M  END
>  <UniqueID>  (10) 
9

>  <SMILES>  (10) 
Cn1c(=O)c(=O)n(C)c2cc(S(=O)(=O)[N-]c3cc4c(cc3O)CNCC4)ccc21

>  <Energy>  (10) 
74.5318018985114

>  <Genealogy>  (10) 
Cn1c(=O)c(=O)n(C)c2cc(S(=O)(=O)[N-]c3cc4c(cc3O)CNCC4)ccc21 (protonated)
Cn1c(=O)c(=O)n(C)c2cc(S(=O)(=O)[N-]c3cc4c(cc3O)CNCC4)ccc21 (3D coordinates assigned)
Cn1c(=O)c(=O)n(C)c2cc(S(=O)(=O)[N-]c3cc4c(cc3O)CNCC4)ccc21 (nonaromatic ring conformer: 74.5318018985114 kcal/mol)

>  <smiles>  (10) 
Cn1c(=O)c(=O)n(C)c2cc(S(=O)(=O)Nc3cc4c(cc3O)CNCC4)ccc21

>  <score_type>  (10) 
oracle

>  <origin>  (10) 
adgpu

>  <m_score__min__energy>  (10) 
-12.630000000000001

>  <m_primary>  (10) 
energy

$$$$
10:0
     RDKit          3D

 54 56  0  0  0  0  0  0  0  0999 V2000
   -1.7780   21.7400  -34.5850 H   0  0  0  0  0  0  0  0  0  0  0  0
   -0.8640   21.9210  -34.1910 O   0  0  0  0  0  0  0  0  0  0  0  0
   -0.3080   21.0420  -33.2850 N   0  0  0  0  0  0  0  0  0  0  0  0
    0.5170   20.4710  -33.5850 H   0  0  0  0  0  0  0  0  0  0  0  0
   -0.7750   20.9300  -32.0760 C   0  0  0  0  0  0  0  0  0  0  0  0
   -1.9260   21.7500  -31.6360 C   0  0  0  0  0  0  0  0  0  0  0  0
   -3.1510   21.7210  -32.3230 C   0  0  0  0  0  0  0  0  0  0  0  0
   -3.3260   20.8300  -33.3970 O   0  0  0  0  0  0  0  0  0  0  0  0
   -4.3580   19.8870  -33.4650 C   0  0  0  0  0  0  0  0  0  0  0  0
   -4.1430   18.6060  -33.9980 C   0  0  0  0  0  0  0  0  0  0  0  0
   -3.1441   18.3197  -34.3589 H   0  0  0  0  0  0  0  0  0  0  0  0
   -5.2000   17.6960  -34.0690 C   0  0  0  0  0  0  0  0  0  0  0  0
   -5.0295   16.6921  -34.4851 H   0  0  0  0  0  0  0  0  0  0  0  0
   -6.4730   18.0520  -33.6150 C   0  0  0  0  0  0  0  0  0  0  0  0
   -7.2981   17.3269  -33.6740 H   0  0  0  0  0  0  0  0  0  0  0  0
   -6.7040   19.3360  -33.0820 C   0  0  0  0  0  0  0  0  0  0  0  0
   -8.1010   19.7820  -32.6960 C   0  0  0  0  0  0  0  0  0  0  0  0
   -8.6831   19.9003  -33.6218 H   0  0  0  0  0  0  0  0  0  0  0  0
   -8.0800   21.1430  -31.9900 C   0  0  0  0  0  0  0  0  0  0  0  0
   -8.0823   20.9910  -30.9006 H   0  0  0  0  0  0  0  0  0  0  0  0
   -7.1733   21.6933  -32.2815 H   0  0  0  0  0  0  0  0  0  0  0  0
   -8.9693   21.7210  -32.2815 H   0  0  0  0  0  0  0  0  0  0  0  0
   -8.7920   18.7220  -31.8320 C   0  0  0  0  0  0  0  0  0  0  0  0
   -8.6380   18.9582  -30.7688 H   0  0  0  0  0  0  0  0  0  0  0  0
   -9.8694   18.7138  -32.0535 H   0  0  0  0  0  0  0  0  0  0  0  0
   -8.3647   17.7329  -32.0535 H   0  0  0  0  0  0  0  0  0  0  0  0
   -5.6270   20.2340  -32.9810 C   0  0  0  0  0  0  0  0  0  0  0  0
   -5.7818   21.2194  -32.5172 H   0  0  0  0  0  0  0  0  0  0  0  0
   -4.1780   22.5240  -31.9070 N   0  0  0  0  0  0  0  0  0  0  0  0
   -4.0640   23.3580  -30.8340 C   0  0  0  0  0  0  0  0  0  0  0  0
   -5.2190   24.2240  -30.4380 C   0  0  0  0  0  0  0  0  0  0  0  0
   -5.2824   24.2715  -29.3409 H   0  0  0  0  0  0  0  0  0  0  0  0
   -5.0729   25.2370  -30.8411 H   0  0  0  0  0  0  0  0  0  0  0  0
   -6.1505   23.7998  -30.8411 H   0  0  0  0  0  0  0  0  0  0  0  0
   -2.8680   23.3870  -30.1090 C   0  0  0  0  0  0  0  0  0  0  0  0
   -2.7683   24.0404  -29.2297 H   0  0  0  0  0  0  0  0  0  0  0  0
   -1.7980   22.5770  -30.5120 C   0  0  0  0  0  0  0  0  0  0  0  0
   -0.8556   22.5903  -29.9449 H   0  0  0  0  0  0  0  0  0  0  0  0
   -0.1240   20.0620  -31.1340 N   0  0  0  0  0  0  0  0  0  0  0  0
    0.8480   19.7230  -31.3590 H   0  0  0  0  0  0  0  0  0  0  0  0
   -0.8650   19.3240  -30.1130 C   0  0  0  0  0  0  0  0  0  0  0  0
   -1.9009   19.1733  -30.4510 H   0  0  0  0  0  0  0  0  0  0  0  0
   -0.3833   18.3489  -29.9483 H   0  0  0  0  0  0  0  0  0  0  0  0
   -0.8680   20.1020  -28.8220 C   0  0  0  0  0  0  0  0  0  0  0  0
    0.1930   20.9590  -28.4990 C   0  0  0  0  0  0  0  0  0  0  0  0
    1.0410   21.0682  -29.1911 H   0  0  0  0  0  0  0  0  0  0  0  0
    0.1750   21.6780  -27.2940 C   0  0  0  0  0  0  0  0  0  0  0  0
    1.0131   22.3438  -27.0406 H   0  0  0  0  0  0  0  0  0  0  0  0
   -0.9060   21.5510  -26.4130 C   0  0  0  0  0  0  0  0  0  0  0  0
   -0.9173   22.1168  -25.4697 H   0  0  0  0  0  0  0  0  0  0  0  0
   -1.9670   20.7070  -26.7330 C   0  0  0  0  0  0  0  0  0  0  0  0
   -2.8193   20.6100  -26.0444 H   0  0  0  0  0  0  0  0  0  0  0  0
   -1.9490   19.9820  -27.9310 C   0  0  0  0  0  0  0  0  0  0  0  0
   -2.7872   19.3134  -28.1769 H   0  0  0  0  0  0  0  0  0  0  0  0
  1  2  1  0
  2  3  1  0
  3  4  1  0
  3  5  2  0
  5  6  1  0
  6  7  1  0
  7  8  1  0
  8  9  1  0
  9 10  2  0
 10 11  1  0
 10 12  1  0
 12 13  1  0
 12 14  2  0
 14 15  1  0
 14 16  1  0
 16 17  1  0
 17 18  1  0
 17 19  1  0
 19 20  1  0
 19 21  1  0
 19 22  1  0
 17 23  1  0
 23 24  1  0
 23 25  1  0
 23 26  1  0
 16 27  2  0
 27 28  1  0
  7 29  2  0
 29 30  1  0
 30 31  1  0
 31 32  1  0
 31 33  1  0
 31 34  1  0
 30 35  2  0
 35 36  1  0
 35 37  1  0
 37 38  1  0
  5 39  1  0
 39 40  1  0
 39 41  1  0
 41 42  1  0
 41 43  1  0
 41 44  1  0
 44 45  2  0
 45 46  1  0
 45 47  1  0
 47 48  1  0
 47 49  2  0
 49 50  1  0
 49 51  1  0
 51 52  1  0
 51 53  2  0
 53 54  1  0
 37  6  2  0
 53 44  1  0
 27  9  1  0
M  CHG  1   3   1
M  END
>  <UniqueID>  (11) 
10

>  <SMILES>  (11) 
Cc1ccc(/C(NCc2ccccc2)=[NH+]\O)c(Oc2cccc(C(C)C)c2)n1

>  <Energy>  (11) 
59.835341888622686

>  <Genealogy>  (11) 
Cc1ccc(C(NCc2ccccc2)=[NH+]O)c(Oc2cccc(C(C)C)c2)n1 (protonated)
Cc1ccc(/C(NCc2ccccc2)=[NH+]\O)c(Oc2cccc(C(C)C)c2)n1 (cis-trans isomerization)
Cc1ccc(/C(NCc2ccccc2)=[NH+]\O)c(Oc2cccc(C(C)C)c2)n1 (3D coordinates assigned)
Cc1ccc(/C(NCc2ccccc2)=[NH+]\O)c(Oc2cccc(C(C)C)c2)n1 (optimized conformer: 59.835341888622686 kcal/mol)

>  <smiles>  (11) 
Cc1ccc(C(=NO)NCc2ccccc2)c(Oc2cccc(C(C)C)c2)n1

>  <score_type>  (11) 
oracle

>  <origin>  (11) 
adgpu

>  <m_score__min__energy>  (11) 
-9.5999999999999996

>  <m_primary>  (11) 
energy

$$$$
11:0
     RDKit          3D

 56 59  0  0  0  0  0  0  0  0999 V2000
   -0.4130   20.6390  -27.5470 C   0  0  0  0  0  0  0  0  0  0  0  0
   -1.1960   21.8010  -28.0830 C   0  0  0  0  0  0  0  0  0  0  0  0
   -1.3780   21.9280  -29.4610 C   0  0  0  0  0  0  0  0  0  0  0  0
   -2.1060   22.9990  -29.9810 C   0  0  0  0  0  0  0  0  0  0  0  0
   -2.6640   23.9730  -29.1260 C   0  0  0  0  0  0  0  0  0  0  0  0
   -3.4480   25.0590  -29.6470 N   0  0  0  0  0  0  0  0  0  0  0  0
   -5.0840   24.9460  -30.2080 S   0  0  0  0  0  0  0  0  0  0  0  0
   -6.0360   25.1560  -29.0640 O   0  0  0  0  0  0  0  0  0  0  0  0
   -5.3270   26.0200  -31.2320 O   0  0  0  0  0  0  0  0  0  0  0  0
   -5.3340   23.3760  -30.9620 C   0  0  0  0  0  0  0  0  0  0  0  0
   -4.4330   22.9240  -31.9350 C   0  0  0  0  0  0  0  0  0  0  0  0
   -4.5750   21.6500  -32.4900 C   0  0  0  0  0  0  0  0  0  0  0  0
   -5.6160   20.8020  -32.0670 C   0  0  0  0  0  0  0  0  0  0  0  0
   -5.7340   19.4280  -32.6110 C   0  0  0  0  0  0  0  0  0  0  0  0
   -6.7580   18.5730  -32.1820 C   0  0  0  0  0  0  0  0  0  0  0  0
   -6.8480   17.2720  -32.6780 C   0  0  0  0  0  0  0  0  0  0  0  0
   -5.9100   16.8180  -33.6260 C   0  0  0  0  0  0  0  0  0  0  0  0
   -5.9640   15.4740  -34.1670 N   0  0  0  0  0  0  0  0  0  0  0  0
   -7.2500   14.8570  -34.5270 C   0  0  0  0  0  0  0  0  0  0  0  0
   -7.0510   13.4360  -35.0740 C   0  0  0  0  0  0  0  0  0  0  0  0
   -6.1570   12.6700  -34.1950 N   0  0  0  0  0  0  0  0  0  0  0  0
   -4.8160   13.2750  -34.0490 C   0  0  0  0  0  0  0  0  0  0  0  0
   -4.7260   14.7460  -34.4950 C   0  0  0  0  0  0  0  0  0  0  0  0
   -4.9290   17.6750  -34.0320 N   0  0  0  0  0  0  0  0  0  0  0  0
   -4.8160   18.9430  -33.5550 C   0  0  0  0  0  0  0  0  0  0  0  0
   -6.5280   21.2670  -31.1030 C   0  0  0  0  0  0  0  0  0  0  0  0
   -6.3920   22.5480  -30.5590 C   0  0  0  0  0  0  0  0  0  0  0  0
   -2.4650   23.8610  -27.7350 C   0  0  0  0  0  0  0  0  0  0  0  0
   -3.0670   24.8650  -26.7870 C   0  0  0  0  0  0  0  0  0  0  0  0
   -4.4520   24.9200  -26.9830 O   0  0  0  0  0  0  0  0  0  0  0  0
   -1.7360   22.7730  -27.2230 C   0  0  0  0  0  0  0  0  0  0  0  0
   -0.4287   20.6623  -26.4474 H   0  0  0  0  0  0  0  0  0  0  0  0
   -0.8629   19.6995  -27.9003 H   0  0  0  0  0  0  0  0  0  0  0  0
    0.6267   20.7032  -27.9003 H   0  0  0  0  0  0  0  0  0  0  0  0
   -0.9451   21.1796  -30.1410 H   0  0  0  0  0  0  0  0  0  0  0  0
   -2.2463   23.0848  -31.0686 H   0  0  0  0  0  0  0  0  0  0  0  0
   -3.6098   23.5755  -32.2635 H   0  0  0  0  0  0  0  0  0  0  0  0
   -3.8697   21.3076  -33.2616 H   0  0  0  0  0  0  0  0  0  0  0  0
   -7.4962   18.9301  -31.4489 H   0  0  0  0  0  0  0  0  0  0  0  0
   -7.6488   16.6030  -32.3300 H   0  0  0  0  0  0  0  0  0  0  0  0
   -7.8886   14.8109  -33.6325 H   0  0  0  0  0  0  0  0  0  0  0  0
   -7.7223   15.4684  -35.3100 H   0  0  0  0  0  0  0  0  0  0  0  0
   -8.0257   12.9293  -35.1302 H   0  0  0  0  0  0  0  0  0  0  0  0
   -6.5997   13.4987  -36.0752 H   0  0  0  0  0  0  0  0  0  0  0  0
   -6.6070   12.5970  -33.2470 H   0  0  0  0  0  0  0  0  0  0  0  0
   -4.5278   13.2194  -32.9889 H   0  0  0  0  0  0  0  0  0  0  0  0
   -4.1435   12.7069  -34.7086 H   0  0  0  0  0  0  0  0  0  0  0  0
   -3.8797   15.2262  -33.9820 H   0  0  0  0  0  0  0  0  0  0  0  0
   -4.5818   14.7734  -35.5852 H   0  0  0  0  0  0  0  0  0  0  0  0
   -4.0016   19.5914  -33.9105 H   0  0  0  0  0  0  0  0  0  0  0  0
   -7.3539   20.6188  -30.7747 H   0  0  0  0  0  0  0  0  0  0  0  0
   -7.1165   22.9072  -29.8133 H   0  0  0  0  0  0  0  0  0  0  0  0
   -2.8551   24.5635  -25.7506 H   0  0  0  0  0  0  0  0  0  0  0  0
   -2.6302   25.8565  -26.9772 H   0  0  0  0  0  0  0  0  0  0  0  0
   -4.5950   25.4090  -27.8370 H   0  0  0  0  0  0  0  0  0  0  0  0
   -1.5866   22.6815  -26.1370 H   0  0  0  0  0  0  0  0  0  0  0  0
  1  2  1  0
  2  3  2  0
  3  4  1  0
  4  5  2  0
  5  6  1  0
  6  7  1  0
  7  8  2  0
  7  9  2  0
  7 10  1  0
 10 11  2  0
 11 12  1  0
 12 13  2  0
 13 14  1  0
 14 15  2  0
 15 16  1  0
 16 17  2  0
 17 18  1  0
 18 19  1  0
 19 20  1  0
 20 21  1  0
 21 22  1  0
 22 23  1  0
 17 24  1  0
 24 25  2  0
 13 26  1  0
 26 27  2  0
  5 28  1  0
 28 29  1  0
 29 30  1  0
 28 31  2  0
 31  2  1  0
 27 10  1  0
 25 14  1  0
 23 18  1  0
  1 32  1  0
  1 33  1  0
  1 34  1  0
  3 35  1  0
  4 36  1  0
 11 37  1  0
 12 38  1  0
 15 39  1  0
 16 40  1  0
 19 41  1  0
 19 42  1  0
 20 43  1  0
 20 44  1  0
 21 45  1  0
 22 46  1  0
 22 47  1  0
 23 48  1  0
 23 49  1  0
 25 50  1  0
 26 51  1  0
 27 52  1  0
 29 53  1  0
 29 54  1  0
 30 55  1  0
 31 56  1  0
M  CHG  1   6  -1
M  END
>  <UniqueID>  (12) 
11

>  <SMILES>  (12) 
Cc1ccc([N-]S(=O)(=O)c2ccc(-c3ccc(N4CCNCC4)nc3)cc2)c(CO)c1

>  <Energy>  (12) 
75.22199003303301

>  <Genealogy>  (12) 
Cc1ccc([N-]S(=O)(=O)c2ccc(-c3ccc(N4CCNCC4)nc3)cc2)c(CO)c1 (protonated)
Cc1ccc([N-]S(=O)(=O)c2ccc(-c3ccc(N4CCNCC4)nc3)cc2)c(CO)c1 (3D coordinates assigned)
Cc1ccc([N-]S(=O)(=O)c2ccc(-c3ccc(N4CCNCC4)nc3)cc2)c(CO)c1 (nonaromatic ring conformer: 75.22199003303301 kcal/mol)

>  <smiles>  (12) 
Cc1ccc(NS(=O)(=O)c2ccc(-c3ccc(N4CCNCC4)nc3)cc2)c(CO)c1

>  <score_type>  (12) 
oracle

>  <origin>  (12) 
adgpu

>  <m_score__min__energy>  (12) 
-9.8699999999999992

>  <m_primary>  (12) 
energy

$$$$
12:0
     RDKit          3D

 56 59  0  0  0  0  0  0  0  0999 V2000
   -3.4900   20.4210  -31.4680 O   0  0  0  0  0  0  0  0  0  0  0  0
   -2.7480   21.1110  -30.7160 C   0  0  0  0  0  0  0  0  0  0  0  0
   -3.0620   22.4940  -30.4830 N   0  0  0  0  0  0  0  0  0  0  0  0
   -4.3810   23.0470  -30.6460 C   0  0  0  0  0  0  0  0  0  0  0  0
   -5.5020   22.2090  -30.7890 C   0  0  0  0  0  0  0  0  0  0  0  0
   -6.7900   22.7520  -30.9130 C   0  0  0  0  0  0  0  0  0  0  0  0
   -8.1900   21.6900  -31.1020 S   0  0  0  0  0  0  0  0  0  0  0  0
   -9.0770   21.8310  -29.8960 O   0  0  0  0  0  0  0  0  0  0  0  0
   -8.9740   22.1240  -32.3090 O   0  0  0  0  0  0  0  0  0  0  0  0
   -7.7470   20.0090  -31.2860 N   0  0  0  0  0  0  0  0  0  0  0  0
   -6.7920   19.8070  -32.3740 C   0  0  0  0  0  0  0  0  0  0  0  0
   -6.9710   18.3710  -32.8400 C   0  0  0  0  0  0  0  0  0  0  0  0
   -8.3450   17.9510  -32.3350 C   0  0  0  0  0  0  0  0  0  0  0  0
   -8.8960   19.1690  -31.6120 C   0  0  0  0  0  0  0  0  0  0  0  0
   -6.9560   24.1430  -30.9010 C   0  0  0  0  0  0  0  0  0  0  0  0
   -5.8510   24.9820  -30.7420 C   0  0  0  0  0  0  0  0  0  0  0  0
   -4.5680   24.4400  -30.6080 C   0  0  0  0  0  0  0  0  0  0  0  0
   -3.4820   25.2940  -30.4500 O   0  0  0  0  0  0  0  0  0  0  0  0
   -1.5370   20.4950  -30.1210 C   0  0  0  0  0  0  0  0  0  0  0  0
   -0.3780   20.3170  -30.8990 C   0  0  0  0  0  0  0  0  0  0  0  0
    0.7640   19.7290  -30.3500 C   0  0  0  0  0  0  0  0  0  0  0  0
    0.7640   19.2950  -29.0170 C   0  0  0  0  0  0  0  0  0  0  0  0
    2.2110   18.5540  -28.3220 S   0  0  0  0  0  0  0  0  0  0  0  0
    3.0600   18.0030  -29.4340 O   0  0  0  0  0  0  0  0  0  0  0  0
    3.0060   19.6120  -27.6100 O   0  0  0  0  0  0  0  0  0  0  0  0
    1.8420   17.2670  -27.1970 N   0  0  0  0  0  0  0  0  0  0  0  0
    3.0490   16.6100  -26.7000 C   0  0  0  0  0  0  0  0  0  0  0  0
    2.6340   15.2060  -26.2900 C   0  0  0  0  0  0  0  0  0  0  0  0
    1.3210   14.9450  -27.0150 C   0  0  0  0  0  0  0  0  0  0  0  0
    1.0450   16.2100  -27.8130 C   0  0  0  0  0  0  0  0  0  0  0  0
   -0.3860   19.4690  -28.2370 C   0  0  0  0  0  0  0  0  0  0  0  0
   -1.5290   20.0580  -28.7850 C   0  0  0  0  0  0  0  0  0  0  0  0
   -2.2740   23.1490  -30.2790 H   0  0  0  0  0  0  0  0  0  0  0  0
   -5.3675   21.1174  -30.8038 H   0  0  0  0  0  0  0  0  0  0  0  0
   -7.0019   20.5038  -33.1989 H   0  0  0  0  0  0  0  0  0  0  0  0
   -5.7607   19.9924  -32.0394 H   0  0  0  0  0  0  0  0  0  0  0  0
   -6.9306   18.3146  -33.9378 H   0  0  0  0  0  0  0  0  0  0  0  0
   -6.1759   17.7143  -32.4573 H   0  0  0  0  0  0  0  0  0  0  0  0
   -8.9971   17.6749  -33.1768 H   0  0  0  0  0  0  0  0  0  0  0  0
   -8.2885   17.0729  -31.6749 H   0  0  0  0  0  0  0  0  0  0  0  0
   -9.5938   19.7150  -32.2638 H   0  0  0  0  0  0  0  0  0  0  0  0
   -9.4483   18.8792  -30.7059 H   0  0  0  0  0  0  0  0  0  0  0  0
   -7.9605   24.5760  -31.0173 H   0  0  0  0  0  0  0  0  0  0  0  0
   -5.9898   26.0730  -30.7220 H   0  0  0  0  0  0  0  0  0  0  0  0
   -0.3712   20.6439  -31.9493 H   0  0  0  0  0  0  0  0  0  0  0  0
    1.6669   19.6060  -30.9661 H   0  0  0  0  0  0  0  0  0  0  0  0
    3.8117   16.5657  -27.4915 H   0  0  0  0  0  0  0  0  0  0  0  0
    3.4838   17.1612  -25.8532 H   0  0  0  0  0  0  0  0  0  0  0  0
    3.3956   14.4743  -26.5975 H   0  0  0  0  0  0  0  0  0  0  0  0
    2.5246   15.1137  -25.1994 H   0  0  0  0  0  0  0  0  0  0  0  0
    1.4172   14.0791  -27.6865 H   0  0  0  0  0  0  0  0  0  0  0  0
    0.5044   14.7155  -26.3147 H   0  0  0  0  0  0  0  0  0  0  0  0
    1.3436   16.0707  -28.8625 H   0  0  0  0  0  0  0  0  0  0  0  0
   -0.0259   16.4614  -27.8049 H   0  0  0  0  0  0  0  0  0  0  0  0
   -0.3898   19.1403  -27.1873 H   0  0  0  0  0  0  0  0  0  0  0  0
   -2.4298   20.1806  -28.1656 H   0  0  0  0  0  0  0  0  0  0  0  0
  1  2  2  0
  2  3  1  0
  3  4  1  0
  4  5  2  0
  5  6  1  0
  6  7  1  0
  7  8  2  0
  7  9  2  0
  7 10  1  0
 10 11  1  0
 11 12  1  0
 12 13  1  0
 13 14  1  0
  6 15  2  0
 15 16  1  0
 16 17  2  0
 17 18  1  0
  2 19  1  0
 19 20  2  0
 20 21  1  0
 21 22  2  0
 22 23  1  0
 23 24  2  0
 23 25  2  0
 23 26  1  0
 26 27  1  0
 27 28  1  0
 28 29  1  0
 29 30  1  0
 22 31  1  0
 31 32  2  0
 17  4  1  0
 32 19  1  0
 14 10  1  0
 30 26  1  0
  3 33  1  0
  5 34  1  0
 11 35  1  0
 11 36  1  0
 12 37  1  0
 12 38  1  0
 13 39  1  0
 13 40  1  0
 14 41  1  0
 14 42  1  0
 15 43  1  0
 16 44  1  0
 20 45  1  0
 21 46  1  0
 27 47  1  0
 27 48  1  0
 28 49  1  0
 28 50  1  0
 29 51  1  0
 29 52  1  0
 30 53  1  0
 30 54  1  0
 31 55  1  0
 32 56  1  0
M  CHG  1  18  -1
M  END
>  <UniqueID>  (13) 
12

>  <SMILES>  (13) 
O=C(Nc1cc(S(=O)(=O)N2CCCC2)ccc1[O-])c1ccc(S(=O)(=O)N2CCCC2)cc1

>  <Energy>  (13) 
66.14222382045104

>  <Genealogy>  (13) 
O=C(Nc1cc(S(=O)(=O)N2CCCC2)ccc1[O-])c1ccc(S(=O)(=O)N2CCCC2)cc1 (protonated)
O=C(Nc1cc(S(=O)(=O)N2CCCC2)ccc1[O-])c1ccc(S(=O)(=O)N2CCCC2)cc1 (3D coordinates assigned)
O=C(Nc1cc(S(=O)(=O)N2CCCC2)ccc1[O-])c1ccc(S(=O)(=O)N2CCCC2)cc1 (nonaromatic ring conformer: 66.14222382045104 kcal/mol)

>  <smiles>  (13) 
O=C(Nc1cc(S(=O)(=O)N2CCCC2)ccc1O)c1ccc(S(=O)(=O)N2CCCC2)cc1

>  <score_type>  (13) 
oracle

>  <origin>  (13) 
adgpu

>  <m_score__min__energy>  (13) 
-12.25

>  <m_primary>  (13) 
energy

$$$$
13:0
     RDKit          3D

 50 53  0  0  0  0  0  0  0  0999 V2000
   -0.0200   15.3380  -37.1590 C   0  0  0  0  0  0  0  0  0  0  0  0
   -0.9810   14.5550  -37.8590 O   0  0  0  0  0  0  0  0  0  0  0  0
   -1.0450   13.1650  -37.7460 C   0  0  0  0  0  0  0  0  0  0  0  0
   -1.0320   12.4360  -38.7750 O   0  0  0  0  0  0  0  0  0  0  0  0
   -1.1270   12.5770  -36.4470 N   0  0  0  0  0  0  0  0  0  0  0  0
   -2.3940   12.2060  -35.8250 C   0  0  0  0  0  0  0  0  0  0  0  0
   -3.5200   13.1270  -36.3050 C   0  0  2  0  0  0  0  0  0  0  0  0
   -3.3300   14.6040  -35.8520 C   0  0  0  0  0  0  0  0  0  0  0  0
   -4.4620   14.8840  -34.9730 N   0  0  0  0  0  0  0  0  0  0  0  0
   -4.6410   16.0850  -34.1970 C   0  0  0  0  0  0  0  0  0  0  0  0
   -5.7140   16.1880  -33.2940 C   0  0  0  0  0  0  0  0  0  0  0  0
   -5.9010   17.3520  -32.5450 C   0  0  0  0  0  0  0  0  0  0  0  0
   -5.0270   18.4370  -32.6900 C   0  0  0  0  0  0  0  0  0  0  0  0
   -5.2230   19.6330  -31.9190 N   0  0  0  0  0  0  0  0  0  0  0  0
   -6.4560   20.4130  -32.1220 C   0  0  0  0  0  0  0  0  0  0  0  0
   -6.5970   21.5660  -31.1170 C   0  0  0  0  0  0  0  0  0  0  0  0
   -5.2860   22.2930  -30.9360 C   0  0  0  0  0  0  0  0  0  0  0  0
   -4.1140   21.5200  -30.8380 C   0  0  0  0  0  0  0  0  0  0  0  0
   -2.8790   22.1410  -30.6100 C   0  0  0  0  0  0  0  0  0  0  0  0
   -2.8040   23.5290  -30.4890 C   0  0  0  0  0  0  0  0  0  0  0  0
   -3.9620   24.3060  -30.5730 C   0  0  0  0  0  0  0  0  0  0  0  0
   -3.8690   25.6860  -30.4370 O   0  0  0  0  0  0  0  0  0  0  0  0
   -5.2090   23.6960  -30.7850 C   0  0  0  0  0  0  0  0  0  0  0  0
   -6.6490   24.7140  -30.8420 Cl  0  0  0  0  0  0  0  0  0  0  0  0
   -4.2150   20.0210  -30.9230 C   0  0  0  0  0  0  0  0  0  0  0  0
   -3.9650   18.3480  -33.6030 C   0  0  0  0  0  0  0  0  0  0  0  0
   -3.1310   19.4030  -33.7880 F   0  0  0  0  0  0  0  0  0  0  0  0
   -3.7760   17.1830  -34.3520 C   0  0  0  0  0  0  0  0  0  0  0  0
   -5.2890   13.7350  -34.9860 C   0  0  0  0  0  0  0  0  0  0  0  0
   -6.4110   13.6630  -34.4190 O   0  0  0  0  0  0  0  0  0  0  0  0
   -4.7650   12.7160  -35.7470 O   0  0  0  0  0  0  0  0  0  0  0  0
   -0.1678   15.2176  -36.0757 H   0  0  0  0  0  0  0  0  0  0  0  0
    0.9925   15.0044  -37.4302 H   0  0  0  0  0  0  0  0  0  0  0  0
   -0.1421   16.3970  -37.4302 H   0  0  0  0  0  0  0  0  0  0  0  0
   -2.6377   11.1672  -36.0926 H   0  0  0  0  0  0  0  0  0  0  0  0
   -2.2958   12.3047  -34.7338 H   0  0  0  0  0  0  0  0  0  0  0  0
   -3.5017   13.0617  -37.4029 H   0  0  0  0  0  0  0  0  0  0  0  0
   -2.3811   14.7216  -35.3081 H   0  0  0  0  0  0  0  0  0  0  0  0
   -3.2932   15.2947  -36.7073 H   0  0  0  0  0  0  0  0  0  0  0  0
   -6.4114   15.3455  -33.1766 H   0  0  0  0  0  0  0  0  0  0  0  0
   -6.7401   17.4171  -31.8367 H   0  0  0  0  0  0  0  0  0  0  0  0
   -6.4448   20.8315  -33.1392 H   0  0  0  0  0  0  0  0  0  0  0  0
   -7.3085   19.7341  -31.9723 H   0  0  0  0  0  0  0  0  0  0  0  0
   -7.3526   22.2746  -31.4870 H   0  0  0  0  0  0  0  0  0  0  0  0
   -6.9015   21.1479  -30.1462 H   0  0  0  0  0  0  0  0  0  0  0  0
   -1.9663   21.5328  -30.5262 H   0  0  0  0  0  0  0  0  0  0  0  0
   -1.8297   24.0132  -30.3269 H   0  0  0  0  0  0  0  0  0  0  0  0
   -3.2384   19.6076  -31.2152 H   0  0  0  0  0  0  0  0  0  0  0  0
   -4.5128   19.6264  -29.9404 H   0  0  0  0  0  0  0  0  0  0  0  0
   -2.9436   17.1245  -35.0687 H   0  0  0  0  0  0  0  0  0  0  0  0
  1  2  1  0
  2  3  1  0
  3  4  2  0
  3  5  1  0
  5  6  1  0
  6  7  1  0
  7  8  1  0
  8  9  1  0
  9 10  1  0
 10 11  2  0
 11 12  1  0
 12 13  2  0
 13 14  1  0
 14 15  1  0
 15 16  1  0
 16 17  1  0
 17 18  2  0
 18 19  1  0
 19 20  2  0
 20 21  1  0
 21 22  1  0
 21 23  2  0
 23 24  1  0
 18 25  1  0
 13 26  1  0
 26 27  1  0
 26 28  2  0
  9 29  1  0
 29 30  2  0
 29 31  1  0
 31  7  1  0
 28 10  1  0
 25 14  1  0
 23 17  1  0
  1 32  1  0
  1 33  1  0
  1 34  1  0
  6 35  1  0
  6 36  1  0
  7 37  1  6
  8 38  1  0
  8 39  1  0
 11 40  1  0
 12 41  1  0
 15 42  1  0
 15 43  1  0
 16 44  1  0
 16 45  1  0
 19 46  1  0
 20 47  1  0
 25 48  1  0
 25 49  1  0
 28 50  1  0
M  CHG  2   5  -1  22  -1
M  END
>  <UniqueID>  (14) 
13

>  <SMILES>  (14) 
COC(=O)[N-]C[C@@H]1CN(c2ccc(N3CCc4c(ccc([O-])c4Cl)C3)c(F)c2)C(=O)O1

>  <Energy>  (14) 
76.06616803465053

>  <Genealogy>  (14) 
COC(=O)[N-]CC1CN(c2ccc(N3CCc4c(ccc([O-])c4Cl)C3)c(F)c2)C(=O)O1 (protonated)
COC(=O)[N-]C[C@@H]1CN(c2ccc(N3CCc4c(ccc([O-])c4Cl)C3)c(F)c2)C(=O)O1 (chirality)
COC(=O)[N-]C[C@@H]1CN(c2ccc(N3CCc4c(ccc([O-])c4Cl)C3)c(F)c2)C(=O)O1 (3D coordinates assigned)
COC(=O)[N-]C[C@@H]1CN(c2ccc(N3CCc4c(ccc([O-])c4Cl)C3)c(F)c2)C(=O)O1 (nonaromatic ring conformer: 76.06616803465053 kcal/mol)

>  <smiles>  (14) 
COC(=O)NCC1CN(c2ccc(N3CCc4c(ccc(O)c4Cl)C3)c(F)c2)C(=O)O1

>  <score_type>  (14) 
oracle

>  <origin>  (14) 
adgpu

>  <m_score__min__energy>  (14) 
-9.7599999999999998

>  <m_primary>  (14) 
energy

$$$$
14:0
     RDKit          3D

 60 63  0  0  0  0  0  0  0  0999 V2000
   -6.0860   17.3640  -33.1750 C   0  0  0  0  0  0  0  0  0  0  0  0
   -6.6010   17.6800  -31.7940 C   0  0  0  0  0  0  0  0  0  0  0  0
   -6.1060   16.8730  -30.6210 C   0  0  0  0  0  0  0  0  0  0  0  0
   -7.5140   18.6490  -31.5650 C   0  0  0  0  0  0  0  0  0  0  0  0
   -8.1560   19.5260  -32.6180 C   0  0  0  0  0  0  0  0  0  0  0  0
   -7.8960   21.0140  -32.4260 C   0  0  0  0  0  0  0  0  0  0  0  0
   -8.9510   21.8480  -31.9800 C   0  0  0  0  0  0  0  0  0  0  0  0
  -10.2200   21.3230  -31.7390 O   0  0  0  0  0  0  0  0  0  0  0  0
   -8.7270   23.2110  -31.7630 C   0  0  0  0  0  0  0  0  0  0  0  0
   -7.4540   23.7470  -31.9110 C   0  0  0  0  0  0  0  0  0  0  0  0
   -6.3800   22.9270  -32.2590 C   0  0  0  0  0  0  0  0  0  0  0  0
   -6.5900   21.5740  -32.5640 C   0  0  0  0  0  0  0  0  0  0  0  0
   -5.4410   20.7870  -33.0580 C   0  0  0  0  0  0  0  0  0  0  0  0
   -5.5400   20.1600  -34.1440 O   0  0  0  0  0  0  0  0  0  0  0  0
   -4.2380   20.6960  -32.3520 O   0  0  0  0  0  0  0  0  0  0  0  0
   -3.6940   21.6480  -31.4800 C   0  0  0  0  0  0  0  0  0  0  0  0
   -2.6740   21.2180  -30.6310 C   0  0  0  0  0  0  0  0  0  0  0  0
   -1.9910   22.1130  -29.7790 C   0  0  0  0  0  0  0  0  0  0  0  0
   -0.9570   21.6690  -28.9080 C   0  0  0  0  0  0  0  0  0  0  0  0
   -0.5530   20.2130  -28.7830 C   0  0  0  0  0  0  0  0  0  0  0  0
   -1.6230   19.4230  -28.0660 C   0  0  0  0  0  0  0  0  0  0  0  0
   -2.0170   19.6430  -26.7890 C   0  0  0  0  0  0  0  0  0  0  0  0
   -3.1250   18.8080  -26.1980 C   0  0  0  0  0  0  0  0  0  0  0  0
   -1.3440   20.6600  -25.9020 C   0  0  0  0  0  0  0  0  0  0  0  0
   -0.2940   22.6020  -28.0990 C   0  0  0  0  0  0  0  0  0  0  0  0
   -0.6330   23.9560  -28.1260 C   0  0  0  0  0  0  0  0  0  0  0  0
    0.0750   24.9260  -27.2190 C   0  0  0  0  0  0  0  0  0  0  0  0
   -1.6580   24.4030  -28.9730 C   0  0  0  0  0  0  0  0  0  0  0  0
   -1.9880   25.7550  -28.9660 O   0  0  0  0  0  0  0  0  0  0  0  0
   -2.3430   23.4920  -29.8130 C   0  0  0  0  0  0  0  0  0  0  0  0
   -3.3770   23.9200  -30.6800 C   0  0  0  0  0  0  0  0  0  0  0  0
   -3.7510   25.2590  -30.7490 O   0  0  0  0  0  0  0  0  0  0  0  0
   -4.0640   23.0050  -31.4870 C   0  0  0  0  0  0  0  0  0  0  0  0
   -5.1050   23.4900  -32.2790 O   0  0  0  0  0  0  0  0  0  0  0  0
   -5.1509   16.7902  -33.0952 H   0  0  0  0  0  0  0  0  0  0  0  0
   -6.8354   16.7701  -33.7188 H   0  0  0  0  0  0  0  0  0  0  0  0
   -5.8959   18.3011  -33.7188 H   0  0  0  0  0  0  0  0  0  0  0  0
   -6.4076   17.3646  -29.6843 H   0  0  0  0  0  0  0  0  0  0  0  0
   -6.5402   15.8631  -30.6613 H   0  0  0  0  0  0  0  0  0  0  0  0
   -5.0090   16.8023  -30.6613 H   0  0  0  0  0  0  0  0  0  0  0  0
   -7.8176   18.8152  -30.5209 H   0  0  0  0  0  0  0  0  0  0  0  0
   -7.7626   19.2300  -33.6017 H   0  0  0  0  0  0  0  0  0  0  0  0
   -9.2430   19.3792  -32.5355 H   0  0  0  0  0  0  0  0  0  0  0  0
  -10.6940   20.7360  -32.4150 H   0  0  0  0  0  0  0  0  0  0  0  0
   -9.5642   23.8630  -31.4732 H   0  0  0  0  0  0  0  0  0  0  0  0
   -7.2918   24.8234  -31.7530 H   0  0  0  0  0  0  0  0  0  0  0  0
   -2.3946   20.1541  -30.6252 H   0  0  0  0  0  0  0  0  0  0  0  0
   -0.4051   19.7915  -29.7882 H   0  0  0  0  0  0  0  0  0  0  0  0
    0.3801   20.1527  -28.2035 H   0  0  0  0  0  0  0  0  0  0  0  0
   -2.1170   18.6116  -28.6205 H   0  0  0  0  0  0  0  0  0  0  0  0
   -3.0698   18.8496  -25.1002 H   0  0  0  0  0  0  0  0  0  0  0  0
   -4.0972   19.1999  -26.5314 H   0  0  0  0  0  0  0  0  0  0  0  0
   -3.0162   17.7654  -26.5314 H   0  0  0  0  0  0  0  0  0  0  0  0
   -1.5170   20.3986  -24.8476 H   0  0  0  0  0  0  0  0  0  0  0  0
   -0.2630   20.6660  -26.1057 H   0  0  0  0  0  0  0  0  0  0  0  0
   -1.7610   21.6573  -26.1057 H   0  0  0  0  0  0  0  0  0  0  0  0
    0.5093   22.2606  -27.4296 H   0  0  0  0  0  0  0  0  0  0  0  0
   -0.1210   24.6575  -26.1704 H   0  0  0  0  0  0  0  0  0  0  0  0
    1.1572   24.8853  -27.4118 H   0  0  0  0  0  0  0  0  0  0  0  0
   -0.2937   25.9443  -27.4118 H   0  0  0  0  0  0  0  0  0  0  0  0
  1  2  1  0
  2  3  1  0
  2  4  2  3
  4  5  1  0
  5  6  1  0
  6  7  2  0
  7  8  1  0
  7  9  1  0
  9 10  2  0
 10 11  1  0
 11 12  2  0
 12 13  1  0
 13 14  2  0
 13 15  1  0
 15 16  1  0
 16 17  2  0
 17 18  1  0
 18 19  2  0
 19 20  1  0
 20 21  1  0
 21 22  2  3
 22 23  1  0
 22 24  1  0
 19 25  1  0
 25 26  2  0
 26 27  1  0
 26 28  1  0
 28 29  1  0
 28 30  2  0
 30 31  1  0
 31 32  1  0
 31 33  2  0
 33 34  1  0
 12  6  1  0
 33 16  1  0
 34 11  1  0
 30 18  1  0
  1 35  1  0
  1 36  1  0
  1 37  1  0
  3 38  1  0
  3 39  1  0
  3 40  1  0
  4 41  1  0
  5 42  1  0
  5 43  1  0
  8 44  1  0
  9 45  1  0
 10 46  1  0
 17 47  1  0
 20 48  1  0
 20 49  1  0
 21 50  1  0
 23 51  1  0
 23 52  1  0
 23 53  1  0
 24 54  1  0
 24 55  1  0
 24 56  1  0
 25 57  1  0
 27 58  1  0
 27 59  1  0
 27 60  1  0
M  CHG  2  29  -1  32  -1
M  END
>  <UniqueID>  (15) 
14

>  <SMILES>  (15) 
CC(C)=CCc1c(O)ccc2c1C(=O)Oc1cc3c(CC=C(C)C)cc(C)c([O-])c3c([O-])c1O2

>  <Energy>  (15) 
95.97039926585087

>  <Genealogy>  (15) 
CC(C)=CCc1c(O)ccc2c1C(=O)Oc1cc3c(CC=C(C)C)cc(C)c([O-])c3c([O-])c1O2 (protonated)
CC(C)=CCc1c(O)ccc2c1C(=O)Oc1cc3c(CC=C(C)C)cc(C)c([O-])c3c([O-])c1O2 (3D coordinates assigned)
CC(C)=CCc1c(O)ccc2c1C(=O)Oc1cc3c(CC=C(C)C)cc(C)c([O-])c3c([O-])c1O2 (nonaromatic ring conformer: 95.97039926585087 kcal/mol)

>  <smiles>  (15) 
CC(C)=CCc1c(O)ccc2c1C(=O)Oc1cc3c(CC=C(C)C)cc(C)c(O)c3c(O)c1O2

>  <score_type>  (15) 
oracle

>  <origin>  (15) 
adgpu

>  <m_score__min__energy>  (15) 
-16.469999999999999

>  <m_primary>  (15) 
energy

$$$$
15:0
     RDKit          3D

 38 40  0  0  0  0  0  0  0  0999 V2000
   -2.0770   20.8580  -27.7950 C   0  0  0  0  0  0  0  0  0  0  0  0
   -1.8760   22.2950  -28.1760 C   0  0  0  0  0  0  0  0  0  0  0  0
   -0.7440   22.9920  -27.7310 C   0  0  0  0  0  0  0  0  0  0  0  0
   -0.5390   24.3190  -28.1170 C   0  0  0  0  0  0  0  0  0  0  0  0
   -1.4520   24.9540  -28.9640 C   0  0  0  0  0  0  0  0  0  0  0  0
   -1.2320   26.2740  -29.3430 O   0  0  0  0  0  0  0  0  0  0  0  0
   -2.5790   24.2630  -29.4360 C   0  0  0  0  0  0  0  0  0  0  0  0
   -3.4820   24.9380  -30.3230 N   0  0  0  0  0  0  0  0  0  0  0  0
   -5.1780   24.6040  -30.4720 S   0  0  0  0  0  0  0  0  0  0  0  0
   -5.8290   25.7090  -31.2550 O   0  0  0  0  0  0  0  0  0  0  0  0
   -5.7870   24.5470  -29.0990 O   0  0  0  0  0  0  0  0  0  0  0  0
   -5.4240   23.0810  -31.3210 C   0  0  0  0  0  0  0  0  0  0  0  0
   -4.3810   22.5070  -32.0560 C   0  0  0  0  0  0  0  0  0  0  0  0
   -4.5820   21.3060  -32.7410 C   0  0  0  0  0  0  0  0  0  0  0  0
   -5.8260   20.6610  -32.6930 C   0  0  0  0  0  0  0  0  0  0  0  0
   -6.8870   21.2480  -31.9720 C   0  0  0  0  0  0  0  0  0  0  0  0
   -6.6700   22.4430  -31.2710 C   0  0  0  0  0  0  0  0  0  0  0  0
   -8.2240   20.5530  -31.8620 C   0  0  0  0  0  0  0  0  0  0  0  0
   -8.4430   19.5900  -32.9510 N   0  0  0  0  0  0  0  0  0  0  0  0
   -7.3110   18.6620  -33.0610 C   0  0  0  0  0  0  0  0  0  0  0  0
   -6.0370   19.4000  -33.4900 C   0  0  0  0  0  0  0  0  0  0  0  0
   -2.7850   22.9290  -29.0360 C   0  0  0  0  0  0  0  0  0  0  0  0
   -2.0896   20.7676  -26.6988 H   0  0  0  0  0  0  0  0  0  0  0  0
   -3.0339   20.5008  -28.2034 H   0  0  0  0  0  0  0  0  0  0  0  0
   -1.2549   20.2519  -28.2034 H   0  0  0  0  0  0  0  0  0  0  0  0
   -0.0150   22.4926  -27.0759 H   0  0  0  0  0  0  0  0  0  0  0  0
    0.3435   24.8658  -27.7533 H   0  0  0  0  0  0  0  0  0  0  0  0
   -3.3998   23.0028  -32.0947 H   0  0  0  0  0  0  0  0  0  0  0  0
   -3.7591   20.8637  -33.3216 H   0  0  0  0  0  0  0  0  0  0  0  0
   -7.4848   22.8829  -30.6771 H   0  0  0  0  0  0  0  0  0  0  0  0
   -8.2664   20.0174  -30.9022 H   0  0  0  0  0  0  0  0  0  0  0  0
   -9.0090   21.3207  -31.9284 H   0  0  0  0  0  0  0  0  0  0  0  0
   -8.5460   20.1130  -33.8520 H   0  0  0  0  0  0  0  0  0  0  0  0
   -7.1396   18.1858  -32.0843 H   0  0  0  0  0  0  0  0  0  0  0  0
   -7.5508   17.9043  -33.8215 H   0  0  0  0  0  0  0  0  0  0  0  0
   -5.1732   18.7356  -33.3406 H   0  0  0  0  0  0  0  0  0  0  0  0
   -6.1431   19.6783  -34.5489 H   0  0  0  0  0  0  0  0  0  0  0  0
   -3.6655   22.3796  -29.4006 H   0  0  0  0  0  0  0  0  0  0  0  0
  1  2  1  0
  2  3  2  0
  3  4  1  0
  4  5  2  0
  5  6  1  0
  5  7  1  0
  7  8  1  0
  8  9  1  0
  9 10  2  0
  9 11  2  0
  9 12  1  0
 12 13  2  0
 13 14  1  0
 14 15  2  0
 15 16  1  0
 16 17  2  0
 16 18  1  0
 18 19  1  0
 19 20  1  0
 20 21  1  0
  7 22  2  0
 22  2  1  0
 17 12  1  0
 21 15  1  0
  1 23  1  0
  1 24  1  0
  1 25  1  0
  3 26  1  0
  4 27  1  0
 13 28  1  0
 14 29  1  0
 17 30  1  0
 18 31  1  0
 18 32  1  0
 19 33  1  0
 20 34  1  0
 20 35  1  0
 21 36  1  0
 21 37  1  0
 22 38  1  0
M  CHG  2   6  -1   8  -1
M  END
>  <UniqueID>  (16) 
15

>  <SMILES>  (16) 
Cc1ccc([O-])c([N-]S(=O)(=O)c2ccc3c(c2)CNCC3)c1

>  <Energy>  (16) 
43.590694107295114

>  <Genealogy>  (16) 
Cc1ccc([O-])c([N-]S(=O)(=O)c2ccc3c(c2)CNCC3)c1 (protonated)
Cc1ccc([O-])c([N-]S(=O)(=O)c2ccc3c(c2)CNCC3)c1 (3D coordinates assigned)
Cc1ccc([O-])c([N-]S(=O)(=O)c2ccc3c(c2)CNCC3)c1 (nonaromatic ring conformer: 43.590694107295114 kcal/mol)

>  <smiles>  (16) 
Cc1ccc(O)c(NS(=O)(=O)c2ccc3c(c2)CNCC3)c1

>  <score_type>  (16) 
oracle

>  <origin>  (16) 
adgpu

>  <m_score__min__energy>  (16) 
-13.85

>  <m_primary>  (16) 
energy

$$$$
16:0
     RDKit          3D

 50 53  0  0  0  0  0  0  0  0999 V2000
   -7.3020   17.4790  -31.7180 C   0  0  0  0  0  0  0  0  0  0  0  0
   -8.6940   18.0960  -31.8230 C   0  0  0  0  0  0  0  0  0  0  0  0
   -8.6710   19.3880  -32.5860 C   0  0  0  0  0  0  0  0  0  0  0  0
   -9.7400   19.8290  -33.0850 O   0  0  0  0  0  0  0  0  0  0  0  0
   -7.4630   20.1500  -32.7350 N   0  0  0  0  0  0  0  0  0  0  0  0
   -6.3280   19.6940  -33.5350 C   0  0  0  0  0  0  0  0  0  0  0  0
   -5.2530   20.7990  -33.4180 C   0  0  0  0  0  0  0  0  0  0  0  0
   -5.8560   21.7650  -32.4570 C   0  0  0  0  0  0  0  0  0  0  0  0
   -5.2800   22.9200  -31.9330 C   0  0  0  0  0  0  0  0  0  0  0  0
   -6.0160   23.6930  -31.0120 C   0  0  0  0  0  0  0  0  0  0  0  0
   -5.2990   25.1390  -30.2990 S   0  0  0  0  0  0  0  0  0  0  0  0
   -5.7940   25.3400  -28.8930 O   0  0  0  0  0  0  0  0  0  0  0  0
   -5.7020   26.3370  -31.1130 O   0  0  0  0  0  0  0  0  0  0  0  0
   -3.5650   25.0090  -30.3360 N   0  0  0  0  0  0  0  0  0  0  0  0
   -2.7750   24.2370  -29.4190 C   0  0  0  0  0  0  0  0  0  0  0  0
   -3.1750   22.9590  -29.0030 C   0  0  0  0  0  0  0  0  0  0  0  0
   -2.3750   22.2030  -28.1330 C   0  0  0  0  0  0  0  0  0  0  0  0
   -1.1790   22.7510  -27.6320 C   0  0  0  0  0  0  0  0  0  0  0  0
   -0.7890   24.0300  -28.0330 C   0  0  0  0  0  0  0  0  0  0  0  0
   -1.5830   24.7790  -28.9080 C   0  0  0  0  0  0  0  0  0  0  0  0
   -1.1610   26.0570  -29.2670 O   0  0  0  0  0  0  0  0  0  0  0  0
   -0.2540   21.9300  -26.7640 C   0  0  0  0  0  0  0  0  0  0  0  0
   -0.9600   20.8330  -26.0870 N   0  0  0  0  0  0  0  0  0  0  0  0
   -1.7310   20.0350  -27.0490 C   0  0  0  0  0  0  0  0  0  0  0  0
   -2.8650   20.8620  -27.6630 C   0  0  0  0  0  0  0  0  0  0  0  0
   -7.3040   23.2750  -30.6280 C   0  0  0  0  0  0  0  0  0  0  0  0
   -7.8520   22.0960  -31.1530 C   0  0  0  0  0  0  0  0  0  0  0  0
   -7.1120   21.3690  -32.0940 C   0  0  0  0  0  0  0  0  0  0  0  0
   -7.0328   17.3597  -30.6581 H   0  0  0  0  0  0  0  0  0  0  0  0
   -7.2989   16.4952  -32.2101 H   0  0  0  0  0  0  0  0  0  0  0  0
   -6.5710   18.1374  -32.2101 H   0  0  0  0  0  0  0  0  0  0  0  0
   -9.3597   17.3887  -32.3393 H   0  0  0  0  0  0  0  0  0  0  0  0
   -9.0548   18.3047  -30.8050 H   0  0  0  0  0  0  0  0  0  0  0  0
   -5.9417   18.7418  -33.1425 H   0  0  0  0  0  0  0  0  0  0  0  0
   -6.6166   19.5218  -34.5824 H   0  0  0  0  0  0  0  0  0  0  0  0
   -4.3096   20.3908  -33.0264 H   0  0  0  0  0  0  0  0  0  0  0  0
   -4.9995   21.2566  -34.3857 H   0  0  0  0  0  0  0  0  0  0  0  0
   -4.2664   23.2243  -32.2332 H   0  0  0  0  0  0  0  0  0  0  0  0
   -4.1279   22.5440  -29.3633 H   0  0  0  0  0  0  0  0  0  0  0  0
    0.1537   24.4539  -27.6566 H   0  0  0  0  0  0  0  0  0  0  0  0
   -1.2520   26.4200  -30.2090 H   0  0  0  0  0  0  0  0  0  0  0  0
    0.5402   21.5046  -27.3952 H   0  0  0  0  0  0  0  0  0  0  0  0
    0.1625   22.5928  -25.9912 H   0  0  0  0  0  0  0  0  0  0  0  0
   -1.6140   21.2420  -25.3760 H   0  0  0  0  0  0  0  0  0  0  0  0
   -1.0608   19.6920  -27.8510 H   0  0  0  0  0  0  0  0  0  0  0  0
   -2.1698   19.1760  -26.5203 H   0  0  0  0  0  0  0  0  0  0  0  0
   -3.2840   20.3139  -28.5198 H   0  0  0  0  0  0  0  0  0  0  0  0
   -3.6312   21.0251  -26.8907 H   0  0  0  0  0  0  0  0  0  0  0  0
   -7.8837   23.8764  -29.9123 H   0  0  0  0  0  0  0  0  0  0  0  0
   -8.8449   21.7484  -30.8317 H   0  0  0  0  0  0  0  0  0  0  0  0
  1  2  1  0
  2  3  1  0
  3  4  2  0
  3  5  1  0
  5  6  1  0
  6  7  1  0
  7  8  1  0
  8  9  2  0
  9 10  1  0
 10 11  1  0
 11 12  2  0
 11 13  2  0
 11 14  1  0
 14 15  1  0
 15 16  2  0
 16 17  1  0
 17 18  2  0
 18 19  1  0
 19 20  2  0
 20 21  1  0
 18 22  1  0
 22 23  1  0
 23 24  1  0
 24 25  1  0
 10 26  2  0
 26 27  1  0
 27 28  2  0
 28  5  1  0
 28  8  1  0
 20 15  1  0
 25 17  1  0
  1 29  1  0
  1 30  1  0
  1 31  1  0
  2 32  1  0
  2 33  1  0
  6 34  1  0
  6 35  1  0
  7 36  1  0
  7 37  1  0
  9 38  1  0
 16 39  1  0
 19 40  1  0
 21 41  1  0
 22 42  1  0
 22 43  1  0
 23 44  1  0
 24 45  1  0
 24 46  1  0
 25 47  1  0
 25 48  1  0
 26 49  1  0
 27 50  1  0
M  CHG  1  14  -1
M  END
>  <UniqueID>  (17) 
16

>  <SMILES>  (17) 
CCC(=O)N1CCc2cc(S(=O)(=O)[N-]c3cc4c(cc3O)CNCC4)ccc21

>  <Energy>  (17) 
75.42453997899773

>  <Genealogy>  (17) 
CCC(=O)N1CCc2cc(S(=O)(=O)[N-]c3cc4c(cc3O)CNCC4)ccc21 (protonated)
CCC(=O)N1CCc2cc(S(=O)(=O)[N-]c3cc4c(cc3O)CNCC4)ccc21 (3D coordinates assigned)
CCC(=O)N1CCc2cc(S(=O)(=O)[N-]c3cc4c(cc3O)CNCC4)ccc21 (nonaromatic ring conformer: 75.42453997899773 kcal/mol)

>  <smiles>  (17) 
CCC(=O)N1CCc2cc(S(=O)(=O)Nc3cc4c(cc3O)CNCC4)ccc21

>  <score_type>  (17) 
oracle

>  <origin>  (17) 
adgpu

>  <m_score__min__energy>  (17) 
-12.949999999999999

>  <m_primary>  (17) 
energy

$$$$
17:0
     RDKit          3D

 56 60  0  0  0  0  0  0  0  0999 V2000
    4.7375   25.2119  -23.4691 H   0  0  0  0  0  0  0  0  0  0  0  0
    4.2240   24.9430  -24.4040 C   0  0  0  0  0  0  0  0  0  0  0  0
    4.7600   24.2200  -25.4030 N   0  0  0  0  0  0  0  0  0  0  0  0
    3.8560   24.0950  -26.3620 N   0  0  0  0  0  0  0  0  0  0  0  0
    2.7350   24.7390  -25.9830 C   0  0  0  0  0  0  0  0  0  0  0  0
    1.5040   24.8100  -26.8110 C   0  0  0  0  0  0  0  0  0  0  0  0
    0.8110   26.0250  -26.9840 C   0  0  0  0  0  0  0  0  0  0  0  0
    1.1852   26.9393  -26.5003 H   0  0  0  0  0  0  0  0  0  0  0  0
   -0.3480   26.0790  -27.7650 C   0  0  0  0  0  0  0  0  0  0  0  0
   -0.8798   27.0333  -27.8934 H   0  0  0  0  0  0  0  0  0  0  0  0
   -0.8310   24.9230  -28.3820 C   0  0  0  0  0  0  0  0  0  0  0  0
   -1.9570   24.9700  -29.1400 N   0  0  0  0  0  0  0  0  0  0  0  0
   -2.4480   23.8550  -29.7440 C   0  0  0  0  0  0  0  0  0  0  0  0
   -3.5170   23.9520  -30.4790 N   0  0  0  0  0  0  0  0  0  0  0  0
   -4.2050   22.8790  -31.1480 C   0  0  0  0  0  0  0  0  0  0  0  0
   -5.5890   22.6830  -30.9890 C   0  0  0  0  0  0  0  0  0  0  0  0
   -6.1606   23.3395  -30.3165 H   0  0  0  0  0  0  0  0  0  0  0  0
   -6.2410   21.6600  -31.6800 C   0  0  0  0  0  0  0  0  0  0  0  0
   -7.3189   21.5002  -31.5296 H   0  0  0  0  0  0  0  0  0  0  0  0
   -5.5320   20.8350  -32.5640 C   0  0  0  0  0  0  0  0  0  0  0  0
   -6.2310   19.7520  -33.2900 C   0  0  0  0  0  0  0  0  0  0  0  0
   -6.8810   20.0330  -34.3330 O   0  0  0  0  0  0  0  0  0  0  0  0
   -6.1660   18.3840  -32.8410 N   0  0  0  0  0  0  0  0  0  0  0  0
   -4.9050   17.8300  -32.3320 C   0  0  0  0  0  0  0  0  0  0  0  0
   -4.0642   18.3022  -32.8612 H   0  0  0  0  0  0  0  0  0  0  0  0
   -4.8412   18.0331  -31.2528 H   0  0  0  0  0  0  0  0  0  0  0  0
   -4.8480   16.3090  -32.5510 C   0  0  0  0  0  0  0  0  0  0  0  0
   -3.7981   15.9828  -32.5137 H   0  0  0  0  0  0  0  0  0  0  0  0
   -5.4398   15.8267  -31.7590 H   0  0  0  0  0  0  0  0  0  0  0  0
   -5.4240   15.9210  -33.8570 N   0  0  0  0  0  0  0  0  0  0  0  0
   -4.5890   16.3780  -34.9810 C   0  0  0  0  0  0  0  0  0  0  0  0
   -3.6869   16.8717  -34.5906 H   0  0  0  0  0  0  0  0  0  0  0  0
   -4.2971   15.5139  -35.5959 H   0  0  0  0  0  0  0  0  0  0  0  0
   -5.1595   17.0896  -35.5959 H   0  0  0  0  0  0  0  0  0  0  0  0
   -6.8450   16.3270  -34.0220 C   0  0  0  0  0  0  0  0  0  0  0  0
   -6.9921   16.6574  -35.0609 H   0  0  0  0  0  0  0  0  0  0  0  0
   -7.4585   15.4507  -33.7657 H   0  0  0  0  0  0  0  0  0  0  0  0
   -7.2830   17.4680  -33.0840 C   0  0  0  0  0  0  0  0  0  0  0  0
   -8.1119   18.0219  -33.5489 H   0  0  0  0  0  0  0  0  0  0  0  0
   -7.6079   17.0379  -32.1251 H   0  0  0  0  0  0  0  0  0  0  0  0
   -4.1530   21.0360  -32.7320 C   0  0  0  0  0  0  0  0  0  0  0  0
   -3.5864   20.3818  -33.4109 H   0  0  0  0  0  0  0  0  0  0  0  0
   -3.4870   22.0670  -32.0400 C   0  0  0  0  0  0  0  0  0  0  0  0
   -2.1130   22.3050  -32.2030 O   0  0  0  0  0  0  0  0  0  0  0  0
   -1.1360   21.2890  -32.4060 C   0  0  0  0  0  0  0  0  0  0  0  0
   -0.7820   20.9208  -31.4318 H   0  0  0  0  0  0  0  0  0  0  0  0
   -1.5831   20.4581  -32.9715 H   0  0  0  0  0  0  0  0  0  0  0  0
   -0.2883   21.7032  -32.9715 H   0  0  0  0  0  0  0  0  0  0  0  0
   -1.7900   22.6690  -29.6050 N   0  0  0  0  0  0  0  0  0  0  0  0
   -0.6610   22.5700  -28.8570 C   0  0  0  0  0  0  0  0  0  0  0  0
   -0.1516   21.6007  -28.7526 H   0  0  0  0  0  0  0  0  0  0  0  0
   -0.1480   23.7040  -28.2200 C   0  0  0  0  0  0  0  0  0  0  0  0
    1.0140   23.6490  -27.4370 C   0  0  0  0  0  0  0  0  0  0  0  0
    1.5449   22.6938  -27.3116 H   0  0  0  0  0  0  0  0  0  0  0  0
    2.9340   25.2950  -24.7310 C   0  0  0  0  0  0  0  0  0  0  0  0
    2.2229   25.8842  -24.1333 H   0  0  0  0  0  0  0  0  0  0  0  0
  1  2  1  0
  2  3  1  0
  3  4  1  0
  4  5  2  0
  5  6  1  0
  6  7  1  0
  7  8  1  0
  7  9  2  0
  9 10  1  0
  9 11  1  0
 11 12  2  0
 12 13  1  0
 13 14  2  0
 14 15  1  0
 15 16  2  0
 16 17  1  0
 16 18  1  0
 18 19  1  0
 18 20  2  0
 20 21  1  0
 21 22  2  0
 21 23  1  0
 23 24  1  0
 24 25  1  0
 24 26  1  0
 24 27  1  0
 27 28  1  0
 27 29  1  0
 27 30  1  0
 30 31  1  0
 31 32  1  0
 31 33  1  0
 31 34  1  0
 30 35  1  0
 35 36  1  0
 35 37  1  0
 35 38  1  0
 38 39  1  0
 38 40  1  0
 20 41  1  0
 41 42  1  0
 41 43  2  0
 43 44  1  0
 44 45  1  0
 45 46  1  0
 45 47  1  0
 45 48  1  0
 13 49  1  0
 49 50  1  0
 50 51  1  0
 50 52  2  0
 52 53  1  0
 53 54  1  0
  5 55  1  0
 55 56  1  0
 55  2  2  0
 53  6  2  0
 52 11  1  0
 43 15  1  0
 38 23  1  0
M  CHG  2   3  -1  49  -1
M  END
>  <UniqueID>  (18) 
17

>  <SMILES>  (18) 
COc1cc(C(=O)N2CCN(C)CC2)ccc1/N=c1/nc2ccc(-c3cc[n-]n3)cc2c[n-]1

>  <Energy>  (18) 
114.34449463904026

>  <Genealogy>  (18) 
COc1cc(C(=O)N2CCN(C)CC2)ccc1N=c1nc2ccc(-c3cc[n-]n3)cc2c[n-]1 (protonated)
COc1cc(C(=O)N2CCN(C)CC2)ccc1/N=c1/nc2ccc(-c3cc[n-]n3)cc2c[n-]1 (cis-trans isomerization)
COc1cc(C(=O)N2CCN(C)CC2)ccc1/N=c1/nc2ccc(-c3cc[n-]n3)cc2c[n-]1 (3D coordinates assigned)
COc1cc(C(=O)N2CCN(C)CC2)ccc1/N=c1/nc2ccc(-c3cc[n-]n3)cc2c[n-]1 (nonaromatic ring conformer: 114.34449463904026 kcal/mol)

>  <smiles>  (18) 
COc1cc(C(=O)N2CCN(C)CC2)ccc1N=c1nc2ccc(-c3cc[nH]n3)cc2c[nH]1

>  <score_type>  (18) 
oracle

>  <origin>  (18) 
adgpu

>  <m_score__min__energy>  (18) 
-11.31

>  <m_primary>  (18) 
energy

$$$$
18:0
     RDKit          3D

 59 62  0  0  0  0  0  0  0  0999 V2000
   -9.0880   20.2690  -32.1080 C   0  0  0  0  0  0  0  0  0  0  0  0
   -7.8410   20.6930  -32.6460 O   0  0  0  0  0  0  0  0  0  0  0  0
   -7.1140   21.8070  -32.1990 C   0  0  0  0  0  0  0  0  0  0  0  0
   -7.7570   22.9670  -31.7300 C   0  0  0  0  0  0  0  0  0  0  0  0
   -7.0120   24.0620  -31.2850 C   0  0  0  0  0  0  0  0  0  0  0  0
   -5.6110   24.0220  -31.2990 C   0  0  0  0  0  0  0  0  0  0  0  0
   -4.8300   25.1890  -30.8210 C   0  0  0  0  0  0  0  0  0  0  0  0
   -5.3630   26.3300  -30.8210 O   0  0  0  0  0  0  0  0  0  0  0  0
   -3.4980   25.0560  -30.3060 N   0  0  0  0  0  0  0  0  0  0  0  0
   -3.0090   23.9900  -29.4790 C   0  0  0  0  0  0  0  0  0  0  0  0
   -3.7890   23.5570  -28.4010 C   0  0  0  0  0  0  0  0  0  0  0  0
   -3.3420   22.5220  -27.5740 C   0  0  0  0  0  0  0  0  0  0  0  0
   -2.0960   21.9220  -27.8040 C   0  0  0  0  0  0  0  0  0  0  0  0
   -1.5370   20.6040  -26.7690 S   0  0  0  0  0  0  0  0  0  0  0  0
   -0.9880   21.1820  -25.4950 O   0  0  0  0  0  0  0  0  0  0  0  0
   -2.7080   19.7300  -26.4160 O   0  0  0  0  0  0  0  0  0  0  0  0
   -0.3030   19.6220  -27.5230 N   0  0  0  0  0  0  0  0  0  0  0  0
   -0.7560   19.0480  -28.7890 C   0  0  0  0  0  0  0  0  0  0  0  0
    0.4950   18.7880  -29.6130 C   0  0  0  0  0  0  0  0  0  0  0  0
    1.5710   19.6740  -29.0030 C   0  0  0  0  0  0  0  0  0  0  0  0
    0.8920   20.3960  -27.8490 C   0  0  0  0  0  0  0  0  0  0  0  0
   -1.3060   22.3650  -28.8740 C   0  0  0  0  0  0  0  0  0  0  0  0
   -1.7530   23.4000  -29.7000 C   0  0  0  0  0  0  0  0  0  0  0  0
   -4.9680   22.8550  -31.7410 C   0  0  0  0  0  0  0  0  0  0  0  0
   -5.7060   21.7610  -32.2140 C   0  0  0  0  0  0  0  0  0  0  0  0
   -4.8340   20.3290  -32.7760 S   0  0  0  0  0  0  0  0  0  0  0  0
   -4.1150   19.7070  -31.6120 O   0  0  0  0  0  0  0  0  0  0  0  0
   -3.8110   20.7100  -33.8110 O   0  0  0  0  0  0  0  0  0  0  0  0
   -5.9720   19.1770  -33.4290 N   0  0  0  0  0  0  0  0  0  0  0  0
   -5.3940   18.4270  -34.5420 C   0  0  0  0  0  0  0  0  0  0  0  0
   -6.1390   17.1040  -34.5970 C   0  0  0  0  0  0  0  0  0  0  0  0
   -6.7220   16.9150  -33.2060 C   0  0  0  0  0  0  0  0  0  0  0  0
   -6.3440   18.1720  -32.4340 C   0  0  0  0  0  0  0  0  0  0  0  0
   -9.0381   20.2860  -31.0093 H   0  0  0  0  0  0  0  0  0  0  0  0
   -9.8841   20.9469  -32.4494 H   0  0  0  0  0  0  0  0  0  0  0  0
   -9.3059   19.2463  -32.4494 H   0  0  0  0  0  0  0  0  0  0  0  0
   -8.8559   23.0123  -31.7135 H   0  0  0  0  0  0  0  0  0  0  0  0
   -7.5288   24.9622  -30.9209 H   0  0  0  0  0  0  0  0  0  0  0  0
   -4.7602   24.0340  -28.2029 H   0  0  0  0  0  0  0  0  0  0  0  0
   -3.9704   22.1772  -26.7396 H   0  0  0  0  0  0  0  0  0  0  0  0
   -1.2955   18.1065  -28.6087 H   0  0  0  0  0  0  0  0  0  0  0  0
   -1.4445   19.7280  -29.3121 H   0  0  0  0  0  0  0  0  0  0  0  0
    0.7857   17.7291  -29.5480 H   0  0  0  0  0  0  0  0  0  0  0  0
    0.3369   19.0106  -30.6786 H   0  0  0  0  0  0  0  0  0  0  0  0
    2.4094   19.0640  -28.6356 H   0  0  0  0  0  0  0  0  0  0  0  0
    1.9872   20.3782  -29.7385 H   0  0  0  0  0  0  0  0  0  0  0  0
    1.5648   20.4408  -26.9799 H   0  0  0  0  0  0  0  0  0  0  0  0
    0.6347   21.4300  -28.1222 H   0  0  0  0  0  0  0  0  0  0  0  0
   -0.3295   21.8957  -29.0644 H   0  0  0  0  0  0  0  0  0  0  0  0
   -1.1191   23.7541  -30.5263 H   0  0  0  0  0  0  0  0  0  0  0  0
   -3.8698   22.7982  -31.7158 H   0  0  0  0  0  0  0  0  0  0  0  0
   -5.5282   18.9792  -35.4839 H   0  0  0  0  0  0  0  0  0  0  0  0
   -4.3140   18.2722  -34.4019 H   0  0  0  0  0  0  0  0  0  0  0  0
   -6.9409   17.1442  -35.3489 H   0  0  0  0  0  0  0  0  0  0  0  0
   -5.4779   16.2721  -34.8815 H   0  0  0  0  0  0  0  0  0  0  0  0
   -7.8157   16.8099  -33.2583 H   0  0  0  0  0  0  0  0  0  0  0  0
   -6.3363   16.0061  -32.7212 H   0  0  0  0  0  0  0  0  0  0  0  0
   -7.2001   18.5246  -31.8401 H   0  0  0  0  0  0  0  0  0  0  0  0
   -5.5146   17.9762  -31.7385 H   0  0  0  0  0  0  0  0  0  0  0  0
  1  2  1  0
  2  3  1  0
  3  4  2  0
  4  5  1  0
  5  6  2  0
  6  7  1  0
  7  8  2  0
  7  9  1  0
  9 10  1  0
 10 11  2  0
 11 12  1  0
 12 13  2  0
 13 14  1  0
 14 15  2  0
 14 16  2  0
 14 17  1  0
 17 18  1  0
 18 19  1  0
 19 20  1  0
 20 21  1  0
 13 22  1  0
 22 23  2  0
  6 24  1  0
 24 25  2  0
 25 26  1  0
 26 27  2  0
 26 28  2  0
 26 29  1  0
 29 30  1  0
 30 31  1  0
 31 32  1  0
 32 33  1  0
 25  3  1  0
 33 29  1  0
 23 10  1  0
 21 17  1  0
  1 34  1  0
  1 35  1  0
  1 36  1  0
  4 37  1  0
  5 38  1  0
 11 39  1  0
 12 40  1  0
 18 41  1  0
 18 42  1  0
 19 43  1  0
 19 44  1  0
 20 45  1  0
 20 46  1  0
 21 47  1  0
 21 48  1  0
 22 49  1  0
 23 50  1  0
 24 51  1  0
 30 52  1  0
 30 53  1  0
 31 54  1  0
 31 55  1  0
 32 56  1  0
 32 57  1  0
 33 58  1  0
 33 59  1  0
M  CHG  1   9  -1
M  END
>  <UniqueID>  (19) 
18

>  <SMILES>  (19) 
COc1ccc(C(=O)[N-]c2ccc(S(=O)(=O)N3CCCC3)cc2)cc1S(=O)(=O)N1CCCC1

>  <Energy>  (19) 
68.73730125050257

>  <Genealogy>  (19) 
COc1ccc(C(=O)[N-]c2ccc(S(=O)(=O)N3CCCC3)cc2)cc1S(=O)(=O)N1CCCC1 (protonated)
COc1ccc(C(=O)[N-]c2ccc(S(=O)(=O)N3CCCC3)cc2)cc1S(=O)(=O)N1CCCC1 (3D coordinates assigned)
COc1ccc(C(=O)[N-]c2ccc(S(=O)(=O)N3CCCC3)cc2)cc1S(=O)(=O)N1CCCC1 (nonaromatic ring conformer: 68.73730125050257 kcal/mol)

>  <smiles>  (19) 
COc1ccc(C(=O)Nc2ccc(S(=O)(=O)N3CCCC3)cc2)cc1S(=O)(=O)N1CCCC1

>  <score_type>  (19) 
oracle

>  <origin>  (19) 
adgpu

>  <m_score__min__energy>  (19) 
-12.1

>  <m_primary>  (19) 
energy

$$$$
19:0
     RDKit          3D

 55 59  0  0  0  0  0  0  0  0999 V2000
   -0.9162   24.4155  -29.9750 H   0  0  0  0  0  0  0  0  0  0  0  0
   -1.5070   24.5360  -29.0550 C   0  0  0  0  0  0  0  0  0  0  0  0
   -2.8060   24.2140  -29.0770 C   0  0  0  0  0  0  0  0  0  0  0  0
   -3.3844   24.2985  -28.1452 H   0  0  0  0  0  0  0  0  0  0  0  0
   -3.4960   23.7510  -30.2950 C   0  0  0  0  0  0  0  0  0  0  0  0
   -4.5270   24.4280  -30.8520 N   0  0  0  0  0  0  0  0  0  0  0  0
   -4.9550   23.7720  -31.9270 N   0  0  0  0  0  0  0  0  0  0  0  0
   -4.1970   22.6680  -32.0500 C   0  0  0  0  0  0  0  0  0  0  0  0
   -4.3070   21.6710  -33.0150 C   0  0  0  0  0  0  0  0  0  0  0  0
   -5.0547   21.7379  -33.8191 H   0  0  0  0  0  0  0  0  0  0  0  0
   -3.4280   20.5730  -32.9270 C   0  0  0  0  0  0  0  0  0  0  0  0
   -3.4710   19.2840  -34.1720 S   0  0  0  0  0  0  0  0  0  0  0  0
   -4.8200   18.4330  -33.3550 C   0  0  0  0  0  0  0  0  0  0  0  0
   -4.6230   17.1500  -32.8300 C   0  0  0  0  0  0  0  0  0  0  0  0
   -3.6570   16.6419  -32.9669 H   0  0  0  0  0  0  0  0  0  0  0  0
   -5.6540   16.5150  -32.1320 C   0  0  0  0  0  0  0  0  0  0  0  0
   -5.5057   15.4985  -31.7385 H   0  0  0  0  0  0  0  0  0  0  0  0
   -6.8730   17.1690  -31.9330 C   0  0  0  0  0  0  0  0  0  0  0  0
   -7.6791   16.6704  -31.3748 H   0  0  0  0  0  0  0  0  0  0  0  0
   -7.0700   18.4600  -32.4440 C   0  0  0  0  0  0  0  0  0  0  0  0
   -8.5400   19.3570  -32.0660 S   0  0  0  0  0  0  0  0  0  0  0  0
   -9.5860   19.0490  -33.1020 O   0  0  0  0  0  0  0  0  0  0  0  0
   -9.0630   18.9150  -30.7270 O   0  0  0  0  0  0  0  0  0  0  0  0
   -8.2430   21.0810  -32.0400 N   0  0  0  0  0  0  0  0  0  0  0  0
   -7.5850   21.2920  -32.8290 H   0  0  0  0  0  0  0  0  0  0  0  0
   -9.4980   21.8280  -32.2540 C   0  0  0  0  0  0  0  0  0  0  0  0
   -9.8288   21.6831  -33.2930 H   0  0  0  0  0  0  0  0  0  0  0  0
  -10.2530   21.4488  -31.5496 H   0  0  0  0  0  0  0  0  0  0  0  0
   -9.3020   23.3370  -31.9940 C   0  0  0  0  0  0  0  0  0  0  0  0
   -9.7261   23.9036  -32.8361 H   0  0  0  0  0  0  0  0  0  0  0  0
   -9.8116   23.5961  -31.0542 H   0  0  0  0  0  0  0  0  0  0  0  0
   -7.9320   23.6630  -31.8630 O   0  0  0  0  0  0  0  0  0  0  0  0
   -7.3960   23.0130  -30.7250 C   0  0  0  0  0  0  0  0  0  0  0  0
   -6.3162   23.2169  -30.6765 H   0  0  0  0  0  0  0  0  0  0  0  0
   -7.9173   23.4015  -29.8377 H   0  0  0  0  0  0  0  0  0  0  0  0
   -7.6120   21.4830  -30.7700 C   0  0  0  0  0  0  0  0  0  0  0  0
   -6.6392   20.9784  -30.6750 H   0  0  0  0  0  0  0  0  0  0  0  0
   -8.2747   21.1958  -29.9404 H   0  0  0  0  0  0  0  0  0  0  0  0
   -6.0510   19.0730  -33.1840 C   0  0  0  0  0  0  0  0  0  0  0  0
   -6.2202   20.0629  -33.6328 H   0  0  0  0  0  0  0  0  0  0  0  0
   -2.4950   20.4920  -31.8670 C   0  0  0  0  0  0  0  0  0  0  0  0
   -1.8242   19.6231  -31.7968 H   0  0  0  0  0  0  0  0  0  0  0  0
   -2.4170   21.5120  -30.9020 C   0  0  0  0  0  0  0  0  0  0  0  0
   -1.7057   21.4504  -30.0651 H   0  0  0  0  0  0  0  0  0  0  0  0
   -3.2740   22.6060  -31.0430 C   0  0  0  0  0  0  0  0  0  0  0  0
   -0.8370   25.0470  -27.8420 C   0  0  0  0  0  0  0  0  0  0  0  0
    0.5230   25.0930  -27.7620 N   0  0  0  0  0  0  0  0  0  0  0  0
    1.1660   25.5560  -26.6580 C   0  0  0  0  0  0  0  0  0  0  0  0
    2.2654   25.5810  -26.6317 H   0  0  0  0  0  0  0  0  0  0  0  0
    0.4310   26.0000  -25.5570 C   0  0  0  0  0  0  0  0  0  0  0  0
    0.9451   26.3724  -24.6587 H   0  0  0  0  0  0  0  0  0  0  0  0
   -0.9630   25.9660  -25.6090 C   0  0  0  0  0  0  0  0  0  0  0  0
   -1.5553   26.3139  -24.7498 H   0  0  0  0  0  0  0  0  0  0  0  0
   -1.6050   25.4890  -26.7550 C   0  0  0  0  0  0  0  0  0  0  0  0
   -2.7035   25.4605  -26.8040 H   0  0  0  0  0  0  0  0  0  0  0  0
  1  2  1  0
  2  3  2  0
  3  4  1  0
  3  5  1  0
  5  6  1  0
  6  7  1  0
  7  8  2  0
  8  9  1  0
  9 10  1  0
  9 11  2  0
 11 12  1  0
 12 13  1  0
 13 14  2  0
 14 15  1  0
 14 16  1  0
 16 17  1  0
 16 18  2  0
 18 19  1  0
 18 20  1  0
 20 21  1  0
 21 22  2  0
 21 23  2  0
 21 24  1  0
 24 25  1  0
 24 26  1  0
 26 27  1  0
 26 28  1  0
 26 29  1  0
 29 30  1  0
 29 31  1  0
 29 32  1  0
 32 33  1  0
 33 34  1  0
 33 35  1  0
 33 36  1  0
 36 37  1  0
 36 38  1  0
 20 39  2  0
 39 40  1  0
 11 41  1  0
 41 42  1  0
 41 43  2  0
 43 44  1  0
 43 45  1  0
  2 46  1  0
 46 47  2  0
 47 48  1  0
 48 49  1  0
 48 50  2  0
 50 51  1  0
 50 52  1  0
 52 53  1  0
 52 54  2  0
 54 55  1  0
 45  5  2  0
 54 46  1  0
 45  8  1  0
 39 13  1  0
 36 24  1  0
M  CHG  2   6  -1  24   1
M  END
>  <UniqueID>  (20) 
19

>  <SMILES>  (20) 
O=S(=O)(c1cccc(Sc2ccc3c(/C=C/c4ccccn4)[n-]nc3c2)c1)[NH+]1CCOCC1

>  <Energy>  (20) 
101.72821057940175

>  <Genealogy>  (20) 
O=S(=O)(c1cccc(Sc2ccc3c(C=Cc4ccccn4)[n-]nc3c2)c1)[NH+]1CCOCC1 (protonated)
O=S(=O)(c1cccc(Sc2ccc3c(/C=C/c4ccccn4)[n-]nc3c2)c1)[NH+]1CCOCC1 (cis-trans isomerization)
O=S(=O)(c1cccc(Sc2ccc3c(/C=C/c4ccccn4)[n-]nc3c2)c1)[NH+]1CCOCC1 (3D coordinates assigned)
O=S(=O)(c1cccc(Sc2ccc3c(/C=C/c4ccccn4)[n-]nc3c2)c1)[NH+]1CCOCC1 (nonaromatic ring conformer: 101.72821057940175 kcal/mol)

>  <smiles>  (20) 
O=S(=O)(c1cccc(Sc2ccc3c(C=Cc4ccccn4)[nH]nc3c2)c1)N1CCOCC1

>  <score_type>  (20) 
oracle

>  <origin>  (20) 
adgpu

>  <m_score__min__energy>  (20) 
-12.84

>  <m_primary>  (20) 
energy

$$$$
20:0
     RDKit          3D

 61 64  0  0  0  0  0  0  0  0999 V2000
    0.6890   17.2210  -31.7120 C   0  0  0  0  0  0  0  0  0  0  0  0
    0.6600   18.9840  -31.4710 S   0  0  0  0  0  0  0  0  0  0  0  0
    1.7960   19.6140  -32.2310 O   0  0  0  0  0  0  0  0  0  0  0  0
    0.8260   19.2960  -30.0100 O   0  0  0  0  0  0  0  0  0  0  0  0
   -0.8730   19.6280  -32.0490 C   0  0  0  0  0  0  0  0  0  0  0  0
   -1.9220   18.7590  -32.3760 C   0  0  0  0  0  0  0  0  0  0  0  0
   -3.1390   19.2710  -32.8380 C   0  0  0  0  0  0  0  0  0  0  0  0
   -3.3140   20.6560  -32.9890 C   0  0  0  0  0  0  0  0  0  0  0  0
   -4.6350   21.2170  -33.4440 C   0  0  0  0  0  0  0  0  0  0  0  0
   -5.2800   21.9320  -32.3380 N   0  0  0  0  0  0  0  0  0  0  0  0
   -4.6890   23.0400  -31.8770 N   0  0  0  0  0  0  0  0  0  0  0  0
   -5.1750   23.7370  -30.8160 C   0  0  0  0  0  0  0  0  0  0  0  0
   -4.4700   24.9540  -30.3800 C   0  0  0  0  0  0  0  0  0  0  0  0
   -5.0510   26.0650  -30.4980 O   0  0  0  0  0  0  0  0  0  0  0  0
   -3.1230   24.9350  -29.8920 N   0  0  0  0  0  0  0  0  0  0  0  0
   -2.3810   23.7490  -29.4840 C   0  0  0  0  0  0  0  0  0  0  0  0
   -1.8540   23.9450  -28.0840 C   0  0  0  0  0  0  0  0  0  0  0  0
   -2.3570   25.0200  -27.3300 C   0  0  0  0  0  0  0  0  0  0  0  0
   -1.9340   25.2290  -26.0180 C   0  0  0  0  0  0  0  0  0  0  0  0
   -1.0110   24.3640  -25.4350 C   0  0  0  0  0  0  0  0  0  0  0  0
   -0.5110   23.2820  -26.1590 C   0  0  0  0  0  0  0  0  0  0  0  0
   -0.9230   23.0530  -27.4830 C   0  0  0  0  0  0  0  0  0  0  0  0
   -0.2750   21.6420  -28.3430 S   0  0  0  0  0  0  0  0  0  0  0  0
    1.0640   21.2600  -27.7730 O   0  0  0  0  0  0  0  0  0  0  0  0
   -0.0920   21.9830  -29.7950 O   0  0  0  0  0  0  0  0  0  0  0  0
   -1.3860   20.3050  -28.1850 N   0  0  0  0  0  0  0  0  0  0  0  0
   -2.6470   20.7270  -27.5750 C   0  0  0  0  0  0  0  0  0  0  0  0
   -3.2290   19.4970  -26.8940 C   0  0  0  0  0  0  0  0  0  0  0  0
   -2.0610   18.5320  -26.7350 C   0  0  0  0  0  0  0  0  0  0  0  0
   -0.8550   19.2660  -27.3030 C   0  0  0  0  0  0  0  0  0  0  0  0
   -6.3530   23.3040  -30.2020 C   0  0  0  0  0  0  0  0  0  0  0  0
   -6.9720   22.1460  -30.6640 C   0  0  0  0  0  0  0  0  0  0  0  0
   -6.4150   21.4530  -31.7390 C   0  0  0  0  0  0  0  0  0  0  0  0
   -6.9670   20.3960  -32.1470 O   0  0  0  0  0  0  0  0  0  0  0  0
   -2.2580   21.5220  -32.6640 C   0  0  0  0  0  0  0  0  0  0  0  0
   -1.0440   21.0100  -32.2010 C   0  0  0  0  0  0  0  0  0  0  0  0
    0.6973   16.7173  -30.7341 H   0  0  0  0  0  0  0  0  0  0  0  0
   -0.2042   16.9132  -32.2754 H   0  0  0  0  0  0  0  0  0  0  0  0
    1.5918   16.9427  -32.2754 H   0  0  0  0  0  0  0  0  0  0  0  0
   -1.7885   17.6724  -32.2693 H   0  0  0  0  0  0  0  0  0  0  0  0
   -3.9630   18.5852  -33.0843 H   0  0  0  0  0  0  0  0  0  0  0  0
   -4.4678   21.9123  -34.2798 H   0  0  0  0  0  0  0  0  0  0  0  0
   -5.2856   20.3926  -33.7713 H   0  0  0  0  0  0  0  0  0  0  0  0
   -3.0469   22.8737  -29.5064 H   0  0  0  0  0  0  0  0  0  0  0  0
   -1.5399   23.5863  -30.1739 H   0  0  0  0  0  0  0  0  0  0  0  0
   -3.0921   25.7034  -27.7801 H   0  0  0  0  0  0  0  0  0  0  0  0
   -2.3299   26.0786  -25.4423 H   0  0  0  0  0  0  0  0  0  0  0  0
   -0.6757   24.5347  -24.4013 H   0  0  0  0  0  0  0  0  0  0  0  0
    0.2134   22.6007  -25.6889 H   0  0  0  0  0  0  0  0  0  0  0  0
   -2.4648   21.5206  -26.8354 H   0  0  0  0  0  0  0  0  0  0  0  0
   -3.3392   21.1297  -28.3292 H   0  0  0  0  0  0  0  0  0  0  0  0
   -3.6457   19.7622  -25.9111 H   0  0  0  0  0  0  0  0  0  0  0  0
   -4.0485   19.0545  -27.4794 H   0  0  0  0  0  0  0  0  0  0  0  0
   -1.9012   18.2917  -25.6735 H   0  0  0  0  0  0  0  0  0  0  0  0
   -2.2427   17.5786  -27.2528 H   0  0  0  0  0  0  0  0  0  0  0  0
   -0.2675   19.7192  -26.4909 H   0  0  0  0  0  0  0  0  0  0  0  0
   -0.1893   18.5804  -27.8477 H   0  0  0  0  0  0  0  0  0  0  0  0
   -6.7856   23.8708  -29.3644 H   0  0  0  0  0  0  0  0  0  0  0  0
   -7.8925   21.7804  -30.1855 H   0  0  0  0  0  0  0  0  0  0  0  0
   -2.3874   22.6088  -32.7745 H   0  0  0  0  0  0  0  0  0  0  0  0
   -0.2189   21.6945  -31.9547 H   0  0  0  0  0  0  0  0  0  0  0  0
  1  2  1  0
  2  3  2  0
  2  4  2  0
  2  5  1  0
  5  6  2  0
  6  7  1  0
  7  8  2  0
  8  9  1  0
  9 10  1  0
 10 11  1  0
 11 12  2  0
 12 13  1  0
 13 14  2  0
 13 15  1  0
 15 16  1  0
 16 17  1  0
 17 18  2  0
 18 19  1  0
 19 20  2  0
 20 21  1  0
 21 22  2  0
 22 23  1  0
 23 24  2  0
 23 25  2  0
 23 26  1  0
 26 27  1  0
 27 28  1  0
 28 29  1  0
 29 30  1  0
 12 31  1  0
 31 32  2  0
 32 33  1  0
 33 34  2  0
  8 35  1  0
 35 36  2  0
 36  5  1  0
 33 10  1  0
 22 17  1  0
 30 26  1  0
  1 37  1  0
  1 38  1  0
  1 39  1  0
  6 40  1  0
  7 41  1  0
  9 42  1  0
  9 43  1  0
 16 44  1  0
 16 45  1  0
 18 46  1  0
 19 47  1  0
 20 48  1  0
 21 49  1  0
 27 50  1  0
 27 51  1  0
 28 52  1  0
 28 53  1  0
 29 54  1  0
 29 55  1  0
 30 56  1  0
 30 57  1  0
 31 58  1  0
 32 59  1  0
 35 60  1  0
 36 61  1  0
M  CHG  1  15  -1
M  END
>  <UniqueID>  (21) 
20

>  <SMILES>  (21) 
CS(=O)(=O)c1ccc(Cn2nc(C(=O)[N-]Cc3ccccc3S(=O)(=O)N3CCCC3)ccc2=O)cc1

>  <Energy>  (21) 
66.61019515116791

>  <Genealogy>  (21) 
CS(=O)(=O)c1ccc(Cn2nc(C(=O)[N-]Cc3ccccc3S(=O)(=O)N3CCCC3)ccc2=O)cc1 (protonated)
CS(=O)(=O)c1ccc(Cn2nc(C(=O)[N-]Cc3ccccc3S(=O)(=O)N3CCCC3)ccc2=O)cc1 (3D coordinates assigned)
CS(=O)(=O)c1ccc(Cn2nc(C(=O)[N-]Cc3ccccc3S(=O)(=O)N3CCCC3)ccc2=O)cc1 (nonaromatic ring conformer: 66.61019515116791 kcal/mol)

>  <smiles>  (21) 
CS(=O)(=O)c1ccc(Cn2nc(C(=O)NCc3ccccc3S(=O)(=O)N3CCCC3)ccc2=O)cc1

>  <score_type>  (21) 
oracle

>  <origin>  (21) 
adgpu

>  <m_score__min__energy>  (21) 
-12.210000000000001

>  <m_primary>  (21) 
energy

$$$$
21:0
     RDKit          3D

 47 49  0  0  0  0  0  0  0  0999 V2000
   -8.4390   20.8290  -31.6370 C   0  0  0  0  0  0  0  0  0  0  0  0
   -7.5910   22.0250  -31.3270 C   0  0  0  0  0  0  0  0  0  0  0  0
   -6.8550   22.6540  -32.3440 C   0  0  0  0  0  0  0  0  0  0  0  0
   -6.0940   23.7920  -32.0620 C   0  0  0  0  0  0  0  0  0  0  0  0
   -6.0590   24.3170  -30.7620 C   0  0  0  0  0  0  0  0  0  0  0  0
   -5.2710   25.5610  -30.4690 C   0  0  0  0  0  0  0  0  0  0  0  0
   -3.8700   25.3320  -30.8160 N   0  0  0  0  0  0  0  0  0  0  0  0
   -3.0800   24.4620  -29.5380 S   0  0  0  0  0  0  0  0  0  0  0  0
   -4.0390   24.2410  -28.4010 O   0  0  0  0  0  0  0  0  0  0  0  0
   -1.9230   25.2760  -29.0300 O   0  0  0  0  0  0  0  0  0  0  0  0
   -2.4790   22.9160  -30.1330 C   0  0  0  0  0  0  0  0  0  0  0  0
   -1.4200   22.2780  -29.4760 C   0  0  0  0  0  0  0  0  0  0  0  0
   -0.9310   21.0590  -29.9530 C   0  0  0  0  0  0  0  0  0  0  0  0
   -1.4960   20.4720  -31.0880 C   0  0  0  0  0  0  0  0  0  0  0  0
   -2.5540   21.1060  -31.7550 C   0  0  0  0  0  0  0  0  0  0  0  0
   -3.2800   20.3610  -33.1810 S   0  0  0  0  0  0  0  0  0  0  0  0
   -4.2030   21.3490  -33.8390 O   0  0  0  0  0  0  0  0  0  0  0  0
   -2.1950   20.0170  -34.1650 O   0  0  0  0  0  0  0  0  0  0  0  0
   -4.1740   18.9090  -32.7810 N   0  0  0  0  0  0  0  0  0  0  0  0
   -5.5450   19.2280  -32.3730 C   0  0  0  0  0  0  0  0  0  0  0  0
   -6.4590   19.0330  -33.5740 C   0  0  0  0  0  0  0  0  0  0  0  0
   -5.6570   18.2250  -34.5740 C   0  0  0  0  0  0  0  0  0  0  0  0
   -4.2890   18.0190  -33.9410 C   0  0  0  0  0  0  0  0  0  0  0  0
   -3.0370   22.3330  -31.2790 C   0  0  0  0  0  0  0  0  0  0  0  0
   -6.8210   23.7080  -29.7530 C   0  0  0  0  0  0  0  0  0  0  0  0
   -7.5830   22.5700  -30.0340 C   0  0  0  0  0  0  0  0  0  0  0  0
   -8.7706   20.3614  -30.6982 H   0  0  0  0  0  0  0  0  0  0  0  0
   -9.3171   21.1433  -32.2202 H   0  0  0  0  0  0  0  0  0  0  0  0
   -7.8518   20.1044  -32.2202 H   0  0  0  0  0  0  0  0  0  0  0  0
   -6.8774   22.2496  -33.3667 H   0  0  0  0  0  0  0  0  0  0  0  0
   -5.5195   24.2784  -32.8640 H   0  0  0  0  0  0  0  0  0  0  0  0
   -5.6664   26.3966  -31.0653 H   0  0  0  0  0  0  0  0  0  0  0  0
   -5.3526   25.8084  -29.4003 H   0  0  0  0  0  0  0  0  0  0  0  0
   -0.9720   22.7373  -28.5825 H   0  0  0  0  0  0  0  0  0  0  0  0
   -0.0993   20.5604  -29.4337 H   0  0  0  0  0  0  0  0  0  0  0  0
   -1.1103   19.5110  -31.4590 H   0  0  0  0  0  0  0  0  0  0  0  0
   -5.8554   18.5589  -31.5570 H   0  0  0  0  0  0  0  0  0  0  0  0
   -5.6024   20.2676  -32.0181 H   0  0  0  0  0  0  0  0  0  0  0  0
   -7.3672   18.4865  -33.2799 H   0  0  0  0  0  0  0  0  0  0  0  0
   -6.7836   19.9951  -33.9971 H   0  0  0  0  0  0  0  0  0  0  0  0
   -6.1425   17.2557  -34.7601 H   0  0  0  0  0  0  0  0  0  0  0  0
   -5.5807   18.7412  -35.5424 H   0  0  0  0  0  0  0  0  0  0  0  0
   -4.1834   16.9728  -33.6179 H   0  0  0  0  0  0  0  0  0  0  0  0
   -3.4980   18.2469  -34.6707 H   0  0  0  0  0  0  0  0  0  0  0  0
   -3.8576   22.8405  -31.8073 H   0  0  0  0  0  0  0  0  0  0  0  0
   -6.8187   24.1280  -28.7363 H   0  0  0  0  0  0  0  0  0  0  0  0
   -8.1789   22.0998  -29.2379 H   0  0  0  0  0  0  0  0  0  0  0  0
  1  2  1  0
  2  3  2  0
  3  4  1  0
  4  5  2  0
  5  6  1  0
  6  7  1  0
  7  8  1  0
  8  9  2  0
  8 10  2  0
  8 11  1  0
 11 12  2  0
 12 13  1  0
 13 14  2  0
 14 15  1  0
 15 16  1  0
 16 17  2  0
 16 18  2  0
 16 19  1  0
 19 20  1  0
 20 21  1  0
 21 22  1  0
 22 23  1  0
 15 24  2  0
  5 25  1  0
 25 26  2  0
 26  2  1  0
 24 11  1  0
 23 19  1  0
  1 27  1  0
  1 28  1  0
  1 29  1  0
  3 30  1  0
  4 31  1  0
  6 32  1  0
  6 33  1  0
 12 34  1  0
 13 35  1  0
 14 36  1  0
 20 37  1  0
 20 38  1  0
 21 39  1  0
 21 40  1  0
 22 41  1  0
 22 42  1  0
 23 43  1  0
 23 44  1  0
 24 45  1  0
 25 46  1  0
 26 47  1  0
M  CHG  1   7  -1
M  END
>  <UniqueID>  (22) 
21

>  <SMILES>  (22) 
Cc1ccc(C[N-]S(=O)(=O)c2cccc(S(=O)(=O)N3CCCC3)c2)cc1

>  <Energy>  (22) 
44.34163072916061

>  <Genealogy>  (22) 
Cc1ccc(C[N-]S(=O)(=O)c2cccc(S(=O)(=O)N3CCCC3)c2)cc1 (protonated)
Cc1ccc(C[N-]S(=O)(=O)c2cccc(S(=O)(=O)N3CCCC3)c2)cc1 (3D coordinates assigned)
Cc1ccc(C[N-]S(=O)(=O)c2cccc(S(=O)(=O)N3CCCC3)c2)cc1 (nonaromatic ring conformer: 44.34163072916061 kcal/mol)

>  <smiles>  (22) 
Cc1ccc(CNS(=O)(=O)c2cccc(S(=O)(=O)N3CCCC3)c2)cc1

>  <score_type>  (22) 
oracle

>  <origin>  (22) 
adgpu

>  <m_score__min__energy>  (22) 
-11.029999999999999

>  <m_primary>  (22) 
energy

$$$$
22:0
     RDKit          3D

 37 39  0  0  0  0  0  0  0  0999 V2000
   -4.0040   21.8000  -33.4910 N   0  0  0  0  0  0  0  0  0  0  0  0
   -3.8250   20.5150  -33.4710 C   0  0  0  0  0  0  0  0  0  0  0  0
   -2.5710   20.0480  -33.7160 N   0  0  0  0  0  0  0  0  0  0  0  0
   -2.2650   18.7260  -33.7190 C   0  0  0  0  0  0  0  0  0  0  0  0
   -3.2530   17.7810  -33.4670 C   0  0  0  0  0  0  0  0  0  0  0  0
   -4.5620   18.2020  -33.2090 C   0  0  0  0  0  0  0  0  0  0  0  0
   -5.5610   17.2520  -32.9500 C   0  0  0  0  0  0  0  0  0  0  0  0
   -6.8650   17.6570  -32.6770 C   0  0  0  0  0  0  0  0  0  0  0  0
   -7.1930   19.0160  -32.6640 C   0  0  0  0  0  0  0  0  0  0  0  0
   -8.8070   19.5370  -32.1940 S   0  0  0  0  0  0  0  0  0  0  0  0
   -9.1200   19.1270  -30.7820 O   0  0  0  0  0  0  0  0  0  0  0  0
   -9.8230   18.9240  -33.1150 O   0  0  0  0  0  0  0  0  0  0  0  0
   -8.8610   21.2590  -32.3340 N   0  0  0  0  0  0  0  0  0  0  0  0
   -8.2220   22.0910  -31.3670 C   0  0  0  0  0  0  0  0  0  0  0  0
   -7.7150   21.5860  -30.3290 O   0  0  0  0  0  0  0  0  0  0  0  0
   -8.0300   23.5420  -31.6580 C   0  0  0  0  0  0  0  0  0  0  0  0
   -6.7060   23.9800  -31.0940 C   0  0  0  0  0  0  0  0  0  0  0  0
   -5.5640   23.1770  -31.2640 C   0  0  0  0  0  0  0  0  0  0  0  0
   -4.3180   23.6170  -30.8090 C   0  0  0  0  0  0  0  0  0  0  0  0
   -4.1980   24.8620  -30.1850 C   0  0  0  0  0  0  0  0  0  0  0  0
   -2.9600   25.2960  -29.7300 O   0  0  0  0  0  0  0  0  0  0  0  0
   -5.3270   25.6730  -30.0230 C   0  0  0  0  0  0  0  0  0  0  0  0
   -6.5750   25.2390  -30.4830 C   0  0  0  0  0  0  0  0  0  0  0  0
   -6.2040   19.9760  -32.9190 C   0  0  0  0  0  0  0  0  0  0  0  0
   -4.8740   19.5880  -33.2030 C   0  0  0  0  0  0  0  0  0  0  0  0
   -4.9010   22.2990  -33.3220 H   0  0  0  0  0  0  0  0  0  0  0  0
   -1.2336   18.4016  -33.9212 H   0  0  0  0  0  0  0  0  0  0  0  0
   -3.0071   16.7089  -33.4704 H   0  0  0  0  0  0  0  0  0  0  0  0
   -5.3128   16.1805  -32.9626 H   0  0  0  0  0  0  0  0  0  0  0  0
   -7.6403   16.9045  -32.4707 H   0  0  0  0  0  0  0  0  0  0  0  0
   -8.0403   23.7052  -32.7458 H   0  0  0  0  0  0  0  0  0  0  0  0
   -8.8422   24.1252  -31.1995 H   0  0  0  0  0  0  0  0  0  0  0  0
   -5.6519   22.1978  -31.7575 H   0  0  0  0  0  0  0  0  0  0  0  0
   -3.4297   22.9821  -30.9422 H   0  0  0  0  0  0  0  0  0  0  0  0
   -5.2330   26.6534  -29.5331 H   0  0  0  0  0  0  0  0  0  0  0  0
   -7.4571   25.8856  -30.3660 H   0  0  0  0  0  0  0  0  0  0  0  0
   -6.4655   21.0442  -32.8980 H   0  0  0  0  0  0  0  0  0  0  0  0
  1  2  2  3
  2  3  1  0
  3  4  1  0
  4  5  2  0
  5  6  1  0
  6  7  2  0
  7  8  1  0
  8  9  2  0
  9 10  1  0
 10 11  2  0
 10 12  2  0
 10 13  1  0
 13 14  1  0
 14 15  2  0
 14 16  1  0
 16 17  1  0
 17 18  2  0
 18 19  1  0
 19 20  2  0
 20 21  1  0
 20 22  1  0
 22 23  2  0
  9 24  1  0
 24 25  2  0
 25  2  1  0
 25  6  1  0
 23 17  1  0
  1 26  1  0
  4 27  1  0
  5 28  1  0
  7 29  1  0
  8 30  1  0
 16 31  1  0
 16 32  1  0
 18 33  1  0
 19 34  1  0
 22 35  1  0
 23 36  1  0
 24 37  1  0
M  CHG  3   3  -1  13  -1  21  -1
M  END
>  <UniqueID>  (23) 
22

>  <SMILES>  (23) 
N=c1[n-]ccc2ccc(S(=O)(=O)[N-]C(=O)Cc3ccc([O-])cc3)cc12

>  <Energy>  (23) 
45.630678489458376

>  <Genealogy>  (23) 
N=c1[n-]ccc2ccc(S(=O)(=O)[N-]C(=O)Cc3ccc([O-])cc3)cc12 (protonated)
N=c1[n-]ccc2ccc(S(=O)(=O)[N-]C(=O)Cc3ccc([O-])cc3)cc12 (3D coordinates assigned)
N=c1[n-]ccc2ccc(S(=O)(=O)[N-]C(=O)Cc3ccc([O-])cc3)cc12 (optimized conformer: 45.630678489458376 kcal/mol)

>  <smiles>  (23) 
N=c1[nH]ccc2ccc(S(=O)(=O)NC(=O)Cc3ccc(O)cc3)cc12

>  <score_type>  (23) 
oracle

>  <origin>  (23) 
adgpu

>  <m_score__min__energy>  (23) 
-12.19

>  <m_primary>  (23) 
energy

$$$$
23:0
     RDKit          3D

 54 58  0  0  0  0  0  0  0  0999 V2000
   -0.5090   19.1350  -28.9970 C   0  0  0  0  0  0  0  0  0  0  0  0
   -0.3130   19.7720  -27.6860 N   0  0  0  0  0  0  0  0  0  0  0  0
   -1.3990   19.4610  -26.7350 C   0  0  0  0  0  0  0  0  0  0  0  0
   -2.7510   20.0550  -27.1640 C   0  0  0  0  0  0  0  0  0  0  0  0
   -2.6300   21.4500  -27.7180 C   0  0  0  0  0  0  0  0  0  0  0  0
   -3.7940   22.1970  -27.9390 C   0  0  0  0  0  0  0  0  0  0  0  0
   -3.7270   23.5010  -28.4690 C   0  0  0  0  0  0  0  0  0  0  0  0
   -4.9190   24.2940  -28.6560 N   0  0  0  0  0  0  0  0  0  0  0  0
   -5.5680   24.7250  -30.2100 S   0  0  0  0  0  0  0  0  0  0  0  0
   -6.7180   25.6720  -30.0220 O   0  0  0  0  0  0  0  0  0  0  0  0
   -4.5000   25.4090  -31.0170 O   0  0  0  0  0  0  0  0  0  0  0  0
   -6.1550   23.2850  -31.0370 C   0  0  0  0  0  0  0  0  0  0  0  0
   -7.5310   22.9610  -31.0270 C   0  0  0  0  0  0  0  0  0  0  0  0
   -7.9990   21.8360  -31.7220 C   0  0  0  0  0  0  0  0  0  0  0  0
   -7.0770   21.0500  -32.4170 C   0  0  0  0  0  0  0  0  0  0  0  0
   -5.7450   21.3620  -32.4320 C   0  0  0  0  0  0  0  0  0  0  0  0
   -5.2490   22.4730  -31.7430 C   0  0  0  0  0  0  0  0  0  0  0  0
   -5.0000   20.3970  -33.1540 N   0  0  0  0  0  0  0  0  0  0  0  0
   -3.5760   20.2670  -33.1230 C   0  0  0  0  0  0  0  0  0  0  0  0
   -2.9520   19.9630  -34.1760 O   0  0  0  0  0  0  0  0  0  0  0  0
   -2.8310   20.4250  -31.8290 C   0  0  0  0  0  0  0  0  0  0  0  0
   -2.1240   21.7620  -31.6700 C   0  0  0  0  0  0  0  0  0  0  0  0
   -1.3170   20.5090  -31.9750 C   0  0  0  0  0  0  0  0  0  0  0  0
   -5.9070   19.3320  -33.5820 C   0  0  0  0  0  0  0  0  0  0  0  0
   -7.3290   19.7920  -33.1720 C   0  0  0  0  0  0  0  0  0  0  0  0
   -2.4730   24.0270  -28.8250 C   0  0  0  0  0  0  0  0  0  0  0  0
   -2.3700   25.2990  -29.3830 O   0  0  0  0  0  0  0  0  0  0  0  0
   -1.3120   23.2740  -28.6310 C   0  0  0  0  0  0  0  0  0  0  0  0
   -1.3790   21.9830  -28.0930 C   0  0  0  0  0  0  0  0  0  0  0  0
   -0.1030   21.2290  -27.8010 C   0  0  0  0  0  0  0  0  0  0  0  0
   -0.8297   18.0926  -28.8539 H   0  0  0  0  0  0  0  0  0  0  0  0
   -1.2804   19.6821  -29.5588 H   0  0  0  0  0  0  0  0  0  0  0  0
    0.4365   19.1539  -29.5588 H   0  0  0  0  0  0  0  0  0  0  0  0
   -1.5016   18.3682  -26.6630 H   0  0  0  0  0  0  0  0  0  0  0  0
   -1.1313   19.9089  -25.7666 H   0  0  0  0  0  0  0  0  0  0  0  0
   -3.1892   19.4072  -27.9375 H   0  0  0  0  0  0  0  0  0  0  0  0
   -3.3861   20.1103  -26.2676 H   0  0  0  0  0  0  0  0  0  0  0  0
   -4.7736   21.7599  -27.6956 H   0  0  0  0  0  0  0  0  0  0  0  0
   -5.4720   24.5980  -27.8240 H   0  0  0  0  0  0  0  0  0  0  0  0
   -8.2383   23.5943  -30.4714 H   0  0  0  0  0  0  0  0  0  0  0  0
   -9.0684   21.5785  -31.7197 H   0  0  0  0  0  0  0  0  0  0  0  0
   -4.1742   22.7068  -31.7528 H   0  0  0  0  0  0  0  0  0  0  0  0
   -3.5229   19.8290  -31.2158 H   0  0  0  0  0  0  0  0  0  0  0  0
   -2.2415   22.5407  -32.4380 H   0  0  0  0  0  0  0  0  0  0  0  0
   -2.0919   22.5362  -30.8893 H   0  0  0  0  0  0  0  0  0  0  0  0
   -0.8517   20.3813  -32.9635 H   0  0  0  0  0  0  0  0  0  0  0  0
   -0.4607   20.0017  -31.5067 H   0  0  0  0  0  0  0  0  0  0  0  0
   -5.8488   19.1954  -34.6719 H   0  0  0  0  0  0  0  0  0  0  0  0
   -5.6455   18.3693  -33.1184 H   0  0  0  0  0  0  0  0  0  0  0  0
   -7.9525   19.9823  -34.0580 H   0  0  0  0  0  0  0  0  0  0  0  0
   -7.8726   19.0381  -32.5836 H   0  0  0  0  0  0  0  0  0  0  0  0
   -0.3352   23.6999  -28.9038 H   0  0  0  0  0  0  0  0  0  0  0  0
    0.6112   21.4179  -28.6160 H   0  0  0  0  0  0  0  0  0  0  0  0
    0.2786   21.5861  -26.8331 H   0  0  0  0  0  0  0  0  0  0  0  0
  1  2  1  0
  2  3  1  0
  3  4  1  0
  4  5  1  0
  5  6  2  0
  6  7  1  0
  7  8  1  0
  8  9  1  0
  9 10  2  0
  9 11  2  0
  9 12  1  0
 12 13  2  0
 13 14  1  0
 14 15  2  0
 15 16  1  0
 16 17  2  0
 16 18  1  0
 18 19  1  0
 19 20  2  0
 19 21  1  0
 21 22  1  0
 22 23  1  0
 18 24  1  0
 24 25  1  0
  7 26  2  0
 26 27  1  0
 26 28  1  0
 28 29  2  0
 29 30  1  0
 30  2  1  0
 29  5  1  0
 17 12  1  0
 23 21  1  0
 25 15  1  0
  1 31  1  0
  1 32  1  0
  1 33  1  0
  3 34  1  0
  3 35  1  0
  4 36  1  0
  4 37  1  0
  6 38  1  0
  8 39  1  0
 13 40  1  0
 14 41  1  0
 17 42  1  0
 21 43  1  0
 22 44  1  0
 22 45  1  0
 23 46  1  0
 23 47  1  0
 24 48  1  0
 24 49  1  0
 25 50  1  0
 25 51  1  0
 28 52  1  0
 30 53  1  0
 30 54  1  0
M  CHG  1  27  -1
M  END
>  <UniqueID>  (24) 
23

>  <SMILES>  (24) 
CN1CCc2cc(NS(=O)(=O)c3ccc4c(c3)N(C(=O)C3CC3)CC4)c([O-])cc2C1

>  <Energy>  (24) 
348.5378100397978

>  <Genealogy>  (24) 
CN1CCc2cc(NS(=O)(=O)c3ccc4c(c3)N(C(=O)C3CC3)CC4)c([O-])cc2C1 (protonated)
CN1CCc2cc(NS(=O)(=O)c3ccc4c(c3)N(C(=O)C3CC3)CC4)c([O-])cc2C1 (3D coordinates assigned)
CN1CCc2cc(NS(=O)(=O)c3ccc4c(c3)N(C(=O)C3CC3)CC4)c([O-])cc2C1 (nonaromatic ring conformer: 348.5378100397978 kcal/mol)

>  <smiles>  (24) 
CN1CCc2cc(NS(=O)(=O)c3ccc4c(c3)N(C(=O)C3CC3)CC4)c(O)cc2C1

>  <score_type>  (24) 
oracle

>  <origin>  (24) 
adgpu

>  <m_score__min__energy>  (24) 
-14.32

>  <m_primary>  (24) 
energy

$$$$
24:0
     RDKit          3D

 50 52  0  0  0  0  0  0  0  0999 V2000
   -8.4910   19.6390  -32.3180 C   0  0  0  0  0  0  0  0  0  0  0  0
   -7.1350   20.1290  -32.5680 N   0  0  0  0  0  0  0  0  0  0  0  0
   -6.7090   21.4060  -32.0390 C   0  0  0  0  0  0  0  0  0  0  0  0
   -5.7860   21.4720  -30.9760 C   0  0  0  0  0  0  0  0  0  0  0  0
   -5.3860   22.7040  -30.4540 C   0  0  0  0  0  0  0  0  0  0  0  0
   -5.9050   23.9010  -30.9750 C   0  0  0  0  0  0  0  0  0  0  0  0
   -5.4960   25.2060  -30.4050 C   0  0  0  0  0  0  0  0  0  0  0  0
   -4.1560   25.6740  -30.5550 N   0  0  0  0  0  0  0  0  0  0  0  0
   -6.3320   25.9180  -29.7820 O   0  0  0  0  0  0  0  0  0  0  0  0
   -6.8250   23.8380  -32.0350 C   0  0  0  0  0  0  0  0  0  0  0  0
   -7.2210   22.6060  -32.5610 C   0  0  0  0  0  0  0  0  0  0  0  0
   -6.0460   19.1460  -33.5100 S   0  0  0  0  0  0  0  0  0  0  0  0
   -6.3300   19.3220  -34.9760 O   0  0  0  0  0  0  0  0  0  0  0  0
   -6.2620   17.6980  -33.1620 O   0  0  0  0  0  0  0  0  0  0  0  0
   -4.3810   19.6200  -33.1810 C   0  0  0  0  0  0  0  0  0  0  0  0
   -3.9860   20.9450  -33.3880 C   0  0  0  0  0  0  0  0  0  0  0  0
   -2.6730   21.3420  -33.1150 C   0  0  0  0  0  0  0  0  0  0  0  0
   -1.7400   20.4130  -32.6250 C   0  0  0  0  0  0  0  0  0  0  0  0
   -0.3270   20.8440  -32.3300 C   0  0  0  0  0  0  0  0  0  0  0  0
   -0.1850   21.3400  -30.9150 C   0  0  0  0  0  0  0  0  0  0  0  0
    0.4220   20.6290  -30.0730 O   0  0  0  0  0  0  0  0  0  0  0  0
   -0.7510   22.5860  -30.4900 N   0  0  0  0  0  0  0  0  0  0  0  0
   -1.7510   22.6940  -29.4730 C   0  0  0  0  0  0  0  0  0  0  0  0
   -2.3840   21.5380  -29.0030 C   0  0  0  0  0  0  0  0  0  0  0  0
   -3.3820   21.6330  -28.0260 C   0  0  0  0  0  0  0  0  0  0  0  0
   -3.7300   22.8810  -27.4990 C   0  0  0  0  0  0  0  0  0  0  0  0
   -3.0760   24.0370  -27.9420 C   0  0  0  0  0  0  0  0  0  0  0  0
   -2.0790   23.9470  -28.9250 C   0  0  0  0  0  0  0  0  0  0  0  0
   -1.4120   25.0920  -29.3570 O   0  0  0  0  0  0  0  0  0  0  0  0
   -2.1350   19.0770  -32.4380 C   0  0  0  0  0  0  0  0  0  0  0  0
   -3.4490   18.6870  -32.7080 C   0  0  0  0  0  0  0  0  0  0  0  0
   -8.6641   19.5764  -31.2335 H   0  0  0  0  0  0  0  0  0  0  0  0
   -9.2193   20.3308  -32.7663 H   0  0  0  0  0  0  0  0  0  0  0  0
   -8.6089   18.6414  -32.7663 H   0  0  0  0  0  0  0  0  0  0  0  0
   -5.3762   20.5430  -30.5529 H   0  0  0  0  0  0  0  0  0  0  0  0
   -4.6593   22.7374  -29.6289 H   0  0  0  0  0  0  0  0  0  0  0  0
   -3.4880   25.6660  -29.7500 H   0  0  0  0  0  0  0  0  0  0  0  0
   -7.2373   24.7675  -32.4546 H   0  0  0  0  0  0  0  0  0  0  0  0
   -7.9409   22.5749  -33.3922 H   0  0  0  0  0  0  0  0  0  0  0  0
   -4.7118   21.6792  -33.7676 H   0  0  0  0  0  0  0  0  0  0  0  0
   -2.3697   22.3857  -33.2846 H   0  0  0  0  0  0  0  0  0  0  0  0
    0.3463   19.9867  -32.4775 H   0  0  0  0  0  0  0  0  0  0  0  0
   -0.0679   21.6674  -33.0119 H   0  0  0  0  0  0  0  0  0  0  0  0
   -2.0971   20.5537  -29.4016 H   0  0  0  0  0  0  0  0  0  0  0  0
   -3.8930   20.7253  -27.6724 H   0  0  0  0  0  0  0  0  0  0  0  0
   -4.5185   22.9544  -26.7355 H   0  0  0  0  0  0  0  0  0  0  0  0
   -3.3440   25.0164  -27.5191 H   0  0  0  0  0  0  0  0  0  0  0  0
   -0.6830   25.0490  -30.0560 H   0  0  0  0  0  0  0  0  0  0  0  0
   -1.4066   18.3357  -32.0776 H   0  0  0  0  0  0  0  0  0  0  0  0
   -3.7534   17.6421  -32.5484 H   0  0  0  0  0  0  0  0  0  0  0  0
  1  2  1  0
  2  3  1  0
  3  4  2  0
  4  5  1  0
  5  6  2  0
  6  7  1  0
  7  8  1  0
  7  9  2  0
  6 10  1  0
 10 11  2  0
  2 12  1  0
 12 13  2  0
 12 14  2  0
 12 15  1  0
 15 16  2  0
 16 17  1  0
 17 18  2  0
 18 19  1  0
 19 20  1  0
 20 21  2  0
 20 22  1  0
 22 23  1  0
 23 24  2  0
 24 25  1  0
 25 26  2  0
 26 27  1  0
 27 28  2  0
 28 29  1  0
 18 30  1  0
 30 31  2  0
 11  3  1  0
 31 15  1  0
 28 23  1  0
  1 32  1  0
  1 33  1  0
  1 34  1  0
  4 35  1  0
  5 36  1  0
  8 37  1  0
 10 38  1  0
 11 39  1  0
 16 40  1  0
 17 41  1  0
 19 42  1  0
 19 43  1  0
 24 44  1  0
 25 45  1  0
 26 46  1  0
 27 47  1  0
 29 48  1  0
 30 49  1  0
 31 50  1  0
M  CHG  2   8  -1  22  -1
M  END
>  <UniqueID>  (25) 
24

>  <SMILES>  (25) 
CN(c1ccc(C([NH-])=O)cc1)S(=O)(=O)c1ccc(CC(=O)[N-]c2ccccc2O)cc1

>  <Energy>  (25) 
60.85824453595816

>  <Genealogy>  (25) 
CN(c1ccc(C([NH-])=O)cc1)S(=O)(=O)c1ccc(CC(=O)[N-]c2ccccc2O)cc1 (protonated)
CN(c1ccc(C([NH-])=O)cc1)S(=O)(=O)c1ccc(CC(=O)[N-]c2ccccc2O)cc1 (3D coordinates assigned)
CN(c1ccc(C([NH-])=O)cc1)S(=O)(=O)c1ccc(CC(=O)[N-]c2ccccc2O)cc1 (optimized conformer: 60.85824453595816 kcal/mol)

>  <smiles>  (25) 
CN(c1ccc(C(N)=O)cc1)S(=O)(=O)c1ccc(CC(=O)Nc2ccccc2O)cc1

>  <score_type>  (25) 
oracle

>  <origin>  (25) 
adgpu

>  <m_score__min__energy>  (25) 
-12.18

>  <m_primary>  (25) 
energy

$$$$
25:0
     RDKit          3D

 57 61  0  0  0  0  0  0  0  0999 V2000
   -0.9630   19.8160  -26.9060 O   0  0  0  0  0  0  0  0  0  0  0  0
   -1.8430   20.7050  -27.7390 S   0  0  0  0  0  0  0  0  0  0  0  0
   -3.2030   20.8170  -27.1140 O   0  0  0  0  0  0  0  0  0  0  0  0
   -1.9960   20.0060  -29.3200 N   0  0  0  0  0  0  0  0  0  0  0  0
   -0.9160   19.8500  -30.2560 C   0  0  0  0  0  0  0  0  0  0  0  0
    0.3970   19.5480  -29.8320 C   0  0  0  0  0  0  0  0  0  0  0  0
    1.4410   19.4560  -30.7560 C   0  0  0  0  0  0  0  0  0  0  0  0
    1.1990   19.6680  -32.1120 C   0  0  0  0  0  0  0  0  0  0  0  0
   -0.0970   19.9590  -32.5570 C   0  0  0  0  0  0  0  0  0  0  0  0
   -0.3620   20.1780  -33.9130 C   0  0  0  0  0  0  0  0  0  0  0  0
   -1.6660   20.4520  -34.3300 C   0  0  0  0  0  0  0  0  0  0  0  0
   -2.6950   20.5020  -33.3870 C   0  0  0  0  0  0  0  0  0  0  0  0
   -2.4250   20.3000  -32.0690 N   0  0  0  0  0  0  0  0  0  0  0  0
   -1.1640   20.0330  -31.6260 C   0  0  0  0  0  0  0  0  0  0  0  0
   -1.1110   22.3150  -27.8420 C   0  0  0  0  0  0  0  0  0  0  0  0
    0.0860   22.5620  -27.1530 C   0  0  0  0  0  0  0  0  0  0  0  0
    0.6730   23.8290  -27.1810 C   0  0  0  0  0  0  0  0  0  0  0  0
    1.8550   24.0600  -26.4880 O   0  0  0  0  0  0  0  0  0  0  0  0
    0.0730   24.8620  -27.9020 C   0  0  0  0  0  0  0  0  0  0  0  0
   -1.1130   24.6320  -28.6050 C   0  0  0  0  0  0  0  0  0  0  0  0
   -1.6900   25.6740  -29.3260 O   0  0  0  0  0  0  0  0  0  0  0  0
   -1.7110   23.3600  -28.5890 C   0  0  0  0  0  0  0  0  0  0  0  0
   -2.9630   23.1390  -29.3410 C   0  0  0  0  0  0  0  0  0  0  0  0
   -2.9270   22.9620  -30.7300 C   0  0  0  0  0  0  0  0  0  0  0  0
   -4.1170   22.8440  -31.4530 C   0  0  0  0  0  0  0  0  0  0  0  0
   -5.3520   22.8950  -30.7930 C   0  0  0  0  0  0  0  0  0  0  0  0
   -6.8560   22.8070  -31.7060 S   0  0  0  0  0  0  0  0  0  0  0  0
   -8.0070   23.0800  -30.7760 O   0  0  0  0  0  0  0  0  0  0  0  0
   -6.8560   23.8600  -32.7850 O   0  0  0  0  0  0  0  0  0  0  0  0
   -7.0340   21.2180  -32.4140 N   0  0  0  0  0  0  0  0  0  0  0  0
   -8.3950   20.6900  -32.1550 C   0  0  0  0  0  0  0  0  0  0  0  0
   -8.4190   19.1500  -32.2060 C   0  0  0  0  0  0  0  0  0  0  0  0
   -7.4160   18.6860  -33.0840 O   0  0  0  0  0  0  0  0  0  0  0  0
   -6.1350   18.9190  -32.5210 C   0  0  0  0  0  0  0  0  0  0  0  0
   -5.9980   20.3220  -31.8810 C   0  0  0  0  0  0  0  0  0  0  0  0
   -5.3850   23.0260  -29.3970 C   0  0  0  0  0  0  0  0  0  0  0  0
   -4.1960   23.1490  -28.6750 C   0  0  0  0  0  0  0  0  0  0  0  0
    0.5997   19.3836  -28.7634 H   0  0  0  0  0  0  0  0  0  0  0  0
    2.4577   19.2153  -30.4119 H   0  0  0  0  0  0  0  0  0  0  0  0
    2.0268   19.6067  -32.8338 H   0  0  0  0  0  0  0  0  0  0  0  0
    0.4547   20.1345  -34.6486 H   0  0  0  0  0  0  0  0  0  0  0  0
   -1.8815   20.6274  -35.3943 H   0  0  0  0  0  0  0  0  0  0  0  0
   -3.7264   20.7052  -33.7108 H   0  0  0  0  0  0  0  0  0  0  0  0
    0.5662   21.7509  -26.5860 H   0  0  0  0  0  0  0  0  0  0  0  0
    0.5347   25.8603  -27.9172 H   0  0  0  0  0  0  0  0  0  0  0  0
   -1.9602   22.9158  -31.2527 H   0  0  0  0  0  0  0  0  0  0  0  0
   -4.0841   22.7106  -32.5444 H   0  0  0  0  0  0  0  0  0  0  0  0
   -8.7236   21.0204  -31.1586 H   0  0  0  0  0  0  0  0  0  0  0  0
   -9.0695   21.0731  -32.9349 H   0  0  0  0  0  0  0  0  0  0  0  0
   -8.2370   18.7482  -31.1983 H   0  0  0  0  0  0  0  0  0  0  0  0
   -9.4022   18.8134  -32.5667 H   0  0  0  0  0  0  0  0  0  0  0  0
   -5.9505   18.1611  -31.7454 H   0  0  0  0  0  0  0  0  0  0  0  0
   -5.4018   18.8590  -33.3389 H   0  0  0  0  0  0  0  0  0  0  0  0
   -6.1140   20.2383  -30.7903 H   0  0  0  0  0  0  0  0  0  0  0  0
   -5.0059   20.7334  -32.1188 H   0  0  0  0  0  0  0  0  0  0  0  0
   -6.3502   23.0319  -28.8693 H   0  0  0  0  0  0  0  0  0  0  0  0
   -4.2273   23.2540  -27.5805 H   0  0  0  0  0  0  0  0  0  0  0  0
  1  2  2  0
  2  3  2  0
  2  4  1  0
  4  5  1  0
  5  6  2  0
  6  7  1  0
  7  8  2  0
  8  9  1  0
  9 10  2  0
 10 11  1  0
 11 12  2  0
 12 13  1  0
 13 14  2  0
  2 15  1  0
 15 16  2  0
 16 17  1  0
 17 18  1  0
 17 19  2  0
 19 20  1  0
 20 21  1  0
 20 22  2  0
 22 23  1  0
 23 24  2  0
 24 25  1  0
 25 26  2  0
 26 27  1  0
 27 28  2  0
 27 29  2  0
 27 30  1  0
 30 31  1  0
 31 32  1  0
 32 33  1  0
 33 34  1  0
 34 35  1  0
 26 36  1  0
 36 37  2  0
 14  5  1  0
 22 15  1  0
 37 23  1  0
 14  9  1  0
 35 30  1  0
  6 38  1  0
  7 39  1  0
  8 40  1  0
 10 41  1  0
 11 42  1  0
 12 43  1  0
 16 44  1  0
 19 45  1  0
 24 46  1  0
 25 47  1  0
 31 48  1  0
 31 49  1  0
 32 50  1  0
 32 51  1  0
 34 52  1  0
 34 53  1  0
 35 54  1  0
 35 55  1  0
 36 56  1  0
 37 57  1  0
M  CHG  3   4  -1  18  -1  21  -1
M  END
>  <UniqueID>  (26) 
25

>  <SMILES>  (26) 
O=S(=O)([N-]c1cccc2cccnc12)c1cc([O-])cc([O-])c1-c1ccc(S(=O)(=O)N2CCOCC2)cc1

>  <Energy>  (26) 
88.0714048533299

>  <Genealogy>  (26) 
O=S(=O)([N-]c1cccc2cccnc12)c1cc([O-])cc([O-])c1-c1ccc(S(=O)(=O)N2CCOCC2)cc1 (protonated)
O=S(=O)([N-]c1cccc2cccnc12)c1cc([O-])cc([O-])c1-c1ccc(S(=O)(=O)N2CCOCC2)cc1 (3D coordinates assigned)
O=S(=O)([N-]c1cccc2cccnc12)c1cc([O-])cc([O-])c1-c1ccc(S(=O)(=O)N2CCOCC2)cc1 (nonaromatic ring conformer: 88.0714048533299 kcal/mol)

>  <smiles>  (26) 
O=S(=O)(Nc1cccc2cccnc12)c1cc(O)cc(O)c1-c1ccc(S(=O)(=O)N2CCOCC2)cc1

>  <score_type>  (26) 
oracle

>  <origin>  (26) 
adgpu

>  <m_score__min__energy>  (26) 
-12.73

>  <m_primary>  (26) 
energy

$$$$
26:0
     RDKit          3D

 49 51  0  0  0  0  0  0  0  0999 V2000
   -3.8170   23.9120  -28.8410 C   0  0  0  0  0  0  0  0  0  0  0  0
   -5.2270   23.5450  -28.9540 N   0  0  0  0  0  0  0  0  0  0  0  0
   -5.8000   23.8990  -30.5560 S   0  0  0  0  0  0  0  0  0  0  0  0
   -4.6250   24.0000  -31.4890 O   0  0  0  0  0  0  0  0  0  0  0  0
   -6.5210   25.2190  -30.5550 O   0  0  0  0  0  0  0  0  0  0  0  0
   -6.8730   22.6200  -31.1210 C   0  0  0  0  0  0  0  0  0  0  0  0
   -8.0710   22.3460  -30.4480 C   0  0  0  0  0  0  0  0  0  0  0  0
   -8.9100   21.3250  -30.8990 C   0  0  0  0  0  0  0  0  0  0  0  0
   -8.5520   20.5640  -32.0160 C   0  0  0  0  0  0  0  0  0  0  0  0
   -7.3390   20.8100  -32.6830 C   0  0  0  0  0  0  0  0  0  0  0  0
   -6.9580   20.0530  -33.8440 N   0  0  0  0  0  0  0  0  0  0  0  0
   -5.7730   19.2420  -33.9290 C   0  0  0  0  0  0  0  0  0  0  0  0
   -5.8280   18.0090  -34.5940 C   0  0  0  0  0  0  0  0  0  0  0  0
   -4.6860   17.2140  -34.7000 C   0  0  0  0  0  0  0  0  0  0  0  0
   -3.4740   17.6480  -34.1590 C   0  0  0  0  0  0  0  0  0  0  0  0
   -3.3890   18.8960  -33.5190 C   0  0  0  0  0  0  0  0  0  0  0  0
   -2.1430   19.3450  -32.9530 N   0  0  0  0  0  0  0  0  0  0  0  0
   -2.1000   20.4080  -31.9450 C   0  0  0  0  0  0  0  0  0  0  0  0
   -1.1750   21.5490  -32.4120 C   0  0  0  0  0  0  0  0  0  0  0  0
   -0.0390   21.0970  -33.2590 N   0  0  0  0  0  0  0  0  0  0  0  0
   -0.2550   21.4180  -34.6810 C   0  0  0  0  0  0  0  0  0  0  0  0
    0.3070   19.6730  -33.0620 C   0  0  0  0  0  0  0  0  0  0  0  0
   -0.8770   18.7460  -33.3920 C   0  0  0  0  0  0  0  0  0  0  0  0
   -4.5450   19.6900  -33.4110 C   0  0  0  0  0  0  0  0  0  0  0  0
   -6.5130   21.8540  -32.2380 C   0  0  0  0  0  0  0  0  0  0  0  0
   -3.5408   23.9839  -27.7787 H   0  0  0  0  0  0  0  0  0  0  0  0
   -3.1982   23.1450  -29.3296 H   0  0  0  0  0  0  0  0  0  0  0  0
   -3.6506   24.8834  -29.3296 H   0  0  0  0  0  0  0  0  0  0  0  0
   -5.7670   24.1490  -28.2930 H   0  0  0  0  0  0  0  0  0  0  0  0
   -8.3510   22.9361  -29.5629 H   0  0  0  0  0  0  0  0  0  0  0  0
   -9.8546   21.1189  -30.3744 H   0  0  0  0  0  0  0  0  0  0  0  0
   -9.2225   19.7691  -32.3746 H   0  0  0  0  0  0  0  0  0  0  0  0
   -7.5830   20.0940  -34.6820 H   0  0  0  0  0  0  0  0  0  0  0  0
   -6.7760   17.6665  -35.0344 H   0  0  0  0  0  0  0  0  0  0  0  0
   -4.7408   16.2418  -35.2117 H   0  0  0  0  0  0  0  0  0  0  0  0
   -2.5813   17.0097  -34.2342 H   0  0  0  0  0  0  0  0  0  0  0  0
   -3.1148   20.8034  -31.7907 H   0  0  0  0  0  0  0  0  0  0  0  0
   -1.7106   19.9935  -31.0034 H   0  0  0  0  0  0  0  0  0  0  0  0
   -1.7751   22.2658  -32.9916 H   0  0  0  0  0  0  0  0  0  0  0  0
   -0.7392   21.9968  -31.5067 H   0  0  0  0  0  0  0  0  0  0  0  0
   -0.8674   22.3281  -34.7625 H   0  0  0  0  0  0  0  0  0  0  0  0
    0.7157   21.5842  -35.1709 H   0  0  0  0  0  0  0  0  0  0  0  0
   -0.7746   20.5813  -35.1709 H   0  0  0  0  0  0  0  0  0  0  0  0
    1.1524   19.4180  -33.7179 H   0  0  0  0  0  0  0  0  0  0  0  0
    0.5699   19.5283  -32.0037 H   0  0  0  0  0  0  0  0  0  0  0  0
   -0.9137   18.5801  -34.4788 H   0  0  0  0  0  0  0  0  0  0  0  0
   -0.7360   17.7910  -32.8647 H   0  0  0  0  0  0  0  0  0  0  0  0
   -4.4878   20.6709  -32.9165 H   0  0  0  0  0  0  0  0  0  0  0  0
   -5.5755   22.0727  -32.7703 H   0  0  0  0  0  0  0  0  0  0  0  0
  1  2  1  0
  2  3  1  0
  3  4  2  0
  3  5  2  0
  3  6  1  0
  6  7  2  0
  7  8  1  0
  8  9  2  0
  9 10  1  0
 10 11  1  0
 11 12  1  0
 12 13  2  0
 13 14  1  0
 14 15  2  0
 15 16  1  0
 16 17  1  0
 17 18  1  0
 18 19  1  0
 19 20  1  0
 20 21  1  0
 20 22  1  0
 22 23  1  0
 16 24  2  0
 10 25  2  0
 25  6  1  0
 24 12  1  0
 23 17  1  0
  1 26  1  0
  1 27  1  0
  1 28  1  0
  2 29  1  0
  7 30  1  0
  8 31  1  0
  9 32  1  0
 11 33  1  0
 13 34  1  0
 14 35  1  0
 15 36  1  0
 18 37  1  0
 18 38  1  0
 19 39  1  0
 19 40  1  0
 21 41  1  0
 21 42  1  0
 21 43  1  0
 22 44  1  0
 22 45  1  0
 23 46  1  0
 23 47  1  0
 24 48  1  0
 25 49  1  0
M  END
>  <UniqueID>  (27) 
26

>  <SMILES>  (27) 
CNS(=O)(=O)c1cccc(Nc2cccc(N3CCN(C)CC3)c2)c1

>  <Energy>  (27) 
63.232398774878725

>  <Genealogy>  (27) 
CNS(=O)(=O)c1cccc(Nc2cccc(N3CCN(C)CC3)c2)c1 (3D coordinates assigned)
CNS(=O)(=O)c1cccc(Nc2cccc(N3CCN(C)CC3)c2)c1 (nonaromatic ring conformer: 63.232398774878725 kcal/mol)

>  <smiles>  (27) 
CNS(=O)(=O)c1cccc(Nc2cccc(N3CCN(C)CC3)c2)c1

>  <score_type>  (27) 
oracle

>  <origin>  (27) 
adgpu

>  <m_score__min__energy>  (27) 
-9.0399999999999991

>  <m_primary>  (27) 
energy

$$$$
27:0
     RDKit          3D

 55 58  0  0  0  0  0  0  0  0999 V2000
   -0.9260   23.8950  -28.5170 C   0  0  0  0  0  0  0  0  0  0  0  0
   -2.1100   23.8020  -29.4380 C   0  0  0  0  0  0  0  0  0  0  0  0
   -2.8550   24.9250  -29.6470 N   0  0  0  0  0  0  0  0  0  0  0  0
   -3.9370   24.9210  -30.4680 C   0  0  0  0  0  0  0  0  0  0  0  0
   -4.6080   25.9740  -30.6370 O   0  0  0  0  0  0  0  0  0  0  0  0
   -4.2960   23.7820  -31.1090 N   0  0  0  0  0  0  0  0  0  0  0  0
   -3.5920   22.6330  -30.9480 C   0  0  0  0  0  0  0  0  0  0  0  0
   -3.9690   21.6010  -31.5670 O   0  0  0  0  0  0  0  0  0  0  0  0
   -2.4630   22.6010  -30.0970 C   0  0  0  0  0  0  0  0  0  0  0  0
   -1.5270   21.0990  -29.8790 S   0  0  0  0  0  0  0  0  0  0  0  0
   -1.9420   20.4620  -28.5820 O   0  0  0  0  0  0  0  0  0  0  0  0
   -0.0520   21.3840  -29.8070 O   0  0  0  0  0  0  0  0  0  0  0  0
   -1.7840   19.9630  -31.1650 N   0  0  0  0  0  0  0  0  0  0  0  0
   -1.2470   20.0760  -32.4900 C   0  0  0  0  0  0  0  0  0  0  0  0
   -0.9550   21.3400  -33.0360 C   0  0  0  0  0  0  0  0  0  0  0  0
   -0.4470   21.4560  -34.3300 C   0  0  0  0  0  0  0  0  0  0  0  0
   -0.2110   20.3140  -35.0930 C   0  0  0  0  0  0  0  0  0  0  0  0
   -0.4900   19.0510  -34.5690 C   0  0  0  0  0  0  0  0  0  0  0  0
   -1.0090   18.9070  -33.2670 C   0  0  0  0  0  0  0  0  0  0  0  0
   -1.2390   17.5350  -32.7360 C   0  0  0  0  0  0  0  0  0  0  0  0
   -0.4800   17.0490  -31.8530 O   0  0  0  0  0  0  0  0  0  0  0  0
   -2.3020   16.7380  -33.2840 N   0  0  0  0  0  0  0  0  0  0  0  0
   -3.5970   17.1940  -33.7110 C   0  0  0  0  0  0  0  0  0  0  0  0
   -3.9280   17.3460  -35.0670 C   0  0  0  0  0  0  0  0  0  0  0  0
   -5.2010   17.8030  -35.4350 C   0  0  0  0  0  0  0  0  0  0  0  0
   -6.1510   18.0970  -34.4560 C   0  0  0  0  0  0  0  0  0  0  0  0
   -5.8350   17.9330  -33.1010 C   0  0  0  0  0  0  0  0  0  0  0  0
   -7.0340   18.3320  -31.8730 S   0  0  0  0  0  0  0  0  0  0  0  0
   -6.7470   17.5300  -30.6330 O   0  0  0  0  0  0  0  0  0  0  0  0
   -8.4130   17.9740  -32.3640 O   0  0  0  0  0  0  0  0  0  0  0  0
   -6.9490   20.0350  -31.5010 N   0  0  0  0  0  0  0  0  0  0  0  0
   -6.4450   20.7990  -32.6410 C   0  0  0  0  0  0  0  0  0  0  0  0
   -7.0190   22.1920  -32.4940 C   0  0  0  0  0  0  0  0  0  0  0  0
   -8.3570   21.9720  -31.8190 C   0  0  0  0  0  0  0  0  0  0  0  0
   -8.2780   20.5830  -31.2010 C   0  0  0  0  0  0  0  0  0  0  0  0
   -4.5640   17.4620  -32.7350 C   0  0  0  0  0  0  0  0  0  0  0  0
   -1.2707   23.8679  -27.4728 H   0  0  0  0  0  0  0  0  0  0  0  0
   -0.2500   23.0472  -28.7021 H   0  0  0  0  0  0  0  0  0  0  0  0
   -0.3907   24.8380  -28.7021 H   0  0  0  0  0  0  0  0  0  0  0  0
   -1.1291   22.2455  -32.4363 H   0  0  0  0  0  0  0  0  0  0  0  0
   -0.2324   22.4503  -34.7487 H   0  0  0  0  0  0  0  0  0  0  0  0
    0.1961   20.4083  -36.1105 H   0  0  0  0  0  0  0  0  0  0  0  0
   -0.3023   18.1561  -35.1805 H   0  0  0  0  0  0  0  0  0  0  0  0
   -3.1861   17.1057  -35.8428 H   0  0  0  0  0  0  0  0  0  0  0  0
   -5.4518   17.9302  -36.4984 H   0  0  0  0  0  0  0  0  0  0  0  0
   -7.1483   18.4576  -34.7483 H   0  0  0  0  0  0  0  0  0  0  0  0
   -5.3457   20.8343  -32.6219 H   0  0  0  0  0  0  0  0  0  0  0  0
   -6.7392   20.3399  -33.5964 H   0  0  0  0  0  0  0  0  0  0  0  0
   -6.3656   22.8196  -31.8701 H   0  0  0  0  0  0  0  0  0  0  0  0
   -7.1136   22.7131  -33.4581 H   0  0  0  0  0  0  0  0  0  0  0  0
   -8.5237   22.7304  -31.0399 H   0  0  0  0  0  0  0  0  0  0  0  0
   -9.1915   22.0548  -32.5309 H   0  0  0  0  0  0  0  0  0  0  0  0
   -8.4188   20.6490  -30.1120 H   0  0  0  0  0  0  0  0  0  0  0  0
   -9.0643   19.9332  -31.6127 H   0  0  0  0  0  0  0  0  0  0  0  0
   -4.3262   17.3023  -31.6729 H   0  0  0  0  0  0  0  0  0  0  0  0
  1  2  1  0
  2  3  1  0
  3  4  1  0
  4  5  2  0
  4  6  1  0
  6  7  1  0
  7  8  2  0
  7  9  1  0
  9 10  1  0
 10 11  2  0
 10 12  2  0
 10 13  1  0
 13 14  1  0
 14 15  2  0
 15 16  1  0
 16 17  2  0
 17 18  1  0
 18 19  2  0
 19 20  1  0
 20 21  2  0
 20 22  1  0
 22 23  1  0
 23 24  2  0
 24 25  1  0
 25 26  2  0
 26 27  1  0
 27 28  1  0
 28 29  2  0
 28 30  2  0
 28 31  1  0
 31 32  1  0
 32 33  1  0
 33 34  1  0
 34 35  1  0
 27 36  2  0
  9  2  2  0
 19 14  1  0
 36 23  1  0
 35 31  1  0
  1 37  1  0
  1 38  1  0
  1 39  1  0
 15 40  1  0
 16 41  1  0
 17 42  1  0
 18 43  1  0
 24 44  1  0
 25 45  1  0
 26 46  1  0
 32 47  1  0
 32 48  1  0
 33 49  1  0
 33 50  1  0
 34 51  1  0
 34 52  1  0
 35 53  1  0
 35 54  1  0
 36 55  1  0
M  CHG  4   3  -1   6  -1  13  -1  22  -1
M  END
>  <UniqueID>  (28) 
27

>  <SMILES>  (28) 
Cc1[n-]c(=O)[n-]c(=O)c1S(=O)(=O)[N-]c1ccccc1C(=O)[N-]c1cccc(S(=O)(=O)N2CCCC2)c1

>  <Energy>  (28) 
76.05051114520985

>  <Genealogy>  (28) 
Cc1[n-]c(=O)[n-]c(=O)c1S(=O)(=O)[N-]c1ccccc1C(=O)[N-]c1cccc(S(=O)(=O)N2CCCC2)c1 (protonated)
Cc1[n-]c(=O)[n-]c(=O)c1S(=O)(=O)[N-]c1ccccc1C(=O)[N-]c1cccc(S(=O)(=O)N2CCCC2)c1 (3D coordinates assigned)
Cc1[n-]c(=O)[n-]c(=O)c1S(=O)(=O)[N-]c1ccccc1C(=O)[N-]c1cccc(S(=O)(=O)N2CCCC2)c1 (nonaromatic ring conformer: 76.05051114520985 kcal/mol)

>  <smiles>  (28) 
Cc1[nH]c(=O)[nH]c(=O)c1S(=O)(=O)Nc1ccccc1C(=O)Nc1cccc(S(=O)(=O)N2CCCC2)c1

>  <score_type>  (28) 
oracle

>  <origin>  (28) 
adgpu

>  <m_score__min__energy>  (28) 
-13.289999999999999

>  <m_primary>  (28) 
energy

$$$$
28:0
     RDKit          3D

 59 62  0  0  0  0  0  0  0  0999 V2000
   -0.8340   26.6110  -23.7900 C   0  0  0  0  0  0  0  0  0  0  0  0
    0.0280   25.4320  -24.0030 N   0  0  0  0  0  0  0  0  0  0  0  0
   -0.7890   24.1810  -24.0950 C   0  0  0  0  0  0  0  0  0  0  0  0
   -0.4820   23.3250  -25.3300 C   0  0  0  0  0  0  0  0  0  0  0  0
   -0.4760   24.1770  -26.5160 N   0  0  0  0  0  0  0  0  0  0  0  0
   -1.1480   23.7580  -27.7080 C   0  0  0  0  0  0  0  0  0  0  0  0
   -2.2000   24.5260  -28.2190 C   0  0  0  0  0  0  0  0  0  0  0  0
   -2.8440   24.1470  -29.4000 C   0  0  0  0  0  0  0  0  0  0  0  0
   -2.4400   22.9980  -30.0890 C   0  0  0  0  0  0  0  0  0  0  0  0
   -3.1130   22.6570  -31.3090 N   0  0  0  0  0  0  0  0  0  0  0  0
   -2.8870   21.1910  -32.2050 S   0  0  0  0  0  0  0  0  0  0  0  0
   -2.1220   21.4970  -33.4620 O   0  0  0  0  0  0  0  0  0  0  0  0
   -2.0810   20.2180  -31.3880 O   0  0  0  0  0  0  0  0  0  0  0  0
   -4.4500   20.5040  -32.6420 C   0  0  0  0  0  0  0  0  0  0  0  0
   -4.5440   19.4820  -33.5990 C   0  0  0  0  0  0  0  0  0  0  0  0
   -5.7910   18.9490  -33.9350 C   0  0  0  0  0  0  0  0  0  0  0  0
   -6.9490   19.4370  -33.3240 C   0  0  0  0  0  0  0  0  0  0  0  0
   -6.8660   20.4610  -32.3710 C   0  0  0  0  0  0  0  0  0  0  0  0
   -8.3430   21.1010  -31.6560 S   0  0  0  0  0  0  0  0  0  0  0  0
   -8.8170   20.1960  -30.5510 O   0  0  0  0  0  0  0  0  0  0  0  0
   -9.4090   21.1740  -32.7150 O   0  0  0  0  0  0  0  0  0  0  0  0
   -8.0260   22.7010  -31.0330 N   0  0  0  0  0  0  0  0  0  0  0  0
   -7.2570   23.4970  -31.9870 C   0  0  0  0  0  0  0  0  0  0  0  0
   -6.4830   24.5210  -31.1730 C   0  0  0  0  0  0  0  0  0  0  0  0
   -6.4490   23.9670  -29.7570 C   0  0  0  0  0  0  0  0  0  0  0  0
   -7.2130   22.6530  -29.8190 C   0  0  0  0  0  0  0  0  0  0  0  0
   -5.6130   20.9910  -32.0300 C   0  0  0  0  0  0  0  0  0  0  0  0
   -1.3860   22.2250  -29.5730 C   0  0  0  0  0  0  0  0  0  0  0  0
   -0.7400   22.6020  -28.3920 C   0  0  0  0  0  0  0  0  0  0  0  0
    0.6030   21.6300  -27.8040 Cl  0  0  0  0  0  0  0  0  0  0  0  0
    0.2690   25.4370  -26.5050 C   0  0  0  0  0  0  0  0  0  0  0  0
    0.9520   25.6520  -25.1460 C   0  0  0  0  0  0  0  0  0  0  0  0
   -0.9598   26.7831  -22.7109 H   0  0  0  0  0  0  0  0  0  0  0  0
   -0.3673   27.4944  -24.2502 H   0  0  0  0  0  0  0  0  0  0  0  0
   -1.8173   26.4342  -24.2502 H   0  0  0  0  0  0  0  0  0  0  0  0
    0.6310   25.3550  -23.1490 H   0  0  0  0  0  0  0  0  0  0  0  0
   -0.5960   23.5750  -23.1975 H   0  0  0  0  0  0  0  0  0  0  0  0
   -1.8406   24.4930  -24.1774 H   0  0  0  0  0  0  0  0  0  0  0  0
    0.5035   22.8506  -25.2130 H   0  0  0  0  0  0  0  0  0  0  0  0
   -1.2502   22.5453  -25.4392 H   0  0  0  0  0  0  0  0  0  0  0  0
   -2.5222   25.4338  -27.6879 H   0  0  0  0  0  0  0  0  0  0  0  0
   -3.6732   24.7554  -29.7902 H   0  0  0  0  0  0  0  0  0  0  0  0
   -3.6344   19.0999  -34.0854 H   0  0  0  0  0  0  0  0  0  0  0  0
   -5.8613   18.1441  -34.6815 H   0  0  0  0  0  0  0  0  0  0  0  0
   -7.9292   19.0159  -33.5920 H   0  0  0  0  0  0  0  0  0  0  0  0
   -6.5624   22.8528  -32.5460 H   0  0  0  0  0  0  0  0  0  0  0  0
   -7.9170   23.9875  -32.7176 H   0  0  0  0  0  0  0  0  0  0  0  0
   -5.4622   24.6341  -31.5669 H   0  0  0  0  0  0  0  0  0  0  0  0
   -6.9520   25.5152  -31.2128 H   0  0  0  0  0  0  0  0  0  0  0  0
   -5.4111   23.7940  -29.4362 H   0  0  0  0  0  0  0  0  0  0  0  0
   -6.8946   24.6656  -29.0335 H   0  0  0  0  0  0  0  0  0  0  0  0
   -6.5110   21.8074  -29.8652 H   0  0  0  0  0  0  0  0  0  0  0  0
   -7.8404   22.5157  -28.9259 H   0  0  0  0  0  0  0  0  0  0  0  0
   -5.5428   21.7920  -31.2793 H   0  0  0  0  0  0  0  0  0  0  0  0
   -1.0665   21.3155  -30.1029 H   0  0  0  0  0  0  0  0  0  0  0  0
    1.0351   25.4105  -27.2940 H   0  0  0  0  0  0  0  0  0  0  0  0
   -0.4333   26.2647  -26.6827 H   0  0  0  0  0  0  0  0  0  0  0  0
    1.7938   24.9493  -25.0593 H   0  0  0  0  0  0  0  0  0  0  0  0
    1.2916   26.6974  -25.1045 H   0  0  0  0  0  0  0  0  0  0  0  0
  1  2  1  0
  2  3  1  0
  3  4  1  0
  4  5  1  0
  5  6  1  0
  6  7  2  0
  7  8  1  0
  8  9  2  0
  9 10  1  0
 10 11  1  0
 11 12  2  0
 11 13  2  0
 11 14  1  0
 14 15  2  0
 15 16  1  0
 16 17  2  0
 17 18  1  0
 18 19  1  0
 19 20  2  0
 19 21  2  0
 19 22  1  0
 22 23  1  0
 23 24  1  0
 24 25  1  0
 25 26  1  0
 18 27  2  0
  9 28  1  0
 28 29  2  0
 29 30  1  0
  5 31  1  0
 31 32  1  0
 32  2  1  0
 29  6  1  0
 27 14  1  0
 26 22  1  0
  1 33  1  0
  1 34  1  0
  1 35  1  0
  2 36  1  0
  3 37  1  0
  3 38  1  0
  4 39  1  0
  4 40  1  0
  7 41  1  0
  8 42  1  0
 15 43  1  0
 16 44  1  0
 17 45  1  0
 23 46  1  0
 23 47  1  0
 24 48  1  0
 24 49  1  0
 25 50  1  0
 25 51  1  0
 26 52  1  0
 26 53  1  0
 27 54  1  0
 28 55  1  0
 31 56  1  0
 31 57  1  0
 32 58  1  0
 32 59  1  0
M  CHG  2   2   1  10  -1
M  END
>  <UniqueID>  (29) 
28

>  <SMILES>  (29) 
C[NH+]1CCN(c2ccc([N-]S(=O)(=O)c3cccc(S(=O)(=O)N4CCCC4)c3)cc2Cl)CC1

>  <Energy>  (29) 
77.6828426782423

>  <Genealogy>  (29) 
C[NH+]1CCN(c2ccc([N-]S(=O)(=O)c3cccc(S(=O)(=O)N4CCCC4)c3)cc2Cl)CC1 (protonated)
C[NH+]1CCN(c2ccc([N-]S(=O)(=O)c3cccc(S(=O)(=O)N4CCCC4)c3)cc2Cl)CC1 (3D coordinates assigned)
C[NH+]1CCN(c2ccc([N-]S(=O)(=O)c3cccc(S(=O)(=O)N4CCCC4)c3)cc2Cl)CC1 (nonaromatic ring conformer: 77.6828426782423 kcal/mol)

>  <smiles>  (29) 
CN1CCN(c2ccc(NS(=O)(=O)c3cccc(S(=O)(=O)N4CCCC4)c3)cc2Cl)CC1

>  <score_type>  (29) 
oracle

>  <origin>  (29) 
adgpu

>  <m_score__min__energy>  (29) 
-11.949999999999999

>  <m_primary>  (29) 
energy

$$$$
29:0
     RDKit          3D

 59 62  0  0  0  0  0  0  0  0999 V2000
   -4.1500   21.6120  -31.5510 O   0  0  0  0  0  0  0  0  0  0  0  0
   -4.3080   22.5410  -30.7140 C   0  0  0  0  0  0  0  0  0  0  0  0
   -5.5520   23.2610  -30.6720 N   0  0  0  0  0  0  0  0  0  0  0  0
   -6.7930   22.7330  -31.1710 C   0  0  0  0  0  0  0  0  0  0  0  0
   -7.8530   23.6080  -31.4480 C   0  0  0  0  0  0  0  0  0  0  0  0
   -9.0690   23.1170  -31.9280 C   0  0  0  0  0  0  0  0  0  0  0  0
   -9.2420   21.7450  -32.1240 C   0  0  0  0  0  0  0  0  0  0  0  0
   -8.2020   20.8550  -31.8280 C   0  0  0  0  0  0  0  0  0  0  0  0
   -8.4210   19.1200  -32.0720 S   0  0  0  0  0  0  0  0  0  0  0  0
   -9.5280   18.8970  -33.0660 O   0  0  0  0  0  0  0  0  0  0  0  0
   -8.8290   18.4820  -30.7720 O   0  0  0  0  0  0  0  0  0  0  0  0
   -6.9600   18.3660  -32.6610 N   0  0  0  0  0  0  0  0  0  0  0  0
   -7.2410   16.9950  -33.1170 C   0  0  0  0  0  0  0  0  0  0  0  0
   -5.9260   16.2450  -33.4050 C   0  0  0  0  0  0  0  0  0  0  0  0
   -4.7590   17.2010  -33.7070 C   0  0  0  0  0  0  0  0  0  0  0  0
   -5.2390   18.4260  -34.4890 C   0  0  0  0  0  0  0  0  0  0  0  0
   -6.3700   19.1740  -33.7480 C   0  0  0  0  0  0  0  0  0  0  0  0
   -6.9830   21.3500  -31.3430 C   0  0  0  0  0  0  0  0  0  0  0  0
   -3.1810   22.9210  -29.8290 C   0  0  0  0  0  0  0  0  0  0  0  0
   -2.4930   21.9210  -29.1190 C   0  0  0  0  0  0  0  0  0  0  0  0
   -1.4340   22.2490  -28.2630 C   0  0  0  0  0  0  0  0  0  0  0  0
   -0.5990   20.9830  -27.3590 S   0  0  0  0  0  0  0  0  0  0  0  0
    0.8300   21.3960  -27.1340 O   0  0  0  0  0  0  0  0  0  0  0  0
   -1.2500   20.8260  -26.0130 O   0  0  0  0  0  0  0  0  0  0  0  0
   -0.6340   19.4460  -28.1970 N   0  0  0  0  0  0  0  0  0  0  0  0
   -0.4470   19.6260  -29.6410 C   0  0  0  0  0  0  0  0  0  0  0  0
    1.0160   19.3690  -29.9690 C   0  0  0  0  0  0  0  0  0  0  0  0
    1.5910   18.6590  -28.7600 C   0  0  0  0  0  0  0  0  0  0  0  0
    0.4560   18.5710  -27.7490 C   0  0  0  0  0  0  0  0  0  0  0  0
   -1.0480   23.5880  -28.1220 C   0  0  0  0  0  0  0  0  0  0  0  0
   -1.7290   24.5900  -28.8130 C   0  0  0  0  0  0  0  0  0  0  0  0
   -2.7980   24.2690  -29.6550 C   0  0  0  0  0  0  0  0  0  0  0  0
   -3.4850   25.2990  -30.2890 O   0  0  0  0  0  0  0  0  0  0  0  0
   -5.5290   24.2580  -30.3610 H   0  0  0  0  0  0  0  0  0  0  0  0
   -7.7259   24.6886  -31.2861 H   0  0  0  0  0  0  0  0  0  0  0  0
   -9.8918   23.8118  -32.1521 H   0  0  0  0  0  0  0  0  0  0  0  0
  -10.1976   21.3625  -32.5119 H   0  0  0  0  0  0  0  0  0  0  0  0
   -7.7996   16.4601  -32.3348 H   0  0  0  0  0  0  0  0  0  0  0  0
   -7.8355   17.0410  -34.0413 H   0  0  0  0  0  0  0  0  0  0  0  0
   -5.6662   15.6373  -32.5257 H   0  0  0  0  0  0  0  0  0  0  0  0
   -6.0853   15.6189  -34.2953 H   0  0  0  0  0  0  0  0  0  0  0  0
   -4.3117   17.5329  -32.7584 H   0  0  0  0  0  0  0  0  0  0  0  0
   -4.0172   16.6652  -34.3175 H   0  0  0  0  0  0  0  0  0  0  0  0
   -4.3913   19.1126  -34.6303 H   0  0  0  0  0  0  0  0  0  0  0  0
   -5.6342   18.0807  -35.4558 H   0  0  0  0  0  0  0  0  0  0  0  0
   -5.9591   20.0992  -33.3177 H   0  0  0  0  0  0  0  0  0  0  0  0
   -7.1653   19.3879  -34.4772 H   0  0  0  0  0  0  0  0  0  0  0  0
   -6.1697   20.6519  -31.0953 H   0  0  0  0  0  0  0  0  0  0  0  0
   -2.7901   20.8685  -29.2373 H   0  0  0  0  0  0  0  0  0  0  0  0
   -1.0817   18.9147  -30.1898 H   0  0  0  0  0  0  0  0  0  0  0  0
   -0.7273   20.6483  -29.9349 H   0  0  0  0  0  0  0  0  0  0  0  0
    1.1024   18.7342  -30.8632 H   0  0  0  0  0  0  0  0  0  0  0  0
    1.5536   20.3045  -30.1830 H   0  0  0  0  0  0  0  0  0  0  0  0
    1.9364   17.6518  -29.0361 H   0  0  0  0  0  0  0  0  0  0  0  0
    2.4571   19.1983  -28.3490 H   0  0  0  0  0  0  0  0  0  0  0  0
    0.0964   17.5335  -27.6839 H   0  0  0  0  0  0  0  0  0  0  0  0
    0.8095   18.8865  -26.7563 H   0  0  0  0  0  0  0  0  0  0  0  0
   -0.2058   23.8499  -27.4647 H   0  0  0  0  0  0  0  0  0  0  0  0
   -1.4230   25.6399  -28.6947 H   0  0  0  0  0  0  0  0  0  0  0  0
  1  2  2  0
  2  3  1  0
  3  4  1  0
  4  5  2  0
  5  6  1  0
  6  7  2  0
  7  8  1  0
  8  9  1  0
  9 10  2  0
  9 11  2  0
  9 12  1  0
 12 13  1  0
 13 14  1  0
 14 15  1  0
 15 16  1  0
 16 17  1  0
  8 18  2  0
  2 19  1  0
 19 20  2  0
 20 21  1  0
 21 22  1  0
 22 23  2  0
 22 24  2  0
 22 25  1  0
 25 26  1  0
 26 27  1  0
 27 28  1  0
 28 29  1  0
 21 30  2  0
 30 31  1  0
 31 32  2  0
 32 33  1  0
 18  4  1  0
 32 19  1  0
 17 12  1  0
 29 25  1  0
  3 34  1  0
  5 35  1  0
  6 36  1  0
  7 37  1  0
 13 38  1  0
 13 39  1  0
 14 40  1  0
 14 41  1  0
 15 42  1  0
 15 43  1  0
 16 44  1  0
 16 45  1  0
 17 46  1  0
 17 47  1  0
 18 48  1  0
 20 49  1  0
 26 50  1  0
 26 51  1  0
 27 52  1  0
 27 53  1  0
 28 54  1  0
 28 55  1  0
 29 56  1  0
 29 57  1  0
 30 58  1  0
 31 59  1  0
M  CHG  1  33  -1
M  END
>  <UniqueID>  (30) 
29

>  <SMILES>  (30) 
O=C(Nc1cccc(S(=O)(=O)N2CCCCC2)c1)c1cc(S(=O)(=O)N2CCCC2)ccc1[O-]

>  <Energy>  (30) 
70.20260361663397

>  <Genealogy>  (30) 
O=C(Nc1cccc(S(=O)(=O)N2CCCCC2)c1)c1cc(S(=O)(=O)N2CCCC2)ccc1[O-] (protonated)
O=C(Nc1cccc(S(=O)(=O)N2CCCCC2)c1)c1cc(S(=O)(=O)N2CCCC2)ccc1[O-] (3D coordinates assigned)
O=C(Nc1cccc(S(=O)(=O)N2CCCCC2)c1)c1cc(S(=O)(=O)N2CCCC2)ccc1[O-] (nonaromatic ring conformer: 70.20260361663397 kcal/mol)

>  <smiles>  (30) 
O=C(Nc1cccc(S(=O)(=O)N2CCCCC2)c1)c1cc(S(=O)(=O)N2CCCC2)ccc1O

>  <score_type>  (30) 
oracle

>  <origin>  (30) 
adgpu

>  <m_score__min__energy>  (30) 
-14.359999999999999

>  <m_primary>  (30) 
energy

$$$$
30:0
     RDKit          3D

 54 57  0  0  0  0  0  0  0  0999 V2000
   -0.4300   22.6900  -24.2690 C   0  0  0  0  0  0  0  0  0  0  0  0
    0.6640   23.4350  -24.9170 N   0  0  0  0  0  0  0  0  0  0  0  0
    0.5150   24.8980  -24.7780 C   0  0  0  0  0  0  0  0  0  0  0  0
   -0.7290   25.4330  -25.5020 C   0  0  0  0  0  0  0  0  0  0  0  0
   -0.9260   24.8070  -26.8580 C   0  0  0  0  0  0  0  0  0  0  0  0
   -1.8890   25.3410  -27.7250 C   0  0  0  0  0  0  0  0  0  0  0  0
   -2.1440   24.7410  -28.9610 C   0  0  0  0  0  0  0  0  0  0  0  0
   -3.1020   25.2950  -29.8010 O   0  0  0  0  0  0  0  0  0  0  0  0
   -1.4250   23.6000  -29.3470 C   0  0  0  0  0  0  0  0  0  0  0  0
   -1.6900   22.9460  -30.5900 N   0  0  0  0  0  0  0  0  0  0  0  0
   -1.4640   21.2410  -30.7690 S   0  0  0  0  0  0  0  0  0  0  0  0
   -1.5730   20.5760  -29.4250 O   0  0  0  0  0  0  0  0  0  0  0  0
   -0.1010   20.9630  -31.3370 O   0  0  0  0  0  0  0  0  0  0  0  0
   -2.7300   20.6110  -31.8260 C   0  0  0  0  0  0  0  0  0  0  0  0
   -4.0680   20.9730  -31.6140 C   0  0  0  0  0  0  0  0  0  0  0  0
   -5.0850   20.4390  -32.4180 C   0  0  0  0  0  0  0  0  0  0  0  0
   -6.7680   20.9080  -32.1540 S   0  0  0  0  0  0  0  0  0  0  0  0
   -7.5260   20.7560  -33.4430 O   0  0  0  0  0  0  0  0  0  0  0  0
   -7.3800   19.9790  -31.1430 O   0  0  0  0  0  0  0  0  0  0  0  0
   -6.9350   22.5520  -31.5880 N   0  0  0  0  0  0  0  0  0  0  0  0
   -5.9330   23.4390  -32.1700 C   0  0  0  0  0  0  0  0  0  0  0  0
   -5.8330   24.6220  -31.2250 C   0  0  0  0  0  0  0  0  0  0  0  0
   -6.2500   24.0740  -29.8690 C   0  0  0  0  0  0  0  0  0  0  0  0
   -6.7580   22.6620  -30.1400 C   0  0  0  0  0  0  0  0  0  0  0  0
   -4.7560   19.5450  -33.4440 C   0  0  0  0  0  0  0  0  0  0  0  0
   -3.4270   19.1700  -33.6520 C   0  0  0  0  0  0  0  0  0  0  0  0
   -2.4110   19.6940  -32.8420 C   0  0  0  0  0  0  0  0  0  0  0  0
   -1.0880   19.3000  -33.0410 O   0  0  0  0  0  0  0  0  0  0  0  0
   -0.4540   23.0700  -28.4920 C   0  0  0  0  0  0  0  0  0  0  0  0
   -0.2220   23.6430  -27.2330 C   0  0  0  0  0  0  0  0  0  0  0  0
    0.8340   23.0480  -26.3310 C   0  0  0  0  0  0  0  0  0  0  0  0
   -0.3253   22.7613  -23.1763 H   0  0  0  0  0  0  0  0  0  0  0  0
   -1.3962   23.1187  -24.5735 H   0  0  0  0  0  0  0  0  0  0  0  0
   -0.3851   21.6339  -24.5735 H   0  0  0  0  0  0  0  0  0  0  0  0
    0.4345   25.1446  -23.7090 H   0  0  0  0  0  0  0  0  0  0  0  0
    1.3972   25.3692  -25.2360 H   0  0  0  0  0  0  0  0  0  0  0  0
   -1.6142   25.2209  -24.8844 H   0  0  0  0  0  0  0  0  0  0  0  0
   -0.5874   26.5135  -25.6520 H   0  0  0  0  0  0  0  0  0  0  0  0
   -2.4491   26.2405  -27.4299 H   0  0  0  0  0  0  0  0  0  0  0  0
   -4.3215   21.6810  -30.8112 H   0  0  0  0  0  0  0  0  0  0  0  0
   -4.9633   22.9252  -32.2452 H   0  0  0  0  0  0  0  0  0  0  0  0
   -6.2111   23.7539  -33.1866 H   0  0  0  0  0  0  0  0  0  0  0  0
   -4.8015   25.0023  -31.1884 H   0  0  0  0  0  0  0  0  0  0  0  0
   -6.4658   25.4630  -31.5449 H   0  0  0  0  0  0  0  0  0  0  0  0
   -5.3901   24.0484  -29.1835 H   0  0  0  0  0  0  0  0  0  0  0  0
   -7.0192   24.7007  -29.3941 H   0  0  0  0  0  0  0  0  0  0  0  0
   -6.0242   21.9210  -29.7900 H   0  0  0  0  0  0  0  0  0  0  0  0
   -7.7026   22.4717  -29.6094 H   0  0  0  0  0  0  0  0  0  0  0  0
   -5.5477   19.1362  -34.0890 H   0  0  0  0  0  0  0  0  0  0  0  0
   -3.1769   18.4607  -34.4547 H   0  0  0  0  0  0  0  0  0  0  0  0
   -0.3270   19.7050  -32.5070 H   0  0  0  0  0  0  0  0  0  0  0  0
    0.1333   22.1958  -28.8096 H   0  0  0  0  0  0  0  0  0  0  0  0
    0.7811   21.9517  -26.4039 H   0  0  0  0  0  0  0  0  0  0  0  0
    1.8089   23.4332  -26.6644 H   0  0  0  0  0  0  0  0  0  0  0  0
  1  2  1  0
  2  3  1  0
  3  4  1  0
  4  5  1  0
  5  6  2  0
  6  7  1  0
  7  8  1  0
  7  9  2  0
  9 10  1  0
 10 11  1  0
 11 12  2  0
 11 13  2  0
 11 14  1  0
 14 15  2  0
 15 16  1  0
 16 17  1  0
 17 18  2  0
 17 19  2  0
 17 20  1  0
 20 21  1  0
 21 22  1  0
 22 23  1  0
 23 24  1  0
 16 25  2  0
 25 26  1  0
 26 27  2  0
 27 28  1  0
  9 29  1  0
 29 30  2  0
 30 31  1  0
 31  2  1  0
 30  5  1  0
 27 14  1  0
 24 20  1  0
  1 32  1  0
  1 33  1  0
  1 34  1  0
  3 35  1  0
  3 36  1  0
  4 37  1  0
  4 38  1  0
  6 39  1  0
 15 40  1  0
 21 41  1  0
 21 42  1  0
 22 43  1  0
 22 44  1  0
 23 45  1  0
 23 46  1  0
 24 47  1  0
 24 48  1  0
 25 49  1  0
 26 50  1  0
 28 51  1  0
 29 52  1  0
 31 53  1  0
 31 54  1  0
M  CHG  2   8  -1  10  -1
M  END
>  <UniqueID>  (31) 
30

>  <SMILES>  (31) 
CN1CCc2cc([O-])c([N-]S(=O)(=O)c3cc(S(=O)(=O)N4CCCC4)ccc3O)cc2C1

>  <Energy>  (31) 
67.01121405137404

>  <Genealogy>  (31) 
CN1CCc2cc([O-])c([N-]S(=O)(=O)c3cc(S(=O)(=O)N4CCCC4)ccc3O)cc2C1 (protonated)
CN1CCc2cc([O-])c([N-]S(=O)(=O)c3cc(S(=O)(=O)N4CCCC4)ccc3O)cc2C1 (3D coordinates assigned)
CN1CCc2cc([O-])c([N-]S(=O)(=O)c3cc(S(=O)(=O)N4CCCC4)ccc3O)cc2C1 (nonaromatic ring conformer: 67.01121405137404 kcal/mol)

>  <smiles>  (31) 
CN1CCc2cc(O)c(NS(=O)(=O)c3cc(S(=O)(=O)N4CCCC4)ccc3O)cc2C1

>  <score_type>  (31) 
oracle

>  <origin>  (31) 
adgpu

>  <m_score__min__energy>  (31) 
-13.779999999999999

>  <m_primary>  (31) 
energy

$$$$
31:0
     RDKit          3D

 48 50  0  0  0  0  0  0  0  0999 V2000
   -3.0900   19.1960  -26.6530 C   0  0  0  0  0  0  0  0  0  0  0  0
   -1.8340   20.0450  -26.8210 C   0  0  0  0  0  0  0  0  0  0  0  0
   -1.9160   20.8340  -28.0060 O   0  0  0  0  0  0  0  0  0  0  0  0
   -1.9490   22.2330  -28.0000 C   0  0  0  0  0  0  0  0  0  0  0  0
   -1.1890   22.8920  -27.2380 O   0  0  0  0  0  0  0  0  0  0  0  0
   -2.8800   22.9420  -28.8850 C   0  0  0  0  0  0  0  0  0  0  0  0
   -4.0640   22.4180  -29.3760 C   0  0  0  0  0  0  0  0  0  0  0  0
   -4.6150   23.4100  -30.1580 C   0  0  0  0  0  0  0  0  0  0  0  0
   -5.8620   23.3060  -30.9800 C   0  0  0  0  0  0  0  0  0  0  0  0
   -5.8800   22.0010  -31.7280 C   0  0  0  0  0  0  0  0  0  0  0  0
   -4.8410   21.6790  -32.6150 C   0  0  0  0  0  0  0  0  0  0  0  0
   -4.8400   20.4500  -33.2820 C   0  0  0  0  0  0  0  0  0  0  0  0
   -5.8730   19.5270  -33.0670 C   0  0  0  0  0  0  0  0  0  0  0  0
   -5.8800   17.9820  -33.9220 S   0  0  0  0  0  0  0  0  0  0  0  0
   -5.6630   18.2260  -35.3890 O   0  0  0  0  0  0  0  0  0  0  0  0
   -7.2250   17.3300  -33.7530 O   0  0  0  0  0  0  0  0  0  0  0  0
   -4.6390   16.9070  -33.3210 N   0  0  0  0  0  0  0  0  0  0  0  0
   -5.2020   15.9760  -32.3240 C   0  0  0  0  0  0  0  0  0  0  0  0
   -4.3040   14.7370  -32.1720 C   0  0  0  0  0  0  0  0  0  0  0  0
   -4.1380   13.9900  -33.3710 O   0  0  0  0  0  0  0  0  0  0  0  0
   -4.3590   14.7460  -34.5540 C   0  0  0  0  0  0  0  0  0  0  0  0
   -3.9310   16.2190  -34.4230 C   0  0  0  0  0  0  0  0  0  0  0  0
   -6.8990   19.8390  -32.1630 C   0  0  0  0  0  0  0  0  0  0  0  0
   -6.9020   21.0680  -31.4960 C   0  0  0  0  0  0  0  0  0  0  0  0
   -3.7320   24.4680  -30.1160 C   0  0  0  0  0  0  0  0  0  0  0  0
   -3.8980   25.6710  -30.7960 O   0  0  0  0  0  0  0  0  0  0  0  0
   -2.6700   24.1980  -29.3340 N   0  0  0  0  0  0  0  0  0  0  0  0
   -3.2973   19.0559  -25.5818 H   0  0  0  0  0  0  0  0  0  0  0  0
   -3.9422   19.7040  -27.1280 H   0  0  0  0  0  0  0  0  0  0  0  0
   -2.9363   18.2158  -27.1280 H   0  0  0  0  0  0  0  0  0  0  0  0
   -1.7279   20.7096  -25.9509 H   0  0  0  0  0  0  0  0  0  0  0  0
   -0.9629   19.3778  -26.8989 H   0  0  0  0  0  0  0  0  0  0  0  0
   -4.4786   21.4177  -29.1821 H   0  0  0  0  0  0  0  0  0  0  0  0
   -6.7393   23.3585  -30.3185 H   0  0  0  0  0  0  0  0  0  0  0  0
   -5.8878   24.1355  -31.7020 H   0  0  0  0  0  0  0  0  0  0  0  0
   -4.0245   22.3960  -32.7861 H   0  0  0  0  0  0  0  0  0  0  0  0
   -4.0246   20.2062  -33.9789 H   0  0  0  0  0  0  0  0  0  0  0  0
   -5.2782   16.4884  -31.3536 H   0  0  0  0  0  0  0  0  0  0  0  0
   -6.1973   15.6529  -32.6632 H   0  0  0  0  0  0  0  0  0  0  0  0
   -3.3121   15.0689  -31.8315 H   0  0  0  0  0  0  0  0  0  0  0  0
   -4.8003   14.0720  -31.4499 H   0  0  0  0  0  0  0  0  0  0  0  0
   -3.7864   14.2874  -35.3737 H   0  0  0  0  0  0  0  0  0  0  0  0
   -5.4414   14.7369  -34.7495 H   0  0  0  0  0  0  0  0  0  0  0  0
   -2.8490   16.2583  -34.2289 H   0  0  0  0  0  0  0  0  0  0  0  0
   -4.1862   16.7313  -35.3624 H   0  0  0  0  0  0  0  0  0  0  0  0
   -7.7049   19.1136  -31.9779 H   0  0  0  0  0  0  0  0  0  0  0  0
   -7.7088   21.3043  -30.7866 H   0  0  0  0  0  0  0  0  0  0  0  0
   -4.2320   25.6810  -31.7510 H   0  0  0  0  0  0  0  0  0  0  0  0
  1  2  1  0
  2  3  1  0
  3  4  1  0
  4  5  2  0
  4  6  1  0
  6  7  2  0
  7  8  1  0
  8  9  1  0
  9 10  1  0
 10 11  2  0
 11 12  1  0
 12 13  2  0
 13 14  1  0
 14 15  2  0
 14 16  2  0
 14 17  1  0
 17 18  1  0
 18 19  1  0
 19 20  1  0
 20 21  1  0
 21 22  1  0
 13 23  1  0
 23 24  2  0
  8 25  2  0
 25 26  1  0
 25 27  1  0
 27  6  1  0
 24 10  1  0
 22 17  1  0
  1 28  1  0
  1 29  1  0
  1 30  1  0
  2 31  1  0
  2 32  1  0
  7 33  1  0
  9 34  1  0
  9 35  1  0
 11 36  1  0
 12 37  1  0
 18 38  1  0
 18 39  1  0
 19 40  1  0
 19 41  1  0
 21 42  1  0
 21 43  1  0
 22 44  1  0
 22 45  1  0
 23 46  1  0
 24 47  1  0
 26 48  1  0
M  CHG  1  27  -1
M  END
>  <UniqueID>  (32) 
31

>  <SMILES>  (32) 
CCOC(=O)c1cc(Cc2ccc(S(=O)(=O)N3CCOCC3)cc2)c(O)[n-]1

>  <Energy>  (32) 
78.16263963193364

>  <Genealogy>  (32) 
CCOC(=O)c1cc(Cc2ccc(S(=O)(=O)N3CCOCC3)cc2)c(O)[n-]1 (protonated)
CCOC(=O)c1cc(Cc2ccc(S(=O)(=O)N3CCOCC3)cc2)c(O)[n-]1 (3D coordinates assigned)
CCOC(=O)c1cc(Cc2ccc(S(=O)(=O)N3CCOCC3)cc2)c(O)[n-]1 (nonaromatic ring conformer: 78.16263963193364 kcal/mol)

>  <smiles>  (32) 
CCOC(=O)c1cc(Cc2ccc(S(=O)(=O)N3CCOCC3)cc2)c(O)[nH]1

>  <score_type>  (32) 
oracle

>  <origin>  (32) 
adgpu

>  <m_score__min__energy>  (32) 
-10.470000000000001

>  <m_primary>  (32) 
energy

$$$$
32:0
     RDKit          3D

 55 58  0  0  0  0  0  0  0  0999 V2000
   -6.7740   24.4950  -31.1170 N   0  0  0  0  0  0  0  0  0  0  0  0
   -7.1880   23.4210  -31.9610 C   0  0  0  0  0  0  0  0  0  0  0  0
   -8.1200   23.6040  -32.7880 O   0  0  0  0  0  0  0  0  0  0  0  0
   -6.5030   22.1110  -31.9050 C   0  0  0  0  0  0  0  0  0  0  0  0
   -5.1050   22.0830  -31.7340 C   0  0  0  0  0  0  0  0  0  0  0  0
   -4.3680   23.3000  -31.6060 N   0  0  0  0  0  0  0  0  0  0  0  0
   -4.0630   23.9900  -30.0500 S   0  0  0  0  0  0  0  0  0  0  0  0
   -5.1550   23.5680  -29.1080 O   0  0  0  0  0  0  0  0  0  0  0  0
   -4.0660   25.4910  -30.1390 O   0  0  0  0  0  0  0  0  0  0  0  0
   -2.5050   23.4080  -29.4600 C   0  0  0  0  0  0  0  0  0  0  0  0
   -2.2910   22.0290  -29.3050 C   0  0  0  0  0  0  0  0  0  0  0  0
   -1.0510   21.5480  -28.8630 C   0  0  0  0  0  0  0  0  0  0  0  0
   -0.8120   19.8140  -28.6530 S   0  0  0  0  0  0  0  0  0  0  0  0
    0.4870   19.5590  -27.9380 O   0  0  0  0  0  0  0  0  0  0  0  0
   -1.9350   19.2800  -27.8070 O   0  0  0  0  0  0  0  0  0  0  0  0
   -0.8160   19.0190  -30.2130 N   0  0  0  0  0  0  0  0  0  0  0  0
   -1.1730   19.9660  -31.2750 C   0  0  0  0  0  0  0  0  0  0  0  0
    0.1120   20.5530  -31.8380 C   0  0  0  0  0  0  0  0  0  0  0  0
    1.2200   19.6290  -31.3700 C   0  0  0  0  0  0  0  0  0  0  0  0
    0.5300   18.5470  -30.5510 C   0  0  0  0  0  0  0  0  0  0  0  0
   -0.0130   22.4480  -28.5960 C   0  0  0  0  0  0  0  0  0  0  0  0
   -0.2160   23.8200  -28.7600 C   0  0  0  0  0  0  0  0  0  0  0  0
   -1.4560   24.3050  -29.1880 C   0  0  0  0  0  0  0  0  0  0  0  0
   -1.6320   25.6740  -29.3440 O   0  0  0  0  0  0  0  0  0  0  0  0
   -4.4360   20.8610  -31.6280 C   0  0  0  0  0  0  0  0  0  0  0  0
   -5.1430   19.6630  -31.6900 C   0  0  0  0  0  0  0  0  0  0  0  0
   -6.5340   19.6630  -31.8540 C   0  0  0  0  0  0  0  0  0  0  0  0
   -7.2280   20.8940  -31.9910 C   0  0  0  0  0  0  0  0  0  0  0  0
   -8.7390   20.9100  -32.1570 C   0  0  0  0  0  0  0  0  0  0  0  0
   -9.3020   19.5750  -32.6510 C   0  0  0  0  0  0  0  0  0  0  0  0
   -8.7480   18.4280  -31.8110 C   0  0  0  0  0  0  0  0  0  0  0  0
   -7.2330   18.3280  -31.9920 C   0  0  0  0  0  0  0  0  0  0  0  0
   -5.9230   24.4070  -30.5190 H   0  0  0  0  0  0  0  0  0  0  0  0
   -7.2910   25.4020  -31.1310 H   0  0  0  0  0  0  0  0  0  0  0  0
   -3.1020   21.3214  -29.5320 H   0  0  0  0  0  0  0  0  0  0  0  0
   -1.7238   19.4432  -32.0708 H   0  0  0  0  0  0  0  0  0  0  0  0
   -1.8124   20.7656  -30.8727 H   0  0  0  0  0  0  0  0  0  0  0  0
    0.0728   20.5802  -32.9370 H   0  0  0  0  0  0  0  0  0  0  0  0
    0.2718   21.5865  -31.4969 H   0  0  0  0  0  0  0  0  0  0  0  0
    1.7402   19.1855  -32.2318 H   0  0  0  0  0  0  0  0  0  0  0  0
    1.9770   20.1664  -30.7800 H   0  0  0  0  0  0  0  0  0  0  0  0
    0.4630   17.6200  -31.1394 H   0  0  0  0  0  0  0  0  0  0  0  0
    1.1022   18.3403  -29.6346 H   0  0  0  0  0  0  0  0  0  0  0  0
    0.9642   22.0742  -28.2565 H   0  0  0  0  0  0  0  0  0  0  0  0
    0.6039   24.5230  -28.5514 H   0  0  0  0  0  0  0  0  0  0  0  0
   -3.3442   20.8452  -31.4948 H   0  0  0  0  0  0  0  0  0  0  0  0
   -4.6040   18.7075  -31.6094 H   0  0  0  0  0  0  0  0  0  0  0  0
   -9.1958   21.1443  -31.1841 H   0  0  0  0  0  0  0  0  0  0  0  0
   -8.9779   21.6685  -32.9170 H   0  0  0  0  0  0  0  0  0  0  0  0
  -10.3988   19.5898  -32.5679 H   0  0  0  0  0  0  0  0  0  0  0  0
   -9.0076   19.4269  -33.7005 H   0  0  0  0  0  0  0  0  0  0  0  0
   -8.9764   18.6103  -30.7505 H   0  0  0  0  0  0  0  0  0  0  0  0
   -9.2125   17.4858  -32.1374 H   0  0  0  0  0  0  0  0  0  0  0  0
   -6.8331   17.6421  -31.2307 H   0  0  0  0  0  0  0  0  0  0  0  0
   -7.0459   17.9614  -33.0121 H   0  0  0  0  0  0  0  0  0  0  0  0
  1  2  1  0
  2  3  2  0
  2  4  1  0
  4  5  2  0
  5  6  1  0
  6  7  1  0
  7  8  2  0
  7  9  2  0
  7 10  1  0
 10 11  2  0
 11 12  1  0
 12 13  1  0
 13 14  2  0
 13 15  2  0
 13 16  1  0
 16 17  1  0
 17 18  1  0
 18 19  1  0
 19 20  1  0
 12 21  2  0
 21 22  1  0
 22 23  2  0
 23 24  1  0
  5 25  1  0
 25 26  2  0
 26 27  1  0
 27 28  2  0
 28 29  1  0
 29 30  1  0
 30 31  1  0
 31 32  1  0
 28  4  1  0
 23 10  1  0
 32 27  1  0
 20 16  1  0
  1 33  1  0
  1 34  1  0
 11 35  1  0
 17 36  1  0
 17 37  1  0
 18 38  1  0
 18 39  1  0
 19 40  1  0
 19 41  1  0
 20 42  1  0
 20 43  1  0
 21 44  1  0
 22 45  1  0
 25 46  1  0
 26 47  1  0
 29 48  1  0
 29 49  1  0
 30 50  1  0
 30 51  1  0
 31 52  1  0
 31 53  1  0
 32 54  1  0
 32 55  1  0
M  CHG  2   6  -1  24  -1
M  END
>  <UniqueID>  (33) 
32

>  <SMILES>  (33) 
NC(=O)c1c([N-]S(=O)(=O)c2cc(S(=O)(=O)N3CCCC3)ccc2[O-])ccc2c1CCCC2

>  <Energy>  (33) 
71.17071170439138

>  <Genealogy>  (33) 
NC(=O)c1c([N-]S(=O)(=O)c2cc(S(=O)(=O)N3CCCC3)ccc2[O-])ccc2c1CCCC2 (protonated)
NC(=O)c1c([N-]S(=O)(=O)c2cc(S(=O)(=O)N3CCCC3)ccc2[O-])ccc2c1CCCC2 (3D coordinates assigned)
NC(=O)c1c([N-]S(=O)(=O)c2cc(S(=O)(=O)N3CCCC3)ccc2[O-])ccc2c1CCCC2 (nonaromatic ring conformer: 71.17071170439138 kcal/mol)

>  <smiles>  (33) 
NC(=O)c1c(NS(=O)(=O)c2cc(S(=O)(=O)N3CCCC3)ccc2O)ccc2c1CCCC2

>  <score_type>  (33) 
oracle

>  <origin>  (33) 
adgpu

>  <m_score__min__energy>  (33) 
-15.02

>  <m_primary>  (33) 
energy

$$$$
33:0
     RDKit          3D

 44 46  0  0  0  0  0  0  0  0999 V2000
   -5.7320   26.0870  -31.2120 O   0  0  0  0  0  0  0  0  0  0  0  0
   -5.2260   24.9410  -30.3830 S   0  0  0  0  0  0  0  0  0  0  0  0
   -5.6570   25.1550  -28.9580 O   0  0  0  0  0  0  0  0  0  0  0  0
   -3.4920   24.8940  -30.4710 N   0  0  0  0  0  0  0  0  0  0  0  0
   -2.9830   23.8120  -29.6330 C   0  0  0  0  0  0  0  0  0  0  0  0
   -1.9990   24.3730  -28.6480 C   0  0  0  0  0  0  0  0  0  0  0  0
   -2.4370   24.9070  -27.4270 C   0  0  0  0  0  0  0  0  0  0  0  0
   -1.5140   25.4570  -26.5350 C   0  0  0  0  0  0  0  0  0  0  0  0
   -0.1600   25.4770  -26.8790 C   0  0  0  0  0  0  0  0  0  0  0  0
    0.2470   24.9720  -28.0730 N   0  0  0  0  0  0  0  0  0  0  0  0
   -0.6320   24.4300  -28.9580 C   0  0  0  0  0  0  0  0  0  0  0  0
   -5.9030   23.4400  -31.0080 C   0  0  0  0  0  0  0  0  0  0  0  0
   -7.2150   23.3990  -31.5050 C   0  0  0  0  0  0  0  0  0  0  0  0
   -7.7520   22.1950  -31.9690 C   0  0  0  0  0  0  0  0  0  0  0  0
   -6.9860   21.0220  -31.9410 C   0  0  0  0  0  0  0  0  0  0  0  0
   -7.6840   19.5010  -32.4870 S   0  0  0  0  0  0  0  0  0  0  0  0
   -9.1180   19.7170  -32.8910 O   0  0  0  0  0  0  0  0  0  0  0  0
   -7.6500   18.5080  -31.3580 O   0  0  0  0  0  0  0  0  0  0  0  0
   -6.7560   18.8910  -33.8320 N   0  0  0  0  0  0  0  0  0  0  0  0
   -5.3630   19.3420  -33.7820 C   0  0  0  0  0  0  0  0  0  0  0  0
   -4.5400   18.2910  -34.5150 C   0  0  0  0  0  0  0  0  0  0  0  0
   -5.4080   17.0410  -34.5430 C   0  0  0  0  0  0  0  0  0  0  0  0
   -6.7000   17.4270  -33.8370 C   0  0  0  0  0  0  0  0  0  0  0  0
   -5.6790   21.0620  -31.4340 C   0  0  0  0  0  0  0  0  0  0  0  0
   -5.1410   22.2660  -30.9700 C   0  0  0  0  0  0  0  0  0  0  0  0
   -3.8174   23.3415  -29.0923 H   0  0  0  0  0  0  0  0  0  0  0  0
   -2.4875   23.0583  -30.2625 H   0  0  0  0  0  0  0  0  0  0  0  0
   -3.5070   24.8925  -27.1723 H   0  0  0  0  0  0  0  0  0  0  0  0
   -1.8493   25.8699  -25.5722 H   0  0  0  0  0  0  0  0  0  0  0  0
    0.5775   25.9021  -26.1823 H   0  0  0  0  0  0  0  0  0  0  0  0
   -0.2703   24.0355  -29.9190 H   0  0  0  0  0  0  0  0  0  0  0  0
   -7.8217   24.3162  -31.5294 H   0  0  0  0  0  0  0  0  0  0  0  0
   -8.7806   22.1681  -32.3579 H   0  0  0  0  0  0  0  0  0  0  0  0
   -7.1970   19.2240  -34.7220 H   0  0  0  0  0  0  0  0  0  0  0  0
   -5.2618   20.3181  -34.2790 H   0  0  0  0  0  0  0  0  0  0  0  0
   -5.0211   19.4608  -32.7433 H   0  0  0  0  0  0  0  0  0  0  0  0
   -4.3138   18.6249  -35.5384 H   0  0  0  0  0  0  0  0  0  0  0  0
   -3.5764   18.1074  -34.0173 H   0  0  0  0  0  0  0  0  0  0  0  0
   -5.6126   16.7382  -35.5805 H   0  0  0  0  0  0  0  0  0  0  0  0
   -4.9135   16.1898  -34.0522 H   0  0  0  0  0  0  0  0  0  0  0  0
   -7.5651   17.0164  -34.3784 H   0  0  0  0  0  0  0  0  0  0  0  0
   -6.7260   17.0266  -32.8128 H   0  0  0  0  0  0  0  0  0  0  0  0
   -5.0753   20.1431  -31.4013 H   0  0  0  0  0  0  0  0  0  0  0  0
   -4.1152   22.2911  -30.5736 H   0  0  0  0  0  0  0  0  0  0  0  0
  1  2  2  0
  2  3  2  0
  2  4  1  0
  4  5  1  0
  5  6  1  0
  6  7  2  0
  7  8  1  0
  8  9  2  0
  9 10  1  0
 10 11  2  0
  2 12  1  0
 12 13  2  0
 13 14  1  0
 14 15  2  0
 15 16  1  0
 16 17  2  0
 16 18  2  0
 16 19  1  0
 19 20  1  0
 20 21  1  0
 21 22  1  0
 22 23  1  0
 15 24  1  0
 24 25  2  0
 11  6  1  0
 25 12  1  0
 23 19  1  0
  5 26  1  0
  5 27  1  0
  7 28  1  0
  8 29  1  0
  9 30  1  0
 11 31  1  0
 13 32  1  0
 14 33  1  0
 19 34  1  0
 20 35  1  0
 20 36  1  0
 21 37  1  0
 21 38  1  0
 22 39  1  0
 22 40  1  0
 23 41  1  0
 23 42  1  0
 24 43  1  0
 25 44  1  0
M  CHG  2   4  -1  19   1
M  END
>  <UniqueID>  (34) 
33

>  <SMILES>  (34) 
O=S(=O)([N-]Cc1cccnc1)c1ccc(S(=O)(=O)[NH+]2CCCC2)cc1

>  <Energy>  (34) 
43.953279748271044

>  <Genealogy>  (34) 
O=S(=O)([N-]Cc1cccnc1)c1ccc(S(=O)(=O)[NH+]2CCCC2)cc1 (protonated)
O=S(=O)([N-]Cc1cccnc1)c1ccc(S(=O)(=O)[NH+]2CCCC2)cc1 (3D coordinates assigned)
O=S(=O)([N-]Cc1cccnc1)c1ccc(S(=O)(=O)[NH+]2CCCC2)cc1 (nonaromatic ring conformer: 43.953279748271044 kcal/mol)

>  <smiles>  (34) 
O=S(=O)(NCc1cccnc1)c1ccc(S(=O)(=O)N2CCCC2)cc1

>  <score_type>  (34) 
oracle

>  <origin>  (34) 
adgpu

>  <m_score__min__energy>  (34) 
-10.81

>  <m_primary>  (34) 
energy

$$$$
34:0
     RDKit          3D

 59 63  0  0  0  0  0  0  0  0999 V2000
   -0.8300   18.2590  -27.4580 C   0  0  0  0  0  0  0  0  0  0  0  0
   -0.9360   19.7490  -27.6060 C   0  0  0  0  0  0  0  0  0  0  0  0
   -2.0100   20.4480  -27.0230 C   0  0  0  0  0  0  0  0  0  0  0  0
   -2.0760   21.8460  -27.1200 C   0  0  0  0  0  0  0  0  0  0  0  0
   -1.0700   22.5550  -27.7940 C   0  0  0  0  0  0  0  0  0  0  0  0
   -1.1420   24.3190  -27.8870 S   0  0  0  0  0  0  0  0  0  0  0  0
   -1.9030   24.8760  -26.7090 O   0  0  0  0  0  0  0  0  0  0  0  0
    0.2550   24.8700  -27.8500 O   0  0  0  0  0  0  0  0  0  0  0  0
   -1.9160   24.8400  -29.3520 N   0  0  0  0  0  0  0  0  0  0  0  0
   -2.8710   24.0540  -30.0810 C   0  0  0  0  0  0  0  0  0  0  0  0
   -2.6750   22.6700  -30.2930 C   0  0  0  0  0  0  0  0  0  0  0  0
   -3.6670   21.9590  -30.9670 C   0  0  0  0  0  0  0  0  0  0  0  0
   -4.8290   22.5630  -31.4020 C   0  0  0  0  0  0  0  0  0  0  0  0
   -5.0450   23.9290  -31.2340 C   0  0  0  0  0  0  0  0  0  0  0  0
   -4.0520   24.6820  -30.5750 C   0  0  0  0  0  0  0  0  0  0  0  0
   -4.2450   26.0490  -30.3950 O   0  0  0  0  0  0  0  0  0  0  0  0
   -5.6380   21.5440  -32.0640 C   0  0  0  0  0  0  0  0  0  0  0  0
   -6.7880   21.7250  -32.5450 O   0  0  0  0  0  0  0  0  0  0  0  0
   -4.9410   20.2870  -32.0560 N   0  0  0  0  0  0  0  0  0  0  0  0
   -5.4270   19.0060  -32.4960 C   0  0  0  0  0  0  0  0  0  0  0  0
   -4.5930   18.1730  -33.2570 C   0  0  0  0  0  0  0  0  0  0  0  0
   -5.0540   16.9340  -33.7240 C   0  0  0  0  0  0  0  0  0  0  0  0
   -4.0040   15.9220  -34.7260 S   0  0  0  0  0  0  0  0  0  0  0  0
   -3.7980   16.5920  -36.0600 O   0  0  0  0  0  0  0  0  0  0  0  0
   -4.6830   14.5990  -34.9740 O   0  0  0  0  0  0  0  0  0  0  0  0
   -2.4490   15.6300  -33.9630 N   0  0  0  0  0  0  0  0  0  0  0  0
   -2.2630   16.4950  -32.7960 C   0  0  0  0  0  0  0  0  0  0  0  0
   -1.4350   17.7020  -33.2180 C   0  0  0  0  0  0  0  0  0  0  0  0
   -0.8250   17.3370  -34.5580 C   0  0  0  0  0  0  0  0  0  0  0  0
   -1.3410   15.9380  -34.8770 C   0  0  0  0  0  0  0  0  0  0  0  0
   -6.3520   16.5110  -33.4050 C   0  0  0  0  0  0  0  0  0  0  0  0
   -7.1900   17.3320  -32.6480 C   0  0  0  0  0  0  0  0  0  0  0  0
   -6.7410   18.5870  -32.2050 C   0  0  0  0  0  0  0  0  0  0  0  0
   -7.6030   19.4270  -31.5000 O   0  0  0  0  0  0  0  0  0  0  0  0
   -3.7160   20.5560  -31.3640 C   0  0  0  0  0  0  0  0  0  0  0  0
   -2.7970   19.7090  -31.1810 O   0  0  0  0  0  0  0  0  0  0  0  0
    0.0060   21.8580  -28.3710 C   0  0  0  0  0  0  0  0  0  0  0  0
    0.0760   20.4640  -28.2690 C   0  0  0  0  0  0  0  0  0  0  0  0
   -0.8114   17.9970  -26.3898 H   0  0  0  0  0  0  0  0  0  0  0  0
   -1.6964   17.7803  -27.9379 H   0  0  0  0  0  0  0  0  0  0  0  0
    0.0954   17.9078  -27.9379 H   0  0  0  0  0  0  0  0  0  0  0  0
   -2.7990   19.8969  -26.4903 H   0  0  0  0  0  0  0  0  0  0  0  0
   -2.9189   22.3880  -26.6663 H   0  0  0  0  0  0  0  0  0  0  0  0
   -1.7641   22.1675  -29.9357 H   0  0  0  0  0  0  0  0  0  0  0  0
   -5.9640   24.4063  -31.6049 H   0  0  0  0  0  0  0  0  0  0  0  0
   -3.5673   18.4952  -33.4895 H   0  0  0  0  0  0  0  0  0  0  0  0
   -3.2419   16.8288  -32.4214 H   0  0  0  0  0  0  0  0  0  0  0  0
   -1.7467   15.9440  -31.9961 H   0  0  0  0  0  0  0  0  0  0  0  0
   -2.0762   18.5902  -33.3183 H   0  0  0  0  0  0  0  0  0  0  0  0
   -0.6619   17.9428  -32.4735 H   0  0  0  0  0  0  0  0  0  0  0  0
   -1.1449   18.0499  -35.3323 H   0  0  0  0  0  0  0  0  0  0  0  0
    0.2741   17.3677  -34.5264 H   0  0  0  0  0  0  0  0  0  0  0  0
   -1.6972   15.9021  -35.9171 H   0  0  0  0  0  0  0  0  0  0  0  0
   -0.5338   15.2012  -34.7524 H   0  0  0  0  0  0  0  0  0  0  0  0
   -6.7108   15.5307  -33.7517 H   0  0  0  0  0  0  0  0  0  0  0  0
   -8.2065   16.9944  -32.3974 H   0  0  0  0  0  0  0  0  0  0  0  0
   -7.7470   20.3910  -31.7790 H   0  0  0  0  0  0  0  0  0  0  0  0
    0.7946   22.4096  -28.9038 H   0  0  0  0  0  0  0  0  0  0  0  0
    0.9276   19.9252  -28.7101 H   0  0  0  0  0  0  0  0  0  0  0  0
  1  2  1  0
  2  3  2  0
  3  4  1  0
  4  5  2  0
  5  6  1  0
  6  7  2  0
  6  8  2  0
  6  9  1  0
  9 10  1  0
 10 11  2  0
 11 12  1  0
 12 13  2  0
 13 14  1  0
 14 15  2  0
 15 16  1  0
 13 17  1  0
 17 18  2  0
 17 19  1  0
 19 20  1  0
 20 21  2  0
 21 22  1  0
 22 23  1  0
 23 24  2  0
 23 25  2  0
 23 26  1  0
 26 27  1  0
 27 28  1  0
 28 29  1  0
 29 30  1  0
 22 31  2  0
 31 32  1  0
 32 33  2  0
 33 34  1  0
 19 35  1  0
 35 36  2  0
  5 37  1  0
 37 38  2  0
 38  2  1  0
 15 10  1  0
 33 20  1  0
 35 12  1  0
 30 26  1  0
  1 39  1  0
  1 40  1  0
  1 41  1  0
  3 42  1  0
  4 43  1  0
 11 44  1  0
 14 45  1  0
 21 46  1  0
 27 47  1  0
 27 48  1  0
 28 49  1  0
 28 50  1  0
 29 51  1  0
 29 52  1  0
 30 53  1  0
 30 54  1  0
 31 55  1  0
 32 56  1  0
 34 57  1  0
 37 58  1  0
 38 59  1  0
M  CHG  2   9  -1  16  -1
M  END
>  <UniqueID>  (35) 
34

>  <SMILES>  (35) 
Cc1ccc(S(=O)(=O)[N-]c2cc3c(cc2[O-])C(=O)N(c2cc(S(=O)(=O)N4CCCC4)ccc2O)C3=O)cc1

>  <Energy>  (35) 
106.30468560748413

>  <Genealogy>  (35) 
Cc1ccc(S(=O)(=O)[N-]c2cc3c(cc2[O-])C(=O)N(c2cc(S(=O)(=O)N4CCCC4)ccc2O)C3=O)cc1 (protonated)
Cc1ccc(S(=O)(=O)[N-]c2cc3c(cc2[O-])C(=O)N(c2cc(S(=O)(=O)N4CCCC4)ccc2O)C3=O)cc1 (3D coordinates assigned)
Cc1ccc(S(=O)(=O)[N-]c2cc3c(cc2[O-])C(=O)N(c2cc(S(=O)(=O)N4CCCC4)ccc2O)C3=O)cc1 (nonaromatic ring conformer: 106.30468560748413 kcal/mol)

>  <smiles>  (35) 
Cc1ccc(S(=O)(=O)Nc2cc3c(cc2O)C(=O)N(c2cc(S(=O)(=O)N4CCCC4)ccc2O)C3=O)cc1

>  <score_type>  (35) 
oracle

>  <origin>  (35) 
adgpu

>  <m_score__min__energy>  (35) 
-13.300000000000001

>  <m_primary>  (35) 
energy

$$$$
35:0
     RDKit          3D

 61 64  0  0  0  0  0  0  0  0999 V2000
   -8.3760   21.6560  -32.1890 C   0  0  0  0  0  0  0  0  0  0  0  0
   -7.1570   22.4540  -31.7940 C   0  0  0  0  0  0  0  0  0  0  0  0
   -7.3820   23.7380  -31.2750 C   0  0  0  0  0  0  0  0  0  0  0  0
   -6.3250   24.5440  -30.8780 C   0  0  0  0  0  0  0  0  0  0  0  0
   -5.0140   24.0950  -30.9940 C   0  0  0  0  0  0  0  0  0  0  0  0
   -3.9640   24.9860  -30.5870 N   0  0  0  0  0  0  0  0  0  0  0  0
   -3.2580   24.9260  -29.3440 C   0  0  0  0  0  0  0  0  0  0  0  0
   -3.8450   24.5470  -28.2950 O   0  0  0  0  0  0  0  0  0  0  0  0
   -1.8730   25.2930  -29.3210 N   0  0  0  0  0  0  0  0  0  0  0  0
   -0.8200   24.7250  -28.5230 C   0  0  0  0  0  0  0  0  0  0  0  0
   -0.5640   23.3540  -28.6420 C   0  0  0  0  0  0  0  0  0  0  0  0
    0.4120   22.7430  -27.8510 C   0  0  0  0  0  0  0  0  0  0  0  0
    1.1300   23.4950  -26.9200 C   0  0  0  0  0  0  0  0  0  0  0  0
    0.8710   24.8630  -26.7720 C   0  0  0  0  0  0  0  0  0  0  0  0
    1.7400   25.8070  -25.5590 S   0  0  0  0  0  0  0  0  0  0  0  0
    2.8710   24.9850  -25.0050 O   0  0  0  0  0  0  0  0  0  0  0  0
    2.3310   27.0230  -26.2160 O   0  0  0  0  0  0  0  0  0  0  0  0
    0.7010   26.3010  -24.2360 N   0  0  0  0  0  0  0  0  0  0  0  0
   -0.4880   25.4460  -24.1550 C   0  0  0  0  0  0  0  0  0  0  0  0
   -1.6220   26.1440  -24.8840 C   0  0  0  0  0  0  0  0  0  0  0  0
   -1.2290   27.6090  -24.9290 C   0  0  0  0  0  0  0  0  0  0  0  0
    0.2070   27.6730  -24.4180 C   0  0  0  0  0  0  0  0  0  0  0  0
   -0.1020   25.4760  -27.5750 C   0  0  0  0  0  0  0  0  0  0  0  0
   -4.7490   22.7880  -31.4530 C   0  0  0  0  0  0  0  0  0  0  0  0
   -3.4170   22.3680  -31.4320 O   0  0  0  0  0  0  0  0  0  0  0  0
   -5.8220   21.9460  -31.8820 C   0  0  0  0  0  0  0  0  0  0  0  0
   -5.5010   20.2980  -32.5330 S   0  0  0  0  0  0  0  0  0  0  0  0
   -6.1580   20.1160  -33.8720 O   0  0  0  0  0  0  0  0  0  0  0  0
   -6.1080   19.2570  -31.6340 O   0  0  0  0  0  0  0  0  0  0  0  0
   -3.7900   19.9830  -32.7350 N   0  0  0  0  0  0  0  0  0  0  0  0
   -3.5560   18.5730  -33.0880 C   0  0  0  0  0  0  0  0  0  0  0  0
   -2.0900   18.3460  -33.5070 C   0  0  0  0  0  0  0  0  0  0  0  0
   -1.2810   19.4400  -33.1210 O   0  0  0  0  0  0  0  0  0  0  0  0
   -1.6720   20.6030  -33.8300 C   0  0  0  0  0  0  0  0  0  0  0  0
   -3.1900   20.8680  -33.7400 C   0  0  0  0  0  0  0  0  0  0  0  0
   -8.8991   21.3135  -31.2840 H   0  0  0  0  0  0  0  0  0  0  0  0
   -9.0505   22.2879  -32.7854 H   0  0  0  0  0  0  0  0  0  0  0  0
   -8.0666   20.7850  -32.7854 H   0  0  0  0  0  0  0  0  0  0  0  0
   -8.4125   24.1113  -31.1815 H   0  0  0  0  0  0  0  0  0  0  0  0
   -6.5253   25.5452  -30.4686 H   0  0  0  0  0  0  0  0  0  0  0  0
   -1.1359   22.7529  -29.3642 H   0  0  0  0  0  0  0  0  0  0  0  0
    0.6149   21.6676  -27.9621 H   0  0  0  0  0  0  0  0  0  0  0  0
    1.9008   23.0121  -26.3014 H   0  0  0  0  0  0  0  0  0  0  0  0
   -0.2819   24.4750  -24.6290 H   0  0  0  0  0  0  0  0  0  0  0  0
   -0.7611   25.2719  -23.1037 H   0  0  0  0  0  0  0  0  0  0  0  0
   -1.7297   25.7427  -25.9025 H   0  0  0  0  0  0  0  0  0  0  0  0
   -2.5875   25.9942  -24.3786 H   0  0  0  0  0  0  0  0  0  0  0  0
   -1.2855   27.9887  -25.9598 H   0  0  0  0  0  0  0  0  0  0  0  0
   -1.9030   28.2268  -24.3174 H   0  0  0  0  0  0  0  0  0  0  0  0
    0.8375   28.2000  -25.1492 H   0  0  0  0  0  0  0  0  0  0  0  0
    0.2419   28.2152  -23.4615 H   0  0  0  0  0  0  0  0  0  0  0  0
   -0.3049   26.5513  -27.4626 H   0  0  0  0  0  0  0  0  0  0  0  0
   -3.1020   21.4260  -31.2960 H   0  0  0  0  0  0  0  0  0  0  0  0
   -3.7833   17.9412  -32.2167 H   0  0  0  0  0  0  0  0  0  0  0  0
   -4.2078   18.3101  -33.9342 H   0  0  0  0  0  0  0  0  0  0  0  0
   -1.7145   17.4319  -33.0239 H   0  0  0  0  0  0  0  0  0  0  0  0
   -2.0481   18.2461  -34.6017 H   0  0  0  0  0  0  0  0  0  0  0  0
   -1.1374   21.4681  -33.4107 H   0  0  0  0  0  0  0  0  0  0  0  0
   -1.4221   20.4480  -34.8900 H   0  0  0  0  0  0  0  0  0  0  0  0
   -3.3614   21.9159  -33.4528 H   0  0  0  0  0  0  0  0  0  0  0  0
   -3.6518   20.6718  -34.7189 H   0  0  0  0  0  0  0  0  0  0  0  0
  1  2  1  0
  2  3  2  0
  3  4  1  0
  4  5  2  0
  5  6  1  0
  6  7  1  0
  7  8  2  0
  7  9  1  0
  9 10  1  0
 10 11  2  0
 11 12  1  0
 12 13  2  0
 13 14  1  0
 14 15  1  0
 15 16  2  0
 15 17  2  0
 15 18  1  0
 18 19  1  0
 19 20  1  0
 20 21  1  0
 21 22  1  0
 14 23  2  0
  5 24  1  0
 24 25  1  0
 24 26  2  0
 26 27  1  0
 27 28  2  0
 27 29  2  0
 27 30  1  0
 30 31  1  0
 31 32  1  0
 32 33  1  0
 33 34  1  0
 34 35  1  0
 26  2  1  0
 35 30  1  0
 23 10  1  0
 22 18  1  0
  1 36  1  0
  1 37  1  0
  1 38  1  0
  3 39  1  0
  4 40  1  0
 11 41  1  0
 12 42  1  0
 13 43  1  0
 19 44  1  0
 19 45  1  0
 20 46  1  0
 20 47  1  0
 21 48  1  0
 21 49  1  0
 22 50  1  0
 22 51  1  0
 23 52  1  0
 25 53  1  0
 31 54  1  0
 31 55  1  0
 32 56  1  0
 32 57  1  0
 34 58  1  0
 34 59  1  0
 35 60  1  0
 35 61  1  0
M  CHG  2   6  -1   9  -1
M  END
>  <UniqueID>  (36) 
35

>  <SMILES>  (36) 
Cc1ccc([N-]C(=O)[N-]c2cccc(S(=O)(=O)N3CCCC3)c2)c(O)c1S(=O)(=O)N1CCOCC1

>  <Energy>  (36) 
88.8318032958939

>  <Genealogy>  (36) 
Cc1ccc([N-]C(=O)[N-]c2cccc(S(=O)(=O)N3CCCC3)c2)c(O)c1S(=O)(=O)N1CCOCC1 (protonated)
Cc1ccc([N-]C(=O)[N-]c2cccc(S(=O)(=O)N3CCCC3)c2)c(O)c1S(=O)(=O)N1CCOCC1 (3D coordinates assigned)
Cc1ccc([N-]C(=O)[N-]c2cccc(S(=O)(=O)N3CCCC3)c2)c(O)c1S(=O)(=O)N1CCOCC1 (nonaromatic ring conformer: 88.8318032958939 kcal/mol)

>  <smiles>  (36) 
Cc1ccc(NC(=O)Nc2cccc(S(=O)(=O)N3CCCC3)c2)c(O)c1S(=O)(=O)N1CCOCC1

>  <score_type>  (36) 
oracle

>  <origin>  (36) 
adgpu

>  <m_score__min__energy>  (36) 
-14.76

>  <m_primary>  (36) 
energy

$$$$
36:0
     RDKit          3D

 59 62  0  0  0  0  0  0  0  0999 V2000
   -1.9390   23.5600  -29.7220 O   0  0  0  0  0  0  0  0  0  0  0  0
   -2.5220   23.0530  -30.7190 C   0  0  0  0  0  0  0  0  0  0  0  0
   -1.7610   22.3410  -31.7040 N   0  0  0  0  0  0  0  0  0  0  0  0
   -1.2870   20.9880  -31.6100 C   0  0  0  0  0  0  0  0  0  0  0  0
   -0.6870   20.4940  -30.4370 C   0  0  0  0  0  0  0  0  0  0  0  0
   -0.2570   19.1610  -30.3640 C   0  0  0  0  0  0  0  0  0  0  0  0
    0.5090   18.5530  -28.8900 S   0  0  0  0  0  0  0  0  0  0  0  0
    1.9540   18.9640  -28.8850 O   0  0  0  0  0  0  0  0  0  0  0  0
    0.4540   17.0500  -28.8970 O   0  0  0  0  0  0  0  0  0  0  0  0
   -0.2550   19.1450  -27.4330 N   0  0  0  0  0  0  0  0  0  0  0  0
   -0.3850   20.6020  -27.4290 C   0  0  0  0  0  0  0  0  0  0  0  0
   -1.5770   20.9300  -26.5390 C   0  0  0  0  0  0  0  0  0  0  0  0
   -2.3420   19.6230  -26.3880 C   0  0  0  0  0  0  0  0  0  0  0  0
   -1.6120   18.6300  -27.2790 C   0  0  0  0  0  0  0  0  0  0  0  0
   -0.4270   18.3190  -31.4700 C   0  0  0  0  0  0  0  0  0  0  0  0
   -1.0470   18.7960  -32.6270 C   0  0  0  0  0  0  0  0  0  0  0  0
   -1.4860   20.1240  -32.6980 C   0  0  0  0  0  0  0  0  0  0  0  0
   -2.1140   20.5960  -33.8510 O   0  0  0  0  0  0  0  0  0  0  0  0
   -3.9870   23.2370  -30.8820 C   0  0  0  0  0  0  0  0  0  0  0  0
   -4.7960   22.1180  -31.1610 C   0  0  0  0  0  0  0  0  0  0  0  0
   -6.1810   22.2530  -31.3260 C   0  0  0  0  0  0  0  0  0  0  0  0
   -7.1860   20.8460  -31.6650 S   0  0  0  0  0  0  0  0  0  0  0  0
   -7.6570   20.8900  -33.0920 O   0  0  0  0  0  0  0  0  0  0  0  0
   -8.3880   20.8870  -30.7630 O   0  0  0  0  0  0  0  0  0  0  0  0
   -6.2560   19.3910  -31.3710 N   0  0  0  0  0  0  0  0  0  0  0  0
   -7.1090   18.1870  -31.3720 C   0  0  0  0  0  0  0  0  0  0  0  0
   -7.5560   17.7710  -32.7870 C   0  0  0  0  0  0  0  0  0  0  0  0
   -6.4450   17.9220  -33.8440 C   0  0  0  0  0  0  0  0  0  0  0  0
   -5.0680   18.0940  -33.2030 C   0  0  0  0  0  0  0  0  0  0  0  0
   -5.0620   19.3050  -32.2540 C   0  0  0  0  0  0  0  0  0  0  0  0
   -6.7720   23.5140  -31.1990 C   0  0  0  0  0  0  0  0  0  0  0  0
   -5.9870   24.6330  -30.9230 C   0  0  0  0  0  0  0  0  0  0  0  0
   -4.6040   24.5060  -30.7620 C   0  0  0  0  0  0  0  0  0  0  0  0
   -3.8620   25.6450  -30.4710 O   0  0  0  0  0  0  0  0  0  0  0  0
   -0.5542   21.1585  -29.5705 H   0  0  0  0  0  0  0  0  0  0  0  0
    0.5284   21.0635  -27.0255 H   0  0  0  0  0  0  0  0  0  0  0  0
   -0.5318   20.9900  -28.4478 H   0  0  0  0  0  0  0  0  0  0  0  0
   -1.2363   21.2918  -25.5577 H   0  0  0  0  0  0  0  0  0  0  0  0
   -2.2044   21.7229  -26.9722 H   0  0  0  0  0  0  0  0  0  0  0  0
   -2.3270   19.2857  -25.3411 H   0  0  0  0  0  0  0  0  0  0  0  0
   -3.3996   19.7300  -26.6711 H   0  0  0  0  0  0  0  0  0  0  0  0
   -1.5919   17.6366  -26.8069 H   0  0  0  0  0  0  0  0  0  0  0  0
   -2.1127   18.5201  -28.2522 H   0  0  0  0  0  0  0  0  0  0  0  0
   -0.0712   17.2790  -31.4274 H   0  0  0  0  0  0  0  0  0  0  0  0
   -1.1912   18.1252  -33.4868 H   0  0  0  0  0  0  0  0  0  0  0  0
   -2.2440   21.5890  -34.0160 H   0  0  0  0  0  0  0  0  0  0  0  0
   -4.3338   21.1238  -31.2506 H   0  0  0  0  0  0  0  0  0  0  0  0
   -6.5443   17.3562  -30.9237 H   0  0  0  0  0  0  0  0  0  0  0  0
   -8.0153   18.4236  -30.7953 H   0  0  0  0  0  0  0  0  0  0  0  0
   -7.8705   16.7173  -32.7585 H   0  0  0  0  0  0  0  0  0  0  0  0
   -8.3785   18.4402  -33.0797 H   0  0  0  0  0  0  0  0  0  0  0  0
   -6.4325   17.0230  -34.4777 H   0  0  0  0  0  0  0  0  0  0  0  0
   -6.6595   18.8228  -34.4378 H   0  0  0  0  0  0  0  0  0  0  0  0
   -4.8181   17.1867  -32.6335 H   0  0  0  0  0  0  0  0  0  0  0  0
   -4.3248   18.2607  -33.9967 H   0  0  0  0  0  0  0  0  0  0  0  0
   -4.1664   19.2414  -31.6186 H   0  0  0  0  0  0  0  0  0  0  0  0
   -5.0707   20.2042  -32.8875 H   0  0  0  0  0  0  0  0  0  0  0  0
   -7.8601   23.6236  -31.3172 H   0  0  0  0  0  0  0  0  0  0  0  0
   -6.4591   25.6223  -30.8313 H   0  0  0  0  0  0  0  0  0  0  0  0
  1  2  2  0
  2  3  1  0
  3  4  1  0
  4  5  2  0
  5  6  1  0
  6  7  1  0
  7  8  2  0
  7  9  2  0
  7 10  1  0
 10 11  1  0
 11 12  1  0
 12 13  1  0
 13 14  1  0
  6 15  2  0
 15 16  1  0
 16 17  2  0
 17 18  1  0
  2 19  1  0
 19 20  2  0
 20 21  1  0
 21 22  1  0
 22 23  2  0
 22 24  2  0
 22 25  1  0
 25 26  1  0
 26 27  1  0
 27 28  1  0
 28 29  1  0
 29 30  1  0
 21 31  2  0
 31 32  1  0
 32 33  2  0
 33 34  1  0
 17  4  1  0
 33 19  1  0
 14 10  1  0
 30 25  1  0
  5 35  1  0
 11 36  1  0
 11 37  1  0
 12 38  1  0
 12 39  1  0
 13 40  1  0
 13 41  1  0
 14 42  1  0
 14 43  1  0
 15 44  1  0
 16 45  1  0
 18 46  1  0
 20 47  1  0
 26 48  1  0
 26 49  1  0
 27 50  1  0
 27 51  1  0
 28 52  1  0
 28 53  1  0
 29 54  1  0
 29 55  1  0
 30 56  1  0
 30 57  1  0
 31 58  1  0
 32 59  1  0
M  CHG  2   3  -1  34  -1
M  END
>  <UniqueID>  (37) 
36

>  <SMILES>  (37) 
O=C([N-]c1cc(S(=O)(=O)N2CCCC2)ccc1O)c1cc(S(=O)(=O)N2CCCCC2)ccc1[O-]

>  <Energy>  (37) 
75.47303907738429

>  <Genealogy>  (37) 
O=C([N-]c1cc(S(=O)(=O)N2CCCC2)ccc1O)c1cc(S(=O)(=O)N2CCCCC2)ccc1[O-] (protonated)
O=C([N-]c1cc(S(=O)(=O)N2CCCC2)ccc1O)c1cc(S(=O)(=O)N2CCCCC2)ccc1[O-] (3D coordinates assigned)
O=C([N-]c1cc(S(=O)(=O)N2CCCC2)ccc1O)c1cc(S(=O)(=O)N2CCCCC2)ccc1[O-] (nonaromatic ring conformer: 75.47303907738429 kcal/mol)

>  <smiles>  (37) 
O=C(Nc1cc(S(=O)(=O)N2CCCC2)ccc1O)c1cc(S(=O)(=O)N2CCCCC2)ccc1O

>  <score_type>  (37) 
oracle

>  <origin>  (37) 
adgpu

>  <m_score__min__energy>  (37) 
-14.43

>  <m_primary>  (37) 
energy

$$$$
37:0
     RDKit          3D

 48 51  0  0  0  0  0  0  0  0999 V2000
   -5.6730   25.2160  -28.9220 O   0  0  0  0  0  0  0  0  0  0  0  0
   -5.2320   24.9390  -30.3330 S   0  0  0  0  0  0  0  0  0  0  0  0
   -5.7190   26.0570  -31.2100 O   0  0  0  0  0  0  0  0  0  0  0  0
   -3.5010   24.8780  -30.4060 N   0  0  0  0  0  0  0  0  0  0  0  0
   -2.6690   23.9390  -29.7110 C   0  0  0  0  0  0  0  0  0  0  0  0
   -1.9590   24.3820  -28.5860 C   0  0  0  0  0  0  0  0  0  0  0  0
   -1.1350   23.5030  -27.8760 C   0  0  0  0  0  0  0  0  0  0  0  0
   -1.0200   22.1720  -28.2860 C   0  0  0  0  0  0  0  0  0  0  0  0
   -1.7130   21.7240  -29.4190 C   0  0  0  0  0  0  0  0  0  0  0  0
   -2.5460   22.5980  -30.1190 C   0  0  0  0  0  0  0  0  0  0  0  0
   -1.5590   20.3950  -29.8310 O   0  0  0  0  0  0  0  0  0  0  0  0
   -0.5080   19.5770  -29.3060 C   0  0  0  0  0  0  0  0  0  0  0  0
   -0.3100   19.8620  -27.8100 C   0  0  0  0  0  0  0  0  0  0  0  0
   -0.2200   21.2690  -27.5820 O   0  0  0  0  0  0  0  0  0  0  0  0
   -5.9070   23.4230  -30.9220 C   0  0  0  0  0  0  0  0  0  0  0  0
   -5.3260   22.7900  -32.0290 C   0  0  0  0  0  0  0  0  0  0  0  0
   -5.8620   21.5960  -32.5190 C   0  0  0  0  0  0  0  0  0  0  0  0
   -6.9830   21.0200  -31.9020 C   0  0  0  0  0  0  0  0  0  0  0  0
   -7.6880   19.5280  -32.5260 S   0  0  0  0  0  0  0  0  0  0  0  0
   -7.8530   18.5670  -31.3780 O   0  0  0  0  0  0  0  0  0  0  0  0
   -9.0450   19.8120  -33.1090 O   0  0  0  0  0  0  0  0  0  0  0  0
   -6.6420   18.8210  -33.7400 N   0  0  0  0  0  0  0  0  0  0  0  0
   -6.8550   17.3720  -33.8470 C   0  0  0  0  0  0  0  0  0  0  0  0
   -5.8650   16.6930  -32.9140 C   0  0  0  0  0  0  0  0  0  0  0  0
   -4.7830   17.7270  -32.6480 C   0  0  0  0  0  0  0  0  0  0  0  0
   -5.2290   18.9900  -33.3760 C   0  0  0  0  0  0  0  0  0  0  0  0
   -7.5550   21.6430  -30.7840 C   0  0  0  0  0  0  0  0  0  0  0  0
   -7.0220   22.8400  -30.2970 C   0  0  0  0  0  0  0  0  0  0  0  0
   -2.0508   25.4284  -28.2595 H   0  0  0  0  0  0  0  0  0  0  0  0
   -0.5784   23.8586  -26.9964 H   0  0  0  0  0  0  0  0  0  0  0  0
   -3.1084   22.2372  -30.9928 H   0  0  0  0  0  0  0  0  0  0  0  0
   -0.7699   18.5174  -29.4423 H   0  0  0  0  0  0  0  0  0  0  0  0
    0.4255   19.8054  -29.8412 H   0  0  0  0  0  0  0  0  0  0  0  0
   -1.1639   19.4569  -27.2471 H   0  0  0  0  0  0  0  0  0  0  0  0
    0.6225   19.3844  -27.4747 H   0  0  0  0  0  0  0  0  0  0  0  0
   -4.4446   23.2347  -32.5142 H   0  0  0  0  0  0  0  0  0  0  0  0
   -5.4038   21.1063  -33.3909 H   0  0  0  0  0  0  0  0  0  0  0  0
   -6.8400   19.2850  -34.6580 H   0  0  0  0  0  0  0  0  0  0  0  0
   -7.8838   17.1209  -33.5496 H   0  0  0  0  0  0  0  0  0  0  0  0
   -6.7044   17.0343  -34.8830 H   0  0  0  0  0  0  0  0  0  0  0  0
   -6.3587   16.4028  -31.9748 H   0  0  0  0  0  0  0  0  0  0  0  0
   -5.4518   15.7743  -33.3559 H   0  0  0  0  0  0  0  0  0  0  0  0
   -4.6929   17.9184  -31.5685 H   0  0  0  0  0  0  0  0  0  0  0  0
   -3.7988   17.3831  -32.9988 H   0  0  0  0  0  0  0  0  0  0  0  0
   -5.1139   19.8628  -32.7165 H   0  0  0  0  0  0  0  0  0  0  0  0
   -4.6166   19.1527  -34.2752 H   0  0  0  0  0  0  0  0  0  0  0  0
   -8.4257   21.1886  -30.2886 H   0  0  0  0  0  0  0  0  0  0  0  0
   -7.4769   23.3269  -29.4218 H   0  0  0  0  0  0  0  0  0  0  0  0
  1  2  2  0
  2  3  2  0
  2  4  1  0
  4  5  1  0
  5  6  2  0
  6  7  1  0
  7  8  2  0
  8  9  1  0
  9 10  2  0
  9 11  1  0
 11 12  1  0
 12 13  1  0
 13 14  1  0
  2 15  1  0
 15 16  2  0
 16 17  1  0
 17 18  2  0
 18 19  1  0
 19 20  2  0
 19 21  2  0
 19 22  1  0
 22 23  1  0
 23 24  1  0
 24 25  1  0
 25 26  1  0
 18 27  1  0
 27 28  2  0
 10  5  1  0
 28 15  1  0
 14  8  1  0
 26 22  1  0
  6 29  1  0
  7 30  1  0
 10 31  1  0
 12 32  1  0
 12 33  1  0
 13 34  1  0
 13 35  1  0
 16 36  1  0
 17 37  1  0
 22 38  1  0
 23 39  1  0
 23 40  1  0
 24 41  1  0
 24 42  1  0
 25 43  1  0
 25 44  1  0
 26 45  1  0
 26 46  1  0
 27 47  1  0
 28 48  1  0
M  CHG  2   4  -1  22   1
M  END
>  <UniqueID>  (38) 
37

>  <SMILES>  (38) 
O=S(=O)([N-]c1ccc2c(c1)OCCO2)c1ccc(S(=O)(=O)[NH+]2CCCC2)cc1

>  <Energy>  (38) 
55.93299526390005

>  <Genealogy>  (38) 
O=S(=O)([N-]c1ccc2c(c1)OCCO2)c1ccc(S(=O)(=O)[NH+]2CCCC2)cc1 (protonated)
O=S(=O)([N-]c1ccc2c(c1)OCCO2)c1ccc(S(=O)(=O)[NH+]2CCCC2)cc1 (3D coordinates assigned)
O=S(=O)([N-]c1ccc2c(c1)OCCO2)c1ccc(S(=O)(=O)[NH+]2CCCC2)cc1 (nonaromatic ring conformer: 55.93299526390005 kcal/mol)

>  <smiles>  (38) 
O=S(=O)(Nc1ccc2c(c1)OCCO2)c1ccc(S(=O)(=O)N2CCCC2)cc1

>  <score_type>  (38) 
oracle

>  <origin>  (38) 
adgpu

>  <m_score__min__energy>  (38) 
-10.800000000000001

>  <m_primary>  (38) 
energy

$$$$
38:0
     RDKit          3D

 58 61  0  0  0  0  0  0  0  0999 V2000
   -5.7480   16.6530  -31.3480 O   0  0  0  0  0  0  0  0  0  0  0  0
   -6.2370   16.5900  -32.5060 C   0  0  0  0  0  0  0  0  0  0  0  0
   -5.4610   15.8860  -33.5870 C   0  0  0  0  0  0  0  0  0  0  0  0
   -5.1330   16.9970  -35.0000 S   0  0  0  0  0  0  0  0  0  0  0  0
   -3.9750   18.0360  -34.1070 C   0  0  0  0  0  0  0  0  0  0  0  0
   -2.8490   17.4760  -33.4990 C   0  0  0  0  0  0  0  0  0  0  0  0
   -1.9570   18.3040  -32.8180 C   0  0  0  0  0  0  0  0  0  0  0  0
   -2.1940   19.6870  -32.7380 C   0  0  0  0  0  0  0  0  0  0  0  0
   -1.2600   20.5790  -32.0140 C   0  0  0  0  0  0  0  0  0  0  0  0
   -0.3140   21.1370  -32.6360 O   0  0  0  0  0  0  0  0  0  0  0  0
   -1.3970   20.7650  -30.5990 N   0  0  0  0  0  0  0  0  0  0  0  0
   -1.3710   22.0150  -29.8960 C   0  0  0  0  0  0  0  0  0  0  0  0
   -0.4640   22.2660  -28.8550 C   0  0  0  0  0  0  0  0  0  0  0  0
   -0.4480   23.5090  -28.2160 C   0  0  0  0  0  0  0  0  0  0  0  0
   -1.3330   24.5310  -28.6090 C   0  0  0  0  0  0  0  0  0  0  0  0
   -1.2980   25.8410  -27.9100 C   0  0  0  0  0  0  0  0  0  0  0  0
   -1.1310   26.9070  -28.5610 O   0  0  0  0  0  0  0  0  0  0  0  0
   -1.4410   25.9210  -26.5300 O   0  0  0  0  0  0  0  0  0  0  0  0
   -2.2280   24.2810  -29.6720 C   0  0  0  0  0  0  0  0  0  0  0  0
   -3.1150   25.2570  -30.1120 O   0  0  0  0  0  0  0  0  0  0  0  0
   -2.2350   23.0340  -30.3080 C   0  0  0  0  0  0  0  0  0  0  0  0
   -3.3480   20.2000  -33.3570 C   0  0  0  0  0  0  0  0  0  0  0  0
   -4.1990   19.3730  -34.0190 N   0  0  0  0  0  0  0  0  0  0  0  0
   -7.4710   17.2700  -32.7730 N   0  0  0  0  0  0  0  0  0  0  0  0
   -7.7560   18.6410  -32.4720 C   0  0  0  0  0  0  0  0  0  0  0  0
   -9.0770   19.0950  -32.5470 C   0  0  0  0  0  0  0  0  0  0  0  0
   -9.3790   20.4310  -32.2700 C   0  0  0  0  0  0  0  0  0  0  0  0
   -8.3590   21.3270  -31.9400 C   0  0  0  0  0  0  0  0  0  0  0  0
   -7.0250   20.8930  -31.9030 C   0  0  0  0  0  0  0  0  0  0  0  0
   -5.7290   22.0270  -31.5070 S   0  0  0  0  0  0  0  0  0  0  0  0
   -5.0940   22.5070  -32.7830 O   0  0  0  0  0  0  0  0  0  0  0  0
   -4.6780   21.3090  -30.7050 O   0  0  0  0  0  0  0  0  0  0  0  0
   -6.2910   23.4110  -30.5990 N   0  0  0  0  0  0  0  0  0  0  0  0
   -5.5770   23.5640  -29.3320 C   0  0  0  0  0  0  0  0  0  0  0  0
   -5.6840   25.0320  -28.9590 C   0  0  0  0  0  0  0  0  0  0  0  0
   -5.9740   25.7570  -30.2660 C   0  0  0  0  0  0  0  0  0  0  0  0
   -6.0830   24.6650  -31.3200 C   0  0  0  0  0  0  0  0  0  0  0  0
   -6.7290   19.5490  -32.1720 C   0  0  0  0  0  0  0  0  0  0  0  0
   -4.5023   15.5406  -33.1728 H   0  0  0  0  0  0  0  0  0  0  0  0
   -6.0591   15.0354  -33.9458 H   0  0  0  0  0  0  0  0  0  0  0  0
   -2.6676   16.3926  -33.5568 H   0  0  0  0  0  0  0  0  0  0  0  0
   -1.0642   17.8728  -32.3415 H   0  0  0  0  0  0  0  0  0  0  0  0
    0.2383   21.4801  -28.5401 H   0  0  0  0  0  0  0  0  0  0  0  0
    0.2637   23.6907  -27.3972 H   0  0  0  0  0  0  0  0  0  0  0  0
   -2.9289   22.8536  -31.1423 H   0  0  0  0  0  0  0  0  0  0  0  0
   -3.5630   21.2775  -33.3049 H   0  0  0  0  0  0  0  0  0  0  0  0
   -9.8811   18.3978  -32.8251 H   0  0  0  0  0  0  0  0  0  0  0  0
  -10.4220   20.7780  -32.3119 H   0  0  0  0  0  0  0  0  0  0  0  0
   -8.6021   22.3746  -31.7088 H   0  0  0  0  0  0  0  0  0  0  0  0
   -6.0409   22.9385  -28.5551 H   0  0  0  0  0  0  0  0  0  0  0  0
   -4.5269   23.2496  -29.4236 H   0  0  0  0  0  0  0  0  0  0  0  0
   -6.5027   25.1887  -28.2413 H   0  0  0  0  0  0  0  0  0  0  0  0
   -4.7658   25.4018  -28.4792 H   0  0  0  0  0  0  0  0  0  0  0  0
   -6.9178   26.3174  -30.1938 H   0  0  0  0  0  0  0  0  0  0  0  0
   -5.1874   26.4854  -30.5123 H   0  0  0  0  0  0  0  0  0  0  0  0
   -6.9340   24.8650  -31.9877 H   0  0  0  0  0  0  0  0  0  0  0  0
   -5.1766   24.6206  -31.9417 H   0  0  0  0  0  0  0  0  0  0  0  0
   -5.6847   19.2041  -32.1477 H   0  0  0  0  0  0  0  0  0  0  0  0
  1  2  2  0
  2  3  1  0
  3  4  1  0
  4  5  1  0
  5  6  2  0
  6  7  1  0
  7  8  2  0
  8  9  1  0
  9 10  2  0
  9 11  1  0
 11 12  1  0
 12 13  2  0
 13 14  1  0
 14 15  2  0
 15 16  1  0
 16 17  2  0
 16 18  1  0
 15 19  1  0
 19 20  1  0
 19 21  2  0
  8 22  1  0
 22 23  2  0
  2 24  1  0
 24 25  1  0
 25 26  2  0
 26 27  1  0
 27 28  2  0
 28 29  1  0
 29 30  1  0
 30 31  2  0
 30 32  2  0
 30 33  1  0
 33 34  1  0
 34 35  1  0
 35 36  1  0
 36 37  1  0
 29 38  2  0
 23  5  1  0
 38 25  1  0
 21 12  1  0
 37 33  1  0
  3 39  1  0
  3 40  1  0
  6 41  1  0
  7 42  1  0
 13 43  1  0
 14 44  1  0
 21 45  1  0
 22 46  1  0
 26 47  1  0
 27 48  1  0
 28 49  1  0
 34 50  1  0
 34 51  1  0
 35 52  1  0
 35 53  1  0
 36 54  1  0
 36 55  1  0
 37 56  1  0
 37 57  1  0
 38 58  1  0
M  CHG  4  11  -1  18  -1  20  -1  24  -1
M  END
>  <UniqueID>  (39) 
38

>  <SMILES>  (39) 
O=C(CSc1ccc(C(=O)[N-]c2ccc(C(=O)[O-])c([O-])c2)cn1)[N-]c1cccc(S(=O)(=O)N2CCCC2)c1

>  <Energy>  (39) 
70.53160270028967

>  <Genealogy>  (39) 
O=C(CSc1ccc(C(=O)[N-]c2ccc(C(=O)[O-])c([O-])c2)cn1)[N-]c1cccc(S(=O)(=O)N2CCCC2)c1 (protonated)
O=C(CSc1ccc(C(=O)[N-]c2ccc(C(=O)[O-])c([O-])c2)cn1)[N-]c1cccc(S(=O)(=O)N2CCCC2)c1 (3D coordinates assigned)
O=C(CSc1ccc(C(=O)[N-]c2ccc(C(=O)[O-])c([O-])c2)cn1)[N-]c1cccc(S(=O)(=O)N2CCCC2)c1 (nonaromatic ring conformer: 70.53160270028967 kcal/mol)

>  <smiles>  (39) 
O=C(CSc1ccc(C(=O)Nc2ccc(C(=O)O)c(O)c2)cn1)Nc1cccc(S(=O)(=O)N2CCCC2)c1

>  <score_type>  (39) 
oracle

>  <origin>  (39) 
adgpu

>  <m_score__min__energy>  (39) 
-14.82

>  <m_primary>  (39) 
energy

$$$$
39:0
     RDKit          3D

 38 41  0  0  0  0  0  0  0  0999 V2000
   -5.7390   26.1390  -31.2190 O   0  0  0  0  0  0  0  0  0  0  0  0
   -5.2740   24.9180  -30.4730 S   0  0  0  0  0  0  0  0  0  0  0  0
   -5.8210   24.9580  -29.0740 O   0  0  0  0  0  0  0  0  0  0  0  0
   -3.5410   24.9230  -30.4060 N   0  0  0  0  0  0  0  0  0  0  0  0
   -2.7460   24.1750  -29.4750 C   0  0  0  0  0  0  0  0  0  0  0  0
   -3.0890   22.8670  -29.0860 C   0  0  0  0  0  0  0  0  0  0  0  0
   -2.2990   22.1650  -28.1640 C   0  0  0  0  0  0  0  0  0  0  0  0
   -1.1660   22.7860  -27.6010 C   0  0  0  0  0  0  0  0  0  0  0  0
   -0.8120   24.0790  -28.0090 C   0  0  0  0  0  0  0  0  0  0  0  0
   -1.5980   24.7710  -28.9360 C   0  0  0  0  0  0  0  0  0  0  0  0
   -1.2340   26.0570  -29.3160 O   0  0  0  0  0  0  0  0  0  0  0  0
   -0.2710   22.0360  -26.6410 C   0  0  0  0  0  0  0  0  0  0  0  0
   -0.9640   20.9150  -25.9910 N   0  0  0  0  0  0  0  0  0  0  0  0
   -1.6040   20.0490  -26.9890 C   0  0  0  0  0  0  0  0  0  0  0  0
   -2.7300   20.7920  -27.7180 C   0  0  0  0  0  0  0  0  0  0  0  0
   -5.8440   23.4540  -31.2660 C   0  0  0  0  0  0  0  0  0  0  0  0
   -4.9460   22.6540  -32.0140 C   0  0  0  0  0  0  0  0  0  0  0  0
   -5.3890   21.4700  -32.6320 C   0  0  0  0  0  0  0  0  0  0  0  0
   -6.7280   21.1220  -32.4830 C   0  0  0  0  0  0  0  0  0  0  0  0
   -7.4280   20.0420  -32.9630 C   0  0  0  0  0  0  0  0  0  0  0  0
   -8.7180   20.2360  -32.4900 C   0  0  0  0  0  0  0  0  0  0  0  0
   -9.7780   19.3750  -32.7360 O   0  0  0  0  0  0  0  0  0  0  0  0
   -8.8430   21.3680  -31.7550 N   0  0  0  0  0  0  0  0  0  0  0  0
   -7.6050   21.8940  -31.7660 C   0  0  0  0  0  0  0  0  0  0  0  0
   -7.1970   23.0720  -31.1450 C   0  0  0  0  0  0  0  0  0  0  0  0
   -3.9855   22.3904  -29.5092 H   0  0  0  0  0  0  0  0  0  0  0  0
    0.0909   24.5533  -27.5970 H   0  0  0  0  0  0  0  0  0  0  0  0
    0.5930   21.6430  -27.1969 H   0  0  0  0  0  0  0  0  0  0  0  0
    0.0423   22.7387  -25.8548 H   0  0  0  0  0  0  0  0  0  0  0  0
   -1.6970   21.2970  -25.3470 H   0  0  0  0  0  0  0  0  0  0  0  0
   -0.8504   19.7278  -27.7231 H   0  0  0  0  0  0  0  0  0  0  0  0
   -2.0345   19.1779  -26.4734 H   0  0  0  0  0  0  0  0  0  0  0  0
   -3.0279   20.2081  -28.6014 H   0  0  0  0  0  0  0  0  0  0  0  0
   -3.5708   20.9087  -27.0184 H   0  0  0  0  0  0  0  0  0  0  0  0
   -3.8942   22.9606  -32.1126 H   0  0  0  0  0  0  0  0  0  0  0  0
   -4.6996   20.8404  -33.2136 H   0  0  0  0  0  0  0  0  0  0  0  0
   -7.0521   19.2132  -33.5808 H   0  0  0  0  0  0  0  0  0  0  0  0
   -7.9095   23.6874  -30.5761 H   0  0  0  0  0  0  0  0  0  0  0  0
  1  2  2  0
  2  3  2  0
  2  4  1  0
  4  5  1  0
  5  6  2  0
  6  7  1  0
  7  8  2  0
  8  9  1  0
  9 10  2  0
 10 11  1  0
  8 12  1  0
 12 13  1  0
 13 14  1  0
 14 15  1  0
  2 16  1  0
 16 17  2  0
 17 18  1  0
 18 19  2  0
 19 20  1  0
 20 21  2  0
 21 22  1  0
 21 23  1  0
 23 24  1  0
 24 25  2  0
 10  5  1  0
 25 16  1  0
 15  7  1  0
 24 19  1  0
  6 26  1  0
  9 27  1  0
 12 28  1  0
 12 29  1  0
 13 30  1  0
 14 31  1  0
 14 32  1  0
 15 33  1  0
 15 34  1  0
 17 35  1  0
 18 36  1  0
 20 37  1  0
 25 38  1  0
M  CHG  4   4  -1  11  -1  22  -1  23  -1
M  END
>  <UniqueID>  (40) 
39

>  <SMILES>  (40) 
O=S(=O)([N-]c1cc2c(cc1[O-])CNCC2)c1ccc2cc([O-])[n-]c2c1

>  <Energy>  (40) 
78.84106736047383

>  <Genealogy>  (40) 
O=S(=O)([N-]c1cc2c(cc1[O-])CNCC2)c1ccc2cc([O-])[n-]c2c1 (protonated)
O=S(=O)([N-]c1cc2c(cc1[O-])CNCC2)c1ccc2cc([O-])[n-]c2c1 (3D coordinates assigned)
O=S(=O)([N-]c1cc2c(cc1[O-])CNCC2)c1ccc2cc([O-])[n-]c2c1 (nonaromatic ring conformer: 78.84106736047383 kcal/mol)

>  <smiles>  (40) 
O=S(=O)(Nc1cc2c(cc1O)CNCC2)c1ccc2cc(O)[nH]c2c1

>  <score_type>  (40) 
oracle

>  <origin>  (40) 
adgpu

>  <m_score__min__energy>  (40) 
-13.119999999999999

>  <m_primary>  (40) 
energy

$$$$
40:0
     RDKit          3D

 64 67  0  0  0  0  0  0  0  0999 V2000
    1.5540   19.2040  -33.4670 C   0  0  0  0  0  0  0  0  0  0  0  0
    0.8220   18.1350  -34.0580 O   0  0  0  0  0  0  0  0  0  0  0  0
   -0.5780   18.0380  -34.0550 C   0  0  0  0  0  0  0  0  0  0  0  0
   -1.4140   19.1600  -34.2140 C   0  0  0  0  0  0  0  0  0  0  0  0
   -2.8040   19.0110  -34.1990 C   0  0  0  0  0  0  0  0  0  0  0  0
   -3.3780   17.7450  -34.0210 C   0  0  0  0  0  0  0  0  0  0  0  0
   -5.1330   17.5620  -33.9740 S   0  0  0  0  0  0  0  0  0  0  0  0
   -5.7140   18.0100  -35.2860 O   0  0  0  0  0  0  0  0  0  0  0  0
   -5.4730   16.1090  -33.7870 O   0  0  0  0  0  0  0  0  0  0  0  0
   -5.8440   18.4920  -32.6750 N   0  0  0  0  0  0  0  0  0  0  0  0
   -5.7010   19.9500  -32.8990 C   0  0  0  0  0  0  0  0  0  0  0  0
   -7.0000   20.6040  -33.4080 C   0  0  0  0  0  0  0  0  0  0  0  0
   -8.1550   20.3510  -32.5160 N   0  0  0  0  0  0  0  0  0  0  0  0
   -8.5260   21.7420  -31.5240 S   0  0  0  0  0  0  0  0  0  0  0  0
   -9.6140   22.5460  -32.1820 O   0  0  0  0  0  0  0  0  0  0  0  0
   -9.0330   21.2810  -30.1860 O   0  0  0  0  0  0  0  0  0  0  0  0
   -7.1090   22.7670  -31.2890 C   0  0  0  0  0  0  0  0  0  0  0  0
   -7.2410   24.1620  -31.2680 C   0  0  0  0  0  0  0  0  0  0  0  0
   -6.1150   24.9740  -31.1100 C   0  0  0  0  0  0  0  0  0  0  0  0
   -4.8450   24.4000  -30.9670 C   0  0  0  0  0  0  0  0  0  0  0  0
   -3.7220   25.2090  -30.8000 O   0  0  0  0  0  0  0  0  0  0  0  0
   -4.7060   23.0020  -30.9810 C   0  0  0  0  0  0  0  0  0  0  0  0
   -3.4140   22.3970  -30.8430 N   0  0  0  0  0  0  0  0  0  0  0  0
   -2.5910   22.6830  -29.6680 C   0  0  0  0  0  0  0  0  0  0  0  0
   -1.6210   21.5250  -29.4250 C   0  0  0  0  0  0  0  0  0  0  0  0
   -0.7500   21.2670  -30.5970 N   0  0  0  0  0  0  0  0  0  0  0  0
   -0.2120   19.9000  -30.5430 C   0  0  0  0  0  0  0  0  0  0  0  0
   -1.3720   21.5520  -31.9160 C   0  0  0  0  0  0  0  0  0  0  0  0
   -2.9060   21.5070  -31.8900 C   0  0  0  0  0  0  0  0  0  0  0  0
   -5.8400   22.1920  -31.1350 C   0  0  0  0  0  0  0  0  0  0  0  0
   -8.0200   19.1400  -31.6820 C   0  0  0  0  0  0  0  0  0  0  0  0
   -7.2330   18.0540  -32.4210 C   0  0  0  0  0  0  0  0  0  0  0  0
   -2.5460   16.6270  -33.8710 C   0  0  0  0  0  0  0  0  0  0  0  0
   -1.1570   16.7740  -33.8870 C   0  0  0  0  0  0  0  0  0  0  0  0
    1.4993   19.1241  -32.3713 H   0  0  0  0  0  0  0  0  0  0  0  0
    2.6051   19.1494  -33.7866 H   0  0  0  0  0  0  0  0  0  0  0  0
    1.1230   20.1643  -33.7866 H   0  0  0  0  0  0  0  0  0  0  0  0
   -0.9715   20.1578  -34.3506 H   0  0  0  0  0  0  0  0  0  0  0  0
   -3.4503   19.8918  -34.3275 H   0  0  0  0  0  0  0  0  0  0  0  0
   -5.4164   20.4257  -31.9489 H   0  0  0  0  0  0  0  0  0  0  0  0
   -4.9319   20.0933  -33.6723 H   0  0  0  0  0  0  0  0  0  0  0  0
   -6.8423   21.6903  -33.4800 H   0  0  0  0  0  0  0  0  0  0  0  0
   -7.2333   20.1610  -34.3874 H   0  0  0  0  0  0  0  0  0  0  0  0
   -8.2354   24.6197  -31.3764 H   0  0  0  0  0  0  0  0  0  0  0  0
   -6.2261   26.0683  -31.0978 H   0  0  0  0  0  0  0  0  0  0  0  0
   -3.1990   25.5610  -31.5920 H   0  0  0  0  0  0  0  0  0  0  0  0
   -2.0209   23.6084  -29.8371 H   0  0  0  0  0  0  0  0  0  0  0  0
   -3.2405   22.8054  -28.7887 H   0  0  0  0  0  0  0  0  0  0  0  0
   -0.9872   21.7697  -28.5599 H   0  0  0  0  0  0  0  0  0  0  0  0
   -2.2170   20.6188  -29.2418 H   0  0  0  0  0  0  0  0  0  0  0  0
   -0.0918   19.5945  -29.4931 H   0  0  0  0  0  0  0  0  0  0  0  0
   -0.9066   19.2124  -31.0477 H   0  0  0  0  0  0  0  0  0  0  0  0
    0.7649   19.8702  -31.0477 H   0  0  0  0  0  0  0  0  0  0  0  0
   -1.0582   22.5553  -32.2398 H   0  0  0  0  0  0  0  0  0  0  0  0
   -1.0362   20.7669  -32.6094 H   0  0  0  0  0  0  0  0  0  0  0  0
   -3.2969   21.8315  -32.8657 H   0  0  0  0  0  0  0  0  0  0  0  0
   -3.2343   20.4781  -31.6810 H   0  0  0  0  0  0  0  0  0  0  0  0
   -5.7330   21.0972  -31.1350 H   0  0  0  0  0  0  0  0  0  0  0  0
   -7.4910   19.3993  -30.7530 H   0  0  0  0  0  0  0  0  0  0  0  0
   -9.0251   18.7543  -31.4562 H   0  0  0  0  0  0  0  0  0  0  0  0
   -7.2166   17.1406  -31.8082 H   0  0  0  0  0  0  0  0  0  0  0  0
   -7.7230   17.8592  -33.3864 H   0  0  0  0  0  0  0  0  0  0  0  0
   -2.9891   15.6288  -33.7400 H   0  0  0  0  0  0  0  0  0  0  0  0
   -0.5131   15.8903  -33.7667 H   0  0  0  0  0  0  0  0  0  0  0  0
  1  2  1  0
  2  3  1  0
  3  4  2  0
  4  5  1  0
  5  6  2  0
  6  7  1  0
  7  8  2  0
  7  9  2  0
  7 10  1  0
 10 11  1  0
 11 12  1  0
 12 13  1  0
 13 14  1  0
 14 15  2  0
 14 16  2  0
 14 17  1  0
 17 18  2  0
 18 19  1  0
 19 20  2  0
 20 21  1  0
 20 22  1  0
 22 23  1  0
 23 24  1  0
 24 25  1  0
 25 26  1  0
 26 27  1  0
 26 28  1  0
 28 29  1  0
 22 30  2  0
 13 31  1  0
 31 32  1  0
  6 33  1  0
 33 34  2  0
 34  3  1  0
 32 10  1  0
 30 17  1  0
 29 23  1  0
  1 35  1  0
  1 36  1  0
  1 37  1  0
  4 38  1  0
  5 39  1  0
 11 40  1  0
 11 41  1  0
 12 42  1  0
 12 43  1  0
 18 44  1  0
 19 45  1  0
 21 46  1  0
 24 47  1  0
 24 48  1  0
 25 49  1  0
 25 50  1  0
 27 51  1  0
 27 52  1  0
 27 53  1  0
 28 54  1  0
 28 55  1  0
 29 56  1  0
 29 57  1  0
 30 58  1  0
 31 59  1  0
 31 60  1  0
 32 61  1  0
 32 62  1  0
 33 63  1  0
 34 64  1  0
M  END
>  <UniqueID>  (41) 
40

>  <SMILES>  (41) 
COc1ccc(S(=O)(=O)N2CCN(S(=O)(=O)c3ccc(O)c(N4CCN(C)CC4)c3)CC2)cc1

>  <Energy>  (41) 
84.80574031528108

>  <Genealogy>  (41) 
COc1ccc(S(=O)(=O)N2CCN(S(=O)(=O)c3ccc(O)c(N4CCN(C)CC4)c3)CC2)cc1 (3D coordinates assigned)
COc1ccc(S(=O)(=O)N2CCN(S(=O)(=O)c3ccc(O)c(N4CCN(C)CC4)c3)CC2)cc1 (nonaromatic ring conformer: 84.80574031528108 kcal/mol)

>  <smiles>  (41) 
COc1ccc(S(=O)(=O)N2CCN(S(=O)(=O)c3ccc(O)c(N4CCN(C)CC4)c3)CC2)cc1

>  <score_type>  (41) 
oracle

>  <origin>  (41) 
adgpu

>  <m_score__min__energy>  (41) 
-10.869999999999999

>  <m_primary>  (41) 
energy

$$$$
41:0
     RDKit          3D

 50 54  0  0  0  0  0  0  0  0999 V2000
    1.2670   26.7070  -25.0630 C   0  0  0  0  0  0  0  0  0  0  0  0
    0.2600   25.8060  -24.4700 N   0  0  0  0  0  0  0  0  0  0  0  0
    0.7320   24.4100  -24.3760 C   0  0  0  0  0  0  0  0  0  0  0  0
    0.9640   23.7710  -25.7540 C   0  0  0  0  0  0  0  0  0  0  0  0
   -0.1100   24.1290  -26.7510 C   0  0  0  0  0  0  0  0  0  0  0  0
   -0.1100   23.4970  -28.0010 C   0  0  0  0  0  0  0  0  0  0  0  0
   -0.9860   23.9140  -29.0160 C   0  0  0  0  0  0  0  0  0  0  0  0
   -0.8550   23.4180  -30.3540 N   0  0  0  0  0  0  0  0  0  0  0  0
   -0.8930   21.7210  -30.7240 S   0  0  0  0  0  0  0  0  0  0  0  0
    0.2680   21.3760  -31.6130 O   0  0  0  0  0  0  0  0  0  0  0  0
   -0.8010   20.9230  -29.4540 O   0  0  0  0  0  0  0  0  0  0  0  0
   -2.4260   21.3580  -31.5210 C   0  0  0  0  0  0  0  0  0  0  0  0
   -2.4750   20.3360  -32.4750 C   0  0  0  0  0  0  0  0  0  0  0  0
   -3.7020   19.8830  -32.9600 C   0  0  0  0  0  0  0  0  0  0  0  0
   -4.9040   20.4400  -32.4890 C   0  0  0  0  0  0  0  0  0  0  0  0
   -4.8600   21.4920  -31.5490 C   0  0  0  0  0  0  0  0  0  0  0  0
   -3.6160   21.9520  -31.0800 C   0  0  0  0  0  0  0  0  0  0  0  0
   -6.1210   22.0710  -31.0270 C   0  0  0  0  0  0  0  0  0  0  0  0
   -6.0830   23.0130  -30.1860 O   0  0  0  0  0  0  0  0  0  0  0  0
   -7.4270   21.5430  -31.4860 C   0  0  0  0  0  0  0  0  0  0  0  0
   -8.6310   22.0840  -30.9920 C   0  0  0  0  0  0  0  0  0  0  0  0
   -9.8590   21.5850  -31.4290 C   0  0  0  0  0  0  0  0  0  0  0  0
   -9.9040   20.5450  -32.3590 C   0  0  0  0  0  0  0  0  0  0  0  0
   -8.7180   19.9980  -32.8550 C   0  0  0  0  0  0  0  0  0  0  0  0
   -7.4720   20.4910  -32.4260 C   0  0  0  0  0  0  0  0  0  0  0  0
   -6.2110   19.9150  -32.9510 C   0  0  0  0  0  0  0  0  0  0  0  0
   -6.2510   18.9680  -33.7860 O   0  0  0  0  0  0  0  0  0  0  0  0
   -1.9410   24.8970  -28.7360 C   0  0  0  0  0  0  0  0  0  0  0  0
   -2.8470   25.2910  -29.7140 O   0  0  0  0  0  0  0  0  0  0  0  0
   -1.9670   25.5150  -27.4810 C   0  0  0  0  0  0  0  0  0  0  0  0
   -1.0220   25.1730  -26.5020 C   0  0  0  0  0  0  0  0  0  0  0  0
   -1.0380   25.8840  -25.1700 C   0  0  0  0  0  0  0  0  0  0  0  0
    1.8278   27.2088  -24.2607 H   0  0  0  0  0  0  0  0  0  0  0  0
    1.9608   26.1226  -25.6852 H   0  0  0  0  0  0  0  0  0  0  0  0
    0.7630   27.4613  -25.6852 H   0  0  0  0  0  0  0  0  0  0  0  0
    1.6791   24.3952  -23.8168 H   0  0  0  0  0  0  0  0  0  0  0  0
   -0.0494   23.8276  -23.8658 H   0  0  0  0  0  0  0  0  0  0  0  0
    1.9337   24.1155  -26.1427 H   0  0  0  0  0  0  0  0  0  0  0  0
    0.9430   22.6792  -25.6213 H   0  0  0  0  0  0  0  0  0  0  0  0
    0.5840   22.6647  -28.1896 H   0  0  0  0  0  0  0  0  0  0  0  0
   -1.5412   19.8873  -32.8446 H   0  0  0  0  0  0  0  0  0  0  0  0
   -3.7293   19.0845  -33.7161 H   0  0  0  0  0  0  0  0  0  0  0  0
   -3.5772   22.7842  -30.3617 H   0  0  0  0  0  0  0  0  0  0  0  0
   -8.6027   22.9033  -30.2586 H   0  0  0  0  0  0  0  0  0  0  0  0
  -10.7945   22.0127  -31.0393 H   0  0  0  0  0  0  0  0  0  0  0  0
  -10.8741   20.1558  -32.7016 H   0  0  0  0  0  0  0  0  0  0  0  0
   -8.7586   19.1767  -33.5856 H   0  0  0  0  0  0  0  0  0  0  0  0
   -2.7327   26.2733  -27.2606 H   0  0  0  0  0  0  0  0  0  0  0  0
   -1.2845   26.9427  -25.3385 H   0  0  0  0  0  0  0  0  0  0  0  0
   -1.7888   25.3889  -24.5366 H   0  0  0  0  0  0  0  0  0  0  0  0
  1  2  1  0
  2  3  1  0
  3  4  1  0
  4  5  1  0
  5  6  2  0
  6  7  1  0
  7  8  1  0
  8  9  1  0
  9 10  2  0
  9 11  2  0
  9 12  1  0
 12 13  2  0
 13 14  1  0
 14 15  2  0
 15 16  1  0
 16 17  2  0
 16 18  1  0
 18 19  2  0
 18 20  1  0
 20 21  2  0
 21 22  1  0
 22 23  2  0
 23 24  1  0
 24 25  2  0
 25 26  1  0
 26 27  2  0
  7 28  2  0
 28 29  1  0
 28 30  1  0
 30 31  2  0
 31 32  1  0
 32  2  1  0
 31  5  1  0
 17 12  1  0
 25 20  1  0
 26 15  1  0
  1 33  1  0
  1 34  1  0
  1 35  1  0
  3 36  1  0
  3 37  1  0
  4 38  1  0
  4 39  1  0
  6 40  1  0
 13 41  1  0
 14 42  1  0
 17 43  1  0
 21 44  1  0
 22 45  1  0
 23 46  1  0
 24 47  1  0
 30 48  1  0
 32 49  1  0
 32 50  1  0
M  CHG  2   8  -1  29  -1
M  END
>  <UniqueID>  (42) 
41

>  <SMILES>  (42) 
CN1CCc2cc([N-]S(=O)(=O)c3ccc4c(c3)C(=O)c3ccccc3C4=O)c([O-])cc2C1

>  <Energy>  (42) 
69.48306163036149

>  <Genealogy>  (42) 
CN1CCc2cc([N-]S(=O)(=O)c3ccc4c(c3)C(=O)c3ccccc3C4=O)c([O-])cc2C1 (protonated)
CN1CCc2cc([N-]S(=O)(=O)c3ccc4c(c3)C(=O)c3ccccc3C4=O)c([O-])cc2C1 (3D coordinates assigned)
CN1CCc2cc([N-]S(=O)(=O)c3ccc4c(c3)C(=O)c3ccccc3C4=O)c([O-])cc2C1 (nonaromatic ring conformer: 69.48306163036149 kcal/mol)

>  <smiles>  (42) 
CN1CCc2cc(NS(=O)(=O)c3ccc4c(c3)C(=O)c3ccccc3C4=O)c(O)cc2C1

>  <score_type>  (42) 
oracle

>  <origin>  (42) 
adgpu

>  <m_score__min__energy>  (42) 
-16.350000000000001

>  <m_primary>  (42) 
energy

$$$$
42:0
     RDKit          3D

 60 63  0  0  0  0  0  0  0  0999 V2000
   -6.3680   17.1350  -31.3430 O   0  0  0  0  0  0  0  0  0  0  0  0
   -6.7320   18.1260  -32.4140 S   0  0  0  0  0  0  0  0  0  0  0  0
   -8.1410   18.5820  -32.1460 O   0  0  0  0  0  0  0  0  0  0  0  0
   -5.6540   19.5180  -32.2840 C   0  0  0  0  0  0  0  0  0  0  0  0
   -4.2920   19.3860  -32.5720 C   0  0  0  0  0  0  0  0  0  0  0  0
   -3.4420   20.4860  -32.4680 C   0  0  0  0  0  0  0  0  0  0  0  0
   -3.9300   21.7200  -32.0270 C   0  0  0  0  0  0  0  0  0  0  0  0
   -3.0460   22.7950  -31.9900 O   0  0  0  0  0  0  0  0  0  0  0  0
   -5.2860   21.8430  -31.6400 C   0  0  0  0  0  0  0  0  0  0  0  0
   -5.8090   23.1250  -31.0200 C   0  0  0  0  0  0  0  0  0  0  0  0
   -5.3160   23.3340  -29.6910 O   0  0  0  0  0  0  0  0  0  0  0  0
   -3.9710   23.2070  -29.2950 C   0  0  0  0  0  0  0  0  0  0  0  0
   -3.5160   22.1240  -28.5150 C   0  0  0  0  0  0  0  0  0  0  0  0
   -2.1970   22.0860  -28.0550 C   0  0  0  0  0  0  0  0  0  0  0  0
   -1.7100   20.7960  -26.9650 S   0  0  0  0  0  0  0  0  0  0  0  0
   -2.8690   19.8700  -26.7060 O   0  0  0  0  0  0  0  0  0  0  0  0
   -1.2690   21.3970  -25.6600 O   0  0  0  0  0  0  0  0  0  0  0  0
   -0.3780   19.9290  -27.6900 N   0  0  0  0  0  0  0  0  0  0  0  0
   -0.3550   20.1090  -29.1410 C   0  0  0  0  0  0  0  0  0  0  0  0
    0.2370   18.8410  -29.7390 C   0  0  0  0  0  0  0  0  0  0  0  0
    0.2100   17.8090  -28.6260 C   0  0  0  0  0  0  0  0  0  0  0  0
   -0.4960   18.4910  -27.4660 C   0  0  0  0  0  0  0  0  0  0  0  0
   -1.3070   23.1100  -28.4040 C   0  0  0  0  0  0  0  0  0  0  0  0
   -1.7390   24.1650  -29.2150 C   0  0  0  0  0  0  0  0  0  0  0  0
   -3.0670   24.2150  -29.6560 C   0  0  0  0  0  0  0  0  0  0  0  0
   -3.4900   25.2820  -30.4440 O   0  0  0  0  0  0  0  0  0  0  0  0
   -6.1450   20.7410  -31.8170 C   0  0  0  0  0  0  0  0  0  0  0  0
   -6.6790   17.3240  -33.9780 N   0  0  0  0  0  0  0  0  0  0  0  0
   -5.7920   17.9700  -34.9680 C   0  0  0  0  0  0  0  0  0  0  0  0
   -4.3400   17.4860  -34.8930 C   0  0  0  0  0  0  0  0  0  0  0  0
   -4.2670   15.9650  -34.9310 C   0  0  0  0  0  0  0  0  0  0  0  0
   -5.1110   15.3660  -33.8130 C   0  0  0  0  0  0  0  0  0  0  0  0
   -6.5600   15.8540  -33.9030 C   0  0  0  0  0  0  0  0  0  0  0  0
   -3.8897   18.4102  -32.8819 H   0  0  0  0  0  0  0  0  0  0  0  0
   -2.3799   20.3825  -32.7347 H   0  0  0  0  0  0  0  0  0  0  0  0
   -3.3500   23.7580  -31.9680 H   0  0  0  0  0  0  0  0  0  0  0  0
   -5.4987   23.9727  -31.6485 H   0  0  0  0  0  0  0  0  0  0  0  0
   -6.9044   23.0444  -30.9607 H   0  0  0  0  0  0  0  0  0  0  0  0
   -4.2045   21.3028  -28.2667 H   0  0  0  0  0  0  0  0  0  0  0  0
   -1.3766   20.2631  -29.5185 H   0  0  0  0  0  0  0  0  0  0  0  0
    0.2440   20.9893  -29.4172 H   0  0  0  0  0  0  0  0  0  0  0  0
   -0.3683   18.5007  -30.5921 H   0  0  0  0  0  0  0  0  0  0  0  0
    1.2580   19.0074  -30.1130 H   0  0  0  0  0  0  0  0  0  0  0  0
   -0.3457   16.9142  -28.9432 H   0  0  0  0  0  0  0  0  0  0  0  0
    1.2213   17.4742  -28.3517 H   0  0  0  0  0  0  0  0  0  0  0  0
   -1.5557   18.1969  -27.4414 H   0  0  0  0  0  0  0  0  0  0  0  0
   -0.0467   18.2022  -26.5044 H   0  0  0  0  0  0  0  0  0  0  0  0
   -0.2691   23.0846  -28.0406 H   0  0  0  0  0  0  0  0  0  0  0  0
   -1.0337   24.9571  -29.5069 H   0  0  0  0  0  0  0  0  0  0  0  0
   -7.2153   20.8438  -31.5850 H   0  0  0  0  0  0  0  0  0  0  0  0
   -6.1792   17.7556  -35.9750 H   0  0  0  0  0  0  0  0  0  0  0  0
   -5.7867   19.0470  -34.7445 H   0  0  0  0  0  0  0  0  0  0  0  0
   -3.7805   17.8941  -35.7477 H   0  0  0  0  0  0  0  0  0  0  0  0
   -3.9042   17.8334  -33.9447 H   0  0  0  0  0  0  0  0  0  0  0  0
   -4.6436   15.6079  -35.9009 H   0  0  0  0  0  0  0  0  0  0  0  0
   -3.2207   15.6539  -34.7948 H   0  0  0  0  0  0  0  0  0  0  0  0
   -5.0941   14.2693  -33.8966 H   0  0  0  0  0  0  0  0  0  0  0  0
   -4.6919   15.6833  -32.8467 H   0  0  0  0  0  0  0  0  0  0  0  0
   -7.0189   15.4204  -34.8038 H   0  0  0  0  0  0  0  0  0  0  0  0
   -7.0691   15.5331  -32.9822 H   0  0  0  0  0  0  0  0  0  0  0  0
  1  2  2  0
  2  3  2  0
  2  4  1  0
  4  5  2  0
  5  6  1  0
  6  7  2  0
  7  8  1  0
  7  9  1  0
  9 10  1  0
 10 11  1  0
 11 12  1  0
 12 13  2  0
 13 14  1  0
 14 15  1  0
 15 16  2  0
 15 17  2  0
 15 18  1  0
 18 19  1  0
 19 20  1  0
 20 21  1  0
 21 22  1  0
 14 23  2  0
 23 24  1  0
 24 25  2  0
 25 26  1  0
  9 27  2  0
  2 28  1  0
 28 29  1  0
 29 30  1  0
 30 31  1  0
 31 32  1  0
 32 33  1  0
 27  4  1  0
 33 28  1  0
 25 12  1  0
 22 18  1  0
  5 34  1  0
  6 35  1  0
  8 36  1  0
 10 37  1  0
 10 38  1  0
 13 39  1  0
 19 40  1  0
 19 41  1  0
 20 42  1  0
 20 43  1  0
 21 44  1  0
 21 45  1  0
 22 46  1  0
 22 47  1  0
 23 48  1  0
 24 49  1  0
 27 50  1  0
 29 51  1  0
 29 52  1  0
 30 53  1  0
 30 54  1  0
 31 55  1  0
 31 56  1  0
 32 57  1  0
 32 58  1  0
 33 59  1  0
 33 60  1  0
M  CHG  1  26  -1
M  END
>  <UniqueID>  (43) 
42

>  <SMILES>  (43) 
O=S(=O)(c1ccc(O)c(COc2cc(S(=O)(=O)N3CCCC3)ccc2[O-])c1)N1CCCCC1

>  <Energy>  (43) 
63.757049030812496

>  <Genealogy>  (43) 
O=S(=O)(c1ccc(O)c(COc2cc(S(=O)(=O)N3CCCC3)ccc2[O-])c1)N1CCCCC1 (protonated)
O=S(=O)(c1ccc(O)c(COc2cc(S(=O)(=O)N3CCCC3)ccc2[O-])c1)N1CCCCC1 (3D coordinates assigned)
O=S(=O)(c1ccc(O)c(COc2cc(S(=O)(=O)N3CCCC3)ccc2[O-])c1)N1CCCCC1 (nonaromatic ring conformer: 63.757049030812496 kcal/mol)

>  <smiles>  (43) 
O=S(=O)(c1ccc(O)c(COc2cc(S(=O)(=O)N3CCCC3)ccc2O)c1)N1CCCCC1

>  <score_type>  (43) 
oracle

>  <origin>  (43) 
adgpu

>  <m_score__min__energy>  (43) 
-14.300000000000001

>  <m_primary>  (43) 
energy

$$$$
43:0
     RDKit          3D

 37 39  0  0  0  0  0  0  0  0999 V2000
   -6.4360   17.2880  -33.8060 C   0  0  0  0  0  0  0  0  0  0  0  0
   -6.6720   18.6090  -33.1340 C   0  0  0  0  0  0  0  0  0  0  0  0
   -5.9360   19.7400  -33.5210 C   0  0  0  0  0  0  0  0  0  0  0  0
   -6.1790   20.9770  -32.9190 C   0  0  0  0  0  0  0  0  0  0  0  0
   -7.1670   21.1010  -31.9320 C   0  0  0  0  0  0  0  0  0  0  0  0
   -7.4600   22.6450  -31.1400 S   0  0  0  0  0  0  0  0  0  0  0  0
   -8.5030   23.4310  -31.8830 O   0  0  0  0  0  0  0  0  0  0  0  0
   -7.9570   22.3760  -29.7470 O   0  0  0  0  0  0  0  0  0  0  0  0
   -5.9820   23.5910  -31.0570 C   0  0  0  0  0  0  0  0  0  0  0  0
   -5.9090   24.9000  -31.3560 N   0  0  0  0  0  0  0  0  0  0  0  0
   -4.6410   25.2510  -31.1860 N   0  0  0  0  0  0  0  0  0  0  0  0
   -3.9410   24.2230  -30.8000 O   0  0  0  0  0  0  0  0  0  0  0  0
   -4.7170   23.1730  -30.7050 C   0  0  0  0  0  0  0  0  0  0  0  0
   -4.1720   21.5430  -30.2010 S   0  0  0  0  0  0  0  0  0  0  0  0
   -3.0310   21.4020  -31.5690 C   0  0  0  0  0  0  0  0  0  0  0  0
   -3.3490   21.7110  -32.8440 N   0  0  0  0  0  0  0  0  0  0  0  0
   -2.3380   21.5370  -33.6930 N   0  0  0  0  0  0  0  0  0  0  0  0
   -1.2100   21.0900  -33.0950 C   0  0  0  0  0  0  0  0  0  0  0  0
    0.0120   20.8260  -33.8060 N   0  0  0  0  0  0  0  0  0  0  0  0
    0.1840   21.3190  -35.1750 C   0  0  0  0  0  0  0  0  0  0  0  0
    1.0760   20.0650  -33.1460 C   0  0  0  0  0  0  0  0  0  0  0  0
   -1.4340   20.8910  -31.4330 S   0  0  0  0  0  0  0  0  0  0  0  0
   -7.9160   19.9770  -31.5600 C   0  0  0  0  0  0  0  0  0  0  0  0
   -7.6750   18.7380  -32.1610 C   0  0  0  0  0  0  0  0  0  0  0  0
   -6.2967   16.5081  -33.0429 H   0  0  0  0  0  0  0  0  0  0  0  0
   -7.3033   17.0359  -34.4338 H   0  0  0  0  0  0  0  0  0  0  0  0
   -5.5350   17.3518  -34.4338 H   0  0  0  0  0  0  0  0  0  0  0  0
   -5.1653   19.6519  -34.3009 H   0  0  0  0  0  0  0  0  0  0  0  0
   -5.5927   21.8575  -33.2206 H   0  0  0  0  0  0  0  0  0  0  0  0
    0.5462   22.3573  -35.1480 H   0  0  0  0  0  0  0  0  0  0  0  0
    0.9155   20.6891  -35.7024 H   0  0  0  0  0  0  0  0  0  0  0  0
   -0.7806   21.2808  -35.7024 H   0  0  0  0  0  0  0  0  0  0  0  0
    0.9623   20.1463  -32.0549 H   0  0  0  0  0  0  0  0  0  0  0  0
    1.0098   19.0082  -33.4438 H   0  0  0  0  0  0  0  0  0  0  0  0
    2.0547   20.4692  -33.4438 H   0  0  0  0  0  0  0  0  0  0  0  0
   -8.6974   20.0698  -30.7914 H   0  0  0  0  0  0  0  0  0  0  0  0
   -8.2732   17.8618  -31.8704 H   0  0  0  0  0  0  0  0  0  0  0  0
  1  2  1  0
  2  3  2  0
  3  4  1  0
  4  5  2  0
  5  6  1  0
  6  7  2  0
  6  8  2  0
  6  9  1  0
  9 10  1  0
 10 11  2  0
 11 12  1  0
 12 13  1  0
 13 14  1  0
 14 15  1  0
 15 16  2  0
 16 17  1  0
 17 18  2  0
 18 19  1  0
 19 20  1  0
 19 21  1  0
 18 22  1  0
  5 23  1  0
 23 24  2  0
 24  2  1  0
 13  9  2  0
 22 15  1  0
  1 25  1  0
  1 26  1  0
  1 27  1  0
  3 28  1  0
  4 29  1  0
 20 30  1  0
 20 31  1  0
 20 32  1  0
 21 33  1  0
 21 34  1  0
 21 35  1  0
 23 36  1  0
 24 37  1  0
M  END
>  <UniqueID>  (44) 
43

>  <SMILES>  (44) 
Cc1ccc(S(=O)(=O)c2nnoc2Sc2nnc(N(C)C)s2)cc1

>  <Energy>  (44) 
102.56866909056292

>  <Genealogy>  (44) 
Cc1ccc(S(=O)(=O)c2nnoc2Sc2nnc(N(C)C)s2)cc1 (3D coordinates assigned)
Cc1ccc(S(=O)(=O)c2nnoc2Sc2nnc(N(C)C)s2)cc1 (optimized conformer: 102.56866909056292 kcal/mol)

>  <smiles>  (44) 
Cc1ccc(S(=O)(=O)c2nnoc2Sc2nnc(N(C)C)s2)cc1

>  <score_type>  (44) 
oracle

>  <origin>  (44) 
adgpu

>  <m_score__min__energy>  (44) 
-9.5099999999999998

>  <m_primary>  (44) 
energy

$$$$
44:0
     RDKit          3D

 52 55  0  0  0  0  0  0  0  0999 V2000
   -5.5550   23.7320  -29.6400 O   0  0  0  0  0  0  0  0  0  0  0  0
   -4.2450   24.0500  -30.3020 S   0  0  0  0  0  0  0  0  0  0  0  0
   -4.1340   25.5340  -30.5000 O   0  0  0  0  0  0  0  0  0  0  0  0
   -4.1360   23.2640  -31.8470 N   0  0  0  0  0  0  0  0  0  0  0  0
   -4.8310   22.0680  -32.2190 C   0  0  0  0  0  0  0  0  0  0  0  0
   -6.2260   21.9600  -32.0890 C   0  0  0  0  0  0  0  0  0  0  0  0
   -6.8790   20.7710  -32.4420 C   0  0  0  0  0  0  0  0  0  0  0  0
   -6.1430   19.6980  -32.9660 C   0  0  0  0  0  0  0  0  0  0  0  0
   -4.7590   19.8210  -33.1430 C   0  0  0  0  0  0  0  0  0  0  0  0
   -4.1040   21.0040  -32.7730 C   0  0  0  0  0  0  0  0  0  0  0  0
   -2.7260   21.1260  -32.9500 O   0  0  0  0  0  0  0  0  0  0  0  0
   -6.8780   18.4490  -33.3660 C   0  0  0  0  0  0  0  0  0  0  0  0
   -7.9050   18.0820  -32.2860 C   0  0  0  0  0  0  0  0  0  0  0  0
   -8.8200   19.2590  -31.8600 C   0  0  0  0  0  0  0  0  0  0  0  0
   -8.3780   20.6500  -32.3630 C   0  0  0  0  0  0  0  0  0  0  0  0
   -2.9430   23.4830  -29.2570 C   0  0  0  0  0  0  0  0  0  0  0  0
   -2.9530   22.1670  -28.7720 C   0  0  0  0  0  0  0  0  0  0  0  0
   -1.9780   21.7350  -27.8640 C   0  0  0  0  0  0  0  0  0  0  0  0
   -2.0620   20.1070  -27.1870 S   0  0  0  0  0  0  0  0  0  0  0  0
   -3.5030   19.7080  -27.0340 O   0  0  0  0  0  0  0  0  0  0  0  0
   -1.4350   20.1090  -25.8210 O   0  0  0  0  0  0  0  0  0  0  0  0
   -1.2580   18.9300  -28.2080 N   0  0  0  0  0  0  0  0  0  0  0  0
   -0.5840   19.5840  -29.3340 C   0  0  0  0  0  0  0  0  0  0  0  0
    0.8810   19.7580  -28.9710 C   0  0  0  0  0  0  0  0  0  0  0  0
    1.1430   18.7640  -27.8580 C   0  0  0  0  0  0  0  0  0  0  0  0
   -0.2180   18.1980  -27.4740 C   0  0  0  0  0  0  0  0  0  0  0  0
   -0.9630   22.6170  -27.4690 C   0  0  0  0  0  0  0  0  0  0  0  0
   -0.9290   23.9200  -27.9720 C   0  0  0  0  0  0  0  0  0  0  0  0
   -1.9180   24.3580  -28.8580 C   0  0  0  0  0  0  0  0  0  0  0  0
   -1.8780   25.6650  -29.3310 O   0  0  0  0  0  0  0  0  0  0  0  0
   -6.8081   22.8123  -31.7085 H   0  0  0  0  0  0  0  0  0  0  0  0
   -4.1847   18.9874  -33.5734 H   0  0  0  0  0  0  0  0  0  0  0  0
   -2.2310   21.9700  -32.6890 H   0  0  0  0  0  0  0  0  0  0  0  0
   -7.3972   18.6206  -34.3205 H   0  0  0  0  0  0  0  0  0  0  0  0
   -6.1587   17.6244  -33.4785 H   0  0  0  0  0  0  0  0  0  0  0  0
   -8.5408   17.2725  -32.6740 H   0  0  0  0  0  0  0  0  0  0  0  0
   -7.3355   17.7826  -31.3938 H   0  0  0  0  0  0  0  0  0  0  0  0
   -9.8305   19.0622  -32.2476 H   0  0  0  0  0  0  0  0  0  0  0  0
   -8.7714   19.3017  -30.7619 H   0  0  0  0  0  0  0  0  0  0  0  0
   -8.8010   20.8164  -33.3647 H   0  0  0  0  0  0  0  0  0  0  0  0
   -8.7424   21.4017  -31.6474 H   0  0  0  0  0  0  0  0  0  0  0  0
   -3.7333   21.4681  -29.1076 H   0  0  0  0  0  0  0  0  0  0  0  0
   -0.6731   18.9598  -30.2354 H   0  0  0  0  0  0  0  0  0  0  0  0
   -1.0447   20.5618  -29.5379 H   0  0  0  0  0  0  0  0  0  0  0  0
    1.5206   19.5405  -29.8391 H   0  0  0  0  0  0  0  0  0  0  0  0
    1.1044   20.7888  -28.6586 H   0  0  0  0  0  0  0  0  0  0  0  0
    1.8057   17.9602  -28.2112 H   0  0  0  0  0  0  0  0  0  0  0  0
    1.6387   19.2407  -26.9995 H   0  0  0  0  0  0  0  0  0  0  0  0
   -0.2620   17.1306  -27.7361 H   0  0  0  0  0  0  0  0  0  0  0  0
   -0.3768   18.3077  -26.3911 H   0  0  0  0  0  0  0  0  0  0  0  0
   -0.1907   22.2823  -26.7608 H   0  0  0  0  0  0  0  0  0  0  0  0
   -0.1217   24.6034  -27.6701 H   0  0  0  0  0  0  0  0  0  0  0  0
  1  2  2  0
  2  3  2  0
  2  4  1  0
  4  5  1  0
  5  6  2  0
  6  7  1  0
  7  8  2  0
  8  9  1  0
  9 10  2  0
 10 11  1  0
  8 12  1  0
 12 13  1  0
 13 14  1  0
 14 15  1  0
  2 16  1  0
 16 17  2  0
 17 18  1  0
 18 19  1  0
 19 20  2  0
 19 21  2  0
 19 22  1  0
 22 23  1  0
 23 24  1  0
 24 25  1  0
 25 26  1  0
 18 27  2  0
 27 28  1  0
 28 29  2  0
 29 30  1  0
 10  5  1  0
 29 16  1  0
 15  7  1  0
 26 22  1  0
  6 31  1  0
  9 32  1  0
 11 33  1  0
 12 34  1  0
 12 35  1  0
 13 36  1  0
 13 37  1  0
 14 38  1  0
 14 39  1  0
 15 40  1  0
 15 41  1  0
 17 42  1  0
 23 43  1  0
 23 44  1  0
 24 45  1  0
 24 46  1  0
 25 47  1  0
 25 48  1  0
 26 49  1  0
 26 50  1  0
 27 51  1  0
 28 52  1  0
M  CHG  2   4  -1  30  -1
M  END
>  <UniqueID>  (45) 
44

>  <SMILES>  (45) 
O=S(=O)([N-]c1cc2c(cc1O)CCCC2)c1cc(S(=O)(=O)N2CCCC2)ccc1[O-]

>  <Energy>  (45) 
65.07090736670872

>  <Genealogy>  (45) 
O=S(=O)([N-]c1cc2c(cc1O)CCCC2)c1cc(S(=O)(=O)N2CCCC2)ccc1[O-] (protonated)
O=S(=O)([N-]c1cc2c(cc1O)CCCC2)c1cc(S(=O)(=O)N2CCCC2)ccc1[O-] (3D coordinates assigned)
O=S(=O)([N-]c1cc2c(cc1O)CCCC2)c1cc(S(=O)(=O)N2CCCC2)ccc1[O-] (nonaromatic ring conformer: 65.07090736670872 kcal/mol)

>  <smiles>  (45) 
O=S(=O)(Nc1cc2c(cc1O)CCCC2)c1cc(S(=O)(=O)N2CCCC2)ccc1O

>  <score_type>  (45) 
oracle

>  <origin>  (45) 
adgpu

>  <m_score__min__energy>  (45) 
-14.640000000000001

>  <m_primary>  (45) 
energy

$$$$
45:0
     RDKit          3D

 44 46  0  0  0  0  0  0  0  0999 V2000
    1.0000   23.2430  -26.5860 C   0  0  0  0  0  0  0  0  0  0  0  0
    0.1350   23.7030  -27.7210 C   0  0  0  0  0  0  0  0  0  0  0  0
    0.6230   24.5100  -28.5570 O   0  0  0  0  0  0  0  0  0  0  0  0
   -1.2680   23.2340  -27.8810 C   0  0  0  0  0  0  0  0  0  0  0  0
   -1.5710   21.8660  -27.7540 C   0  0  0  0  0  0  0  0  0  0  0  0
   -2.8820   21.4120  -27.8980 C   0  0  0  0  0  0  0  0  0  0  0  0
   -3.9120   22.3120  -28.1740 C   0  0  0  0  0  0  0  0  0  0  0  0
   -3.6370   23.6830  -28.3150 C   0  0  0  0  0  0  0  0  0  0  0  0
   -4.6740   24.6370  -28.6080 N   0  0  0  0  0  0  0  0  0  0  0  0
   -5.3620   24.8640  -30.1850 S   0  0  0  0  0  0  0  0  0  0  0  0
   -4.2900   25.3230  -31.1330 O   0  0  0  0  0  0  0  0  0  0  0  0
   -6.4310   25.9190  -30.1090 O   0  0  0  0  0  0  0  0  0  0  0  0
   -6.0250   23.3420  -30.7740 C   0  0  0  0  0  0  0  0  0  0  0  0
   -7.3060   22.9480  -30.3880 C   0  0  0  0  0  0  0  0  0  0  0  0
   -7.8500   21.7540  -30.8580 C   0  0  0  0  0  0  0  0  0  0  0  0
   -7.1180   20.9130  -31.7330 C   0  0  0  0  0  0  0  0  0  0  0  0
   -5.8190   21.3170  -32.1170 C   0  0  0  0  0  0  0  0  0  0  0  0
   -5.2810   22.5260  -31.6300 C   0  0  0  0  0  0  0  0  0  0  0  0
   -5.0860   20.4940  -32.9820 C   0  0  0  0  0  0  0  0  0  0  0  0
   -3.9140   20.8270  -33.3180 O   0  0  0  0  0  0  0  0  0  0  0  0
   -5.6330   19.3350  -33.4590 N   0  0  0  0  0  0  0  0  0  0  0  0
   -4.8440   18.4670  -34.3520 C   0  0  0  0  0  0  0  0  0  0  0  0
   -6.8820   18.9400  -33.0510 C   0  0  0  0  0  0  0  0  0  0  0  0
   -7.3430   17.8360  -33.4580 O   0  0  0  0  0  0  0  0  0  0  0  0
   -7.6320   19.7240  -32.2050 N   0  0  0  0  0  0  0  0  0  0  0  0
   -8.9850   19.2840  -31.8030 C   0  0  0  0  0  0  0  0  0  0  0  0
   -2.3170   24.1340  -28.1600 C   0  0  0  0  0  0  0  0  0  0  0  0
    0.5184   23.4991  -25.6308 H   0  0  0  0  0  0  0  0  0  0  0  0
    1.1364   22.1532  -26.6473 H   0  0  0  0  0  0  0  0  0  0  0  0
    1.9798   23.7392  -26.6473 H   0  0  0  0  0  0  0  0  0  0  0  0
   -0.7663   21.1475  -27.5391 H   0  0  0  0  0  0  0  0  0  0  0  0
   -3.1049   20.3399  -27.7935 H   0  0  0  0  0  0  0  0  0  0  0  0
   -4.9440   21.9467  -28.2817 H   0  0  0  0  0  0  0  0  0  0  0  0
   -4.9770   25.3020  -27.8610 H   0  0  0  0  0  0  0  0  0  0  0  0
   -7.8912   23.5842  -29.7077 H   0  0  0  0  0  0  0  0  0  0  0  0
   -8.8627   21.4599  -30.5451 H   0  0  0  0  0  0  0  0  0  0  0  0
   -4.2662   22.8295  -31.9267 H   0  0  0  0  0  0  0  0  0  0  0  0
   -4.2252   17.7863  -33.7489 H   0  0  0  0  0  0  0  0  0  0  0  0
   -5.5236   17.8794  -34.9867 H   0  0  0  0  0  0  0  0  0  0  0  0
   -4.1944   19.0877  -34.9867 H   0  0  0  0  0  0  0  0  0  0  0  0
   -9.0524   19.2621  -30.7053 H   0  0  0  0  0  0  0  0  0  0  0  0
   -9.7324   19.9854  -32.2023 H   0  0  0  0  0  0  0  0  0  0  0  0
   -9.1769   18.2772  -32.2023 H   0  0  0  0  0  0  0  0  0  0  0  0
   -2.0971   25.2074  -28.2578 H   0  0  0  0  0  0  0  0  0  0  0  0
  1  2  1  0
  2  3  2  0
  2  4  1  0
  4  5  2  0
  5  6  1  0
  6  7  2  0
  7  8  1  0
  8  9  1  0
  9 10  1  0
 10 11  2  0
 10 12  2  0
 10 13  1  0
 13 14  2  0
 14 15  1  0
 15 16  2  0
 16 17  1  0
 17 18  2  0
 17 19  1  0
 19 20  2  0
 19 21  1  0
 21 22  1  0
 21 23  1  0
 23 24  2  0
 23 25  1  0
 25 26  1  0
  8 27  2  0
 27  4  1  0
 18 13  1  0
 25 16  1  0
  1 28  1  0
  1 29  1  0
  1 30  1  0
  5 31  1  0
  6 32  1  0
  7 33  1  0
  9 34  1  0
 14 35  1  0
 15 36  1  0
 18 37  1  0
 22 38  1  0
 22 39  1  0
 22 40  1  0
 26 41  1  0
 26 42  1  0
 26 43  1  0
 27 44  1  0
M  END
>  <UniqueID>  (46) 
45

>  <SMILES>  (46) 
CC(=O)c1cccc(NS(=O)(=O)c2ccc3c(c2)c(=O)n(C)c(=O)n3C)c1

>  <Energy>  (46) 
64.2027703641796

>  <Genealogy>  (46) 
CC(=O)c1cccc(NS(=O)(=O)c2ccc3c(c2)c(=O)n(C)c(=O)n3C)c1 (3D coordinates assigned)
CC(=O)c1cccc(NS(=O)(=O)c2ccc3c(c2)c(=O)n(C)c(=O)n3C)c1 (optimized conformer: 64.2027703641796 kcal/mol)

>  <smiles>  (46) 
CC(=O)c1cccc(NS(=O)(=O)c2ccc3c(c2)c(=O)n(C)c(=O)n3C)c1

>  <score_type>  (46) 
oracle

>  <origin>  (46) 
adgpu

>  <m_score__min__energy>  (46) 
-10.27

>  <m_primary>  (46) 
energy

$$$$
46:0
     RDKit          3D

 56 59  0  0  0  0  0  0  0  0999 V2000
   -2.9410   23.2640  -27.9760 O   0  0  0  0  0  0  0  0  0  0  0  0
   -2.8090   22.2890  -28.7620 C   0  0  0  0  0  0  0  0  0  0  0  0
   -3.1920   22.4570  -30.1340 N   0  0  0  0  0  0  0  0  0  0  0  0
   -4.4110   23.0560  -30.5960 C   0  0  0  0  0  0  0  0  0  0  0  0
   -5.5120   22.2290  -30.8510 C   0  0  0  0  0  0  0  0  0  0  0  0
   -6.7180   22.7700  -31.3140 C   0  0  0  0  0  0  0  0  0  0  0  0
   -8.0670   21.7010  -31.6930 S   0  0  0  0  0  0  0  0  0  0  0  0
   -8.4010   20.8970  -30.4670 O   0  0  0  0  0  0  0  0  0  0  0  0
   -9.2700   22.5180  -32.0730 O   0  0  0  0  0  0  0  0  0  0  0  0
   -7.6030   20.6430  -33.0080 N   0  0  0  0  0  0  0  0  0  0  0  0
   -6.1480   20.3980  -33.0290 C   0  0  0  0  0  0  0  0  0  0  0  0
   -5.6870   19.4430  -31.9120 C   0  0  0  0  0  0  0  0  0  0  0  0
   -6.6630   18.2770  -31.6720 C   0  0  0  0  0  0  0  0  0  0  0  0
   -7.6510   18.1120  -32.8250 C   0  0  0  0  0  0  0  0  0  0  0  0
   -8.4370   19.4140  -33.0550 C   0  0  0  0  0  0  0  0  0  0  0  0
   -6.8280   24.1520  -31.5100 C   0  0  0  0  0  0  0  0  0  0  0  0
   -5.7420   24.9870  -31.2310 C   0  0  0  0  0  0  0  0  0  0  0  0
   -4.5390   24.4500  -30.7650 C   0  0  0  0  0  0  0  0  0  0  0  0
   -3.4910   25.3060  -30.4510 O   0  0  0  0  0  0  0  0  0  0  0  0
   -2.3720   20.9760  -28.2320 C   0  0  0  0  0  0  0  0  0  0  0  0
   -3.0360   20.4570  -27.1040 C   0  0  0  0  0  0  0  0  0  0  0  0
   -2.6410   19.2460  -26.5380 C   0  0  0  0  0  0  0  0  0  0  0  0
   -1.5720   18.5380  -27.0810 C   0  0  0  0  0  0  0  0  0  0  0  0
   -0.8990   19.0350  -28.1970 C   0  0  0  0  0  0  0  0  0  0  0  0
   -1.2920   20.2450  -28.7950 C   0  0  0  0  0  0  0  0  0  0  0  0
   -0.4310   20.7890  -30.2470 S   0  0  0  0  0  0  0  0  0  0  0  0
   -0.2170   22.2770  -30.2120 O   0  0  0  0  0  0  0  0  0  0  0  0
    0.9070   20.1060  -30.3120 O   0  0  0  0  0  0  0  0  0  0  0  0
   -1.3630   20.4230  -31.6990 C   0  0  0  0  0  0  0  0  0  0  0  0
   -1.8510   21.4540  -32.5160 C   0  0  0  0  0  0  0  0  0  0  0  0
   -2.5700   21.1480  -33.6770 C   0  0  0  0  0  0  0  0  0  0  0  0
   -2.8000   19.8140  -34.0270 C   0  0  0  0  0  0  0  0  0  0  0  0
   -2.3110   18.7850  -33.2170 C   0  0  0  0  0  0  0  0  0  0  0  0
   -1.5930   19.0870  -32.0570 C   0  0  0  0  0  0  0  0  0  0  0  0
   -5.4288   21.1446  -30.6861 H   0  0  0  0  0  0  0  0  0  0  0  0
   -5.8798   19.9577  -34.0007 H   0  0  0  0  0  0  0  0  0  0  0  0
   -5.6473   21.3638  -32.8663 H   0  0  0  0  0  0  0  0  0  0  0  0
   -4.7069   19.0275  -32.1893 H   0  0  0  0  0  0  0  0  0  0  0  0
   -5.6390   20.0269  -30.9810 H   0  0  0  0  0  0  0  0  0  0  0  0
   -6.0856   17.3471  -31.5631 H   0  0  0  0  0  0  0  0  0  0  0  0
   -7.2380   18.4970  -30.7604 H   0  0  0  0  0  0  0  0  0  0  0  0
   -7.0981   17.8569  -33.7411 H   0  0  0  0  0  0  0  0  0  0  0  0
   -8.3599   17.3097  -32.5725 H   0  0  0  0  0  0  0  0  0  0  0  0
   -8.9151   19.3587  -34.0441 H   0  0  0  0  0  0  0  0  0  0  0  0
   -9.1655   19.4937  -32.2346 H   0  0  0  0  0  0  0  0  0  0  0  0
   -7.7694   24.5810  -31.8837 H   0  0  0  0  0  0  0  0  0  0  0  0
   -5.8350   26.0730  -31.3792 H   0  0  0  0  0  0  0  0  0  0  0  0
   -3.8765   21.0139  -26.6642 H   0  0  0  0  0  0  0  0  0  0  0  0
   -3.1743   18.8493  -25.6615 H   0  0  0  0  0  0  0  0  0  0  0  0
   -1.2579   17.5855  -26.6292 H   0  0  0  0  0  0  0  0  0  0  0  0
   -0.0503   18.4733  -28.6143 H   0  0  0  0  0  0  0  0  0  0  0  0
   -1.6682   22.5040  -32.2437 H   0  0  0  0  0  0  0  0  0  0  0  0
   -2.9545   21.9576  -34.3147 H   0  0  0  0  0  0  0  0  0  0  0  0
   -3.3656   19.5743  -34.9395 H   0  0  0  0  0  0  0  0  0  0  0  0
   -2.4918   17.7357  -33.4933 H   0  0  0  0  0  0  0  0  0  0  0  0
   -1.2073   18.2748  -31.4232 H   0  0  0  0  0  0  0  0  0  0  0  0
  1  2  2  0
  2  3  1  0
  3  4  1  0
  4  5  2  0
  5  6  1  0
  6  7  1  0
  7  8  2  0
  7  9  2  0
  7 10  1  0
 10 11  1  0
 11 12  1  0
 12 13  1  0
 13 14  1  0
 14 15  1  0
  6 16  2  0
 16 17  1  0
 17 18  2  0
 18 19  1  0
  2 20  1  0
 20 21  2  0
 21 22  1  0
 22 23  2  0
 23 24  1  0
 24 25  2  0
 25 26  1  0
 26 27  2  0
 26 28  2  0
 26 29  1  0
 29 30  2  0
 30 31  1  0
 31 32  2  0
 32 33  1  0
 33 34  2  0
 18  4  1  0
 25 20  1  0
 34 29  1  0
 15 10  1  0
  5 35  1  0
 11 36  1  0
 11 37  1  0
 12 38  1  0
 12 39  1  0
 13 40  1  0
 13 41  1  0
 14 42  1  0
 14 43  1  0
 15 44  1  0
 15 45  1  0
 16 46  1  0
 17 47  1  0
 21 48  1  0
 22 49  1  0
 23 50  1  0
 24 51  1  0
 30 52  1  0
 31 53  1  0
 32 54  1  0
 33 55  1  0
 34 56  1  0
M  CHG  2   3  -1  19  -1
M  END
>  <UniqueID>  (47) 
46

>  <SMILES>  (47) 
O=C([N-]c1cc(S(=O)(=O)N2CCCCC2)ccc1[O-])c1ccccc1S(=O)(=O)c1ccccc1

>  <Energy>  (47) 
80.81078671072004

>  <Genealogy>  (47) 
O=C([N-]c1cc(S(=O)(=O)N2CCCCC2)ccc1[O-])c1ccccc1S(=O)(=O)c1ccccc1 (protonated)
O=C([N-]c1cc(S(=O)(=O)N2CCCCC2)ccc1[O-])c1ccccc1S(=O)(=O)c1ccccc1 (3D coordinates assigned)
O=C([N-]c1cc(S(=O)(=O)N2CCCCC2)ccc1[O-])c1ccccc1S(=O)(=O)c1ccccc1 (nonaromatic ring conformer: 80.81078671072004 kcal/mol)

>  <smiles>  (47) 
O=C(Nc1cc(S(=O)(=O)N2CCCCC2)ccc1O)c1ccccc1S(=O)(=O)c1ccccc1

>  <score_type>  (47) 
oracle

>  <origin>  (47) 
adgpu

>  <m_score__min__energy>  (47) 
-14.73

>  <m_primary>  (47) 
energy

$$$$
47:0
     RDKit          3D

 44 46  0  0  0  0  0  0  0  0999 V2000
   -3.3900   17.6670  -32.7310 O   0  0  0  0  0  0  0  0  0  0  0  0
   -3.5910   18.8290  -33.6640 S   0  0  0  0  0  0  0  0  0  0  0  0
   -2.4150   18.9040  -34.5960 O   0  0  0  0  0  0  0  0  0  0  0  0
   -5.0420   18.5940  -34.5980 N   0  0  0  0  0  0  0  0  0  0  0  0
   -5.9790   17.6940  -33.9190 C   0  0  0  0  0  0  0  0  0  0  0  0
   -7.0020   18.4700  -33.1310 C   0  0  0  0  0  0  0  0  0  0  0  0
   -7.2290   19.8290  -33.4140 C   0  0  0  0  0  0  0  0  0  0  0  0
   -8.1490   20.5610  -32.6560 C   0  0  0  0  0  0  0  0  0  0  0  0
   -8.8530   19.9430  -31.6190 C   0  0  0  0  0  0  0  0  0  0  0  0
   -8.6450   18.5890  -31.3440 C   0  0  0  0  0  0  0  0  0  0  0  0
   -7.7300   17.8520  -32.1000 C   0  0  0  0  0  0  0  0  0  0  0  0
   -3.6880   20.3360  -32.7580 C   0  0  0  0  0  0  0  0  0  0  0  0
   -2.8000   20.5660  -31.7020 C   0  0  0  0  0  0  0  0  0  0  0  0
   -2.8140   21.7870  -31.0220 C   0  0  0  0  0  0  0  0  0  0  0  0
   -3.7210   22.7960  -31.3850 C   0  0  0  0  0  0  0  0  0  0  0  0
   -3.6930   24.0510  -30.6770 N   0  0  0  0  0  0  0  0  0  0  0  0
   -3.9150   24.1950  -29.2380 C   0  0  0  0  0  0  0  0  0  0  0  0
   -2.6520   23.8990  -28.4640 C   0  0  0  0  0  0  0  0  0  0  0  0
   -2.5740   22.7300  -27.6860 C   0  0  0  0  0  0  0  0  0  0  0  0
   -1.4090   22.4290  -26.9720 C   0  0  0  0  0  0  0  0  0  0  0  0
   -1.3480   21.2780  -26.1970 O   0  0  0  0  0  0  0  0  0  0  0  0
   -0.3080   23.2850  -27.0400 C   0  0  0  0  0  0  0  0  0  0  0  0
   -0.3660   24.4380  -27.8260 C   0  0  0  0  0  0  0  0  0  0  0  0
   -1.5280   24.7460  -28.5430 C   0  0  0  0  0  0  0  0  0  0  0  0
   -1.5510   25.8930  -29.3300 O   0  0  0  0  0  0  0  0  0  0  0  0
   -4.6220   22.5530  -32.4390 C   0  0  0  0  0  0  0  0  0  0  0  0
   -4.6080   21.3310  -33.1160 C   0  0  0  0  0  0  0  0  0  0  0  0
   -6.4955   17.0793  -34.6709 H   0  0  0  0  0  0  0  0  0  0  0  0
   -5.4111   17.0583  -33.2237 H   0  0  0  0  0  0  0  0  0  0  0  0
   -6.6816   20.3175  -34.2336 H   0  0  0  0  0  0  0  0  0  0  0  0
   -8.3186   21.6252  -32.8766 H   0  0  0  0  0  0  0  0  0  0  0  0
   -9.5706   20.5223  -31.0195 H   0  0  0  0  0  0  0  0  0  0  0  0
   -9.2029   18.1022  -30.5305 H   0  0  0  0  0  0  0  0  0  0  0  0
   -7.5788   16.7834  -31.8873 H   0  0  0  0  0  0  0  0  0  0  0  0
   -2.0874   19.7823  -31.4054 H   0  0  0  0  0  0  0  0  0  0  0  0
   -2.1087   21.9591  -30.1956 H   0  0  0  0  0  0  0  0  0  0  0  0
   -3.4900   24.9220  -31.2170 H   0  0  0  0  0  0  0  0  0  0  0  0
   -4.2347   25.2256  -29.0245 H   0  0  0  0  0  0  0  0  0  0  0  0
   -4.6914   23.4794  -28.9295 H   0  0  0  0  0  0  0  0  0  0  0  0
   -3.4352   22.0473  -27.6385 H   0  0  0  0  0  0  0  0  0  0  0  0
    0.6058   23.0511  -26.4741 H   0  0  0  0  0  0  0  0  0  0  0  0
    0.5054   25.1070  -27.8818 H   0  0  0  0  0  0  0  0  0  0  0  0
   -5.3424   23.3310  -32.7317 H   0  0  0  0  0  0  0  0  0  0  0  0
   -5.3217   21.1490  -33.9331 H   0  0  0  0  0  0  0  0  0  0  0  0
  1  2  2  0
  2  3  2  0
  2  4  1  0
  4  5  1  0
  5  6  1  0
  6  7  2  0
  7  8  1  0
  8  9  2  0
  9 10  1  0
 10 11  2  0
  2 12  1  0
 12 13  2  0
 13 14  1  0
 14 15  2  0
 15 16  1  0
 16 17  1  0
 17 18  1  0
 18 19  2  0
 19 20  1  0
 20 21  1  0
 20 22  2  0
 22 23  1  0
 23 24  2  0
 24 25  1  0
 15 26  1  0
 26 27  2  0
 11  6  1  0
 27 12  1  0
 24 18  1  0
  5 28  1  0
  5 29  1  0
  7 30  1  0
  8 31  1  0
  9 32  1  0
 10 33  1  0
 11 34  1  0
 13 35  1  0
 14 36  1  0
 16 37  1  0
 17 38  1  0
 17 39  1  0
 19 40  1  0
 22 41  1  0
 23 42  1  0
 26 43  1  0
 27 44  1  0
M  CHG  3   4  -1  21  -1  25  -1
M  END
>  <UniqueID>  (48) 
47

>  <SMILES>  (48) 
O=S(=O)([N-]Cc1ccccc1)c1ccc(NCc2cc([O-])ccc2[O-])cc1

>  <Energy>  (48) 
42.56814988954141

>  <Genealogy>  (48) 
O=S(=O)([N-]Cc1ccccc1)c1ccc(NCc2cc([O-])ccc2[O-])cc1 (protonated)
O=S(=O)([N-]Cc1ccccc1)c1ccc(NCc2cc([O-])ccc2[O-])cc1 (3D coordinates assigned)
O=S(=O)([N-]Cc1ccccc1)c1ccc(NCc2cc([O-])ccc2[O-])cc1 (optimized conformer: 42.56814988954141 kcal/mol)

>  <smiles>  (48) 
O=S(=O)(NCc1ccccc1)c1ccc(NCc2cc(O)ccc2O)cc1

>  <score_type>  (48) 
oracle

>  <origin>  (48) 
adgpu

>  <m_score__min__energy>  (48) 
-11.699999999999999

>  <m_primary>  (48) 
energy

$$$$
48:0
     RDKit          3D

 44 46  0  0  0  0  0  0  0  0999 V2000
   -3.4900   23.6190  -27.0130 O   0  0  0  0  0  0  0  0  0  0  0  0
   -2.9660   24.5080  -27.7390 C   0  0  0  0  0  0  0  0  0  0  0  0
   -3.2880   24.5700  -29.1380 N   0  0  0  0  0  0  0  0  0  0  0  0
   -4.4800   24.0040  -29.7100 C   0  0  0  0  0  0  0  0  0  0  0  0
   -5.7400   24.5940  -29.5120 C   0  0  0  0  0  0  0  0  0  0  0  0
   -6.8820   24.0350  -30.0940 C   0  0  0  0  0  0  0  0  0  0  0  0
   -6.7800   22.8840  -30.8860 C   0  0  0  0  0  0  0  0  0  0  0  0
   -8.2260   22.1620  -31.5970 S   0  0  0  0  0  0  0  0  0  0  0  0
   -8.9410   23.1970  -32.4230 O   0  0  0  0  0  0  0  0  0  0  0  0
   -9.1530   21.7240  -30.4970 O   0  0  0  0  0  0  0  0  0  0  0  0
   -7.8290   20.7860  -32.6000 N   0  0  0  0  0  0  0  0  0  0  0  0
   -9.0430   20.0270  -32.9930 C   0  0  0  0  0  0  0  0  0  0  0  0
   -9.2200   18.7270  -32.1950 C   0  0  0  0  0  0  0  0  0  0  0  0
   -8.0050   17.8000  -32.3650 C   0  0  0  0  0  0  0  0  0  0  0  0
   -6.6910   18.5750  -32.5790 C   0  0  0  0  0  0  0  0  0  0  0  0
   -6.7700   19.9740  -31.9620 C   0  0  0  0  0  0  0  0  0  0  0  0
   -5.5210   22.3090  -31.1080 C   0  0  0  0  0  0  0  0  0  0  0  0
   -4.3790   22.8690  -30.5280 C   0  0  0  0  0  0  0  0  0  0  0  0
   -1.9670   25.4300  -27.1500 C   0  0  0  0  0  0  0  0  0  0  0  0
   -1.8740   25.5490  -25.7500 C   0  0  0  0  0  0  0  0  0  0  0  0
   -0.9350   26.4050  -25.1690 C   0  0  0  0  0  0  0  0  0  0  0  0
   -0.0820   27.1590  -25.9770 C   0  0  0  0  0  0  0  0  0  0  0  0
   -0.1710   27.0640  -27.3670 C   0  0  0  0  0  0  0  0  0  0  0  0
   -1.1130   26.2130  -27.9580 C   0  0  0  0  0  0  0  0  0  0  0  0
   -1.2060   26.1770  -29.3450 O   0  0  0  0  0  0  0  0  0  0  0  0
   -2.5630   24.9500  -29.7880 H   0  0  0  0  0  0  0  0  0  0  0  0
   -5.8284   25.5008  -28.8956 H   0  0  0  0  0  0  0  0  0  0  0  0
   -7.8647   24.5011  -29.9292 H   0  0  0  0  0  0  0  0  0  0  0  0
   -9.9243   20.6638  -32.8262 H   0  0  0  0  0  0  0  0  0  0  0  0
   -8.9313   19.7514  -34.0520 H   0  0  0  0  0  0  0  0  0  0  0  0
   -9.3370   18.9733  -31.1293 H   0  0  0  0  0  0  0  0  0  0  0  0
  -10.1116   18.2052  -32.5728 H   0  0  0  0  0  0  0  0  0  0  0  0
   -7.9053   17.1812  -31.4610 H   0  0  0  0  0  0  0  0  0  0  0  0
   -8.1783   17.1862  -33.2612 H   0  0  0  0  0  0  0  0  0  0  0  0
   -5.8660   18.0206  -32.1079 H   0  0  0  0  0  0  0  0  0  0  0  0
   -6.5187   18.6791  -33.6604 H   0  0  0  0  0  0  0  0  0  0  0  0
   -6.9892   19.8798  -30.8882 H   0  0  0  0  0  0  0  0  0  0  0  0
   -5.8049   20.4774  -32.1205 H   0  0  0  0  0  0  0  0  0  0  0  0
   -5.4313   21.4138  -31.7409 H   0  0  0  0  0  0  0  0  0  0  0  0
   -3.3940   22.4163  -30.7144 H   0  0  0  0  0  0  0  0  0  0  0  0
   -2.5471   24.9623  -25.1076 H   0  0  0  0  0  0  0  0  0  0  0  0
   -0.8678   26.4849  -24.0740 H   0  0  0  0  0  0  0  0  0  0  0  0
    0.6606   27.8283  -25.5182 H   0  0  0  0  0  0  0  0  0  0  0  0
    0.5019   27.6603  -28.0008 H   0  0  0  0  0  0  0  0  0  0  0  0
  1  2  2  0
  2  3  1  0
  3  4  1  0
  4  5  2  0
  5  6  1  0
  6  7  2  0
  7  8  1  0
  8  9  2  0
  8 10  2  0
  8 11  1  0
 11 12  1  0
 12 13  1  0
 13 14  1  0
 14 15  1  0
 15 16  1  0
  7 17  1  0
 17 18  2  0
  2 19  1  0
 19 20  2  0
 20 21  1  0
 21 22  2  0
 22 23  1  0
 23 24  2  0
 24 25  1  0
 18  4  1  0
 24 19  1  0
 16 11  1  0
  3 26  1  0
  5 27  1  0
  6 28  1  0
 12 29  1  0
 12 30  1  0
 13 31  1  0
 13 32  1  0
 14 33  1  0
 14 34  1  0
 15 35  1  0
 15 36  1  0
 16 37  1  0
 16 38  1  0
 17 39  1  0
 18 40  1  0
 20 41  1  0
 21 42  1  0
 22 43  1  0
 23 44  1  0
M  CHG  1  25  -1
M  END
>  <UniqueID>  (49) 
48

>  <SMILES>  (49) 
O=C(Nc1ccc(S(=O)(=O)N2CCCCC2)cc1)c1ccccc1[O-]

>  <Energy>  (49) 
57.34387020580471

>  <Genealogy>  (49) 
O=C(Nc1ccc(S(=O)(=O)N2CCCCC2)cc1)c1ccccc1[O-] (protonated)
O=C(Nc1ccc(S(=O)(=O)N2CCCCC2)cc1)c1ccccc1[O-] (3D coordinates assigned)
O=C(Nc1ccc(S(=O)(=O)N2CCCCC2)cc1)c1ccccc1[O-] (nonaromatic ring conformer: 57.34387020580471 kcal/mol)

>  <smiles>  (49) 
O=C(Nc1ccc(S(=O)(=O)N2CCCCC2)cc1)c1ccccc1O

>  <score_type>  (49) 
oracle

>  <origin>  (49) 
adgpu

>  <m_score__min__energy>  (49) 
-12.93

>  <m_primary>  (49) 
energy

$$$$
49:0
     RDKit          3D

 56 59  0  0  0  0  0  0  0  0999 V2000
   -0.5110   22.2450  -28.8690 C   0  0  0  0  0  0  0  0  0  0  0  0
    0.2220   21.1740  -29.4560 O   0  0  0  0  0  0  0  0  0  0  0  0
   -0.1800   20.4810  -30.6100 C   0  0  0  0  0  0  0  0  0  0  0  0
   -0.4710   19.1080  -30.6030 C   0  0  0  0  0  0  0  0  0  0  0  0
   -0.8490   18.4610  -31.7800 C   0  0  0  0  0  0  0  0  0  0  0  0
   -0.9390   19.1670  -32.9870 C   0  0  0  0  0  0  0  0  0  0  0  0
   -1.2970   18.4160  -34.2490 C   0  0  0  0  0  0  0  0  0  0  0  0
   -2.7050   18.0100  -34.2200 N   0  0  0  0  0  0  0  0  0  0  0  0
   -3.2150   16.8040  -34.5730 C   0  0  0  0  0  0  0  0  0  0  0  0
   -4.5690   16.7520  -34.4890 N   0  0  0  0  0  0  0  0  0  0  0  0
   -4.8970   17.9920  -34.0720 C   0  0  0  0  0  0  0  0  0  0  0  0
   -6.1730   18.5080  -33.8600 C   0  0  0  0  0  0  0  0  0  0  0  0
   -6.2900   19.8660  -33.5020 C   0  0  0  0  0  0  0  0  0  0  0  0
   -7.6010   20.4240  -33.3450 N   0  0  0  0  0  0  0  0  0  0  0  0
   -8.1270   21.3160  -31.9510 S   0  0  0  0  0  0  0  0  0  0  0  0
   -8.5140   20.3750  -30.8460 O   0  0  0  0  0  0  0  0  0  0  0  0
   -9.3300   22.1340  -32.3190 O   0  0  0  0  0  0  0  0  0  0  0  0
   -6.8330   22.4000  -31.4410 C   0  0  0  0  0  0  0  0  0  0  0  0
   -5.7350   21.9170  -30.7200 C   0  0  0  0  0  0  0  0  0  0  0  0
   -4.6810   22.7760  -30.3860 C   0  0  0  0  0  0  0  0  0  0  0  0
   -4.7250   24.1290  -30.7480 C   0  0  0  0  0  0  0  0  0  0  0  0
   -3.6060   24.9720  -30.4390 N   0  0  0  0  0  0  0  0  0  0  0  0
   -2.7780   24.8790  -29.2720 C   0  0  0  0  0  0  0  0  0  0  0  0
   -3.2450   24.1950  -28.0250 C   0  0  0  0  0  0  0  0  0  0  0  0
   -1.6140   25.3510  -29.3080 O   0  0  0  0  0  0  0  0  0  0  0  0
   -5.8200   24.6060  -31.4850 C   0  0  0  0  0  0  0  0  0  0  0  0
   -6.8680   23.7470  -31.8250 C   0  0  0  0  0  0  0  0  0  0  0  0
   -5.1160   20.6540  -33.3300 C   0  0  0  0  0  0  0  0  0  0  0  0
   -3.8430   20.0950  -33.5320 C   0  0  0  0  0  0  0  0  0  0  0  0
   -3.7790   18.7540  -33.9110 C   0  0  0  0  0  0  0  0  0  0  0  0
   -0.6780   20.5570  -33.0020 C   0  0  0  0  0  0  0  0  0  0  0  0
   -0.8070   21.2680  -34.2090 O   0  0  0  0  0  0  0  0  0  0  0  0
    0.2560   21.5240  -35.1180 C   0  0  0  0  0  0  0  0  0  0  0  0
   -0.2890   21.1980  -31.8080 C   0  0  0  0  0  0  0  0  0  0  0  0
   -0.4583   22.1680  -27.7730 H   0  0  0  0  0  0  0  0  0  0  0  0
   -0.0792   23.2043  -29.1904 H   0  0  0  0  0  0  0  0  0  0  0  0
   -1.5616   22.1898  -29.1904 H   0  0  0  0  0  0  0  0  0  0  0  0
   -0.4007   18.5388  -29.6643 H   0  0  0  0  0  0  0  0  0  0  0  0
   -1.0788   17.3854  -31.7602 H   0  0  0  0  0  0  0  0  0  0  0  0
   -1.1253   19.0668  -35.1191 H   0  0  0  0  0  0  0  0  0  0  0  0
   -0.6677   17.5166  -34.3196 H   0  0  0  0  0  0  0  0  0  0  0  0
   -2.5947   15.9544  -34.8946 H   0  0  0  0  0  0  0  0  0  0  0  0
   -7.0648   17.8733  -33.9690 H   0  0  0  0  0  0  0  0  0  0  0  0
   -5.7000   20.8607  -30.4152 H   0  0  0  0  0  0  0  0  0  0  0  0
   -3.8122   22.3860  -29.8355 H   0  0  0  0  0  0  0  0  0  0  0  0
   -2.8723   24.7409  -27.1458 H   0  0  0  0  0  0  0  0  0  0  0  0
   -4.3447   24.1772  -28.0065 H   0  0  0  0  0  0  0  0  0  0  0  0
   -2.8612   23.1643  -28.0065 H   0  0  0  0  0  0  0  0  0  0  0  0
   -5.8532   25.6605  -31.7962 H   0  0  0  0  0  0  0  0  0  0  0  0
   -7.7255   24.1304  -32.3974 H   0  0  0  0  0  0  0  0  0  0  0  0
   -5.2069   21.7101  -33.0363 H   0  0  0  0  0  0  0  0  0  0  0  0
   -2.9298   20.6931  -33.3962 H   0  0  0  0  0  0  0  0  0  0  0  0
    1.1747   21.7452  -34.5549 H   0  0  0  0  0  0  0  0  0  0  0  0
    0.4181   20.6392  -35.7512 H   0  0  0  0  0  0  0  0  0  0  0  0
   -0.0025   22.3856  -35.7512 H   0  0  0  0  0  0  0  0  0  0  0  0
   -0.0682   22.2756  -31.8176 H   0  0  0  0  0  0  0  0  0  0  0  0
  1  2  1  0
  2  3  1  0
  3  4  2  0
  4  5  1  0
  5  6  2  0
  6  7  1  0
  7  8  1  0
  8  9  1  0
  9 10  2  0
 10 11  1  0
 11 12  2  0
 12 13  1  0
 13 14  1  0
 14 15  1  0
 15 16  2  0
 15 17  2  0
 15 18  1  0
 18 19  2  0
 19 20  1  0
 20 21  2  0
 21 22  1  0
 22 23  1  0
 23 24  1  0
 23 25  2  0
 21 26  1  0
 26 27  2  0
 13 28  2  0
 28 29  1  0
 29 30  2  0
  6 31  1  0
 31 32  1  0
 32 33  1  0
 31 34  2  0
 34  3  1  0
 30  8  1  0
 30 11  1  0
 27 18  1  0
  1 35  1  0
  1 36  1  0
  1 37  1  0
  4 38  1  0
  5 39  1  0
  7 40  1  0
  7 41  1  0
  9 42  1  0
 12 43  1  0
 19 44  1  0
 20 45  1  0
 24 46  1  0
 24 47  1  0
 24 48  1  0
 26 49  1  0
 27 50  1  0
 28 51  1  0
 29 52  1  0
 33 53  1  0
 33 54  1  0
 33 55  1  0
 34 56  1  0
M  CHG  2  14  -1  22  -1
M  END
>  <UniqueID>  (50) 
49

>  <SMILES>  (50) 
COc1ccc(Cn2cnc3cc([N-]S(=O)(=O)c4ccc([N-]C(C)=O)cc4)ccc32)c(OC)c1

>  <Energy>  (50) 
103.03267084669162

>  <Genealogy>  (50) 
COc1ccc(Cn2cnc3cc([N-]S(=O)(=O)c4ccc([N-]C(C)=O)cc4)ccc32)c(OC)c1 (protonated)
COc1ccc(Cn2cnc3cc([N-]S(=O)(=O)c4ccc([N-]C(C)=O)cc4)ccc32)c(OC)c1 (3D coordinates assigned)
COc1ccc(Cn2cnc3cc([N-]S(=O)(=O)c4ccc([N-]C(C)=O)cc4)ccc32)c(OC)c1 (optimized conformer: 103.03267084669162 kcal/mol)

>  <smiles>  (50) 
COc1ccc(Cn2cnc3cc(NS(=O)(=O)c4ccc(NC(C)=O)cc4)ccc32)c(OC)c1

>  <score_type>  (50) 
oracle

>  <origin>  (50) 
adgpu

>  <m_score__min__energy>  (50) 
-10.67

>  <m_primary>  (50) 
energy

$$$$
