0:0
     RDKit          3D

 39 41  0  0  0  0  0  0  0  0999 V2000
   -3.9750   25.3690  -30.7060 O   0  0  0  0  0  0  0  0  0  0  0  0
   -3.7710   24.1370  -30.5410 C   0  0  0  0  0  0  0  0  0  0  0  0
   -4.3020   23.2210  -31.5120 N   0  0  0  0  0  0  0  0  0  0  0  0
   -5.6710   22.8010  -31.6260 C   0  0  0  0  0  0  0  0  0  0  0  0
   -6.6680   23.7860  -31.6060 C   0  0  0  0  0  0  0  0  0  0  0  0
   -8.0180   23.4270  -31.6050 C   0  0  0  0  0  0  0  0  0  0  0  0
   -8.3840   22.0800  -31.6290 C   0  0  0  0  0  0  0  0  0  0  0  0
   -7.4000   21.0900  -31.6860 C   0  0  0  0  0  0  0  0  0  0  0  0
   -6.0440   21.4370  -31.7230 C   0  0  0  0  0  0  0  0  0  0  0  0
   -5.0780   20.3910  -31.8740 N   0  0  0  0  0  0  0  0  0  0  0  0
   -4.7650   19.7570  -33.1200 C   0  0  0  0  0  0  0  0  0  0  0  0
   -5.6910   19.4400  -33.9140 O   0  0  0  0  0  0  0  0  0  0  0  0
   -3.3560   19.5220  -33.5050 C   0  0  0  0  0  0  0  0  0  0  0  0
   -3.0330   18.3130  -34.1500 C   0  0  0  0  0  0  0  0  0  0  0  0
   -1.7400   18.0850  -34.6270 C   0  0  0  0  0  0  0  0  0  0  0  0
   -0.7560   19.0600  -34.4710 C   0  0  0  0  0  0  0  0  0  0  0  0
   -1.0530   20.2540  -33.8140 C   0  0  0  0  0  0  0  0  0  0  0  0
   -2.3370   20.4870  -33.3060 C   0  0  0  0  0  0  0  0  0  0  0  0
   -2.5460   21.6650  -32.5850 O   0  0  0  0  0  0  0  0  0  0  0  0
   -3.0300   23.6760  -29.3390 C   0  0  0  0  0  0  0  0  0  0  0  0
   -3.3710   22.4580  -28.7210 C   0  0  0  0  0  0  0  0  0  0  0  0
   -2.6710   22.0110  -27.5980 C   0  0  0  0  0  0  0  0  0  0  0  0
   -1.6320   22.7790  -27.0690 C   0  0  0  0  0  0  0  0  0  0  0  0
   -1.2990   24.0000  -27.6560 C   0  0  0  0  0  0  0  0  0  0  0  0
   -1.9940   24.4560  -28.7820 C   0  0  0  0  0  0  0  0  0  0  0  0
   -1.6390   25.6790  -29.3420 O   0  0  0  0  0  0  0  0  0  0  0  0
   -6.3854   24.8490  -31.5910 H   0  0  0  0  0  0  0  0  0  0  0  0
   -8.7937   24.2067  -31.5853 H   0  0  0  0  0  0  0  0  0  0  0  0
   -9.4470   21.7982  -31.6030 H   0  0  0  0  0  0  0  0  0  0  0  0
   -7.6927   20.0298  -31.7019 H   0  0  0  0  0  0  0  0  0  0  0  0
   -3.8058   17.5410  -34.2795 H   0  0  0  0  0  0  0  0  0  0  0  0
   -1.4981   17.1351  -35.1262 H   0  0  0  0  0  0  0  0  0  0  0  0
    0.2559   18.8875  -34.8665 H   0  0  0  0  0  0  0  0  0  0  0  0
   -0.2719   21.0192  -33.6939 H   0  0  0  0  0  0  0  0  0  0  0  0
   -3.4130   21.8780  -32.1110 H   0  0  0  0  0  0  0  0  0  0  0  0
   -4.1957   21.8532  -29.1259 H   0  0  0  0  0  0  0  0  0  0  0  0
   -2.9388   21.0524  -27.1297 H   0  0  0  0  0  0  0  0  0  0  0  0
   -1.0761   22.4215  -26.1897 H   0  0  0  0  0  0  0  0  0  0  0  0
   -0.4860   24.6075  -27.2317 H   0  0  0  0  0  0  0  0  0  0  0  0
  1  2  2  0
  2  3  1  0
  3  4  1  0
  4  5  2  0
  5  6  1  0
  6  7  2  0
  7  8  1  0
  8  9  2  0
  9 10  1  0
 10 11  1  0
 11 12  2  0
 11 13  1  0
 13 14  2  0
 14 15  1  0
 15 16  2  0
 16 17  1  0
 17 18  2  0
 18 19  1  0
  2 20  1  0
 20 21  2  0
 21 22  1  0
 22 23  2  0
 23 24  1  0
 24 25  2  0
 25 26  1  0
  9  4  1  0
 18 13  1  0
 25 20  1  0
  5 27  1  0
  6 28  1  0
  7 29  1  0
  8 30  1  0
 14 31  1  0
 15 32  1  0
 16 33  1  0
 17 34  1  0
 19 35  1  0
 21 36  1  0
 22 37  1  0
 23 38  1  0
 24 39  1  0
M  CHG  3   3  -1  10  -1  26  -1
M  END
>  <UniqueID>  (1) 
1

>  <SMILES>  (1) 
O=C([N-]c1ccccc1[N-]C(=O)c1ccccc1O)c1ccccc1[O-]

>  <Energy>  (1) 
61.28934475548181

>  <Genealogy>  (1) 
O=C([N-]c1ccccc1[N-]C(=O)c1ccccc1O)c1ccccc1[O-] (protonated)
O=C([N-]c1ccccc1[N-]C(=O)c1ccccc1O)c1ccccc1[O-] (3D coordinates assigned)
O=C([N-]c1ccccc1[N-]C(=O)c1ccccc1O)c1ccccc1[O-] (optimized conformer: 61.28934475548181 kcal/mol)

>  <smiles>  (1) 
O=C(Nc1ccccc1NC(=O)c1ccccc1O)c1ccccc1O

>  <score_type>  (1) 
oracle

>  <origin>  (1) 
adgpu

>  <m_score__min__energy>  (1) 
-12.06

>  <m_primary>  (1) 
energy

$$$$
1:0
     RDKit          3D

 41 43  0  0  0  0  0  0  0  0999 V2000
   -1.5310   20.9710  -28.4260 C   0  0  0  0  0  0  0  0  0  0  0  0
   -2.1730   22.2100  -28.9540 C   0  0  0  0  0  0  0  0  0  0  0  0
   -1.6190   23.4250  -28.6990 N   0  0  0  0  0  0  0  0  0  0  0  0
   -2.1680   24.5630  -29.1980 C   0  0  0  0  0  0  0  0  0  0  0  0
   -1.6300   25.6740  -28.9520 O   0  0  0  0  0  0  0  0  0  0  0  0
   -3.3190   24.4940  -29.9880 C   0  0  0  0  0  0  0  0  0  0  0  0
   -3.8570   25.6510  -30.5430 O   0  0  0  0  0  0  0  0  0  0  0  0
   -3.8950   23.2350  -30.2240 C   0  0  0  0  0  0  0  0  0  0  0  0
   -5.1130   23.0730  -31.0400 C   0  0  0  0  0  0  0  0  0  0  0  0
   -5.8860   24.1760  -31.4380 C   0  0  0  0  0  0  0  0  0  0  0  0
   -7.0280   23.8370  -32.1520 C   0  0  0  0  0  0  0  0  0  0  0  0
   -7.0780   22.1650  -32.3140 S   0  0  0  0  0  0  0  0  0  0  0  0
   -5.6480   21.8600  -31.4870 C   0  0  0  0  0  0  0  0  0  0  0  0
   -5.0710   20.5550  -31.3710 N   0  0  0  0  0  0  0  0  0  0  0  0
   -4.6360   19.5880  -32.7480 S   0  0  0  0  0  0  0  0  0  0  0  0
   -4.7180   18.1360  -32.3710 O   0  0  0  0  0  0  0  0  0  0  0  0
   -5.6090   19.8560  -33.8610 O   0  0  0  0  0  0  0  0  0  0  0  0
   -3.0180   19.9780  -33.3300 C   0  0  0  0  0  0  0  0  0  0  0  0
   -2.4530   21.2350  -33.0750 C   0  0  0  0  0  0  0  0  0  0  0  0
   -1.1890   21.5540  -33.5800 C   0  0  0  0  0  0  0  0  0  0  0  0
   -0.4760   20.6130  -34.3380 C   0  0  0  0  0  0  0  0  0  0  0  0
    1.0920   21.0190  -35.0260 S   0  0  0  0  0  0  0  0  0  0  0  0
    2.3690   20.1790  -34.1160 C   0  0  0  0  0  0  0  0  0  0  0  0
    1.3050   22.5050  -34.9460 O   0  0  0  0  0  0  0  0  0  0  0  0
    1.1520   20.5970  -36.4670 O   0  0  0  0  0  0  0  0  0  0  0  0
   -1.0320   19.3490  -34.5710 C   0  0  0  0  0  0  0  0  0  0  0  0
   -2.2930   19.0300  -34.0620 C   0  0  0  0  0  0  0  0  0  0  0  0
   -3.2900   22.1250  -29.7230 N   0  0  0  0  0  0  0  0  0  0  0  0
   -1.5421   20.9924  -27.3263 H   0  0  0  0  0  0  0  0  0  0  0  0
   -2.0862   20.0904  -28.7812 H   0  0  0  0  0  0  0  0  0  0  0  0
   -0.4914   20.9168  -28.7812 H   0  0  0  0  0  0  0  0  0  0  0  0
   -5.6115   25.2154  -31.2050 H   0  0  0  0  0  0  0  0  0  0  0  0
   -7.7738   24.5436  -32.5451 H   0  0  0  0  0  0  0  0  0  0  0  0
   -5.2230   20.0410  -30.4750 H   0  0  0  0  0  0  0  0  0  0  0  0
   -3.0060   21.9731  -32.4755 H   0  0  0  0  0  0  0  0  0  0  0  0
   -0.7528   22.5444  -33.3827 H   0  0  0  0  0  0  0  0  0  0  0  0
    2.1890   20.2974  -33.0373 H   0  0  0  0  0  0  0  0  0  0  0  0
    2.3603   19.1097  -34.3740 H   0  0  0  0  0  0  0  0  0  0  0  0
    3.3474   20.6104  -34.3740 H   0  0  0  0  0  0  0  0  0  0  0  0
   -0.4734   18.6044  -35.1572 H   0  0  0  0  0  0  0  0  0  0  0  0
   -2.7179   18.0306  -34.2369 H   0  0  0  0  0  0  0  0  0  0  0  0
  1  2  1  0
  2  3  2  0
  3  4  1  0
  4  5  2  0
  4  6  1  0
  6  7  1  0
  6  8  2  0
  8  9  1  0
  9 10  1  0
 10 11  2  0
 11 12  1  0
 12 13  1  0
 13 14  1  0
 14 15  1  0
 15 16  2  0
 15 17  2  0
 15 18  1  0
 18 19  2  0
 19 20  1  0
 20 21  2  0
 21 22  1  0
 22 23  1  0
 22 24  2  0
 22 25  2  0
 21 26  1  0
 26 27  2  0
  8 28  1  0
 28  2  1  0
 13  9  2  0
 27 18  1  0
  1 29  1  0
  1 30  1  0
  1 31  1  0
 10 32  1  0
 11 33  1  0
 14 34  1  0
 19 35  1  0
 20 36  1  0
 23 37  1  0
 23 38  1  0
 23 39  1  0
 26 40  1  0
 27 41  1  0
M  CHG  2   7  -1  28  -1
M  END
>  <UniqueID>  (2) 
2

>  <SMILES>  (2) 
Cc1nc(=O)c([O-])c(-c2ccsc2NS(=O)(=O)c2ccc(S(C)(=O)=O)cc2)[n-]1

>  <Energy>  (2) 
73.81311821848404

>  <Genealogy>  (2) 
Cc1nc(=O)c([O-])c(-c2ccsc2NS(=O)(=O)c2ccc(S(C)(=O)=O)cc2)[n-]1 (protonated)
Cc1nc(=O)c([O-])c(-c2ccsc2NS(=O)(=O)c2ccc(S(C)(=O)=O)cc2)[n-]1 (3D coordinates assigned)
Cc1nc(=O)c([O-])c(-c2ccsc2NS(=O)(=O)c2ccc(S(C)(=O)=O)cc2)[n-]1 (optimized conformer: 73.81311821848404 kcal/mol)

>  <smiles>  (2) 
Cc1nc(=O)c(O)c(-c2ccsc2NS(=O)(=O)c2ccc(S(C)(=O)=O)cc2)[nH]1

>  <score_type>  (2) 
oracle

>  <origin>  (2) 
adgpu

>  <m_score__min__energy>  (2) 
-13.43

>  <m_primary>  (2) 
energy

$$$$
2:0
     RDKit          3D

 48 50  0  0  0  0  0  0  0  0999 V2000
   -4.7870   17.3170  -33.2670 C   0  0  0  0  0  0  0  0  0  0  0  0
   -6.0980   18.3770  -33.8320 S   0  0  0  0  0  0  0  0  0  0  0  0
   -6.0900   18.4290  -35.3350 O   0  0  0  0  0  0  0  0  0  0  0  0
   -7.4200   17.8260  -33.3760 O   0  0  0  0  0  0  0  0  0  0  0  0
   -5.8650   19.9940  -33.1780 C   0  0  0  0  0  0  0  0  0  0  0  0
   -4.5880   20.5690  -33.1580 C   0  0  0  0  0  0  0  0  0  0  0  0
   -4.4070   21.8590  -32.6540 C   0  0  0  0  0  0  0  0  0  0  0  0
   -5.4940   22.5850  -32.1510 C   0  0  0  0  0  0  0  0  0  0  0  0
   -5.2610   23.9040  -31.6430 N   0  0  0  0  0  0  0  0  0  0  0  0
   -4.2020   24.2480  -30.7450 C   0  0  0  0  0  0  0  0  0  0  0  0
   -3.8700   25.4550  -30.5890 O   0  0  0  0  0  0  0  0  0  0  0  0
   -3.5200   23.2060  -30.0330 N   0  0  0  0  0  0  0  0  0  0  0  0
   -2.5700   23.4330  -28.9780 C   0  0  0  0  0  0  0  0  0  0  0  0
   -1.2220   23.1060  -29.1840 C   0  0  0  0  0  0  0  0  0  0  0  0
   -0.2820   23.2960  -28.1680 C   0  0  0  0  0  0  0  0  0  0  0  0
   -0.6810   23.7950  -26.9200 C   0  0  0  0  0  0  0  0  0  0  0  0
    0.5080   24.0420  -25.6360 S   0  0  0  0  0  0  0  0  0  0  0  0
    1.8830   23.7890  -26.1880 O   0  0  0  0  0  0  0  0  0  0  0  0
    0.2570   23.0450  -24.5400 O   0  0  0  0  0  0  0  0  0  0  0  0
    0.4550   25.6540  -24.9610 N   0  0  0  0  0  0  0  0  0  0  0  0
   -0.0370   26.6370  -25.9250 C   0  0  0  0  0  0  0  0  0  0  0  0
   -0.6210   27.7800  -25.1090 C   0  0  0  0  0  0  0  0  0  0  0  0
   -0.8920   27.1940  -23.7310 C   0  0  0  0  0  0  0  0  0  0  0  0
   -0.4490   25.7420  -23.8160 C   0  0  0  0  0  0  0  0  0  0  0  0
   -2.0300   24.1110  -26.7040 C   0  0  0  0  0  0  0  0  0  0  0  0
   -2.9700   23.9220  -27.7220 C   0  0  0  0  0  0  0  0  0  0  0  0
   -6.7880   22.0240  -32.2080 C   0  0  0  0  0  0  0  0  0  0  0  0
   -8.2180   22.9400  -31.7480 Cl  0  0  0  0  0  0  0  0  0  0  0  0
   -6.9630   20.7310  -32.7150 C   0  0  0  0  0  0  0  0  0  0  0  0
   -4.7729   17.3056  -32.1671 H   0  0  0  0  0  0  0  0  0  0  0  0
   -4.9532   16.2964  -33.6422 H   0  0  0  0  0  0  0  0  0  0  0  0
   -3.8238   17.6932  -33.6422 H   0  0  0  0  0  0  0  0  0  0  0  0
   -3.7255   20.0033  -33.5402 H   0  0  0  0  0  0  0  0  0  0  0  0
   -3.4029   22.3082  -32.6521 H   0  0  0  0  0  0  0  0  0  0  0  0
   -3.6570   22.2270  -30.3720 H   0  0  0  0  0  0  0  0  0  0  0  0
   -0.9021   22.6965  -30.1535 H   0  0  0  0  0  0  0  0  0  0  0  0
    0.7756   23.0531  -28.3480 H   0  0  0  0  0  0  0  0  0  0  0  0
    0.7893   27.0009  -26.5533 H   0  0  0  0  0  0  0  0  0  0  0  0
   -0.7912   26.1976  -26.5944 H   0  0  0  0  0  0  0  0  0  0  0  0
    0.0974   28.6101  -25.0399 H   0  0  0  0  0  0  0  0  0  0  0  0
   -1.5344   28.1861  -25.5682 H   0  0  0  0  0  0  0  0  0  0  0  0
   -0.3123   27.7291  -22.9644 H   0  0  0  0  0  0  0  0  0  0  0  0
   -1.9517   27.2828  -23.4497 H   0  0  0  0  0  0  0  0  0  0  0  0
    0.0748   25.4492  -22.8941 H   0  0  0  0  0  0  0  0  0  0  0  0
   -1.3103   25.0681  -23.9345 H   0  0  0  0  0  0  0  0  0  0  0  0
   -2.3501   24.5092  -25.7298 H   0  0  0  0  0  0  0  0  0  0  0  0
   -4.0288   24.1574  -27.5389 H   0  0  0  0  0  0  0  0  0  0  0  0
   -7.9702   20.2902  -32.7502 H   0  0  0  0  0  0  0  0  0  0  0  0
  1  2  1  0
  2  3  2  0
  2  4  2  0
  2  5  1  0
  5  6  2  0
  6  7  1  0
  7  8  2  0
  8  9  1  0
  9 10  1  0
 10 11  2  0
 10 12  1  0
 12 13  1  0
 13 14  2  0
 14 15  1  0
 15 16  2  0
 16 17  1  0
 17 18  2  0
 17 19  2  0
 17 20  1  0
 20 21  1  0
 21 22  1  0
 22 23  1  0
 23 24  1  0
 16 25  1  0
 25 26  2  0
  8 27  1  0
 27 28  1  0
 27 29  2  0
 29  5  1  0
 26 13  1  0
 24 20  1  0
  1 30  1  0
  1 31  1  0
  1 32  1  0
  6 33  1  0
  7 34  1  0
 12 35  1  0
 14 36  1  0
 15 37  1  0
 21 38  1  0
 21 39  1  0
 22 40  1  0
 22 41  1  0
 23 42  1  0
 23 43  1  0
 24 44  1  0
 24 45  1  0
 25 46  1  0
 26 47  1  0
 29 48  1  0
M  CHG  1   9  -1
M  END
>  <UniqueID>  (3) 
3

>  <SMILES>  (3) 
CS(=O)(=O)c1ccc([N-]C(=O)Nc2ccc(S(=O)(=O)N3CCCC3)cc2)c(Cl)c1

>  <Energy>  (3) 
57.619475737969815

>  <Genealogy>  (3) 
CS(=O)(=O)c1ccc([N-]C(=O)Nc2ccc(S(=O)(=O)N3CCCC3)cc2)c(Cl)c1 (protonated)
CS(=O)(=O)c1ccc([N-]C(=O)Nc2ccc(S(=O)(=O)N3CCCC3)cc2)c(Cl)c1 (3D coordinates assigned)
CS(=O)(=O)c1ccc([N-]C(=O)Nc2ccc(S(=O)(=O)N3CCCC3)cc2)c(Cl)c1 (nonaromatic ring conformer: 57.619475737969815 kcal/mol)

>  <smiles>  (3) 
CS(=O)(=O)c1ccc(NC(=O)Nc2ccc(S(=O)(=O)N3CCCC3)cc2)c(Cl)c1

>  <score_type>  (3) 
oracle

>  <origin>  (3) 
adgpu

>  <m_score__min__energy>  (3) 
-11.07

>  <m_primary>  (3) 
energy

$$$$
3:0
     RDKit          3D

 40 42  0  0  0  0  0  0  0  0999 V2000
   -4.2370   22.3200  -29.3980 O   0  0  0  0  0  0  0  0  0  0  0  0
   -4.5110   22.8060  -30.7950 S   0  0  0  0  0  0  0  0  0  0  0  0
   -4.1800   24.2710  -30.8640 O   0  0  0  0  0  0  0  0  0  0  0  0
   -6.2020   22.5450  -31.2030 C   0  0  0  0  0  0  0  0  0  0  0  0
   -7.0680   23.6300  -31.3930 C   0  0  0  0  0  0  0  0  0  0  0  0
   -8.3940   23.4090  -31.7770 C   0  0  0  0  0  0  0  0  0  0  0  0
   -8.8540   22.1060  -31.9900 C   0  0  0  0  0  0  0  0  0  0  0  0
   -7.9910   21.0150  -31.8120 C   0  0  0  0  0  0  0  0  0  0  0  0
   -8.5460   19.3740  -32.1460 S   0  0  0  0  0  0  0  0  0  0  0  0
   -9.8790   19.4310  -32.8390 O   0  0  0  0  0  0  0  0  0  0  0  0
   -8.7280   18.6390  -30.8470 O   0  0  0  0  0  0  0  0  0  0  0  0
   -7.4060   18.5080  -33.1510 N   0  0  0  0  0  0  0  0  0  0  0  0
   -6.7330   17.4140  -32.4050 C   0  0  0  0  0  0  0  0  0  0  0  0
   -5.2920   17.7580  -32.0020 C   0  0  0  0  0  0  0  0  0  0  0  0
   -4.4340   18.0980  -33.2330 C   0  0  0  0  0  0  0  0  0  0  0  0
   -5.2490   18.7440  -34.3680 C   0  0  0  0  0  0  0  0  0  0  0  0
   -6.4890   19.4570  -33.8180 C   0  0  0  0  0  0  0  0  0  0  0  0
   -6.6700   21.2400  -31.4010 C   0  0  0  0  0  0  0  0  0  0  0  0
   -3.5130   21.9290  -31.9370 C   0  0  0  0  0  0  0  0  0  0  0  0
   -3.7180   21.8640  -33.2950 C   0  0  0  0  0  0  0  0  0  0  0  0
   -2.7230   21.1380  -33.8230 N   0  0  0  0  0  0  0  0  0  0  0  0
   -1.9420   20.7840  -32.7830 C   0  0  0  0  0  0  0  0  0  0  0  0
   -2.3940   21.2570  -31.6020 N   0  0  0  0  0  0  0  0  0  0  0  0
   -6.7042   24.6567  -31.2399 H   0  0  0  0  0  0  0  0  0  0  0  0
   -9.0762   24.2613  -31.9117 H   0  0  0  0  0  0  0  0  0  0  0  0
   -9.8962   21.9360  -32.2982 H   0  0  0  0  0  0  0  0  0  0  0  0
   -7.3112   17.2049  -31.4929 H   0  0  0  0  0  0  0  0  0  0  0  0
   -6.6875   16.5411  -33.0728 H   0  0  0  0  0  0  0  0  0  0  0  0
   -5.3064   18.6246  -31.3247 H   0  0  0  0  0  0  0  0  0  0  0  0
   -4.8521   16.8818  -31.5031 H   0  0  0  0  0  0  0  0  0  0  0  0
   -3.6419   18.7973  -32.9271 H   0  0  0  0  0  0  0  0  0  0  0  0
   -4.0192   17.1549  -33.6184 H   0  0  0  0  0  0  0  0  0  0  0  0
   -4.6171   19.4754  -34.8932 H   0  0  0  0  0  0  0  0  0  0  0  0
   -5.5774   17.9523  -35.0575 H   0  0  0  0  0  0  0  0  0  0  0  0
   -6.1708   20.2183  -33.0906 H   0  0  0  0  0  0  0  0  0  0  0  0
   -7.0235   19.9208  -34.6601 H   0  0  0  0  0  0  0  0  0  0  0  0
   -5.9968   20.3864  -31.2330 H   0  0  0  0  0  0  0  0  0  0  0  0
   -4.5493   22.3250  -33.8485 H   0  0  0  0  0  0  0  0  0  0  0  0
   -2.5780   20.9030  -34.8300 H   0  0  0  0  0  0  0  0  0  0  0  0
   -1.0324   20.1741  -32.8857 H   0  0  0  0  0  0  0  0  0  0  0  0
  1  2  2  0
  2  3  2  0
  2  4  1  0
  4  5  2  0
  5  6  1  0
  6  7  2  0
  7  8  1  0
  8  9  1  0
  9 10  2  0
  9 11  2  0
  9 12  1  0
 12 13  1  0
 13 14  1  0
 14 15  1  0
 15 16  1  0
 16 17  1  0
  8 18  2  0
  2 19  1  0
 19 20  2  0
 20 21  1  0
 21 22  1  0
 22 23  2  0
 18  4  1  0
 23 19  1  0
 17 12  1  0
  5 24  1  0
  6 25  1  0
  7 26  1  0
 13 27  1  0
 13 28  1  0
 14 29  1  0
 14 30  1  0
 15 31  1  0
 15 32  1  0
 16 33  1  0
 16 34  1  0
 17 35  1  0
 17 36  1  0
 18 37  1  0
 20 38  1  0
 21 39  1  0
 22 40  1  0
M  END
>  <UniqueID>  (4) 
4

>  <SMILES>  (4) 
O=S(=O)(c1cccc(S(=O)(=O)N2CCCCC2)c1)c1c[nH]cn1

>  <Energy>  (4) 
74.41355926161818

>  <Genealogy>  (4) 
O=S(=O)(c1cccc(S(=O)(=O)N2CCCCC2)c1)c1c[nH]cn1 (3D coordinates assigned)
O=S(=O)(c1cccc(S(=O)(=O)N2CCCCC2)c1)c1c[nH]cn1 (nonaromatic ring conformer: 74.41355926161818 kcal/mol)

>  <smiles>  (4) 
O=S(=O)(c1cccc(S(=O)(=O)N2CCCCC2)c1)c1c[nH]cn1

>  <score_type>  (4) 
oracle

>  <origin>  (4) 
adgpu

>  <m_score__min__energy>  (4) 
-9.1199999999999992

>  <m_primary>  (4) 
energy

$$$$
4:0
     RDKit          3D

 59 61  0  0  0  0  0  0  0  0999 V2000
   -4.6150   25.6740  -31.1220 O   0  0  0  0  0  0  0  0  0  0  0  0
   -4.6600   24.5040  -30.1790 S   0  0  0  0  0  0  0  0  0  0  0  0
   -5.3300   24.9550  -28.9110 O   0  0  0  0  0  0  0  0  0  0  0  0
   -3.0240   24.0050  -29.8260 N   0  0  0  0  0  0  0  0  0  0  0  0
   -2.4350   24.7560  -28.7120 C   0  0  0  0  0  0  0  0  0  0  0  0
   -2.9520   24.2470  -27.3600 C   0  0  0  0  0  0  0  0  0  0  0  0
   -2.8840   25.2920  -26.2160 C   0  0  0  0  0  0  0  0  0  0  0  0
   -1.5400   25.5780  -25.6380 N   0  0  0  0  0  0  0  0  0  0  0  0
   -1.5780   26.6840  -24.6430 C   0  0  0  0  0  0  0  0  0  0  0  0
   -0.3280   26.7350  -23.7370 C   0  0  0  0  0  0  0  0  0  0  0  0
    0.8950   26.1430  -24.4380 C   0  0  0  0  0  0  0  0  0  0  0  0
    0.6520   24.6790  -24.8460 C   0  0  0  0  0  0  0  0  0  0  0  0
   -0.8350   24.3780  -25.1320 C   0  0  0  0  0  0  0  0  0  0  0  0
   -5.6030   23.2130  -30.9230 C   0  0  0  0  0  0  0  0  0  0  0  0
   -6.9740   23.3870  -31.1590 C   0  0  0  0  0  0  0  0  0  0  0  0
   -7.7540   22.3120  -31.5910 C   0  0  0  0  0  0  0  0  0  0  0  0
   -7.1690   21.0550  -31.7970 C   0  0  0  0  0  0  0  0  0  0  0  0
   -8.1740   19.6680  -32.2150 S   0  0  0  0  0  0  0  0  0  0  0  0
   -9.3570   20.1360  -33.0180 O   0  0  0  0  0  0  0  0  0  0  0  0
   -8.6910   19.0300  -30.9550 O   0  0  0  0  0  0  0  0  0  0  0  0
   -7.2700   18.4860  -33.1310 N   0  0  0  0  0  0  0  0  0  0  0  0
   -6.4870   17.6340  -32.2160 C   0  0  0  0  0  0  0  0  0  0  0  0
   -5.7650   16.5380  -33.0070 C   0  0  0  0  0  0  0  0  0  0  0  0
   -4.8610   17.1580  -34.0780 C   0  0  0  0  0  0  0  0  0  0  0  0
   -5.6520   18.1320  -34.9560 C   0  0  0  0  0  0  0  0  0  0  0  0
   -6.3780   19.1650  -34.0900 C   0  0  0  0  0  0  0  0  0  0  0  0
   -5.7910   20.8910  -31.5990 C   0  0  0  0  0  0  0  0  0  0  0  0
   -5.0130   21.9650  -31.1570 C   0  0  0  0  0  0  0  0  0  0  0  0
   -1.3412   24.6432  -28.7427 H   0  0  0  0  0  0  0  0  0  0  0  0
   -2.7208   25.8130  -28.8169 H   0  0  0  0  0  0  0  0  0  0  0  0
   -4.0012   23.9413  -27.4854 H   0  0  0  0  0  0  0  0  0  0  0  0
   -2.2963   23.4144  -27.0653 H   0  0  0  0  0  0  0  0  0  0  0  0
   -3.2849   26.2386  -26.6073 H   0  0  0  0  0  0  0  0  0  0  0  0
   -3.4609   24.8492  -25.3907 H   0  0  0  0  0  0  0  0  0  0  0  0
   -0.9700   25.9340  -26.4440 H   0  0  0  0  0  0  0  0  0  0  0  0
   -1.6556   27.6382  -25.1847 H   0  0  0  0  0  0  0  0  0  0  0  0
   -2.4456   26.5054  -23.9908 H   0  0  0  0  0  0  0  0  0  0  0  0
   -0.1182   27.7827  -23.4756 H   0  0  0  0  0  0  0  0  0  0  0  0
   -0.5308   26.1400  -22.8343 H   0  0  0  0  0  0  0  0  0  0  0  0
    1.1126   26.7347  -25.3394 H   0  0  0  0  0  0  0  0  0  0  0  0
    1.7437   26.1721  -23.7388 H   0  0  0  0  0  0  0  0  0  0  0  0
    1.2350   24.4655  -25.7540 H   0  0  0  0  0  0  0  0  0  0  0  0
    0.9630   24.0438  -24.0035 H   0  0  0  0  0  0  0  0  0  0  0  0
   -0.9003   23.5797  -25.8860 H   0  0  0  0  0  0  0  0  0  0  0  0
   -1.3128   24.0657  -24.1917 H   0  0  0  0  0  0  0  0  0  0  0  0
   -7.4366   24.3728  -31.0035 H   0  0  0  0  0  0  0  0  0  0  0  0
   -8.8302   22.4522  -31.7700 H   0  0  0  0  0  0  0  0  0  0  0  0
   -5.7448   18.2517  -31.6892 H   0  0  0  0  0  0  0  0  0  0  0  0
   -7.1670   17.1655  -31.4892 H   0  0  0  0  0  0  0  0  0  0  0  0
   -5.1518   15.9384  -32.3182 H   0  0  0  0  0  0  0  0  0  0  0  0
   -6.5147   15.9008  -33.4988 H   0  0  0  0  0  0  0  0  0  0  0  0
   -4.0391   17.7000  -33.5873 H   0  0  0  0  0  0  0  0  0  0  0  0
   -4.4619   16.3534  -34.7131 H   0  0  0  0  0  0  0  0  0  0  0  0
   -4.9598   18.6512  -35.6353 H   0  0  0  0  0  0  0  0  0  0  0  0
   -6.3968   17.5656  -35.5343 H   0  0  0  0  0  0  0  0  0  0  0  0
   -5.6372   19.7619  -33.5379 H   0  0  0  0  0  0  0  0  0  0  0  0
   -6.9785   19.8200  -34.7384 H   0  0  0  0  0  0  0  0  0  0  0  0
   -5.3210   19.9153  -31.7918 H   0  0  0  0  0  0  0  0  0  0  0  0
   -3.9339   21.8292  -30.9925 H   0  0  0  0  0  0  0  0  0  0  0  0
  1  2  2  0
  2  3  2  0
  2  4  1  0
  4  5  1  0
  5  6  1  0
  6  7  1  0
  7  8  1  0
  8  9  1  0
  9 10  1  0
 10 11  1  0
 11 12  1  0
 12 13  1  0
  2 14  1  0
 14 15  2  0
 15 16  1  0
 16 17  2  0
 17 18  1  0
 18 19  2  0
 18 20  2  0
 18 21  1  0
 21 22  1  0
 22 23  1  0
 23 24  1  0
 24 25  1  0
 25 26  1  0
 17 27  1  0
 27 28  2  0
 13  8  1  0
 28 14  1  0
 26 21  1  0
  5 29  1  0
  5 30  1  0
  6 31  1  0
  6 32  1  0
  7 33  1  0
  7 34  1  0
  8 35  1  0
  9 36  1  0
  9 37  1  0
 10 38  1  0
 10 39  1  0
 11 40  1  0
 11 41  1  0
 12 42  1  0
 12 43  1  0
 13 44  1  0
 13 45  1  0
 15 46  1  0
 16 47  1  0
 22 48  1  0
 22 49  1  0
 23 50  1  0
 23 51  1  0
 24 52  1  0
 24 53  1  0
 25 54  1  0
 25 55  1  0
 26 56  1  0
 26 57  1  0
 27 58  1  0
 28 59  1  0
M  CHG  2   4  -1   8   1
M  END
>  <UniqueID>  (5) 
5

>  <SMILES>  (5) 
O=S(=O)([N-]CCC[NH+]1CCCCC1)c1ccc(S(=O)(=O)N2CCCCC2)cc1

>  <Energy>  (5) 
59.945836851917086

>  <Genealogy>  (5) 
O=S(=O)([N-]CCC[NH+]1CCCCC1)c1ccc(S(=O)(=O)N2CCCCC2)cc1 (protonated)
O=S(=O)([N-]CCC[NH+]1CCCCC1)c1ccc(S(=O)(=O)N2CCCCC2)cc1 (3D coordinates assigned)
O=S(=O)([N-]CCC[NH+]1CCCCC1)c1ccc(S(=O)(=O)N2CCCCC2)cc1 (nonaromatic ring conformer: 59.945836851917086 kcal/mol)

>  <smiles>  (5) 
O=S(=O)(NCCCN1CCCCC1)c1ccc(S(=O)(=O)N2CCCCC2)cc1

>  <score_type>  (5) 
oracle

>  <origin>  (5) 
adgpu

>  <m_score__min__energy>  (5) 
-10.699999999999999

>  <m_primary>  (5) 
energy

$$$$
5:0
     RDKit          3D

 60 63  0  0  0  0  0  0  0  0999 V2000
   -2.6590   18.9120  -26.1580 C   0  0  0  0  0  0  0  0  0  0  0  0
   -1.9800   20.0940  -26.8790 C   0  0  0  0  0  0  0  0  0  0  0  0
   -1.0260   19.5270  -27.9550 C   0  0  0  0  0  0  0  0  0  0  0  0
   -1.2040   20.9360  -25.8360 C   0  0  0  0  0  0  0  0  0  0  0  0
   -0.5320   22.1750  -26.4470 C   0  0  0  0  0  0  0  0  0  0  0  0
   -1.3900   22.8990  -27.4570 C   0  0  0  0  0  0  0  0  0  0  0  0
   -0.9710   24.1580  -27.9120 C   0  0  0  0  0  0  0  0  0  0  0  0
   -1.6930   24.8390  -28.8960 C   0  0  0  0  0  0  0  0  0  0  0  0
   -1.2420   26.0760  -29.3380 O   0  0  0  0  0  0  0  0  0  0  0  0
   -2.8460   24.2600  -29.4450 C   0  0  0  0  0  0  0  0  0  0  0  0
   -3.5930   24.9270  -30.4630 N   0  0  0  0  0  0  0  0  0  0  0  0
   -5.2760   24.6100  -30.7140 S   0  0  0  0  0  0  0  0  0  0  0  0
   -5.8770   25.7240  -31.5240 O   0  0  0  0  0  0  0  0  0  0  0  0
   -5.9870   24.5400  -29.3910 O   0  0  0  0  0  0  0  0  0  0  0  0
   -5.4510   23.0970  -31.6040 C   0  0  0  0  0  0  0  0  0  0  0  0
   -4.3150   22.3700  -31.9860 C   0  0  0  0  0  0  0  0  0  0  0  0
   -4.4460   21.1900  -32.7330 C   0  0  0  0  0  0  0  0  0  0  0  0
   -3.0130   20.2910  -33.2350 S   0  0  0  0  0  0  0  0  0  0  0  0
   -3.4170   19.2200  -34.2100 O   0  0  0  0  0  0  0  0  0  0  0  0
   -2.0770   21.2300  -33.9460 O   0  0  0  0  0  0  0  0  0  0  0  0
   -2.1740   19.5590  -31.8840 N   0  0  0  0  0  0  0  0  0  0  0  0
   -1.1010   18.6240  -32.3030 C   0  0  0  0  0  0  0  0  0  0  0  0
    0.2750   18.9500  -31.7060 C   0  0  0  0  0  0  0  0  0  0  0  0
    0.5560   20.4410  -31.8320 C   0  0  0  0  0  0  0  0  0  0  0  0
   -0.4910   21.2720  -31.0770 C   0  0  0  0  0  0  0  0  0  0  0  0
   -1.8180   20.5270  -30.8270 C   0  0  0  0  0  0  0  0  0  0  0  0
   -5.7240   20.7230  -33.0670 C   0  0  0  0  0  0  0  0  0  0  0  0
   -6.8580   21.4450  -32.6900 C   0  0  0  0  0  0  0  0  0  0  0  0
   -6.7270   22.6330  -31.9660 C   0  0  0  0  0  0  0  0  0  0  0  0
   -7.8680   23.3460  -31.6130 O   0  0  0  0  0  0  0  0  0  0  0  0
   -3.2580   22.9960  -29.0140 C   0  0  0  0  0  0  0  0  0  0  0  0
   -2.5350   22.3020  -28.0300 C   0  0  0  0  0  0  0  0  0  0  0  0
   -3.0680   20.9800  -27.5310 C   0  0  0  0  0  0  0  0  0  0  0  0
   -2.5789   19.0514  -25.0698 H   0  0  0  0  0  0  0  0  0  0  0  0
   -3.7200   18.8681  -26.4449 H   0  0  0  0  0  0  0  0  0  0  0  0
   -2.1624   17.9733  -26.4449 H   0  0  0  0  0  0  0  0  0  0  0  0
   -0.1791   19.0237  -27.4657 H   0  0  0  0  0  0  0  0  0  0  0  0
   -1.5689   18.8048  -28.5825 H   0  0  0  0  0  0  0  0  0  0  0  0
   -0.6511   20.3490  -28.5825 H   0  0  0  0  0  0  0  0  0  0  0  0
   -1.9080   21.2665  -25.0581 H   0  0  0  0  0  0  0  0  0  0  0  0
   -0.4078   20.2985  -25.4242 H   0  0  0  0  0  0  0  0  0  0  0  0
   -0.2894   22.8744  -25.6334 H   0  0  0  0  0  0  0  0  0  0  0  0
    0.3629   21.8230  -26.9811 H   0  0  0  0  0  0  0  0  0  0  0  0
   -0.0638   24.6145  -27.4895 H   0  0  0  0  0  0  0  0  0  0  0  0
   -3.3151   22.7269  -31.6983 H   0  0  0  0  0  0  0  0  0  0  0  0
   -1.3836   17.6087  -31.9880 H   0  0  0  0  0  0  0  0  0  0  0  0
   -1.0055   18.7157  -33.3950 H   0  0  0  0  0  0  0  0  0  0  0  0
    0.2881   18.6651  -30.6436 H   0  0  0  0  0  0  0  0  0  0  0  0
    1.0480   18.3890  -32.2517 H   0  0  0  0  0  0  0  0  0  0  0  0
    1.5513   20.6545  -31.4152 H   0  0  0  0  0  0  0  0  0  0  0  0
    0.5133   20.7135  -32.8969 H   0  0  0  0  0  0  0  0  0  0  0  0
   -0.0675   21.5613  -30.1039 H   0  0  0  0  0  0  0  0  0  0  0  0
   -0.7265   22.1403  -31.7099 H   0  0  0  0  0  0  0  0  0  0  0  0
   -1.7349   19.9833  -29.8744 H   0  0  0  0  0  0  0  0  0  0  0  0
   -2.6118   21.2884  -30.8135 H   0  0  0  0  0  0  0  0  0  0  0  0
   -5.8344   19.7836  -33.6286 H   0  0  0  0  0  0  0  0  0  0  0  0
   -7.8579   21.0774  -32.9638 H   0  0  0  0  0  0  0  0  0  0  0  0
   -4.1587   22.5395  -29.4504 H   0  0  0  0  0  0  0  0  0  0  0  0
   -3.8519   21.1777  -26.7850 H   0  0  0  0  0  0  0  0  0  0  0  0
   -3.4573   20.4333  -28.4026 H   0  0  0  0  0  0  0  0  0  0  0  0
  1  2  1  0
  2  3  1  0
  2  4  1  0
  4  5  1  0
  5  6  1  0
  6  7  2  0
  7  8  1  0
  8  9  1  0
  8 10  2  0
 10 11  1  0
 11 12  1  0
 12 13  2  0
 12 14  2  0
 12 15  1  0
 15 16  2  0
 16 17  1  0
 17 18  1  0
 18 19  2  0
 18 20  2  0
 18 21  1  0
 21 22  1  0
 22 23  1  0
 23 24  1  0
 24 25  1  0
 25 26  1  0
 17 27  2  0
 27 28  1  0
 28 29  2  0
 29 30  1  0
 10 31  1  0
 31 32  2  0
 32 33  1  0
 33  2  1  0
 32  6  1  0
 29 15  1  0
 26 21  1  0
  1 34  1  0
  1 35  1  0
  1 36  1  0
  3 37  1  0
  3 38  1  0
  3 39  1  0
  4 40  1  0
  4 41  1  0
  5 42  1  0
  5 43  1  0
  7 44  1  0
 16 45  1  0
 22 46  1  0
 22 47  1  0
 23 48  1  0
 23 49  1  0
 24 50  1  0
 24 51  1  0
 25 52  1  0
 25 53  1  0
 26 54  1  0
 26 55  1  0
 27 56  1  0
 28 57  1  0
 31 58  1  0
 33 59  1  0
 33 60  1  0
M  CHG  3   9  -1  11  -1  30  -1
M  END
>  <UniqueID>  (6) 
6

>  <SMILES>  (6) 
CC1(C)CCc2cc([O-])c([N-]S(=O)(=O)c3cc(S(=O)(=O)N4CCCCC4)ccc3[O-])cc2C1

>  <Energy>  (6) 
72.99463065234117

>  <Genealogy>  (6) 
CC1(C)CCc2cc([O-])c([N-]S(=O)(=O)c3cc(S(=O)(=O)N4CCCCC4)ccc3[O-])cc2C1 (protonated)
CC1(C)CCc2cc([O-])c([N-]S(=O)(=O)c3cc(S(=O)(=O)N4CCCCC4)ccc3[O-])cc2C1 (3D coordinates assigned)
CC1(C)CCc2cc([O-])c([N-]S(=O)(=O)c3cc(S(=O)(=O)N4CCCCC4)ccc3[O-])cc2C1 (nonaromatic ring conformer: 72.99463065234117 kcal/mol)

>  <smiles>  (6) 
CC1(C)CCc2cc(O)c(NS(=O)(=O)c3cc(S(=O)(=O)N4CCCCC4)ccc3O)cc2C1

>  <score_type>  (6) 
oracle

>  <origin>  (6) 
adgpu

>  <m_score__min__energy>  (6) 
-15.57

>  <m_primary>  (6) 
energy

$$$$
6:0
     RDKit          3D

 47 49  0  0  0  0  0  0  0  0999 V2000
   -2.7830   22.4570  -29.1320 O   0  0  0  0  0  0  0  0  0  0  0  0
   -3.1390   22.4370  -30.3400 C   0  0  0  0  0  0  0  0  0  0  0  0
   -2.2680   21.8380  -31.3080 N   0  0  0  0  0  0  0  0  0  0  0  0
   -2.5110   20.5540  -31.9550 C   0  0  0  0  0  0  0  0  0  0  0  0
   -1.6260   20.4280  -33.1600 C   0  0  0  0  0  0  0  0  0  0  0  0
   -1.4920   19.1950  -33.8160 C   0  0  0  0  0  0  0  0  0  0  0  0
   -0.6440   19.0720  -34.9200 C   0  0  0  0  0  0  0  0  0  0  0  0
    0.0860   20.1750  -35.3710 C   0  0  0  0  0  0  0  0  0  0  0  0
    0.9270   20.0440  -36.4700 O   0  0  0  0  0  0  0  0  0  0  0  0
   -0.0270   21.4080  -34.7140 C   0  0  0  0  0  0  0  0  0  0  0  0
    0.7080   22.5020  -35.1660 O   0  0  0  0  0  0  0  0  0  0  0  0
   -0.8790   21.5310  -33.6070 C   0  0  0  0  0  0  0  0  0  0  0  0
   -4.4260   23.0540  -30.7200 C   0  0  0  0  0  0  0  0  0  0  0  0
   -5.5390   22.2450  -30.9960 C   0  0  0  0  0  0  0  0  0  0  0  0
   -6.7620   22.8200  -31.3760 C   0  0  0  0  0  0  0  0  0  0  0  0
   -8.1470   21.7890  -31.7360 S   0  0  0  0  0  0  0  0  0  0  0  0
   -8.5930   21.1340  -30.4590 O   0  0  0  0  0  0  0  0  0  0  0  0
   -9.2800   22.6490  -32.2220 O   0  0  0  0  0  0  0  0  0  0  0  0
   -7.8040   20.5330  -32.9100 N   0  0  0  0  0  0  0  0  0  0  0  0
   -6.3680   20.2960  -33.1570 C   0  0  0  0  0  0  0  0  0  0  0  0
   -5.7440   19.3140  -32.1600 C   0  0  0  0  0  0  0  0  0  0  0  0
   -6.5320   18.0090  -32.1350 C   0  0  0  0  0  0  0  0  0  0  0  0
   -7.9880   18.2860  -31.7780 C   0  0  0  0  0  0  0  0  0  0  0  0
   -8.6150   19.3090  -32.7400 C   0  0  0  0  0  0  0  0  0  0  0  0
   -6.8820   24.2140  -31.4270 C   0  0  0  0  0  0  0  0  0  0  0  0
   -5.7850   25.0260  -31.1290 C   0  0  0  0  0  0  0  0  0  0  0  0
   -4.5590   24.4530  -30.7760 C   0  0  0  0  0  0  0  0  0  0  0  0
   -3.4770   25.2810  -30.4950 O   0  0  0  0  0  0  0  0  0  0  0  0
   -2.2888   19.7397  -31.2496 H   0  0  0  0  0  0  0  0  0  0  0  0
   -3.5647   20.4921  -32.2648 H   0  0  0  0  0  0  0  0  0  0  0  0
   -2.0570   18.3211  -33.4597 H   0  0  0  0  0  0  0  0  0  0  0  0
   -0.5509   18.1046  -35.4352 H   0  0  0  0  0  0  0  0  0  0  0  0
    1.3570   22.4200  -35.9400 H   0  0  0  0  0  0  0  0  0  0  0  0
   -0.9630   22.4961  -33.0858 H   0  0  0  0  0  0  0  0  0  0  0  0
   -5.4524   21.1515  -30.9139 H   0  0  0  0  0  0  0  0  0  0  0  0
   -6.2493   19.8883  -34.1718 H   0  0  0  0  0  0  0  0  0  0  0  0
   -5.8500   21.2592  -33.0387 H   0  0  0  0  0  0  0  0  0  0  0  0
   -4.7061   19.1050  -32.4585 H   0  0  0  0  0  0  0  0  0  0  0  0
   -5.7656   19.7630  -31.1560 H   0  0  0  0  0  0  0  0  0  0  0  0
   -6.4838   17.5353  -33.1266 H   0  0  0  0  0  0  0  0  0  0  0  0
   -6.0963   17.3384  -31.3797 H   0  0  0  0  0  0  0  0  0  0  0  0
   -8.5559   17.3457  -31.8351 H   0  0  0  0  0  0  0  0  0  0  0  0
   -8.0227   18.7007  -30.7598 H   0  0  0  0  0  0  0  0  0  0  0  0
   -8.7366   18.8325  -33.7240 H   0  0  0  0  0  0  0  0  0  0  0  0
   -9.5767   19.6163  -32.3034 H   0  0  0  0  0  0  0  0  0  0  0  0
   -7.8436   24.6715  -31.7027 H   0  0  0  0  0  0  0  0  0  0  0  0
   -5.8859   26.1205  -31.1722 H   0  0  0  0  0  0  0  0  0  0  0  0
  1  2  2  0
  2  3  1  0
  3  4  1  0
  4  5  1  0
  5  6  2  0
  6  7  1  0
  7  8  2  0
  8  9  1  0
  8 10  1  0
 10 11  1  0
 10 12  2  0
  2 13  1  0
 13 14  2  0
 14 15  1  0
 15 16  1  0
 16 17  2  0
 16 18  2  0
 16 19  1  0
 19 20  1  0
 20 21  1  0
 21 22  1  0
 22 23  1  0
 23 24  1  0
 15 25  2  0
 25 26  1  0
 26 27  2  0
 27 28  1  0
 12  5  1  0
 27 13  1  0
 24 19  1  0
  4 29  1  0
  4 30  1  0
  6 31  1  0
  7 32  1  0
 11 33  1  0
 12 34  1  0
 14 35  1  0
 20 36  1  0
 20 37  1  0
 21 38  1  0
 21 39  1  0
 22 40  1  0
 22 41  1  0
 23 42  1  0
 23 43  1  0
 24 44  1  0
 24 45  1  0
 25 46  1  0
 26 47  1  0
M  CHG  3   3  -1   9  -1  28  -1
M  END
>  <UniqueID>  (7) 
7

>  <SMILES>  (7) 
O=C([N-]Cc1ccc([O-])c(O)c1)c1cc(S(=O)(=O)N2CCCCC2)ccc1[O-]

>  <Energy>  (7) 
51.59221471103236

>  <Genealogy>  (7) 
O=C([N-]Cc1ccc([O-])c(O)c1)c1cc(S(=O)(=O)N2CCCCC2)ccc1[O-] (protonated)
O=C([N-]Cc1ccc([O-])c(O)c1)c1cc(S(=O)(=O)N2CCCCC2)ccc1[O-] (3D coordinates assigned)
O=C([N-]Cc1ccc([O-])c(O)c1)c1cc(S(=O)(=O)N2CCCCC2)ccc1[O-] (nonaromatic ring conformer: 51.59221471103236 kcal/mol)

>  <smiles>  (7) 
O=C(NCc1ccc(O)c(O)c1)c1cc(S(=O)(=O)N2CCCCC2)ccc1O

>  <score_type>  (7) 
oracle

>  <origin>  (7) 
adgpu

>  <m_score__min__energy>  (7) 
-13.369999999999999

>  <m_primary>  (7) 
energy

$$$$
7:0
     RDKit          3D

 29 31  0  0  0  0  0  0  0  0999 V2000
   -1.9940   22.9750  -30.6850 O   0  0  0  0  0  0  0  0  0  0  0  0
   -2.5250   23.8570  -29.9580 C   0  0  0  0  0  0  0  0  0  0  0  0
   -3.5690   24.6680  -30.5140 N   0  0  0  0  0  0  0  0  0  0  0  0
   -4.9130   24.2500  -30.7950 C   0  0  0  0  0  0  0  0  0  0  0  0
   -5.1980   23.2060  -31.6900 C   0  0  0  0  0  0  0  0  0  0  0  0
   -6.5230   22.8440  -31.9390 C   0  0  0  0  0  0  0  0  0  0  0  0
   -7.5530   23.5390  -31.3040 C   0  0  0  0  0  0  0  0  0  0  0  0
   -7.2620   24.5640  -30.4580 N   0  0  0  0  0  0  0  0  0  0  0  0
   -5.9790   24.9330  -30.1990 C   0  0  0  0  0  0  0  0  0  0  0  0
   -2.0330   24.0450  -28.5730 C   0  0  0  0  0  0  0  0  0  0  0  0
   -1.9670   22.9360  -27.7140 C   0  0  0  0  0  0  0  0  0  0  0  0
   -1.5300   23.0810  -26.3970 C   0  0  0  0  0  0  0  0  0  0  0  0
   -1.1450   24.3360  -25.9190 C   0  0  0  0  0  0  0  0  0  0  0  0
   -0.7270   24.4720  -24.6320 N   0  0  0  0  0  0  0  0  0  0  0  0
   -0.3380   25.6730  -24.1290 C   0  0  0  0  0  0  0  0  0  0  0  0
   -0.3580   26.8110  -24.9380 C   0  0  0  0  0  0  0  0  0  0  0  0
   -0.7800   26.7050  -26.2640 C   0  0  0  0  0  0  0  0  0  0  0  0
   -1.1840   25.4600  -26.7740 C   0  0  0  0  0  0  0  0  0  0  0  0
   -1.6150   25.3100  -28.1060 C   0  0  0  0  0  0  0  0  0  0  0  0
   -1.6090   26.4060  -28.9670 O   0  0  0  0  0  0  0  0  0  0  0  0
   -4.3779   22.6740  -32.1944 H   0  0  0  0  0  0  0  0  0  0  0  0
   -6.7529   22.0188  -32.6291 H   0  0  0  0  0  0  0  0  0  0  0  0
   -8.6006   23.2581  -31.4875 H   0  0  0  0  0  0  0  0  0  0  0  0
   -5.7782   25.7727  -29.5175 H   0  0  0  0  0  0  0  0  0  0  0  0
   -2.2628   21.9430  -28.0833 H   0  0  0  0  0  0  0  0  0  0  0  0
   -1.4885   22.2048  -25.7332 H   0  0  0  0  0  0  0  0  0  0  0  0
   -0.0068   25.7488  -23.0828 H   0  0  0  0  0  0  0  0  0  0  0  0
   -0.0434   27.7841  -24.5330 H   0  0  0  0  0  0  0  0  0  0  0  0
   -0.7963   27.5957  -26.9093 H   0  0  0  0  0  0  0  0  0  0  0  0
  1  2  2  0
  2  3  1  0
  3  4  1  0
  4  5  2  0
  5  6  1  0
  6  7  2  0
  7  8  1  0
  8  9  2  0
  2 10  1  0
 10 11  2  0
 11 12  1  0
 12 13  2  0
 13 14  1  0
 14 15  2  0
 15 16  1  0
 16 17  2  0
 17 18  1  0
 18 19  2  0
 19 20  1  0
  9  4  1  0
 19 10  1  0
 18 13  1  0
  5 21  1  0
  6 22  1  0
  7 23  1  0
  9 24  1  0
 11 25  1  0
 12 26  1  0
 15 27  1  0
 16 28  1  0
 17 29  1  0
M  CHG  2   3  -1  20  -1
M  END
>  <UniqueID>  (8) 
8

>  <SMILES>  (8) 
O=C([N-]c1cccnc1)c1ccc2ncccc2c1[O-]

>  <Energy>  (8) 
45.50089635431616

>  <Genealogy>  (8) 
O=C([N-]c1cccnc1)c1ccc2ncccc2c1[O-] (protonated)
O=C([N-]c1cccnc1)c1ccc2ncccc2c1[O-] (3D coordinates assigned)
O=C([N-]c1cccnc1)c1ccc2ncccc2c1[O-] (optimized conformer: 45.50089635431616 kcal/mol)

>  <smiles>  (8) 
O=C(Nc1cccnc1)c1ccc2ncccc2c1O

>  <score_type>  (8) 
oracle

>  <origin>  (8) 
adgpu

>  <m_score__min__energy>  (8) 
-11.27

>  <m_primary>  (8) 
energy

$$$$
8:0
     RDKit          3D

 64 68  0  0  0  0  0  0  0  0999 V2000
   -1.4610   16.8200  -35.0430 C   0  0  0  0  0  0  0  0  0  0  0  0
   -2.7510   17.5100  -34.7090 C   0  0  0  0  0  0  0  0  0  0  0  0
   -3.9210   16.9200  -35.0780 N   0  0  0  0  0  0  0  0  0  0  0  0
   -5.1300   17.4800  -34.8170 C   0  0  0  0  0  0  0  0  0  0  0  0
   -5.2120   18.6970  -34.1310 C   0  0  0  0  0  0  0  0  0  0  0  0
   -6.4990   19.2790  -33.8630 N   0  0  0  0  0  0  0  0  0  0  0  0
   -7.0210   19.4770  -32.5370 C   0  0  0  0  0  0  0  0  0  0  0  0
   -6.5330   18.8310  -31.5710 O   0  0  0  0  0  0  0  0  0  0  0  0
   -8.1560   20.4010  -32.3060 C   0  0  0  0  0  0  0  0  0  0  0  0
   -9.4980   20.0660  -32.3360 C   0  0  0  0  0  0  0  0  0  0  0  0
  -10.2410   21.1670  -32.1030 N   0  0  0  0  0  0  0  0  0  0  0  0
   -9.3380   22.1550  -31.9350 C   0  0  0  0  0  0  0  0  0  0  0  0
   -8.0660   21.7240  -32.0500 N   0  0  0  0  0  0  0  0  0  0  0  0
   -6.8660   22.5490  -31.9400 C   0  0  0  0  0  0  0  0  0  0  0  0
   -4.0220   19.3400  -33.7580 C   0  0  0  0  0  0  0  0  0  0  0  0
   -2.7810   18.7470  -34.0260 C   0  0  0  0  0  0  0  0  0  0  0  0
   -1.5440   19.4340  -33.5990 C   0  0  0  0  0  0  0  0  0  0  0  0
   -1.0020   19.1830  -32.3330 C   0  0  0  0  0  0  0  0  0  0  0  0
    0.1690   19.8470  -31.9390 C   0  0  0  0  0  0  0  0  0  0  0  0
    0.7890   19.6230  -30.5790 C   0  0  0  0  0  0  0  0  0  0  0  0
   -0.0360   20.2830  -29.4530 C   0  0  0  0  0  0  0  0  0  0  0  0
    0.2940   19.6610  -28.0830 C   0  0  0  0  0  0  0  0  0  0  0  0
    1.5950   19.1070  -28.0800 O   0  0  0  0  0  0  0  0  0  0  0  0
    1.6290   17.9340  -28.8800 C   0  0  0  0  0  0  0  0  0  0  0  0
    1.0110   18.1300  -30.2850 C   0  0  0  0  0  0  0  0  0  0  0  0
    0.7660   20.7130  -32.8010 N   0  0  0  0  0  0  0  0  0  0  0  0
    0.2790   20.9770  -34.0470 C   0  0  0  0  0  0  0  0  0  0  0  0
    0.9900   21.8980  -34.9100 N   0  0  0  0  0  0  0  0  0  0  0  0
    2.4090   21.6340  -35.2000 C   0  0  0  0  0  0  0  0  0  0  0  0
    3.1150   22.8790  -35.7440 C   0  0  0  0  0  0  0  0  0  0  0  0
    2.3640   23.4650  -36.7850 O   0  0  0  0  0  0  0  0  0  0  0  0
    1.1670   23.9880  -36.2490 C   0  0  0  0  0  0  0  0  0  0  0  0
    0.2540   22.8650  -35.7450 C   0  0  0  0  0  0  0  0  0  0  0  0
   -0.8970   20.3240  -34.4630 C   0  0  0  0  0  0  0  0  0  0  0  0
   -0.9422   16.5425  -34.1135 H   0  0  0  0  0  0  0  0  0  0  0  0
   -1.6712   15.9139  -35.6301 H   0  0  0  0  0  0  0  0  0  0  0  0
   -0.8239   17.4978  -35.6301 H   0  0  0  0  0  0  0  0  0  0  0  0
   -6.0498   16.9745  -35.1464 H   0  0  0  0  0  0  0  0  0  0  0  0
   -7.1350   19.4480  -34.6740 H   0  0  0  0  0  0  0  0  0  0  0  0
   -9.8971   19.0578  -32.5212 H   0  0  0  0  0  0  0  0  0  0  0  0
   -9.6104   23.2001  -31.7265 H   0  0  0  0  0  0  0  0  0  0  0  0
   -6.6291   22.7119  -30.8782 H   0  0  0  0  0  0  0  0  0  0  0  0
   -6.0237   22.0382  -32.4295 H   0  0  0  0  0  0  0  0  0  0  0  0
   -7.0413   23.5184  -32.4295 H   0  0  0  0  0  0  0  0  0  0  0  0
   -4.0635   20.3158  -33.2520 H   0  0  0  0  0  0  0  0  0  0  0  0
   -1.4907   18.4704  -31.6523 H   0  0  0  0  0  0  0  0  0  0  0  0
    1.7750   20.1100  -30.6044 H   0  0  0  0  0  0  0  0  0  0  0  0
    0.1932   21.3585  -29.4234 H   0  0  0  0  0  0  0  0  0  0  0  0
   -1.1036   20.1196  -29.6617 H   0  0  0  0  0  0  0  0  0  0  0  0
    0.2329   20.4407  -27.3095 H   0  0  0  0  0  0  0  0  0  0  0  0
   -0.4299   18.8585  -27.8781 H   0  0  0  0  0  0  0  0  0  0  0  0
    2.6776   17.6244  -29.0005 H   0  0  0  0  0  0  0  0  0  0  0  0
    1.0269   17.1716  -28.3640 H   0  0  0  0  0  0  0  0  0  0  0  0
    1.6919   17.7108  -31.0404 H   0  0  0  0  0  0  0  0  0  0  0  0
    0.0395   17.6152  -30.3184 H   0  0  0  0  0  0  0  0  0  0  0  0
    2.9095   21.3162  -34.2734 H   0  0  0  0  0  0  0  0  0  0  0  0
    2.4625   20.8463  -35.9659 H   0  0  0  0  0  0  0  0  0  0  0  0
    3.2357   23.6097  -34.9307 H   0  0  0  0  0  0  0  0  0  0  0  0
    4.0973   22.5828  -36.1408 H   0  0  0  0  0  0  0  0  0  0  0  0
    1.4105   24.6572  -35.4106 H   0  0  0  0  0  0  0  0  0  0  0  0
    0.6397   24.5392  -37.0415 H   0  0  0  0  0  0  0  0  0  0  0  0
   -0.5578   23.3062  -35.1481 H   0  0  0  0  0  0  0  0  0  0  0  0
   -0.1458   22.3295  -36.6188 H   0  0  0  0  0  0  0  0  0  0  0  0
   -1.3066   20.5134  -35.4662 H   0  0  0  0  0  0  0  0  0  0  0  0
  1  2  1  0
  2  3  2  0
  3  4  1  0
  4  5  2  0
  5  6  1  0
  6  7  1  0
  7  8  2  0
  7  9  1  0
  9 10  2  0
 10 11  1  0
 11 12  2  0
 12 13  1  0
 13 14  1  0
  5 15  1  0
 15 16  2  0
 16 17  1  0
 17 18  2  0
 18 19  1  0
 19 20  1  0
 20 21  1  0
 21 22  1  0
 22 23  1  0
 23 24  1  0
 24 25  1  0
 19 26  2  0
 26 27  1  0
 27 28  1  0
 28 29  1  0
 29 30  1  0
 30 31  1  0
 31 32  1  0
 32 33  1  0
 27 34  2  0
 16  2  1  0
 34 17  1  0
 13  9  1  0
 25 20  1  0
 33 28  1  0
  1 35  1  0
  1 36  1  0
  1 37  1  0
  4 38  1  0
  6 39  1  0
 10 40  1  0
 12 41  1  0
 14 42  1  0
 14 43  1  0
 14 44  1  0
 15 45  1  0
 18 46  1  0
 20 47  1  0
 21 48  1  0
 21 49  1  0
 22 50  1  0
 22 51  1  0
 24 52  1  0
 24 53  1  0
 25 54  1  0
 25 55  1  0
 29 56  1  0
 29 57  1  0
 30 58  1  0
 30 59  1  0
 32 60  1  0
 32 61  1  0
 33 62  1  0
 33 63  1  0
 34 64  1  0
M  END
>  <UniqueID>  (9) 
9

>  <SMILES>  (9) 
Cc1ncc(NC(=O)c2cncn2C)cc1-c1cc(C2CCOCC2)nc(N2CCOCC2)c1

>  <Energy>  (9) 
119.67287211566027

>  <Genealogy>  (9) 
Cc1ncc(NC(=O)c2cncn2C)cc1-c1cc(C2CCOCC2)nc(N2CCOCC2)c1 (3D coordinates assigned)
Cc1ncc(NC(=O)c2cncn2C)cc1-c1cc(C2CCOCC2)nc(N2CCOCC2)c1 (nonaromatic ring conformer: 119.67287211566027 kcal/mol)

>  <smiles>  (9) 
Cc1ncc(NC(=O)c2cncn2C)cc1-c1cc(C2CCOCC2)nc(N2CCOCC2)c1

>  <score_type>  (9) 
oracle

>  <origin>  (9) 
adgpu

>  <m_score__min__energy>  (9) 
-9.4900000000000002

>  <m_primary>  (9) 
energy

$$$$
9:0
     RDKit          3D

 57 61  0  0  0  0  0  0  0  0999 V2000
   -6.5110   16.7570  -33.5270 C   0  0  0  0  0  0  0  0  0  0  0  0
   -7.1450   17.7090  -32.6060 N   0  0  0  0  0  0  0  0  0  0  0  0
   -6.5500   17.5880  -31.2690 C   0  0  0  0  0  0  0  0  0  0  0  0
   -6.9110   19.3350  -33.1990 S   0  0  0  0  0  0  0  0  0  0  0  0
   -8.2020   20.1050  -33.1170 O   0  0  0  0  0  0  0  0  0  0  0  0
   -6.4660   19.2960  -34.6350 O   0  0  0  0  0  0  0  0  0  0  0  0
   -5.6660   20.1410  -32.2490 C   0  0  0  0  0  0  0  0  0  0  0  0
   -5.9790   21.2400  -31.4380 C   0  0  0  0  0  0  0  0  0  0  0  0
   -4.9850   21.8590  -30.6740 C   0  0  0  0  0  0  0  0  0  0  0  0
   -3.6600   21.3810  -30.7010 C   0  0  0  0  0  0  0  0  0  0  0  0
   -2.5870   22.0260  -29.9010 C   0  0  0  0  0  0  0  0  0  0  0  0
   -1.6820   22.9380  -30.4770 C   0  0  0  0  0  0  0  0  0  0  0  0
   -0.6930   23.5240  -29.6850 C   0  0  0  0  0  0  0  0  0  0  0  0
   -0.6090   23.2080  -28.3210 C   0  0  0  0  0  0  0  0  0  0  0  0
    0.3600   23.7610  -27.4670 C   0  0  0  0  0  0  0  0  0  0  0  0
    1.2040   24.5780  -27.9300 O   0  0  0  0  0  0  0  0  0  0  0  0
    0.3870   23.4160  -26.1360 N   0  0  0  0  0  0  0  0  0  0  0  0
    1.4330   23.9670  -25.2500 C   0  0  0  0  0  0  0  0  0  0  0  0
    1.1630   25.4230  -24.9610 C   0  0  0  0  0  0  0  0  0  0  0  0
    1.2830   25.8650  -23.7400 N   0  0  0  0  0  0  0  0  0  0  0  0
    0.9600   27.5000  -23.2970 S   0  0  0  0  0  0  0  0  0  0  0  0
    2.2230   28.1470  -22.8040 O   0  0  0  0  0  0  0  0  0  0  0  0
   -0.0950   27.5300  -22.2270 O   0  0  0  0  0  0  0  0  0  0  0  0
    0.3840   28.3330  -24.7120 C   0  0  0  0  0  0  0  0  0  0  0  0
   -0.0150   29.6730  -24.6290 C   0  0  0  0  0  0  0  0  0  0  0  0
   -0.4700   30.3390  -25.7700 C   0  0  0  0  0  0  0  0  0  0  0  0
   -0.5260   29.6680  -26.9940 C   0  0  0  0  0  0  0  0  0  0  0  0
   -0.1280   28.3300  -27.0760 C   0  0  0  0  0  0  0  0  0  0  0  0
    0.3300   27.6490  -25.9350 C   0  0  0  0  0  0  0  0  0  0  0  0
    0.7340   26.2730  -26.0470 N   0  0  0  0  0  0  0  0  0  0  0  0
   -0.5380   22.5240  -25.6470 C   0  0  0  0  0  0  0  0  0  0  0  0
   -0.5340   22.1900  -24.4310 O   0  0  0  0  0  0  0  0  0  0  0  0
   -1.4770   21.9870  -26.4660 N   0  0  0  0  0  0  0  0  0  0  0  0
   -1.5350   22.3040  -27.7800 C   0  0  0  0  0  0  0  0  0  0  0  0
   -2.4870   21.7460  -28.5720 N   0  0  0  0  0  0  0  0  0  0  0  0
   -3.3540   20.2820  -31.5250 C   0  0  0  0  0  0  0  0  0  0  0  0
   -4.3500   19.6650  -32.2870 C   0  0  0  0  0  0  0  0  0  0  0  0
   -5.9922   15.9779  -32.9492 H   0  0  0  0  0  0  0  0  0  0  0  0
   -7.2805   16.2921  -34.1609 H   0  0  0  0  0  0  0  0  0  0  0  0
   -5.7854   17.2878  -34.1609 H   0  0  0  0  0  0  0  0  0  0  0  0
   -7.3268   17.7460  -30.5063 H   0  0  0  0  0  0  0  0  0  0  0  0
   -6.1177   16.5836  -31.1496 H   0  0  0  0  0  0  0  0  0  0  0  0
   -5.7598   18.3438  -31.1496 H   0  0  0  0  0  0  0  0  0  0  0  0
   -7.0116   21.6175  -31.4023 H   0  0  0  0  0  0  0  0  0  0  0  0
   -5.2395   22.7261  -30.0469 H   0  0  0  0  0  0  0  0  0  0  0  0
   -1.7539   23.1875  -31.5459 H   0  0  0  0  0  0  0  0  0  0  0  0
    0.0201   24.2333  -30.1304 H   0  0  0  0  0  0  0  0  0  0  0  0
    1.4403   23.4049  -24.3045 H   0  0  0  0  0  0  0  0  0  0  0  0
    2.4085   23.8771  -25.7503 H   0  0  0  0  0  0  0  0  0  0  0  0
    1.5910   25.2240  -22.9750 H   0  0  0  0  0  0  0  0  0  0  0  0
    0.0298   30.2013  -23.6652 H   0  0  0  0  0  0  0  0  0  0  0  0
   -0.7840   31.3912  -25.7045 H   0  0  0  0  0  0  0  0  0  0  0  0
   -0.8830   30.1919  -27.8929 H   0  0  0  0  0  0  0  0  0  0  0  0
   -0.1738   27.8058  -28.0420 H   0  0  0  0  0  0  0  0  0  0  0  0
    0.7070   25.8450  -27.0010 H   0  0  0  0  0  0  0  0  0  0  0  0
   -2.3215   19.9051  -31.5698 H   0  0  0  0  0  0  0  0  0  0  0  0
   -4.0986   18.8010  -32.9198 H   0  0  0  0  0  0  0  0  0  0  0  0
  1  2  1  0
  2  3  1  0
  2  4  1  0
  4  5  2  0
  4  6  2  0
  4  7  1  0
  7  8  2  0
  8  9  1  0
  9 10  2  0
 10 11  1  0
 11 12  2  0
 12 13  1  0
 13 14  2  0
 14 15  1  0
 15 16  2  0
 15 17  1  0
 17 18  1  0
 18 19  1  0
 19 20  2  0
 20 21  1  0
 21 22  2  0
 21 23  2  0
 21 24  1  0
 24 25  2  0
 25 26  1  0
 26 27  2  0
 27 28  1  0
 28 29  2  0
 29 30  1  0
 17 31  1  0
 31 32  2  0
 31 33  1  0
 33 34  1  0
 34 35  2  0
 10 36  1  0
 36 37  2  0
 37  7  1  0
 35 11  1  0
 34 14  1  0
 30 19  1  0
 29 24  1  0
  1 38  1  0
  1 39  1  0
  1 40  1  0
  3 41  1  0
  3 42  1  0
  3 43  1  0
  8 44  1  0
  9 45  1  0
 12 46  1  0
 13 47  1  0
 18 48  1  0
 18 49  1  0
 20 50  1  0
 25 51  1  0
 26 52  1  0
 27 53  1  0
 28 54  1  0
 30 55  1  0
 36 56  1  0
 37 57  1  0
M  CHG  2  20   1  33  -1
M  END
>  <UniqueID>  (10) 
10

>  <SMILES>  (10) 
CN(C)S(=O)(=O)c1ccc(-c2ccc3c(=O)n(CC4=[NH+]S(=O)(=O)c5ccccc5N4)c(=O)[n-]c3n2)cc1

>  <Energy>  (10) 
77.74039238649019

>  <Genealogy>  (10) 
CN(C)S(=O)(=O)c1ccc(-c2ccc3c(=O)n(CC4=[NH+]S(=O)(=O)c5ccccc5N4)c(=O)[n-]c3n2)cc1 (protonated)
CN(C)S(=O)(=O)c1ccc(-c2ccc3c(=O)n(CC4=[NH+]S(=O)(=O)c5ccccc5N4)c(=O)[n-]c3n2)cc1 (3D coordinates assigned)
CN(C)S(=O)(=O)c1ccc(-c2ccc3c(=O)n(CC4=[NH+]S(=O)(=O)c5ccccc5N4)c(=O)[n-]c3n2)cc1 (nonaromatic ring conformer: 77.74039238649019 kcal/mol)

>  <smiles>  (10) 
CN(C)S(=O)(=O)c1ccc(-c2ccc3c(=O)n(CC4=NS(=O)(=O)c5ccccc5N4)c(=O)[nH]c3n2)cc1

>  <score_type>  (10) 
oracle

>  <origin>  (10) 
adgpu

>  <m_score__min__energy>  (10) 
-10.35

>  <m_primary>  (10) 
energy

$$$$
10:0
     RDKit          3D

 53 56  0  0  0  0  0  0  0  0999 V2000
   -0.8480   20.4450  -28.3440 C   0  0  0  0  0  0  0  0  0  0  0  0
   -0.4820   20.9890  -29.6910 C   0  0  0  0  0  0  0  0  0  0  0  0
   -0.5280   22.2390  -29.8810 O   0  0  0  0  0  0  0  0  0  0  0  0
    0.0090   20.1250  -30.7360 N   0  0  0  0  0  0  0  0  0  0  0  0
    1.2760   19.4320  -30.4560 C   0  0  0  0  0  0  0  0  0  0  0  0
    1.8090   18.7100  -31.6850 C   0  0  0  0  0  0  0  0  0  0  0  0
    0.7380   17.7890  -32.2610 C   0  0  0  0  0  0  0  0  0  0  0  0
   -0.5200   18.5570  -32.5680 C   0  0  0  0  0  0  0  0  0  0  0  0
   -1.4040   18.0850  -33.5460 C   0  0  0  0  0  0  0  0  0  0  0  0
   -2.5820   18.7730  -33.8380 C   0  0  0  0  0  0  0  0  0  0  0  0
   -3.4690   18.2590  -34.7880 O   0  0  0  0  0  0  0  0  0  0  0  0
   -2.8650   19.9790  -33.1860 C   0  0  0  0  0  0  0  0  0  0  0  0
   -4.0650   20.6870  -33.5260 N   0  0  0  0  0  0  0  0  0  0  0  0
   -5.6180   20.4210  -32.7960 S   0  0  0  0  0  0  0  0  0  0  0  0
   -5.4900   19.3740  -31.7320 O   0  0  0  0  0  0  0  0  0  0  0  0
   -6.5720   19.9190  -33.8450 O   0  0  0  0  0  0  0  0  0  0  0  0
   -6.2360   21.8940  -32.0580 C   0  0  0  0  0  0  0  0  0  0  0  0
   -7.6090   22.0600  -31.8580 C   0  0  0  0  0  0  0  0  0  0  0  0
   -8.0960   23.2340  -31.2800 C   0  0  0  0  0  0  0  0  0  0  0  0
   -7.2140   24.2480  -30.9010 C   0  0  0  0  0  0  0  0  0  0  0  0
   -5.8300   24.0910  -31.0810 C   0  0  0  0  0  0  0  0  0  0  0  0
   -4.9020   25.1660  -30.6650 C   0  0  0  0  0  0  0  0  0  0  0  0
   -5.3530   26.3290  -30.4930 O   0  0  0  0  0  0  0  0  0  0  0  0
   -3.4950   24.9440  -30.4730 N   0  0  0  0  0  0  0  0  0  0  0  0
   -2.8460   24.5260  -29.2590 C   0  0  0  0  0  0  0  0  0  0  0  0
   -3.2850   23.3450  -28.6420 C   0  0  0  0  0  0  0  0  0  0  0  0
   -2.7000   22.9050  -27.4490 C   0  0  0  0  0  0  0  0  0  0  0  0
   -1.6600   23.6360  -26.8710 C   0  0  0  0  0  0  0  0  0  0  0  0
   -1.1910   24.8010  -27.4950 C   0  0  0  0  0  0  0  0  0  0  0  0
   -1.7640   25.2410  -28.6960 C   0  0  0  0  0  0  0  0  0  0  0  0
   -1.2340   26.3660  -29.3260 O   0  0  0  0  0  0  0  0  0  0  0  0
   -5.3490   22.9100  -31.6760 C   0  0  0  0  0  0  0  0  0  0  0  0
   -1.9870   20.4500  -32.1950 C   0  0  0  0  0  0  0  0  0  0  0  0
   -0.8450   19.7090  -31.8310 C   0  0  0  0  0  0  0  0  0  0  0  0
   -0.4171   21.0855  -27.5604 H   0  0  0  0  0  0  0  0  0  0  0  0
   -1.9430   20.4264  -28.2413 H   0  0  0  0  0  0  0  0  0  0  0  0
   -0.4527   19.4237  -28.2413 H   0  0  0  0  0  0  0  0  0  0  0  0
    2.0209   20.1713  -30.1264 H   0  0  0  0  0  0  0  0  0  0  0  0
    1.0897   18.6822  -29.6730 H   0  0  0  0  0  0  0  0  0  0  0  0
    2.0979   19.4510  -32.4449 H   0  0  0  0  0  0  0  0  0  0  0  0
    2.6829   18.1076  -31.3964 H   0  0  0  0  0  0  0  0  0  0  0  0
    1.1161   17.3315  -33.1871 H   0  0  0  0  0  0  0  0  0  0  0  0
    0.5042   17.0126  -31.5176 H   0  0  0  0  0  0  0  0  0  0  0  0
   -1.1665   17.1596  -34.0912 H   0  0  0  0  0  0  0  0  0  0  0  0
   -8.3074   21.2643  -32.1565 H   0  0  0  0  0  0  0  0  0  0  0  0
   -9.1773   23.3604  -31.1228 H   0  0  0  0  0  0  0  0  0  0  0  0
   -7.6057   25.1758  -30.4586 H   0  0  0  0  0  0  0  0  0  0  0  0
   -4.0961   22.7597  -29.0998 H   0  0  0  0  0  0  0  0  0  0  0  0
   -3.0593   21.9838  -26.9670 H   0  0  0  0  0  0  0  0  0  0  0  0
   -1.2088   23.2981  -25.9264 H   0  0  0  0  0  0  0  0  0  0  0  0
   -0.3690   25.3726  -27.0394 H   0  0  0  0  0  0  0  0  0  0  0  0
   -4.2691   22.7832  -31.8426 H   0  0  0  0  0  0  0  0  0  0  0  0
   -2.1937   21.4089  -31.6973 H   0  0  0  0  0  0  0  0  0  0  0  0
  1  2  1  0
  2  3  2  0
  2  4  1  0
  4  5  1  0
  5  6  1  0
  6  7  1  0
  7  8  1  0
  8  9  2  0
  9 10  1  0
 10 11  1  0
 10 12  2  0
 12 13  1  0
 13 14  1  0
 14 15  2  0
 14 16  2  0
 14 17  1  0
 17 18  2  0
 18 19  1  0
 19 20  2  0
 20 21  1  0
 21 22  1  0
 22 23  2  0
 22 24  1  0
 24 25  1  0
 25 26  2  0
 26 27  1  0
 27 28  2  0
 28 29  1  0
 29 30  2  0
 30 31  1  0
 21 32  2  0
 12 33  1  0
 33 34  2  0
 34  4  1  0
 34  8  1  0
 32 17  1  0
 30 25  1  0
  1 35  1  0
  1 36  1  0
  1 37  1  0
  5 38  1  0
  5 39  1  0
  6 40  1  0
  6 41  1  0
  7 42  1  0
  7 43  1  0
  9 44  1  0
 18 45  1  0
 19 46  1  0
 20 47  1  0
 26 48  1  0
 27 49  1  0
 28 50  1  0
 29 51  1  0
 32 52  1  0
 33 53  1  0
M  CHG  4  11  -1  13  -1  24  -1  31  -1
M  END
>  <UniqueID>  (11) 
11

>  <SMILES>  (11) 
CC(=O)N1CCCc2cc([O-])c([N-]S(=O)(=O)c3cccc(C(=O)[N-]c4ccccc4[O-])c3)cc21

>  <Energy>  (11) 
74.5161358290397

>  <Genealogy>  (11) 
CC(=O)N1CCCc2cc([O-])c([N-]S(=O)(=O)c3cccc(C(=O)[N-]c4ccccc4[O-])c3)cc21 (protonated)
CC(=O)N1CCCc2cc([O-])c([N-]S(=O)(=O)c3cccc(C(=O)[N-]c4ccccc4[O-])c3)cc21 (3D coordinates assigned)
CC(=O)N1CCCc2cc([O-])c([N-]S(=O)(=O)c3cccc(C(=O)[N-]c4ccccc4[O-])c3)cc21 (nonaromatic ring conformer: 74.5161358290397 kcal/mol)

>  <smiles>  (11) 
CC(=O)N1CCCc2cc(O)c(NS(=O)(=O)c3cccc(C(=O)Nc4ccccc4O)c3)cc21

>  <score_type>  (11) 
oracle

>  <origin>  (11) 
adgpu

>  <m_score__min__energy>  (11) 
-14.470000000000001

>  <m_primary>  (11) 
energy

$$$$
11:0
     RDKit          3D

 38 40  0  0  0  0  0  0  0  0999 V2000
   -2.1330   20.8240  -27.3330 C   0  0  0  0  0  0  0  0  0  0  0  0
   -3.2150   21.0720  -28.2250 O   0  0  0  0  0  0  0  0  0  0  0  0
   -3.3820   22.2570  -28.9570 C   0  0  0  0  0  0  0  0  0  0  0  0
   -2.5890   23.4000  -28.7360 C   0  0  0  0  0  0  0  0  0  0  0  0
   -2.7880   24.5520  -29.5030 C   0  0  0  0  0  0  0  0  0  0  0  0
   -1.9970   25.6730  -29.2860 O   0  0  0  0  0  0  0  0  0  0  0  0
   -3.7810   24.5780  -30.4850 C   0  0  0  0  0  0  0  0  0  0  0  0
   -4.5920   23.4590  -30.7010 C   0  0  0  0  0  0  0  0  0  0  0  0
   -5.5720   23.5210  -31.7040 O   0  0  0  0  0  0  0  0  0  0  0  0
   -6.6690   22.6540  -31.8220 C   0  0  0  0  0  0  0  0  0  0  0  0
   -7.9570   23.1720  -31.6520 C   0  0  0  0  0  0  0  0  0  0  0  0
   -9.0720   22.3390  -31.7630 C   0  0  0  0  0  0  0  0  0  0  0  0
   -8.9090   20.9760  -32.0240 C   0  0  0  0  0  0  0  0  0  0  0  0
   -7.6200   20.4300  -32.1540 C   0  0  0  0  0  0  0  0  0  0  0  0
   -7.4230   19.0330  -32.4350 N   0  0  0  0  0  0  0  0  0  0  0  0
   -6.5360   18.5370  -33.4510 C   0  0  0  0  0  0  0  0  0  0  0  0
   -6.1650   19.2920  -34.3900 O   0  0  0  0  0  0  0  0  0  0  0  0
   -6.0820   17.1350  -33.4400 C   0  0  0  0  0  0  0  0  0  0  0  0
   -4.9450   16.6310  -32.8120 C   0  0  0  0  0  0  0  0  0  0  0  0
   -4.7760   15.2540  -32.9990 C   0  0  0  0  0  0  0  0  0  0  0  0
   -5.7690   14.6660  -33.7710 C   0  0  0  0  0  0  0  0  0  0  0  0
   -6.8580   15.8640  -34.2250 S   0  0  0  0  0  0  0  0  0  0  0  0
   -6.5060   21.2770  -32.0610 C   0  0  0  0  0  0  0  0  0  0  0  0
   -4.3740   22.2930  -29.9440 C   0  0  0  0  0  0  0  0  0  0  0  0
   -2.4876   20.9053  -26.2949 H   0  0  0  0  0  0  0  0  0  0  0  0
   -1.7385   19.8121  -27.5075 H   0  0  0  0  0  0  0  0  0  0  0  0
   -1.3371   21.5630  -27.5075 H   0  0  0  0  0  0  0  0  0  0  0  0
   -1.8113   23.3863  -27.9582 H   0  0  0  0  0  0  0  0  0  0  0  0
   -3.9261   25.4838  -31.0920 H   0  0  0  0  0  0  0  0  0  0  0  0
   -8.0922   24.2408  -31.4298 H   0  0  0  0  0  0  0  0  0  0  0  0
  -10.0825   22.7573  -31.6446 H   0  0  0  0  0  0  0  0  0  0  0  0
   -9.7919   20.3282  -32.1281 H   0  0  0  0  0  0  0  0  0  0  0  0
   -8.0320   18.3460  -31.9350 H   0  0  0  0  0  0  0  0  0  0  0  0
   -4.2501   17.2525  -32.2281 H   0  0  0  0  0  0  0  0  0  0  0  0
   -3.9334   14.6894  -32.5732 H   0  0  0  0  0  0  0  0  0  0  0  0
   -5.8323   13.6011  -34.0391 H   0  0  0  0  0  0  0  0  0  0  0  0
   -5.4944   20.8605  -32.1761 H   0  0  0  0  0  0  0  0  0  0  0  0
   -4.9895   21.4005  -30.1298 H   0  0  0  0  0  0  0  0  0  0  0  0
  1  2  1  0
  2  3  1  0
  3  4  2  0
  4  5  1  0
  5  6  1  0
  5  7  2  0
  7  8  1  0
  8  9  1  0
  9 10  1  0
 10 11  2  0
 11 12  1  0
 12 13  2  0
 13 14  1  0
 14 15  1  0
 15 16  1  0
 16 17  2  0
 16 18  1  0
 18 19  2  0
 19 20  1  0
 20 21  2  0
 21 22  1  0
 14 23  2  0
  8 24  2  0
 24  3  1  0
 23 10  1  0
 22 18  1  0
  1 25  1  0
  1 26  1  0
  1 27  1  0
  4 28  1  0
  7 29  1  0
 11 30  1  0
 12 31  1  0
 13 32  1  0
 15 33  1  0
 19 34  1  0
 20 35  1  0
 21 36  1  0
 23 37  1  0
 24 38  1  0
M  CHG  1   6  -1
M  END
>  <UniqueID>  (12) 
12

>  <SMILES>  (12) 
COc1cc([O-])cc(Oc2cccc(NC(=O)c3cccs3)c2)c1

>  <Energy>  (12) 
75.69502996741147

>  <Genealogy>  (12) 
COc1cc([O-])cc(Oc2cccc(NC(=O)c3cccs3)c2)c1 (protonated)
COc1cc([O-])cc(Oc2cccc(NC(=O)c3cccs3)c2)c1 (3D coordinates assigned)
COc1cc([O-])cc(Oc2cccc(NC(=O)c3cccs3)c2)c1 (optimized conformer: 75.69502996741147 kcal/mol)

>  <smiles>  (12) 
COc1cc(O)cc(Oc2cccc(NC(=O)c3cccs3)c2)c1

>  <score_type>  (12) 
oracle

>  <origin>  (12) 
adgpu

>  <m_score__min__energy>  (12) 
-10.470000000000001

>  <m_primary>  (12) 
energy

$$$$
12:0
     RDKit          3D

 55 58  0  0  0  0  0  0  0  0999 V2000
   -6.4070   18.4640  -31.4540 C   0  0  0  0  0  0  0  0  0  0  0  0
   -6.0530   19.7220  -32.1830 C   0  0  0  0  0  0  0  0  0  0  0  0
   -5.1300   19.7000  -33.0370 O   0  0  0  0  0  0  0  0  0  0  0  0
   -6.7010   20.9660  -31.8670 N   0  0  0  0  0  0  0  0  0  0  0  0
   -8.1620   20.9690  -31.7440 C   0  0  0  0  0  0  0  0  0  0  0  0
   -8.7310   22.2800  -32.2870 C   0  0  0  0  0  0  0  0  0  0  0  0
   -8.1480   23.4730  -31.5230 C   0  0  0  0  0  0  0  0  0  0  0  0
   -6.6440   23.4040  -31.4130 C   0  0  0  0  0  0  0  0  0  0  0  0
   -5.9340   24.5660  -31.0750 C   0  0  0  0  0  0  0  0  0  0  0  0
   -4.5610   24.5140  -30.8340 C   0  0  0  0  0  0  0  0  0  0  0  0
   -3.8800   25.6790  -30.4900 O   0  0  0  0  0  0  0  0  0  0  0  0
   -3.8770   23.2950  -30.9120 C   0  0  0  0  0  0  0  0  0  0  0  0
   -2.4780   23.2660  -30.5970 N   0  0  0  0  0  0  0  0  0  0  0  0
   -1.4810   21.8400  -30.4990 S   0  0  0  0  0  0  0  0  0  0  0  0
   -2.0860   20.8890  -29.4960 O   0  0  0  0  0  0  0  0  0  0  0  0
   -0.1080   22.2340  -30.0210 O   0  0  0  0  0  0  0  0  0  0  0  0
   -1.3470   20.9940  -32.0420 C   0  0  0  0  0  0  0  0  0  0  0  0
   -2.2060   19.9260  -32.3350 C   0  0  0  0  0  0  0  0  0  0  0  0
   -2.1350   19.2870  -33.5770 C   0  0  0  0  0  0  0  0  0  0  0  0
   -1.2060   19.7100  -34.5330 C   0  0  0  0  0  0  0  0  0  0  0  0
   -0.3460   20.7790  -34.2510 C   0  0  0  0  0  0  0  0  0  0  0  0
    0.8170   21.3220  -35.4580 S   0  0  0  0  0  0  0  0  0  0  0  0
    2.0920   20.5400  -35.3060 O   0  0  0  0  0  0  0  0  0  0  0  0
    0.2660   21.0680  -36.8350 O   0  0  0  0  0  0  0  0  0  0  0  0
    1.1480   23.0220  -35.2340 N   0  0  0  0  0  0  0  0  0  0  0  0
    0.3320   23.8460  -36.1310 C   0  0  0  0  0  0  0  0  0  0  0  0
    1.1330   25.1090  -36.4280 C   0  0  0  0  0  0  0  0  0  0  0  0
    2.5550   24.8020  -35.9760 C   0  0  0  0  0  0  0  0  0  0  0  0
    2.5360   23.3380  -35.5700 C   0  0  0  0  0  0  0  0  0  0  0  0
   -0.4140   21.4140  -33.0030 C   0  0  0  0  0  0  0  0  0  0  0  0
   -4.5680   22.1380  -31.3120 C   0  0  0  0  0  0  0  0  0  0  0  0
   -5.9580   22.1710  -31.5430 C   0  0  0  0  0  0  0  0  0  0  0  0
   -6.3569   18.6421  -30.3697 H   0  0  0  0  0  0  0  0  0  0  0  0
   -7.4267   18.1559  -31.7282 H   0  0  0  0  0  0  0  0  0  0  0  0
   -5.6976   17.6693  -31.7282 H   0  0  0  0  0  0  0  0  0  0  0  0
   -8.5773   20.1269  -32.3170 H   0  0  0  0  0  0  0  0  0  0  0  0
   -8.4347   20.8696  -30.6830 H   0  0  0  0  0  0  0  0  0  0  0  0
   -8.4750   22.3722  -33.3528 H   0  0  0  0  0  0  0  0  0  0  0  0
   -9.8236   22.2744  -32.1595 H   0  0  0  0  0  0  0  0  0  0  0  0
   -8.4219   24.3987  -32.0504 H   0  0  0  0  0  0  0  0  0  0  0  0
   -8.5609   23.4538  -30.5036 H   0  0  0  0  0  0  0  0  0  0  0  0
   -6.4647   25.5265  -30.9994 H   0  0  0  0  0  0  0  0  0  0  0  0
   -2.9380   19.5895  -31.5861 H   0  0  0  0  0  0  0  0  0  0  0  0
   -2.8116   18.4495  -33.8025 H   0  0  0  0  0  0  0  0  0  0  0  0
   -1.1506   19.2026  -35.5074 H   0  0  0  0  0  0  0  0  0  0  0  0
    0.1276   23.3002  -37.0639 H   0  0  0  0  0  0  0  0  0  0  0  0
   -0.6338   24.0938  -35.6664 H   0  0  0  0  0  0  0  0  0  0  0  0
    1.1115   25.3341  -37.5045 H   0  0  0  0  0  0  0  0  0  0  0  0
    0.7196   25.9868  -35.9098 H   0  0  0  0  0  0  0  0  0  0  0  0
    3.2654   24.9647  -36.8000 H   0  0  0  0  0  0  0  0  0  0  0  0
    2.8737   25.4540  -35.1494 H   0  0  0  0  0  0  0  0  0  0  0  0
    2.8790   22.7073  -36.4035 H   0  0  0  0  0  0  0  0  0  0  0  0
    3.2057   23.1513  -34.7175 H   0  0  0  0  0  0  0  0  0  0  0  0
    0.2680   22.2465  -32.7754 H   0  0  0  0  0  0  0  0  0  0  0  0
   -4.0172   21.1954  -31.4464 H   0  0  0  0  0  0  0  0  0  0  0  0
  1  2  1  0
  2  3  2  0
  2  4  1  0
  4  5  1  0
  5  6  1  0
  6  7  1  0
  7  8  1  0
  8  9  2  0
  9 10  1  0
 10 11  1  0
 10 12  2  0
 12 13  1  0
 13 14  1  0
 14 15  2  0
 14 16  2  0
 14 17  1  0
 17 18  2  0
 18 19  1  0
 19 20  2  0
 20 21  1  0
 21 22  1  0
 22 23  2  0
 22 24  2  0
 22 25  1  0
 25 26  1  0
 26 27  1  0
 27 28  1  0
 28 29  1  0
 21 30  2  0
 12 31  1  0
 31 32  2  0
 32  4  1  0
 32  8  1  0
 30 17  1  0
 29 25  1  0
  1 33  1  0
  1 34  1  0
  1 35  1  0
  5 36  1  0
  5 37  1  0
  6 38  1  0
  6 39  1  0
  7 40  1  0
  7 41  1  0
  9 42  1  0
 18 43  1  0
 19 44  1  0
 20 45  1  0
 26 46  1  0
 26 47  1  0
 27 48  1  0
 27 49  1  0
 28 50  1  0
 28 51  1  0
 29 52  1  0
 29 53  1  0
 30 54  1  0
 31 55  1  0
M  CHG  2  11  -1  13  -1
M  END
>  <UniqueID>  (13) 
13

>  <SMILES>  (13) 
CC(=O)N1CCCc2cc([O-])c([N-]S(=O)(=O)c3cccc(S(=O)(=O)N4CCCC4)c3)cc21

>  <Energy>  (13) 
68.12843494328867

>  <Genealogy>  (13) 
CC(=O)N1CCCc2cc([O-])c([N-]S(=O)(=O)c3cccc(S(=O)(=O)N4CCCC4)c3)cc21 (protonated)
CC(=O)N1CCCc2cc([O-])c([N-]S(=O)(=O)c3cccc(S(=O)(=O)N4CCCC4)c3)cc21 (3D coordinates assigned)
CC(=O)N1CCCc2cc([O-])c([N-]S(=O)(=O)c3cccc(S(=O)(=O)N4CCCC4)c3)cc21 (nonaromatic ring conformer: 68.12843494328867 kcal/mol)

>  <smiles>  (13) 
CC(=O)N1CCCc2cc(O)c(NS(=O)(=O)c3cccc(S(=O)(=O)N4CCCC4)c3)cc21

>  <score_type>  (13) 
oracle

>  <origin>  (13) 
adgpu

>  <m_score__min__energy>  (13) 
-13.92

>  <m_primary>  (13) 
energy

$$$$
13:0
     RDKit          3D

 30 31  0  0  0  0  0  0  0  0999 V2000
   -3.9430   25.5930  -30.8130 N   0  0  0  0  0  0  0  0  0  0  0  0
   -4.9320   24.1760  -30.8750 S   0  0  0  0  0  0  0  0  0  0  0  0
   -5.5950   23.9960  -29.5380 O   0  0  0  0  0  0  0  0  0  0  0  0
   -5.9930   24.3440  -31.9250 O   0  0  0  0  0  0  0  0  0  0  0  0
   -3.9320   22.7690  -31.2600 C   0  0  0  0  0  0  0  0  0  0  0  0
   -4.4250   21.7970  -32.1460 C   0  0  0  0  0  0  0  0  0  0  0  0
   -3.6690   20.6610  -32.4440 C   0  0  0  0  0  0  0  0  0  0  0  0
   -2.4120   20.4860  -31.8630 C   0  0  0  0  0  0  0  0  0  0  0  0
   -1.9090   21.4460  -30.9840 C   0  0  0  0  0  0  0  0  0  0  0  0
   -2.6620   22.5890  -30.6660 C   0  0  0  0  0  0  0  0  0  0  0  0
   -2.1120   23.5920  -29.7930 N   0  0  0  0  0  0  0  0  0  0  0  0
   -1.8720   23.3680  -28.3930 C   0  0  0  0  0  0  0  0  0  0  0  0
   -2.2330   22.2850  -27.8570 O   0  0  0  0  0  0  0  0  0  0  0  0
   -1.1840   24.3840  -27.5650 C   0  0  0  0  0  0  0  0  0  0  0  0
   -0.8450   24.0670  -26.2380 C   0  0  0  0  0  0  0  0  0  0  0  0
   -0.1850   24.9990  -25.4320 C   0  0  0  0  0  0  0  0  0  0  0  0
    0.1350   26.2600  -25.9390 C   0  0  0  0  0  0  0  0  0  0  0  0
   -0.2140   26.5950  -27.2490 C   0  0  0  0  0  0  0  0  0  0  0  0
   -0.8800   25.6700  -28.0620 C   0  0  0  0  0  0  0  0  0  0  0  0
   -1.2590   26.0540  -29.3420 O   0  0  0  0  0  0  0  0  0  0  0  0
   -2.9990   25.2910  -30.4840 H   0  0  0  0  0  0  0  0  0  0  0  0
   -5.4139   21.9314  -32.6086 H   0  0  0  0  0  0  0  0  0  0  0  0
   -4.0645   19.9038  -33.1370 H   0  0  0  0  0  0  0  0  0  0  0  0
   -1.8175   19.5908  -32.0982 H   0  0  0  0  0  0  0  0  0  0  0  0
   -0.9141   21.3067  -30.5360 H   0  0  0  0  0  0  0  0  0  0  0  0
   -1.8430   24.5080  -30.2150 H   0  0  0  0  0  0  0  0  0  0  0  0
   -1.1011   23.0778  -25.8308 H   0  0  0  0  0  0  0  0  0  0  0  0
    0.0826   24.7387  -24.3973 H   0  0  0  0  0  0  0  0  0  0  0  0
    0.6620   26.9896  -25.3065 H   0  0  0  0  0  0  0  0  0  0  0  0
    0.0356   27.5908  -27.6442 H   0  0  0  0  0  0  0  0  0  0  0  0
  1  2  1  0
  2  3  2  0
  2  4  2  0
  2  5  1  0
  5  6  2  0
  6  7  1  0
  7  8  2  0
  8  9  1  0
  9 10  2  0
 10 11  1  0
 11 12  1  0
 12 13  2  0
 12 14  1  0
 14 15  2  0
 15 16  1  0
 16 17  2  0
 17 18  1  0
 18 19  2  0
 19 20  1  0
 10  5  1  0
 19 14  1  0
  1 21  1  0
  6 22  1  0
  7 23  1  0
  8 24  1  0
  9 25  1  0
 11 26  1  0
 15 27  1  0
 16 28  1  0
 17 29  1  0
 18 30  1  0
M  CHG  2   1  -1  20  -1
M  END
>  <UniqueID>  (14) 
14

>  <SMILES>  (14) 
[NH-]S(=O)(=O)c1ccccc1NC(=O)c1ccccc1[O-]

>  <Energy>  (14) 
40.690081461096284

>  <Genealogy>  (14) 
[NH-]S(=O)(=O)c1ccccc1NC(=O)c1ccccc1[O-] (protonated)
[NH-]S(=O)(=O)c1ccccc1NC(=O)c1ccccc1[O-] (3D coordinates assigned)
[NH-]S(=O)(=O)c1ccccc1NC(=O)c1ccccc1[O-] (optimized conformer: 40.690081461096284 kcal/mol)

>  <smiles>  (14) 
NS(=O)(=O)c1ccccc1NC(=O)c1ccccc1O

>  <score_type>  (14) 
oracle

>  <origin>  (14) 
adgpu

>  <m_score__min__energy>  (14) 
-12.08

>  <m_primary>  (14) 
energy

$$$$
14:0
     RDKit          3D

 36 38  0  0  0  0  0  0  0  0999 V2000
   -5.1800   24.2370  -28.8830 O   0  0  0  0  0  0  0  0  0  0  0  0
   -3.9980   23.9180  -29.7570 S   0  0  0  0  0  0  0  0  0  0  0  0
   -3.4800   25.1660  -30.4150 O   0  0  0  0  0  0  0  0  0  0  0  0
   -4.4750   22.7800  -30.9770 N   0  0  0  0  0  0  0  0  0  0  0  0
   -5.8040   22.3490  -31.3120 C   0  0  0  0  0  0  0  0  0  0  0  0
   -5.9880   20.9840  -31.5730 C   0  0  0  0  0  0  0  0  0  0  0  0
   -7.2470   20.4730  -31.9090 C   0  0  0  0  0  0  0  0  0  0  0  0
   -8.3460   21.3470  -32.0160 C   0  0  0  0  0  0  0  0  0  0  0  0
   -8.1760   22.7060  -31.7280 C   0  0  0  0  0  0  0  0  0  0  0  0
   -6.9190   23.2160  -31.3740 C   0  0  0  0  0  0  0  0  0  0  0  0
   -6.7990   24.5700  -31.0750 O   0  0  0  0  0  0  0  0  0  0  0  0
   -9.7270   20.8180  -32.3310 C   0  0  0  0  0  0  0  0  0  0  0  0
   -9.6850   19.5120  -33.0030 N   0  0  0  0  0  0  0  0  0  0  0  0
   -8.8540   18.5640  -32.2520 C   0  0  0  0  0  0  0  0  0  0  0  0
   -7.3870   19.0100  -32.2430 C   0  0  0  0  0  0  0  0  0  0  0  0
   -2.7120   23.2300  -28.7570 C   0  0  0  0  0  0  0  0  0  0  0  0
   -2.8250   21.9070  -28.2970 C   0  0  0  0  0  0  0  0  0  0  0  0
   -1.8210   21.3430  -27.5070 C   0  0  0  0  0  0  0  0  0  0  0  0
   -0.6930   22.0900  -27.1680 C   0  0  0  0  0  0  0  0  0  0  0  0
   -0.5670   23.4060  -27.6190 C   0  0  0  0  0  0  0  0  0  0  0  0
   -1.5670   23.9830  -28.4120 C   0  0  0  0  0  0  0  0  0  0  0  0
   -1.3410   25.6920  -28.9640 S   0  0  0  0  0  0  0  0  0  0  0  0
   -5.1271   20.3020  -31.5126 H   0  0  0  0  0  0  0  0  0  0  0  0
   -9.0409   23.3836  -31.7801 H   0  0  0  0  0  0  0  0  0  0  0  0
   -5.9240   24.9740  -30.7580 H   0  0  0  0  0  0  0  0  0  0  0  0
  -10.2887   20.7140  -31.3910 H   0  0  0  0  0  0  0  0  0  0  0  0
  -10.2127   21.5314  -33.0130 H   0  0  0  0  0  0  0  0  0  0  0  0
   -9.2820   19.6370  -33.9630 H   0  0  0  0  0  0  0  0  0  0  0  0
   -9.2194   18.5069  -31.2160 H   0  0  0  0  0  0  0  0  0  0  0  0
   -8.9188   17.5789  -32.7371 H   0  0  0  0  0  0  0  0  0  0  0  0
   -6.8404   18.4199  -31.4926 H   0  0  0  0  0  0  0  0  0  0  0  0
   -6.9753   18.8491  -33.2503 H   0  0  0  0  0  0  0  0  0  0  0  0
   -3.7110   21.3111  -28.5612 H   0  0  0  0  0  0  0  0  0  0  0  0
   -1.9201   20.3069  -27.1512 H   0  0  0  0  0  0  0  0  0  0  0  0
    0.0967   21.6432  -26.5461 H   0  0  0  0  0  0  0  0  0  0  0  0
    0.3234   23.9930  -27.3496 H   0  0  0  0  0  0  0  0  0  0  0  0
  1  2  2  0
  2  3  2  0
  2  4  1  0
  4  5  1  0
  5  6  2  0
  6  7  1  0
  7  8  2  0
  8  9  1  0
  9 10  2  0
 10 11  1  0
  8 12  1  0
 12 13  1  0
 13 14  1  0
 14 15  1  0
  2 16  1  0
 16 17  2  0
 17 18  1  0
 18 19  2  0
 19 20  1  0
 20 21  2  0
 21 22  1  0
 10  5  1  0
 21 16  1  0
 15  7  1  0
  6 23  1  0
  9 24  1  0
 11 25  1  0
 12 26  1  0
 12 27  1  0
 13 28  1  0
 14 29  1  0
 14 30  1  0
 15 31  1  0
 15 32  1  0
 17 33  1  0
 18 34  1  0
 19 35  1  0
 20 36  1  0
M  CHG  2   4  -1  22  -1
M  END
>  <UniqueID>  (15) 
15

>  <SMILES>  (15) 
O=S(=O)([N-]c1cc2c(cc1O)CNCC2)c1ccccc1[S-]

>  <Energy>  (15) 
48.86219244892068

>  <Genealogy>  (15) 
O=S(=O)([N-]c1cc2c(cc1O)CNCC2)c1ccccc1[S-] (protonated)
O=S(=O)([N-]c1cc2c(cc1O)CNCC2)c1ccccc1[S-] (3D coordinates assigned)
O=S(=O)([N-]c1cc2c(cc1O)CNCC2)c1ccccc1[S-] (nonaromatic ring conformer: 48.86219244892068 kcal/mol)

>  <smiles>  (15) 
O=S(=O)(Nc1cc2c(cc1O)CNCC2)c1ccccc1S

>  <score_type>  (15) 
oracle

>  <origin>  (15) 
adgpu

>  <m_score__min__energy>  (15) 
-10.609999999999999

>  <m_primary>  (15) 
energy

$$$$
15:0
     RDKit          3D

 45 48  0  0  0  0  0  0  0  0999 V2000
   -2.6000   20.9010  -27.5250 C   0  0  0  0  0  0  0  0  0  0  0  0
   -2.2390   22.2930  -27.9550 C   0  0  0  0  0  0  0  0  0  0  0  0
   -1.0940   22.9250  -27.4460 C   0  0  0  0  0  0  0  0  0  0  0  0
   -0.7670   24.2180  -27.8590 C   0  0  0  0  0  0  0  0  0  0  0  0
   -1.5620   24.8830  -28.8040 C   0  0  0  0  0  0  0  0  0  0  0  0
   -1.2210   26.1690  -29.2270 O   0  0  0  0  0  0  0  0  0  0  0  0
   -2.7020   24.2560  -29.3320 C   0  0  0  0  0  0  0  0  0  0  0  0
   -3.5010   24.9680  -30.2910 N   0  0  0  0  0  0  0  0  0  0  0  0
   -5.2340   25.0100  -30.3160 S   0  0  0  0  0  0  0  0  0  0  0  0
   -5.7480   25.2910  -28.9340 O   0  0  0  0  0  0  0  0  0  0  0  0
   -5.6870   26.1140  -31.2280 O   0  0  0  0  0  0  0  0  0  0  0  0
   -5.8520   23.4760  -30.9250 C   0  0  0  0  0  0  0  0  0  0  0  0
   -4.9760   22.4940  -31.4370 C   0  0  0  0  0  0  0  0  0  0  0  0
   -5.4850   21.2900  -31.9490 C   0  0  0  0  0  0  0  0  0  0  0  0
   -6.8730   21.0980  -31.9580 C   0  0  0  0  0  0  0  0  0  0  0  0
   -7.7170   22.0340  -31.4220 C   0  0  0  0  0  0  0  0  0  0  0  0
   -7.2360   23.2360  -30.9050 C   0  0  0  0  0  0  0  0  0  0  0  0
   -9.1220   21.5440  -31.4280 C   0  0  0  0  0  0  0  0  0  0  0  0
   -9.0010   20.1160  -32.0080 C   0  0  0  0  0  0  0  0  0  0  0  0
   -7.5910   19.9380  -32.3600 N   0  0  0  0  0  0  0  0  0  0  0  0
   -7.1160   18.8190  -33.1210 C   0  0  0  0  0  0  0  0  0  0  0  0
   -7.5770   17.6710  -32.8700 O   0  0  0  0  0  0  0  0  0  0  0  0
   -6.1540   19.0130  -34.2690 C   0  0  0  0  0  0  0  0  0  0  0  0
   -5.5620   17.7530  -34.8920 C   0  0  0  0  0  0  0  0  0  0  0  0
   -4.7170   18.6130  -33.9660 C   0  0  0  0  0  0  0  0  0  0  0  0
   -3.0340   22.9580  -28.9030 C   0  0  0  0  0  0  0  0  0  0  0  0
   -2.6136   20.8485  -26.4263 H   0  0  0  0  0  0  0  0  0  0  0  0
   -3.5949   20.6426  -27.9168 H   0  0  0  0  0  0  0  0  0  0  0  0
   -1.8561   20.1917  -27.9168 H   0  0  0  0  0  0  0  0  0  0  0  0
   -0.4536   22.4012  -26.7210 H   0  0  0  0  0  0  0  0  0  0  0  0
    0.1191   24.7180  -27.4409 H   0  0  0  0  0  0  0  0  0  0  0  0
   -1.2420   26.4260  -30.2090 H   0  0  0  0  0  0  0  0  0  0  0  0
   -3.8907   22.6731  -31.4347 H   0  0  0  0  0  0  0  0  0  0  0  0
   -4.8083   20.5135  -32.3351 H   0  0  0  0  0  0  0  0  0  0  0  0
   -7.9278   23.9831  -30.4888 H   0  0  0  0  0  0  0  0  0  0  0  0
   -9.5353   21.5212  -30.4088 H   0  0  0  0  0  0  0  0  0  0  0  0
   -9.7988   22.1876  -32.0091 H   0  0  0  0  0  0  0  0  0  0  0  0
   -9.3036   19.3719  -31.2564 H   0  0  0  0  0  0  0  0  0  0  0  0
   -9.6535   19.9815  -32.8833 H   0  0  0  0  0  0  0  0  0  0  0  0
   -6.6618   19.9021  -34.6712 H   0  0  0  0  0  0  0  0  0  0  0  0
   -5.9058   16.7619  -34.5609 H   0  0  0  0  0  0  0  0  0  0  0  0
   -5.4494   17.3712  -35.9175 H   0  0  0  0  0  0  0  0  0  0  0  0
   -4.4488   18.2434  -32.9653 H   0  0  0  0  0  0  0  0  0  0  0  0
   -3.7391   19.1104  -34.0451 H   0  0  0  0  0  0  0  0  0  0  0  0
   -3.9243   22.4593  -29.3137 H   0  0  0  0  0  0  0  0  0  0  0  0
  1  2  1  0
  2  3  2  0
  3  4  1  0
  4  5  2  0
  5  6  1  0
  5  7  1  0
  7  8  1  0
  8  9  1  0
  9 10  2  0
  9 11  2  0
  9 12  1  0
 12 13  2  0
 13 14  1  0
 14 15  2  0
 15 16  1  0
 16 17  2  0
 16 18  1  0
 18 19  1  0
 19 20  1  0
 20 21  1  0
 21 22  2  0
 21 23  1  0
 23 24  1  0
 24 25  1  0
  7 26  2  0
 26  2  1  0
 17 12  1  0
 25 23  1  0
 20 15  1  0
  1 27  1  0
  1 28  1  0
  1 29  1  0
  3 30  1  0
  4 31  1  0
  6 32  1  0
 13 33  1  0
 14 34  1  0
 17 35  1  0
 18 36  1  0
 18 37  1  0
 19 38  1  0
 19 39  1  0
 23 40  1  0
 24 41  1  0
 24 42  1  0
 25 43  1  0
 25 44  1  0
 26 45  1  0
M  CHG  1   8  -1
M  END
>  <UniqueID>  (16) 
16

>  <SMILES>  (16) 
Cc1ccc(O)c([N-]S(=O)(=O)c2ccc3c(c2)CCN3C(=O)C2CC2)c1

>  <Energy>  (16) 
331.95890755442554

>  <Genealogy>  (16) 
Cc1ccc(O)c([N-]S(=O)(=O)c2ccc3c(c2)CCN3C(=O)C2CC2)c1 (protonated)
Cc1ccc(O)c([N-]S(=O)(=O)c2ccc3c(c2)CCN3C(=O)C2CC2)c1 (3D coordinates assigned)
Cc1ccc(O)c([N-]S(=O)(=O)c2ccc3c(c2)CCN3C(=O)C2CC2)c1 (nonaromatic ring conformer: 331.95890755442554 kcal/mol)

>  <smiles>  (16) 
Cc1ccc(O)c(NS(=O)(=O)c2ccc3c(c2)CCN3C(=O)C2CC2)c1

>  <score_type>  (16) 
oracle

>  <origin>  (16) 
adgpu

>  <m_score__min__energy>  (16) 
-12.789999999999999

>  <m_primary>  (16) 
energy

$$$$
16:0
     RDKit          3D

 72 76  0  0  0  0  0  0  0  0999 V2000
   -3.9900   25.2750  -30.5150 O   0  0  0  0  0  0  0  0  0  0  0  0
   -3.4340   24.1970  -30.1780 C   0  0  0  0  0  0  0  0  0  0  0  0
   -2.0990   24.2430  -29.6670 N   0  0  0  0  0  0  0  0  0  0  0  0
   -1.3460   23.1180  -29.2000 C   0  0  0  0  0  0  0  0  0  0  0  0
   -1.0070   22.0930  -30.0990 C   0  0  0  0  0  0  0  0  0  0  0  0
   -0.3500   20.9400  -29.6600 C   0  0  0  0  0  0  0  0  0  0  0  0
    0.0960   19.6750  -30.8090 S   0  0  0  0  0  0  0  0  0  0  0  0
    0.2730   18.3800  -30.0670 O   0  0  0  0  0  0  0  0  0  0  0  0
    1.4120   20.0290  -31.4450 O   0  0  0  0  0  0  0  0  0  0  0  0
   -1.1070   19.4740  -32.0620 N   0  0  0  0  0  0  0  0  0  0  0  0
   -2.4540   19.7990  -31.5420 C   0  0  0  0  0  0  0  0  0  0  0  0
   -3.4450   20.0810  -32.6790 C   0  0  0  0  0  0  0  0  0  0  0  0
   -3.0040   21.3020  -33.5090 C   0  0  0  0  0  0  0  0  0  0  0  0
   -1.4810   21.5210  -33.4760 C   0  0  0  0  0  0  0  0  0  0  0  0
   -0.7290   20.1890  -33.3050 C   0  0  0  0  0  0  0  0  0  0  0  0
   -0.0460   20.7990  -28.3030 C   0  0  0  0  0  0  0  0  0  0  0  0
   -0.3860   21.8040  -27.3940 C   0  0  0  0  0  0  0  0  0  0  0  0
   -1.0280   22.9850  -27.8220 C   0  0  0  0  0  0  0  0  0  0  0  0
   -1.3010   24.0480  -26.8690 N   0  0  0  0  0  0  0  0  0  0  0  0
   -0.2660   24.7170  -26.0840 C   0  0  0  0  0  0  0  0  0  0  0  0
   -0.9860   25.7580  -25.2430 C   0  0  0  0  0  0  0  0  0  0  0  0
   -2.3120   26.0000  -25.9560 C   0  0  0  0  0  0  0  0  0  0  0  0
   -2.5890   24.7190  -26.7330 C   0  0  0  0  0  0  0  0  0  0  0  0
   -4.0910   22.9360  -30.4020 N   0  0  0  0  0  0  0  0  0  0  0  0
   -5.4300   22.8180  -30.9100 C   0  0  0  0  0  0  0  0  0  0  0  0
   -6.2680   23.9410  -31.0340 C   0  0  0  0  0  0  0  0  0  0  0  0
   -7.5600   23.8020  -31.5440 C   0  0  0  0  0  0  0  0  0  0  0  0
   -8.0340   22.5450  -31.9250 C   0  0  0  0  0  0  0  0  0  0  0  0
   -7.2170   21.4140  -31.7920 C   0  0  0  0  0  0  0  0  0  0  0  0
   -7.8140   19.8210  -32.2800 S   0  0  0  0  0  0  0  0  0  0  0  0
   -8.4610   19.1590  -31.0950 O   0  0  0  0  0  0  0  0  0  0  0  0
   -8.8650   19.9990  -33.3410 O   0  0  0  0  0  0  0  0  0  0  0  0
   -6.5500   18.7800  -32.8990 N   0  0  0  0  0  0  0  0  0  0  0  0
   -7.0080   17.4020  -33.0600 C   0  0  0  0  0  0  0  0  0  0  0  0
   -6.1340   16.7810  -34.1410 C   0  0  0  0  0  0  0  0  0  0  0  0
   -5.5270   17.9560  -34.8960 C   0  0  0  0  0  0  0  0  0  0  0  0
   -6.0960   19.1980  -34.2260 C   0  0  0  0  0  0  0  0  0  0  0  0
   -5.9230   21.5540  -31.2670 C   0  0  0  0  0  0  0  0  0  0  0  0
   -1.2623   22.1994  -31.1637 H   0  0  0  0  0  0  0  0  0  0  0  0
   -2.8228   18.9487  -30.9496 H   0  0  0  0  0  0  0  0  0  0  0  0
   -2.3745   20.7043  -30.9222 H   0  0  0  0  0  0  0  0  0  0  0  0
   -3.4982   19.2003  -33.3359 H   0  0  0  0  0  0  0  0  0  0  0  0
   -4.4301   20.2950  -32.2388 H   0  0  0  0  0  0  0  0  0  0  0  0
   -3.3155   21.1495  -34.5529 H   0  0  0  0  0  0  0  0  0  0  0  0
   -3.4783   22.1922  -33.0701 H   0  0  0  0  0  0  0  0  0  0  0  0
   -1.1660   21.9920  -34.4188 H   0  0  0  0  0  0  0  0  0  0  0  0
   -1.2413   22.1679  -32.6192 H   0  0  0  0  0  0  0  0  0  0  0  0
   -0.9570   19.5431  -34.1657 H   0  0  0  0  0  0  0  0  0  0  0  0
    0.3448   20.4193  -33.2424 H   0  0  0  0  0  0  0  0  0  0  0  0
    0.4641   19.8911  -27.9486 H   0  0  0  0  0  0  0  0  0  0  0  0
   -0.1494   21.6723  -26.3278 H   0  0  0  0  0  0  0  0  0  0  0  0
    0.2505   23.9931  -25.4365 H   0  0  0  0  0  0  0  0  0  0  0  0
    0.4956   25.1776  -26.7304 H   0  0  0  0  0  0  0  0  0  0  0  0
   -1.1589   25.3791  -24.2249 H   0  0  0  0  0  0  0  0  0  0  0  0
   -0.3988   26.6826  -25.1416 H   0  0  0  0  0  0  0  0  0  0  0  0
   -3.1131   26.1892  -25.2263 H   0  0  0  0  0  0  0  0  0  0  0  0
   -2.2690   26.8792  -26.6157 H   0  0  0  0  0  0  0  0  0  0  0  0
   -3.2960   24.0820  -26.1812 H   0  0  0  0  0  0  0  0  0  0  0  0
   -3.0398   24.9308  -27.7138 H   0  0  0  0  0  0  0  0  0  0  0  0
   -3.5050   22.0710  -30.3740 H   0  0  0  0  0  0  0  0  0  0  0  0
   -5.9037   24.9328  -30.7278 H   0  0  0  0  0  0  0  0  0  0  0  0
   -8.2070   24.6858  -31.6461 H   0  0  0  0  0  0  0  0  0  0  0  0
   -9.0513   22.4422  -32.3306 H   0  0  0  0  0  0  0  0  0  0  0  0
   -6.8937   16.8504  -32.1152 H   0  0  0  0  0  0  0  0  0  0  0  0
   -8.0717   17.3656  -33.3380 H   0  0  0  0  0  0  0  0  0  0  0  0
   -5.3432   16.1642  -33.6891 H   0  0  0  0  0  0  0  0  0  0  0  0
   -6.7122   16.1227  -34.8060 H   0  0  0  0  0  0  0  0  0  0  0  0
   -4.4301   17.9418  -34.8141 H   0  0  0  0  0  0  0  0  0  0  0  0
   -5.7655   17.9222  -35.9693 H   0  0  0  0  0  0  0  0  0  0  0  0
   -5.3191   19.9716  -34.1362 H   0  0  0  0  0  0  0  0  0  0  0  0
   -6.9217   19.6255  -34.8138 H   0  0  0  0  0  0  0  0  0  0  0  0
   -5.2896   20.6646  -31.1342 H   0  0  0  0  0  0  0  0  0  0  0  0
  1  2  2  0
  2  3  1  0
  3  4  1  0
  4  5  2  0
  5  6  1  0
  6  7  1  0
  7  8  2  0
  7  9  2  0
  7 10  1  0
 10 11  1  0
 11 12  1  0
 12 13  1  0
 13 14  1  0
 14 15  1  0
  6 16  2  0
 16 17  1  0
 17 18  2  0
 18 19  1  0
 19 20  1  0
 20 21  1  0
 21 22  1  0
 22 23  1  0
  2 24  1  0
 24 25  1  0
 25 26  2  0
 26 27  1  0
 27 28  2  0
 28 29  1  0
 29 30  1  0
 30 31  2  0
 30 32  2  0
 30 33  1  0
 33 34  1  0
 34 35  1  0
 35 36  1  0
 36 37  1  0
 29 38  2  0
 18  4  1  0
 23 19  1  0
 38 25  1  0
 15 10  1  0
 37 33  1  0
  5 39  1  0
 11 40  1  0
 11 41  1  0
 12 42  1  0
 12 43  1  0
 13 44  1  0
 13 45  1  0
 14 46  1  0
 14 47  1  0
 15 48  1  0
 15 49  1  0
 16 50  1  0
 17 51  1  0
 20 52  1  0
 20 53  1  0
 21 54  1  0
 21 55  1  0
 22 56  1  0
 22 57  1  0
 23 58  1  0
 23 59  1  0
 24 60  1  0
 26 61  1  0
 27 62  1  0
 28 63  1  0
 34 64  1  0
 34 65  1  0
 35 66  1  0
 35 67  1  0
 36 68  1  0
 36 69  1  0
 37 70  1  0
 37 71  1  0
 38 72  1  0
M  CHG  1   3  -1
M  END
>  <UniqueID>  (17) 
17

>  <SMILES>  (17) 
O=C([N-]c1cc(S(=O)(=O)N2CCCCC2)ccc1N1CCCC1)Nc1cccc(S(=O)(=O)N2CCCC2)c1

>  <Energy>  (17) 
92.1826629211902

>  <Genealogy>  (17) 
O=C([N-]c1cc(S(=O)(=O)N2CCCCC2)ccc1N1CCCC1)Nc1cccc(S(=O)(=O)N2CCCC2)c1 (protonated)
O=C([N-]c1cc(S(=O)(=O)N2CCCCC2)ccc1N1CCCC1)Nc1cccc(S(=O)(=O)N2CCCC2)c1 (3D coordinates assigned)
O=C([N-]c1cc(S(=O)(=O)N2CCCCC2)ccc1N1CCCC1)Nc1cccc(S(=O)(=O)N2CCCC2)c1 (nonaromatic ring conformer: 92.1826629211902 kcal/mol)

>  <smiles>  (17) 
O=C(Nc1cccc(S(=O)(=O)N2CCCC2)c1)Nc1cc(S(=O)(=O)N2CCCCC2)ccc1N1CCCC1

>  <score_type>  (17) 
oracle

>  <origin>  (17) 
adgpu

>  <m_score__min__energy>  (17) 
-12.630000000000001

>  <m_primary>  (17) 
energy

$$$$
17:0
     RDKit          3D

 43 45  0  0  0  0  0  0  0  0999 V2000
   -2.7980   21.7490  -32.3000 C   0  0  0  0  0  0  0  0  0  0  0  0
   -3.7490   22.8220  -32.0240 N   0  0  0  0  0  0  0  0  0  0  0  0
   -5.1710   22.6060  -31.8800 C   0  0  0  0  0  0  0  0  0  0  0  0
   -5.7700   21.4460  -32.4110 C   0  0  0  0  0  0  0  0  0  0  0  0
   -7.1450   21.2360  -32.3010 C   0  0  0  0  0  0  0  0  0  0  0  0
   -7.9570   22.1850  -31.6720 C   0  0  0  0  0  0  0  0  0  0  0  0
   -9.4300   21.9390  -31.5240 C   0  0  0  0  0  0  0  0  0  0  0  0
   -7.3740   23.3290  -31.1170 C   0  0  0  0  0  0  0  0  0  0  0  0
   -5.9910   23.5540  -31.2140 C   0  0  0  0  0  0  0  0  0  0  0  0
   -5.3140   25.0060  -30.4600 S   0  0  0  0  0  0  0  0  0  0  0  0
   -5.7870   25.1310  -29.0380 O   0  0  0  0  0  0  0  0  0  0  0  0
   -5.7630   26.2080  -31.2430 O   0  0  0  0  0  0  0  0  0  0  0  0
   -3.5840   24.8860  -30.4740 N   0  0  0  0  0  0  0  0  0  0  0  0
   -2.7660   24.2650  -29.4710 C   0  0  0  0  0  0  0  0  0  0  0  0
   -3.1560   23.0060  -29.0000 C   0  0  0  0  0  0  0  0  0  0  0  0
   -2.3970   22.3340  -28.0330 C   0  0  0  0  0  0  0  0  0  0  0  0
   -1.2460   22.9450  -27.4990 C   0  0  0  0  0  0  0  0  0  0  0  0
   -0.8580   24.2080  -27.9620 C   0  0  0  0  0  0  0  0  0  0  0  0
   -1.6150   24.8780  -28.9280 C   0  0  0  0  0  0  0  0  0  0  0  0
   -1.2250   26.1550  -29.3100 O   0  0  0  0  0  0  0  0  0  0  0  0
   -0.3970   22.2170  -26.4840 C   0  0  0  0  0  0  0  0  0  0  0  0
   -1.2110   21.1770  -25.7040 C   0  0  0  0  0  0  0  0  0  0  0  0
   -1.9660   20.2550  -26.6640 C   0  0  0  0  0  0  0  0  0  0  0  0
   -2.8080   21.0400  -27.5650 N   0  0  0  0  0  0  0  0  0  0  0  0
   -2.4292   21.3328  -31.3509 H   0  0  0  0  0  0  0  0  0  0  0  0
   -3.2963   20.9572  -32.8785 H   0  0  0  0  0  0  0  0  0  0  0  0
   -1.9520   22.1486  -32.8785 H   0  0  0  0  0  0  0  0  0  0  0  0
   -3.3460   23.7760  -31.9140 H   0  0  0  0  0  0  0  0  0  0  0  0
   -5.1453   20.6964  -32.9188 H   0  0  0  0  0  0  0  0  0  0  0  0
   -7.5928   20.3189  -32.7113 H   0  0  0  0  0  0  0  0  0  0  0  0
   -9.6890   21.8957  -30.4558 H   0  0  0  0  0  0  0  0  0  0  0  0
   -9.9883   22.7563  -32.0039 H   0  0  0  0  0  0  0  0  0  0  0  0
   -9.6924   20.9846  -32.0039 H   0  0  0  0  0  0  0  0  0  0  0  0
   -8.0076   24.0628  -30.5973 H   0  0  0  0  0  0  0  0  0  0  0  0
   -4.0702   22.5382  -29.3942 H   0  0  0  0  0  0  0  0  0  0  0  0
    0.0522   24.6783  -27.5615 H   0  0  0  0  0  0  0  0  0  0  0  0
    0.4250   21.7067  -27.0073 H   0  0  0  0  0  0  0  0  0  0  0  0
   -0.0098   22.9565  -25.7676 H   0  0  0  0  0  0  0  0  0  0  0  0
   -0.5298   20.5748  -25.0848 H   0  0  0  0  0  0  0  0  0  0  0  0
   -1.9398   21.7008  -25.0680 H   0  0  0  0  0  0  0  0  0  0  0  0
   -1.2418   19.6764  -27.2562 H   0  0  0  0  0  0  0  0  0  0  0  0
   -2.6038   19.5754  -26.0798 H   0  0  0  0  0  0  0  0  0  0  0  0
   -3.6910   20.6120  -27.9240 H   0  0  0  0  0  0  0  0  0  0  0  0
  1  2  1  0
  2  3  1  0
  3  4  2  0
  4  5  1  0
  5  6  2  0
  6  7  1  0
  6  8  1  0
  8  9  2  0
  9 10  1  0
 10 11  2  0
 10 12  2  0
 10 13  1  0
 13 14  1  0
 14 15  2  0
 15 16  1  0
 16 17  2  0
 17 18  1  0
 18 19  2  0
 19 20  1  0
 17 21  1  0
 21 22  1  0
 22 23  1  0
 23 24  1  0
  9  3  1  0
 19 14  1  0
 24 16  1  0
  1 25  1  0
  1 26  1  0
  1 27  1  0
  2 28  1  0
  4 29  1  0
  5 30  1  0
  7 31  1  0
  7 32  1  0
  7 33  1  0
  8 34  1  0
 15 35  1  0
 18 36  1  0
 21 37  1  0
 21 38  1  0
 22 39  1  0
 22 40  1  0
 23 41  1  0
 23 42  1  0
 24 43  1  0
M  CHG  2  13  -1  20  -1
M  END
>  <UniqueID>  (18) 
18

>  <SMILES>  (18) 
CNc1ccc(C)cc1S(=O)(=O)[N-]c1cc2c(cc1[O-])CCCN2

>  <Energy>  (18) 
51.07648129875477

>  <Genealogy>  (18) 
CNc1ccc(C)cc1S(=O)(=O)[N-]c1cc2c(cc1[O-])CCCN2 (protonated)
CNc1ccc(C)cc1S(=O)(=O)[N-]c1cc2c(cc1[O-])CCCN2 (3D coordinates assigned)
CNc1ccc(C)cc1S(=O)(=O)[N-]c1cc2c(cc1[O-])CCCN2 (nonaromatic ring conformer: 51.07648129875477 kcal/mol)

>  <smiles>  (18) 
CNc1ccc(C)cc1S(=O)(=O)Nc1cc2c(cc1O)CCCN2

>  <score_type>  (18) 
oracle

>  <origin>  (18) 
adgpu

>  <m_score__min__energy>  (18) 
-13

>  <m_primary>  (18) 
energy

$$$$
18:0
     RDKit          3D

 64 68  0  0  0  0  0  0  0  0999 V2000
   -1.0240   16.9910  -33.8070 C   0  0  0  0  0  0  0  0  0  0  0  0
   -1.7840   18.2270  -33.4160 C   0  0  0  0  0  0  0  0  0  0  0  0
   -2.8830   18.6540  -34.1760 C   0  0  0  0  0  0  0  0  0  0  0  0
   -3.5580   19.8320  -33.8390 C   0  0  0  0  0  0  0  0  0  0  0  0
   -3.1320   20.6010  -32.7520 C   0  0  0  0  0  0  0  0  0  0  0  0
   -2.0280   20.1910  -31.9840 C   0  0  0  0  0  0  0  0  0  0  0  0
   -1.5820   20.9850  -30.8140 C   0  0  0  0  0  0  0  0  0  0  0  0
   -0.5300   20.5340  -30.0000 C   0  0  0  0  0  0  0  0  0  0  0  0
   -0.1000   21.3010  -28.9120 C   0  0  0  0  0  0  0  0  0  0  0  0
   -0.6970   22.5370  -28.6450 C   0  0  0  0  0  0  0  0  0  0  0  0
   -1.7420   23.0020  -29.4540 C   0  0  0  0  0  0  0  0  0  0  0  0
   -2.3680   24.6330  -29.2380 S   0  0  0  0  0  0  0  0  0  0  0  0
   -1.2190   25.5980  -29.2910 O   0  0  0  0  0  0  0  0  0  0  0  0
   -3.0260   24.7560  -27.8930 O   0  0  0  0  0  0  0  0  0  0  0  0
   -3.5210   25.0520  -30.4690 N   0  0  0  0  0  0  0  0  0  0  0  0
   -4.7870   24.4070  -30.6310 C   0  0  0  0  0  0  0  0  0  0  0  0
   -5.8730   24.8320  -29.8630 C   0  0  0  0  0  0  0  0  0  0  0  0
   -7.1000   24.1660  -29.9490 C   0  0  0  0  0  0  0  0  0  0  0  0
   -7.2600   23.0750  -30.8170 C   0  0  0  0  0  0  0  0  0  0  0  0
   -6.1770   22.6660  -31.6160 C   0  0  0  0  0  0  0  0  0  0  0  0
   -4.9660   23.3650  -31.5480 C   0  0  0  0  0  0  0  0  0  0  0  0
   -6.3300   21.5470  -32.6170 C   0  0  0  0  0  0  0  0  0  0  0  0
   -7.4140   20.6130  -32.2460 N   0  0  2  0  0  0  0  0  0  0  0  0
   -7.5750   19.5970  -33.3140 C   0  0  0  0  0  0  0  0  0  0  0  0
   -6.7200   18.3760  -33.0660 C   0  0  0  0  0  0  0  0  0  0  0  0
   -6.1560   17.6690  -34.1400 C   0  0  0  0  0  0  0  0  0  0  0  0
   -5.3830   16.5280  -33.9100 C   0  0  0  0  0  0  0  0  0  0  0  0
   -5.1620   16.0700  -32.5990 C   0  0  0  0  0  0  0  0  0  0  0  0
   -4.3470   14.8580  -32.3600 C   0  0  0  0  0  0  0  0  0  0  0  0
   -3.4060   14.5560  -33.1430 O   0  0  0  0  0  0  0  0  0  0  0  0
   -4.6020   14.0370  -31.2680 O   0  0  0  0  0  0  0  0  0  0  0  0
   -5.7290   16.7770  -31.5230 C   0  0  0  0  0  0  0  0  0  0  0  0
   -6.5030   17.9190  -31.7560 C   0  0  0  0  0  0  0  0  0  0  0  0
   -8.6720   21.3640  -32.0250 C   0  0  0  0  0  0  0  0  0  0  0  0
   -8.5500   22.2980  -30.8120 C   0  0  0  0  0  0  0  0  0  0  0  0
   -2.1950   22.2150  -30.5240 C   0  0  0  0  0  0  0  0  0  0  0  0
   -1.3570   19.0030  -32.3270 C   0  0  0  0  0  0  0  0  0  0  0  0
   -0.6972   16.4596  -32.9010 H   0  0  0  0  0  0  0  0  0  0  0  0
   -1.6743   16.3339  -34.4031 H   0  0  0  0  0  0  0  0  0  0  0  0
   -0.1441   17.2748  -34.4031 H   0  0  0  0  0  0  0  0  0  0  0  0
   -3.2153   18.0602  -35.0403 H   0  0  0  0  0  0  0  0  0  0  0  0
   -4.4270   20.1544  -34.4314 H   0  0  0  0  0  0  0  0  0  0  0  0
   -3.6625   21.5302  -32.4967 H   0  0  0  0  0  0  0  0  0  0  0  0
   -0.0418   19.5729  -30.2191 H   0  0  0  0  0  0  0  0  0  0  0  0
    0.7093   20.9311  -28.2653 H   0  0  0  0  0  0  0  0  0  0  0  0
   -0.3456   23.1451  -27.7984 H   0  0  0  0  0  0  0  0  0  0  0  0
   -5.7632   25.6936  -29.1880 H   0  0  0  0  0  0  0  0  0  0  0  0
   -7.9465   24.5002  -29.3311 H   0  0  0  0  0  0  0  0  0  0  0  0
   -4.1433   23.0913  -32.2250 H   0  0  0  0  0  0  0  0  0  0  0  0
   -6.5573   21.9809  -33.6019 H   0  0  0  0  0  0  0  0  0  0  0  0
   -5.3874   20.9804  -32.6382 H   0  0  0  0  0  0  0  0  0  0  0  0
   -7.1390   20.1270  -31.3570 H   0  0  0  0  0  0  0  0  0  0  0  0
   -8.6303   19.2893  -33.3555 H   0  0  0  0  0  0  0  0  0  0  0  0
   -7.2551   20.0490  -34.2645 H   0  0  0  0  0  0  0  0  0  0  0  0
   -6.3240   18.0160  -35.1702 H   0  0  0  0  0  0  0  0  0  0  0  0
   -4.9445   15.9845  -34.7599 H   0  0  0  0  0  0  0  0  0  0  0  0
   -5.5629   16.4299  -30.4925 H   0  0  0  0  0  0  0  0  0  0  0  0
   -6.9444   18.4624  -30.9075 H   0  0  0  0  0  0  0  0  0  0  0  0
   -8.8947   21.9638  -32.9198 H   0  0  0  0  0  0  0  0  0  0  0  0
   -9.4808   20.6437  -31.8325 H   0  0  0  0  0  0  0  0  0  0  0  0
   -9.3905   23.0075  -30.8258 H   0  0  0  0  0  0  0  0  0  0  0  0
   -8.5648   21.6757  -29.9051 H   0  0  0  0  0  0  0  0  0  0  0  0
   -3.0366   22.5641  -31.1403 H   0  0  0  0  0  0  0  0  0  0  0  0
   -0.4882   18.6787  -31.7353 H   0  0  0  0  0  0  0  0  0  0  0  0
  1  2  1  0
  2  3  2  0
  3  4  1  0
  4  5  2  0
  5  6  1  0
  6  7  1  0
  7  8  2  0
  8  9  1  0
  9 10  2  0
 10 11  1  0
 11 12  1  0
 12 13  2  0
 12 14  2  0
 12 15  1  0
 15 16  1  0
 16 17  2  0
 17 18  1  0
 18 19  2  0
 19 20  1  0
 20 21  2  0
 20 22  1  0
 22 23  1  0
 23 24  1  0
 24 25  1  0
 25 26  2  0
 26 27  1  0
 27 28  2  0
 28 29  1  0
 29 30  2  0
 29 31  1  0
 28 32  1  0
 32 33  2  0
 23 34  1  0
 34 35  1  0
 11 36  2  0
  6 37  2  0
 37  2  1  0
 36  7  1  0
 21 16  1  0
 33 25  1  0
 35 19  1  0
  1 38  1  0
  1 39  1  0
  1 40  1  0
  3 41  1  0
  4 42  1  0
  5 43  1  0
  8 44  1  0
  9 45  1  0
 10 46  1  0
 17 47  1  0
 18 48  1  0
 21 49  1  0
 22 50  1  0
 22 51  1  0
 23 52  1  1
 24 53  1  0
 24 54  1  0
 26 55  1  0
 27 56  1  0
 32 57  1  0
 33 58  1  0
 34 59  1  0
 34 60  1  0
 35 61  1  0
 35 62  1  0
 36 63  1  0
 37 64  1  0
M  CHG  3  15  -1  23   1  31  -1
M  END
>  <UniqueID>  (19) 
19

>  <SMILES>  (19) 
Cc1cccc(-c2cccc(S(=O)(=O)[N-]c3ccc4c(c3)C[N@H+](Cc3ccc(C(=O)[O-])cc3)CC4)c2)c1

>  <Energy>  (19) 
84.68045802560479

>  <Genealogy>  (19) 
Cc1cccc(-c2cccc(S(=O)(=O)[N-]c3ccc4c(c3)C[NH+](Cc3ccc(C(=O)[O-])cc3)CC4)c2)c1 (protonated)
Cc1cccc(-c2cccc(S(=O)(=O)[N-]c3ccc4c(c3)C[N@H+](Cc3ccc(C(=O)[O-])cc3)CC4)c2)c1 (chirality)
Cc1cccc(-c2cccc(S(=O)(=O)[N-]c3ccc4c(c3)C[N@H+](Cc3ccc(C(=O)[O-])cc3)CC4)c2)c1 (3D coordinates assigned)
Cc1cccc(-c2cccc(S(=O)(=O)[N-]c3ccc4c(c3)C[N@H+](Cc3ccc(C(=O)[O-])cc3)CC4)c2)c1 (nonaromatic ring conformer: 84.68045802560479 kcal/mol)

>  <smiles>  (19) 
Cc1cccc(-c2cccc(S(=O)(=O)Nc3ccc4c(c3)CN(Cc3ccc(C(=O)O)cc3)CC4)c2)c1

>  <score_type>  (19) 
oracle

>  <origin>  (19) 
adgpu

>  <m_score__min__energy>  (19) 
-12.880000000000001

>  <m_primary>  (19) 
energy

$$$$
19:0
     RDKit          3D

 56 60  0  0  0  0  0  0  0  0999 V2000
   -4.1761   24.3118  -26.9092 H   0  0  0  0  0  0  0  0  0  0  0  0
   -3.1860   24.7190  -27.1620 C   0  0  0  0  0  0  0  0  0  0  0  0
   -2.4070   25.2530  -26.1850 N   0  0  0  0  0  0  0  0  0  0  0  0
   -1.1740   25.7750  -26.4370 C   0  0  0  0  0  0  0  0  0  0  0  0
   -0.4050   26.3380  -25.3520 N   0  0  0  0  0  0  0  0  0  0  0  0
    0.9390   26.8940  -25.5850 C   0  0  0  0  0  0  0  0  0  0  0  0
    1.3883   26.3769  -26.4457 H   0  0  0  0  0  0  0  0  0  0  0  0
    0.8225   27.9721  -25.7700 H   0  0  0  0  0  0  0  0  0  0  0  0
    1.8790   26.7310  -24.3650 C   0  0  0  0  0  0  0  0  0  0  0  0
    2.5595   25.8900  -24.5643 H   0  0  0  0  0  0  0  0  0  0  0  0
    2.4069   27.6884  -24.2437 H   0  0  0  0  0  0  0  0  0  0  0  0
    1.1810   26.4690  -23.0920 N   0  0  0  0  0  0  0  0  0  0  0  0
    1.7760   26.8100  -22.3010 H   0  0  0  0  0  0  0  0  0  0  0  0
    1.0510   25.4360  -22.9700 H   0  0  0  0  0  0  0  0  0  0  0  0
   -0.1210   27.1370  -23.0270 C   0  0  0  0  0  0  0  0  0  0  0  0
   -0.5440   27.0169  -22.0187 H   0  0  0  0  0  0  0  0  0  0  0  0
    0.0061   28.2070  -23.2482 H   0  0  0  0  0  0  0  0  0  0  0  0
   -1.0680   26.5160  -24.0530 C   0  0  0  0  0  0  0  0  0  0  0  0
   -1.4028   25.5352  -23.6841 H   0  0  0  0  0  0  0  0  0  0  0  0
   -1.9241   27.1931  -24.1899 H   0  0  0  0  0  0  0  0  0  0  0  0
   -0.6970   25.7830  -27.7590 C   0  0  0  0  0  0  0  0  0  0  0  0
    0.2873   26.2172  -27.9884 H   0  0  0  0  0  0  0  0  0  0  0  0
   -1.4770   25.2380  -28.7790 C   0  0  0  0  0  0  0  0  0  0  0  0
   -1.1048   25.2423  -29.8141 H   0  0  0  0  0  0  0  0  0  0  0  0
   -2.7370   24.6830  -28.4910 C   0  0  0  0  0  0  0  0  0  0  0  0
   -3.5970   24.1050  -29.5550 C   0  0  0  0  0  0  0  0  0  0  0  0
   -3.2990   22.8740  -30.0560 N   0  0  0  0  0  0  0  0  0  0  0  0
   -4.0320   22.2670  -31.0280 C   0  0  0  0  0  0  0  0  0  0  0  0
   -3.6550   21.0810  -31.4250 N   0  0  0  0  0  0  0  0  0  0  0  0
   -4.3270   20.1970  -32.3320 C   0  0  0  0  0  0  0  0  0  0  0  0
   -3.6170   19.6390  -33.3970 C   0  0  0  0  0  0  0  0  0  0  0  0
   -2.5655   19.9175  -33.5605 H   0  0  0  0  0  0  0  0  0  0  0  0
   -4.2370   18.7290  -34.2550 C   0  0  0  0  0  0  0  0  0  0  0  0
   -3.6772   18.3085  -35.1034 H   0  0  0  0  0  0  0  0  0  0  0  0
   -5.5660   18.3490  -34.0420 C   0  0  0  0  0  0  0  0  0  0  0  0
   -6.1260   17.4620  -34.9030 F   0  0  0  0  0  0  0  0  0  0  0  0
   -6.2900   18.8710  -32.9480 C   0  0  0  0  0  0  0  0  0  0  0  0
   -7.6990   18.4800  -32.6840 C   0  0  0  0  0  0  0  0  0  0  0  0
   -7.9800   17.2780  -32.4210 O   0  0  0  0  0  0  0  0  0  0  0  0
   -8.7470   19.4530  -32.7180 N   0  0  0  0  0  0  0  0  0  0  0  0
   -9.0740   20.2900  -31.5720 C   0  0  0  0  0  0  0  0  0  0  0  0
   -9.2135   19.4861  -30.8343 H   0  0  0  0  0  0  0  0  0  0  0  0
   -9.8310   21.5480  -31.9550 C   0  0  0  0  0  0  0  0  0  0  0  0
  -10.1409   21.7075  -32.9983 H   0  0  0  0  0  0  0  0  0  0  0  0
  -10.7519   22.0385  -31.6068 H   0  0  0  0  0  0  0  0  0  0  0  0
   -8.3580   21.6290  -31.5770 C   0  0  0  0  0  0  0  0  0  0  0  0
   -7.6033   21.8467  -32.3471 H   0  0  0  0  0  0  0  0  0  0  0  0
   -7.7730   22.2019  -30.8425 H   0  0  0  0  0  0  0  0  0  0  0  0
   -5.6490   19.7860  -32.0890 C   0  0  0  0  0  0  0  0  0  0  0  0
   -6.1899   20.1835  -31.2176 H   0  0  0  0  0  0  0  0  0  0  0  0
   -5.1370   22.9560  -31.5780 C   0  0  0  0  0  0  0  0  0  0  0  0
   -5.8530   22.4730  -32.6230 F   0  0  0  0  0  0  0  0  0  0  0  0
   -5.4620   24.2210  -31.0860 C   0  0  0  0  0  0  0  0  0  0  0  0
   -6.3246   24.7636  -31.5001 H   0  0  0  0  0  0  0  0  0  0  0  0
   -4.7000   24.8010  -30.0730 C   0  0  0  0  0  0  0  0  0  0  0  0
   -4.9611   25.7958  -29.6830 H   0  0  0  0  0  0  0  0  0  0  0  0
  1  2  1  0
  2  3  2  0
  3  4  1  0
  4  5  1  0
  5  6  1  0
  6  7  1  0
  6  8  1  0
  6  9  1  0
  9 10  1  0
  9 11  1  0
  9 12  1  0
 12 13  1  0
 12 14  1  0
 12 15  1  0
 15 16  1  0
 15 17  1  0
 15 18  1  0
 18 19  1  0
 18 20  1  0
  4 21  2  0
 21 22  1  0
 21 23  1  0
 23 24  1  0
 23 25  2  0
 25 26  1  0
 26 27  1  0
 27 28  1  0
 28 29  2  0
 29 30  1  0
 30 31  2  0
 31 32  1  0
 31 33  1  0
 33 34  1  0
 33 35  2  0
 35 36  1  0
 35 37  1  0
 37 38  1  0
 38 39  2  0
 38 40  1  0
 40 41  1  0
 41 42  1  0
 41 43  1  0
 43 44  1  0
 43 45  1  0
 43 46  1  0
 46 47  1  0
 46 48  1  0
 37 49  2  0
 49 50  1  0
 28 51  1  0
 51 52  1  0
 51 53  2  0
 53 54  1  0
 53 55  1  0
 55 56  1  0
 25  2  1  0
 55 26  2  0
 18  5  1  0
 49 30  1  0
 46 41  1  0
M  CHG  3  12   1  27  -1  40  -1
M  END
>  <UniqueID>  (20) 
20

>  <SMILES>  (20) 
O=C([N-]C1CC1)c1cc(/N=c2/[n-]c(-c3ccc(N4CC[NH2+]CC4)nc3)ccc2F)ccc1F

>  <Energy>  (20) 
349.2176709700093

>  <Genealogy>  (20) 
O=C([N-]C1CC1)c1cc(N=c2[n-]c(-c3ccc(N4CC[NH2+]CC4)nc3)ccc2F)ccc1F (protonated)
O=C([N-]C1CC1)c1cc(/N=c2/[n-]c(-c3ccc(N4CC[NH2+]CC4)nc3)ccc2F)ccc1F (cis-trans isomerization)
O=C([N-]C1CC1)c1cc(/N=c2/[n-]c(-c3ccc(N4CC[NH2+]CC4)nc3)ccc2F)ccc1F (3D coordinates assigned)
O=C([N-]C1CC1)c1cc(/N=c2/[n-]c(-c3ccc(N4CC[NH2+]CC4)nc3)ccc2F)ccc1F (nonaromatic ring conformer: 349.2176709700093 kcal/mol)

>  <smiles>  (20) 
O=C(NC1CC1)c1cc(N=c2[nH]c(-c3ccc(N4CCNCC4)nc3)ccc2F)ccc1F

>  <score_type>  (20) 
oracle

>  <origin>  (20) 
adgpu

>  <m_score__min__energy>  (20) 
-10.779999999999999

>  <m_primary>  (20) 
energy

$$$$
20:0
     RDKit          3D

 45 47  0  0  0  0  0  0  0  0999 V2000
   -4.3330   23.0820  -32.1420 O   0  0  0  0  0  0  0  0  0  0  0  0
   -5.3900   23.6020  -31.2080 S   0  0  0  0  0  0  0  0  0  0  0  0
   -5.4470   25.0950  -31.3680 O   0  0  0  0  0  0  0  0  0  0  0  0
   -4.9970   23.2460  -29.5540 N   0  0  0  0  0  0  0  0  0  0  0  0
   -3.7010   23.2950  -28.9360 C   0  0  0  0  0  0  0  0  0  0  0  0
   -3.2920   22.3640  -27.9590 C   0  0  0  0  0  0  0  0  0  0  0  0
   -2.0060   22.4310  -27.4120 C   0  0  0  0  0  0  0  0  0  0  0  0
   -1.6120   21.5150  -26.4920 F   0  0  0  0  0  0  0  0  0  0  0  0
   -1.1180   23.4230  -27.8340 C   0  0  0  0  0  0  0  0  0  0  0  0
   -1.5160   24.3570  -28.7950 C   0  0  0  0  0  0  0  0  0  0  0  0
   -2.8010   24.2930  -29.3510 C   0  0  0  0  0  0  0  0  0  0  0  0
   -3.1920   25.2200  -30.3190 O   0  0  0  0  0  0  0  0  0  0  0  0
   -6.9660   22.9140  -31.6010 C   0  0  0  0  0  0  0  0  0  0  0  0
   -8.0910   23.7460  -31.7240 C   0  0  0  0  0  0  0  0  0  0  0  0
   -9.3460   23.1960  -31.9970 C   0  0  0  0  0  0  0  0  0  0  0  0
   -9.4890   21.8120  -32.1310 C   0  0  0  0  0  0  0  0  0  0  0  0
   -8.3740   20.9730  -32.0000 C   0  0  0  0  0  0  0  0  0  0  0  0
   -8.5440   19.2240  -32.1350 S   0  0  0  0  0  0  0  0  0  0  0  0
   -8.8170   18.6650  -30.7670 O   0  0  0  0  0  0  0  0  0  0  0  0
   -9.7070   18.8880  -33.0300 O   0  0  0  0  0  0  0  0  0  0  0  0
   -7.0750   18.5320  -32.7780 N   0  0  0  0  0  0  0  0  0  0  0  0
   -6.0860   18.2710  -31.7010 C   0  0  0  0  0  0  0  0  0  0  0  0
   -4.9920   19.3450  -31.6160 C   0  0  0  0  0  0  0  0  0  0  0  0
   -4.2260   19.4770  -32.9440 C   0  0  0  0  0  0  0  0  0  0  0  0
   -5.0880   19.1090  -34.1640 C   0  0  0  0  0  0  0  0  0  0  0  0
   -6.5700   19.3760  -33.8850 C   0  0  0  0  0  0  0  0  0  0  0  0
   -7.1130   21.5280  -31.7500 C   0  0  0  0  0  0  0  0  0  0  0  0
   -3.9881   21.5805  -27.6250 H   0  0  0  0  0  0  0  0  0  0  0  0
   -0.1042   23.4694  -27.4097 H   0  0  0  0  0  0  0  0  0  0  0  0
   -0.8184   25.1447  -29.1158 H   0  0  0  0  0  0  0  0  0  0  0  0
   -3.5550   24.9270  -31.2190 H   0  0  0  0  0  0  0  0  0  0  0  0
   -7.9836   24.8343  -31.6050 H   0  0  0  0  0  0  0  0  0  0  0  0
  -10.2219   23.8524  -32.1065 H   0  0  0  0  0  0  0  0  0  0  0  0
  -10.4790   21.3803  -32.3398 H   0  0  0  0  0  0  0  0  0  0  0  0
   -6.6174   18.2354  -30.7386 H   0  0  0  0  0  0  0  0  0  0  0  0
   -5.5916   17.3163  -31.9335 H   0  0  0  0  0  0  0  0  0  0  0  0
   -5.4582   20.3117  -31.3748 H   0  0  0  0  0  0  0  0  0  0  0  0
   -4.2776   19.0484  -30.8339 H   0  0  0  0  0  0  0  0  0  0  0  0
   -3.8872   20.5178  -33.0532 H   0  0  0  0  0  0  0  0  0  0  0  0
   -3.3792   18.7757  -32.9110 H   0  0  0  0  0  0  0  0  0  0  0  0
   -4.7690   19.7132  -35.0261 H   0  0  0  0  0  0  0  0  0  0  0  0
   -4.9574   18.0378  -34.3770 H   0  0  0  0  0  0  0  0  0  0  0  0
   -6.6976   20.4345  -33.6142 H   0  0  0  0  0  0  0  0  0  0  0  0
   -7.1413   19.1322  -34.7929 H   0  0  0  0  0  0  0  0  0  0  0  0
   -6.2330   20.8728  -31.6701 H   0  0  0  0  0  0  0  0  0  0  0  0
  1  2  2  0
  2  3  2  0
  2  4  1  0
  4  5  1  0
  5  6  2  0
  6  7  1  0
  7  8  1  0
  7  9  2  0
  9 10  1  0
 10 11  2  0
 11 12  1  0
  2 13  1  0
 13 14  2  0
 14 15  1  0
 15 16  2  0
 16 17  1  0
 17 18  1  0
 18 19  2  0
 18 20  2  0
 18 21  1  0
 21 22  1  0
 22 23  1  0
 23 24  1  0
 24 25  1  0
 25 26  1  0
 17 27  2  0
 11  5  1  0
 27 13  1  0
 26 21  1  0
  6 28  1  0
  9 29  1  0
 10 30  1  0
 12 31  1  0
 14 32  1  0
 15 33  1  0
 16 34  1  0
 22 35  1  0
 22 36  1  0
 23 37  1  0
 23 38  1  0
 24 39  1  0
 24 40  1  0
 25 41  1  0
 25 42  1  0
 26 43  1  0
 26 44  1  0
 27 45  1  0
M  CHG  1   4  -1
M  END
>  <UniqueID>  (21) 
21

>  <SMILES>  (21) 
O=S(=O)([N-]c1cc(F)ccc1O)c1cccc(S(=O)(=O)N2CCCCC2)c1

>  <Energy>  (21) 
56.60792737743269

>  <Genealogy>  (21) 
O=S(=O)([N-]c1cc(F)ccc1O)c1cccc(S(=O)(=O)N2CCCCC2)c1 (protonated)
O=S(=O)([N-]c1cc(F)ccc1O)c1cccc(S(=O)(=O)N2CCCCC2)c1 (3D coordinates assigned)
O=S(=O)([N-]c1cc(F)ccc1O)c1cccc(S(=O)(=O)N2CCCCC2)c1 (nonaromatic ring conformer: 56.60792737743269 kcal/mol)

>  <smiles>  (21) 
O=S(=O)(Nc1cc(F)ccc1O)c1cccc(S(=O)(=O)N2CCCCC2)c1

>  <score_type>  (21) 
oracle

>  <origin>  (21) 
adgpu

>  <m_score__min__energy>  (21) 
-11.25

>  <m_primary>  (21) 
energy

$$$$
21:0
     RDKit          3D

 35 36  0  0  0  0  0  0  0  0999 V2000
   -7.2260   24.7410  -30.4590 C   0  0  0  0  0  0  0  0  0  0  0  0
   -6.6560   23.4230  -30.9100 C   0  0  0  0  0  0  0  0  0  0  0  0
   -5.3200   23.0580  -30.7270 C   0  0  0  0  0  0  0  0  0  0  0  0
   -4.0550   23.9870  -29.9300 S   0  0  0  0  0  0  0  0  0  0  0  0
   -4.4910   24.2810  -28.2820 N   0  0  0  0  0  0  0  0  0  0  0  0
   -3.8480   25.2940  -30.6430 O   0  0  0  0  0  0  0  0  0  0  0  0
   -2.7700   23.2090  -29.9680 O   0  0  0  0  0  0  0  0  0  0  0  0
   -5.0800   21.5330  -31.3730 S   0  0  0  0  0  0  0  0  0  0  0  0
   -6.6500   21.3030  -31.9210 C   0  0  0  0  0  0  0  0  0  0  0  0
   -7.1630   19.8040  -32.7100 S   0  0  0  0  0  0  0  0  0  0  0  0
   -8.5390   19.4030  -32.2640 O   0  0  0  0  0  0  0  0  0  0  0  0
   -7.2290   20.0610  -34.1900 O   0  0  0  0  0  0  0  0  0  0  0  0
   -6.0440   18.4860  -32.4230 N   0  0  0  0  0  0  0  0  0  0  0  0
   -6.7280   17.1900  -32.4740 C   0  0  0  0  0  0  0  0  0  0  0  0
   -6.4860   16.5700  -33.8420 C   0  0  0  0  0  0  0  0  0  0  0  0
   -5.3840   17.3910  -34.4800 C   0  0  0  0  0  0  0  0  0  0  0  0
   -4.9950   18.4360  -33.4450 C   0  0  0  0  0  0  0  0  0  0  0  0
   -7.4030   22.4510  -31.6210 C   0  0  0  0  0  0  0  0  0  0  0  0
   -8.8600   22.6410  -31.9500 C   0  0  0  0  0  0  0  0  0  0  0  0
   -7.2415   24.7768  -29.3597 H   0  0  0  0  0  0  0  0  0  0  0  0
   -6.6022   25.5612  -30.8438 H   0  0  0  0  0  0  0  0  0  0  0  0
   -8.2509   24.8482  -30.8438 H   0  0  0  0  0  0  0  0  0  0  0  0
   -5.5230   24.1290  -28.2080 H   0  0  0  0  0  0  0  0  0  0  0  0
   -4.3240   25.2930  -28.0910 H   0  0  0  0  0  0  0  0  0  0  0  0
   -6.3287   16.5286  -31.6910 H   0  0  0  0  0  0  0  0  0  0  0  0
   -7.8067   17.3263  -32.3075 H   0  0  0  0  0  0  0  0  0  0  0  0
   -6.1702   15.5216  -33.7366 H   0  0  0  0  0  0  0  0  0  0  0  0
   -7.3994   16.5739  -34.4549 H   0  0  0  0  0  0  0  0  0  0  0  0
   -4.5218   16.7524  -34.7226 H   0  0  0  0  0  0  0  0  0  0  0  0
   -5.7170   17.8557  -35.4198 H   0  0  0  0  0  0  0  0  0  0  0  0
   -4.0366   18.1606  -32.9807 H   0  0  0  0  0  0  0  0  0  0  0  0
   -4.8858   19.4204  -33.9237 H   0  0  0  0  0  0  0  0  0  0  0  0
   -9.4395   22.7166  -31.0181 H   0  0  0  0  0  0  0  0  0  0  0  0
   -8.9863   23.5632  -32.5361 H   0  0  0  0  0  0  0  0  0  0  0  0
   -9.2186   21.7820  -32.5361 H   0  0  0  0  0  0  0  0  0  0  0  0
  1  2  1  0
  2  3  2  0
  3  4  1  0
  4  5  1  0
  4  6  2  0
  4  7  2  0
  3  8  1  0
  8  9  1  0
  9 10  1  0
 10 11  2  0
 10 12  2  0
 10 13  1  0
 13 14  1  0
 14 15  1  0
 15 16  1  0
 16 17  1  0
  9 18  2  0
 18 19  1  0
 18  2  1  0
 17 13  1  0
  1 20  1  0
  1 21  1  0
  1 22  1  0
  5 23  1  0
  5 24  1  0
 14 25  1  0
 14 26  1  0
 15 27  1  0
 15 28  1  0
 16 29  1  0
 16 30  1  0
 17 31  1  0
 17 32  1  0
 19 33  1  0
 19 34  1  0
 19 35  1  0
M  END
>  <UniqueID>  (22) 
22

>  <SMILES>  (22) 
Cc1c(S(N)(=O)=O)sc(S(=O)(=O)N2CCCC2)c1C

>  <Energy>  (22) 
59.97087924683664

>  <Genealogy>  (22) 
Cc1c(S(N)(=O)=O)sc(S(=O)(=O)N2CCCC2)c1C (3D coordinates assigned)
Cc1c(S(N)(=O)=O)sc(S(=O)(=O)N2CCCC2)c1C (nonaromatic ring conformer: 59.97087924683664 kcal/mol)

>  <smiles>  (22) 
Cc1c(S(N)(=O)=O)sc(S(=O)(=O)N2CCCC2)c1C

>  <score_type>  (22) 
oracle

>  <origin>  (22) 
adgpu

>  <m_score__min__energy>  (22) 
-8.7100000000000009

>  <m_primary>  (22) 
energy

$$$$
22:0
     RDKit          3D

 49 51  0  0  0  0  0  0  0  0999 V2000
   -1.8510   18.9720  -34.2220 C   0  0  0  0  0  0  0  0  0  0  0  0
   -3.0630   19.5920  -33.5870 C   0  0  0  0  0  0  0  0  0  0  0  0
   -4.1630   18.7990  -33.2390 C   0  0  0  0  0  0  0  0  0  0  0  0
   -5.3230   19.3610  -32.6780 C   0  0  0  0  0  0  0  0  0  0  0  0
   -6.6380   18.2170  -32.3330 S   0  0  0  0  0  0  0  0  0  0  0  0
   -7.0680   18.1880  -30.8980 O   0  0  0  0  0  0  0  0  0  0  0  0
   -7.8250   18.6100  -33.1690 O   0  0  0  0  0  0  0  0  0  0  0  0
   -6.1010   16.5980  -32.7730 C   0  0  0  0  0  0  0  0  0  0  0  0
   -5.0760   15.9870  -32.0390 C   0  0  0  0  0  0  0  0  0  0  0  0
   -4.6340   14.7060  -32.3810 C   0  0  0  0  0  0  0  0  0  0  0  0
   -5.2080   14.0320  -33.4650 C   0  0  0  0  0  0  0  0  0  0  0  0
   -6.2210   14.6400  -34.2110 C   0  0  0  0  0  0  0  0  0  0  0  0
   -6.6680   15.9220  -33.8660 C   0  0  0  0  0  0  0  0  0  0  0  0
   -5.3780   20.7670  -32.4710 C   0  0  0  0  0  0  0  0  0  0  0  0
   -6.7780   21.6100  -31.7760 S   0  0  0  0  0  0  0  0  0  0  0  0
   -7.9160   20.6380  -31.6370 O   0  0  0  0  0  0  0  0  0  0  0  0
   -7.2230   22.7290  -32.6790 O   0  0  0  0  0  0  0  0  0  0  0  0
   -6.3970   22.2850  -30.2250 N   0  0  0  0  0  0  0  0  0  0  0  0
   -5.1320   22.8560  -29.8470 C   0  0  0  0  0  0  0  0  0  0  0  0
   -4.1650   22.1040  -29.1610 C   0  0  0  0  0  0  0  0  0  0  0  0
   -2.9700   22.6980  -28.7490 C   0  0  0  0  0  0  0  0  0  0  0  0
   -2.7180   24.0440  -29.0320 C   0  0  0  0  0  0  0  0  0  0  0  0
   -1.2450   24.8150  -28.4520 S   0  0  0  0  0  0  0  0  0  0  0  0
   -1.2230   26.4630  -28.9730 N   0  0  0  0  0  0  0  0  0  0  0  0
   -0.0440   24.1010  -29.0060 O   0  0  0  0  0  0  0  0  0  0  0  0
   -1.1870   24.7630  -26.9510 O   0  0  0  0  0  0  0  0  0  0  0  0
   -3.6660   24.7950  -29.7350 C   0  0  0  0  0  0  0  0  0  0  0  0
   -4.8740   24.2090  -30.1480 C   0  0  0  0  0  0  0  0  0  0  0  0
   -5.8930   25.0380  -30.8810 C   0  0  0  0  0  0  0  0  0  0  0  0
   -4.2740   21.5520  -32.8480 C   0  0  0  0  0  0  0  0  0  0  0  0
   -3.1320   20.9760  -33.4020 C   0  0  0  0  0  0  0  0  0  0  0  0
   -2.0970   21.7740  -33.7710 F   0  0  0  0  0  0  0  0  0  0  0  0
   -1.1649   18.6210  -33.4371 H   0  0  0  0  0  0  0  0  0  0  0  0
   -2.1593   18.1209  -34.8469 H   0  0  0  0  0  0  0  0  0  0  0  0
   -1.3413   19.7201  -34.8469 H   0  0  0  0  0  0  0  0  0  0  0  0
   -4.1187   17.7130  -33.4082 H   0  0  0  0  0  0  0  0  0  0  0  0
   -4.6177   16.5170  -31.1910 H   0  0  0  0  0  0  0  0  0  0  0  0
   -3.8340   14.2269  -31.7975 H   0  0  0  0  0  0  0  0  0  0  0  0
   -4.8612   13.0223  -33.7300 H   0  0  0  0  0  0  0  0  0  0  0  0
   -6.6666   14.1130  -35.0675 H   0  0  0  0  0  0  0  0  0  0  0  0
   -7.4656   16.4009  -34.4529 H   0  0  0  0  0  0  0  0  0  0  0  0
   -4.3496   21.0410  -28.9468 H   0  0  0  0  0  0  0  0  0  0  0  0
   -2.2241   22.1047  -28.1997 H   0  0  0  0  0  0  0  0  0  0  0  0
   -0.8940   26.4640  -29.9650 H   0  0  0  0  0  0  0  0  0  0  0  0
   -3.4642   25.8514  -29.9659 H   0  0  0  0  0  0  0  0  0  0  0  0
   -6.5334   25.5590  -30.1540 H   0  0  0  0  0  0  0  0  0  0  0  0
   -5.3786   25.7773  -31.5125 H   0  0  0  0  0  0  0  0  0  0  0  0
   -6.5122   24.3839  -31.5125 H   0  0  0  0  0  0  0  0  0  0  0  0
   -4.3123   22.6417  -32.7029 H   0  0  0  0  0  0  0  0  0  0  0  0
  1  2  1  0
  2  3  2  0
  3  4  1  0
  4  5  1  0
  5  6  2  0
  5  7  2  0
  5  8  1  0
  8  9  2  0
  9 10  1  0
 10 11  2  0
 11 12  1  0
 12 13  2  0
  4 14  2  0
 14 15  1  0
 15 16  2  0
 15 17  2  0
 15 18  1  0
 18 19  1  0
 19 20  2  0
 20 21  1  0
 21 22  2  0
 22 23  1  0
 23 24  1  0
 23 25  2  0
 23 26  2  0
 22 27  1  0
 27 28  2  0
 28 29  1  0
 14 30  1  0
 30 31  2  0
 31 32  1  0
 31  2  1  0
 13  8  1  0
 28 19  1  0
  1 33  1  0
  1 34  1  0
  1 35  1  0
  3 36  1  0
  9 37  1  0
 10 38  1  0
 11 39  1  0
 12 40  1  0
 13 41  1  0
 20 42  1  0
 21 43  1  0
 24 44  1  0
 27 45  1  0
 29 46  1  0
 29 47  1  0
 29 48  1  0
 30 49  1  0
M  CHG  2  18  -1  24  -1
M  END
>  <UniqueID>  (23) 
23

>  <SMILES>  (23) 
Cc1cc(S(=O)(=O)c2ccccc2)c(S(=O)(=O)[N-]c2ccc(S([NH-])(=O)=O)cc2C)cc1F

>  <Energy>  (23) 
59.78452101067527

>  <Genealogy>  (23) 
Cc1cc(S(=O)(=O)c2ccccc2)c(S(=O)(=O)[N-]c2ccc(S([NH-])(=O)=O)cc2C)cc1F (protonated)
Cc1cc(S(=O)(=O)c2ccccc2)c(S(=O)(=O)[N-]c2ccc(S([NH-])(=O)=O)cc2C)cc1F (3D coordinates assigned)
Cc1cc(S(=O)(=O)c2ccccc2)c(S(=O)(=O)[N-]c2ccc(S([NH-])(=O)=O)cc2C)cc1F (optimized conformer: 59.78452101067527 kcal/mol)

>  <smiles>  (23) 
Cc1cc(S(=O)(=O)c2ccccc2)c(S(=O)(=O)Nc2ccc(S(N)(=O)=O)cc2C)cc1F

>  <score_type>  (23) 
oracle

>  <origin>  (23) 
adgpu

>  <m_score__min__energy>  (23) 
-11.94

>  <m_primary>  (23) 
energy

$$$$
23:0
     RDKit          3D

 58 61  0  0  0  0  0  0  0  0999 V2000
   -3.8850   25.2800  -30.6740 O   0  0  0  0  0  0  0  0  0  0  0  0
   -3.6760   24.0680  -30.3880 C   0  0  0  0  0  0  0  0  0  0  0  0
   -2.6530   23.7290  -29.4370 N   0  0  0  0  0  0  0  0  0  0  0  0
   -2.1570   24.6430  -28.4440 C   0  0  0  0  0  0  0  0  0  0  0  0
   -0.9640   25.3430  -28.6820 C   0  0  0  0  0  0  0  0  0  0  0  0
   -0.4580   26.2260  -27.7240 C   0  0  0  0  0  0  0  0  0  0  0  0
   -1.1270   26.4070  -26.5080 C   0  0  0  0  0  0  0  0  0  0  0  0
   -0.4920   27.5430  -25.3190 S   0  0  0  0  0  0  0  0  0  0  0  0
    0.6260   28.3410  -25.9310 O   0  0  0  0  0  0  0  0  0  0  0  0
   -1.5950   28.4890  -24.9350 O   0  0  0  0  0  0  0  0  0  0  0  0
    0.0560   26.6710  -23.9020 N   0  0  0  0  0  0  0  0  0  0  0  0
   -0.4840   25.2990  -23.8360 C   0  0  0  0  0  0  0  0  0  0  0  0
    0.3170   24.3140  -24.6990 C   0  0  0  0  0  0  0  0  0  0  0  0
    1.6870   24.3450  -24.3570 O   0  0  0  0  0  0  0  0  0  0  0  0
    2.2120   25.6290  -24.6270 C   0  0  0  0  0  0  0  0  0  0  0  0
    1.5240   26.6970  -23.7620 C   0  0  0  0  0  0  0  0  0  0  0  0
   -2.3090   25.6980  -26.2560 C   0  0  0  0  0  0  0  0  0  0  0  0
   -2.8180   24.8160  -27.2150 C   0  0  0  0  0  0  0  0  0  0  0  0
   -4.4520   23.0110  -31.0770 C   0  0  0  0  0  0  0  0  0  0  0  0
   -5.8590   23.0470  -31.0710 C   0  0  0  0  0  0  0  0  0  0  0  0
   -6.5970   22.0500  -31.7140 C   0  0  0  0  0  0  0  0  0  0  0  0
   -5.9440   20.9930  -32.3600 C   0  0  0  0  0  0  0  0  0  0  0  0
   -6.8790   19.7190  -33.1510 S   0  0  0  0  0  0  0  0  0  0  0  0
   -8.3440   20.0500  -33.0570 O   0  0  0  0  0  0  0  0  0  0  0  0
   -6.5070   19.6650  -34.6070 O   0  0  0  0  0  0  0  0  0  0  0  0
   -6.5880   18.1560  -32.4230 N   0  0  0  0  0  0  0  0  0  0  0  0
   -5.1720   17.7710  -32.5710 C   0  0  0  0  0  0  0  0  0  0  0  0
   -5.0070   16.2480  -32.4340 C   0  0  0  0  0  0  0  0  0  0  0  0
   -5.7240   15.5010  -33.4100 O   0  0  0  0  0  0  0  0  0  0  0  0
   -6.8510   16.1850  -33.9440 C   0  0  0  0  0  0  0  0  0  0  0  0
   -7.5260   17.1320  -32.9340 C   0  0  0  0  0  0  0  0  0  0  0  0
   -4.5440   20.9510  -32.3680 C   0  0  0  0  0  0  0  0  0  0  0  0
   -3.8030   21.9470  -31.7300 C   0  0  0  0  0  0  0  0  0  0  0  0
   -2.1590   22.8160  -29.5510 H   0  0  0  0  0  0  0  0  0  0  0  0
   -0.4237   25.1957  -29.6288 H   0  0  0  0  0  0  0  0  0  0  0  0
    0.4699   26.7810  -27.9266 H   0  0  0  0  0  0  0  0  0  0  0  0
   -0.4550   24.9576  -22.7907 H   0  0  0  0  0  0  0  0  0  0  0  0
   -1.5135   25.3242  -24.2228 H   0  0  0  0  0  0  0  0  0  0  0  0
   -0.0713   23.2972  -24.5399 H   0  0  0  0  0  0  0  0  0  0  0  0
    0.2110   24.6041  -25.7547 H   0  0  0  0  0  0  0  0  0  0  0  0
    3.2904   25.6299  -24.4100 H   0  0  0  0  0  0  0  0  0  0  0  0
    2.0325   25.8660  -25.6861 H   0  0  0  0  0  0  0  0  0  0  0  0
    1.7819   26.5182  -22.7077 H   0  0  0  0  0  0  0  0  0  0  0  0
    1.8767   27.6824  -24.1006 H   0  0  0  0  0  0  0  0  0  0  0  0
   -2.8381   25.8354  -25.3014 H   0  0  0  0  0  0  0  0  0  0  0  0
   -3.7406   24.2545  -27.0065 H   0  0  0  0  0  0  0  0  0  0  0  0
   -6.3817   23.8665  -30.5560 H   0  0  0  0  0  0  0  0  0  0  0  0
   -7.6961   22.0956  -31.7128 H   0  0  0  0  0  0  0  0  0  0  0  0
   -4.8137   18.0856  -33.5623 H   0  0  0  0  0  0  0  0  0  0  0  0
   -4.5866   18.2633  -31.7805 H   0  0  0  0  0  0  0  0  0  0  0  0
   -3.9382   16.0054  -32.5283 H   0  0  0  0  0  0  0  0  0  0  0  0
   -5.4180   15.9690  -31.4525 H   0  0  0  0  0  0  0  0  0  0  0  0
   -6.5214   16.7769  -34.8106 H   0  0  0  0  0  0  0  0  0  0  0  0
   -7.5935   15.4218  -34.2203 H   0  0  0  0  0  0  0  0  0  0  0  0
   -8.3684   17.6373  -33.4290 H   0  0  0  0  0  0  0  0  0  0  0  0
   -7.8699   16.5296  -32.0803 H   0  0  0  0  0  0  0  0  0  0  0  0
   -4.0250   20.1276  -32.8805 H   0  0  0  0  0  0  0  0  0  0  0  0
   -2.7040   21.8998  -31.7378 H   0  0  0  0  0  0  0  0  0  0  0  0
  1  2  2  0
  2  3  1  0
  3  4  1  0
  4  5  2  0
  5  6  1  0
  6  7  2  0
  7  8  1  0
  8  9  2  0
  8 10  2  0
  8 11  1  0
 11 12  1  0
 12 13  1  0
 13 14  1  0
 14 15  1  0
 15 16  1  0
  7 17  1  0
 17 18  2  0
  2 19  1  0
 19 20  2  0
 20 21  1  0
 21 22  2  0
 22 23  1  0
 23 24  2  0
 23 25  2  0
 23 26  1  0
 26 27  1  0
 27 28  1  0
 28 29  1  0
 29 30  1  0
 30 31  1  0
 22 32  1  0
 32 33  2  0
 18  4  1  0
 33 19  1  0
 16 11  1  0
 31 26  1  0
  3 34  1  0
  5 35  1  0
  6 36  1  0
 12 37  1  0
 12 38  1  0
 13 39  1  0
 13 40  1  0
 15 41  1  0
 15 42  1  0
 16 43  1  0
 16 44  1  0
 17 45  1  0
 18 46  1  0
 20 47  1  0
 21 48  1  0
 27 49  1  0
 27 50  1  0
 28 51  1  0
 28 52  1  0
 30 53  1  0
 30 54  1  0
 31 55  1  0
 31 56  1  0
 32 57  1  0
 33 58  1  0
M  END
>  <UniqueID>  (24) 
24

>  <SMILES>  (24) 
O=C(Nc1ccc(S(=O)(=O)N2CCOCC2)cc1)c1ccc(S(=O)(=O)N2CCOCC2)cc1

>  <Energy>  (24) 
82.27856905239504

>  <Genealogy>  (24) 
O=C(Nc1ccc(S(=O)(=O)N2CCOCC2)cc1)c1ccc(S(=O)(=O)N2CCOCC2)cc1 (3D coordinates assigned)
O=C(Nc1ccc(S(=O)(=O)N2CCOCC2)cc1)c1ccc(S(=O)(=O)N2CCOCC2)cc1 (nonaromatic ring conformer: 82.27856905239504 kcal/mol)

>  <smiles>  (24) 
O=C(Nc1ccc(S(=O)(=O)N2CCOCC2)cc1)c1ccc(S(=O)(=O)N2CCOCC2)cc1

>  <score_type>  (24) 
oracle

>  <origin>  (24) 
adgpu

>  <m_score__min__energy>  (24) 
-9.6699999999999999

>  <m_primary>  (24) 
energy

$$$$
24:0
     RDKit          3D

 76 80  0  0  0  0  0  0  0  0999 V2000
    0.9610   30.0830  -35.4040 C   0  0  0  0  0  0  0  0  0  0  0  0
   -0.4170   29.8630  -35.8810 N   0  0  0  0  0  0  0  0  0  0  0  0
   -1.0260   28.6620  -35.2760 C   0  0  0  0  0  0  0  0  0  0  0  0
   -0.3290   27.3660  -35.7310 C   0  0  0  0  0  0  0  0  0  0  0  0
    0.1320   27.4800  -37.1200 N   0  0  0  0  0  0  0  0  0  0  0  0
    1.2790   26.7350  -37.6030 C   0  0  0  0  0  0  0  0  0  0  0  0
    1.9290   27.1690  -38.5900 O   0  0  0  0  0  0  0  0  0  0  0  0
    1.7650   25.5070  -36.9360 C   0  0  0  0  0  0  0  0  0  0  0  0
    3.1460   25.2380  -36.9110 C   0  0  0  0  0  0  0  0  0  0  0  0
    3.6250   24.0670  -36.3190 C   0  0  0  0  0  0  0  0  0  0  0  0
    2.7400   23.1580  -35.7380 C   0  0  0  0  0  0  0  0  0  0  0  0
    1.3640   23.4270  -35.7190 C   0  0  0  0  0  0  0  0  0  0  0  0
    0.5100   22.5020  -35.1050 O   0  0  0  0  0  0  0  0  0  0  0  0
    0.5740   21.1020  -35.2290 C   0  0  0  0  0  0  0  0  0  0  0  0
    0.4900   20.4680  -36.4880 C   0  0  0  0  0  0  0  0  0  0  0  0
    0.6270   19.0830  -36.5940 C   0  0  0  0  0  0  0  0  0  0  0  0
    0.8450   18.3140  -35.4520 C   0  0  0  0  0  0  0  0  0  0  0  0
    0.8740   18.9190  -34.1930 C   0  0  0  0  0  0  0  0  0  0  0  0
    0.6980   20.3010  -34.0640 C   0  0  0  0  0  0  0  0  0  0  0  0
    0.6120   20.8420  -32.7340 N   0  0  0  0  0  0  0  0  0  0  0  0
    0.6130   20.1070  -31.4990 C   0  0  0  0  0  0  0  0  0  0  0  0
    1.3140   19.0700  -31.3660 O   0  0  0  0  0  0  0  0  0  0  0  0
   -0.1070   20.5960  -30.3640 N   0  0  0  0  0  0  0  0  0  0  0  0
   -1.3510   21.3050  -30.4030 C   0  0  0  0  0  0  0  0  0  0  0  0
   -1.8720   21.6820  -31.6470 C   0  0  0  0  0  0  0  0  0  0  0  0
   -3.1010   22.3410  -31.7300 C   0  0  0  0  0  0  0  0  0  0  0  0
   -3.8110   22.6630  -30.5670 C   0  0  0  0  0  0  0  0  0  0  0  0
   -5.3560   23.5200  -30.6790 S   0  0  0  0  0  0  0  0  0  0  0  0
   -5.7610   23.9740  -29.3030 O   0  0  0  0  0  0  0  0  0  0  0  0
   -5.1940   24.7410  -31.5400 O   0  0  0  0  0  0  0  0  0  0  0  0
   -6.6070   22.5030  -31.3560 N   0  0  0  0  0  0  0  0  0  0  0  0
   -7.7210   22.3520  -30.4090 C   0  0  0  0  0  0  0  0  0  0  0  0
   -8.8830   21.5870  -31.0790 C   0  0  0  0  0  0  0  0  0  0  0  0
   -8.4420   20.8700  -32.2940 N   0  0  0  0  0  0  0  0  0  0  0  0
   -9.4760   19.9180  -32.7270 C   0  0  0  0  0  0  0  0  0  0  0  0
   -7.1660   20.1720  -32.0500 C   0  0  0  0  0  0  0  0  0  0  0  0
   -6.0520   21.1850  -31.7170 C   0  0  0  0  0  0  0  0  0  0  0  0
   -3.2760   22.3180  -29.3140 C   0  0  0  0  0  0  0  0  0  0  0  0
   -2.0490   21.6460  -29.2310 C   0  0  0  0  0  0  0  0  0  0  0  0
    0.8740   24.5800  -36.3630 C   0  0  0  0  0  0  0  0  0  0  0  0
   -0.5380   28.4560  -37.9860 C   0  0  0  0  0  0  0  0  0  0  0  0
   -0.4990   29.8640  -37.3640 C   0  0  0  0  0  0  0  0  0  0  0  0
    0.9724   30.0848  -34.3041 H   0  0  0  0  0  0  0  0  0  0  0  0
    1.6108   29.2772  -35.7761 H   0  0  0  0  0  0  0  0  0  0  0  0
    1.3276   31.0511  -35.7761 H   0  0  0  0  0  0  0  0  0  0  0  0
   -0.9507   28.7395  -34.1813 H   0  0  0  0  0  0  0  0  0  0  0  0
   -2.0755   28.6141  -35.6020 H   0  0  0  0  0  0  0  0  0  0  0  0
    0.5358   27.1740  -35.0789 H   0  0  0  0  0  0  0  0  0  0  0  0
   -1.0498   26.5376  -35.6664 H   0  0  0  0  0  0  0  0  0  0  0  0
    3.8514   25.9530  -37.3596 H   0  0  0  0  0  0  0  0  0  0  0  0
    4.7054   23.8604  -36.3108 H   0  0  0  0  0  0  0  0  0  0  0  0
    3.1230   22.2275  -35.2935 H   0  0  0  0  0  0  0  0  0  0  0  0
    0.3153   21.0701  -37.3919 H   0  0  0  0  0  0  0  0  0  0  0  0
    0.5629   18.5981  -37.5793 H   0  0  0  0  0  0  0  0  0  0  0  0
    0.9946   17.2280  -35.5423 H   0  0  0  0  0  0  0  0  0  0  0  0
    1.0365   18.3037  -33.2958 H   0  0  0  0  0  0  0  0  0  0  0  0
   -1.3095   21.4576  -32.5653 H   0  0  0  0  0  0  0  0  0  0  0  0
   -3.5131   22.6083  -32.7142 H   0  0  0  0  0  0  0  0  0  0  0  0
   -7.3763   21.7918  -29.5273 H   0  0  0  0  0  0  0  0  0  0  0  0
   -8.0730   23.3483  -30.1034 H   0  0  0  0  0  0  0  0  0  0  0  0
   -9.2883   20.8572  -30.3627 H   0  0  0  0  0  0  0  0  0  0  0  0
   -9.6486   22.3197  -31.3742 H   0  0  0  0  0  0  0  0  0  0  0  0
   -9.9584   19.4738  -31.8438 H   0  0  0  0  0  0  0  0  0  0  0  0
  -10.2298   20.4448  -33.3305 H   0  0  0  0  0  0  0  0  0  0  0  0
   -9.0131   19.1233  -33.3305 H   0  0  0  0  0  0  0  0  0  0  0  0
   -7.2886   19.4780  -31.2054 H   0  0  0  0  0  0  0  0  0  0  0  0
   -6.8839   19.6182  -32.9576 H   0  0  0  0  0  0  0  0  0  0  0  0
   -5.4624   20.8020  -30.8710 H   0  0  0  0  0  0  0  0  0  0  0  0
   -5.4221   21.3098  -32.6101 H   0  0  0  0  0  0  0  0  0  0  0  0
   -3.8224   22.5764  -28.3950 H   0  0  0  0  0  0  0  0  0  0  0  0
   -1.6313   21.3849  -28.2475 H   0  0  0  0  0  0  0  0  0  0  0  0
   -0.2103   24.7569  -36.4184 H   0  0  0  0  0  0  0  0  0  0  0  0
   -0.0303   28.4795  -38.9615 H   0  0  0  0  0  0  0  0  0  0  0  0
   -1.5892   28.1548  -38.1058 H   0  0  0  0  0  0  0  0  0  0  0  0
    0.3804   30.3934  -37.7594 H   0  0  0  0  0  0  0  0  0  0  0  0
   -1.4444   30.3585  -37.6319 H   0  0  0  0  0  0  0  0  0  0  0  0
  1  2  1  0
  2  3  1  0
  3  4  1  0
  4  5  1  0
  5  6  1  0
  6  7  2  0
  6  8  1  0
  8  9  2  0
  9 10  1  0
 10 11  2  0
 11 12  1  0
 12 13  1  0
 13 14  1  0
 14 15  2  0
 15 16  1  0
 16 17  2  0
 17 18  1  0
 18 19  2  0
 19 20  1  0
 20 21  1  0
 21 22  2  0
 21 23  1  0
 23 24  1  0
 24 25  2  0
 25 26  1  0
 26 27  2  0
 27 28  1  0
 28 29  2  0
 28 30  2  0
 28 31  1  0
 31 32  1  0
 32 33  1  0
 33 34  1  0
 34 35  1  0
 34 36  1  0
 36 37  1  0
 27 38  1  0
 38 39  2  0
 12 40  2  0
  5 41  1  0
 41 42  1  0
 42  2  1  0
 40  8  1  0
 19 14  1  0
 39 24  1  0
 37 31  1  0
  1 43  1  0
  1 44  1  0
  1 45  1  0
  3 46  1  0
  3 47  1  0
  4 48  1  0
  4 49  1  0
  9 50  1  0
 10 51  1  0
 11 52  1  0
 15 53  1  0
 16 54  1  0
 17 55  1  0
 18 56  1  0
 25 57  1  0
 26 58  1  0
 32 59  1  0
 32 60  1  0
 33 61  1  0
 33 62  1  0
 35 63  1  0
 35 64  1  0
 35 65  1  0
 36 66  1  0
 36 67  1  0
 37 68  1  0
 37 69  1  0
 38 70  1  0
 39 71  1  0
 40 72  1  0
 41 73  1  0
 41 74  1  0
 42 75  1  0
 42 76  1  0
M  CHG  2  20  -1  23  -1
M  END
>  <UniqueID>  (25) 
25

>  <SMILES>  (25) 
CN1CCN(C(=O)c2cccc(Oc3ccccc3[N-]C(=O)[N-]c3ccc(S(=O)(=O)N4CCN(C)CC4)cc3)c2)CC1

>  <Energy>  (25) 
116.66143502982682

>  <Genealogy>  (25) 
CN1CCN(C(=O)c2cccc(Oc3ccccc3[N-]C(=O)[N-]c3ccc(S(=O)(=O)N4CCN(C)CC4)cc3)c2)CC1 (protonated)
CN1CCN(C(=O)c2cccc(Oc3ccccc3[N-]C(=O)[N-]c3ccc(S(=O)(=O)N4CCN(C)CC4)cc3)c2)CC1 (3D coordinates assigned)
CN1CCN(C(=O)c2cccc(Oc3ccccc3[N-]C(=O)[N-]c3ccc(S(=O)(=O)N4CCN(C)CC4)cc3)c2)CC1 (nonaromatic ring conformer: 116.66143502982682 kcal/mol)

>  <smiles>  (25) 
CN1CCN(C(=O)c2cccc(Oc3ccccc3NC(=O)Nc3ccc(S(=O)(=O)N4CCN(C)CC4)cc3)c2)CC1

>  <score_type>  (25) 
oracle

>  <origin>  (25) 
adgpu

>  <m_score__min__energy>  (25) 
-13.76

>  <m_primary>  (25) 
energy

$$$$
25:0
     RDKit          3D

 61 65  0  0  0  0  0  0  0  0999 V2000
   -0.4590   16.1990  -34.8010 O   0  0  0  0  0  0  0  0  0  0  0  0
   -1.5190   16.6330  -34.2850 C   0  0  0  0  0  0  0  0  0  0  0  0
   -2.6960   15.8130  -34.3100 N   0  0  0  0  0  0  0  0  0  0  0  0
   -3.8750   16.0220  -35.1450 C   0  0  0  0  0  0  0  0  0  0  0  0
   -4.9010   16.8620  -34.4420 C   0  0  0  0  0  0  0  0  0  0  0  0
   -5.2790   18.1130  -34.9520 C   0  0  0  0  0  0  0  0  0  0  0  0
   -6.2070   18.8880  -34.2520 C   0  0  0  0  0  0  0  0  0  0  0  0
   -6.7690   18.4020  -33.0680 C   0  0  0  0  0  0  0  0  0  0  0  0
   -7.9550   19.3620  -32.1910 S   0  0  0  0  0  0  0  0  0  0  0  0
   -8.4420   18.6030  -30.9860 O   0  0  0  0  0  0  0  0  0  0  0  0
   -9.1370   19.6260  -33.0820 O   0  0  0  0  0  0  0  0  0  0  0  0
   -7.2350   20.8810  -31.6670 C   0  0  0  0  0  0  0  0  0  0  0  0
   -8.0260   22.0310  -31.4960 C   0  0  0  0  0  0  0  0  0  0  0  0
   -7.4470   23.2040  -31.0110 C   0  0  0  0  0  0  0  0  0  0  0  0
   -6.0760   23.2270  -30.7130 C   0  0  0  0  0  0  0  0  0  0  0  0
   -5.3230   24.6680  -30.0210 S   0  0  0  0  0  0  0  0  0  0  0  0
   -4.7800   25.5140  -31.1420 O   0  0  0  0  0  0  0  0  0  0  0  0
   -6.3890   25.4580  -29.3120 O   0  0  0  0  0  0  0  0  0  0  0  0
   -4.0570   24.3090  -28.8650 N   0  0  0  0  0  0  0  0  0  0  0  0
   -2.7180   24.5150  -29.4550 C   0  0  0  0  0  0  0  0  0  0  0  0
   -1.6240   23.8540  -28.5940 C   0  0  0  0  0  0  0  0  0  0  0  0
   -2.0850   23.6740  -27.2670 O   0  0  0  0  0  0  0  0  0  0  0  0
   -3.1230   22.7050  -27.2440 C   0  0  0  0  0  0  0  0  0  0  0  0
   -4.1990   22.9550  -28.3240 C   0  0  0  0  0  0  0  0  0  0  0  0
   -5.3270   22.1040  -30.8980 N   0  0  0  0  0  0  0  0  0  0  0  0
   -5.8670   20.9460  -31.3690 C   0  0  0  0  0  0  0  0  0  0  0  0
   -6.3820   17.1400  -32.6010 C   0  0  0  0  0  0  0  0  0  0  0  0
   -5.4680   16.4070  -33.2910 N   0  0  0  0  0  0  0  0  0  0  0  0
   -1.5130   17.9070  -33.6420 N   0  0  0  0  0  0  0  0  0  0  0  0
   -2.1420   19.1090  -34.1820 C   0  0  0  0  0  0  0  0  0  0  0  0
   -2.0660   20.0550  -33.0440 C   0  0  0  0  0  0  0  0  0  0  0  0
   -2.6440   21.3170  -32.9410 C   0  0  0  0  0  0  0  0  0  0  0  0
   -2.5410   22.0000  -31.7160 C   0  0  0  0  0  0  0  0  0  0  0  0
   -1.8750   21.4120  -30.6190 C   0  0  0  0  0  0  0  0  0  0  0  0
   -1.2900   20.1440  -30.7500 C   0  0  0  0  0  0  0  0  0  0  0  0
   -1.3960   19.4880  -31.9790 C   0  0  0  0  0  0  0  0  0  0  0  0
   -0.9330   18.1210  -32.3170 C   0  0  0  0  0  0  0  0  0  0  0  0
   -3.5714   16.5294  -36.0726 H   0  0  0  0  0  0  0  0  0  0  0  0
   -4.3219   15.0413  -35.3653 H   0  0  0  0  0  0  0  0  0  0  0  0
   -4.8484   18.4806  -35.8951 H   0  0  0  0  0  0  0  0  0  0  0  0
   -6.4950   19.8793  -34.6320 H   0  0  0  0  0  0  0  0  0  0  0  0
   -9.0974   22.0058  -31.7438 H   0  0  0  0  0  0  0  0  0  0  0  0
   -8.0610   24.1046  -30.8632 H   0  0  0  0  0  0  0  0  0  0  0  0
   -2.6977   24.0738  -30.4624 H   0  0  0  0  0  0  0  0  0  0  0  0
   -2.5197   25.5960  -29.5020 H   0  0  0  0  0  0  0  0  0  0  0  0
   -1.3655   22.8752  -29.0243 H   0  0  0  0  0  0  0  0  0  0  0  0
   -0.7376   24.5052  -28.5797 H   0  0  0  0  0  0  0  0  0  0  0  0
   -2.6806   21.7120  -27.4118 H   0  0  0  0  0  0  0  0  0  0  0  0
   -3.6164   22.7713  -26.2631 H   0  0  0  0  0  0  0  0  0  0  0  0
   -4.0776   22.2231  -29.1361 H   0  0  0  0  0  0  0  0  0  0  0  0
   -5.1966   22.8479  -27.8731 H   0  0  0  0  0  0  0  0  0  0  0  0
   -5.2296   20.0616  -31.5156 H   0  0  0  0  0  0  0  0  0  0  0  0
   -6.8185   16.7406  -31.6737 H   0  0  0  0  0  0  0  0  0  0  0  0
   -1.5877   19.4900  -35.0524 H   0  0  0  0  0  0  0  0  0  0  0  0
   -3.1676   18.9409  -34.5425 H   0  0  0  0  0  0  0  0  0  0  0  0
   -3.1681   21.7687  -33.7962 H   0  0  0  0  0  0  0  0  0  0  0  0
   -2.9835   23.0017  -31.6117 H   0  0  0  0  0  0  0  0  0  0  0  0
   -1.8148   21.9487  -29.6607 H   0  0  0  0  0  0  0  0  0  0  0  0
   -0.7608   19.6775  -29.9060 H   0  0  0  0  0  0  0  0  0  0  0  0
    0.1653   18.0708  -32.3514 H   0  0  0  0  0  0  0  0  0  0  0  0
   -1.2338   17.3621  -31.5797 H   0  0  0  0  0  0  0  0  0  0  0  0
  1  2  2  0
  2  3  1  0
  3  4  1  0
  4  5  1  0
  5  6  2  0
  6  7  1  0
  7  8  2  0
  8  9  1  0
  9 10  2  0
  9 11  2  0
  9 12  1  0
 12 13  2  0
 13 14  1  0
 14 15  2  0
 15 16  1  0
 16 17  2  0
 16 18  2  0
 16 19  1  0
 19 20  1  0
 20 21  1  0
 21 22  1  0
 22 23  1  0
 23 24  1  0
 15 25  1  0
 25 26  2  0
  8 27  1  0
 27 28  2  0
  2 29  1  0
 29 30  1  0
 30 31  1  0
 31 32  2  0
 32 33  1  0
 33 34  2  0
 34 35  1  0
 35 36  2  0
 36 37  1  0
 28  5  1  0
 37 29  1  0
 26 12  1  0
 36 31  1  0
 24 19  1  0
  4 38  1  0
  4 39  1  0
  6 40  1  0
  7 41  1  0
 13 42  1  0
 14 43  1  0
 20 44  1  0
 20 45  1  0
 21 46  1  0
 21 47  1  0
 23 48  1  0
 23 49  1  0
 24 50  1  0
 24 51  1  0
 26 52  1  0
 27 53  1  0
 30 54  1  0
 30 55  1  0
 32 56  1  0
 33 57  1  0
 34 58  1  0
 35 59  1  0
 37 60  1  0
 37 61  1  0
M  CHG  1   3  -1
M  END
>  <UniqueID>  (26) 
26

>  <SMILES>  (26) 
O=C([N-]Cc1ccc(S(=O)(=O)c2ccc(S(=O)(=O)N3CCOCC3)nc2)cn1)N1Cc2ccccc2C1

>  <Energy>  (26) 
85.45767970022787

>  <Genealogy>  (26) 
O=C([N-]Cc1ccc(S(=O)(=O)c2ccc(S(=O)(=O)N3CCOCC3)nc2)cn1)N1Cc2ccccc2C1 (protonated)
O=C([N-]Cc1ccc(S(=O)(=O)c2ccc(S(=O)(=O)N3CCOCC3)nc2)cn1)N1Cc2ccccc2C1 (3D coordinates assigned)
O=C([N-]Cc1ccc(S(=O)(=O)c2ccc(S(=O)(=O)N3CCOCC3)nc2)cn1)N1Cc2ccccc2C1 (nonaromatic ring conformer: 85.45767970022787 kcal/mol)

>  <smiles>  (26) 
O=C(NCc1ccc(S(=O)(=O)c2ccc(S(=O)(=O)N3CCOCC3)nc2)cn1)N1Cc2ccccc2C1

>  <score_type>  (26) 
oracle

>  <origin>  (26) 
adgpu

>  <m_score__min__energy>  (26) 
-11.75

>  <m_primary>  (26) 
energy

$$$$
26:0
     RDKit          3D

 67 70  0  0  1  0  0  0  0  0999 V2000
   -4.8940   25.2520  -30.3950 C   0  0  0  0  0  0  0  0  0  0  0  0
   -3.5080   25.0640  -30.2570 O   0  0  0  0  0  0  0  0  0  0  0  0
   -2.9120   24.5890  -29.0970 C   0  0  0  0  0  0  0  0  0  0  0  0
   -1.9820   25.3530  -28.4250 C   0  0  0  0  0  0  0  0  0  0  0  0
   -1.3600   24.9080  -27.2550 C   0  0  0  0  0  0  0  0  0  0  0  0
   -0.4100   25.7240  -26.5950 N   0  0  0  0  0  0  0  0  0  0  0  0
    0.9280   25.2970  -26.2430 C   0  0  0  0  0  0  0  0  0  0  0  0
    1.8500   26.3710  -26.8260 C   0  0  0  0  0  0  0  0  0  0  0  0
    1.6160   27.6310  -26.2270 N   0  0  0  0  0  0  0  0  0  0  0  0
    2.6870   28.1590  -25.4550 C   0  0  0  0  0  0  0  0  0  0  0  0
    0.3160   27.9410  -25.7790 C   0  0  0  0  0  0  0  0  0  0  0  0
   -0.7850   27.0750  -26.2430 C   0  0  0  0  0  0  0  0  0  0  0  0
   -1.7380   23.6580  -26.8180 C   0  0  0  0  0  0  0  0  0  0  0  0
   -2.6770   22.8810  -27.4900 C   0  0  0  0  0  0  0  0  0  0  0  0
   -3.2760   23.3400  -28.6430 C   0  0  0  0  0  0  0  0  0  0  0  0
   -4.2380   22.5820  -29.3630 N   0  0  0  0  0  0  0  0  0  0  0  0
   -3.8830   21.9980  -30.4590 C   0  0  0  0  0  0  0  0  0  0  0  0
   -2.6000   22.1600  -30.8370 N   0  0  0  0  0  0  0  0  0  0  0  0
   -2.1080   21.5930  -31.9760 C   0  0  0  0  0  0  0  0  0  0  0  0
   -2.9420   20.8360  -32.7570 C   0  0  0  0  0  0  0  0  0  0  0  0
   -2.3420   20.1010  -34.2130 Cl  0  0  0  0  0  0  0  0  0  0  0  0
   -4.2490   20.6940  -32.3350 C   0  0  0  0  0  0  0  0  0  0  0  0
   -5.0350   19.9850  -33.0630 N   0  0  0  0  0  0  0  0  0  0  0  0
   -6.4100   19.7590  -32.7400 C   0  0  0  0  0  0  0  0  0  0  0  0
   -7.3430   20.7930  -32.7630 C   0  0  0  0  0  0  0  0  0  0  0  0
   -8.6740   20.5900  -32.4530 C   0  0  0  0  0  0  0  0  0  0  0  0
   -9.0770   19.3160  -32.1120 C   0  0  0  0  0  0  0  0  0  0  0  0
   -8.1530   18.2770  -32.0860 C   0  0  0  0  0  0  0  0  0  0  0  0
   -6.8220   18.4820  -32.3960 C   0  0  0  0  0  0  0  0  0  0  0  0
   -5.6680   17.1420  -32.3560 S   0  0  0  0  0  0  0  0  0  0  0  0
   -4.2670   17.7330  -32.4020 O   0  0  0  0  0  0  0  0  0  0  0  0
   -5.8550   16.2980  -31.1450 O   0  0  0  0  0  0  0  0  0  0  0  0
   -5.8880   16.1450  -33.7840 C   0  0  0  0  0  0  0  0  0  0  0  0
   -5.3800   14.7630  -33.5350 C   0  0  0  0  0  0  0  0  0  0  0  0
   -5.0590   16.7770  -34.9100 C   0  0  0  0  0  0  0  0  0  0  0  0
   -4.7250   21.2580  -31.2090 N   0  0  0  0  0  0  0  0  0  0  0  0
   -5.3565   25.3147  -29.3989 H   0  0  0  0  0  0  0  0  0  0  0  0
   -5.0844   26.1842  -30.9470 H   0  0  0  0  0  0  0  0  0  0  0  0
   -5.3259   24.4042  -30.9470 H   0  0  0  0  0  0  0  0  0  0  0  0
   -1.7209   26.3449  -28.8223 H   0  0  0  0  0  0  0  0  0  0  0  0
    1.0415   25.2410  -25.1503 H   0  0  0  0  0  0  0  0  0  0  0  0
    1.1596   24.2954  -26.6343 H   0  0  0  0  0  0  0  0  0  0  0  0
    2.8959   26.0793  -26.6497 H   0  0  0  0  0  0  0  0  0  0  0  0
    1.6455   26.4559  -27.9035 H   0  0  0  0  0  0  0  0  0  0  0  0
    2.4581   28.0462  -24.3850 H   0  0  0  0  0  0  0  0  0  0  0  0
    3.6128   27.6141  -25.6914 H   0  0  0  0  0  0  0  0  0  0  0  0
    2.8186   29.2252  -25.6914 H   0  0  0  0  0  0  0  0  0  0  0  0
    0.3271   27.9007  -24.6798 H   0  0  0  0  0  0  0  0  0  0  0  0
    0.0977   28.9296  -26.2092 H   0  0  0  0  0  0  0  0  0  0  0  0
   -1.5342   27.0200  -25.4395 H   0  0  0  0  0  0  0  0  0  0  0  0
   -1.1600   27.5347  -27.1693 H   0  0  0  0  0  0  0  0  0  0  0  0
   -1.2797   23.2578  -25.9016 H   0  0  0  0  0  0  0  0  0  0  0  0
   -2.9440   21.8892  -27.0962 H   0  0  0  0  0  0  0  0  0  0  0  0
   -1.9070   22.7220  -30.2950 H   0  0  0  0  0  0  0  0  0  0  0  0
   -1.0567   21.7413  -32.2636 H   0  0  0  0  0  0  0  0  0  0  0  0
   -7.0091   21.8046  -33.0370 H   0  0  0  0  0  0  0  0  0  0  0  0
   -9.3929   21.4222  -32.4775 H   0  0  0  0  0  0  0  0  0  0  0  0
  -10.1300   19.1215  -31.8604 H   0  0  0  0  0  0  0  0  0  0  0  0
   -8.4901   17.2665  -31.8117 H   0  0  0  0  0  0  0  0  0  0  0  0
   -6.9549   16.0873  -34.0454 H   0  0  0  0  0  0  0  0  0  0  0  0
   -5.3149   14.5860  -32.4513 H   0  0  0  0  0  0  0  0  0  0  0  0
   -6.0684   14.0326  -33.9851 H   0  0  0  0  0  0  0  0  0  0  0  0
   -4.3824   14.6524  -33.9851 H   0  0  0  0  0  0  0  0  0  0  0  0
   -4.2557   17.3894  -34.4745 H   0  0  0  0  0  0  0  0  0  0  0  0
   -4.6190   15.9831  -35.5313 H   0  0  0  0  0  0  0  0  0  0  0  0
   -5.7080   17.4116  -35.5313 H   0  0  0  0  0  0  0  0  0  0  0  0
   -5.7060   21.1360  -30.9170 H   0  0  0  0  0  0  0  0  0  0  0  0
  1  2  1  0
  2  3  1  0
  3  4  2  0
  4  5  1  0
  5  6  1  0
  6  7  1  0
  7  8  1  0
  8  9  1  0
  9 10  1  0
  9 11  1  0
 11 12  1  0
  5 13  2  0
 13 14  1  0
 14 15  2  0
 15 16  1  0
 16 17  2  0
 17 18  1  0
 18 19  1  0
 19 20  2  0
 20 21  1  0
 20 22  1  0
 22 23  2  0
 23 24  1  0
 24 25  2  0
 25 26  1  0
 26 27  2  0
 27 28  1  0
 28 29  2  0
 29 30  1  0
 30 31  2  0
 30 32  2  0
 30 33  1  0
 33 34  1  0
 33 35  1  0
 22 36  1  0
 15  3  1  0
 36 17  1  0
 12  6  1  0
 29 24  1  0
  1 37  1  0
  1 38  1  0
  1 39  1  0
  4 40  1  0
  7 41  1  0
  7 42  1  0
  8 43  1  0
  8 44  1  0
 10 45  1  0
 10 46  1  0
 10 47  1  0
 11 48  1  0
 11 49  1  0
 12 50  1  0
 12 51  1  0
 13 52  1  0
 14 53  1  0
 18 54  1  0
 19 55  1  0
 25 56  1  0
 26 57  1  0
 27 58  1  0
 28 59  1  0
 33 60  1  0
 34 61  1  0
 34 62  1  0
 34 63  1  0
 35 64  1  0
 35 65  1  0
 35 66  1  0
 36 67  1  0
M  END
>  <smiles>  (27) 
COc1cc(N2CCN(C)CC2)ccc1N=c1[nH]cc(Cl)c(=Nc2ccccc2S(=O)(=O)C(C)C)[nH]1

>  <score_type>  (27) 
oracle

>  <origin>  (27) 
adgpu

>  <m_score__min__energy>  (27) 
-10.16

>  <m_primary>  (27) 
energy

$$$$
27:0
     RDKit          3D

 28 30  0  0  0  0  0  0  0  0999 V2000
   -6.7820   23.6230  -32.6380 C   0  0  0  0  0  0  0  0  0  0  0  0
   -5.5960   23.9000  -31.7740 C   0  0  0  0  0  0  0  0  0  0  0  0
   -5.3550   25.0640  -31.2180 O   0  0  0  0  0  0  0  0  0  0  0  0
   -4.2490   25.0400  -30.5320 N   0  0  0  0  0  0  0  0  0  0  0  0
   -3.7360   23.7990  -30.6410 C   0  0  0  0  0  0  0  0  0  0  0  0
   -2.5100   23.3680  -29.9340 C   0  0  0  0  0  0  0  0  0  0  0  0
   -2.1830   22.0030  -29.8540 C   0  0  0  0  0  0  0  0  0  0  0  0
   -1.0350   21.5860  -29.1730 C   0  0  0  0  0  0  0  0  0  0  0  0
   -0.6440   19.8750  -29.1030 Cl  0  0  0  0  0  0  0  0  0  0  0  0
   -0.2100   22.5320  -28.5500 C   0  0  0  0  0  0  0  0  0  0  0  0
    0.9330   22.1290  -27.8690 O   0  0  0  0  0  0  0  0  0  0  0  0
   -0.5390   23.8890  -28.6070 C   0  0  0  0  0  0  0  0  0  0  0  0
   -1.6830   24.3100  -29.2930 C   0  0  0  0  0  0  0  0  0  0  0  0
   -1.9840   25.6680  -29.3430 O   0  0  0  0  0  0  0  0  0  0  0  0
   -4.5780   23.0260  -31.4300 C   0  0  0  0  0  0  0  0  0  0  0  0
   -4.3760   21.6430  -31.9070 C   0  0  0  0  0  0  0  0  0  0  0  0
   -5.1770   20.5450  -31.6090 C   0  0  0  0  0  0  0  0  0  0  0  0
   -4.7520   19.3650  -32.2310 C   0  0  0  0  0  0  0  0  0  0  0  0
   -3.6240   19.5250  -33.0250 C   0  0  0  0  0  0  0  0  0  0  0  0
   -3.1550   21.1380  -32.9510 S   0  0  0  0  0  0  0  0  0  0  0  0
   -7.6576   23.4185  -32.0043 H   0  0  0  0  0  0  0  0  0  0  0  0
   -6.9853   24.4978  -33.2731 H   0  0  0  0  0  0  0  0  0  0  0  0
   -6.5768   22.7486  -33.2731 H   0  0  0  0  0  0  0  0  0  0  0  0
   -2.8355   21.2569  -30.3310 H   0  0  0  0  0  0  0  0  0  0  0  0
    0.1048   24.6296  -28.1100 H   0  0  0  0  0  0  0  0  0  0  0  0
   -6.0564   20.5988  -30.9504 H   0  0  0  0  0  0  0  0  0  0  0  0
   -5.2643   18.4001  -32.1026 H   0  0  0  0  0  0  0  0  0  0  0  0
   -3.1239   18.7335  -33.6024 H   0  0  0  0  0  0  0  0  0  0  0  0
  1  2  1  0
  2  3  1  0
  3  4  1  0
  4  5  2  0
  5  6  1  0
  6  7  2  0
  7  8  1  0
  8  9  1  0
  8 10  2  0
 10 11  1  0
 10 12  1  0
 12 13  2  0
 13 14  1  0
  5 15  1  0
 15 16  1  0
 16 17  2  0
 17 18  1  0
 18 19  2  0
 19 20  1  0
 15  2  2  0
 20 16  1  0
 13  6  1  0
  1 21  1  0
  1 22  1  0
  1 23  1  0
  7 24  1  0
 12 25  1  0
 17 26  1  0
 18 27  1  0
 19 28  1  0
M  CHG  2  11  -1  14  -1
M  END
>  <UniqueID>  (28) 
27

>  <SMILES>  (28) 
Cc1onc(-c2cc(Cl)c([O-])cc2[O-])c1-c1cccs1

>  <Energy>  (28) 
94.92450592472738

>  <Genealogy>  (28) 
Cc1onc(-c2cc(Cl)c([O-])cc2[O-])c1-c1cccs1 (protonated)
Cc1onc(-c2cc(Cl)c([O-])cc2[O-])c1-c1cccs1 (3D coordinates assigned)
Cc1onc(-c2cc(Cl)c([O-])cc2[O-])c1-c1cccs1 (optimized conformer: 94.92450592472738 kcal/mol)

>  <smiles>  (28) 
Cc1onc(-c2cc(Cl)c(O)cc2O)c1-c1cccs1

>  <score_type>  (28) 
oracle

>  <origin>  (28) 
adgpu

>  <m_score__min__energy>  (28) 
-10.57

>  <m_primary>  (28) 
energy

$$$$
28:0
     RDKit          3D

 55 58  0  0  0  0  0  0  0  0999 V2000
   -6.0480   25.8820  -31.2570 O   0  0  0  0  0  0  0  0  0  0  0  0
   -5.6370   24.6880  -30.4440 S   0  0  0  0  0  0  0  0  0  0  0  0
   -6.0310   24.9200  -29.0120 O   0  0  0  0  0  0  0  0  0  0  0  0
   -3.9120   24.4990  -30.5360 N   0  0  0  0  0  0  0  0  0  0  0  0
   -3.1250   23.7750  -29.5680 C   0  0  0  0  0  0  0  0  0  0  0  0
   -3.4540   22.4610  -29.1870 C   0  0  0  0  0  0  0  0  0  0  0  0
   -2.6710   21.7610  -28.2570 C   0  0  0  0  0  0  0  0  0  0  0  0
   -1.5620   22.3990  -27.6570 C   0  0  0  0  0  0  0  0  0  0  0  0
   -1.2270   23.7020  -28.0450 C   0  0  0  0  0  0  0  0  0  0  0  0
   -1.9990   24.3880  -28.9890 C   0  0  0  0  0  0  0  0  0  0  0  0
   -1.6370   25.6820  -29.3450 O   0  0  0  0  0  0  0  0  0  0  0  0
   -0.6610   21.6720  -26.6840 C   0  0  0  0  0  0  0  0  0  0  0  0
   -1.3230   20.4310  -26.0780 C   0  0  0  0  0  0  0  0  0  0  0  0
   -1.9760   19.5850  -27.1700 C   0  0  0  0  0  0  0  0  0  0  0  0
   -3.1000   20.3730  -27.8470 C   0  0  0  0  0  0  0  0  0  0  0  0
   -6.4340   23.2570  -31.0930 C   0  0  0  0  0  0  0  0  0  0  0  0
   -7.8330   23.1760  -31.0810 C   0  0  0  0  0  0  0  0  0  0  0  0
   -8.4740   22.0420  -31.5850 C   0  0  0  0  0  0  0  0  0  0  0  0
   -7.7220   20.9830  -32.1020 C   0  0  0  0  0  0  0  0  0  0  0  0
   -6.3220   21.0580  -32.1280 C   0  0  0  0  0  0  0  0  0  0  0  0
   -5.3710   19.7200  -32.7790 S   0  0  0  0  0  0  0  0  0  0  0  0
   -5.7870   18.4410  -32.1020 O   0  0  0  0  0  0  0  0  0  0  0  0
   -5.6550   19.5790  -34.2490 O   0  0  0  0  0  0  0  0  0  0  0  0
   -3.6580   19.9680  -32.5350 N   0  0  0  0  0  0  0  0  0  0  0  0
   -3.2370   21.2470  -33.1440 C   0  0  0  0  0  0  0  0  0  0  0  0
   -1.7110   21.3880  -33.1210 C   0  0  0  0  0  0  0  0  0  0  0  0
   -1.0100   20.2340  -33.8670 C   0  0  0  0  0  0  0  0  0  0  0  0
   -1.9510   19.0580  -34.1600 C   0  0  0  0  0  0  0  0  0  0  0  0
   -2.8650   18.7850  -32.9570 C   0  0  0  0  0  0  0  0  0  0  0  0
   -5.6810   22.1980  -31.6200 C   0  0  0  0  0  0  0  0  0  0  0  0
   -3.4400   24.9560  -31.3460 H   0  0  0  0  0  0  0  0  0  0  0  0
   -4.3385   21.9754  -29.6250 H   0  0  0  0  0  0  0  0  0  0  0  0
   -0.3470   24.1918  -27.6027 H   0  0  0  0  0  0  0  0  0  0  0  0
    0.2509   21.3606  -27.2145 H   0  0  0  0  0  0  0  0  0  0  0  0
   -0.4361   22.3643  -25.8593 H   0  0  0  0  0  0  0  0  0  0  0  0
   -0.5602   19.8296  -25.5618 H   0  0  0  0  0  0  0  0  0  0  0  0
   -2.0978   20.7529  -25.3666 H   0  0  0  0  0  0  0  0  0  0  0  0
   -1.2192   19.3135  -27.9207 H   0  0  0  0  0  0  0  0  0  0  0  0
   -2.3975   18.6759  -26.7163 H   0  0  0  0  0  0  0  0  0  0  0  0
   -3.4235   19.8249  -28.7442 H   0  0  0  0  0  0  0  0  0  0  0  0
   -3.9178   20.4787  -27.1190 H   0  0  0  0  0  0  0  0  0  0  0  0
   -8.4275   24.0072  -30.6738 H   0  0  0  0  0  0  0  0  0  0  0  0
   -9.5723   21.9821  -31.5751 H   0  0  0  0  0  0  0  0  0  0  0  0
   -8.2302   20.0878  -32.4897 H   0  0  0  0  0  0  0  0  0  0  0  0
   -3.5861   21.2816  -34.1866 H   0  0  0  0  0  0  0  0  0  0  0  0
   -3.6749   22.0730  -32.5644 H   0  0  0  0  0  0  0  0  0  0  0  0
   -1.4355   22.3391  -33.6000 H   0  0  0  0  0  0  0  0  0  0  0  0
   -1.3842   21.3604  -32.0710 H   0  0  0  0  0  0  0  0  0  0  0  0
   -0.6195   20.6179  -34.8210 H   0  0  0  0  0  0  0  0  0  0  0  0
   -0.2046   19.8603  -33.2176 H   0  0  0  0  0  0  0  0  0  0  0  0
   -2.5698   19.2998  -35.0367 H   0  0  0  0  0  0  0  0  0  0  0  0
   -1.3464   18.1604  -34.3571 H   0  0  0  0  0  0  0  0  0  0  0  0
   -3.5613   17.9767  -33.2251 H   0  0  0  0  0  0  0  0  0  0  0  0
   -2.2153   18.5128  -32.1121 H   0  0  0  0  0  0  0  0  0  0  0  0
   -4.5829   22.2613  -31.6352 H   0  0  0  0  0  0  0  0  0  0  0  0
  1  2  2  0
  2  3  2  0
  2  4  1  0
  4  5  1  0
  5  6  2  0
  6  7  1  0
  7  8  2  0
  8  9  1  0
  9 10  2  0
 10 11  1  0
  8 12  1  0
 12 13  1  0
 13 14  1  0
 14 15  1  0
  2 16  1  0
 16 17  2  0
 17 18  1  0
 18 19  2  0
 19 20  1  0
 20 21  1  0
 21 22  2  0
 21 23  2  0
 21 24  1  0
 24 25  1  0
 25 26  1  0
 26 27  1  0
 27 28  1  0
 28 29  1  0
 20 30  2  0
 10  5  1  0
 30 16  1  0
 15  7  1  0
 29 24  1  0
  4 31  1  0
  6 32  1  0
  9 33  1  0
 12 34  1  0
 12 35  1  0
 13 36  1  0
 13 37  1  0
 14 38  1  0
 14 39  1  0
 15 40  1  0
 15 41  1  0
 17 42  1  0
 18 43  1  0
 19 44  1  0
 25 45  1  0
 25 46  1  0
 26 47  1  0
 26 48  1  0
 27 49  1  0
 27 50  1  0
 28 51  1  0
 28 52  1  0
 29 53  1  0
 29 54  1  0
 30 55  1  0
M  CHG  1  11  -1
M  END
>  <UniqueID>  (29) 
28

>  <SMILES>  (29) 
O=S(=O)(Nc1cc2c(cc1[O-])CCCC2)c1cccc(S(=O)(=O)N2CCCCC2)c1

>  <Energy>  (29) 
61.54750421381798

>  <Genealogy>  (29) 
O=S(=O)(Nc1cc2c(cc1[O-])CCCC2)c1cccc(S(=O)(=O)N2CCCCC2)c1 (protonated)
O=S(=O)(Nc1cc2c(cc1[O-])CCCC2)c1cccc(S(=O)(=O)N2CCCCC2)c1 (3D coordinates assigned)
O=S(=O)(Nc1cc2c(cc1[O-])CCCC2)c1cccc(S(=O)(=O)N2CCCCC2)c1 (nonaromatic ring conformer: 61.54750421381798 kcal/mol)

>  <smiles>  (29) 
O=S(=O)(Nc1cc2c(cc1O)CCCC2)c1cccc(S(=O)(=O)N2CCCCC2)c1

>  <score_type>  (29) 
oracle

>  <origin>  (29) 
adgpu

>  <m_score__min__energy>  (29) 
-14.550000000000001

>  <m_primary>  (29) 
energy

$$$$
29:0
     RDKit          3D

 43 45  0  0  0  0  0  0  0  0999 V2000
   -0.8570   26.7000  -28.1560 C   0  0  0  0  0  0  0  0  0  0  0  0
   -1.2200   25.3190  -28.5880 C   0  0  0  0  0  0  0  0  0  0  0  0
   -2.3630   25.1020  -29.2820 N   0  0  0  0  0  0  0  0  0  0  0  0
   -2.7420   23.8550  -29.6630 C   0  0  0  0  0  0  0  0  0  0  0  0
   -3.9710   23.7170  -30.3870 N   0  0  0  0  0  0  0  0  0  0  0  0
   -5.2420   24.0460  -29.7330 C   0  0  0  0  0  0  0  0  0  0  0  0
   -6.2340   22.8890  -29.8920 C   0  0  0  0  0  0  0  0  0  0  0  0
   -6.2790   22.4100  -31.2800 N   0  0  0  0  0  0  0  0  0  0  0  0
   -7.2490   21.4170  -31.6440 C   0  0  0  0  0  0  0  0  0  0  0  0
   -8.6120   21.7540  -31.6560 C   0  0  0  0  0  0  0  0  0  0  0  0
   -9.5720   20.7990  -32.0050 C   0  0  0  0  0  0  0  0  0  0  0  0
   -9.1770   19.5040  -32.3470 C   0  0  0  0  0  0  0  0  0  0  0  0
   -7.8220   19.1600  -32.3420 C   0  0  0  0  0  0  0  0  0  0  0  0
   -6.8540   20.1100  -31.9940 C   0  0  0  0  0  0  0  0  0  0  0  0
   -5.1570   19.6520  -32.0430 Cl  0  0  0  0  0  0  0  0  0  0  0  0
   -5.3520   22.9360  -32.2900 C   0  0  0  0  0  0  0  0  0  0  0  0
   -3.9450   23.0480  -31.6950 C   0  0  0  0  0  0  0  0  0  0  0  0
   -1.9390   22.7350  -29.3190 C   0  0  0  0  0  0  0  0  0  0  0  0
   -2.2790   21.3050  -29.7460 C   0  0  0  0  0  0  0  0  0  0  0  0
   -1.9240   20.4210  -28.7390 F   0  0  0  0  0  0  0  0  0  0  0  0
   -3.6380   21.1450  -29.9500 F   0  0  0  0  0  0  0  0  0  0  0  0
   -1.5400   20.9080  -31.0330 C   0  0  0  0  0  0  0  0  0  0  0  0
   -2.4630   20.6030  -32.0180 F   0  0  0  0  0  0  0  0  0  0  0  0
   -0.7470   21.9480  -31.4780 F   0  0  0  0  0  0  0  0  0  0  0  0
   -0.7430   19.7980  -30.8180 F   0  0  0  0  0  0  0  0  0  0  0  0
   -0.7630   22.9980  -28.5780 C   0  0  0  0  0  0  0  0  0  0  0  0
    0.0020   22.0620  -28.2230 O   0  0  0  0  0  0  0  0  0  0  0  0
   -0.4390   24.2700  -28.2330 N   0  0  0  0  0  0  0  0  0  0  0  0
   -0.8441   26.7490  -27.0572 H   0  0  0  0  0  0  0  0  0  0  0  0
    0.1390   26.9563  -28.5461 H   0  0  0  0  0  0  0  0  0  0  0  0
   -1.5982   27.4130  -28.5461 H   0  0  0  0  0  0  0  0  0  0  0  0
   -5.0637   24.2273  -28.6628 H   0  0  0  0  0  0  0  0  0  0  0  0
   -5.6639   24.9474  -30.2014 H   0  0  0  0  0  0  0  0  0  0  0  0
   -5.9260   22.0606  -29.2371 H   0  0  0  0  0  0  0  0  0  0  0  0
   -7.2358   23.2510  -29.6175 H   0  0  0  0  0  0  0  0  0  0  0  0
   -8.9261   22.7740  -31.3896 H   0  0  0  0  0  0  0  0  0  0  0  0
  -10.6386   21.0679  -32.0101 H   0  0  0  0  0  0  0  0  0  0  0  0
   -9.9331   18.7535  -32.6207 H   0  0  0  0  0  0  0  0  0  0  0  0
   -7.5150   18.1389  -32.6125 H   0  0  0  0  0  0  0  0  0  0  0  0
   -5.3298   22.2562  -33.1545 H   0  0  0  0  0  0  0  0  0  0  0  0
   -5.6911   23.9322  -32.6103 H   0  0  0  0  0  0  0  0  0  0  0  0
   -3.5260   22.0383  -31.5729 H   0  0  0  0  0  0  0  0  0  0  0  0
   -3.3250   23.6461  -32.3790 H   0  0  0  0  0  0  0  0  0  0  0  0
  1  2  1  0
  2  3  2  0
  3  4  1  0
  4  5  1  0
  5  6  1  0
  6  7  1  0
  7  8  1  0
  8  9  1  0
  9 10  2  0
 10 11  1  0
 11 12  2  0
 12 13  1  0
 13 14  2  0
 14 15  1  0
  8 16  1  0
 16 17  1  0
  4 18  2  0
 18 19  1  0
 19 20  1  0
 19 21  1  0
 19 22  1  0
 22 23  1  0
 22 24  1  0
 22 25  1  0
 18 26  1  0
 26 27  2  0
 26 28  1  0
 28  2  1  0
 17  5  1  0
 14  9  1  0
  1 29  1  0
  1 30  1  0
  1 31  1  0
  6 32  1  0
  6 33  1  0
  7 34  1  0
  7 35  1  0
 10 36  1  0
 11 37  1  0
 12 38  1  0
 13 39  1  0
 16 40  1  0
 16 41  1  0
 17 42  1  0
 17 43  1  0
M  CHG  1  28  -1
M  END
>  <UniqueID>  (30) 
29

>  <SMILES>  (30) 
Cc1nc(N2CCN(c3ccccc3Cl)CC2)c(C(F)(F)C(F)(F)F)c(=O)[n-]1

>  <Energy>  (30) 
58.64488406896915

>  <Genealogy>  (30) 
Cc1nc(N2CCN(c3ccccc3Cl)CC2)c(C(F)(F)C(F)(F)F)c(=O)[n-]1 (protonated)
Cc1nc(N2CCN(c3ccccc3Cl)CC2)c(C(F)(F)C(F)(F)F)c(=O)[n-]1 (3D coordinates assigned)
Cc1nc(N2CCN(c3ccccc3Cl)CC2)c(C(F)(F)C(F)(F)F)c(=O)[n-]1 (nonaromatic ring conformer: 58.64488406896915 kcal/mol)

>  <smiles>  (30) 
Cc1nc(N2CCN(c3ccccc3Cl)CC2)c(C(F)(F)C(F)(F)F)c(=O)[nH]1

>  <score_type>  (30) 
oracle

>  <origin>  (30) 
adgpu

>  <m_score__min__energy>  (30) 
-8.3900000000000006

>  <m_primary>  (30) 
energy

$$$$
30:0
     RDKit          3D

 49 52  0  0  0  0  0  0  0  0999 V2000
   -5.9910   26.0650  -30.4760 O   0  0  0  0  0  0  0  0  0  0  0  0
   -5.1840   25.1320  -30.7250 C   0  0  0  0  0  0  0  0  0  0  0  0
   -3.8040   25.2950  -30.3690 N   0  0  0  0  0  0  0  0  0  0  0  0
   -3.1030   24.5280  -29.3780 C   0  0  0  0  0  0  0  0  0  0  0  0
   -3.6540   23.3140  -28.9460 C   0  0  0  0  0  0  0  0  0  0  0  0
   -3.0050   22.5510  -27.9720 C   0  0  0  0  0  0  0  0  0  0  0  0
   -1.7900   22.9870  -27.4360 C   0  0  0  0  0  0  0  0  0  0  0  0
   -1.2150   24.1780  -27.8840 C   0  0  0  0  0  0  0  0  0  0  0  0
   -1.8570   24.9440  -28.8630 C   0  0  0  0  0  0  0  0  0  0  0  0
   -1.2410   26.1020  -29.3300 O   0  0  0  0  0  0  0  0  0  0  0  0
   -5.6650   23.9270  -31.4230 C   0  0  0  0  0  0  0  0  0  0  0  0
   -4.8540   22.9390  -31.8580 N   0  0  0  0  0  0  0  0  0  0  0  0
   -5.5380   21.9280  -32.4620 C   0  0  0  0  0  0  0  0  0  0  0  0
   -4.8350   20.7410  -33.0070 C   0  0  0  0  0  0  0  0  0  0  0  0
   -5.5200   19.5380  -33.2610 C   0  0  0  0  0  0  0  0  0  0  0  0
   -4.8390   18.4300  -33.7700 C   0  0  0  0  0  0  0  0  0  0  0  0
   -3.4710   18.5070  -34.0370 C   0  0  0  0  0  0  0  0  0  0  0  0
   -2.7730   19.6960  -33.7940 C   0  0  0  0  0  0  0  0  0  0  0  0
   -1.0520   19.7820  -34.1610 S   0  0  0  0  0  0  0  0  0  0  0  0
   -0.8130   20.6960  -35.3320 O   0  0  0  0  0  0  0  0  0  0  0  0
   -0.5760   18.4030  -34.5250 O   0  0  0  0  0  0  0  0  0  0  0  0
   -0.1870   20.3660  -32.7600 N   0  0  0  0  0  0  0  0  0  0  0  0
    0.0450   19.2720  -31.7800 C   0  0  0  0  0  0  0  0  0  0  0  0
   -0.8950   19.3430  -30.5660 C   0  0  0  0  0  0  0  0  0  0  0  0
   -0.7530   20.6870  -29.8310 C   0  0  0  0  0  0  0  0  0  0  0  0
   -0.4130   21.8510  -30.7780 C   0  0  0  0  0  0  0  0  0  0  0  0
   -0.8760   21.5520  -32.2070 C   0  0  0  0  0  0  0  0  0  0  0  0
   -3.4520   20.8050  -33.2670 C   0  0  0  0  0  0  0  0  0  0  0  0
   -6.9210   22.1220  -32.5190 C   0  0  0  0  0  0  0  0  0  0  0  0
   -7.2710   23.5970  -31.7890 S   0  0  0  0  0  0  0  0  0  0  0  0
   -4.6025   22.9599  -29.3761 H   0  0  0  0  0  0  0  0  0  0  0  0
   -3.4506   21.6064  -27.6267 H   0  0  0  0  0  0  0  0  0  0  0  0
   -1.2863   22.3913  -26.6605 H   0  0  0  0  0  0  0  0  0  0  0  0
   -0.2548   24.5148  -27.4661 H   0  0  0  0  0  0  0  0  0  0  0  0
   -6.5988   19.4700  -33.0573 H   0  0  0  0  0  0  0  0  0  0  0  0
   -5.3827   17.4931  -33.9612 H   0  0  0  0  0  0  0  0  0  0  0  0
   -2.9403   17.6315  -34.4392 H   0  0  0  0  0  0  0  0  0  0  0  0
   -0.1100   18.3084  -32.2873 H   0  0  0  0  0  0  0  0  0  0  0  0
    1.0739   19.3786  -31.4058 H   0  0  0  0  0  0  0  0  0  0  0  0
   -1.9339   19.2297  -30.9094 H   0  0  0  0  0  0  0  0  0  0  0  0
   -0.6267   18.5349  -29.8697 H   0  0  0  0  0  0  0  0  0  0  0  0
   -1.7027   20.9124  -29.3238 H   0  0  0  0  0  0  0  0  0  0  0  0
    0.0774   20.5878  -29.1165 H   0  0  0  0  0  0  0  0  0  0  0  0
   -0.9144   22.7627  -30.4212 H   0  0  0  0  0  0  0  0  0  0  0  0
    0.6784   21.9880  -30.7857 H   0  0  0  0  0  0  0  0  0  0  0  0
   -1.9601   21.3655  -32.2004 H   0  0  0  0  0  0  0  0  0  0  0  0
   -0.6332   22.4194  -32.8384 H   0  0  0  0  0  0  0  0  0  0  0  0
   -2.8997   21.7324  -33.0550 H   0  0  0  0  0  0  0  0  0  0  0  0
   -7.6526   21.4312  -32.9634 H   0  0  0  0  0  0  0  0  0  0  0  0
  1  2  2  0
  2  3  1  0
  3  4  1  0
  4  5  2  0
  5  6  1  0
  6  7  2  0
  7  8  1  0
  8  9  2  0
  9 10  1  0
  2 11  1  0
 11 12  2  0
 12 13  1  0
 13 14  1  0
 14 15  2  0
 15 16  1  0
 16 17  2  0
 17 18  1  0
 18 19  1  0
 19 20  2  0
 19 21  2  0
 19 22  1  0
 22 23  1  0
 23 24  1  0
 24 25  1  0
 25 26  1  0
 26 27  1  0
 18 28  2  0
 13 29  2  0
 29 30  1  0
  9  4  1  0
 30 11  1  0
 28 14  1  0
 27 22  1  0
  5 31  1  0
  6 32  1  0
  7 33  1  0
  8 34  1  0
 15 35  1  0
 16 36  1  0
 17 37  1  0
 23 38  1  0
 23 39  1  0
 24 40  1  0
 24 41  1  0
 25 42  1  0
 25 43  1  0
 26 44  1  0
 26 45  1  0
 27 46  1  0
 27 47  1  0
 28 48  1  0
 29 49  1  0
M  CHG  2   3  -1  10  -1
M  END
>  <UniqueID>  (31) 
30

>  <SMILES>  (31) 
O=C([N-]c1ccccc1[O-])c1nc(-c2cccc(S(=O)(=O)N3CCCCC3)c2)cs1

>  <Energy>  (31) 
92.5352337704131

>  <Genealogy>  (31) 
O=C([N-]c1ccccc1[O-])c1nc(-c2cccc(S(=O)(=O)N3CCCCC3)c2)cs1 (protonated)
O=C([N-]c1ccccc1[O-])c1nc(-c2cccc(S(=O)(=O)N3CCCCC3)c2)cs1 (3D coordinates assigned)
O=C([N-]c1ccccc1[O-])c1nc(-c2cccc(S(=O)(=O)N3CCCCC3)c2)cs1 (nonaromatic ring conformer: 92.5352337704131 kcal/mol)

>  <smiles>  (31) 
O=C(Nc1ccccc1O)c1nc(-c2cccc(S(=O)(=O)N3CCCCC3)c2)cs1

>  <score_type>  (31) 
oracle

>  <origin>  (31) 
adgpu

>  <m_score__min__energy>  (31) 
-14.550000000000001

>  <m_primary>  (31) 
energy

$$$$
31:0
     RDKit          3D

 47 50  0  0  0  0  0  0  0  0999 V2000
    0.5930   21.7440  -26.5160 O   0  0  0  0  0  0  0  0  0  0  0  0
   -0.5230   21.6410  -27.0900 C   0  0  0  0  0  0  0  0  0  0  0  0
   -1.1710   22.6810  -27.8820 C   0  0  0  0  0  0  0  0  0  0  0  0
   -0.7720   23.9810  -28.1730 C   0  0  0  0  0  0  0  0  0  0  0  0
   -1.6060   24.7640  -28.9910 C   0  0  0  0  0  0  0  0  0  0  0  0
   -1.2270   26.0700  -29.2830 O   0  0  0  0  0  0  0  0  0  0  0  0
   -2.8210   24.2360  -29.5080 C   0  0  0  0  0  0  0  0  0  0  0  0
   -3.6630   25.0630  -30.3330 N   0  0  0  0  0  0  0  0  0  0  0  0
   -5.3930   24.9300  -30.3760 S   0  0  0  0  0  0  0  0  0  0  0  0
   -5.9490   26.0380  -31.2270 O   0  0  0  0  0  0  0  0  0  0  0  0
   -5.9370   25.0610  -28.9820 O   0  0  0  0  0  0  0  0  0  0  0  0
   -5.8610   23.3580  -31.0190 C   0  0  0  0  0  0  0  0  0  0  0  0
   -7.1490   22.8570  -30.7990 C   0  0  0  0  0  0  0  0  0  0  0  0
   -7.5190   21.6180  -31.3250 C   0  0  0  0  0  0  0  0  0  0  0  0
   -6.6110   20.8690  -32.0810 C   0  0  0  0  0  0  0  0  0  0  0  0
   -7.1280   19.3070  -32.7070 Cl  0  0  0  0  0  0  0  0  0  0  0  0
   -5.3110   21.3690  -32.3170 C   0  0  0  0  0  0  0  0  0  0  0  0
   -4.3020   20.5800  -33.1090 C   0  0  0  0  0  0  0  0  0  0  0  0
   -3.1490   21.3520  -33.2920 O   0  0  0  0  0  0  0  0  0  0  0  0
   -4.9440   22.6080  -31.7650 C   0  0  0  0  0  0  0  0  0  0  0  0
   -3.1820   22.9020  -29.2030 C   0  0  0  0  0  0  0  0  0  0  0  0
   -2.3400   22.1570  -28.3810 C   0  0  0  0  0  0  0  0  0  0  0  0
   -2.4450   20.7800  -27.9120 C   0  0  0  0  0  0  0  0  0  0  0  0
   -3.3690   19.9750  -28.2030 O   0  0  0  0  0  0  0  0  0  0  0  0
   -1.3280   20.4580  -27.0800 N   0  0  0  0  0  0  0  0  0  0  0  0
   -0.8820   19.1180  -26.7130 C   0  0  0  0  0  0  0  0  0  0  0  0
   -0.1350   18.4930  -27.8540 C   0  0  0  0  0  0  0  0  0  0  0  0
    0.4840   17.2420  -27.7080 C   0  0  0  0  0  0  0  0  0  0  0  0
    1.1340   16.6680  -28.8020 C   0  0  0  0  0  0  0  0  0  0  0  0
    1.1550   17.3360  -30.0270 C   0  0  0  0  0  0  0  0  0  0  0  0
    0.5180   18.5740  -30.1400 C   0  0  0  0  0  0  0  0  0  0  0  0
   -0.1110   19.1180  -29.0640 N   0  0  0  0  0  0  0  0  0  0  0  0
    0.1700   24.3857  -27.7744 H   0  0  0  0  0  0  0  0  0  0  0  0
   -3.2410   25.8570  -30.8660 H   0  0  0  0  0  0  0  0  0  0  0  0
   -7.8717   23.4410  -30.2101 H   0  0  0  0  0  0  0  0  0  0  0  0
   -8.5314   21.2280  -31.1438 H   0  0  0  0  0  0  0  0  0  0  0  0
   -4.0451   19.6601  -32.5633 H   0  0  0  0  0  0  0  0  0  0  0  0
   -4.7277   20.3171  -34.0886 H   0  0  0  0  0  0  0  0  0  0  0  0
   -3.1580   21.6390  -34.2420 H   0  0  0  0  0  0  0  0  0  0  0  0
   -3.9253   22.9927  -31.9207 H   0  0  0  0  0  0  0  0  0  0  0  0
   -4.1068   22.4634  -29.6061 H   0  0  0  0  0  0  0  0  0  0  0  0
   -0.2204   19.1820  -25.8365 H   0  0  0  0  0  0  0  0  0  0  0  0
   -1.7596   18.4990  -26.4750 H   0  0  0  0  0  0  0  0  0  0  0  0
    0.4573   16.7187  -26.7408 H   0  0  0  0  0  0  0  0  0  0  0  0
    1.6287   15.6910  -28.6986 H   0  0  0  0  0  0  0  0  0  0  0  0
    1.6673   16.8928  -30.8937 H   0  0  0  0  0  0  0  0  0  0  0  0
    0.5252   19.1097  -31.1007 H   0  0  0  0  0  0  0  0  0  0  0  0
  1  2  2  0
  2  3  1  0
  3  4  2  0
  4  5  1  0
  5  6  1  0
  5  7  2  0
  7  8  1  0
  8  9  1  0
  9 10  2  0
  9 11  2  0
  9 12  1  0
 12 13  2  0
 13 14  1  0
 14 15  2  0
 15 16  1  0
 15 17  1  0
 17 18  1  0
 18 19  1  0
 17 20  2  0
  7 21  1  0
 21 22  2  0
 22 23  1  0
 23 24  2  0
 23 25  1  0
 25 26  1  0
 26 27  1  0
 27 28  2  0
 28 29  1  0
 29 30  2  0
 30 31  1  0
 31 32  2  0
 25  2  1  0
 32 27  1  0
 22  3  1  0
 20 12  1  0
  4 33  1  0
  8 34  1  0
 13 35  1  0
 14 36  1  0
 18 37  1  0
 18 38  1  0
 19 39  1  0
 20 40  1  0
 21 41  1  0
 26 42  1  0
 26 43  1  0
 28 44  1  0
 29 45  1  0
 30 46  1  0
 31 47  1  0
M  CHG  1   6  -1
M  END
>  <UniqueID>  (32) 
31

>  <SMILES>  (32) 
O=C1c2cc([O-])c(NS(=O)(=O)c3ccc(Cl)c(CO)c3)cc2C(=O)N1Cc1ccccn1

>  <Energy>  (32) 
85.30344176182714

>  <Genealogy>  (32) 
O=C1c2cc([O-])c(NS(=O)(=O)c3ccc(Cl)c(CO)c3)cc2C(=O)N1Cc1ccccn1 (protonated)
O=C1c2cc([O-])c(NS(=O)(=O)c3ccc(Cl)c(CO)c3)cc2C(=O)N1Cc1ccccn1 (3D coordinates assigned)
O=C1c2cc([O-])c(NS(=O)(=O)c3ccc(Cl)c(CO)c3)cc2C(=O)N1Cc1ccccn1 (nonaromatic ring conformer: 85.30344176182714 kcal/mol)

>  <smiles>  (32) 
O=C1c2cc(O)c(NS(=O)(=O)c3ccc(Cl)c(CO)c3)cc2C(=O)N1Cc1ccccn1

>  <score_type>  (32) 
oracle

>  <origin>  (32) 
adgpu

>  <m_score__min__energy>  (32) 
-12.99

>  <m_primary>  (32) 
energy

$$$$
32:0
     RDKit          3D

 55 58  0  0  0  0  0  0  0  0999 V2000
   -6.7490   23.7220  -33.0780 O   0  0  0  0  0  0  0  0  0  0  0  0
   -6.3840   22.7490  -32.3670 C   0  0  0  0  0  0  0  0  0  0  0  0
   -7.3470   22.0450  -31.5740 N   0  0  0  0  0  0  0  0  0  0  0  0
   -7.7790   20.7040  -31.8320 C   0  0  0  0  0  0  0  0  0  0  0  0
   -6.8110   19.7350  -32.1200 C   0  0  0  0  0  0  0  0  0  0  0  0
   -7.1810   18.4080  -32.3660 C   0  0  0  0  0  0  0  0  0  0  0  0
   -5.9400   17.2150  -32.7430 S   0  0  0  0  0  0  0  0  0  0  0  0
   -5.4680   16.5950  -31.4570 O   0  0  0  0  0  0  0  0  0  0  0  0
   -6.5100   16.1380  -33.6250 O   0  0  0  0  0  0  0  0  0  0  0  0
   -4.5970   17.9960  -33.5490 N   0  0  0  0  0  0  0  0  0  0  0  0
   -3.3230   17.4210  -33.1050 C   0  0  0  0  0  0  0  0  0  0  0  0
   -2.8890   16.3720  -34.1200 C   0  0  0  0  0  0  0  0  0  0  0  0
   -3.8220   16.5350  -35.3060 C   0  0  0  0  0  0  0  0  0  0  0  0
   -4.6570   17.7620  -34.9950 C   0  0  0  0  0  0  0  0  0  0  0  0
   -8.5310   18.0470  -32.3260 C   0  0  0  0  0  0  0  0  0  0  0  0
   -9.5080   19.0130  -32.0680 C   0  0  0  0  0  0  0  0  0  0  0  0
   -9.1480   20.3460  -31.8460 C   0  0  0  0  0  0  0  0  0  0  0  0
  -10.1640   21.2880  -31.6800 O   0  0  0  0  0  0  0  0  0  0  0  0
   -4.9720   22.3080  -32.3580 C   0  0  0  0  0  0  0  0  0  0  0  0
   -4.5630   21.3960  -33.3470 C   0  0  0  0  0  0  0  0  0  0  0  0
   -3.2470   20.9380  -33.4000 C   0  0  0  0  0  0  0  0  0  0  0  0
   -2.3210   21.3720  -32.4560 C   0  0  0  0  0  0  0  0  0  0  0  0
   -2.7090   22.2640  -31.4560 C   0  0  0  0  0  0  0  0  0  0  0  0
   -4.0260   22.7490  -31.3940 C   0  0  0  0  0  0  0  0  0  0  0  0
   -4.4620   23.8240  -30.0530 S   0  0  0  0  0  0  0  0  0  0  0  0
   -4.8600   23.0300  -28.8420 O   0  0  0  0  0  0  0  0  0  0  0  0
   -5.6360   24.6660  -30.4660 O   0  0  0  0  0  0  0  0  0  0  0  0
   -3.1340   24.8640  -29.6400 N   0  0  0  0  0  0  0  0  0  0  0  0
   -1.9800   24.4850  -28.8770 C   0  0  0  0  0  0  0  0  0  0  0  0
   -1.7750   23.1630  -28.4420 C   0  0  0  0  0  0  0  0  0  0  0  0
   -0.6350   22.8330  -27.7030 C   0  0  0  0  0  0  0  0  0  0  0  0
    0.3050   23.8170  -27.3880 C   0  0  0  0  0  0  0  0  0  0  0  0
    1.4370   23.4850  -26.6550 O   0  0  0  0  0  0  0  0  0  0  0  0
    0.1050   25.1340  -27.8090 C   0  0  0  0  0  0  0  0  0  0  0  0
   -1.0350   25.4690  -28.5490 C   0  0  0  0  0  0  0  0  0  0  0  0
   -1.2180   26.7850  -28.9650 O   0  0  0  0  0  0  0  0  0  0  0  0
   -5.7489   20.0193  -32.1533 H   0  0  0  0  0  0  0  0  0  0  0  0
   -2.5613   18.2119  -33.0394 H   0  0  0  0  0  0  0  0  0  0  0  0
   -3.4416   16.9606  -32.1131 H   0  0  0  0  0  0  0  0  0  0  0  0
   -1.8464   16.5432  -34.4262 H   0  0  0  0  0  0  0  0  0  0  0  0
   -2.9403   15.3564  -33.7005 H   0  0  0  0  0  0  0  0  0  0  0  0
   -3.2461   16.6856  -36.2310 H   0  0  0  0  0  0  0  0  0  0  0  0
   -4.4469   15.6431  -35.4608 H   0  0  0  0  0  0  0  0  0  0  0  0
   -4.2538   18.6337  -35.5313 H   0  0  0  0  0  0  0  0  0  0  0  0
   -5.6982   17.6067  -35.3142 H   0  0  0  0  0  0  0  0  0  0  0  0
   -8.8250   17.0010  -32.4978 H   0  0  0  0  0  0  0  0  0  0  0  0
  -10.5685   18.7223  -32.0394 H   0  0  0  0  0  0  0  0  0  0  0  0
   -9.9800   22.2650  -31.4900 H   0  0  0  0  0  0  0  0  0  0  0  0
   -5.2917   21.0387  -34.0896 H   0  0  0  0  0  0  0  0  0  0  0  0
   -2.9408   20.2339  -34.1877 H   0  0  0  0  0  0  0  0  0  0  0  0
   -1.2826   21.0115  -32.4984 H   0  0  0  0  0  0  0  0  0  0  0  0
   -1.9740   22.5919  -30.7062 H   0  0  0  0  0  0  0  0  0  0  0  0
   -2.5147   22.3857  -28.6843 H   0  0  0  0  0  0  0  0  0  0  0  0
   -0.4781   21.7967  -27.3691 H   0  0  0  0  0  0  0  0  0  0  0  0
    0.8445   25.9089  -27.5586 H   0  0  0  0  0  0  0  0  0  0  0  0
  1  2  2  0
  2  3  1  0
  3  4  1  0
  4  5  2  0
  5  6  1  0
  6  7  1  0
  7  8  2  0
  7  9  2  0
  7 10  1  0
 10 11  1  0
 11 12  1  0
 12 13  1  0
 13 14  1  0
  6 15  2  0
 15 16  1  0
 16 17  2  0
 17 18  1  0
  2 19  1  0
 19 20  2  0
 20 21  1  0
 21 22  2  0
 22 23  1  0
 23 24  2  0
 24 25  1  0
 25 26  2  0
 25 27  2  0
 25 28  1  0
 28 29  1  0
 29 30  2  0
 30 31  1  0
 31 32  2  0
 32 33  1  0
 32 34  1  0
 34 35  2  0
 35 36  1  0
 17  4  1  0
 24 19  1  0
 35 29  1  0
 14 10  1  0
  5 37  1  0
 11 38  1  0
 11 39  1  0
 12 40  1  0
 12 41  1  0
 13 42  1  0
 13 43  1  0
 14 44  1  0
 14 45  1  0
 15 46  1  0
 16 47  1  0
 18 48  1  0
 20 49  1  0
 21 50  1  0
 22 51  1  0
 23 52  1  0
 30 53  1  0
 31 54  1  0
 34 55  1  0
M  CHG  4   3  -1  28  -1  33  -1  36  -1
M  END
>  <UniqueID>  (33) 
32

>  <SMILES>  (33) 
O=C([N-]c1cc(S(=O)(=O)N2CCCC2)ccc1O)c1ccccc1S(=O)(=O)[N-]c1ccc([O-])cc1[O-]

>  <Energy>  (33) 
76.690281296173

>  <Genealogy>  (33) 
O=C([N-]c1cc(S(=O)(=O)N2CCCC2)ccc1O)c1ccccc1S(=O)(=O)[N-]c1ccc([O-])cc1[O-] (protonated)
O=C([N-]c1cc(S(=O)(=O)N2CCCC2)ccc1O)c1ccccc1S(=O)(=O)[N-]c1ccc([O-])cc1[O-] (3D coordinates assigned)
O=C([N-]c1cc(S(=O)(=O)N2CCCC2)ccc1O)c1ccccc1S(=O)(=O)[N-]c1ccc([O-])cc1[O-] (nonaromatic ring conformer: 76.690281296173 kcal/mol)

>  <smiles>  (33) 
O=C(Nc1cc(S(=O)(=O)N2CCCC2)ccc1O)c1ccccc1S(=O)(=O)Nc1ccc(O)cc1O

>  <score_type>  (33) 
oracle

>  <origin>  (33) 
adgpu

>  <m_score__min__energy>  (33) 
-14.16

>  <m_primary>  (33) 
energy

$$$$
33:0
     RDKit          3D

 65 69  0  0  0  0  0  0  0  0999 V2000
   -4.6200   23.1470  -32.4520 O   0  0  0  0  0  0  0  0  0  0  0  0
   -5.4190   23.0100  -31.4870 C   0  0  0  0  0  0  0  0  0  0  0  0
   -6.0950   24.2230  -30.9200 C   0  0  0  0  0  0  0  0  0  0  0  0
   -4.9200   25.5870  -30.5790 S   0  0  0  0  0  0  0  0  0  0  0  0
   -3.7260   24.5830  -29.6950 C   0  0  0  0  0  0  0  0  0  0  0  0
   -2.4110   24.9260  -29.6850 N   0  0  0  0  0  0  0  0  0  0  0  0
   -1.5030   24.1950  -28.9860 C   0  0  0  0  0  0  0  0  0  0  0  0
   -0.2940   24.5470  -28.9820 O   0  0  0  0  0  0  0  0  0  0  0  0
   -1.9240   23.0590  -28.2750 C   0  0  0  0  0  0  0  0  0  0  0  0
   -3.2750   22.7260  -28.3060 C   0  0  0  0  0  0  0  0  0  0  0  0
   -4.1500   23.4920  -29.0050 N   0  0  0  0  0  0  0  0  0  0  0  0
   -3.7500   21.5720  -27.4840 C   0  0  0  0  0  0  0  0  0  0  0  0
   -2.7740   20.3830  -27.5930 C   0  0  0  0  0  0  0  0  0  0  0  0
   -1.3310   20.7590  -27.6250 N   0  0  0  0  0  0  0  0  0  0  0  0
   -0.5530   20.0830  -28.6900 C   0  0  0  0  0  0  0  0  0  0  0  0
   -1.0020   20.4440  -30.0920 C   0  0  0  0  0  0  0  0  0  0  0  0
   -2.3660   20.4620  -30.4350 C   0  0  0  0  0  0  0  0  0  0  0  0
   -2.7680   20.8380  -31.7210 C   0  0  0  0  0  0  0  0  0  0  0  0
   -1.8110   21.1930  -32.6810 C   0  0  0  0  0  0  0  0  0  0  0  0
   -2.1980   21.5800  -33.9620 O   0  0  0  0  0  0  0  0  0  0  0  0
   -0.4520   21.1570  -32.3540 C   0  0  0  0  0  0  0  0  0  0  0  0
   -0.0480   20.7760  -31.0710 C   0  0  0  0  0  0  0  0  0  0  0  0
   -1.0100   22.1950  -27.4480 C   0  0  0  0  0  0  0  0  0  0  0  0
   -5.7270   21.7110  -30.9640 N   0  0  0  0  0  0  0  0  0  0  0  0
   -6.5770   20.7290  -31.5730 C   0  0  0  0  0  0  0  0  0  0  0  0
   -7.9670   20.7090  -31.3630 C   0  0  0  0  0  0  0  0  0  0  0  0
   -8.7520   19.7180  -31.9590 C   0  0  0  0  0  0  0  0  0  0  0  0
   -8.1610   18.7500  -32.7740 C   0  0  0  0  0  0  0  0  0  0  0  0
   -6.7820   18.7790  -33.0140 C   0  0  0  0  0  0  0  0  0  0  0  0
   -6.0380   17.5710  -34.0650 S   0  0  0  0  0  0  0  0  0  0  0  0
   -7.0090   16.4440  -34.2860 O   0  0  0  0  0  0  0  0  0  0  0  0
   -5.7430   18.1950  -35.4010 O   0  0  0  0  0  0  0  0  0  0  0  0
   -4.5530   16.9360  -33.3880 N   0  0  0  0  0  0  0  0  0  0  0  0
   -3.5460   17.9920  -33.2360 C   0  0  0  0  0  0  0  0  0  0  0  0
   -2.5780   17.9120  -34.4090 C   0  0  0  0  0  0  0  0  0  0  0  0
   -2.8840   16.6040  -35.1110 C   0  0  0  0  0  0  0  0  0  0  0  0
   -3.9580   15.9280  -34.2730 C   0  0  0  0  0  0  0  0  0  0  0  0
   -5.9960   19.7730  -32.4160 C   0  0  0  0  0  0  0  0  0  0  0  0
   -6.8467   24.5770  -31.6408 H   0  0  0  0  0  0  0  0  0  0  0  0
   -6.5558   23.9325  -29.9644 H   0  0  0  0  0  0  0  0  0  0  0  0
   -3.8218   21.8842  -26.4317 H   0  0  0  0  0  0  0  0  0  0  0  0
   -4.7348   21.2549  -27.8576 H   0  0  0  0  0  0  0  0  0  0  0  0
   -2.9372   19.7258  -26.7262 H   0  0  0  0  0  0  0  0  0  0  0  0
   -2.9879   19.8940  -28.5549 H   0  0  0  0  0  0  0  0  0  0  0  0
    0.5046   20.3649  -28.5802 H   0  0  0  0  0  0  0  0  0  0  0  0
   -0.7126   19.0014  -28.5688 H   0  0  0  0  0  0  0  0  0  0  0  0
   -3.1214   20.1786  -29.6873 H   0  0  0  0  0  0  0  0  0  0  0  0
   -3.8372   20.8550  -31.9791 H   0  0  0  0  0  0  0  0  0  0  0  0
   -3.0420   22.1190  -34.1220 H   0  0  0  0  0  0  0  0  0  0  0  0
    0.3011   21.4291  -33.1081 H   0  0  0  0  0  0  0  0  0  0  0  0
    1.0235   20.7355  -30.8253 H   0  0  0  0  0  0  0  0  0  0  0  0
   -1.1262   22.4613  -26.3870 H   0  0  0  0  0  0  0  0  0  0  0  0
    0.0256   22.3654  -27.7774 H   0  0  0  0  0  0  0  0  0  0  0  0
   -8.4375   21.4746  -30.7286 H   0  0  0  0  0  0  0  0  0  0  0  0
   -9.8381   19.7004  -31.7857 H   0  0  0  0  0  0  0  0  0  0  0  0
   -8.7805   17.9628  -33.2285 H   0  0  0  0  0  0  0  0  0  0  0  0
   -4.0385   18.9755  -33.2283 H   0  0  0  0  0  0  0  0  0  0  0  0
   -3.0016   17.8590  -32.2895 H   0  0  0  0  0  0  0  0  0  0  0  0
   -2.7346   18.7592  -35.0929 H   0  0  0  0  0  0  0  0  0  0  0  0
   -1.5315   17.9550  -34.0729 H   0  0  0  0  0  0  0  0  0  0  0  0
   -3.2545   16.7929  -36.1293 H   0  0  0  0  0  0  0  0  0  0  0  0
   -1.9868   15.9745  -35.2053 H   0  0  0  0  0  0  0  0  0  0  0  0
   -4.7325   15.5063  -34.9305 H   0  0  0  0  0  0  0  0  0  0  0  0
   -3.5187   15.1132  -33.6787 H   0  0  0  0  0  0  0  0  0  0  0  0
   -4.9137   19.8028  -32.6102 H   0  0  0  0  0  0  0  0  0  0  0  0
  1  2  2  0
  2  3  1  0
  3  4  1  0
  4  5  1  0
  5  6  2  0
  6  7  1  0
  7  8  2  0
  7  9  1  0
  9 10  2  0
 10 11  1  0
 10 12  1  0
 12 13  1  0
 13 14  1  0
 14 15  1  0
 15 16  1  0
 16 17  2  0
 17 18  1  0
 18 19  2  0
 19 20  1  0
 19 21  1  0
 21 22  2  0
 14 23  1  0
  2 24  1  0
 24 25  1  0
 25 26  2  0
 26 27  1  0
 27 28  2  0
 28 29  1  0
 29 30  1  0
 30 31  2  0
 30 32  2  0
 30 33  1  0
 33 34  1  0
 34 35  1  0
 35 36  1  0
 36 37  1  0
 29 38  2  0
 11  5  1  0
 22 16  1  0
 38 25  1  0
 23  9  1  0
 37 33  1  0
  3 39  1  0
  3 40  1  0
 12 41  1  0
 12 42  1  0
 13 43  1  0
 13 44  1  0
 15 45  1  0
 15 46  1  0
 17 47  1  0
 18 48  1  0
 20 49  1  0
 21 50  1  0
 22 51  1  0
 23 52  1  0
 23 53  1  0
 26 54  1  0
 27 55  1  0
 28 56  1  0
 34 57  1  0
 34 58  1  0
 35 59  1  0
 35 60  1  0
 36 61  1  0
 36 62  1  0
 37 63  1  0
 37 64  1  0
 38 65  1  0
M  CHG  2  11  -1  24  -1
M  END
>  <UniqueID>  (34) 
33

>  <SMILES>  (34) 
O=C(CSc1nc(=O)c2c([n-]1)CCN(Cc1ccc(O)cc1)C2)[N-]c1cccc(S(=O)(=O)N2CCCC2)c1

>  <Energy>  (34) 
80.90679037725442

>  <Genealogy>  (34) 
O=C(CSc1nc(=O)c2c([n-]1)CCN(Cc1ccc(O)cc1)C2)[N-]c1cccc(S(=O)(=O)N2CCCC2)c1 (protonated)
O=C(CSc1nc(=O)c2c([n-]1)CCN(Cc1ccc(O)cc1)C2)[N-]c1cccc(S(=O)(=O)N2CCCC2)c1 (3D coordinates assigned)
O=C(CSc1nc(=O)c2c([n-]1)CCN(Cc1ccc(O)cc1)C2)[N-]c1cccc(S(=O)(=O)N2CCCC2)c1 (nonaromatic ring conformer: 80.90679037725442 kcal/mol)

>  <smiles>  (34) 
O=C(CSc1nc(=O)c2c([nH]1)CCN(Cc1ccc(O)cc1)C2)Nc1cccc(S(=O)(=O)N2CCCC2)c1

>  <score_type>  (34) 
oracle

>  <origin>  (34) 
adgpu

>  <m_score__min__energy>  (34) 
-12.220000000000001

>  <m_primary>  (34) 
energy

$$$$
34:0
     RDKit          3D

 65 68  0  0  0  0  0  0  0  0999 V2000
   -1.0350   19.9110  -29.7850 O   0  0  0  0  0  0  0  0  0  0  0  0
   -0.6280   20.3220  -30.9060 C   0  0  0  0  0  0  0  0  0  0  0  0
   -0.8540   21.6810  -31.3000 N   0  0  0  0  0  0  0  0  0  0  0  0
   -1.4890   22.6410  -30.3970 C   0  0  0  0  0  0  0  0  0  0  0  0
   -2.9820   22.3400  -30.1840 C   0  0  0  0  0  0  0  0  0  0  0  0
   -3.8300   23.4880  -30.5730 N   0  0  0  0  0  0  0  0  0  0  0  0
   -4.5050   24.0560  -29.3900 C   0  0  0  0  0  0  0  0  0  0  0  0
   -5.3280   25.2980  -29.7940 C   0  0  0  0  0  0  0  0  0  0  0  0
   -5.5070   25.4060  -31.1960 O   0  0  0  0  0  0  0  0  0  0  0  0
   -5.9430   24.1700  -31.7200 C   0  0  0  0  0  0  0  0  0  0  0  0
   -4.8320   23.1100  -31.5940 C   0  0  0  0  0  0  0  0  0  0  0  0
    0.0480   19.3680  -31.8550 C   0  0  2  0  0  0  0  0  0  0  0  0
    1.1700   18.6050  -31.1670 C   0  0  0  0  0  0  0  0  0  0  0  0
    2.1770   18.3300  -32.2700 C   0  0  0  0  0  0  0  0  0  0  0  0
    1.7390   19.1920  -33.4510 C   0  0  0  0  0  0  0  0  0  0  0  0
    0.6760   20.0780  -32.9730 N   0  0  0  0  0  0  0  0  0  0  0  0
   -0.4600   20.4740  -34.2470 S   0  0  0  0  0  0  0  0  0  0  0  0
   -0.4630   21.9630  -34.4510 O   0  0  0  0  0  0  0  0  0  0  0  0
   -0.0100   19.8320  -35.5290 O   0  0  0  0  0  0  0  0  0  0  0  0
   -2.1030   19.9410  -33.8800 C   0  0  0  0  0  0  0  0  0  0  0  0
   -2.4790   18.6040  -34.0750 C   0  0  0  0  0  0  0  0  0  0  0  0
   -3.7700   18.1820  -33.7460 C   0  0  0  0  0  0  0  0  0  0  0  0
   -4.6990   19.0940  -33.2210 C   0  0  0  0  0  0  0  0  0  0  0  0
   -6.3090   18.5650  -32.7440 S   0  0  0  0  0  0  0  0  0  0  0  0
   -6.6140   17.2740  -33.4530 O   0  0  0  0  0  0  0  0  0  0  0  0
   -6.3540   18.3210  -31.2600 O   0  0  0  0  0  0  0  0  0  0  0  0
   -7.4830   19.7820  -33.2000 N   0  0  0  0  0  0  0  0  0  0  0  0
   -7.1760   21.0630  -32.5540 C   0  0  0  0  0  0  0  0  0  0  0  0
   -7.9730   21.1450  -31.2620 C   0  0  0  0  0  0  0  0  0  0  0  0
   -9.0470   20.0800  -31.3760 C   0  0  0  0  0  0  0  0  0  0  0  0
   -8.8190   19.4110  -32.7240 C   0  0  0  0  0  0  0  0  0  0  0  0
   -4.3270   20.4310  -33.0390 C   0  0  0  0  0  0  0  0  0  0  0  0
   -3.0390   20.8550  -33.3760 C   0  0  0  0  0  0  0  0  0  0  0  0
   -0.5850   21.9670  -32.2690 H   0  0  0  0  0  0  0  0  0  0  0  0
   -0.9778   22.6032  -29.4237 H   0  0  0  0  0  0  0  0  0  0  0  0
   -1.4079   23.6383  -30.8539 H   0  0  0  0  0  0  0  0  0  0  0  0
   -3.2607   21.4677  -30.7934 H   0  0  0  0  0  0  0  0  0  0  0  0
   -3.1434   22.1399  -29.1145 H   0  0  0  0  0  0  0  0  0  0  0  0
   -5.1762   23.3001  -28.9563 H   0  0  0  0  0  0  0  0  0  0  0  0
   -3.7466   24.3518  -28.6502 H   0  0  0  0  0  0  0  0  0  0  0  0
   -6.3173   25.2344  -29.3172 H   0  0  0  0  0  0  0  0  0  0  0  0
   -4.7713   26.1866  -29.4617 H   0  0  0  0  0  0  0  0  0  0  0  0
   -6.8299   23.8331  -31.1633 H   0  0  0  0  0  0  0  0  0  0  0  0
   -6.1911   24.3015  -32.7836 H   0  0  0  0  0  0  0  0  0  0  0  0
   -5.2861   22.1493  -31.3096 H   0  0  0  0  0  0  0  0  0  0  0  0
   -4.3205   23.0315  -32.5647 H   0  0  0  0  0  0  0  0  0  0  0  0
   -0.7422   18.6887  -32.2073 H   0  0  0  0  0  0  0  0  0  0  0  0
    1.6226   19.2140  -30.3706 H   0  0  0  0  0  0  0  0  0  0  0  0
    0.8139   17.6816  -30.6868 H   0  0  0  0  0  0  0  0  0  0  0  0
    3.1894   18.6110  -31.9443 H   0  0  0  0  0  0  0  0  0  0  0  0
    2.2087   17.2629  -32.5350 H   0  0  0  0  0  0  0  0  0  0  0  0
    2.5882   19.7870  -33.8181 H   0  0  0  0  0  0  0  0  0  0  0  0
    1.3792   18.5638  -34.2793 H   0  0  0  0  0  0  0  0  0  0  0  0
   -1.7557   17.8855  -34.4881 H   0  0  0  0  0  0  0  0  0  0  0  0
   -4.0591   17.1317  -33.8989 H   0  0  0  0  0  0  0  0  0  0  0  0
   -6.1001   21.1201  -32.3323 H   0  0  0  0  0  0  0  0  0  0  0  0
   -7.4422   21.8979  -33.2189 H   0  0  0  0  0  0  0  0  0  0  0  0
   -7.3237   20.9443  -30.3971 H   0  0  0  0  0  0  0  0  0  0  0  0
   -8.4062   22.1452  -31.1142 H   0  0  0  0  0  0  0  0  0  0  0  0
   -8.9485   19.3468  -30.5620 H   0  0  0  0  0  0  0  0  0  0  0  0
  -10.0565   20.5105  -31.3009 H   0  0  0  0  0  0  0  0  0  0  0  0
   -8.8847   18.3186  -32.6133 H   0  0  0  0  0  0  0  0  0  0  0  0
   -9.5832   19.7382  -33.4444 H   0  0  0  0  0  0  0  0  0  0  0  0
   -5.0512   21.1505  -32.6292 H   0  0  0  0  0  0  0  0  0  0  0  0
   -2.7582   21.9105  -33.2453 H   0  0  0  0  0  0  0  0  0  0  0  0
  1  2  2  0
  2  3  1  0
  3  4  1  0
  4  5  1  0
  5  6  1  0
  6  7  1  0
  7  8  1  0
  8  9  1  0
  9 10  1  0
 10 11  1  0
  2 12  1  0
 12 13  1  0
 13 14  1  0
 14 15  1  0
 15 16  1  0
 16 17  1  0
 17 18  2  0
 17 19  2  0
 17 20  1  0
 20 21  2  0
 21 22  1  0
 22 23  2  0
 23 24  1  0
 24 25  2  0
 24 26  2  0
 24 27  1  0
 27 28  1  0
 28 29  1  0
 29 30  1  0
 30 31  1  0
 23 32  1  0
 32 33  2  0
 11  6  1  0
 16 12  1  0
 33 20  1  0
 31 27  1  0
  3 34  1  0
  4 35  1  0
  4 36  1  0
  5 37  1  0
  5 38  1  0
  7 39  1  0
  7 40  1  0
  8 41  1  0
  8 42  1  0
 10 43  1  0
 10 44  1  0
 11 45  1  0
 11 46  1  0
 12 47  1  6
 13 48  1  0
 13 49  1  0
 14 50  1  0
 14 51  1  0
 15 52  1  0
 15 53  1  0
 21 54  1  0
 22 55  1  0
 28 56  1  0
 28 57  1  0
 29 58  1  0
 29 59  1  0
 30 60  1  0
 30 61  1  0
 31 62  1  0
 31 63  1  0
 32 64  1  0
 33 65  1  0
M  END
>  <UniqueID>  (35) 
34

>  <SMILES>  (35) 
O=C(NCCN1CCOCC1)[C@@H]1CCCN1S(=O)(=O)c1ccc(S(=O)(=O)N2CCCC2)cc1

>  <Energy>  (35) 
72.42901362252414

>  <Genealogy>  (35) 
O=C(NCCN1CCOCC1)[C@@H]1CCCN1S(=O)(=O)c1ccc(S(=O)(=O)N2CCCC2)cc1 (chirality)
O=C(NCCN1CCOCC1)[C@@H]1CCCN1S(=O)(=O)c1ccc(S(=O)(=O)N2CCCC2)cc1 (3D coordinates assigned)
O=C(NCCN1CCOCC1)[C@@H]1CCCN1S(=O)(=O)c1ccc(S(=O)(=O)N2CCCC2)cc1 (nonaromatic ring conformer: 72.42901362252414 kcal/mol)

>  <smiles>  (35) 
O=C(NCCN1CCOCC1)C1CCCN1S(=O)(=O)c1ccc(S(=O)(=O)N2CCCC2)cc1

>  <score_type>  (35) 
oracle

>  <origin>  (35) 
adgpu

>  <m_score__min__energy>  (35) 
-9.9399999999999995

>  <m_primary>  (35) 
energy

$$$$
35:0
     RDKit          3D

 45 47  0  0  0  0  0  0  0  0999 V2000
   -2.7810   19.9500  -27.4150 C   0  0  0  0  0  0  0  0  0  0  0  0
   -2.6700   21.3640  -27.9080 C   0  0  0  0  0  0  0  0  0  0  0  0
   -1.4170   21.9020  -28.2290 C   0  0  0  0  0  0  0  0  0  0  0  0
   -1.3170   23.2070  -28.7160 C   0  0  0  0  0  0  0  0  0  0  0  0
   -2.4650   23.9870  -28.8840 C   0  0  0  0  0  0  0  0  0  0  0  0
   -2.3360   25.2890  -29.3540 O   0  0  0  0  0  0  0  0  0  0  0  0
   -3.7320   23.4620  -28.5700 C   0  0  0  0  0  0  0  0  0  0  0  0
   -4.9060   24.2860  -28.7110 N   0  0  0  0  0  0  0  0  0  0  0  0
   -5.6280   24.6590  -30.2460 S   0  0  0  0  0  0  0  0  0  0  0  0
   -6.7150   25.6780  -30.0540 O   0  0  0  0  0  0  0  0  0  0  0  0
   -4.5770   25.2270  -31.1600 O   0  0  0  0  0  0  0  0  0  0  0  0
   -6.3360   23.2010  -30.9370 C   0  0  0  0  0  0  0  0  0  0  0  0
   -7.6990   23.1810  -31.2570 C   0  0  0  0  0  0  0  0  0  0  0  0
   -8.3010   21.9980  -31.6970 C   0  0  0  0  0  0  0  0  0  0  0  0
   -7.5410   20.8280  -31.8240 C   0  0  0  0  0  0  0  0  0  0  0  0
   -8.3080   19.3050  -32.2610 S   0  0  0  0  0  0  0  0  0  0  0  0
   -9.5210   19.5870  -33.1030 O   0  0  0  0  0  0  0  0  0  0  0  0
   -8.7420   18.5740  -31.0190 O   0  0  0  0  0  0  0  0  0  0  0  0
   -7.1710   18.3440  -33.1720 N   0  0  0  0  0  0  0  0  0  0  0  0
   -6.3640   19.1800  -34.0620 C   0  0  0  0  0  0  0  0  0  0  0  0
   -5.0260   18.4720  -34.2370 C   0  0  0  0  0  0  0  0  0  0  0  0
   -4.9640   17.4400  -33.1210 C   0  0  0  0  0  0  0  0  0  0  0  0
   -6.2170   17.6710  -32.2940 C   0  0  0  0  0  0  0  0  0  0  0  0
   -6.1740   20.8530  -31.5240 C   0  0  0  0  0  0  0  0  0  0  0  0
   -5.5720   22.0360  -31.0860 C   0  0  0  0  0  0  0  0  0  0  0  0
   -3.8240   22.1330  -28.1110 C   0  0  0  0  0  0  0  0  0  0  0  0
   -2.7815   19.9442  -26.3150 H   0  0  0  0  0  0  0  0  0  0  0  0
   -3.7168   19.5053  -27.7844 H   0  0  0  0  0  0  0  0  0  0  0  0
   -1.9260   19.3647  -27.7844 H   0  0  0  0  0  0  0  0  0  0  0  0
   -0.5093   21.2948  -28.0971 H   0  0  0  0  0  0  0  0  0  0  0  0
   -0.3305   23.6231  -28.9685 H   0  0  0  0  0  0  0  0  0  0  0  0
   -5.4440   24.5650  -27.8610 H   0  0  0  0  0  0  0  0  0  0  0  0
   -8.2981   24.0987  -31.1620 H   0  0  0  0  0  0  0  0  0  0  0  0
   -9.3729   21.9861  -31.9438 H   0  0  0  0  0  0  0  0  0  0  0  0
   -6.8645   19.2900  -35.0354 H   0  0  0  0  0  0  0  0  0  0  0  0
   -6.2260   20.1867  -33.6407 H   0  0  0  0  0  0  0  0  0  0  0  0
   -4.9771   17.9795  -35.2194 H   0  0  0  0  0  0  0  0  0  0  0  0
   -4.1822   19.1760  -34.1895 H   0  0  0  0  0  0  0  0  0  0  0  0
   -4.9589   16.4218  -33.5372 H   0  0  0  0  0  0  0  0  0  0  0  0
   -4.0494   17.5411  -32.5182 H   0  0  0  0  0  0  0  0  0  0  0  0
   -6.6284   16.7106  -31.9499 H   0  0  0  0  0  0  0  0  0  0  0  0
   -6.0003   18.2761  -31.4013 H   0  0  0  0  0  0  0  0  0  0  0  0
   -5.5718   19.9390  -31.6333 H   0  0  0  0  0  0  0  0  0  0  0  0
   -4.4961   22.0524  -30.8578 H   0  0  0  0  0  0  0  0  0  0  0  0
   -4.8124   21.6942  -27.9098 H   0  0  0  0  0  0  0  0  0  0  0  0
  1  2  1  0
  2  3  2  0
  3  4  1  0
  4  5  2  0
  5  6  1  0
  5  7  1  0
  7  8  1  0
  8  9  1  0
  9 10  2  0
  9 11  2  0
  9 12  1  0
 12 13  2  0
 13 14  1  0
 14 15  2  0
 15 16  1  0
 16 17  2  0
 16 18  2  0
 16 19  1  0
 19 20  1  0
 20 21  1  0
 21 22  1  0
 22 23  1  0
 15 24  1  0
 24 25  2  0
  7 26  2  0
 26  2  1  0
 25 12  1  0
 23 19  1  0
  1 27  1  0
  1 28  1  0
  1 29  1  0
  3 30  1  0
  4 31  1  0
  8 32  1  0
 13 33  1  0
 14 34  1  0
 20 35  1  0
 20 36  1  0
 21 37  1  0
 21 38  1  0
 22 39  1  0
 22 40  1  0
 23 41  1  0
 23 42  1  0
 24 43  1  0
 25 44  1  0
 26 45  1  0
M  CHG  1   6  -1
M  END
>  <UniqueID>  (36) 
35

>  <SMILES>  (36) 
Cc1ccc([O-])c(NS(=O)(=O)c2ccc(S(=O)(=O)N3CCCC3)cc2)c1

>  <Energy>  (36) 
48.03200825651369

>  <Genealogy>  (36) 
Cc1ccc([O-])c(NS(=O)(=O)c2ccc(S(=O)(=O)N3CCCC3)cc2)c1 (protonated)
Cc1ccc([O-])c(NS(=O)(=O)c2ccc(S(=O)(=O)N3CCCC3)cc2)c1 (3D coordinates assigned)
Cc1ccc([O-])c(NS(=O)(=O)c2ccc(S(=O)(=O)N3CCCC3)cc2)c1 (nonaromatic ring conformer: 48.03200825651369 kcal/mol)

>  <smiles>  (36) 
Cc1ccc(O)c(NS(=O)(=O)c2ccc(S(=O)(=O)N3CCCC3)cc2)c1

>  <score_type>  (36) 
oracle

>  <origin>  (36) 
adgpu

>  <m_score__min__energy>  (36) 
-14.15

>  <m_primary>  (36) 
energy

$$$$
36:0
     RDKit          3D

 28 29  0  0  0  0  0  0  0  0999 V2000
   -5.3740   26.4390  -29.0950 H   0  0  0  0  0  0  0  0  0  0  0  0
   -6.3020   26.0990  -29.3090 O   0  0  0  0  0  0  0  0  0  0  0  0
   -6.4650   25.0520  -30.1860 N   0  0  0  0  0  0  0  0  0  0  0  0
   -6.8500   23.8920  -29.7640 C   0  0  0  0  0  0  0  0  0  0  0  0
   -7.0193   23.7408  -28.6877 H   0  0  0  0  0  0  0  0  0  0  0  0
   -7.0680   22.7640  -30.6950 C   0  0  0  0  0  0  0  0  0  0  0  0
   -8.2310   21.9900  -30.5320 C   0  0  0  0  0  0  0  0  0  0  0  0
   -8.9097   22.1962  -29.6913 H   0  0  0  0  0  0  0  0  0  0  0  0
   -8.5320   20.9610  -31.4290 C   0  0  0  0  0  0  0  0  0  0  0  0
   -9.4434   20.3609  -31.2904 H   0  0  0  0  0  0  0  0  0  0  0  0
   -7.6790   20.6940  -32.4990 C   0  0  0  0  0  0  0  0  0  0  0  0
   -7.9278   19.8959  -33.2140 H   0  0  0  0  0  0  0  0  0  0  0  0
   -6.5100   21.4380  -32.6640 C   0  0  0  0  0  0  0  0  0  0  0  0
   -5.8443   21.2275  -33.5140 H   0  0  0  0  0  0  0  0  0  0  0  0
   -6.1780   22.4510  -31.7550 C   0  0  0  0  0  0  0  0  0  0  0  0
   -4.9600   23.1190  -31.9320 O   0  0  0  0  0  0  0  0  0  0  0  0
   -3.9410   23.2190  -30.9680 C   0  0  0  0  0  0  0  0  0  0  0  0
   -3.3680   22.0280  -30.5070 C   0  0  0  0  0  0  0  0  0  0  0  0
   -3.7344   21.0637  -30.8891 H   0  0  0  0  0  0  0  0  0  0  0  0
   -2.3360   22.0520  -29.5670 C   0  0  0  0  0  0  0  0  0  0  0  0
   -1.8893   21.1089  -29.2192 H   0  0  0  0  0  0  0  0  0  0  0  0
   -1.8690   23.2690  -29.0670 C   0  0  0  0  0  0  0  0  0  0  0  0
   -0.5660   23.2760  -27.8900 Cl  0  0  0  0  0  0  0  0  0  0  0  0
   -2.4470   24.4710  -29.4990 C   0  0  0  0  0  0  0  0  0  0  0  0
   -1.9870   25.6800  -28.9880 O   0  0  0  0  0  0  0  0  0  0  0  0
   -3.4910   24.4540  -30.4430 C   0  0  0  0  0  0  0  0  0  0  0  0
   -4.0910   25.6510  -30.8410 O   0  0  0  0  0  0  0  0  0  0  0  0
   -5.0770   25.7170  -31.0560 H   0  0  0  0  0  0  0  0  0  0  0  0
  1  2  1  0
  2  3  1  0
  3  4  2  0
  4  5  1  0
  4  6  1  0
  6  7  2  0
  7  8  1  0
  7  9  1  0
  9 10  1  0
  9 11  2  0
 11 12  1  0
 11 13  1  0
 13 14  1  0
 13 15  2  0
 15 16  1  0
 16 17  1  0
 17 18  2  0
 18 19  1  0
 18 20  1  0
 20 21  1  0
 20 22  2  0
 22 23  1  0
 22 24  1  0
 24 25  1  0
 24 26  2  0
 26 27  1  0
 27 28  1  0
 15  6  1  0
 26 17  1  0
M  CHG  1  25  -1
M  END
>  <UniqueID>  (37) 
36

>  <SMILES>  (37) 
[O-]c1c(Cl)ccc(Oc2ccccc2/C=N/O)c1O

>  <Energy>  (37) 
40.3281068279425

>  <Genealogy>  (37) 
[O-]c1c(Cl)ccc(Oc2ccccc2C=NO)c1O (protonated)
[O-]c1c(Cl)ccc(Oc2ccccc2/C=N/O)c1O (cis-trans isomerization)
[O-]c1c(Cl)ccc(Oc2ccccc2/C=N/O)c1O (3D coordinates assigned)
[O-]c1c(Cl)ccc(Oc2ccccc2/C=N/O)c1O (optimized conformer: 40.3281068279425 kcal/mol)

>  <smiles>  (37) 
ON=Cc1ccccc1Oc1ccc(Cl)c(O)c1O

>  <score_type>  (37) 
oracle

>  <origin>  (37) 
adgpu

>  <m_score__min__energy>  (37) 
-10.15

>  <m_primary>  (37) 
energy

$$$$
37:0
     RDKit          3D

 53 56  0  0  0  0  0  0  0  0999 V2000
   -5.8010   25.0670  -29.0410 O   0  0  0  0  0  0  0  0  0  0  0  0
   -5.4770   24.7450  -30.4740 S   0  0  0  0  0  0  0  0  0  0  0  0
   -5.8200   25.9350  -31.3250 O   0  0  0  0  0  0  0  0  0  0  0  0
   -3.7830   24.3980  -30.6210 N   0  0  0  0  0  0  0  0  0  0  0  0
   -3.0370   23.7290  -29.5890 C   0  0  0  0  0  0  0  0  0  0  0  0
   -3.3730   22.4260  -29.1860 C   0  0  0  0  0  0  0  0  0  0  0  0
   -2.6120   21.7500  -28.2200 C   0  0  0  0  0  0  0  0  0  0  0  0
   -1.5340   22.4160  -27.5940 C   0  0  0  0  0  0  0  0  0  0  0  0
   -1.2120   23.7240  -27.9840 C   0  0  0  0  0  0  0  0  0  0  0  0
   -1.9570   24.3780  -28.9700 C   0  0  0  0  0  0  0  0  0  0  0  0
   -1.6040   25.6710  -29.3400 O   0  0  0  0  0  0  0  0  0  0  0  0
   -0.6480   21.7160  -26.5900 C   0  0  0  0  0  0  0  0  0  0  0  0
   -1.3130   20.4790  -25.9780 C   0  0  0  0  0  0  0  0  0  0  0  0
   -1.9210   19.6040  -27.0730 C   0  0  0  0  0  0  0  0  0  0  0  0
   -3.0340   20.3610  -27.8030 C   0  0  0  0  0  0  0  0  0  0  0  0
   -6.4110   23.3610  -31.0340 C   0  0  0  0  0  0  0  0  0  0  0  0
   -7.7990   23.4650  -31.1490 C   0  0  0  0  0  0  0  0  0  0  0  0
   -8.5450   22.3930  -31.6380 C   0  0  0  0  0  0  0  0  0  0  0  0
   -7.9150   21.2050  -32.0280 C   0  0  0  0  0  0  0  0  0  0  0  0
   -8.9400   19.9060  -32.6260 Cl  0  0  0  0  0  0  0  0  0  0  0  0
   -6.5090   21.0910  -31.9210 C   0  0  0  0  0  0  0  0  0  0  0  0
   -5.6210   19.6280  -32.3930 S   0  0  0  0  0  0  0  0  0  0  0  0
   -5.4270   18.7780  -31.1670 O   0  0  0  0  0  0  0  0  0  0  0  0
   -4.2540   19.9790  -32.9060 O   0  0  0  0  0  0  0  0  0  0  0  0
   -6.4700   18.6890  -33.6050 N   0  0  0  0  0  0  0  0  0  0  0  0
   -6.9010   17.3700  -33.1060 C   0  0  0  0  0  0  0  0  0  0  0  0
   -5.7910   16.2940  -33.1920 C   0  0  0  0  0  0  0  0  0  0  0  0
   -4.6340   16.7410  -33.8690 O   0  0  0  0  0  0  0  0  0  0  0  0
   -5.0000   17.3040  -35.1060 C   0  0  0  0  0  0  0  0  0  0  0  0
   -5.7510   18.6300  -34.8960 C   0  0  0  0  0  0  0  0  0  0  0  0
   -5.7720   22.1750  -31.4200 C   0  0  0  0  0  0  0  0  0  0  0  0
   -3.3540   24.5280  -31.5640 H   0  0  0  0  0  0  0  0  0  0  0  0
   -4.2455   21.9282  -29.6342 H   0  0  0  0  0  0  0  0  0  0  0  0
   -0.3648   24.2407  -27.5094 H   0  0  0  0  0  0  0  0  0  0  0  0
    0.2784   21.4044  -27.0947 H   0  0  0  0  0  0  0  0  0  0  0  0
   -0.4467   22.4243  -25.7728 H   0  0  0  0  0  0  0  0  0  0  0  0
   -0.5593   19.8979  -25.4265 H   0  0  0  0  0  0  0  0  0  0  0  0
   -2.1127   20.8044  -25.2964 H   0  0  0  0  0  0  0  0  0  0  0  0
   -1.1371   19.3279  -27.7937 H   0  0  0  0  0  0  0  0  0  0  0  0
   -2.3461   18.6998  -26.6130 H   0  0  0  0  0  0  0  0  0  0  0  0
   -3.3158   19.7932  -28.7020 H   0  0  0  0  0  0  0  0  0  0  0  0
   -3.8800   20.4636  -27.1075 H   0  0  0  0  0  0  0  0  0  0  0  0
   -8.3054   24.3955  -30.8529 H   0  0  0  0  0  0  0  0  0  0  0  0
   -9.6385   22.4816  -31.7181 H   0  0  0  0  0  0  0  0  0  0  0  0
   -7.2046   17.4761  -32.0541 H   0  0  0  0  0  0  0  0  0  0  0  0
   -7.7322   17.0345  -33.7436 H   0  0  0  0  0  0  0  0  0  0  0  0
   -5.5073   16.0019  -32.1702 H   0  0  0  0  0  0  0  0  0  0  0  0
   -6.1990   15.4484  -33.7651 H   0  0  0  0  0  0  0  0  0  0  0  0
   -4.0935   17.4920  -35.7000 H   0  0  0  0  0  0  0  0  0  0  0  0
   -5.6616   16.6013  -35.6337 H   0  0  0  0  0  0  0  0  0  0  0  0
   -5.0232   19.4541  -34.9298 H   0  0  0  0  0  0  0  0  0  0  0  0
   -6.5025   18.7125  -35.6951 H   0  0  0  0  0  0  0  0  0  0  0  0
   -4.6789   22.0927  -31.3291 H   0  0  0  0  0  0  0  0  0  0  0  0
  1  2  2  0
  2  3  2  0
  2  4  1  0
  4  5  1  0
  5  6  2  0
  6  7  1  0
  7  8  2  0
  8  9  1  0
  9 10  2  0
 10 11  1  0
  8 12  1  0
 12 13  1  0
 13 14  1  0
 14 15  1  0
  2 16  1  0
 16 17  2  0
 17 18  1  0
 18 19  2  0
 19 20  1  0
 19 21  1  0
 21 22  1  0
 22 23  2  0
 22 24  2  0
 22 25  1  0
 25 26  1  0
 26 27  1  0
 27 28  1  0
 28 29  1  0
 29 30  1  0
 21 31  2  0
 10  5  1  0
 31 16  1  0
 15  7  1  0
 30 25  1  0
  4 32  1  0
  6 33  1  0
  9 34  1  0
 12 35  1  0
 12 36  1  0
 13 37  1  0
 13 38  1  0
 14 39  1  0
 14 40  1  0
 15 41  1  0
 15 42  1  0
 17 43  1  0
 18 44  1  0
 26 45  1  0
 26 46  1  0
 27 47  1  0
 27 48  1  0
 29 49  1  0
 29 50  1  0
 30 51  1  0
 30 52  1  0
 31 53  1  0
M  CHG  1  11  -1
M  END
>  <UniqueID>  (38) 
37

>  <SMILES>  (38) 
O=S(=O)(Nc1cc2c(cc1[O-])CCCC2)c1ccc(Cl)c(S(=O)(=O)N2CCOCC2)c1

>  <Energy>  (38) 
70.1687944400599

>  <Genealogy>  (38) 
O=S(=O)(Nc1cc2c(cc1[O-])CCCC2)c1ccc(Cl)c(S(=O)(=O)N2CCOCC2)c1 (protonated)
O=S(=O)(Nc1cc2c(cc1[O-])CCCC2)c1ccc(Cl)c(S(=O)(=O)N2CCOCC2)c1 (3D coordinates assigned)
O=S(=O)(Nc1cc2c(cc1[O-])CCCC2)c1ccc(Cl)c(S(=O)(=O)N2CCOCC2)c1 (nonaromatic ring conformer: 70.1687944400599 kcal/mol)

>  <smiles>  (38) 
O=S(=O)(Nc1cc2c(cc1O)CCCC2)c1ccc(Cl)c(S(=O)(=O)N2CCOCC2)c1

>  <score_type>  (38) 
oracle

>  <origin>  (38) 
adgpu

>  <m_score__min__energy>  (38) 
-14.960000000000001

>  <m_primary>  (38) 
energy

$$$$
38:0
     RDKit          3D

 49 52  0  0  0  0  0  0  0  0999 V2000
   -0.4090   23.0390  -26.7790 C   0  0  0  0  0  0  0  0  0  0  0  0
   -0.4400   23.6590  -28.1430 C   0  0  0  0  0  0  0  0  0  0  0  0
    0.5960   24.2490  -28.5550 O   0  0  0  0  0  0  0  0  0  0  0  0
   -1.6640   23.6200  -28.9920 C   0  0  0  0  0  0  0  0  0  0  0  0
   -2.1710   22.3900  -29.4540 C   0  0  0  0  0  0  0  0  0  0  0  0
   -3.3210   22.3400  -30.2460 C   0  0  0  0  0  0  0  0  0  0  0  0
   -4.0010   23.5200  -30.5820 C   0  0  0  0  0  0  0  0  0  0  0  0
   -5.1700   23.5120  -31.4140 N   0  0  0  0  0  0  0  0  0  0  0  0
   -6.5230   23.7110  -30.9840 C   0  0  0  0  0  0  0  0  0  0  0  0
   -6.8460   24.7360  -30.3270 O   0  0  0  0  0  0  0  0  0  0  0  0
   -7.5580   22.7420  -31.3590 C   0  0  0  0  0  0  0  0  0  0  0  0
   -8.8600   23.0390  -31.7200 C   0  0  0  0  0  0  0  0  0  0  0  0
   -9.4620   21.8260  -31.9810 C   0  0  0  0  0  0  0  0  0  0  0  0
   -8.4870   20.8710  -31.7660 C   0  0  0  0  0  0  0  0  0  0  0  0
   -8.6700   19.3920  -31.8910 C   0  0  0  0  0  0  0  0  0  0  0  0
   -7.4250   18.7740  -32.4400 C   0  0  0  0  0  0  0  0  0  0  0  0
   -6.2660   19.4520  -32.5700 N   0  0  0  0  0  0  0  0  0  0  0  0
   -5.4330   18.5670  -33.1470 C   0  0  0  0  0  0  0  0  0  0  0  0
   -4.0310   18.8900  -33.4930 C   0  0  0  0  0  0  0  0  0  0  0  0
   -3.5740   20.2140  -33.3710 C   0  0  0  0  0  0  0  0  0  0  0  0
   -2.2490   20.5360  -33.6810 C   0  0  0  0  0  0  0  0  0  0  0  0
   -1.3660   19.5390  -34.1020 C   0  0  0  0  0  0  0  0  0  0  0  0
   -1.8040   18.2180  -34.2080 C   0  0  0  0  0  0  0  0  0  0  0  0
   -3.1280   17.8910  -33.9000 C   0  0  0  0  0  0  0  0  0  0  0  0
   -6.1230   17.3890  -33.3800 C   0  0  0  0  0  0  0  0  0  0  0  0
   -5.6230   16.1520  -34.0560 C   0  0  0  0  0  0  0  0  0  0  0  0
   -7.3840   17.5180  -32.9310 N   0  0  0  0  0  0  0  0  0  0  0  0
   -7.3660   21.4430  -31.3930 O   0  0  0  0  0  0  0  0  0  0  0  0
   -3.4920   24.7470  -30.1500 C   0  0  0  0  0  0  0  0  0  0  0  0
   -2.3390   24.8060  -29.3590 C   0  0  0  0  0  0  0  0  0  0  0  0
   -1.8700   26.0520  -28.9570 O   0  0  0  0  0  0  0  0  0  0  0  0
   -0.4486   23.8301  -26.0157 H   0  0  0  0  0  0  0  0  0  0  0  0
   -1.2749   22.3711  -26.6601 H   0  0  0  0  0  0  0  0  0  0  0  0
    0.5192   22.4608  -26.6601 H   0  0  0  0  0  0  0  0  0  0  0  0
   -1.6546   21.4560  -29.1877 H   0  0  0  0  0  0  0  0  0  0  0  0
   -3.6949   21.3708  -30.6077 H   0  0  0  0  0  0  0  0  0  0  0  0
   -9.3199   24.0361  -31.7853 H   0  0  0  0  0  0  0  0  0  0  0  0
  -10.5022   21.6545  -32.2951 H   0  0  0  0  0  0  0  0  0  0  0  0
   -8.8836   18.9651  -30.9000 H   0  0  0  0  0  0  0  0  0  0  0  0
   -9.5093   19.1854  -32.5714 H   0  0  0  0  0  0  0  0  0  0  0  0
   -4.2626   21.0010  -33.0298 H   0  0  0  0  0  0  0  0  0  0  0  0
   -1.9016   21.5760  -33.5932 H   0  0  0  0  0  0  0  0  0  0  0  0
   -0.3253   19.7949  -34.3500 H   0  0  0  0  0  0  0  0  0  0  0  0
   -1.1063   17.4328  -34.5344 H   0  0  0  0  0  0  0  0  0  0  0  0
   -3.4655   16.8468  -33.9763 H   0  0  0  0  0  0  0  0  0  0  0  0
   -5.3248   15.4142  -33.2966 H   0  0  0  0  0  0  0  0  0  0  0  0
   -6.4209   15.7295  -34.6843 H   0  0  0  0  0  0  0  0  0  0  0  0
   -4.7556   16.4026  -34.6843 H   0  0  0  0  0  0  0  0  0  0  0  0
   -4.0036   25.6781  -30.4350 H   0  0  0  0  0  0  0  0  0  0  0  0
  1  2  1  0
  2  3  2  0
  2  4  1  0
  4  5  2  0
  5  6  1  0
  6  7  2  0
  7  8  1  0
  8  9  1  0
  9 10  2  0
  9 11  1  0
 11 12  2  0
 12 13  1  0
 13 14  2  0
 14 15  1  0
 15 16  1  0
 16 17  2  0
 17 18  1  0
 18 19  1  0
 19 20  2  0
 20 21  1  0
 21 22  2  0
 22 23  1  0
 23 24  2  0
 18 25  2  0
 25 26  1  0
 25 27  1  0
 14 28  1  0
  7 29  1  0
 29 30  2  0
 30 31  1  0
 30  4  1  0
 28 11  1  0
 27 16  1  0
 24 19  1  0
  1 32  1  0
  1 33  1  0
  1 34  1  0
  5 35  1  0
  6 36  1  0
 12 37  1  0
 13 38  1  0
 15 39  1  0
 15 40  1  0
 20 41  1  0
 21 42  1  0
 22 43  1  0
 23 44  1  0
 24 45  1  0
 26 46  1  0
 26 47  1  0
 26 48  1  0
 29 49  1  0
M  CHG  3   8  -1  27  -1  31  -1
M  END
>  <UniqueID>  (39) 
38

>  <SMILES>  (39) 
CC(=O)c1ccc([N-]C(=O)c2ccc(Cc3nc(-c4ccccc4)c(C)[n-]3)o2)cc1[O-]

>  <Energy>  (39) 
112.25855484859213

>  <Genealogy>  (39) 
CC(=O)c1ccc([N-]C(=O)c2ccc(Cc3nc(-c4ccccc4)c(C)[n-]3)o2)cc1[O-] (protonated)
CC(=O)c1ccc([N-]C(=O)c2ccc(Cc3nc(-c4ccccc4)c(C)[n-]3)o2)cc1[O-] (3D coordinates assigned)
CC(=O)c1ccc([N-]C(=O)c2ccc(Cc3nc(-c4ccccc4)c(C)[n-]3)o2)cc1[O-] (optimized conformer: 112.25855484859213 kcal/mol)

>  <smiles>  (39) 
CC(=O)c1ccc(NC(=O)c2ccc(Cc3nc(-c4ccccc4)c(C)[nH]3)o2)cc1O

>  <score_type>  (39) 
oracle

>  <origin>  (39) 
adgpu

>  <m_score__min__energy>  (39) 
-13.15

>  <m_primary>  (39) 
energy

$$$$
39:0
     RDKit          3D

 59 63  0  0  0  0  0  0  0  0999 V2000
   -0.6530   19.0910  -28.8680 C   0  0  0  0  0  0  0  0  0  0  0  0
   -1.0490   20.5410  -28.8190 C   0  0  0  0  0  0  0  0  0  0  0  0
   -0.5340   21.4560  -29.7490 C   0  0  0  0  0  0  0  0  0  0  0  0
   -0.9170   22.7980  -29.7000 C   0  0  0  0  0  0  0  0  0  0  0  0
   -1.8030   23.2500  -28.7070 C   0  0  0  0  0  0  0  0  0  0  0  0
   -2.2540   24.9500  -28.6130 S   0  0  0  0  0  0  0  0  0  0  0  0
   -2.7250   25.3030  -27.2290 O   0  0  0  0  0  0  0  0  0  0  0  0
   -1.0490   25.7890  -28.9230 O   0  0  0  0  0  0  0  0  0  0  0  0
   -3.4890   25.2980  -29.7830 N   0  0  0  0  0  0  0  0  0  0  0  0
   -4.4440   24.3590  -30.3000 C   0  0  0  0  0  0  0  0  0  0  0  0
   -4.0400   23.2040  -31.0030 C   0  0  0  0  0  0  0  0  0  0  0  0
   -5.0230   22.3610  -31.5190 C   0  0  0  0  0  0  0  0  0  0  0  0
   -6.3680   22.6240  -31.3570 C   0  0  0  0  0  0  0  0  0  0  0  0
   -6.7960   23.7360  -30.6330 C   0  0  0  0  0  0  0  0  0  0  0  0
   -5.8260   24.6060  -30.0950 C   0  0  0  0  0  0  0  0  0  0  0  0
   -6.2270   25.7240  -29.3600 O   0  0  0  0  0  0  0  0  0  0  0  0
   -7.2160   21.5790  -32.0270 C   0  0  0  0  0  0  0  0  0  0  0  0
   -6.1500   20.6730  -32.5800 C   0  0  0  0  0  0  0  0  0  0  0  0
   -6.3240   19.4820  -33.2890 C   0  0  0  0  0  0  0  0  0  0  0  0
   -5.1830   18.7470  -33.6750 C   0  0  0  0  0  0  0  0  0  0  0  0
   -5.3650   17.2350  -34.5660 S   0  0  0  0  0  0  0  0  0  0  0  0
   -4.8720   17.4270  -35.9790 O   0  0  0  0  0  0  0  0  0  0  0  0
   -6.8300   16.8680  -34.6270 O   0  0  0  0  0  0  0  0  0  0  0  0
   -4.4690   15.9340  -33.8090 N   0  0  0  0  0  0  0  0  0  0  0  0
   -4.3990   14.7300  -34.6790 C   0  0  0  0  0  0  0  0  0  0  0  0
   -5.3340   13.5980  -34.2150 C   0  0  0  0  0  0  0  0  0  0  0  0
   -5.0220   13.1690  -32.7700 C   0  0  0  0  0  0  0  0  0  0  0  0
   -4.4950   14.3300  -31.9060 C   0  0  0  0  0  0  0  0  0  0  0  0
   -4.9810   15.6840  -32.4400 C   0  0  0  0  0  0  0  0  0  0  0  0
   -3.8930   19.2210  -33.3410 C   0  0  0  0  0  0  0  0  0  0  0  0
   -3.7370   20.4250  -32.6370 C   0  0  0  0  0  0  0  0  0  0  0  0
   -4.8840   21.1320  -32.2710 C   0  0  0  0  0  0  0  0  0  0  0  0
   -2.3060   22.3400  -27.7680 C   0  0  0  0  0  0  0  0  0  0  0  0
   -1.9360   20.9920  -27.8280 C   0  0  0  0  0  0  0  0  0  0  0  0
   -0.5475   18.7049  -27.8434 H   0  0  0  0  0  0  0  0  0  0  0  0
   -1.4273   18.5171  -29.3982 H   0  0  0  0  0  0  0  0  0  0  0  0
    0.3055   18.9904  -29.3982 H   0  0  0  0  0  0  0  0  0  0  0  0
    0.1737   21.1155  -30.5192 H   0  0  0  0  0  0  0  0  0  0  0  0
   -0.5226   23.5062  -30.4436 H   0  0  0  0  0  0  0  0  0  0  0  0
   -2.9732   22.9740  -31.1407 H   0  0  0  0  0  0  0  0  0  0  0  0
   -7.8685   23.9304  -30.4847 H   0  0  0  0  0  0  0  0  0  0  0  0
   -5.5640   26.2780  -28.8300 H   0  0  0  0  0  0  0  0  0  0  0  0
   -7.8600   21.0549  -31.3054 H   0  0  0  0  0  0  0  0  0  0  0  0
   -7.9184   21.9710  -32.7772 H   0  0  0  0  0  0  0  0  0  0  0  0
   -7.3327   19.1235  -33.5419 H   0  0  0  0  0  0  0  0  0  0  0  0
   -4.6803   15.0199  -35.7022 H   0  0  0  0  0  0  0  0  0  0  0  0
   -3.3689   14.3474  -34.6295 H   0  0  0  0  0  0  0  0  0  0  0  0
   -6.3750   13.9496  -34.2671 H   0  0  0  0  0  0  0  0  0  0  0  0
   -5.1815   12.7308  -34.8743 H   0  0  0  0  0  0  0  0  0  0  0  0
   -5.9431   12.7793  -32.3119 H   0  0  0  0  0  0  0  0  0  0  0  0
   -4.2338   12.4029  -32.8137 H   0  0  0  0  0  0  0  0  0  0  0  0
   -4.8542   14.2013  -30.8743 H   0  0  0  0  0  0  0  0  0  0  0  0
   -3.3955   14.3171  -31.9383 H   0  0  0  0  0  0  0  0  0  0  0  0
   -6.0808   15.6876  -32.4617 H   0  0  0  0  0  0  0  0  0  0  0  0
   -4.6043   16.4763  -31.7765 H   0  0  0  0  0  0  0  0  0  0  0  0
   -3.0054   18.6417  -33.6352 H   0  0  0  0  0  0  0  0  0  0  0  0
   -2.7362   20.8022  -32.3800 H   0  0  0  0  0  0  0  0  0  0  0  0
   -2.9933   22.6860  -26.9819 H   0  0  0  0  0  0  0  0  0  0  0  0
   -2.3426   20.2807  -27.0940 H   0  0  0  0  0  0  0  0  0  0  0  0
  1  2  1  0
  2  3  2  0
  3  4  1  0
  4  5  2  0
  5  6  1  0
  6  7  2  0
  6  8  2  0
  6  9  1  0
  9 10  1  0
 10 11  2  0
 11 12  1  0
 12 13  2  0
 13 14  1  0
 14 15  2  0
 15 16  1  0
 13 17  1  0
 17 18  1  0
 18 19  2  0
 19 20  1  0
 20 21  1  0
 21 22  2  0
 21 23  2  0
 21 24  1  0
 24 25  1  0
 25 26  1  0
 26 27  1  0
 27 28  1  0
 28 29  1  0
 20 30  2  0
 30 31  1  0
 31 32  2  0
  5 33  1  0
 33 34  2  0
 34  2  1  0
 15 10  1  0
 32 18  1  0
 32 12  1  0
 29 24  1  0
  1 35  1  0
  1 36  1  0
  1 37  1  0
  3 38  1  0
  4 39  1  0
 11 40  1  0
 14 41  1  0
 16 42  1  0
 17 43  1  0
 17 44  1  0
 19 45  1  0
 25 46  1  0
 25 47  1  0
 26 48  1  0
 26 49  1  0
 27 50  1  0
 27 51  1  0
 28 52  1  0
 28 53  1  0
 29 54  1  0
 29 55  1  0
 30 56  1  0
 31 57  1  0
 33 58  1  0
 34 59  1  0
M  CHG  1   9  -1
M  END
>  <UniqueID>  (40) 
39

>  <SMILES>  (40) 
Cc1ccc(S(=O)(=O)[N-]c2cc3c(cc2O)Cc2cc(S(=O)(=O)N4CCCCC4)ccc2-3)cc1

>  <Energy>  (40) 
94.20407068543247

>  <Genealogy>  (40) 
Cc1ccc(S(=O)(=O)[N-]c2cc3c(cc2O)Cc2cc(S(=O)(=O)N4CCCCC4)ccc2-3)cc1 (protonated)
Cc1ccc(S(=O)(=O)[N-]c2cc3c(cc2O)Cc2cc(S(=O)(=O)N4CCCCC4)ccc2-3)cc1 (3D coordinates assigned)
Cc1ccc(S(=O)(=O)[N-]c2cc3c(cc2O)Cc2cc(S(=O)(=O)N4CCCCC4)ccc2-3)cc1 (nonaromatic ring conformer: 94.20407068543247 kcal/mol)

>  <smiles>  (40) 
Cc1ccc(S(=O)(=O)Nc2cc3c(cc2O)Cc2cc(S(=O)(=O)N4CCCCC4)ccc2-3)cc1

>  <score_type>  (40) 
oracle

>  <origin>  (40) 
adgpu

>  <m_score__min__energy>  (40) 
-12.390000000000001

>  <m_primary>  (40) 
energy

$$$$
40:0
     RDKit          3D

 49 52  0  0  0  0  0  0  0  0999 V2000
   -5.7090   25.2230  -30.9060 O   0  0  0  0  0  0  0  0  0  0  0  0
   -4.6570   24.5310  -30.8600 C   0  0  0  0  0  0  0  0  0  0  0  0
   -4.6110   23.1980  -31.5660 C   0  0  0  0  0  0  0  0  0  0  0  0
   -5.9230   22.4610  -31.4580 C   0  0  0  0  0  0  0  0  0  0  0  0
   -6.9340   22.9060  -30.5780 C   0  0  0  0  0  0  0  0  0  0  0  0
   -8.1680   22.2270  -30.4940 C   0  0  0  0  0  0  0  0  0  0  0  0
   -8.4150   21.0950  -31.2890 C   0  0  0  0  0  0  0  0  0  0  0  0
   -7.4080   20.6700  -32.1540 C   0  0  0  0  0  0  0  0  0  0  0  0
   -7.4650   19.6160  -32.9890 N   0  0  0  0  0  0  0  0  0  0  0  0
   -6.2610   19.6260  -33.6040 C   0  0  0  0  0  0  0  0  0  0  0  0
   -5.8940   18.6900  -34.5620 O   0  0  0  0  0  0  0  0  0  0  0  0
   -5.4480   20.6630  -33.1760 C   0  0  0  0  0  0  0  0  0  0  0  0
   -6.2050   21.3290  -32.2370 C   0  0  0  0  0  0  0  0  0  0  0  0
   -3.4840   25.1090  -30.2730 N   0  0  0  0  0  0  0  0  0  0  0  0
   -2.6070   24.4490  -29.3540 C   0  0  0  0  0  0  0  0  0  0  0  0
   -2.7450   23.0710  -29.1510 C   0  0  0  0  0  0  0  0  0  0  0  0
   -1.8900   22.3920  -28.2720 C   0  0  0  0  0  0  0  0  0  0  0  0
   -2.0670   20.6540  -28.0210 S   0  0  0  0  0  0  0  0  0  0  0  0
   -2.8560   20.0680  -29.1610 O   0  0  0  0  0  0  0  0  0  0  0  0
   -2.8360   20.4120  -26.7520 O   0  0  0  0  0  0  0  0  0  0  0  0
   -0.5150   19.8580  -27.9150 N   0  0  0  0  0  0  0  0  0  0  0  0
    0.2790   20.0410  -29.1570 C   0  0  0  0  0  0  0  0  0  0  0  0
    0.2920   18.7920  -30.0500 C   0  0  0  0  0  0  0  0  0  0  0  0
    0.8600   17.5760  -29.2980 C   0  0  0  0  0  0  0  0  0  0  0  0
    0.5690   17.6220  -27.7860 C   0  0  0  0  0  0  0  0  0  0  0  0
   -0.6850   18.4510  -27.4910 C   0  0  0  0  0  0  0  0  0  0  0  0
   -0.8870   23.1040  -27.5990 C   0  0  0  0  0  0  0  0  0  0  0  0
   -0.7240   24.4730  -27.8230 C   0  0  0  0  0  0  0  0  0  0  0  0
   -1.5690   25.1450  -28.7090 C   0  0  0  0  0  0  0  0  0  0  0  0
   -1.3570   26.4950  -28.9660 O   0  0  0  0  0  0  0  0  0  0  0  0
   -4.3834   23.3658  -32.6290 H   0  0  0  0  0  0  0  0  0  0  0  0
   -3.8338   22.5843  -31.0872 H   0  0  0  0  0  0  0  0  0  0  0  0
   -6.7574   23.7922  -29.9508 H   0  0  0  0  0  0  0  0  0  0  0  0
   -8.9427   22.5866  -29.8008 H   0  0  0  0  0  0  0  0  0  0  0  0
   -9.3744   20.5602  -31.2305 H   0  0  0  0  0  0  0  0  0  0  0  0
   -4.4275   20.9011  -33.5106 H   0  0  0  0  0  0  0  0  0  0  0  0
   -3.5305   22.5166  -29.6854 H   0  0  0  0  0  0  0  0  0  0  0  0
   -0.1519   20.8762  -29.7287 H   0  0  0  0  0  0  0  0  0  0  0  0
    1.3180   20.2418  -28.8568 H   0  0  0  0  0  0  0  0  0  0  0  0
   -0.7367   18.5682  -30.3688 H   0  0  0  0  0  0  0  0  0  0  0  0
    0.9330   18.9933  -30.9210 H   0  0  0  0  0  0  0  0  0  0  0  0
    0.4103   16.6629  -29.7152 H   0  0  0  0  0  0  0  0  0  0  0  0
    1.9524   17.5871  -29.4262 H   0  0  0  0  0  0  0  0  0  0  0  0
    0.4166   16.5966  -27.4181 H   0  0  0  0  0  0  0  0  0  0  0  0
    1.4253   18.0912  -27.2794 H   0  0  0  0  0  0  0  0  0  0  0  0
   -1.5376   18.0148  -28.0321 H   0  0  0  0  0  0  0  0  0  0  0  0
   -0.8620   18.4359  -26.4054 H   0  0  0  0  0  0  0  0  0  0  0  0
   -0.2257   22.5822  -26.8916 H   0  0  0  0  0  0  0  0  0  0  0  0
    0.0721   25.0234  -27.3002 H   0  0  0  0  0  0  0  0  0  0  0  0
  1  2  2  0
  2  3  1  0
  3  4  1  0
  4  5  2  0
  5  6  1  0
  6  7  2  0
  7  8  1  0
  8  9  1  0
  9 10  1  0
 10 11  1  0
 10 12  2  0
 12 13  1  0
  2 14  1  0
 14 15  1  0
 15 16  2  0
 16 17  1  0
 17 18  1  0
 18 19  2  0
 18 20  2  0
 18 21  1  0
 21 22  1  0
 22 23  1  0
 23 24  1  0
 24 25  1  0
 25 26  1  0
 17 27  2  0
 27 28  1  0
 28 29  2  0
 29 30  1  0
 13  4  1  0
 29 15  1  0
 13  8  2  0
 26 21  1  0
  3 31  1  0
  3 32  1  0
  5 33  1  0
  6 34  1  0
  7 35  1  0
 12 36  1  0
 16 37  1  0
 22 38  1  0
 22 39  1  0
 23 40  1  0
 23 41  1  0
 24 42  1  0
 24 43  1  0
 25 44  1  0
 25 45  1  0
 26 46  1  0
 26 47  1  0
 27 48  1  0
 28 49  1  0
M  CHG  4   9  -1  11  -1  14  -1  30  -1
M  END
>  <UniqueID>  (41) 
40

>  <SMILES>  (41) 
O=C(Cc1cccc2[n-]c([O-])cc12)[N-]c1cc(S(=O)(=O)N2CCCCC2)ccc1[O-]

>  <Energy>  (41) 
95.5307180609511

>  <Genealogy>  (41) 
O=C(Cc1cccc2[n-]c([O-])cc12)[N-]c1cc(S(=O)(=O)N2CCCCC2)ccc1[O-] (protonated)
O=C(Cc1cccc2[n-]c([O-])cc12)[N-]c1cc(S(=O)(=O)N2CCCCC2)ccc1[O-] (3D coordinates assigned)
O=C(Cc1cccc2[n-]c([O-])cc12)[N-]c1cc(S(=O)(=O)N2CCCCC2)ccc1[O-] (nonaromatic ring conformer: 95.5307180609511 kcal/mol)

>  <smiles>  (41) 
O=C(Cc1cccc2[nH]c(O)cc12)Nc1cc(S(=O)(=O)N2CCCCC2)ccc1O

>  <score_type>  (41) 
oracle

>  <origin>  (41) 
adgpu

>  <m_score__min__energy>  (41) 
-14.44

>  <m_primary>  (41) 
energy

$$$$
41:0
     RDKit          3D

 41 43  0  0  0  0  0  0  0  0999 V2000
   -9.3930   19.0710  -32.1640 C   0  0  0  0  0  0  0  0  0  0  0  0
   -7.9060   19.1250  -32.3530 C   0  0  0  0  0  0  0  0  0  0  0  0
   -7.0670   18.2940  -31.5930 C   0  0  0  0  0  0  0  0  0  0  0  0
   -5.6790   18.3700  -31.7430 C   0  0  0  0  0  0  0  0  0  0  0  0
   -5.1110   19.2860  -32.6400 C   0  0  0  0  0  0  0  0  0  0  0  0
   -3.6850   19.3540  -32.8000 N   0  0  0  0  0  0  0  0  0  0  0  0
   -2.9090   18.7590  -33.7300 C   0  0  0  0  0  0  0  0  0  0  0  0
   -3.4050   17.9000  -34.8490 C   0  0  0  0  0  0  0  0  0  0  0  0
   -1.6030   19.0140  -33.5150 N   0  0  0  0  0  0  0  0  0  0  0  0
   -1.5300   19.7840  -32.4390 N   0  0  0  0  0  0  0  0  0  0  0  0
   -2.7920   19.9870  -32.0150 C   0  0  0  0  0  0  0  0  0  0  0  0
   -3.1920   20.9090  -30.5260 S   0  0  0  0  0  0  0  0  0  0  0  0
   -3.3240   22.5250  -31.3690 C   0  0  0  0  0  0  0  0  0  0  0  0
   -4.6210   23.2140  -31.0300 C   0  0  0  0  0  0  0  0  0  0  0  0
   -5.8290   22.5060  -31.1510 C   0  0  0  0  0  0  0  0  0  0  0  0
   -7.0530   23.1270  -30.8630 C   0  0  0  0  0  0  0  0  0  0  0  0
   -8.3390   22.3750  -31.0370 C   0  0  0  0  0  0  0  0  0  0  0  0
   -7.0690   24.4760  -30.4810 C   0  0  0  0  0  0  0  0  0  0  0  0
   -5.8740   25.1870  -30.3580 C   0  0  0  0  0  0  0  0  0  0  0  0
   -4.6510   24.5650  -30.6290 C   0  0  0  0  0  0  0  0  0  0  0  0
   -3.4770   25.2990  -30.5050 O   0  0  0  0  0  0  0  0  0  0  0  0
   -5.9500   20.1270  -33.3870 C   0  0  0  0  0  0  0  0  0  0  0  0
   -7.3380   20.0530  -33.2380 C   0  0  0  0  0  0  0  0  0  0  0  0
   -9.6259   19.0625  -31.0890 H   0  0  0  0  0  0  0  0  0  0  0  0
   -9.8544   19.9530  -32.6322 H   0  0  0  0  0  0  0  0  0  0  0  0
   -9.7892   18.1579  -32.6322 H   0  0  0  0  0  0  0  0  0  0  0  0
   -7.5031   17.5812  -30.8776 H   0  0  0  0  0  0  0  0  0  0  0  0
   -5.0285   17.7071  -31.1537 H   0  0  0  0  0  0  0  0  0  0  0  0
   -3.9147   17.0173  -34.4354 H   0  0  0  0  0  0  0  0  0  0  0  0
   -4.1104   18.4745  -35.4674 H   0  0  0  0  0  0  0  0  0  0  0  0
   -2.5548   17.5763  -35.4674 H   0  0  0  0  0  0  0  0  0  0  0  0
   -2.4857   23.1635  -31.0535 H   0  0  0  0  0  0  0  0  0  0  0  0
   -3.2948   22.3539  -32.4552 H   0  0  0  0  0  0  0  0  0  0  0  0
   -5.8143   21.4548  -31.4747 H   0  0  0  0  0  0  0  0  0  0  0  0
   -8.7572   22.1304  -30.0494 H   0  0  0  0  0  0  0  0  0  0  0  0
   -9.0548   22.9968  -31.5946 H   0  0  0  0  0  0  0  0  0  0  0  0
   -8.1481   21.4462  -31.5946 H   0  0  0  0  0  0  0  0  0  0  0  0
   -8.0273   24.9762  -30.2774 H   0  0  0  0  0  0  0  0  0  0  0  0
   -5.8943   26.2417  -30.0464 H   0  0  0  0  0  0  0  0  0  0  0  0
   -5.5132   20.8482  -34.0935 H   0  0  0  0  0  0  0  0  0  0  0  0
   -7.9876   20.7256  -33.8174 H   0  0  0  0  0  0  0  0  0  0  0  0
  1  2  1  0
  2  3  2  0
  3  4  1  0
  4  5  2  0
  5  6  1  0
  6  7  1  0
  7  8  1  0
  7  9  2  0
  9 10  1  0
 10 11  2  0
 11 12  1  0
 12 13  1  0
 13 14  1  0
 14 15  2  0
 15 16  1  0
 16 17  1  0
 16 18  2  0
 18 19  1  0
 19 20  2  0
 20 21  1  0
  5 22  1  0
 22 23  2  0
 23  2  1  0
 11  6  1  0
 20 14  1  0
  1 24  1  0
  1 25  1  0
  1 26  1  0
  3 27  1  0
  4 28  1  0
  8 29  1  0
  8 30  1  0
  8 31  1  0
 13 32  1  0
 13 33  1  0
 15 34  1  0
 17 35  1  0
 17 36  1  0
 17 37  1  0
 18 38  1  0
 19 39  1  0
 22 40  1  0
 23 41  1  0
M  CHG  1  21  -1
M  END
>  <UniqueID>  (42) 
41

>  <SMILES>  (42) 
Cc1ccc(-n2c(C)nnc2SCc2cc(C)ccc2[O-])cc1

>  <Energy>  (42) 
76.51376078562339

>  <Genealogy>  (42) 
Cc1ccc(-n2c(C)nnc2SCc2cc(C)ccc2[O-])cc1 (protonated)
Cc1ccc(-n2c(C)nnc2SCc2cc(C)ccc2[O-])cc1 (3D coordinates assigned)
Cc1ccc(-n2c(C)nnc2SCc2cc(C)ccc2[O-])cc1 (optimized conformer: 76.51376078562339 kcal/mol)

>  <smiles>  (42) 
Cc1ccc(-n2c(C)nnc2SCc2cc(C)ccc2O)cc1

>  <score_type>  (42) 
oracle

>  <origin>  (42) 
adgpu

>  <m_score__min__energy>  (42) 
-11.76

>  <m_primary>  (42) 
energy

$$$$
42:0
     RDKit          3D

 42 45  0  0  0  0  0  0  0  0999 V2000
   -6.4410   17.0150  -34.3230 N   0  0  0  0  0  0  0  0  0  0  0  0
   -6.2260   18.0430  -33.8370 C   0  0  0  0  0  0  0  0  0  0  0  0
   -5.9590   19.3230  -33.2340 C   0  0  0  0  0  0  0  0  0  0  0  0
   -6.9730   19.9990  -32.5450 C   0  0  0  0  0  0  0  0  0  0  0  0
   -6.7120   21.2410  -31.9570 C   0  0  0  0  0  0  0  0  0  0  0  0
   -5.4340   21.8140  -32.0460 C   0  0  0  0  0  0  0  0  0  0  0  0
   -5.1610   23.1540  -31.4160 C   0  0  0  0  0  0  0  0  0  0  0  0
   -4.9380   23.0200  -30.0110 O   0  0  0  0  0  0  0  0  0  0  0  0
   -3.7360   23.3120  -29.3460 C   0  0  0  0  0  0  0  0  0  0  0  0
   -3.1750   22.4480  -28.3840 C   0  0  0  0  0  0  0  0  0  0  0  0
   -1.9750   22.7890  -27.7350 C   0  0  0  0  0  0  0  0  0  0  0  0
   -1.3840   21.9590  -26.7700 C   0  0  0  0  0  0  0  0  0  0  0  0
   -1.9130   20.8600  -26.4450 O   0  0  0  0  0  0  0  0  0  0  0  0
   -0.1920   22.3540  -26.1610 C   0  0  0  0  0  0  0  0  0  0  0  0
    0.3930   23.5800  -26.5250 C   0  0  0  0  0  0  0  0  0  0  0  0
    1.6610   24.0530  -25.9160 C   0  0  0  0  0  0  0  0  0  0  0  0
    2.7770   24.2990  -26.7380 C   0  0  0  0  0  0  0  0  0  0  0  0
    3.9790   24.7540  -26.1890 C   0  0  0  0  0  0  0  0  0  0  0  0
    4.0810   24.9780  -24.8150 C   0  0  0  0  0  0  0  0  0  0  0  0
    2.9790   24.7530  -23.9870 C   0  0  0  0  0  0  0  0  0  0  0  0
    1.7740   24.2970  -24.5310 C   0  0  0  0  0  0  0  0  0  0  0  0
   -0.1910   24.3360  -27.4530 O   0  0  0  0  0  0  0  0  0  0  0  0
   -1.3270   24.0000  -28.0590 C   0  0  0  0  0  0  0  0  0  0  0  0
   -1.8800   24.8520  -29.0210 C   0  0  0  0  0  0  0  0  0  0  0  0
   -1.2400   26.0440  -29.3420 O   0  0  0  0  0  0  0  0  0  0  0  0
   -3.0760   24.5090  -29.6600 C   0  0  0  0  0  0  0  0  0  0  0  0
   -3.6200   25.3650  -30.6130 O   0  0  0  0  0  0  0  0  0  0  0  0
   -4.4240   21.1370  -32.7510 C   0  0  0  0  0  0  0  0  0  0  0  0
   -4.6850   19.8950  -33.3370 C   0  0  0  0  0  0  0  0  0  0  0  0
   -7.9755   19.5532  -32.4660 H   0  0  0  0  0  0  0  0  0  0  0  0
   -7.5131   21.7717  -31.4217 H   0  0  0  0  0  0  0  0  0  0  0  0
   -4.2680   23.5960  -31.8820 H   0  0  0  0  0  0  0  0  0  0  0  0
   -6.0362   23.8015  -31.5731 H   0  0  0  0  0  0  0  0  0  0  0  0
   -3.6789   21.5013  -28.1394 H   0  0  0  0  0  0  0  0  0  0  0  0
    0.2848   21.7134  -25.4045 H   0  0  0  0  0  0  0  0  0  0  0  0
    2.7023   24.1315  -27.8226 H   0  0  0  0  0  0  0  0  0  0  0  0
    4.8462   24.9359  -26.8408 H   0  0  0  0  0  0  0  0  0  0  0  0
    5.0294   25.3318  -24.3843 H   0  0  0  0  0  0  0  0  0  0  0  0
    3.0590   24.9348  -22.9051 H   0  0  0  0  0  0  0  0  0  0  0  0
    0.9080   24.1273  -23.8743 H   0  0  0  0  0  0  0  0  0  0  0  0
   -3.4241   21.5863  -32.8420 H   0  0  0  0  0  0  0  0  0  0  0  0
   -3.8880   19.3660  -33.8801 H   0  0  0  0  0  0  0  0  0  0  0  0
  1  2  3  0
  2  3  1  0
  3  4  2  0
  4  5  1  0
  5  6  2  0
  6  7  1  0
  7  8  1  0
  8  9  1  0
  9 10  2  0
 10 11  1  0
 11 12  1  0
 12 13  2  0
 12 14  1  0
 14 15  2  0
 15 16  1  0
 16 17  2  0
 17 18  1  0
 18 19  2  0
 19 20  1  0
 20 21  2  0
 15 22  1  0
 22 23  1  0
 23 24  1  0
 24 25  1  0
 24 26  2  0
 26 27  1  0
  6 28  1  0
 28 29  2  0
 29  3  1  0
 26  9  1  0
 23 11  2  0
 21 16  1  0
  4 30  1  0
  5 31  1  0
  7 32  1  0
  7 33  1  0
 10 34  1  0
 14 35  1  0
 17 36  1  0
 18 37  1  0
 19 38  1  0
 20 39  1  0
 21 40  1  0
 28 41  1  0
 29 42  1  0
M  CHG  2  25  -1  27  -1
M  END
>  <UniqueID>  (43) 
42

>  <SMILES>  (43) 
N#Cc1ccc(COc2cc3c(=O)cc(-c4ccccc4)oc3c([O-])c2[O-])cc1

>  <Energy>  (43) 
55.40727424470044

>  <Genealogy>  (43) 
N#Cc1ccc(COc2cc3c(=O)cc(-c4ccccc4)oc3c([O-])c2[O-])cc1 (protonated)
N#Cc1ccc(COc2cc3c(=O)cc(-c4ccccc4)oc3c([O-])c2[O-])cc1 (3D coordinates assigned)
N#Cc1ccc(COc2cc3c(=O)cc(-c4ccccc4)oc3c([O-])c2[O-])cc1 (optimized conformer: 55.40727424470044 kcal/mol)

>  <smiles>  (43) 
N#Cc1ccc(COc2cc3c(=O)cc(-c4ccccc4)oc3c(O)c2O)cc1

>  <score_type>  (43) 
oracle

>  <origin>  (43) 
adgpu

>  <m_score__min__energy>  (43) 
-14.1

>  <m_primary>  (43) 
energy

$$$$
43:0
     RDKit          3D

 55 58  0  0  0  0  0  0  0  0999 V2000
   -5.2920   18.9290  -34.2180 C   0  0  0  0  0  0  0  0  0  0  0  0
   -6.3650   18.8620  -33.1860 C   0  0  0  0  0  0  0  0  0  0  0  0
   -7.1440   19.9130  -32.7550 C   0  0  0  0  0  0  0  0  0  0  0  0
   -7.9550   19.3220  -31.8040 C   0  0  0  0  0  0  0  0  0  0  0  0
   -8.8860   19.9010  -31.1060 N   0  0  0  0  0  0  0  0  0  0  0  0
   -9.2930   21.5840  -31.2200 S   0  0  0  0  0  0  0  0  0  0  0  0
   -9.8880   21.8550  -32.5720 O   0  0  0  0  0  0  0  0  0  0  0  0
  -10.3120   21.9100  -30.1630 O   0  0  0  0  0  0  0  0  0  0  0  0
   -7.8580   22.5830  -31.0190 C   0  0  0  0  0  0  0  0  0  0  0  0
   -7.2320   22.6780  -29.7680 C   0  0  0  0  0  0  0  0  0  0  0  0
   -6.0770   23.4500  -29.6170 C   0  0  0  0  0  0  0  0  0  0  0  0
   -5.5280   24.1250  -30.7130 C   0  0  0  0  0  0  0  0  0  0  0  0
   -4.3290   24.8930  -30.5270 N   0  0  0  0  0  0  0  0  0  0  0  0
   -3.0680   24.3900  -30.0630 C   0  0  0  0  0  0  0  0  0  0  0  0
   -2.4000   25.0880  -29.2550 O   0  0  0  0  0  0  0  0  0  0  0  0
   -2.5540   23.0640  -30.4750 C   0  0  0  0  0  0  0  0  0  0  0  0
   -3.3010   22.2400  -31.3350 C   0  0  0  0  0  0  0  0  0  0  0  0
   -2.7800   21.0200  -31.7720 C   0  0  0  0  0  0  0  0  0  0  0  0
   -1.5120   20.6010  -31.3500 C   0  0  0  0  0  0  0  0  0  0  0  0
   -0.8090   19.1150  -31.9940 S   0  0  0  0  0  0  0  0  0  0  0  0
   -1.9150   18.1580  -32.3420 O   0  0  0  0  0  0  0  0  0  0  0  0
    0.0480   18.4730  -30.9390 O   0  0  0  0  0  0  0  0  0  0  0  0
    0.1510   19.4330  -33.4230 N   0  0  0  0  0  0  0  0  0  0  0  0
    1.3700   20.1920  -33.0660 C   0  0  0  0  0  0  0  0  0  0  0  0
    1.9140   20.9570  -34.2840 C   0  0  0  0  0  0  0  0  0  0  0  0
    1.0020   21.9080  -34.8200 O   0  0  0  0  0  0  0  0  0  0  0  0
   -0.3610   21.6110  -34.5510 C   0  0  0  0  0  0  0  0  0  0  0  0
   -0.6520   20.0990  -34.4780 C   0  0  0  0  0  0  0  0  0  0  0  0
   -0.7900   21.3920  -30.4470 C   0  0  0  0  0  0  0  0  0  0  0  0
   -1.3080   22.6140  -30.0100 C   0  0  0  0  0  0  0  0  0  0  0  0
   -6.1800   24.0620  -31.9580 C   0  0  0  0  0  0  0  0  0  0  0  0
   -7.3350   23.2900  -32.1100 C   0  0  0  0  0  0  0  0  0  0  0  0
   -7.6630   18.0140  -31.6840 N   0  0  0  0  0  0  0  0  0  0  0  0
   -6.7000   17.7750  -32.5280 O   0  0  0  0  0  0  0  0  0  0  0  0
   -4.3112   18.9902  -33.7237 H   0  0  0  0  0  0  0  0  0  0  0  0
   -5.3304   18.0267  -34.8460 H   0  0  0  0  0  0  0  0  0  0  0  0
   -5.4424   19.8195  -34.8460 H   0  0  0  0  0  0  0  0  0  0  0  0
   -7.1255   20.9620  -33.0854 H   0  0  0  0  0  0  0  0  0  0  0  0
   -7.6512   22.1433  -28.9029 H   0  0  0  0  0  0  0  0  0  0  0  0
   -5.5964   23.5276  -28.6306 H   0  0  0  0  0  0  0  0  0  0  0  0
   -4.3009   22.5578  -31.6654 H   0  0  0  0  0  0  0  0  0  0  0  0
   -3.3684   20.3852  -32.4509 H   0  0  0  0  0  0  0  0  0  0  0  0
    0.4510   18.4980  -33.7910 H   0  0  0  0  0  0  0  0  0  0  0  0
    1.1272   20.9097  -32.2685 H   0  0  0  0  0  0  0  0  0  0  0  0
    2.1384   19.4835  -32.7230 H   0  0  0  0  0  0  0  0  0  0  0  0
    2.8287   21.4870  -33.9802 H   0  0  0  0  0  0  0  0  0  0  0  0
    2.1002   20.2127  -35.0723 H   0  0  0  0  0  0  0  0  0  0  0  0
   -0.6341   22.0661  -33.5875 H   0  0  0  0  0  0  0  0  0  0  0  0
   -0.9538   22.0173  -35.3838 H   0  0  0  0  0  0  0  0  0  0  0  0
   -1.7198   19.9522  -34.2585 H   0  0  0  0  0  0  0  0  0  0  0  0
   -0.3820   19.6520  -35.4461 H   0  0  0  0  0  0  0  0  0  0  0  0
    0.1890   21.0497  -30.0803 H   0  0  0  0  0  0  0  0  0  0  0  0
   -0.7363   23.2269  -29.2976 H   0  0  0  0  0  0  0  0  0  0  0  0
   -5.7791   24.6226  -32.8153 H   0  0  0  0  0  0  0  0  0  0  0  0
   -7.8348   23.2372  -33.0885 H   0  0  0  0  0  0  0  0  0  0  0  0
  1  2  1  0
  2  3  2  0
  3  4  1  0
  4  5  2  3
  5  6  1  0
  6  7  2  0
  6  8  2  0
  6  9  1  0
  9 10  2  0
 10 11  1  0
 11 12  2  0
 12 13  1  0
 13 14  1  0
 14 15  2  0
 14 16  1  0
 16 17  2  0
 17 18  1  0
 18 19  2  0
 19 20  1  0
 20 21  2  0
 20 22  2  0
 20 23  1  0
 23 24  1  0
 24 25  1  0
 25 26  1  0
 26 27  1  0
 27 28  1  0
 19 29  1  0
 29 30  2  0
 12 31  1  0
 31 32  2  0
  4 33  1  0
 33 34  1  0
 34  2  1  0
 32  9  1  0
 30 16  1  0
 28 23  1  0
  1 35  1  0
  1 36  1  0
  1 37  1  0
  3 38  1  0
 10 39  1  0
 11 40  1  0
 17 41  1  0
 18 42  1  0
 23 43  1  0
 24 44  1  0
 24 45  1  0
 25 46  1  0
 25 47  1  0
 27 48  1  0
 27 49  1  0
 28 50  1  0
 28 51  1  0
 29 52  1  0
 30 53  1  0
 31 54  1  0
 32 55  1  0
M  CHG  3  13  -1  23   1  33  -1
M  END
>  <UniqueID>  (44) 
43

>  <SMILES>  (44) 
Cc1cc(=NS(=O)(=O)c2ccc([N-]C(=O)c3ccc(S(=O)(=O)[NH+]4CCOCC4)cc3)cc2)[n-]o1

>  <Energy>  (44) 
104.65284235346047

>  <Genealogy>  (44) 
Cc1cc(=NS(=O)(=O)c2ccc([N-]C(=O)c3ccc(S(=O)(=O)[NH+]4CCOCC4)cc3)cc2)[n-]o1 (protonated)
Cc1cc(=NS(=O)(=O)c2ccc([N-]C(=O)c3ccc(S(=O)(=O)[NH+]4CCOCC4)cc3)cc2)[n-]o1 (3D coordinates assigned)
Cc1cc(=NS(=O)(=O)c2ccc([N-]C(=O)c3ccc(S(=O)(=O)[NH+]4CCOCC4)cc3)cc2)[n-]o1 (nonaromatic ring conformer: 104.65284235346047 kcal/mol)

>  <smiles>  (44) 
Cc1cc(=NS(=O)(=O)c2ccc(NC(=O)c3ccc(S(=O)(=O)N4CCOCC4)cc3)cc2)[nH]o1

>  <score_type>  (44) 
oracle

>  <origin>  (44) 
adgpu

>  <m_score__min__energy>  (44) 
-12.699999999999999

>  <m_primary>  (44) 
energy

$$$$
44:0
     RDKit          3D

 54 57  0  0  0  0  0  0  0  0999 V2000
   -5.9620   25.8000  -29.8920 O   0  0  0  0  0  0  0  0  0  0  0  0
   -5.2180   25.2030  -30.7140 C   0  0  0  0  0  0  0  0  0  0  0  0
   -5.8100   24.5670  -31.8510 N   0  0  0  0  0  0  0  0  0  0  0  0
   -6.3120   23.2240  -31.9020 C   0  0  0  0  0  0  0  0  0  0  0  0
   -5.4710   22.1090  -31.7460 C   0  0  0  0  0  0  0  0  0  0  0  0
   -5.9930   20.8140  -31.8260 C   0  0  0  0  0  0  0  0  0  0  0  0
   -7.3580   20.6190  -32.0750 C   0  0  0  0  0  0  0  0  0  0  0  0
   -8.0340   18.9950  -32.1830 S   0  0  0  0  0  0  0  0  0  0  0  0
   -7.8730   18.2790  -30.8700 O   0  0  0  0  0  0  0  0  0  0  0  0
   -9.4990   19.1070  -32.4990 O   0  0  0  0  0  0  0  0  0  0  0  0
   -7.2250   18.0940  -33.4440 N   0  0  0  0  0  0  0  0  0  0  0  0
   -6.2680   18.9720  -34.1560 C   0  0  0  0  0  0  0  0  0  0  0  0
   -5.2300   18.1560  -34.9310 C   0  0  0  0  0  0  0  0  0  0  0  0
   -4.3800   17.2940  -33.9810 C   0  0  0  0  0  0  0  0  0  0  0  0
   -5.1180   16.9480  -32.6760 C   0  0  0  0  0  0  0  0  0  0  0  0
   -6.6320   16.8420  -32.9060 C   0  0  0  0  0  0  0  0  0  0  0  0
   -8.1930   21.7290  -32.2540 C   0  0  0  0  0  0  0  0  0  0  0  0
   -7.6700   23.0230  -32.1780 C   0  0  0  0  0  0  0  0  0  0  0  0
   -3.8010   25.1560  -30.5060 N   0  0  0  0  0  0  0  0  0  0  0  0
   -3.1290   24.3530  -29.5250 C   0  0  0  0  0  0  0  0  0  0  0  0
   -3.6360   23.0820  -29.2500 C   0  0  0  0  0  0  0  0  0  0  0  0
   -3.0320   22.2730  -28.2900 C   0  0  0  0  0  0  0  0  0  0  0  0
   -1.9110   22.7240  -27.5860 C   0  0  0  0  0  0  0  0  0  0  0  0
   -1.2310   21.6520  -26.3660 Cl  0  0  0  0  0  0  0  0  0  0  0  0
   -1.3870   24.0120  -27.8400 C   0  0  0  0  0  0  0  0  0  0  0  0
    0.0180   24.6080  -26.9320 S   0  0  0  0  0  0  0  0  0  0  0  0
    0.8660   23.4500  -26.4900 O   0  0  0  0  0  0  0  0  0  0  0  0
    0.8690   25.4980  -27.7960 O   0  0  0  0  0  0  0  0  0  0  0  0
   -0.5740   25.4930  -25.4910 C   0  0  0  0  0  0  0  0  0  0  0  0
   -2.0720   25.7460  -25.4810 C   0  0  0  0  0  0  0  0  0  0  0  0
   -1.1080   26.8900  -25.7560 C   0  0  0  0  0  0  0  0  0  0  0  0
   -2.0310   24.8400  -28.7880 C   0  0  0  0  0  0  0  0  0  0  0  0
   -1.6140   26.1540  -28.9660 O   0  0  0  0  0  0  0  0  0  0  0  0
   -4.3968   22.2555  -31.5600 H   0  0  0  0  0  0  0  0  0  0  0  0
   -5.3302   19.9462  -31.6931 H   0  0  0  0  0  0  0  0  0  0  0  0
   -6.8227   19.6078  -34.8617 H   0  0  0  0  0  0  0  0  0  0  0  0
   -5.7399   19.5844  -33.4103 H   0  0  0  0  0  0  0  0  0  0  0  0
   -5.7493   17.4990  -35.6442 H   0  0  0  0  0  0  0  0  0  0  0  0
   -4.5634   18.8523  -35.4609 H   0  0  0  0  0  0  0  0  0  0  0  0
   -4.1164   16.3581  -34.4954 H   0  0  0  0  0  0  0  0  0  0  0  0
   -3.4856   17.8759  -33.7137 H   0  0  0  0  0  0  0  0  0  0  0  0
   -4.7444   15.9854  -32.2969 H   0  0  0  0  0  0  0  0  0  0  0  0
   -4.9317   17.7505  -31.9471 H   0  0  0  0  0  0  0  0  0  0  0  0
   -6.8221   16.0282  -33.6212 H   0  0  0  0  0  0  0  0  0  0  0  0
   -7.1010   16.6478  -31.9301 H   0  0  0  0  0  0  0  0  0  0  0  0
   -9.2644   21.5820  -32.4552 H   0  0  0  0  0  0  0  0  0  0  0  0
   -8.3295   23.8891  -32.3360 H   0  0  0  0  0  0  0  0  0  0  0  0
   -4.5187   22.7165  -29.7951 H   0  0  0  0  0  0  0  0  0  0  0  0
   -3.4398   21.2723  -28.0843 H   0  0  0  0  0  0  0  0  0  0  0  0
    0.1549   25.0643  -24.7875 H   0  0  0  0  0  0  0  0  0  0  0  0
   -2.7021   25.3507  -26.2914 H   0  0  0  0  0  0  0  0  0  0  0  0
   -2.8861   25.5701  -24.7625 H   0  0  0  0  0  0  0  0  0  0  0  0
   -1.0409   27.3223  -26.7653 H   0  0  0  0  0  0  0  0  0  0  0  0
   -0.9360   27.8846  -25.3187 H   0  0  0  0  0  0  0  0  0  0  0  0
  1  2  2  0
  2  3  1  0
  3  4  1  0
  4  5  2  0
  5  6  1  0
  6  7  2  0
  7  8  1  0
  8  9  2  0
  8 10  2  0
  8 11  1  0
 11 12  1  0
 12 13  1  0
 13 14  1  0
 14 15  1  0
 15 16  1  0
  7 17  1  0
 17 18  2  0
  2 19  1  0
 19 20  1  0
 20 21  2  0
 21 22  1  0
 22 23  2  0
 23 24  1  0
 23 25  1  0
 25 26  1  0
 26 27  2  0
 26 28  2  0
 26 29  1  0
 29 30  1  0
 30 31  1  0
 25 32  2  0
 32 33  1  0
 18  4  1  0
 32 20  1  0
 16 11  1  0
 31 29  1  0
  5 34  1  0
  6 35  1  0
 12 36  1  0
 12 37  1  0
 13 38  1  0
 13 39  1  0
 14 40  1  0
 14 41  1  0
 15 42  1  0
 15 43  1  0
 16 44  1  0
 16 45  1  0
 17 46  1  0
 18 47  1  0
 21 48  1  0
 22 49  1  0
 29 50  1  0
 30 51  1  0
 30 52  1  0
 31 53  1  0
 31 54  1  0
M  CHG  3   3  -1  19  -1  33  -1
M  END
>  <UniqueID>  (45) 
44

>  <SMILES>  (45) 
O=C([N-]c1ccc(S(=O)(=O)N2CCCCC2)cc1)[N-]c1ccc(Cl)c(S(=O)(=O)C2CC2)c1[O-]

>  <Energy>  (45) 
336.51381572000315

>  <Genealogy>  (45) 
O=C([N-]c1ccc(S(=O)(=O)N2CCCCC2)cc1)[N-]c1ccc(Cl)c(S(=O)(=O)C2CC2)c1[O-] (protonated)
O=C([N-]c1ccc(S(=O)(=O)N2CCCCC2)cc1)[N-]c1ccc(Cl)c(S(=O)(=O)C2CC2)c1[O-] (3D coordinates assigned)
O=C([N-]c1ccc(S(=O)(=O)N2CCCCC2)cc1)[N-]c1ccc(Cl)c(S(=O)(=O)C2CC2)c1[O-] (nonaromatic ring conformer: 336.51381572000315 kcal/mol)

>  <smiles>  (45) 
O=C(Nc1ccc(S(=O)(=O)N2CCCCC2)cc1)Nc1ccc(Cl)c(S(=O)(=O)C2CC2)c1O

>  <score_type>  (45) 
oracle

>  <origin>  (45) 
adgpu

>  <m_score__min__energy>  (45) 
-17.219999999999999

>  <m_primary>  (45) 
energy

$$$$
45:0
     RDKit          3D

 52 55  0  0  0  0  0  0  0  0999 V2000
   -6.9020   25.1830  -29.7390 O   0  0  0  0  0  0  0  0  0  0  0  0
   -5.4710   24.8820  -30.0880 S   0  0  0  0  0  0  0  0  0  0  0  0
   -4.9050   26.0310  -30.8720 O   0  0  0  0  0  0  0  0  0  0  0  0
   -4.5610   24.6790  -28.6240 N   0  0  0  0  0  0  0  0  0  0  0  0
   -3.4160   23.8120  -28.5200 C   0  0  0  0  0  0  0  0  0  0  0  0
   -3.5440   22.4880  -28.0630 C   0  0  0  0  0  0  0  0  0  0  0  0
   -2.4320   21.6350  -28.0010 C   0  0  0  0  0  0  0  0  0  0  0  0
   -1.1550   22.1310  -28.3450 C   0  0  0  0  0  0  0  0  0  0  0  0
   -1.0260   23.4540  -28.7900 C   0  0  0  0  0  0  0  0  0  0  0  0
   -2.1430   24.2900  -28.8750 C   0  0  0  0  0  0  0  0  0  0  0  0
   -1.9780   25.5950  -29.3260 O   0  0  0  0  0  0  0  0  0  0  0  0
    0.0650   21.2380  -28.3490 C   0  0  0  0  0  0  0  0  0  0  0  0
   -0.1210   19.9810  -27.4940 C   0  0  0  0  0  0  0  0  0  0  0  0
   -1.4530   19.3070  -27.8190 C   0  0  0  0  0  0  0  0  0  0  0  0
   -2.6190   20.2350  -27.4640 C   0  0  0  0  0  0  0  0  0  0  0  0
   -5.3600   23.4220  -31.0670 C   0  0  0  0  0  0  0  0  0  0  0  0
   -6.5040   22.6630  -31.3500 C   0  0  0  0  0  0  0  0  0  0  0  0
   -6.3960   21.4820  -32.0910 C   0  0  0  0  0  0  0  0  0  0  0  0
   -5.1480   21.0540  -32.5610 C   0  0  0  0  0  0  0  0  0  0  0  0
   -5.0250   19.5600  -33.4860 S   0  0  0  0  0  0  0  0  0  0  0  0
   -6.0820   19.5330  -34.5550 O   0  0  0  0  0  0  0  0  0  0  0  0
   -3.6690   19.5120  -34.1320 O   0  0  0  0  0  0  0  0  0  0  0  0
   -5.2230   18.1870  -32.4180 N   0  0  0  0  0  0  0  0  0  0  0  0
   -6.4460   18.3240  -31.6210 C   0  0  0  0  0  0  0  0  0  0  0  0
   -7.5680   17.5900  -32.3410 C   0  0  0  0  0  0  0  0  0  0  0  0
   -6.8870   16.7160  -33.3750 C   0  0  0  0  0  0  0  0  0  0  0  0
   -5.3960   16.9550  -33.1940 C   0  0  0  0  0  0  0  0  0  0  0  0
   -4.0050   21.8150  -32.2790 C   0  0  0  0  0  0  0  0  0  0  0  0
   -4.1110   22.9950  -31.5380 C   0  0  0  0  0  0  0  0  0  0  0  0
   -4.7960   25.3200  -27.8330 H   0  0  0  0  0  0  0  0  0  0  0  0
   -4.5306   22.1159  -27.7496 H   0  0  0  0  0  0  0  0  0  0  0  0
   -0.0355   23.8382  -29.0752 H   0  0  0  0  0  0  0  0  0  0  0  0
    0.2737   20.9317  -29.3847 H   0  0  0  0  0  0  0  0  0  0  0  0
    0.8990   21.8122  -27.9192 H   0  0  0  0  0  0  0  0  0  0  0  0
    0.7001   19.2784  -27.6993 H   0  0  0  0  0  0  0  0  0  0  0  0
   -0.1166   20.2683  -26.4322 H   0  0  0  0  0  0  0  0  0  0  0  0
   -1.4890   19.0737  -28.8934 H   0  0  0  0  0  0  0  0  0  0  0  0
   -1.5394   18.3823  -27.2295 H   0  0  0  0  0  0  0  0  0  0  0  0
   -3.5440   19.8161  -27.8870 H   0  0  0  0  0  0  0  0  0  0  0  0
   -2.6687   20.3028  -26.3672 H   0  0  0  0  0  0  0  0  0  0  0  0
   -7.4879   22.9968  -30.9887 H   0  0  0  0  0  0  0  0  0  0  0  0
   -7.2955   20.8863  -32.3058 H   0  0  0  0  0  0  0  0  0  0  0  0
   -6.2924   17.8838  -30.6247 H   0  0  0  0  0  0  0  0  0  0  0  0
   -6.7035   19.3866  -31.5002 H   0  0  0  0  0  0  0  0  0  0  0  0
   -8.1391   16.9722  -31.6324 H   0  0  0  0  0  0  0  0  0  0  0  0
   -8.2794   18.2893  -32.8047 H   0  0  0  0  0  0  0  0  0  0  0  0
   -7.1299   15.6571  -33.2028 H   0  0  0  0  0  0  0  0  0  0  0  0
   -7.2175   16.9598  -34.3955 H   0  0  0  0  0  0  0  0  0  0  0  0
   -4.9454   16.1085  -32.6550 H   0  0  0  0  0  0  0  0  0  0  0  0
   -4.9035   17.0490  -34.1731 H   0  0  0  0  0  0  0  0  0  0  0  0
   -3.0215   21.4822  -32.6422 H   0  0  0  0  0  0  0  0  0  0  0  0
   -3.2113   23.5906  -31.3237 H   0  0  0  0  0  0  0  0  0  0  0  0
  1  2  2  0
  2  3  2  0
  2  4  1  0
  4  5  1  0
  5  6  2  0
  6  7  1  0
  7  8  2  0
  8  9  1  0
  9 10  2  0
 10 11  1  0
  8 12  1  0
 12 13  1  0
 13 14  1  0
 14 15  1  0
  2 16  1  0
 16 17  2  0
 17 18  1  0
 18 19  2  0
 19 20  1  0
 20 21  2  0
 20 22  2  0
 20 23  1  0
 23 24  1  0
 24 25  1  0
 25 26  1  0
 26 27  1  0
 19 28  1  0
 28 29  2  0
 10  5  1  0
 29 16  1  0
 15  7  1  0
 27 23  1  0
  4 30  1  0
  6 31  1  0
  9 32  1  0
 12 33  1  0
 12 34  1  0
 13 35  1  0
 13 36  1  0
 14 37  1  0
 14 38  1  0
 15 39  1  0
 15 40  1  0
 17 41  1  0
 18 42  1  0
 24 43  1  0
 24 44  1  0
 25 45  1  0
 25 46  1  0
 26 47  1  0
 26 48  1  0
 27 49  1  0
 27 50  1  0
 28 51  1  0
 29 52  1  0
M  CHG  1  11  -1
M  END
>  <UniqueID>  (46) 
45

>  <SMILES>  (46) 
O=S(=O)(Nc1cc2c(cc1[O-])CCCC2)c1ccc(S(=O)(=O)N2CCCC2)cc1

>  <Energy>  (46) 
57.16072239944536

>  <Genealogy>  (46) 
O=S(=O)(Nc1cc2c(cc1[O-])CCCC2)c1ccc(S(=O)(=O)N2CCCC2)cc1 (protonated)
O=S(=O)(Nc1cc2c(cc1[O-])CCCC2)c1ccc(S(=O)(=O)N2CCCC2)cc1 (3D coordinates assigned)
O=S(=O)(Nc1cc2c(cc1[O-])CCCC2)c1ccc(S(=O)(=O)N2CCCC2)cc1 (nonaromatic ring conformer: 57.16072239944536 kcal/mol)

>  <smiles>  (46) 
O=S(=O)(Nc1cc2c(cc1O)CCCC2)c1ccc(S(=O)(=O)N2CCCC2)cc1

>  <score_type>  (46) 
oracle

>  <origin>  (46) 
adgpu

>  <m_score__min__energy>  (46) 
-14.67

>  <m_primary>  (46) 
energy

$$$$
46:0
     RDKit          3D

 36 38  0  0  0  0  0  0  0  0999 V2000
   -9.4800   21.2900  -31.1890 C   0  0  0  0  0  0  0  0  0  0  0  0
   -8.2500   20.6440  -31.7670 C   0  0  0  0  0  0  0  0  0  0  0  0
   -8.3070   19.3020  -32.1730 C   0  0  0  0  0  0  0  0  0  0  0  0
   -7.1830   18.6740  -32.7250 C   0  0  0  0  0  0  0  0  0  0  0  0
   -7.2360   17.3380  -33.1190 C   0  0  0  0  0  0  0  0  0  0  0  0
   -6.1060   16.7330  -33.6650 C   0  0  0  0  0  0  0  0  0  0  0  0
   -4.9380   17.4310  -33.8270 N   0  0  0  0  0  0  0  0  0  0  0  0
   -3.7830   16.7320  -34.4100 C   0  0  0  0  0  0  0  0  0  0  0  0
   -4.8570   18.7540  -33.4480 C   0  0  0  0  0  0  0  0  0  0  0  0
   -5.9870   19.3950  -32.8890 C   0  0  0  0  0  0  0  0  0  0  0  0
   -5.9210   20.7480  -32.5010 C   0  0  0  0  0  0  0  0  0  0  0  0
   -7.0540   21.3760  -31.9420 C   0  0  0  0  0  0  0  0  0  0  0  0
   -6.9800   22.7570  -31.5500 N   0  0  0  0  0  0  0  0  0  0  0  0
   -6.8710   23.7970  -32.5710 C   0  0  0  0  0  0  0  0  0  0  0  0
   -6.7990   23.1120  -30.1430 C   0  0  0  0  0  0  0  0  0  0  0  0
   -4.6930   21.4700  -32.6930 N   0  0  0  0  0  0  0  0  0  0  0  0
   -3.5470   20.8230  -33.2530 C   0  0  0  0  0  0  0  0  0  0  0  0
   -3.6010   19.5400  -33.6160 C   0  0  0  0  0  0  0  0  0  0  0  0
   -9.4270   21.2622  -30.0906 H   0  0  0  0  0  0  0  0  0  0  0  0
   -9.5384   22.3352  -31.5269 H   0  0  0  0  0  0  0  0  0  0  0  0
  -10.3737   20.7449  -31.5269 H   0  0  0  0  0  0  0  0  0  0  0  0
   -9.2438   18.7374  -32.0566 H   0  0  0  0  0  0  0  0  0  0  0  0
   -8.1664   16.7636  -32.9993 H   0  0  0  0  0  0  0  0  0  0  0  0
   -6.1522   15.6775  -33.9711 H   0  0  0  0  0  0  0  0  0  0  0  0
   -3.1433   16.3448  -33.6033 H   0  0  0  0  0  0  0  0  0  0  0  0
   -4.1359   15.8958  -35.0314 H   0  0  0  0  0  0  0  0  0  0  0  0
   -3.2059   17.4325  -35.0314 H   0  0  0  0  0  0  0  0  0  0  0  0
   -6.7681   24.7785  -32.0851 H   0  0  0  0  0  0  0  0  0  0  0  0
   -5.9882   23.6040  -33.1982 H   0  0  0  0  0  0  0  0  0  0  0  0
   -7.7747   23.7913  -33.1982 H   0  0  0  0  0  0  0  0  0  0  0  0
   -7.2069   22.3120  -29.5076 H   0  0  0  0  0  0  0  0  0  0  0  0
   -5.7268   23.2375  -29.9315 H   0  0  0  0  0  0  0  0  0  0  0  0
   -7.3271   24.0535  -29.9315 H   0  0  0  0  0  0  0  0  0  0  0  0
   -4.6130   22.4790  -32.4360 H   0  0  0  0  0  0  0  0  0  0  0  0
   -2.6126   21.3881  -33.3857 H   0  0  0  0  0  0  0  0  0  0  0  0
   -2.7098   19.0573  -34.0435 H   0  0  0  0  0  0  0  0  0  0  0  0
  1  2  1  0
  2  3  2  0
  3  4  1  0
  4  5  2  0
  5  6  1  0
  6  7  2  0
  7  8  1  0
  7  9  1  0
  9 10  2  0
 10 11  1  0
 11 12  2  0
 12 13  1  0
 13 14  1  0
 13 15  1  0
 11 16  1  0
 16 17  1  0
 17 18  2  0
 12  2  1  0
 10  4  1  0
 18  9  1  0
  1 19  1  0
  1 20  1  0
  1 21  1  0
  3 22  1  0
  5 23  1  0
  6 24  1  0
  8 25  1  0
  8 26  1  0
  8 27  1  0
 14 28  1  0
 14 29  1  0
 14 30  1  0
 15 31  1  0
 15 32  1  0
 15 33  1  0
 16 34  1  0
 17 35  1  0
 18 36  1  0
M  CHG  1   7   1
M  END
>  <UniqueID>  (47) 
46

>  <SMILES>  (47) 
Cc1cc2cc[n+](C)c3c2c(c1N(C)C)NC=C3

>  <Energy>  (47) 
49.70578806913165

>  <Genealogy>  (47) 
Cc1cc2cc[n+](C)c3c2c(c1N(C)C)NC=C3 (3D coordinates assigned)
Cc1cc2cc[n+](C)c3c2c(c1N(C)C)NC=C3 (nonaromatic ring conformer: 49.70578806913165 kcal/mol)

>  <smiles>  (47) 
Cc1cc2cc[n+](C)c3c2c(c1N(C)C)NC=C3

>  <score_type>  (47) 
oracle

>  <origin>  (47) 
adgpu

>  <m_score__min__energy>  (47) 
-6.2000000000000002

>  <m_primary>  (47) 
energy

$$$$
47:0
     RDKit          3D

 55 58  0  0  0  0  0  0  0  0999 V2000
   -0.3240   21.3800  -27.0080 C   0  0  0  0  0  0  0  0  0  0  0  0
   -1.3670   22.1000  -27.8170 C   0  0  0  0  0  0  0  0  0  0  0  0
   -1.0370   23.3250  -28.4270 C   0  0  0  0  0  0  0  0  0  0  0  0
   -1.9750   24.0040  -29.2080 C   0  0  0  0  0  0  0  0  0  0  0  0
   -3.2600   23.4780  -29.3820 C   0  0  0  0  0  0  0  0  0  0  0  0
   -4.4390   24.2760  -30.4150 S   0  0  0  0  0  0  0  0  0  0  0  0
   -4.0040   25.6750  -30.7560 O   0  0  0  0  0  0  0  0  0  0  0  0
   -5.7520   24.3260  -29.6850 O   0  0  0  0  0  0  0  0  0  0  0  0
   -4.5770   23.3400  -31.8680 N   0  0  0  0  0  0  0  0  0  0  0  0
   -5.2280   22.0660  -31.9690 C   0  0  0  0  0  0  0  0  0  0  0  0
   -6.6390   21.9590  -31.8940 C   0  0  0  0  0  0  0  0  0  0  0  0
   -7.2080   20.6930  -32.0210 C   0  0  0  0  0  0  0  0  0  0  0  0
   -6.4410   19.5740  -32.2210 C   0  0  0  0  0  0  0  0  0  0  0  0
   -5.0520   19.6400  -32.3190 C   0  0  0  0  0  0  0  0  0  0  0  0
   -4.4360   20.9030  -32.1950 C   0  0  0  0  0  0  0  0  0  0  0  0
   -3.0000   20.9920  -32.2680 N   0  0  0  0  0  0  0  0  0  0  0  0
   -2.1650   20.7180  -31.0950 C   0  0  0  0  0  0  0  0  0  0  0  0
   -0.8670   20.0330  -31.5380 C   0  0  0  0  0  0  0  0  0  0  0  0
   -0.2300   20.7730  -32.5650 O   0  0  0  0  0  0  0  0  0  0  0  0
   -1.0470   20.7940  -33.7240 C   0  0  0  0  0  0  0  0  0  0  0  0
   -2.3560   21.5460  -33.4620 C   0  0  0  0  0  0  0  0  0  0  0  0
   -7.2400   18.4890  -32.2650 N   0  0  0  0  0  0  0  0  0  0  0  0
   -6.8360   17.0860  -32.3770 C   0  0  0  0  0  0  0  0  0  0  0  0
   -8.4900   18.9870  -32.0770 C   0  0  0  0  0  0  0  0  0  0  0  0
   -9.5230   18.2700  -32.0140 O   0  0  0  0  0  0  0  0  0  0  0  0
   -8.5060   20.3390  -31.9460 N   0  0  0  0  0  0  0  0  0  0  0  0
   -9.6550   21.2020  -31.6750 C   0  0  0  0  0  0  0  0  0  0  0  0
   -3.6090   22.2790  -28.7500 C   0  0  0  0  0  0  0  0  0  0  0  0
   -2.6810   21.5900  -27.9500 C   0  0  0  0  0  0  0  0  0  0  0  0
   -3.0980   20.2930  -27.3060 C   0  0  0  0  0  0  0  0  0  0  0  0
   -0.5289   21.5214  -25.9365 H   0  0  0  0  0  0  0  0  0  0  0  0
   -0.3503   20.3068  -27.2478 H   0  0  0  0  0  0  0  0  0  0  0  0
    0.6702   21.7850  -27.2478 H   0  0  0  0  0  0  0  0  0  0  0  0
   -0.0324   23.7509  -28.2875 H   0  0  0  0  0  0  0  0  0  0  0  0
   -1.7027   24.9556  -29.6880 H   0  0  0  0  0  0  0  0  0  0  0  0
   -7.2668   22.8490  -31.7401 H   0  0  0  0  0  0  0  0  0  0  0  0
   -4.4532   18.7329  -32.4882 H   0  0  0  0  0  0  0  0  0  0  0  0
   -1.9252   21.6638  -30.5871 H   0  0  0  0  0  0  0  0  0  0  0  0
   -2.7098   20.0577  -30.4043 H   0  0  0  0  0  0  0  0  0  0  0  0
   -0.1882   19.9555  -30.6759 H   0  0  0  0  0  0  0  0  0  0  0  0
   -1.1117   19.0330  -31.9253 H   0  0  0  0  0  0  0  0  0  0  0  0
   -0.5023   21.2938  -34.5386 H   0  0  0  0  0  0  0  0  0  0  0  0
   -1.2888   19.7570  -34.0001 H   0  0  0  0  0  0  0  0  0  0  0  0
   -2.1416   22.6131  -33.3026 H   0  0  0  0  0  0  0  0  0  0  0  0
   -3.0254   21.4349  -34.3278 H   0  0  0  0  0  0  0  0  0  0  0  0
   -6.7129   16.6585  -31.3710 H   0  0  0  0  0  0  0  0  0  0  0  0
   -7.6089   16.5243  -32.9221 H   0  0  0  0  0  0  0  0  0  0  0  0
   -5.8827   17.0213  -32.9221 H   0  0  0  0  0  0  0  0  0  0  0  0
   -9.7894   21.3030  -30.5879 H   0  0  0  0  0  0  0  0  0  0  0  0
   -9.4806   22.1942  -32.1166 H   0  0  0  0  0  0  0  0  0  0  0  0
  -10.5593   20.7580  -32.1166 H   0  0  0  0  0  0  0  0  0  0  0  0
   -4.6220   21.8708  -28.8809 H   0  0  0  0  0  0  0  0  0  0  0  0
   -3.0638   20.3994  -26.2117 H   0  0  0  0  0  0  0  0  0  0  0  0
   -4.1223   20.0413  -27.6181 H   0  0  0  0  0  0  0  0  0  0  0  0
   -2.4123   19.4915  -27.6181 H   0  0  0  0  0  0  0  0  0  0  0  0
  1  2  1  0
  2  3  2  0
  3  4  1  0
  4  5  2  0
  5  6  1  0
  6  7  2  0
  6  8  2  0
  6  9  1  0
  9 10  1  0
 10 11  2  0
 11 12  1  0
 12 13  2  0
 13 14  1  0
 14 15  2  0
 15 16  1  0
 16 17  1  0
 17 18  1  0
 18 19  1  0
 19 20  1  0
 20 21  1  0
 13 22  1  0
 22 23  1  0
 22 24  1  0
 24 25  2  0
 24 26  1  0
 26 27  1  0
  5 28  1  0
 28 29  2  0
 29 30  1  0
 29  2  1  0
 15 10  1  0
 21 16  1  0
 26 12  1  0
  1 31  1  0
  1 32  1  0
  1 33  1  0
  3 34  1  0
  4 35  1  0
 11 36  1  0
 14 37  1  0
 17 38  1  0
 17 39  1  0
 18 40  1  0
 18 41  1  0
 20 42  1  0
 20 43  1  0
 21 44  1  0
 21 45  1  0
 23 46  1  0
 23 47  1  0
 23 48  1  0
 27 49  1  0
 27 50  1  0
 27 51  1  0
 28 52  1  0
 30 53  1  0
 30 54  1  0
 30 55  1  0
M  CHG  1   9  -1
M  END
>  <UniqueID>  (48) 
47

>  <SMILES>  (48) 
Cc1ccc(S(=O)(=O)[N-]c2cc3c(cc2N2CCOCC2)n(C)c(=O)n3C)cc1C

>  <Energy>  (48) 
109.1726385332628

>  <Genealogy>  (48) 
Cc1ccc(S(=O)(=O)[N-]c2cc3c(cc2N2CCOCC2)n(C)c(=O)n3C)cc1C (protonated)
Cc1ccc(S(=O)(=O)[N-]c2cc3c(cc2N2CCOCC2)n(C)c(=O)n3C)cc1C (3D coordinates assigned)
Cc1ccc(S(=O)(=O)[N-]c2cc3c(cc2N2CCOCC2)n(C)c(=O)n3C)cc1C (nonaromatic ring conformer: 109.1726385332628 kcal/mol)

>  <smiles>  (48) 
Cc1ccc(S(=O)(=O)Nc2cc3c(cc2N2CCOCC2)n(C)c(=O)n3C)cc1C

>  <score_type>  (48) 
oracle

>  <origin>  (48) 
adgpu

>  <m_score__min__energy>  (48) 
-10.470000000000001

>  <m_primary>  (48) 
energy

$$$$
48:0
     RDKit          3D

 38 40  0  0  0  0  0  0  0  0999 V2000
   -2.2880   22.6850  -30.9280 C   0  0  0  0  0  0  0  0  0  0  0  0
   -3.6680   22.1250  -31.1620 C   0  0  0  0  0  0  0  0  0  0  0  0
   -3.7910   20.8490  -31.7340 C   0  0  0  0  0  0  0  0  0  0  0  0
   -5.0480   20.2840  -31.9550 C   0  0  0  0  0  0  0  0  0  0  0  0
   -6.2110   20.9820  -31.6030 C   0  0  0  0  0  0  0  0  0  0  0  0
   -7.5430   20.3860  -31.8440 C   0  0  0  0  0  0  0  0  0  0  0  0
   -8.6220   21.0720  -32.2650 N   0  0  0  0  0  0  0  0  0  0  0  0
   -9.5860   20.1690  -32.3490 N   0  0  0  0  0  0  0  0  0  0  0  0
   -9.1180   18.9820  -31.9950 N   0  0  0  0  0  0  0  0  0  0  0  0
   -7.8390   19.0830  -31.6730 N   0  0  0  0  0  0  0  0  0  0  0  0
   -6.0960   22.2520  -31.0160 C   0  0  0  0  0  0  0  0  0  0  0  0
   -4.8370   22.8250  -30.7770 C   0  0  0  0  0  0  0  0  0  0  0  0
   -4.7610   24.4250  -30.0200 S   0  0  0  0  0  0  0  0  0  0  0  0
   -3.9420   25.3610  -30.8630 O   0  0  0  0  0  0  0  0  0  0  0  0
   -6.1520   24.9790  -29.8940 O   0  0  0  0  0  0  0  0  0  0  0  0
   -4.0250   24.2750  -28.4550 N   0  0  0  0  0  0  0  0  0  0  0  0
   -3.2430   23.1310  -28.0530 C   0  0  0  0  0  0  0  0  0  0  0  0
   -3.8620   21.8760  -27.8830 C   0  0  0  0  0  0  0  0  0  0  0  0
   -3.1200   20.7620  -27.4900 C   0  0  0  0  0  0  0  0  0  0  0  0
   -1.7520   20.8810  -27.2510 C   0  0  0  0  0  0  0  0  0  0  0  0
   -1.1220   22.1160  -27.4000 C   0  0  0  0  0  0  0  0  0  0  0  0
   -1.8520   23.2510  -27.7950 C   0  0  0  0  0  0  0  0  0  0  0  0
   -1.0020   24.7950  -27.9750 S   0  0  0  0  0  0  0  0  0  0  0  0
   -1.6000   25.6770  -29.3380 N   0  0  0  0  0  0  0  0  0  0  0  0
    0.4670   24.5380  -28.1710 O   0  0  0  0  0  0  0  0  0  0  0  0
   -1.2100   25.6320  -26.7430 O   0  0  0  0  0  0  0  0  0  0  0  0
   -2.1015   22.7607  -29.8466 H   0  0  0  0  0  0  0  0  0  0  0  0
   -1.5401   22.0192  -31.3833 H   0  0  0  0  0  0  0  0  0  0  0  0
   -2.2155   23.6837  -31.3833 H   0  0  0  0  0  0  0  0  0  0  0  0
   -2.8864   20.2880  -32.0112 H   0  0  0  0  0  0  0  0  0  0  0  0
   -5.1262   19.2848  -32.4082 H   0  0  0  0  0  0  0  0  0  0  0  0
   -7.0052   22.8059  -30.7394 H   0  0  0  0  0  0  0  0  0  0  0  0
   -4.1250   25.0960  -27.8210 H   0  0  0  0  0  0  0  0  0  0  0  0
   -4.9425   21.7739  -28.0623 H   0  0  0  0  0  0  0  0  0  0  0  0
   -3.6156   19.7875  -27.3685 H   0  0  0  0  0  0  0  0  0  0  0  0
   -1.1689   20.0000  -26.9446 H   0  0  0  0  0  0  0  0  0  0  0  0
   -0.0427   22.2033  -27.2065 H   0  0  0  0  0  0  0  0  0  0  0  0
   -2.6440   25.6800  -29.2690 H   0  0  0  0  0  0  0  0  0  0  0  0
  1  2  1  0
  2  3  2  0
  3  4  1  0
  4  5  2  0
  5  6  1  0
  6  7  1  0
  7  8  2  0
  8  9  1  0
  9 10  1  0
  5 11  1  0
 11 12  2  0
 12 13  1  0
 13 14  2  0
 13 15  2  0
 13 16  1  0
 16 17  1  0
 17 18  2  0
 18 19  1  0
 19 20  2  0
 20 21  1  0
 21 22  2  0
 22 23  1  0
 23 24  1  0
 23 25  2  0
 23 26  2  0
 12  2  1  0
 22 17  1  0
 10  6  2  0
  1 27  1  0
  1 28  1  0
  1 29  1  0
  3 30  1  0
  4 31  1  0
 11 32  1  0
 16 33  1  0
 18 34  1  0
 19 35  1  0
 20 36  1  0
 21 37  1  0
 24 38  1  0
M  CHG  2   9  -1  24  -1
M  END
>  <UniqueID>  (49) 
48

>  <SMILES>  (49) 
Cc1ccc(-c2nn[n-]n2)cc1S(=O)(=O)Nc1ccccc1S([NH-])(=O)=O

>  <Energy>  (49) 
86.3956293048991

>  <Genealogy>  (49) 
Cc1ccc(-c2nn[n-]n2)cc1S(=O)(=O)Nc1ccccc1S([NH-])(=O)=O (protonated)
Cc1ccc(-c2nn[n-]n2)cc1S(=O)(=O)Nc1ccccc1S([NH-])(=O)=O (3D coordinates assigned)
Cc1ccc(-c2nn[n-]n2)cc1S(=O)(=O)Nc1ccccc1S([NH-])(=O)=O (optimized conformer: 86.3956293048991 kcal/mol)

>  <smiles>  (49) 
Cc1ccc(-c2nn[nH]n2)cc1S(=O)(=O)Nc1ccccc1S(N)(=O)=O

>  <score_type>  (49) 
oracle

>  <origin>  (49) 
adgpu

>  <m_score__min__energy>  (49) 
-12.44

>  <m_primary>  (49) 
energy

$$$$
