0:0
     RDKit          3D

 51 54  0  0  0  0  0  0  0  0999 V2000
   -0.5640   26.1950  -27.6280 N   0  0  0  0  0  0  0  0  0  0  0  0
   -0.9830   25.2390  -28.3930 C   0  0  0  0  0  0  0  0  0  0  0  0
   -0.1670   24.1360  -28.6830 C   0  0  0  0  0  0  0  0  0  0  0  0
   -0.6520   23.1260  -29.5180 C   0  0  0  0  0  0  0  0  0  0  0  0
   -1.9440   23.2130  -30.0520 C   0  0  0  0  0  0  0  0  0  0  0  0
   -2.4810   22.1480  -30.9320 C   0  0  0  0  0  0  0  0  0  0  0  0
   -3.3900   22.4750  -31.9540 C   0  0  0  0  0  0  0  0  0  0  0  0
   -3.9040   21.4780  -32.7900 C   0  0  0  0  0  0  0  0  0  0  0  0
   -3.4810   20.1480  -32.6480 C   0  0  0  0  0  0  0  0  0  0  0  0
   -4.0390   19.0950  -33.5190 C   0  0  0  0  0  0  0  0  0  0  0  0
   -5.4270   19.1100  -33.7440 C   0  0  0  0  0  0  0  0  0  0  0  0
   -6.0330   18.1150  -34.5180 C   0  0  0  0  0  0  0  0  0  0  0  0
   -5.2590   17.0930  -35.0700 C   0  0  0  0  0  0  0  0  0  0  0  0
   -3.8780   17.0650  -34.8550 C   0  0  0  0  0  0  0  0  0  0  0  0
   -3.2430   18.0640  -34.0950 C   0  0  0  0  0  0  0  0  0  0  0  0
   -1.4740   17.9580  -33.8970 S   0  0  0  0  0  0  0  0  0  0  0  0
   -0.9840   16.8040  -34.7280 O   0  0  0  0  0  0  0  0  0  0  0  0
   -1.1020   17.6720  -32.4690 O   0  0  0  0  0  0  0  0  0  0  0  0
   -0.6510   19.4190  -34.4060 N   0  0  0  0  0  0  0  0  0  0  0  0
    0.0550   19.2030  -35.6810 C   0  0  0  0  0  0  0  0  0  0  0  0
    0.5880   20.5390  -36.2450 C   0  0  0  0  0  0  0  0  0  0  0  0
    0.7500   21.6300  -35.1580 C   0  0  0  0  0  0  0  0  0  0  0  0
   -0.4750   22.2980  -34.9500 O   0  0  0  0  0  0  0  0  0  0  0  0
    1.2220   21.0090  -33.8350 C   0  0  0  0  0  0  0  0  0  0  0  0
    0.2710   19.8920  -33.3460 C   0  0  0  0  0  0  0  0  0  0  0  0
   -2.5940   19.8100  -31.6160 C   0  0  0  0  0  0  0  0  0  0  0  0
   -2.0930   20.8020  -30.7630 C   0  0  0  0  0  0  0  0  0  0  0  0
   -1.2060   20.4510  -29.7970 F   0  0  0  0  0  0  0  0  0  0  0  0
   -2.7300   24.3310  -29.7290 C   0  0  0  0  0  0  0  0  0  0  0  0
   -2.2340   25.3080  -28.9240 N   0  0  0  0  0  0  0  0  0  0  0  0
    0.3880   26.1910  -27.1900 H   0  0  0  0  0  0  0  0  0  0  0  0
    0.8449   24.0666  -28.2573 H   0  0  0  0  0  0  0  0  0  0  0  0
   -0.0172   22.2599  -29.7567 H   0  0  0  0  0  0  0  0  0  0  0  0
   -3.6987   23.5211  -32.0969 H   0  0  0  0  0  0  0  0  0  0  0  0
   -4.6431   21.7381  -33.5621 H   0  0  0  0  0  0  0  0  0  0  0  0
   -6.0415   19.9112  -33.3075 H   0  0  0  0  0  0  0  0  0  0  0  0
   -7.1190   18.1379  -34.6916 H   0  0  0  0  0  0  0  0  0  0  0  0
   -5.7365   16.3083  -35.6752 H   0  0  0  0  0  0  0  0  0  0  0  0
   -3.2789   16.2496  -35.2866 H   0  0  0  0  0  0  0  0  0  0  0  0
    0.9002   18.5190  -35.5141 H   0  0  0  0  0  0  0  0  0  0  0  0
   -0.6500   18.7700  -36.4059 H   0  0  0  0  0  0  0  0  0  0  0  0
    1.5686   20.3577  -36.7093 H   0  0  0  0  0  0  0  0  0  0  0  0
   -0.1486   20.9067  -36.9746 H   0  0  0  0  0  0  0  0  0  0  0  0
    1.5048   22.3505  -35.5061 H   0  0  0  0  0  0  0  0  0  0  0  0
   -1.1800   21.6010  -34.9080 H   0  0  0  0  0  0  0  0  0  0  0  0
    2.2252   20.5822  -33.9813 H   0  0  0  0  0  0  0  0  0  0  0  0
    1.2336   21.8023  -33.0730 H   0  0  0  0  0  0  0  0  0  0  0  0
    0.8764   19.0408  -33.0010 H   0  0  0  0  0  0  0  0  0  0  0  0
   -0.3430   20.3107  -32.5350 H   0  0  0  0  0  0  0  0  0  0  0  0
   -2.2904   18.7621  -31.4756 H   0  0  0  0  0  0  0  0  0  0  0  0
   -3.7511   24.4166  -30.1289 H   0  0  0  0  0  0  0  0  0  0  0  0
  1  2  2  3
  2  3  1  0
  3  4  2  0
  4  5  1  0
  5  6  1  0
  6  7  2  0
  7  8  1  0
  8  9  2  0
  9 10  1  0
 10 11  2  0
 11 12  1  0
 12 13  2  0
 13 14  1  0
 14 15  2  0
 15 16  1  0
 16 17  2  0
 16 18  2  0
 16 19  1  0
 19 20  1  0
 20 21  1  0
 21 22  1  0
 22 23  1  0
 22 24  1  0
 24 25  1  0
  9 26  1  0
 26 27  2  0
 27 28  1  0
  5 29  2  0
 29 30  1  0
 30  2  1  0
 27  6  1  0
 15 10  1  0
 25 19  1  0
  1 31  1  0
  3 32  1  0
  4 33  1  0
  7 34  1  0
  8 35  1  0
 11 36  1  0
 12 37  1  0
 13 38  1  0
 14 39  1  0
 20 40  1  0
 20 41  1  0
 21 42  1  0
 21 43  1  0
 22 44  1  0
 23 45  1  0
 24 46  1  0
 24 47  1  0
 25 48  1  0
 25 49  1  0
 26 50  1  0
 29 51  1  0
M  CHG  1  30  -1
M  END
>  <UniqueID>  (1) 
1

>  <SMILES>  (1) 
N=c1ccc(-c2ccc(-c3ccccc3S(=O)(=O)N3CCC(O)CC3)cc2F)c[n-]1

>  <Energy>  (1) 
76.34693416459567

>  <Genealogy>  (1) 
N=c1ccc(-c2ccc(-c3ccccc3S(=O)(=O)N3CCC(O)CC3)cc2F)c[n-]1 (protonated)
N=c1ccc(-c2ccc(-c3ccccc3S(=O)(=O)N3CCC(O)CC3)cc2F)c[n-]1 (3D coordinates assigned)
N=c1ccc(-c2ccc(-c3ccccc3S(=O)(=O)N3CCC(O)CC3)cc2F)c[n-]1 (nonaromatic ring conformer: 76.34693416459567 kcal/mol)

>  <smiles>  (1) 
N=c1ccc(-c2ccc(-c3ccccc3S(=O)(=O)N3CCC(O)CC3)cc2F)c[nH]1

>  <score_type>  (1) 
oracle

>  <origin>  (1) 
adgpu

>  <m_score__min__energy>  (1) 
-10.710000000000001

>  <m_primary>  (1) 
energy

$$$$
1:0
     RDKit          3D

 81 85  0  0  0  0  0  0  0  0999 V2000
    2.3740   28.4170  -22.5450 C   0  0  0  0  0  0  0  0  0  0  0  0
    1.3880   29.2490  -23.3470 C   0  0  0  0  0  0  0  0  0  0  0  0
    0.4530   28.4120  -24.0720 N   0  0  0  0  0  0  0  0  0  0  0  0
    0.8760   27.7790  -25.2570 C   0  0  0  0  0  0  0  0  0  0  0  0
    2.0640   27.9520  -25.6680 O   0  0  0  0  0  0  0  0  0  0  0  0
    0.0070   26.9230  -26.0480 C   0  0  0  0  0  0  0  0  0  0  0  0
   -0.0750   27.1540  -27.4230 C   0  0  0  0  0  0  0  0  0  0  0  0
   -0.8820   26.3720  -28.2230 C   0  0  0  0  0  0  0  0  0  0  0  0
   -1.6290   25.3420  -27.6900 C   0  0  0  0  0  0  0  0  0  0  0  0
   -2.5030   24.4950  -28.5230 C   0  0  0  0  0  0  0  0  0  0  0  0
   -3.8560   24.3810  -28.3730 C   0  0  0  0  0  0  0  0  0  0  0  0
   -4.2710   23.5040  -29.3370 N   0  0  0  0  0  0  0  0  0  0  0  0
   -5.6700   23.1680  -29.4840 C   0  0  0  0  0  0  0  0  0  0  0  0
   -6.2240   23.8420  -30.7420 C   0  0  0  0  0  0  0  0  0  0  0  0
   -6.8590   22.8600  -31.5990 N   0  0  0  0  0  0  0  0  0  0  0  0
   -7.1010   21.6720  -30.8490 C   0  0  0  0  0  0  0  0  0  0  0  0
   -8.5390   21.2870  -30.9450 C   0  0  0  0  0  0  0  0  0  0  0  0
   -9.1230   22.2680  -31.9380 C   0  0  0  0  0  0  0  0  0  0  0  0
   -8.1440   23.4240  -31.9690 C   0  0  0  0  0  0  0  0  0  0  0  0
   -3.2160   23.0880  -30.0580 C   0  0  0  0  0  0  0  0  0  0  0  0
   -3.1110   22.1440  -31.1660 C   0  0  0  0  0  0  0  0  0  0  0  0
   -4.0700   22.2440  -32.2760 C   0  0  0  0  0  0  0  0  0  0  0  0
   -3.4100   21.4690  -33.4460 C   0  0  0  0  0  0  0  0  0  0  0  0
   -3.1770   20.1040  -33.0550 N   0  0  0  0  0  0  0  0  0  0  0  0
   -3.6220   18.9670  -33.7600 C   0  0  0  0  0  0  0  0  0  0  0  0
   -2.7090   18.1660  -34.3110 N   0  0  0  0  0  0  0  0  0  0  0  0
   -2.9890   17.0510  -35.0020 C   0  0  0  0  0  0  0  0  0  0  0  0
   -4.2520   16.6990  -35.1610 N   0  0  0  0  0  0  0  0  0  0  0  0
   -5.2420   17.4550  -34.6360 C   0  0  0  0  0  0  0  0  0  0  0  0
   -6.4390   17.0490  -34.8360 N   0  0  0  0  0  0  0  0  0  0  0  0
   -4.9480   18.6180  -33.9150 C   0  0  0  0  0  0  0  0  0  0  0  0
   -5.9730   19.4760  -33.3120 C   0  0  0  0  0  0  0  0  0  0  0  0
   -6.7490   18.7330  -32.2280 C   0  0  0  0  0  0  0  0  0  0  0  0
   -2.4420   19.8900  -31.8170 C   0  0  0  0  0  0  0  0  0  0  0  0
   -3.0620   20.6950  -30.6840 C   0  0  0  0  0  0  0  0  0  0  0  0
   -2.1220   23.7220  -29.5310 N   0  0  0  0  0  0  0  0  0  0  0  0
   -1.5330   25.1310  -26.3290 C   0  0  0  0  0  0  0  0  0  0  0  0
   -0.7240   25.9100  -25.5140 C   0  0  0  0  0  0  0  0  0  0  0  0
   -0.6670   25.6320  -24.0420 C   0  0  0  0  0  0  0  0  0  0  0  0
    2.1935   28.5693  -21.4706 H   0  0  0  0  0  0  0  0  0  0  0  0
    2.2420   27.3532  -22.7918 H   0  0  0  0  0  0  0  0  0  0  0  0
    3.4004   28.7260  -22.7918 H   0  0  0  0  0  0  0  0  0  0  0  0
    0.8270   29.8992  -22.6597 H   0  0  0  0  0  0  0  0  0  0  0  0
    1.9541   29.8464  -24.0769 H   0  0  0  0  0  0  0  0  0  0  0  0
   -0.5190   28.2870  -23.7080 H   0  0  0  0  0  0  0  0  0  0  0  0
    0.5108   27.9690  -27.8732 H   0  0  0  0  0  0  0  0  0  0  0  0
   -0.9307   26.5730  -29.3034 H   0  0  0  0  0  0  0  0  0  0  0  0
   -4.4843   24.8911  -27.6280 H   0  0  0  0  0  0  0  0  0  0  0  0
   -5.7782   22.0770  -29.5740 H   0  0  0  0  0  0  0  0  0  0  0  0
   -6.2272   23.5188  -28.6028 H   0  0  0  0  0  0  0  0  0  0  0  0
   -6.9636   24.6024  -30.4508 H   0  0  0  0  0  0  0  0  0  0  0  0
   -5.3954   24.3140  -31.2903 H   0  0  0  0  0  0  0  0  0  0  0  0
   -6.4791   20.8572  -31.2481 H   0  0  0  0  0  0  0  0  0  0  0  0
   -6.8478   21.8551  -29.7943 H   0  0  0  0  0  0  0  0  0  0  0  0
   -8.6425   20.2546  -31.3103 H   0  0  0  0  0  0  0  0  0  0  0  0
   -9.0491   21.3209  -29.9710 H   0  0  0  0  0  0  0  0  0  0  0  0
   -9.2081   21.8066  -32.9329 H   0  0  0  0  0  0  0  0  0  0  0  0
  -10.1351   22.5912  -31.6532 H   0  0  0  0  0  0  0  0  0  0  0  0
   -8.0958   23.8589  -32.9782 H   0  0  0  0  0  0  0  0  0  0  0  0
   -8.4459   24.2303  -31.2844 H   0  0  0  0  0  0  0  0  0  0  0  0
   -2.1562   22.4662  -31.6071 H   0  0  0  0  0  0  0  0  0  0  0  0
   -5.0303   21.7839  -32.0002 H   0  0  0  0  0  0  0  0  0  0  0  0
   -4.2871   23.2890  -32.5423 H   0  0  0  0  0  0  0  0  0  0  0  0
   -4.0771   21.4898  -34.3204 H   0  0  0  0  0  0  0  0  0  0  0  0
   -2.4507   21.9431  -33.7010 H   0  0  0  0  0  0  0  0  0  0  0  0
   -1.6970   18.4060  -34.2100 H   0  0  0  0  0  0  0  0  0  0  0  0
   -2.1802   16.4399  -35.4291 H   0  0  0  0  0  0  0  0  0  0  0  0
   -7.2790   17.5350  -34.4880 H   0  0  0  0  0  0  0  0  0  0  0  0
   -5.4867   20.3559  -32.8656 H   0  0  0  0  0  0  0  0  0  0  0  0
   -6.6791   19.7796  -34.0989 H   0  0  0  0  0  0  0  0  0  0  0  0
   -6.4034   19.0639  -31.2375 H   0  0  0  0  0  0  0  0  0  0  0  0
   -7.8226   18.9485  -32.3326 H   0  0  0  0  0  0  0  0  0  0  0  0
   -6.5803   17.6511  -32.3326 H   0  0  0  0  0  0  0  0  0  0  0  0
   -2.4702   18.8210  -31.5593 H   0  0  0  0  0  0  0  0  0  0  0  0
   -1.4018   20.2181  -31.9592 H   0  0  0  0  0  0  0  0  0  0  0  0
   -4.0773   20.3305  -30.4687 H   0  0  0  0  0  0  0  0  0  0  0  0
   -2.4754   20.6007  -29.7583 H   0  0  0  0  0  0  0  0  0  0  0  0
   -2.1179   24.3174  -25.8751 H   0  0  0  0  0  0  0  0  0  0  0  0
   -0.8576   26.5616  -23.4856 H   0  0  0  0  0  0  0  0  0  0  0  0
   -1.4306   24.8848  -23.7801 H   0  0  0  0  0  0  0  0  0  0  0  0
    0.3291   25.2456  -23.7801 H   0  0  0  0  0  0  0  0  0  0  0  0
  1  2  1  0
  2  3  1  0
  3  4  1  0
  4  5  2  0
  4  6  1  0
  6  7  2  0
  7  8  1  0
  8  9  2  0
  9 10  1  0
 10 11  2  0
 11 12  1  0
 12 13  1  0
 13 14  1  0
 14 15  1  0
 15 16  1  0
 16 17  1  0
 17 18  1  0
 18 19  1  0
 12 20  1  0
 20 21  1  0
 21 22  1  0
 22 23  1  0
 23 24  1  0
 24 25  1  0
 25 26  1  0
 26 27  1  0
 27 28  2  0
 28 29  1  0
 29 30  2  3
 29 31  1  0
 31 32  1  0
 32 33  1  0
 24 34  1  0
 34 35  1  0
 20 36  2  0
  9 37  1  0
 37 38  2  0
 38 39  1  0
 38  6  1  0
 36 10  1  0
 19 15  1  0
 35 21  1  0
 31 25  2  0
  1 40  1  0
  1 41  1  0
  1 42  1  0
  2 43  1  0
  2 44  1  0
  3 45  1  0
  7 46  1  0
  8 47  1  0
 11 48  1  0
 13 49  1  0
 13 50  1  0
 14 51  1  0
 14 52  1  0
 16 53  1  0
 16 54  1  0
 17 55  1  0
 17 56  1  0
 18 57  1  0
 18 58  1  0
 19 59  1  0
 19 60  1  0
 21 61  1  0
 22 62  1  0
 22 63  1  0
 23 64  1  0
 23 65  1  0
 26 66  1  0
 27 67  1  0
 30 68  1  0
 32 69  1  0
 32 70  1  0
 33 71  1  0
 33 72  1  0
 33 73  1  0
 34 74  1  0
 34 75  1  0
 35 76  1  0
 35 77  1  0
 37 78  1  0
 39 79  1  0
 39 80  1  0
 39 81  1  0
M  END
>  <smiles>  (2) 
CCNC(=O)c1ccc(-c2cn(CCN3CCCC3)c(C3CCN(c4[nH]cnc(=N)c4CC)CC3)n2)cc1C

>  <score_type>  (2) 
oracle

>  <origin>  (2) 
adgpu

>  <m_score__min__energy>  (2) 
-9.8000000000000007

>  <m_primary>  (2) 
energy

$$$$
2:0
     RDKit          3D

 60 63  0  0  0  0  0  0  0  0999 V2000
   -0.8680   25.4200  -29.3490 O   0  0  0  0  0  0  0  0  0  0  0  0
   -1.7630   24.5450  -29.2090 C   0  0  0  0  0  0  0  0  0  0  0  0
   -3.1390   24.9330  -29.3260 N   0  0  0  0  0  0  0  0  0  0  0  0
   -4.0440   24.3690  -30.2840 C   0  0  0  0  0  0  0  0  0  0  0  0
   -3.8080   23.0700  -30.7530 C   0  0  0  0  0  0  0  0  0  0  0  0
   -4.7310   22.4400  -31.6000 C   0  0  0  0  0  0  0  0  0  0  0  0
   -4.4940   20.7560  -32.0740 S   0  0  0  0  0  0  0  0  0  0  0  0
   -3.9820   20.7030  -33.4850 O   0  0  0  0  0  0  0  0  0  0  0  0
   -3.4610   20.1320  -31.1780 O   0  0  0  0  0  0  0  0  0  0  0  0
   -5.9830   19.8470  -31.9540 N   0  0  0  0  0  0  0  0  0  0  0  0
   -6.9500   20.3200  -32.9560 C   0  0  0  0  0  0  0  0  0  0  0  0
   -8.3370   19.7070  -32.6970 C   0  0  0  0  0  0  0  0  0  0  0  0
   -8.2560   18.3710  -31.9380 C   0  0  0  0  0  0  0  0  0  0  0  0
   -7.0070   17.5830  -32.3430 C   0  0  0  0  0  0  0  0  0  0  0  0
   -5.7150   18.4020  -32.1210 C   0  0  0  0  0  0  0  0  0  0  0  0
   -5.8700   23.1380  -32.0190 C   0  0  0  0  0  0  0  0  0  0  0  0
   -6.0950   24.4450  -31.5850 C   0  0  0  0  0  0  0  0  0  0  0  0
   -5.1890   25.0710  -30.7210 C   0  0  0  0  0  0  0  0  0  0  0  0
   -5.4400   26.3860  -30.3320 O   0  0  0  0  0  0  0  0  0  0  0  0
   -1.3770   23.1430  -28.9380 C   0  0  0  0  0  0  0  0  0  0  0  0
   -1.6520   22.5590  -27.6920 C   0  0  0  0  0  0  0  0  0  0  0  0
   -1.3150   21.2230  -27.4500 C   0  0  0  0  0  0  0  0  0  0  0  0
   -0.6850   20.4610  -28.4440 C   0  0  0  0  0  0  0  0  0  0  0  0
   -0.2960   18.7670  -28.1570 S   0  0  0  0  0  0  0  0  0  0  0  0
   -1.2690   18.2100  -27.1550 O   0  0  0  0  0  0  0  0  0  0  0  0
   -0.4790   18.0030  -29.4400 O   0  0  0  0  0  0  0  0  0  0  0  0
    1.3340   18.5210  -27.5660 N   0  0  0  0  0  0  0  0  0  0  0  0
    2.3260   19.4150  -28.1930 C   0  0  0  0  0  0  0  0  0  0  0  0
    2.9750   18.7970  -29.4390 C   0  0  0  0  0  0  0  0  0  0  0  0
    3.4970   17.5190  -29.1490 O   0  0  0  0  0  0  0  0  0  0  0  0
    2.4350   16.6510  -28.8220 C   0  0  0  0  0  0  0  0  0  0  0  0
    1.7420   17.1030  -27.5290 C   0  0  0  0  0  0  0  0  0  0  0  0
   -0.4010   21.0460  -29.6840 C   0  0  0  0  0  0  0  0  0  0  0  0
   -0.7270   22.3830  -29.9220 C   0  0  0  0  0  0  0  0  0  0  0  0
   -2.8914   22.5402  -30.4544 H   0  0  0  0  0  0  0  0  0  0  0  0
   -7.0224   21.4162  -32.9000 H   0  0  0  0  0  0  0  0  0  0  0  0
   -6.6062   20.0134  -33.9549 H   0  0  0  0  0  0  0  0  0  0  0  0
   -8.9309   20.4160  -32.1015 H   0  0  0  0  0  0  0  0  0  0  0  0
   -8.8040   19.5100  -33.6733 H   0  0  0  0  0  0  0  0  0  0  0  0
   -8.2188   18.5732  -30.8574 H   0  0  0  0  0  0  0  0  0  0  0  0
   -9.1440   17.7720  -32.1883 H   0  0  0  0  0  0  0  0  0  0  0  0
   -6.9544   16.6644  -31.7401 H   0  0  0  0  0  0  0  0  0  0  0  0
   -7.0833   17.3483  -33.4150 H   0  0  0  0  0  0  0  0  0  0  0  0
   -5.2121   18.0295  -31.2164 H   0  0  0  0  0  0  0  0  0  0  0  0
   -5.0838   18.2797  -33.0136 H   0  0  0  0  0  0  0  0  0  0  0  0
   -6.5912   22.6537  -32.6938 H   0  0  0  0  0  0  0  0  0  0  0  0
   -6.9902   24.9869  -31.9241 H   0  0  0  0  0  0  0  0  0  0  0  0
   -5.3740   26.6950  -29.3710 H   0  0  0  0  0  0  0  0  0  0  0  0
   -2.1344   23.1540  -26.9025 H   0  0  0  0  0  0  0  0  0  0  0  0
   -1.5454   20.7682  -26.4753 H   0  0  0  0  0  0  0  0  0  0  0  0
    1.8236   20.3492  -28.4844 H   0  0  0  0  0  0  0  0  0  0  0  0
    3.1236   19.5950  -27.4571 H   0  0  0  0  0  0  0  0  0  0  0  0
    2.2186   18.7063  -30.2325 H   0  0  0  0  0  0  0  0  0  0  0  0
    3.7982   19.4482  -29.7681 H   0  0  0  0  0  0  0  0  0  0  0  0
    1.7029   16.6512  -29.6430 H   0  0  0  0  0  0  0  0  0  0  0  0
    2.8394   15.6393  -28.6709 H   0  0  0  0  0  0  0  0  0  0  0  0
    0.8464   16.4832  -27.3748 H   0  0  0  0  0  0  0  0  0  0  0  0
    2.4641   16.9868  -26.7074 H   0  0  0  0  0  0  0  0  0  0  0  0
    0.0806   20.4504  -30.4735 H   0  0  0  0  0  0  0  0  0  0  0  0
   -0.4723   22.8435  -30.8879 H   0  0  0  0  0  0  0  0  0  0  0  0
  1  2  2  0
  2  3  1  0
  3  4  1  0
  4  5  2  0
  5  6  1  0
  6  7  1  0
  7  8  2  0
  7  9  2  0
  7 10  1  0
 10 11  1  0
 11 12  1  0
 12 13  1  0
 13 14  1  0
 14 15  1  0
  6 16  2  0
 16 17  1  0
 17 18  2  0
 18 19  1  0
  2 20  1  0
 20 21  2  0
 21 22  1  0
 22 23  2  0
 23 24  1  0
 24 25  2  0
 24 26  2  0
 24 27  1  0
 27 28  1  0
 28 29  1  0
 29 30  1  0
 30 31  1  0
 31 32  1  0
 23 33  1  0
 33 34  2  0
 18  4  1  0
 34 20  1  0
 15 10  1  0
 32 27  1  0
  5 35  1  0
 11 36  1  0
 11 37  1  0
 12 38  1  0
 12 39  1  0
 13 40  1  0
 13 41  1  0
 14 42  1  0
 14 43  1  0
 15 44  1  0
 15 45  1  0
 16 46  1  0
 17 47  1  0
 19 48  1  0
 21 49  1  0
 22 50  1  0
 28 51  1  0
 28 52  1  0
 29 53  1  0
 29 54  1  0
 31 55  1  0
 31 56  1  0
 32 57  1  0
 32 58  1  0
 33 59  1  0
 34 60  1  0
M  CHG  1   3  -1
M  END
>  <UniqueID>  (3) 
2

>  <SMILES>  (3) 
O=C([N-]c1cc(S(=O)(=O)N2CCCCC2)ccc1O)c1ccc(S(=O)(=O)N2CCOCC2)cc1

>  <Energy>  (3) 
78.52463448660734

>  <Genealogy>  (3) 
O=C([N-]c1cc(S(=O)(=O)N2CCCCC2)ccc1O)c1ccc(S(=O)(=O)N2CCOCC2)cc1 (protonated)
O=C([N-]c1cc(S(=O)(=O)N2CCCCC2)ccc1O)c1ccc(S(=O)(=O)N2CCOCC2)cc1 (3D coordinates assigned)
O=C([N-]c1cc(S(=O)(=O)N2CCCCC2)ccc1O)c1ccc(S(=O)(=O)N2CCOCC2)cc1 (nonaromatic ring conformer: 78.52463448660734 kcal/mol)

>  <smiles>  (3) 
O=C(Nc1cc(S(=O)(=O)N2CCCCC2)ccc1O)c1ccc(S(=O)(=O)N2CCOCC2)cc1

>  <score_type>  (3) 
oracle

>  <origin>  (3) 
adgpu

>  <m_score__min__energy>  (3) 
-12.83

>  <m_primary>  (3) 
energy

$$$$
3:0
     RDKit          3D

 51 54  0  0  0  0  0  0  0  0999 V2000
   -5.7070   24.1110  -30.4140 C   0  0  0  0  0  0  0  0  0  0  0  0
   -6.0080   23.1970  -31.5620 C   0  0  0  0  0  0  0  0  0  0  0  0
   -5.4220   23.3900  -32.6600 O   0  0  0  0  0  0  0  0  0  0  0  0
   -6.9910   22.1530  -31.4290 N   0  0  0  0  0  0  0  0  0  0  0  0
   -8.3020   22.3420  -30.8010 C   0  0  0  0  0  0  0  0  0  0  0  0
   -9.1250   21.0710  -31.1210 C   0  0  0  0  0  0  0  0  0  0  0  0
   -8.1710   20.2310  -31.8920 C   0  0  0  0  0  0  0  0  0  0  0  0
   -8.3890   18.9560  -32.4160 C   0  0  0  0  0  0  0  0  0  0  0  0
   -7.3380   18.3170  -33.0870 C   0  0  0  0  0  0  0  0  0  0  0  0
   -6.0800   18.9460  -33.2050 C   0  0  0  0  0  0  0  0  0  0  0  0
   -4.7500   18.1490  -34.0410 S   0  0  0  0  0  0  0  0  0  0  0  0
   -5.2400   17.5560  -35.3330 O   0  0  0  0  0  0  0  0  0  0  0  0
   -4.1990   17.0430  -33.1850 O   0  0  0  0  0  0  0  0  0  0  0  0
   -3.5000   19.2940  -34.3900 N   0  0  0  0  0  0  0  0  0  0  0  0
   -2.4960   19.5850  -33.4210 C   0  0  0  0  0  0  0  0  0  0  0  0
   -1.2770   18.9040  -33.4520 C   0  0  0  0  0  0  0  0  0  0  0  0
   -0.3100   19.1590  -32.4780 C   0  0  0  0  0  0  0  0  0  0  0  0
   -0.5620   20.0880  -31.4640 C   0  0  0  0  0  0  0  0  0  0  0  0
   -1.7890   20.7760  -31.4160 C   0  0  0  0  0  0  0  0  0  0  0  0
   -2.0580   21.7470  -30.3290 C   0  0  0  0  0  0  0  0  0  0  0  0
   -3.0650   21.5850  -29.5860 O   0  0  0  0  0  0  0  0  0  0  0  0
   -1.2150   22.8970  -30.1400 N   0  0  0  0  0  0  0  0  0  0  0  0
   -1.1110   23.6110  -28.8940 C   0  0  0  0  0  0  0  0  0  0  0  0
   -0.2580   23.1620  -27.8690 C   0  0  0  0  0  0  0  0  0  0  0  0
   -0.1520   23.8760  -26.6720 C   0  0  0  0  0  0  0  0  0  0  0  0
   -0.8840   25.0500  -26.4900 C   0  0  0  0  0  0  0  0  0  0  0  0
   -1.7180   25.5180  -27.5080 C   0  0  0  0  0  0  0  0  0  0  0  0
   -1.8300   24.8080  -28.7080 C   0  0  0  0  0  0  0  0  0  0  0  0
   -2.6630   25.2930  -29.7080 O   0  0  0  0  0  0  0  0  0  0  0  0
   -2.7450   20.5300  -32.4180 C   0  0  0  0  0  0  0  0  0  0  0  0
   -5.8870   20.2300  -32.6600 C   0  0  0  0  0  0  0  0  0  0  0  0
   -6.9670   20.8650  -32.0330 C   0  0  0  0  0  0  0  0  0  0  0  0
   -5.8819   23.5798  -29.4668 H   0  0  0  0  0  0  0  0  0  0  0  0
   -4.6559   24.4312  -30.4661 H   0  0  0  0  0  0  0  0  0  0  0  0
   -6.3621   24.9931  -30.4661 H   0  0  0  0  0  0  0  0  0  0  0  0
   -8.1897   22.4590  -29.7130 H   0  0  0  0  0  0  0  0  0  0  0  0
   -8.8000   23.2465  -31.1803 H   0  0  0  0  0  0  0  0  0  0  0  0
   -9.4403   20.5629  -30.1977 H   0  0  0  0  0  0  0  0  0  0  0  0
  -10.0522   21.2860  -31.6725 H   0  0  0  0  0  0  0  0  0  0  0  0
   -9.3659   18.4628  -32.3045 H   0  0  0  0  0  0  0  0  0  0  0  0
   -7.4941   17.3198  -33.5242 H   0  0  0  0  0  0  0  0  0  0  0  0
   -1.0789   18.1667  -34.2439 H   0  0  0  0  0  0  0  0  0  0  0  0
    0.6527   18.6277  -32.5084 H   0  0  0  0  0  0  0  0  0  0  0  0
    0.2037   20.2825  -30.6986 H   0  0  0  0  0  0  0  0  0  0  0  0
   -0.7220   23.2850  -30.9760 H   0  0  0  0  0  0  0  0  0  0  0  0
    0.3294   22.2428  -28.0106 H   0  0  0  0  0  0  0  0  0  0  0  0
    0.5095   23.5118  -25.8722 H   0  0  0  0  0  0  0  0  0  0  0  0
   -0.8042   25.6069  -25.5448 H   0  0  0  0  0  0  0  0  0  0  0  0
   -2.2884   26.4477  -27.3656 H   0  0  0  0  0  0  0  0  0  0  0  0
   -3.6953   21.0840  -32.4137 H   0  0  0  0  0  0  0  0  0  0  0  0
   -4.9069   20.7250  -32.7253 H   0  0  0  0  0  0  0  0  0  0  0  0
  1  2  1  0
  2  3  2  0
  2  4  1  0
  4  5  1  0
  5  6  1  0
  6  7  1  0
  7  8  2  0
  8  9  1  0
  9 10  2  0
 10 11  1  0
 11 12  2  0
 11 13  2  0
 11 14  1  0
 14 15  1  0
 15 16  2  0
 16 17  1  0
 17 18  2  0
 18 19  1  0
 19 20  1  0
 20 21  2  0
 20 22  1  0
 22 23  1  0
 23 24  2  0
 24 25  1  0
 25 26  2  0
 26 27  1  0
 27 28  2  0
 28 29  1  0
 19 30  2  0
 10 31  1  0
 31 32  2  0
 32  4  1  0
 32  7  1  0
 30 15  1  0
 28 23  1  0
  1 33  1  0
  1 34  1  0
  1 35  1  0
  5 36  1  0
  5 37  1  0
  6 38  1  0
  6 39  1  0
  8 40  1  0
  9 41  1  0
 16 42  1  0
 17 43  1  0
 18 44  1  0
 22 45  1  0
 24 46  1  0
 25 47  1  0
 26 48  1  0
 27 49  1  0
 30 50  1  0
 31 51  1  0
M  CHG  2  14  -1  29  -1
M  END
>  <UniqueID>  (4) 
3

>  <SMILES>  (4) 
CC(=O)N1CCc2ccc(S(=O)(=O)[N-]c3cccc(C(=O)Nc4ccccc4[O-])c3)cc21

>  <Energy>  (4) 
81.62160479758649

>  <Genealogy>  (4) 
CC(=O)N1CCc2ccc(S(=O)(=O)[N-]c3cccc(C(=O)Nc4ccccc4[O-])c3)cc21 (protonated)
CC(=O)N1CCc2ccc(S(=O)(=O)[N-]c3cccc(C(=O)Nc4ccccc4[O-])c3)cc21 (3D coordinates assigned)
CC(=O)N1CCc2ccc(S(=O)(=O)[N-]c3cccc(C(=O)Nc4ccccc4[O-])c3)cc21 (nonaromatic ring conformer: 81.62160479758649 kcal/mol)

>  <smiles>  (4) 
CC(=O)N1CCc2ccc(S(=O)(=O)Nc3cccc(C(=O)Nc4ccccc4O)c3)cc21

>  <score_type>  (4) 
oracle

>  <origin>  (4) 
adgpu

>  <m_score__min__energy>  (4) 
-12.52

>  <m_primary>  (4) 
energy

$$$$
4:0
     RDKit          3D

 45 48  0  0  0  0  0  0  0  0999 V2000
   -3.9540   20.5560  -33.0940 C   0  0  0  0  0  0  0  0  0  0  0  0
   -5.4140   20.5290  -32.9450 N   0  0  0  0  0  0  0  0  0  0  0  0
   -6.1890   19.4710  -33.6150 C   0  0  0  0  0  0  0  0  0  0  0  0
   -7.4310   19.1110  -32.7960 C   0  0  0  0  0  0  0  0  0  0  0  0
   -8.1570   20.2910  -32.4570 O   0  0  0  0  0  0  0  0  0  0  0  0
   -7.5030   21.4530  -32.0370 C   0  0  0  0  0  0  0  0  0  0  0  0
   -8.2250   22.4650  -31.3990 C   0  0  0  0  0  0  0  0  0  0  0  0
   -7.5660   23.5990  -30.9210 C   0  0  0  0  0  0  0  0  0  0  0  0
   -6.1820   23.7370  -31.0960 C   0  0  0  0  0  0  0  0  0  0  0  0
   -5.3510   25.1130  -30.3730 S   0  0  0  0  0  0  0  0  0  0  0  0
   -5.7410   25.2090  -28.9270 O   0  0  0  0  0  0  0  0  0  0  0  0
   -5.7260   26.3940  -31.0660 O   0  0  0  0  0  0  0  0  0  0  0  0
   -3.6340   24.8690  -30.4860 N   0  0  0  0  0  0  0  0  0  0  0  0
   -2.8650   24.0910  -29.5580 C   0  0  0  0  0  0  0  0  0  0  0  0
   -3.0890   22.7130  -29.3870 C   0  0  0  0  0  0  0  0  0  0  0  0
   -2.3630   21.9850  -28.4340 C   0  0  0  0  0  0  0  0  0  0  0  0
   -1.4060   22.6420  -27.6350 C   0  0  0  0  0  0  0  0  0  0  0  0
   -1.1430   24.0030  -27.8470 C   0  0  0  0  0  0  0  0  0  0  0  0
   -1.8710   24.7240  -28.7990 C   0  0  0  0  0  0  0  0  0  0  0  0
   -1.6130   26.0780  -28.9740 O   0  0  0  0  0  0  0  0  0  0  0  0
   -0.5970   21.8770  -26.6170 C   0  0  0  0  0  0  0  0  0  0  0  0
   -1.2820   20.6530  -26.1810 N   0  0  0  0  0  0  0  0  0  0  0  0
   -1.6470   19.8250  -27.3380 C   0  0  0  0  0  0  0  0  0  0  0  0
   -2.6910   20.5300  -28.2170 C   0  0  0  0  0  0  0  0  0  0  0  0
   -5.4630   22.7430  -31.7780 C   0  0  0  0  0  0  0  0  0  0  0  0
   -6.1200   21.5900  -32.2540 C   0  0  0  0  0  0  0  0  0  0  0  0
   -3.4840   20.5647  -32.0995 H   0  0  0  0  0  0  0  0  0  0  0  0
   -3.6253   19.6638  -33.6471 H   0  0  0  0  0  0  0  0  0  0  0  0
   -3.6585   21.4598  -33.6471 H   0  0  0  0  0  0  0  0  0  0  0  0
   -6.5015   19.8259  -34.6082 H   0  0  0  0  0  0  0  0  0  0  0  0
   -5.5568   18.5760  -33.7117 H   0  0  0  0  0  0  0  0  0  0  0  0
   -8.0761   18.4451  -33.3880 H   0  0  0  0  0  0  0  0  0  0  0  0
   -7.1167   18.6051  -31.8712 H   0  0  0  0  0  0  0  0  0  0  0  0
   -9.3135   22.3680  -31.2733 H   0  0  0  0  0  0  0  0  0  0  0  0
   -8.1346   24.3869  -30.4053 H   0  0  0  0  0  0  0  0  0  0  0  0
   -3.8406   22.2019  -30.0066 H   0  0  0  0  0  0  0  0  0  0  0  0
   -0.3597   24.5064  -27.2613 H   0  0  0  0  0  0  0  0  0  0  0  0
    0.3701   21.6033  -27.0641 H   0  0  0  0  0  0  0  0  0  0  0  0
   -0.4585   22.5222  -25.7369 H   0  0  0  0  0  0  0  0  0  0  0  0
   -2.1550   20.9180  -25.6610 H   0  0  0  0  0  0  0  0  0  0  0  0
   -0.7460   19.6292  -27.9378 H   0  0  0  0  0  0  0  0  0  0  0  0
   -2.0797   18.8830  -26.9701 H   0  0  0  0  0  0  0  0  0  0  0  0
   -2.7300   20.0261  -29.1940 H   0  0  0  0  0  0  0  0  0  0  0  0
   -3.6603   20.4757  -27.6997 H   0  0  0  0  0  0  0  0  0  0  0  0
   -4.3820   22.8642  -31.9418 H   0  0  0  0  0  0  0  0  0  0  0  0
  1  2  1  0
  2  3  1  0
  3  4  1  0
  4  5  1  0
  5  6  1  0
  6  7  2  0
  7  8  1  0
  8  9  2  0
  9 10  1  0
 10 11  2  0
 10 12  2  0
 10 13  1  0
 13 14  1  0
 14 15  2  0
 15 16  1  0
 16 17  2  0
 17 18  1  0
 18 19  2  0
 19 20  1  0
 17 21  1  0
 21 22  1  0
 22 23  1  0
 23 24  1  0
  9 25  1  0
 25 26  2  0
 26  2  1  0
 26  6  1  0
 19 14  1  0
 24 16  1  0
  1 27  1  0
  1 28  1  0
  1 29  1  0
  3 30  1  0
  3 31  1  0
  4 32  1  0
  4 33  1  0
  7 34  1  0
  8 35  1  0
 15 36  1  0
 18 37  1  0
 21 38  1  0
 21 39  1  0
 22 40  1  0
 23 41  1  0
 23 42  1  0
 24 43  1  0
 24 44  1  0
 25 45  1  0
M  CHG  2  13  -1  20  -1
M  END
>  <UniqueID>  (5) 
4

>  <SMILES>  (5) 
CN1CCOc2ccc(S(=O)(=O)[N-]c3cc4c(cc3[O-])CNCC4)cc21

>  <Energy>  (5) 
53.85403327580672

>  <Genealogy>  (5) 
CN1CCOc2ccc(S(=O)(=O)[N-]c3cc4c(cc3[O-])CNCC4)cc21 (protonated)
CN1CCOc2ccc(S(=O)(=O)[N-]c3cc4c(cc3[O-])CNCC4)cc21 (3D coordinates assigned)
CN1CCOc2ccc(S(=O)(=O)[N-]c3cc4c(cc3[O-])CNCC4)cc21 (nonaromatic ring conformer: 53.85403327580672 kcal/mol)

>  <smiles>  (5) 
CN1CCOc2ccc(S(=O)(=O)Nc3cc4c(cc3O)CNCC4)cc21

>  <score_type>  (5) 
oracle

>  <origin>  (5) 
adgpu

>  <m_score__min__energy>  (5) 
-13.869999999999999

>  <m_primary>  (5) 
energy

$$$$
5:0
     RDKit          3D

 61 63  0  0  0  0  0  0  0  0999 V2000
   -2.1090   15.6630  -32.9730 C   0  0  0  0  0  0  0  0  0  0  0  0
   -2.6370   17.0540  -33.1700 C   0  0  0  0  0  0  0  0  0  0  0  0
   -1.7500   18.1350  -33.2470 C   0  0  0  0  0  0  0  0  0  0  0  0
   -2.2260   19.4370  -33.4610 C   0  0  0  0  0  0  0  0  0  0  0  0
   -1.2610   20.5530  -33.4960 C   0  0  0  0  0  0  0  0  0  0  0  0
   -1.4720   21.5560  -32.7630 O   0  0  0  0  0  0  0  0  0  0  0  0
   -0.0920   20.5110  -34.3420 N   0  0  0  0  0  0  0  0  0  0  0  0
    0.0340   19.4960  -35.3900 C   0  0  0  0  0  0  0  0  0  0  0  0
    0.9340   21.5480  -34.1940 C   0  0  0  0  0  0  0  0  0  0  0  0
   -3.6130   19.6580  -33.6080 C   0  0  0  0  0  0  0  0  0  0  0  0
   -4.1240   20.9400  -33.8330 O   0  0  0  0  0  0  0  0  0  0  0  0
   -4.5030   18.5700  -33.5450 C   0  0  0  0  0  0  0  0  0  0  0  0
   -6.2380   18.8400  -33.7220 S   0  0  0  0  0  0  0  0  0  0  0  0
   -6.4610   19.6750  -34.9520 O   0  0  0  0  0  0  0  0  0  0  0  0
   -6.9730   17.5380  -33.8750 O   0  0  0  0  0  0  0  0  0  0  0  0
   -6.8270   19.6600  -32.3040 N   0  0  0  0  0  0  0  0  0  0  0  0
   -7.7860   18.9680  -31.4460 C   0  0  0  0  0  0  0  0  0  0  0  0
   -6.3290   20.9620  -31.9410 C   0  0  0  0  0  0  0  0  0  0  0  0
   -7.0260   22.1210  -32.3150 C   0  0  0  0  0  0  0  0  0  0  0  0
   -6.5470   23.3840  -31.9570 C   0  0  0  0  0  0  0  0  0  0  0  0
   -5.3580   23.5090  -31.2230 C   0  0  0  0  0  0  0  0  0  0  0  0
   -4.8710   24.8450  -30.8260 C   0  0  0  0  0  0  0  0  0  0  0  0
   -5.6780   25.8130  -30.8160 O   0  0  0  0  0  0  0  0  0  0  0  0
   -3.5050   25.0820  -30.4670 N   0  0  0  0  0  0  0  0  0  0  0  0
   -2.7090   24.2060  -29.6120 C   0  0  0  0  0  0  0  0  0  0  0  0
   -2.3540   24.9250  -28.3050 C   0  0  1  0  0  0  0  0  0  0  0  0
   -1.5790   24.0200  -27.3450 C   0  0  0  0  0  0  0  0  0  0  0  0
   -0.1810   24.5540  -27.4140 C   0  0  0  0  0  0  0  0  0  0  0  0
   -0.3950   25.9890  -27.8360 C   0  0  0  0  0  0  0  0  0  0  0  0
   -1.5710   26.0630  -28.6050 O   0  0  0  0  0  0  0  0  0  0  0  0
   -4.6790   22.3520  -30.8160 C   0  0  0  0  0  0  0  0  0  0  0  0
   -5.1560   21.0890  -31.1760 C   0  0  0  0  0  0  0  0  0  0  0  0
   -4.0110   17.2750  -33.3340 C   0  0  0  0  0  0  0  0  0  0  0  0
   -2.0283   15.4504  -31.8968 H   0  0  0  0  0  0  0  0  0  0  0  0
   -2.7955   14.9408  -33.4389 H   0  0  0  0  0  0  0  0  0  0  0  0
   -1.1162   15.5783  -33.4389 H   0  0  0  0  0  0  0  0  0  0  0  0
   -0.6692   17.9613  -33.1386 H   0  0  0  0  0  0  0  0  0  0  0  0
    0.1570   18.5053  -34.9281 H   0  0  0  0  0  0  0  0  0  0  0  0
   -0.8715   19.4995  -36.0146 H   0  0  0  0  0  0  0  0  0  0  0  0
    0.9111   19.7208  -36.0146 H   0  0  0  0  0  0  0  0  0  0  0  0
    1.1169   21.7329  -33.1252 H   0  0  0  0  0  0  0  0  0  0  0  0
    1.8658   21.2128  -34.6729 H   0  0  0  0  0  0  0  0  0  0  0  0
    0.5889   22.4762  -34.6729 H   0  0  0  0  0  0  0  0  0  0  0  0
   -5.0320   21.1090  -34.2480 H   0  0  0  0  0  0  0  0  0  0  0  0
   -7.5328   19.1507  -30.3912 H   0  0  0  0  0  0  0  0  0  0  0  0
   -8.7992   19.3445  -31.6504 H   0  0  0  0  0  0  0  0  0  0  0  0
   -7.7481   17.8878  -31.6504 H   0  0  0  0  0  0  0  0  0  0  0  0
   -7.9569   22.0347  -32.8946 H   0  0  0  0  0  0  0  0  0  0  0  0
   -7.1051   24.2848  -32.2522 H   0  0  0  0  0  0  0  0  0  0  0  0
   -3.2869   23.2986  -29.3826 H   0  0  0  0  0  0  0  0  0  0  0  0
   -1.7812   23.9363  -30.1377 H   0  0  0  0  0  0  0  0  0  0  0  0
   -3.2928   25.2141  -27.8099 H   0  0  0  0  0  0  0  0  0  0  0  0
   -1.9792   24.0962  -26.3232 H   0  0  0  0  0  0  0  0  0  0  0  0
   -1.6449   22.9550  -27.6124 H   0  0  0  0  0  0  0  0  0  0  0  0
    0.3139   24.4984  -26.4332 H   0  0  0  0  0  0  0  0  0  0  0  0
    0.4690   23.9895  -28.0988 H   0  0  0  0  0  0  0  0  0  0  0  0
   -0.4950   26.6259  -26.9447 H   0  0  0  0  0  0  0  0  0  0  0  0
    0.4633   26.3368  -28.4297 H   0  0  0  0  0  0  0  0  0  0  0  0
   -3.7653   22.4390  -30.2097 H   0  0  0  0  0  0  0  0  0  0  0  0
   -4.6103   20.1881  -30.8589 H   0  0  0  0  0  0  0  0  0  0  0  0
   -4.7087   16.4254  -33.2968 H   0  0  0  0  0  0  0  0  0  0  0  0
  1  2  1  0
  2  3  2  0
  3  4  1  0
  4  5  1  0
  5  6  2  0
  5  7  1  0
  7  8  1  0
  7  9  1  0
  4 10  2  0
 10 11  1  0
 10 12  1  0
 12 13  1  0
 13 14  2  0
 13 15  2  0
 13 16  1  0
 16 17  1  0
 16 18  1  0
 18 19  2  0
 19 20  1  0
 20 21  2  0
 21 22  1  0
 22 23  2  0
 22 24  1  0
 24 25  1  0
 25 26  1  0
 26 27  1  0
 27 28  1  0
 28 29  1  0
 29 30  1  0
 21 31  1  0
 31 32  2  0
 12 33  2  0
 33  2  1  0
 32 18  1  0
 30 26  1  0
  1 34  1  0
  1 35  1  0
  1 36  1  0
  3 37  1  0
  8 38  1  0
  8 39  1  0
  8 40  1  0
  9 41  1  0
  9 42  1  0
  9 43  1  0
 11 44  1  0
 17 45  1  0
 17 46  1  0
 17 47  1  0
 19 48  1  0
 20 49  1  0
 25 50  1  0
 25 51  1  0
 26 52  1  1
 27 53  1  0
 27 54  1  0
 28 55  1  0
 28 56  1  0
 29 57  1  0
 29 58  1  0
 31 59  1  0
 32 60  1  0
 33 61  1  0
M  CHG  1  24  -1
M  END
>  <UniqueID>  (6) 
5

>  <SMILES>  (6) 
Cc1cc(C(=O)N(C)C)c(O)c(S(=O)(=O)N(C)c2ccc(C(=O)[N-]C[C@H]3CCCO3)cc2)c1

>  <Energy>  (6) 
72.75650409929985

>  <Genealogy>  (6) 
Cc1cc(C(=O)N(C)C)c(O)c(S(=O)(=O)N(C)c2ccc(C(=O)[N-]CC3CCCO3)cc2)c1 (protonated)
Cc1cc(C(=O)N(C)C)c(O)c(S(=O)(=O)N(C)c2ccc(C(=O)[N-]C[C@H]3CCCO3)cc2)c1 (chirality)
Cc1cc(C(=O)N(C)C)c(O)c(S(=O)(=O)N(C)c2ccc(C(=O)[N-]C[C@H]3CCCO3)cc2)c1 (3D coordinates assigned)
Cc1cc(C(=O)N(C)C)c(O)c(S(=O)(=O)N(C)c2ccc(C(=O)[N-]C[C@H]3CCCO3)cc2)c1 (nonaromatic ring conformer: 72.75650409929985 kcal/mol)

>  <smiles>  (6) 
Cc1cc(C(=O)N(C)C)c(O)c(S(=O)(=O)N(C)c2ccc(C(=O)NCC3CCCO3)cc2)c1

>  <score_type>  (6) 
oracle

>  <origin>  (6) 
adgpu

>  <m_score__min__energy>  (6) 
-11.029999999999999

>  <m_primary>  (6) 
energy

$$$$
6:0
     RDKit          3D

 72 76  0  0  0  0  0  0  0  0999 V2000
   -9.1560   18.7700  -31.9680 C   0  0  0  0  0  0  0  0  0  0  0  0
   -8.0090   19.7100  -32.1330 C   0  0  0  0  0  0  0  0  0  0  0  0
   -6.9350   19.5330  -32.9860 C   0  0  0  0  0  0  0  0  0  0  0  0
   -6.1340   20.6240  -32.7390 C   0  0  0  0  0  0  0  0  0  0  0  0
   -4.9480   20.8990  -33.4390 O   0  0  0  0  0  0  0  0  0  0  0  0
   -3.7610   20.1650  -33.3190 C   0  0  0  0  0  0  0  0  0  0  0  0
   -3.5700   19.0760  -34.1810 C   0  0  0  0  0  0  0  0  0  0  0  0
   -2.4500   18.2540  -34.0480 C   0  0  0  0  0  0  0  0  0  0  0  0
   -1.5090   18.5190  -33.0540 C   0  0  0  0  0  0  0  0  0  0  0  0
   -1.6580   19.6330  -32.2240 C   0  0  0  0  0  0  0  0  0  0  0  0
   -2.7600   20.4980  -32.3750 C   0  0  0  0  0  0  0  0  0  0  0  0
   -2.8690   21.6930  -31.5750 N   0  0  0  0  0  0  0  0  0  0  0  0
   -1.7660   22.3050  -30.8870 C   0  0  0  0  0  0  0  0  0  0  0  0
   -0.6130   21.8030  -30.9470 O   0  0  0  0  0  0  0  0  0  0  0  0
   -1.9810   23.5290  -30.1760 N   0  0  0  0  0  0  0  0  0  0  0  0
   -1.6580   23.7600  -28.7970 C   0  0  0  0  0  0  0  0  0  0  0  0
   -1.7490   22.7320  -27.8480 C   0  0  0  0  0  0  0  0  0  0  0  0
   -1.4460   22.9790  -26.5130 C   0  0  0  0  0  0  0  0  0  0  0  0
   -1.0450   24.2570  -26.0900 C   0  0  0  0  0  0  0  0  0  0  0  0
   -0.7270   24.4530  -24.6310 C   0  0  0  0  0  0  0  0  0  0  0  0
   -1.0020   25.3210  -27.0300 C   0  0  0  0  0  0  0  0  0  0  0  0
   -0.5290   26.9710  -26.5490 S   0  0  0  0  0  0  0  0  0  0  0  0
   -0.5570   27.8910  -27.7390 O   0  0  0  0  0  0  0  0  0  0  0  0
   -1.5000   27.5130  -25.5370 O   0  0  0  0  0  0  0  0  0  0  0  0
    1.1250   26.9620  -25.8470 C   0  0  0  0  0  0  0  0  0  0  0  0
    1.8960   25.6900  -26.2670 C   0  0  0  0  0  0  0  0  0  0  0  0
    2.8290   25.1580  -25.1600 C   0  0  0  0  0  0  0  0  0  0  0  0
    3.4630   26.2390  -24.3770 N   0  0  0  0  0  0  0  0  0  0  0  0
    4.4810   26.9590  -25.1590 C   0  0  0  0  0  0  0  0  0  0  0  0
    2.4930   27.1590  -23.7280 C   0  0  0  0  0  0  0  0  0  0  0  0
    1.0700   27.0970  -24.3210 C   0  0  0  0  0  0  0  0  0  0  0  0
   -1.3030   25.0520  -28.3850 C   0  0  0  0  0  0  0  0  0  0  0  0
   -1.2370   26.0620  -29.3400 O   0  0  0  0  0  0  0  0  0  0  0  0
   -6.6970   21.3780  -31.7640 N   0  0  0  0  0  0  0  0  0  0  0  0
   -6.1770   22.5610  -31.1480 C   0  0  0  0  0  0  0  0  0  0  0  0
   -5.5260   22.4870  -29.9060 C   0  0  0  0  0  0  0  0  0  0  0  0
   -4.9830   23.6390  -29.3270 C   0  0  0  0  0  0  0  0  0  0  0  0
   -5.0980   24.8690  -29.9790 C   0  0  0  0  0  0  0  0  0  0  0  0
   -5.7730   24.9530  -31.2020 C   0  0  0  0  0  0  0  0  0  0  0  0
   -6.3200   23.8030  -31.7810 C   0  0  0  0  0  0  0  0  0  0  0  0
   -7.8420   20.8250  -31.3930 N   0  0  0  0  0  0  0  0  0  0  0  0
   -9.3492   18.6117  -30.8967 H   0  0  0  0  0  0  0  0  0  0  0  0
  -10.0515   19.1973  -32.4428 H   0  0  0  0  0  0  0  0  0  0  0  0
   -8.9129   17.8080  -32.4428 H   0  0  0  0  0  0  0  0  0  0  0  0
   -6.7615   18.7113  -33.6965 H   0  0  0  0  0  0  0  0  0  0  0  0
   -4.3090   18.8677  -34.9687 H   0  0  0  0  0  0  0  0  0  0  0  0
   -2.3100   17.3990  -34.7258 H   0  0  0  0  0  0  0  0  0  0  0  0
   -0.6466   17.8489  -32.9228 H   0  0  0  0  0  0  0  0  0  0  0  0
   -0.9081   19.8367  -31.4455 H   0  0  0  0  0  0  0  0  0  0  0  0
   -3.7600   22.2320  -31.5750 H   0  0  0  0  0  0  0  0  0  0  0  0
   -2.0617   21.7248  -28.1608 H   0  0  0  0  0  0  0  0  0  0  0  0
   -1.5214   22.1630  -25.7792 H   0  0  0  0  0  0  0  0  0  0  0  0
   -1.5049   23.9736  -24.0186 H   0  0  0  0  0  0  0  0  0  0  0  0
    0.2493   23.9997  -24.4044 H   0  0  0  0  0  0  0  0  0  0  0  0
   -0.6932   25.5289  -24.4044 H   0  0  0  0  0  0  0  0  0  0  0  0
    1.6699   27.8313  -26.2436 H   0  0  0  0  0  0  0  0  0  0  0  0
    1.1673   24.9053  -26.5184 H   0  0  0  0  0  0  0  0  0  0  0  0
    2.5260   25.9564  -27.1285 H   0  0  0  0  0  0  0  0  0  0  0  0
    2.2403   24.5280  -24.4769 H   0  0  0  0  0  0  0  0  0  0  0  0
    3.6327   24.5885  -25.6496 H   0  0  0  0  0  0  0  0  0  0  0  0
    5.1845   27.4565  -24.4752 H   0  0  0  0  0  0  0  0  0  0  0  0
    5.0283   26.2460  -25.7931 H   0  0  0  0  0  0  0  0  0  0  0  0
    3.9911   27.7126  -25.7931 H   0  0  0  0  0  0  0  0  0  0  0  0
    2.4336   26.9008  -22.6604 H   0  0  0  0  0  0  0  0  0  0  0  0
    2.8629   28.1808  -23.8988 H   0  0  0  0  0  0  0  0  0  0  0  0
    0.5409   26.2291  -23.9004 H   0  0  0  0  0  0  0  0  0  0  0  0
    0.5398   28.0267  -24.0668 H   0  0  0  0  0  0  0  0  0  0  0  0
   -5.4428   21.5207  -29.3870 H   0  0  0  0  0  0  0  0  0  0  0  0
   -4.4655   23.5762  -28.3584 H   0  0  0  0  0  0  0  0  0  0  0  0
   -4.6578   25.7720  -29.5309 H   0  0  0  0  0  0  0  0  0  0  0  0
   -5.8735   25.9242  -31.7085 H   0  0  0  0  0  0  0  0  0  0  0  0
   -6.8633   23.8738  -32.7348 H   0  0  0  0  0  0  0  0  0  0  0  0
  1  2  1  0
  2  3  1  0
  3  4  2  0
  4  5  1  0
  5  6  1  0
  6  7  2  0
  7  8  1  0
  8  9  2  0
  9 10  1  0
 10 11  2  0
 11 12  1  0
 12 13  1  0
 13 14  2  0
 13 15  1  0
 15 16  1  0
 16 17  2  0
 17 18  1  0
 18 19  2  0
 19 20  1  0
 19 21  1  0
 21 22  1  0
 22 23  2  0
 22 24  2  0
 22 25  1  0
 25 26  1  0
 26 27  1  0
 27 28  1  0
 28 29  1  0
 28 30  1  0
 30 31  1  0
 21 32  2  0
 32 33  1  0
  4 34  1  0
 34 35  1  0
 35 36  2  0
 36 37  1  0
 37 38  2  0
 38 39  1  0
 39 40  2  0
 34 41  1  0
 41  2  2  0
 11  6  1  0
 32 16  1  0
 40 35  1  0
 31 25  1  0
  1 42  1  0
  1 43  1  0
  1 44  1  0
  3 45  1  0
  7 46  1  0
  8 47  1  0
  9 48  1  0
 10 49  1  0
 12 50  1  0
 17 51  1  0
 18 52  1  0
 20 53  1  0
 20 54  1  0
 20 55  1  0
 25 56  1  0
 26 57  1  0
 26 58  1  0
 27 59  1  0
 27 60  1  0
 29 61  1  0
 29 62  1  0
 29 63  1  0
 30 64  1  0
 30 65  1  0
 31 66  1  0
 31 67  1  0
 36 68  1  0
 37 69  1  0
 38 70  1  0
 39 71  1  0
 40 72  1  0
M  CHG  2  15  -1  33  -1
M  END
>  <UniqueID>  (7) 
6

>  <SMILES>  (7) 
Cc1cc(Oc2ccccc2NC(=O)[N-]c2ccc(C)c(S(=O)(=O)C3CCN(C)CC3)c2[O-])n(-c2ccccc2)n1

>  <Energy>  (7) 
136.32405180913287

>  <Genealogy>  (7) 
Cc1cc(Oc2ccccc2NC(=O)[N-]c2ccc(C)c(S(=O)(=O)C3CCN(C)CC3)c2[O-])n(-c2ccccc2)n1 (protonated)
Cc1cc(Oc2ccccc2NC(=O)[N-]c2ccc(C)c(S(=O)(=O)C3CCN(C)CC3)c2[O-])n(-c2ccccc2)n1 (3D coordinates assigned)
Cc1cc(Oc2ccccc2NC(=O)[N-]c2ccc(C)c(S(=O)(=O)C3CCN(C)CC3)c2[O-])n(-c2ccccc2)n1 (nonaromatic ring conformer: 136.32405180913287 kcal/mol)

>  <smiles>  (7) 
Cc1cc(Oc2ccccc2NC(=O)Nc2ccc(C)c(S(=O)(=O)C3CCN(C)CC3)c2O)n(-c2ccccc2)n1

>  <score_type>  (7) 
oracle

>  <origin>  (7) 
adgpu

>  <m_score__min__energy>  (7) 
-15.91

>  <m_primary>  (7) 
energy

$$$$
7:0
     RDKit          3D

 42 44  0  0  0  0  0  0  0  0999 V2000
   -4.8760   20.9450  -33.0940 C   0  0  0  0  0  0  0  0  0  0  0  0
   -5.3830   22.0490  -32.2300 C   0  0  0  0  0  0  0  0  0  0  0  0
   -6.6930   22.2240  -31.8330 C   0  0  0  0  0  0  0  0  0  0  0  0
   -6.7050   23.3800  -31.0810 C   0  0  0  0  0  0  0  0  0  0  0  0
   -5.3960   23.8330  -31.0680 C   0  0  0  0  0  0  0  0  0  0  0  0
   -4.8940   25.0530  -30.4080 C   0  0  0  0  0  0  0  0  0  0  0  0
   -5.7240   25.8870  -29.9610 O   0  0  0  0  0  0  0  0  0  0  0  0
   -3.4950   25.2940  -30.2110 N   0  0  0  0  0  0  0  0  0  0  0  0
   -2.7140   24.8430  -29.0960 C   0  0  0  0  0  0  0  0  0  0  0  0
   -3.2180   23.9090  -28.1740 C   0  0  0  0  0  0  0  0  0  0  0  0
   -2.4300   23.4850  -27.0990 C   0  0  0  0  0  0  0  0  0  0  0  0
   -1.1270   23.9730  -26.9450 C   0  0  0  0  0  0  0  0  0  0  0  0
   -0.1460   23.4820  -25.5660 S   0  0  0  0  0  0  0  0  0  0  0  0
    1.2140   23.0700  -26.0570 O   0  0  0  0  0  0  0  0  0  0  0  0
   -0.7850   22.3040  -24.8830 O   0  0  0  0  0  0  0  0  0  0  0  0
    0.0090   24.8160  -24.4520 N   0  0  0  0  0  0  0  0  0  0  0  0
   -1.0850   25.7800  -24.6570 C   0  0  0  0  0  0  0  0  0  0  0  0
   -0.9400   26.9820  -23.6950 C   0  0  0  0  0  0  0  0  0  0  0  0
    0.2940   26.9740  -23.0000 O   0  0  0  0  0  0  0  0  0  0  0  0
    1.3600   26.8460  -23.9190 C   0  0  0  0  0  0  0  0  0  0  0  0
    1.3230   25.4710  -24.6180 C   0  0  0  0  0  0  0  0  0  0  0  0
   -0.6160   24.8870  -27.8760 C   0  0  0  0  0  0  0  0  0  0  0  0
   -1.4030   25.3110  -28.9510 C   0  0  0  0  0  0  0  0  0  0  0  0
   -4.6350   23.0240  -31.7700 O   0  0  0  0  0  0  0  0  0  0  0  0
   -4.5005   20.1272  -32.4614 H   0  0  0  0  0  0  0  0  0  0  0  0
   -5.6929   20.5717  -33.7291 H   0  0  0  0  0  0  0  0  0  0  0  0
   -4.0605   21.3214  -33.7291 H   0  0  0  0  0  0  0  0  0  0  0  0
   -7.5501   21.5757  -32.0677 H   0  0  0  0  0  0  0  0  0  0  0  0
   -7.5738   23.8457  -30.5928 H   0  0  0  0  0  0  0  0  0  0  0  0
   -4.2356   23.5103  -28.2985 H   0  0  0  0  0  0  0  0  0  0  0  0
   -2.8355   22.7657  -26.3722 H   0  0  0  0  0  0  0  0  0  0  0  0
   -0.0600   24.4230  -23.4840 H   0  0  0  0  0  0  0  0  0  0  0  0
   -1.0572   26.1427  -25.6951 H   0  0  0  0  0  0  0  0  0  0  0  0
   -2.0424   25.2776  -24.4544 H   0  0  0  0  0  0  0  0  0  0  0  0
   -1.0102   27.9117  -24.2788 H   0  0  0  0  0  0  0  0  0  0  0  0
   -1.7448   26.9119  -22.9484 H   0  0  0  0  0  0  0  0  0  0  0  0
    1.2781   27.6380  -24.6779 H   0  0  0  0  0  0  0  0  0  0  0  0
    2.3093   26.9357  -23.3705 H   0  0  0  0  0  0  0  0  0  0  0  0
    1.5204   25.6099  -25.6912 H   0  0  0  0  0  0  0  0  0  0  0  0
    2.0897   24.8292  -24.1594 H   0  0  0  0  0  0  0  0  0  0  0  0
    0.4079   25.2723  -27.7607 H   0  0  0  0  0  0  0  0  0  0  0  0
   -0.9895   26.0163  -29.6869 H   0  0  0  0  0  0  0  0  0  0  0  0
  1  2  1  0
  2  3  2  0
  3  4  1  0
  4  5  2  0
  5  6  1  0
  6  7  2  0
  6  8  1  0
  8  9  1  0
  9 10  2  0
 10 11  1  0
 11 12  2  0
 12 13  1  0
 13 14  2  0
 13 15  2  0
 13 16  1  0
 16 17  1  0
 17 18  1  0
 18 19  1  0
 19 20  1  0
 20 21  1  0
 12 22  1  0
 22 23  2  0
  5 24  1  0
 24  2  1  0
 23  9  1  0
 21 16  1  0
  1 25  1  0
  1 26  1  0
  1 27  1  0
  3 28  1  0
  4 29  1  0
 10 30  1  0
 11 31  1  0
 16 32  1  0
 17 33  1  0
 17 34  1  0
 18 35  1  0
 18 36  1  0
 20 37  1  0
 20 38  1  0
 21 39  1  0
 21 40  1  0
 22 41  1  0
 23 42  1  0
M  CHG  2   8  -1  16   1
M  END
>  <UniqueID>  (8) 
7

>  <SMILES>  (8) 
Cc1ccc(C(=O)[N-]c2ccc(S(=O)(=O)[NH+]3CCOCC3)cc2)o1

>  <Energy>  (8) 
79.58084079756756

>  <Genealogy>  (8) 
Cc1ccc(C(=O)[N-]c2ccc(S(=O)(=O)[NH+]3CCOCC3)cc2)o1 (protonated)
Cc1ccc(C(=O)[N-]c2ccc(S(=O)(=O)[NH+]3CCOCC3)cc2)o1 (3D coordinates assigned)
Cc1ccc(C(=O)[N-]c2ccc(S(=O)(=O)[NH+]3CCOCC3)cc2)o1 (nonaromatic ring conformer: 79.58084079756756 kcal/mol)

>  <smiles>  (8) 
Cc1ccc(C(=O)Nc2ccc(S(=O)(=O)N3CCOCC3)cc2)o1

>  <score_type>  (8) 
oracle

>  <origin>  (8) 
adgpu

>  <m_score__min__energy>  (8) 
-9.6099999999999994

>  <m_primary>  (8) 
energy

$$$$
8:0
     RDKit          3D

 50 53  0  0  0  0  0  0  0  0999 V2000
   -2.8080   21.4470  -33.1320 C   0  0  0  0  0  0  0  0  0  0  0  0
   -3.8190   21.6330  -32.1450 O   0  0  0  0  0  0  0  0  0  0  0  0
   -4.9850   20.8580  -32.0410 C   0  0  0  0  0  0  0  0  0  0  0  0
   -5.0030   19.4940  -32.4010 C   0  0  0  0  0  0  0  0  0  0  0  0
   -6.1730   18.7430  -32.2730 C   0  0  0  0  0  0  0  0  0  0  0  0
   -7.3380   19.3380  -31.7830 C   0  0  0  0  0  0  0  0  0  0  0  0
   -8.8030   18.3880  -31.6130 Cl  0  0  0  0  0  0  0  0  0  0  0  0
   -7.3350   20.6890  -31.4250 C   0  0  0  0  0  0  0  0  0  0  0  0
   -6.1680   21.4580  -31.5590 C   0  0  0  0  0  0  0  0  0  0  0  0
   -6.2000   23.1500  -31.0540 S   0  0  0  0  0  0  0  0  0  0  0  0
   -6.2540   24.0690  -32.2440 O   0  0  0  0  0  0  0  0  0  0  0  0
   -7.4250   23.4020  -30.2180 O   0  0  0  0  0  0  0  0  0  0  0  0
   -4.7830   23.4850  -30.1170 N   0  0  0  0  0  0  0  0  0  0  0  0
   -4.2120   22.6480  -29.2250 C   0  0  0  0  0  0  0  0  0  0  0  0
   -3.0480   23.2190  -28.7250 C   0  0  0  0  0  0  0  0  0  0  0  0
   -2.1250   22.6330  -27.7320 C   0  0  0  0  0  0  0  0  0  0  0  0
   -1.7970   23.3020  -26.7170 O   0  0  0  0  0  0  0  0  0  0  0  0
   -1.5490   21.2800  -27.9200 C   0  0  0  0  0  0  0  0  0  0  0  0
   -1.6570   20.3630  -26.8650 C   0  0  0  0  0  0  0  0  0  0  0  0
   -1.1680   19.0640  -26.9920 C   0  0  0  0  0  0  0  0  0  0  0  0
   -0.5620   18.6390  -28.1850 C   0  0  0  0  0  0  0  0  0  0  0  0
   -0.0710   17.3290  -28.3330 O   0  0  0  0  0  0  0  0  0  0  0  0
    0.9050   16.7300  -27.4870 C   0  0  0  0  0  0  0  0  0  0  0  0
   -0.4420   19.5470  -29.2600 C   0  0  0  0  0  0  0  0  0  0  0  0
    0.1700   19.1470  -30.4640 C   0  0  0  0  0  0  0  0  0  0  0  0
    0.3050   20.0450  -31.5230 C   0  0  0  0  0  0  0  0  0  0  0  0
   -0.1570   21.3530  -31.3960 C   0  0  0  0  0  0  0  0  0  0  0  0
   -0.7650   21.7710  -30.2120 C   0  0  0  0  0  0  0  0  0  0  0  0
   -0.9320   20.8780  -29.1310 C   0  0  0  0  0  0  0  0  0  0  0  0
   -2.9310   24.4510  -29.3470 C   0  0  0  0  0  0  0  0  0  0  0  0
   -1.9170   25.3830  -29.1590 O   0  0  0  0  0  0  0  0  0  0  0  0
   -4.0050   24.5800  -30.1990 C   0  0  0  0  0  0  0  0  0  0  0  0
   -4.2620   25.6630  -31.0320 O   0  0  0  0  0  0  0  0  0  0  0  0
   -1.8415   21.2692  -32.6379 H   0  0  0  0  0  0  0  0  0  0  0  0
   -3.0636   20.5808  -33.7600 H   0  0  0  0  0  0  0  0  0  0  0  0
   -2.7386   22.3474  -33.7600 H   0  0  0  0  0  0  0  0  0  0  0  0
   -4.0885   19.0187  -32.7854 H   0  0  0  0  0  0  0  0  0  0  0  0
   -6.1774   17.6807  -32.5586 H   0  0  0  0  0  0  0  0  0  0  0  0
   -8.2532   21.1530  -31.0356 H   0  0  0  0  0  0  0  0  0  0  0  0
   -4.6082   21.6629  -28.9374 H   0  0  0  0  0  0  0  0  0  0  0  0
   -2.1344   20.6731  -25.9238 H   0  0  0  0  0  0  0  0  0  0  0  0
   -1.2579   18.3641  -26.1482 H   0  0  0  0  0  0  0  0  0  0  0  0
    0.6311   16.8981  -26.4350 H   0  0  0  0  0  0  0  0  0  0  0  0
    0.9492   15.6491  -27.6862 H   0  0  0  0  0  0  0  0  0  0  0  0
    1.8888   17.1800  -27.6862 H   0  0  0  0  0  0  0  0  0  0  0  0
    0.5445   18.1182  -30.5701 H   0  0  0  0  0  0  0  0  0  0  0  0
    0.7778   19.7192  -32.4613 H   0  0  0  0  0  0  0  0  0  0  0  0
   -0.0420   22.0586  -32.2320 H   0  0  0  0  0  0  0  0  0  0  0  0
   -1.1185   22.8085  -30.1194 H   0  0  0  0  0  0  0  0  0  0  0  0
   -4.6400   25.5300  -31.9630 H   0  0  0  0  0  0  0  0  0  0  0  0
  1  2  1  0
  2  3  1  0
  3  4  2  0
  4  5  1  0
  5  6  2  0
  6  7  1  0
  6  8  1  0
  8  9  2  0
  9 10  1  0
 10 11  2  0
 10 12  2  0
 10 13  1  0
 13 14  1  0
 14 15  2  0
 15 16  1  0
 16 17  2  0
 16 18  1  0
 18 19  2  0
 19 20  1  0
 20 21  2  0
 21 22  1  0
 22 23  1  0
 21 24  1  0
 24 25  2  0
 25 26  1  0
 26 27  2  0
 27 28  1  0
 28 29  2  0
 15 30  1  0
 30 31  1  0
 30 32  2  0
 32 33  1  0
  9  3  1  0
 32 13  1  0
 29 18  1  0
 29 24  1  0
  1 34  1  0
  1 35  1  0
  1 36  1  0
  4 37  1  0
  5 38  1  0
  8 39  1  0
 14 40  1  0
 19 41  1  0
 20 42  1  0
 23 43  1  0
 23 44  1  0
 23 45  1  0
 25 46  1  0
 26 47  1  0
 27 48  1  0
 28 49  1  0
 33 50  1  0
M  CHG  1  31  -1
M  END
>  <UniqueID>  (9) 
8

>  <SMILES>  (9) 
COc1ccc(Cl)cc1S(=O)(=O)n1cc(C(=O)c2ccc(OC)c3ccccc23)c([O-])c1O

>  <Energy>  (9) 
96.44414150124777

>  <Genealogy>  (9) 
COc1ccc(Cl)cc1S(=O)(=O)n1cc(C(=O)c2ccc(OC)c3ccccc23)c([O-])c1O (protonated)
COc1ccc(Cl)cc1S(=O)(=O)n1cc(C(=O)c2ccc(OC)c3ccccc23)c([O-])c1O (3D coordinates assigned)
COc1ccc(Cl)cc1S(=O)(=O)n1cc(C(=O)c2ccc(OC)c3ccccc23)c([O-])c1O (optimized conformer: 96.44414150124777 kcal/mol)

>  <smiles>  (9) 
COc1ccc(Cl)cc1S(=O)(=O)n1cc(C(=O)c2ccc(OC)c3ccccc23)c(O)c1O

>  <score_type>  (9) 
oracle

>  <origin>  (9) 
adgpu

>  <m_score__min__energy>  (9) 
-13.69

>  <m_primary>  (9) 
energy

$$$$
9:0
     RDKit          3D

 51 53  0  0  0  0  0  0  0  0999 V2000
   -5.1140   24.0910  -29.2750 C   0  0  0  0  0  0  0  0  0  0  0  0
   -4.1000   24.8650  -30.0600 C   0  0  0  0  0  0  0  0  0  0  0  0
   -4.4600   25.4460  -31.1160 O   0  0  0  0  0  0  0  0  0  0  0  0
   -2.7200   24.9290  -29.6710 N   0  0  0  0  0  0  0  0  0  0  0  0
   -1.8910   23.8360  -29.2500 C   0  0  0  0  0  0  0  0  0  0  0  0
   -1.2810   23.8180  -27.9890 C   0  0  0  0  0  0  0  0  0  0  0  0
   -0.4680   22.7480  -27.6170 C   0  0  0  0  0  0  0  0  0  0  0  0
   -0.2320   21.6820  -28.5010 C   0  0  0  0  0  0  0  0  0  0  0  0
    0.6560   20.5550  -28.0470 C   0  0  0  0  0  0  0  0  0  0  0  0
   -0.7970   21.7260  -29.8010 C   0  0  0  0  0  0  0  0  0  0  0  0
   -0.5340   20.4520  -31.0060 S   0  0  0  0  0  0  0  0  0  0  0  0
   -0.7310   19.0960  -30.3920 O   0  0  0  0  0  0  0  0  0  0  0  0
    0.8800   20.5200  -31.5110 O   0  0  0  0  0  0  0  0  0  0  0  0
   -1.6120   20.7000  -32.3440 N   0  0  0  0  0  0  0  0  0  0  0  0
   -2.9790   21.0830  -32.1650 C   0  0  0  0  0  0  0  0  0  0  0  0
   -3.7760   20.3930  -31.2410 C   0  0  0  0  0  0  0  0  0  0  0  0
   -5.1210   20.7320  -31.0750 C   0  0  0  0  0  0  0  0  0  0  0  0
   -5.6800   21.7790  -31.8210 C   0  0  0  0  0  0  0  0  0  0  0  0
   -7.3850   22.1900  -31.6670 S   0  0  0  0  0  0  0  0  0  0  0  0
   -7.6530   23.4560  -32.4300 O   0  0  0  0  0  0  0  0  0  0  0  0
   -7.7380   22.4060  -30.2210 O   0  0  0  0  0  0  0  0  0  0  0  0
   -8.3430   20.8880  -32.3260 N   0  0  0  0  0  0  0  0  0  0  0  0
   -7.5240   19.9600  -33.1210 C   0  0  0  0  0  0  0  0  0  0  0  0
   -7.8410   18.5420  -32.6620 C   0  0  0  0  0  0  0  0  0  0  0  0
   -9.0600   18.6810  -31.7790 C   0  0  0  0  0  0  0  0  0  0  0  0
   -8.9680   20.1000  -31.2620 C   0  0  0  0  0  0  0  0  0  0  0  0
   -4.8770   22.4940  -32.7190 C   0  0  0  0  0  0  0  0  0  0  0  0
   -3.5330   22.1540  -32.8850 C   0  0  0  0  0  0  0  0  0  0  0  0
   -1.6260   22.8050  -30.1530 C   0  0  0  0  0  0  0  0  0  0  0  0
   -4.9302   24.2313  -28.1996 H   0  0  0  0  0  0  0  0  0  0  0  0
   -6.1232   24.4506  -29.5245 H   0  0  0  0  0  0  0  0  0  0  0  0
   -5.0333   23.0227  -29.5245 H   0  0  0  0  0  0  0  0  0  0  0  0
   -1.4440   24.6512  -27.2896 H   0  0  0  0  0  0  0  0  0  0  0  0
   -0.0057   22.7385  -26.6189 H   0  0  0  0  0  0  0  0  0  0  0  0
    0.6787   20.5262  -26.9476 H   0  0  0  0  0  0  0  0  0  0  0  0
    0.2637   19.6017  -28.4308 H   0  0  0  0  0  0  0  0  0  0  0  0
    1.6746   20.7134  -28.4308 H   0  0  0  0  0  0  0  0  0  0  0  0
   -1.1640   20.8860  -33.2690 H   0  0  0  0  0  0  0  0  0  0  0  0
   -3.3396   19.5795  -30.6429 H   0  0  0  0  0  0  0  0  0  0  0  0
   -5.7427   20.1763  -30.3575 H   0  0  0  0  0  0  0  0  0  0  0  0
   -7.7653   20.0697  -34.1886 H   0  0  0  0  0  0  0  0  0  0  0  0
   -6.4548   20.1773  -32.9810 H   0  0  0  0  0  0  0  0  0  0  0  0
   -8.0601   17.8960  -33.5249 H   0  0  0  0  0  0  0  0  0  0  0  0
   -6.9957   18.0807  -32.1304 H   0  0  0  0  0  0  0  0  0  0  0  0
   -9.9832   18.5337  -32.3587 H   0  0  0  0  0  0  0  0  0  0  0  0
   -9.0893   17.9342  -30.9719 H   0  0  0  0  0  0  0  0  0  0  0  0
   -9.9723   20.4898  -31.0398 H   0  0  0  0  0  0  0  0  0  0  0  0
   -8.3814   20.1486  -30.3328 H   0  0  0  0  0  0  0  0  0  0  0  0
   -5.3069   23.3264  -33.2955 H   0  0  0  0  0  0  0  0  0  0  0  0
   -2.9053   22.7276  -33.5828 H   0  0  0  0  0  0  0  0  0  0  0  0
   -2.0737   22.8376  -31.1573 H   0  0  0  0  0  0  0  0  0  0  0  0
  1  2  1  0
  2  3  2  0
  2  4  1  0
  4  5  1  0
  5  6  2  0
  6  7  1  0
  7  8  2  0
  8  9  1  0
  8 10  1  0
 10 11  1  0
 11 12  2  0
 11 13  2  0
 11 14  1  0
 14 15  1  0
 15 16  2  0
 16 17  1  0
 17 18  2  0
 18 19  1  0
 19 20  2  0
 19 21  2  0
 19 22  1  0
 22 23  1  0
 23 24  1  0
 24 25  1  0
 25 26  1  0
 18 27  1  0
 27 28  2  0
 10 29  2  0
 29  5  1  0
 28 15  1  0
 26 22  1  0
  1 30  1  0
  1 31  1  0
  1 32  1  0
  6 33  1  0
  7 34  1  0
  9 35  1  0
  9 36  1  0
  9 37  1  0
 14 38  1  0
 16 39  1  0
 17 40  1  0
 23 41  1  0
 23 42  1  0
 24 43  1  0
 24 44  1  0
 25 45  1  0
 25 46  1  0
 26 47  1  0
 26 48  1  0
 27 49  1  0
 28 50  1  0
 29 51  1  0
M  CHG  1   4  -1
M  END
>  <UniqueID>  (10) 
9

>  <SMILES>  (10) 
CC(=O)[N-]c1ccc(C)c(S(=O)(=O)Nc2ccc(S(=O)(=O)N3CCCC3)cc2)c1

>  <Energy>  (10) 
63.46034048325628

>  <Genealogy>  (10) 
CC(=O)[N-]c1ccc(C)c(S(=O)(=O)Nc2ccc(S(=O)(=O)N3CCCC3)cc2)c1 (protonated)
CC(=O)[N-]c1ccc(C)c(S(=O)(=O)Nc2ccc(S(=O)(=O)N3CCCC3)cc2)c1 (3D coordinates assigned)
CC(=O)[N-]c1ccc(C)c(S(=O)(=O)Nc2ccc(S(=O)(=O)N3CCCC3)cc2)c1 (nonaromatic ring conformer: 63.46034048325628 kcal/mol)

>  <smiles>  (10) 
CC(=O)Nc1ccc(C)c(S(=O)(=O)Nc2ccc(S(=O)(=O)N3CCCC3)cc2)c1

>  <score_type>  (10) 
oracle

>  <origin>  (10) 
adgpu

>  <m_score__min__energy>  (10) 
-10.99

>  <m_primary>  (10) 
energy

$$$$
10:0
     RDKit          3D

 49 52  0  0  0  0  0  0  0  0999 V2000
   -5.8110   18.6810  -33.2720 C   0  0  0  0  0  0  0  0  0  0  0  0
   -6.5950   19.8080  -32.7830 N   0  0  0  0  0  0  0  0  0  0  0  0
   -7.9740   19.7730  -32.4190 C   0  0  0  0  0  0  0  0  0  0  0  0
   -8.7640   18.8410  -32.7250 O   0  0  0  0  0  0  0  0  0  0  0  0
   -8.3110   20.9520  -31.6370 C   0  0  0  0  0  0  0  0  0  0  0  0
   -9.4360   21.2540  -31.1600 O   0  0  0  0  0  0  0  0  0  0  0  0
   -7.0730   21.7000  -31.5040 C   0  0  0  0  0  0  0  0  0  0  0  0
   -6.8170   22.9170  -30.8820 C   0  0  0  0  0  0  0  0  0  0  0  0
   -5.5090   23.4360  -30.9400 C   0  0  0  0  0  0  0  0  0  0  0  0
   -5.1990   25.0410  -30.2830 S   0  0  0  0  0  0  0  0  0  0  0  0
   -5.7550   26.0680  -31.2260 O   0  0  0  0  0  0  0  0  0  0  0  0
   -5.8350   25.2120  -28.9310 O   0  0  0  0  0  0  0  0  0  0  0  0
   -3.4840   25.2540  -30.1430 N   0  0  0  0  0  0  0  0  0  0  0  0
   -2.6830   24.5230  -29.2020 C   0  0  0  0  0  0  0  0  0  0  0  0
   -3.0340   24.4460  -27.8400 C   0  0  0  0  0  0  0  0  0  0  0  0
   -2.3120   23.6190  -26.9740 C   0  0  0  0  0  0  0  0  0  0  0  0
   -1.2290   22.8690  -27.4550 C   0  0  0  0  0  0  0  0  0  0  0  0
   -0.4130   21.7180  -26.3970 S   0  0  0  0  0  0  0  0  0  0  0  0
   -0.8340   21.9750  -24.9770 O   0  0  0  0  0  0  0  0  0  0  0  0
    1.0730   21.9400  -26.4840 O   0  0  0  0  0  0  0  0  0  0  0  0
   -0.7830   20.0560  -26.8150 N   0  0  0  0  0  0  0  0  0  0  0  0
   -0.7600   19.8170  -28.2730 C   0  0  0  0  0  0  0  0  0  0  0  0
   -2.0840   20.2020  -28.9730 C   0  0  0  0  0  0  0  0  0  0  0  0
   -3.1160   20.5440  -28.0670 O   0  0  0  0  0  0  0  0  0  0  0  0
   -3.2280   19.5410  -27.0850 C   0  0  0  0  0  0  0  0  0  0  0  0
   -2.0080   19.5600  -26.1520 C   0  0  0  0  0  0  0  0  0  0  0  0
   -0.8380   23.0000  -28.7970 C   0  0  0  0  0  0  0  0  0  0  0  0
   -1.5640   23.8220  -29.6650 C   0  0  0  0  0  0  0  0  0  0  0  0
   -4.4920   22.7150  -31.6070 C   0  0  0  0  0  0  0  0  0  0  0  0
   -4.7780   21.4870  -32.2280 C   0  0  0  0  0  0  0  0  0  0  0  0
   -6.0850   20.9980  -32.1690 C   0  0  0  0  0  0  0  0  0  0  0  0
   -5.4150   18.1118  -32.4181 H   0  0  0  0  0  0  0  0  0  0  0  0
   -6.4504   18.0274  -33.8835 H   0  0  0  0  0  0  0  0  0  0  0  0
   -4.9758   19.0532  -33.8835 H   0  0  0  0  0  0  0  0  0  0  0  0
   -7.6164   23.4610  -30.3576 H   0  0  0  0  0  0  0  0  0  0  0  0
   -3.8782   25.0379  -27.4567 H   0  0  0  0  0  0  0  0  0  0  0  0
   -2.5942   23.5565  -25.9127 H   0  0  0  0  0  0  0  0  0  0  0  0
    0.0540   20.4123  -28.7123 H   0  0  0  0  0  0  0  0  0  0  0  0
   -0.6106   18.7379  -28.4256 H   0  0  0  0  0  0  0  0  0  0  0  0
   -1.8946   21.0647  -29.6286 H   0  0  0  0  0  0  0  0  0  0  0  0
   -2.4235   19.3205  -29.5367 H   0  0  0  0  0  0  0  0  0  0  0  0
   -4.1387   19.7146  -26.4930 H   0  0  0  0  0  0  0  0  0  0  0  0
   -3.2790   18.5613  -27.5826 H   0  0  0  0  0  0  0  0  0  0  0  0
   -2.2318   20.2124  -25.2951 H   0  0  0  0  0  0  0  0  0  0  0  0
   -1.8165   18.5231  -25.8387 H   0  0  0  0  0  0  0  0  0  0  0  0
    0.0424   22.4542  -29.1671 H   0  0  0  0  0  0  0  0  0  0  0  0
   -1.2540   23.9178  -30.7161 H   0  0  0  0  0  0  0  0  0  0  0  0
   -3.4691   23.1182  -31.6402 H   0  0  0  0  0  0  0  0  0  0  0  0
   -3.9899   20.9235  -32.7490 H   0  0  0  0  0  0  0  0  0  0  0  0
  1  2  1  0
  2  3  1  0
  3  4  2  0
  3  5  1  0
  5  6  2  0
  5  7  1  0
  7  8  2  0
  8  9  1  0
  9 10  1  0
 10 11  2  0
 10 12  2  0
 10 13  1  0
 13 14  1  0
 14 15  2  0
 15 16  1  0
 16 17  2  0
 17 18  1  0
 18 19  2  0
 18 20  2  0
 18 21  1  0
 21 22  1  0
 22 23  1  0
 23 24  1  0
 24 25  1  0
 25 26  1  0
 17 27  1  0
 27 28  2  0
  9 29  2  0
 29 30  1  0
 30 31  2  0
 31  2  1  0
 31  7  1  0
 28 14  1  0
 26 21  1  0
  1 32  1  0
  1 33  1  0
  1 34  1  0
  8 35  1  0
 15 36  1  0
 16 37  1  0
 22 38  1  0
 22 39  1  0
 23 40  1  0
 23 41  1  0
 25 42  1  0
 25 43  1  0
 26 44  1  0
 26 45  1  0
 27 46  1  0
 28 47  1  0
 29 48  1  0
 30 49  1  0
M  CHG  1  13  -1
M  END
>  <UniqueID>  (11) 
10

>  <SMILES>  (11) 
CN1C(=O)C(=O)c2cc(S(=O)(=O)[N-]c3ccc(S(=O)(=O)N4CCOCC4)cc3)ccc21

>  <Energy>  (11) 
94.70524688791926

>  <Genealogy>  (11) 
CN1C(=O)C(=O)c2cc(S(=O)(=O)[N-]c3ccc(S(=O)(=O)N4CCOCC4)cc3)ccc21 (protonated)
CN1C(=O)C(=O)c2cc(S(=O)(=O)[N-]c3ccc(S(=O)(=O)N4CCOCC4)cc3)ccc21 (3D coordinates assigned)
CN1C(=O)C(=O)c2cc(S(=O)(=O)[N-]c3ccc(S(=O)(=O)N4CCOCC4)cc3)ccc21 (nonaromatic ring conformer: 94.70524688791926 kcal/mol)

>  <smiles>  (11) 
CN1C(=O)C(=O)c2cc(S(=O)(=O)Nc3ccc(S(=O)(=O)N4CCOCC4)cc3)ccc21

>  <score_type>  (11) 
oracle

>  <origin>  (11) 
adgpu

>  <m_score__min__energy>  (11) 
-11.69

>  <m_primary>  (11) 
energy

$$$$
11:0
     RDKit          3D

 50 53  0  0  0  0  0  0  0  0999 V2000
   -5.5600   24.9830  -28.8540 O   0  0  0  0  0  0  0  0  0  0  0  0
   -5.2440   24.9750  -30.3250 S   0  0  0  0  0  0  0  0  0  0  0  0
   -5.6590   26.2990  -30.9030 O   0  0  0  0  0  0  0  0  0  0  0  0
   -3.5430   24.7190  -30.5310 N   0  0  0  0  0  0  0  0  0  0  0  0
   -2.7270   24.0700  -29.5510 C   0  0  0  0  0  0  0  0  0  0  0  0
   -3.0840   22.7870  -29.1160 C   0  0  0  0  0  0  0  0  0  0  0  0
   -2.3400   22.1400  -28.1190 C   0  0  0  0  0  0  0  0  0  0  0  0
   -1.2480   22.8020  -27.5190 C   0  0  0  0  0  0  0  0  0  0  0  0
   -0.8820   24.0790  -27.9690 C   0  0  0  0  0  0  0  0  0  0  0  0
   -1.6220   24.7200  -28.9670 C   0  0  0  0  0  0  0  0  0  0  0  0
   -1.2740   26.0130  -29.3420 O   0  0  0  0  0  0  0  0  0  0  0  0
   -0.4440   22.1300  -26.4330 C   0  0  0  0  0  0  0  0  0  0  0  0
   -1.2290   21.0060  -25.7390 C   0  0  0  0  0  0  0  0  0  0  0  0
   -1.8590   20.0660  -26.7670 C   0  0  0  0  0  0  0  0  0  0  0  0
   -2.7030   20.8210  -27.6890 N   0  0  0  0  0  0  0  0  0  0  0  0
   -6.1280   23.6650  -31.0990 C   0  0  0  0  0  0  0  0  0  0  0  0
   -7.5020   23.7920  -31.3510 C   0  0  0  0  0  0  0  0  0  0  0  0
   -8.2030   22.7520  -31.9670 C   0  0  0  0  0  0  0  0  0  0  0  0
   -7.5390   21.5750  -32.3250 C   0  0  0  0  0  0  0  0  0  0  0  0
   -6.1700   21.4250  -32.0520 C   0  0  0  0  0  0  0  0  0  0  0  0
   -5.3320   19.9330  -32.4970 S   0  0  0  0  0  0  0  0  0  0  0  0
   -5.7880   19.5000  -33.8650 O   0  0  0  0  0  0  0  0  0  0  0  0
   -5.7080   18.8530  -31.5180 O   0  0  0  0  0  0  0  0  0  0  0  0
   -3.5930   20.1150  -32.5110 N   0  0  0  0  0  0  0  0  0  0  0  0
   -3.0410   20.1450  -31.1540 C   0  0  0  0  0  0  0  0  0  0  0  0
   -1.7450   20.9240  -31.2500 C   0  0  0  0  0  0  0  0  0  0  0  0
   -1.9880   21.9210  -32.3660 C   0  0  0  0  0  0  0  0  0  0  0  0
   -3.1590   21.3570  -33.1680 C   0  0  0  0  0  0  0  0  0  0  0  0
   -5.4670   22.4770  -31.4440 C   0  0  0  0  0  0  0  0  0  0  0  0
   -3.9551   22.2831  -29.5602 H   0  0  0  0  0  0  0  0  0  0  0  0
   -0.0053   24.5804  -27.5330 H   0  0  0  0  0  0  0  0  0  0  0  0
    0.4662   21.7028  -26.8792 H   0  0  0  0  0  0  0  0  0  0  0  0
   -0.2007   22.8890  -25.6749 H   0  0  0  0  0  0  0  0  0  0  0  0
   -0.5445   20.4316  -25.0975 H   0  0  0  0  0  0  0  0  0  0  0  0
   -2.0314   21.4574  -25.1371 H   0  0  0  0  0  0  0  0  0  0  0  0
   -1.0629   19.5609  -27.3336 H   0  0  0  0  0  0  0  0  0  0  0  0
   -2.4762   19.3217  -26.2425 H   0  0  0  0  0  0  0  0  0  0  0  0
   -3.5300   20.3440  -28.1140 H   0  0  0  0  0  0  0  0  0  0  0  0
   -8.0294   24.7133  -31.0628 H   0  0  0  0  0  0  0  0  0  0  0  0
   -9.2787   22.8595  -32.1705 H   0  0  0  0  0  0  0  0  0  0  0  0
   -8.0909   20.7637  -32.8222 H   0  0  0  0  0  0  0  0  0  0  0  0
   -3.7392   20.6469  -30.4679 H   0  0  0  0  0  0  0  0  0  0  0  0
   -2.8743   19.1303  -30.7633 H   0  0  0  0  0  0  0  0  0  0  0  0
   -1.5314   21.4428  -30.3039 H   0  0  0  0  0  0  0  0  0  0  0  0
   -0.8788   20.2754  -31.4476 H   0  0  0  0  0  0  0  0  0  0  0  0
   -2.2451   22.9070  -31.9516 H   0  0  0  0  0  0  0  0  0  0  0  0
   -1.0938   22.0599  -32.9915 H   0  0  0  0  0  0  0  0  0  0  0  0
   -3.9864   22.0817  -33.1833 H   0  0  0  0  0  0  0  0  0  0  0  0
   -2.8550   21.1580  -34.2063 H   0  0  0  0  0  0  0  0  0  0  0  0
   -4.3920   22.3691  -31.2370 H   0  0  0  0  0  0  0  0  0  0  0  0
  1  2  2  0
  2  3  2  0
  2  4  1  0
  4  5  1  0
  5  6  2  0
  6  7  1  0
  7  8  2  0
  8  9  1  0
  9 10  2  0
 10 11  1  0
  8 12  1  0
 12 13  1  0
 13 14  1  0
 14 15  1  0
  2 16  1  0
 16 17  2  0
 17 18  1  0
 18 19  2  0
 19 20  1  0
 20 21  1  0
 21 22  2  0
 21 23  2  0
 21 24  1  0
 24 25  1  0
 25 26  1  0
 26 27  1  0
 27 28  1  0
 20 29  2  0
 10  5  1  0
 29 16  1  0
 15  7  1  0
 28 24  1  0
  6 30  1  0
  9 31  1  0
 12 32  1  0
 12 33  1  0
 13 34  1  0
 13 35  1  0
 14 36  1  0
 14 37  1  0
 15 38  1  0
 17 39  1  0
 18 40  1  0
 19 41  1  0
 25 42  1  0
 25 43  1  0
 26 44  1  0
 26 45  1  0
 27 46  1  0
 27 47  1  0
 28 48  1  0
 28 49  1  0
 29 50  1  0
M  CHG  2   4  -1  11  -1
M  END
>  <UniqueID>  (12) 
11

>  <SMILES>  (12) 
O=S(=O)([N-]c1cc2c(cc1[O-])CCCN2)c1cccc(S(=O)(=O)N2CCCC2)c1

>  <Energy>  (12) 
57.24620859410442

>  <Genealogy>  (12) 
O=S(=O)([N-]c1cc2c(cc1[O-])CCCN2)c1cccc(S(=O)(=O)N2CCCC2)c1 (protonated)
O=S(=O)([N-]c1cc2c(cc1[O-])CCCN2)c1cccc(S(=O)(=O)N2CCCC2)c1 (3D coordinates assigned)
O=S(=O)([N-]c1cc2c(cc1[O-])CCCN2)c1cccc(S(=O)(=O)N2CCCC2)c1 (nonaromatic ring conformer: 57.24620859410442 kcal/mol)

>  <smiles>  (12) 
O=S(=O)(Nc1cc2c(cc1O)CCCN2)c1cccc(S(=O)(=O)N2CCCC2)c1

>  <score_type>  (12) 
oracle

>  <origin>  (12) 
adgpu

>  <m_score__min__energy>  (12) 
-14.789999999999999

>  <m_primary>  (12) 
energy

$$$$
12:0
     RDKit          3D

 59 62  0  0  0  0  0  0  0  0999 V2000
   -3.0980   20.7640  -33.2650 C   0  0  0  0  0  0  0  0  0  0  0  0
   -4.5690   21.1400  -33.4270 C   0  0  0  0  0  0  0  0  0  0  0  0
   -5.3990   20.5270  -32.3730 N   0  0  0  0  0  0  0  0  0  0  0  0
   -5.0210   19.1940  -31.8510 C   0  0  0  0  0  0  0  0  0  0  0  0
   -6.2240   18.2450  -31.6870 C   0  0  0  0  0  0  0  0  0  0  0  0
   -7.4550   18.5210  -33.0060 S   0  0  0  0  0  0  0  0  0  0  0  0
   -7.8020   20.1710  -32.3920 C   0  0  0  0  0  0  0  0  0  0  0  0
   -9.1170   20.5600  -32.1370 C   0  0  0  0  0  0  0  0  0  0  0  0
   -9.3760   21.8310  -31.6330 C   0  0  0  0  0  0  0  0  0  0  0  0
   -8.3220   22.6970  -31.3390 C   0  0  0  0  0  0  0  0  0  0  0  0
   -6.9840   22.3050  -31.5360 C   0  0  0  0  0  0  0  0  0  0  0  0
   -5.7110   23.4080  -30.9710 S   0  0  0  0  0  0  0  0  0  0  0  0
   -6.1480   23.9860  -29.6510 O   0  0  0  0  0  0  0  0  0  0  0  0
   -5.5310   24.5400  -31.9430 O   0  0  0  0  0  0  0  0  0  0  0  0
   -4.2020   22.5770  -30.7350 N   0  0  0  0  0  0  0  0  0  0  0  0
   -3.2430   22.9890  -29.7510 C   0  0  0  0  0  0  0  0  0  0  0  0
   -2.6610   22.0500  -28.8830 C   0  0  0  0  0  0  0  0  0  0  0  0
   -1.7170   22.4530  -27.9220 C   0  0  0  0  0  0  0  0  0  0  0  0
   -1.1240   21.4600  -26.9980 C   0  0  0  0  0  0  0  0  0  0  0  0
   -1.2220   21.6420  -25.7540 O   0  0  0  0  0  0  0  0  0  0  0  0
   -0.4260   20.2990  -27.4850 N   0  0  0  0  0  0  0  0  0  0  0  0
   -0.8820   18.9660  -27.0810 C   0  0  0  0  0  0  0  0  0  0  0  0
   -0.1210   17.8810  -27.8440 C   0  0  0  0  0  0  0  0  0  0  0  0
   -0.1070   18.2150  -29.2710 N   0  0  0  0  0  0  0  0  0  0  0  0
    0.6340   19.4620  -29.5740 C   0  0  1  0  0  0  0  0  0  0  0  0
   -0.0520   20.1590  -30.7520 C   0  0  0  0  0  0  0  0  0  0  0  0
    0.7450   20.4270  -28.3630 C   0  0  0  0  0  0  0  0  0  0  0  0
   -1.3850   23.8140  -27.8170 C   0  0  0  0  0  0  0  0  0  0  0  0
   -1.9820   24.7530  -28.6610 C   0  0  0  0  0  0  0  0  0  0  0  0
   -2.9100   24.3470  -29.6230 C   0  0  0  0  0  0  0  0  0  0  0  0
   -3.4910   25.2960  -30.4580 O   0  0  0  0  0  0  0  0  0  0  0  0
   -6.7270   21.0310  -32.1120 C   0  0  0  0  0  0  0  0  0  0  0  0
   -2.8514   20.7010  -32.1949 H   0  0  0  0  0  0  0  0  0  0  0  0
   -2.9139   19.7899  -33.7417 H   0  0  0  0  0  0  0  0  0  0  0  0
   -2.4690   21.5303  -33.7417 H   0  0  0  0  0  0  0  0  0  0  0  0
   -4.6674   22.2341  -33.3694 H   0  0  0  0  0  0  0  0  0  0  0  0
   -4.9166   20.7683  -34.4022 H   0  0  0  0  0  0  0  0  0  0  0  0
   -4.3056   18.7348  -32.5491 H   0  0  0  0  0  0  0  0  0  0  0  0
   -4.5840   19.3448  -30.8528 H   0  0  0  0  0  0  0  0  0  0  0  0
   -5.8711   17.2043  -31.7356 H   0  0  0  0  0  0  0  0  0  0  0  0
   -6.6992   18.4443  -30.7152 H   0  0  0  0  0  0  0  0  0  0  0  0
   -9.9463   19.8646  -32.3336 H   0  0  0  0  0  0  0  0  0  0  0  0
  -10.4142   22.1538  -31.4659 H   0  0  0  0  0  0  0  0  0  0  0  0
   -8.5398   23.7015  -30.9472 H   0  0  0  0  0  0  0  0  0  0  0  0
   -4.0440   21.6740  -31.2290 H   0  0  0  0  0  0  0  0  0  0  0  0
   -2.9464   20.9902  -28.9558 H   0  0  0  0  0  0  0  0  0  0  0  0
   -0.7102   18.8370  -26.0022 H   0  0  0  0  0  0  0  0  0  0  0  0
   -1.9540   18.8741  -27.3100 H   0  0  0  0  0  0  0  0  0  0  0  0
    0.9117   17.8234  -27.4695 H   0  0  0  0  0  0  0  0  0  0  0  0
   -0.6157   16.9096  -27.6967 H   0  0  0  0  0  0  0  0  0  0  0  0
    0.3450   17.4250  -29.7890 H   0  0  0  0  0  0  0  0  0  0  0  0
    1.6677   19.1845  -29.8277 H   0  0  0  0  0  0  0  0  0  0  0  0
   -0.7760   20.8946  -30.3717 H   0  0  0  0  0  0  0  0  0  0  0  0
    0.7037   20.6716  -31.3653 H   0  0  0  0  0  0  0  0  0  0  0  0
   -0.5765   19.4116  -31.3653 H   0  0  0  0  0  0  0  0  0  0  0  0
    1.6528   20.1849  -27.7910 H   0  0  0  0  0  0  0  0  0  0  0  0
    0.7931   21.4598  -28.7384 H   0  0  0  0  0  0  0  0  0  0  0  0
   -0.6510   24.1418  -27.0661 H   0  0  0  0  0  0  0  0  0  0  0  0
   -1.7202   25.8173  -28.5678 H   0  0  0  0  0  0  0  0  0  0  0  0
  1  2  1  0
  2  3  1  0
  3  4  1  0
  4  5  1  0
  5  6  1  0
  6  7  1  0
  7  8  2  0
  8  9  1  0
  9 10  2  0
 10 11  1  0
 11 12  1  0
 12 13  2  0
 12 14  2  0
 12 15  1  0
 15 16  1  0
 16 17  2  0
 17 18  1  0
 18 19  1  0
 19 20  2  0
 19 21  1  0
 21 22  1  0
 22 23  1  0
 23 24  1  0
 24 25  1  0
 25 26  1  0
 25 27  1  0
 18 28  2  0
 28 29  1  0
 29 30  2  0
 30 31  1  0
 11 32  2  0
 32  3  1  0
 32  7  1  0
 30 16  1  0
 27 21  1  0
  1 33  1  0
  1 34  1  0
  1 35  1  0
  2 36  1  0
  2 37  1  0
  4 38  1  0
  4 39  1  0
  5 40  1  0
  5 41  1  0
  8 42  1  0
  9 43  1  0
 10 44  1  0
 15 45  1  0
 17 46  1  0
 22 47  1  0
 22 48  1  0
 23 49  1  0
 23 50  1  0
 24 51  1  0
 25 52  1  6
 26 53  1  0
 26 54  1  0
 26 55  1  0
 27 56  1  0
 27 57  1  0
 28 58  1  0
 29 59  1  0
M  CHG  1  31  -1
M  END
>  <UniqueID>  (13) 
12

>  <SMILES>  (13) 
CCN1CCSc2cccc(S(=O)(=O)Nc3cc(C(=O)N4CCN[C@@H](C)C4)ccc3[O-])c21

>  <Energy>  (13) 
84.83975133643486

>  <Genealogy>  (13) 
CCN1CCSc2cccc(S(=O)(=O)Nc3cc(C(=O)N4CCNC(C)C4)ccc3[O-])c21 (protonated)
CCN1CCSc2cccc(S(=O)(=O)Nc3cc(C(=O)N4CCN[C@@H](C)C4)ccc3[O-])c21 (chirality)
CCN1CCSc2cccc(S(=O)(=O)Nc3cc(C(=O)N4CCN[C@@H](C)C4)ccc3[O-])c21 (3D coordinates assigned)
CCN1CCSc2cccc(S(=O)(=O)Nc3cc(C(=O)N4CCN[C@@H](C)C4)ccc3[O-])c21 (nonaromatic ring conformer: 84.83975133643486 kcal/mol)

>  <smiles>  (13) 
CCN1CCSc2cccc(S(=O)(=O)Nc3cc(C(=O)N4CCNC(C)C4)ccc3O)c21

>  <score_type>  (13) 
oracle

>  <origin>  (13) 
adgpu

>  <m_score__min__energy>  (13) 
-13.300000000000001

>  <m_primary>  (13) 
energy

$$$$
13:0
     RDKit          3D

 52 55  0  0  0  0  0  0  0  0999 V2000
   -8.5110   21.5520  -30.1650 O   0  0  0  0  0  0  0  0  0  0  0  0
   -8.1070   22.3430  -31.3750 S   0  0  0  0  0  0  0  0  0  0  0  0
   -9.2110   23.3040  -31.7200 O   0  0  0  0  0  0  0  0  0  0  0  0
   -7.8530   21.2660  -32.7110 N   0  0  0  0  0  0  0  0  0  0  0  0
   -7.1260   20.0290  -32.6390 C   0  0  0  0  0  0  0  0  0  0  0  0
   -5.9110   19.8440  -33.3230 C   0  0  0  0  0  0  0  0  0  0  0  0
   -5.2120   18.6340  -33.2150 C   0  0  0  0  0  0  0  0  0  0  0  0
   -5.7410   17.5860  -32.4370 C   0  0  0  0  0  0  0  0  0  0  0  0
   -6.9490   17.7760  -31.7510 C   0  0  0  0  0  0  0  0  0  0  0  0
   -7.6430   18.9870  -31.8570 C   0  0  0  0  0  0  0  0  0  0  0  0
   -8.8470   19.1640  -31.1780 O   0  0  0  0  0  0  0  0  0  0  0  0
   -4.9800   16.2910  -32.2830 C   0  0  0  0  0  0  0  0  0  0  0  0
   -4.0310   16.0430  -33.4630 C   0  0  0  0  0  0  0  0  0  0  0  0
   -3.1480   17.2670  -33.7110 C   0  0  0  0  0  0  0  0  0  0  0  0
   -3.9780   18.4490  -33.9260 N   0  0  0  0  0  0  0  0  0  0  0  0
   -6.6090   23.2000  -31.0250 C   0  0  0  0  0  0  0  0  0  0  0  0
   -6.6060   24.5980  -30.9840 C   0  0  0  0  0  0  0  0  0  0  0  0
   -5.4340   25.2880  -30.6670 C   0  0  0  0  0  0  0  0  0  0  0  0
   -4.2580   24.5870  -30.3860 C   0  0  0  0  0  0  0  0  0  0  0  0
   -3.1070   25.2940  -30.0540 O   0  0  0  0  0  0  0  0  0  0  0  0
   -4.2480   23.1830  -30.4340 C   0  0  0  0  0  0  0  0  0  0  0  0
   -2.7770   22.2830  -30.0530 S   0  0  0  0  0  0  0  0  0  0  0  0
   -1.6050   23.2250  -29.9700 O   0  0  0  0  0  0  0  0  0  0  0  0
   -2.9480   21.6170  -28.7160 O   0  0  0  0  0  0  0  0  0  0  0  0
   -2.4830   21.0760  -31.2810 N   0  0  0  0  0  0  0  0  0  0  0  0
   -2.8400   21.6110  -32.6100 C   0  0  0  0  0  0  0  0  0  0  0  0
   -2.1130   20.8350  -33.7220 C   0  0  0  0  0  0  0  0  0  0  0  0
   -0.6940   20.8880  -33.6350 O   0  0  0  0  0  0  0  0  0  0  0  0
   -0.2100   21.1720  -32.3300 C   0  0  0  0  0  0  0  0  0  0  0  0
   -1.0890   20.5810  -31.2130 C   0  0  0  0  0  0  0  0  0  0  0  0
   -5.4290   22.4950  -30.7530 C   0  0  0  0  0  0  0  0  0  0  0  0
   -5.5066   20.6546  -33.9470 H   0  0  0  0  0  0  0  0  0  0  0  0
   -7.3543   16.9675  -31.1249 H   0  0  0  0  0  0  0  0  0  0  0  0
   -9.3040   20.0680  -31.1300 H   0  0  0  0  0  0  0  0  0  0  0  0
   -4.3908   16.3326  -31.3551 H   0  0  0  0  0  0  0  0  0  0  0  0
   -5.7091   15.4679  -32.2522 H   0  0  0  0  0  0  0  0  0  0  0  0
   -3.3923   15.1764  -33.2371 H   0  0  0  0  0  0  0  0  0  0  0  0
   -4.6302   15.8497  -34.3650 H   0  0  0  0  0  0  0  0  0  0  0  0
   -2.5002   17.4313  -32.8373 H   0  0  0  0  0  0  0  0  0  0  0  0
   -2.5324   17.0917  -34.6056 H   0  0  0  0  0  0  0  0  0  0  0  0
   -3.6520   19.1800  -34.6000 H   0  0  0  0  0  0  0  0  0  0  0  0
   -7.5290   25.1553  -31.2020 H   0  0  0  0  0  0  0  0  0  0  0  0
   -5.4364   26.3876  -30.6383 H   0  0  0  0  0  0  0  0  0  0  0  0
   -3.9263   21.5189  -32.7564 H   0  0  0  0  0  0  0  0  0  0  0  0
   -2.5364   22.6671  -32.6592 H   0  0  0  0  0  0  0  0  0  0  0  0
   -2.4233   19.7811  -33.6674 H   0  0  0  0  0  0  0  0  0  0  0  0
   -2.3904   21.3108  -34.6742 H   0  0  0  0  0  0  0  0  0  0  0  0
    0.8032   20.7545  -32.2348 H   0  0  0  0  0  0  0  0  0  0  0  0
   -0.2207   22.2653  -32.2092 H   0  0  0  0  0  0  0  0  0  0  0  0
   -1.0965   19.4853  -31.3097 H   0  0  0  0  0  0  0  0  0  0  0  0
   -0.6652   20.8933  -30.2472 H   0  0  0  0  0  0  0  0  0  0  0  0
   -5.4283   21.3956  -30.7897 H   0  0  0  0  0  0  0  0  0  0  0  0
  1  2  2  0
  2  3  2  0
  2  4  1  0
  4  5  1  0
  5  6  2  0
  6  7  1  0
  7  8  2  0
  8  9  1  0
  9 10  2  0
 10 11  1  0
  8 12  1  0
 12 13  1  0
 13 14  1  0
 14 15  1  0
  2 16  1  0
 16 17  2  0
 17 18  1  0
 18 19  2  0
 19 20  1  0
 19 21  1  0
 21 22  1  0
 22 23  2  0
 22 24  2  0
 22 25  1  0
 25 26  1  0
 26 27  1  0
 27 28  1  0
 28 29  1  0
 29 30  1  0
 21 31  2  0
 10  5  1  0
 31 16  1  0
 15  7  1  0
 30 25  1  0
  6 32  1  0
  9 33  1  0
 11 34  1  0
 12 35  1  0
 12 36  1  0
 13 37  1  0
 13 38  1  0
 14 39  1  0
 14 40  1  0
 15 41  1  0
 17 42  1  0
 18 43  1  0
 26 44  1  0
 26 45  1  0
 27 46  1  0
 27 47  1  0
 29 48  1  0
 29 49  1  0
 30 50  1  0
 30 51  1  0
 31 52  1  0
M  CHG  2   4  -1  20  -1
M  END
>  <UniqueID>  (14) 
13

>  <SMILES>  (14) 
O=S(=O)([N-]c1cc2c(cc1O)CCCN2)c1ccc([O-])c(S(=O)(=O)N2CCOCC2)c1

>  <Energy>  (14) 
66.5017973920258

>  <Genealogy>  (14) 
O=S(=O)([N-]c1cc2c(cc1O)CCCN2)c1ccc([O-])c(S(=O)(=O)N2CCOCC2)c1 (protonated)
O=S(=O)([N-]c1cc2c(cc1O)CCCN2)c1ccc([O-])c(S(=O)(=O)N2CCOCC2)c1 (3D coordinates assigned)
O=S(=O)([N-]c1cc2c(cc1O)CCCN2)c1ccc([O-])c(S(=O)(=O)N2CCOCC2)c1 (nonaromatic ring conformer: 66.5017973920258 kcal/mol)

>  <smiles>  (14) 
O=S(=O)(Nc1cc2c(cc1O)CCCN2)c1ccc(O)c(S(=O)(=O)N2CCOCC2)c1

>  <score_type>  (14) 
oracle

>  <origin>  (14) 
adgpu

>  <m_score__min__energy>  (14) 
-11.869999999999999

>  <m_primary>  (14) 
energy

$$$$
14:0
     RDKit          3D

 44 46  0  0  0  0  0  0  0  0999 V2000
   -9.4760   19.6600  -32.6940 C   0  0  0  0  0  0  0  0  0  0  0  0
   -8.8330   20.9330  -32.2530 C   0  0  0  0  0  0  0  0  0  0  0  0
   -7.5300   21.0750  -31.8300 C   0  0  0  0  0  0  0  0  0  0  0  0
   -7.4440   22.4120  -31.4870 C   0  0  0  0  0  0  0  0  0  0  0  0
   -6.2560   23.1410  -30.9890 C   0  0  0  0  0  0  0  0  0  0  0  0
   -6.2770   24.5430  -30.9170 C   0  0  0  0  0  0  0  0  0  0  0  0
   -5.1500   25.2470  -30.4870 C   0  0  0  0  0  0  0  0  0  0  0  0
   -3.9820   24.5640  -30.1360 C   0  0  0  0  0  0  0  0  0  0  0  0
   -2.8690   25.2860  -29.7190 O   0  0  0  0  0  0  0  0  0  0  0  0
   -3.9420   23.1610  -30.2090 C   0  0  0  0  0  0  0  0  0  0  0  0
   -2.4590   22.2820  -29.8170 S   0  0  0  0  0  0  0  0  0  0  0  0
   -2.3700   22.1090  -28.3280 O   0  0  0  0  0  0  0  0  0  0  0  0
   -1.2630   23.0560  -30.3000 O   0  0  0  0  0  0  0  0  0  0  0  0
   -2.4610   20.7130  -30.5680 N   0  0  0  0  0  0  0  0  0  0  0  0
   -2.1070   20.8200  -31.9840 C   0  0  0  0  0  0  0  0  0  0  0  0
   -3.3800   20.7340  -32.8290 C   0  0  0  0  0  0  0  0  0  0  0  0
   -3.9500   19.3710  -32.7790 N   0  0  0  0  0  0  0  0  0  0  0  0
   -4.9860   19.2790  -31.7260 C   0  0  0  0  0  0  0  0  0  0  0  0
   -5.9180   18.0820  -31.9790 C   0  0  0  0  0  0  0  0  0  0  0  0
   -6.6200   18.1440  -33.2150 O   0  0  0  0  0  0  0  0  0  0  0  0
   -5.9860   18.9570  -34.1910 C   0  0  0  0  0  0  0  0  0  0  0  0
   -4.4490   18.9220  -34.1050 C   0  0  0  0  0  0  0  0  0  0  0  0
   -5.0880   22.4580  -30.6080 C   0  0  0  0  0  0  0  0  0  0  0  0
   -8.6190   22.9690  -31.6880 O   0  0  0  0  0  0  0  0  0  0  0  0
   -9.4810   22.1070  -32.1420 N   0  0  0  0  0  0  0  0  0  0  0  0
   -9.7721   19.0739  -31.8115 H   0  0  0  0  0  0  0  0  0  0  0  0
  -10.3666   19.8890  -33.2977 H   0  0  0  0  0  0  0  0  0  0  0  0
   -8.7632   19.0791  -33.2977 H   0  0  0  0  0  0  0  0  0  0  0  0
   -6.7441   20.3071  -31.7774 H   0  0  0  0  0  0  0  0  0  0  0  0
   -7.1875   25.0908  -31.2013 H   0  0  0  0  0  0  0  0  0  0  0  0
   -5.1817   26.3447  -30.4242 H   0  0  0  0  0  0  0  0  0  0  0  0
   -1.6085   21.7834  -32.1668 H   0  0  0  0  0  0  0  0  0  0  0  0
   -1.4259   20.0007  -32.2575 H   0  0  0  0  0  0  0  0  0  0  0  0
   -4.1200   21.4492  -32.4407 H   0  0  0  0  0  0  0  0  0  0  0  0
   -3.1282   20.9737  -33.8726 H   0  0  0  0  0  0  0  0  0  0  0  0
   -4.4967   19.1547  -30.7487 H   0  0  0  0  0  0  0  0  0  0  0  0
   -5.5853   20.2013  -31.7399 H   0  0  0  0  0  0  0  0  0  0  0  0
   -5.3115   17.1643  -31.9717 H   0  0  0  0  0  0  0  0  0  0  0  0
   -6.6763   18.0962  -31.1822 H   0  0  0  0  0  0  0  0  0  0  0  0
   -6.2883   18.6055  -35.1885 H   0  0  0  0  0  0  0  0  0  0  0  0
   -6.2999   19.9948  -34.0055 H   0  0  0  0  0  0  0  0  0  0  0  0
   -4.1078   17.8912  -34.2813 H   0  0  0  0  0  0  0  0  0  0  0  0
   -4.0527   19.6108  -34.8656 H   0  0  0  0  0  0  0  0  0  0  0  0
   -5.0727   21.3582  -30.6230 H   0  0  0  0  0  0  0  0  0  0  0  0
  1  2  1  0
  2  3  1  0
  3  4  2  0
  4  5  1  0
  5  6  2  0
  6  7  1  0
  7  8  2  0
  8  9  1  0
  8 10  1  0
 10 11  1  0
 11 12  2  0
 11 13  2  0
 11 14  1  0
 14 15  1  0
 15 16  1  0
 16 17  1  0
 17 18  1  0
 18 19  1  0
 19 20  1  0
 20 21  1  0
 21 22  1  0
 10 23  2  0
  4 24  1  0
 24 25  1  0
 25  2  2  0
 23  5  1  0
 22 17  1  0
  1 26  1  0
  1 27  1  0
  1 28  1  0
  3 29  1  0
  6 30  1  0
  7 31  1  0
 15 32  1  0
 15 33  1  0
 16 34  1  0
 16 35  1  0
 18 36  1  0
 18 37  1  0
 19 38  1  0
 19 39  1  0
 21 40  1  0
 21 41  1  0
 22 42  1  0
 22 43  1  0
 23 44  1  0
M  CHG  2   9  -1  14  -1
M  END
>  <UniqueID>  (15) 
14

>  <SMILES>  (15) 
Cc1cc(-c2ccc([O-])c(S(=O)(=O)[N-]CCN3CCOCC3)c2)on1

>  <Energy>  (15) 
85.0015560247696

>  <Genealogy>  (15) 
Cc1cc(-c2ccc([O-])c(S(=O)(=O)[N-]CCN3CCOCC3)c2)on1 (protonated)
Cc1cc(-c2ccc([O-])c(S(=O)(=O)[N-]CCN3CCOCC3)c2)on1 (3D coordinates assigned)
Cc1cc(-c2ccc([O-])c(S(=O)(=O)[N-]CCN3CCOCC3)c2)on1 (nonaromatic ring conformer: 85.0015560247696 kcal/mol)

>  <smiles>  (15) 
Cc1cc(-c2ccc(O)c(S(=O)(=O)NCCN3CCOCC3)c2)on1

>  <score_type>  (15) 
oracle

>  <origin>  (15) 
adgpu

>  <m_score__min__energy>  (15) 
-12.1

>  <m_primary>  (15) 
energy

$$$$
15:0
     RDKit          3D

 42 44  0  0  0  0  0  0  0  0999 V2000
   -5.6150   20.2890  -32.5200 O   0  0  0  0  0  0  0  0  0  0  0  0
   -4.8480   20.9700  -31.7900 C   0  0  0  0  0  0  0  0  0  0  0  0
   -3.5380   20.4580  -31.5040 N   0  0  0  0  0  0  0  0  0  0  0  0
   -2.6090   21.0310  -30.5740 C   0  0  0  0  0  0  0  0  0  0  0  0
   -1.5370   21.7870  -31.0610 C   0  0  0  0  0  0  0  0  0  0  0  0
   -0.6520   22.4080  -30.1740 C   0  0  0  0  0  0  0  0  0  0  0  0
   -0.8230   22.2630  -28.7900 C   0  0  0  0  0  0  0  0  0  0  0  0
    0.2300   23.1250  -27.6700 S   0  0  0  0  0  0  0  0  0  0  0  0
    0.9660   22.1300  -26.8170 O   0  0  0  0  0  0  0  0  0  0  0  0
    1.2510   23.8970  -28.4580 O   0  0  0  0  0  0  0  0  0  0  0  0
   -0.6610   24.2300  -26.6420 N   0  0  0  0  0  0  0  0  0  0  0  0
   -0.1600   25.6180  -26.7250 C   0  0  0  0  0  0  0  0  0  0  0  0
   -1.0410   26.5230  -27.6020 C   0  0  0  0  0  0  0  0  0  0  0  0
   -1.6790   25.7690  -28.6050 O   0  0  0  0  0  0  0  0  0  0  0  0
   -2.6550   24.9310  -28.0200 C   0  0  0  0  0  0  0  0  0  0  0  0
   -2.1210   24.1180  -26.8180 C   0  0  0  0  0  0  0  0  0  0  0  0
   -1.8580   21.4550  -28.3030 C   0  0  0  0  0  0  0  0  0  0  0  0
   -2.7470   20.8410  -29.1890 C   0  0  0  0  0  0  0  0  0  0  0  0
   -5.2920   22.2980  -31.2990 C   0  0  0  0  0  0  0  0  0  0  0  0
   -4.3780   23.3670  -31.2420 C   0  0  0  0  0  0  0  0  0  0  0  0
   -4.7790   24.6210  -30.7730 C   0  0  0  0  0  0  0  0  0  0  0  0
   -3.8650   25.6660  -30.7170 O   0  0  0  0  0  0  0  0  0  0  0  0
   -6.0980   24.8250  -30.3650 C   0  0  0  0  0  0  0  0  0  0  0  0
   -7.0200   23.7780  -30.4290 C   0  0  0  0  0  0  0  0  0  0  0  0
   -6.6260   22.5130  -30.8930 C   0  0  0  0  0  0  0  0  0  0  0  0
   -7.5530   21.4710  -30.9350 O   0  0  0  0  0  0  0  0  0  0  0  0
   -1.3898   21.8933  -32.1459 H   0  0  0  0  0  0  0  0  0  0  0  0
    0.1808   23.0121  -30.5633 H   0  0  0  0  0  0  0  0  0  0  0  0
   -0.1258   26.0397  -25.7096 H   0  0  0  0  0  0  0  0  0  0  0  0
    0.8372   25.5809  -27.1879 H   0  0  0  0  0  0  0  0  0  0  0  0
   -1.8030   27.0060  -26.9726 H   0  0  0  0  0  0  0  0  0  0  0  0
   -0.4052   27.2833  -28.0792 H   0  0  0  0  0  0  0  0  0  0  0  0
   -3.4911   25.5569  -27.6746 H   0  0  0  0  0  0  0  0  0  0  0  0
   -2.9681   24.2091  -28.7887 H   0  0  0  0  0  0  0  0  0  0  0  0
   -2.6121   24.4826  -25.9037 H   0  0  0  0  0  0  0  0  0  0  0  0
   -2.3458   23.0593  -27.0144 H   0  0  0  0  0  0  0  0  0  0  0  0
   -1.9714   21.3032  -27.2194 H   0  0  0  0  0  0  0  0  0  0  0  0
   -3.5576   20.2068  -28.8007 H   0  0  0  0  0  0  0  0  0  0  0  0
   -3.3391   23.2141  -31.5695 H   0  0  0  0  0  0  0  0  0  0  0  0
   -6.4117   25.8114  -29.9927 H   0  0  0  0  0  0  0  0  0  0  0  0
   -8.0606   23.9455  -30.1141 H   0  0  0  0  0  0  0  0  0  0  0  0
   -7.3450   20.5920  -31.3930 H   0  0  0  0  0  0  0  0  0  0  0  0
  1  2  2  0
  2  3  1  0
  3  4  1  0
  4  5  2  0
  5  6  1  0
  6  7  2  0
  7  8  1  0
  8  9  2  0
  8 10  2  0
  8 11  1  0
 11 12  1  0
 12 13  1  0
 13 14  1  0
 14 15  1  0
 15 16  1  0
  7 17  1  0
 17 18  2  0
  2 19  1  0
 19 20  2  0
 20 21  1  0
 21 22  1  0
 21 23  2  0
 23 24  1  0
 24 25  2  0
 25 26  1  0
 18  4  1  0
 25 19  1  0
 16 11  1  0
  5 27  1  0
  6 28  1  0
 12 29  1  0
 12 30  1  0
 13 31  1  0
 13 32  1  0
 15 33  1  0
 15 34  1  0
 16 35  1  0
 16 36  1  0
 17 37  1  0
 18 38  1  0
 20 39  1  0
 23 40  1  0
 24 41  1  0
 26 42  1  0
M  CHG  2   3  -1  22  -1
M  END
>  <UniqueID>  (16) 
15

>  <SMILES>  (16) 
O=C([N-]c1ccc(S(=O)(=O)N2CCOCC2)cc1)c1cc([O-])ccc1O

>  <Energy>  (16) 
60.604162006498356

>  <Genealogy>  (16) 
O=C([N-]c1ccc(S(=O)(=O)N2CCOCC2)cc1)c1cc([O-])ccc1O (protonated)
O=C([N-]c1ccc(S(=O)(=O)N2CCOCC2)cc1)c1cc([O-])ccc1O (3D coordinates assigned)
O=C([N-]c1ccc(S(=O)(=O)N2CCOCC2)cc1)c1cc([O-])ccc1O (nonaromatic ring conformer: 60.604162006498356 kcal/mol)

>  <smiles>  (16) 
O=C(Nc1ccc(S(=O)(=O)N2CCOCC2)cc1)c1cc(O)ccc1O

>  <score_type>  (16) 
oracle

>  <origin>  (16) 
adgpu

>  <m_score__min__energy>  (16) 
-9.9299999999999997

>  <m_primary>  (16) 
energy

$$$$
16:0
     RDKit          3D

 50 52  0  0  0  0  0  0  0  0999 V2000
   -1.5750   26.0690  -25.8980 C   0  0  0  0  0  0  0  0  0  0  0  0
   -0.8860   26.6790  -27.1150 C   0  0  0  0  0  0  0  0  0  0  0  0
   -0.5620   25.6220  -28.1200 C   0  0  0  0  0  0  0  0  0  0  0  0
    0.4990   24.9540  -28.0030 O   0  0  0  0  0  0  0  0  0  0  0  0
   -1.4650   25.3870  -29.2050 N   0  0  0  0  0  0  0  0  0  0  0  0
   -2.4770   24.3670  -29.2730 C   0  0  0  0  0  0  0  0  0  0  0  0
   -2.2270   23.1400  -28.6460 C   0  0  0  0  0  0  0  0  0  0  0  0
   -3.1560   22.0970  -28.7200 C   0  0  0  0  0  0  0  0  0  0  0  0
   -4.3510   22.2780  -29.4210 C   0  0  0  0  0  0  0  0  0  0  0  0
   -4.6190   23.4920  -30.0590 C   0  0  0  0  0  0  0  0  0  0  0  0
   -5.8460   23.6590  -30.7740 N   0  0  0  0  0  0  0  0  0  0  0  0
   -6.4300   22.5900  -31.5250 C   0  0  0  0  0  0  0  0  0  0  0  0
   -5.9990   21.7250  -32.5140 C   0  0  0  0  0  0  0  0  0  0  0  0
   -4.7610   21.5430  -33.2140 N   0  0  0  0  0  0  0  0  0  0  0  0
   -3.9690   20.3170  -33.1050 C   0  0  1  0  0  0  0  0  0  0  0  0
   -3.1200   20.3640  -31.8210 C   0  0  0  0  0  0  0  0  0  0  0  0
   -1.9670   21.3590  -31.9220 C   0  0  0  0  0  0  0  0  0  0  0  0
   -4.8910   19.1130  -33.1390 C   0  0  0  0  0  0  0  0  0  0  0  0
   -5.2690   18.5200  -34.3600 C   0  0  0  0  0  0  0  0  0  0  0  0
   -6.1060   17.3990  -34.3740 C   0  0  0  0  0  0  0  0  0  0  0  0
   -6.5690   16.8540  -33.1740 C   0  0  0  0  0  0  0  0  0  0  0  0
   -6.1980   17.4310  -31.9570 C   0  0  0  0  0  0  0  0  0  0  0  0
   -5.3640   18.5530  -31.9370 C   0  0  0  0  0  0  0  0  0  0  0  0
   -7.2500   21.1370  -32.5430 C   0  0  0  0  0  0  0  0  0  0  0  0
   -7.7850   20.2000  -33.1920 O   0  0  0  0  0  0  0  0  0  0  0  0
   -7.6820   22.0150  -31.5750 C   0  0  0  0  0  0  0  0  0  0  0  0
   -8.7770   22.2150  -30.9780 O   0  0  0  0  0  0  0  0  0  0  0  0
   -3.6640   24.5270  -30.0220 C   0  0  0  0  0  0  0  0  0  0  0  0
   -3.8800   25.6800  -30.7690 O   0  0  0  0  0  0  0  0  0  0  0  0
   -1.1212   26.4708  -24.9800 H   0  0  0  0  0  0  0  0  0  0  0  0
   -2.6456   26.3207  -25.9183 H   0  0  0  0  0  0  0  0  0  0  0  0
   -1.4549   24.9758  -25.9183 H   0  0  0  0  0  0  0  0  0  0  0  0
   -1.5545   27.4220  -27.5744 H   0  0  0  0  0  0  0  0  0  0  0  0
    0.0492   27.1584  -26.7901 H   0  0  0  0  0  0  0  0  0  0  0  0
   -1.2896   22.9949  -28.0891 H   0  0  0  0  0  0  0  0  0  0  0  0
   -2.9462   21.1362  -28.2273 H   0  0  0  0  0  0  0  0  0  0  0  0
   -5.0850   21.4602  -29.4709 H   0  0  0  0  0  0  0  0  0  0  0  0
   -6.3010   24.5960  -30.7910 H   0  0  0  0  0  0  0  0  0  0  0  0
   -4.5040   22.2470  -33.9380 H   0  0  0  0  0  0  0  0  0  0  0  0
   -3.2782   20.2310  -33.9567 H   0  0  0  0  0  0  0  0  0  0  0  0
   -3.7665   20.6566  -30.9805 H   0  0  0  0  0  0  0  0  0  0  0  0
   -2.6877   19.3641  -31.6679 H   0  0  0  0  0  0  0  0  0  0  0  0
   -1.6381   21.6429  -30.9114 H   0  0  0  0  0  0  0  0  0  0  0  0
   -1.1292   20.8956  -32.4637 H   0  0  0  0  0  0  0  0  0  0  0  0
   -2.3028   22.2556  -32.4637 H   0  0  0  0  0  0  0  0  0  0  0  0
   -4.9037   18.9411  -35.3083 H   0  0  0  0  0  0  0  0  0  0  0  0
   -6.4002   16.9457  -35.3321 H   0  0  0  0  0  0  0  0  0  0  0  0
   -7.2252   15.9712  -33.1873 H   0  0  0  0  0  0  0  0  0  0  0  0
   -6.5629   17.0016  -31.0123 H   0  0  0  0  0  0  0  0  0  0  0  0
   -5.0753   19.0015  -30.9750 H   0  0  0  0  0  0  0  0  0  0  0  0
  1  2  1  0
  2  3  1  0
  3  4  2  0
  3  5  1  0
  5  6  1  0
  6  7  2  0
  7  8  1  0
  8  9  2  0
  9 10  1  0
 10 11  1  0
 11 12  1  0
 12 13  2  0
 13 14  1  0
 14 15  1  0
 15 16  1  0
 16 17  1  0
 15 18  1  0
 18 19  2  0
 19 20  1  0
 20 21  2  0
 21 22  1  0
 22 23  2  0
 13 24  1  0
 24 25  2  0
 24 26  1  0
 26 27  2  0
 10 28  2  0
 28 29  1  0
 28  6  1  0
 26 12  1  0
 23 18  1  0
  1 30  1  0
  1 31  1  0
  1 32  1  0
  2 33  1  0
  2 34  1  0
  7 35  1  0
  8 36  1  0
  9 37  1  0
 11 38  1  0
 14 39  1  0
 15 40  1  6
 16 41  1  0
 16 42  1  0
 17 43  1  0
 17 44  1  0
 17 45  1  0
 19 46  1  0
 20 47  1  0
 21 48  1  0
 22 49  1  0
 23 50  1  0
M  CHG  2   5  -1  29  -1
M  END
>  <UniqueID>  (17) 
16

>  <SMILES>  (17) 
CCC(=O)[N-]c1cccc(Nc2c(N[C@@H](CC)c3ccccc3)c(=O)c2=O)c1[O-]

>  <Energy>  (17) 
41.46826258290369

>  <Genealogy>  (17) 
CCC(=O)[N-]c1cccc(Nc2c(NC(CC)c3ccccc3)c(=O)c2=O)c1[O-] (protonated)
CCC(=O)[N-]c1cccc(Nc2c(N[C@@H](CC)c3ccccc3)c(=O)c2=O)c1[O-] (chirality)
CCC(=O)[N-]c1cccc(Nc2c(N[C@@H](CC)c3ccccc3)c(=O)c2=O)c1[O-] (3D coordinates assigned)
CCC(=O)[N-]c1cccc(Nc2c(N[C@@H](CC)c3ccccc3)c(=O)c2=O)c1[O-] (optimized conformer: 41.46826258290369 kcal/mol)

>  <smiles>  (17) 
CCC(=O)Nc1cccc(Nc2c(NC(CC)c3ccccc3)c(=O)c2=O)c1O

>  <score_type>  (17) 
oracle

>  <origin>  (17) 
adgpu

>  <m_score__min__energy>  (17) 
-13.960000000000001

>  <m_primary>  (17) 
energy

$$$$
17:0
     RDKit          3D

 68 72  0  0  0  0  0  0  0  0999 V2000
   -8.7070   18.2390  -31.6300 C   0  0  0  0  0  0  0  0  0  0  0  0
   -7.3110   18.5050  -32.1390 C   0  0  0  0  0  0  0  0  0  0  0  0
   -6.5170   17.4150  -32.5000 C   0  0  0  0  0  0  0  0  0  0  0  0
   -5.2210   17.5750  -33.0020 C   0  0  0  0  0  0  0  0  0  0  0  0
   -4.2630   16.1320  -33.4740 S   0  0  0  0  0  0  0  0  0  0  0  0
   -4.1600   16.1040  -34.9740 O   0  0  0  0  0  0  0  0  0  0  0  0
   -2.8810   16.2860  -32.9040 O   0  0  0  0  0  0  0  0  0  0  0  0
   -4.8940   14.5720  -32.9860 N   0  0  0  0  0  0  0  0  0  0  0  0
   -4.5690   13.5110  -33.9710 C   0  0  0  0  0  0  0  0  0  0  0  0
   -4.4660   12.1320  -33.3060 C   0  0  0  0  0  0  0  0  0  0  0  0
   -5.4230   12.0320  -32.2740 O   0  0  0  0  0  0  0  0  0  0  0  0
   -5.0560   12.8570  -31.1800 C   0  0  0  0  0  0  0  0  0  0  0  0
   -4.5060   14.2430  -31.5990 C   0  0  0  0  0  0  0  0  0  0  0  0
   -4.6790   18.8850  -33.0970 C   0  0  0  0  0  0  0  0  0  0  0  0
   -3.2320   19.0890  -33.5090 C   0  0  0  0  0  0  0  0  0  0  0  0
   -5.5070   20.0130  -32.8210 C   0  0  0  0  0  0  0  0  0  0  0  0
   -4.9960   21.4290  -33.0790 C   0  0  0  0  0  0  0  0  0  0  0  0
   -4.3590   22.0440  -31.8510 C   0  0  0  0  0  0  0  0  0  0  0  0
   -3.1820   21.5370  -31.4030 N   0  0  0  0  0  0  0  0  0  0  0  0
   -2.5620   21.9790  -30.3090 N   0  0  0  0  0  0  0  0  0  0  0  0
   -1.3140   21.3080  -29.9260 C   0  0  0  0  0  0  0  0  0  0  0  0
   -1.5780   20.3370  -28.8140 C   0  0  0  0  0  0  0  0  0  0  0  0
   -2.7680   20.4070  -28.0720 C   0  0  0  0  0  0  0  0  0  0  0  0
   -2.9670   19.5180  -27.0150 C   0  0  0  0  0  0  0  0  0  0  0  0
   -1.9820   18.5800  -26.7000 C   0  0  0  0  0  0  0  0  0  0  0  0
   -0.8040   18.5480  -27.4510 C   0  0  0  0  0  0  0  0  0  0  0  0
   -0.6270   19.4230  -28.4790 N   0  0  0  0  0  0  0  0  0  0  0  0
   -3.1080   22.9860  -29.5600 C   0  0  0  0  0  0  0  0  0  0  0  0
   -2.5380   23.3760  -28.5020 O   0  0  0  0  0  0  0  0  0  0  0  0
   -4.3090   23.5880  -29.9760 C   0  0  0  0  0  0  0  0  0  0  0  0
   -4.8870   24.6460  -29.2480 C   0  0  0  0  0  0  0  0  0  0  0  0
   -6.0730   25.2400  -29.6840 C   0  0  0  0  0  0  0  0  0  0  0  0
   -6.6950   24.7870  -30.8460 C   0  0  0  0  0  0  0  0  0  0  0  0
   -6.1400   23.7350  -31.5780 C   0  0  0  0  0  0  0  0  0  0  0  0
   -4.9450   23.1180  -31.1500 C   0  0  0  0  0  0  0  0  0  0  0  0
   -6.7980   19.8170  -32.2530 C   0  0  0  0  0  0  0  0  0  0  0  0
   -7.6440   20.9980  -31.8140 C   0  0  0  0  0  0  0  0  0  0  0  0
   -8.7026   18.2398  -30.5300 H   0  0  0  0  0  0  0  0  0  0  0  0
   -9.3860   19.0239  -31.9945 H   0  0  0  0  0  0  0  0  0  0  0  0
   -9.0497   17.2594  -31.9945 H   0  0  0  0  0  0  0  0  0  0  0  0
   -6.9229   16.3990  -32.3862 H   0  0  0  0  0  0  0  0  0  0  0  0
   -5.9370   14.6790  -32.9830 H   0  0  0  0  0  0  0  0  0  0  0  0
   -5.3593   13.4800  -34.7355 H   0  0  0  0  0  0  0  0  0  0  0  0
   -3.5940   13.7482  -34.4216 H   0  0  0  0  0  0  0  0  0  0  0  0
   -4.6528   11.3491  -34.0557 H   0  0  0  0  0  0  0  0  0  0  0  0
   -3.4584   12.0042  -32.8837 H   0  0  0  0  0  0  0  0  0  0  0  0
   -5.9440   13.0124  -30.5496 H   0  0  0  0  0  0  0  0  0  0  0  0
   -4.2458   12.3390  -30.6458 H   0  0  0  0  0  0  0  0  0  0  0  0
   -4.9100   15.0096  -30.9215 H   0  0  0  0  0  0  0  0  0  0  0  0
   -3.4079   14.2154  -31.5406 H   0  0  0  0  0  0  0  0  0  0  0  0
   -2.6039   19.1776  -32.6103 H   0  0  0  0  0  0  0  0  0  0  0  0
   -2.8965   18.2293  -34.1076 H   0  0  0  0  0  0  0  0  0  0  0  0
   -3.1473   20.0080  -34.1076 H   0  0  0  0  0  0  0  0  0  0  0  0
   -4.2482   21.3936  -33.8850 H   0  0  0  0  0  0  0  0  0  0  0  0
   -5.8587   22.0519  -33.3576 H   0  0  0  0  0  0  0  0  0  0  0  0
   -0.9092   20.7673  -30.7942 H   0  0  0  0  0  0  0  0  0  0  0  0
   -0.5876   22.0605  -29.5853 H   0  0  0  0  0  0  0  0  0  0  0  0
   -3.5353   21.1547  -28.3213 H   0  0  0  0  0  0  0  0  0  0  0  0
   -3.8983   19.5562  -26.4309 H   0  0  0  0  0  0  0  0  0  0  0  0
   -2.1316   17.8740  -25.8698 H   0  0  0  0  0  0  0  0  0  0  0  0
   -0.0192   17.8154  -27.2115 H   0  0  0  0  0  0  0  0  0  0  0  0
   -4.4008   25.0069  -28.3296 H   0  0  0  0  0  0  0  0  0  0  0  0
   -6.5169   26.0665  -29.1097 H   0  0  0  0  0  0  0  0  0  0  0  0
   -7.6272   25.2602  -31.1881 H   0  0  0  0  0  0  0  0  0  0  0  0
   -6.6377   23.3849  -32.4944 H   0  0  0  0  0  0  0  0  0  0  0  0
   -7.6737   21.0395  -30.7152 H   0  0  0  0  0  0  0  0  0  0  0  0
   -7.2056   21.9283  -32.2043 H   0  0  0  0  0  0  0  0  0  0  0  0
   -8.6659   20.8822  -32.2043 H   0  0  0  0  0  0  0  0  0  0  0  0
  1  2  1  0
  2  3  2  0
  3  4  1  0
  4  5  1  0
  5  6  2  0
  5  7  2  0
  5  8  1  0
  8  9  1  0
  9 10  1  0
 10 11  1  0
 11 12  1  0
 12 13  1  0
  4 14  2  0
 14 15  1  0
 14 16  1  0
 16 17  1  0
 17 18  1  0
 18 19  2  0
 19 20  1  0
 20 21  1  0
 21 22  1  0
 22 23  2  0
 23 24  1  0
 24 25  2  0
 25 26  1  0
 26 27  2  0
 20 28  1  0
 28 29  2  0
 28 30  1  0
 30 31  2  0
 31 32  1  0
 32 33  2  0
 33 34  1  0
 34 35  2  0
 16 36  2  0
 36 37  1  0
 36  2  1  0
 13  8  1  0
 35 18  1  0
 27 22  1  0
 35 30  1  0
  1 38  1  0
  1 39  1  0
  1 40  1  0
  3 41  1  0
  8 42  1  0
  9 43  1  0
  9 44  1  0
 10 45  1  0
 10 46  1  0
 12 47  1  0
 12 48  1  0
 13 49  1  0
 13 50  1  0
 15 51  1  0
 15 52  1  0
 15 53  1  0
 17 54  1  0
 17 55  1  0
 21 56  1  0
 21 57  1  0
 23 58  1  0
 24 59  1  0
 25 60  1  0
 26 61  1  0
 31 62  1  0
 32 63  1  0
 33 64  1  0
 34 65  1  0
 37 66  1  0
 37 67  1  0
 37 68  1  0
M  CHG  1   8   1
M  END
>  <UniqueID>  (18) 
17

>  <SMILES>  (18) 
Cc1cc(S(=O)(=O)[NH+]2CCOCC2)c(C)c(Cc2nn(Cc3ccccn3)c(=O)c3ccccc23)c1C

>  <Energy>  (18) 
101.52766687517648

>  <Genealogy>  (18) 
Cc1cc(S(=O)(=O)[NH+]2CCOCC2)c(C)c(Cc2nn(Cc3ccccn3)c(=O)c3ccccc23)c1C (protonated)
Cc1cc(S(=O)(=O)[NH+]2CCOCC2)c(C)c(Cc2nn(Cc3ccccn3)c(=O)c3ccccc23)c1C (3D coordinates assigned)
Cc1cc(S(=O)(=O)[NH+]2CCOCC2)c(C)c(Cc2nn(Cc3ccccn3)c(=O)c3ccccc23)c1C (nonaromatic ring conformer: 101.52766687517648 kcal/mol)

>  <smiles>  (18) 
Cc1cc(S(=O)(=O)N2CCOCC2)c(C)c(Cc2nn(Cc3ccccn3)c(=O)c3ccccc23)c1C

>  <score_type>  (18) 
oracle

>  <origin>  (18) 
adgpu

>  <m_score__min__energy>  (18) 
-10.390000000000001

>  <m_primary>  (18) 
energy

$$$$
18:0
     RDKit          3D

 62 65  0  0  0  0  0  0  0  0999 V2000
    3.2680   16.9100  -28.6490 C   0  0  0  0  0  0  0  0  0  0  0  0
    1.7790   16.8060  -28.5070 C   0  0  0  0  0  0  0  0  0  0  0  0
    1.2170   15.7250  -28.8340 O   0  0  0  0  0  0  0  0  0  0  0  0
    0.9830   17.9070  -28.0220 N   0  0  0  0  0  0  0  0  0  0  0  0
    1.5570   19.2530  -27.8430 C   0  0  0  0  0  0  0  0  0  0  0  0
    0.5350   20.3340  -28.2200 C   0  0  0  0  0  0  0  0  0  0  0  0
   -0.8000   20.0480  -27.6640 N   0  0  0  0  0  0  0  0  0  0  0  0
   -1.9380   20.8170  -28.1020 C   0  0  0  0  0  0  0  0  0  0  0  0
   -3.0320   20.2340  -28.3310 O   0  0  0  0  0  0  0  0  0  0  0  0
   -1.8470   22.2770  -28.3210 C   0  0  0  0  0  0  0  0  0  0  0  0
   -0.9710   23.0640  -27.5580 C   0  0  0  0  0  0  0  0  0  0  0  0
   -0.8830   24.4410  -27.7820 C   0  0  0  0  0  0  0  0  0  0  0  0
   -1.6830   25.0480  -28.7540 C   0  0  0  0  0  0  0  0  0  0  0  0
   -1.5890   26.4180  -28.9680 O   0  0  0  0  0  0  0  0  0  0  0  0
   -2.5850   24.2780  -29.4950 C   0  0  0  0  0  0  0  0  0  0  0  0
   -3.4340   24.9020  -30.4560 N   0  0  0  0  0  0  0  0  0  0  0  0
   -5.1390   24.9870  -30.1920 S   0  0  0  0  0  0  0  0  0  0  0  0
   -5.6960   26.2360  -30.8130 O   0  0  0  0  0  0  0  0  0  0  0  0
   -5.4130   25.0220  -28.7150 O   0  0  0  0  0  0  0  0  0  0  0  0
   -5.8820   23.5590  -30.9030 C   0  0  0  0  0  0  0  0  0  0  0  0
   -7.1450   23.6500  -31.5050 C   0  0  0  0  0  0  0  0  0  0  0  0
   -7.7760   22.5010  -31.9900 C   0  0  0  0  0  0  0  0  0  0  0  0
   -7.1500   21.2500  -31.8740 C   0  0  0  0  0  0  0  0  0  0  0  0
   -7.9820   19.7990  -32.4240 S   0  0  0  0  0  0  0  0  0  0  0  0
   -9.3430   20.1610  -32.9520 O   0  0  0  0  0  0  0  0  0  0  0  0
   -8.1540   18.8580  -31.2640 O   0  0  0  0  0  0  0  0  0  0  0  0
   -7.0250   19.0240  -33.6610 N   0  0  0  0  0  0  0  0  0  0  0  0
   -6.7700   17.6230  -33.3370 C   0  0  0  0  0  0  0  0  0  0  0  0
   -5.4720   17.2480  -34.0360 C   0  0  0  0  0  0  0  0  0  0  0  0
   -4.7700   18.5690  -34.3120 C   0  0  0  0  0  0  0  0  0  0  0  0
   -5.7060   19.6410  -33.7790 C   0  0  0  0  0  0  0  0  0  0  0  0
   -5.8870   21.1580  -31.2690 C   0  0  0  0  0  0  0  0  0  0  0  0
   -5.2560   22.3080  -30.7850 C   0  0  0  0  0  0  0  0  0  0  0  0
   -2.6710   22.8970  -29.2720 C   0  0  0  0  0  0  0  0  0  0  0  0
   -0.9970   18.8440  -26.8480 C   0  0  0  0  0  0  0  0  0  0  0  0
   -0.3900   17.6330  -27.5600 C   0  0  0  0  0  0  0  0  0  0  0  0
    3.7301   16.9423  -27.6513 H   0  0  0  0  0  0  0  0  0  0  0  0
    3.6457   16.0360  -29.1999 H   0  0  0  0  0  0  0  0  0  0  0  0
    3.5206   17.8280  -29.1999 H   0  0  0  0  0  0  0  0  0  0  0  0
    1.8491   19.3838  -26.7906 H   0  0  0  0  0  0  0  0  0  0  0  0
    2.4348   19.3528  -28.4984 H   0  0  0  0  0  0  0  0  0  0  0  0
    0.8821   21.3025  -27.8306 H   0  0  0  0  0  0  0  0  0  0  0  0
    0.4498   20.3542  -29.3165 H   0  0  0  0  0  0  0  0  0  0  0  0
   -0.3506   22.5952  -26.7800 H   0  0  0  0  0  0  0  0  0  0  0  0
   -0.1818   25.0488  -27.1913 H   0  0  0  0  0  0  0  0  0  0  0  0
   -7.6404   24.6279  -31.5958 H   0  0  0  0  0  0  0  0  0  0  0  0
   -8.7658   22.5773  -32.4638 H   0  0  0  0  0  0  0  0  0  0  0  0
   -6.6660   17.4973  -32.2492 H   0  0  0  0  0  0  0  0  0  0  0  0
   -7.5998   16.9807  -33.6671 H   0  0  0  0  0  0  0  0  0  0  0  0
   -4.8539   16.6115  -33.3857 H   0  0  0  0  0  0  0  0  0  0  0  0
   -5.6527   16.6783  -34.9594 H   0  0  0  0  0  0  0  0  0  0  0  0
   -3.8029   18.6077  -33.7893 H   0  0  0  0  0  0  0  0  0  0  0  0
   -4.5593   18.7049  -35.3830 H   0  0  0  0  0  0  0  0  0  0  0  0
   -5.3612   19.9903  -32.7946 H   0  0  0  0  0  0  0  0  0  0  0  0
   -5.7345   20.5117  -34.4506 H   0  0  0  0  0  0  0  0  0  0  0  0
   -5.3928   20.1797  -31.1755 H   0  0  0  0  0  0  0  0  0  0  0  0
   -4.2665   22.2323  -30.3105 H   0  0  0  0  0  0  0  0  0  0  0  0
   -3.3899   22.2949  -29.8469 H   0  0  0  0  0  0  0  0  0  0  0  0
   -0.5060   18.9788  -25.8729 H   0  0  0  0  0  0  0  0  0  0  0  0
   -2.0740   18.6770  -26.6994 H   0  0  0  0  0  0  0  0  0  0  0  0
   -0.3690   16.7825  -26.8627 H   0  0  0  0  0  0  0  0  0  0  0  0
   -1.0098   17.4047  -28.4396 H   0  0  0  0  0  0  0  0  0  0  0  0
  1  2  1  0
  2  3  2  0
  2  4  1  0
  4  5  1  0
  5  6  1  0
  6  7  1  0
  7  8  1  0
  8  9  2  0
  8 10  1  0
 10 11  2  0
 11 12  1  0
 12 13  2  0
 13 14  1  0
 13 15  1  0
 15 16  1  0
 16 17  1  0
 17 18  2  0
 17 19  2  0
 17 20  1  0
 20 21  2  0
 21 22  1  0
 22 23  2  0
 23 24  1  0
 24 25  2  0
 24 26  2  0
 24 27  1  0
 27 28  1  0
 28 29  1  0
 29 30  1  0
 30 31  1  0
 23 32  1  0
 32 33  2  0
 15 34  2  0
  7 35  1  0
 35 36  1  0
 36  4  1  0
 34 10  1  0
 33 20  1  0
 31 27  1  0
  1 37  1  0
  1 38  1  0
  1 39  1  0
  5 40  1  0
  5 41  1  0
  6 42  1  0
  6 43  1  0
 11 44  1  0
 12 45  1  0
 21 46  1  0
 22 47  1  0
 28 48  1  0
 28 49  1  0
 29 50  1  0
 29 51  1  0
 30 52  1  0
 30 53  1  0
 31 54  1  0
 31 55  1  0
 32 56  1  0
 33 57  1  0
 34 58  1  0
 35 59  1  0
 35 60  1  0
 36 61  1  0
 36 62  1  0
M  CHG  2  14  -1  16  -1
M  END
>  <UniqueID>  (19) 
18

>  <SMILES>  (19) 
CC(=O)N1CCN(C(=O)c2ccc([O-])c([N-]S(=O)(=O)c3ccc(S(=O)(=O)N4CCCC4)cc3)c2)CC1

>  <Energy>  (19) 
78.74090833901029

>  <Genealogy>  (19) 
CC(=O)N1CCN(C(=O)c2ccc([O-])c([N-]S(=O)(=O)c3ccc(S(=O)(=O)N4CCCC4)cc3)c2)CC1 (protonated)
CC(=O)N1CCN(C(=O)c2ccc([O-])c([N-]S(=O)(=O)c3ccc(S(=O)(=O)N4CCCC4)cc3)c2)CC1 (3D coordinates assigned)
CC(=O)N1CCN(C(=O)c2ccc([O-])c([N-]S(=O)(=O)c3ccc(S(=O)(=O)N4CCCC4)cc3)c2)CC1 (nonaromatic ring conformer: 78.74090833901029 kcal/mol)

>  <smiles>  (19) 
CC(=O)N1CCN(C(=O)c2ccc(O)c(NS(=O)(=O)c3ccc(S(=O)(=O)N4CCCC4)cc3)c2)CC1

>  <score_type>  (19) 
oracle

>  <origin>  (19) 
adgpu

>  <m_score__min__energy>  (19) 
-15.800000000000001

>  <m_primary>  (19) 
energy

$$$$
19:0
     RDKit          3D

 72 76  0  0  1  0  0  0  0  0999 V2000
    1.8750   18.0800  -38.0470 C   0  0  0  0  0  0  0  0  0  0  0  0
    1.7650   19.3080  -37.2170 C   0  0  0  0  0  0  0  0  0  0  0  0
    2.9000   20.1190  -37.1890 C   0  0  0  0  0  0  0  0  0  0  0  0
    2.9060   21.2850  -36.4460 C   0  0  0  0  0  0  0  0  0  0  0  0
    1.7690   21.5930  -35.7560 C   0  0  0  0  0  0  0  0  0  0  0  0
    1.7640   22.7730  -35.0000 O   0  0  0  0  0  0  0  0  0  0  0  0
    0.6230   20.7830  -35.7770 C   0  0  0  0  0  0  0  0  0  0  0  0
   -0.4600   21.2610  -35.0060 N   0  0  0  0  0  0  0  0  0  0  0  0
   -1.0150   20.3850  -34.0370 C   0  0  0  0  0  0  0  0  0  0  0  0
   -0.5320   19.2240  -33.9310 O   0  0  0  0  0  0  0  0  0  0  0  0
   -2.1100   20.7460  -33.1500 C   0  0  0  0  0  0  0  0  0  0  0  0
   -1.8950   21.5740  -32.1100 C   0  0  0  0  0  0  0  0  0  0  0  0
   -3.0000   21.8760  -31.2920 C   0  0  0  0  0  0  0  0  0  0  0  0
   -4.1990   21.3060  -31.6180 C   0  0  0  0  0  0  0  0  0  0  0  0
   -5.3150   21.5660  -30.8560 C   0  0  0  0  0  0  0  0  0  0  0  0
   -5.2510   22.3110  -29.8830 N   0  0  0  0  0  0  0  0  0  0  0  0
   -4.3260   23.0600  -29.2230 C   0  0  0  0  0  0  0  0  0  0  0  0
   -3.8110   24.2310  -29.8320 C   0  0  0  0  0  0  0  0  0  0  0  0
   -2.7710   24.9220  -29.2470 C   0  0  0  0  0  0  0  0  0  0  0  0
   -2.2000   24.4950  -28.0480 C   0  0  0  0  0  0  0  0  0  0  0  0
   -0.8540   25.4080  -27.4230 S   0  0  0  0  0  0  0  0  0  0  0  0
    0.4640   24.7950  -27.8750 O   0  0  0  0  0  0  0  0  0  0  0  0
   -0.8310   26.8130  -28.0090 O   0  0  0  0  0  0  0  0  0  0  0  0
   -0.7940   25.5590  -25.7440 N   0  0  0  0  0  0  0  0  0  0  0  0
    0.4650   25.4420  -25.1130 C   0  0  0  0  0  0  0  0  0  0  0  0
    0.4960   26.3750  -23.9070 C   0  0  0  0  0  0  0  0  0  0  0  0
    0.0860   27.7610  -24.3480 C   0  0  0  0  0  0  0  0  0  0  0  0
   -1.2190   27.8100  -25.0790 C   0  0  0  0  0  0  0  0  0  0  0  0
   -1.7710   26.4030  -25.1580 C   0  0  0  0  0  0  0  0  0  0  0  0
   -2.6970   23.3570  -27.4470 C   0  0  0  0  0  0  0  0  0  0  0  0
   -3.7510   22.6250  -28.0070 C   0  0  0  0  0  0  0  0  0  0  0  0
   -6.4940   20.9990  -31.1890 N   0  0  0  0  0  0  0  0  0  0  0  0
   -6.6620   20.1790  -32.2340 C   0  0  0  0  0  0  0  0  0  0  0  0
   -7.9280   19.6150  -32.5460 N   0  0  0  0  0  0  0  0  0  0  0  0
   -8.0150   18.1630  -32.7620 C   0  0  0  0  0  0  0  0  0  0  0  0
   -9.1210   20.4340  -32.6570 C   0  0  0  0  0  0  0  0  0  0  0  0
   -5.5870   19.9120  -32.9900 N   0  0  0  0  0  0  0  0  0  0  0  0
   -4.3910   20.4670  -32.6820 C   0  0  0  0  0  0  0  0  0  0  0  0
   -3.3360   20.1670  -33.4790 C   0  0  0  0  0  0  0  0  0  0  0  0
    0.6200   19.6290  -36.5140 C   0  0  0  0  0  0  0  0  0  0  0  0
    1.9538   17.2002  -37.3915 H   0  0  0  0  0  0  0  0  0  0  0  0
    0.9817   17.9853  -38.6819 H   0  0  0  0  0  0  0  0  0  0  0  0
    2.7709   18.1456  -38.6819 H   0  0  0  0  0  0  0  0  0  0  0  0
    3.7941   19.8294  -37.7606 H   0  0  0  0  0  0  0  0  0  0  0  0
    3.7907   21.9378  -36.4122 H   0  0  0  0  0  0  0  0  0  0  0  0
    2.6130   23.1500  -34.6070 H   0  0  0  0  0  0  0  0  0  0  0  0
   -0.8510   22.2160  -35.1310 H   0  0  0  0  0  0  0  0  0  0  0  0
   -0.8993   21.9959  -31.9085 H   0  0  0  0  0  0  0  0  0  0  0  0
   -2.9025   22.5447  -30.4241 H   0  0  0  0  0  0  0  0  0  0  0  0
   -4.2434   24.5911  -30.7772 H   0  0  0  0  0  0  0  0  0  0  0  0
   -2.3838   25.8283  -29.7356 H   0  0  0  0  0  0  0  0  0  0  0  0
    0.6182   24.4042  -24.7822 H   0  0  0  0  0  0  0  0  0  0  0  0
    1.2643   25.7141  -25.8180 H   0  0  0  0  0  0  0  0  0  0  0  0
   -0.2029   26.0100  -23.1400 H   0  0  0  0  0  0  0  0  0  0  0  0
    1.5114   26.4039  -23.4849 H   0  0  0  0  0  0  0  0  0  0  0  0
    0.0054   28.3977  -23.4547 H   0  0  0  0  0  0  0  0  0  0  0  0
    0.8562   28.1102  -25.0514 H   0  0  0  0  0  0  0  0  0  0  0  0
   -1.9249   28.4569  -24.5375 H   0  0  0  0  0  0  0  0  0  0  0  0
   -1.0726   28.2176  -26.0901 H   0  0  0  0  0  0  0  0  0  0  0  0
   -2.0112   26.0432  -24.1466 H   0  0  0  0  0  0  0  0  0  0  0  0
   -2.6856   26.3950  -25.7692 H   0  0  0  0  0  0  0  0  0  0  0  0
   -2.2525   23.0149  -26.5007 H   0  0  0  0  0  0  0  0  0  0  0  0
   -4.1277   21.7210  -27.5061 H   0  0  0  0  0  0  0  0  0  0  0  0
   -7.3730   21.1840  -30.6160 H   0  0  0  0  0  0  0  0  0  0  0  0
   -8.0458   17.6489  -31.7900 H   0  0  0  0  0  0  0  0  0  0  0  0
   -8.9287   17.9307  -33.3288 H   0  0  0  0  0  0  0  0  0  0  0  0
   -7.1356   17.8233  -33.3288 H   0  0  0  0  0  0  0  0  0  0  0  0
   -9.4878   20.6858  -31.6510 H   0  0  0  0  0  0  0  0  0  0  0  0
   -8.8814   21.3589  -33.2021 H   0  0  0  0  0  0  0  0  0  0  0  0
   -9.8980   19.8780  -33.2021 H   0  0  0  0  0  0  0  0  0  0  0  0
   -3.4418   19.4977  -34.3455 H   0  0  0  0  0  0  0  0  0  0  0  0
   -0.2662   18.9781  -36.5453 H   0  0  0  0  0  0  0  0  0  0  0  0
  1  2  1  0
  2  3  2  0
  3  4  1  0
  4  5  2  0
  5  6  1  0
  5  7  1  0
  7  8  1  0
  8  9  1  0
  9 10  2  0
  9 11  1  0
 11 12  2  0
 12 13  1  0
 13 14  2  0
 14 15  1  0
 15 16  2  0
 16 17  1  0
 17 18  2  0
 18 19  1  0
 19 20  2  0
 20 21  1  0
 21 22  2  0
 21 23  2  0
 21 24  1  0
 24 25  1  0
 25 26  1  0
 26 27  1  0
 27 28  1  0
 28 29  1  0
 20 30  1  0
 30 31  2  0
 15 32  1  0
 32 33  1  0
 33 34  1  0
 34 35  1  0
 34 36  1  0
 33 37  2  0
 37 38  1  0
 38 39  2  0
  7 40  2  0
 40  2  1  0
 39 11  1  0
 38 14  1  0
 31 17  1  0
 29 24  1  0
  1 41  1  0
  1 42  1  0
  1 43  1  0
  3 44  1  0
  4 45  1  0
  6 46  1  0
  8 47  1  0
 12 48  1  0
 13 49  1  0
 18 50  1  0
 19 51  1  0
 25 52  1  0
 25 53  1  0
 26 54  1  0
 26 55  1  0
 27 56  1  0
 27 57  1  0
 28 58  1  0
 28 59  1  0
 29 60  1  0
 29 61  1  0
 30 62  1  0
 31 63  1  0
 32 64  1  0
 35 65  1  0
 35 66  1  0
 35 67  1  0
 36 68  1  0
 36 69  1  0
 36 70  1  0
 39 71  1  0
 40 72  1  0
M  END
>  <smiles>  (20) 
Cc1ccc(O)c(NC(=O)c2ccc3c(=Nc4ccc(S(=O)(=O)N5CCCCC5)cc4)[nH]c(N(C)C)nc3c2)c1

>  <score_type>  (20) 
oracle

>  <origin>  (20) 
adgpu

>  <m_score__min__energy>  (20) 
-10.98

>  <m_primary>  (20) 
energy

$$$$
20:0
     RDKit          3D

 44 46  0  0  0  0  0  0  0  0999 V2000
   -2.4350   20.1480  -27.5080 C   0  0  0  0  0  0  0  0  0  0  0  0
   -2.2490   21.0660  -28.6240 N   0  0  0  0  0  0  0  0  0  0  0  0
   -2.3400   22.4930  -28.5270 C   0  0  0  0  0  0  0  0  0  0  0  0
   -1.6490   23.0850  -27.6570 O   0  0  0  0  0  0  0  0  0  0  0  0
   -3.2460   23.2760  -29.3970 C   0  0  0  0  0  0  0  0  0  0  0  0
   -4.3550   22.6640  -29.8910 N   0  0  0  0  0  0  0  0  0  0  0  0
   -5.2640   23.3080  -30.6710 C   0  0  0  0  0  0  0  0  0  0  0  0
   -6.4430   22.5600  -31.1840 C   0  0  0  0  0  0  0  0  0  0  0  0
   -7.6720   23.2240  -31.3500 C   0  0  0  0  0  0  0  0  0  0  0  0
   -8.7930   22.5380  -31.8180 C   0  0  0  0  0  0  0  0  0  0  0  0
   -8.7120   21.1750  -32.1150 C   0  0  0  0  0  0  0  0  0  0  0  0
   -9.8170   20.5430  -32.5840 F   0  0  0  0  0  0  0  0  0  0  0  0
   -7.5000   20.4850  -31.9340 C   0  0  0  0  0  0  0  0  0  0  0  0
   -7.3660   18.7560  -32.2990 S   0  0  0  0  0  0  0  0  0  0  0  0
   -8.7540   18.1810  -32.3450 O   0  0  0  0  0  0  0  0  0  0  0  0
   -6.5900   18.0620  -31.2130 O   0  0  0  0  0  0  0  0  0  0  0  0
   -6.5720   18.5070  -33.8460 N   0  0  0  0  0  0  0  0  0  0  0  0
   -6.5060   17.0710  -34.1880 C   0  0  0  0  0  0  0  0  0  0  0  0
   -5.4230   16.3160  -33.3770 C   0  0  0  0  0  0  0  0  0  0  0  0
   -4.4710   17.1690  -32.7650 O   0  0  0  0  0  0  0  0  0  0  0  0
   -4.0790   18.1810  -33.6640 C   0  0  0  0  0  0  0  0  0  0  0  0
   -5.2410   19.1630  -33.9020 C   0  0  0  0  0  0  0  0  0  0  0  0
   -6.3710   21.1850  -31.4790 C   0  0  0  0  0  0  0  0  0  0  0  0
   -5.0590   24.6670  -30.9520 C   0  0  0  0  0  0  0  0  0  0  0  0
   -3.9530   25.2920  -30.4700 N   0  0  0  0  0  0  0  0  0  0  0  0
   -3.0330   24.6420  -29.7090 C   0  0  0  0  0  0  0  0  0  0  0  0
   -1.9760   25.2910  -29.3280 N   0  0  0  0  0  0  0  0  0  0  0  0
   -2.3241   20.6955  -26.5604 H   0  0  0  0  0  0  0  0  0  0  0  0
   -3.4409   19.7060  -27.5605 H   0  0  0  0  0  0  0  0  0  0  0  0
   -1.6804   19.3493  -27.5605 H   0  0  0  0  0  0  0  0  0  0  0  0
   -7.7499   24.2943  -31.1085 H   0  0  0  0  0  0  0  0  0  0  0  0
   -9.7448   23.0724  -31.9538 H   0  0  0  0  0  0  0  0  0  0  0  0
   -7.1830   18.9580  -34.5640 H   0  0  0  0  0  0  0  0  0  0  0  0
   -7.4847   16.6138  -33.9803 H   0  0  0  0  0  0  0  0  0  0  0  0
   -6.2404   16.9933  -35.2526 H   0  0  0  0  0  0  0  0  0  0  0  0
   -5.9227   15.7322  -32.5899 H   0  0  0  0  0  0  0  0  0  0  0  0
   -4.8746   15.6800  -34.0875 H   0  0  0  0  0  0  0  0  0  0  0  0
   -3.2220   18.7278  -33.2438 H   0  0  0  0  0  0  0  0  0  0  0  0
   -3.7981   17.7196  -34.6222 H   0  0  0  0  0  0  0  0  0  0  0  0
   -5.2027   19.9459  -33.1302 H   0  0  0  0  0  0  0  0  0  0  0  0
   -5.1201   19.5790  -34.9131 H   0  0  0  0  0  0  0  0  0  0  0  0
   -5.4173   20.6520  -31.3513 H   0  0  0  0  0  0  0  0  0  0  0  0
   -5.7889   25.2231  -31.5586 H   0  0  0  0  0  0  0  0  0  0  0  0
   -1.1980   24.8760  -28.7710 H   0  0  0  0  0  0  0  0  0  0  0  0
  1  2  1  0
  2  3  1  0
  3  4  2  0
  3  5  1  0
  5  6  2  0
  6  7  1  0
  7  8  1  0
  8  9  2  0
  9 10  1  0
 10 11  2  0
 11 12  1  0
 11 13  1  0
 13 14  1  0
 14 15  2  0
 14 16  2  0
 14 17  1  0
 17 18  1  0
 18 19  1  0
 19 20  1  0
 20 21  1  0
 21 22  1  0
 13 23  2  0
  7 24  2  0
 24 25  1  0
 25 26  1  0
 26 27  2  3
 26  5  1  0
 23  8  1  0
 22 17  1  0
  1 28  1  0
  1 29  1  0
  1 30  1  0
  9 31  1  0
 10 32  1  0
 17 33  1  0
 18 34  1  0
 18 35  1  0
 19 36  1  0
 19 37  1  0
 21 38  1  0
 21 39  1  0
 22 40  1  0
 22 41  1  0
 23 42  1  0
 24 43  1  0
 27 44  1  0
M  CHG  3   2  -1  17   1  25  -1
M  END
>  <UniqueID>  (21) 
19

>  <SMILES>  (21) 
C[N-]C(=O)c1nc(-c2ccc(F)c(S(=O)(=O)[NH+]3CCOCC3)c2)c[n-]c1=N

>  <Energy>  (21) 
68.10311185809611

>  <Genealogy>  (21) 
C[N-]C(=O)c1nc(-c2ccc(F)c(S(=O)(=O)[NH+]3CCOCC3)c2)c[n-]c1=N (protonated)
C[N-]C(=O)c1nc(-c2ccc(F)c(S(=O)(=O)[NH+]3CCOCC3)c2)c[n-]c1=N (3D coordinates assigned)
C[N-]C(=O)c1nc(-c2ccc(F)c(S(=O)(=O)[NH+]3CCOCC3)c2)c[n-]c1=N (nonaromatic ring conformer: 68.10311185809611 kcal/mol)

>  <smiles>  (21) 
CNC(=O)c1nc(-c2ccc(F)c(S(=O)(=O)N3CCOCC3)c2)c[nH]c1=N

>  <score_type>  (21) 
oracle

>  <origin>  (21) 
adgpu

>  <m_score__min__energy>  (21) 
-10.74

>  <m_primary>  (21) 
energy

$$$$
21:0
     RDKit          3D

 38 39  0  0  0  0  0  0  0  0999 V2000
   -6.4270   17.4660  -31.1760 C   0  0  0  0  0  0  0  0  0  0  0  0
   -5.7370   18.0750  -32.3210 N   0  0  0  0  0  0  0  0  0  0  0  0
   -5.2870   17.0340  -33.2530 C   0  0  0  0  0  0  0  0  0  0  0  0
   -6.8140   19.1800  -33.1410 S   0  0  0  0  0  0  0  0  0  0  0  0
   -6.4210   19.2780  -34.5890 O   0  0  0  0  0  0  0  0  0  0  0  0
   -8.2180   18.6510  -33.0750 O   0  0  0  0  0  0  0  0  0  0  0  0
   -6.7660   20.7880  -32.4180 C   0  0  0  0  0  0  0  0  0  0  0  0
   -5.6110   21.5760  -32.5080 C   0  0  0  0  0  0  0  0  0  0  0  0
   -5.5820   22.8400  -31.9180 C   0  0  0  0  0  0  0  0  0  0  0  0
   -6.7100   23.3030  -31.2340 C   0  0  0  0  0  0  0  0  0  0  0  0
   -6.7010   24.9200  -30.4600 S   0  0  0  0  0  0  0  0  0  0  0  0
   -5.5070   24.4750  -29.1470 C   0  0  0  0  0  0  0  0  0  0  0  0
   -4.0890   24.6010  -29.6310 C   0  0  0  0  0  0  0  0  0  0  0  0
   -3.8790   25.2870  -30.6680 O   0  0  0  0  0  0  0  0  0  0  0  0
   -2.9290   23.9960  -28.9180 C   0  0  0  0  0  0  0  0  0  0  0  0
   -3.0230   22.6540  -28.4960 C   0  0  0  0  0  0  0  0  0  0  0  0
   -1.9610   22.0360  -27.8320 C   0  0  0  0  0  0  0  0  0  0  0  0
   -0.7890   22.7450  -27.5740 C   0  0  0  0  0  0  0  0  0  0  0  0
   -0.6790   24.0780  -27.9740 C   0  0  0  0  0  0  0  0  0  0  0  0
   -1.7390   24.7100  -28.6350 C   0  0  0  0  0  0  0  0  0  0  0  0
   -1.5940   26.0480  -28.9770 O   0  0  0  0  0  0  0  0  0  0  0  0
   -7.8260   22.5290  -31.1650 N   0  0  0  0  0  0  0  0  0  0  0  0
   -7.8780   21.2960  -31.7340 C   0  0  0  0  0  0  0  0  0  0  0  0
   -5.9932   17.8489  -30.2405 H   0  0  0  0  0  0  0  0  0  0  0  0
   -7.4966   17.7199  -31.2151 H   0  0  0  0  0  0  0  0  0  0  0  0
   -6.3079   16.3732  -31.2151 H   0  0  0  0  0  0  0  0  0  0  0  0
   -4.9133   16.1696  -32.6846 H   0  0  0  0  0  0  0  0  0  0  0  0
   -6.1296   16.7198  -33.8864 H   0  0  0  0  0  0  0  0  0  0  0  0
   -4.4808   17.4326  -33.8864 H   0  0  0  0  0  0  0  0  0  0  0  0
   -4.7275   21.1983  -33.0435 H   0  0  0  0  0  0  0  0  0  0  0  0
   -4.6805   23.4661  -31.9903 H   0  0  0  0  0  0  0  0  0  0  0  0
   -5.6531   25.1460  -28.2877 H   0  0  0  0  0  0  0  0  0  0  0  0
   -5.6832   23.4282  -28.8584 H   0  0  0  0  0  0  0  0  0  0  0  0
   -3.9446   22.0864  -28.6922 H   0  0  0  0  0  0  0  0  0  0  0  0
   -2.0497   20.9873  -27.5119 H   0  0  0  0  0  0  0  0  0  0  0  0
    0.0483   22.2548  -27.0558 H   0  0  0  0  0  0  0  0  0  0  0  0
    0.2467   24.6355  -27.7684 H   0  0  0  0  0  0  0  0  0  0  0  0
   -8.7961   20.6950  -31.6572 H   0  0  0  0  0  0  0  0  0  0  0  0
  1  2  1  0
  2  3  1  0
  2  4  1  0
  4  5  2  0
  4  6  2  0
  4  7  1  0
  7  8  2  0
  8  9  1  0
  9 10  2  0
 10 11  1  0
 11 12  1  0
 12 13  1  0
 13 14  2  0
 13 15  1  0
 15 16  2  0
 16 17  1  0
 17 18  2  0
 18 19  1  0
 19 20  2  0
 20 21  1  0
 10 22  1  0
 22 23  2  0
 23  7  1  0
 20 15  1  0
  1 24  1  0
  1 25  1  0
  1 26  1  0
  3 27  1  0
  3 28  1  0
  3 29  1  0
  8 30  1  0
  9 31  1  0
 12 32  1  0
 12 33  1  0
 16 34  1  0
 17 35  1  0
 18 36  1  0
 19 37  1  0
 23 38  1  0
M  CHG  1  21  -1
M  END
>  <UniqueID>  (22) 
20

>  <SMILES>  (22) 
CN(C)S(=O)(=O)c1ccc(SCC(=O)c2ccccc2[O-])nc1

>  <Energy>  (22) 
37.5910053149636

>  <Genealogy>  (22) 
CN(C)S(=O)(=O)c1ccc(SCC(=O)c2ccccc2[O-])nc1 (protonated)
CN(C)S(=O)(=O)c1ccc(SCC(=O)c2ccccc2[O-])nc1 (3D coordinates assigned)
CN(C)S(=O)(=O)c1ccc(SCC(=O)c2ccccc2[O-])nc1 (optimized conformer: 37.5910053149636 kcal/mol)

>  <smiles>  (22) 
CN(C)S(=O)(=O)c1ccc(SCC(=O)c2ccccc2O)nc1

>  <score_type>  (22) 
oracle

>  <origin>  (22) 
adgpu

>  <m_score__min__energy>  (22) 
-12.119999999999999

>  <m_primary>  (22) 
energy

$$$$
22:0
     RDKit          3D

 62 65  0  0  0  0  0  0  0  0999 V2000
   -3.3470   22.2890  -28.8400 O   0  0  0  0  0  0  0  0  0  0  0  0
   -2.9920   23.1380  -29.7010 C   0  0  0  0  0  0  0  0  0  0  0  0
   -3.0240   24.5910  -29.3660 C   0  0  0  0  0  0  0  0  0  0  0  0
   -3.7040   25.2870  -30.4460 N   0  0  0  0  0  0  0  0  0  0  0  0
   -5.1220   25.3320  -30.6140 C   0  0  0  0  0  0  0  0  0  0  0  0
   -5.7390   26.4250  -30.4850 O   0  0  0  0  0  0  0  0  0  0  0  0
   -5.8520   24.0970  -30.9730 C   0  0  0  0  0  0  0  0  0  0  0  0
   -6.8410   23.5850  -30.1140 C   0  0  0  0  0  0  0  0  0  0  0  0
   -7.5000   22.3940  -30.4250 C   0  0  0  0  0  0  0  0  0  0  0  0
   -7.1640   21.6810  -31.5810 C   0  0  0  0  0  0  0  0  0  0  0  0
   -7.9270   20.1260  -31.9090 S   0  0  0  0  0  0  0  0  0  0  0  0
   -9.0290   19.9090  -30.9070 O   0  0  0  0  0  0  0  0  0  0  0  0
   -8.5500   20.1570  -33.2770 O   0  0  0  0  0  0  0  0  0  0  0  0
   -6.7940   18.7930  -31.8200 N   0  0  0  0  0  0  0  0  0  0  0  0
   -6.8910   17.8890  -32.9800 C   0  0  0  0  0  0  0  0  0  0  0  0
   -6.1120   18.4010  -34.2140 C   0  0  0  0  0  0  0  0  0  0  0  0
   -5.2890   19.5150  -33.9340 O   0  0  0  0  0  0  0  0  0  0  0  0
   -4.5190   19.2650  -32.7830 C   0  0  0  0  0  0  0  0  0  0  0  0
   -5.4120   19.2300  -31.5310 C   0  0  0  0  0  0  0  0  0  0  0  0
   -6.1960   22.1970  -32.4540 C   0  0  0  0  0  0  0  0  0  0  0  0
   -5.5480   23.4000  -32.1550 C   0  0  0  0  0  0  0  0  0  0  0  0
   -2.6630   22.7140  -31.0260 N   0  0  0  0  0  0  0  0  0  0  0  0
   -1.7840   21.6130  -31.2810 C   0  0  0  0  0  0  0  0  0  0  0  0
   -1.6970   21.0820  -32.5720 C   0  0  0  0  0  0  0  0  0  0  0  0
   -0.8570   19.9950  -32.8280 C   0  0  0  0  0  0  0  0  0  0  0  0
   -0.1200   19.4150  -31.7910 C   0  0  0  0  0  0  0  0  0  0  0  0
   -0.2280   19.9140  -30.4850 C   0  0  0  0  0  0  0  0  0  0  0  0
    0.6260   19.1370  -29.1500 S   0  0  0  0  0  0  0  0  0  0  0  0
    0.6480   17.6500  -29.3780 O   0  0  0  0  0  0  0  0  0  0  0  0
    2.0460   19.6320  -29.1150 O   0  0  0  0  0  0  0  0  0  0  0  0
   -0.1450   19.5190  -27.6280 N   0  0  0  0  0  0  0  0  0  0  0  0
   -0.1810   20.9610  -27.3840 C   0  0  0  0  0  0  0  0  0  0  0  0
   -1.3730   21.2140  -26.4820 C   0  0  0  0  0  0  0  0  0  0  0  0
   -2.3160   20.0510  -26.7360 C   0  0  0  0  0  0  0  0  0  0  0  0
   -1.5420   19.0810  -27.6220 C   0  0  0  0  0  0  0  0  0  0  0  0
   -1.0580   21.0150  -30.2360 C   0  0  0  0  0  0  0  0  0  0  0  0
   -3.5680   24.7445  -28.4223 H   0  0  0  0  0  0  0  0  0  0  0  0
   -2.0012   24.9779  -29.2468 H   0  0  0  0  0  0  0  0  0  0  0  0
   -7.0970   24.1263  -29.1913 H   0  0  0  0  0  0  0  0  0  0  0  0
   -8.2876   22.0142  -29.7576 H   0  0  0  0  0  0  0  0  0  0  0  0
   -6.4868   16.9069  -32.6934 H   0  0  0  0  0  0  0  0  0  0  0  0
   -7.9524   17.8305  -33.2628 H   0  0  0  0  0  0  0  0  0  0  0  0
   -5.4780   17.5845  -34.5898 H   0  0  0  0  0  0  0  0  0  0  0  0
   -6.8558   18.7246  -34.9570 H   0  0  0  0  0  0  0  0  0  0  0  0
   -4.0107   18.2955  -32.8917 H   0  0  0  0  0  0  0  0  0  0  0  0
   -3.7799   20.0716  -32.6688 H   0  0  0  0  0  0  0  0  0  0  0  0
   -4.9690   18.5338  -30.8037 H   0  0  0  0  0  0  0  0  0  0  0  0
   -5.4666   20.2555  -31.1368 H   0  0  0  0  0  0  0  0  0  0  0  0
   -5.9452   21.6540  -33.3772 H   0  0  0  0  0  0  0  0  0  0  0  0
   -4.7959   23.8030  -32.8492 H   0  0  0  0  0  0  0  0  0  0  0  0
   -2.2909   21.5208  -33.3873 H   0  0  0  0  0  0  0  0  0  0  0  0
   -0.7753   19.5942  -33.8491 H   0  0  0  0  0  0  0  0  0  0  0  0
    0.5462   18.5651  -32.0002 H   0  0  0  0  0  0  0  0  0  0  0  0
    0.7461   21.2862  -26.8892 H   0  0  0  0  0  0  0  0  0  0  0  0
   -0.2681   21.5223  -28.3260 H   0  0  0  0  0  0  0  0  0  0  0  0
   -1.0614   21.2351  -25.4273 H   0  0  0  0  0  0  0  0  0  0  0  0
   -1.8490   22.1834  -26.6907 H   0  0  0  0  0  0  0  0  0  0  0  0
   -2.5931   19.5672  -25.7877 H   0  0  0  0  0  0  0  0  0  0  0  0
   -3.2502   20.3815  -27.2136 H   0  0  0  0  0  0  0  0  0  0  0  0
   -1.6152   18.0608  -27.2172 H   0  0  0  0  0  0  0  0  0  0  0  0
   -1.9525   19.0725  -28.6425 H   0  0  0  0  0  0  0  0  0  0  0  0
   -1.1423   21.4147  -29.2147 H   0  0  0  0  0  0  0  0  0  0  0  0
  1  2  2  0
  2  3  1  0
  3  4  1  0
  4  5  1  0
  5  6  2  0
  5  7  1  0
  7  8  2  0
  8  9  1  0
  9 10  2  0
 10 11  1  0
 11 12  2  0
 11 13  2  0
 11 14  1  0
 14 15  1  0
 15 16  1  0
 16 17  1  0
 17 18  1  0
 18 19  1  0
 10 20  1  0
 20 21  2  0
  2 22  1  0
 22 23  1  0
 23 24  2  0
 24 25  1  0
 25 26  2  0
 26 27  1  0
 27 28  1  0
 28 29  2  0
 28 30  2  0
 28 31  1  0
 31 32  1  0
 32 33  1  0
 33 34  1  0
 34 35  1  0
 27 36  2  0
 21  7  1  0
 36 23  1  0
 19 14  1  0
 35 31  1  0
  3 37  1  0
  3 38  1  0
  8 39  1  0
  9 40  1  0
 15 41  1  0
 15 42  1  0
 16 43  1  0
 16 44  1  0
 18 45  1  0
 18 46  1  0
 19 47  1  0
 19 48  1  0
 20 49  1  0
 21 50  1  0
 24 51  1  0
 25 52  1  0
 26 53  1  0
 32 54  1  0
 32 55  1  0
 33 56  1  0
 33 57  1  0
 34 58  1  0
 34 59  1  0
 35 60  1  0
 35 61  1  0
 36 62  1  0
M  CHG  2   4  -1  22  -1
M  END
>  <UniqueID>  (23) 
21

>  <SMILES>  (23) 
O=C(C[N-]C(=O)c1ccc(S(=O)(=O)N2CCOCC2)cc1)[N-]c1cccc(S(=O)(=O)N2CCCC2)c1

>  <Energy>  (23) 
76.34711529819539

>  <Genealogy>  (23) 
O=C(C[N-]C(=O)c1ccc(S(=O)(=O)N2CCOCC2)cc1)[N-]c1cccc(S(=O)(=O)N2CCCC2)c1 (protonated)
O=C(C[N-]C(=O)c1ccc(S(=O)(=O)N2CCOCC2)cc1)[N-]c1cccc(S(=O)(=O)N2CCCC2)c1 (3D coordinates assigned)
O=C(C[N-]C(=O)c1ccc(S(=O)(=O)N2CCOCC2)cc1)[N-]c1cccc(S(=O)(=O)N2CCCC2)c1 (nonaromatic ring conformer: 76.34711529819539 kcal/mol)

>  <smiles>  (23) 
O=C(CNC(=O)c1ccc(S(=O)(=O)N2CCOCC2)cc1)Nc1cccc(S(=O)(=O)N2CCCC2)c1

>  <score_type>  (23) 
oracle

>  <origin>  (23) 
adgpu

>  <m_score__min__energy>  (23) 
-13.24

>  <m_primary>  (23) 
energy

$$$$
23:0
     RDKit          3D

 54 57  0  0  0  0  0  0  0  0999 V2000
   -6.1319   25.1732  -30.2331 H   0  0  0  0  0  0  0  0  0  0  0  0
   -5.6700   24.2800  -30.6790 C   0  0  0  0  0  0  0  0  0  0  0  0
   -4.2840   24.2260  -30.8440 C   0  0  0  0  0  0  0  0  0  0  0  0
   -3.4950   25.3000  -30.4530 O   0  0  0  0  0  0  0  0  0  0  0  0
   -3.6890   23.0920  -31.4050 C   0  0  0  0  0  0  0  0  0  0  0  0
   -2.5974   23.0544  -31.5355 H   0  0  0  0  0  0  0  0  0  0  0  0
   -4.4790   22.0000  -31.8030 C   0  0  0  0  0  0  0  0  0  0  0  0
   -3.8530   20.7990  -32.4110 C   0  0  0  0  0  0  0  0  0  0  0  0
   -2.5370   20.4630  -32.0730 C   0  0  0  0  0  0  0  0  0  0  0  0
   -1.9686   21.0989  -31.3784 H   0  0  0  0  0  0  0  0  0  0  0  0
   -1.9470   19.3250  -32.6150 C   0  0  0  0  0  0  0  0  0  0  0  0
   -0.6420   18.9450  -32.2830 C   0  0  0  0  0  0  0  0  0  0  0  0
   -0.0510   19.5562  -31.5851 H   0  0  0  0  0  0  0  0  0  0  0  0
   -0.1060   17.8200  -32.8240 N   0  0  0  0  0  0  0  0  0  0  0  0
   -0.8150   17.0490  -33.6880 C   0  0  0  0  0  0  0  0  0  0  0  0
   -0.2710   15.9780  -34.1850 N   0  0  0  0  0  0  0  0  0  0  0  0
   -0.9300   15.0720  -35.1250 C   0  0  0  0  0  0  0  0  0  0  0  0
   -1.5698   15.6569  -35.8022 H   0  0  0  0  0  0  0  0  0  0  0  0
   -0.1598   14.5345  -35.6976 H   0  0  0  0  0  0  0  0  0  0  0  0
   -1.7970   14.0430  -34.3720 C   0  0  0  0  0  0  0  0  0  0  0  0
   -2.6027   13.7040  -35.0397 H   0  0  0  0  0  0  0  0  0  0  0  0
   -1.1442   13.2099  -34.0725 H   0  0  0  0  0  0  0  0  0  0  0  0
   -2.4040   14.6070  -33.1410 N   0  0  0  0  0  0  0  0  0  0  0  0
   -1.9330   15.5230  -32.9460 H   0  0  0  0  0  0  0  0  0  0  0  0
   -2.1380   13.7240  -31.9740 C   0  0  0  0  0  0  0  0  0  0  0  0
   -1.2476   13.1134  -32.1844 H   0  0  0  0  0  0  0  0  0  0  0  0
   -1.9793   14.3605  -31.0910 H   0  0  0  0  0  0  0  0  0  0  0  0
   -3.3280   12.7890  -31.6850 C   0  0  0  0  0  0  0  0  0  0  0  0
   -3.4950   12.1558  -32.5688 H   0  0  0  0  0  0  0  0  0  0  0  0
   -3.0667   12.2020  -30.7922 H   0  0  0  0  0  0  0  0  0  0  0  0
   -4.5370   13.4780  -31.3910 O   0  0  0  0  0  0  0  0  0  0  0  0
   -4.6210   14.7630  -31.9910 C   0  0  0  0  0  0  0  0  0  0  0  0
   -5.6806   14.9919  -32.1780 H   0  0  0  0  0  0  0  0  0  0  0  0
   -4.1579   15.4774  -31.2945 H   0  0  0  0  0  0  0  0  0  0  0  0
   -3.8570   14.8670  -33.3230 C   0  0  0  0  0  0  0  0  0  0  0  0
   -4.2664   14.1287  -34.0282 H   0  0  0  0  0  0  0  0  0  0  0  0
   -3.9783   15.8892  -33.7109 H   0  0  0  0  0  0  0  0  0  0  0  0
   -2.0870   17.4050  -34.0200 N   0  0  0  0  0  0  0  0  0  0  0  0
   -2.6740   18.5260  -33.5140 C   0  0  0  0  0  0  0  0  0  0  0  0
   -3.9520   18.8720  -33.8770 N   0  0  0  0  0  0  0  0  0  0  0  0
   -4.6890   18.0140  -34.8220 C   0  0  0  0  0  0  0  0  0  0  0  0
   -5.3056   17.2961  -34.2612 H   0  0  0  0  0  0  0  0  0  0  0  0
   -5.3370   18.6380  -35.4550 H   0  0  0  0  0  0  0  0  0  0  0  0
   -3.9744   17.4675  -35.4550 H   0  0  0  0  0  0  0  0  0  0  0  0
   -4.5520   19.9830  -33.3280 C   0  0  0  0  0  0  0  0  0  0  0  0
   -5.7320   20.2910  -33.6530 O   0  0  0  0  0  0  0  0  0  0  0  0
   -5.8740   22.0660  -31.6410 C   0  0  0  0  0  0  0  0  0  0  0  0
   -6.5009   21.2195  -31.9578 H   0  0  0  0  0  0  0  0  0  0  0  0
   -6.4750   23.2080  -31.0760 C   0  0  0  0  0  0  0  0  0  0  0  0
   -7.8630   23.3130  -30.8900 O   0  0  0  0  0  0  0  0  0  0  0  0
   -8.8080   22.3370  -31.3150 C   0  0  0  0  0  0  0  0  0  0  0  0
   -9.2668   21.8631  -30.4347 H   0  0  0  0  0  0  0  0  0  0  0  0
   -9.5890   22.8216  -31.9194 H   0  0  0  0  0  0  0  0  0  0  0  0
   -8.2985   21.5721  -31.9194 H   0  0  0  0  0  0  0  0  0  0  0  0
  1  2  1  0
  2  3  2  0
  3  4  1  0
  3  5  1  0
  5  6  1  0
  5  7  2  0
  7  8  1  0
  8  9  2  0
  9 10  1  0
  9 11  1  0
 11 12  1  0
 12 13  1  0
 12 14  2  0
 14 15  1  0
 15 16  2  0
 16 17  1  0
 17 18  1  0
 17 19  1  0
 17 20  1  0
 20 21  1  0
 20 22  1  0
 20 23  1  0
 23 24  1  0
 23 25  1  0
 25 26  1  0
 25 27  1  0
 25 28  1  0
 28 29  1  0
 28 30  1  0
 28 31  1  0
 31 32  1  0
 32 33  1  0
 32 34  1  0
 32 35  1  0
 35 36  1  0
 35 37  1  0
 15 38  1  0
 38 39  1  0
 39 40  1  0
 40 41  1  0
 41 42  1  0
 41 43  1  0
 41 44  1  0
 40 45  1  0
 45 46  2  0
  7 47  1  0
 47 48  1  0
 47 49  2  0
 49 50  1  0
 50 51  1  0
 51 52  1  0
 51 53  1  0
 51 54  1  0
 49  2  1  0
 45  8  1  0
 39 11  2  0
 35 23  1  0
M  CHG  3   4  -1  23   1  38  -1
M  END
>  <UniqueID>  (24) 
22

>  <SMILES>  (24) 
COc1cc([O-])cc(-c2cc3cn/c(=N/CC[NH+]4CCOCC4)[n-]c3n(C)c2=O)c1

>  <Energy>  (24) 
83.81313240093239

>  <Genealogy>  (24) 
COc1cc([O-])cc(-c2cc3cnc(=NCC[NH+]4CCOCC4)[n-]c3n(C)c2=O)c1 (protonated)
COc1cc([O-])cc(-c2cc3cn/c(=N/CC[NH+]4CCOCC4)[n-]c3n(C)c2=O)c1 (cis-trans isomerization)
COc1cc([O-])cc(-c2cc3cn/c(=N/CC[NH+]4CCOCC4)[n-]c3n(C)c2=O)c1 (3D coordinates assigned)
COc1cc([O-])cc(-c2cc3cn/c(=N/CC[NH+]4CCOCC4)[n-]c3n(C)c2=O)c1 (nonaromatic ring conformer: 83.81313240093239 kcal/mol)

>  <smiles>  (24) 
COc1cc(O)cc(-c2cc3cnc(=NCCN4CCOCC4)[nH]c3n(C)c2=O)c1

>  <score_type>  (24) 
oracle

>  <origin>  (24) 
adgpu

>  <m_score__min__energy>  (24) 
-9.2799999999999994

>  <m_primary>  (24) 
energy

$$$$
24:0
     RDKit          3D

 47 50  0  0  0  0  0  0  0  0999 V2000
   -5.1900   16.5020  -34.2350 C   0  0  0  0  0  0  0  0  0  0  0  0
   -6.5110   16.8950  -33.8810 O   0  0  0  0  0  0  0  0  0  0  0  0
   -6.8480   18.1410  -33.3310 C   0  0  0  0  0  0  0  0  0  0  0  0
   -6.4010   19.3550  -33.8830 C   0  0  0  0  0  0  0  0  0  0  0  0
   -6.7640   20.5710  -33.2970 C   0  0  0  0  0  0  0  0  0  0  0  0
   -7.5660   20.5950  -32.1440 C   0  0  0  0  0  0  0  0  0  0  0  0
   -7.9680   21.9090  -31.5210 C   0  0  0  0  0  0  0  0  0  0  0  0
   -6.7610   22.7620  -31.2000 C   0  0  0  0  0  0  0  0  0  0  0  0
   -6.9030   24.1590  -31.2030 C   0  0  0  0  0  0  0  0  0  0  0  0
   -5.8140   24.9850  -30.9380 C   0  0  0  0  0  0  0  0  0  0  0  0
   -4.5590   24.4370  -30.6760 C   0  0  0  0  0  0  0  0  0  0  0  0
   -3.4880   25.2950  -30.4510 O   0  0  0  0  0  0  0  0  0  0  0  0
   -4.3850   23.0390  -30.6640 C   0  0  0  0  0  0  0  0  0  0  0  0
   -3.0540   22.4430  -30.3910 C   0  0  0  0  0  0  0  0  0  0  0  0
   -2.5840   21.5630  -31.2360 N   0  0  0  0  0  0  0  0  0  0  0  0
   -1.3420   20.8450  -31.1390 C   0  0  0  0  0  0  0  0  0  0  0  0
   -0.8710   20.1470  -32.2570 C   0  0  0  0  0  0  0  0  0  0  0  0
    0.3150   19.4100  -32.1810 C   0  0  0  0  0  0  0  0  0  0  0  0
    1.0320   19.3560  -30.9810 C   0  0  0  0  0  0  0  0  0  0  0  0
    0.5620   20.0370  -29.8560 C   0  0  0  0  0  0  0  0  0  0  0  0
   -0.6230   20.7800  -29.9330 C   0  0  0  0  0  0  0  0  0  0  0  0
   -1.2440   21.6280  -28.5420 S   0  0  0  0  0  0  0  0  0  0  0  0
   -2.0750   20.7070  -27.6950 O   0  0  0  0  0  0  0  0  0  0  0  0
   -0.1250   22.2150  -27.7290 O   0  0  0  0  0  0  0  0  0  0  0  0
   -2.2440   22.9330  -29.2110 C   0  0  0  0  0  0  0  0  0  0  0  0
   -5.4890   22.1960  -30.9270 C   0  0  0  0  0  0  0  0  0  0  0  0
   -5.2980   20.8110  -30.8960 O   0  0  0  0  0  0  0  0  0  0  0  0
   -8.0220   19.3810  -31.6050 C   0  0  0  0  0  0  0  0  0  0  0  0
   -7.6610   18.1660  -32.1920 C   0  0  0  0  0  0  0  0  0  0  0  0
   -4.6023   16.3272  -33.3217 H   0  0  0  0  0  0  0  0  0  0  0  0
   -5.2294   15.5767  -34.8285 H   0  0  0  0  0  0  0  0  0  0  0  0
   -4.7171   17.2984  -34.8285 H   0  0  0  0  0  0  0  0  0  0  0  0
   -5.7633   19.3475  -34.7793 H   0  0  0  0  0  0  0  0  0  0  0  0
   -6.4191   21.5160  -33.7420 H   0  0  0  0  0  0  0  0  0  0  0  0
   -8.6148   22.4548  -32.2237 H   0  0  0  0  0  0  0  0  0  0  0  0
   -8.5008   21.6974  -30.5822 H   0  0  0  0  0  0  0  0  0  0  0  0
   -7.8852   24.6056  -31.4170 H   0  0  0  0  0  0  0  0  0  0  0  0
   -5.9446   26.0772  -30.9353 H   0  0  0  0  0  0  0  0  0  0  0  0
   -1.4365   20.1783  -33.2000 H   0  0  0  0  0  0  0  0  0  0  0  0
    0.6847   18.8718  -33.0663 H   0  0  0  0  0  0  0  0  0  0  0  0
    1.9657   18.7773  -30.9236 H   0  0  0  0  0  0  0  0  0  0  0  0
    1.1218   19.9900  -28.9103 H   0  0  0  0  0  0  0  0  0  0  0  0
   -2.9286   23.2978  -28.4311 H   0  0  0  0  0  0  0  0  0  0  0  0
   -1.5822   23.7430  -29.5516 H   0  0  0  0  0  0  0  0  0  0  0  0
   -4.3980   20.3650  -30.9950 H   0  0  0  0  0  0  0  0  0  0  0  0
   -8.6678   19.3870  -30.7146 H   0  0  0  0  0  0  0  0  0  0  0  0
   -8.0184   17.2216  -31.7557 H   0  0  0  0  0  0  0  0  0  0  0  0
  1  2  1  0
  2  3  1  0
  3  4  2  0
  4  5  1  0
  5  6  2  0
  6  7  1  0
  7  8  1  0
  8  9  2  0
  9 10  1  0
 10 11  2  0
 11 12  1  0
 11 13  1  0
 13 14  1  0
 14 15  2  0
 15 16  1  0
 16 17  2  0
 17 18  1  0
 18 19  2  0
 19 20  1  0
 20 21  2  0
 21 22  1  0
 22 23  2  0
 22 24  2  0
 22 25  1  0
 13 26  2  0
 26 27  1  0
  6 28  1  0
 28 29  2  0
 29  3  1  0
 26  8  1  0
 25 14  1  0
 21 16  1  0
  1 30  1  0
  1 31  1  0
  1 32  1  0
  4 33  1  0
  5 34  1  0
  7 35  1  0
  7 36  1  0
  9 37  1  0
 10 38  1  0
 17 39  1  0
 18 40  1  0
 19 41  1  0
 20 42  1  0
 25 43  1  0
 25 44  1  0
 27 45  1  0
 28 46  1  0
 29 47  1  0
M  CHG  1  12  -1
M  END
>  <UniqueID>  (25) 
23

>  <SMILES>  (25) 
COc1ccc(Cc2ccc([O-])c(C3=Nc4ccccc4S(=O)(=O)C3)c2O)cc1

>  <Energy>  (25) 
61.16631241523558

>  <Genealogy>  (25) 
COc1ccc(Cc2ccc([O-])c(C3=Nc4ccccc4S(=O)(=O)C3)c2O)cc1 (protonated)
COc1ccc(Cc2ccc([O-])c(C3=Nc4ccccc4S(=O)(=O)C3)c2O)cc1 (3D coordinates assigned)
COc1ccc(Cc2ccc([O-])c(C3=Nc4ccccc4S(=O)(=O)C3)c2O)cc1 (nonaromatic ring conformer: 61.16631241523558 kcal/mol)

>  <smiles>  (25) 
COc1ccc(Cc2ccc(O)c(C3=Nc4ccccc4S(=O)(=O)C3)c2O)cc1

>  <score_type>  (25) 
oracle

>  <origin>  (25) 
adgpu

>  <m_score__min__energy>  (25) 
-11.41

>  <m_primary>  (25) 
energy

$$$$
25:0
     RDKit          3D

 46 49  0  0  0  0  0  0  0  0999 V2000
   -5.7840   24.9330  -29.0390 O   0  0  0  0  0  0  0  0  0  0  0  0
   -5.2440   24.8680  -30.4410 S   0  0  0  0  0  0  0  0  0  0  0  0
   -5.7570   26.0500  -31.2110 O   0  0  0  0  0  0  0  0  0  0  0  0
   -3.5120   24.9320  -30.3860 N   0  0  0  0  0  0  0  0  0  0  0  0
   -2.6750   24.1260  -29.5430 C   0  0  0  0  0  0  0  0  0  0  0  0
   -2.9460   22.7630  -29.3190 C   0  0  0  0  0  0  0  0  0  0  0  0
   -2.1210   21.9960  -28.4830 C   0  0  0  0  0  0  0  0  0  0  0  0
   -0.9920   22.5870  -27.8840 C   0  0  0  0  0  0  0  0  0  0  0  0
   -0.7270   23.9460  -28.0990 C   0  0  0  0  0  0  0  0  0  0  0  0
   -1.5520   24.7130  -28.9290 C   0  0  0  0  0  0  0  0  0  0  0  0
   -1.2370   26.0580  -29.1270 O   0  0  0  0  0  0  0  0  0  0  0  0
   -0.1210   21.7980  -26.9340 C   0  0  0  0  0  0  0  0  0  0  0  0
   -0.2290   20.3490  -27.1520 N   0  0  0  0  0  0  0  0  0  0  0  0
   -1.6320   19.9240  -27.1370 C   0  0  0  0  0  0  0  0  0  0  0  0
   -2.4020   20.5250  -28.3190 C   0  0  0  0  0  0  0  0  0  0  0  0
   -5.7620   23.3930  -31.2470 C   0  0  0  0  0  0  0  0  0  0  0  0
   -4.8720   22.6740  -32.0700 C   0  0  0  0  0  0  0  0  0  0  0  0
   -5.2930   21.5000  -32.7100 C   0  0  0  0  0  0  0  0  0  0  0  0
   -6.6040   21.0590  -32.5150 C   0  0  0  0  0  0  0  0  0  0  0  0
   -7.4720   21.7540  -31.7110 C   0  0  0  0  0  0  0  0  0  0  0  0
   -7.0760   22.9270  -31.0640 C   0  0  0  0  0  0  0  0  0  0  0  0
   -8.7970   21.1000  -31.6180 C   0  0  0  0  0  0  0  0  0  0  0  0
   -8.6910   19.9040  -32.5960 C   0  0  2  0  0  0  0  0  0  0  0  0
   -9.1480   18.5860  -31.9560 C   0  0  0  0  0  0  0  0  0  0  0  0
   -8.0620   17.7840  -31.6460 F   0  0  0  0  0  0  0  0  0  0  0  0
   -7.2230   19.8420  -33.0870 C   0  0  0  0  0  0  0  0  0  0  0  0
   -3.8144   22.2941  -29.8049 H   0  0  0  0  0  0  0  0  0  0  0  0
    0.1393   24.4152  -27.6098 H   0  0  0  0  0  0  0  0  0  0  0  0
   -0.6320   26.5740  -28.5000 H   0  0  0  0  0  0  0  0  0  0  0  0
    0.9264   22.1007  -27.0801 H   0  0  0  0  0  0  0  0  0  0  0  0
   -0.4613   22.0107  -25.9098 H   0  0  0  0  0  0  0  0  0  0  0  0
    0.1930   20.1140  -28.0830 H   0  0  0  0  0  0  0  0  0  0  0  0
   -1.6759   18.8267  -27.1999 H   0  0  0  0  0  0  0  0  0  0  0  0
   -2.0943   20.2758  -26.2029 H   0  0  0  0  0  0  0  0  0  0  0  0
   -2.1053   20.0015  -29.2398 H   0  0  0  0  0  0  0  0  0  0  0  0
   -3.4774   20.4032  -28.1225 H   0  0  0  0  0  0  0  0  0  0  0  0
   -3.8427   23.0356  -32.2107 H   0  0  0  0  0  0  0  0  0  0  0  0
   -4.6029   20.9358  -33.3546 H   0  0  0  0  0  0  0  0  0  0  0  0
   -7.7802   23.4768  -30.4222 H   0  0  0  0  0  0  0  0  0  0  0  0
   -8.9903   20.7514  -30.5928 H   0  0  0  0  0  0  0  0  0  0  0  0
   -9.6245   21.7803  -31.8677 H   0  0  0  0  0  0  0  0  0  0  0  0
   -9.3692   20.0515  -33.4494 H   0  0  0  0  0  0  0  0  0  0  0  0
   -9.7065   18.8077  -31.0346 H   0  0  0  0  0  0  0  0  0  0  0  0
   -9.7870   18.0502  -32.6733 H   0  0  0  0  0  0  0  0  0  0  0  0
   -6.7233   18.9362  -32.7131 H   0  0  0  0  0  0  0  0  0  0  0  0
   -7.1440   19.8014  -34.1834 H   0  0  0  0  0  0  0  0  0  0  0  0
  1  2  2  0
  2  3  2  0
  2  4  1  0
  4  5  1  0
  5  6  2  0
  6  7  1  0
  7  8  2  0
  8  9  1  0
  9 10  2  0
 10 11  1  0
  8 12  1  0
 12 13  1  0
 13 14  1  0
 14 15  1  0
  2 16  1  0
 16 17  2  0
 17 18  1  0
 18 19  2  0
 19 20  1  0
 20 21  2  0
 20 22  1  0
 22 23  1  0
 23 24  1  0
 24 25  1  0
 23 26  1  0
 10  5  1  0
 21 16  1  0
 15  7  1  0
 26 19  1  0
  6 27  1  0
  9 28  1  0
 11 29  1  0
 12 30  1  0
 12 31  1  0
 13 32  1  0
 14 33  1  0
 14 34  1  0
 15 35  1  0
 15 36  1  0
 17 37  1  0
 18 38  1  0
 21 39  1  0
 22 40  1  0
 22 41  1  0
 23 42  1  6
 24 43  1  0
 24 44  1  0
 26 45  1  0
 26 46  1  0
M  CHG  1   4  -1
M  END
>  <UniqueID>  (26) 
24

>  <SMILES>  (26) 
O=S(=O)([N-]c1cc2c(cc1O)CNCC2)c1ccc2c(c1)C[C@H](CF)C2

>  <Energy>  (26) 
60.51920625678942

>  <Genealogy>  (26) 
O=S(=O)([N-]c1cc2c(cc1O)CNCC2)c1ccc2c(c1)CC(CF)C2 (protonated)
O=S(=O)([N-]c1cc2c(cc1O)CNCC2)c1ccc2c(c1)C[C@H](CF)C2 (chirality)
O=S(=O)([N-]c1cc2c(cc1O)CNCC2)c1ccc2c(c1)C[C@H](CF)C2 (3D coordinates assigned)
O=S(=O)([N-]c1cc2c(cc1O)CNCC2)c1ccc2c(c1)C[C@H](CF)C2 (nonaromatic ring conformer: 60.51920625678942 kcal/mol)

>  <smiles>  (26) 
O=S(=O)(Nc1cc2c(cc1O)CNCC2)c1ccc2c(c1)CC(CF)C2

>  <score_type>  (26) 
oracle

>  <origin>  (26) 
adgpu

>  <m_score__min__energy>  (26) 
-12.58

>  <m_primary>  (26) 
energy

$$$$
26:0
     RDKit          3D

 62 66  0  0  0  0  0  0  0  0999 V2000
   -9.1070   19.1870  -31.3300 C   0  0  0  0  0  0  0  0  0  0  0  0
   -7.7570   19.4770  -31.9090 C   0  0  0  0  0  0  0  0  0  0  0  0
   -6.9580   18.5250  -32.5370 C   0  0  0  0  0  0  0  0  0  0  0  0
   -5.8230   19.2020  -32.9220 C   0  0  0  0  0  0  0  0  0  0  0  0
   -4.6890   18.7460  -33.5850 C   0  0  0  0  0  0  0  0  0  0  0  0
   -3.6700   19.6730  -33.8580 C   0  0  0  0  0  0  0  0  0  0  0  0
   -3.8080   21.0210  -33.4670 C   0  0  0  0  0  0  0  0  0  0  0  0
   -4.9660   21.4540  -32.7980 C   0  0  0  0  0  0  0  0  0  0  0  0
   -5.9620   20.5090  -32.5310 C   0  0  0  0  0  0  0  0  0  0  0  0
   -7.1420   20.6890  -31.8980 N   0  0  0  0  0  0  0  0  0  0  0  0
   -7.7500   22.1870  -31.2480 S   0  0  0  0  0  0  0  0  0  0  0  0
   -8.4680   22.9780  -32.3070 O   0  0  0  0  0  0  0  0  0  0  0  0
   -8.7330   21.8870  -30.1540 O   0  0  0  0  0  0  0  0  0  0  0  0
   -6.4010   23.1330  -30.6270 C   0  0  0  0  0  0  0  0  0  0  0  0
   -6.0160   24.3110  -31.2760 C   0  0  0  0  0  0  0  0  0  0  0  0
   -4.8960   25.0200  -30.8370 C   0  0  0  0  0  0  0  0  0  0  0  0
   -4.1460   24.5590  -29.7500 C   0  0  0  0  0  0  0  0  0  0  0  0
   -3.0250   25.2860  -29.3490 O   0  0  0  0  0  0  0  0  0  0  0  0
   -4.5310   23.3820  -29.0820 C   0  0  0  0  0  0  0  0  0  0  0  0
   -3.7180   22.8710  -28.0130 N   0  0  0  0  0  0  0  0  0  0  0  0
   -2.7940   21.7820  -28.1250 C   0  0  0  0  0  0  0  0  0  0  0  0
   -2.6070   21.0370  -27.1250 O   0  0  0  0  0  0  0  0  0  0  0  0
   -2.1050   21.4800  -29.3980 C   0  0  0  0  0  0  0  0  0  0  0  0
   -0.9920   22.2340  -29.8000 C   0  0  0  0  0  0  0  0  0  0  0  0
   -0.3460   21.9530  -31.0080 C   0  0  0  0  0  0  0  0  0  0  0  0
   -0.7890   20.8950  -31.8140 C   0  0  0  0  0  0  0  0  0  0  0  0
    0.0180   20.5340  -33.3400 S   0  0  0  0  0  0  0  0  0  0  0  0
    0.9590   21.6580  -33.6720 O   0  0  0  0  0  0  0  0  0  0  0  0
   -1.0110   20.4610  -34.4340 O   0  0  0  0  0  0  0  0  0  0  0  0
    0.9080   19.0250  -33.2880 N   0  0  0  0  0  0  0  0  0  0  0  0
    2.2050   19.1510  -32.5950 C   0  0  0  0  0  0  0  0  0  0  0  0
    2.1010   18.9840  -31.0620 C   0  0  0  0  0  0  0  0  0  0  0  0
    0.8040   18.6360  -30.6350 O   0  0  0  0  0  0  0  0  0  0  0  0
    0.3630   17.5100  -31.3580 C   0  0  0  0  0  0  0  0  0  0  0  0
    0.0810   17.8910  -32.8170 C   0  0  0  0  0  0  0  0  0  0  0  0
   -1.8790   20.1220  -31.3990 C   0  0  0  0  0  0  0  0  0  0  0  0
   -2.5460   20.4230  -30.2100 C   0  0  0  0  0  0  0  0  0  0  0  0
   -5.6580   22.6730  -29.5320 C   0  0  0  0  0  0  0  0  0  0  0  0
   -9.0455   19.2002  -30.2318 H   0  0  0  0  0  0  0  0  0  0  0  0
   -9.8223   19.9520  -31.6664 H   0  0  0  0  0  0  0  0  0  0  0  0
   -9.4450   18.1958  -31.6664 H   0  0  0  0  0  0  0  0  0  0  0  0
   -7.1852   17.4600  -32.6922 H   0  0  0  0  0  0  0  0  0  0  0  0
   -4.5931   17.6924  -33.8862 H   0  0  0  0  0  0  0  0  0  0  0  0
   -2.7587   19.3457  -34.3800 H   0  0  0  0  0  0  0  0  0  0  0  0
   -3.0038   21.7386  -33.6871 H   0  0  0  0  0  0  0  0  0  0  0  0
   -5.0853   22.5043  -32.4937 H   0  0  0  0  0  0  0  0  0  0  0  0
   -6.5970   24.6796  -32.1342 H   0  0  0  0  0  0  0  0  0  0  0  0
   -4.6014   25.9476  -31.3496 H   0  0  0  0  0  0  0  0  0  0  0  0
   -2.6020   25.1650  -28.4350 H   0  0  0  0  0  0  0  0  0  0  0  0
   -0.6254   23.0510  -29.1611 H   0  0  0  0  0  0  0  0  0  0  0  0
    0.5118   22.5636  -31.3265 H   0  0  0  0  0  0  0  0  0  0  0  0
    2.8848   18.3789  -32.9845 H   0  0  0  0  0  0  0  0  0  0  0  0
    2.5777   20.1681  -32.7862 H   0  0  0  0  0  0  0  0  0  0  0  0
    2.7981   18.1936  -30.7470 H   0  0  0  0  0  0  0  0  0  0  0  0
    2.3492   19.9541  -30.6067 H   0  0  0  0  0  0  0  0  0  0  0  0
    1.1412   16.7331  -31.3298 H   0  0  0  0  0  0  0  0  0  0  0  0
   -0.5636   17.1320  -30.9014 H   0  0  0  0  0  0  0  0  0  0  0  0
    0.2876   17.0181  -33.4536 H   0  0  0  0  0  0  0  0  0  0  0  0
   -0.9719   18.2033  -32.8783 H   0  0  0  0  0  0  0  0  0  0  0  0
   -2.2123   19.2723  -32.0130 H   0  0  0  0  0  0  0  0  0  0  0  0
   -3.4213   19.8291  -29.9080 H   0  0  0  0  0  0  0  0  0  0  0  0
   -5.9597   21.7477  -29.0193 H   0  0  0  0  0  0  0  0  0  0  0  0
  1  2  1  0
  2  3  2  0
  3  4  1  0
  4  5  2  0
  5  6  1  0
  6  7  2  0
  7  8  1  0
  8  9  2  0
  9 10  1  0
 10 11  1  0
 11 12  2  0
 11 13  2  0
 11 14  1  0
 14 15  2  0
 15 16  1  0
 16 17  2  0
 17 18  1  0
 17 19  1  0
 19 20  1  0
 20 21  1  0
 21 22  2  0
 21 23  1  0
 23 24  2  0
 24 25  1  0
 25 26  2  0
 26 27  1  0
 27 28  2  0
 27 29  2  0
 27 30  1  0
 30 31  1  0
 31 32  1  0
 32 33  1  0
 33 34  1  0
 34 35  1  0
 26 36  1  0
 36 37  2  0
 19 38  2  0
 10  2  1  0
 38 14  1  0
  9  4  1  0
 37 23  1  0
 35 30  1  0
  1 39  1  0
  1 40  1  0
  1 41  1  0
  3 42  1  0
  5 43  1  0
  6 44  1  0
  7 45  1  0
  8 46  1  0
 15 47  1  0
 16 48  1  0
 18 49  1  0
 24 50  1  0
 25 51  1  0
 31 52  1  0
 31 53  1  0
 32 54  1  0
 32 55  1  0
 34 56  1  0
 34 57  1  0
 35 58  1  0
 35 59  1  0
 36 60  1  0
 37 61  1  0
 38 62  1  0
M  CHG  1  20  -1
M  END
>  <UniqueID>  (27) 
25

>  <SMILES>  (27) 
Cc1cc2ccccc2n1S(=O)(=O)c1ccc(O)c([N-]C(=O)c2ccc(S(=O)(=O)N3CCOCC3)cc2)c1

>  <Energy>  (27) 
118.72687646091084

>  <Genealogy>  (27) 
Cc1cc2ccccc2n1S(=O)(=O)c1ccc(O)c([N-]C(=O)c2ccc(S(=O)(=O)N3CCOCC3)cc2)c1 (protonated)
Cc1cc2ccccc2n1S(=O)(=O)c1ccc(O)c([N-]C(=O)c2ccc(S(=O)(=O)N3CCOCC3)cc2)c1 (3D coordinates assigned)
Cc1cc2ccccc2n1S(=O)(=O)c1ccc(O)c([N-]C(=O)c2ccc(S(=O)(=O)N3CCOCC3)cc2)c1 (nonaromatic ring conformer: 118.72687646091084 kcal/mol)

>  <smiles>  (27) 
Cc1cc2ccccc2n1S(=O)(=O)c1ccc(O)c(NC(=O)c2ccc(S(=O)(=O)N3CCOCC3)cc2)c1

>  <score_type>  (27) 
oracle

>  <origin>  (27) 
adgpu

>  <m_score__min__energy>  (27) 
-12.529999999999999

>  <m_primary>  (27) 
energy

$$$$
27:0
     RDKit          3D

 38 40  0  0  0  0  0  0  0  0999 V2000
   -2.0460   25.6790  -29.9500 H   0  0  0  0  0  0  0  0  0  0  0  0
   -1.2560   25.9060  -29.3590 O   0  0  0  0  0  0  0  0  0  0  0  0
   -1.3550   25.8890  -27.9680 C   0  0  0  0  0  0  0  0  0  0  0  0
   -0.7380   26.8970  -27.2120 C   0  0  0  0  0  0  0  0  0  0  0  0
   -0.1380   27.6697  -27.7150 H   0  0  0  0  0  0  0  0  0  0  0  0
   -0.8830   26.9230  -25.8210 C   0  0  0  0  0  0  0  0  0  0  0  0
   -0.3917   27.7113  -25.2318 H   0  0  0  0  0  0  0  0  0  0  0  0
   -1.6510   25.9490  -25.1800 C   0  0  0  0  0  0  0  0  0  0  0  0
   -1.7747   25.9778  -24.0874 H   0  0  0  0  0  0  0  0  0  0  0  0
   -2.2630   24.9370  -25.9260 C   0  0  0  0  0  0  0  0  0  0  0  0
   -2.8791   24.1805  -25.4180 H   0  0  0  0  0  0  0  0  0  0  0  0
   -2.0970   24.8800  -27.3150 C   0  0  0  0  0  0  0  0  0  0  0  0
   -2.7550   23.8340  -28.0450 N   0  0  0  0  0  0  0  0  0  0  0  0
   -3.4570   24.0020  -29.1260 C   0  0  0  0  0  0  0  0  0  0  0  0
   -3.5930   25.1820  -29.7700 N   0  0  0  0  0  0  0  0  0  0  0  0
   -4.3250   25.0870  -30.8780 N   0  0  0  0  0  0  0  0  0  0  0  0
   -4.7740   23.8330  -31.1140 C   0  0  0  0  0  0  0  0  0  0  0  0
   -5.5530   23.4520  -32.3300 C   0  0  0  0  0  0  0  0  0  0  0  0
   -5.0135   23.7875  -33.2280 H   0  0  0  0  0  0  0  0  0  0  0  0
   -6.5429   23.9300  -32.2887 H   0  0  0  0  0  0  0  0  0  0  0  0
   -5.7280   21.9590  -32.3830 C   0  0  0  0  0  0  0  0  0  0  0  0
   -4.6480   21.1340  -32.7340 C   0  0  0  0  0  0  0  0  0  0  0  0
   -3.6809   21.5848  -33.0016 H   0  0  0  0  0  0  0  0  0  0  0  0
   -4.7930   19.7390  -32.7460 C   0  0  0  0  0  0  0  0  0  0  0  0
   -3.6210   18.8630  -33.0780 C   0  0  0  0  0  0  0  0  0  0  0  0
   -3.1508   18.5115  -32.1477 H   0  0  0  0  0  0  0  0  0  0  0  0
   -3.9642   17.9982  -33.6648 H   0  0  0  0  0  0  0  0  0  0  0  0
   -2.8888   19.4370  -33.6648 H   0  0  0  0  0  0  0  0  0  0  0  0
   -6.0180   19.1690  -32.3720 C   0  0  0  0  0  0  0  0  0  0  0  0
   -6.1271   18.0746  -32.3515 H   0  0  0  0  0  0  0  0  0  0  0  0
   -7.1050   19.9830  -32.0240 C   0  0  0  0  0  0  0  0  0  0  0  0
   -8.4010   19.3670  -31.5850 C   0  0  0  0  0  0  0  0  0  0  0  0
   -8.4436   19.3467  -30.4860 H   0  0  0  0  0  0  0  0  0  0  0  0
   -9.2402   19.9625  -31.9736 H   0  0  0  0  0  0  0  0  0  0  0  0
   -8.4691   18.3402  -31.9736 H   0  0  0  0  0  0  0  0  0  0  0  0
   -6.9500   21.3770  -32.0140 C   0  0  0  0  0  0  0  0  0  0  0  0
   -7.7922   22.0182  -31.7148 H   0  0  0  0  0  0  0  0  0  0  0  0
   -4.2380   22.7520  -29.9350 S   0  0  0  0  0  0  0  0  0  0  0  0
  1  2  1  0
  2  3  1  0
  3  4  2  0
  4  5  1  0
  4  6  1  0
  6  7  1  0
  6  8  2  0
  8  9  1  0
  8 10  1  0
 10 11  1  0
 10 12  2  0
 12 13  1  0
 13 14  2  0
 14 15  1  0
 15 16  1  0
 16 17  2  0
 17 18  1  0
 18 19  1  0
 18 20  1  0
 18 21  1  0
 21 22  2  0
 22 23  1  0
 22 24  1  0
 24 25  1  0
 25 26  1  0
 25 27  1  0
 25 28  1  0
 24 29  2  0
 29 30  1  0
 29 31  1  0
 31 32  1  0
 32 33  1  0
 32 34  1  0
 32 35  1  0
 31 36  2  0
 36 37  1  0
 17 38  1  0
 12  3  1  0
 38 14  1  0
 36 21  1  0
M  CHG  1  15  -1
M  END
>  <UniqueID>  (28) 
26

>  <SMILES>  (28) 
Cc1cc(C)cc(Cc2n[n-]/c(=N\c3ccccc3O)s2)c1

>  <Energy>  (28) 
77.82698343790818

>  <Genealogy>  (28) 
Cc1cc(C)cc(Cc2n[n-]c(=Nc3ccccc3O)s2)c1 (protonated)
Cc1cc(C)cc(Cc2n[n-]/c(=N\c3ccccc3O)s2)c1 (cis-trans isomerization)
Cc1cc(C)cc(Cc2n[n-]/c(=N\c3ccccc3O)s2)c1 (3D coordinates assigned)
Cc1cc(C)cc(Cc2n[n-]/c(=N\c3ccccc3O)s2)c1 (optimized conformer: 77.82698343790818 kcal/mol)

>  <smiles>  (28) 
Cc1cc(C)cc(Cc2n[nH]c(=Nc3ccccc3O)s2)c1

>  <score_type>  (28) 
oracle

>  <origin>  (28) 
adgpu

>  <m_score__min__energy>  (28) 
-10.91

>  <m_primary>  (28) 
energy

$$$$
28:0
     RDKit          3D

 58 60  0  0  0  0  0  0  0  0999 V2000
   -5.0100   15.2460  -33.1040 C   0  0  0  0  0  0  0  0  0  0  0  0
   -6.3260   15.5300  -33.8430 C   0  0  0  0  0  0  0  0  0  0  0  0
   -6.7180   16.9570  -33.8550 N   0  0  0  0  0  0  0  0  0  0  0  0
   -7.2270   17.4650  -32.5590 C   0  0  0  0  0  0  0  0  0  0  0  0
   -6.2910   18.5160  -31.9460 C   0  0  0  0  0  0  0  0  0  0  0  0
   -6.1090   19.6700  -32.8520 N   0  0  0  0  0  0  0  0  0  0  0  0
   -4.6720   20.5580  -32.4000 S   0  0  0  0  0  0  0  0  0  0  0  0
   -3.7890   20.7340  -33.6050 O   0  0  0  0  0  0  0  0  0  0  0  0
   -3.9060   19.7990  -31.3520 O   0  0  0  0  0  0  0  0  0  0  0  0
   -5.1110   22.1470  -31.7790 C   0  0  0  0  0  0  0  0  0  0  0  0
   -6.4490   22.5620  -31.7920 C   0  0  0  0  0  0  0  0  0  0  0  0
   -6.8040   23.8080  -31.2720 C   0  0  0  0  0  0  0  0  0  0  0  0
   -5.8230   24.6490  -30.7390 C   0  0  0  0  0  0  0  0  0  0  0  0
   -4.4800   24.2560  -30.7390 C   0  0  0  0  0  0  0  0  0  0  0  0
   -3.4970   25.1420  -30.1890 N   0  0  0  0  0  0  0  0  0  0  0  0
   -2.7100   24.9270  -29.0070 C   0  0  0  0  0  0  0  0  0  0  0  0
   -1.5170   25.3280  -28.9960 O   0  0  0  0  0  0  0  0  0  0  0  0
   -3.2420   24.2100  -27.7920 C   0  0  0  0  0  0  0  0  0  0  0  0
   -2.2300   23.4390  -27.1420 O   0  0  0  0  0  0  0  0  0  0  0  0
   -1.6670   22.2510  -27.6340 C   0  0  0  0  0  0  0  0  0  0  0  0
   -0.8130   22.2240  -28.7500 C   0  0  0  0  0  0  0  0  0  0  0  0
   -0.2930   21.0140  -29.2080 C   0  0  0  0  0  0  0  0  0  0  0  0
   -0.6120   19.8070  -28.5640 C   0  0  0  0  0  0  0  0  0  0  0  0
   -0.0330   18.5160  -29.0830 C   0  0  0  0  0  0  0  0  0  0  0  0
   -1.4700   19.8280  -27.4410 C   0  0  0  0  0  0  0  0  0  0  0  0
   -1.8460   18.5590  -26.7210 C   0  0  0  0  0  0  0  0  0  0  0  0
   -1.9840   21.0540  -26.9870 C   0  0  0  0  0  0  0  0  0  0  0  0
   -4.1300   22.9900  -31.2370 C   0  0  0  0  0  0  0  0  0  0  0  0
   -6.0780   19.3100  -34.2900 C   0  0  0  0  0  0  0  0  0  0  0  0
   -5.7300   17.8320  -34.5200 C   0  0  0  0  0  0  0  0  0  0  0  0
   -5.1836   15.2835  -32.0184 H   0  0  0  0  0  0  0  0  0  0  0  0
   -4.6414   14.2476  -33.3821 H   0  0  0  0  0  0  0  0  0  0  0  0
   -4.2624   16.0035  -33.3821 H   0  0  0  0  0  0  0  0  0  0  0  0
   -6.2166   15.1933  -34.8845 H   0  0  0  0  0  0  0  0  0  0  0  0
   -7.1162   14.9892  -33.3016 H   0  0  0  0  0  0  0  0  0  0  0  0
   -8.2155   17.9201  -32.7194 H   0  0  0  0  0  0  0  0  0  0  0  0
   -7.2882   16.6164  -31.8617 H   0  0  0  0  0  0  0  0  0  0  0  0
   -6.7222   18.8698  -30.9979 H   0  0  0  0  0  0  0  0  0  0  0  0
   -5.3091   18.0494  -31.7781 H   0  0  0  0  0  0  0  0  0  0  0  0
   -7.2228   21.9036  -32.2135 H   0  0  0  0  0  0  0  0  0  0  0  0
   -7.8563   24.1281  -31.2817 H   0  0  0  0  0  0  0  0  0  0  0  0
   -6.1080   25.6243  -30.3176 H   0  0  0  0  0  0  0  0  0  0  0  0
   -3.6324   24.9544  -27.0825 H   0  0  0  0  0  0  0  0  0  0  0  0
   -4.0346   23.5224  -28.1221 H   0  0  0  0  0  0  0  0  0  0  0  0
   -0.5538   23.1612  -29.2642 H   0  0  0  0  0  0  0  0  0  0  0  0
    0.3740   21.0045  -30.0827 H   0  0  0  0  0  0  0  0  0  0  0  0
    0.2540   17.8760  -28.2356 H   0  0  0  0  0  0  0  0  0  0  0  0
   -0.7847   17.9973  -29.6961 H   0  0  0  0  0  0  0  0  0  0  0  0
    0.8543   18.7324  -29.6961 H   0  0  0  0  0  0  0  0  0  0  0  0
   -1.7967   18.7254  -25.6348 H   0  0  0  0  0  0  0  0  0  0  0  0
   -2.8690   18.2677  -27.0013 H   0  0  0  0  0  0  0  0  0  0  0  0
   -1.1468   17.7574  -27.0013 H   0  0  0  0  0  0  0  0  0  0  0  0
   -2.6461   21.0718  -26.1088 H   0  0  0  0  0  0  0  0  0  0  0  0
   -3.0818   22.6584  -31.2017 H   0  0  0  0  0  0  0  0  0  0  0  0
   -7.0681   19.5109  -34.7252 H   0  0  0  0  0  0  0  0  0  0  0  0
   -5.2946   19.9158  -34.7689 H   0  0  0  0  0  0  0  0  0  0  0  0
   -5.7315   17.6238  -35.6001 H   0  0  0  0  0  0  0  0  0  0  0  0
   -4.7351   17.6311  -34.0959 H   0  0  0  0  0  0  0  0  0  0  0  0
  1  2  1  0
  2  3  1  0
  3  4  1  0
  4  5  1  0
  5  6  1  0
  6  7  1  0
  7  8  2  0
  7  9  2  0
  7 10  1  0
 10 11  2  0
 11 12  1  0
 12 13  2  0
 13 14  1  0
 14 15  1  0
 15 16  1  0
 16 17  2  0
 16 18  1  0
 18 19  1  0
 19 20  1  0
 20 21  2  0
 21 22  1  0
 22 23  2  0
 23 24  1  0
 23 25  1  0
 25 26  1  0
 25 27  2  0
 14 28  2  0
  6 29  1  0
 29 30  1  0
 30  3  1  0
 28 10  1  0
 27 20  1  0
  1 31  1  0
  1 32  1  0
  1 33  1  0
  2 34  1  0
  2 35  1  0
  4 36  1  0
  4 37  1  0
  5 38  1  0
  5 39  1  0
 11 40  1  0
 12 41  1  0
 13 42  1  0
 18 43  1  0
 18 44  1  0
 21 45  1  0
 22 46  1  0
 24 47  1  0
 24 48  1  0
 24 49  1  0
 26 50  1  0
 26 51  1  0
 26 52  1  0
 27 53  1  0
 28 54  1  0
 29 55  1  0
 29 56  1  0
 30 57  1  0
 30 58  1  0
M  CHG  1  15  -1
M  END
>  <UniqueID>  (29) 
27

>  <SMILES>  (29) 
CCN1CCN(S(=O)(=O)c2cccc([N-]C(=O)COc3ccc(C)c(C)c3)c2)CC1

>  <Energy>  (29) 
73.11157257764526

>  <Genealogy>  (29) 
CCN1CCN(S(=O)(=O)c2cccc([N-]C(=O)COc3ccc(C)c(C)c3)c2)CC1 (protonated)
CCN1CCN(S(=O)(=O)c2cccc([N-]C(=O)COc3ccc(C)c(C)c3)c2)CC1 (3D coordinates assigned)
CCN1CCN(S(=O)(=O)c2cccc([N-]C(=O)COc3ccc(C)c(C)c3)c2)CC1 (nonaromatic ring conformer: 73.11157257764526 kcal/mol)

>  <smiles>  (29) 
CCN1CCN(S(=O)(=O)c2cccc(NC(=O)COc3ccc(C)c(C)c3)c2)CC1

>  <score_type>  (29) 
oracle

>  <origin>  (29) 
adgpu

>  <m_score__min__energy>  (29) 
-11.41

>  <m_primary>  (29) 
energy

$$$$
29:0
     RDKit          3D

 56 59  0  0  0  0  0  0  0  0999 V2000
   -6.8840   14.6300  -34.2250 C   0  0  0  0  0  0  0  0  0  0  0  0
   -6.6670   16.0140  -34.4780 O   0  0  0  0  0  0  0  0  0  0  0  0
   -5.4550   16.6860  -34.2470 C   0  0  0  0  0  0  0  0  0  0  0  0
   -4.2830   16.3710  -34.9610 C   0  0  0  0  0  0  0  0  0  0  0  0
   -3.1010   17.0760  -34.7290 C   0  0  0  0  0  0  0  0  0  0  0  0
   -3.0640   18.1020  -33.7750 C   0  0  0  0  0  0  0  0  0  0  0  0
   -1.8160   18.9180  -33.5750 C   0  0  0  0  0  0  0  0  0  0  0  0
   -1.9390   19.7260  -32.3660 N   0  0  0  0  0  0  0  0  0  0  0  0
   -2.7000   20.9370  -32.2980 C   0  0  0  0  0  0  0  0  0  0  0  0
   -3.4110   21.2920  -33.2780 O   0  0  0  0  0  0  0  0  0  0  0  0
   -2.6080   21.8070  -31.1090 C   0  0  0  0  0  0  0  0  0  0  0  0
   -3.1090   23.1170  -31.1950 C   0  0  0  0  0  0  0  0  0  0  0  0
   -2.9970   24.0010  -30.1210 C   0  0  0  0  0  0  0  0  0  0  0  0
   -3.4960   25.2940  -30.2520 O   0  0  0  0  0  0  0  0  0  0  0  0
   -2.3840   23.5820  -28.9300 C   0  0  0  0  0  0  0  0  0  0  0  0
   -2.2520   24.4420  -27.8270 C   0  0  0  0  0  0  0  0  0  0  0  0
   -1.6500   23.9840  -26.6540 C   0  0  0  0  0  0  0  0  0  0  0  0
   -1.1850   22.6690  -26.5890 C   0  0  0  0  0  0  0  0  0  0  0  0
   -1.3180   21.8450  -27.6600 N   0  0  0  0  0  0  0  0  0  0  0  0
   -1.8950   22.2600  -28.8230 C   0  0  0  0  0  0  0  0  0  0  0  0
   -2.0200   21.3680  -29.8990 C   0  0  0  0  0  0  0  0  0  0  0  0
   -1.5850   20.0510  -29.7200 O   0  0  0  0  0  0  0  0  0  0  0  0
   -4.2250   18.4130  -33.0540 C   0  0  0  0  0  0  0  0  0  0  0  0
   -5.4160   17.7080  -33.2800 C   0  0  0  0  0  0  0  0  0  0  0  0
   -6.8820   18.1620  -32.4030 S   0  0  0  0  0  0  0  0  0  0  0  0
   -6.6260   18.1330  -30.9210 O   0  0  0  0  0  0  0  0  0  0  0  0
   -7.9670   17.1710  -32.7200 O   0  0  0  0  0  0  0  0  0  0  0  0
   -7.3830   19.7660  -32.8850 N   0  0  0  0  0  0  0  0  0  0  0  0
   -6.4500   20.7690  -32.3240 C   0  0  0  0  0  0  0  0  0  0  0  0
   -7.0620   22.1720  -32.3350 C   0  0  0  0  0  0  0  0  0  0  0  0
   -8.3230   22.2320  -31.4530 C   0  0  0  0  0  0  0  0  0  0  0  0
   -9.0070   20.8620  -31.3010 C   0  0  0  0  0  0  0  0  0  0  0  0
   -8.8120   19.9990  -32.5560 C   0  0  0  0  0  0  0  0  0  0  0  0
   -6.9113   14.4556  -33.1393 H   0  0  0  0  0  0  0  0  0  0  0  0
   -7.8415   14.3216  -34.6701 H   0  0  0  0  0  0  0  0  0  0  0  0
   -6.0669   14.0434  -34.6701 H   0  0  0  0  0  0  0  0  0  0  0  0
   -4.2991   15.5631  -35.7073 H   0  0  0  0  0  0  0  0  0  0  0  0
   -2.1936   16.8250  -35.2980 H   0  0  0  0  0  0  0  0  0  0  0  0
   -0.9517   18.2446  -33.4772 H   0  0  0  0  0  0  0  0  0  0  0  0
   -1.6745   19.5814  -34.4410 H   0  0  0  0  0  0  0  0  0  0  0  0
   -3.5968   23.4507  -32.1228 H   0  0  0  0  0  0  0  0  0  0  0  0
   -2.6229   25.4758  -27.8878 H   0  0  0  0  0  0  0  0  0  0  0  0
   -1.5428   24.6535  -25.7878 H   0  0  0  0  0  0  0  0  0  0  0  0
   -0.7099   22.2998  -25.6682 H   0  0  0  0  0  0  0  0  0  0  0  0
   -1.4820   19.3950  -30.4820 H   0  0  0  0  0  0  0  0  0  0  0  0
   -4.2017   19.2174  -32.3041 H   0  0  0  0  0  0  0  0  0  0  0  0
   -6.2089   20.4923  -31.2870 H   0  0  0  0  0  0  0  0  0  0  0  0
   -5.5431   20.7830  -32.9464 H   0  0  0  0  0  0  0  0  0  0  0  0
   -6.3216   22.8903  -31.9531 H   0  0  0  0  0  0  0  0  0  0  0  0
   -7.3451   22.4223  -33.3680 H   0  0  0  0  0  0  0  0  0  0  0  0
   -8.0373   22.5954  -30.4548 H   0  0  0  0  0  0  0  0  0  0  0  0
   -9.0391   22.9084  -31.9426 H   0  0  0  0  0  0  0  0  0  0  0  0
   -8.5736   20.3391  -30.4357 H   0  0  0  0  0  0  0  0  0  0  0  0
  -10.0850   21.0262  -31.1565 H   0  0  0  0  0  0  0  0  0  0  0  0
   -9.2966   19.0255  -32.3904 H   0  0  0  0  0  0  0  0  0  0  0  0
   -9.2593   20.5426  -33.4012 H   0  0  0  0  0  0  0  0  0  0  0  0
  1  2  1  0
  2  3  1  0
  3  4  2  0
  4  5  1  0
  5  6  2  0
  6  7  1  0
  7  8  1  0
  8  9  1  0
  9 10  2  0
  9 11  1  0
 11 12  2  0
 12 13  1  0
 13 14  1  0
 13 15  2  0
 15 16  1  0
 16 17  2  0
 17 18  1  0
 18 19  2  0
 19 20  1  0
 20 21  2  0
 21 22  1  0
  6 23  1  0
 23 24  2  0
 24 25  1  0
 25 26  2  0
 25 27  2  0
 25 28  1  0
 28 29  1  0
 29 30  1  0
 30 31  1  0
 31 32  1  0
 32 33  1  0
 24  3  1  0
 33 28  1  0
 21 11  1  0
 20 15  1  0
  1 34  1  0
  1 35  1  0
  1 36  1  0
  4 37  1  0
  5 38  1  0
  7 39  1  0
  7 40  1  0
 12 41  1  0
 16 42  1  0
 17 43  1  0
 18 44  1  0
 22 45  1  0
 23 46  1  0
 29 47  1  0
 29 48  1  0
 30 49  1  0
 30 50  1  0
 31 51  1  0
 31 52  1  0
 32 53  1  0
 32 54  1  0
 33 55  1  0
 33 56  1  0
M  CHG  2   8  -1  14  -1
M  END
>  <UniqueID>  (30) 
28

>  <SMILES>  (30) 
COc1ccc(C[N-]C(=O)c2cc([O-])c3cccnc3c2O)cc1S(=O)(=O)N1CCCCC1

>  <Energy>  (30) 
70.33251276380183

>  <Genealogy>  (30) 
COc1ccc(C[N-]C(=O)c2cc([O-])c3cccnc3c2O)cc1S(=O)(=O)N1CCCCC1 (protonated)
COc1ccc(C[N-]C(=O)c2cc([O-])c3cccnc3c2O)cc1S(=O)(=O)N1CCCCC1 (3D coordinates assigned)
COc1ccc(C[N-]C(=O)c2cc([O-])c3cccnc3c2O)cc1S(=O)(=O)N1CCCCC1 (nonaromatic ring conformer: 70.33251276380183 kcal/mol)

>  <smiles>  (30) 
COc1ccc(CNC(=O)c2cc(O)c3cccnc3c2O)cc1S(=O)(=O)N1CCCCC1

>  <score_type>  (30) 
oracle

>  <origin>  (30) 
adgpu

>  <m_score__min__energy>  (30) 
-12.16

>  <m_primary>  (30) 
energy

$$$$
30:0
     RDKit          3D

 48 50  0  0  0  0  0  0  0  0999 V2000
   -0.9120   18.4400  -27.3040 C   0  0  0  0  0  0  0  0  0  0  0  0
   -2.3530   19.3080  -26.7260 S   0  0  0  0  0  0  0  0  0  0  0  0
   -2.3070   19.4190  -25.2270 O   0  0  0  0  0  0  0  0  0  0  0  0
   -3.5900   18.5480  -27.1150 O   0  0  0  0  0  0  0  0  0  0  0  0
   -2.3910   20.9160  -27.4420 C   0  0  0  0  0  0  0  0  0  0  0  0
   -3.5940   21.6310  -27.5070 C   0  0  0  0  0  0  0  0  0  0  0  0
   -3.6270   22.9000  -28.0930 C   0  0  0  0  0  0  0  0  0  0  0  0
   -2.4610   23.4640  -28.6350 C   0  0  0  0  0  0  0  0  0  0  0  0
   -2.5080   24.8070  -29.2620 C   0  0  0  0  0  0  0  0  0  0  0  0
   -1.6300   25.6600  -28.9650 O   0  0  0  0  0  0  0  0  0  0  0  0
   -3.5040   25.1570  -30.2330 N   0  0  0  0  0  0  0  0  0  0  0  0
   -4.6570   24.3730  -30.5710 C   0  0  0  0  0  0  0  0  0  0  0  0
   -4.4670   23.1460  -31.2190 C   0  0  0  0  0  0  0  0  0  0  0  0
   -5.5630   22.3340  -31.5410 C   0  0  0  0  0  0  0  0  0  0  0  0
   -5.3260   20.7570  -32.2900 S   0  0  0  0  0  0  0  0  0  0  0  0
   -5.0920   19.7160  -31.2310 O   0  0  0  0  0  0  0  0  0  0  0  0
   -4.1110   20.8280  -33.1730 O   0  0  0  0  0  0  0  0  0  0  0  0
   -6.7420   20.3610  -33.2400 N   0  0  0  0  0  0  0  0  0  0  0  0
   -7.9310   20.1270  -32.3890 C   0  0  0  0  0  0  0  0  0  0  0  0
   -8.2190   18.6320  -32.1670 C   0  0  0  0  0  0  0  0  0  0  0  0
   -7.0150   17.9010  -32.1400 O   0  0  0  0  0  0  0  0  0  0  0  0
   -6.4290   17.8770  -33.4290 C   0  0  0  0  0  0  0  0  0  0  0  0
   -6.4820   19.2400  -34.1620 C   0  0  0  0  0  0  0  0  0  0  0  0
   -6.8570   22.7620  -31.2290 C   0  0  0  0  0  0  0  0  0  0  0  0
   -7.0590   24.0000  -30.6140 C   0  0  0  0  0  0  0  0  0  0  0  0
   -5.9660   24.8170  -30.2910 C   0  0  0  0  0  0  0  0  0  0  0  0
   -6.1820   26.0680  -29.7170 O   0  0  0  0  0  0  0  0  0  0  0  0
   -1.2550   22.7470  -28.5550 C   0  0  0  0  0  0  0  0  0  0  0  0
   -1.2230   21.4780  -27.9700 C   0  0  0  0  0  0  0  0  0  0  0  0
   -0.3263   18.0872  -26.4423 H   0  0  0  0  0  0  0  0  0  0  0  0
   -1.2227   17.5787  -27.9136 H   0  0  0  0  0  0  0  0  0  0  0  0
   -0.2959   19.1174  -27.9136 H   0  0  0  0  0  0  0  0  0  0  0  0
   -4.5153   21.1927  -27.0958 H   0  0  0  0  0  0  0  0  0  0  0  0
   -4.5729   23.4603  -28.1297 H   0  0  0  0  0  0  0  0  0  0  0  0
   -3.4496   22.8170  -31.4772 H   0  0  0  0  0  0  0  0  0  0  0  0
   -7.7625   20.6017  -31.4111 H   0  0  0  0  0  0  0  0  0  0  0  0
   -8.7999   20.5588  -32.9072 H   0  0  0  0  0  0  0  0  0  0  0  0
   -8.7441   18.5019  -31.2092 H   0  0  0  0  0  0  0  0  0  0  0  0
   -8.8442   18.2615  -32.9928 H   0  0  0  0  0  0  0  0  0  0  0  0
   -5.3752   17.5788  -33.3260 H   0  0  0  0  0  0  0  0  0  0  0  0
   -7.0096   17.1642  -34.0330 H   0  0  0  0  0  0  0  0  0  0  0  0
   -5.5175   19.4102  -34.6628 H   0  0  0  0  0  0  0  0  0  0  0  0
   -7.3090   19.2009  -34.8862 H   0  0  0  0  0  0  0  0  0  0  0  0
   -7.7188   22.1218  -31.4686 H   0  0  0  0  0  0  0  0  0  0  0  0
   -8.0805   24.3356  -30.3820 H   0  0  0  0  0  0  0  0  0  0  0  0
   -5.4750   26.5210  -29.1490 H   0  0  0  0  0  0  0  0  0  0  0  0
   -0.3300   23.1874  -28.9555 H   0  0  0  0  0  0  0  0  0  0  0  0
   -0.2767   20.9191  -27.9244 H   0  0  0  0  0  0  0  0  0  0  0  0
  1  2  1  0
  2  3  2  0
  2  4  2  0
  2  5  1  0
  5  6  2  0
  6  7  1  0
  7  8  2  0
  8  9  1  0
  9 10  2  0
  9 11  1  0
 11 12  1  0
 12 13  2  0
 13 14  1  0
 14 15  1  0
 15 16  2  0
 15 17  2  0
 15 18  1  0
 18 19  1  0
 19 20  1  0
 20 21  1  0
 21 22  1  0
 22 23  1  0
 14 24  2  0
 24 25  1  0
 25 26  2  0
 26 27  1  0
  8 28  1  0
 28 29  2  0
 29  5  1  0
 26 12  1  0
 23 18  1  0
  1 30  1  0
  1 31  1  0
  1 32  1  0
  6 33  1  0
  7 34  1  0
 13 35  1  0
 19 36  1  0
 19 37  1  0
 20 38  1  0
 20 39  1  0
 22 40  1  0
 22 41  1  0
 23 42  1  0
 23 43  1  0
 24 44  1  0
 25 45  1  0
 27 46  1  0
 28 47  1  0
 29 48  1  0
M  CHG  1  11  -1
M  END
>  <UniqueID>  (31) 
29

>  <SMILES>  (31) 
CS(=O)(=O)c1ccc(C(=O)[N-]c2cc(S(=O)(=O)N3CCOCC3)ccc2O)cc1

>  <Energy>  (31) 
65.19163910647326

>  <Genealogy>  (31) 
CS(=O)(=O)c1ccc(C(=O)[N-]c2cc(S(=O)(=O)N3CCOCC3)ccc2O)cc1 (protonated)
CS(=O)(=O)c1ccc(C(=O)[N-]c2cc(S(=O)(=O)N3CCOCC3)ccc2O)cc1 (3D coordinates assigned)
CS(=O)(=O)c1ccc(C(=O)[N-]c2cc(S(=O)(=O)N3CCOCC3)ccc2O)cc1 (nonaromatic ring conformer: 65.19163910647326 kcal/mol)

>  <smiles>  (31) 
CS(=O)(=O)c1ccc(C(=O)Nc2cc(S(=O)(=O)N3CCOCC3)ccc2O)cc1

>  <score_type>  (31) 
oracle

>  <origin>  (31) 
adgpu

>  <m_score__min__energy>  (31) 
-11.66

>  <m_primary>  (31) 
energy

$$$$
31:0
     RDKit          3D

 60 63  0  0  0  0  0  0  0  0999 V2000
   -4.4970   21.1770  -33.3010 C   0  0  0  0  0  0  0  0  0  0  0  0
   -5.9050   20.9990  -33.4170 O   0  0  0  0  0  0  0  0  0  0  0  0
   -6.5880   19.8110  -33.1050 C   0  0  0  0  0  0  0  0  0  0  0  0
   -5.9390   18.5610  -33.1110 C   0  0  0  0  0  0  0  0  0  0  0  0
   -6.6270   17.4040  -32.7340 C   0  0  0  0  0  0  0  0  0  0  0  0
   -7.9630   17.4830  -32.3420 C   0  0  0  0  0  0  0  0  0  0  0  0
   -8.6200   18.7140  -32.3410 C   0  0  0  0  0  0  0  0  0  0  0  0
   -7.9530   19.8760  -32.7470 C   0  0  0  0  0  0  0  0  0  0  0  0
   -8.6680   21.1190  -32.7210 N   0  0  0  0  0  0  0  0  0  0  0  0
   -9.0280   21.8370  -31.5340 C   0  0  0  0  0  0  0  0  0  0  0  0
  -10.2350   21.9030  -31.1700 O   0  0  0  0  0  0  0  0  0  0  0  0
   -7.9450   22.4350  -30.6770 C   0  0  2  0  0  0  0  0  0  0  0  0
   -7.5430   23.8160  -31.2040 C   0  0  0  0  0  0  0  0  0  0  0  0
   -6.4840   24.4820  -30.2980 C   0  0  0  0  0  0  0  0  0  0  0  0
   -5.6890   23.5100  -29.5110 N   0  0  2  0  0  0  0  0  0  0  0  0
   -4.1930   24.2320  -28.9510 S   0  0  0  0  0  0  0  0  0  0  0  0
   -4.4730   24.9250  -27.6460 O   0  0  0  0  0  0  0  0  0  0  0  0
   -3.7050   25.2730  -29.9180 O   0  0  0  0  0  0  0  0  0  0  0  0
   -2.9230   23.0430  -28.6390 C   0  0  0  0  0  0  0  0  0  0  0  0
   -3.1590   21.7510  -28.6750 O   0  0  0  0  0  0  0  0  0  0  0  0
   -2.0850   21.0610  -28.4220 N   0  0  0  0  0  0  0  0  0  0  0  0
   -1.0910   21.9410  -28.2110 C   0  0  0  0  0  0  0  0  0  0  0  0
    0.3110   21.5350  -27.8840 C   0  0  0  0  0  0  0  0  0  0  0  0
   -1.5810   23.2310  -28.3310 C   0  0  0  0  0  0  0  0  0  0  0  0
   -0.6430   24.7240  -28.1760 S   0  0  0  0  0  0  0  0  0  0  0  0
   -1.1840   25.7550  -29.1250 O   0  0  0  0  0  0  0  0  0  0  0  0
    0.7880   24.4610  -28.5440 O   0  0  0  0  0  0  0  0  0  0  0  0
   -0.7380   25.3670  -26.5360 C   0  0  0  0  0  0  0  0  0  0  0  0
   -1.1340   26.6980  -26.3290 C   0  0  0  0  0  0  0  0  0  0  0  0
   -1.2170   27.2130  -25.0320 C   0  0  0  0  0  0  0  0  0  0  0  0
   -0.9100   26.4030  -23.9360 C   0  0  0  0  0  0  0  0  0  0  0  0
   -0.5230   25.0740  -24.1340 C   0  0  0  0  0  0  0  0  0  0  0  0
   -0.4420   24.5550  -25.4300 C   0  0  0  0  0  0  0  0  0  0  0  0
   -5.4150   22.2730  -30.2650 C   0  0  0  0  0  0  0  0  0  0  0  0
   -6.7150   21.5030  -30.5810 C   0  0  0  0  0  0  0  0  0  0  0  0
   -4.2183   21.2122  -32.2375 H   0  0  0  0  0  0  0  0  0  0  0  0
   -3.9799   20.3371  -33.7880 H   0  0  0  0  0  0  0  0  0  0  0  0
   -4.2052   22.1192  -33.7880 H   0  0  0  0  0  0  0  0  0  0  0  0
   -4.8837   18.4947  -33.4144 H   0  0  0  0  0  0  0  0  0  0  0  0
   -6.1144   16.4308  -32.7466 H   0  0  0  0  0  0  0  0  0  0  0  0
   -8.4995   16.5737  -32.0332 H   0  0  0  0  0  0  0  0  0  0  0  0
   -9.6701   18.7719  -32.0187 H   0  0  0  0  0  0  0  0  0  0  0  0
   -8.3489   22.5527  -29.6606 H   0  0  0  0  0  0  0  0  0  0  0  0
   -7.1281   23.7051  -32.2167 H   0  0  0  0  0  0  0  0  0  0  0  0
   -8.4383   24.4549  -31.2151 H   0  0  0  0  0  0  0  0  0  0  0  0
   -5.7974   25.0620  -30.9321 H   0  0  0  0  0  0  0  0  0  0  0  0
   -7.0234   25.1176  -29.5804 H   0  0  0  0  0  0  0  0  0  0  0  0
   -6.2340   23.2570  -28.6520 H   0  0  0  0  0  0  0  0  0  0  0  0
    0.4369   21.4985  -26.7918 H   0  0  0  0  0  0  0  0  0  0  0  0
    0.5137   20.5412  -28.3098 H   0  0  0  0  0  0  0  0  0  0  0  0
    1.0134   22.2666  -28.3098 H   0  0  0  0  0  0  0  0  0  0  0  0
   -1.3796   27.3373  -27.1898 H   0  0  0  0  0  0  0  0  0  0  0  0
   -1.5244   28.2573  -24.8743 H   0  0  0  0  0  0  0  0  0  0  0  0
   -0.9728   26.8110  -22.9164 H   0  0  0  0  0  0  0  0  0  0  0  0
   -0.2823   24.4368  -23.2703 H   0  0  0  0  0  0  0  0  0  0  0  0
   -0.1453   23.5069  -25.5832 H   0  0  0  0  0  0  0  0  0  0  0  0
   -4.9153   22.5336  -31.2097 H   0  0  0  0  0  0  0  0  0  0  0  0
   -4.7732   21.6275  -29.6474 H   0  0  0  0  0  0  0  0  0  0  0  0
   -6.5916   20.9812  -31.5415 H   0  0  0  0  0  0  0  0  0  0  0  0
   -6.8940   20.7960  -29.7575 H   0  0  0  0  0  0  0  0  0  0  0  0
  1  2  1  0
  2  3  1  0
  3  4  2  0
  4  5  1  0
  5  6  2  0
  6  7  1  0
  7  8  2  0
  8  9  1  0
  9 10  1  0
 10 11  2  0
 10 12  1  0
 12 13  1  0
 13 14  1  0
 14 15  1  0
 15 16  1  0
 16 17  2  0
 16 18  2  0
 16 19  1  0
 19 20  1  0
 20 21  1  0
 21 22  2  0
 22 23  1  0
 22 24  1  0
 24 25  1  0
 25 26  2  0
 25 27  2  0
 25 28  1  0
 28 29  2  0
 29 30  1  0
 30 31  2  0
 31 32  1  0
 32 33  2  0
 15 34  1  0
 34 35  1  0
  8  3  1  0
 35 12  1  0
 24 19  2  0
 33 28  1  0
  1 36  1  0
  1 37  1  0
  1 38  1  0
  4 39  1  0
  5 40  1  0
  6 41  1  0
  7 42  1  0
 12 43  1  1
 13 44  1  0
 13 45  1  0
 14 46  1  0
 14 47  1  0
 15 48  1  1
 23 49  1  0
 23 50  1  0
 23 51  1  0
 29 52  1  0
 30 53  1  0
 31 54  1  0
 32 55  1  0
 33 56  1  0
 34 57  1  0
 34 58  1  0
 35 59  1  0
 35 60  1  0
M  CHG  2   9  -1  15   1
M  END
>  <UniqueID>  (32) 
30

>  <SMILES>  (32) 
COc1ccccc1[N-]C(=O)C1CC[NH+](S(=O)(=O)c2onc(C)c2S(=O)(=O)c2ccccc2)CC1

>  <Energy>  (32) 
103.58592047615353

>  <Genealogy>  (32) 
COc1ccccc1[N-]C(=O)C1CC[NH+](S(=O)(=O)c2onc(C)c2S(=O)(=O)c2ccccc2)CC1 (protonated)
COc1ccccc1[N-]C(=O)C1CC[NH+](S(=O)(=O)c2onc(C)c2S(=O)(=O)c2ccccc2)CC1 (3D coordinates assigned)
COc1ccccc1[N-]C(=O)C1CC[NH+](S(=O)(=O)c2onc(C)c2S(=O)(=O)c2ccccc2)CC1 (nonaromatic ring conformer: 103.58592047615353 kcal/mol)

>  <smiles>  (32) 
COc1ccccc1NC(=O)C1CCN(S(=O)(=O)c2onc(C)c2S(=O)(=O)c2ccccc2)CC1

>  <score_type>  (32) 
oracle

>  <origin>  (32) 
adgpu

>  <m_score__min__energy>  (32) 
-12.779999999999999

>  <m_primary>  (32) 
energy

$$$$
32:0
     RDKit          3D

 67 71  0  0  0  0  0  0  0  0999 V2000
   -7.2450   17.4490  -32.9240 C   0  0  0  0  0  0  0  0  0  0  0  0
   -7.7240   18.0570  -31.6110 C   0  0  0  0  0  0  0  0  0  0  0  0
   -9.0590   18.7930  -31.7950 C   0  0  0  0  0  0  0  0  0  0  0  0
   -8.9330   20.0040  -32.7310 C   0  0  0  0  0  0  0  0  0  0  0  0
   -7.7810   20.8970  -32.3500 C   0  0  0  0  0  0  0  0  0  0  0  0
   -8.0040   22.0530  -31.5910 C   0  0  0  0  0  0  0  0  0  0  0  0
   -6.9340   22.8770  -31.2330 C   0  0  0  0  0  0  0  0  0  0  0  0
   -5.6270   22.5560  -31.6260 C   0  0  0  0  0  0  0  0  0  0  0  0
   -4.5530   23.4360  -31.2870 N   0  0  0  0  0  0  0  0  0  0  0  0
   -4.7080   24.6730  -30.0790 S   0  0  0  0  0  0  0  0  0  0  0  0
   -6.0350   24.5190  -29.3860 O   0  0  0  0  0  0  0  0  0  0  0  0
   -4.6610   26.0230  -30.7430 O   0  0  0  0  0  0  0  0  0  0  0  0
   -3.4190   24.5560  -28.8820 C   0  0  0  0  0  0  0  0  0  0  0  0
   -3.7390   24.4870  -27.5160 C   0  0  0  0  0  0  0  0  0  0  0  0
   -2.7250   24.3590  -26.5610 C   0  0  0  0  0  0  0  0  0  0  0  0
   -1.3890   24.2980  -26.9680 C   0  0  0  0  0  0  0  0  0  0  0  0
   -1.0670   24.3340  -28.3320 C   0  0  0  0  0  0  0  0  0  0  0  0
   -2.0770   24.4800  -29.2880 C   0  0  0  0  0  0  0  0  0  0  0  0
    0.2730   24.2150  -28.7190 O   0  0  0  0  0  0  0  0  0  0  0  0
    1.2720   23.7850  -27.7900 C   0  0  0  0  0  0  0  0  0  0  0  0
    1.0070   24.3950  -26.4070 C   0  0  0  0  0  0  0  0  0  0  0  0
   -0.3560   24.1940  -26.0300 O   0  0  0  0  0  0  0  0  0  0  0  0
   -5.3870   21.3650  -32.3420 C   0  0  0  0  0  0  0  0  0  0  0  0
   -3.7600   20.8540  -32.8260 S   0  0  0  0  0  0  0  0  0  0  0  0
   -3.8890   19.4860  -33.4370 O   0  0  0  0  0  0  0  0  0  0  0  0
   -3.1630   21.7920  -33.8360 O   0  0  0  0  0  0  0  0  0  0  0  0
   -2.6960   20.8200  -31.4060 C   0  0  0  0  0  0  0  0  0  0  0  0
   -3.2650   21.0420  -30.1400 C   0  0  0  0  0  0  0  0  0  0  0  0
   -2.4890   20.9550  -28.9830 C   0  0  0  0  0  0  0  0  0  0  0  0
   -1.1310   20.6560  -29.0750 C   0  0  0  0  0  0  0  0  0  0  0  0
   -0.5400   20.4600  -30.3240 C   0  0  0  0  0  0  0  0  0  0  0  0
   -1.3050   20.5540  -31.4990 C   0  0  0  0  0  0  0  0  0  0  0  0
   -0.6140   20.3940  -32.7950 C   0  0  0  0  0  0  0  0  0  0  0  0
   -0.2260   21.5210  -33.5390 C   0  0  0  0  0  0  0  0  0  0  0  0
    0.4530   21.3620  -34.7500 C   0  0  0  0  0  0  0  0  0  0  0  0
    0.7520   20.0820  -35.2240 C   0  0  0  0  0  0  0  0  0  0  0  0
    0.3780   18.9560  -34.4840 C   0  0  0  0  0  0  0  0  0  0  0  0
   -0.2970   19.1110  -33.2700 C   0  0  0  0  0  0  0  0  0  0  0  0
   -6.4710   20.5580  -32.7170 C   0  0  0  0  0  0  0  0  0  0  0  0
   -6.5769   16.6010  -32.7132 H   0  0  0  0  0  0  0  0  0  0  0  0
   -8.1117   17.0978  -33.5032 H   0  0  0  0  0  0  0  0  0  0  0  0
   -6.7007   18.2094  -33.5032 H   0  0  0  0  0  0  0  0  0  0  0  0
   -7.8558   17.2542  -30.8707 H   0  0  0  0  0  0  0  0  0  0  0  0
   -6.9711   18.7814  -31.2671 H   0  0  0  0  0  0  0  0  0  0  0  0
   -9.7934   18.0927  -32.2196 H   0  0  0  0  0  0  0  0  0  0  0  0
   -9.3786   19.1616  -30.8091 H   0  0  0  0  0  0  0  0  0  0  0  0
   -8.7776   19.6435  -33.7586 H   0  0  0  0  0  0  0  0  0  0  0  0
   -9.8589   20.5924  -32.6503 H   0  0  0  0  0  0  0  0  0  0  0  0
   -9.0253   22.3130  -31.2757 H   0  0  0  0  0  0  0  0  0  0  0  0
   -7.1183   23.7840  -30.6386 H   0  0  0  0  0  0  0  0  0  0  0  0
   -4.7905   24.5338  -27.1962 H   0  0  0  0  0  0  0  0  0  0  0  0
   -2.9783   24.3064  -25.4919 H   0  0  0  0  0  0  0  0  0  0  0  0
   -1.8206   24.5352  -30.3563 H   0  0  0  0  0  0  0  0  0  0  0  0
    1.2491   22.6879  -27.7137 H   0  0  0  0  0  0  0  0  0  0  0  0
    2.2590   24.1161  -28.1453 H   0  0  0  0  0  0  0  0  0  0  0  0
    1.6631   23.9142  -25.6665 H   0  0  0  0  0  0  0  0  0  0  0  0
    1.2119   25.4750  -26.4468 H   0  0  0  0  0  0  0  0  0  0  0  0
   -4.3344   21.2872  -30.0601 H   0  0  0  0  0  0  0  0  0  0  0  0
   -2.9496   21.1225  -27.9982 H   0  0  0  0  0  0  0  0  0  0  0  0
   -0.5238   20.5743  -28.1614 H   0  0  0  0  0  0  0  0  0  0  0  0
    0.5337   20.2300  -30.3892 H   0  0  0  0  0  0  0  0  0  0  0  0
   -0.4571   22.5303  -33.1676 H   0  0  0  0  0  0  0  0  0  0  0  0
    0.7527   22.2464  -35.3314 H   0  0  0  0  0  0  0  0  0  0  0  0
    1.2821   19.9600  -36.1801 H   0  0  0  0  0  0  0  0  0  0  0  0
    0.6149   17.9487  -34.8572 H   0  0  0  0  0  0  0  0  0  0  0  0
   -0.5811   18.2244  -32.6842 H   0  0  0  0  0  0  0  0  0  0  0  0
   -6.2911   19.6471  -33.3068 H   0  0  0  0  0  0  0  0  0  0  0  0
  1  2  1  0
  2  3  1  0
  3  4  1  0
  4  5  1  0
  5  6  2  0
  6  7  1  0
  7  8  2  0
  8  9  1  0
  9 10  1  0
 10 11  2  0
 10 12  2  0
 10 13  1  0
 13 14  2  0
 14 15  1  0
 15 16  2  0
 16 17  1  0
 17 18  2  0
 17 19  1  0
 19 20  1  0
 20 21  1  0
 21 22  1  0
  8 23  1  0
 23 24  1  0
 24 25  2  0
 24 26  2  0
 24 27  1  0
 27 28  2  0
 28 29  1  0
 29 30  2  0
 30 31  1  0
 31 32  2  0
 32 33  1  0
 33 34  2  0
 34 35  1  0
 35 36  2  0
 36 37  1  0
 37 38  2  0
 23 39  2  0
 39  5  1  0
 18 13  1  0
 32 27  1  0
 38 33  1  0
 22 16  1  0
  1 40  1  0
  1 41  1  0
  1 42  1  0
  2 43  1  0
  2 44  1  0
  3 45  1  0
  3 46  1  0
  4 47  1  0
  4 48  1  0
  6 49  1  0
  7 50  1  0
 14 51  1  0
 15 52  1  0
 18 53  1  0
 20 54  1  0
 20 55  1  0
 21 56  1  0
 21 57  1  0
 28 58  1  0
 29 59  1  0
 30 60  1  0
 31 61  1  0
 34 62  1  0
 35 63  1  0
 36 64  1  0
 37 65  1  0
 38 66  1  0
 39 67  1  0
M  CHG  1   9  -1
M  END
>  <UniqueID>  (33) 
31

>  <SMILES>  (33) 
CCCCc1ccc([N-]S(=O)(=O)c2ccc3c(c2)OCCO3)c(S(=O)(=O)c2ccccc2-c2ccccc2)c1

>  <Energy>  (33) 
85.3672385087136

>  <Genealogy>  (33) 
CCCCc1ccc([N-]S(=O)(=O)c2ccc3c(c2)OCCO3)c(S(=O)(=O)c2ccccc2-c2ccccc2)c1 (protonated)
CCCCc1ccc([N-]S(=O)(=O)c2ccc3c(c2)OCCO3)c(S(=O)(=O)c2ccccc2-c2ccccc2)c1 (3D coordinates assigned)
CCCCc1ccc([N-]S(=O)(=O)c2ccc3c(c2)OCCO3)c(S(=O)(=O)c2ccccc2-c2ccccc2)c1 (nonaromatic ring conformer: 85.3672385087136 kcal/mol)

>  <smiles>  (33) 
CCCCc1ccc(NS(=O)(=O)c2ccc3c(c2)OCCO3)c(S(=O)(=O)c2ccccc2-c2ccccc2)c1

>  <score_type>  (33) 
oracle

>  <origin>  (33) 
adgpu

>  <m_score__min__energy>  (33) 
-12.5

>  <m_primary>  (33) 
energy

$$$$
33:0
     RDKit          3D

 60 64  0  0  0  0  0  0  0  0999 V2000
   -5.3260   14.7310  -33.7850 N   0  0  0  0  0  0  0  0  0  0  0  0
   -5.7950   15.6850  -33.3260 C   0  0  0  0  0  0  0  0  0  0  0  0
   -6.3760   16.8720  -32.7560 C   0  0  0  0  0  0  0  0  0  0  0  0
   -5.7330   17.5300  -31.7000 C   0  0  0  0  0  0  0  0  0  0  0  0
   -6.2910   18.6880  -31.1500 C   0  0  0  0  0  0  0  0  0  0  0  0
   -7.5000   19.1960  -31.6500 C   0  0  0  0  0  0  0  0  0  0  0  0
   -8.0800   20.4630  -31.0830 C   0  0  0  0  0  0  0  0  0  0  0  0
   -7.3540   21.9430  -31.8750 S   0  0  0  0  0  0  0  0  0  0  0  0
   -6.0380   21.0510  -32.7150 C   0  0  0  0  0  0  0  0  0  0  0  0
   -6.2520   20.2750  -33.7930 N   0  0  0  0  0  0  0  0  0  0  0  0
   -5.0640   19.8670  -34.2170 N   0  0  0  0  0  0  0  0  0  0  0  0
   -4.1430   20.4010  -33.3910 C   0  0  0  0  0  0  0  0  0  0  0  0
   -2.6900   20.1690  -33.5500 C   0  0  0  0  0  0  0  0  0  0  0  0
   -1.7840   21.1990  -33.2540 C   0  0  0  0  0  0  0  0  0  0  0  0
   -0.4080   20.9950  -33.4000 C   0  0  0  0  0  0  0  0  0  0  0  0
    0.0770   19.7610  -33.8540 C   0  0  0  0  0  0  0  0  0  0  0  0
    1.8050   19.4940  -34.0650 S   0  0  0  0  0  0  0  0  0  0  0  0
    2.0500   18.0130  -34.1530 O   0  0  0  0  0  0  0  0  0  0  0  0
    2.5580   20.0360  -32.8800 O   0  0  0  0  0  0  0  0  0  0  0  0
    2.3480   20.2700  -35.5370 N   0  0  0  0  0  0  0  0  0  0  0  0
    1.2170   20.5130  -36.4400 C   0  0  0  0  0  0  0  0  0  0  0  0
    0.6930   21.9150  -36.1750 C   0  0  0  0  0  0  0  0  0  0  0  0
    1.7940   22.6230  -35.4090 C   0  0  0  0  0  0  0  0  0  0  0  0
    2.9030   21.5950  -35.2430 C   0  0  0  0  0  0  0  0  0  0  0  0
   -0.8260   18.7400  -34.1770 C   0  0  0  0  0  0  0  0  0  0  0  0
   -2.2010   18.9420  -34.0300 C   0  0  0  0  0  0  0  0  0  0  0  0
   -4.7250   21.1510  -32.4280 N   0  0  0  0  0  0  0  0  0  0  0  0
   -4.1100   22.0290  -31.4710 C   0  0  0  0  0  0  0  0  0  0  0  0
   -3.3490   21.5050  -30.4190 C   0  0  0  0  0  0  0  0  0  0  0  0
   -2.7560   22.3570  -29.4860 C   0  0  0  0  0  0  0  0  0  0  0  0
   -2.9130   23.7530  -29.5830 C   0  0  0  0  0  0  0  0  0  0  0  0
   -2.2700   24.6370  -28.5760 C   0  0  0  0  0  0  0  0  0  0  0  0
   -2.3140   24.3440  -27.3520 O   0  0  0  0  0  0  0  0  0  0  0  0
   -1.6130   25.7990  -28.9580 O   0  0  0  0  0  0  0  0  0  0  0  0
   -3.6850   24.2770  -30.6450 C   0  0  0  0  0  0  0  0  0  0  0  0
   -3.8750   25.6470  -30.7910 O   0  0  0  0  0  0  0  0  0  0  0  0
   -4.2770   23.4170  -31.5750 C   0  0  0  0  0  0  0  0  0  0  0  0
   -8.1420   18.5330  -32.7100 C   0  0  0  0  0  0  0  0  0  0  0  0
   -7.5810   17.3770  -33.2590 C   0  0  0  0  0  0  0  0  0  0  0  0
   -4.7866   17.1348  -31.3023 H   0  0  0  0  0  0  0  0  0  0  0  0
   -5.7807   19.2027  -30.3225 H   0  0  0  0  0  0  0  0  0  0  0  0
   -9.1672   20.4648  -31.2500 H   0  0  0  0  0  0  0  0  0  0  0  0
   -7.8499   20.4980  -30.0079 H   0  0  0  0  0  0  0  0  0  0  0  0
   -2.1583   22.1727  -32.9050 H   0  0  0  0  0  0  0  0  0  0  0  0
    0.2954   21.8053  -33.1578 H   0  0  0  0  0  0  0  0  0  0  0  0
    1.5502   20.4310  -37.4851 H   0  0  0  0  0  0  0  0  0  0  0  0
    0.4241   19.7708  -36.2655 H   0  0  0  0  0  0  0  0  0  0  0  0
    0.4893   22.4345  -37.1230 H   0  0  0  0  0  0  0  0  0  0  0  0
   -0.2502   21.8972  -35.6093 H   0  0  0  0  0  0  0  0  0  0  0  0
    2.1581   23.4925  -35.9758 H   0  0  0  0  0  0  0  0  0  0  0  0
    1.4380   22.9981  -34.4381 H   0  0  0  0  0  0  0  0  0  0  0  0
    3.7243   21.8176  -35.9400 H   0  0  0  0  0  0  0  0  0  0  0  0
    3.2959   21.6228  -34.2159 H   0  0  0  0  0  0  0  0  0  0  0  0
   -0.4511   17.7747  -34.5481 H   0  0  0  0  0  0  0  0  0  0  0  0
   -2.9037   18.1370  -34.2912 H   0  0  0  0  0  0  0  0  0  0  0  0
   -3.2179   20.4167  -30.3274 H   0  0  0  0  0  0  0  0  0  0  0  0
   -2.1589   21.9330  -28.6652 H   0  0  0  0  0  0  0  0  0  0  0  0
   -4.8794   23.8334  -32.3959 H   0  0  0  0  0  0  0  0  0  0  0  0
   -9.0891   18.9254  -33.1087 H   0  0  0  0  0  0  0  0  0  0  0  0
   -8.0876   16.8623  -34.0887 H   0  0  0  0  0  0  0  0  0  0  0  0
  1  2  3  0
  2  3  1  0
  3  4  2  0
  4  5  1  0
  5  6  2  0
  6  7  1  0
  7  8  1  0
  8  9  1  0
  9 10  2  0
 10 11  1  0
 11 12  2  0
 12 13  1  0
 13 14  2  0
 14 15  1  0
 15 16  2  0
 16 17  1  0
 17 18  2  0
 17 19  2  0
 17 20  1  0
 20 21  1  0
 21 22  1  0
 22 23  1  0
 23 24  1  0
 16 25  1  0
 25 26  2  0
 12 27  1  0
 27 28  1  0
 28 29  2  0
 29 30  1  0
 30 31  2  0
 31 32  1  0
 32 33  2  0
 32 34  1  0
 31 35  1  0
 35 36  1  0
 35 37  2  0
  6 38  1  0
 38 39  2  0
 39  3  1  0
 27  9  1  0
 37 28  1  0
 26 13  1  0
 24 20  1  0
  4 40  1  0
  5 41  1  0
  7 42  1  0
  7 43  1  0
 14 44  1  0
 15 45  1  0
 21 46  1  0
 21 47  1  0
 22 48  1  0
 22 49  1  0
 23 50  1  0
 23 51  1  0
 24 52  1  0
 24 53  1  0
 25 54  1  0
 26 55  1  0
 29 56  1  0
 30 57  1  0
 37 58  1  0
 38 59  1  0
 39 60  1  0
M  CHG  2  34  -1  36  -1
M  END
>  <UniqueID>  (34) 
32

>  <SMILES>  (34) 
N#Cc1ccc(CSc2nnc(-c3ccc(S(=O)(=O)N4CCCC4)cc3)n2-c2ccc(C(=O)[O-])c([O-])c2)cc1

>  <Energy>  (34) 
106.51177972126922

>  <Genealogy>  (34) 
N#Cc1ccc(CSc2nnc(-c3ccc(S(=O)(=O)N4CCCC4)cc3)n2-c2ccc(C(=O)[O-])c([O-])c2)cc1 (protonated)
N#Cc1ccc(CSc2nnc(-c3ccc(S(=O)(=O)N4CCCC4)cc3)n2-c2ccc(C(=O)[O-])c([O-])c2)cc1 (3D coordinates assigned)
N#Cc1ccc(CSc2nnc(-c3ccc(S(=O)(=O)N4CCCC4)cc3)n2-c2ccc(C(=O)[O-])c([O-])c2)cc1 (nonaromatic ring conformer: 106.51177972126922 kcal/mol)

>  <smiles>  (34) 
N#Cc1ccc(CSc2nnc(-c3ccc(S(=O)(=O)N4CCCC4)cc3)n2-c2ccc(C(=O)O)c(O)c2)cc1

>  <score_type>  (34) 
oracle

>  <origin>  (34) 
adgpu

>  <m_score__min__energy>  (34) 
-14.09

>  <m_primary>  (34) 
energy

$$$$
34:0
     RDKit          3D

100105  0  0  0  0  0  0  0  0999 V2000
   -3.8770   13.0250  -33.0790 C   0  0  0  0  0  0  0  0  0  0  0  0
   -3.9490   14.5230  -33.1080 C   0  0  0  0  0  0  0  0  0  0  0  0
   -2.7730   15.2860  -33.0640 C   0  0  0  0  0  0  0  0  0  0  0  0
   -2.8340   16.6930  -33.0760 C   0  0  0  0  0  0  0  0  0  0  0  0
   -1.6850   17.4980  -33.0420 O   0  0  0  0  0  0  0  0  0  0  0  0
   -0.7230   17.5290  -34.0580 C   0  0  0  0  0  0  0  0  0  0  0  0
    0.0340   16.3840  -34.3000 C   0  0  0  0  0  0  0  0  0  0  0  0
    0.9870   16.3660  -35.3180 C   0  0  0  0  0  0  0  0  0  0  0  0
    1.2270   17.5100  -36.1110 C   0  0  0  0  0  0  0  0  0  0  0  0
    2.2950   17.4500  -37.2250 C   0  0  0  0  0  0  0  0  0  0  0  0
    1.7140   17.0560  -38.6030 C   0  0  0  0  0  0  0  0  0  0  0  0
    2.9590   18.8350  -37.3720 C   0  0  0  0  0  0  0  0  0  0  0  0
    3.3690   16.4010  -36.8560 C   0  0  0  0  0  0  0  0  0  0  0  0
    0.4660   18.6720  -35.8400 C   0  0  0  0  0  0  0  0  0  0  0  0
   -0.5140   18.6810  -34.8290 C   0  0  0  0  0  0  0  0  0  0  0  0
   -1.2840   19.8630  -34.5650 N   0  0  0  0  0  0  0  0  0  0  0  0
   -1.0880   20.7040  -33.4230 C   0  0  0  0  0  0  0  0  0  0  0  0
   -0.8710   21.9320  -33.5900 O   0  0  0  0  0  0  0  0  0  0  0  0
   -1.0460   20.1320  -32.1070 N   0  0  0  0  0  0  0  0  0  0  0  0
   -1.4040   20.8410  -30.9100 C   0  0  0  0  0  0  0  0  0  0  0  0
   -2.5190   20.4190  -30.1750 C   0  0  0  0  0  0  0  0  0  0  0  0
   -2.9370   21.1320  -29.0490 C   0  0  0  0  0  0  0  0  0  0  0  0
   -2.2580   22.2940  -28.6470 C   0  0  0  0  0  0  0  0  0  0  0  0
   -2.7520   23.0760  -27.4880 C   0  0  0  0  0  0  0  0  0  0  0  0
   -3.9940   23.1640  -27.2830 O   0  0  0  0  0  0  0  0  0  0  0  0
   -1.8500   23.7770  -26.6200 N   0  0  0  0  0  0  0  0  0  0  0  0
   -2.1700   25.1570  -26.2380 C   0  0  0  0  0  0  0  0  0  0  0  0
   -1.0690   25.7540  -25.3630 C   0  0  0  0  0  0  0  0  0  0  0  0
    0.2410   25.3280  -25.8860 N   0  0  0  0  0  0  0  0  0  0  0  0
    1.3210   26.1020  -25.2570 C   0  0  0  0  0  0  0  0  0  0  0  0
    0.4580   23.8760  -25.6810 C   0  0  0  0  0  0  0  0  0  0  0  0
   -0.8240   23.0360  -25.8740 C   0  0  0  0  0  0  0  0  0  0  0  0
   -1.1500   22.7290  -29.3990 C   0  0  0  0  0  0  0  0  0  0  0  0
   -0.7220   22.0050  -30.5150 C   0  0  0  0  0  0  0  0  0  0  0  0
   -4.0840   17.3230  -33.0920 C   0  0  0  0  0  0  0  0  0  0  0  0
   -5.2660   16.5690  -33.0500 C   0  0  0  0  0  0  0  0  0  0  0  0
   -6.5800   17.2350  -32.9380 C   0  0  0  0  0  0  0  0  0  0  0  0
   -7.6220   16.5510  -33.1240 O   0  0  0  0  0  0  0  0  0  0  0  0
   -6.6910   18.6320  -32.5810 N   0  0  0  0  0  0  0  0  0  0  0  0
   -5.7220   19.2670  -31.6780 C   0  0  0  0  0  0  0  0  0  0  0  0
   -5.6630   20.7700  -31.9700 C   0  0  0  0  0  0  0  0  0  0  0  0
   -6.9780   21.4430  -31.8050 N   0  0  0  0  0  0  0  0  0  0  0  0
   -7.0420   22.1680  -30.5140 C   0  0  0  0  0  0  0  0  0  0  0  0
   -6.0990   23.3430  -30.4950 C   0  0  0  0  0  0  0  0  0  0  0  0
   -4.7120   23.1450  -30.5700 C   0  0  0  0  0  0  0  0  0  0  0  0
   -3.8570   24.2520  -30.5470 C   0  0  0  0  0  0  0  0  0  0  0  0
   -4.3690   25.5080  -30.4580 N   0  0  0  0  0  0  0  0  0  0  0  0
   -5.7090   25.7280  -30.3840 C   0  0  0  0  0  0  0  0  0  0  0  0
   -6.5980   24.6500  -30.3950 C   0  0  0  0  0  0  0  0  0  0  0  0
   -8.1480   20.5390  -31.9730 C   0  0  0  0  0  0  0  0  0  0  0  0
   -7.8850   19.3990  -32.9720 C   0  0  0  0  0  0  0  0  0  0  0  0
   -5.1940   15.1690  -33.0860 C   0  0  0  0  0  0  0  0  0  0  0  0
   -3.8604   12.6789  -32.0350 H   0  0  0  0  0  0  0  0  0  0  0  0
   -4.7560   12.6057  -33.5904 H   0  0  0  0  0  0  0  0  0  0  0  0
   -2.9618   12.6919  -33.5904 H   0  0  0  0  0  0  0  0  0  0  0  0
   -1.7963   14.7820  -33.0198 H   0  0  0  0  0  0  0  0  0  0  0  0
   -0.1216   15.4869  -33.6828 H   0  0  0  0  0  0  0  0  0  0  0  0
    1.5607   15.4466  -35.5064 H   0  0  0  0  0  0  0  0  0  0  0  0
    0.8114   16.4439  -38.4590 H   0  0  0  0  0  0  0  0  0  0  0  0
    1.4546   17.9653  -39.1651 H   0  0  0  0  0  0  0  0  0  0  0  0
    2.4627   16.4786  -39.1651 H   0  0  0  0  0  0  0  0  0  0  0  0
    3.1595   19.2532  -36.3746 H   0  0  0  0  0  0  0  0  0  0  0  0
    3.9053   18.7313  -37.9231 H   0  0  0  0  0  0  0  0  0  0  0  0
    2.2856   19.5079  -37.9231 H   0  0  0  0  0  0  0  0  0  0  0  0
    3.4466   16.3252  -35.7614 H   0  0  0  0  0  0  0  0  0  0  0  0
    3.0847   15.4232  -37.2720 H   0  0  0  0  0  0  0  0  0  0  0  0
    4.3398   16.7082  -37.2720 H   0  0  0  0  0  0  0  0  0  0  0  0
    0.6431   19.5838  -36.4293 H   0  0  0  0  0  0  0  0  0  0  0  0
   -0.7200   19.1460  -32.0150 H   0  0  0  0  0  0  0  0  0  0  0  0
   -3.0697   19.5193  -30.4868 H   0  0  0  0  0  0  0  0  0  0  0  0
   -3.8052   20.7805  -28.4722 H   0  0  0  0  0  0  0  0  0  0  0  0
   -2.2762   25.7663  -27.1477 H   0  0  0  0  0  0  0  0  0  0  0  0
   -3.1086   25.1524  -25.6645 H   0  0  0  0  0  0  0  0  0  0  0  0
   -1.1355   26.8518  -25.3838 H   0  0  0  0  0  0  0  0  0  0  0  0
   -1.1872   25.4056  -24.3263 H   0  0  0  0  0  0  0  0  0  0  0  0
    1.2297   26.0366  -24.1628 H   0  0  0  0  0  0  0  0  0  0  0  0
    2.2939   25.6943  -25.5688 H   0  0  0  0  0  0  0  0  0  0  0  0
    1.2475   27.1543  -25.5688 H   0  0  0  0  0  0  0  0  0  0  0  0
    1.2142   23.5304  -26.4012 H   0  0  0  0  0  0  0  0  0  0  0  0
    0.7855   23.7382  -24.6400 H   0  0  0  0  0  0  0  0  0  0  0  0
   -0.5706   22.1207  -26.4290 H   0  0  0  0  0  0  0  0  0  0  0  0
   -1.2292   22.7941  -24.8804 H   0  0  0  0  0  0  0  0  0  0  0  0
   -0.6173   23.6456  -29.1058 H   0  0  0  0  0  0  0  0  0  0  0  0
    0.1528   22.3476  -31.0871 H   0  0  0  0  0  0  0  0  0  0  0  0
   -4.1398   18.4206  -33.1380 H   0  0  0  0  0  0  0  0  0  0  0  0
   -6.0333   19.1078  -30.6351 H   0  0  0  0  0  0  0  0  0  0  0  0
   -4.7279   18.8230  -31.8350 H   0  0  0  0  0  0  0  0  0  0  0  0
   -4.9424   21.2336  -31.2802 H   0  0  0  0  0  0  0  0  0  0  0  0
   -5.3597   20.8907  -33.0205 H   0  0  0  0  0  0  0  0  0  0  0  0
   -8.0687   22.5307  -30.3579 H   0  0  0  0  0  0  0  0  0  0  0  0
   -6.7465   21.4745  -29.7129 H   0  0  0  0  0  0  0  0  0  0  0  0
   -4.3003   22.1278  -30.6462 H   0  0  0  0  0  0  0  0  0  0  0  0
   -2.7681   24.1057  -30.6011 H   0  0  0  0  0  0  0  0  0  0  0  0
   -6.0937   26.7563  -30.3154 H   0  0  0  0  0  0  0  0  0  0  0  0
   -7.6817   24.8252  -30.3257 H   0  0  0  0  0  0  0  0  0  0  0  0
   -8.3949   20.0991  -30.9955 H   0  0  0  0  0  0  0  0  0  0  0  0
   -8.9769   21.1424  -32.3714 H   0  0  0  0  0  0  0  0  0  0  0  0
   -8.7558   18.7272  -32.9912 H   0  0  0  0  0  0  0  0  0  0  0  0
   -7.7168   19.8329  -33.9687 H   0  0  0  0  0  0  0  0  0  0  0  0
   -6.1191   14.5740  -33.0970 H   0  0  0  0  0  0  0  0  0  0  0  0
  1  2  1  0
  2  3  2  0
  3  4  1  0
  4  5  1  0
  5  6  1  0
  6  7  2  0
  7  8  1  0
  8  9  2  0
  9 10  1  0
 10 11  1  0
 10 12  1  0
 10 13  1  0
  9 14  1  0
 14 15  2  0
 15 16  1  0
 16 17  1  0
 17 18  2  0
 17 19  1  0
 19 20  1  0
 20 21  2  0
 21 22  1  0
 22 23  2  0
 23 24  1  0
 24 25  2  0
 24 26  1  0
 26 27  1  0
 27 28  1  0
 28 29  1  0
 29 30  1  0
 29 31  1  0
 31 32  1  0
 23 33  1  0
 33 34  2  0
  4 35  2  0
 35 36  1  0
 36 37  1  0
 37 38  2  0
 37 39  1  0
 39 40  1  0
 40 41  1  0
 41 42  1  0
 42 43  1  0
 43 44  1  0
 44 45  2  0
 45 46  1  0
 46 47  2  0
 47 48  1  0
 48 49  2  0
 42 50  1  0
 50 51  1  0
 36 52  2  0
 52  2  1  0
 15  6  1  0
 34 20  1  0
 51 39  1  0
 32 26  1  0
 49 44  1  0
  1 53  1  0
  1 54  1  0
  1 55  1  0
  3 56  1  0
  7 57  1  0
  8 58  1  0
 11 59  1  0
 11 60  1  0
 11 61  1  0
 12 62  1  0
 12 63  1  0
 12 64  1  0
 13 65  1  0
 13 66  1  0
 13 67  1  0
 14 68  1  0
 19 69  1  0
 21 70  1  0
 22 71  1  0
 27 72  1  0
 27 73  1  0
 28 74  1  0
 28 75  1  0
 30 76  1  0
 30 77  1  0
 30 78  1  0
 31 79  1  0
 31 80  1  0
 32 81  1  0
 32 82  1  0
 33 83  1  0
 34 84  1  0
 35 85  1  0
 40 86  1  0
 40 87  1  0
 41 88  1  0
 41 89  1  0
 43 90  1  0
 43 91  1  0
 45 92  1  0
 46 93  1  0
 48 94  1  0
 49 95  1  0
 50 96  1  0
 50 97  1  0
 51 98  1  0
 51 99  1  0
 52100  1  0
M  CHG  1  16  -1
M  END
>  <UniqueID>  (35) 
33

>  <SMILES>  (35) 
Cc1cc(Oc2ccc(C(C)(C)C)cc2[N-]C(=O)Nc2ccc(C(=O)N3CCN(C)CC3)cc2)cc(C(=O)N2CCN(Cc3ccncc3)CC2)c1

>  <Energy>  (35) 
146.6417371647646

>  <Genealogy>  (35) 
Cc1cc(Oc2ccc(C(C)(C)C)cc2[N-]C(=O)Nc2ccc(C(=O)N3CCN(C)CC3)cc2)cc(C(=O)N2CCN(Cc3ccncc3)CC2)c1 (protonated)
Cc1cc(Oc2ccc(C(C)(C)C)cc2[N-]C(=O)Nc2ccc(C(=O)N3CCN(C)CC3)cc2)cc(C(=O)N2CCN(Cc3ccncc3)CC2)c1 (3D coordinates assigned)
Cc1cc(Oc2ccc(C(C)(C)C)cc2[N-]C(=O)Nc2ccc(C(=O)N3CCN(C)CC3)cc2)cc(C(=O)N2CCN(Cc3ccncc3)CC2)c1 (nonaromatic ring conformer: 146.6417371647646 kcal/mol)

>  <smiles>  (35) 
Cc1cc(Oc2ccc(C(C)(C)C)cc2NC(=O)Nc2ccc(C(=O)N3CCN(C)CC3)cc2)cc(C(=O)N2CCN(Cc3ccncc3)CC2)c1

>  <score_type>  (35) 
oracle

>  <origin>  (35) 
adgpu

>  <m_score__min__energy>  (35) 
-13.81

>  <m_primary>  (35) 
energy

$$$$
35:0
     RDKit          3D

 59 61  0  0  0  0  0  0  0  0999 V2000
   -3.5810   15.8040  -35.1960 C   0  0  0  0  0  0  0  0  0  0  0  0
   -4.5390   17.1380  -34.5140 S   0  0  0  0  0  0  0  0  0  0  0  0
   -3.6120   18.1590  -33.9170 O   0  0  0  0  0  0  0  0  0  0  0  0
   -5.3490   17.7730  -35.6100 O   0  0  0  0  0  0  0  0  0  0  0  0
   -5.5930   16.5040  -33.2880 N   0  0  0  0  0  0  0  0  0  0  0  0
   -6.8540   17.2440  -33.2890 C   0  0  0  0  0  0  0  0  0  0  0  0
   -6.7010   18.5460  -32.4820 C   0  0  0  0  0  0  0  0  0  0  0  0
   -7.9810   18.8770  -31.6710 C   0  0  0  0  0  0  0  0  0  0  0  0
   -8.8840   19.8760  -32.4130 C   0  0  0  0  0  0  0  0  0  0  0  0
   -8.1970   21.1540  -32.7270 N   0  0  0  0  0  0  0  0  0  0  0  0
   -8.6520   22.4220  -31.6110 S   0  0  0  0  0  0  0  0  0  0  0  0
   -9.6240   21.8740  -30.6040 O   0  0  0  0  0  0  0  0  0  0  0  0
   -9.3360   23.5300  -32.3630 O   0  0  0  0  0  0  0  0  0  0  0  0
   -7.2460   23.0750  -30.7660 C   0  0  0  0  0  0  0  0  0  0  0  0
   -6.9070   24.4280  -30.8970 C   0  0  0  0  0  0  0  0  0  0  0  0
   -5.7790   24.9380  -30.2490 C   0  0  0  0  0  0  0  0  0  0  0  0
   -4.9640   24.0990  -29.4750 C   0  0  0  0  0  0  0  0  0  0  0  0
   -3.8160   24.6490  -28.8070 N   0  0  0  0  0  0  0  0  0  0  0  0
   -3.6860   24.7260  -27.3780 C   0  0  0  0  0  0  0  0  0  0  0  0
   -4.3690   23.9710  -26.6380 O   0  0  0  0  0  0  0  0  0  0  0  0
   -2.7090   25.5840  -26.7780 N   0  0  0  0  0  0  0  0  0  0  0  0
   -1.4920   25.1620  -26.1420 C   0  0  0  0  0  0  0  0  0  0  0  0
   -1.3410   25.2510  -24.7460 C   0  0  0  0  0  0  0  0  0  0  0  0
   -0.1670   24.8090  -24.1320 C   0  0  0  0  0  0  0  0  0  0  0  0
    0.8590   24.2570  -24.9010 C   0  0  0  0  0  0  0  0  0  0  0  0
    0.7090   24.1370  -26.2840 C   0  0  0  0  0  0  0  0  0  0  0  0
   -0.4630   24.5830  -26.9140 C   0  0  0  0  0  0  0  0  0  0  0  0
   -0.6310   24.4120  -28.6660 S   0  0  0  0  0  0  0  0  0  0  0  0
   -1.2370   25.8850  -29.3370 N   0  0  0  0  0  0  0  0  0  0  0  0
   -1.5890   23.2990  -28.9870 O   0  0  0  0  0  0  0  0  0  0  0  0
    0.7030   24.0870  -29.2750 O   0  0  0  0  0  0  0  0  0  0  0  0
   -5.3210   22.7480  -29.3230 C   0  0  0  0  0  0  0  0  0  0  0  0
   -6.4540   22.2410  -29.9660 C   0  0  0  0  0  0  0  0  0  0  0  0
   -6.7240   21.0550  -32.8240 C   0  0  0  0  0  0  0  0  0  0  0  0
   -6.2930   19.7110  -33.4150 C   0  0  0  0  0  0  0  0  0  0  0  0
   -3.1515   15.2059  -34.3788 H   0  0  0  0  0  0  0  0  0  0  0  0
   -4.2290   15.1666  -35.8155 H   0  0  0  0  0  0  0  0  0  0  0  0
   -2.7700   16.2144  -35.8155 H   0  0  0  0  0  0  0  0  0  0  0  0
   -7.1323   17.4880  -34.3248 H   0  0  0  0  0  0  0  0  0  0  0  0
   -7.6371   16.6237  -32.8286 H   0  0  0  0  0  0  0  0  0  0  0  0
   -5.8964   18.3992  -31.7464 H   0  0  0  0  0  0  0  0  0  0  0  0
   -8.5439   17.9477  -31.4991 H   0  0  0  0  0  0  0  0  0  0  0  0
   -7.6741   19.3349  -30.7191 H   0  0  0  0  0  0  0  0  0  0  0  0
   -9.2165   19.4157  -33.3551 H   0  0  0  0  0  0  0  0  0  0  0  0
   -9.7303   20.1106  -31.7506 H   0  0  0  0  0  0  0  0  0  0  0  0
   -7.5316   25.0918  -31.5128 H   0  0  0  0  0  0  0  0  0  0  0  0
   -5.5285   26.0046  -30.3465 H   0  0  0  0  0  0  0  0  0  0  0  0
   -2.9930   24.9290  -29.3880 H   0  0  0  0  0  0  0  0  0  0  0  0
   -2.1528   25.6714  -24.1342 H   0  0  0  0  0  0  0  0  0  0  0  0
   -0.0507   24.8959  -23.0416 H   0  0  0  0  0  0  0  0  0  0  0  0
    1.7863   23.9163  -24.4171 H   0  0  0  0  0  0  0  0  0  0  0  0
    1.5152   23.6897  -26.8840 H   0  0  0  0  0  0  0  0  0  0  0  0
   -2.1900   26.0370  -28.9380 H   0  0  0  0  0  0  0  0  0  0  0  0
   -4.7059   22.0866  -28.6951 H   0  0  0  0  0  0  0  0  0  0  0  0
   -6.7250   21.1820  -29.8432 H   0  0  0  0  0  0  0  0  0  0  0  0
   -6.3524   21.8652  -33.4686 H   0  0  0  0  0  0  0  0  0  0  0  0
   -6.3037   21.1387  -31.8109 H   0  0  0  0  0  0  0  0  0  0  0  0
   -6.7762   19.5756  -34.3939 H   0  0  0  0  0  0  0  0  0  0  0  0
   -5.1986   19.7084  -33.5254 H   0  0  0  0  0  0  0  0  0  0  0  0
  1  2  1  0
  2  3  2  0
  2  4  2  0
  2  5  1  0
  5  6  1  0
  6  7  1  0
  7  8  1  0
  8  9  1  0
  9 10  1  0
 10 11  1  0
 11 12  2  0
 11 13  2  0
 11 14  1  0
 14 15  2  0
 15 16  1  0
 16 17  2  0
 17 18  1  0
 18 19  1  0
 19 20  2  0
 19 21  1  0
 21 22  1  0
 22 23  2  0
 23 24  1  0
 24 25  2  0
 25 26  1  0
 26 27  2  0
 27 28  1  0
 28 29  1  0
 28 30  2  0
 28 31  2  0
 17 32  1  0
 32 33  2  0
 10 34  1  0
 34 35  1  0
 35  7  1  0
 33 14  1  0
 27 22  1  0
  1 36  1  0
  1 37  1  0
  1 38  1  0
  6 39  1  0
  6 40  1  0
  7 41  1  0
  8 42  1  0
  8 43  1  0
  9 44  1  0
  9 45  1  0
 15 46  1  0
 16 47  1  0
 18 48  1  0
 23 49  1  0
 24 50  1  0
 25 51  1  0
 26 52  1  0
 29 53  1  0
 32 54  1  0
 33 55  1  0
 34 56  1  0
 34 57  1  0
 35 58  1  0
 35 59  1  0
M  CHG  3   5  -1  21  -1  29  -1
M  END
>  <UniqueID>  (36) 
34

>  <SMILES>  (36) 
CS(=O)(=O)[N-]CC1CCN(S(=O)(=O)c2ccc(NC(=O)[N-]c3ccccc3S([NH-])(=O)=O)cc2)CC1

>  <Energy>  (36) 
65.56425693276326

>  <Genealogy>  (36) 
CS(=O)(=O)[N-]CC1CCN(S(=O)(=O)c2ccc(NC(=O)[N-]c3ccccc3S([NH-])(=O)=O)cc2)CC1 (protonated)
CS(=O)(=O)[N-]CC1CCN(S(=O)(=O)c2ccc(NC(=O)[N-]c3ccccc3S([NH-])(=O)=O)cc2)CC1 (3D coordinates assigned)
CS(=O)(=O)[N-]CC1CCN(S(=O)(=O)c2ccc(NC(=O)[N-]c3ccccc3S([NH-])(=O)=O)cc2)CC1 (nonaromatic ring conformer: 65.56425693276326 kcal/mol)

>  <smiles>  (36) 
CS(=O)(=O)NCC1CCN(S(=O)(=O)c2ccc(NC(=O)Nc3ccccc3S(N)(=O)=O)cc2)CC1

>  <score_type>  (36) 
oracle

>  <origin>  (36) 
adgpu

>  <m_score__min__energy>  (36) 
-13.41

>  <m_primary>  (36) 
energy

$$$$
36:0
     RDKit          3D

 41 43  0  0  0  0  0  0  0  0999 V2000
   -1.4710   21.9600  -30.4650 O   0  0  0  0  0  0  0  0  0  0  0  0
   -2.3930   22.8020  -30.2790 C   0  0  0  0  0  0  0  0  0  0  0  0
   -3.3450   23.0580  -31.3210 N   0  0  0  0  0  0  0  0  0  0  0  0
   -4.6990   23.5000  -31.1480 C   0  0  0  0  0  0  0  0  0  0  0  0
   -5.7900   22.6360  -31.3530 C   0  0  0  0  0  0  0  0  0  0  0  0
   -7.1030   23.0940  -31.1690 C   0  0  0  0  0  0  0  0  0  0  0  0
   -8.4620   22.0050  -31.4400 S   0  0  0  0  0  0  0  0  0  0  0  0
   -9.0030   21.5690  -30.1070 O   0  0  0  0  0  0  0  0  0  0  0  0
   -9.5400   22.7210  -32.2060 O   0  0  0  0  0  0  0  0  0  0  0  0
   -7.9320   20.6100  -32.3490 N   0  0  0  0  0  0  0  0  0  0  0  0
   -9.0760   19.7440  -32.7190 C   0  0  0  0  0  0  0  0  0  0  0  0
   -9.1120   18.4430  -31.8980 C   0  0  0  0  0  0  0  0  0  0  0  0
   -7.9270   17.6720  -32.0280 O   0  0  0  0  0  0  0  0  0  0  0  0
   -6.7410   18.4520  -32.1180 C   0  0  0  0  0  0  0  0  0  0  0  0
   -6.8850   19.8920  -31.5990 C   0  0  0  0  0  0  0  0  0  0  0  0
   -7.3260   24.4100  -30.7480 C   0  0  0  0  0  0  0  0  0  0  0  0
   -6.2450   25.2640  -30.5130 C   0  0  0  0  0  0  0  0  0  0  0  0
   -4.9360   24.8100  -30.7070 C   0  0  0  0  0  0  0  0  0  0  0  0
   -3.8700   25.6710  -30.4650 O   0  0  0  0  0  0  0  0  0  0  0  0
   -2.4500   23.5590  -29.0020 C   0  0  0  0  0  0  0  0  0  0  0  0
   -3.5950   23.4670  -28.1840 C   0  0  0  0  0  0  0  0  0  0  0  0
   -3.6710   24.1720  -26.9810 C   0  0  0  0  0  0  0  0  0  0  0  0
   -2.6090   24.9790  -26.5740 C   0  0  0  0  0  0  0  0  0  0  0  0
   -1.4690   25.0860  -27.3700 C   0  0  0  0  0  0  0  0  0  0  0  0
   -1.3820   24.3830  -28.5780 C   0  0  0  0  0  0  0  0  0  0  0  0
   -0.2560   24.5210  -29.3220 F   0  0  0  0  0  0  0  0  0  0  0  0
   -5.6124   21.5946  -31.6595 H   0  0  0  0  0  0  0  0  0  0  0  0
  -10.0101   20.2982  -32.5451 H   0  0  0  0  0  0  0  0  0  0  0  0
   -8.9628   19.4707  -33.7785 H   0  0  0  0  0  0  0  0  0  0  0  0
   -9.2474   18.7015  -30.8374 H   0  0  0  0  0  0  0  0  0  0  0  0
   -9.9441   17.8346  -32.2819 H   0  0  0  0  0  0  0  0  0  0  0  0
   -5.9557   17.9523  -31.5319 H   0  0  0  0  0  0  0  0  0  0  0  0
   -6.4963   18.5276  -33.1878 H   0  0  0  0  0  0  0  0  0  0  0  0
   -7.1560   19.8671  -30.5332 H   0  0  0  0  0  0  0  0  0  0  0  0
   -5.9276   20.4162  -31.7352 H   0  0  0  0  0  0  0  0  0  0  0  0
   -8.3541   24.7728  -30.6018 H   0  0  0  0  0  0  0  0  0  0  0  0
   -6.4237   26.2953  -30.1748 H   0  0  0  0  0  0  0  0  0  0  0  0
   -4.4376   22.8329  -28.4970 H   0  0  0  0  0  0  0  0  0  0  0  0
   -4.5705   24.0906  -26.3531 H   0  0  0  0  0  0  0  0  0  0  0  0
   -2.6706   25.5314  -25.6247 H   0  0  0  0  0  0  0  0  0  0  0  0
   -0.6342   25.7256  -27.0475 H   0  0  0  0  0  0  0  0  0  0  0  0
  1  2  2  0
  2  3  1  0
  3  4  1  0
  4  5  2  0
  5  6  1  0
  6  7  1  0
  7  8  2  0
  7  9  2  0
  7 10  1  0
 10 11  1  0
 11 12  1  0
 12 13  1  0
 13 14  1  0
 14 15  1  0
  6 16  2  0
 16 17  1  0
 17 18  2  0
 18 19  1  0
  2 20  1  0
 20 21  2  0
 21 22  1  0
 22 23  2  0
 23 24  1  0
 24 25  2  0
 25 26  1  0
 18  4  1  0
 25 20  1  0
 15 10  1  0
  5 27  1  0
 11 28  1  0
 11 29  1  0
 12 30  1  0
 12 31  1  0
 14 32  1  0
 14 33  1  0
 15 34  1  0
 15 35  1  0
 16 36  1  0
 17 37  1  0
 21 38  1  0
 22 39  1  0
 23 40  1  0
 24 41  1  0
M  CHG  2   3  -1  19  -1
M  END
>  <UniqueID>  (37) 
35

>  <SMILES>  (37) 
O=C([N-]c1cc(S(=O)(=O)N2CCOCC2)ccc1[O-])c1ccccc1F

>  <Energy>  (37) 
60.64891761689816

>  <Genealogy>  (37) 
O=C([N-]c1cc(S(=O)(=O)N2CCOCC2)ccc1[O-])c1ccccc1F (protonated)
O=C([N-]c1cc(S(=O)(=O)N2CCOCC2)ccc1[O-])c1ccccc1F (3D coordinates assigned)
O=C([N-]c1cc(S(=O)(=O)N2CCOCC2)ccc1[O-])c1ccccc1F (nonaromatic ring conformer: 60.64891761689816 kcal/mol)

>  <smiles>  (37) 
O=C(Nc1cc(S(=O)(=O)N2CCOCC2)ccc1O)c1ccccc1F

>  <score_type>  (37) 
oracle

>  <origin>  (37) 
adgpu

>  <m_score__min__energy>  (37) 
-12.460000000000001

>  <m_primary>  (37) 
energy

$$$$
37:0
     RDKit          3D

 36 38  0  0  0  0  0  0  0  0999 V2000
   -4.5220   22.3770  -30.3030 H   0  0  0  0  0  0  0  0  0  0  0  0
   -5.4330   22.0740  -29.9940 O   0  0  0  0  0  0  0  0  0  0  0  0
   -6.5630   21.9590  -30.8130 C   0  0  0  0  0  0  0  0  0  0  0  0
   -7.4390   23.0640  -30.8880 C   0  0  0  0  0  0  0  0  0  0  0  0
   -7.1680   24.3150  -30.1470 C   0  0  0  0  0  0  0  0  0  0  0  0
   -8.0126   24.7934  -29.6295 H   0  0  0  0  0  0  0  0  0  0  0  0
   -5.9680   24.9100  -30.0590 C   0  0  0  0  0  0  0  0  0  0  0  0
   -5.8837   25.7809  -29.3923 H   0  0  0  0  0  0  0  0  0  0  0  0
   -4.7520   24.4910  -30.7840 C   0  0  0  0  0  0  0  0  0  0  0  0
   -4.8320   23.7920  -31.8300 O   0  0  0  0  0  0  0  0  0  0  0  0
   -3.4810   24.9660  -30.3290 N   0  0  0  0  0  0  0  0  0  0  0  0
   -2.6500   24.3430  -29.3390 C   0  0  0  0  0  0  0  0  0  0  0  0
   -2.9550   23.0730  -28.8100 C   0  0  0  0  0  0  0  0  0  0  0  0
   -3.8392   22.5271  -29.1709 H   0  0  0  0  0  0  0  0  0  0  0  0
   -2.1380   22.5040  -27.8280 C   0  0  0  0  0  0  0  0  0  0  0  0
   -2.4360   21.2810  -27.3240 F   0  0  0  0  0  0  0  0  0  0  0  0
   -1.0230   23.1990  -27.3560 C   0  0  0  0  0  0  0  0  0  0  0  0
   -0.3775   22.7469  -26.5885 H   0  0  0  0  0  0  0  0  0  0  0  0
   -0.7270   24.4680  -27.8580 C   0  0  0  0  0  0  0  0  0  0  0  0
    0.1480   25.0171  -27.4801 H   0  0  0  0  0  0  0  0  0  0  0  0
   -1.5410   25.0430  -28.8410 C   0  0  0  0  0  0  0  0  0  0  0  0
   -1.2390   26.3110  -29.3270 O   0  0  0  0  0  0  0  0  0  0  0  0
   -8.6290   22.9670  -31.6160 C   0  0  0  0  0  0  0  0  0  0  0  0
   -9.3275   23.8166  -31.6335 H   0  0  0  0  0  0  0  0  0  0  0  0
   -8.9380   21.8070  -32.3180 C   0  0  0  0  0  0  0  0  0  0  0  0
   -9.8749   21.7478  -32.8913 H   0  0  0  0  0  0  0  0  0  0  0  0
   -8.0630   20.7140  -32.2990 C   0  0  0  0  0  0  0  0  0  0  0  0
   -8.3820   19.5560  -33.0250 C   0  0  0  0  0  0  0  0  0  0  0  0
   -9.3173   19.5121  -33.6023 H   0  0  0  0  0  0  0  0  0  0  0  0
   -7.5190   18.4610  -33.0180 C   0  0  0  0  0  0  0  0  0  0  0  0
   -7.7749   17.5557  -33.5880 H   0  0  0  0  0  0  0  0  0  0  0  0
   -6.3320   18.5130  -32.2890 C   0  0  0  0  0  0  0  0  0  0  0  0
   -5.6535   17.6472  -32.2881 H   0  0  0  0  0  0  0  0  0  0  0  0
   -5.9980   19.6560  -31.5600 C   0  0  0  0  0  0  0  0  0  0  0  0
   -5.0567   19.6844  -30.9916 H   0  0  0  0  0  0  0  0  0  0  0  0
   -6.8590   20.7770  -31.5460 C   0  0  0  0  0  0  0  0  0  0  0  0
  1  2  1  0
  2  3  1  0
  3  4  2  0
  4  5  1  0
  5  6  1  0
  5  7  2  0
  7  8  1  0
  7  9  1  0
  9 10  2  0
  9 11  1  0
 11 12  1  0
 12 13  2  0
 13 14  1  0
 13 15  1  0
 15 16  1  0
 15 17  2  0
 17 18  1  0
 17 19  1  0
 19 20  1  0
 19 21  2  0
 21 22  1  0
  4 23  1  0
 23 24  1  0
 23 25  2  0
 25 26  1  0
 25 27  1  0
 27 28  2  0
 28 29  1  0
 28 30  1  0
 30 31  1  0
 30 32  2  0
 32 33  1  0
 32 34  1  0
 34 35  1  0
 34 36  2  0
 36  3  1  0
 21 12  1  0
 36 27  1  0
M  CHG  2  11  -1  22  -1
M  END
>  <UniqueID>  (38) 
36

>  <SMILES>  (38) 
O=C(/C=C\c1ccc2ccccc2c1O)[N-]c1cc(F)ccc1[O-]

>  <Energy>  (38) 
57.10591909770725

>  <Genealogy>  (38) 
O=C(C=Cc1ccc2ccccc2c1O)[N-]c1cc(F)ccc1[O-] (protonated)
O=C(/C=C\c1ccc2ccccc2c1O)[N-]c1cc(F)ccc1[O-] (cis-trans isomerization)
O=C(/C=C\c1ccc2ccccc2c1O)[N-]c1cc(F)ccc1[O-] (3D coordinates assigned)
O=C(/C=C\c1ccc2ccccc2c1O)[N-]c1cc(F)ccc1[O-] (optimized conformer: 57.10591909770725 kcal/mol)

>  <smiles>  (38) 
O=C(C=Cc1ccc2ccccc2c1O)Nc1cc(F)ccc1O

>  <score_type>  (38) 
oracle

>  <origin>  (38) 
adgpu

>  <m_score__min__energy>  (38) 
-12.83

>  <m_primary>  (38) 
energy

$$$$
38:0
     RDKit          3D

 34 36  0  0  0  0  0  0  0  0999 V2000
   -5.6210   18.8400  -31.1410 O   0  0  0  0  0  0  0  0  0  0  0  0
   -6.9120   18.7320  -31.9030 S   0  0  0  0  0  0  0  0  0  0  0  0
   -7.7770   17.6880  -31.2520 O   0  0  0  0  0  0  0  0  0  0  0  0
   -7.7150   20.3040  -31.8590 C   0  0  0  0  0  0  0  0  0  0  0  0
   -9.1140   20.3960  -31.9600 C   0  0  0  0  0  0  0  0  0  0  0  0
   -9.7540   21.6460  -31.9390 C   0  0  0  0  0  0  0  0  0  0  0  0
   -9.0120   22.8260  -31.8150 C   0  0  0  0  0  0  0  0  0  0  0  0
   -7.6220   22.7500  -31.7130 C   0  0  0  0  0  0  0  0  0  0  0  0
   -6.8340   23.8470  -31.5950 N   0  0  0  0  0  0  0  0  0  0  0  0
   -5.3460   23.1310  -31.5230 S   0  0  0  0  0  0  0  0  0  0  0  0
   -5.6140   21.5030  -31.6290 N   0  0  0  0  0  0  0  0  0  0  0  0
   -6.9680   21.4860  -31.7320 C   0  0  0  0  0  0  0  0  0  0  0  0
   -6.5890   18.2750  -33.5580 N   0  0  0  0  0  0  0  0  0  0  0  0
   -5.9700   16.9340  -33.5850 C   0  0  0  0  0  0  0  0  0  0  0  0
   -4.7680   16.8290  -34.5420 C   0  0  0  0  0  0  0  0  0  0  0  0
   -3.4330   17.2960  -33.9320 C   0  0  0  0  0  0  0  0  0  0  0  0
   -3.2310   18.8260  -33.8620 C   0  0  0  0  0  0  0  0  0  0  0  0
   -4.4740   19.6150  -33.4050 C   0  0  0  0  0  0  0  0  0  0  0  0
   -5.7560   19.3020  -34.2180 C   0  0  0  0  0  0  0  0  0  0  0  0
   -9.7140   19.4791  -32.0565 H   0  0  0  0  0  0  0  0  0  0  0  0
  -10.8497   21.6980  -32.0209 H   0  0  0  0  0  0  0  0  0  0  0  0
   -9.5184   23.8023  -31.7981 H   0  0  0  0  0  0  0  0  0  0  0  0
   -5.6280   16.6883  -32.5688 H   0  0  0  0  0  0  0  0  0  0  0  0
   -6.7350   16.2328  -33.9498 H   0  0  0  0  0  0  0  0  0  0  0  0
   -4.6595   15.7773  -34.8455 H   0  0  0  0  0  0  0  0  0  0  0  0
   -4.9793   17.4974  -35.3897 H   0  0  0  0  0  0  0  0  0  0  0  0
   -3.3715   16.8992  -32.9079 H   0  0  0  0  0  0  0  0  0  0  0  0
   -2.6470   16.9187  -34.6027 H   0  0  0  0  0  0  0  0  0  0  0  0
   -2.4139   19.0326  -33.1551 H   0  0  0  0  0  0  0  0  0  0  0  0
   -3.0083   19.1592  -34.8864 H   0  0  0  0  0  0  0  0  0  0  0  0
   -4.6671   19.3743  -32.3492 H   0  0  0  0  0  0  0  0  0  0  0  0
   -4.2498   20.6802  -33.5636 H   0  0  0  0  0  0  0  0  0  0  0  0
   -6.3453   20.2249  -34.3224 H   0  0  0  0  0  0  0  0  0  0  0  0
   -5.4506   18.9138  -35.2009 H   0  0  0  0  0  0  0  0  0  0  0  0
  1  2  2  0
  2  3  2  0
  2  4  1  0
  4  5  2  0
  5  6  1  0
  6  7  2  0
  7  8  1  0
  8  9  2  0
  9 10  1  0
 10 11  1  0
 11 12  2  0
  2 13  1  0
 13 14  1  0
 14 15  1  0
 15 16  1  0
 16 17  1  0
 17 18  1  0
 18 19  1  0
 12  4  1  0
 19 13  1  0
 12  8  1  0
  5 20  1  0
  6 21  1  0
  7 22  1  0
 14 23  1  0
 14 24  1  0
 15 25  1  0
 15 26  1  0
 16 27  1  0
 16 28  1  0
 17 29  1  0
 17 30  1  0
 18 31  1  0
 18 32  1  0
 19 33  1  0
 19 34  1  0
M  END
>  <UniqueID>  (39) 
37

>  <SMILES>  (39) 
O=S(=O)(c1cccc2nsnc12)N1CCCCCC1

>  <Energy>  (39) 
80.00865557243253

>  <Genealogy>  (39) 
O=S(=O)(c1cccc2nsnc12)N1CCCCCC1 (3D coordinates assigned)
O=S(=O)(c1cccc2nsnc12)N1CCCCCC1 (nonaromatic ring conformer: 80.00865557243253 kcal/mol)

>  <smiles>  (39) 
O=S(=O)(c1cccc2nsnc12)N1CCCCCC1

>  <score_type>  (39) 
oracle

>  <origin>  (39) 
adgpu

>  <m_score__min__energy>  (39) 
-5.9100000000000001

>  <m_primary>  (39) 
energy

$$$$
39:0
     RDKit          3D

 41 44  0  0  0  0  0  0  0  0999 V2000
   -5.8650   18.2000  -34.4140 C   0  0  0  0  0  0  0  0  0  0  0  0
   -5.9090   19.4290  -33.5730 C   0  0  0  0  0  0  0  0  0  0  0  0
   -7.0640   20.0100  -33.1650 N   0  0  0  0  0  0  0  0  0  0  0  0
   -6.8150   21.1470  -32.4670 C   0  0  0  0  0  0  0  0  0  0  0  0
   -7.8010   21.9590  -31.9070 C   0  0  0  0  0  0  0  0  0  0  0  0
   -7.4070   23.1100  -31.2030 C   0  0  0  0  0  0  0  0  0  0  0  0
   -6.0400   23.4390  -31.0690 C   0  0  0  0  0  0  0  0  0  0  0  0
   -5.5780   24.8570  -30.1320 S   0  0  0  0  0  0  0  0  0  0  0  0
   -6.8070   25.6790  -29.8640 O   0  0  0  0  0  0  0  0  0  0  0  0
   -4.5840   25.6960  -30.8850 O   0  0  0  0  0  0  0  0  0  0  0  0
   -4.8770   24.3580  -28.6250 N   0  0  0  0  0  0  0  0  0  0  0  0
   -3.7120   23.5170  -28.5390 C   0  0  0  0  0  0  0  0  0  0  0  0
   -3.7970   22.2050  -28.0410 C   0  0  0  0  0  0  0  0  0  0  0  0
   -2.6520   21.4040  -27.9240 C   0  0  0  0  0  0  0  0  0  0  0  0
   -1.4080   21.8980  -28.3640 C   0  0  0  0  0  0  0  0  0  0  0  0
   -1.3230   23.2030  -28.8680 C   0  0  0  0  0  0  0  0  0  0  0  0
   -2.4620   24.0060  -28.9600 C   0  0  0  0  0  0  0  0  0  0  0  0
   -2.3420   25.2980  -29.4610 O   0  0  0  0  0  0  0  0  0  0  0  0
   -0.1500   21.0770  -28.2030 C   0  0  0  0  0  0  0  0  0  0  0  0
   -0.4320   19.6400  -28.0760 N   0  0  0  0  0  0  0  0  0  0  0  0
   -1.4290   19.3960  -27.0270 C   0  0  0  0  0  0  0  0  0  0  0  0
   -2.7880   19.9940  -27.4130 C   0  0  0  0  0  0  0  0  0  0  0  0
   -5.0580   22.6120  -31.6460 C   0  0  0  0  0  0  0  0  0  0  0  0
   -5.4770   21.4770  -32.3340 C   0  0  0  0  0  0  0  0  0  0  0  0
   -4.5430   20.3180  -33.1090 S   0  0  0  0  0  0  0  0  0  0  0  0
   -5.8332   17.3125  -33.7649 H   0  0  0  0  0  0  0  0  0  0  0  0
   -6.7622   18.1579  -35.0490 H   0  0  0  0  0  0  0  0  0  0  0  0
   -4.9671   18.2222  -35.0490 H   0  0  0  0  0  0  0  0  0  0  0  0
   -8.8656   21.7038  -32.0141 H   0  0  0  0  0  0  0  0  0  0  0  0
   -8.1706   23.7608  -30.7521 H   0  0  0  0  0  0  0  0  0  0  0  0
   -5.4190   24.5780  -27.7590 H   0  0  0  0  0  0  0  0  0  0  0  0
   -4.7748   21.8014  -27.7391 H   0  0  0  0  0  0  0  0  0  0  0  0
   -0.3498   23.5986  -29.1943 H   0  0  0  0  0  0  0  0  0  0  0  0
    0.4902   21.2350  -29.0834 H   0  0  0  0  0  0  0  0  0  0  0  0
    0.3485   21.4043  -27.2787 H   0  0  0  0  0  0  0  0  0  0  0  0
   -0.8010   19.2840  -28.9900 H   0  0  0  0  0  0  0  0  0  0  0  0
   -1.5410   18.3114  -26.8820 H   0  0  0  0  0  0  0  0  0  0  0  0
   -1.0857   19.8746  -26.0980 H   0  0  0  0  0  0  0  0  0  0  0  0
   -3.2406   19.3721  -28.1994 H   0  0  0  0  0  0  0  0  0  0  0  0
   -3.4209   20.0151  -26.5136 H   0  0  0  0  0  0  0  0  0  0  0  0
   -3.9892   22.8559  -31.5557 H   0  0  0  0  0  0  0  0  0  0  0  0
  1  2  1  0
  2  3  2  0
  3  4  1  0
  4  5  2  0
  5  6  1  0
  6  7  2  0
  7  8  1  0
  8  9  2  0
  8 10  2  0
  8 11  1  0
 11 12  1  0
 12 13  2  0
 13 14  1  0
 14 15  2  0
 15 16  1  0
 16 17  2  0
 17 18  1  0
 15 19  1  0
 19 20  1  0
 20 21  1  0
 21 22  1  0
  7 23  1  0
 23 24  2  0
 24 25  1  0
 25  2  1  0
 24  4  1  0
 17 12  1  0
 22 14  1  0
  1 26  1  0
  1 27  1  0
  1 28  1  0
  5 29  1  0
  6 30  1  0
 11 31  1  0
 13 32  1  0
 16 33  1  0
 19 34  1  0
 19 35  1  0
 20 36  1  0
 21 37  1  0
 21 38  1  0
 22 39  1  0
 22 40  1  0
 23 41  1  0
M  CHG  1  18  -1
M  END
>  <UniqueID>  (40) 
38

>  <SMILES>  (40) 
Cc1nc2ccc(S(=O)(=O)Nc3cc4c(cc3[O-])CNCC4)cc2s1

>  <Energy>  (40) 
82.00803008177257

>  <Genealogy>  (40) 
Cc1nc2ccc(S(=O)(=O)Nc3cc4c(cc3[O-])CNCC4)cc2s1 (protonated)
Cc1nc2ccc(S(=O)(=O)Nc3cc4c(cc3[O-])CNCC4)cc2s1 (3D coordinates assigned)
Cc1nc2ccc(S(=O)(=O)Nc3cc4c(cc3[O-])CNCC4)cc2s1 (nonaromatic ring conformer: 82.00803008177257 kcal/mol)

>  <smiles>  (40) 
Cc1nc2ccc(S(=O)(=O)Nc3cc4c(cc3O)CNCC4)cc2s1

>  <score_type>  (40) 
oracle

>  <origin>  (40) 
adgpu

>  <m_score__min__energy>  (40) 
-13.48

>  <m_primary>  (40) 
energy

$$$$
40:0
     RDKit          3D

 42 45  0  0  0  0  0  0  0  0999 V2000
   -1.9600   25.0030  -29.2420 O   0  0  0  0  0  0  0  0  0  0  0  0
   -2.3580   23.8060  -29.2400 C   0  0  0  0  0  0  0  0  0  0  0  0
   -1.6710   22.8410  -28.4770 C   0  0  0  0  0  0  0  0  0  0  0  0
   -0.5010   23.1950  -27.6340 C   0  0  0  0  0  0  0  0  0  0  0  0
    0.6380   23.7800  -28.2130 C   0  0  0  0  0  0  0  0  0  0  0  0
    1.7440   24.1060  -27.4250 C   0  0  0  0  0  0  0  0  0  0  0  0
    1.7300   23.8460  -26.0510 C   0  0  0  0  0  0  0  0  0  0  0  0
    2.8380   24.1770  -25.2800 O   0  0  0  0  0  0  0  0  0  0  0  0
    0.6020   23.2540  -25.4610 C   0  0  0  0  0  0  0  0  0  0  0  0
    0.5630   22.9780  -24.0950 O   0  0  0  0  0  0  0  0  0  0  0  0
   -0.5060   22.9290  -26.2530 C   0  0  0  0  0  0  0  0  0  0  0  0
   -2.1150   21.5130  -28.5310 C   0  0  0  0  0  0  0  0  0  0  0  0
   -3.1630   21.1740  -29.2720 O   0  0  0  0  0  0  0  0  0  0  0  0
   -3.8460   22.0520  -29.9970 C   0  0  0  0  0  0  0  0  0  0  0  0
   -4.9410   21.6120  -30.7470 C   0  0  0  0  0  0  0  0  0  0  0  0
   -5.6850   22.5170  -31.5230 C   0  0  0  0  0  0  0  0  0  0  0  0
   -6.7970   22.1250  -32.2870 O   0  0  0  0  0  0  0  0  0  0  0  0
   -7.6790   21.0480  -31.9700 C   0  0  0  0  0  0  0  0  0  0  0  0
   -7.1980   19.7610  -32.5880 C   0  0  0  0  0  0  0  0  0  0  0  0
   -6.3000   19.7790  -33.6690 C   0  0  0  0  0  0  0  0  0  0  0  0
   -5.8650   18.5800  -34.2420 C   0  0  0  0  0  0  0  0  0  0  0  0
   -6.3280   17.3580  -33.7480 C   0  0  0  0  0  0  0  0  0  0  0  0
   -7.2320   17.3330  -32.6810 C   0  0  0  0  0  0  0  0  0  0  0  0
   -7.6690   18.5290  -32.1050 C   0  0  0  0  0  0  0  0  0  0  0  0
   -5.3130   23.8640  -31.5450 C   0  0  0  0  0  0  0  0  0  0  0  0
   -4.2210   24.3220  -30.8010 C   0  0  0  0  0  0  0  0  0  0  0  0
   -3.8980   25.6740  -30.8560 O   0  0  0  0  0  0  0  0  0  0  0  0
   -3.4720   23.4170  -30.0140 C   0  0  0  0  0  0  0  0  0  0  0  0
    0.6586   23.9825  -29.2940 H   0  0  0  0  0  0  0  0  0  0  0  0
    2.6288   24.5687  -27.8865 H   0  0  0  0  0  0  0  0  0  0  0  0
    1.0770   23.5320  -23.4200 H   0  0  0  0  0  0  0  0  0  0  0  0
   -1.3881   22.4615  -25.7910 H   0  0  0  0  0  0  0  0  0  0  0  0
   -1.5879   20.7408  -27.9514 H   0  0  0  0  0  0  0  0  0  0  0  0
   -5.2223   20.5487  -30.7294 H   0  0  0  0  0  0  0  0  0  0  0  0
   -7.7237   20.9285  -30.8774 H   0  0  0  0  0  0  0  0  0  0  0  0
   -8.6764   21.2801  -32.3717 H   0  0  0  0  0  0  0  0  0  0  0  0
   -5.9383   20.7392  -34.0655 H   0  0  0  0  0  0  0  0  0  0  0  0
   -5.1568   18.5990  -35.0835 H   0  0  0  0  0  0  0  0  0  0  0  0
   -5.9818   16.4159  -34.1980 H   0  0  0  0  0  0  0  0  0  0  0  0
   -7.5994   16.3708  -32.2948 H   0  0  0  0  0  0  0  0  0  0  0  0
   -8.3847   18.5054  -31.2700 H   0  0  0  0  0  0  0  0  0  0  0  0
   -5.8879   24.5747  -32.1568 H   0  0  0  0  0  0  0  0  0  0  0  0
  1  2  2  0
  2  3  1  0
  3  4  1  0
  4  5  2  0
  5  6  1  0
  6  7  2  0
  7  8  1  0
  7  9  1  0
  9 10  1  0
  9 11  2  0
  3 12  2  0
 12 13  1  0
 13 14  1  0
 14 15  2  0
 15 16  1  0
 16 17  1  0
 17 18  1  0
 18 19  1  0
 19 20  2  0
 20 21  1  0
 21 22  2  0
 22 23  1  0
 23 24  2  0
 16 25  2  0
 25 26  1  0
 26 27  1  0
 26 28  2  0
 28  2  1  0
 11  4  1  0
 28 14  1  0
 24 19  1  0
  5 29  1  0
  6 30  1  0
 10 31  1  0
 11 32  1  0
 12 33  1  0
 15 34  1  0
 18 35  1  0
 18 36  1  0
 20 37  1  0
 21 38  1  0
 22 39  1  0
 23 40  1  0
 24 41  1  0
 25 42  1  0
M  CHG  2   8  -1  27  -1
M  END
>  <UniqueID>  (41) 
39

>  <SMILES>  (41) 
O=c1c(-c2ccc([O-])c(O)c2)coc2cc(OCc3ccccc3)cc([O-])c12

>  <Energy>  (41) 
60.97581987009648

>  <Genealogy>  (41) 
O=c1c(-c2ccc([O-])c(O)c2)coc2cc(OCc3ccccc3)cc([O-])c12 (protonated)
O=c1c(-c2ccc([O-])c(O)c2)coc2cc(OCc3ccccc3)cc([O-])c12 (3D coordinates assigned)
O=c1c(-c2ccc([O-])c(O)c2)coc2cc(OCc3ccccc3)cc([O-])c12 (optimized conformer: 60.97581987009648 kcal/mol)

>  <smiles>  (41) 
O=c1c(-c2ccc(O)c(O)c2)coc2cc(OCc3ccccc3)cc(O)c12

>  <score_type>  (41) 
oracle

>  <origin>  (41) 
adgpu

>  <m_score__min__energy>  (41) 
-11.66

>  <m_primary>  (41) 
energy

$$$$
41:0
     RDKit          3D

 52 55  0  0  0  0  0  0  0  0999 V2000
   -2.8110   17.3070  -33.2220 C   0  0  0  0  0  0  0  0  0  0  0  0
   -4.0270   17.3340  -34.0480 N   0  0  0  0  0  0  0  0  0  0  0  0
   -4.6510   18.6770  -33.9990 C   0  0  0  0  0  0  0  0  0  0  0  0
   -6.1180   18.6230  -34.4450 C   0  0  0  0  0  0  0  0  0  0  0  0
   -6.9390   17.7360  -33.5780 N   0  0  0  0  0  0  0  0  0  0  0  0
   -7.8840   18.6740  -32.4460 S   0  0  0  0  0  0  0  0  0  0  0  0
   -8.1850   17.8480  -31.2270 O   0  0  0  0  0  0  0  0  0  0  0  0
   -9.1840   19.0830  -33.0830 O   0  0  0  0  0  0  0  0  0  0  0  0
   -6.9820   20.1040  -31.9510 C   0  0  0  0  0  0  0  0  0  0  0  0
   -5.7600   19.9530  -31.2820 C   0  0  0  0  0  0  0  0  0  0  0  0
   -5.0230   21.0780  -30.9000 C   0  0  0  0  0  0  0  0  0  0  0  0
   -5.4930   22.3660  -31.1930 C   0  0  0  0  0  0  0  0  0  0  0  0
   -4.7220   23.5570  -30.7900 C   0  0  0  0  0  0  0  0  0  0  0  0
   -5.0950   24.8720  -30.9670 C   0  0  0  0  0  0  0  0  0  0  0  0
   -4.1200   25.6750  -30.5000 N   0  0  0  0  0  0  0  0  0  0  0  0
   -3.1310   24.9210  -30.0450 N   0  0  0  0  0  0  0  0  0  0  0  0
   -3.4660   23.6260  -30.2090 C   0  0  0  0  0  0  0  0  0  0  0  0
   -2.5360   22.4890  -29.8930 C   0  0  0  0  0  0  0  0  0  0  0  0
   -1.8490   21.9590  -31.1260 C   0  0  0  0  0  0  0  0  0  0  0  0
   -0.5130   21.5250  -31.0610 C   0  0  0  0  0  0  0  0  0  0  0  0
    0.1190   21.0080  -32.1960 C   0  0  0  0  0  0  0  0  0  0  0  0
   -0.5810   20.9050  -33.4010 C   0  0  0  0  0  0  0  0  0  0  0  0
   -1.9160   21.3110  -33.4720 C   0  0  0  0  0  0  0  0  0  0  0  0
   -2.5510   21.8290  -32.3390 C   0  0  0  0  0  0  0  0  0  0  0  0
   -6.7260   22.5150  -31.8460 C   0  0  0  0  0  0  0  0  0  0  0  0
   -7.4630   21.3900  -32.2310 C   0  0  0  0  0  0  0  0  0  0  0  0
   -6.1440   16.7210  -32.8470 C   0  0  0  0  0  0  0  0  0  0  0  0
   -4.9550   16.2320  -33.6850 C   0  0  0  0  0  0  0  0  0  0  0  0
   -3.0902   17.3132  -32.1581 H   0  0  0  0  0  0  0  0  0  0  0  0
   -2.2364   16.3959  -33.4450 H   0  0  0  0  0  0  0  0  0  0  0  0
   -2.1966   18.1917  -33.4450 H   0  0  0  0  0  0  0  0  0  0  0  0
   -4.6030   19.0577  -32.9681 H   0  0  0  0  0  0  0  0  0  0  0  0
   -4.1028   19.3413  -34.6833 H   0  0  0  0  0  0  0  0  0  0  0  0
   -6.5366   19.6396  -34.4083 H   0  0  0  0  0  0  0  0  0  0  0  0
   -6.1447   18.2143  -35.4659 H   0  0  0  0  0  0  0  0  0  0  0  0
   -7.6220   17.2310  -34.1900 H   0  0  0  0  0  0  0  0  0  0  0  0
   -5.3793   18.9459  -31.0566 H   0  0  0  0  0  0  0  0  0  0  0  0
   -4.0692   20.9519  -30.3667 H   0  0  0  0  0  0  0  0  0  0  0  0
   -6.0391   25.2116  -31.4180 H   0  0  0  0  0  0  0  0  0  0  0  0
   -1.7716   22.8422  -29.1852 H   0  0  0  0  0  0  0  0  0  0  0  0
   -3.1334   21.6728  -29.4607 H   0  0  0  0  0  0  0  0  0  0  0  0
    0.0382   21.5927  -30.1115 H   0  0  0  0  0  0  0  0  0  0  0  0
    1.1681   20.6821  -32.1403 H   0  0  0  0  0  0  0  0  0  0  0  0
   -0.0805   20.5039  -34.2946 H   0  0  0  0  0  0  0  0  0  0  0  0
   -2.4677   21.2231  -34.4196 H   0  0  0  0  0  0  0  0  0  0  0  0
   -3.6055   22.1368  -32.3960 H   0  0  0  0  0  0  0  0  0  0  0  0
   -7.1153   23.5221  -32.0564 H   0  0  0  0  0  0  0  0  0  0  0  0
   -8.4222   21.5152  -32.7547 H   0  0  0  0  0  0  0  0  0  0  0  0
   -5.7660   17.1658  -31.9146 H   0  0  0  0  0  0  0  0  0  0  0  0
   -6.7943   15.8600  -32.6328 H   0  0  0  0  0  0  0  0  0  0  0  0
   -4.4002   15.4793  -33.1056 H   0  0  0  0  0  0  0  0  0  0  0  0
   -5.3541   15.8082  -34.6184 H   0  0  0  0  0  0  0  0  0  0  0  0
  1  2  1  0
  2  3  1  0
  3  4  1  0
  4  5  1  0
  5  6  1  0
  6  7  2  0
  6  8  2  0
  6  9  1  0
  9 10  2  0
 10 11  1  0
 11 12  2  0
 12 13  1  0
 13 14  2  0
 14 15  1  0
 15 16  1  0
 16 17  2  0
 17 18  1  0
 18 19  1  0
 19 20  2  0
 20 21  1  0
 21 22  2  0
 22 23  1  0
 23 24  2  0
 12 25  1  0
 25 26  2  0
  5 27  1  0
 27 28  1  0
 28  2  1  0
 26  9  1  0
 17 13  1  0
 24 19  1  0
  1 29  1  0
  1 30  1  0
  1 31  1  0
  3 32  1  0
  3 33  1  0
  4 34  1  0
  4 35  1  0
  5 36  1  0
 10 37  1  0
 11 38  1  0
 14 39  1  0
 18 40  1  0
 18 41  1  0
 20 42  1  0
 21 43  1  0
 22 44  1  0
 23 45  1  0
 24 46  1  0
 25 47  1  0
 26 48  1  0
 27 49  1  0
 27 50  1  0
 28 51  1  0
 28 52  1  0
M  CHG  2   5   1  15  -1
M  END
>  <UniqueID>  (42) 
40

>  <SMILES>  (42) 
CN1CC[NH+](S(=O)(=O)c2ccc(-c3c[n-]nc3Cc3ccccc3)cc2)CC1

>  <Energy>  (42) 
98.63516491072575

>  <Genealogy>  (42) 
CN1CC[NH+](S(=O)(=O)c2ccc(-c3c[n-]nc3Cc3ccccc3)cc2)CC1 (protonated)
CN1CC[NH+](S(=O)(=O)c2ccc(-c3c[n-]nc3Cc3ccccc3)cc2)CC1 (3D coordinates assigned)
CN1CC[NH+](S(=O)(=O)c2ccc(-c3c[n-]nc3Cc3ccccc3)cc2)CC1 (nonaromatic ring conformer: 98.63516491072575 kcal/mol)

>  <smiles>  (42) 
CN1CCN(S(=O)(=O)c2ccc(-c3c[nH]nc3Cc3ccccc3)cc2)CC1

>  <score_type>  (42) 
oracle

>  <origin>  (42) 
adgpu

>  <m_score__min__energy>  (42) 
-10.470000000000001

>  <m_primary>  (42) 
energy

$$$$
42:0
     RDKit          3D

 38 40  0  0  0  0  0  0  0  0999 V2000
   -8.1590   18.1860  -31.4010 C   0  0  0  0  0  0  0  0  0  0  0  0
   -8.9820   19.0980  -31.9240 C   0  0  0  0  0  0  0  0  0  0  0  0
   -8.5870   19.9620  -33.0950 C   0  0  0  0  0  0  0  0  0  0  0  0
   -7.1780   20.4180  -33.0070 N   0  0  0  0  0  0  0  0  0  0  0  0
   -6.8540   21.6600  -32.4990 C   0  0  0  0  0  0  0  0  0  0  0  0
   -8.0920   22.8620  -31.9620 S   0  0  0  0  0  0  0  0  0  0  0  0
   -7.5950   22.8730  -30.2030 C   0  0  0  0  0  0  0  0  0  0  0  0
   -6.2270   23.4750  -30.0240 C   0  0  0  0  0  0  0  0  0  0  0  0
   -5.9270   24.7240  -30.5890 C   0  0  0  0  0  0  0  0  0  0  0  0
   -4.6410   25.2630  -30.4660 C   0  0  0  0  0  0  0  0  0  0  0  0
   -3.6480   24.5550  -29.7830 C   0  0  0  0  0  0  0  0  0  0  0  0
   -3.9390   23.3090  -29.2190 C   0  0  0  0  0  0  0  0  0  0  0  0
   -5.2240   22.7700  -29.3360 C   0  0  0  0  0  0  0  0  0  0  0  0
   -5.5580   22.0570  -32.4370 N   0  0  0  0  0  0  0  0  0  0  0  0
   -4.5460   21.2670  -32.8570 C   0  0  0  0  0  0  0  0  0  0  0  0
   -3.2220   21.7060  -32.7420 C   0  0  0  0  0  0  0  0  0  0  0  0
   -2.1760   20.8940  -33.1900 C   0  0  0  0  0  0  0  0  0  0  0  0
   -2.4510   19.6470  -33.7590 C   0  0  0  0  0  0  0  0  0  0  0  0
   -3.7720   19.2040  -33.8760 C   0  0  0  0  0  0  0  0  0  0  0  0
   -4.8310   20.0130  -33.4200 C   0  0  0  0  0  0  0  0  0  0  0  0
   -6.1770   19.6160  -33.5100 C   0  0  0  0  0  0  0  0  0  0  0  0
   -6.4600   18.5160  -34.0640 O   0  0  0  0  0  0  0  0  0  0  0  0
   -8.4861   17.5758  -30.5462 H   0  0  0  0  0  0  0  0  0  0  0  0
   -7.1538   18.0448  -31.8249 H   0  0  0  0  0  0  0  0  0  0  0  0
   -9.9830   19.2235  -31.4854 H   0  0  0  0  0  0  0  0  0  0  0  0
   -8.7143   19.3825  -34.0213 H   0  0  0  0  0  0  0  0  0  0  0  0
   -9.2309   20.8538  -33.0881 H   0  0  0  0  0  0  0  0  0  0  0  0
   -8.3240   23.4633  -29.6285 H   0  0  0  0  0  0  0  0  0  0  0  0
   -7.5661   21.8335  -29.8443 H   0  0  0  0  0  0  0  0  0  0  0  0
   -6.7053   25.2816  -31.1306 H   0  0  0  0  0  0  0  0  0  0  0  0
   -4.4118   26.2443  -30.9071 H   0  0  0  0  0  0  0  0  0  0  0  0
   -2.6370   24.9783  -29.6891 H   0  0  0  0  0  0  0  0  0  0  0  0
   -3.1564   22.7523  -28.6828 H   0  0  0  0  0  0  0  0  0  0  0  0
   -5.4508   21.7912  -28.8882 H   0  0  0  0  0  0  0  0  0  0  0  0
   -3.0047   22.6893  -32.2994 H   0  0  0  0  0  0  0  0  0  0  0  0
   -1.1351   21.2367  -33.0947 H   0  0  0  0  0  0  0  0  0  0  0  0
   -1.6260   19.0127  -34.1156 H   0  0  0  0  0  0  0  0  0  0  0  0
   -3.9845   18.2224  -34.3247 H   0  0  0  0  0  0  0  0  0  0  0  0
  1  2  2  0
  2  3  1  0
  3  4  1  0
  4  5  1  0
  5  6  1  0
  6  7  1  0
  7  8  1  0
  8  9  2  0
  9 10  1  0
 10 11  2  0
 11 12  1  0
 12 13  2  0
  5 14  2  0
 14 15  1  0
 15 16  2  0
 16 17  1  0
 17 18  2  0
 18 19  1  0
 19 20  2  0
 20 21  1  0
 21 22  2  0
 21  4  1  0
 13  8  1  0
 20 15  1  0
  1 23  1  0
  1 24  1  0
  2 25  1  0
  3 26  1  0
  3 27  1  0
  7 28  1  0
  7 29  1  0
  9 30  1  0
 10 31  1  0
 11 32  1  0
 12 33  1  0
 13 34  1  0
 16 35  1  0
 17 36  1  0
 18 37  1  0
 19 38  1  0
M  END
>  <UniqueID>  (43) 
41

>  <SMILES>  (43) 
C=CCn1c(SCc2ccccc2)nc2ccccc2c1=O

>  <Energy>  (43) 
43.4194416949308

>  <Genealogy>  (43) 
C=CCn1c(SCc2ccccc2)nc2ccccc2c1=O (3D coordinates assigned)
C=CCn1c(SCc2ccccc2)nc2ccccc2c1=O (optimized conformer: 43.4194416949308 kcal/mol)

>  <smiles>  (43) 
C=CCn1c(SCc2ccccc2)nc2ccccc2c1=O

>  <score_type>  (43) 
oracle

>  <origin>  (43) 
adgpu

>  <m_score__min__energy>  (43) 
-7.7300000000000004

>  <m_primary>  (43) 
energy

$$$$
43:0
     RDKit          3D

 41 43  0  0  0  0  0  0  0  0999 V2000
   -5.9880   25.7390  -31.1230 O   0  0  0  0  0  0  0  0  0  0  0  0
   -5.0790   24.8860  -30.9410 C   0  0  0  0  0  0  0  0  0  0  0  0
   -3.8760   25.2990  -30.2780 N   0  0  0  0  0  0  0  0  0  0  0  0
   -3.1490   24.5490  -29.2940 C   0  0  0  0  0  0  0  0  0  0  0  0
   -3.7200   23.3730  -28.7900 C   0  0  0  0  0  0  0  0  0  0  0  0
   -3.0540   22.6250  -27.8150 C   0  0  0  0  0  0  0  0  0  0  0  0
   -1.8050   23.0380  -27.3470 C   0  0  0  0  0  0  0  0  0  0  0  0
   -1.2110   24.1920  -27.8660 C   0  0  0  0  0  0  0  0  0  0  0  0
   -1.8700   24.9420  -28.8470 C   0  0  0  0  0  0  0  0  0  0  0  0
   -1.2340   26.0570  -29.3850 O   0  0  0  0  0  0  0  0  0  0  0  0
   -5.2630   23.5070  -31.4550 C   0  0  0  0  0  0  0  0  0  0  0  0
   -6.5410   22.9220  -31.4610 C   0  0  0  0  0  0  0  0  0  0  0  0
   -6.7230   21.6230  -31.9440 C   0  0  0  0  0  0  0  0  0  0  0  0
   -5.6330   20.8970  -32.4290 C   0  0  0  0  0  0  0  0  0  0  0  0
   -4.3550   21.4670  -32.4370 C   0  0  0  0  0  0  0  0  0  0  0  0
   -2.9850   20.5530  -33.0660 S   0  0  0  0  0  0  0  0  0  0  0  0
   -2.0910   21.4970  -33.8210 O   0  0  0  0  0  0  0  0  0  0  0  0
   -3.4780   19.5040  -34.0230 O   0  0  0  0  0  0  0  0  0  0  0  0
   -2.0750   19.8210  -31.7590 N   0  0  0  0  0  0  0  0  0  0  0  0
   -2.1490   20.6290  -30.5210 C   0  0  0  0  0  0  0  0  0  0  0  0
   -0.9060   21.5140  -30.3120 C   0  0  0  0  0  0  0  0  0  0  0  0
   -0.3760   21.9180  -31.5540 O   0  0  0  0  0  0  0  0  0  0  0  0
    0.1830   20.8070  -32.2340 C   0  0  0  0  0  0  0  0  0  0  0  0
   -0.6840   19.5280  -32.1480 C   0  0  0  0  0  0  0  0  0  0  0  0
   -4.1760   22.7750  -31.9680 C   0  0  0  0  0  0  0  0  0  0  0  0
   -4.6982   23.0364  -29.1638 H   0  0  0  0  0  0  0  0  0  0  0  0
   -3.5146   21.7094  -27.4157 H   0  0  0  0  0  0  0  0  0  0  0  0
   -1.2885   22.4553  -26.5700 H   0  0  0  0  0  0  0  0  0  0  0  0
   -0.2232   24.5115  -27.5025 H   0  0  0  0  0  0  0  0  0  0  0  0
   -7.4037   23.4902  -31.0831 H   0  0  0  0  0  0  0  0  0  0  0  0
   -7.7262   21.1719  -31.9421 H   0  0  0  0  0  0  0  0  0  0  0  0
   -5.7795   19.8740  -32.8059 H   0  0  0  0  0  0  0  0  0  0  0  0
   -3.0365   21.2766  -30.5762 H   0  0  0  0  0  0  0  0  0  0  0  0
   -2.2058   19.9313  -29.6725 H   0  0  0  0  0  0  0  0  0  0  0  0
   -1.1886   22.4046  -29.7316 H   0  0  0  0  0  0  0  0  0  0  0  0
   -0.1434   20.9358  -29.7697 H   0  0  0  0  0  0  0  0  0  0  0  0
    0.3053   21.0737  -33.2942 H   0  0  0  0  0  0  0  0  0  0  0  0
    1.1426   20.5798  -31.7465 H   0  0  0  0  0  0  0  0  0  0  0  0
   -0.6878   19.0363  -33.1320 H   0  0  0  0  0  0  0  0  0  0  0  0
   -0.2483   18.8771  -31.3757 H   0  0  0  0  0  0  0  0  0  0  0  0
   -3.1769   23.2339  -32.0010 H   0  0  0  0  0  0  0  0  0  0  0  0
  1  2  2  0
  2  3  1  0
  3  4  1  0
  4  5  2  0
  5  6  1  0
  6  7  2  0
  7  8  1  0
  8  9  2  0
  9 10  1  0
  2 11  1  0
 11 12  2  0
 12 13  1  0
 13 14  2  0
 14 15  1  0
 15 16  1  0
 16 17  2  0
 16 18  2  0
 16 19  1  0
 19 20  1  0
 20 21  1  0
 21 22  1  0
 22 23  1  0
 23 24  1  0
 15 25  2  0
  9  4  1  0
 25 11  1  0
 24 19  1  0
  5 26  1  0
  6 27  1  0
  7 28  1  0
  8 29  1  0
 12 30  1  0
 13 31  1  0
 14 32  1  0
 20 33  1  0
 20 34  1  0
 21 35  1  0
 21 36  1  0
 23 37  1  0
 23 38  1  0
 24 39  1  0
 24 40  1  0
 25 41  1  0
M  CHG  2   3  -1  10  -1
M  END
>  <UniqueID>  (44) 
42

>  <SMILES>  (44) 
O=C([N-]c1ccccc1[O-])c1cccc(S(=O)(=O)N2CCOCC2)c1

>  <Energy>  (44) 
61.30035779549715

>  <Genealogy>  (44) 
O=C([N-]c1ccccc1[O-])c1cccc(S(=O)(=O)N2CCOCC2)c1 (protonated)
O=C([N-]c1ccccc1[O-])c1cccc(S(=O)(=O)N2CCOCC2)c1 (3D coordinates assigned)
O=C([N-]c1ccccc1[O-])c1cccc(S(=O)(=O)N2CCOCC2)c1 (nonaromatic ring conformer: 61.30035779549715 kcal/mol)

>  <smiles>  (44) 
O=C(Nc1ccccc1O)c1cccc(S(=O)(=O)N2CCOCC2)c1

>  <score_type>  (44) 
oracle

>  <origin>  (44) 
adgpu

>  <m_score__min__energy>  (44) 
-14.210000000000001

>  <m_primary>  (44) 
energy

$$$$
44:0
     RDKit          3D

 39 41  0  0  0  0  0  0  0  0999 V2000
   -8.2990   17.7900  -31.9340 C   0  0  0  0  0  0  0  0  0  0  0  0
   -8.0000   19.2600  -32.0610 C   0  0  0  0  0  0  0  0  0  0  0  0
   -8.7260   20.1800  -31.2840 C   0  0  0  0  0  0  0  0  0  0  0  0
   -8.4690   21.5480  -31.3790 C   0  0  0  0  0  0  0  0  0  0  0  0
   -7.4880   22.0200  -32.2550 C   0  0  0  0  0  0  0  0  0  0  0  0
   -7.1720   23.7830  -32.3800 S   0  0  0  0  0  0  0  0  0  0  0  0
   -5.7450   23.7120  -31.2820 C   0  0  0  0  0  0  0  0  0  0  0  0
   -5.7860   24.2530  -29.9810 C   0  0  0  0  0  0  0  0  0  0  0  0
   -6.9170   24.9060  -29.4930 O   0  0  0  0  0  0  0  0  0  0  0  0
   -4.7230   24.1540  -29.1860 O   0  0  0  0  0  0  0  0  0  0  0  0
   -3.5840   23.5710  -29.5530 C   0  0  0  0  0  0  0  0  0  0  0  0
   -2.4600   23.5060  -28.5840 C   0  0  0  0  0  0  0  0  0  0  0  0
   -2.3250   22.4050  -27.7160 C   0  0  0  0  0  0  0  0  0  0  0  0
   -1.2770   22.3540  -26.7920 C   0  0  0  0  0  0  0  0  0  0  0  0
   -0.3550   23.3980  -26.7190 C   0  0  0  0  0  0  0  0  0  0  0  0
   -0.4790   24.4990  -27.5670 C   0  0  0  0  0  0  0  0  0  0  0  0
   -1.5240   24.5600  -28.4970 C   0  0  0  0  0  0  0  0  0  0  0  0
   -1.6100   25.6640  -29.3400 O   0  0  0  0  0  0  0  0  0  0  0  0
   -3.4660   23.0380  -30.8460 C   0  0  0  0  0  0  0  0  0  0  0  0
   -4.5530   23.1150  -31.7130 C   0  0  0  0  0  0  0  0  0  0  0  0
   -4.4550   22.6460  -32.8790 O   0  0  0  0  0  0  0  0  0  0  0  0
   -6.7460   21.1150  -33.0210 C   0  0  0  0  0  0  0  0  0  0  0  0
   -6.9900   19.7330  -32.9330 C   0  0  0  0  0  0  0  0  0  0  0  0
   -6.1840   18.7870  -33.7820 C   0  0  0  0  0  0  0  0  0  0  0  0
   -8.3544   17.5177  -30.8697 H   0  0  0  0  0  0  0  0  0  0  0  0
   -9.2607   17.5681  -32.4198 H   0  0  0  0  0  0  0  0  0  0  0  0
   -7.5004   17.2101  -32.4198 H   0  0  0  0  0  0  0  0  0  0  0  0
   -9.5034   19.8179  -30.5952 H   0  0  0  0  0  0  0  0  0  0  0  0
   -9.0405   22.2573  -30.7623 H   0  0  0  0  0  0  0  0  0  0  0  0
   -6.9780   25.2740  -28.5530 H   0  0  0  0  0  0  0  0  0  0  0  0
   -3.0497   21.5789  -27.7655 H   0  0  0  0  0  0  0  0  0  0  0  0
   -1.1793   21.4881  -26.1207 H   0  0  0  0  0  0  0  0  0  0  0  0
    0.4700   23.3533  -25.9928 H   0  0  0  0  0  0  0  0  0  0  0  0
    0.2474   25.3227  -27.5047 H   0  0  0  0  0  0  0  0  0  0  0  0
   -2.5271   22.5656  -31.1703 H   0  0  0  0  0  0  0  0  0  0  0  0
   -5.9640   21.4880  -33.6988 H   0  0  0  0  0  0  0  0  0  0  0  0
   -5.6083   18.1112  -33.1325 H   0  0  0  0  0  0  0  0  0  0  0  0
   -6.8610   18.1967  -34.4170 H   0  0  0  0  0  0  0  0  0  0  0  0
   -5.4937   19.3617  -34.4170 H   0  0  0  0  0  0  0  0  0  0  0  0
  1  2  1  0
  2  3  2  0
  3  4  1  0
  4  5  2  0
  5  6  1  0
  6  7  1  0
  7  8  2  0
  8  9  1  0
  8 10  1  0
 10 11  1  0
 11 12  1  0
 12 13  2  0
 13 14  1  0
 14 15  2  0
 15 16  1  0
 16 17  2  0
 17 18  1  0
 11 19  2  0
 19 20  1  0
 20 21  2  0
  5 22  1  0
 22 23  2  0
 23 24  1  0
 23  2  1  0
 20  7  1  0
 17 12  1  0
  1 25  1  0
  1 26  1  0
  1 27  1  0
  3 28  1  0
  4 29  1  0
  9 30  1  0
 13 31  1  0
 14 32  1  0
 15 33  1  0
 16 34  1  0
 19 35  1  0
 22 36  1  0
 24 37  1  0
 24 38  1  0
 24 39  1  0
M  CHG  1  18  -1
M  END
>  <UniqueID>  (45) 
43

>  <SMILES>  (45) 
Cc1ccc(Sc2c(O)oc(-c3ccccc3[O-])cc2=O)cc1C

>  <Energy>  (45) 
45.4898647112617

>  <Genealogy>  (45) 
Cc1ccc(Sc2c(O)oc(-c3ccccc3[O-])cc2=O)cc1C (protonated)
Cc1ccc(Sc2c(O)oc(-c3ccccc3[O-])cc2=O)cc1C (3D coordinates assigned)
Cc1ccc(Sc2c(O)oc(-c3ccccc3[O-])cc2=O)cc1C (optimized conformer: 45.4898647112617 kcal/mol)

>  <smiles>  (45) 
Cc1ccc(Sc2c(O)oc(-c3ccccc3O)cc2=O)cc1C

>  <score_type>  (45) 
oracle

>  <origin>  (45) 
adgpu

>  <m_score__min__energy>  (45) 
-11.789999999999999

>  <m_primary>  (45) 
energy

$$$$
45:0
     RDKit          3D

 52 55  0  0  0  0  0  0  0  0999 V2000
   -3.3460   22.2620  -32.3930 O   0  0  0  0  0  0  0  0  0  0  0  0
   -4.0280   22.9080  -31.5510 C   0  0  0  0  0  0  0  0  0  0  0  0
   -3.3820   23.7980  -30.6290 N   0  0  0  0  0  0  0  0  0  0  0  0
   -2.6120   23.4140  -29.4790 C   0  0  0  0  0  0  0  0  0  0  0  0
   -2.6900   22.1170  -28.9360 C   0  0  0  0  0  0  0  0  0  0  0  0
   -1.9570   21.7760  -27.7880 C   0  0  0  0  0  0  0  0  0  0  0  0
   -2.0840   20.1400  -27.1160 S   0  0  0  0  0  0  0  0  0  0  0  0
   -3.5310   19.7320  -27.1040 O   0  0  0  0  0  0  0  0  0  0  0  0
   -1.5910   20.1640  -25.6960 O   0  0  0  0  0  0  0  0  0  0  0  0
   -1.2080   18.9270  -28.0310 N   0  0  0  0  0  0  0  0  0  0  0  0
   -0.2410   19.5050  -28.9750 C   0  0  0  0  0  0  0  0  0  0  0  0
    1.1310   18.9360  -28.6470 C   0  0  0  0  0  0  0  0  0  0  0  0
    0.8540   17.7090  -27.8110 C   0  0  0  0  0  0  0  0  0  0  0  0
   -0.4930   17.9810  -27.1660 C   0  0  0  0  0  0  0  0  0  0  0  0
   -1.1690   22.7530  -27.1630 C   0  0  0  0  0  0  0  0  0  0  0  0
   -1.1010   24.0450  -27.6860 C   0  0  0  0  0  0  0  0  0  0  0  0
   -1.8240   24.3790  -28.8350 C   0  0  0  0  0  0  0  0  0  0  0  0
   -1.7550   25.6750  -29.3310 O   0  0  0  0  0  0  0  0  0  0  0  0
   -5.4980   22.7410  -31.5240 C   0  0  0  0  0  0  0  0  0  0  0  0
   -6.3100   23.8870  -31.4280 C   0  0  0  0  0  0  0  0  0  0  0  0
   -7.7010   23.7780  -31.4850 C   0  0  0  0  0  0  0  0  0  0  0  0
   -8.3000   22.5290  -31.6350 C   0  0  0  0  0  0  0  0  0  0  0  0
   -7.5110   21.3800  -31.7110 C   0  0  0  0  0  0  0  0  0  0  0  0
   -6.1160   21.4690  -31.6310 C   0  0  0  0  0  0  0  0  0  0  0  0
   -5.3790   20.2780  -31.6560 O   0  0  0  0  0  0  0  0  0  0  0  0
   -5.6100   19.2110  -32.5390 C   0  0  0  0  0  0  0  0  0  0  0  0
   -6.6570   18.2850  -32.3420 C   0  0  0  0  0  0  0  0  0  0  0  0
   -6.8450   17.2330  -33.2400 C   0  0  0  0  0  0  0  0  0  0  0  0
   -5.9990   17.0960  -34.3420 C   0  0  0  0  0  0  0  0  0  0  0  0
   -4.9690   18.0150  -34.5550 C   0  0  0  0  0  0  0  0  0  0  0  0
   -4.7790   19.0790  -33.6610 C   0  0  0  0  0  0  0  0  0  0  0  0
   -3.7670   20.0110  -33.8830 O   0  0  0  0  0  0  0  0  0  0  0  0
   -3.3316   21.3635  -29.4161 H   0  0  0  0  0  0  0  0  0  0  0  0
   -0.5195   19.2384  -30.0052 H   0  0  0  0  0  0  0  0  0  0  0  0
   -0.2311   20.6016  -28.8896 H   0  0  0  0  0  0  0  0  0  0  0  0
    1.6672   18.6636  -29.5681 H   0  0  0  0  0  0  0  0  0  0  0  0
    1.7647   19.6629  -28.1177 H   0  0  0  0  0  0  0  0  0  0  0  0
    0.8071   16.8105  -28.4438 H   0  0  0  0  0  0  0  0  0  0  0  0
    1.6430   17.5243  -27.0671 H   0  0  0  0  0  0  0  0  0  0  0  0
   -1.0643   17.0451  -27.0785 H   0  0  0  0  0  0  0  0  0  0  0  0
   -0.3642   18.3975  -26.1561 H   0  0  0  0  0  0  0  0  0  0  0  0
   -0.6013   22.4997  -26.2555 H   0  0  0  0  0  0  0  0  0  0  0  0
   -0.4760   24.8037  -27.1922 H   0  0  0  0  0  0  0  0  0  0  0  0
   -5.8449   24.8765  -31.3071 H   0  0  0  0  0  0  0  0  0  0  0  0
   -8.3255   24.6806  -31.4113 H   0  0  0  0  0  0  0  0  0  0  0  0
   -9.3955   22.4483  -31.6936 H   0  0  0  0  0  0  0  0  0  0  0  0
   -7.9889   20.3970  -31.8347 H   0  0  0  0  0  0  0  0  0  0  0  0
   -7.3278   18.3929  -31.4769 H   0  0  0  0  0  0  0  0  0  0  0  0
   -7.6599   16.5118  -33.0793 H   0  0  0  0  0  0  0  0  0  0  0  0
   -6.1440   16.2620  -35.0445 H   0  0  0  0  0  0  0  0  0  0  0  0
   -4.3056   17.9041  -35.4254 H   0  0  0  0  0  0  0  0  0  0  0  0
   -3.6170   20.7920  -33.2540 H   0  0  0  0  0  0  0  0  0  0  0  0
  1  2  2  0
  2  3  1  0
  3  4  1  0
  4  5  2  0
  5  6  1  0
  6  7  1  0
  7  8  2  0
  7  9  2  0
  7 10  1  0
 10 11  1  0
 11 12  1  0
 12 13  1  0
 13 14  1  0
  6 15  2  0
 15 16  1  0
 16 17  2  0
 17 18  1  0
  2 19  1  0
 19 20  2  0
 20 21  1  0
 21 22  2  0
 22 23  1  0
 23 24  2  0
 24 25  1  0
 25 26  1  0
 26 27  2  0
 27 28  1  0
 28 29  2  0
 29 30  1  0
 30 31  2  0
 31 32  1  0
 17  4  1  0
 24 19  1  0
 31 26  1  0
 14 10  1  0
  5 33  1  0
 11 34  1  0
 11 35  1  0
 12 36  1  0
 12 37  1  0
 13 38  1  0
 13 39  1  0
 14 40  1  0
 14 41  1  0
 15 42  1  0
 16 43  1  0
 20 44  1  0
 21 45  1  0
 22 46  1  0
 23 47  1  0
 27 48  1  0
 28 49  1  0
 29 50  1  0
 30 51  1  0
 32 52  1  0
M  CHG  2   3  -1  18  -1
M  END
>  <UniqueID>  (46) 
44

>  <SMILES>  (46) 
O=C([N-]c1cc(S(=O)(=O)N2CCCC2)ccc1[O-])c1ccccc1Oc1ccccc1O

>  <Energy>  (46) 
73.20229603787821

>  <Genealogy>  (46) 
O=C([N-]c1cc(S(=O)(=O)N2CCCC2)ccc1[O-])c1ccccc1Oc1ccccc1O (protonated)
O=C([N-]c1cc(S(=O)(=O)N2CCCC2)ccc1[O-])c1ccccc1Oc1ccccc1O (3D coordinates assigned)
O=C([N-]c1cc(S(=O)(=O)N2CCCC2)ccc1[O-])c1ccccc1Oc1ccccc1O (nonaromatic ring conformer: 73.20229603787821 kcal/mol)

>  <smiles>  (46) 
O=C(Nc1cc(S(=O)(=O)N2CCCC2)ccc1O)c1ccccc1Oc1ccccc1O

>  <score_type>  (46) 
oracle

>  <origin>  (46) 
adgpu

>  <m_score__min__energy>  (46) 
-14

>  <m_primary>  (46) 
energy

$$$$
46:0
     RDKit          3D

 47 50  0  0  0  0  0  0  0  0999 V2000
   -1.4170   26.4960  -28.5600 N   0  0  0  0  0  0  0  0  0  0  0  0
   -1.0700   25.7740  -27.3700 C   0  0  0  0  0  0  0  0  0  0  0  0
   -1.1890   26.4170  -26.1280 C   0  0  0  0  0  0  0  0  0  0  0  0
   -0.8810   25.7430  -24.9460 C   0  0  0  0  0  0  0  0  0  0  0  0
   -0.4510   24.4170  -24.9890 C   0  0  0  0  0  0  0  0  0  0  0  0
   -0.3240   23.7620  -26.2150 C   0  0  0  0  0  0  0  0  0  0  0  0
   -0.6190   24.4290  -27.4180 C   0  0  0  0  0  0  0  0  0  0  0  0
   -0.4840   23.6770  -28.7230 C   0  0  0  0  0  0  0  0  0  0  0  0
   -1.8360   23.3060  -29.2980 C   0  0  0  0  0  0  0  0  0  0  0  0
   -2.6720   24.3120  -29.6740 N   0  0  0  0  0  0  0  0  0  0  0  0
   -3.8980   24.0680  -30.1910 C   0  0  0  0  0  0  0  0  0  0  0  0
   -4.7190   25.1340  -30.5770 C   0  0  0  0  0  0  0  0  0  0  0  0
   -5.9840   24.8830  -31.1160 C   0  0  0  0  0  0  0  0  0  0  0  0
   -6.4330   23.5670  -31.2700 C   0  0  0  0  0  0  0  0  0  0  0  0
   -8.1630   23.2310  -32.0070 Br  0  0  0  0  0  0  0  0  0  0  0  0
   -5.6170   22.4970  -30.8840 C   0  0  0  0  0  0  0  0  0  0  0  0
   -4.3420   22.7430  -30.3400 C   0  0  0  0  0  0  0  0  0  0  0  0
   -3.4880   21.7070  -29.9280 C   0  0  0  0  0  0  0  0  0  0  0  0
   -3.8650   20.5050  -30.0310 O   0  0  0  0  0  0  0  0  0  0  0  0
   -2.2530   21.9980  -29.4020 N   0  0  0  0  0  0  0  0  0  0  0  0
   -1.4130   20.9180  -28.9540 C   0  0  0  0  0  0  0  0  0  0  0  0
   -0.3510   20.4720  -29.7510 C   0  0  0  0  0  0  0  0  0  0  0  0
    0.4600   19.4180  -29.3220 C   0  0  0  0  0  0  0  0  0  0  0  0
    0.2220   18.7900  -28.0830 C   0  0  0  0  0  0  0  0  0  0  0  0
    1.0910   17.6690  -27.6270 C   0  0  0  0  0  0  0  0  0  0  0  0
    0.5130   16.4610  -27.1130 N   0  0  0  0  0  0  0  0  0  0  0  0
    2.7150   17.8900  -27.4910 S   0  0  0  0  0  0  0  0  0  0  0  0
   -0.8440   19.2510  -27.2860 C   0  0  0  0  0  0  0  0  0  0  0  0
   -1.6520   20.3050  -27.7180 C   0  0  0  0  0  0  0  0  0  0  0  0
   -2.3760   26.4140  -28.9670 H   0  0  0  0  0  0  0  0  0  0  0  0
   -0.7380   27.1030  -29.0660 H   0  0  0  0  0  0  0  0  0  0  0  0
   -1.5284   27.4625  -26.0862 H   0  0  0  0  0  0  0  0  0  0  0  0
   -0.9774   26.2581  -23.9788 H   0  0  0  0  0  0  0  0  0  0  0  0
   -0.2116   23.8866  -24.0555 H   0  0  0  0  0  0  0  0  0  0  0  0
    0.0099   22.7142  -26.2408 H   0  0  0  0  0  0  0  0  0  0  0  0
    0.0493   24.3112  -29.4465 H   0  0  0  0  0  0  0  0  0  0  0  0
    0.0724   22.7484  -28.5279 H   0  0  0  0  0  0  0  0  0  0  0  0
   -4.3685   26.1696  -30.4561 H   0  0  0  0  0  0  0  0  0  0  0  0
   -6.6277   25.7218  -31.4196 H   0  0  0  0  0  0  0  0  0  0  0  0
   -5.9723   21.4631  -31.0058 H   0  0  0  0  0  0  0  0  0  0  0  0
   -0.1543   20.9541  -30.7200 H   0  0  0  0  0  0  0  0  0  0  0  0
    1.2908   19.0757  -29.9565 H   0  0  0  0  0  0  0  0  0  0  0  0
    1.1130   16.0770  -26.3470 H   0  0  0  0  0  0  0  0  0  0  0  0
   -0.4360   16.6510  -26.7160 H   0  0  0  0  0  0  0  0  0  0  0  0
    0.4290   15.7630  -27.8870 H   0  0  0  0  0  0  0  0  0  0  0  0
   -1.0420   18.7761  -26.3137 H   0  0  0  0  0  0  0  0  0  0  0  0
   -2.4801   20.6553  -27.0843 H   0  0  0  0  0  0  0  0  0  0  0  0
  1  2  1  0
  2  3  2  0
  3  4  1  0
  4  5  2  0
  5  6  1  0
  6  7  2  0
  7  8  1  0
  8  9  1  0
  9 10  2  0
 10 11  1  0
 11 12  2  0
 12 13  1  0
 13 14  2  0
 14 15  1  0
 14 16  1  0
 16 17  2  0
 17 18  1  0
 18 19  2  0
 18 20  1  0
 20 21  1  0
 21 22  2  0
 22 23  1  0
 23 24  2  0
 24 25  1  0
 25 26  1  0
 25 27  2  0
 24 28  1  0
 28 29  2  0
  7  2  1  0
 20  9  1  0
 29 21  1  0
 17 11  1  0
  1 30  1  0
  1 31  1  0
  3 32  1  0
  4 33  1  0
  5 34  1  0
  6 35  1  0
  8 36  1  0
  8 37  1  0
 12 38  1  0
 13 39  1  0
 16 40  1  0
 22 41  1  0
 23 42  1  0
 26 43  1  0
 26 44  1  0
 26 45  1  0
 28 46  1  0
 29 47  1  0
M  CHG  1  26   1
M  END
>  <UniqueID>  (47) 
45

>  <SMILES>  (47) 
Nc1ccccc1Cc1nc2ccc(Br)cc2c(=O)n1-c1ccc(C([NH3+])=S)cc1

>  <Energy>  (47) 
70.12296911631203

>  <Genealogy>  (47) 
Nc1ccccc1Cc1nc2ccc(Br)cc2c(=O)n1-c1ccc(C([NH3+])=S)cc1 (protonated)
Nc1ccccc1Cc1nc2ccc(Br)cc2c(=O)n1-c1ccc(C([NH3+])=S)cc1 (3D coordinates assigned)
Nc1ccccc1Cc1nc2ccc(Br)cc2c(=O)n1-c1ccc(C([NH3+])=S)cc1 (optimized conformer: 70.12296911631203 kcal/mol)

>  <smiles>  (47) 
NC(=S)c1ccc(-n2c(Cc3ccccc3N)nc3ccc(Br)cc3c2=O)cc1

>  <score_type>  (47) 
oracle

>  <origin>  (47) 
adgpu

>  <m_score__min__energy>  (47) 
-8.7599999999999998

>  <m_primary>  (47) 
energy

$$$$
47:0
     RDKit          3D

 49 52  0  0  0  0  0  0  0  0999 V2000
   -3.9860   26.3700  -29.7500 H   0  0  0  0  0  0  0  0  0  0  0  0
   -4.2480   25.6770  -30.4860 N   0  0  0  0  0  0  0  0  0  0  0  0
   -3.8710   24.4380  -30.4520 C   0  0  0  0  0  0  0  0  0  0  0  0
   -4.2590   23.5440  -31.3880 N   0  0  0  0  0  0  0  0  0  0  0  0
   -3.7100   22.3850  -30.9690 C   0  0  0  0  0  0  0  0  0  0  0  0
   -3.8690   20.8320  -31.8450 S   0  0  0  0  0  0  0  0  0  0  0  0
   -2.1190   20.7700  -32.2010 C   0  0  0  0  0  0  0  0  0  0  0  0
   -1.2780   20.1160  -31.3580 N   0  0  0  0  0  0  0  0  0  0  0  0
    0.0600   20.0720  -31.5940 C   0  0  0  0  0  0  0  0  0  0  0  0
    0.9570   19.3240  -30.6610 C   0  0  0  0  0  0  0  0  0  0  0  0
    0.6799   19.5551  -29.6219 H   0  0  0  0  0  0  0  0  0  0  0  0
    0.8504   18.2435  -30.8373 H   0  0  0  0  0  0  0  0  0  0  0  0
    2.0008   19.6230  -30.8373 H   0  0  0  0  0  0  0  0  0  0  0  0
    0.5800   20.6950  -32.7340 C   0  0  0  0  0  0  0  0  0  0  0  0
    1.6576   20.6599  -32.9522 H   0  0  0  0  0  0  0  0  0  0  0  0
   -0.3000   21.3620  -33.5880 C   0  0  0  0  0  0  0  0  0  0  0  0
    0.1340   21.9400  -34.6190 O   0  0  0  0  0  0  0  0  0  0  0  0
   -1.6280   21.3890  -33.3070 N   0  0  0  0  0  0  0  0  0  0  0  0
   -3.0110   22.5990  -29.8030 C   0  0  0  0  0  0  0  0  0  0  0  0
   -2.2890   21.6510  -29.0820 O   0  0  0  0  0  0  0  0  0  0  0  0
   -1.8830   20.8420  -29.5360 H   0  0  0  0  0  0  0  0  0  0  0  0
   -3.1060   23.8980  -29.4710 N   0  0  0  0  0  0  0  0  0  0  0  0
   -2.4790   24.5430  -28.3500 C   0  0  0  0  0  0  0  0  0  0  0  0
   -3.0710   24.4920  -27.0780 C   0  0  0  0  0  0  0  0  0  0  0  0
   -4.0066   23.9324  -26.9316 H   0  0  0  0  0  0  0  0  0  0  0  0
   -2.4770   25.1490  -25.9970 C   0  0  0  0  0  0  0  0  0  0  0  0
   -2.9401   25.0936  -25.0008 H   0  0  0  0  0  0  0  0  0  0  0  0
   -1.2940   25.8780  -26.1770 C   0  0  0  0  0  0  0  0  0  0  0  0
   -0.5610   26.7360  -24.8210 S   0  0  0  0  0  0  0  0  0  0  0  0
   -0.2470   28.1450  -25.2400 O   0  0  0  0  0  0  0  0  0  0  0  0
   -1.5590   26.8040  -23.6980 O   0  0  0  0  0  0  0  0  0  0  0  0
    0.9010   25.9620  -24.2440 N   0  0  0  0  0  0  0  0  0  0  0  0
    1.0800   24.5980  -24.7850 C   0  0  0  0  0  0  0  0  0  0  0  0
    1.4226   23.9406  -23.9723 H   0  0  0  0  0  0  0  0  0  0  0  0
    0.1105   24.2756  -25.1926 H   0  0  0  0  0  0  0  0  0  0  0  0
    2.1040   24.5360  -25.9300 C   0  0  0  0  0  0  0  0  0  0  0  0
    3.1026   24.3391  -25.5127 H   0  0  0  0  0  0  0  0  0  0  0  0
    1.8171   23.7300  -26.6214 H   0  0  0  0  0  0  0  0  0  0  0  0
    2.1280   25.7550  -26.6350 O   0  0  0  0  0  0  0  0  0  0  0  0
    2.6960   26.7640  -25.8230 C   0  0  0  0  0  0  0  0  0  0  0  0
    3.7764   26.5760  -25.7374 H   0  0  0  0  0  0  0  0  0  0  0  0
    2.4796   27.7292  -26.3042 H   0  0  0  0  0  0  0  0  0  0  0  0
    2.0930   26.8170  -24.4000 C   0  0  0  0  0  0  0  0  0  0  0  0
    2.8582   26.4849  -23.6830 H   0  0  0  0  0  0  0  0  0  0  0  0
    1.7784   27.8548  -24.2157 H   0  0  0  0  0  0  0  0  0  0  0  0
   -0.7000   25.9290  -27.4460 C   0  0  0  0  0  0  0  0  0  0  0  0
    0.2363   26.4878  -27.5912 H   0  0  0  0  0  0  0  0  0  0  0  0
   -1.2940   25.2720  -28.5270 C   0  0  0  0  0  0  0  0  0  0  0  0
   -0.8294   25.3270  -29.5226 H   0  0  0  0  0  0  0  0  0  0  0  0
  1  2  1  0
  2  3  2  0
  3  4  1  0
  4  5  1  0
  5  6  1  0
  6  7  1  0
  7  8  2  0
  8  9  1  0
  9 10  1  0
 10 11  1  0
 10 12  1  0
 10 13  1  0
  9 14  2  0
 14 15  1  0
 14 16  1  0
 16 17  2  0
 16 18  1  0
  5 19  2  0
 19 20  1  0
 20 21  1  0
 19 22  1  0
 22 23  1  0
 23 24  2  0
 24 25  1  0
 24 26  1  0
 26 27  1  0
 26 28  2  0
 28 29  1  0
 29 30  2  0
 29 31  2  0
 29 32  1  0
 32 33  1  0
 33 34  1  0
 33 35  1  0
 33 36  1  0
 36 37  1  0
 36 38  1  0
 36 39  1  0
 39 40  1  0
 40 41  1  0
 40 42  1  0
 40 43  1  0
 43 44  1  0
 43 45  1  0
 28 46  1  0
 46 47  1  0
 46 48  2  0
 48 49  1  0
 22  3  1  0
 48 23  1  0
 18  7  1  0
 43 32  1  0
M  CHG  2   4  -1  18  -1
M  END
>  <UniqueID>  (48) 
46

>  <SMILES>  (48) 
[H]/N=c1/[n-]c(Sc2nc(C)cc(=O)[n-]2)c(O)n1-c1ccc(S(=O)(=O)N2CCOCC2)cc1

>  <Energy>  (48) 
96.55751760072303

>  <Genealogy>  (48) 
Cc1cc(=O)[n-]c(Sc2[n-]c(=N)n(-c3ccc(S(=O)(=O)N4CCOCC4)cc3)c2O)n1 (protonated)
[H]/N=c1/[n-]c(Sc2nc(C)cc(=O)[n-]2)c(O)n1-c1ccc(S(=O)(=O)N2CCOCC2)cc1 (cis-trans isomerization)
[H]/N=c1/[n-]c(Sc2nc(C)cc(=O)[n-]2)c(O)n1-c1ccc(S(=O)(=O)N2CCOCC2)cc1 (3D coordinates assigned)
[H]/N=c1/[n-]c(Sc2nc(C)cc(=O)[n-]2)c(O)n1-c1ccc(S(=O)(=O)N2CCOCC2)cc1 (nonaromatic ring conformer: 96.55751760072303 kcal/mol)

>  <smiles>  (48) 
Cc1cc(=O)[nH]c(Sc2[nH]c(=N)n(-c3ccc(S(=O)(=O)N4CCOCC4)cc3)c2O)n1

>  <score_type>  (48) 
oracle

>  <origin>  (48) 
adgpu

>  <m_score__min__energy>  (48) 
-9.3300000000000001

>  <m_primary>  (48) 
energy

$$$$
48:0
     RDKit          3D

 42 45  0  0  0  0  0  0  0  0999 V2000
   -8.8050   18.1870  -31.6080 C   0  0  0  0  0  0  0  0  0  0  0  0
   -8.7430   19.4070  -32.4720 C   0  0  0  0  0  0  0  0  0  0  0  0
   -9.7760   19.7570  -33.1010 O   0  0  0  0  0  0  0  0  0  0  0  0
   -7.5310   20.1630  -32.6320 N   0  0  0  0  0  0  0  0  0  0  0  0
   -6.4010   19.6950  -33.4370 C   0  0  0  0  0  0  0  0  0  0  0  0
   -5.2360   20.6710  -33.1530 C   0  0  0  0  0  0  0  0  0  0  0  0
   -5.8520   21.6910  -32.2620 C   0  0  0  0  0  0  0  0  0  0  0  0
   -5.2650   22.8590  -31.7770 C   0  0  0  0  0  0  0  0  0  0  0  0
   -6.0460   23.7330  -30.9990 C   0  0  0  0  0  0  0  0  0  0  0  0
   -5.3280   25.2070  -30.3590 S   0  0  0  0  0  0  0  0  0  0  0  0
   -5.7940   25.4590  -28.9510 O   0  0  0  0  0  0  0  0  0  0  0  0
   -5.7370   26.3630  -31.2260 O   0  0  0  0  0  0  0  0  0  0  0  0
   -3.5990   25.0720  -30.3690 N   0  0  0  0  0  0  0  0  0  0  0  0
   -2.8260   24.2670  -29.4680 C   0  0  0  0  0  0  0  0  0  0  0  0
   -3.2310   22.9720  -29.0930 C   0  0  0  0  0  0  0  0  0  0  0  0
   -2.4430   22.2100  -28.2180 C   0  0  0  0  0  0  0  0  0  0  0  0
   -2.8230   20.9170  -27.8350 C   0  0  0  0  0  0  0  0  0  0  0  0
   -2.0160   20.1880  -26.9580 C   0  0  0  0  0  0  0  0  0  0  0  0
   -0.8370   20.7570  -26.4750 C   0  0  0  0  0  0  0  0  0  0  0  0
   -0.4780   22.0120  -26.8550 N   0  0  0  0  0  0  0  0  0  0  0  0
   -1.2430   22.7470  -27.7060 C   0  0  0  0  0  0  0  0  0  0  0  0
   -0.8450   24.0350  -28.0750 C   0  0  0  0  0  0  0  0  0  0  0  0
   -1.6310   24.7910  -28.9500 C   0  0  0  0  0  0  0  0  0  0  0  0
   -1.2190   26.0700  -29.3070 O   0  0  0  0  0  0  0  0  0  0  0  0
   -7.4010   23.4290  -30.7500 C   0  0  0  0  0  0  0  0  0  0  0  0
   -7.9670   22.2480  -31.2550 C   0  0  0  0  0  0  0  0  0  0  0  0
   -7.1550   21.3740  -31.9880 C   0  0  0  0  0  0  0  0  0  0  0  0
   -8.7898   18.4861  -30.5496 H   0  0  0  0  0  0  0  0  0  0  0  0
   -9.7324   17.6346  -31.8196 H   0  0  0  0  0  0  0  0  0  0  0  0
   -7.9384   17.5434  -31.8196 H   0  0  0  0  0  0  0  0  0  0  0  0
   -6.1217   18.6722  -33.1440 H   0  0  0  0  0  0  0  0  0  0  0  0
   -6.6533   19.6725  -34.5074 H   0  0  0  0  0  0  0  0  0  0  0  0
   -4.4055   20.1565  -32.6475 H   0  0  0  0  0  0  0  0  0  0  0  0
   -4.8046   21.1034  -34.0678 H   0  0  0  0  0  0  0  0  0  0  0  0
   -4.2130   23.0923  -31.9981 H   0  0  0  0  0  0  0  0  0  0  0  0
   -4.1696   22.5559  -29.4879 H   0  0  0  0  0  0  0  0  0  0  0  0
   -3.7535   20.4774  -28.2234 H   0  0  0  0  0  0  0  0  0  0  0  0
   -2.3079   19.1730  -26.6505 H   0  0  0  0  0  0  0  0  0  0  0  0
   -0.1963   20.1885  -25.7849 H   0  0  0  0  0  0  0  0  0  0  0  0
    0.0898   24.4553  -27.6757 H   0  0  0  0  0  0  0  0  0  0  0  0
   -8.0170   24.1210  -30.1571 H   0  0  0  0  0  0  0  0  0  0  0  0
   -9.0272   22.0138  -31.0785 H   0  0  0  0  0  0  0  0  0  0  0  0
  1  2  1  0
  2  3  2  0
  2  4  1  0
  4  5  1  0
  5  6  1  0
  6  7  1  0
  7  8  2  0
  8  9  1  0
  9 10  1  0
 10 11  2  0
 10 12  2  0
 10 13  1  0
 13 14  1  0
 14 15  2  0
 15 16  1  0
 16 17  2  0
 17 18  1  0
 18 19  2  0
 19 20  1  0
 20 21  2  0
 21 22  1  0
 22 23  2  0
 23 24  1  0
  9 25  2  0
 25 26  1  0
 26 27  2  0
 27  4  1  0
 27  7  1  0
 23 14  1  0
 21 16  1  0
  1 28  1  0
  1 29  1  0
  1 30  1  0
  5 31  1  0
  5 32  1  0
  6 33  1  0
  6 34  1  0
  8 35  1  0
 15 36  1  0
 17 37  1  0
 18 38  1  0
 19 39  1  0
 22 40  1  0
 25 41  1  0
 26 42  1  0
M  CHG  2  13  -1  24  -1
M  END
>  <UniqueID>  (49) 
47

>  <SMILES>  (49) 
CC(=O)N1CCc2cc(S(=O)(=O)[N-]c3cc4cccnc4cc3[O-])ccc21

>  <Energy>  (49) 
69.05420275489377

>  <Genealogy>  (49) 
CC(=O)N1CCc2cc(S(=O)(=O)[N-]c3cc4cccnc4cc3[O-])ccc21 (protonated)
CC(=O)N1CCc2cc(S(=O)(=O)[N-]c3cc4cccnc4cc3[O-])ccc21 (3D coordinates assigned)
CC(=O)N1CCc2cc(S(=O)(=O)[N-]c3cc4cccnc4cc3[O-])ccc21 (nonaromatic ring conformer: 69.05420275489377 kcal/mol)

>  <smiles>  (49) 
CC(=O)N1CCc2cc(S(=O)(=O)Nc3cc4cccnc4cc3O)ccc21

>  <score_type>  (49) 
oracle

>  <origin>  (49) 
adgpu

>  <m_score__min__energy>  (49) 
-14.550000000000001

>  <m_primary>  (49) 
energy

$$$$
