0:0
     RDKit          3D

 59 61  0  0  0  0  0  0  0  0999 V2000
   -9.0530   20.7490  -32.0720 C   0  0  0  0  0  0  0  0  0  0  0  0
   -7.5550   20.5220  -32.2780 C   0  0  0  0  0  0  0  0  0  0  0  0
   -7.2280   19.1500  -32.9030 C   0  0  0  0  0  0  0  0  0  0  0  0
   -6.4890   19.2500  -34.1750 N   0  0  0  0  0  0  0  0  0  0  0  0
   -5.6380   18.1150  -34.3880 C   0  0  0  0  0  0  0  0  0  0  0  0
   -6.0760   16.9530  -34.1770 O   0  0  0  0  0  0  0  0  0  0  0  0
   -4.2900   18.3060  -34.8300 N   0  0  0  0  0  0  0  0  0  0  0  0
   -3.0190   18.7730  -33.7530 S   0  0  0  0  0  0  0  0  0  0  0  0
   -1.7980   19.1480  -34.5450 O   0  0  0  0  0  0  0  0  0  0  0  0
   -2.6720   17.6120  -32.8630 O   0  0  0  0  0  0  0  0  0  0  0  0
   -3.5570   20.1240  -32.7620 C   0  0  0  0  0  0  0  0  0  0  0  0
   -3.3410   20.1190  -31.3770 C   0  0  0  0  0  0  0  0  0  0  0  0
   -3.7390   21.2120  -30.6010 C   0  0  0  0  0  0  0  0  0  0  0  0
   -4.3390   22.3310  -31.2060 C   0  0  0  0  0  0  0  0  0  0  0  0
   -4.7400   23.4760  -30.4400 N   0  0  0  0  0  0  0  0  0  0  0  0
   -3.8990   24.5870  -30.0930 C   0  0  0  0  0  0  0  0  0  0  0  0
   -3.8910   25.5980  -30.8440 O   0  0  0  0  0  0  0  0  0  0  0  0
   -3.0170   24.5570  -28.9030 C   0  0  0  0  0  0  0  0  0  0  0  0
   -1.6210   24.6090  -29.0480 C   0  0  0  0  0  0  0  0  0  0  0  0
   -0.7900   24.4960  -27.9330 C   0  0  0  0  0  0  0  0  0  0  0  0
   -1.3410   24.3470  -26.6540 C   0  0  0  0  0  0  0  0  0  0  0  0
   -0.2870   24.0970  -25.2600 S   0  0  0  0  0  0  0  0  0  0  0  0
   -0.7010   22.8400  -24.5450 O   0  0  0  0  0  0  0  0  0  0  0  0
    1.1280   23.9190  -25.7330 O   0  0  0  0  0  0  0  0  0  0  0  0
   -0.3750   25.4420  -24.1440 N   0  0  0  0  0  0  0  0  0  0  0  0
    0.9470   26.0810  -24.0000 C   0  0  0  0  0  0  0  0  0  0  0  0
    0.8020   27.5230  -23.4920 C   0  0  0  0  0  0  0  0  0  0  0  0
    0.0550   28.3660  -24.3610 O   0  0  0  0  0  0  0  0  0  0  0  0
   -0.8720   27.6670  -25.1800 C   0  0  0  0  0  0  0  0  0  0  0  0
   -1.4420   26.3970  -24.5200 C   0  0  0  0  0  0  0  0  0  0  0  0
   -2.7340   24.3590  -26.4970 C   0  0  0  0  0  0  0  0  0  0  0  0
   -3.5680   24.4630  -27.6150 C   0  0  0  0  0  0  0  0  0  0  0  0
   -4.5750   22.3190  -32.5860 C   0  0  0  0  0  0  0  0  0  0  0  0
   -4.1770   21.2270  -33.3620 C   0  0  0  0  0  0  0  0  0  0  0  0
   -9.2741   20.7825  -30.9950 H   0  0  0  0  0  0  0  0  0  0  0  0
   -9.3467   21.7019  -32.5364 H   0  0  0  0  0  0  0  0  0  0  0  0
   -9.6159   19.9259  -32.5364 H   0  0  0  0  0  0  0  0  0  0  0  0
   -7.1703   21.3095  -32.9427 H   0  0  0  0  0  0  0  0  0  0  0  0
   -7.0808   20.5503  -31.2858 H   0  0  0  0  0  0  0  0  0  0  0  0
   -6.6180   18.5774  -32.1888 H   0  0  0  0  0  0  0  0  0  0  0  0
   -8.1856   18.6544  -33.1206 H   0  0  0  0  0  0  0  0  0  0  0  0
   -7.1780   19.2850  -34.9610 H   0  0  0  0  0  0  0  0  0  0  0  0
   -5.9310   20.1350  -34.2010 H   0  0  0  0  0  0  0  0  0  0  0  0
   -2.8576   19.2538  -30.8998 H   0  0  0  0  0  0  0  0  0  0  0  0
   -3.5821   21.1966  -29.5124 H   0  0  0  0  0  0  0  0  0  0  0  0
   -1.1799   24.7397  -30.0472 H   0  0  0  0  0  0  0  0  0  0  0  0
    0.3024   24.5240  -28.0589 H   0  0  0  0  0  0  0  0  0  0  0  0
    1.5501   25.5047  -23.2829 H   0  0  0  0  0  0  0  0  0  0  0  0
    1.4385   26.1010  -24.9839 H   0  0  0  0  0  0  0  0  0  0  0  0
    0.2969   27.4973  -22.5151 H   0  0  0  0  0  0  0  0  0  0  0  0
    1.8162   27.9444  -23.4309 H   0  0  0  0  0  0  0  0  0  0  0  0
   -1.7080   28.3426  -25.4139 H   0  0  0  0  0  0  0  0  0  0  0  0
   -0.3288   27.3464  -26.0812 H   0  0  0  0  0  0  0  0  0  0  0  0
   -1.9961   26.6852  -23.6145 H   0  0  0  0  0  0  0  0  0  0  0  0
   -2.1009   25.9015  -25.2483 H   0  0  0  0  0  0  0  0  0  0  0  0
   -3.1727   24.2864  -25.4909 H   0  0  0  0  0  0  0  0  0  0  0  0
   -4.6602   24.4712  -27.4846 H   0  0  0  0  0  0  0  0  0  0  0  0
   -5.0767   23.1742  -33.0623 H   0  0  0  0  0  0  0  0  0  0  0  0
   -4.3514   21.2339  -34.4481 H   0  0  0  0  0  0  0  0  0  0  0  0
  1  2  1  0
  2  3  1  0
  3  4  1  0
  4  5  1  0
  5  6  2  0
  5  7  1  0
  7  8  1  0
  8  9  2  0
  8 10  2  0
  8 11  1  0
 11 12  2  0
 12 13  1  0
 13 14  2  0
 14 15  1  0
 15 16  1  0
 16 17  2  0
 16 18  1  0
 18 19  2  0
 19 20  1  0
 20 21  2  0
 21 22  1  0
 22 23  2  0
 22 24  2  0
 22 25  1  0
 25 26  1  0
 26 27  1  0
 27 28  1  0
 28 29  1  0
 29 30  1  0
 21 31  1  0
 31 32  2  0
 14 33  1  0
 33 34  2  0
 34 11  1  0
 32 18  1  0
 30 25  1  0
  1 35  1  0
  1 36  1  0
  1 37  1  0
  2 38  1  0
  2 39  1  0
  3 40  1  0
  3 41  1  0
  4 42  1  0
  4 43  1  0
 12 44  1  0
 13 45  1  0
 19 46  1  0
 20 47  1  0
 26 48  1  0
 26 49  1  0
 27 50  1  0
 27 51  1  0
 29 52  1  0
 29 53  1  0
 30 54  1  0
 30 55  1  0
 31 56  1  0
 32 57  1  0
 33 58  1  0
 34 59  1  0
M  CHG  3   4   1   7  -1  15  -1
M  END
>  <UniqueID>  (1) 
1

>  <SMILES>  (1) 
CCC[NH2+]C(=O)[N-]S(=O)(=O)c1ccc([N-]C(=O)c2ccc(S(=O)(=O)N3CCOCC3)cc2)cc1

>  <Energy>  (1) 
73.06515833320407

>  <Genealogy>  (1) 
CCC[NH2+]C(=O)[N-]S(=O)(=O)c1ccc([N-]C(=O)c2ccc(S(=O)(=O)N3CCOCC3)cc2)cc1 (protonated)
CCC[NH2+]C(=O)[N-]S(=O)(=O)c1ccc([N-]C(=O)c2ccc(S(=O)(=O)N3CCOCC3)cc2)cc1 (3D coordinates assigned)
CCC[NH2+]C(=O)[N-]S(=O)(=O)c1ccc([N-]C(=O)c2ccc(S(=O)(=O)N3CCOCC3)cc2)cc1 (nonaromatic ring conformer: 73.06515833320407 kcal/mol)

>  <smiles>  (1) 
CCCNC(=O)NS(=O)(=O)c1ccc(NC(=O)c2ccc(S(=O)(=O)N3CCOCC3)cc2)cc1

>  <score_type>  (1) 
oracle

>  <origin>  (1) 
adgpu

>  <m_score__min__energy>  (1) 
-13.02

>  <m_primary>  (1) 
energy

$$$$
1:0
     RDKit          3D

 40 42  0  0  0  0  0  0  0  0999 V2000
   -1.0640   20.5420  -28.4420 C   0  0  0  0  0  0  0  0  0  0  0  0
   -2.0450   21.4290  -29.1400 C   0  0  0  0  0  0  0  0  0  0  0  0
   -3.1380   20.8640  -29.8460 C   0  0  0  0  0  0  0  0  0  0  0  0
   -4.0680   21.7030  -30.4880 C   0  0  0  0  0  0  0  0  0  0  0  0
   -3.8600   23.0740  -30.3860 C   0  0  0  0  0  0  0  0  0  0  0  0
   -4.5260   24.1810  -30.8610 C   0  0  0  0  0  0  0  0  0  0  0  0
   -5.7470   24.2090  -31.7280 C   0  0  0  0  0  0  0  0  0  0  0  0
   -6.1180   22.8520  -32.1180 N   0  0  0  0  0  0  0  0  0  0  0  0
   -7.0840   22.0800  -31.3860 C   0  0  0  0  0  0  0  0  0  0  0  0
   -7.5760   22.5440  -30.3210 O   0  0  0  0  0  0  0  0  0  0  0  0
   -7.5050   20.7360  -31.8510 C   0  0  0  0  0  0  0  0  0  0  0  0
   -8.7720   20.2210  -31.5340 C   0  0  0  0  0  0  0  0  0  0  0  0
   -9.1320   18.9510  -31.9820 C   0  0  0  0  0  0  0  0  0  0  0  0
   -8.2610   18.2130  -32.7160 N   0  0  0  0  0  0  0  0  0  0  0  0
   -7.0160   18.6640  -33.0440 C   0  0  0  0  0  0  0  0  0  0  0  0
   -6.1390   17.8200  -33.8290 N   0  0  0  0  0  0  0  0  0  0  0  0
   -6.4280   16.3940  -34.0280 C   0  0  0  0  0  0  0  0  0  0  0  0
   -4.9380   18.4090  -34.4330 C   0  0  0  0  0  0  0  0  0  0  0  0
   -6.6210   19.9430  -32.6040 C   0  0  0  0  0  0  0  0  0  0  0  0
   -3.8570   25.2890  -30.4580 N   0  0  0  0  0  0  0  0  0  0  0  0
   -2.7980   24.9230  -29.7370 N   0  0  0  0  0  0  0  0  0  0  0  0
   -2.8030   23.5800  -29.6960 C   0  0  0  0  0  0  0  0  0  0  0  0
   -1.8960   22.7890  -29.0730 N   0  0  0  0  0  0  0  0  0  0  0  0
   -1.1825   20.6492  -27.3537 H   0  0  0  0  0  0  0  0  0  0  0  0
   -1.2463   19.4960  -28.7295 H   0  0  0  0  0  0  0  0  0  0  0  0
   -0.0416   20.8284  -28.7295 H   0  0  0  0  0  0  0  0  0  0  0  0
   -3.2586   19.7716  -29.8916 H   0  0  0  0  0  0  0  0  0  0  0  0
   -4.9222   21.2920  -31.0461 H   0  0  0  0  0  0  0  0  0  0  0  0
   -6.5777   24.6673  -31.1714 H   0  0  0  0  0  0  0  0  0  0  0  0
   -5.5323   24.7970  -32.6325 H   0  0  0  0  0  0  0  0  0  0  0  0
   -5.6070   22.4230  -32.9210 H   0  0  0  0  0  0  0  0  0  0  0  0
   -9.4769   20.8165  -30.9353 H   0  0  0  0  0  0  0  0  0  0  0  0
  -10.1255   18.5456  -31.7398 H   0  0  0  0  0  0  0  0  0  0  0  0
   -6.5281   15.9002  -33.0502 H   0  0  0  0  0  0  0  0  0  0  0  0
   -7.3665   16.2852  -34.5914 H   0  0  0  0  0  0  0  0  0  0  0  0
   -5.6060   15.9284  -34.5914 H   0  0  0  0  0  0  0  0  0  0  0  0
   -4.2548   18.7441  -33.6387 H   0  0  0  0  0  0  0  0  0  0  0  0
   -4.4341   17.6558  -35.0565 H   0  0  0  0  0  0  0  0  0  0  0  0
   -5.2250   19.2686  -35.0565 H   0  0  0  0  0  0  0  0  0  0  0  0
   -5.6182   20.3222  -32.8503 H   0  0  0  0  0  0  0  0  0  0  0  0
  1  2  1  0
  2  3  1  0
  3  4  2  0
  4  5  1  0
  5  6  2  0
  6  7  1  0
  7  8  1  0
  8  9  1  0
  9 10  2  0
  9 11  1  0
 11 12  2  0
 12 13  1  0
 13 14  2  0
 14 15  1  0
 15 16  1  0
 16 17  1  0
 16 18  1  0
 15 19  2  0
  6 20  1  0
 20 21  1  0
 21 22  2  0
 22 23  1  0
 23  2  2  0
 22  5  1  0
 19 11  1  0
  1 24  1  0
  1 25  1  0
  1 26  1  0
  3 27  1  0
  4 28  1  0
  7 29  1  0
  7 30  1  0
  8 31  1  0
 12 32  1  0
 13 33  1  0
 17 34  1  0
 17 35  1  0
 17 36  1  0
 18 37  1  0
 18 38  1  0
 18 39  1  0
 19 40  1  0
M  CHG  1  20  -1
M  END
>  <UniqueID>  (2) 
2

>  <SMILES>  (2) 
Cc1ccc2c(CNC(=O)c3ccnc(N(C)C)c3)[n-]nc2n1

>  <Energy>  (2) 
80.71667661259029

>  <Genealogy>  (2) 
Cc1ccc2c(CNC(=O)c3ccnc(N(C)C)c3)[n-]nc2n1 (protonated)
Cc1ccc2c(CNC(=O)c3ccnc(N(C)C)c3)[n-]nc2n1 (3D coordinates assigned)
Cc1ccc2c(CNC(=O)c3ccnc(N(C)C)c3)[n-]nc2n1 (optimized conformer: 80.71667661259029 kcal/mol)

>  <smiles>  (2) 
Cc1ccc2c(CNC(=O)c3ccnc(N(C)C)c3)[nH]nc2n1

>  <score_type>  (2) 
oracle

>  <origin>  (2) 
adgpu

>  <m_score__min__energy>  (2) 
-9.8000000000000007

>  <m_primary>  (2) 
energy

$$$$
2:0
     RDKit          3D

 46 49  0  0  0  0  0  0  0  0999 V2000
    1.9860   26.0350  -26.8780 C   0  0  0  0  0  0  0  0  0  0  0  0
    0.8930   25.2370  -27.5120 C   0  0  0  0  0  0  0  0  0  0  0  0
    1.1780   24.1740  -28.1260 O   0  0  0  0  0  0  0  0  0  0  0  0
   -0.4660   25.6760  -27.3970 N   0  0  0  0  0  0  0  0  0  0  0  0
   -1.5710   24.9690  -27.9770 C   0  0  0  0  0  0  0  0  0  0  0  0
   -2.3580   25.4610  -28.9170 O   0  0  0  0  0  0  0  0  0  0  0  0
   -3.2510   24.5410  -29.1990 C   0  0  0  0  0  0  0  0  0  0  0  0
   -4.2870   24.6220  -30.1260 C   0  0  0  0  0  0  0  0  0  0  0  0
   -5.1420   23.5070  -30.2610 C   0  0  0  0  0  0  0  0  0  0  0  0
   -6.4730   23.5370  -31.4110 S   0  0  0  0  0  0  0  0  0  0  0  0
   -6.0340   24.1550  -32.7100 O   0  0  0  0  0  0  0  0  0  0  0  0
   -7.5960   24.3610  -30.8460 O   0  0  0  0  0  0  0  0  0  0  0  0
   -7.0120   21.8890  -31.7200 C   0  0  0  0  0  0  0  0  0  0  0  0
   -8.2960   21.4900  -31.3240 C   0  0  0  0  0  0  0  0  0  0  0  0
   -8.7370   20.1890  -31.5800 C   0  0  0  0  0  0  0  0  0  0  0  0
   -7.9000   19.2820  -32.2380 C   0  0  0  0  0  0  0  0  0  0  0  0
   -6.6200   19.6770  -32.6400 C   0  0  0  0  0  0  0  0  0  0  0  0
   -6.1760   20.9790  -32.3850 C   0  0  0  0  0  0  0  0  0  0  0  0
   -4.9340   22.3530  -29.4660 C   0  0  0  0  0  0  0  0  0  0  0  0
   -3.8770   22.3020  -28.5400 C   0  0  0  0  0  0  0  0  0  0  0  0
   -3.0540   23.4200  -28.4340 C   0  0  0  0  0  0  0  0  0  0  0  0
   -1.9660   23.6800  -27.6320 C   0  0  0  0  0  0  0  0  0  0  0  0
   -1.2520   22.6070  -26.3840 S   0  0  0  0  0  0  0  0  0  0  0  0
   -0.8840   21.3200  -27.5770 C   0  0  0  0  0  0  0  0  0  0  0  0
   -0.7870   19.9870  -27.1610 C   0  0  0  0  0  0  0  0  0  0  0  0
   -0.4860   18.9850  -28.0860 C   0  0  0  0  0  0  0  0  0  0  0  0
   -0.2820   19.3060  -29.4340 C   0  0  0  0  0  0  0  0  0  0  0  0
    0.0970   18.0170  -30.5680 Cl  0  0  0  0  0  0  0  0  0  0  0  0
   -0.3870   20.6430  -29.8550 C   0  0  0  0  0  0  0  0  0  0  0  0
   -0.1430   21.0910  -31.5370 Cl  0  0  0  0  0  0  0  0  0  0  0  0
   -0.6900   21.6440  -28.9240 C   0  0  0  0  0  0  0  0  0  0  0  0
    1.8988   25.9714  -25.7833 H   0  0  0  0  0  0  0  0  0  0  0  0
    2.9614   25.6351  -27.1920 H   0  0  0  0  0  0  0  0  0  0  0  0
    1.9022   27.0859  -27.1920 H   0  0  0  0  0  0  0  0  0  0  0  0
   -0.6590   26.5550  -26.8670 H   0  0  0  0  0  0  0  0  0  0  0  0
   -4.4345   25.5267  -30.7341 H   0  0  0  0  0  0  0  0  0  0  0  0
   -8.9581   22.2027  -30.8105 H   0  0  0  0  0  0  0  0  0  0  0  0
   -9.7435   19.8779  -31.2637 H   0  0  0  0  0  0  0  0  0  0  0  0
   -8.2484   18.2582  -32.4393 H   0  0  0  0  0  0  0  0  0  0  0  0
   -5.9618   18.9633  -33.1571 H   0  0  0  0  0  0  0  0  0  0  0  0
   -5.1708   21.2896  -32.7060 H   0  0  0  0  0  0  0  0  0  0  0  0
   -5.6057   21.4887  -29.5741 H   0  0  0  0  0  0  0  0  0  0  0  0
   -3.7062   21.4092  -27.9205 H   0  0  0  0  0  0  0  0  0  0  0  0
   -0.9481   19.7284  -26.1040 H   0  0  0  0  0  0  0  0  0  0  0  0
   -0.4088   17.9390  -27.7545 H   0  0  0  0  0  0  0  0  0  0  0  0
   -0.7759   22.6900  -29.2533 H   0  0  0  0  0  0  0  0  0  0  0  0
  1  2  1  0
  2  3  2  0
  2  4  1  0
  4  5  1  0
  5  6  1  0
  6  7  1  0
  7  8  2  0
  8  9  1  0
  9 10  1  0
 10 11  2  0
 10 12  2  0
 10 13  1  0
 13 14  2  0
 14 15  1  0
 15 16  2  0
 16 17  1  0
 17 18  2  0
  9 19  2  0
 19 20  1  0
 20 21  2  0
 21 22  1  0
 22 23  1  0
 23 24  1  0
 24 25  2  0
 25 26  1  0
 26 27  2  0
 27 28  1  0
 27 29  1  0
 29 30  1  0
 29 31  2  0
 22  5  2  0
 31 24  1  0
 21  7  1  0
 18 13  1  0
  1 32  1  0
  1 33  1  0
  1 34  1  0
  4 35  1  0
  8 36  1  0
 14 37  1  0
 15 38  1  0
 16 39  1  0
 17 40  1  0
 18 41  1  0
 19 42  1  0
 20 43  1  0
 25 44  1  0
 26 45  1  0
 31 46  1  0
M  END
>  <UniqueID>  (3) 
3

>  <SMILES>  (3) 
CC(=O)Nc1oc2cc(S(=O)(=O)c3ccccc3)ccc2c1Sc1ccc(Cl)c(Cl)c1

>  <Energy>  (3) 
80.70960849688069

>  <Genealogy>  (3) 
CC(=O)Nc1oc2cc(S(=O)(=O)c3ccccc3)ccc2c1Sc1ccc(Cl)c(Cl)c1 (3D coordinates assigned)
CC(=O)Nc1oc2cc(S(=O)(=O)c3ccccc3)ccc2c1Sc1ccc(Cl)c(Cl)c1 (optimized conformer: 80.70960849688069 kcal/mol)

>  <smiles>  (3) 
CC(=O)Nc1oc2cc(S(=O)(=O)c3ccccc3)ccc2c1Sc1ccc(Cl)c(Cl)c1

>  <score_type>  (3) 
oracle

>  <origin>  (3) 
adgpu

>  <m_score__min__energy>  (3) 
-9.9900000000000002

>  <m_primary>  (3) 
energy

$$$$
3:0
     RDKit          3D

 26 27  0  0  0  0  0  0  0  0999 V2000
   -9.3130   23.4270  -31.9710 O   0  0  0  0  0  0  0  0  0  0  0  0
   -7.8950   22.9380  -31.8730 S   0  0  0  0  0  0  0  0  0  0  0  0
   -7.0780   23.5890  -32.9540 O   0  0  0  0  0  0  0  0  0  0  0  0
   -7.2530   23.4060  -30.3280 N   0  0  0  0  0  0  0  0  0  0  0  0
   -5.8870   23.8020  -30.1090 C   0  0  0  0  0  0  0  0  0  0  0  0
   -5.0810   23.0450  -29.2470 C   0  0  0  0  0  0  0  0  0  0  0  0
   -3.7520   23.4070  -29.0280 C   0  0  0  0  0  0  0  0  0  0  0  0
   -3.2310   24.5270  -29.6780 C   0  0  0  0  0  0  0  0  0  0  0  0
   -4.0180   25.2500  -30.5160 N   0  0  0  0  0  0  0  0  0  0  0  0
   -5.3160   24.9210  -30.7470 C   0  0  0  0  0  0  0  0  0  0  0  0
   -7.8850   21.1790  -32.0600 C   0  0  0  0  0  0  0  0  0  0  0  0
   -9.0900   20.4650  -31.9530 C   0  0  0  0  0  0  0  0  0  0  0  0
   -9.1070   19.0760  -32.0920 C   0  0  0  0  0  0  0  0  0  0  0  0
   -7.9230   18.3840  -32.3480 C   0  0  0  0  0  0  0  0  0  0  0  0
   -6.7200   19.0810  -32.4730 C   0  0  0  0  0  0  0  0  0  0  0  0
   -6.6910   20.4750  -32.3350 C   0  0  0  0  0  0  0  0  0  0  0  0
   -5.0020   21.3580  -32.5550 Br  0  0  0  0  0  0  0  0  0  0  0  0
   -7.9240   23.4350  -29.5280 H   0  0  0  0  0  0  0  0  0  0  0  0
   -5.4986   22.1619  -28.7413 H   0  0  0  0  0  0  0  0  0  0  0  0
   -3.1202   22.8153  -28.3492 H   0  0  0  0  0  0  0  0  0  0  0  0
   -2.1848   24.8235  -29.5118 H   0  0  0  0  0  0  0  0  0  0  0  0
   -5.9225   25.5298  -31.4338 H   0  0  0  0  0  0  0  0  0  0  0  0
  -10.0283   21.0050  -31.7580 H   0  0  0  0  0  0  0  0  0  0  0  0
  -10.0553   18.5264  -31.9995 H   0  0  0  0  0  0  0  0  0  0  0  0
   -7.9374   17.2890  -32.4514 H   0  0  0  0  0  0  0  0  0  0  0  0
   -5.7894   18.5326  -32.6810 H   0  0  0  0  0  0  0  0  0  0  0  0
  1  2  2  0
  2  3  2  0
  2  4  1  0
  4  5  1  0
  5  6  2  0
  6  7  1  0
  7  8  2  0
  8  9  1  0
  9 10  2  0
  2 11  1  0
 11 12  2  0
 12 13  1  0
 13 14  2  0
 14 15  1  0
 15 16  2  0
 16 17  1  0
 10  5  1  0
 16 11  1  0
  4 18  1  0
  6 19  1  0
  7 20  1  0
  8 21  1  0
 10 22  1  0
 12 23  1  0
 13 24  1  0
 14 25  1  0
 15 26  1  0
M  END
>  <UniqueID>  (4) 
4

>  <SMILES>  (4) 
O=S(=O)(Nc1cccnc1)c1ccccc1Br

>  <Energy>  (4) 
32.58152662660279

>  <Genealogy>  (4) 
O=S(=O)(Nc1cccnc1)c1ccccc1Br (3D coordinates assigned)
O=S(=O)(Nc1cccnc1)c1ccccc1Br (optimized conformer: 32.58152662660279 kcal/mol)

>  <smiles>  (4) 
O=S(=O)(Nc1cccnc1)c1ccccc1Br

>  <score_type>  (4) 
oracle

>  <origin>  (4) 
adgpu

>  <m_score__min__energy>  (4) 
-7.7199999999999998

>  <m_primary>  (4) 
energy

$$$$
4:0
     RDKit          3D

 35 36  0  0  0  0  0  0  0  0999 V2000
   -5.7050   18.4900  -34.6320 C   0  0  0  0  0  0  0  0  0  0  0  0
   -5.2450   19.4600  -33.5910 C   0  0  0  0  0  0  0  0  0  0  0  0
   -4.3720   20.4130  -33.8240 O   0  0  0  0  0  0  0  0  0  0  0  0
   -4.1940   21.1050  -32.7210 C   0  0  0  0  0  0  0  0  0  0  0  0
   -4.9830   20.5890  -31.7120 C   0  0  0  0  0  0  0  0  0  0  0  0
   -5.6580   19.5230  -32.2680 C   0  0  0  0  0  0  0  0  0  0  0  0
   -6.6410   18.6660  -31.5840 C   0  0  0  0  0  0  0  0  0  0  0  0
   -6.2670   17.6130  -31.0030 O   0  0  0  0  0  0  0  0  0  0  0  0
   -8.0270   19.0280  -31.5970 N   0  0  0  0  0  0  0  0  0  0  0  0
   -8.6730   19.7180  -32.7110 C   0  0  0  0  0  0  0  0  0  0  0  0
   -9.2660   21.0590  -32.2590 C   0  0  0  0  0  0  0  0  0  0  0  0
   -8.2190   21.9710  -31.6730 C   0  0  0  0  0  0  0  0  0  0  0  0
   -7.9810   21.9770  -30.2900 C   0  0  0  0  0  0  0  0  0  0  0  0
   -7.0690   22.8800  -29.7350 C   0  0  0  0  0  0  0  0  0  0  0  0
   -6.3840   23.7860  -30.5570 C   0  0  0  0  0  0  0  0  0  0  0  0
   -5.2660   24.9490  -29.8540 S   0  0  0  0  0  0  0  0  0  0  0  0
   -3.8510   25.0600  -30.8410 N   0  0  0  0  0  0  0  0  0  0  0  0
   -5.9210   26.2990  -29.7640 O   0  0  0  0  0  0  0  0  0  0  0  0
   -4.8780   24.5080  -28.4710 O   0  0  0  0  0  0  0  0  0  0  0  0
   -6.6220   23.7850  -31.9370 C   0  0  0  0  0  0  0  0  0  0  0  0
   -7.5300   22.8810  -32.4930 C   0  0  0  0  0  0  0  0  0  0  0  0
   -6.1271   17.5998  -34.1427 H   0  0  0  0  0  0  0  0  0  0  0  0
   -6.4746   18.9632  -35.2595 H   0  0  0  0  0  0  0  0  0  0  0  0
   -4.8516   18.1935  -35.2595 H   0  0  0  0  0  0  0  0  0  0  0  0
   -3.5177   21.9663  -32.6171 H   0  0  0  0  0  0  0  0  0  0  0  0
   -5.0577   20.9536  -30.6769 H   0  0  0  0  0  0  0  0  0  0  0  0
   -7.9290   19.9016  -33.5002 H   0  0  0  0  0  0  0  0  0  0  0  0
   -9.4887   19.0844  -33.0895 H   0  0  0  0  0  0  0  0  0  0  0  0
   -9.7236   21.5556  -33.1273 H   0  0  0  0  0  0  0  0  0  0  0  0
  -10.0132   20.8539  -31.4782 H   0  0  0  0  0  0  0  0  0  0  0  0
   -8.5143   21.2681  -29.6396 H   0  0  0  0  0  0  0  0  0  0  0  0
   -6.8884   22.8796  -28.6499 H   0  0  0  0  0  0  0  0  0  0  0  0
   -3.8080   26.0390  -31.2030 H   0  0  0  0  0  0  0  0  0  0  0  0
   -6.0921   24.4985  -32.5852 H   0  0  0  0  0  0  0  0  0  0  0  0
   -7.7068   22.8813  -33.5787 H   0  0  0  0  0  0  0  0  0  0  0  0
  1  2  1  0
  2  3  1  0
  3  4  1  0
  4  5  2  0
  5  6  1  0
  6  7  1  0
  7  8  2  0
  7  9  1  0
  9 10  1  0
 10 11  1  0
 11 12  1  0
 12 13  2  0
 13 14  1  0
 14 15  2  0
 15 16  1  0
 16 17  1  0
 16 18  2  0
 16 19  2  0
 15 20  1  0
 20 21  2  0
  6  2  2  0
 21 12  1  0
  1 22  1  0
  1 23  1  0
  1 24  1  0
  4 25  1  0
  5 26  1  0
 10 27  1  0
 10 28  1  0
 11 29  1  0
 11 30  1  0
 13 31  1  0
 14 32  1  0
 17 33  1  0
 20 34  1  0
 21 35  1  0
M  CHG  2   9  -1  17  -1
M  END
>  <UniqueID>  (5) 
5

>  <SMILES>  (5) 
Cc1occc1C(=O)[N-]CCc1ccc(S([NH-])(=O)=O)cc1

>  <Energy>  (5) 
54.51525949401973

>  <Genealogy>  (5) 
Cc1occc1C(=O)[N-]CCc1ccc(S([NH-])(=O)=O)cc1 (protonated)
Cc1occc1C(=O)[N-]CCc1ccc(S([NH-])(=O)=O)cc1 (3D coordinates assigned)
Cc1occc1C(=O)[N-]CCc1ccc(S([NH-])(=O)=O)cc1 (optimized conformer: 54.51525949401973 kcal/mol)

>  <smiles>  (5) 
Cc1occc1C(=O)NCCc1ccc(S(N)(=O)=O)cc1

>  <score_type>  (5) 
oracle

>  <origin>  (5) 
adgpu

>  <m_score__min__energy>  (5) 
-9.5899999999999999

>  <m_primary>  (5) 
energy

$$$$
5:0
     RDKit          3D

 37 39  0  0  0  0  0  0  0  0999 V2000
  -10.2209   21.2214  -32.5901 H   0  0  0  0  0  0  0  0  0  0  0  0
   -9.2670   21.6140  -32.2080 C   0  0  0  0  0  0  0  0  0  0  0  0
   -9.1160   22.9840  -31.9830 C   0  0  0  0  0  0  0  0  0  0  0  0
   -9.9514   23.6697  -32.1875 H   0  0  0  0  0  0  0  0  0  0  0  0
   -7.9040   23.4850  -31.4980 C   0  0  0  0  0  0  0  0  0  0  0  0
   -7.7908   24.5651  -31.3231 H   0  0  0  0  0  0  0  0  0  0  0  0
   -6.8280   22.6180  -31.2320 C   0  0  0  0  0  0  0  0  0  0  0  0
   -5.5480   23.1570  -30.7180 C   0  0  0  0  0  0  0  0  0  0  0  0
   -4.4940   23.4640  -31.5120 N   0  0  0  0  0  0  0  0  0  0  0  0
   -3.4400   23.9340  -30.8450 N   0  0  0  0  0  0  0  0  0  0  0  0
   -3.6490   24.0030  -29.5120 C   0  0  0  0  0  0  0  0  0  0  0  0
   -2.7740   24.4250  -28.6490 N   0  0  0  0  0  0  0  0  0  0  0  0
   -1.4480   24.8870  -28.9470 C   0  0  0  0  0  0  0  0  0  0  0  0
   -1.2400   26.0700  -29.3350 O   0  0  0  0  0  0  0  0  0  0  0  0
   -0.3000   23.9350  -28.8420 C   0  0  0  0  0  0  0  0  0  0  0  0
    0.5369   24.4291  -28.3267 H   0  0  0  0  0  0  0  0  0  0  0  0
    0.0107   23.6315  -29.8526 H   0  0  0  0  0  0  0  0  0  0  0  0
   -0.7120   22.7160  -28.0660 C   0  0  0  0  0  0  0  0  0  0  0  0
   -1.1390   21.5590  -28.7370 C   0  0  0  0  0  0  0  0  0  0  0  0
   -1.1981   21.5525  -29.8354 H   0  0  0  0  0  0  0  0  0  0  0  0
   -1.4890   20.4160  -28.0140 C   0  0  0  0  0  0  0  0  0  0  0  0
   -1.8304   19.5151  -28.5448 H   0  0  0  0  0  0  0  0  0  0  0  0
   -1.4070   20.4130  -26.6200 C   0  0  0  0  0  0  0  0  0  0  0  0
   -1.6861   19.5107  -26.0561 H   0  0  0  0  0  0  0  0  0  0  0  0
   -0.9680   21.5620  -25.9340 C   0  0  0  0  0  0  0  0  0  0  0  0
   -0.8620   21.6060  -24.5350 O   0  0  0  0  0  0  0  0  0  0  0  0
   -0.2400   22.6610  -23.8090 C   0  0  0  0  0  0  0  0  0  0  0  0
   -0.3484   22.4771  -22.7299 H   0  0  0  0  0  0  0  0  0  0  0  0
    0.8282   22.7043  -24.0681 H   0  0  0  0  0  0  0  0  0  0  0  0
   -0.7192   23.6166  -24.0681 H   0  0  0  0  0  0  0  0  0  0  0  0
   -0.6190   22.7040  -26.6640 C   0  0  0  0  0  0  0  0  0  0  0  0
   -0.2681   23.6020  -26.1344 H   0  0  0  0  0  0  0  0  0  0  0  0
   -5.1860   23.4700  -29.0950 S   0  0  0  0  0  0  0  0  0  0  0  0
   -6.9930   21.2390  -31.4630 C   0  0  0  0  0  0  0  0  0  0  0  0
   -6.1615   20.5479  -31.2607 H   0  0  0  0  0  0  0  0  0  0  0  0
   -8.2070   20.7420  -31.9480 C   0  0  0  0  0  0  0  0  0  0  0  0
   -8.3273   19.6630  -32.1250 H   0  0  0  0  0  0  0  0  0  0  0  0
  1  2  1  0
  2  3  2  0
  3  4  1  0
  3  5  1  0
  5  6  1  0
  5  7  2  0
  7  8  1  0
  8  9  2  0
  9 10  1  0
 10 11  1  0
 11 12  2  0
 12 13  1  0
 13 14  2  0
 13 15  1  0
 15 16  1  0
 15 17  1  0
 15 18  1  0
 18 19  2  0
 19 20  1  0
 19 21  1  0
 21 22  1  0
 21 23  2  0
 23 24  1  0
 23 25  1  0
 25 26  1  0
 26 27  1  0
 27 28  1  0
 27 29  1  0
 27 30  1  0
 25 31  2  0
 31 32  1  0
 11 33  1  0
  7 34  1  0
 34 35  1  0
 34 36  2  0
 36 37  1  0
 36  2  1  0
 33  8  1  0
 31 18  1  0
M  CHG  1  10  -1
M  END
>  <UniqueID>  (6) 
6

>  <SMILES>  (6) 
COc1cccc(CC(=O)/N=c2\[n-]nc(-c3ccccc3)s2)c1

>  <Energy>  (6) 
74.13206054590931

>  <Genealogy>  (6) 
COc1cccc(CC(=O)N=c2[n-]nc(-c3ccccc3)s2)c1 (protonated)
COc1cccc(CC(=O)/N=c2\[n-]nc(-c3ccccc3)s2)c1 (cis-trans isomerization)
COc1cccc(CC(=O)/N=c2\[n-]nc(-c3ccccc3)s2)c1 (3D coordinates assigned)
COc1cccc(CC(=O)/N=c2\[n-]nc(-c3ccccc3)s2)c1 (optimized conformer: 74.13206054590931 kcal/mol)

>  <smiles>  (6) 
COc1cccc(CC(=O)N=c2[nH]nc(-c3ccccc3)s2)c1

>  <score_type>  (6) 
oracle

>  <origin>  (6) 
adgpu

>  <m_score__min__energy>  (6) 
-9.3900000000000006

>  <m_primary>  (6) 
energy

$$$$
6:0
     RDKit          3D

 56 59  0  0  0  0  0  0  0  0999 V2000
   -2.4868   24.4447  -26.4246 H   0  0  0  0  0  0  0  0  0  0  0  0
   -1.8330   25.2400  -26.8120 C   0  0  0  0  0  0  0  0  0  0  0  0
   -1.6330   25.3030  -28.1390 C   0  0  0  0  0  0  0  0  0  0  0  0
   -0.9833   26.0998  -28.5301 H   0  0  0  0  0  0  0  0  0  0  0  0
   -2.2410   24.3560  -29.1050 C   0  0  0  0  0  0  0  0  0  0  0  0
   -1.4730   23.2720  -29.5590 C   0  0  0  0  0  0  0  0  0  0  0  0
   -0.4434   23.1434  -29.1937 H   0  0  0  0  0  0  0  0  0  0  0  0
   -2.0030   22.3550  -30.4700 C   0  0  0  0  0  0  0  0  0  0  0  0
   -1.3921   21.5038  -30.8050 H   0  0  0  0  0  0  0  0  0  0  0  0
   -3.3100   22.5110  -30.9620 C   0  0  0  0  0  0  0  0  0  0  0  0
   -3.8760   21.5330  -31.9250 C   0  0  0  0  0  0  0  0  0  0  0  0
   -5.2590   21.4850  -32.1640 C   0  0  0  0  0  0  0  0  0  0  0  0
   -5.9292   22.1716  -31.6260 H   0  0  0  0  0  0  0  0  0  0  0  0
   -5.7920   20.5720  -33.0800 C   0  0  0  0  0  0  0  0  0  0  0  0
   -7.1670   20.5390  -33.2840 O   0  0  0  0  0  0  0  0  0  0  0  0
   -4.9470   19.6970  -33.7820 C   0  0  0  0  0  0  0  0  0  0  0  0
   -5.6660   18.5360  -34.9670 S   0  0  0  0  0  0  0  0  0  0  0  0
   -4.9340   17.0490  -34.2450 C   0  0  0  0  0  0  0  0  0  0  0  0
   -4.0110   16.3290  -35.0250 C   0  0  0  0  0  0  0  0  0  0  0  0
   -3.8022   16.6522  -36.0555 H   0  0  0  0  0  0  0  0  0  0  0  0
   -3.3580   15.2120  -34.5090 C   0  0  0  0  0  0  0  0  0  0  0  0
   -2.6259   14.6697  -35.1255 H   0  0  0  0  0  0  0  0  0  0  0  0
   -3.6310   14.7820  -33.2150 C   0  0  0  0  0  0  0  0  0  0  0  0
   -3.0912   13.9192  -32.7975 H   0  0  0  0  0  0  0  0  0  0  0  0
   -4.5880   15.4430  -32.4460 C   0  0  0  0  0  0  0  0  0  0  0  0
   -4.8067   15.0829  -31.4299 H   0  0  0  0  0  0  0  0  0  0  0  0
   -5.2810   16.5650  -32.9470 C   0  0  0  0  0  0  0  0  0  0  0  0
   -6.4480   17.0970  -32.1120 C   0  0  0  0  0  0  0  0  0  0  0  0
   -6.7944   16.2397  -31.5162 H   0  0  0  0  0  0  0  0  0  0  0  0
   -7.6230   17.5560  -32.9870 C   0  0  0  0  0  0  0  0  0  0  0  0
   -8.4542   17.8807  -32.3438 H   0  0  0  0  0  0  0  0  0  0  0  0
   -7.3015   18.3947  -33.6221 H   0  0  0  0  0  0  0  0  0  0  0  0
   -7.9551   16.7215  -33.6221 H   0  0  0  0  0  0  0  0  0  0  0  0
   -6.0410   18.1680  -31.0970 C   0  0  0  0  0  0  0  0  0  0  0  0
   -6.1878   17.7817  -30.0776 H   0  0  0  0  0  0  0  0  0  0  0  0
   -4.9818   18.4269  -31.2420 H   0  0  0  0  0  0  0  0  0  0  0  0
   -6.6609   19.0650  -31.2420 H   0  0  0  0  0  0  0  0  0  0  0  0
   -3.5670   19.7230  -33.5270 C   0  0  0  0  0  0  0  0  0  0  0  0
   -2.7100   18.8450  -34.1720 O   0  0  0  0  0  0  0  0  0  0  0  0
   -3.0370   20.6400  -32.6120 C   0  0  0  0  0  0  0  0  0  0  0  0
   -1.9525   20.6616  -32.4290 H   0  0  0  0  0  0  0  0  0  0  0  0
   -4.0730   23.6080  -30.5260 C   0  0  0  0  0  0  0  0  0  0  0  0
   -5.0945   23.7483  -30.9091 H   0  0  0  0  0  0  0  0  0  0  0  0
   -3.5450   24.5220  -29.6100 C   0  0  0  0  0  0  0  0  0  0  0  0
   -4.1528   25.3778  -29.2809 H   0  0  0  0  0  0  0  0  0  0  0  0
   -1.2240   26.1800  -25.8370 C   0  0  0  0  0  0  0  0  0  0  0  0
   -0.8240   27.4870  -26.1840 C   0  0  0  0  0  0  0  0  0  0  0  0
   -0.9701   27.8486  -27.2125 H   0  0  0  0  0  0  0  0  0  0  0  0
   -0.2420   28.3270  -25.2270 C   0  0  0  0  0  0  0  0  0  0  0  0
    0.0600   29.3478  -25.5039 H   0  0  0  0  0  0  0  0  0  0  0  0
   -0.0440   27.8720  -23.9220 C   0  0  0  0  0  0  0  0  0  0  0  0
    0.4094   28.5353  -23.1707 H   0  0  0  0  0  0  0  0  0  0  0  0
   -0.4220   26.5740  -23.5710 C   0  0  0  0  0  0  0  0  0  0  0  0
   -0.2615   26.2139  -22.5441 H   0  0  0  0  0  0  0  0  0  0  0  0
   -1.0040   25.7320  -24.5230 C   0  0  0  0  0  0  0  0  0  0  0  0
   -1.2927   24.7087  -24.2410 H   0  0  0  0  0  0  0  0  0  0  0  0
  1  2  1  0
  2  3  2  0
  3  4  1  0
  3  5  1  0
  5  6  2  0
  6  7  1  0
  6  8  1  0
  8  9  1  0
  8 10  2  0
 10 11  1  0
 11 12  2  0
 12 13  1  0
 12 14  1  0
 14 15  1  0
 14 16  2  0
 16 17  1  0
 17 18  1  0
 18 19  2  0
 19 20  1  0
 19 21  1  0
 21 22  1  0
 21 23  2  0
 23 24  1  0
 23 25  1  0
 25 26  1  0
 25 27  2  0
 27 28  1  0
 28 29  1  0
 28 30  1  0
 30 31  1  0
 30 32  1  0
 30 33  1  0
 28 34  1  0
 34 35  1  0
 34 36  1  0
 34 37  1  0
 16 38  1  0
 38 39  1  0
 38 40  2  0
 40 41  1  0
 10 42  1  0
 42 43  1  0
 42 44  2  0
 44 45  1  0
  2 46  1  0
 46 47  2  0
 47 48  1  0
 47 49  1  0
 49 50  1  0
 49 51  2  0
 51 52  1  0
 51 53  1  0
 53 54  1  0
 53 55  2  0
 55 56  1  0
 44  5  1  0
 55 46  1  0
 40 11  1  0
 27 18  1  0
M  CHG  2  15  -1  39  -1
M  END
>  <UniqueID>  (7) 
7

>  <SMILES>  (7) 
CC(C)c1ccccc1Sc1c([O-])cc(-c2ccc(/C=C/c3ccccc3)cc2)cc1[O-]

>  <Energy>  (7) 
74.45930934476134

>  <Genealogy>  (7) 
CC(C)c1ccccc1Sc1c([O-])cc(-c2ccc(C=Cc3ccccc3)cc2)cc1[O-] (protonated)
CC(C)c1ccccc1Sc1c([O-])cc(-c2ccc(/C=C/c3ccccc3)cc2)cc1[O-] (cis-trans isomerization)
CC(C)c1ccccc1Sc1c([O-])cc(-c2ccc(/C=C/c3ccccc3)cc2)cc1[O-] (3D coordinates assigned)
CC(C)c1ccccc1Sc1c([O-])cc(-c2ccc(/C=C/c3ccccc3)cc2)cc1[O-] (optimized conformer: 74.45930934476134 kcal/mol)

>  <smiles>  (7) 
CC(C)c1ccccc1Sc1c(O)cc(-c2ccc(C=Cc3ccccc3)cc2)cc1O

>  <score_type>  (7) 
oracle

>  <origin>  (7) 
adgpu

>  <m_score__min__energy>  (7) 
-10.529999999999999

>  <m_primary>  (7) 
energy

$$$$
7:0
     RDKit          3D

 46 48  0  0  0  0  0  0  0  0999 V2000
    1.5340   23.7920  -26.9100 C   0  0  0  0  0  0  0  0  0  0  0  0
    0.2520   23.6890  -26.2020 N   0  0  0  0  0  0  0  0  0  0  0  0
    0.2570   23.4080  -24.7610 C   0  0  0  0  0  0  0  0  0  0  0  0
   -1.0020   23.8610  -26.9170 C   0  0  0  0  0  0  0  0  0  0  0  0
   -1.1820   23.3200  -28.2060 C   0  0  0  0  0  0  0  0  0  0  0  0
   -2.3880   23.4880  -28.8930 C   0  0  0  0  0  0  0  0  0  0  0  0
   -3.4410   24.2140  -28.3140 C   0  0  0  0  0  0  0  0  0  0  0  0
   -4.7000   24.3780  -28.9890 N   0  0  0  0  0  0  0  0  0  0  0  0
   -4.8340   24.8780  -30.3300 C   0  0  0  0  0  0  0  0  0  0  0  0
   -3.9170   25.5740  -30.8410 O   0  0  0  0  0  0  0  0  0  0  0  0
   -6.0460   24.6820  -31.0670 N   0  0  0  0  0  0  0  0  0  0  0  0
   -6.7170   23.4290  -31.2610 C   0  0  0  0  0  0  0  0  0  0  0  0
   -8.0280   23.4340  -31.7520 C   0  0  0  0  0  0  0  0  0  0  0  0
   -8.7050   22.2300  -31.9710 C   0  0  0  0  0  0  0  0  0  0  0  0
   -8.0690   21.0110  -31.7150 C   0  0  0  0  0  0  0  0  0  0  0  0
   -8.9410   19.4670  -31.9820 S   0  0  0  0  0  0  0  0  0  0  0  0
   -7.5450   18.7190  -32.8230 C   0  0  0  0  0  0  0  0  0  0  0  0
   -7.1470   17.4150  -32.4960 C   0  0  0  0  0  0  0  0  0  0  0  0
   -6.0630   16.8300  -33.1570 C   0  0  0  0  0  0  0  0  0  0  0  0
   -5.3730   17.5440  -34.1430 C   0  0  0  0  0  0  0  0  0  0  0  0
   -4.0140   16.8080  -34.9720 Cl  0  0  0  0  0  0  0  0  0  0  0  0
   -5.7680   18.8480  -34.4660 C   0  0  0  0  0  0  0  0  0  0  0  0
   -6.8520   19.4350  -33.8060 C   0  0  0  0  0  0  0  0  0  0  0  0
   -6.7470   20.9990  -31.2550 C   0  0  0  0  0  0  0  0  0  0  0  0
   -6.0700   22.2020  -31.0360 C   0  0  0  0  0  0  0  0  0  0  0  0
   -3.2790   24.7350  -27.0240 C   0  0  0  0  0  0  0  0  0  0  0  0
   -2.0740   24.5690  -26.3360 C   0  0  0  0  0  0  0  0  0  0  0  0
    2.3527   23.8578  -26.1783 H   0  0  0  0  0  0  0  0  0  0  0  0
    1.6768   22.9024  -27.5411 H   0  0  0  0  0  0  0  0  0  0  0  0
    1.5330   24.6930  -27.5411 H   0  0  0  0  0  0  0  0  0  0  0  0
    0.2401   24.3556  -24.2026 H   0  0  0  0  0  0  0  0  0  0  0  0
   -0.6307   22.8130  -24.5004 H   0  0  0  0  0  0  0  0  0  0  0  0
    1.1653   22.8449  -24.5004 H   0  0  0  0  0  0  0  0  0  0  0  0
   -0.3625   22.7580  -28.6778 H   0  0  0  0  0  0  0  0  0  0  0  0
   -2.5127   23.0485  -29.8937 H   0  0  0  0  0  0  0  0  0  0  0  0
   -5.5770   24.2060  -28.4470 H   0  0  0  0  0  0  0  0  0  0  0  0
   -8.5282   24.3899  -31.9667 H   0  0  0  0  0  0  0  0  0  0  0  0
   -9.7393   22.2418  -32.3452 H   0  0  0  0  0  0  0  0  0  0  0  0
   -7.6872   16.8528  -31.7201 H   0  0  0  0  0  0  0  0  0  0  0  0
   -5.7518   15.8063  -32.9015 H   0  0  0  0  0  0  0  0  0  0  0  0
   -5.2251   19.4110  -35.2395 H   0  0  0  0  0  0  0  0  0  0  0  0
   -7.1603   20.4600  -34.0595 H   0  0  0  0  0  0  0  0  0  0  0  0
   -6.2402   20.0413  -31.0656 H   0  0  0  0  0  0  0  0  0  0  0  0
   -5.0272   22.1883  -30.6863 H   0  0  0  0  0  0  0  0  0  0  0  0
   -4.1077   25.2797  -26.5481 H   0  0  0  0  0  0  0  0  0  0  0  0
   -1.9604   24.9960  -25.3286 H   0  0  0  0  0  0  0  0  0  0  0  0
  1  2  1  0
  2  3  1  0
  2  4  1  0
  4  5  2  0
  5  6  1  0
  6  7  2  0
  7  8  1  0
  8  9  1  0
  9 10  2  0
  9 11  1  0
 11 12  1  0
 12 13  2  0
 13 14  1  0
 14 15  2  0
 15 16  1  0
 16 17  1  0
 17 18  2  0
 18 19  1  0
 19 20  2  0
 20 21  1  0
 20 22  1  0
 22 23  2  0
 15 24  1  0
 24 25  2  0
  7 26  1  0
 26 27  2  0
 27  4  1  0
 25 12  1  0
 23 17  1  0
  1 28  1  0
  1 29  1  0
  1 30  1  0
  3 31  1  0
  3 32  1  0
  3 33  1  0
  5 34  1  0
  6 35  1  0
  8 36  1  0
 13 37  1  0
 14 38  1  0
 18 39  1  0
 19 40  1  0
 22 41  1  0
 23 42  1  0
 24 43  1  0
 25 44  1  0
 26 45  1  0
 27 46  1  0
M  CHG  1  11  -1
M  END
>  <UniqueID>  (8) 
8

>  <SMILES>  (8) 
CN(C)c1ccc(NC(=O)[N-]c2ccc(Sc3ccc(Cl)cc3)cc2)cc1

>  <Energy>  (8) 
51.8102392683773

>  <Genealogy>  (8) 
CN(C)c1ccc(NC(=O)[N-]c2ccc(Sc3ccc(Cl)cc3)cc2)cc1 (protonated)
CN(C)c1ccc(NC(=O)[N-]c2ccc(Sc3ccc(Cl)cc3)cc2)cc1 (3D coordinates assigned)
CN(C)c1ccc(NC(=O)[N-]c2ccc(Sc3ccc(Cl)cc3)cc2)cc1 (optimized conformer: 51.8102392683773 kcal/mol)

>  <smiles>  (8) 
CN(C)c1ccc(NC(=O)Nc2ccc(Sc3ccc(Cl)cc3)cc2)cc1

>  <score_type>  (8) 
oracle

>  <origin>  (8) 
adgpu

>  <m_score__min__energy>  (8) 
-11.69

>  <m_primary>  (8) 
energy

$$$$
8:0
     RDKit          3D

 39 41  0  0  0  0  0  0  0  0999 V2000
   -7.1220   23.7670  -31.1470 C   0  0  0  0  0  0  0  0  0  0  0  0
   -7.6650   22.4920  -31.7230 C   0  0  0  0  0  0  0  0  0  0  0  0
   -8.9890   22.1110  -31.4630 C   0  0  0  0  0  0  0  0  0  0  0  0
   -9.4850   20.9040  -31.9640 C   0  0  0  0  0  0  0  0  0  0  0  0
   -8.6590   20.0630  -32.7150 C   0  0  0  0  0  0  0  0  0  0  0  0
   -7.3220   20.4220  -32.9650 C   0  0  0  0  0  0  0  0  0  0  0  0
   -6.4350   19.5840  -33.7200 N   0  0  0  0  0  0  0  0  0  0  0  0
   -5.0840   18.7180  -33.0640 S   0  0  0  0  0  0  0  0  0  0  0  0
   -4.4960   17.8380  -34.1300 O   0  0  0  0  0  0  0  0  0  0  0  0
   -5.5580   17.8560  -31.9270 O   0  0  0  0  0  0  0  0  0  0  0  0
   -3.8560   19.8550  -32.5200 C   0  0  0  0  0  0  0  0  0  0  0  0
   -2.6630   19.9860  -33.2440 C   0  0  0  0  0  0  0  0  0  0  0  0
   -1.6870   20.8950  -32.8270 C   0  0  0  0  0  0  0  0  0  0  0  0
   -1.9010   21.6840  -31.6940 C   0  0  0  0  0  0  0  0  0  0  0  0
   -3.1030   21.5760  -30.9720 C   0  0  0  0  0  0  0  0  0  0  0  0
   -3.3330   22.3620  -29.7910 N   0  0  0  0  0  0  0  0  0  0  0  0
   -2.4640   23.4170  -29.3510 C   0  0  0  0  0  0  0  0  0  0  0  0
   -1.3100   23.2940  -28.6060 C   0  0  0  0  0  0  0  0  0  0  0  0
   -0.7980   24.5770  -28.5280 C   0  0  0  0  0  0  0  0  0  0  0  0
    0.3720   24.9250  -27.8610 O   0  0  0  0  0  0  0  0  0  0  0  0
   -1.5590   25.4730  -29.1900 N   0  0  0  0  0  0  0  0  0  0  0  0
   -2.5730   24.7470  -29.6970 C   0  0  0  0  0  0  0  0  0  0  0  0
   -3.5890   25.2910  -30.4730 O   0  0  0  0  0  0  0  0  0  0  0  0
   -4.0660   20.6410  -31.3780 C   0  0  0  0  0  0  0  0  0  0  0  0
   -6.8330   21.6370  -32.4640 C   0  0  0  0  0  0  0  0  0  0  0  0
   -7.1453   23.7123  -30.0486 H   0  0  0  0  0  0  0  0  0  0  0  0
   -6.0850   23.9097  -31.4851 H   0  0  0  0  0  0  0  0  0  0  0  0
   -7.7377   24.6135  -31.4851 H   0  0  0  0  0  0  0  0  0  0  0  0
   -9.6396   22.7641  -30.8628 H   0  0  0  0  0  0  0  0  0  0  0  0
  -10.5280   20.6153  -31.7667 H   0  0  0  0  0  0  0  0  0  0  0  0
   -9.0558   19.1170  -33.1120 H   0  0  0  0  0  0  0  0  0  0  0  0
   -2.4948   19.3726  -34.1415 H   0  0  0  0  0  0  0  0  0  0  0  0
   -0.7480   20.9896  -33.3921 H   0  0  0  0  0  0  0  0  0  0  0  0
   -1.1263   22.3924  -31.3654 H   0  0  0  0  0  0  0  0  0  0  0  0
   -4.2240   22.2120  -29.2640 H   0  0  0  0  0  0  0  0  0  0  0  0
   -0.8887   22.3765  -28.1693 H   0  0  0  0  0  0  0  0  0  0  0  0
    0.5060   24.6820  -26.8860 H   0  0  0  0  0  0  0  0  0  0  0  0
   -4.9924   20.5234  -30.7967 H   0  0  0  0  0  0  0  0  0  0  0  0
   -5.7878   21.9231  -32.6532 H   0  0  0  0  0  0  0  0  0  0  0  0
  1  2  1  0
  2  3  2  0
  3  4  1  0
  4  5  2  0
  5  6  1  0
  6  7  1  0
  7  8  1  0
  8  9  2  0
  8 10  2  0
  8 11  1  0
 11 12  2  0
 12 13  1  0
 13 14  2  0
 14 15  1  0
 15 16  1  0
 16 17  1  0
 17 18  1  0
 18 19  2  0
 19 20  1  0
 19 21  1  0
 21 22  1  0
 22 23  1  0
 15 24  2  0
  6 25  2  0
 25  2  1  0
 24 11  1  0
 22 17  2  0
  1 26  1  0
  1 27  1  0
  1 28  1  0
  3 29  1  0
  4 30  1  0
  5 31  1  0
 12 32  1  0
 13 33  1  0
 14 34  1  0
 16 35  1  0
 18 36  1  0
 20 37  1  0
 24 38  1  0
 25 39  1  0
M  CHG  3   7  -1  21  -1  23  -1
M  END
>  <UniqueID>  (9) 
9

>  <SMILES>  (9) 
Cc1cccc([N-]S(=O)(=O)c2cccc(Nc3cc(O)[n-]c3[O-])c2)c1

>  <Energy>  (9) 
74.27127441657925

>  <Genealogy>  (9) 
Cc1cccc([N-]S(=O)(=O)c2cccc(Nc3cc(O)[n-]c3[O-])c2)c1 (protonated)
Cc1cccc([N-]S(=O)(=O)c2cccc(Nc3cc(O)[n-]c3[O-])c2)c1 (3D coordinates assigned)
Cc1cccc([N-]S(=O)(=O)c2cccc(Nc3cc(O)[n-]c3[O-])c2)c1 (optimized conformer: 74.27127441657925 kcal/mol)

>  <smiles>  (9) 
Cc1cccc(NS(=O)(=O)c2cccc(Nc3cc(O)[nH]c3O)c2)c1

>  <score_type>  (9) 
oracle

>  <origin>  (9) 
adgpu

>  <m_score__min__energy>  (9) 
-12.99

>  <m_primary>  (9) 
energy

$$$$
9:0
     RDKit          3D

 44 46  0  0  0  0  0  0  0  0999 V2000
   -3.3590   21.4850  -32.9490 C   0  0  0  0  0  0  0  0  0  0  0  0
   -3.4810   22.5160  -31.9750 O   0  0  0  0  0  0  0  0  0  0  0  0
   -4.6960   23.0720  -31.5500 C   0  0  0  0  0  0  0  0  0  0  0  0
   -5.9270   22.4540  -31.8530 C   0  0  0  0  0  0  0  0  0  0  0  0
   -7.1260   22.9930  -31.3780 C   0  0  0  0  0  0  0  0  0  0  0  0
   -7.1110   24.1490  -30.6010 C   0  0  0  0  0  0  0  0  0  0  0  0
   -5.9010   24.7720  -30.2950 C   0  0  0  0  0  0  0  0  0  0  0  0
   -4.6930   24.2600  -30.7800 C   0  0  0  0  0  0  0  0  0  0  0  0
   -3.4880   24.9690  -30.4560 N   0  0  0  0  0  0  0  0  0  0  0  0
   -2.4370   24.6200  -29.1180 S   0  0  0  0  0  0  0  0  0  0  0  0
   -3.1670   24.8650  -27.8260 O   0  0  0  0  0  0  0  0  0  0  0  0
   -1.2450   25.5340  -29.1820 O   0  0  0  0  0  0  0  0  0  0  0  0
   -1.8660   22.9570  -29.2120 C   0  0  0  0  0  0  0  0  0  0  0  0
   -2.6780   21.9170  -28.7440 C   0  0  0  0  0  0  0  0  0  0  0  0
   -2.2330   20.5930  -28.8050 C   0  0  0  0  0  0  0  0  0  0  0  0
   -0.9640   20.2950  -29.3280 C   0  0  0  0  0  0  0  0  0  0  0  0
   -0.4790   18.9450  -29.3680 N   0  0  0  0  0  0  0  0  0  0  0  0
   -0.1490   18.1980  -28.1860 C   0  0  0  0  0  0  0  0  0  0  0  0
   -0.5840   18.5800  -27.0660 O   0  0  0  0  0  0  0  0  0  0  0  0
    0.6500   16.9530  -28.2700 C   0  0  0  0  0  0  0  0  0  0  0  0
    1.0500   16.4340  -29.5160 C   0  0  0  0  0  0  0  0  0  0  0  0
    1.8030   15.2620  -29.5800 C   0  0  0  0  0  0  0  0  0  0  0  0
    2.1670   14.5910  -28.4080 C   0  0  0  0  0  0  0  0  0  0  0  0
    2.8960   13.4520  -28.4790 F   0  0  0  0  0  0  0  0  0  0  0  0
    1.7850   15.1000  -27.1670 C   0  0  0  0  0  0  0  0  0  0  0  0
    2.1410   14.4570  -26.0280 F   0  0  0  0  0  0  0  0  0  0  0  0
    1.0330   16.2770  -27.0950 C   0  0  0  0  0  0  0  0  0  0  0  0
   -0.1440   21.3410  -29.7740 C   0  0  0  0  0  0  0  0  0  0  0  0
   -0.5980   22.6620  -29.7320 C   0  0  0  0  0  0  0  0  0  0  0  0
   -3.2442   20.5148  -32.4435 H   0  0  0  0  0  0  0  0  0  0  0  0
   -4.2612   21.4662  -33.5780 H   0  0  0  0  0  0  0  0  0  0  0  0
   -2.4773   21.6773  -33.5780 H   0  0  0  0  0  0  0  0  0  0  0  0
   -5.9436   21.5417  -32.4673 H   0  0  0  0  0  0  0  0  0  0  0  0
   -8.0818   22.5041  -31.6179 H   0  0  0  0  0  0  0  0  0  0  0  0
   -8.0555   24.5716  -30.2278 H   0  0  0  0  0  0  0  0  0  0  0  0
   -5.8968   25.6746  -29.6663 H   0  0  0  0  0  0  0  0  0  0  0  0
   -3.6704   22.1425  -28.3265 H   0  0  0  0  0  0  0  0  0  0  0  0
   -2.8798   19.7808  -28.4417 H   0  0  0  0  0  0  0  0  0  0  0  0
   -0.5170   18.4380  -30.2820 H   0  0  0  0  0  0  0  0  0  0  0  0
    0.7675   16.9550  -30.4427 H   0  0  0  0  0  0  0  0  0  0  0  0
    2.1123   14.8631  -30.5574 H   0  0  0  0  0  0  0  0  0  0  0  0
    0.7385   16.6777  -26.1138 H   0  0  0  0  0  0  0  0  0  0  0  0
    0.8625   21.1207  -30.1592 H   0  0  0  0  0  0  0  0  0  0  0  0
    0.0421   23.4735  -30.1084 H   0  0  0  0  0  0  0  0  0  0  0  0
  1  2  1  0
  2  3  1  0
  3  4  2  0
  4  5  1  0
  5  6  2  0
  6  7  1  0
  7  8  2  0
  8  9  1  0
  9 10  1  0
 10 11  2  0
 10 12  2  0
 10 13  1  0
 13 14  2  0
 14 15  1  0
 15 16  2  0
 16 17  1  0
 17 18  1  0
 18 19  2  0
 18 20  1  0
 20 21  2  0
 21 22  1  0
 22 23  2  0
 23 24  1  0
 23 25  1  0
 25 26  1  0
 25 27  2  0
 16 28  1  0
 28 29  2  0
  8  3  1  0
 29 13  1  0
 27 20  1  0
  1 30  1  0
  1 31  1  0
  1 32  1  0
  4 33  1  0
  5 34  1  0
  6 35  1  0
  7 36  1  0
 14 37  1  0
 15 38  1  0
 17 39  1  0
 21 40  1  0
 22 41  1  0
 27 42  1  0
 28 43  1  0
 29 44  1  0
M  CHG  1   9  -1
M  END
>  <UniqueID>  (10) 
10

>  <SMILES>  (10) 
COc1ccccc1[N-]S(=O)(=O)c1ccc(NC(=O)c2ccc(F)c(F)c2)cc1

>  <Energy>  (10) 
58.064954634139646

>  <Genealogy>  (10) 
COc1ccccc1[N-]S(=O)(=O)c1ccc(NC(=O)c2ccc(F)c(F)c2)cc1 (protonated)
COc1ccccc1[N-]S(=O)(=O)c1ccc(NC(=O)c2ccc(F)c(F)c2)cc1 (3D coordinates assigned)
COc1ccccc1[N-]S(=O)(=O)c1ccc(NC(=O)c2ccc(F)c(F)c2)cc1 (optimized conformer: 58.064954634139646 kcal/mol)

>  <smiles>  (10) 
COc1ccccc1NS(=O)(=O)c1ccc(NC(=O)c2ccc(F)c(F)c2)cc1

>  <score_type>  (10) 
oracle

>  <origin>  (10) 
adgpu

>  <m_score__min__energy>  (10) 
-10.27

>  <m_primary>  (10) 
energy

$$$$
10:0
     RDKit          3D

 30 31  0  0  0  0  0  0  0  0999 V2000
   -0.3760   26.2911  -29.1416 H   0  0  0  0  0  0  0  0  0  0  0  0
   -1.0810   25.6770  -28.5620 C   0  0  0  0  0  0  0  0  0  0  0  0
   -2.2610   25.2940  -29.1170 N   0  0  0  0  0  0  0  0  0  0  0  0
   -3.1750   24.5480  -28.4310 C   0  0  0  0  0  0  0  0  0  0  0  0
   -4.2930   24.1770  -28.9850 N   0  0  0  0  0  0  0  0  0  0  0  0
   -4.7520   24.5470  -30.2940 C   0  0  0  0  0  0  0  0  0  0  0  0
   -4.2370   25.5510  -30.8500 O   0  0  0  0  0  0  0  0  0  0  0  0
   -5.7440   23.7320  -31.0340 C   0  0  0  0  0  0  0  0  0  0  0  0
   -7.1170   23.8080  -30.8860 C   0  0  0  0  0  0  0  0  0  0  0  0
   -7.6900   24.4883  -30.2388 H   0  0  0  0  0  0  0  0  0  0  0  0
   -7.6050   22.8340  -31.7370 C   0  0  0  0  0  0  0  0  0  0  0  0
   -9.0390   22.4550  -31.8960 C   0  0  0  0  0  0  0  0  0  0  0  0
   -9.4983   22.3336  -30.9039 H   0  0  0  0  0  0  0  0  0  0  0  0
   -9.5675   23.2443  -32.4507 H   0  0  0  0  0  0  0  0  0  0  0  0
   -9.1085   21.5076  -32.4507 H   0  0  0  0  0  0  0  0  0  0  0  0
   -6.5860   22.1910  -32.3390 N   0  0  0  0  0  0  0  0  0  0  0  0
   -5.4610   22.7480  -31.9160 N   0  0  0  0  0  0  0  0  0  0  0  0
   -4.1410   22.3050  -32.3540 C   0  0  0  0  0  0  0  0  0  0  0  0
   -3.5144   22.0947  -31.4747 H   0  0  0  0  0  0  0  0  0  0  0  0
   -4.2427   21.3918  -32.9587 H   0  0  0  0  0  0  0  0  0  0  0  0
   -3.6712   23.0947  -32.9587 H   0  0  0  0  0  0  0  0  0  0  0  0
   -2.8930   24.1480  -27.1210 C   0  0  0  0  0  0  0  0  0  0  0  0
   -3.6151   23.5357  -26.5609 H   0  0  0  0  0  0  0  0  0  0  0  0
   -1.6870   24.5320  -26.5290 C   0  0  0  0  0  0  0  0  0  0  0  0
   -1.4652   24.2373  -25.4927 H   0  0  0  0  0  0  0  0  0  0  0  0
   -0.7600   25.2920  -27.2540 C   0  0  0  0  0  0  0  0  0  0  0  0
    0.5200   25.7440  -26.6170 C   0  0  0  0  0  0  0  0  0  0  0  0
    0.4176   25.7078  -25.5224 H   0  0  0  0  0  0  0  0  0  0  0  0
    1.3398   25.0810  -26.9307 H   0  0  0  0  0  0  0  0  0  0  0  0
    0.7417   26.7748  -26.9307 H   0  0  0  0  0  0  0  0  0  0  0  0
  1  2  1  0
  2  3  1  0
  3  4  1  0
  4  5  2  0
  5  6  1  0
  6  7  2  0
  6  8  1  0
  8  9  2  0
  9 10  1  0
  9 11  1  0
 11 12  1  0
 12 13  1  0
 12 14  1  0
 12 15  1  0
 11 16  2  0
 16 17  1  0
 17 18  1  0
 18 19  1  0
 18 20  1  0
 18 21  1  0
  4 22  1  0
 22 23  1  0
 22 24  2  0
 24 25  1  0
 24 26  1  0
 26 27  1  0
 27 28  1  0
 27 29  1  0
 27 30  1  0
 26  2  2  0
 17  8  1  0
M  CHG  1   3  -1
M  END
>  <UniqueID>  (11) 
11

>  <SMILES>  (11) 
Cc1cc/c(=N/C(=O)c2cc(C)nn2C)[n-]c1

>  <Energy>  (11) 
64.9106201068249

>  <Genealogy>  (11) 
Cc1ccc(=NC(=O)c2cc(C)nn2C)[n-]c1 (protonated)
Cc1cc/c(=N/C(=O)c2cc(C)nn2C)[n-]c1 (cis-trans isomerization)
Cc1cc/c(=N/C(=O)c2cc(C)nn2C)[n-]c1 (3D coordinates assigned)
Cc1cc/c(=N/C(=O)c2cc(C)nn2C)[n-]c1 (optimized conformer: 64.9106201068249 kcal/mol)

>  <smiles>  (11) 
Cc1ccc(=NC(=O)c2cc(C)nn2C)[nH]c1

>  <score_type>  (11) 
oracle

>  <origin>  (11) 
adgpu

>  <m_score__min__energy>  (11) 
-8.0099999999999998

>  <m_primary>  (11) 
energy

$$$$
11:0
     RDKit          3D

 75 79  0  0  0  0  0  0  0  0999 V2000
   -9.2030   19.5350  -32.0300 C   0  0  0  0  0  0  0  0  0  0  0  0
   -7.7970   19.1310  -32.3540 C   0  0  0  0  0  0  0  0  0  0  0  0
   -7.1410   19.7010  -33.4570 C   0  0  0  0  0  0  0  0  0  0  0  0
   -5.8410   19.3100  -33.7830 C   0  0  0  0  0  0  0  0  0  0  0  0
   -5.1850   18.3270  -33.0240 C   0  0  0  0  0  0  0  0  0  0  0  0
   -3.8430   17.9300  -33.3420 N   0  0  0  0  0  0  0  0  0  0  0  0
   -2.8770   18.8010  -33.5910 N   0  0  0  0  0  0  0  0  0  0  0  0
   -1.7760   18.1090  -33.9510 C   0  0  0  0  0  0  0  0  0  0  0  0
   -0.5380   18.7390  -34.4280 C   0  0  0  0  0  0  0  0  0  0  0  0
   -0.6070   19.6850  -35.2580 O   0  0  0  0  0  0  0  0  0  0  0  0
    0.7500   18.3280  -33.9500 N   0  0  0  0  0  0  0  0  0  0  0  0
    1.3710   18.7330  -32.6880 C   0  0  0  0  0  0  0  0  0  0  0  0
    0.3410   19.2380  -31.6590 C   0  0  0  0  0  0  0  0  0  0  0  0
    0.2550   20.7670  -31.5800 C   0  0  0  0  0  0  0  0  0  0  0  0
   -1.1570   21.2030  -31.5320 N   0  0  0  0  0  0  0  0  0  0  0  0
   -2.0140   20.1950  -30.8840 C   0  0  0  0  0  0  0  0  0  0  0  0
   -3.3550   20.8400  -30.5360 C   0  0  0  0  0  0  0  0  0  0  0  0
   -3.7720   21.7750  -31.5880 N   0  0  0  0  0  0  0  0  0  0  0  0
   -4.9420   22.5790  -31.3770 C   0  0  0  0  0  0  0  0  0  0  0  0
   -6.1370   22.2150  -32.0120 C   0  0  0  0  0  0  0  0  0  0  0  0
   -7.2970   22.9580  -31.8130 C   0  0  0  0  0  0  0  0  0  0  0  0
   -7.2830   24.0620  -30.9600 C   0  0  0  0  0  0  0  0  0  0  0  0
   -6.1010   24.4460  -30.3040 C   0  0  0  0  0  0  0  0  0  0  0  0
   -6.1310   25.6550  -29.4070 C   0  0  0  0  0  0  0  0  0  0  0  0
   -4.9020   23.7260  -30.5460 C   0  0  0  0  0  0  0  0  0  0  0  0
   -3.6020   24.1600  -29.9080 C   0  0  0  0  0  0  0  0  0  0  0  0
   -3.1950   21.6860  -32.9340 C   0  0  0  0  0  0  0  0  0  0  0  0
   -1.6600   21.5200  -32.8870 C   0  0  0  0  0  0  0  0  0  0  0  0
   -2.0450   16.7490  -33.9220 C   0  0  0  0  0  0  0  0  0  0  0  0
   -1.1350   15.6340  -34.3360 C   0  0  0  0  0  0  0  0  0  0  0  0
   -3.3770   16.6780  -33.5500 C   0  0  0  0  0  0  0  0  0  0  0  0
   -4.1590   15.4810  -33.4290 N   0  0  0  0  0  0  0  0  0  0  0  0
   -4.0240   14.5330  -32.4820 C   0  0  0  0  0  0  0  0  0  0  0  0
   -4.9870   13.5610  -32.6580 C   0  0  0  0  0  0  0  0  0  0  0  0
   -5.7400   13.9410  -33.7540 C   0  0  0  0  0  0  0  0  0  0  0  0
   -5.2030   15.1300  -34.2060 C   0  0  0  0  0  0  0  0  0  0  0  0
   -5.8360   17.7670  -31.9150 C   0  0  0  0  0  0  0  0  0  0  0  0
   -7.1380   18.1570  -31.5890 C   0  0  0  0  0  0  0  0  0  0  0  0
   -9.3315   19.5719  -30.9382 H   0  0  0  0  0  0  0  0  0  0  0  0
   -9.4068   20.5280  -32.4570 H   0  0  0  0  0  0  0  0  0  0  0  0
   -9.9029   18.8016  -32.4570 H   0  0  0  0  0  0  0  0  0  0  0  0
   -7.6538   20.4592  -34.0671 H   0  0  0  0  0  0  0  0  0  0  0  0
   -5.3281   19.7740  -34.6383 H   0  0  0  0  0  0  0  0  0  0  0  0
    1.9005   17.8681  -32.2618 H   0  0  0  0  0  0  0  0  0  0  0  0
    2.0603   19.5621  -32.9056 H   0  0  0  0  0  0  0  0  0  0  0  0
   -0.6491   18.8474  -31.9368 H   0  0  0  0  0  0  0  0  0  0  0  0
    0.6681   18.8807  -30.6714 H   0  0  0  0  0  0  0  0  0  0  0  0
    0.7719   21.1125  -30.6725 H   0  0  0  0  0  0  0  0  0  0  0  0
    0.7307   21.1974  -32.4736 H   0  0  0  0  0  0  0  0  0  0  0  0
   -2.1766   19.3513  -31.5708 H   0  0  0  0  0  0  0  0  0  0  0  0
   -1.5288   19.8240  -29.9692 H   0  0  0  0  0  0  0  0  0  0  0  0
   -4.1167   20.0536  -30.4297 H   0  0  0  0  0  0  0  0  0  0  0  0
   -3.2449   21.3960  -29.5933 H   0  0  0  0  0  0  0  0  0  0  0  0
   -6.1584   21.3357  -32.6725 H   0  0  0  0  0  0  0  0  0  0  0  0
   -8.2261   22.6744  -32.3290 H   0  0  0  0  0  0  0  0  0  0  0  0
   -8.2065   24.6376  -30.7993 H   0  0  0  0  0  0  0  0  0  0  0  0
   -6.1230   25.3318  -28.3556 H   0  0  0  0  0  0  0  0  0  0  0  0
   -5.2481   26.2805  -29.6051 H   0  0  0  0  0  0  0  0  0  0  0  0
   -7.0438   26.2360  -29.6051 H   0  0  0  0  0  0  0  0  0  0  0  0
   -3.7019   24.1267  -28.8130 H   0  0  0  0  0  0  0  0  0  0  0  0
   -2.7947   23.4826  -30.2234 H   0  0  0  0  0  0  0  0  0  0  0  0
   -3.3635   25.1865  -30.2234 H   0  0  0  0  0  0  0  0  0  0  0  0
   -3.6317   20.8198  -33.4526 H   0  0  0  0  0  0  0  0  0  0  0  0
   -3.4230   22.6205  -33.4676 H   0  0  0  0  0  0  0  0  0  0  0  0
   -1.3741   20.7043  -33.5674 H   0  0  0  0  0  0  0  0  0  0  0  0
   -1.2145   22.4794  -33.1887 H   0  0  0  0  0  0  0  0  0  0  0  0
   -0.7309   15.1389  -33.4407 H   0  0  0  0  0  0  0  0  0  0  0  0
   -1.6987   14.9042  -34.9357 H   0  0  0  0  0  0  0  0  0  0  0  0
   -0.3070   16.0399  -34.9357 H   0  0  0  0  0  0  0  0  0  0  0  0
   -3.2618   14.5336  -31.6888 H   0  0  0  0  0  0  0  0  0  0  0  0
   -5.1285   12.6585  -32.0453 H   0  0  0  0  0  0  0  0  0  0  0  0
   -6.5982   13.4019  -34.1816 H   0  0  0  0  0  0  0  0  0  0  0  0
   -5.5713   15.7038  -35.0692 H   0  0  0  0  0  0  0  0  0  0  0  0
   -5.3191   17.0168  -31.2985 H   0  0  0  0  0  0  0  0  0  0  0  0
   -7.6481   17.6983  -30.7291 H   0  0  0  0  0  0  0  0  0  0  0  0
  1  2  1  0
  2  3  2  0
  3  4  1  0
  4  5  2  0
  5  6  1  0
  6  7  1  0
  7  8  2  0
  8  9  1  0
  9 10  2  0
  9 11  1  0
 11 12  1  0
 12 13  1  0
 13 14  1  0
 14 15  1  0
 15 16  1  0
 16 17  1  0
 17 18  1  0
 18 19  1  0
 19 20  2  0
 20 21  1  0
 21 22  2  0
 22 23  1  0
 23 24  1  0
 23 25  2  0
 25 26  1  0
 18 27  1  0
 27 28  1  0
  8 29  1  0
 29 30  1  0
 29 31  2  0
 31 32  1  0
 32 33  1  0
 33 34  2  0
 34 35  1  0
 35 36  2  0
  5 37  1  0
 37 38  2  0
 38  2  1  0
 31  6  1  0
 36 32  1  0
 28 15  1  0
 25 19  1  0
  1 39  1  0
  1 40  1  0
  1 41  1  0
  3 42  1  0
  4 43  1  0
 12 44  1  0
 12 45  1  0
 13 46  1  0
 13 47  1  0
 14 48  1  0
 14 49  1  0
 16 50  1  0
 16 51  1  0
 17 52  1  0
 17 53  1  0
 20 54  1  0
 21 55  1  0
 22 56  1  0
 24 57  1  0
 24 58  1  0
 24 59  1  0
 26 60  1  0
 26 61  1  0
 26 62  1  0
 27 63  1  0
 27 64  1  0
 28 65  1  0
 28 66  1  0
 30 67  1  0
 30 68  1  0
 30 69  1  0
 33 70  1  0
 34 71  1  0
 35 72  1  0
 36 73  1  0
 37 74  1  0
 38 75  1  0
M  CHG  1  11  -1
M  END
>  <UniqueID>  (12) 
12

>  <SMILES>  (12) 
Cc1ccc(-n2nc(C(=O)[N-]CCCN3CCN(c4cccc(C)c4C)CC3)c(C)c2-n2cccc2)cc1

>  <Energy>  (12) 
155.01831963625932

>  <Genealogy>  (12) 
Cc1ccc(-n2nc(C(=O)[N-]CCCN3CCN(c4cccc(C)c4C)CC3)c(C)c2-n2cccc2)cc1 (protonated)
Cc1ccc(-n2nc(C(=O)[N-]CCCN3CCN(c4cccc(C)c4C)CC3)c(C)c2-n2cccc2)cc1 (3D coordinates assigned)
Cc1ccc(-n2nc(C(=O)[N-]CCCN3CCN(c4cccc(C)c4C)CC3)c(C)c2-n2cccc2)cc1 (nonaromatic ring conformer: 155.01831963625932 kcal/mol)

>  <smiles>  (12) 
Cc1ccc(-n2nc(C(=O)NCCCN3CCN(c4cccc(C)c4C)CC3)c(C)c2-n2cccc2)cc1

>  <score_type>  (12) 
oracle

>  <origin>  (12) 
adgpu

>  <m_score__min__energy>  (12) 
-11.869999999999999

>  <m_primary>  (12) 
energy

$$$$
12:0
     RDKit          3D

 52 54  0  0  0  0  0  0  0  0999 V2000
   -9.0380   23.4030  -32.3270 C   0  0  0  0  0  0  0  0  0  0  0  0
   -9.4820   22.2820  -31.3940 C   0  0  0  0  0  0  0  0  0  0  0  0
   -8.2800   21.4950  -30.8590 C   0  0  0  0  0  0  0  0  0  0  0  0
   -7.5920   20.8020  -31.9570 N   0  0  0  0  0  0  0  0  0  0  0  0
   -8.2960   19.7730  -32.7290 C   0  0  0  0  0  0  0  0  0  0  0  0
   -7.4250   18.5630  -32.8890 C   0  0  0  0  0  0  0  0  0  0  0  0
   -7.5660   17.5950  -32.0940 O   0  0  0  0  0  0  0  0  0  0  0  0
   -6.4920   18.4860  -33.9810 N   0  0  0  0  0  0  0  0  0  0  0  0
   -5.5410   17.4230  -34.1560 C   0  0  0  0  0  0  0  0  0  0  0  0
   -5.9650   16.0940  -34.0140 C   0  0  0  0  0  0  0  0  0  0  0  0
   -5.0660   15.0400  -34.1980 C   0  0  0  0  0  0  0  0  0  0  0  0
   -3.7350   15.2980  -34.5500 C   0  0  0  0  0  0  0  0  0  0  0  0
   -2.7710   14.1610  -34.7220 C   0  0  0  0  0  0  0  0  0  0  0  0
   -3.3090   16.6260  -34.7060 C   0  0  0  0  0  0  0  0  0  0  0  0
   -4.2080   17.6820  -34.5220 C   0  0  0  0  0  0  0  0  0  0  0  0
   -6.2610   21.1940  -32.3420 C   0  0  0  0  0  0  0  0  0  0  0  0
   -5.8300   20.8710  -33.4800 O   0  0  0  0  0  0  0  0  0  0  0  0
   -5.3940   21.9720  -31.4280 C   0  0  0  0  0  0  0  0  0  0  0  0
   -5.6570   23.3290  -31.1890 C   0  0  0  0  0  0  0  0  0  0  0  0
   -4.8280   24.0760  -30.3490 C   0  0  0  0  0  0  0  0  0  0  0  0
   -3.7080   23.4870  -29.7340 C   0  0  0  0  0  0  0  0  0  0  0  0
   -2.8590   24.2770  -28.8730 N   0  0  0  0  0  0  0  0  0  0  0  0
   -2.9890   24.4700  -27.5410 C   0  0  0  0  0  0  0  0  0  0  0  0
   -1.9640   25.2860  -27.1130 C   0  0  0  0  0  0  0  0  0  0  0  0
   -1.2330   25.5590  -28.2500 C   0  0  0  0  0  0  0  0  0  0  0  0
   -1.7940   24.9370  -29.3050 N   0  0  0  0  0  0  0  0  0  0  0  0
   -3.4420   22.1260  -29.9830 C   0  0  0  0  0  0  0  0  0  0  0  0
   -4.2730   21.3800  -30.8240 C   0  0  0  0  0  0  0  0  0  0  0  0
   -8.6975   24.2627  -31.7312 H   0  0  0  0  0  0  0  0  0  0  0  0
   -8.2130   23.0468  -32.9615 H   0  0  0  0  0  0  0  0  0  0  0  0
   -9.8831   23.7083  -32.9615 H   0  0  0  0  0  0  0  0  0  0  0  0
  -10.0314   22.7175  -30.5464 H   0  0  0  0  0  0  0  0  0  0  0  0
  -10.1248   21.5922  -31.9606 H   0  0  0  0  0  0  0  0  0  0  0  0
   -7.5791   22.1897  -30.3731 H   0  0  0  0  0  0  0  0  0  0  0  0
   -8.6362   20.7488  -30.1336 H   0  0  0  0  0  0  0  0  0  0  0  0
   -9.2187   19.4899  -32.2013 H   0  0  0  0  0  0  0  0  0  0  0  0
   -8.5416   20.1739  -33.7235 H   0  0  0  0  0  0  0  0  0  0  0  0
   -6.5720   19.2000  -34.7410 H   0  0  0  0  0  0  0  0  0  0  0  0
   -7.0126   15.8796  -33.7560 H   0  0  0  0  0  0  0  0  0  0  0  0
   -5.4055   14.0021  -34.0657 H   0  0  0  0  0  0  0  0  0  0  0  0
   -2.4586   13.7925  -33.7338 H   0  0  0  0  0  0  0  0  0  0  0  0
   -3.2589   13.3477  -35.2792 H   0  0  0  0  0  0  0  0  0  0  0  0
   -1.8888   14.5093  -35.2792 H   0  0  0  0  0  0  0  0  0  0  0  0
   -2.2634   16.8376  -34.9742 H   0  0  0  0  0  0  0  0  0  0  0  0
   -3.8708   18.7193  -34.6642 H   0  0  0  0  0  0  0  0  0  0  0  0
   -6.5236   23.8089  -31.6672 H   0  0  0  0  0  0  0  0  0  0  0  0
   -5.0534   25.1370  -30.1662 H   0  0  0  0  0  0  0  0  0  0  0  0
   -3.7805   24.0465  -26.9052 H   0  0  0  0  0  0  0  0  0  0  0  0
   -1.7715   25.6412  -26.0899 H   0  0  0  0  0  0  0  0  0  0  0  0
   -0.3311   26.1876  -28.2894 H   0  0  0  0  0  0  0  0  0  0  0  0
   -2.5721   21.6458  -29.5111 H   0  0  0  0  0  0  0  0  0  0  0  0
   -4.0469   20.3204  -31.0142 H   0  0  0  0  0  0  0  0  0  0  0  0
  1  2  1  0
  2  3  1  0
  3  4  1  0
  4  5  1  0
  5  6  1  0
  6  7  2  0
  6  8  1  0
  8  9  1  0
  9 10  2  0
 10 11  1  0
 11 12  2  0
 12 13  1  0
 12 14  1  0
 14 15  2  0
  4 16  1  0
 16 17  2  0
 16 18  1  0
 18 19  2  0
 19 20  1  0
 20 21  2  0
 21 22  1  0
 22 23  1  0
 23 24  2  0
 24 25  1  0
 25 26  2  0
 21 27  1  0
 27 28  2  0
 15  9  1  0
 28 18  1  0
 26 22  1  0
  1 29  1  0
  1 30  1  0
  1 31  1  0
  2 32  1  0
  2 33  1  0
  3 34  1  0
  3 35  1  0
  5 36  1  0
  5 37  1  0
  8 38  1  0
 10 39  1  0
 11 40  1  0
 13 41  1  0
 13 42  1  0
 13 43  1  0
 14 44  1  0
 15 45  1  0
 19 46  1  0
 20 47  1  0
 23 48  1  0
 24 49  1  0
 25 50  1  0
 27 51  1  0
 28 52  1  0
M  END
>  <UniqueID>  (13) 
13

>  <SMILES>  (13) 
CCCN(CC(=O)Nc1ccc(C)cc1)C(=O)c1ccc(-n2cccn2)cc1

>  <Energy>  (13) 
86.41590304705755

>  <Genealogy>  (13) 
CCCN(CC(=O)Nc1ccc(C)cc1)C(=O)c1ccc(-n2cccn2)cc1 (3D coordinates assigned)
CCCN(CC(=O)Nc1ccc(C)cc1)C(=O)c1ccc(-n2cccn2)cc1 (optimized conformer: 86.41590304705755 kcal/mol)

>  <smiles>  (13) 
CCCN(CC(=O)Nc1ccc(C)cc1)C(=O)c1ccc(-n2cccn2)cc1

>  <score_type>  (13) 
oracle

>  <origin>  (13) 
adgpu

>  <m_score__min__energy>  (13) 
-9.1500000000000004

>  <m_primary>  (13) 
energy

$$$$
13:0
     RDKit          3D

 55 58  0  0  0  0  0  0  0  0999 V2000
   -2.5780   15.5650  -35.1220 C   0  0  0  0  0  0  0  0  0  0  0  0
   -2.9300   16.9100  -35.4300 O   0  0  0  0  0  0  0  0  0  0  0  0
   -3.1070   17.9210  -34.4740 C   0  0  0  0  0  0  0  0  0  0  0  0
   -2.0260   18.5600  -33.8410 C   0  0  0  0  0  0  0  0  0  0  0  0
   -2.2560   19.5630  -32.8940 C   0  0  0  0  0  0  0  0  0  0  0  0
   -3.5670   19.9470  -32.5600 C   0  0  0  0  0  0  0  0  0  0  0  0
   -3.8290   21.0080  -31.5580 C   0  0  0  0  0  0  0  0  0  0  0  0
   -4.3680   22.2640  -31.7930 C   0  0  0  0  0  0  0  0  0  0  0  0
   -4.3980   22.8620  -30.5520 C   0  0  0  0  0  0  0  0  0  0  0  0
   -4.8790   24.2260  -30.2860 C   0  0  0  0  0  0  0  0  0  0  0  0
   -4.1530   25.2000  -30.6270 O   0  0  0  0  0  0  0  0  0  0  0  0
   -6.2130   24.4460  -29.7660 N   0  0  1  0  0  0  0  0  0  0  0  0
   -6.3170   25.7420  -29.0710 C   0  0  0  0  0  0  0  0  0  0  0  0
   -7.2370   24.2890  -30.8240 C   0  0  0  0  0  0  0  0  0  0  0  0
   -7.6430   22.8590  -31.0630 C   0  0  0  0  0  0  0  0  0  0  0  0
   -8.6160   22.4200  -31.9360 C   0  0  0  0  0  0  0  0  0  0  0  0
   -8.6090   21.0520  -31.7580 C   0  0  0  0  0  0  0  0  0  0  0  0
   -9.4370   20.0680  -32.5110 C   0  0  0  0  0  0  0  0  0  0  0  0
   -7.6710   20.7130  -30.8510 N   0  0  0  0  0  0  0  0  0  0  0  0
   -7.1180   21.8220  -30.4520 O   0  0  0  0  0  0  0  0  0  0  0  0
   -3.8980   22.0020  -29.6370 N   0  0  0  0  0  0  0  0  0  0  0  0
   -3.5770   22.2800  -28.2380 C   0  0  0  0  0  0  0  0  0  0  0  0
   -2.6900   23.4900  -28.1500 C   0  0  0  0  0  0  0  0  0  0  0  0
   -2.8390   24.4070  -27.0990 C   0  0  0  0  0  0  0  0  0  0  0  0
   -1.9810   25.5040  -27.0020 C   0  0  0  0  0  0  0  0  0  0  0  0
   -0.9730   25.6690  -27.9540 C   0  0  0  0  0  0  0  0  0  0  0  0
   -0.8300   24.7640  -28.9590 N   0  0  0  0  0  0  0  0  0  0  0  0
   -1.6540   23.6880  -29.0750 C   0  0  0  0  0  0  0  0  0  0  0  0
   -3.5410   20.8820  -30.2450 N   0  0  0  0  0  0  0  0  0  0  0  0
   -4.6430   19.3050  -33.1990 C   0  0  0  0  0  0  0  0  0  0  0  0
   -4.4120   18.3020  -34.1450 C   0  0  0  0  0  0  0  0  0  0  0  0
   -2.5442   15.4357  -34.0302 H   0  0  0  0  0  0  0  0  0  0  0  0
   -3.3278   14.8828  -35.5490 H   0  0  0  0  0  0  0  0  0  0  0  0
   -1.5901   15.3376  -35.5490 H   0  0  0  0  0  0  0  0  0  0  0  0
   -0.9951   18.2697  -34.0918 H   0  0  0  0  0  0  0  0  0  0  0  0
   -1.4029   20.0565  -32.4055 H   0  0  0  0  0  0  0  0  0  0  0  0
   -4.6973   22.6873  -32.7534 H   0  0  0  0  0  0  0  0  0  0  0  0
   -6.4150   23.7080  -29.0520 H   0  0  0  0  0  0  0  0  0  0  0  0
   -6.3038   25.5770  -27.9835 H   0  0  0  0  0  0  0  0  0  0  0  0
   -5.4672   26.3798  -29.3555 H   0  0  0  0  0  0  0  0  0  0  0  0
   -7.2577   26.2362  -29.3555 H   0  0  0  0  0  0  0  0  0  0  0  0
   -8.1304   24.8597  -30.5306 H   0  0  0  0  0  0  0  0  0  0  0  0
   -6.7929   24.6588  -31.7600 H   0  0  0  0  0  0  0  0  0  0  0  0
   -9.2461   23.0170  -32.6117 H   0  0  0  0  0  0  0  0  0  0  0  0
   -9.9781   19.4249  -31.8013 H   0  0  0  0  0  0  0  0  0  0  0  0
  -10.1592   20.6046  -33.1438 H   0  0  0  0  0  0  0  0  0  0  0  0
   -8.7848   19.4481  -33.1438 H   0  0  0  0  0  0  0  0  0  0  0  0
   -4.5065   22.4672  -27.6803 H   0  0  0  0  0  0  0  0  0  0  0  0
   -3.0538   21.4140  -27.8064 H   0  0  0  0  0  0  0  0  0  0  0  0
   -3.6323   24.2617  -26.3509 H   0  0  0  0  0  0  0  0  0  0  0  0
   -2.0978   26.2305  -26.1844 H   0  0  0  0  0  0  0  0  0  0  0  0
   -0.2938   26.5320  -27.8910 H   0  0  0  0  0  0  0  0  0  0  0  0
   -1.5076   22.9711  -29.8964 H   0  0  0  0  0  0  0  0  0  0  0  0
   -5.6751   19.5946  -32.9523 H   0  0  0  0  0  0  0  0  0  0  0  0
   -5.2640   17.8081  -34.6350 H   0  0  0  0  0  0  0  0  0  0  0  0
  1  2  1  0
  2  3  1  0
  3  4  2  0
  4  5  1  0
  5  6  2  0
  6  7  1  0
  7  8  1  0
  8  9  2  0
  9 10  1  0
 10 11  2  0
 10 12  1  0
 12 13  1  0
 12 14  1  0
 14 15  1  0
 15 16  2  0
 16 17  1  0
 17 18  1  0
 17 19  2  0
 19 20  1  0
  9 21  1  0
 21 22  1  0
 22 23  1  0
 23 24  2  0
 24 25  1  0
 25 26  2  0
 26 27  1  0
 27 28  2  0
 21 29  1  0
  6 30  1  0
 30 31  2  0
 31  3  1  0
 29  7  2  0
 20 15  1  0
 28 23  1  0
  1 32  1  0
  1 33  1  0
  1 34  1  0
  4 35  1  0
  5 36  1  0
  8 37  1  0
 12 38  1  1
 13 39  1  0
 13 40  1  0
 13 41  1  0
 14 42  1  0
 14 43  1  0
 16 44  1  0
 18 45  1  0
 18 46  1  0
 18 47  1  0
 22 48  1  0
 22 49  1  0
 24 50  1  0
 25 51  1  0
 26 52  1  0
 28 53  1  0
 30 54  1  0
 31 55  1  0
M  CHG  1  12   1
M  END
>  <UniqueID>  (14) 
14

>  <SMILES>  (14) 
COc1ccc(-c2cc(C(=O)[N@@H+](C)Cc3cc(C)no3)n(Cc3cccnc3)n2)cc1

>  <Energy>  (14) 
126.1184446051804

>  <Genealogy>  (14) 
COc1ccc(-c2cc(C(=O)[NH+](C)Cc3cc(C)no3)n(Cc3cccnc3)n2)cc1 (protonated)
COc1ccc(-c2cc(C(=O)[N@@H+](C)Cc3cc(C)no3)n(Cc3cccnc3)n2)cc1 (chirality)
COc1ccc(-c2cc(C(=O)[N@@H+](C)Cc3cc(C)no3)n(Cc3cccnc3)n2)cc1 (3D coordinates assigned)
COc1ccc(-c2cc(C(=O)[N@@H+](C)Cc3cc(C)no3)n(Cc3cccnc3)n2)cc1 (optimized conformer: 126.1184446051804 kcal/mol)

>  <smiles>  (14) 
COc1ccc(-c2cc(C(=O)N(C)Cc3cc(C)no3)n(Cc3cccnc3)n2)cc1

>  <score_type>  (14) 
oracle

>  <origin>  (14) 
adgpu

>  <m_score__min__energy>  (14) 
-8.3300000000000001

>  <m_primary>  (14) 
energy

$$$$
14:0
     RDKit          3D

 26 27  0  0  1  0  0  0  0  0999 V2000
   -4.5870   22.8320  -28.5380 C   0  0  0  0  0  0  0  0  0  0  0  0
   -3.3670   23.6370  -28.4780 C   0  0  0  0  0  0  0  0  0  0  0  0
   -2.4680   23.5360  -27.4020 C   0  0  0  0  0  0  0  0  0  0  0  0
   -1.3550   24.2430  -27.3110 N   0  0  0  0  0  0  0  0  0  0  0  0
   -1.0160   25.1140  -28.2590 C   0  0  0  0  0  0  0  0  0  0  0  0
   -1.8340   25.2540  -29.3090 N   0  0  0  0  0  0  0  0  0  0  0  0
   -2.9830   24.5490  -29.4410 C   0  0  0  0  0  0  0  0  0  0  0  0
   -3.6750   24.7520  -30.4670 N   0  0  0  0  0  0  0  0  0  0  0  0
   -4.8790   24.1590  -30.8330 C   0  0  0  0  0  0  0  0  0  0  0  0
   -4.7870   22.9670  -31.5890 C   0  0  0  0  0  0  0  0  0  0  0  0
   -5.9070   22.2600  -31.9450 C   0  0  0  0  0  0  0  0  0  0  0  0
   -7.1640   22.6840  -31.5820 C   0  0  0  0  0  0  0  0  0  0  0  0
   -8.3230   21.9280  -31.9670 C   0  0  0  0  0  0  0  0  0  0  0  0
   -9.2750   21.3250  -32.2950 N   0  0  0  0  0  0  0  0  0  0  0  0
   -7.2540   23.8450  -30.8460 C   0  0  0  0  0  0  0  0  0  0  0  0
   -6.1450   24.5710  -30.4760 C   0  0  0  0  0  0  0  0  0  0  0  0
   -4.9283   22.6068  -27.5168 H   0  0  0  0  0  0  0  0  0  0  0  0
   -5.3697   23.3916  -29.0711 H   0  0  0  0  0  0  0  0  0  0  0  0
   -4.3804   21.8923  -29.0711 H   0  0  0  0  0  0  0  0  0  0  0  0
   -2.7036   22.8303  -26.5918 H   0  0  0  0  0  0  0  0  0  0  0  0
   -0.7300   24.1150  -26.4770 H   0  0  0  0  0  0  0  0  0  0  0  0
   -0.0896   25.7021  -28.1815 H   0  0  0  0  0  0  0  0  0  0  0  0
   -3.7971   22.5997  -31.8976 H   0  0  0  0  0  0  0  0  0  0  0  0
   -5.7979   21.3362  -32.5321 H   0  0  0  0  0  0  0  0  0  0  0  0
   -8.2484   24.2048  -30.5431 H   0  0  0  0  0  0  0  0  0  0  0  0
   -6.2705   25.4920  -29.8878 H   0  0  0  0  0  0  0  0  0  0  0  0
  1  2  1  0
  2  3  2  0
  3  4  1  0
  4  5  1  0
  5  6  2  0
  6  7  1  0
  7  8  2  0
  8  9  1  0
  9 10  2  0
 10 11  1  0
 11 12  2  0
 12 13  1  0
 13 14  3  0
 12 15  1  0
 15 16  2  0
  7  2  1  0
 16  9  1  0
  1 17  1  0
  1 18  1  0
  1 19  1  0
  3 20  1  0
  4 21  1  0
  5 22  1  0
 10 23  1  0
 11 24  1  0
 15 25  1  0
 16 26  1  0
M  END
>  <smiles>  (15) 
Cc1c[nH]cnc1=Nc1ccc(C#N)cc1

>  <score_type>  (15) 
oracle

>  <origin>  (15) 
adgpu

>  <m_score__min__energy>  (15) 
-6.5599999999999996

>  <m_primary>  (15) 
energy

$$$$
15:0
     RDKit          3D

 45 47  0  0  0  0  0  0  0  0999 V2000
   -7.5430   23.3090  -31.1430 C   0  0  0  0  0  0  0  0  0  0  0  0
   -6.1630   23.7330  -31.3150 N   0  0  0  0  0  0  0  0  0  0  0  0
   -5.8680   25.1340  -31.1850 C   0  0  0  0  0  0  0  0  0  0  0  0
   -4.9340   25.3420  -30.0100 C   0  0  0  0  0  0  0  0  0  0  0  0
   -3.6250   25.2960  -30.4420 O   0  0  0  0  0  0  0  0  0  0  0  0
   -5.1990   22.7310  -31.5960 C   0  0  0  0  0  0  0  0  0  0  0  0
   -5.4740   21.6720  -32.4730 C   0  0  0  0  0  0  0  0  0  0  0  0
   -4.5570   20.6990  -32.7580 C   0  0  0  0  0  0  0  0  0  0  0  0
   -4.7270   19.5740  -33.6340 C   0  0  0  0  0  0  0  0  0  0  0  0
   -3.5780   18.8780  -34.0300 C   0  0  0  0  0  0  0  0  0  0  0  0
   -3.6350   17.8130  -34.8480 N   0  0  0  0  0  0  0  0  0  0  0  0
   -4.8100   17.3800  -35.3140 C   0  0  0  0  0  0  0  0  0  0  0  0
   -5.9330   18.0230  -34.9570 N   0  0  0  0  0  0  0  0  0  0  0  0
   -5.9070   19.0950  -34.1370 C   0  0  0  0  0  0  0  0  0  0  0  0
   -6.9940   19.6510  -33.8400 N   0  0  0  0  0  0  0  0  0  0  0  0
   -3.3490   20.8260  -32.1310 N   0  0  0  0  0  0  0  0  0  0  0  0
   -3.0850   21.8460  -31.2870 C   0  0  0  0  0  0  0  0  0  0  0  0
   -1.8160   21.9210  -30.6710 N   0  0  0  0  0  0  0  0  0  0  0  0
   -1.5610   22.6960  -29.4660 C   0  0  0  0  0  0  0  0  0  0  0  0
   -0.1430   22.3300  -29.0260 C   0  0  0  0  0  0  0  0  0  0  0  0
    0.0220   20.9490  -28.9230 O   0  0  0  0  0  0  0  0  0  0  0  0
   -0.2160   20.2690  -30.0970 C   0  0  0  0  0  0  0  0  0  0  0  0
   -0.6710   21.2000  -31.2250 C   0  0  0  0  0  0  0  0  0  0  0  0
   -3.9820   22.8100  -31.0000 N   0  0  0  0  0  0  0  0  0  0  0  0
   -7.7737   23.2381  -30.0698 H   0  0  0  0  0  0  0  0  0  0  0  0
   -8.2135   24.0426  -31.6145 H   0  0  0  0  0  0  0  0  0  0  0  0
   -7.6859   22.3255  -31.6145 H   0  0  0  0  0  0  0  0  0  0  0  0
   -5.3864   25.4951  -32.1057 H   0  0  0  0  0  0  0  0  0  0  0  0
   -6.8005   25.6931  -31.0180 H   0  0  0  0  0  0  0  0  0  0  0  0
   -5.1339   26.3225  -29.5533 H   0  0  0  0  0  0  0  0  0  0  0  0
   -5.1004   24.5475  -29.2677 H   0  0  0  0  0  0  0  0  0  0  0  0
   -3.5080   24.9080  -31.3390 H   0  0  0  0  0  0  0  0  0  0  0  0
   -6.4643   21.6223  -32.9493 H   0  0  0  0  0  0  0  0  0  0  0  0
   -2.5980   19.2135  -33.6599 H   0  0  0  0  0  0  0  0  0  0  0  0
   -4.8565   16.5073  -35.9820 H   0  0  0  0  0  0  0  0  0  0  0  0
   -6.8260   17.6400  -35.3530 H   0  0  0  0  0  0  0  0  0  0  0  0
   -7.9020   19.3140  -34.2040 H   0  0  0  0  0  0  0  0  0  0  0  0
   -1.6291   23.7725  -29.6816 H   0  0  0  0  0  0  0  0  0  0  0  0
   -2.2980   22.4753  -28.6798 H   0  0  0  0  0  0  0  0  0  0  0  0
    0.5721   22.7209  -29.7648 H   0  0  0  0  0  0  0  0  0  0  0  0
    0.0348   22.7727  -28.0349 H   0  0  0  0  0  0  0  0  0  0  0  0
    0.7104   19.7636  -30.4073 H   0  0  0  0  0  0  0  0  0  0  0  0
   -1.0240   19.5464  -29.9100 H   0  0  0  0  0  0  0  0  0  0  0  0
    0.1326   21.8995  -31.4987 H   0  0  0  0  0  0  0  0  0  0  0  0
   -0.9295   20.6489  -32.1412 H   0  0  0  0  0  0  0  0  0  0  0  0
  1  2  1  0
  2  3  1  0
  3  4  1  0
  4  5  1  0
  2  6  1  0
  6  7  2  0
  7  8  1  0
  8  9  1  0
  9 10  2  0
 10 11  1  0
 11 12  2  0
 12 13  1  0
 13 14  1  0
 14 15  2  3
  8 16  2  0
 16 17  1  0
 17 18  1  0
 18 19  1  0
 19 20  1  0
 20 21  1  0
 21 22  1  0
 22 23  1  0
 17 24  2  0
 24  6  1  0
 14  9  1  0
 23 18  1  0
  1 25  1  0
  1 26  1  0
  1 27  1  0
  3 28  1  0
  3 29  1  0
  4 30  1  0
  4 31  1  0
  5 32  1  0
  7 33  1  0
 10 34  1  0
 12 35  1  0
 13 36  1  0
 15 37  1  0
 19 38  1  0
 19 39  1  0
 20 40  1  0
 20 41  1  0
 22 42  1  0
 22 43  1  0
 23 44  1  0
 23 45  1  0
M  END
>  <smiles>  (16) 
CN(CCO)c1cc(-c2cnc[nH]c2=N)nc(N2CCOCC2)n1

>  <score_type>  (16) 
oracle

>  <origin>  (16) 
adgpu

>  <m_score__min__energy>  (16) 
-8.2300000000000004

>  <m_primary>  (16) 
energy

$$$$
16:0
     RDKit          3D

 52 54  0  0  0  0  0  0  0  0999 V2000
   -9.0990   19.2530  -32.2350 C   0  0  0  0  0  0  0  0  0  0  0  0
   -8.0990   20.0300  -33.0870 C   0  0  0  0  0  0  0  0  0  0  0  0
   -7.2100   20.8710  -32.2220 C   0  0  0  0  0  0  0  0  0  0  0  0
   -6.5170   20.3180  -31.3240 O   0  0  0  0  0  0  0  0  0  0  0  0
   -7.0880   22.2800  -32.4740 N   0  0  0  0  0  0  0  0  0  0  0  0
   -6.4950   23.2170  -31.5570 C   0  0  0  0  0  0  0  0  0  0  0  0
   -7.3280   23.9950  -30.7390 C   0  0  0  0  0  0  0  0  0  0  0  0
   -6.7790   24.9010  -29.8280 C   0  0  0  0  0  0  0  0  0  0  0  0
   -5.3930   25.0380  -29.7240 C   0  0  0  0  0  0  0  0  0  0  0  0
   -4.5430   24.2700  -30.5390 C   0  0  0  0  0  0  0  0  0  0  0  0
   -3.1150   24.3920  -30.4670 N   0  0  0  0  0  0  0  0  0  0  0  0
   -2.3350   24.5430  -29.2690 C   0  0  0  0  0  0  0  0  0  0  0  0
   -1.9700   25.7000  -28.9310 O   0  0  0  0  0  0  0  0  0  0  0  0
   -2.0070   23.3870  -28.3940 C   0  0  0  0  0  0  0  0  0  0  0  0
   -1.3860   23.6060  -27.1510 C   0  0  0  0  0  0  0  0  0  0  0  0
   -1.0810   22.5340  -26.2950 C   0  0  0  0  0  0  0  0  0  0  0  0
   -0.4870   22.7950  -24.9350 C   0  0  0  0  0  0  0  0  0  0  0  0
   -0.9390   24.0030  -24.4300 F   0  0  0  0  0  0  0  0  0  0  0  0
   -0.8600   21.7800  -24.0740 F   0  0  0  0  0  0  0  0  0  0  0  0
    0.8950   22.8440  -25.0020 F   0  0  0  0  0  0  0  0  0  0  0  0
   -1.4310   21.2320  -26.6840 C   0  0  0  0  0  0  0  0  0  0  0  0
   -2.0240   21.0020  -27.9240 C   0  0  0  0  0  0  0  0  0  0  0  0
   -2.3000   22.0680  -28.7960 C   0  0  0  0  0  0  0  0  0  0  0  0
   -2.9220   21.8380  -30.0330 O   0  0  0  0  0  0  0  0  0  0  0  0
   -2.2550   21.5310  -31.2290 C   0  0  0  0  0  0  0  0  0  0  0  0
   -2.9500   21.2110  -32.4100 C   0  0  0  0  0  0  0  0  0  0  0  0
   -2.2490   20.8740  -33.5720 C   0  0  0  0  0  0  0  0  0  0  0  0
   -0.8410   20.8290  -33.5720 C   0  0  0  0  0  0  0  0  0  0  0  0
   -0.0710   20.4810  -34.8250 C   0  0  0  0  0  0  0  0  0  0  0  0
   -0.2730   21.4710  -35.7740 F   0  0  0  0  0  0  0  0  0  0  0  0
    1.2830   20.3880  -34.5490 F   0  0  0  0  0  0  0  0  0  0  0  0
   -0.4880   19.2650  -35.3420 F   0  0  0  0  0  0  0  0  0  0  0  0
   -0.1520   21.1690  -32.3950 C   0  0  0  0  0  0  0  0  0  0  0  0
   -0.8550   21.5010  -31.2310 C   0  0  0  0  0  0  0  0  0  0  0  0
   -5.0990   23.3430  -31.4320 C   0  0  0  0  0  0  0  0  0  0  0  0
   -8.8821   19.4215  -31.1699 H   0  0  0  0  0  0  0  0  0  0  0  0
  -10.1189   19.5980  -32.4606 H   0  0  0  0  0  0  0  0  0  0  0  0
   -9.0167   18.1795  -32.4606 H   0  0  0  0  0  0  0  0  0  0  0  0
   -7.4819   19.3203  -33.6574 H   0  0  0  0  0  0  0  0  0  0  0  0
   -8.6532   20.6886  -33.7719 H   0  0  0  0  0  0  0  0  0  0  0  0
   -7.3940   22.6320  -33.4090 H   0  0  0  0  0  0  0  0  0  0  0  0
   -8.4204   23.8910  -30.8154 H   0  0  0  0  0  0  0  0  0  0  0  0
   -7.4398   25.5077  -29.1913 H   0  0  0  0  0  0  0  0  0  0  0  0
   -4.9650   25.7491  -29.0021 H   0  0  0  0  0  0  0  0  0  0  0  0
   -1.1352   24.6322  -26.8443 H   0  0  0  0  0  0  0  0  0  0  0  0
   -1.2361   20.3879  -26.0062 H   0  0  0  0  0  0  0  0  0  0  0  0
   -2.2787   19.9745  -28.2231 H   0  0  0  0  0  0  0  0  0  0  0  0
   -4.0499   21.2260  -32.4191 H   0  0  0  0  0  0  0  0  0  0  0  0
   -2.8018   20.6420  -34.4942 H   0  0  0  0  0  0  0  0  0  0  0  0
    0.9480   21.1742  -32.3886 H   0  0  0  0  0  0  0  0  0  0  0  0
   -0.3031   21.7403  -30.3101 H   0  0  0  0  0  0  0  0  0  0  0  0
   -4.4379   22.7084  -32.0405 H   0  0  0  0  0  0  0  0  0  0  0  0
  1  2  1  0
  2  3  1  0
  3  4  2  0
  3  5  1  0
  5  6  1  0
  6  7  2  0
  7  8  1  0
  8  9  2  0
  9 10  1  0
 10 11  1  0
 11 12  1  0
 12 13  2  0
 12 14  1  0
 14 15  2  0
 15 16  1  0
 16 17  1  0
 17 18  1  0
 17 19  1  0
 17 20  1  0
 16 21  2  0
 21 22  1  0
 22 23  2  0
 23 24  1  0
 24 25  1  0
 25 26  2  0
 26 27  1  0
 27 28  2  0
 28 29  1  0
 29 30  1  0
 29 31  1  0
 29 32  1  0
 28 33  1  0
 33 34  2  0
 10 35  2  0
 35  6  1  0
 23 14  1  0
 34 25  1  0
  1 36  1  0
  1 37  1  0
  1 38  1  0
  2 39  1  0
  2 40  1  0
  5 41  1  0
  7 42  1  0
  8 43  1  0
  9 44  1  0
 15 45  1  0
 21 46  1  0
 22 47  1  0
 26 48  1  0
 27 49  1  0
 33 50  1  0
 34 51  1  0
 35 52  1  0
M  CHG  1  11  -1
M  END
>  <UniqueID>  (17) 
15

>  <SMILES>  (17) 
CCC(=O)Nc1cccc([N-]C(=O)c2cc(C(F)(F)F)ccc2Oc2ccc(C(F)(F)F)cc2)c1

>  <Energy>  (17) 
68.62452031821199

>  <Genealogy>  (17) 
CCC(=O)Nc1cccc([N-]C(=O)c2cc(C(F)(F)F)ccc2Oc2ccc(C(F)(F)F)cc2)c1 (protonated)
CCC(=O)Nc1cccc([N-]C(=O)c2cc(C(F)(F)F)ccc2Oc2ccc(C(F)(F)F)cc2)c1 (3D coordinates assigned)
CCC(=O)Nc1cccc([N-]C(=O)c2cc(C(F)(F)F)ccc2Oc2ccc(C(F)(F)F)cc2)c1 (optimized conformer: 68.62452031821199 kcal/mol)

>  <smiles>  (17) 
CCC(=O)Nc1cccc(NC(=O)c2cc(C(F)(F)F)ccc2Oc2ccc(C(F)(F)F)cc2)c1

>  <score_type>  (17) 
oracle

>  <origin>  (17) 
adgpu

>  <m_score__min__energy>  (17) 
-9.7799999999999994

>  <m_primary>  (17) 
energy

$$$$
17:0
     RDKit          3D

 59 61  0  0  0  0  0  0  0  0999 V2000
   -5.7660   18.5510  -34.8190 C   0  0  0  0  0  0  0  0  0  0  0  0
   -4.5950   18.6320  -33.8300 C   0  0  0  0  0  0  0  0  0  0  0  0
   -4.4610   19.9340  -33.1320 N   0  0  0  0  0  0  0  0  0  0  0  0
   -5.3950   20.0590  -31.9860 C   0  0  0  0  0  0  0  0  0  0  0  0
   -5.9260   18.7020  -31.5150 C   0  0  0  0  0  0  0  0  0  0  0  0
   -2.7930   20.3000  -32.7040 S   0  0  0  0  0  0  0  0  0  0  0  0
   -2.0900   20.8560  -33.9110 O   0  0  0  0  0  0  0  0  0  0  0  0
   -2.0850   19.0290  -32.3250 O   0  0  0  0  0  0  0  0  0  0  0  0
   -2.6110   21.4660  -31.3840 C   0  0  0  0  0  0  0  0  0  0  0  0
   -1.9860   21.0900  -30.1880 C   0  0  0  0  0  0  0  0  0  0  0  0
   -1.8680   21.9990  -29.1360 C   0  0  0  0  0  0  0  0  0  0  0  0
   -2.4000   23.2910  -29.2490 C   0  0  0  0  0  0  0  0  0  0  0  0
   -2.2730   24.2100  -28.1560 N   0  0  0  0  0  0  0  0  0  0  0  0
   -3.3530   24.5040  -27.2330 C   0  0  0  0  0  0  0  0  0  0  0  0
   -2.7150   25.2930  -26.0970 C   0  0  0  0  0  0  0  0  0  0  0  0
   -1.3510   25.7490  -26.6120 C   0  0  0  0  0  0  0  0  0  0  0  0
   -1.0150   24.8300  -27.7800 C   0  0  0  0  0  0  0  0  0  0  0  0
   -3.0880   23.6590  -30.4200 C   0  0  0  0  0  0  0  0  0  0  0  0
   -3.6880   24.9610  -30.5090 N   0  0  0  0  0  0  0  0  0  0  0  0
   -5.0910   25.2430  -30.6080 C   0  0  0  0  0  0  0  0  0  0  0  0
   -5.4770   26.4330  -30.4720 O   0  0  0  0  0  0  0  0  0  0  0  0
   -6.0930   24.1720  -30.8180 C   0  0  0  0  0  0  0  0  0  0  0  0
   -6.4890   23.8220  -32.1190 C   0  0  0  0  0  0  0  0  0  0  0  0
   -7.4220   22.8020  -32.3240 C   0  0  0  0  0  0  0  0  0  0  0  0
   -7.9830   22.1220  -31.2380 C   0  0  0  0  0  0  0  0  0  0  0  0
   -8.9110   21.1020  -31.4990 O   0  0  0  0  0  0  0  0  0  0  0  0
   -8.7980   20.1660  -32.5670 C   0  0  0  0  0  0  0  0  0  0  0  0
   -7.6050   22.4820  -29.9320 C   0  0  0  0  0  0  0  0  0  0  0  0
   -6.6720   23.5030  -29.7260 C   0  0  0  0  0  0  0  0  0  0  0  0
   -3.1740   22.7470  -31.4870 C   0  0  0  0  0  0  0  0  0  0  0  0
   -6.7124   18.4855  -34.2622 H   0  0  0  0  0  0  0  0  0  0  0  0
   -5.7744   19.4507  -35.4518 H   0  0  0  0  0  0  0  0  0  0  0  0
   -5.6504   17.6587  -35.4518 H   0  0  0  0  0  0  0  0  0  0  0  0
   -4.7337   17.8488  -33.0702 H   0  0  0  0  0  0  0  0  0  0  0  0
   -3.6780   18.5023  -34.4236 H   0  0  0  0  0  0  0  0  0  0  0  0
   -4.7320   20.6530  -33.8450 H   0  0  0  0  0  0  0  0  0  0  0  0
   -4.8663   20.5409  -31.1503 H   0  0  0  0  0  0  0  0  0  0  0  0
   -6.2552   20.6588  -32.3182 H   0  0  0  0  0  0  0  0  0  0  0  0
   -5.9369   18.6741  -30.4154 H   0  0  0  0  0  0  0  0  0  0  0  0
   -6.9476   18.5559  -31.8956 H   0  0  0  0  0  0  0  0  0  0  0  0
   -5.2749   17.9013  -31.8956 H   0  0  0  0  0  0  0  0  0  0  0  0
   -1.5856   20.0714  -30.0775 H   0  0  0  0  0  0  0  0  0  0  0  0
   -1.3536   21.6995  -28.2110 H   0  0  0  0  0  0  0  0  0  0  0  0
   -4.1298   25.1045  -27.7291 H   0  0  0  0  0  0  0  0  0  0  0  0
   -3.8398   23.5870  -26.8695 H   0  0  0  0  0  0  0  0  0  0  0  0
   -3.3367   26.1634  -25.8405 H   0  0  0  0  0  0  0  0  0  0  0  0
   -2.6175   24.6813  -25.1880 H   0  0  0  0  0  0  0  0  0  0  0  0
   -1.4000   26.7946  -26.9501 H   0  0  0  0  0  0  0  0  0  0  0  0
   -0.5847   25.6967  -25.8245 H   0  0  0  0  0  0  0  0  0  0  0  0
   -0.6051   25.4095  -28.6203 H   0  0  0  0  0  0  0  0  0  0  0  0
   -0.2555   24.0825  -27.5074 H   0  0  0  0  0  0  0  0  0  0  0  0
   -6.0622   24.3540  -32.9820 H   0  0  0  0  0  0  0  0  0  0  0  0
   -7.7178   22.5315  -33.3484 H   0  0  0  0  0  0  0  0  0  0  0  0
   -8.6757   19.1532  -32.1555 H   0  0  0  0  0  0  0  0  0  0  0  0
   -9.7072   20.2034  -33.1851 H   0  0  0  0  0  0  0  0  0  0  0  0
   -7.9238   20.4187  -33.1851 H   0  0  0  0  0  0  0  0  0  0  0  0
   -8.0446   21.9588  -29.0700 H   0  0  0  0  0  0  0  0  0  0  0  0
   -6.3890   23.7848  -28.7011 H   0  0  0  0  0  0  0  0  0  0  0  0
   -3.6888   23.0415  -32.4134 H   0  0  0  0  0  0  0  0  0  0  0  0
  1  2  1  0
  2  3  1  0
  3  4  1  0
  4  5  1  0
  3  6  1  0
  6  7  2  0
  6  8  2  0
  6  9  1  0
  9 10  2  0
 10 11  1  0
 11 12  2  0
 12 13  1  0
 13 14  1  0
 14 15  1  0
 15 16  1  0
 16 17  1  0
 12 18  1  0
 18 19  1  0
 19 20  1  0
 20 21  2  0
 20 22  1  0
 22 23  2  0
 23 24  1  0
 24 25  2  0
 25 26  1  0
 26 27  1  0
 25 28  1  0
 28 29  2  0
 18 30  2  0
 30  9  1  0
 17 13  1  0
 29 22  1  0
  1 31  1  0
  1 32  1  0
  1 33  1  0
  2 34  1  0
  2 35  1  0
  3 36  1  0
  4 37  1  0
  4 38  1  0
  5 39  1  0
  5 40  1  0
  5 41  1  0
 10 42  1  0
 11 43  1  0
 14 44  1  0
 14 45  1  0
 15 46  1  0
 15 47  1  0
 16 48  1  0
 16 49  1  0
 17 50  1  0
 17 51  1  0
 23 52  1  0
 24 53  1  0
 27 54  1  0
 27 55  1  0
 27 56  1  0
 28 57  1  0
 29 58  1  0
 30 59  1  0
M  CHG  2   3   1  19  -1
M  END
>  <UniqueID>  (18) 
16

>  <SMILES>  (18) 
CC[NH+](CC)S(=O)(=O)c1ccc(N2CCCC2)c([N-]C(=O)c2ccc(OC)cc2)c1

>  <Energy>  (18) 
71.9746370645812

>  <Genealogy>  (18) 
CC[NH+](CC)S(=O)(=O)c1ccc(N2CCCC2)c([N-]C(=O)c2ccc(OC)cc2)c1 (protonated)
CC[NH+](CC)S(=O)(=O)c1ccc(N2CCCC2)c([N-]C(=O)c2ccc(OC)cc2)c1 (3D coordinates assigned)
CC[NH+](CC)S(=O)(=O)c1ccc(N2CCCC2)c([N-]C(=O)c2ccc(OC)cc2)c1 (nonaromatic ring conformer: 71.9746370645812 kcal/mol)

>  <smiles>  (18) 
CCN(CC)S(=O)(=O)c1ccc(N2CCCC2)c(NC(=O)c2ccc(OC)cc2)c1

>  <score_type>  (18) 
oracle

>  <origin>  (18) 
adgpu

>  <m_score__min__energy>  (18) 
-9.75

>  <m_primary>  (18) 
energy

$$$$
18:0
     RDKit          3D

 53 56  0  0  0  0  0  0  0  0999 V2000
   -7.6834   25.5682  -29.7948 H   0  0  0  0  0  0  0  0  0  0  0  0
   -6.8540   24.9180  -30.1100 C   0  0  0  0  0  0  0  0  0  0  0  0
   -5.5350   25.3100  -29.8760 C   0  0  0  0  0  0  0  0  0  0  0  0
   -5.3307   26.2672  -29.3740 H   0  0  0  0  0  0  0  0  0  0  0  0
   -4.4720   24.4950  -30.2750 C   0  0  0  0  0  0  0  0  0  0  0  0
   -3.1640   24.9360  -30.0210 O   0  0  0  0  0  0  0  0  0  0  0  0
   -2.3060   24.3840  -29.0280 C   0  0  0  0  0  0  0  0  0  0  0  0
   -2.6934   24.6332  -28.0291 H   0  0  0  0  0  0  0  0  0  0  0  0
   -2.2668   23.2908  -29.1438 H   0  0  0  0  0  0  0  0  0  0  0  0
   -1.2949   24.8015  -29.1438 H   0  0  0  0  0  0  0  0  0  0  0  0
   -4.7450   23.2690  -30.9130 C   0  0  0  0  0  0  0  0  0  0  0  0
   -3.9124   22.6255  -31.2336 H   0  0  0  0  0  0  0  0  0  0  0  0
   -6.0720   22.8580  -31.1450 C   0  0  0  0  0  0  0  0  0  0  0  0
   -6.3370   21.5650  -31.8270 C   0  0  0  0  0  0  0  0  0  0  0  0
   -5.2970   20.8560  -32.3460 N   0  0  0  0  0  0  0  0  0  0  0  0
   -5.4680   19.6840  -32.9610 N   0  0  0  0  0  0  0  0  0  0  0  0
   -4.6240   19.2290  -33.3690 H   0  0  0  0  0  0  0  0  0  0  0  0
   -6.7110   19.1270  -33.0890 C   0  0  0  0  0  0  0  0  0  0  0  0
   -6.9040   17.9850  -33.6910 N   0  0  0  0  0  0  0  0  0  0  0  0
   -5.9020   17.0790  -34.1760 C   0  0  0  0  0  0  0  0  0  0  0  0
   -5.9210   15.7470  -33.7460 C   0  0  0  0  0  0  0  0  0  0  0  0
   -6.7226   15.3994  -33.0777 H   0  0  0  0  0  0  0  0  0  0  0  0
   -4.9270   14.8560  -34.1610 C   0  0  0  0  0  0  0  0  0  0  0  0
   -4.9661   13.8049  -33.8391 H   0  0  0  0  0  0  0  0  0  0  0  0
   -3.8780   15.2950  -34.9870 C   0  0  0  0  0  0  0  0  0  0  0  0
   -2.8620   14.3730  -35.4260 N   0  0  0  0  0  0  0  0  0  0  0  0
   -2.7470   14.0230  -36.8450 C   0  0  0  0  0  0  0  0  0  0  0  0
   -3.5093   13.2700  -37.0937 H   0  0  0  0  0  0  0  0  0  0  0  0
   -2.8968   14.9322  -37.4458 H   0  0  0  0  0  0  0  0  0  0  0  0
   -1.3530   13.4510  -37.1550 C   0  0  0  0  0  0  0  0  0  0  0  0
   -1.3388   12.3837  -36.8892 H   0  0  0  0  0  0  0  0  0  0  0  0
   -1.1555   13.5938  -38.2277 H   0  0  0  0  0  0  0  0  0  0  0  0
   -0.2920   14.1480  -36.3950 N   0  0  0  0  0  0  0  0  0  0  0  0
   -0.1240   15.5420  -36.8440 C   0  0  0  0  0  0  0  0  0  0  0  0
   -0.0444   16.2023  -35.9679 H   0  0  0  0  0  0  0  0  0  0  0  0
    0.7906   15.6245  -37.4496 H   0  0  0  0  0  0  0  0  0  0  0  0
   -0.9928   15.8394  -37.4496 H   0  0  0  0  0  0  0  0  0  0  0  0
   -0.4670   14.0580  -34.9220 C   0  0  0  0  0  0  0  0  0  0  0  0
    0.1737   13.2466  -34.5464 H   0  0  0  0  0  0  0  0  0  0  0  0
   -0.1931   15.0397  -34.5081 H   0  0  0  0  0  0  0  0  0  0  0  0
   -1.9150   13.7760  -34.4800 C   0  0  0  0  0  0  0  0  0  0  0  0
   -2.0773   12.6887  -34.4417 H   0  0  0  0  0  0  0  0  0  0  0  0
   -2.0774   14.2170  -33.4854 H   0  0  0  0  0  0  0  0  0  0  0  0
   -3.8470   16.6390  -35.3940 C   0  0  0  0  0  0  0  0  0  0  0  0
   -3.0332   16.9944  -36.0431 H   0  0  0  0  0  0  0  0  0  0  0  0
   -4.8430   17.5280  -34.9800 C   0  0  0  0  0  0  0  0  0  0  0  0
   -4.7966   18.5837  -35.2856 H   0  0  0  0  0  0  0  0  0  0  0  0
   -7.8150   19.8190  -32.5910 C   0  0  0  0  0  0  0  0  0  0  0  0
   -8.8266   19.4029  -32.7069 H   0  0  0  0  0  0  0  0  0  0  0  0
   -7.6300   21.0380  -31.9470 C   0  0  0  0  0  0  0  0  0  0  0  0
   -8.4916   21.5839  -31.5352 H   0  0  0  0  0  0  0  0  0  0  0  0
   -7.1240   23.7030  -30.7430 C   0  0  0  0  0  0  0  0  0  0  0  0
   -8.1661   23.4039  -30.9289 H   0  0  0  0  0  0  0  0  0  0  0  0
  1  2  1  0
  2  3  2  0
  3  4  1  0
  3  5  1  0
  5  6  1  0
  6  7  1  0
  7  8  1  0
  7  9  1  0
  7 10  1  0
  5 11  2  0
 11 12  1  0
 11 13  1  0
 13 14  1  0
 14 15  2  0
 15 16  1  0
 16 17  1  0
 16 18  1  0
 18 19  2  0
 19 20  1  0
 20 21  2  0
 21 22  1  0
 21 23  1  0
 23 24  1  0
 23 25  2  0
 25 26  1  0
 26 27  1  0
 27 28  1  0
 27 29  1  0
 27 30  1  0
 30 31  1  0
 30 32  1  0
 30 33  1  0
 33 34  1  0
 34 35  1  0
 34 36  1  0
 34 37  1  0
 33 38  1  0
 38 39  1  0
 38 40  1  0
 38 41  1  0
 41 42  1  0
 41 43  1  0
 25 44  1  0
 44 45  1  0
 44 46  2  0
 46 47  1  0
 18 48  1  0
 48 49  1  0
 48 50  2  0
 50 51  1  0
 13 52  2  0
 52 53  1  0
 52  2  1  0
 50 14  1  0
 46 20  1  0
 41 26  1  0
M  END
>  <UniqueID>  (19) 
17

>  <SMILES>  (19) 
COc1cccc(-c2cc/c(=N/c3ccc(N4CCN(C)CC4)cc3)[nH]n2)c1

>  <Energy>  (19) 
80.54577821489691

>  <Genealogy>  (19) 
COc1cccc(-c2cc/c(=N/c3ccc(N4CCN(C)CC4)cc3)[nH]n2)c1 (cis-trans isomerization)
COc1cccc(-c2cc/c(=N/c3ccc(N4CCN(C)CC4)cc3)[nH]n2)c1 (3D coordinates assigned)
COc1cccc(-c2cc/c(=N/c3ccc(N4CCN(C)CC4)cc3)[nH]n2)c1 (nonaromatic ring conformer: 80.54577821489691 kcal/mol)

>  <smiles>  (19) 
COc1cccc(-c2ccc(=Nc3ccc(N4CCN(C)CC4)cc3)[nH]n2)c1

>  <score_type>  (19) 
oracle

>  <origin>  (19) 
adgpu

>  <m_score__min__energy>  (19) 
-8.3699999999999992

>  <m_primary>  (19) 
energy

$$$$
19:0
     RDKit          3D

 35 37  0  0  0  0  0  0  0  0999 V2000
   -9.9150   21.6130  -32.3230 O   0  0  0  0  0  0  0  0  0  0  0  0
   -8.8070   21.3150  -31.8030 C   0  0  0  0  0  0  0  0  0  0  0  0
   -8.3430   22.0870  -30.6870 N   0  0  0  0  0  0  0  0  0  0  0  0
   -7.1060   22.8120  -30.6280 C   0  0  0  0  0  0  0  0  0  0  0  0
   -5.8980   22.2420  -31.0640 C   0  0  0  0  0  0  0  0  0  0  0  0
   -4.7030   22.9580  -30.9590 C   0  0  0  0  0  0  0  0  0  0  0  0
   -4.7010   24.2530  -30.4130 C   0  0  0  0  0  0  0  0  0  0  0  0
   -3.4860   25.0020  -30.2740 N   0  0  0  0  0  0  0  0  0  0  0  0
   -2.4320   24.7190  -29.3450 C   0  0  0  0  0  0  0  0  0  0  0  0
   -1.6840   25.6590  -28.9680 O   0  0  0  0  0  0  0  0  0  0  0  0
   -2.2460   23.3730  -28.7720 C   0  0  0  0  0  0  0  0  0  0  0  0
   -3.0330   22.7950  -27.7940 C   0  0  0  0  0  0  0  0  0  0  0  0
   -2.4970   21.5450  -27.5750 C   0  0  0  0  0  0  0  0  0  0  0  0
   -1.4210   21.4330  -28.4310 C   0  0  0  0  0  0  0  0  0  0  0  0
   -1.2990   22.5360  -29.1330 O   0  0  0  0  0  0  0  0  0  0  0  0
   -5.9150   24.8470  -30.0490 C   0  0  0  0  0  0  0  0  0  0  0  0
   -7.1100   24.1300  -30.1540 C   0  0  0  0  0  0  0  0  0  0  0  0
   -8.0480   20.1540  -32.3270 C   0  0  0  0  0  0  0  0  0  0  0  0
   -8.3040   18.8520  -31.8570 C   0  0  0  0  0  0  0  0  0  0  0  0
   -7.5720   17.7670  -32.3480 C   0  0  0  0  0  0  0  0  0  0  0  0
   -6.5880   17.9670  -33.3200 C   0  0  0  0  0  0  0  0  0  0  0  0
   -6.3410   19.2520  -33.8080 C   0  0  0  0  0  0  0  0  0  0  0  0
   -7.0690   20.3410  -33.3190 C   0  0  0  0  0  0  0  0  0  0  0  0
   -5.8932   21.2278  -31.4898 H   0  0  0  0  0  0  0  0  0  0  0  0
   -3.7611   22.5070  -31.3046 H   0  0  0  0  0  0  0  0  0  0  0  0
   -3.9059   23.2404  -27.2943 H   0  0  0  0  0  0  0  0  0  0  0  0
   -2.8550   20.7884  -26.8612 H   0  0  0  0  0  0  0  0  0  0  0  0
   -0.7652   20.5537  -28.5130 H   0  0  0  0  0  0  0  0  0  0  0  0
   -5.9286   25.8827  -29.6787 H   0  0  0  0  0  0  0  0  0  0  0  0
   -8.0592   24.6035  -29.8627 H   0  0  0  0  0  0  0  0  0  0  0  0
   -9.0843   18.6875  -31.0993 H   0  0  0  0  0  0  0  0  0  0  0  0
   -7.7709   16.7539  -31.9686 H   0  0  0  0  0  0  0  0  0  0  0  0
   -6.0085   17.1129  -33.7004 H   0  0  0  0  0  0  0  0  0  0  0  0
   -5.5719   19.4078  -34.5789 H   0  0  0  0  0  0  0  0  0  0  0  0
   -6.8748   21.3497  -33.7125 H   0  0  0  0  0  0  0  0  0  0  0  0
  1  2  2  0
  2  3  1  0
  3  4  1  0
  4  5  2  0
  5  6  1  0
  6  7  2  0
  7  8  1  0
  8  9  1  0
  9 10  2  0
  9 11  1  0
 11 12  2  0
 12 13  1  0
 13 14  2  0
 14 15  1  0
  7 16  1  0
 16 17  2  0
  2 18  1  0
 18 19  2  0
 19 20  1  0
 20 21  2  0
 21 22  1  0
 22 23  2  0
 17  4  1  0
 23 18  1  0
 15 11  1  0
  5 24  1  0
  6 25  1  0
 12 26  1  0
 13 27  1  0
 14 28  1  0
 16 29  1  0
 17 30  1  0
 19 31  1  0
 20 32  1  0
 21 33  1  0
 22 34  1  0
 23 35  1  0
M  CHG  2   3  -1   8  -1
M  END
>  <UniqueID>  (20) 
18

>  <SMILES>  (20) 
O=C([N-]c1ccc([N-]C(=O)c2ccco2)cc1)c1ccccc1

>  <Energy>  (20) 
74.0743134087196

>  <Genealogy>  (20) 
O=C([N-]c1ccc([N-]C(=O)c2ccco2)cc1)c1ccccc1 (protonated)
O=C([N-]c1ccc([N-]C(=O)c2ccco2)cc1)c1ccccc1 (3D coordinates assigned)
O=C([N-]c1ccc([N-]C(=O)c2ccco2)cc1)c1ccccc1 (optimized conformer: 74.0743134087196 kcal/mol)

>  <smiles>  (20) 
O=C(Nc1ccc(NC(=O)c2ccco2)cc1)c1ccccc1

>  <score_type>  (20) 
oracle

>  <origin>  (20) 
adgpu

>  <m_score__min__energy>  (20) 
-9.9299999999999997

>  <m_primary>  (20) 
energy

$$$$
20:0
     RDKit          3D

 53 56  0  0  0  0  0  0  0  0999 V2000
   -6.5460   25.3260  -29.7390 C   0  0  0  0  0  0  0  0  0  0  0  0
   -7.0650   23.9360  -30.0960 C   0  0  0  0  0  0  0  0  0  0  0  0
   -6.5400   23.4320  -31.4200 C   0  0  0  0  0  0  0  0  0  0  0  0
   -6.6760   24.1630  -32.4370 O   0  0  0  0  0  0  0  0  0  0  0  0
   -6.0060   22.1020  -31.5590 N   0  0  0  0  0  0  0  0  0  0  0  0
   -6.8490   21.0130  -32.0740 C   0  0  0  0  0  0  0  0  0  0  0  0
   -5.9570   20.1670  -33.0050 C   0  0  0  0  0  0  0  0  0  0  0  0
   -4.6010   20.7070  -32.7440 C   0  0  0  0  0  0  0  0  0  0  0  0
   -3.3990   20.2170  -33.2570 C   0  0  0  0  0  0  0  0  0  0  0  0
   -2.2050   20.8410  -32.8780 C   0  0  0  0  0  0  0  0  0  0  0  0
   -2.2300   21.9190  -31.9760 C   0  0  0  0  0  0  0  0  0  0  0  0
   -3.4490   22.4040  -31.4510 C   0  0  0  0  0  0  0  0  0  0  0  0
   -3.3560   23.6720  -30.2170 S   0  0  0  0  0  0  0  0  0  0  0  0
   -4.2370   23.2970  -29.0610 O   0  0  0  0  0  0  0  0  0  0  0  0
   -3.8700   24.9660  -30.7940 O   0  0  0  0  0  0  0  0  0  0  0  0
   -1.7480   23.9590  -29.6320 N   0  0  0  0  0  0  0  0  0  0  0  0
   -1.4560   24.3460  -28.2860 C   0  0  0  0  0  0  0  0  0  0  0  0
   -1.5090   25.6890  -27.8870 C   0  0  0  0  0  0  0  0  0  0  0  0
   -1.1860   26.0440  -26.5740 C   0  0  0  0  0  0  0  0  0  0  0  0
   -0.8150   25.0610  -25.6490 C   0  0  0  0  0  0  0  0  0  0  0  0
   -0.7790   23.7250  -26.0340 C   0  0  0  0  0  0  0  0  0  0  0  0
   -1.0960   23.3570  -27.3500 C   0  0  0  0  0  0  0  0  0  0  0  0
   -1.1950   21.9660  -27.6910 N   0  0  0  0  0  0  0  0  0  0  0  0
   -0.2430   21.3970  -28.6560 C   0  0  0  0  0  0  0  0  0  0  0  0
   -0.6940   20.0010  -29.1190 C   0  0  0  0  0  0  0  0  0  0  0  0
   -1.0810   19.2060  -28.0160 O   0  0  0  0  0  0  0  0  0  0  0  0
   -2.2470   19.7510  -27.4370 C   0  0  0  0  0  0  0  0  0  0  0  0
   -1.9270   21.0890  -26.7680 C   0  0  0  0  0  0  0  0  0  0  0  0
   -4.6500   21.7980  -31.9070 C   0  0  0  0  0  0  0  0  0  0  0  0
   -6.5062   25.4327  -28.6449 H   0  0  0  0  0  0  0  0  0  0  0  0
   -5.5375   25.4595  -30.1574 H   0  0  0  0  0  0  0  0  0  0  0  0
   -7.2203   26.0878  -30.1574 H   0  0  0  0  0  0  0  0  0  0  0  0
   -6.7579   23.2338  -29.3069 H   0  0  0  0  0  0  0  0  0  0  0  0
   -8.1595   24.0052  -30.1808 H   0  0  0  0  0  0  0  0  0  0  0  0
   -7.2222   20.3966  -31.2429 H   0  0  0  0  0  0  0  0  0  0  0  0
   -7.7221   21.4088  -32.6135 H   0  0  0  0  0  0  0  0  0  0  0  0
   -6.0146   19.0995  -32.7459 H   0  0  0  0  0  0  0  0  0  0  0  0
   -6.2526   20.2271  -34.0628 H   0  0  0  0  0  0  0  0  0  0  0  0
   -3.3903   19.3585  -33.9447 H   0  0  0  0  0  0  0  0  0  0  0  0
   -1.2465   20.4878  -33.2861 H   0  0  0  0  0  0  0  0  0  0  0  0
   -1.2845   22.3930  -31.6737 H   0  0  0  0  0  0  0  0  0  0  0  0
   -1.8053   26.4648  -28.6084 H   0  0  0  0  0  0  0  0  0  0  0  0
   -1.2235   27.0995  -26.2666 H   0  0  0  0  0  0  0  0  0  0  0  0
   -0.5523   25.3448  -24.6192 H   0  0  0  0  0  0  0  0  0  0  0  0
   -0.5003   22.9524  -25.3023 H   0  0  0  0  0  0  0  0  0  0  0  0
   -0.1765   22.0616  -29.5300 H   0  0  0  0  0  0  0  0  0  0  0  0
    0.7378   21.3037  -28.1667 H   0  0  0  0  0  0  0  0  0  0  0  0
   -1.5480   20.1069  -29.8042 H   0  0  0  0  0  0  0  0  0  0  0  0
    0.1480   19.5100  -29.6288 H   0  0  0  0  0  0  0  0  0  0  0  0
   -3.0029   19.9078  -28.2206 H   0  0  0  0  0  0  0  0  0  0  0  0
   -2.6321   19.0530  -26.6790 H   0  0  0  0  0  0  0  0  0  0  0  0
   -2.8663   21.5790  -26.4720 H   0  0  0  0  0  0  0  0  0  0  0  0
   -1.3001   20.9025  -25.8835 H   0  0  0  0  0  0  0  0  0  0  0  0
  1  2  1  0
  2  3  1  0
  3  4  2  0
  3  5  1  0
  5  6  1  0
  6  7  1  0
  7  8  1  0
  8  9  2  0
  9 10  1  0
 10 11  2  0
 11 12  1  0
 12 13  1  0
 13 14  2  0
 13 15  2  0
 13 16  1  0
 16 17  1  0
 17 18  2  0
 18 19  1  0
 19 20  2  0
 20 21  1  0
 21 22  2  0
 22 23  1  0
 23 24  1  0
 24 25  1  0
 25 26  1  0
 26 27  1  0
 27 28  1  0
 12 29  2  0
 29  5  1  0
 29  8  1  0
 22 17  1  0
 28 23  1  0
  1 30  1  0
  1 31  1  0
  1 32  1  0
  2 33  1  0
  2 34  1  0
  6 35  1  0
  6 36  1  0
  7 37  1  0
  7 38  1  0
  9 39  1  0
 10 40  1  0
 11 41  1  0
 18 42  1  0
 19 43  1  0
 20 44  1  0
 21 45  1  0
 24 46  1  0
 24 47  1  0
 25 48  1  0
 25 49  1  0
 27 50  1  0
 27 51  1  0
 28 52  1  0
 28 53  1  0
M  CHG  1  16  -1
M  END
>  <UniqueID>  (21) 
19

>  <SMILES>  (21) 
CCC(=O)N1CCc2cccc(S(=O)(=O)[N-]c3ccccc3N3CCOCC3)c21

>  <Energy>  (21) 
87.87111753028445

>  <Genealogy>  (21) 
CCC(=O)N1CCc2cccc(S(=O)(=O)[N-]c3ccccc3N3CCOCC3)c21 (protonated)
CCC(=O)N1CCc2cccc(S(=O)(=O)[N-]c3ccccc3N3CCOCC3)c21 (3D coordinates assigned)
CCC(=O)N1CCc2cccc(S(=O)(=O)[N-]c3ccccc3N3CCOCC3)c21 (nonaromatic ring conformer: 87.87111753028445 kcal/mol)

>  <smiles>  (21) 
CCC(=O)N1CCc2cccc(S(=O)(=O)Nc3ccccc3N3CCOCC3)c21

>  <score_type>  (21) 
oracle

>  <origin>  (21) 
adgpu

>  <m_score__min__energy>  (21) 
-10.07

>  <m_primary>  (21) 
energy

$$$$
21:0
     RDKit          3D

 36 38  0  0  0  0  0  0  0  0999 V2000
   -8.5155   24.4314  -31.3144 H   0  0  0  0  0  0  0  0  0  0  0  0
   -7.6200   23.7940  -31.3570 C   0  0  0  0  0  0  0  0  0  0  0  0
   -6.3770   24.3150  -30.9930 C   0  0  0  0  0  0  0  0  0  0  0  0
   -6.2938   25.3666  -30.6814 H   0  0  0  0  0  0  0  0  0  0  0  0
   -5.2370   23.5050  -31.0230 C   0  0  0  0  0  0  0  0  0  0  0  0
   -3.9620   24.0790  -30.6890 N   0  0  0  0  0  0  0  0  0  0  0  0
   -3.4900   24.3310  -29.4980 C   0  0  0  0  0  0  0  0  0  0  0  0
   -4.2690   24.1870  -28.3300 C   0  0  0  0  0  0  0  0  0  0  0  0
   -5.3118   23.8436  -28.3990 H   0  0  0  0  0  0  0  0  0  0  0  0
   -3.7080   24.4830  -27.0870 C   0  0  0  0  0  0  0  0  0  0  0  0
   -4.3048   24.3630  -26.1708 H   0  0  0  0  0  0  0  0  0  0  0  0
   -2.3900   24.9310  -27.0080 C   0  0  0  0  0  0  0  0  0  0  0  0
   -1.8370   25.2230  -25.8060 F   0  0  0  0  0  0  0  0  0  0  0  0
   -1.6500   25.0830  -28.1800 C   0  0  0  0  0  0  0  0  0  0  0  0
   -0.6108   25.4401  -28.1294 H   0  0  0  0  0  0  0  0  0  0  0  0
   -2.2090   24.7910  -29.3870 N   0  0  0  0  0  0  0  0  0  0  0  0
   -1.6280   24.9180  -30.2470 H   0  0  0  0  0  0  0  0  0  0  0  0
   -5.3410   22.1800  -31.4810 C   0  0  0  0  0  0  0  0  0  0  0  0
   -4.4384   21.5554  -31.5531 H   0  0  0  0  0  0  0  0  0  0  0  0
   -6.5900   21.6460  -31.8480 C   0  0  0  0  0  0  0  0  0  0  0  0
   -6.7010   20.2390  -32.3130 C   0  0  0  0  0  0  0  0  0  0  0  0
   -7.7720   19.4310  -31.8940 C   0  0  0  0  0  0  0  0  0  0  0  0
   -8.5278   19.8389  -31.2067 H   0  0  0  0  0  0  0  0  0  0  0  0
   -7.8830   18.1150  -32.3440 C   0  0  0  0  0  0  0  0  0  0  0  0
   -8.7286   17.4931  -32.0152 H   0  0  0  0  0  0  0  0  0  0  0  0
   -6.9260   17.5850  -33.2090 C   0  0  0  0  0  0  0  0  0  0  0  0
   -7.0291   16.5514  -33.5710 H   0  0  0  0  0  0  0  0  0  0  0  0
   -5.8310   18.3630  -33.6210 C   0  0  0  0  0  0  0  0  0  0  0  0
   -4.8230   17.8100  -34.5970 C   0  0  0  0  0  0  0  0  0  0  0  0
   -5.3610   17.8390  -35.8700 F   0  0  0  0  0  0  0  0  0  0  0  0
   -3.6630   18.5650  -34.5800 F   0  0  0  0  0  0  0  0  0  0  0  0
   -4.4940   16.5050  -34.2760 F   0  0  0  0  0  0  0  0  0  0  0  0
   -5.7390   19.6970  -33.1850 C   0  0  0  0  0  0  0  0  0  0  0  0
   -4.9042   20.3247  -33.5302 H   0  0  0  0  0  0  0  0  0  0  0  0
   -7.7300   22.4660  -31.7750 C   0  0  0  0  0  0  0  0  0  0  0  0
   -8.7145   22.0589  -32.0488 H   0  0  0  0  0  0  0  0  0  0  0  0
  1  2  1  0
  2  3  2  0
  3  4  1  0
  3  5  1  0
  5  6  1  0
  6  7  2  0
  7  8  1  0
  8  9  1  0
  8 10  2  0
 10 11  1  0
 10 12  1  0
 12 13  1  0
 12 14  2  0
 14 15  1  0
 14 16  1  0
 16 17  1  0
  5 18  2  0
 18 19  1  0
 18 20  1  0
 20 21  1  0
 21 22  2  0
 22 23  1  0
 22 24  1  0
 24 25  1  0
 24 26  2  0
 26 27  1  0
 26 28  1  0
 28 29  1  0
 29 30  1  0
 29 31  1  0
 29 32  1  0
 28 33  2  0
 33 34  1  0
 20 35  2  0
 35 36  1  0
 35  2  1  0
 16  7  1  0
 33 21  1  0
M  END
>  <UniqueID>  (22) 
20

>  <SMILES>  (22) 
Fc1cc/c(=N\c2cccc(-c3cccc(C(F)(F)F)c3)c2)[nH]c1

>  <Energy>  (22) 
54.49889615077629

>  <Genealogy>  (22) 
Fc1cc/c(=N\c2cccc(-c3cccc(C(F)(F)F)c3)c2)[nH]c1 (cis-trans isomerization)
Fc1cc/c(=N\c2cccc(-c3cccc(C(F)(F)F)c3)c2)[nH]c1 (3D coordinates assigned)
Fc1cc/c(=N\c2cccc(-c3cccc(C(F)(F)F)c3)c2)[nH]c1 (optimized conformer: 54.49889615077629 kcal/mol)

>  <smiles>  (22) 
Fc1ccc(=Nc2cccc(-c3cccc(C(F)(F)F)c3)c2)[nH]c1

>  <score_type>  (22) 
oracle

>  <origin>  (22) 
adgpu

>  <m_score__min__energy>  (22) 
-8.7100000000000009

>  <m_primary>  (22) 
energy

$$$$
22:0
     RDKit          3D

 49 51  0  0  0  0  0  0  0  0999 V2000
   -0.9900   24.8150  -28.5640 C   0  0  0  0  0  0  0  0  0  0  0  0
   -1.9080   23.8180  -29.2610 C   0  0  0  0  0  0  0  0  0  0  0  0
   -3.2980   23.9940  -28.8130 N   0  0  0  0  0  0  0  0  0  0  0  0
   -3.6510   23.6730  -27.4210 C   0  0  0  0  0  0  0  0  0  0  0  0
   -4.1180   24.9260  -26.6850 C   0  0  0  0  0  0  0  0  0  0  0  0
   -4.2630   24.5820  -29.7160 C   0  0  0  0  0  0  0  0  0  0  0  0
   -3.8640   25.3550  -30.6300 O   0  0  0  0  0  0  0  0  0  0  0  0
   -5.7430   24.3420  -29.5580 C   0  0  0  0  0  0  0  0  0  0  0  0
   -6.6290   24.4260  -31.1570 S   0  0  0  0  0  0  0  0  0  0  0  0
   -5.8570   22.9480  -31.8120 C   0  0  0  0  0  0  0  0  0  0  0  0
   -6.5420   21.8240  -32.1060 N   0  0  0  0  0  0  0  0  0  0  0  0
   -5.5900   20.9500  -32.4940 C   0  0  0  0  0  0  0  0  0  0  0  0
   -5.8940   19.5650  -32.9190 C   0  0  0  0  0  0  0  0  0  0  0  0
   -6.5750   18.6760  -32.0680 C   0  0  0  0  0  0  0  0  0  0  0  0
   -6.8420   17.3660  -32.4810 C   0  0  0  0  0  0  0  0  0  0  0  0
   -6.4210   16.9300  -33.7390 C   0  0  0  0  0  0  0  0  0  0  0  0
   -5.7290   17.8010  -34.5860 C   0  0  0  0  0  0  0  0  0  0  0  0
   -5.4600   19.1110  -34.1760 C   0  0  0  0  0  0  0  0  0  0  0  0
   -4.3460   21.5650  -32.4180 C   0  0  0  0  0  0  0  0  0  0  0  0
   -3.0150   20.9400  -32.5560 C   0  0  0  0  0  0  0  0  0  0  0  0
   -2.4780   20.7350  -33.8390 C   0  0  0  0  0  0  0  0  0  0  0  0
   -1.2340   20.1200  -33.9960 C   0  0  0  0  0  0  0  0  0  0  0  0
   -0.5150   19.6980  -32.8760 C   0  0  0  0  0  0  0  0  0  0  0  0
   -1.0400   19.8920  -31.5960 C   0  0  0  0  0  0  0  0  0  0  0  0
   -2.2850   20.5090  -31.4260 C   0  0  0  0  0  0  0  0  0  0  0  0
   -2.8680   20.7840  -29.7890 Cl  0  0  0  0  0  0  0  0  0  0  0  0
   -4.5300   22.8260  -31.9950 N   0  0  0  0  0  0  0  0  0  0  0  0
   -1.0904   24.7059  -27.4740 H   0  0  0  0  0  0  0  0  0  0  0  0
    0.0522   24.6210  -28.8574 H   0  0  0  0  0  0  0  0  0  0  0  0
   -1.2692   25.8377  -28.8574 H   0  0  0  0  0  0  0  0  0  0  0  0
   -1.8556   23.9771  -30.3482 H   0  0  0  0  0  0  0  0  0  0  0  0
   -1.5806   22.7984  -29.0096 H   0  0  0  0  0  0  0  0  0  0  0  0
   -4.4597   22.9274  -27.4154 H   0  0  0  0  0  0  0  0  0  0  0  0
   -2.7620   23.2722  -26.9121 H   0  0  0  0  0  0  0  0  0  0  0  0
   -4.0555   24.7584  -25.5996 H   0  0  0  0  0  0  0  0  0  0  0  0
   -3.4759   25.7750  -26.9625 H   0  0  0  0  0  0  0  0  0  0  0  0
   -5.1591   25.1476  -26.9625 H   0  0  0  0  0  0  0  0  0  0  0  0
   -5.8957   23.3446  -29.1199 H   0  0  0  0  0  0  0  0  0  0  0  0
   -6.1462   25.1306  -28.9057 H   0  0  0  0  0  0  0  0  0  0  0  0
   -6.8995   19.0124  -31.0723 H   0  0  0  0  0  0  0  0  0  0  0  0
   -7.3839   16.6792  -31.8142 H   0  0  0  0  0  0  0  0  0  0  0  0
   -6.6339   15.9008  -34.0638 H   0  0  0  0  0  0  0  0  0  0  0  0
   -5.3958   17.4557  -35.5758 H   0  0  0  0  0  0  0  0  0  0  0  0
   -4.9057   19.7895  -34.8412 H   0  0  0  0  0  0  0  0  0  0  0  0
   -3.0416   21.0613  -34.7255 H   0  0  0  0  0  0  0  0  0  0  0  0
   -0.8200   19.9678  -35.0037 H   0  0  0  0  0  0  0  0  0  0  0  0
    0.4643   19.2130  -33.0014 H   0  0  0  0  0  0  0  0  0  0  0  0
   -0.4712   19.5577  -30.7158 H   0  0  0  0  0  0  0  0  0  0  0  0
   -3.7980   23.5410  -31.7830 H   0  0  0  0  0  0  0  0  0  0  0  0
  1  2  1  0
  2  3  1  0
  3  4  1  0
  4  5  1  0
  3  6  1  0
  6  7  2  0
  6  8  1  0
  8  9  1  0
  9 10  1  0
 10 11  2  0
 11 12  1  0
 12 13  1  0
 13 14  2  0
 14 15  1  0
 15 16  2  0
 16 17  1  0
 17 18  2  0
 12 19  2  0
 19 20  1  0
 20 21  2  0
 21 22  1  0
 22 23  2  0
 23 24  1  0
 24 25  2  0
 25 26  1  0
 19 27  1  0
 27 10  1  0
 18 13  1  0
 25 20  1  0
  1 28  1  0
  1 29  1  0
  1 30  1  0
  2 31  1  0
  2 32  1  0
  4 33  1  0
  4 34  1  0
  5 35  1  0
  5 36  1  0
  5 37  1  0
  8 38  1  0
  8 39  1  0
 14 40  1  0
 15 41  1  0
 16 42  1  0
 17 43  1  0
 18 44  1  0
 21 45  1  0
 22 46  1  0
 23 47  1  0
 24 48  1  0
 27 49  1  0
M  END
>  <UniqueID>  (23) 
21

>  <SMILES>  (23) 
CCN(CC)C(=O)CSc1nc(-c2ccccc2)c(-c2ccccc2Cl)[nH]1

>  <Energy>  (23) 
77.47251308944892

>  <Genealogy>  (23) 
CCN(CC)C(=O)CSc1nc(-c2ccccc2)c(-c2ccccc2Cl)[nH]1 (3D coordinates assigned)
CCN(CC)C(=O)CSc1nc(-c2ccccc2)c(-c2ccccc2Cl)[nH]1 (optimized conformer: 77.47251308944892 kcal/mol)

>  <smiles>  (23) 
CCN(CC)C(=O)CSc1nc(-c2ccccc2)c(-c2ccccc2Cl)[nH]1

>  <score_type>  (23) 
oracle

>  <origin>  (23) 
adgpu

>  <m_score__min__energy>  (23) 
-8.8499999999999996

>  <m_primary>  (23) 
energy

$$$$
23:0
     RDKit          3D

 46 48  0  0  0  0  0  0  0  0999 V2000
   -0.5330   26.4320  -23.5980 C   0  0  0  0  0  0  0  0  0  0  0  0
   -1.3460   26.9250  -24.6570 O   0  0  0  0  0  0  0  0  0  0  0  0
   -1.5650   26.2490  -25.8670 C   0  0  0  0  0  0  0  0  0  0  0  0
   -0.7610   26.4550  -27.0040 C   0  0  0  0  0  0  0  0  0  0  0  0
   -1.0210   25.7560  -28.1870 C   0  0  0  0  0  0  0  0  0  0  0  0
   -2.0910   24.8500  -28.2560 C   0  0  0  0  0  0  0  0  0  0  0  0
   -2.3590   24.0940  -29.5310 C   0  0  0  0  0  0  0  0  0  0  0  0
   -3.5060   24.6610  -30.2440 N   0  0  0  0  0  0  0  0  0  0  0  0
   -4.6220   24.0590  -30.5480 C   0  0  0  0  0  0  0  0  0  0  0  0
   -4.8700   22.7100  -30.2330 C   0  0  0  0  0  0  0  0  0  0  0  0
   -6.0910   22.1310  -30.5860 C   0  0  0  0  0  0  0  0  0  0  0  0
   -7.0500   22.8630  -31.2280 N   0  0  0  0  0  0  0  0  0  0  0  0
   -8.3130   22.2250  -31.6190 C   0  0  0  0  0  0  0  0  0  0  0  0
   -8.0670   20.7970  -32.0270 C   0  0  0  0  0  0  0  0  0  0  0  0
   -8.7450   19.7500  -31.3830 C   0  0  0  0  0  0  0  0  0  0  0  0
   -8.4790   18.4240  -31.7270 C   0  0  0  0  0  0  0  0  0  0  0  0
   -7.5330   18.1300  -32.7130 C   0  0  0  0  0  0  0  0  0  0  0  0
   -6.8510   19.1660  -33.3690 C   0  0  0  0  0  0  0  0  0  0  0  0
   -5.8000   18.8500  -34.3910 C   0  0  0  0  0  0  0  0  0  0  0  0
   -7.1080   20.4990  -33.0080 C   0  0  0  0  0  0  0  0  0  0  0  0
   -6.8200   24.1690  -31.5550 C   0  0  0  0  0  0  0  0  0  0  0  0
   -5.6120   24.7840  -31.2200 C   0  0  0  0  0  0  0  0  0  0  0  0
   -2.8820   24.6350  -27.1170 C   0  0  0  0  0  0  0  0  0  0  0  0
   -2.6220   25.3340  -25.9350 C   0  0  0  0  0  0  0  0  0  0  0  0
   -0.9834   26.7051  -22.6323 H   0  0  0  0  0  0  0  0  0  0  0  0
   -0.4593   25.3369  -23.6716 H   0  0  0  0  0  0  0  0  0  0  0  0
    0.4721   26.8729  -23.6716 H   0  0  0  0  0  0  0  0  0  0  0  0
    0.0751   27.1686  -26.9618 H   0  0  0  0  0  0  0  0  0  0  0  0
   -0.3833   25.9171  -29.0687 H   0  0  0  0  0  0  0  0  0  0  0  0
   -1.4701   24.1502  -30.1766 H   0  0  0  0  0  0  0  0  0  0  0  0
   -2.5849   23.0476  -29.2781 H   0  0  0  0  0  0  0  0  0  0  0  0
   -4.1061   22.1146  -29.7114 H   0  0  0  0  0  0  0  0  0  0  0  0
   -6.2827   21.0750  -30.3448 H   0  0  0  0  0  0  0  0  0  0  0  0
   -9.0096   22.2453  -30.7679 H   0  0  0  0  0  0  0  0  0  0  0  0
   -8.7448   22.7730  -32.4694 H   0  0  0  0  0  0  0  0  0  0  0  0
   -9.4886   19.9756  -30.6044 H   0  0  0  0  0  0  0  0  0  0  0  0
   -9.0153   17.6079  -31.2208 H   0  0  0  0  0  0  0  0  0  0  0  0
   -7.3224   17.0828  -32.9756 H   0  0  0  0  0  0  0  0  0  0  0  0
   -4.8662   18.5692  -33.8819 H   0  0  0  0  0  0  0  0  0  0  0  0
   -6.1401   18.0144  -35.0204 H   0  0  0  0  0  0  0  0  0  0  0  0
   -5.6228   19.7346  -35.0204 H   0  0  0  0  0  0  0  0  0  0  0  0
   -6.5545   21.3142  -33.4969 H   0  0  0  0  0  0  0  0  0  0  0  0
   -7.5937   24.7417  -32.0873 H   0  0  0  0  0  0  0  0  0  0  0  0
   -5.4389   25.8377  -31.4842 H   0  0  0  0  0  0  0  0  0  0  0  0
   -3.7108   23.9127  -27.1547 H   0  0  0  0  0  0  0  0  0  0  0  0
   -3.2535   25.1636  -25.0506 H   0  0  0  0  0  0  0  0  0  0  0  0
  1  2  1  0
  2  3  1  0
  3  4  2  0
  4  5  1  0
  5  6  2  0
  6  7  1  0
  7  8  1  0
  8  9  2  3
  9 10  1  0
 10 11  2  0
 11 12  1  0
 12 13  1  0
 13 14  1  0
 14 15  2  0
 15 16  1  0
 16 17  2  0
 17 18  1  0
 18 19  1  0
 18 20  2  0
 12 21  1  0
 21 22  2  0
  6 23  1  0
 23 24  2  0
 24  3  1  0
 22  9  1  0
 20 14  1  0
  1 25  1  0
  1 26  1  0
  1 27  1  0
  4 28  1  0
  5 29  1  0
  7 30  1  0
  7 31  1  0
 10 32  1  0
 11 33  1  0
 13 34  1  0
 13 35  1  0
 15 36  1  0
 16 37  1  0
 17 38  1  0
 19 39  1  0
 19 40  1  0
 19 41  1  0
 20 42  1  0
 21 43  1  0
 22 44  1  0
 23 45  1  0
 24 46  1  0
M  END
>  <UniqueID>  (24) 
22

>  <SMILES>  (24) 
COc1ccc(CN=c2ccn(Cc3cccc(C)c3)cc2)cc1

>  <Energy>  (24) 
47.89142698457039

>  <Genealogy>  (24) 
COc1ccc(CN=c2ccn(Cc3cccc(C)c3)cc2)cc1 (3D coordinates assigned)
COc1ccc(CN=c2ccn(Cc3cccc(C)c3)cc2)cc1 (optimized conformer: 47.89142698457039 kcal/mol)

>  <smiles>  (24) 
COc1ccc(CN=c2ccn(Cc3cccc(C)c3)cc2)cc1

>  <score_type>  (24) 
oracle

>  <origin>  (24) 
adgpu

>  <m_score__min__energy>  (24) 
-8.5600000000000005

>  <m_primary>  (24) 
energy

$$$$
24:0
     RDKit          3D

 43 45  0  0  0  0  0  0  0  0999 V2000
   -5.5430   17.0940  -34.5220 C   0  0  0  0  0  0  0  0  0  0  0  0
   -6.2430   18.2190  -33.8310 C   0  0  0  0  0  0  0  0  0  0  0  0
   -6.4830   19.4220  -34.3900 N   0  0  0  0  0  0  0  0  0  0  0  0
   -7.0170   20.1930  -33.4880 O   0  0  0  0  0  0  0  0  0  0  0  0
   -7.1300   19.5400  -32.3540 C   0  0  0  0  0  0  0  0  0  0  0  0
   -7.6110   20.0370  -31.2580 N   0  0  0  0  0  0  0  0  0  0  0  0
   -8.1920   21.6640  -31.1470 S   0  0  0  0  0  0  0  0  0  0  0  0
   -9.1910   21.7550  -30.0260 O   0  0  0  0  0  0  0  0  0  0  0  0
   -8.8430   22.0690  -32.4390 O   0  0  0  0  0  0  0  0  0  0  0  0
   -6.8300   22.7300  -30.8240 C   0  0  0  0  0  0  0  0  0  0  0  0
   -6.9920   23.8870  -30.0500 C   0  0  0  0  0  0  0  0  0  0  0  0
   -5.9020   24.7260  -29.8020 C   0  0  0  0  0  0  0  0  0  0  0  0
   -4.6320   24.4140  -30.3190 C   0  0  0  0  0  0  0  0  0  0  0  0
   -3.4850   25.2430  -30.0840 N   0  0  0  0  0  0  0  0  0  0  0  0
   -2.2100   24.8900  -28.9640 S   0  0  0  0  0  0  0  0  0  0  0  0
   -2.6360   25.2890  -27.5780 O   0  0  0  0  0  0  0  0  0  0  0  0
   -0.9910   25.6830  -29.3380 O   0  0  0  0  0  0  0  0  0  0  0  0
   -1.8180   23.1740  -29.0390 C   0  0  0  0  0  0  0  0  0  0  0  0
   -1.0020   22.6960  -30.0740 C   0  0  0  0  0  0  0  0  0  0  0  0
   -0.6960   21.3340  -30.1540 C   0  0  0  0  0  0  0  0  0  0  0  0
   -1.2030   20.4450  -29.2000 C   0  0  0  0  0  0  0  0  0  0  0  0
   -2.0130   20.9180  -28.1640 C   0  0  0  0  0  0  0  0  0  0  0  0
   -2.3170   22.2800  -28.0790 C   0  0  0  0  0  0  0  0  0  0  0  0
   -4.4800   23.2640  -31.1060 C   0  0  0  0  0  0  0  0  0  0  0  0
   -5.5710   22.4280  -31.3590 C   0  0  0  0  0  0  0  0  0  0  0  0
   -6.6540   18.2540  -32.5100 C   0  0  0  0  0  0  0  0  0  0  0  0
   -6.4790   17.2040  -31.4570 C   0  0  0  0  0  0  0  0  0  0  0  0
   -5.1179   16.4108  -33.7720 H   0  0  0  0  0  0  0  0  0  0  0  0
   -6.2605   16.5471  -35.1513 H   0  0  0  0  0  0  0  0  0  0  0  0
   -4.7353   17.4960  -35.1513 H   0  0  0  0  0  0  0  0  0  0  0  0
   -6.2670   19.7120  -35.3700 H   0  0  0  0  0  0  0  0  0  0  0  0
   -7.9804   24.1357  -29.6362 H   0  0  0  0  0  0  0  0  0  0  0  0
   -6.0384   25.6357  -29.1989 H   0  0  0  0  0  0  0  0  0  0  0  0
   -0.6018   23.3936  -30.8244 H   0  0  0  0  0  0  0  0  0  0  0  0
   -0.0563   20.9612  -30.9675 H   0  0  0  0  0  0  0  0  0  0  0  0
   -0.9640   19.3733  -29.2654 H   0  0  0  0  0  0  0  0  0  0  0  0
   -2.4117   20.2181  -27.4148 H   0  0  0  0  0  0  0  0  0  0  0  0
   -2.9483   22.6515  -27.2584 H   0  0  0  0  0  0  0  0  0  0  0  0
   -3.4944   23.0177  -31.5277 H   0  0  0  0  0  0  0  0  0  0  0  0
   -5.4407   21.5297  -31.9804 H   0  0  0  0  0  0  0  0  0  0  0  0
   -6.5560   17.6663  -30.4618 H   0  0  0  0  0  0  0  0  0  0  0  0
   -7.2621   16.4395  -31.5678 H   0  0  0  0  0  0  0  0  0  0  0  0
   -5.4903   16.7348  -31.5678 H   0  0  0  0  0  0  0  0  0  0  0  0
  1  2  1  0
  2  3  1  0
  3  4  1  0
  4  5  1  0
  5  6  2  3
  6  7  1  0
  7  8  2  0
  7  9  2  0
  7 10  1  0
 10 11  2  0
 11 12  1  0
 12 13  2  0
 13 14  1  0
 14 15  1  0
 15 16  2  0
 15 17  2  0
 15 18  1  0
 18 19  2  0
 19 20  1  0
 20 21  2  0
 21 22  1  0
 22 23  2  0
 13 24  1  0
 24 25  2  0
  5 26  1  0
 26 27  1  0
 26  2  2  0
 25 10  1  0
 23 18  1  0
  1 28  1  0
  1 29  1  0
  1 30  1  0
  3 31  1  0
 11 32  1  0
 12 33  1  0
 19 34  1  0
 20 35  1  0
 21 36  1  0
 22 37  1  0
 23 38  1  0
 24 39  1  0
 25 40  1  0
 27 41  1  0
 27 42  1  0
 27 43  1  0
M  CHG  1  14  -1
M  END
>  <UniqueID>  (25) 
23

>  <SMILES>  (25) 
Cc1[nH]oc(=NS(=O)(=O)c2ccc([N-]S(=O)(=O)c3ccccc3)cc2)c1C

>  <Energy>  (25) 
82.0986466722265

>  <Genealogy>  (25) 
Cc1[nH]oc(=NS(=O)(=O)c2ccc([N-]S(=O)(=O)c3ccccc3)cc2)c1C (protonated)
Cc1[nH]oc(=NS(=O)(=O)c2ccc([N-]S(=O)(=O)c3ccccc3)cc2)c1C (3D coordinates assigned)
Cc1[nH]oc(=NS(=O)(=O)c2ccc([N-]S(=O)(=O)c3ccccc3)cc2)c1C (optimized conformer: 82.0986466722265 kcal/mol)

>  <smiles>  (25) 
Cc1[nH]oc(=NS(=O)(=O)c2ccc(NS(=O)(=O)c3ccccc3)cc2)c1C

>  <score_type>  (25) 
oracle

>  <origin>  (25) 
adgpu

>  <m_score__min__energy>  (25) 
-11.02

>  <m_primary>  (25) 
energy

$$$$
25:0
     RDKit          3D

 44 47  0  0  0  0  0  0  0  0999 V2000
   -7.1610   23.1940  -29.9820 O   0  0  0  0  0  0  0  0  0  0  0  0
   -6.0280   22.8760  -30.4380 C   0  0  0  0  0  0  0  0  0  0  0  0
   -4.8140   23.4740  -29.8270 C   0  0  0  0  0  0  0  0  0  0  0  0
   -4.1520   22.8140  -28.7820 C   0  0  0  0  0  0  0  0  0  0  0  0
   -3.0150   23.3870  -28.2080 C   0  0  0  0  0  0  0  0  0  0  0  0
   -2.3310   22.7640  -27.1550 C   0  0  0  0  0  0  0  0  0  0  0  0
   -1.1950   23.3690  -26.6060 C   0  0  0  0  0  0  0  0  0  0  0  0
   -0.7390   24.5940  -27.1090 C   0  0  0  0  0  0  0  0  0  0  0  0
   -1.4170   25.2180  -28.1600 C   0  0  0  0  0  0  0  0  0  0  0  0
   -2.5550   24.6210  -28.7140 C   0  0  0  0  0  0  0  0  0  0  0  0
   -3.1960   25.2160  -29.7150 O   0  0  0  0  0  0  0  0  0  0  0  0
   -4.2850   24.7010  -30.2800 C   0  0  0  0  0  0  0  0  0  0  0  0
   -4.8430   25.3340  -31.2150 O   0  0  0  0  0  0  0  0  0  0  0  0
   -5.9360   21.9530  -31.5470 N   0  0  0  0  0  0  0  0  0  0  0  0
   -7.1580   21.3530  -32.1030 C   0  0  0  0  0  0  0  0  0  0  0  0
   -6.8940   19.9350  -32.5370 C   0  0  0  0  0  0  0  0  0  0  0  0
   -6.3940   19.6730  -33.8230 C   0  0  0  0  0  0  0  0  0  0  0  0
   -6.1130   18.3620  -34.2170 C   0  0  0  0  0  0  0  0  0  0  0  0
   -6.3260   17.3040  -33.3300 C   0  0  0  0  0  0  0  0  0  0  0  0
   -6.8200   17.5560  -32.0470 C   0  0  0  0  0  0  0  0  0  0  0  0
   -7.1010   18.8670  -31.6490 C   0  0  0  0  0  0  0  0  0  0  0  0
   -4.6530   21.4370  -31.9550 C   0  0  0  0  0  0  0  0  0  0  0  0
   -4.0280   21.9200  -33.1160 C   0  0  0  0  0  0  0  0  0  0  0  0
   -2.7830   21.4180  -33.5080 C   0  0  0  0  0  0  0  0  0  0  0  0
   -2.1550   20.4300  -32.7460 C   0  0  0  0  0  0  0  0  0  0  0  0
   -2.7710   19.9420  -31.5900 C   0  0  0  0  0  0  0  0  0  0  0  0
   -4.0140   20.4420  -31.1950 C   0  0  0  0  0  0  0  0  0  0  0  0
   -4.5272   21.8472  -28.4151 H   0  0  0  0  0  0  0  0  0  0  0  0
   -2.6868   21.8007  -26.7607 H   0  0  0  0  0  0  0  0  0  0  0  0
   -0.6592   22.8817  -25.7780 H   0  0  0  0  0  0  0  0  0  0  0  0
    0.1550   25.0663  -26.6758 H   0  0  0  0  0  0  0  0  0  0  0  0
   -1.0555   26.1800  -28.5523 H   0  0  0  0  0  0  0  0  0  0  0  0
   -7.9457   21.3567  -31.3352 H   0  0  0  0  0  0  0  0  0  0  0  0
   -7.4794   21.9402  -32.9759 H   0  0  0  0  0  0  0  0  0  0  0  0
   -6.2228   20.5037  -34.5234 H   0  0  0  0  0  0  0  0  0  0  0  0
   -5.7238   18.1630  -35.2264 H   0  0  0  0  0  0  0  0  0  0  0  0
   -6.1049   16.2724  -33.6413 H   0  0  0  0  0  0  0  0  0  0  0  0
   -6.9880   16.7222  -31.3495 H   0  0  0  0  0  0  0  0  0  0  0  0
   -7.4854   19.0622  -30.6370 H   0  0  0  0  0  0  0  0  0  0  0  0
   -4.5199   22.6967  -33.7199 H   0  0  0  0  0  0  0  0  0  0  0  0
   -2.2977   21.8017  -34.4175 H   0  0  0  0  0  0  0  0  0  0  0  0
   -1.1758   20.0360  -33.0556 H   0  0  0  0  0  0  0  0  0  0  0  0
   -2.2764   19.1634  -30.9907 H   0  0  0  0  0  0  0  0  0  0  0  0
   -4.4953   20.0552  -30.2846 H   0  0  0  0  0  0  0  0  0  0  0  0
  1  2  2  0
  2  3  1  0
  3  4  2  0
  4  5  1  0
  5  6  2  0
  6  7  1  0
  7  8  2  0
  8  9  1  0
  9 10  2  0
 10 11  1  0
 11 12  1  0
 12 13  2  0
  2 14  1  0
 14 15  1  0
 15 16  1  0
 16 17  2  0
 17 18  1  0
 18 19  2  0
 19 20  1  0
 20 21  2  0
 14 22  1  0
 22 23  2  0
 23 24  1  0
 24 25  2  0
 25 26  1  0
 26 27  2  0
 12  3  1  0
 21 16  1  0
 27 22  1  0
 10  5  1  0
  4 28  1  0
  6 29  1  0
  7 30  1  0
  8 31  1  0
  9 32  1  0
 15 33  1  0
 15 34  1  0
 17 35  1  0
 18 36  1  0
 19 37  1  0
 20 38  1  0
 21 39  1  0
 23 40  1  0
 24 41  1  0
 25 42  1  0
 26 43  1  0
 27 44  1  0
M  END
>  <UniqueID>  (26) 
24

>  <SMILES>  (26) 
O=C(c1cc2ccccc2oc1=O)N(Cc1ccccc1)c1ccccc1

>  <Energy>  (26) 
61.372246772889284

>  <Genealogy>  (26) 
O=C(c1cc2ccccc2oc1=O)N(Cc1ccccc1)c1ccccc1 (3D coordinates assigned)
O=C(c1cc2ccccc2oc1=O)N(Cc1ccccc1)c1ccccc1 (optimized conformer: 61.372246772889284 kcal/mol)

>  <smiles>  (26) 
O=C(c1cc2ccccc2oc1=O)N(Cc1ccccc1)c1ccccc1

>  <score_type>  (26) 
oracle

>  <origin>  (26) 
adgpu

>  <m_score__min__energy>  (26) 
-9.5500000000000007

>  <m_primary>  (26) 
energy

$$$$
26:0
     RDKit          3D

 38 40  0  0  0  0  0  0  0  0999 V2000
   -9.0860   18.6360  -31.2740 C   0  0  0  0  0  0  0  0  0  0  0  0
   -7.6730   18.4720  -31.3280 O   0  0  0  0  0  0  0  0  0  0  0  0
   -6.9370   18.2580  -32.5060 C   0  0  0  0  0  0  0  0  0  0  0  0
   -6.8940   16.9970  -33.1330 C   0  0  0  0  0  0  0  0  0  0  0  0
   -6.1290   16.8070  -34.2860 C   0  0  0  0  0  0  0  0  0  0  0  0
   -5.3980   17.8660  -34.8250 C   0  0  0  0  0  0  0  0  0  0  0  0
   -5.4350   19.1210  -34.2160 C   0  0  0  0  0  0  0  0  0  0  0  0
   -6.2100   19.3320  -33.0630 C   0  0  0  0  0  0  0  0  0  0  0  0
   -6.2380   20.6780  -32.4410 C   0  0  0  0  0  0  0  0  0  0  0  0
   -7.4480   21.3690  -32.3450 C   0  0  0  0  0  0  0  0  0  0  0  0
   -7.4980   22.5730  -31.7950 O   0  0  0  0  0  0  0  0  0  0  0  0
   -6.4270   23.1910  -31.3090 C   0  0  0  0  0  0  0  0  0  0  0  0
   -6.5890   24.4560  -30.7530 C   0  0  0  0  0  0  0  0  0  0  0  0
   -5.5020   25.1410  -30.2290 C   0  0  0  0  0  0  0  0  0  0  0  0
   -4.2160   24.5760  -30.2530 C   0  0  0  0  0  0  0  0  0  0  0  0
   -3.1130   25.2680  -29.7220 O   0  0  0  0  0  0  0  0  0  0  0  0
   -2.4210   24.9070  -28.5310 C   0  0  0  0  0  0  0  0  0  0  0  0
   -4.0230   23.2910  -30.8200 C   0  0  0  0  0  0  0  0  0  0  0  0
   -2.6240   22.7120  -30.8510 C   0  0  0  0  0  0  0  0  0  0  0  0
   -5.1470   22.5790  -31.3510 C   0  0  0  0  0  0  0  0  0  0  0  0
   -5.0770   21.2790  -31.9230 C   0  0  0  0  0  0  0  0  0  0  0  0
   -3.9930   20.6350  -31.9590 O   0  0  0  0  0  0  0  0  0  0  0  0
   -9.4109   18.6737  -30.2237 H   0  0  0  0  0  0  0  0  0  0  0  0
   -9.3660   19.5727  -31.7783 H   0  0  0  0  0  0  0  0  0  0  0  0
   -9.5730   17.7884  -31.7783 H   0  0  0  0  0  0  0  0  0  0  0  0
   -7.4663   16.1572  -32.7120 H   0  0  0  0  0  0  0  0  0  0  0  0
   -6.1028   15.8197  -34.7704 H   0  0  0  0  0  0  0  0  0  0  0  0
   -4.7924   17.7117  -35.7302 H   0  0  0  0  0  0  0  0  0  0  0  0
   -4.8529   19.9516  -34.6418 H   0  0  0  0  0  0  0  0  0  0  0  0
   -8.3696   20.9083  -32.7304 H   0  0  0  0  0  0  0  0  0  0  0  0
   -7.5874   24.9171  -30.7286 H   0  0  0  0  0  0  0  0  0  0  0  0
   -5.6490   26.1386  -29.7895 H   0  0  0  0  0  0  0  0  0  0  0  0
   -3.0119   25.2152  -27.6559 H   0  0  0  0  0  0  0  0  0  0  0  0
   -2.2737   23.8171  -28.5085 H   0  0  0  0  0  0  0  0  0  0  0  0
   -1.4429   25.4097  -28.5085 H   0  0  0  0  0  0  0  0  0  0  0  0
   -2.2657   22.5637  -29.8216 H   0  0  0  0  0  0  0  0  0  0  0  0
   -2.6385   21.7460  -31.3769 H   0  0  0  0  0  0  0  0  0  0  0  0
   -1.9516   23.4057  -31.3769 H   0  0  0  0  0  0  0  0  0  0  0  0
  1  2  1  0
  2  3  1  0
  3  4  2  0
  4  5  1  0
  5  6  2  0
  6  7  1  0
  7  8  2  0
  8  9  1  0
  9 10  2  0
 10 11  1  0
 11 12  1  0
 12 13  2  0
 13 14  1  0
 14 15  2  0
 15 16  1  0
 16 17  1  0
 15 18  1  0
 18 19  1  0
 18 20  2  0
 20 21  1  0
 21 22  2  0
  8  3  1  0
 21  9  1  0
 20 12  1  0
  1 23  1  0
  1 24  1  0
  1 25  1  0
  4 26  1  0
  5 27  1  0
  6 28  1  0
  7 29  1  0
 10 30  1  0
 13 31  1  0
 14 32  1  0
 17 33  1  0
 17 34  1  0
 17 35  1  0
 19 36  1  0
 19 37  1  0
 19 38  1  0
M  END
>  <UniqueID>  (27) 
25

>  <SMILES>  (27) 
COc1ccccc1-c1coc2ccc(OC)c(C)c2c1=O

>  <Energy>  (27) 
58.2047662462699

>  <Genealogy>  (27) 
COc1ccccc1-c1coc2ccc(OC)c(C)c2c1=O (3D coordinates assigned)
COc1ccccc1-c1coc2ccc(OC)c(C)c2c1=O (optimized conformer: 58.2047662462699 kcal/mol)

>  <smiles>  (27) 
COc1ccccc1-c1coc2ccc(OC)c(C)c2c1=O

>  <score_type>  (27) 
oracle

>  <origin>  (27) 
adgpu

>  <m_score__min__energy>  (27) 
-8.0600000000000005

>  <m_primary>  (27) 
energy

$$$$
27:0
     RDKit          3D

 32 34  0  0  0  0  0  0  0  0999 V2000
   -0.3335   25.9988  -28.1776 H   0  0  0  0  0  0  0  0  0  0  0  0
   -1.2980   25.4700  -28.1760 C   0  0  0  0  0  0  0  0  0  0  0  0
   -1.9750   25.2890  -29.3410 N   0  0  0  0  0  0  0  0  0  0  0  0
   -3.1690   24.6370  -29.3990 C   0  0  0  0  0  0  0  0  0  0  0  0
   -3.7460   24.5180  -30.5620 N   0  0  0  0  0  0  0  0  0  0  0  0
   -4.9440   23.8070  -30.9080 C   0  0  0  0  0  0  0  0  0  0  0  0
   -4.9790   22.5260  -31.3340 N   0  0  0  0  0  0  0  0  0  0  0  0
   -6.2310   22.1390  -31.7100 C   0  0  0  0  0  0  0  0  0  0  0  0
   -6.4970   20.7600  -32.2010 C   0  0  0  0  0  0  0  0  0  0  0  0
   -5.7380   20.2380  -33.2640 C   0  0  0  0  0  0  0  0  0  0  0  0
   -4.9535   20.8548  -33.7267 H   0  0  0  0  0  0  0  0  0  0  0  0
   -5.9700   18.9430  -33.7390 C   0  0  0  0  0  0  0  0  0  0  0  0
   -5.3691   18.5501  -34.5724 H   0  0  0  0  0  0  0  0  0  0  0  0
   -6.9670   18.1410  -33.1570 C   0  0  0  0  0  0  0  0  0  0  0  0
   -7.2380   16.8380  -33.5970 O   0  0  0  0  0  0  0  0  0  0  0  0
   -6.2460   15.9180  -34.0410 C   0  0  0  0  0  0  0  0  0  0  0  0
   -5.7535   15.4612  -33.1699 H   0  0  0  0  0  0  0  0  0  0  0  0
   -6.7198   15.1325  -34.6480 H   0  0  0  0  0  0  0  0  0  0  0  0
   -5.4984   16.4496  -34.6480 H   0  0  0  0  0  0  0  0  0  0  0  0
   -7.7200   18.6550  -32.0960 C   0  0  0  0  0  0  0  0  0  0  0  0
   -8.5011   18.0347  -31.6322 H   0  0  0  0  0  0  0  0  0  0  0  0
   -7.4900   19.9490  -31.6190 C   0  0  0  0  0  0  0  0  0  0  0  0
   -8.0897   20.3366  -30.7823 H   0  0  0  0  0  0  0  0  0  0  0  0
   -7.1970   23.1470  -31.6100 C   0  0  0  0  0  0  0  0  0  0  0  0
   -8.2629   23.0464  -31.8624 H   0  0  0  0  0  0  0  0  0  0  0  0
   -6.4460   24.5390  -31.0370 S   0  0  0  0  0  0  0  0  0  0  0  0
   -3.7390   24.1530  -28.2010 C   0  0  0  0  0  0  0  0  0  0  0  0
   -4.7129   23.6419  -28.2169 H   0  0  0  0  0  0  0  0  0  0  0  0
   -3.0550   24.3290  -26.9950 C   0  0  0  0  0  0  0  0  0  0  0  0
   -3.4872   23.9490  -26.0576 H   0  0  0  0  0  0  0  0  0  0  0  0
   -1.8250   24.9860  -26.9790 C   0  0  0  0  0  0  0  0  0  0  0  0
   -1.2776   25.1207  -26.0344 H   0  0  0  0  0  0  0  0  0  0  0  0
  1  2  1  0
  2  3  1  0
  3  4  1  0
  4  5  2  0
  5  6  1  0
  6  7  2  0
  7  8  1  0
  8  9  1  0
  9 10  2  0
 10 11  1  0
 10 12  1  0
 12 13  1  0
 12 14  2  0
 14 15  1  0
 15 16  1  0
 16 17  1  0
 16 18  1  0
 16 19  1  0
 14 20  1  0
 20 21  1  0
 20 22  2  0
 22 23  1  0
  8 24  2  0
 24 25  1  0
 24 26  1  0
  4 27  1  0
 27 28  1  0
 27 29  2  0
 29 30  1  0
 29 31  1  0
 31 32  1  0
 31  2  2  0
 26  6  1  0
 22  9  1  0
M  CHG  1   3  -1
M  END
>  <UniqueID>  (28) 
26

>  <SMILES>  (28) 
COc1ccc(-c2csc(/N=c3\cccc[n-]3)n2)cc1

>  <Energy>  (28) 
74.0904844688721

>  <Genealogy>  (28) 
COc1ccc(-c2csc(N=c3cccc[n-]3)n2)cc1 (protonated)
COc1ccc(-c2csc(/N=c3\cccc[n-]3)n2)cc1 (cis-trans isomerization)
COc1ccc(-c2csc(/N=c3\cccc[n-]3)n2)cc1 (3D coordinates assigned)
COc1ccc(-c2csc(/N=c3\cccc[n-]3)n2)cc1 (optimized conformer: 74.0904844688721 kcal/mol)

>  <smiles>  (28) 
COc1ccc(-c2csc(N=c3cccc[nH]3)n2)cc1

>  <score_type>  (28) 
oracle

>  <origin>  (28) 
adgpu

>  <m_score__min__energy>  (28) 
-9.5199999999999996

>  <m_primary>  (28) 
energy

$$$$
28:0
     RDKit          3D

 31 32  0  0  0  0  0  0  0  0999 V2000
   -4.5630   20.9930  -32.8790 C   0  0  0  0  0  0  0  0  0  0  0  0
   -5.8800   21.4760  -32.3380 C   0  0  0  0  0  0  0  0  0  0  0  0
   -7.0290   20.6800  -32.4770 C   0  0  0  0  0  0  0  0  0  0  0  0
   -8.2550   21.1140  -31.9650 C   0  0  0  0  0  0  0  0  0  0  0  0
   -8.3450   22.3440  -31.3100 C   0  0  0  0  0  0  0  0  0  0  0  0
   -7.2070   23.1370  -31.1530 C   0  0  0  0  0  0  0  0  0  0  0  0
   -5.9610   22.6980  -31.6370 C   0  0  0  0  0  0  0  0  0  0  0  0
   -4.7920   23.5190  -31.4950 N   0  0  0  0  0  0  0  0  0  0  0  0
   -4.5800   24.5180  -30.4880 C   0  0  0  0  0  0  0  0  0  0  0  0
   -4.2470   25.6780  -30.8450 O   0  0  0  0  0  0  0  0  0  0  0  0
   -4.6200   24.1890  -29.0220 C   0  0  0  0  0  0  0  0  0  0  0  0
   -3.2830   23.6900  -28.5750 C   0  0  0  0  0  0  0  0  0  0  0  0
   -3.0010   22.2150  -27.8070 S   0  0  0  0  0  0  0  0  0  0  0  0
   -1.3530   22.5040  -27.6550 C   0  0  0  0  0  0  0  0  0  0  0  0
   -0.5380   21.6910  -27.1430 O   0  0  0  0  0  0  0  0  0  0  0  0
   -0.9980   23.7140  -28.1540 N   0  0  0  0  0  0  0  0  0  0  0  0
    0.3740   24.2180  -28.2090 C   0  0  0  0  0  0  0  0  0  0  0  0
   -2.0720   24.3720  -28.6780 C   0  0  0  0  0  0  0  0  0  0  0  0
   -1.9610   25.6250  -29.2730 O   0  0  0  0  0  0  0  0  0  0  0  0
   -3.8915   20.7467  -32.0433 H   0  0  0  0  0  0  0  0  0  0  0  0
   -4.7262   20.0962  -33.4948 H   0  0  0  0  0  0  0  0  0  0  0  0
   -4.1077   21.7827  -33.4948 H   0  0  0  0  0  0  0  0  0  0  0  0
   -6.9636   19.7100  -32.9915 H   0  0  0  0  0  0  0  0  0  0  0  0
   -9.1506   20.4855  -32.0782 H   0  0  0  0  0  0  0  0  0  0  0  0
   -9.3132   22.6882  -30.9175 H   0  0  0  0  0  0  0  0  0  0  0  0
   -7.2849   24.1110  -30.6478 H   0  0  0  0  0  0  0  0  0  0  0  0
   -4.8808   25.0932  -28.4524 H   0  0  0  0  0  0  0  0  0  0  0  0
   -5.3747   23.4082  -28.8468 H   0  0  0  0  0  0  0  0  0  0  0  0
    0.7545   24.3578  -27.1864 H   0  0  0  0  0  0  0  0  0  0  0  0
    1.0093   23.4946  -28.7410 H   0  0  0  0  0  0  0  0  0  0  0  0
    0.3899   25.1807  -28.7410 H   0  0  0  0  0  0  0  0  0  0  0  0
  1  2  1  0
  2  3  2  0
  3  4  1  0
  4  5  2  0
  5  6  1  0
  6  7  2  0
  7  8  1  0
  8  9  1  0
  9 10  2  0
  9 11  1  0
 11 12  1  0
 12 13  1  0
 13 14  1  0
 14 15  2  0
 14 16  1  0
 16 17  1  0
 16 18  1  0
 18 19  1  0
  7  2  1  0
 18 12  2  0
  1 20  1  0
  1 21  1  0
  1 22  1  0
  3 23  1  0
  4 24  1  0
  5 25  1  0
  6 26  1  0
 11 27  1  0
 11 28  1  0
 17 29  1  0
 17 30  1  0
 17 31  1  0
M  CHG  2   8  -1  19  -1
M  END
>  <UniqueID>  (29) 
27

>  <SMILES>  (29) 
Cc1ccccc1[N-]C(=O)Cc1sc(=O)n(C)c1[O-]

>  <Energy>  (29) 
65.54740194181848

>  <Genealogy>  (29) 
Cc1ccccc1[N-]C(=O)Cc1sc(=O)n(C)c1[O-] (protonated)
Cc1ccccc1[N-]C(=O)Cc1sc(=O)n(C)c1[O-] (3D coordinates assigned)
Cc1ccccc1[N-]C(=O)Cc1sc(=O)n(C)c1[O-] (optimized conformer: 65.54740194181848 kcal/mol)

>  <smiles>  (29) 
Cc1ccccc1NC(=O)Cc1sc(=O)n(C)c1O

>  <score_type>  (29) 
oracle

>  <origin>  (29) 
adgpu

>  <m_score__min__energy>  (29) 
-10.970000000000001

>  <m_primary>  (29) 
energy

$$$$
29:0
     RDKit          3D

 41 43  0  0  0  0  0  0  0  0999 V2000
   -0.3240   24.0610  -29.3500 O   0  0  0  0  0  0  0  0  0  0  0  0
   -1.1880   24.6910  -28.6820 C   0  0  0  0  0  0  0  0  0  0  0  0
   -2.3190   25.2780  -29.3420 N   0  0  0  0  0  0  0  0  0  0  0  0
   -3.5860   24.6500  -29.5890 C   0  0  0  0  0  0  0  0  0  0  0  0
   -4.6270   25.3100  -30.2640 C   0  0  0  0  0  0  0  0  0  0  0  0
   -5.8570   24.6740  -30.4580 C   0  0  0  0  0  0  0  0  0  0  0  0
   -6.0650   23.3730  -29.9750 C   0  0  0  0  0  0  0  0  0  0  0  0
   -7.4090   22.7140  -30.1250 C   0  0  0  0  0  0  0  0  0  0  0  0
   -7.7770   22.4400  -31.8500 S   0  0  0  0  0  0  0  0  0  0  0  0
   -6.7620   23.1560  -32.6960 O   0  0  0  0  0  0  0  0  0  0  0  0
   -9.1400   22.9900  -32.1700 O   0  0  0  0  0  0  0  0  0  0  0  0
   -7.7320   20.7160  -32.2060 C   0  0  0  0  0  0  0  0  0  0  0  0
   -6.6810   20.1830  -32.9660 C   0  0  0  0  0  0  0  0  0  0  0  0
   -6.6210   18.8070  -33.2140 C   0  0  0  0  0  0  0  0  0  0  0  0
   -7.6060   17.9590  -32.6970 C   0  0  0  0  0  0  0  0  0  0  0  0
   -8.6500   18.4850  -31.9310 C   0  0  0  0  0  0  0  0  0  0  0  0
   -8.7130   19.8610  -31.6840 C   0  0  0  0  0  0  0  0  0  0  0  0
   -5.0350   22.7260  -29.2760 C   0  0  0  0  0  0  0  0  0  0  0  0
   -3.8070   23.3640  -29.0800 C   0  0  0  0  0  0  0  0  0  0  0  0
   -1.0620   24.7780  -27.2090 C   0  0  0  0  0  0  0  0  0  0  0  0
   -0.6040   23.6750  -26.4620 C   0  0  0  0  0  0  0  0  0  0  0  0
   -0.4890   23.7590  -25.0720 C   0  0  0  0  0  0  0  0  0  0  0  0
   -0.8270   24.9420  -24.4100 C   0  0  0  0  0  0  0  0  0  0  0  0
   -1.2830   26.0430  -25.1380 C   0  0  0  0  0  0  0  0  0  0  0  0
   -1.6110   27.1910  -24.4950 F   0  0  0  0  0  0  0  0  0  0  0  0
   -1.4010   25.9630  -26.5300 C   0  0  0  0  0  0  0  0  0  0  0  0
   -4.4735   26.3317  -30.6415 H   0  0  0  0  0  0  0  0  0  0  0  0
   -6.6651   25.1958  -30.9916 H   0  0  0  0  0  0  0  0  0  0  0  0
   -7.4003   21.7484  -29.5982 H   0  0  0  0  0  0  0  0  0  0  0  0
   -8.1792   23.3714  -29.6953 H   0  0  0  0  0  0  0  0  0  0  0  0
   -5.9022   20.8477  -33.3680 H   0  0  0  0  0  0  0  0  0  0  0  0
   -5.7989   18.3921  -33.8157 H   0  0  0  0  0  0  0  0  0  0  0  0
   -7.5589   16.8777  -32.8934 H   0  0  0  0  0  0  0  0  0  0  0  0
   -9.4225   17.8171  -31.5221 H   0  0  0  0  0  0  0  0  0  0  0  0
   -9.5341   20.2728  -31.0789 H   0  0  0  0  0  0  0  0  0  0  0  0
   -5.1946   21.7121  -28.8804 H   0  0  0  0  0  0  0  0  0  0  0  0
   -3.0086   22.8527  -28.5222 H   0  0  0  0  0  0  0  0  0  0  0  0
   -0.3349   22.7408  -26.9767 H   0  0  0  0  0  0  0  0  0  0  0  0
   -0.1315   22.8917  -24.4976 H   0  0  0  0  0  0  0  0  0  0  0  0
   -0.7340   25.0061  -23.3158 H   0  0  0  0  0  0  0  0  0  0  0  0
   -1.7616   26.8333  -27.0980 H   0  0  0  0  0  0  0  0  0  0  0  0
  1  2  2  0
  2  3  1  0
  3  4  1  0
  4  5  2  0
  5  6  1  0
  6  7  2  0
  7  8  1  0
  8  9  1  0
  9 10  2  0
  9 11  2  0
  9 12  1  0
 12 13  2  0
 13 14  1  0
 14 15  2  0
 15 16  1  0
 16 17  2  0
  7 18  1  0
 18 19  2  0
  2 20  1  0
 20 21  2  0
 21 22  1  0
 22 23  2  0
 23 24  1  0
 24 25  1  0
 24 26  2  0
 19  4  1  0
 26 20  1  0
 17 12  1  0
  5 27  1  0
  6 28  1  0
  8 29  1  0
  8 30  1  0
 13 31  1  0
 14 32  1  0
 15 33  1  0
 16 34  1  0
 17 35  1  0
 18 36  1  0
 19 37  1  0
 21 38  1  0
 22 39  1  0
 23 40  1  0
 26 41  1  0
M  CHG  1   3  -1
M  END
>  <UniqueID>  (30) 
28

>  <SMILES>  (30) 
O=C([N-]c1ccc(CS(=O)(=O)c2ccccc2)cc1)c1cccc(F)c1

>  <Energy>  (30) 
43.40071789510648

>  <Genealogy>  (30) 
O=C([N-]c1ccc(CS(=O)(=O)c2ccccc2)cc1)c1cccc(F)c1 (protonated)
O=C([N-]c1ccc(CS(=O)(=O)c2ccccc2)cc1)c1cccc(F)c1 (3D coordinates assigned)
O=C([N-]c1ccc(CS(=O)(=O)c2ccccc2)cc1)c1cccc(F)c1 (optimized conformer: 43.40071789510648 kcal/mol)

>  <smiles>  (30) 
O=C(Nc1ccc(CS(=O)(=O)c2ccccc2)cc1)c1cccc(F)c1

>  <score_type>  (30) 
oracle

>  <origin>  (30) 
adgpu

>  <m_score__min__energy>  (30) 
-11.33

>  <m_primary>  (30) 
energy

$$$$
30:0
     RDKit          3D

 45 49  0  0  0  0  0  0  0  0999 V2000
    3.6060   19.5380  -27.7760 O   0  0  0  0  0  0  0  0  0  0  0  0
    2.3940   19.2270  -27.9160 C   0  0  0  0  0  0  0  0  0  0  0  0
    1.4950   20.1410  -28.3780 N   0  0  0  0  0  0  0  0  0  0  0  0
    0.1650   19.8450  -28.5380 C   0  0  0  0  0  0  0  0  0  0  0  0
   -0.7590   20.8990  -29.0450 C   0  0  0  0  0  0  0  0  0  0  0  0
   -0.9600   21.0410  -30.4310 C   0  0  0  0  0  0  0  0  0  0  0  0
   -1.8160   22.0260  -30.9310 C   0  0  0  0  0  0  0  0  0  0  0  0
   -2.4980   22.8830  -30.0620 C   0  0  0  0  0  0  0  0  0  0  0  0
   -3.3390   23.8650  -30.6050 O   0  0  0  0  0  0  0  0  0  0  0  0
   -4.6960   23.6910  -30.9200 C   0  0  0  0  0  0  0  0  0  0  0  0
   -5.0460   22.7260  -31.8710 C   0  0  0  0  0  0  0  0  0  0  0  0
   -6.3900   22.5090  -32.1970 C   0  0  0  0  0  0  0  0  0  0  0  0
   -7.3950   23.2490  -31.5640 C   0  0  0  0  0  0  0  0  0  0  0  0
   -9.0800   22.9720  -31.9710 Cl  0  0  0  0  0  0  0  0  0  0  0  0
   -7.0560   24.2000  -30.5960 C   0  0  0  0  0  0  0  0  0  0  0  0
   -5.7130   24.4230  -30.2740 C   0  0  0  0  0  0  0  0  0  0  0  0
   -2.2810   22.7720  -28.6800 C   0  0  0  0  0  0  0  0  0  0  0  0
   -1.4210   21.7910  -28.1750 C   0  0  0  0  0  0  0  0  0  0  0  0
   -0.2770   18.5390  -28.2240 C   0  0  0  0  0  0  0  0  0  0  0  0
    0.6380   17.6520  -27.7610 N   0  0  0  0  0  0  0  0  0  0  0  0
    0.4080   16.4050  -27.3880 N   0  0  0  0  0  0  0  0  0  0  0  0
    1.5970   15.8960  -26.9780 C   0  0  0  0  0  0  0  0  0  0  0  0
    1.7560   14.5190  -26.4510 C   0  0  0  0  0  0  0  0  0  0  0  0
    0.6450   13.6740  -26.2690 C   0  0  0  0  0  0  0  0  0  0  0  0
    0.8160   12.3730  -25.7840 C   0  0  0  0  0  0  0  0  0  0  0  0
    2.0940   11.8990  -25.4780 C   0  0  0  0  0  0  0  0  0  0  0  0
    3.2030   12.7290  -25.6480 C   0  0  0  0  0  0  0  0  0  0  0  0
    3.0390   14.0320  -26.1280 C   0  0  0  0  0  0  0  0  0  0  0  0
    2.5990   16.8610  -27.1020 C   0  0  0  0  0  0  0  0  0  0  0  0
    1.9300   17.9550  -27.6020 C   0  0  0  0  0  0  0  0  0  0  0  0
   -0.4376   20.3693  -31.1281 H   0  0  0  0  0  0  0  0  0  0  0  0
   -1.9544   22.1279  -32.0175 H   0  0  0  0  0  0  0  0  0  0  0  0
   -4.2609   22.1348  -32.3650 H   0  0  0  0  0  0  0  0  0  0  0  0
   -6.6567   21.7552  -32.9524 H   0  0  0  0  0  0  0  0  0  0  0  0
   -7.8457   24.7728  -30.0877 H   0  0  0  0  0  0  0  0  0  0  0  0
   -5.4494   25.1727  -29.5135 H   0  0  0  0  0  0  0  0  0  0  0  0
   -2.7902   23.4605  -27.9896 H   0  0  0  0  0  0  0  0  0  0  0  0
   -1.2594   21.7143  -27.0896 H   0  0  0  0  0  0  0  0  0  0  0  0
   -1.3311   18.2514  -28.3515 H   0  0  0  0  0  0  0  0  0  0  0  0
   -0.3643   14.0391  -26.5097 H   0  0  0  0  0  0  0  0  0  0  0  0
   -0.0587   11.7211  -25.6431 H   0  0  0  0  0  0  0  0  0  0  0  0
    2.2260   10.8731  -25.1036 H   0  0  0  0  0  0  0  0  0  0  0  0
    4.2090   12.3571  -25.4037 H   0  0  0  0  0  0  0  0  0  0  0  0
    3.9175   14.6818  -26.2545 H   0  0  0  0  0  0  0  0  0  0  0  0
    3.6677   16.7687  -26.8583 H   0  0  0  0  0  0  0  0  0  0  0  0
  1  2  2  0
  2  3  1  0
  3  4  1  0
  4  5  1  0
  5  6  2  0
  6  7  1  0
  7  8  2  0
  8  9  1  0
  9 10  1  0
 10 11  2  0
 11 12  1  0
 12 13  2  0
 13 14  1  0
 13 15  1  0
 15 16  2  0
  8 17  1  0
 17 18  2  0
  4 19  2  0
 19 20  1  0
 20 21  1  0
 21 22  2  0
 22 23  1  0
 23 24  2  0
 24 25  1  0
 25 26  2  0
 26 27  1  0
 27 28  2  0
 22 29  1  0
 29 30  2  0
 30  2  1  0
 18  5  1  0
 30 20  1  0
 16 10  1  0
 28 23  1  0
  6 31  1  0
  7 32  1  0
 11 33  1  0
 12 34  1  0
 15 35  1  0
 16 36  1  0
 17 37  1  0
 18 38  1  0
 19 39  1  0
 24 40  1  0
 25 41  1  0
 26 42  1  0
 27 43  1  0
 28 44  1  0
 29 45  1  0
M  CHG  1   3  -1
M  END
>  <UniqueID>  (31) 
29

>  <SMILES>  (31) 
O=c1[n-]c(-c2ccc(Oc3ccc(Cl)cc3)cc2)cn2nc(-c3ccccc3)cc12

>  <Energy>  (31) 
101.33319548427404

>  <Genealogy>  (31) 
O=c1[n-]c(-c2ccc(Oc3ccc(Cl)cc3)cc2)cn2nc(-c3ccccc3)cc12 (protonated)
O=c1[n-]c(-c2ccc(Oc3ccc(Cl)cc3)cc2)cn2nc(-c3ccccc3)cc12 (3D coordinates assigned)
O=c1[n-]c(-c2ccc(Oc3ccc(Cl)cc3)cc2)cn2nc(-c3ccccc3)cc12 (optimized conformer: 101.33319548427404 kcal/mol)

>  <smiles>  (31) 
O=c1[nH]c(-c2ccc(Oc3ccc(Cl)cc3)cc2)cn2nc(-c3ccccc3)cc12

>  <score_type>  (31) 
oracle

>  <origin>  (31) 
adgpu

>  <m_score__min__energy>  (31) 
-10.19

>  <m_primary>  (31) 
energy

$$$$
31:0
     RDKit          3D

 42 45  0  0  0  0  0  0  0  0999 V2000
   -6.0980   17.4230  -34.2420 C   0  0  0  0  0  0  0  0  0  0  0  0
   -7.0630   17.9070  -33.3130 O   0  0  0  0  0  0  0  0  0  0  0  0
   -7.0450   19.1910  -32.7490 C   0  0  0  0  0  0  0  0  0  0  0  0
   -8.2040   20.0170  -32.7050 C   0  0  0  0  0  0  0  0  0  0  0  0
   -8.1500   21.3010  -32.1320 C   0  0  0  0  0  0  0  0  0  0  0  0
   -6.9310   21.7260  -31.6150 C   0  0  0  0  0  0  0  0  0  0  0  0
   -5.8040   20.9360  -31.6520 C   0  0  0  0  0  0  0  0  0  0  0  0
   -5.8300   19.6620  -32.2130 C   0  0  0  0  0  0  0  0  0  0  0  0
   -4.7740   21.5510  -31.1040 O   0  0  0  0  0  0  0  0  0  0  0  0
   -5.2050   22.7330  -30.7090 C   0  0  0  0  0  0  0  0  0  0  0  0
   -4.4770   23.7430  -30.0740 C   0  0  0  0  0  0  0  0  0  0  0  0
   -2.7650   23.5520  -29.7090 S   0  0  0  0  0  0  0  0  0  0  0  0
   -2.6200   22.6490  -28.5180 O   0  0  0  0  0  0  0  0  0  0  0  0
   -2.0340   22.9490  -30.8750 O   0  0  0  0  0  0  0  0  0  0  0  0
   -2.0630   25.0940  -29.3390 N   0  0  0  0  0  0  0  0  0  0  0  0
   -1.7130   25.5490  -28.0250 C   0  0  0  0  0  0  0  0  0  0  0  0
   -0.6590   26.4540  -27.8020 C   0  0  0  0  0  0  0  0  0  0  0  0
   -0.3590   26.8790  -26.5040 C   0  0  0  0  0  0  0  0  0  0  0  0
   -1.0940   26.3950  -25.4120 C   0  0  0  0  0  0  0  0  0  0  0  0
   -0.7970   26.8820  -24.0250 C   0  0  0  0  0  0  0  0  0  0  0  0
   -2.1540   25.5040  -25.6370 C   0  0  0  0  0  0  0  0  0  0  0  0
   -2.4550   25.0800  -26.9340 C   0  0  0  0  0  0  0  0  0  0  0  0
   -5.1590   24.9300  -29.7370 C   0  0  0  0  0  0  0  0  0  0  0  0
   -6.5300   25.0850  -30.0430 C   0  0  0  0  0  0  0  0  0  0  0  0
   -7.2410   24.0560  -30.6860 C   0  0  0  0  0  0  0  0  0  0  0  0
   -6.5440   22.8930  -31.0020 C   0  0  0  0  0  0  0  0  0  0  0  0
   -5.2449   16.9951  -33.6951 H   0  0  0  0  0  0  0  0  0  0  0  0
   -6.5546   16.6472  -34.8742 H   0  0  0  0  0  0  0  0  0  0  0  0
   -5.7492   18.2529  -34.8742 H   0  0  0  0  0  0  0  0  0  0  0  0
   -9.1518   19.6474  -33.1235 H   0  0  0  0  0  0  0  0  0  0  0  0
   -9.0404   21.9457  -32.0943 H   0  0  0  0  0  0  0  0  0  0  0  0
   -4.9242   19.0384  -32.2372 H   0  0  0  0  0  0  0  0  0  0  0  0
   -0.0690   26.8285  -28.6515 H   0  0  0  0  0  0  0  0  0  0  0  0
    0.4579   27.5968  -26.3385 H   0  0  0  0  0  0  0  0  0  0  0  0
   -1.2238   26.1822  -23.2914 H   0  0  0  0  0  0  0  0  0  0  0  0
    0.2921   26.9429  -23.8831 H   0  0  0  0  0  0  0  0  0  0  0  0
   -1.2415   27.8781  -23.8831 H   0  0  0  0  0  0  0  0  0  0  0  0
   -2.7508   25.1376  -24.7887 H   0  0  0  0  0  0  0  0  0  0  0  0
   -3.2810   24.3725  -27.0992 H   0  0  0  0  0  0  0  0  0  0  0  0
   -4.6187   25.7436  -29.2309 H   0  0  0  0  0  0  0  0  0  0  0  0
   -7.0458   26.0191  -29.7758 H   0  0  0  0  0  0  0  0  0  0  0  0
   -8.3079   24.1659  -30.9301 H   0  0  0  0  0  0  0  0  0  0  0  0
  1  2  1  0
  2  3  1  0
  3  4  2  0
  4  5  1  0
  5  6  2  0
  6  7  1  0
  7  8  2  0
  7  9  1  0
  9 10  1  0
 10 11  2  0
 11 12  1  0
 12 13  2  0
 12 14  2  0
 12 15  1  0
 15 16  1  0
 16 17  2  0
 17 18  1  0
 18 19  2  0
 19 20  1  0
 19 21  1  0
 21 22  2  0
 11 23  1  0
 23 24  2  0
 24 25  1  0
 25 26  2  0
  8  3  1  0
 26 10  1  0
 26  6  1  0
 22 16  1  0
  1 27  1  0
  1 28  1  0
  1 29  1  0
  4 30  1  0
  5 31  1  0
  8 32  1  0
 17 33  1  0
 18 34  1  0
 20 35  1  0
 20 36  1  0
 20 37  1  0
 21 38  1  0
 22 39  1  0
 23 40  1  0
 24 41  1  0
 25 42  1  0
M  CHG  1  15  -1
M  END
>  <UniqueID>  (32) 
30

>  <SMILES>  (32) 
COc1ccc2c(c1)oc1c(S(=O)(=O)[N-]c3ccc(C)cc3)cccc12

>  <Energy>  (32) 
89.54761924427335

>  <Genealogy>  (32) 
COc1ccc2c(c1)oc1c(S(=O)(=O)[N-]c3ccc(C)cc3)cccc12 (protonated)
COc1ccc2c(c1)oc1c(S(=O)(=O)[N-]c3ccc(C)cc3)cccc12 (3D coordinates assigned)
COc1ccc2c(c1)oc1c(S(=O)(=O)[N-]c3ccc(C)cc3)cccc12 (optimized conformer: 89.54761924427335 kcal/mol)

>  <smiles>  (32) 
COc1ccc2c(c1)oc1c(S(=O)(=O)Nc3ccc(C)cc3)cccc12

>  <score_type>  (32) 
oracle

>  <origin>  (32) 
adgpu

>  <m_score__min__energy>  (32) 
-10

>  <m_primary>  (32) 
energy

$$$$
32:0
     RDKit          3D

 43 45  0  0  0  0  0  0  0  0999 V2000
   -4.7240   17.3760  -34.6150 C   0  0  0  0  0  0  0  0  0  0  0  0
   -5.8370   17.9730  -33.8050 C   0  0  0  0  0  0  0  0  0  0  0  0
   -6.9720   17.2130  -33.5040 C   0  0  0  0  0  0  0  0  0  0  0  0
   -7.9910   17.7550  -32.7230 C   0  0  0  0  0  0  0  0  0  0  0  0
   -7.9000   19.0620  -32.2200 C   0  0  0  0  0  0  0  0  0  0  0  0
   -6.7330   19.8300  -32.4880 C   0  0  0  0  0  0  0  0  0  0  0  0
   -5.7160   19.2670  -33.2850 C   0  0  0  0  0  0  0  0  0  0  0  0
   -6.5570   21.2220  -31.9750 C   0  0  0  0  0  0  0  0  0  0  0  0
   -5.6950   21.9630  -32.5250 O   0  0  0  0  0  0  0  0  0  0  0  0
   -7.3180   21.7020  -30.8400 N   0  0  1  0  0  0  0  0  0  0  0  0
   -7.1880   23.1600  -30.6000 C   0  0  0  0  0  0  0  0  0  0  0  0
   -5.7890   23.5400  -30.1690 C   0  0  0  0  0  0  0  0  0  0  0  0
   -5.1840   22.8900  -29.0800 C   0  0  0  0  0  0  0  0  0  0  0  0
   -3.8910   23.2370  -28.6790 C   0  0  0  0  0  0  0  0  0  0  0  0
   -3.1890   24.2500  -29.3490 C   0  0  0  0  0  0  0  0  0  0  0  0
   -1.7840   24.5940  -28.9360 C   0  0  0  0  0  0  0  0  0  0  0  0
   -1.5900   26.0380  -28.9600 N   0  0  0  0  0  0  0  0  0  0  0  0
   -0.8150   26.7170  -27.9740 C   0  0  0  0  0  0  0  0  0  0  0  0
    0.2900   26.2380  -27.6070 O   0  0  0  0  0  0  0  0  0  0  0  0
   -3.7920   24.9040  -30.4340 C   0  0  0  0  0  0  0  0  0  0  0  0
   -5.0860   24.5570  -30.8360 C   0  0  0  0  0  0  0  0  0  0  0  0
   -8.9820   21.3110  -31.1220 S   0  0  0  0  0  0  0  0  0  0  0  0
   -9.4920   22.0260  -32.3440 O   0  0  0  0  0  0  0  0  0  0  0  0
   -9.8210   21.6800  -29.9300 O   0  0  0  0  0  0  0  0  0  0  0  0
   -9.0470   19.5560  -31.3730 C   0  0  0  0  0  0  0  0  0  0  0  0
   -3.9586   16.9655  -33.9400 H   0  0  0  0  0  0  0  0  0  0  0  0
   -5.1232   16.5710  -35.2494 H   0  0  0  0  0  0  0  0  0  0  0  0
   -4.2742   18.1539  -35.2494 H   0  0  0  0  0  0  0  0  0  0  0  0
   -7.0605   16.1848  -33.8848 H   0  0  0  0  0  0  0  0  0  0  0  0
   -8.8807   17.1488  -32.4972 H   0  0  0  0  0  0  0  0  0  0  0  0
   -4.8117   19.8545  -33.5021 H   0  0  0  0  0  0  0  0  0  0  0  0
   -7.0130   21.1700  -29.9910 H   0  0  0  0  0  0  0  0  0  0  0  0
   -7.4314   23.6961  -31.5292 H   0  0  0  0  0  0  0  0  0  0  0  0
   -7.8797   23.4343  -29.7899 H   0  0  0  0  0  0  0  0  0  0  0  0
   -5.7313   22.1034  -28.5399 H   0  0  0  0  0  0  0  0  0  0  0  0
   -3.4213   22.7130  -27.8335 H   0  0  0  0  0  0  0  0  0  0  0  0
   -1.6032   24.2203  -27.9173 H   0  0  0  0  0  0  0  0  0  0  0  0
   -1.0792   24.1261  -29.6391 H   0  0  0  0  0  0  0  0  0  0  0  0
   -1.1817   27.6567  -27.5353 H   0  0  0  0  0  0  0  0  0  0  0  0
   -3.2448   25.6930  -30.9708 H   0  0  0  0  0  0  0  0  0  0  0  0
   -5.5560   25.0837  -31.6796 H   0  0  0  0  0  0  0  0  0  0  0  0
   -9.0065   19.0558  -30.3942 H   0  0  0  0  0  0  0  0  0  0  0  0
   -9.9835   19.3233  -31.9011 H   0  0  0  0  0  0  0  0  0  0  0  0
  1  2  1  0
  2  3  2  0
  3  4  1  0
  4  5  2  0
  5  6  1  0
  6  7  2  0
  6  8  1  0
  8  9  2  0
  8 10  1  0
 10 11  1  0
 11 12  1  0
 12 13  2  0
 13 14  1  0
 14 15  2  0
 15 16  1  0
 16 17  1  0
 17 18  1  0
 18 19  2  0
 15 20  1  0
 20 21  2  0
 10 22  1  0
 22 23  2  0
 22 24  2  0
 22 25  1  0
  7  2  1  0
 21 12  1  0
 25  5  1  0
  1 26  1  0
  1 27  1  0
  1 28  1  0
  3 29  1  0
  4 30  1  0
  7 31  1  0
 10 32  1  1
 11 33  1  0
 11 34  1  0
 13 35  1  0
 14 36  1  0
 16 37  1  0
 16 38  1  0
 18 39  1  0
 20 40  1  0
 21 41  1  0
 25 42  1  0
 25 43  1  0
M  CHG  2  10   1  17  -1
M  END
>  <UniqueID>  (33) 
31

>  <SMILES>  (33) 
Cc1ccc2c(c1)C(=O)[N@@H+](Cc1ccc(C[N-]C=O)cc1)S(=O)(=O)C2

>  <Energy>  (33) 
46.355565379501584

>  <Genealogy>  (33) 
Cc1ccc2c(c1)C(=O)[NH+](Cc1ccc(C[N-]C=O)cc1)S(=O)(=O)C2 (protonated)
Cc1ccc2c(c1)C(=O)[N@@H+](Cc1ccc(C[N-]C=O)cc1)S(=O)(=O)C2 (chirality)
Cc1ccc2c(c1)C(=O)[N@@H+](Cc1ccc(C[N-]C=O)cc1)S(=O)(=O)C2 (3D coordinates assigned)
Cc1ccc2c(c1)C(=O)[N@@H+](Cc1ccc(C[N-]C=O)cc1)S(=O)(=O)C2 (nonaromatic ring conformer: 46.355565379501584 kcal/mol)

>  <smiles>  (33) 
Cc1ccc2c(c1)C(=O)N(Cc1ccc(CNC=O)cc1)S(=O)(=O)C2

>  <score_type>  (33) 
oracle

>  <origin>  (33) 
adgpu

>  <m_score__min__energy>  (33) 
-10.67

>  <m_primary>  (33) 
energy

$$$$
33:0
     RDKit          3D

 35 37  0  0  0  0  0  0  0  0999 V2000
   -1.1410   26.0480  -27.0150 C   0  0  0  0  0  0  0  0  0  0  0  0
   -0.8300   25.3020  -28.2690 C   0  0  0  0  0  0  0  0  0  0  0  0
    0.2580   24.6720  -28.3570 O   0  0  0  0  0  0  0  0  0  0  0  0
   -1.8030   25.2730  -29.3250 N   0  0  0  0  0  0  0  0  0  0  0  0
   -2.9420   24.6440  -29.3370 C   0  0  0  0  0  0  0  0  0  0  0  0
   -3.7750   24.6970  -30.3980 N   0  0  0  0  0  0  0  0  0  0  0  0
   -4.9090   23.9700  -30.1950 C   0  0  0  0  0  0  0  0  0  0  0  0
   -5.9490   23.8670  -31.2360 C   0  0  0  0  0  0  0  0  0  0  0  0
   -5.6480   24.1430  -32.4280 O   0  0  0  0  0  0  0  0  0  0  0  0
   -7.2770   23.4130  -30.9480 N   0  0  0  0  0  0  0  0  0  0  0  0
   -7.9130   22.2540  -31.5050 C   0  0  0  0  0  0  0  0  0  0  0  0
   -9.3110   22.1590  -31.6080 C   0  0  0  0  0  0  0  0  0  0  0  0
   -9.8980   21.0250  -32.1710 C   0  0  0  0  0  0  0  0  0  0  0  0
   -9.0990   19.9840  -32.6500 C   0  0  0  0  0  0  0  0  0  0  0  0
   -7.6980   20.0720  -32.5750 C   0  0  0  0  0  0  0  0  0  0  0  0
   -6.8500   18.9750  -33.0900 C   0  0  0  0  0  0  0  0  0  0  0  0
   -6.7520   17.7630  -32.5050 N   0  0  0  0  0  0  0  0  0  0  0  0
   -5.9230   17.0970  -33.2480 O   0  0  0  0  0  0  0  0  0  0  0  0
   -5.5270   17.8490  -34.2450 C   0  0  0  0  0  0  0  0  0  0  0  0
   -4.5500   17.4180  -35.2840 C   0  0  0  0  0  0  0  0  0  0  0  0
   -6.0830   19.0730  -34.1980 N   0  0  0  0  0  0  0  0  0  0  0  0
   -7.1140   21.2180  -32.0070 C   0  0  0  0  0  0  0  0  0  0  0  0
   -4.9730   23.3150  -28.9630 C   0  0  0  0  0  0  0  0  0  0  0  0
   -3.5740   23.6790  -28.1050 S   0  0  0  0  0  0  0  0  0  0  0  0
   -0.8820   25.4267  -26.1450 H   0  0  0  0  0  0  0  0  0  0  0  0
   -0.5562   26.9792  -26.9877 H   0  0  0  0  0  0  0  0  0  0  0  0
   -2.2141   26.2880  -26.9877 H   0  0  0  0  0  0  0  0  0  0  0  0
   -9.9448   22.9810  -31.2438 H   0  0  0  0  0  0  0  0  0  0  0  0
  -10.9934   20.9506  -32.2378 H   0  0  0  0  0  0  0  0  0  0  0  0
   -9.5685   19.0909  -33.0881 H   0  0  0  0  0  0  0  0  0  0  0  0
   -3.6479   17.0200  -34.7964 H   0  0  0  0  0  0  0  0  0  0  0  0
   -5.0029   16.6361  -35.9114 H   0  0  0  0  0  0  0  0  0  0  0  0
   -4.2779   18.2796  -35.9114 H   0  0  0  0  0  0  0  0  0  0  0  0
   -6.0184   21.3022  -31.9562 H   0  0  0  0  0  0  0  0  0  0  0  0
   -5.7955   22.6729  -28.6149 H   0  0  0  0  0  0  0  0  0  0  0  0
  1  2  1  0
  2  3  2  0
  2  4  1  0
  4  5  2  3
  5  6  1  0
  6  7  1  0
  7  8  1  0
  8  9  2  0
  8 10  1  0
 10 11  1  0
 11 12  2  0
 12 13  1  0
 13 14  2  0
 14 15  1  0
 15 16  1  0
 16 17  2  0
 17 18  1  0
 18 19  1  0
 19 20  1  0
 19 21  2  0
 15 22  2  0
  7 23  2  0
 23 24  1  0
 24  5  1  0
 22 11  1  0
 21 16  1  0
  1 25  1  0
  1 26  1  0
  1 27  1  0
 12 28  1  0
 13 29  1  0
 14 30  1  0
 20 31  1  0
 20 32  1  0
 20 33  1  0
 22 34  1  0
 23 35  1  0
M  CHG  2   6  -1  10  -1
M  END
>  <UniqueID>  (34) 
32

>  <SMILES>  (34) 
CC(=O)N=c1[n-]c(C(=O)[N-]c2cccc(-c3noc(C)n3)c2)cs1

>  <Energy>  (34) 
106.17962814968121

>  <Genealogy>  (34) 
CC(=O)N=c1[n-]c(C(=O)[N-]c2cccc(-c3noc(C)n3)c2)cs1 (protonated)
CC(=O)N=c1[n-]c(C(=O)[N-]c2cccc(-c3noc(C)n3)c2)cs1 (3D coordinates assigned)
CC(=O)N=c1[n-]c(C(=O)[N-]c2cccc(-c3noc(C)n3)c2)cs1 (optimized conformer: 106.17962814968121 kcal/mol)

>  <smiles>  (34) 
CC(=O)N=c1[nH]c(C(=O)Nc2cccc(-c3noc(C)n3)c2)cs1

>  <score_type>  (34) 
oracle

>  <origin>  (34) 
adgpu

>  <m_score__min__energy>  (34) 
-10.91

>  <m_primary>  (34) 
energy

$$$$
34:0
     RDKit          3D

 36 38  0  0  0  0  0  0  0  0999 V2000
   -6.1890   17.6220  -34.1470 C   0  0  0  0  0  0  0  0  0  0  0  0
   -6.1500   18.9440  -33.4400 C   0  0  0  0  0  0  0  0  0  0  0  0
   -5.0710   19.7540  -33.6120 N   0  0  0  0  0  0  0  0  0  0  0  0
   -4.9770   20.9620  -33.0000 C   0  0  0  0  0  0  0  0  0  0  0  0
   -6.0180   21.4010  -32.1650 C   0  0  0  0  0  0  0  0  0  0  0  0
   -5.9720   22.7110  -31.4670 C   0  0  0  0  0  0  0  0  0  0  0  0
   -7.1700   23.3390  -31.0820 C   0  0  0  0  0  0  0  0  0  0  0  0
   -7.1450   24.5720  -30.4260 C   0  0  0  0  0  0  0  0  0  0  0  0
   -5.9280   25.2020  -30.1610 C   0  0  0  0  0  0  0  0  0  0  0  0
   -4.7260   24.6140  -30.5690 C   0  0  0  0  0  0  0  0  0  0  0  0
   -3.4930   25.2870  -30.2780 N   0  0  0  0  0  0  0  0  0  0  0  0
   -2.5060   24.8620  -29.3290 C   0  0  0  0  0  0  0  0  0  0  0  0
   -1.6140   25.6780  -28.9770 O   0  0  0  0  0  0  0  0  0  0  0  0
   -2.4700   23.4830  -28.8060 C   0  0  0  0  0  0  0  0  0  0  0  0
   -1.4800   22.5430  -29.0730 C   0  0  0  0  0  0  0  0  0  0  0  0
   -1.7230   21.2970  -28.4820 C   0  0  0  0  0  0  0  0  0  0  0  0
   -2.9070   21.2430  -27.7590 C   0  0  0  0  0  0  0  0  0  0  0  0
   -3.6520   22.7480  -27.8580 S   0  0  0  0  0  0  0  0  0  0  0  0
   -4.7490   23.3590  -31.2020 C   0  0  0  0  0  0  0  0  0  0  0  0
   -7.0910   20.5820  -31.9850 N   0  0  0  0  0  0  0  0  0  0  0  0
   -7.1930   19.3710  -32.5940 C   0  0  0  0  0  0  0  0  0  0  0  0
   -8.4110   18.5320  -32.3470 C   0  0  0  0  0  0  0  0  0  0  0  0
   -6.2130   16.8101  -33.4052 H   0  0  0  0  0  0  0  0  0  0  0  0
   -7.0891   17.5696  -34.7772 H   0  0  0  0  0  0  0  0  0  0  0  0
   -5.2936   17.5166  -34.7772 H   0  0  0  0  0  0  0  0  0  0  0  0
   -4.0904   21.5939  -33.1570 H   0  0  0  0  0  0  0  0  0  0  0  0
   -8.1340   22.8556  -31.2991 H   0  0  0  0  0  0  0  0  0  0  0  0
   -8.0874   25.0480  -30.1173 H   0  0  0  0  0  0  0  0  0  0  0  0
   -5.9140   26.1648  -29.6292 H   0  0  0  0  0  0  0  0  0  0  0  0
   -0.5935   22.7574  -29.6879 H   0  0  0  0  0  0  0  0  0  0  0  0
   -1.0395   20.4408  -28.5813 H   0  0  0  0  0  0  0  0  0  0  0  0
   -3.2915   20.3674  -27.2154 H   0  0  0  0  0  0  0  0  0  0  0  0
   -3.8034   22.8783  -31.4932 H   0  0  0  0  0  0  0  0  0  0  0  0
   -8.5681   18.4238  -31.2637 H   0  0  0  0  0  0  0  0  0  0  0  0
   -9.2887   19.0180  -32.7981 H   0  0  0  0  0  0  0  0  0  0  0  0
   -8.2697   17.5387  -32.7981 H   0  0  0  0  0  0  0  0  0  0  0  0
  1  2  1  0
  2  3  2  0
  3  4  1  0
  4  5  2  0
  5  6  1  0
  6  7  2  0
  7  8  1  0
  8  9  2  0
  9 10  1  0
 10 11  1  0
 11 12  1  0
 12 13  2  0
 12 14  1  0
 14 15  2  0
 15 16  1  0
 16 17  2  0
 17 18  1  0
 10 19  2  0
  5 20  1  0
 20 21  2  0
 21 22  1  0
 21  2  1  0
 19  6  1  0
 18 14  1  0
  1 23  1  0
  1 24  1  0
  1 25  1  0
  4 26  1  0
  7 27  1  0
  8 28  1  0
  9 29  1  0
 15 30  1  0
 16 31  1  0
 17 32  1  0
 19 33  1  0
 22 34  1  0
 22 35  1  0
 22 36  1  0
M  CHG  1  11  -1
M  END
>  <UniqueID>  (35) 
33

>  <SMILES>  (35) 
Cc1ncc(-c2cccc([N-]C(=O)c3cccs3)c2)nc1C

>  <Energy>  (35) 
73.7350400965428

>  <Genealogy>  (35) 
Cc1ncc(-c2cccc([N-]C(=O)c3cccs3)c2)nc1C (protonated)
Cc1ncc(-c2cccc([N-]C(=O)c3cccs3)c2)nc1C (3D coordinates assigned)
Cc1ncc(-c2cccc([N-]C(=O)c3cccs3)c2)nc1C (optimized conformer: 73.7350400965428 kcal/mol)

>  <smiles>  (35) 
Cc1ncc(-c2cccc(NC(=O)c3cccs3)c2)nc1C

>  <score_type>  (35) 
oracle

>  <origin>  (35) 
adgpu

>  <m_score__min__energy>  (35) 
-10.26

>  <m_primary>  (35) 
energy

$$$$
35:0
     RDKit          3D

 28 29  0  0  0  0  0  0  0  0999 V2000
   -3.2830   23.4250  -29.3680 O   0  0  0  0  0  0  0  0  0  0  0  0
   -3.0130   24.6120  -29.6910 C   0  0  0  0  0  0  0  0  0  0  0  0
   -3.8620   25.3220  -30.5990 N   0  0  0  0  0  0  0  0  0  0  0  0
   -5.3160   25.3200  -30.5140 C   0  0  0  0  0  0  0  0  0  0  0  0
   -5.8650   24.0710  -31.1380 C   0  0  0  0  0  0  0  0  0  0  0  0
   -7.2110   23.7130  -30.9740 C   0  0  0  0  0  0  0  0  0  0  0  0
   -7.6790   22.5280  -31.5460 C   0  0  0  0  0  0  0  0  0  0  0  0
   -6.8050   21.7120  -32.2680 C   0  0  0  0  0  0  0  0  0  0  0  0
   -5.4700   22.0970  -32.4050 C   0  0  0  0  0  0  0  0  0  0  0  0
   -5.0330   23.2540  -31.8420 N   0  0  0  0  0  0  0  0  0  0  0  0
   -1.8840   25.2560  -29.0910 N   0  0  0  0  0  0  0  0  0  0  0  0
   -1.0570   24.7090  -28.0520 C   0  0  0  0  0  0  0  0  0  0  0  0
    0.2130   24.1710  -28.3320 C   0  0  0  0  0  0  0  0  0  0  0  0
    0.9870   23.6190  -27.3070 C   0  0  0  0  0  0  0  0  0  0  0  0
    0.4970   23.5860  -26.0000 C   0  0  0  0  0  0  0  0  0  0  0  0
   -0.7730   24.0930  -25.7160 C   0  0  0  0  0  0  0  0  0  0  0  0
   -1.5550   24.6460  -26.7390 C   0  0  0  0  0  0  0  0  0  0  0  0
   -3.1510   25.2710  -26.3490 Cl  0  0  0  0  0  0  0  0  0  0  0  0
   -5.6191   25.3629  -29.4575 H   0  0  0  0  0  0  0  0  0  0  0  0
   -5.7102   26.1952  -31.0512 H   0  0  0  0  0  0  0  0  0  0  0  0
   -7.8916   24.3593  -30.4004 H   0  0  0  0  0  0  0  0  0  0  0  0
   -8.7335   22.2379  -31.4282 H   0  0  0  0  0  0  0  0  0  0  0  0
   -7.1642   20.7773  -32.7232 H   0  0  0  0  0  0  0  0  0  0  0  0
   -4.7708   21.4627  -32.9696 H   0  0  0  0  0  0  0  0  0  0  0  0
    0.5984   24.1849  -29.3622 H   0  0  0  0  0  0  0  0  0  0  0  0
    1.9834   23.2101  -27.5305 H   0  0  0  0  0  0  0  0  0  0  0  0
    1.1118   23.1603  -25.1932 H   0  0  0  0  0  0  0  0  0  0  0  0
   -1.1603   24.0582  -24.6870 H   0  0  0  0  0  0  0  0  0  0  0  0
  1  2  2  0
  2  3  1  0
  3  4  1  0
  4  5  1  0
  5  6  2  0
  6  7  1  0
  7  8  2  0
  8  9  1  0
  9 10  2  0
  2 11  1  0
 11 12  1  0
 12 13  2  0
 13 14  1  0
 14 15  2  0
 15 16  1  0
 16 17  2  0
 17 18  1  0
 10  5  1  0
 17 12  1  0
  4 19  1  0
  4 20  1  0
  6 21  1  0
  7 22  1  0
  8 23  1  0
  9 24  1  0
 13 25  1  0
 14 26  1  0
 15 27  1  0
 16 28  1  0
M  CHG  2   3  -1  11  -1
M  END
>  <UniqueID>  (36) 
34

>  <SMILES>  (36) 
O=C([N-]Cc1ccccn1)[N-]c1ccccc1Cl

>  <Energy>  (36) 
30.41938506148355

>  <Genealogy>  (36) 
O=C([N-]Cc1ccccn1)[N-]c1ccccc1Cl (protonated)
O=C([N-]Cc1ccccn1)[N-]c1ccccc1Cl (3D coordinates assigned)
O=C([N-]Cc1ccccn1)[N-]c1ccccc1Cl (optimized conformer: 30.41938506148355 kcal/mol)

>  <smiles>  (36) 
O=C(NCc1ccccn1)Nc1ccccc1Cl

>  <score_type>  (36) 
oracle

>  <origin>  (36) 
adgpu

>  <m_score__min__energy>  (36) 
-9.8699999999999992

>  <m_primary>  (36) 
energy

$$$$
36:0
     RDKit          3D

 44 47  0  0  0  0  0  0  0  0999 V2000
   -1.0690   21.7690  -26.3750 C   0  0  0  0  0  0  0  0  0  0  0  0
   -1.1250   22.7770  -27.3790 O   0  0  0  0  0  0  0  0  0  0  0  0
   -2.0240   22.7740  -28.4560 C   0  0  0  0  0  0  0  0  0  0  0  0
   -2.4780   21.5860  -29.0540 C   0  0  0  0  0  0  0  0  0  0  0  0
   -3.3610   21.6360  -30.1330 C   0  0  0  0  0  0  0  0  0  0  0  0
   -3.7930   22.8650  -30.6460 C   0  0  0  0  0  0  0  0  0  0  0  0
   -4.6560   22.8710  -31.7960 N   0  0  0  0  0  0  0  0  0  0  0  0
   -5.4530   21.7490  -32.2120 C   0  0  0  0  0  0  0  0  0  0  0  0
   -5.0620   20.6140  -32.9340 C   0  0  0  0  0  0  0  0  0  0  0  0
   -3.6990   20.2350  -33.3490 C   0  0  0  0  0  0  0  0  0  0  0  0
   -3.4170   18.8990  -33.6700 C   0  0  0  0  0  0  0  0  0  0  0  0
   -2.1350   18.5330  -34.0920 C   0  0  0  0  0  0  0  0  0  0  0  0
   -1.1240   19.4930  -34.1810 C   0  0  0  0  0  0  0  0  0  0  0  0
    0.1160   19.1340  -34.5950 F   0  0  0  0  0  0  0  0  0  0  0  0
   -1.3910   20.8220  -33.8350 C   0  0  0  0  0  0  0  0  0  0  0  0
   -0.4100   21.7540  -33.9110 F   0  0  0  0  0  0  0  0  0  0  0  0
   -2.6710   21.1900  -33.4100 C   0  0  0  0  0  0  0  0  0  0  0  0
   -6.1260   19.8770  -33.2090 O   0  0  0  0  0  0  0  0  0  0  0  0
   -7.1710   20.4710  -32.6810 C   0  0  0  0  0  0  0  0  0  0  0  0
   -8.5000   20.0640  -32.7180 C   0  0  0  0  0  0  0  0  0  0  0  0
   -9.4330   20.8560  -32.1100 N   0  0  0  0  0  0  0  0  0  0  0  0
   -9.0950   22.0240  -31.4760 C   0  0  0  0  0  0  0  0  0  0  0  0
   -7.7540   22.4480  -31.4320 C   0  0  0  0  0  0  0  0  0  0  0  0
   -6.8130   21.6270  -32.0450 C   0  0  0  0  0  0  0  0  0  0  0  0
   -3.3800   24.0640  -30.0260 C   0  0  0  0  0  0  0  0  0  0  0  0
   -3.8820   25.2860  -30.4990 O   0  0  0  0  0  0  0  0  0  0  0  0
   -5.2540   25.6640  -30.4710 C   0  0  0  0  0  0  0  0  0  0  0  0
   -2.4820   24.0030  -28.9410 C   0  0  0  0  0  0  0  0  0  0  0  0
   -1.0951   22.2396  -25.3811 H   0  0  0  0  0  0  0  0  0  0  0  0
   -1.9311   21.0945  -26.4841 H   0  0  0  0  0  0  0  0  0  0  0  0
   -0.1375   21.1941  -26.4841 H   0  0  0  0  0  0  0  0  0  0  0  0
   -2.1360   20.6135  -28.6701 H   0  0  0  0  0  0  0  0  0  0  0  0
   -3.7215   20.7003  -30.5853 H   0  0  0  0  0  0  0  0  0  0  0  0
   -4.7230   23.7490  -32.3570 H   0  0  0  0  0  0  0  0  0  0  0  0
   -4.2064   18.1371  -33.5896 H   0  0  0  0  0  0  0  0  0  0  0  0
   -1.9220   17.4863  -34.3546 H   0  0  0  0  0  0  0  0  0  0  0  0
   -2.8739   22.2321  -33.1221 H   0  0  0  0  0  0  0  0  0  0  0  0
   -8.7921   19.1311  -33.2223 H   0  0  0  0  0  0  0  0  0  0  0  0
   -9.8769   22.6331  -30.9989 H   0  0  0  0  0  0  0  0  0  0  0  0
   -7.4631   23.3856  -30.9357 H   0  0  0  0  0  0  0  0  0  0  0  0
   -5.5878   25.7560  -29.4269 H   0  0  0  0  0  0  0  0  0  0  0  0
   -5.3787   26.6300  -30.9822 H   0  0  0  0  0  0  0  0  0  0  0  0
   -5.8558   24.8982  -30.9822 H   0  0  0  0  0  0  0  0  0  0  0  0
   -2.1369   24.9349  -28.4694 H   0  0  0  0  0  0  0  0  0  0  0  0
  1  2  1  0
  2  3  1  0
  3  4  2  0
  4  5  1  0
  5  6  2  0
  6  7  1  0
  7  8  1  0
  8  9  2  0
  9 10  1  0
 10 11  2  0
 11 12  1  0
 12 13  2  0
 13 14  1  0
 13 15  1  0
 15 16  1  0
 15 17  2  0
  9 18  1  0
 18 19  1  0
 19 20  2  0
 20 21  1  0
 21 22  2  0
 22 23  1  0
 23 24  2  0
  6 25  1  0
 25 26  1  0
 26 27  1  0
 25 28  2  0
 28  3  1  0
 24  8  1  0
 17 10  1  0
 24 19  1  0
  1 29  1  0
  1 30  1  0
  1 31  1  0
  4 32  1  0
  5 33  1  0
  7 34  1  0
 11 35  1  0
 12 36  1  0
 17 37  1  0
 20 38  1  0
 22 39  1  0
 23 40  1  0
 27 41  1  0
 27 42  1  0
 27 43  1  0
 28 44  1  0
M  END
>  <UniqueID>  (37) 
35

>  <SMILES>  (37) 
COc1ccc(Nc2c(-c3ccc(F)c(F)c3)oc3cnccc23)c(OC)c1

>  <Energy>  (37) 
92.2819940957743

>  <Genealogy>  (37) 
COc1ccc(Nc2c(-c3ccc(F)c(F)c3)oc3cnccc23)c(OC)c1 (3D coordinates assigned)
COc1ccc(Nc2c(-c3ccc(F)c(F)c3)oc3cnccc23)c(OC)c1 (optimized conformer: 92.2819940957743 kcal/mol)

>  <smiles>  (37) 
COc1ccc(Nc2c(-c3ccc(F)c(F)c3)oc3cnccc23)c(OC)c1

>  <score_type>  (37) 
oracle

>  <origin>  (37) 
adgpu

>  <m_score__min__energy>  (37) 
-8.0099999999999998

>  <m_primary>  (37) 
energy

$$$$
37:0
     RDKit          3D

 50 53  0  0  0  0  0  0  0  0999 V2000
   -8.6610   18.5600  -31.7100 C   0  0  0  0  0  0  0  0  0  0  0  0
   -9.0540   19.9010  -31.9820 O   0  0  0  0  0  0  0  0  0  0  0  0
   -8.1780   20.9960  -31.9840 C   0  0  0  0  0  0  0  0  0  0  0  0
   -8.5910   22.2930  -31.6230 C   0  0  0  0  0  0  0  0  0  0  0  0
   -7.6730   23.3470  -31.6200 C   0  0  0  0  0  0  0  0  0  0  0  0
   -6.3280   23.1170  -31.9550 C   0  0  0  0  0  0  0  0  0  0  0  0
   -5.3620   24.1770  -31.9470 N   0  0  0  0  0  0  0  0  0  0  0  0
   -4.7480   24.7540  -30.7850 C   0  0  0  0  0  0  0  0  0  0  0  0
   -5.0760   25.9210  -30.4450 O   0  0  0  0  0  0  0  0  0  0  0  0
   -3.6880   24.0540  -30.0340 C   0  0  0  0  0  0  0  0  0  0  0  0
   -3.6680   22.7080  -29.7160 C   0  0  0  0  0  0  0  0  0  0  0  0
   -2.4990   22.5440  -28.9980 C   0  0  0  0  0  0  0  0  0  0  0  0
   -2.0140   21.2610  -28.4540 C   0  0  0  0  0  0  0  0  0  0  0  0
   -0.8080   20.7010  -28.9070 C   0  0  0  0  0  0  0  0  0  0  0  0
   -0.3430   19.4970  -28.3690 C   0  0  0  0  0  0  0  0  0  0  0  0
   -1.0680   18.8490  -27.3630 C   0  0  0  0  0  0  0  0  0  0  0  0
   -0.5950   17.6470  -26.8390 O   0  0  0  0  0  0  0  0  0  0  0  0
   -2.2590   19.4160  -26.8890 C   0  0  0  0  0  0  0  0  0  0  0  0
   -2.7260   20.6200  -27.4280 C   0  0  0  0  0  0  0  0  0  0  0  0
   -1.8720   23.7400  -28.9020 N   0  0  0  0  0  0  0  0  0  0  0  0
   -0.5030   23.9880  -28.4360 C   0  0  0  0  0  0  0  0  0  0  0  0
   -0.4610   24.1000  -26.9340 C   0  0  0  0  0  0  0  0  0  0  0  0
   -0.0600   23.0000  -26.1600 C   0  0  0  0  0  0  0  0  0  0  0  0
   -0.0750   23.0810  -24.7640 C   0  0  0  0  0  0  0  0  0  0  0  0
   -0.4950   24.2540  -24.1340 C   0  0  0  0  0  0  0  0  0  0  0  0
   -0.9050   25.3500  -24.8970 C   0  0  0  0  0  0  0  0  0  0  0  0
   -0.8950   25.2740  -26.2940 C   0  0  0  0  0  0  0  0  0  0  0  0
   -2.5890   24.6530  -29.5380 N   0  0  0  0  0  0  0  0  0  0  0  0
   -5.9290   21.8350  -32.3500 C   0  0  0  0  0  0  0  0  0  0  0  0
   -6.8460   20.7810  -32.3570 C   0  0  0  0  0  0  0  0  0  0  0  0
   -8.6155   18.4048  -30.6220 H   0  0  0  0  0  0  0  0  0  0  0  0
   -9.3938   17.8669  -32.1489 H   0  0  0  0  0  0  0  0  0  0  0  0
   -7.6700   18.3721  -32.1489 H   0  0  0  0  0  0  0  0  0  0  0  0
   -9.6386   22.4771  -31.3427 H   0  0  0  0  0  0  0  0  0  0  0  0
   -8.0051   24.3614  -31.3541 H   0  0  0  0  0  0  0  0  0  0  0  0
   -4.4135   21.9420  -29.9758 H   0  0  0  0  0  0  0  0  0  0  0  0
   -0.2267   21.2120  -29.6886 H   0  0  0  0  0  0  0  0  0  0  0  0
    0.5957   19.0580  -28.7378 H   0  0  0  0  0  0  0  0  0  0  0  0
   -1.2070   17.0080  -26.3460 H   0  0  0  0  0  0  0  0  0  0  0  0
   -2.8274   18.9139  -26.0922 H   0  0  0  0  0  0  0  0  0  0  0  0
   -3.6558   21.0664  -27.0457 H   0  0  0  0  0  0  0  0  0  0  0  0
    0.1424   23.1558  -28.7538 H   0  0  0  0  0  0  0  0  0  0  0  0
   -0.1489   24.9346  -28.8701 H   0  0  0  0  0  0  0  0  0  0  0  0
    0.2668   22.0723  -26.6525 H   0  0  0  0  0  0  0  0  0  0  0  0
    0.2449   22.2185  -24.1609 H   0  0  0  0  0  0  0  0  0  0  0  0
   -0.5031   24.3152  -23.0357 H   0  0  0  0  0  0  0  0  0  0  0  0
   -1.2359   26.2734  -24.3991 H   0  0  0  0  0  0  0  0  0  0  0  0
   -1.2274   26.1347  -26.8928 H   0  0  0  0  0  0  0  0  0  0  0  0
   -4.8878   21.6563  -32.6566 H   0  0  0  0  0  0  0  0  0  0  0  0
   -6.5189   19.7748  -32.6578 H   0  0  0  0  0  0  0  0  0  0  0  0
  1  2  1  0
  2  3  1  0
  3  4  2  0
  4  5  1  0
  5  6  2  0
  6  7  1  0
  7  8  1  0
  8  9  2  0
  8 10  1  0
 10 11  1  0
 11 12  2  0
 12 13  1  0
 13 14  2  0
 14 15  1  0
 15 16  2  0
 16 17  1  0
 16 18  1  0
 18 19  2  0
 12 20  1  0
 20 21  1  0
 21 22  1  0
 22 23  2  0
 23 24  1  0
 24 25  2  0
 25 26  1  0
 26 27  2  0
 20 28  1  0
  6 29  1  0
 29 30  2  0
 30  3  1  0
 28 10  2  0
 19 13  1  0
 27 22  1  0
  1 31  1  0
  1 32  1  0
  1 33  1  0
  4 34  1  0
  5 35  1  0
 11 36  1  0
 14 37  1  0
 15 38  1  0
 17 39  1  0
 18 40  1  0
 19 41  1  0
 21 42  1  0
 21 43  1  0
 23 44  1  0
 24 45  1  0
 25 46  1  0
 26 47  1  0
 27 48  1  0
 29 49  1  0
 30 50  1  0
M  CHG  1   7  -1
M  END
>  <UniqueID>  (38) 
36

>  <SMILES>  (38) 
COc1ccc([N-]C(=O)c2cc(-c3ccc(O)cc3)n(Cc3ccccc3)n2)cc1

>  <Energy>  (38) 
90.837962754251

>  <Genealogy>  (38) 
COc1ccc([N-]C(=O)c2cc(-c3ccc(O)cc3)n(Cc3ccccc3)n2)cc1 (protonated)
COc1ccc([N-]C(=O)c2cc(-c3ccc(O)cc3)n(Cc3ccccc3)n2)cc1 (3D coordinates assigned)
COc1ccc([N-]C(=O)c2cc(-c3ccc(O)cc3)n(Cc3ccccc3)n2)cc1 (optimized conformer: 90.837962754251 kcal/mol)

>  <smiles>  (38) 
COc1ccc(NC(=O)c2cc(-c3ccc(O)cc3)n(Cc3ccccc3)n2)cc1

>  <score_type>  (38) 
oracle

>  <origin>  (38) 
adgpu

>  <m_score__min__energy>  (38) 
-9.8599999999999994

>  <m_primary>  (38) 
energy

$$$$
38:0
     RDKit          3D

 45 47  0  0  0  0  0  0  0  0999 V2000
   -8.7960   23.4230  -32.0260 C   0  0  0  0  0  0  0  0  0  0  0  0
   -8.0270   23.0840  -30.8760 O   0  0  0  0  0  0  0  0  0  0  0  0
   -6.7410   23.5790  -30.6090 C   0  0  0  0  0  0  0  0  0  0  0  0
   -6.2830   24.8070  -31.1210 C   0  0  0  0  0  0  0  0  0  0  0  0
   -4.9940   25.2600  -30.8220 C   0  0  0  0  0  0  0  0  0  0  0  0
   -4.1410   24.4940  -30.0080 C   0  0  0  0  0  0  0  0  0  0  0  0
   -2.8120   24.9200  -29.6760 N   0  0  0  0  0  0  0  0  0  0  0  0
   -1.5470   23.8990  -29.0730 S   0  0  0  0  0  0  0  0  0  0  0  0
   -0.2690   24.6800  -28.9690 O   0  0  0  0  0  0  0  0  0  0  0  0
   -1.9200   23.4120  -27.7020 O   0  0  0  0  0  0  0  0  0  0  0  0
   -1.3580   22.5110  -30.1410 C   0  0  0  0  0  0  0  0  0  0  0  0
   -0.4890   21.4750  -29.7820 C   0  0  0  0  0  0  0  0  0  0  0  0
   -0.3930   20.3320  -30.5780 C   0  0  0  0  0  0  0  0  0  0  0  0
   -1.1780   20.2080  -31.7270 C   0  0  0  0  0  0  0  0  0  0  0  0
   -2.0550   21.2440  -32.1030 C   0  0  0  0  0  0  0  0  0  0  0  0
   -2.9570   21.1130  -33.2160 N   0  0  0  0  0  0  0  0  0  0  0  0
   -3.9120   20.0540  -33.3650 C   0  0  0  0  0  0  0  0  0  0  0  0
   -3.5520   18.8550  -33.2370 O   0  0  0  0  0  0  0  0  0  0  0  0
   -5.2590   20.3440  -33.7550 N   0  0  0  0  0  0  0  0  0  0  0  0
   -6.4290   19.7810  -33.1440 C   0  0  0  0  0  0  0  0  0  0  0  0
   -6.5020   18.3940  -32.9680 C   0  0  0  0  0  0  0  0  0  0  0  0
   -7.6210   17.8170  -32.3540 C   0  0  0  0  0  0  0  0  0  0  0  0
   -8.6640   18.6280  -31.8950 C   0  0  0  0  0  0  0  0  0  0  0  0
   -8.5860   20.0160  -32.0410 C   0  0  0  0  0  0  0  0  0  0  0  0
   -7.4700   20.5920  -32.6540 C   0  0  0  0  0  0  0  0  0  0  0  0
   -2.1250   22.3990  -31.3090 C   0  0  0  0  0  0  0  0  0  0  0  0
   -4.6010   23.2730  -29.4990 C   0  0  0  0  0  0  0  0  0  0  0  0
   -5.8890   22.8180  -29.7990 C   0  0  0  0  0  0  0  0  0  0  0  0
   -9.7601   23.8480  -31.7101 H   0  0  0  0  0  0  0  0  0  0  0  0
   -8.2486   24.1632  -32.6280 H   0  0  0  0  0  0  0  0  0  0  0  0
   -8.9732   22.5196  -32.6280 H   0  0  0  0  0  0  0  0  0  0  0  0
   -6.9420   25.4137  -31.7595 H   0  0  0  0  0  0  0  0  0  0  0  0
   -4.6453   26.2218  -31.2263 H   0  0  0  0  0  0  0  0  0  0  0  0
    0.1202   21.5612  -28.8702 H   0  0  0  0  0  0  0  0  0  0  0  0
    0.3028   19.5267  -30.2996 H   0  0  0  0  0  0  0  0  0  0  0  0
   -1.1109   19.2975  -32.3406 H   0  0  0  0  0  0  0  0  0  0  0  0
   -3.0290   21.9090  -33.8870 H   0  0  0  0  0  0  0  0  0  0  0  0
   -5.6766   17.7542  -33.3136 H   0  0  0  0  0  0  0  0  0  0  0  0
   -7.6795   16.7253  -32.2327 H   0  0  0  0  0  0  0  0  0  0  0  0
   -9.5456   18.1736  -31.4192 H   0  0  0  0  0  0  0  0  0  0  0  0
   -9.4028   20.6546  -31.6735 H   0  0  0  0  0  0  0  0  0  0  0  0
   -7.4047   21.6855  -32.7542 H   0  0  0  0  0  0  0  0  0  0  0  0
   -2.7883   23.2247  -31.6061 H   0  0  0  0  0  0  0  0  0  0  0  0
   -3.9439   22.6669  -28.8580 H   0  0  0  0  0  0  0  0  0  0  0  0
   -6.2354   21.8550  -29.3956 H   0  0  0  0  0  0  0  0  0  0  0  0
  1  2  1  0
  2  3  1  0
  3  4  2  0
  4  5  1  0
  5  6  2  0
  6  7  1  0
  7  8  1  0
  8  9  2  0
  8 10  2  0
  8 11  1  0
 11 12  2  0
 12 13  1  0
 13 14  2  0
 14 15  1  0
 15 16  1  0
 16 17  1  0
 17 18  2  0
 17 19  1  0
 19 20  1  0
 20 21  2  0
 21 22  1  0
 22 23  2  0
 23 24  1  0
 24 25  2  0
 15 26  2  0
  6 27  1  0
 27 28  2  0
 28  3  1  0
 26 11  1  0
 25 20  1  0
  1 29  1  0
  1 30  1  0
  1 31  1  0
  4 32  1  0
  5 33  1  0
 12 34  1  0
 13 35  1  0
 14 36  1  0
 16 37  1  0
 21 38  1  0
 22 39  1  0
 23 40  1  0
 24 41  1  0
 25 42  1  0
 26 43  1  0
 27 44  1  0
 28 45  1  0
M  CHG  2   7  -1  19  -1
M  END
>  <UniqueID>  (39) 
37

>  <SMILES>  (39) 
COc1ccc([N-]S(=O)(=O)c2cccc(NC(=O)[N-]c3ccccc3)c2)cc1

>  <Energy>  (39) 
57.206423827051836

>  <Genealogy>  (39) 
COc1ccc([N-]S(=O)(=O)c2cccc(NC(=O)[N-]c3ccccc3)c2)cc1 (protonated)
COc1ccc([N-]S(=O)(=O)c2cccc(NC(=O)[N-]c3ccccc3)c2)cc1 (3D coordinates assigned)
COc1ccc([N-]S(=O)(=O)c2cccc(NC(=O)[N-]c3ccccc3)c2)cc1 (optimized conformer: 57.206423827051836 kcal/mol)

>  <smiles>  (39) 
COc1ccc(NS(=O)(=O)c2cccc(NC(=O)Nc3ccccc3)c2)cc1

>  <score_type>  (39) 
oracle

>  <origin>  (39) 
adgpu

>  <m_score__min__energy>  (39) 
-11.06

>  <m_primary>  (39) 
energy

$$$$
39:0
     RDKit          3D

 36 37  0  0  0  0  0  0  0  0999 V2000
   -5.2510   14.0210  -33.4560 C   0  0  0  0  0  0  0  0  0  0  0  0
   -4.8890   15.3560  -33.0080 N   0  0  0  0  0  0  0  0  0  0  0  0
   -3.4410   15.4000  -32.9490 C   0  0  0  0  0  0  0  0  0  0  0  0
   -5.4930   16.5410  -34.1180 S   0  0  0  0  0  0  0  0  0  0  0  0
   -4.6080   16.6480  -35.3180 O   0  0  0  0  0  0  0  0  0  0  0  0
   -6.8530   16.0250  -34.5760 O   0  0  0  0  0  0  0  0  0  0  0  0
   -5.7440   18.0880  -33.3430 C   0  0  0  0  0  0  0  0  0  0  0  0
   -6.4810   18.2130  -32.1850 C   0  0  0  0  0  0  0  0  0  0  0  0
   -6.6760   19.4330  -31.5720 C   0  0  0  0  0  0  0  0  0  0  0  0
   -6.1380   20.6060  -32.0880 C   0  0  0  0  0  0  0  0  0  0  0  0
   -6.3800   21.8220  -31.4150 N   0  0  0  0  0  0  0  0  0  0  0  0
   -5.5830   22.9650  -31.4040 C   0  0  0  0  0  0  0  0  0  0  0  0
   -4.5020   23.0290  -32.0280 O   0  0  0  0  0  0  0  0  0  0  0  0
   -5.9700   24.1650  -30.6520 C   0  0  0  0  0  0  0  0  0  0  0  0
   -7.1670   24.4700  -30.0480 C   0  0  0  0  0  0  0  0  0  0  0  0
   -7.0000   25.6860  -29.4910 N   0  0  0  0  0  0  0  0  0  0  0  0
   -5.7530   26.1210  -29.7370 N   0  0  0  0  0  0  0  0  0  0  0  0
   -5.0960   25.2100  -30.4480 C   0  0  0  0  0  0  0  0  0  0  0  0
   -3.8890   25.3150  -30.8430 N   0  0  0  0  0  0  0  0  0  0  0  0
   -5.4070   20.4660  -33.2410 C   0  0  0  0  0  0  0  0  0  0  0  0
   -5.2020   19.2400  -33.8700 C   0  0  0  0  0  0  0  0  0  0  0  0
   -5.4259   13.3759  -32.5823 H   0  0  0  0  0  0  0  0  0  0  0  0
   -6.1673   14.0736  -34.0623 H   0  0  0  0  0  0  0  0  0  0  0  0
   -4.4336   13.6035  -34.0623 H   0  0  0  0  0  0  0  0  0  0  0  0
   -3.1170   15.4098  -31.8978 H   0  0  0  0  0  0  0  0  0  0  0  0
   -3.0264   14.5140  -33.4522 H   0  0  0  0  0  0  0  0  0  0  0  0
   -3.0810   16.3095  -33.4522 H   0  0  0  0  0  0  0  0  0  0  0  0
   -6.9269   17.3130  -31.7364 H   0  0  0  0  0  0  0  0  0  0  0  0
   -7.2736   19.4789  -30.6496 H   0  0  0  0  0  0  0  0  0  0  0  0
   -7.2850   21.8810  -30.8470 H   0  0  0  0  0  0  0  0  0  0  0  0
   -8.0747   23.8490  -30.0242 H   0  0  0  0  0  0  0  0  0  0  0  0
   -7.7580   26.1960  -28.9480 H   0  0  0  0  0  0  0  0  0  0  0  0
   -5.3460   27.0440  -29.4200 H   0  0  0  0  0  0  0  0  0  0  0  0
   -3.4670   24.5400  -31.3930 H   0  0  0  0  0  0  0  0  0  0  0  0
   -4.9612   21.3656  -33.6904 H   0  0  0  0  0  0  0  0  0  0  0  0
   -4.6043   19.1914  -34.7922 H   0  0  0  0  0  0  0  0  0  0  0  0
  1  2  1  0
  2  3  1  0
  2  4  1  0
  4  5  2  0
  4  6  2  0
  4  7  1  0
  7  8  2  0
  8  9  1  0
  9 10  2  0
 10 11  1  0
 11 12  1  0
 12 13  2  0
 12 14  1  0
 14 15  2  0
 15 16  1  0
 16 17  1  0
 17 18  1  0
 18 19  2  3
 10 20  1  0
 20 21  2  0
 21  7  1  0
 18 14  1  0
  1 22  1  0
  1 23  1  0
  1 24  1  0
  3 25  1  0
  3 26  1  0
  3 27  1  0
  8 28  1  0
  9 29  1  0
 11 30  1  0
 15 31  1  0
 16 32  1  0
 17 33  1  0
 19 34  1  0
 20 35  1  0
 21 36  1  0
M  END
>  <smiles>  (40) 
CN(C)S(=O)(=O)c1ccc(NC(=O)c2c[nH][nH]c2=N)cc1

>  <score_type>  (40) 
oracle

>  <origin>  (40) 
adgpu

>  <m_score__min__energy>  (40) 
-7.1500000000000004

>  <m_primary>  (40) 
energy

$$$$
40:0
     RDKit          3D

 32 33  0  0  0  0  0  0  0  0999 V2000
   -2.4472   25.5210  -24.5499 H   0  0  0  0  0  0  0  0  0  0  0  0
   -1.9920   25.7730  -25.5190 C   0  0  0  0  0  0  0  0  0  0  0  0
   -2.0960   24.8830  -26.5910 C   0  0  0  0  0  0  0  0  0  0  0  0
   -2.6447   23.9380  -26.4647 H   0  0  0  0  0  0  0  0  0  0  0  0
   -1.5070   25.1850  -27.8250 C   0  0  0  0  0  0  0  0  0  0  0  0
   -1.6710   24.2590  -28.9120 N   0  0  0  0  0  0  0  0  0  0  0  0
   -2.7380   24.0880  -29.6420 C   0  0  0  0  0  0  0  0  0  0  0  0
   -3.8270   24.8910  -29.4790 N   0  0  0  0  0  0  0  0  0  0  0  0
   -4.9500   24.7610  -30.2310 C   0  0  0  0  0  0  0  0  0  0  0  0
   -6.1080   25.6800  -30.0020 C   0  0  0  0  0  0  0  0  0  0  0  0
   -6.2675   25.8066  -28.9210 H   0  0  0  0  0  0  0  0  0  0  0  0
   -5.8957   26.6581  -30.4583 H   0  0  0  0  0  0  0  0  0  0  0  0
   -7.0123   25.2511  -30.4583 H   0  0  0  0  0  0  0  0  0  0  0  0
   -5.0080   23.7840  -31.2280 C   0  0  0  0  0  0  0  0  0  0  0  0
   -5.9132   23.6768  -31.8437 H   0  0  0  0  0  0  0  0  0  0  0  0
   -3.9090   22.9410  -31.4410 C   0  0  0  0  0  0  0  0  0  0  0  0
   -3.9750   21.8910  -32.5210 C   0  0  0  0  0  0  0  0  0  0  0  0
   -4.0377   20.8942  -32.0600 H   0  0  0  0  0  0  0  0  0  0  0  0
   -4.8641   22.0627  -33.1455 H   0  0  0  0  0  0  0  0  0  0  0  0
   -3.0714   21.9500  -33.1455 H   0  0  0  0  0  0  0  0  0  0  0  0
   -2.7550   23.0950  -30.6420 C   0  0  0  0  0  0  0  0  0  0  0  0
   -1.6010   22.2430  -30.8430 C   0  0  0  0  0  0  0  0  0  0  0  0
   -0.6790   21.5620  -31.0020 N   0  0  0  0  0  0  0  0  0  0  0  0
   -0.8500   26.4200  -27.9880 C   0  0  0  0  0  0  0  0  0  0  0  0
   -0.4301   26.6898  -28.9683 H   0  0  0  0  0  0  0  0  0  0  0  0
   -0.7270   27.3090  -26.9090 C   0  0  0  0  0  0  0  0  0  0  0  0
   -0.0520   28.6350  -27.0970 C   0  0  0  0  0  0  0  0  0  0  0  0
    0.1720   29.0750  -26.1141 H   0  0  0  0  0  0  0  0  0  0  0  0
    0.8839   28.4938  -27.6574 H   0  0  0  0  0  0  0  0  0  0  0  0
   -0.7169   29.3087  -27.6574 H   0  0  0  0  0  0  0  0  0  0  0  0
   -1.3110   26.9820  -25.6760 C   0  0  0  0  0  0  0  0  0  0  0  0
   -1.2322   27.6805  -24.8299 H   0  0  0  0  0  0  0  0  0  0  0  0
  1  2  1  0
  2  3  2  0
  3  4  1  0
  3  5  1  0
  5  6  1  0
  6  7  2  0
  7  8  1  0
  8  9  1  0
  9 10  1  0
 10 11  1  0
 10 12  1  0
 10 13  1  0
  9 14  2  0
 14 15  1  0
 14 16  1  0
 16 17  1  0
 17 18  1  0
 17 19  1  0
 17 20  1  0
 16 21  2  0
 21 22  1  0
 22 23  3  0
  5 24  2  0
 24 25  1  0
 24 26  1  0
 26 27  1  0
 27 28  1  0
 27 29  1  0
 27 30  1  0
 26 31  2  0
 31 32  1  0
 31  2  1  0
 21  7  1  0
M  CHG  1   8  -1
M  END
>  <UniqueID>  (41) 
38

>  <SMILES>  (41) 
Cc1cccc(/N=c2\[n-]c(C)cc(C)c2C#N)c1

>  <Energy>  (41) 
37.97963843051488

>  <Genealogy>  (41) 
Cc1cccc(N=c2[n-]c(C)cc(C)c2C#N)c1 (protonated)
Cc1cccc(/N=c2\[n-]c(C)cc(C)c2C#N)c1 (cis-trans isomerization)
Cc1cccc(/N=c2\[n-]c(C)cc(C)c2C#N)c1 (3D coordinates assigned)
Cc1cccc(/N=c2\[n-]c(C)cc(C)c2C#N)c1 (optimized conformer: 37.97963843051488 kcal/mol)

>  <smiles>  (41) 
Cc1cccc(N=c2[nH]c(C)cc(C)c2C#N)c1

>  <score_type>  (41) 
oracle

>  <origin>  (41) 
adgpu

>  <m_score__min__energy>  (41) 
-7.2000000000000002

>  <m_primary>  (41) 
energy

$$$$
41:0
     RDKit          3D

 41 44  0  0  0  0  0  0  0  0999 V2000
   -1.1439   20.7853  -29.4212 H   0  0  0  0  0  0  0  0  0  0  0  0
   -1.3900   20.9600  -30.4790 C   0  0  0  0  0  0  0  0  0  0  0  0
   -0.4100   20.5900  -31.7960 S   0  0  0  0  0  0  0  0  0  0  0  0
   -1.5340   21.1460  -32.9250 C   0  0  0  0  0  0  0  0  0  0  0  0
   -1.3910   21.1440  -34.2190 N   0  0  0  0  0  0  0  0  0  0  0  0
   -0.1990   20.7830  -34.9300 C   0  0  0  0  0  0  0  0  0  0  0  0
    0.2300   19.4440  -35.0000 C   0  0  0  0  0  0  0  0  0  0  0  0
   -0.3740   18.6503  -34.5361 H   0  0  0  0  0  0  0  0  0  0  0  0
    1.4210   19.1190  -35.6570 C   0  0  0  0  0  0  0  0  0  0  0  0
    1.7452   18.0698  -35.7211 H   0  0  0  0  0  0  0  0  0  0  0  0
    2.1990   20.1270  -36.2320 C   0  0  0  0  0  0  0  0  0  0  0  0
    3.1299   19.8696  -36.7585 H   0  0  0  0  0  0  0  0  0  0  0  0
    1.7960   21.4620  -36.1390 C   0  0  0  0  0  0  0  0  0  0  0  0
    2.4139   22.2549  -36.5857 H   0  0  0  0  0  0  0  0  0  0  0  0
    0.6070   21.7910  -35.4780 C   0  0  0  0  0  0  0  0  0  0  0  0
    0.2300   23.0920  -35.3860 F   0  0  0  0  0  0  0  0  0  0  0  0
   -2.6540   21.5910  -32.3210 N   0  0  0  0  0  0  0  0  0  0  0  0
   -3.4730   21.9860  -32.8370 H   0  0  0  0  0  0  0  0  0  0  0  0
   -2.5690   21.5270  -30.9630 C   0  0  0  0  0  0  0  0  0  0  0  0
   -3.6300   22.0890  -30.0560 C   0  0  0  0  0  0  0  0  0  0  0  0
   -3.1676   22.3562  -29.0943 H   0  0  0  0  0  0  0  0  0  0  0  0
   -4.4058   21.3195  -29.9297 H   0  0  0  0  0  0  0  0  0  0  0  0
   -4.2880   23.3150  -30.6340 C   0  0  0  0  0  0  0  0  0  0  0  0
   -3.8100   24.5610  -30.4610 N   0  0  0  0  0  0  0  0  0  0  0  0
   -4.6830   25.3570  -31.0670 N   0  0  0  0  0  0  0  0  0  0  0  0
   -5.6620   24.6390  -31.5950 N   0  0  0  0  0  0  0  0  0  0  0  0
   -5.4280   23.3610  -31.3560 N   0  0  0  0  0  0  0  0  0  0  0  0
   -6.3180   22.2960  -31.7170 C   0  0  0  0  0  0  0  0  0  0  0  0
   -7.6050   22.2490  -31.1680 C   0  0  0  0  0  0  0  0  0  0  0  0
   -7.9570   23.0712  -30.5277 H   0  0  0  0  0  0  0  0  0  0  0  0
   -8.4440   21.1640  -31.4290 C   0  0  0  0  0  0  0  0  0  0  0  0
   -9.4487   21.1300  -30.9825 H   0  0  0  0  0  0  0  0  0  0  0  0
   -8.0130   20.1160  -32.2580 C   0  0  0  0  0  0  0  0  0  0  0  0
   -8.9090   18.9300  -32.4910 C   0  0  0  0  0  0  0  0  0  0  0  0
   -9.2242   18.5128  -31.5232 H   0  0  0  0  0  0  0  0  0  0  0  0
   -9.7956   19.2464  -33.0601 H   0  0  0  0  0  0  0  0  0  0  0  0
   -8.3623   18.1636  -33.0601 H   0  0  0  0  0  0  0  0  0  0  0  0
   -6.7290   20.1760  -32.8350 C   0  0  0  0  0  0  0  0  0  0  0  0
   -6.1220   18.8850  -33.8660 Cl  0  0  0  0  0  0  0  0  0  0  0  0
   -5.8940   21.2690  -32.5720 C   0  0  0  0  0  0  0  0  0  0  0  0
   -4.8995   21.3221  -33.0390 H   0  0  0  0  0  0  0  0  0  0  0  0
  1  2  1  0
  2  3  1  0
  3  4  1  0
  4  5  2  0
  5  6  1  0
  6  7  2  0
  7  8  1  0
  7  9  1  0
  9 10  1  0
  9 11  2  0
 11 12  1  0
 11 13  1  0
 13 14  1  0
 13 15  2  0
 15 16  1  0
  4 17  1  0
 17 18  1  0
 17 19  1  0
 19 20  1  0
 20 21  1  0
 20 22  1  0
 20 23  1  0
 23 24  2  0
 24 25  1  0
 25 26  2  0
 26 27  1  0
 27 28  1  0
 28 29  2  0
 29 30  1  0
 29 31  1  0
 31 32  1  0
 31 33  2  0
 33 34  1  0
 34 35  1  0
 34 36  1  0
 34 37  1  0
 33 38  1  0
 38 39  1  0
 38 40  2  0
 40 41  1  0
 19  2  2  0
 27 23  1  0
 40 28  1  0
 15  6  1  0
M  END
>  <UniqueID>  (42) 
39

>  <SMILES>  (42) 
Cc1ccc(-n2nnnc2Cc2cs/c(=N\c3ccccc3F)[nH]2)cc1Cl

>  <Energy>  (42) 
124.10463153808607

>  <Genealogy>  (42) 
Cc1ccc(-n2nnnc2Cc2cs/c(=N\c3ccccc3F)[nH]2)cc1Cl (cis-trans isomerization)
Cc1ccc(-n2nnnc2Cc2cs/c(=N\c3ccccc3F)[nH]2)cc1Cl (3D coordinates assigned)
Cc1ccc(-n2nnnc2Cc2cs/c(=N\c3ccccc3F)[nH]2)cc1Cl (optimized conformer: 124.10463153808607 kcal/mol)

>  <smiles>  (42) 
Cc1ccc(-n2nnnc2Cc2csc(=Nc3ccccc3F)[nH]2)cc1Cl

>  <score_type>  (42) 
oracle

>  <origin>  (42) 
adgpu

>  <m_score__min__energy>  (42) 
-10.66

>  <m_primary>  (42) 
energy

$$$$
42:0
     RDKit          3D

 43 46  0  0  0  0  0  0  0  0999 V2000
   -8.8787   22.0691  -31.7698 H   0  0  0  0  0  0  0  0  0  0  0  0
   -7.9730   22.6040  -31.4480 C   0  0  0  0  0  0  0  0  0  0  0  0
   -7.5260   22.4900  -30.1290 C   0  0  0  0  0  0  0  0  0  0  0  0
   -8.0777   21.8615  -29.4145 H   0  0  0  0  0  0  0  0  0  0  0  0
   -6.3780   23.1740  -29.7160 C   0  0  0  0  0  0  0  0  0  0  0  0
   -6.0229   23.0721  -28.6799 H   0  0  0  0  0  0  0  0  0  0  0  0
   -5.6760   23.9910  -30.6190 C   0  0  0  0  0  0  0  0  0  0  0  0
   -4.4270   24.7140  -30.1800 C   0  0  0  0  0  0  0  0  0  0  0  0
   -4.7069   25.5429  -29.5133 H   0  0  0  0  0  0  0  0  0  0  0  0
   -3.9107   25.0951  -31.0734 H   0  0  0  0  0  0  0  0  0  0  0  0
   -3.5190   23.8100  -29.4660 N   0  0  0  0  0  0  0  0  0  0  0  0
   -3.1210   23.9760  -28.1880 C   0  0  0  0  0  0  0  0  0  0  0  0
   -3.3964   24.8276  -27.5485 H   0  0  0  0  0  0  0  0  0  0  0  0
   -2.3190   22.9240  -27.7990 C   0  0  0  0  0  0  0  0  0  0  0  0
   -1.8453   22.7879  -26.8156 H   0  0  0  0  0  0  0  0  0  0  0  0
   -2.2260   22.0750  -28.8830 C   0  0  0  0  0  0  0  0  0  0  0  0
   -1.6660   21.1294  -28.9314 H   0  0  0  0  0  0  0  0  0  0  0  0
   -2.9740   22.6450  -29.8960 C   0  0  0  0  0  0  0  0  0  0  0  0
   -3.1380   22.0390  -31.2300 C   0  0  0  0  0  0  0  0  0  0  0  0
   -2.3480   22.2840  -32.2980 N   0  0  0  0  0  0  0  0  0  0  0  0
   -2.8350   21.5460  -33.2800 N   0  0  0  0  0  0  0  0  0  0  0  0
   -2.4470   21.5030  -34.2490 H   0  0  0  0  0  0  0  0  0  0  0  0
   -3.8910   20.8820  -32.7890 C   0  0  0  0  0  0  0  0  0  0  0  0
   -4.6000   20.0440  -33.4840 N   0  0  0  0  0  0  0  0  0  0  0  0
   -5.7640   19.3330  -33.0310 C   0  0  0  0  0  0  0  0  0  0  0  0
   -5.6880   18.0420  -32.4740 C   0  0  0  0  0  0  0  0  0  0  0  0
   -4.7151   17.5341  -32.3998 H   0  0  0  0  0  0  0  0  0  0  0  0
   -6.8430   17.4030  -32.0150 C   0  0  0  0  0  0  0  0  0  0  0  0
   -6.7777   16.3916  -31.5875 H   0  0  0  0  0  0  0  0  0  0  0  0
   -8.0800   18.0460  -32.0980 C   0  0  0  0  0  0  0  0  0  0  0  0
   -8.9864   17.5391  -31.7355 H   0  0  0  0  0  0  0  0  0  0  0  0
   -8.1710   19.3360  -32.6420 C   0  0  0  0  0  0  0  0  0  0  0  0
   -9.4900   20.0480  -32.6800 C   0  0  0  0  0  0  0  0  0  0  0  0
   -9.8357   20.2346  -31.6525 H   0  0  0  0  0  0  0  0  0  0  0  0
   -9.3744   21.0062  -33.2077 H   0  0  0  0  0  0  0  0  0  0  0  0
  -10.2276   19.4255  -33.2077 H   0  0  0  0  0  0  0  0  0  0  0  0
   -7.0050   19.9820  -33.0830 C   0  0  0  0  0  0  0  0  0  0  0  0
   -7.0662   21.0085  -33.4735 H   0  0  0  0  0  0  0  0  0  0  0  0
   -4.0850   21.1730  -31.5250 O   0  0  0  0  0  0  0  0  0  0  0  0
   -6.1220   24.0830  -31.9490 C   0  0  0  0  0  0  0  0  0  0  0  0
   -5.5652   24.6977  -32.6716 H   0  0  0  0  0  0  0  0  0  0  0  0
   -7.2700   23.3970  -32.3580 C   0  0  0  0  0  0  0  0  0  0  0  0
   -7.6197   23.4820  -33.3975 H   0  0  0  0  0  0  0  0  0  0  0  0
  1  2  1  0
  2  3  2  0
  3  4  1  0
  3  5  1  0
  5  6  1  0
  5  7  2  0
  7  8  1  0
  8  9  1  0
  8 10  1  0
  8 11  1  0
 11 12  1  0
 12 13  1  0
 12 14  2  0
 14 15  1  0
 14 16  1  0
 16 17  1  0
 16 18  2  0
 18 19  1  0
 19 20  2  0
 20 21  1  0
 21 22  1  0
 21 23  1  0
 23 24  2  0
 24 25  1  0
 25 26  2  0
 26 27  1  0
 26 28  1  0
 28 29  1  0
 28 30  2  0
 30 31  1  0
 30 32  1  0
 32 33  1  0
 33 34  1  0
 33 35  1  0
 33 36  1  0
 32 37  2  0
 37 38  1  0
 23 39  1  0
  7 40  1  0
 40 41  1  0
 40 42  2  0
 42 43  1  0
 42  2  1  0
 18 11  1  0
 39 19  1  0
 37 25  1  0
M  END
>  <UniqueID>  (43) 
40

>  <SMILES>  (43) 
Cc1cccc(/N=c2/[nH]nc(-c3cccn3Cc3ccccc3)o2)c1

>  <Energy>  (43) 
112.77247019087329

>  <Genealogy>  (43) 
Cc1cccc(/N=c2/[nH]nc(-c3cccn3Cc3ccccc3)o2)c1 (cis-trans isomerization)
Cc1cccc(/N=c2/[nH]nc(-c3cccn3Cc3ccccc3)o2)c1 (3D coordinates assigned)
Cc1cccc(/N=c2/[nH]nc(-c3cccn3Cc3ccccc3)o2)c1 (optimized conformer: 112.77247019087329 kcal/mol)

>  <smiles>  (43) 
Cc1cccc(N=c2[nH]nc(-c3cccn3Cc3ccccc3)o2)c1

>  <score_type>  (43) 
oracle

>  <origin>  (43) 
adgpu

>  <m_score__min__energy>  (43) 
-8.4900000000000002

>  <m_primary>  (43) 
energy

$$$$
43:0
     RDKit          3D

 50 53  0  0  0  0  0  0  0  0999 V2000
   -3.7960   26.0330  -31.5750 H   0  0  0  0  0  0  0  0  0  0  0  0
   -4.3860   25.6290  -30.8140 N   0  0  0  0  0  0  0  0  0  0  0  0
   -3.9830   24.6180  -30.1120 C   0  0  0  0  0  0  0  0  0  0  0  0
   -2.7720   24.0540  -30.3580 N   0  0  0  0  0  0  0  0  0  0  0  0
   -2.3090   22.9860  -29.6530 C   0  0  0  0  0  0  0  0  0  0  0  0
   -0.7080   22.3070  -30.1120 S   0  0  0  0  0  0  0  0  0  0  0  0
   -1.4710   21.1230  -31.2120 C   0  0  0  0  0  0  0  0  0  0  0  0
   -2.7080   21.3130  -31.7370 N   0  0  0  0  0  0  0  0  0  0  0  0
   -2.9250   20.1610  -32.3840 C   0  0  0  0  0  0  0  0  0  0  0  0
   -4.0830   19.7660  -33.0440 C   0  0  0  0  0  0  0  0  0  0  0  0
   -4.9310   20.4562  -33.1645 H   0  0  0  0  0  0  0  0  0  0  0  0
   -4.1360   18.4500  -33.5550 C   0  0  0  0  0  0  0  0  0  0  0  0
   -5.4150   17.9170  -34.1460 C   0  0  0  0  0  0  0  0  0  0  0  0
   -5.1872   17.3835  -35.0806 H   0  0  0  0  0  0  0  0  0  0  0  0
   -5.8829   17.2325  -33.4231 H   0  0  0  0  0  0  0  0  0  0  0  0
   -6.3450   19.0140  -34.4310 N   0  0  0  0  0  0  0  0  0  0  0  0
   -6.5440   19.2190  -35.4360 H   0  0  0  0  0  0  0  0  0  0  0  0
   -7.1270   19.6890  -33.4250 C   0  0  0  0  0  0  0  0  0  0  0  0
   -8.1460   18.9910  -32.7680 C   0  0  0  0  0  0  0  0  0  0  0  0
   -8.3671   17.9523  -33.0547 H   0  0  0  0  0  0  0  0  0  0  0  0
   -8.8850   19.6000  -31.7520 C   0  0  0  0  0  0  0  0  0  0  0  0
   -9.6832   19.0371  -31.2460 H   0  0  0  0  0  0  0  0  0  0  0  0
   -8.6180   20.9260  -31.3700 C   0  0  0  0  0  0  0  0  0  0  0  0
   -9.4120   21.5450  -30.2500 C   0  0  0  0  0  0  0  0  0  0  0  0
   -8.9970   21.2215  -29.2840 H   0  0  0  0  0  0  0  0  0  0  0  0
   -9.3572   22.6411  -30.3240 H   0  0  0  0  0  0  0  0  0  0  0  0
  -10.4617   21.2245  -30.3240 H   0  0  0  0  0  0  0  0  0  0  0  0
   -7.5920   21.6430  -32.0300 C   0  0  0  0  0  0  0  0  0  0  0  0
   -7.2630   23.0630  -31.6480 C   0  0  0  0  0  0  0  0  0  0  0  0
   -7.2423   23.1524  -30.5518 H   0  0  0  0  0  0  0  0  0  0  0  0
   -6.2783   23.3339  -32.0567 H   0  0  0  0  0  0  0  0  0  0  0  0
   -8.0282   23.7393  -32.0567 H   0  0  0  0  0  0  0  0  0  0  0  0
   -6.8760   21.0260  -33.0690 C   0  0  0  0  0  0  0  0  0  0  0  0
   -6.1081   21.5967  -33.6118 H   0  0  0  0  0  0  0  0  0  0  0  0
   -3.0070   17.6000  -33.4290 C   0  0  0  0  0  0  0  0  0  0  0  0
   -3.0372   16.5866  -33.8557 H   0  0  0  0  0  0  0  0  0  0  0  0
   -1.8490   18.0420  -32.7630 C   0  0  0  0  0  0  0  0  0  0  0  0
   -0.9693   17.3900  -32.6579 H   0  0  0  0  0  0  0  0  0  0  0  0
   -1.8550   19.3320  -32.2420 C   0  0  0  0  0  0  0  0  0  0  0  0
   -0.9100   19.9190  -31.4950 N   0  0  0  0  0  0  0  0  0  0  0  0
   -3.0910   22.4360  -28.6110 C   0  0  0  0  0  0  0  0  0  0  0  0
   -2.6110   21.2610  -27.8370 C   0  0  0  0  0  0  0  0  0  0  0  0
   -3.1009   20.2907  -28.0058 H   0  0  0  0  0  0  0  0  0  0  0  0
   -1.6180   21.3210  -26.9490 C   0  0  0  0  0  0  0  0  0  0  0  0
   -1.3088   20.4147  -26.4076 H   0  0  0  0  0  0  0  0  0  0  0  0
   -1.1081   22.2767  -26.7579 H   0  0  0  0  0  0  0  0  0  0  0  0
   -4.3520   23.0090  -28.3590 C   0  0  0  0  0  0  0  0  0  0  0  0
   -4.9909   22.5937  -27.5657 H   0  0  0  0  0  0  0  0  0  0  0  0
   -4.7980   24.0980  -29.1060 C   0  0  0  0  0  0  0  0  0  0  0  0
   -5.7834   24.5433  -28.9043 H   0  0  0  0  0  0  0  0  0  0  0  0
  1  2  1  0
  2  3  2  0
  3  4  1  0
  4  5  1  0
  5  6  1  0
  6  7  1  0
  7  8  2  0
  8  9  1  0
  9 10  2  0
 10 11  1  0
 10 12  1  0
 12 13  1  0
 13 14  1  0
 13 15  1  0
 13 16  1  0
 16 17  1  0
 16 18  1  0
 18 19  2  0
 19 20  1  0
 19 21  1  0
 21 22  1  0
 21 23  2  0
 23 24  1  0
 24 25  1  0
 24 26  1  0
 24 27  1  0
 23 28  1  0
 28 29  1  0
 29 30  1  0
 29 31  1  0
 29 32  1  0
 28 33  2  0
 33 34  1  0
 12 35  2  0
 35 36  1  0
 35 37  1  0
 37 38  1  0
 37 39  2  0
 39 40  1  0
  5 41  2  0
 41 42  1  0
 42 43  1  0
 42 44  2  0
 44 45  1  0
 44 46  1  0
 41 47  1  0
 47 48  1  0
 47 49  2  0
 49 50  1  0
 49  3  1  0
 40  7  1  0
 39  9  1  0
 33 18  1  0
M  CHG  2   4  -1  40  -1
M  END
>  <UniqueID>  (44) 
41

>  <SMILES>  (44) 
[H]/N=c1/ccc(C=C)c(Sc2nc3cc(CNc4ccc(C)c(C)c4)ccc3[n-]2)[n-]1

>  <Energy>  (44) 
86.86948722423823

>  <Genealogy>  (44) 
C=Cc1ccc(=N)[n-]c1Sc1nc2cc(CNc3ccc(C)c(C)c3)ccc2[n-]1 (protonated)
[H]/N=c1/ccc(C=C)c(Sc2nc3cc(CNc4ccc(C)c(C)c4)ccc3[n-]2)[n-]1 (cis-trans isomerization)
[H]/N=c1/ccc(C=C)c(Sc2nc3cc(CNc4ccc(C)c(C)c4)ccc3[n-]2)[n-]1 (3D coordinates assigned)
[H]/N=c1/ccc(C=C)c(Sc2nc3cc(CNc4ccc(C)c(C)c4)ccc3[n-]2)[n-]1 (optimized conformer: 86.86948722423823 kcal/mol)

>  <smiles>  (44) 
C=Cc1ccc(=N)[nH]c1Sc1nc2cc(CNc3ccc(C)c(C)c3)ccc2[nH]1

>  <score_type>  (44) 
oracle

>  <origin>  (44) 
adgpu

>  <m_score__min__energy>  (44) 
-11.91

>  <m_primary>  (44) 
energy

$$$$
44:0
     RDKit          3D

 32 33  0  0  0  0  0  0  0  0999 V2000
   -9.3430   22.7470  -32.0270 C   0  0  0  0  0  0  0  0  0  0  0  0
   -8.1340   21.3910  -31.8990 S   0  0  0  0  0  0  0  0  0  0  0  0
   -6.7650   22.4960  -31.5580 C   0  0  0  0  0  0  0  0  0  0  0  0
   -6.9970   23.7250  -30.9320 C   0  0  0  0  0  0  0  0  0  0  0  0
   -5.9240   24.5580  -30.6040 C   0  0  0  0  0  0  0  0  0  0  0  0
   -4.6060   24.1570  -30.8880 C   0  0  0  0  0  0  0  0  0  0  0  0
   -3.4810   24.9340  -30.4620 N   0  0  0  0  0  0  0  0  0  0  0  0
   -2.8980   24.9010  -29.1500 C   0  0  0  0  0  0  0  0  0  0  0  0
   -3.4200   24.1690  -28.2700 O   0  0  0  0  0  0  0  0  0  0  0  0
   -1.7380   25.6750  -28.8120 N   0  0  0  0  0  0  0  0  0  0  0  0
   -1.3220   26.0270  -27.4840 C   0  0  0  0  0  0  0  0  0  0  0  0
   -1.6780   25.1950  -26.4170 C   0  0  0  0  0  0  0  0  0  0  0  0
   -1.2270   25.4740  -25.1230 C   0  0  0  0  0  0  0  0  0  0  0  0
   -0.4300   26.6010  -24.8820 C   0  0  0  0  0  0  0  0  0  0  0  0
    0.0510   26.8750  -23.5630 N   0  0  0  0  0  0  0  0  0  0  0  0
   -0.1070   27.4590  -25.9420 C   0  0  0  0  0  0  0  0  0  0  0  0
   -0.5600   27.1800  -27.2350 C   0  0  0  0  0  0  0  0  0  0  0  0
   -4.3850   22.9550  -31.5720 C   0  0  0  0  0  0  0  0  0  0  0  0
   -5.4600   22.1230  -31.8990 C   0  0  0  0  0  0  0  0  0  0  0  0
   -9.6349   23.0744  -31.0182 H   0  0  0  0  0  0  0  0  0  0  0  0
   -8.8918   23.5905  -32.5700 H   0  0  0  0  0  0  0  0  0  0  0  0
  -10.2325   22.3951  -32.5700 H   0  0  0  0  0  0  0  0  0  0  0  0
   -8.0256   24.0364  -30.6975 H   0  0  0  0  0  0  0  0  0  0  0  0
   -6.1105   25.5294  -30.1227 H   0  0  0  0  0  0  0  0  0  0  0  0
   -2.3158   24.3170  -26.5968 H   0  0  0  0  0  0  0  0  0  0  0  0
   -1.4987   24.8067  -24.2918 H   0  0  0  0  0  0  0  0  0  0  0  0
   -0.0770   27.8180  -23.1330 H   0  0  0  0  0  0  0  0  0  0  0  0
    0.5280   26.1330  -23.0030 H   0  0  0  0  0  0  0  0  0  0  0  0
    0.5045   28.3543  -25.7562 H   0  0  0  0  0  0  0  0  0  0  0  0
   -0.3186   27.8661  -28.0602 H   0  0  0  0  0  0  0  0  0  0  0  0
   -3.3619   22.6645  -31.8530 H   0  0  0  0  0  0  0  0  0  0  0  0
   -5.2798   21.1739  -32.4250 H   0  0  0  0  0  0  0  0  0  0  0  0
  1  2  1  0
  2  3  1  0
  3  4  2  0
  4  5  1  0
  5  6  2  0
  6  7  1  0
  7  8  1  0
  8  9  2  0
  8 10  1  0
 10 11  1  0
 11 12  2  0
 12 13  1  0
 13 14  2  0
 14 15  1  0
 14 16  1  0
 16 17  2  0
  6 18  1  0
 18 19  2  0
 19  3  1  0
 17 11  1  0
  1 20  1  0
  1 21  1  0
  1 22  1  0
  4 23  1  0
  5 24  1  0
 12 25  1  0
 13 26  1  0
 15 27  1  0
 15 28  1  0
 16 29  1  0
 17 30  1  0
 18 31  1  0
 19 32  1  0
M  CHG  2   7  -1  10  -1
M  END
>  <UniqueID>  (45) 
42

>  <SMILES>  (45) 
CSc1ccc([N-]C(=O)[N-]c2ccc(N)cc2)cc1

>  <Energy>  (45) 
33.52945843740604

>  <Genealogy>  (45) 
CSc1ccc([N-]C(=O)[N-]c2ccc(N)cc2)cc1 (protonated)
CSc1ccc([N-]C(=O)[N-]c2ccc(N)cc2)cc1 (3D coordinates assigned)
CSc1ccc([N-]C(=O)[N-]c2ccc(N)cc2)cc1 (optimized conformer: 33.52945843740604 kcal/mol)

>  <smiles>  (45) 
CSc1ccc(NC(=O)Nc2ccc(N)cc2)cc1

>  <score_type>  (45) 
oracle

>  <origin>  (45) 
adgpu

>  <m_score__min__energy>  (45) 
-10.48

>  <m_primary>  (45) 
energy

$$$$
45:0
     RDKit          3D

 30 31  0  0  0  0  0  0  0  0999 V2000
   -5.7380   25.6720  -30.3850 C   0  0  0  0  0  0  0  0  0  0  0  0
   -4.4560   25.2600  -30.8470 O   0  0  0  0  0  0  0  0  0  0  0  0
   -3.8750   24.0100  -30.5760 C   0  0  0  0  0  0  0  0  0  0  0  0
   -4.3660   22.8210  -31.1540 C   0  0  0  0  0  0  0  0  0  0  0  0
   -3.7640   21.5940  -30.8640 C   0  0  0  0  0  0  0  0  0  0  0  0
   -2.6770   21.5370  -29.9930 C   0  0  0  0  0  0  0  0  0  0  0  0
   -2.1830   22.7060  -29.4130 C   0  0  0  0  0  0  0  0  0  0  0  0
   -2.7650   23.9520  -29.7100 C   0  0  0  0  0  0  0  0  0  0  0  0
   -2.2770   25.1560  -29.0930 N   0  0  0  0  0  0  0  0  0  0  0  0
   -0.9400   25.3200  -28.5990 C   0  0  0  0  0  0  0  0  0  0  0  0
   -0.0650   24.4410  -28.8220 O   0  0  0  0  0  0  0  0  0  0  0  0
   -0.6180   26.4890  -27.8360 N   0  0  0  0  0  0  0  0  0  0  0  0
   -0.6740   26.6230  -26.4080 C   0  0  0  0  0  0  0  0  0  0  0  0
   -0.7260   25.4670  -25.6220 C   0  0  0  0  0  0  0  0  0  0  0  0
   -0.8020   25.5680  -24.2310 C   0  0  0  0  0  0  0  0  0  0  0  0
   -0.8400   26.8300  -23.6400 C   0  0  0  0  0  0  0  0  0  0  0  0
   -0.8160   27.9470  -24.4150 N   0  0  0  0  0  0  0  0  0  0  0  0
   -0.7390   27.8750  -25.7710 C   0  0  0  0  0  0  0  0  0  0  0  0
   -5.7478   25.6751  -29.2850 H   0  0  0  0  0  0  0  0  0  0  0  0
   -5.9536   26.6847  -30.7565 H   0  0  0  0  0  0  0  0  0  0  0  0
   -6.5032   24.9745  -30.7565 H   0  0  0  0  0  0  0  0  0  0  0  0
   -5.2275   22.8598  -31.8368 H   0  0  0  0  0  0  0  0  0  0  0  0
   -4.1483   20.6715  -31.3237 H   0  0  0  0  0  0  0  0  0  0  0  0
   -2.2080   20.5690  -29.7626 H   0  0  0  0  0  0  0  0  0  0  0  0
   -1.3319   22.6530  -28.7181 H   0  0  0  0  0  0  0  0  0  0  0  0
   -2.9010   25.9950  -29.0730 H   0  0  0  0  0  0  0  0  0  0  0  0
   -0.7070   24.4766  -26.1003 H   0  0  0  0  0  0  0  0  0  0  0  0
   -0.8316   24.6615  -23.6086 H   0  0  0  0  0  0  0  0  0  0  0  0
   -0.8895   26.9223  -22.5450 H   0  0  0  0  0  0  0  0  0  0  0  0
   -0.7276   28.7974  -26.3702 H   0  0  0  0  0  0  0  0  0  0  0  0
  1  2  1  0
  2  3  1  0
  3  4  2  0
  4  5  1  0
  5  6  2  0
  6  7  1  0
  7  8  2  0
  8  9  1  0
  9 10  1  0
 10 11  2  0
 10 12  1  0
 12 13  1  0
 13 14  2  0
 14 15  1  0
 15 16  2  0
 16 17  1  0
 17 18  2  0
  8  3  1  0
 18 13  1  0
  1 19  1  0
  1 20  1  0
  1 21  1  0
  4 22  1  0
  5 23  1  0
  6 24  1  0
  7 25  1  0
  9 26  1  0
 14 27  1  0
 15 28  1  0
 16 29  1  0
 18 30  1  0
M  CHG  1  12  -1
M  END
>  <UniqueID>  (46) 
43

>  <SMILES>  (46) 
COc1ccccc1NC(=O)[N-]c1cccnc1

>  <Energy>  (46) 
38.11354271021385

>  <Genealogy>  (46) 
COc1ccccc1NC(=O)[N-]c1cccnc1 (protonated)
COc1ccccc1NC(=O)[N-]c1cccnc1 (3D coordinates assigned)
COc1ccccc1NC(=O)[N-]c1cccnc1 (optimized conformer: 38.11354271021385 kcal/mol)

>  <smiles>  (46) 
COc1ccccc1NC(=O)Nc1cccnc1

>  <score_type>  (46) 
oracle

>  <origin>  (46) 
adgpu

>  <m_score__min__energy>  (46) 
-7.7999999999999998

>  <m_primary>  (46) 
energy

$$$$
46:0
     RDKit          3D

 38 41  0  0  0  0  0  0  0  0999 V2000
   -1.5530   26.0310  -28.9640 O   0  0  0  0  0  0  0  0  0  0  0  0
   -1.9510   24.7520  -29.3380 C   0  0  0  0  0  0  0  0  0  0  0  0
   -1.1920   23.6450  -28.9460 C   0  0  0  0  0  0  0  0  0  0  0  0
   -1.5810   22.3470  -29.3160 C   0  0  0  0  0  0  0  0  0  0  0  0
   -0.7780   21.1760  -28.9020 C   0  0  0  0  0  0  0  0  0  0  0  0
   -0.4400   20.9100  -27.6240 N   0  0  0  0  0  0  0  0  0  0  0  0
    0.2520   19.8150  -27.6800 O   0  0  0  0  0  0  0  0  0  0  0  0
    0.3450   19.4120  -28.9250 C   0  0  0  0  0  0  0  0  0  0  0  0
    1.0640   18.1980  -29.3550 C   0  0  0  0  0  0  0  0  0  0  0  0
    1.0920   17.8230  -30.7090 C   0  0  0  0  0  0  0  0  0  0  0  0
    1.7750   16.6710  -31.1090 C   0  0  0  0  0  0  0  0  0  0  0  0
    2.4280   15.8700  -30.1670 C   0  0  0  0  0  0  0  0  0  0  0  0
    3.1140   14.7290  -30.6120 O   0  0  0  0  0  0  0  0  0  0  0  0
    2.9200   14.1030  -31.8510 C   0  0  0  0  0  0  0  0  0  0  0  0
    1.9100   13.1400  -31.9670 C   0  0  0  0  0  0  0  0  0  0  0  0
    1.6890   12.4900  -33.1840 C   0  0  0  0  0  0  0  0  0  0  0  0
    2.4880   12.7870  -34.2930 C   0  0  0  0  0  0  0  0  0  0  0  0
    2.2110   11.9670  -35.8190 Cl  0  0  0  0  0  0  0  0  0  0  0  0
    3.5150   13.7280  -34.1800 C   0  0  0  0  0  0  0  0  0  0  0  0
    3.7390   14.3830  -32.9630 C   0  0  0  0  0  0  0  0  0  0  0  0
    4.7770   15.2490  -32.8610 F   0  0  0  0  0  0  0  0  0  0  0  0
    2.4170   16.2510  -28.8140 C   0  0  0  0  0  0  0  0  0  0  0  0
    1.7360   17.4030  -28.4120 C   0  0  0  0  0  0  0  0  0  0  0  0
   -0.3000   20.2500  -29.7610 N   0  0  0  0  0  0  0  0  0  0  0  0
   -2.7460   22.1750  -30.0860 C   0  0  0  0  0  0  0  0  0  0  0  0
   -3.5050   23.2830  -30.4770 C   0  0  0  0  0  0  0  0  0  0  0  0
   -4.6540   23.0990  -31.2380 O   0  0  0  0  0  0  0  0  0  0  0  0
   -3.1090   24.5730  -30.1030 C   0  0  0  0  0  0  0  0  0  0  0  0
   -3.8640   25.6740  -30.4930 O   0  0  0  0  0  0  0  0  0  0  0  0
   -0.2835   23.7917  -28.3434 H   0  0  0  0  0  0  0  0  0  0  0  0
    0.5736   18.4394  -31.4582 H   0  0  0  0  0  0  0  0  0  0  0  0
    1.7990   16.3924  -32.1729 H   0  0  0  0  0  0  0  0  0  0  0  0
    1.2868   12.8937  -31.0947 H   0  0  0  0  0  0  0  0  0  0  0  0
    0.8855   11.7437  -33.2700 H   0  0  0  0  0  0  0  0  0  0  0  0
    4.1492   13.9547  -35.0497 H   0  0  0  0  0  0  0  0  0  0  0  0
    2.9467   15.6397  -28.0685 H   0  0  0  0  0  0  0  0  0  0  0  0
    1.7261   17.6892  -27.3499 H   0  0  0  0  0  0  0  0  0  0  0  0
   -3.0616   21.1637  -30.3821 H   0  0  0  0  0  0  0  0  0  0  0  0
  1  2  1  0
  2  3  2  0
  3  4  1  0
  4  5  1  0
  5  6  2  0
  6  7  1  0
  7  8  1  0
  8  9  1  0
  9 10  2  0
 10 11  1  0
 11 12  2  0
 12 13  1  0
 13 14  1  0
 14 15  2  0
 15 16  1  0
 16 17  2  0
 17 18  1  0
 17 19  1  0
 19 20  2  0
 20 21  1  0
 12 22  1  0
 22 23  2  0
  8 24  2  0
  4 25  2  0
 25 26  1  0
 26 27  1  0
 26 28  2  0
 28 29  1  0
 28  2  1  0
 24  5  1  0
 23  9  1  0
 20 14  1  0
  3 30  1  0
 10 31  1  0
 11 32  1  0
 15 33  1  0
 16 34  1  0
 19 35  1  0
 22 36  1  0
 23 37  1  0
 25 38  1  0
M  CHG  3   1  -1  27  -1  29  -1
M  END
>  <UniqueID>  (47) 
44

>  <SMILES>  (47) 
[O-]c1cc(-c2noc(-c3ccc(Oc4ccc(Cl)cc4F)cc3)n2)cc([O-])c1[O-]

>  <Energy>  (47) 
85.03370996788105

>  <Genealogy>  (47) 
[O-]c1cc(-c2noc(-c3ccc(Oc4ccc(Cl)cc4F)cc3)n2)cc([O-])c1[O-] (protonated)
[O-]c1cc(-c2noc(-c3ccc(Oc4ccc(Cl)cc4F)cc3)n2)cc([O-])c1[O-] (3D coordinates assigned)
[O-]c1cc(-c2noc(-c3ccc(Oc4ccc(Cl)cc4F)cc3)n2)cc([O-])c1[O-] (optimized conformer: 85.03370996788105 kcal/mol)

>  <smiles>  (47) 
Oc1cc(-c2noc(-c3ccc(Oc4ccc(Cl)cc4F)cc3)n2)cc(O)c1O

>  <score_type>  (47) 
oracle

>  <origin>  (47) 
adgpu

>  <m_score__min__energy>  (47) 
-11.49

>  <m_primary>  (47) 
energy

$$$$
47:0
     RDKit          3D

 50 52  0  0  0  0  0  0  0  0999 V2000
    2.5680   19.1610  -32.9870 C   0  0  0  0  0  0  0  0  0  0  0  0
    1.6510   19.6070  -33.9820 O   0  0  0  0  0  0  0  0  0  0  0  0
    0.2700   19.7580  -33.7760 C   0  0  0  0  0  0  0  0  0  0  0  0
   -0.5460   18.6980  -33.3350 C   0  0  0  0  0  0  0  0  0  0  0  0
   -1.9160   18.8980  -33.1430 C   0  0  0  0  0  0  0  0  0  0  0  0
   -2.4850   20.1560  -33.3600 C   0  0  0  0  0  0  0  0  0  0  0  0
   -3.9030   20.3160  -33.2140 N   0  0  0  0  0  0  0  0  0  0  0  0
   -4.5420   21.1040  -32.3900 C   0  0  0  0  0  0  0  0  0  0  0  0
   -3.8730   21.8080  -31.4320 N   0  0  0  0  0  0  0  0  0  0  0  0
   -4.5370   22.6190  -30.5740 C   0  0  0  0  0  0  0  0  0  0  0  0
   -3.8830   23.2610  -29.7050 O   0  0  0  0  0  0  0  0  0  0  0  0
   -5.8970   22.7350  -30.6450 N   0  0  0  0  0  0  0  0  0  0  0  0
   -6.6100   23.6400  -29.7180 C   0  0  0  0  0  0  0  0  0  0  0  0
   -6.0210   25.0610  -29.7380 C   0  0  0  0  0  0  0  0  0  0  0  0
   -5.3290   25.4080  -31.0590 C   0  0  0  0  0  0  0  0  0  0  0  0
   -3.9740   25.6820  -30.8390 O   0  0  0  0  0  0  0  0  0  0  0  0
   -6.5810   22.0090  -31.5860 C   0  0  0  0  0  0  0  0  0  0  0  0
   -7.8400   22.0980  -31.6500 O   0  0  0  0  0  0  0  0  0  0  0  0
   -5.9100   21.1910  -32.4610 N   0  0  0  0  0  0  0  0  0  0  0  0
   -6.6560   20.3870  -33.4560 C   0  0  0  0  0  0  0  0  0  0  0  0
   -6.2570   18.9360  -33.3670 C   0  0  0  0  0  0  0  0  0  0  0  0
   -6.3470   18.2520  -32.1430 C   0  0  0  0  0  0  0  0  0  0  0  0
   -5.9480   16.9150  -32.0520 C   0  0  0  0  0  0  0  0  0  0  0  0
   -5.4550   16.2510  -33.1790 C   0  0  0  0  0  0  0  0  0  0  0  0
   -4.9520   14.5750  -33.0610 Cl  0  0  0  0  0  0  0  0  0  0  0  0
   -5.3610   16.9260  -34.4000 C   0  0  0  0  0  0  0  0  0  0  0  0
   -5.7590   18.2620  -34.4960 C   0  0  0  0  0  0  0  0  0  0  0  0
   -1.6810   21.2050  -33.8360 C   0  0  0  0  0  0  0  0  0  0  0  0
   -0.3090   21.0080  -34.0280 C   0  0  0  0  0  0  0  0  0  0  0  0
    0.4570   22.0350  -34.4730 F   0  0  0  0  0  0  0  0  0  0  0  0
    2.1527   19.3630  -31.9887 H   0  0  0  0  0  0  0  0  0  0  0  0
    2.7368   18.0801  -33.1021 H   0  0  0  0  0  0  0  0  0  0  0  0
    3.5225   19.6955  -33.1021 H   0  0  0  0  0  0  0  0  0  0  0  0
   -0.1037   17.7097  -33.1411 H   0  0  0  0  0  0  0  0  0  0  0  0
   -2.5504   18.0598  -32.8190 H   0  0  0  0  0  0  0  0  0  0  0  0
   -2.8410   21.7130  -31.3090 H   0  0  0  0  0  0  0  0  0  0  0  0
   -7.6685   23.6895  -30.0131 H   0  0  0  0  0  0  0  0  0  0  0  0
   -6.5009   23.2398  -28.6992 H   0  0  0  0  0  0  0  0  0  0  0  0
   -6.8366   25.7800  -29.5711 H   0  0  0  0  0  0  0  0  0  0  0  0
   -5.2586   25.1103  -28.9466 H   0  0  0  0  0  0  0  0  0  0  0  0
   -5.4198   24.5576  -31.7508 H   0  0  0  0  0  0  0  0  0  0  0  0
   -5.8089   26.2981  -31.4919 H   0  0  0  0  0  0  0  0  0  0  0  0
   -3.4720   24.9080  -31.2050 H   0  0  0  0  0  0  0  0  0  0  0  0
   -7.7346   20.4787  -33.2604 H   0  0  0  0  0  0  0  0  0  0  0  0
   -6.4208   20.7599  -34.4638 H   0  0  0  0  0  0  0  0  0  0  0  0
   -6.7329   18.7704  -31.2528 H   0  0  0  0  0  0  0  0  0  0  0  0
   -6.0222   16.3844  -31.0913 H   0  0  0  0  0  0  0  0  0  0  0  0
   -4.9728   16.4040  -35.2871 H   0  0  0  0  0  0  0  0  0  0  0  0
   -5.6824   18.7886  -35.4587 H   0  0  0  0  0  0  0  0  0  0  0  0
   -2.1311   22.1838  -34.0584 H   0  0  0  0  0  0  0  0  0  0  0  0
  1  2  1  0
  2  3  1  0
  3  4  2  0
  4  5  1  0
  5  6  2  0
  6  7  1  0
  7  8  2  3
  8  9  1  0
  9 10  1  0
 10 11  2  0
 10 12  1  0
 12 13  1  0
 13 14  1  0
 14 15  1  0
 15 16  1  0
 12 17  1  0
 17 18  2  0
 17 19  1  0
 19 20  1  0
 20 21  1  0
 21 22  2  0
 22 23  1  0
 23 24  2  0
 24 25  1  0
 24 26  1  0
 26 27  2  0
  6 28  1  0
 28 29  2  0
 29 30  1  0
 29  3  1  0
 19  8  1  0
 27 21  1  0
  1 31  1  0
  1 32  1  0
  1 33  1  0
  4 34  1  0
  5 35  1  0
  9 36  1  0
 13 37  1  0
 13 38  1  0
 14 39  1  0
 14 40  1  0
 15 41  1  0
 15 42  1  0
 16 43  1  0
 20 44  1  0
 20 45  1  0
 22 46  1  0
 23 47  1  0
 26 48  1  0
 27 49  1  0
 28 50  1  0
M  END
>  <UniqueID>  (48) 
45

>  <SMILES>  (48) 
COc1ccc(N=c2[nH]c(=O)n(CCCO)c(=O)n2Cc2ccc(Cl)cc2)cc1F

>  <Energy>  (48) 
63.32115227567576

>  <Genealogy>  (48) 
COc1ccc(N=c2[nH]c(=O)n(CCCO)c(=O)n2Cc2ccc(Cl)cc2)cc1F (3D coordinates assigned)
COc1ccc(N=c2[nH]c(=O)n(CCCO)c(=O)n2Cc2ccc(Cl)cc2)cc1F (optimized conformer: 63.32115227567576 kcal/mol)

>  <smiles>  (48) 
COc1ccc(N=c2[nH]c(=O)n(CCCO)c(=O)n2Cc2ccc(Cl)cc2)cc1F

>  <score_type>  (48) 
oracle

>  <origin>  (48) 
adgpu

>  <m_score__min__energy>  (48) 
-8.1799999999999997

>  <m_primary>  (48) 
energy

$$$$
