0:0
     RDKit          3D

 47 49  0  0  0  0  0  0  0  0999 V2000
   -0.0330   20.3250  -30.5010 C   0  0  0  0  0  0  0  0  0  0  0  0
   -0.9790   20.3100  -29.3290 C   0  0  0  0  0  0  0  0  0  0  0  0
   -0.8610   19.2730  -28.3850 C   0  0  0  0  0  0  0  0  0  0  0  0
   -1.7400   19.1900  -27.3050 C   0  0  0  0  0  0  0  0  0  0  0  0
   -2.7470   20.1390  -27.1490 C   0  0  0  0  0  0  0  0  0  0  0  0
   -2.8710   21.1850  -28.0650 C   0  0  0  0  0  0  0  0  0  0  0  0
   -1.9850   21.3000  -29.1530 C   0  0  0  0  0  0  0  0  0  0  0  0
   -2.1440   22.4520  -30.0740 C   0  0  0  0  0  0  0  0  0  0  0  0
   -1.3270   23.4120  -30.0180 O   0  0  0  0  0  0  0  0  0  0  0  0
   -3.1570   22.4380  -31.0870 N   0  0  0  0  0  0  0  0  0  0  0  0
   -4.4360   23.0780  -30.9910 C   0  0  0  0  0  0  0  0  0  0  0  0
   -5.5870   22.2890  -31.1090 C   0  0  0  0  0  0  0  0  0  0  0  0
   -6.8600   22.8670  -31.0200 C   0  0  0  0  0  0  0  0  0  0  0  0
   -8.3060   21.8710  -31.2060 S   0  0  0  0  0  0  0  0  0  0  0  0
   -9.1680   22.4530  -32.2920 O   0  0  0  0  0  0  0  0  0  0  0  0
   -9.0940   21.8920  -29.9250 O   0  0  0  0  0  0  0  0  0  0  0  0
   -7.9010   20.2210  -31.6140 N   0  0  0  0  0  0  0  0  0  0  0  0
   -7.0480   20.1890  -32.8210 C   0  0  0  0  0  0  0  0  0  0  0  0
   -6.8920   18.7620  -33.3940 C   0  0  0  0  0  0  0  0  0  0  0  0
   -7.3300   17.6940  -32.3870 C   0  0  0  0  0  0  0  0  0  0  0  0
   -8.7780   17.9310  -31.9250 C   0  0  0  0  0  0  0  0  0  0  0  0
   -9.1240   19.4280  -31.8130 C   0  0  0  0  0  0  0  0  0  0  0  0
   -6.9810   24.2430  -30.7890 C   0  0  0  0  0  0  0  0  0  0  0  0
   -5.8390   25.0310  -30.6350 C   0  0  0  0  0  0  0  0  0  0  0  0
   -4.5630   24.4560  -30.7180 C   0  0  0  0  0  0  0  0  0  0  0  0
   -3.4330   25.2420  -30.5010 O   0  0  0  0  0  0  0  0  0  0  0  0
    1.0041   20.3414  -30.1349 H   0  0  0  0  0  0  0  0  0  0  0  0
   -0.1919   19.4242  -31.1120 H   0  0  0  0  0  0  0  0  0  0  0  0
   -0.2204   21.2203  -31.1120 H   0  0  0  0  0  0  0  0  0  0  0  0
   -0.0674   18.5200  -28.5000 H   0  0  0  0  0  0  0  0  0  0  0  0
   -1.6375   18.3733  -26.5752 H   0  0  0  0  0  0  0  0  0  0  0  0
   -3.4458   20.0643  -26.3027 H   0  0  0  0  0  0  0  0  0  0  0  0
   -3.6710   21.9287  -27.9351 H   0  0  0  0  0  0  0  0  0  0  0  0
   -5.4906   21.2056  -31.2731 H   0  0  0  0  0  0  0  0  0  0  0  0
   -7.5007   20.8313  -33.5907 H   0  0  0  0  0  0  0  0  0  0  0  0
   -6.0480   20.5469  -32.5348 H   0  0  0  0  0  0  0  0  0  0  0  0
   -7.5100   18.6723  -34.2996 H   0  0  0  0  0  0  0  0  0  0  0  0
   -5.8285   18.6000  -33.6236 H   0  0  0  0  0  0  0  0  0  0  0  0
   -7.2613   16.7036  -32.8607 H   0  0  0  0  0  0  0  0  0  0  0  0
   -6.6692   17.7487  -31.5093 H   0  0  0  0  0  0  0  0  0  0  0  0
   -9.4606   17.4645  -32.6506 H   0  0  0  0  0  0  0  0  0  0  0  0
   -8.8865   17.4871  -30.9244 H   0  0  0  0  0  0  0  0  0  0  0  0
   -9.6224   19.7554  -32.7373 H   0  0  0  0  0  0  0  0  0  0  0  0
   -9.7916   19.5776  -30.9517 H   0  0  0  0  0  0  0  0  0  0  0  0
   -7.9780   24.7038  -30.7288 H   0  0  0  0  0  0  0  0  0  0  0  0
   -5.9409   26.1101  -30.4473 H   0  0  0  0  0  0  0  0  0  0  0  0
   -2.5060   24.9240  -30.7600 H   0  0  0  0  0  0  0  0  0  0  0  0
  1  2  1  0
  2  3  2  0
  3  4  1  0
  4  5  2  0
  5  6  1  0
  6  7  2  0
  7  8  1  0
  8  9  2  0
  8 10  1  0
 10 11  1  0
 11 12  2  0
 12 13  1  0
 13 14  1  0
 14 15  2  0
 14 16  2  0
 14 17  1  0
 17 18  1  0
 18 19  1  0
 19 20  1  0
 20 21  1  0
 21 22  1  0
 13 23  2  0
 23 24  1  0
 24 25  2  0
 25 26  1  0
  7  2  1  0
 25 11  1  0
 22 17  1  0
  1 27  1  0
  1 28  1  0
  1 29  1  0
  3 30  1  0
  4 31  1  0
  5 32  1  0
  6 33  1  0
 12 34  1  0
 18 35  1  0
 18 36  1  0
 19 37  1  0
 19 38  1  0
 20 39  1  0
 20 40  1  0
 21 41  1  0
 21 42  1  0
 22 43  1  0
 22 44  1  0
 23 45  1  0
 24 46  1  0
 26 47  1  0
M  CHG  1  10  -1
M  END
>  <UniqueID>  (1) 
1

>  <SMILES>  (1) 
Cc1ccccc1C(=O)[N-]c1cc(S(=O)(=O)N2CCCCC2)ccc1O

>  <Energy>  (1) 
60.182965933520016

>  <Genealogy>  (1) 
Cc1ccccc1C(=O)[N-]c1cc(S(=O)(=O)N2CCCCC2)ccc1O (protonated)
Cc1ccccc1C(=O)[N-]c1cc(S(=O)(=O)N2CCCCC2)ccc1O (3D coordinates assigned)
Cc1ccccc1C(=O)[N-]c1cc(S(=O)(=O)N2CCCCC2)ccc1O (nonaromatic ring conformer: 60.182965933520016 kcal/mol)

>  <smiles>  (1) 
Cc1ccccc1C(=O)Nc1cc(S(=O)(=O)N2CCCCC2)ccc1O

>  <score_type>  (1) 
oracle

>  <origin>  (1) 
adgpu

>  <m_score__min__energy>  (1) 
-11.26

>  <m_primary>  (1) 
energy

$$$$
1:0
     RDKit          3D

 45 48  0  0  0  0  0  0  0  0999 V2000
   -1.3080   21.3810  -27.0620 C   0  0  0  0  0  0  0  0  0  0  0  0
   -1.9330   22.4290  -27.9460 C   0  0  0  0  0  0  0  0  0  0  0  0
   -3.0560   22.0720  -28.7090 C   0  0  0  0  0  0  0  0  0  0  0  0
   -3.6840   23.0030  -29.5320 C   0  0  0  0  0  0  0  0  0  0  0  0
   -3.2120   24.3190  -29.6000 C   0  0  0  0  0  0  0  0  0  0  0  0
   -3.8380   25.2970  -30.4450 N   0  0  0  0  0  0  0  0  0  0  0  0
   -5.2160   25.3130  -30.8350 C   0  0  0  0  0  0  0  0  0  0  0  0
   -6.0450   25.9270  -30.1140 O   0  0  0  0  0  0  0  0  0  0  0  0
   -5.6590   24.5490  -31.9640 N   0  0  0  0  0  0  0  0  0  0  0  0
   -6.4970   23.3840  -31.9330 C   0  0  0  0  0  0  0  0  0  0  0  0
   -7.8700   23.4590  -31.6270 C   0  0  0  0  0  0  0  0  0  0  0  0
   -8.6560   22.3010  -31.6260 C   0  0  0  0  0  0  0  0  0  0  0  0
   -8.0810   21.0690  -31.9420 C   0  0  0  0  0  0  0  0  0  0  0  0
   -6.7290   20.9950  -32.2970 C   0  0  0  0  0  0  0  0  0  0  0  0
   -5.9380   22.1470  -32.2860 C   0  0  0  0  0  0  0  0  0  0  0  0
   -6.1870   19.7580  -32.6620 O   0  0  0  0  0  0  0  0  0  0  0  0
   -7.0300   18.6370  -32.9430 C   0  0  0  0  0  0  0  0  0  0  0  0
   -8.2180   18.6090  -31.9730 C   0  0  0  0  0  0  0  0  0  0  0  0
   -8.8420   19.8950  -31.9170 O   0  0  0  0  0  0  0  0  0  0  0  0
   -2.0640   24.6810  -28.8790 C   0  0  0  0  0  0  0  0  0  0  0  0
   -1.6000   25.9890  -28.9790 O   0  0  0  0  0  0  0  0  0  0  0  0
   -1.4020   23.7410  -28.0570 C   0  0  0  0  0  0  0  0  0  0  0  0
    0.0530   24.2300  -27.1490 S   0  0  0  0  0  0  0  0  0  0  0  0
    0.7350   23.0060  -26.6040 O   0  0  0  0  0  0  0  0  0  0  0  0
    1.0310   24.9150  -28.0610 O   0  0  0  0  0  0  0  0  0  0  0  0
   -0.3110   25.3350  -25.7810 C   0  0  0  0  0  0  0  0  0  0  0  0
   -0.8560   26.6860  -26.2190 C   0  0  0  0  0  0  0  0  0  0  0  0
   -1.7720   25.6840  -25.5390 C   0  0  0  0  0  0  0  0  0  0  0  0
   -1.4676   21.6485  -26.0070 H   0  0  0  0  0  0  0  0  0  0  0  0
   -1.7715   20.4047  -27.2668 H   0  0  0  0  0  0  0  0  0  0  0  0
   -0.2287   21.3247  -27.2668 H   0  0  0  0  0  0  0  0  0  0  0  0
   -3.4445   21.0443  -28.6560 H   0  0  0  0  0  0  0  0  0  0  0  0
   -4.5557   22.7028  -30.1320 H   0  0  0  0  0  0  0  0  0  0  0  0
   -8.3260   24.4311  -31.3880 H   0  0  0  0  0  0  0  0  0  0  0  0
   -9.7256   22.3617  -31.3765 H   0  0  0  0  0  0  0  0  0  0  0  0
   -4.8733   22.0834  -32.5551 H   0  0  0  0  0  0  0  0  0  0  0  0
   -7.4050   18.7143  -33.9742 H   0  0  0  0  0  0  0  0  0  0  0  0
   -6.4475   17.7117  -32.8227 H   0  0  0  0  0  0  0  0  0  0  0  0
   -8.9508   17.8645  -32.3177 H   0  0  0  0  0  0  0  0  0  0  0  0
   -7.8550   18.3428  -30.9693 H   0  0  0  0  0  0  0  0  0  0  0  0
    0.5000   24.9700  -25.1337 H   0  0  0  0  0  0  0  0  0  0  0  0
   -0.5509   27.6001  -25.6886 H   0  0  0  0  0  0  0  0  0  0  0  0
   -0.8812   27.2439  -27.1667 H   0  0  0  0  0  0  0  0  0  0  0  0
   -2.1302   25.8724  -24.5162 H   0  0  0  0  0  0  0  0  0  0  0  0
   -2.7351   25.2158  -25.7903 H   0  0  0  0  0  0  0  0  0  0  0  0
  1  2  1  0
  2  3  2  0
  3  4  1  0
  4  5  2  0
  5  6  1  0
  6  7  1  0
  7  8  2  0
  7  9  1  0
  9 10  1  0
 10 11  2  0
 11 12  1  0
 12 13  2  0
 13 14  1  0
 14 15  2  0
 14 16  1  0
 16 17  1  0
 17 18  1  0
 18 19  1  0
  5 20  1  0
 20 21  1  0
 20 22  2  0
 22 23  1  0
 23 24  2  0
 23 25  2  0
 23 26  1  0
 26 27  1  0
 27 28  1  0
 22  2  1  0
 28 26  1  0
 15 10  1  0
 19 13  1  0
  1 29  1  0
  1 30  1  0
  1 31  1  0
  3 32  1  0
  4 33  1  0
 11 34  1  0
 12 35  1  0
 15 36  1  0
 17 37  1  0
 17 38  1  0
 18 39  1  0
 18 40  1  0
 26 41  1  0
 27 42  1  0
 27 43  1  0
 28 44  1  0
 28 45  1  0
M  CHG  3   6  -1   9  -1  21  -1
M  END
>  <UniqueID>  (2) 
2

>  <SMILES>  (2) 
Cc1ccc([N-]C(=O)[N-]c2ccc3c(c2)OCCO3)c([O-])c1S(=O)(=O)C1CC1

>  <Energy>  (2) 
322.1634690511149

>  <Genealogy>  (2) 
Cc1ccc([N-]C(=O)[N-]c2ccc3c(c2)OCCO3)c([O-])c1S(=O)(=O)C1CC1 (protonated)
Cc1ccc([N-]C(=O)[N-]c2ccc3c(c2)OCCO3)c([O-])c1S(=O)(=O)C1CC1 (3D coordinates assigned)
Cc1ccc([N-]C(=O)[N-]c2ccc3c(c2)OCCO3)c([O-])c1S(=O)(=O)C1CC1 (nonaromatic ring conformer: 322.1634690511149 kcal/mol)

>  <smiles>  (2) 
Cc1ccc(NC(=O)Nc2ccc3c(c2)OCCO3)c(O)c1S(=O)(=O)C1CC1

>  <score_type>  (2) 
oracle

>  <origin>  (2) 
adgpu

>  <m_score__min__energy>  (2) 
-15.01

>  <m_primary>  (2) 
energy

$$$$
2:0
     RDKit          3D

 56 59  0  0  0  0  0  0  0  0999 V2000
   -8.3810   19.8960  -31.5470 C   0  0  0  0  0  0  0  0  0  0  0  0
   -7.5560   21.1520  -31.6580 C   0  0  0  0  0  0  0  0  0  0  0  0
   -8.0430   22.3210  -31.0570 C   0  0  0  0  0  0  0  0  0  0  0  0
   -7.3030   23.4990  -31.0850 C   0  0  0  0  0  0  0  0  0  0  0  0
   -6.0530   23.5330  -31.7030 C   0  0  0  0  0  0  0  0  0  0  0  0
   -5.2930   24.7450  -31.6230 N   0  0  0  0  0  0  0  0  0  0  0  0
   -4.8900   25.3610  -30.3940 C   0  0  0  0  0  0  0  0  0  0  0  0
   -5.7150   26.0360  -29.7240 O   0  0  0  0  0  0  0  0  0  0  0  0
   -3.5300   25.2870  -29.9520 N   0  0  0  0  0  0  0  0  0  0  0  0
   -2.8640   24.1150  -29.4620 C   0  0  0  0  0  0  0  0  0  0  0  0
   -3.6260   22.9730  -29.1820 C   0  0  0  0  0  0  0  0  0  0  0  0
   -3.0120   21.8080  -28.7160 C   0  0  0  0  0  0  0  0  0  0  0  0
   -1.6240   21.7650  -28.5380 C   0  0  0  0  0  0  0  0  0  0  0  0
   -0.8740   20.2950  -27.9220 S   0  0  0  0  0  0  0  0  0  0  0  0
    0.3270   20.6760  -27.1030 O   0  0  0  0  0  0  0  0  0  0  0  0
   -1.8390   19.5450  -27.0450 O   0  0  0  0  0  0  0  0  0  0  0  0
   -0.3810   19.2810  -29.2580 N   0  0  0  0  0  0  0  0  0  0  0  0
    1.0910   19.2530  -29.3490 C   0  0  0  0  0  0  0  0  0  0  0  0
    1.5400   18.8090  -30.7520 C   0  0  0  0  0  0  0  0  0  0  0  0
    1.0650   19.6320  -31.8120 O   0  0  0  0  0  0  0  0  0  0  0  0
   -0.0540   20.4290  -31.4600 C   0  0  0  0  0  0  0  0  0  0  0  0
   -1.0310   19.7060  -30.5180 C   0  0  0  0  0  0  0  0  0  0  0  0
   -0.8520   22.8950  -28.8440 C   0  0  0  0  0  0  0  0  0  0  0  0
   -1.4660   24.0610  -29.3130 C   0  0  0  0  0  0  0  0  0  0  0  0
   -5.5770   22.3930  -32.3870 C   0  0  0  0  0  0  0  0  0  0  0  0
   -4.3780   22.4440  -33.1040 O   0  0  0  0  0  0  0  0  0  0  0  0
   -6.3270   21.1930  -32.3700 C   0  0  0  0  0  0  0  0  0  0  0  0
   -5.6960   19.7410  -33.1950 S   0  0  0  0  0  0  0  0  0  0  0  0
   -6.4870   19.4930  -34.4480 O   0  0  0  0  0  0  0  0  0  0  0  0
   -4.2650   19.9500  -33.6100 O   0  0  0  0  0  0  0  0  0  0  0  0
   -5.7810   18.2720  -32.1650 C   0  0  0  0  0  0  0  0  0  0  0  0
   -6.7010   17.1950  -32.7190 C   0  0  0  0  0  0  0  0  0  0  0  0
   -5.1960   16.9890  -32.7410 C   0  0  0  0  0  0  0  0  0  0  0  0
   -8.5398   19.6542  -30.4857 H   0  0  0  0  0  0  0  0  0  0  0  0
   -9.3534   20.0515  -32.0371 H   0  0  0  0  0  0  0  0  0  0  0  0
   -7.8520   19.0654  -32.0371 H   0  0  0  0  0  0  0  0  0  0  0  0
   -9.0226   22.3069  -30.5569 H   0  0  0  0  0  0  0  0  0  0  0  0
   -7.7063   24.4091  -30.6169 H   0  0  0  0  0  0  0  0  0  0  0  0
   -4.7158   22.9940  -29.3302 H   0  0  0  0  0  0  0  0  0  0  0  0
   -3.6214   20.9210  -28.4880 H   0  0  0  0  0  0  0  0  0  0  0  0
    1.4847   20.2598  -29.1455 H   0  0  0  0  0  0  0  0  0  0  0  0
    1.4778   18.5358  -28.6101 H   0  0  0  0  0  0  0  0  0  0  0  0
    2.6397   18.8150  -30.7787 H   0  0  0  0  0  0  0  0  0  0  0  0
    1.1111   17.8094  -30.9159 H   0  0  0  0  0  0  0  0  0  0  0  0
    0.3071   21.3396  -30.9595 H   0  0  0  0  0  0  0  0  0  0  0  0
   -0.5993   20.6602  -32.3869 H   0  0  0  0  0  0  0  0  0  0  0  0
   -1.8602   20.3873  -30.2767 H   0  0  0  0  0  0  0  0  0  0  0  0
   -1.3917   18.8035  -31.0332 H   0  0  0  0  0  0  0  0  0  0  0  0
    0.2400   22.8643  -28.7148 H   0  0  0  0  0  0  0  0  0  0  0  0
   -0.8536   24.9390  -29.5663 H   0  0  0  0  0  0  0  0  0  0  0  0
   -4.2780   22.0770  -34.0410 H   0  0  0  0  0  0  0  0  0  0  0  0
   -5.6551   18.8035  -31.2102 H   0  0  0  0  0  0  0  0  0  0  0  0
   -7.3270   16.6021  -32.0359 H   0  0  0  0  0  0  0  0  0  0  0  0
   -7.5000   17.1689  -33.4746 H   0  0  0  0  0  0  0  0  0  0  0  0
   -4.7325   16.2477  -32.0735 H   0  0  0  0  0  0  0  0  0  0  0  0
   -4.4545   16.7526  -33.5184 H   0  0  0  0  0  0  0  0  0  0  0  0
  1  2  1  0
  2  3  2  0
  3  4  1  0
  4  5  2  0
  5  6  1  0
  6  7  1  0
  7  8  2  0
  7  9  1  0
  9 10  1  0
 10 11  2  0
 11 12  1  0
 12 13  2  0
 13 14  1  0
 14 15  2  0
 14 16  2  0
 14 17  1  0
 17 18  1  0
 18 19  1  0
 19 20  1  0
 20 21  1  0
 21 22  1  0
 13 23  1  0
 23 24  2  0
  5 25  1  0
 25 26  1  0
 25 27  2  0
 27 28  1  0
 28 29  2  0
 28 30  2  0
 28 31  1  0
 31 32  1  0
 32 33  1  0
 27  2  1  0
 33 31  1  0
 24 10  1  0
 22 17  1  0
  1 34  1  0
  1 35  1  0
  1 36  1  0
  3 37  1  0
  4 38  1  0
 11 39  1  0
 12 40  1  0
 18 41  1  0
 18 42  1  0
 19 43  1  0
 19 44  1  0
 21 45  1  0
 21 46  1  0
 22 47  1  0
 22 48  1  0
 23 49  1  0
 24 50  1  0
 26 51  1  0
 31 52  1  0
 32 53  1  0
 32 54  1  0
 33 55  1  0
 33 56  1  0
M  CHG  2   6  -1   9  -1
M  END
>  <UniqueID>  (3) 
3

>  <SMILES>  (3) 
Cc1ccc([N-]C(=O)[N-]c2ccc(S(=O)(=O)N3CCOCC3)cc2)c(O)c1S(=O)(=O)C1CC1

>  <Energy>  (3) 
347.07222428053814

>  <Genealogy>  (3) 
Cc1ccc([N-]C(=O)[N-]c2ccc(S(=O)(=O)N3CCOCC3)cc2)c(O)c1S(=O)(=O)C1CC1 (protonated)
Cc1ccc([N-]C(=O)[N-]c2ccc(S(=O)(=O)N3CCOCC3)cc2)c(O)c1S(=O)(=O)C1CC1 (3D coordinates assigned)
Cc1ccc([N-]C(=O)[N-]c2ccc(S(=O)(=O)N3CCOCC3)cc2)c(O)c1S(=O)(=O)C1CC1 (nonaromatic ring conformer: 347.07222428053814 kcal/mol)

>  <smiles>  (3) 
Cc1ccc(NC(=O)Nc2ccc(S(=O)(=O)N3CCOCC3)cc2)c(O)c1S(=O)(=O)C1CC1

>  <score_type>  (3) 
oracle

>  <origin>  (3) 
adgpu

>  <m_score__min__energy>  (3) 
-14.050000000000001

>  <m_primary>  (3) 
energy

$$$$
3:0
     RDKit          3D

 39 41  0  0  0  0  0  0  0  0999 V2000
   -6.1340   16.5280  -32.9960 C   0  0  0  0  0  0  0  0  0  0  0  0
   -6.6310   17.8820  -32.6200 C   0  0  0  0  0  0  0  0  0  0  0  0
   -6.8400   18.9400  -33.4800 C   0  0  0  0  0  0  0  0  0  0  0  0
   -7.3120   19.9230  -32.6410 C   0  0  0  0  0  0  0  0  0  0  0  0
   -7.6490   21.1170  -33.0190 N   0  0  0  0  0  0  0  0  0  0  0  0
   -8.2410   22.3230  -31.9250 S   0  0  0  0  0  0  0  0  0  0  0  0
   -9.1550   21.6910  -30.9130 O   0  0  0  0  0  0  0  0  0  0  0  0
   -9.0010   23.3740  -32.6870 O   0  0  0  0  0  0  0  0  0  0  0  0
   -6.8750   23.0650  -31.1020 C   0  0  0  0  0  0  0  0  0  0  0  0
   -5.5680   22.6430  -31.3810 C   0  0  0  0  0  0  0  0  0  0  0  0
   -4.4820   23.2420  -30.7370 C   0  0  0  0  0  0  0  0  0  0  0  0
   -4.6890   24.2670  -29.7970 C   0  0  0  0  0  0  0  0  0  0  0  0
   -3.5890   24.9190  -29.1410 N   0  0  0  0  0  0  0  0  0  0  0  0
   -3.1760   24.6410  -27.7910 C   0  0  0  0  0  0  0  0  0  0  0  0
   -3.8020   23.7950  -27.0950 O   0  0  0  0  0  0  0  0  0  0  0  0
   -2.0130   25.3340  -27.1980 C   0  0  0  0  0  0  0  0  0  0  0  0
   -1.8520   25.3310  -25.8000 C   0  0  0  0  0  0  0  0  0  0  0  0
   -0.7580   25.9710  -25.2110 C   0  0  0  0  0  0  0  0  0  0  0  0
    0.1800   26.6280  -26.0080 C   0  0  0  0  0  0  0  0  0  0  0  0
    0.0220   26.6570  -27.3960 C   0  0  0  0  0  0  0  0  0  0  0  0
   -1.0740   26.0240  -27.9940 C   0  0  0  0  0  0  0  0  0  0  0  0
   -1.2350   26.1160  -29.3720 O   0  0  0  0  0  0  0  0  0  0  0  0
   -5.9960   24.7090  -29.5480 C   0  0  0  0  0  0  0  0  0  0  0  0
   -7.0830   24.1090  -30.1910 C   0  0  0  0  0  0  0  0  0  0  0  0
   -7.3810   19.4750  -31.3720 N   0  0  0  0  0  0  0  0  0  0  0  0
   -6.9650   18.2430  -31.4000 O   0  0  0  0  0  0  0  0  0  0  0  0
   -5.9216   15.9493  -32.0849 H   0  0  0  0  0  0  0  0  0  0  0  0
   -6.9000   16.0082  -33.5903 H   0  0  0  0  0  0  0  0  0  0  0  0
   -5.2137   16.6272  -33.5903 H   0  0  0  0  0  0  0  0  0  0  0  0
   -6.6713   18.9863  -34.5660 H   0  0  0  0  0  0  0  0  0  0  0  0
   -5.3963   21.8371  -32.1098 H   0  0  0  0  0  0  0  0  0  0  0  0
   -3.4589   22.9096  -30.9669 H   0  0  0  0  0  0  0  0  0  0  0  0
   -3.0970   25.6730  -29.6700 H   0  0  0  0  0  0  0  0  0  0  0  0
   -2.5926   24.8212  -25.1662 H   0  0  0  0  0  0  0  0  0  0  0  0
   -0.6363   25.9567  -24.1178 H   0  0  0  0  0  0  0  0  0  0  0  0
    1.0449   27.1237  -25.5431 H   0  0  0  0  0  0  0  0  0  0  0  0
    0.7615   27.1791  -28.0210 H   0  0  0  0  0  0  0  0  0  0  0  0
   -6.1676   25.5343  -28.8413 H   0  0  0  0  0  0  0  0  0  0  0  0
   -8.1049   24.4578  -29.9809 H   0  0  0  0  0  0  0  0  0  0  0  0
  1  2  1  0
  2  3  2  0
  3  4  1  0
  4  5  2  3
  5  6  1  0
  6  7  2  0
  6  8  2  0
  6  9  1  0
  9 10  2  0
 10 11  1  0
 11 12  2  0
 12 13  1  0
 13 14  1  0
 14 15  2  0
 14 16  1  0
 16 17  2  0
 17 18  1  0
 18 19  2  0
 19 20  1  0
 20 21  2  0
 21 22  1  0
 12 23  1  0
 23 24  2  0
  4 25  1  0
 25 26  1  0
 26  2  1  0
 24  9  1  0
 21 16  1  0
  1 27  1  0
  1 28  1  0
  1 29  1  0
  3 30  1  0
 10 31  1  0
 11 32  1  0
 13 33  1  0
 17 34  1  0
 18 35  1  0
 19 36  1  0
 20 37  1  0
 23 38  1  0
 24 39  1  0
M  CHG  2  22  -1  25  -1
M  END
>  <UniqueID>  (4) 
4

>  <SMILES>  (4) 
Cc1cc(=NS(=O)(=O)c2ccc(NC(=O)c3ccccc3[O-])cc2)[n-]o1

>  <Energy>  (4) 
83.91740683627421

>  <Genealogy>  (4) 
Cc1cc(=NS(=O)(=O)c2ccc(NC(=O)c3ccccc3[O-])cc2)[n-]o1 (protonated)
Cc1cc(=NS(=O)(=O)c2ccc(NC(=O)c3ccccc3[O-])cc2)[n-]o1 (3D coordinates assigned)
Cc1cc(=NS(=O)(=O)c2ccc(NC(=O)c3ccccc3[O-])cc2)[n-]o1 (optimized conformer: 83.91740683627421 kcal/mol)

>  <smiles>  (4) 
Cc1cc(=NS(=O)(=O)c2ccc(NC(=O)c3ccccc3O)cc2)[nH]o1

>  <score_type>  (4) 
oracle

>  <origin>  (4) 
adgpu

>  <m_score__min__energy>  (4) 
-11.77

>  <m_primary>  (4) 
energy

$$$$
4:0
     RDKit          3D

 60 64  0  0  0  0  0  0  0  0999 V2000
    0.7900   23.0150  -24.1130 C   0  0  0  0  0  0  0  0  0  0  0  0
    0.1560   22.8150  -25.4600 C   0  0  0  0  0  0  0  0  0  0  0  0
   -0.9290   21.9330  -25.5980 C   0  0  0  0  0  0  0  0  0  0  0  0
   -1.5230   21.7240  -26.8480 C   0  0  0  0  0  0  0  0  0  0  0  0
   -1.0620   22.4170  -27.9840 C   0  0  0  0  0  0  0  0  0  0  0  0
   -1.6670   22.2520  -29.3410 C   0  0  0  0  0  0  0  0  0  0  0  0
   -1.5230   21.1060  -30.0410 N   0  0  0  0  0  0  0  0  0  0  0  0
   -2.1700   21.2230  -31.1890 N   0  0  0  0  0  0  0  0  0  0  0  0
   -2.1540   20.2160  -32.2150 C   0  0  0  0  0  0  0  0  0  0  0  0
   -3.3610   19.6320  -32.6480 C   0  0  0  0  0  0  0  0  0  0  0  0
   -3.3490   18.6190  -33.6140 C   0  0  0  0  0  0  0  0  0  0  0  0
   -2.1320   18.1710  -34.1440 C   0  0  0  0  0  0  0  0  0  0  0  0
   -0.9260   18.7440  -33.7180 C   0  0  0  0  0  0  0  0  0  0  0  0
   -0.9370   19.7640  -32.7620 C   0  0  0  0  0  0  0  0  0  0  0  0
   -2.7600   22.4300  -31.2510 C   0  0  0  0  0  0  0  0  0  0  0  0
   -2.4540   23.1260  -30.1010 C   0  0  0  0  0  0  0  0  0  0  0  0
   -2.8440   24.5280  -29.8690 C   0  0  0  0  0  0  0  0  0  0  0  0
   -2.0360   25.2950  -29.2790 O   0  0  0  0  0  0  0  0  0  0  0  0
   -4.1180   25.0430  -30.2860 N   0  0  0  0  0  0  0  0  0  0  0  0
   -5.2690   24.2570  -30.6220 C   0  0  0  0  0  0  0  0  0  0  0  0
   -5.7390   24.1710  -31.9440 C   0  0  0  0  0  0  0  0  0  0  0  0
   -6.8620   23.3950  -32.2450 C   0  0  0  0  0  0  0  0  0  0  0  0
   -7.5310   22.6980  -31.2290 C   0  0  0  0  0  0  0  0  0  0  0  0
   -8.9670   21.7420  -31.6080 S   0  0  0  0  0  0  0  0  0  0  0  0
   -9.8940   22.5690  -32.4560 O   0  0  0  0  0  0  0  0  0  0  0  0
   -9.6830   21.4020  -30.3280 O   0  0  0  0  0  0  0  0  0  0  0  0
   -8.5850   20.2670  -32.4660 N   0  0  0  0  0  0  0  0  0  0  0  0
   -7.1990   20.2530  -32.9340 C   0  0  0  0  0  0  0  0  0  0  0  0
   -6.8330   18.7870  -33.1120 C   0  0  0  0  0  0  0  0  0  0  0  0
   -7.8150   18.0210  -32.2360 C   0  0  0  0  0  0  0  0  0  0  0  0
   -8.7210   19.0800  -31.6250 C   0  0  0  0  0  0  0  0  0  0  0  0
   -7.0390   22.7520  -29.9150 C   0  0  0  0  0  0  0  0  0  0  0  0
   -5.9040   23.5140  -29.6180 C   0  0  0  0  0  0  0  0  0  0  0  0
    0.0430   23.2940  -27.8340 C   0  0  0  0  0  0  0  0  0  0  0  0
    0.6410   23.4920  -26.5870 C   0  0  0  0  0  0  0  0  0  0  0  0
    0.0578   22.7840  -23.3252 H   0  0  0  0  0  0  0  0  0  0  0  0
    1.6584   22.3472  -24.0137 H   0  0  0  0  0  0  0  0  0  0  0  0
    1.1180   24.0602  -24.0137 H   0  0  0  0  0  0  0  0  0  0  0  0
   -1.3152   21.4019  -24.7155 H   0  0  0  0  0  0  0  0  0  0  0  0
   -2.3566   21.0127  -26.9438 H   0  0  0  0  0  0  0  0  0  0  0  0
   -4.3172   19.9737  -32.2250 H   0  0  0  0  0  0  0  0  0  0  0  0
   -4.2951   18.1748  -33.9569 H   0  0  0  0  0  0  0  0  0  0  0  0
   -2.1230   17.3681  -34.8958 H   0  0  0  0  0  0  0  0  0  0  0  0
    0.0286   18.3914  -34.1356 H   0  0  0  0  0  0  0  0  0  0  0  0
    0.0107   20.2165  -32.4348 H   0  0  0  0  0  0  0  0  0  0  0  0
   -3.3819   22.7996  -32.0796 H   0  0  0  0  0  0  0  0  0  0  0  0
   -5.2204   24.7172  -32.7457 H   0  0  0  0  0  0  0  0  0  0  0  0
   -7.2220   23.3310  -33.2824 H   0  0  0  0  0  0  0  0  0  0  0  0
   -7.1132   20.7876  -33.8915 H   0  0  0  0  0  0  0  0  0  0  0  0
   -6.5272   20.7530  -32.2208 H   0  0  0  0  0  0  0  0  0  0  0  0
   -6.9408   18.4877  -34.1650 H   0  0  0  0  0  0  0  0  0  0  0  0
   -5.7886   18.5870  -32.8306 H   0  0  0  0  0  0  0  0  0  0  0  0
   -8.4020   17.3152  -32.8420 H   0  0  0  0  0  0  0  0  0  0  0  0
   -7.3002   17.4284  -31.4654 H   0  0  0  0  0  0  0  0  0  0  0  0
   -9.7648   18.7328  -31.6212 H   0  0  0  0  0  0  0  0  0  0  0  0
   -8.4422   19.2932  -30.5825 H   0  0  0  0  0  0  0  0  0  0  0  0
   -7.5480   22.1930  -29.1160 H   0  0  0  0  0  0  0  0  0  0  0  0
   -5.5083   23.5299  -28.5918 H   0  0  0  0  0  0  0  0  0  0  0  0
    0.4350   23.8264  -28.7132 H   0  0  0  0  0  0  0  0  0  0  0  0
    1.4936   24.1802  -26.4897 H   0  0  0  0  0  0  0  0  0  0  0  0
  1  2  1  0
  2  3  2  0
  3  4  1  0
  4  5  2  0
  5  6  1  0
  6  7  2  0
  7  8  1  0
  8  9  1  0
  9 10  2  0
 10 11  1  0
 11 12  2  0
 12 13  1  0
 13 14  2  0
  8 15  1  0
 15 16  2  0
 16 17  1  0
 17 18  2  0
 17 19  1  0
 19 20  1  0
 20 21  2  0
 21 22  1  0
 22 23  2  0
 23 24  1  0
 24 25  2  0
 24 26  2  0
 24 27  1  0
 27 28  1  0
 28 29  1  0
 29 30  1  0
 30 31  1  0
 23 32  1  0
 32 33  2  0
  5 34  1  0
 34 35  2  0
 35  2  1  0
 16  6  1  0
 33 20  1  0
 14  9  1  0
 31 27  1  0
  1 36  1  0
  1 37  1  0
  1 38  1  0
  3 39  1  0
  4 40  1  0
 10 41  1  0
 11 42  1  0
 12 43  1  0
 13 44  1  0
 14 45  1  0
 15 46  1  0
 21 47  1  0
 22 48  1  0
 28 49  1  0
 28 50  1  0
 29 51  1  0
 29 52  1  0
 30 53  1  0
 30 54  1  0
 31 55  1  0
 31 56  1  0
 32 57  1  0
 33 58  1  0
 34 59  1  0
 35 60  1  0
M  CHG  1  19  -1
M  END
>  <UniqueID>  (5) 
5

>  <SMILES>  (5) 
Cc1ccc(-c2nn(-c3ccccc3)cc2C(=O)[N-]c2ccc(S(=O)(=O)N3CCCC3)cc2)cc1

>  <Energy>  (5) 
112.42354877985763

>  <Genealogy>  (5) 
Cc1ccc(-c2nn(-c3ccccc3)cc2C(=O)[N-]c2ccc(S(=O)(=O)N3CCCC3)cc2)cc1 (protonated)
Cc1ccc(-c2nn(-c3ccccc3)cc2C(=O)[N-]c2ccc(S(=O)(=O)N3CCCC3)cc2)cc1 (3D coordinates assigned)
Cc1ccc(-c2nn(-c3ccccc3)cc2C(=O)[N-]c2ccc(S(=O)(=O)N3CCCC3)cc2)cc1 (nonaromatic ring conformer: 112.42354877985763 kcal/mol)

>  <smiles>  (5) 
Cc1ccc(-c2nn(-c3ccccc3)cc2C(=O)Nc2ccc(S(=O)(=O)N3CCCC3)cc2)cc1

>  <score_type>  (5) 
oracle

>  <origin>  (5) 
adgpu

>  <m_score__min__energy>  (5) 
-12.17

>  <m_primary>  (5) 
energy

$$$$
5:0
     RDKit          3D

 41 43  0  0  0  0  0  0  0  0999 V2000
   -7.3900   22.5470  -31.9520 C   0  0  0  0  0  0  0  0  0  0  0  0
   -5.9530   22.1150  -32.0780 C   0  0  0  0  0  0  0  0  0  0  0  0
   -5.6660   20.9170  -32.7540 C   0  0  0  0  0  0  0  0  0  0  0  0
   -4.3480   20.4850  -32.9110 C   0  0  0  0  0  0  0  0  0  0  0  0
   -3.2910   21.2430  -32.3950 C   0  0  0  0  0  0  0  0  0  0  0  0
   -1.8660   20.7800  -32.5610 C   0  0  0  0  0  0  0  0  0  0  0  0
   -1.2710   20.4560  -31.2630 N   0  0  0  0  0  0  0  0  0  0  0  0
   -1.4150   21.2630  -30.0780 C   0  0  0  0  0  0  0  0  0  0  0  0
   -2.0910   20.7890  -28.9330 C   0  0  0  0  0  0  0  0  0  0  0  0
   -2.2220   21.5970  -27.8000 C   0  0  0  0  0  0  0  0  0  0  0  0
   -1.6770   22.8830  -27.7930 C   0  0  0  0  0  0  0  0  0  0  0  0
   -1.7970   23.6820  -26.7000 N   0  0  0  0  0  0  0  0  0  0  0  0
   -1.2710   24.9360  -26.6770 C   0  0  0  0  0  0  0  0  0  0  0  0
   -1.4280   25.7810  -25.4480 C   0  0  0  0  0  0  0  0  0  0  0  0
   -0.5910   25.4140  -27.8110 C   0  0  0  0  0  0  0  0  0  0  0  0
   -0.0910   26.5710  -27.8250 O   0  0  0  0  0  0  0  0  0  0  0  0
   -0.4700   24.6170  -28.9050 N   0  0  0  0  0  0  0  0  0  0  0  0
   -0.9950   23.3640  -28.9270 C   0  0  0  0  0  0  0  0  0  0  0  0
   -0.8650   22.5560  -30.0600 C   0  0  0  0  0  0  0  0  0  0  0  0
   -3.5660   22.4530  -31.7440 C   0  0  0  0  0  0  0  0  0  0  0  0
   -4.8860   22.9020  -31.5790 C   0  0  0  0  0  0  0  0  0  0  0  0
   -5.1660   24.4390  -30.7390 S   0  0  0  0  0  0  0  0  0  0  0  0
   -3.6710   25.2800  -30.5270 N   0  0  0  0  0  0  0  0  0  0  0  0
   -5.7610   24.1850  -29.3820 O   0  0  0  0  0  0  0  0  0  0  0  0
   -6.1260   25.2810  -31.5320 O   0  0  0  0  0  0  0  0  0  0  0  0
   -7.6568   22.6272  -30.8879 H   0  0  0  0  0  0  0  0  0  0  0  0
   -7.5229   23.5248  -32.4380 H   0  0  0  0  0  0  0  0  0  0  0  0
   -8.0400   21.8046  -32.4380 H   0  0  0  0  0  0  0  0  0  0  0  0
   -6.4889   20.3131  -33.1639 H   0  0  0  0  0  0  0  0  0  0  0  0
   -4.1394   19.5448  -33.4425 H   0  0  0  0  0  0  0  0  0  0  0  0
   -1.8497   19.8841  -33.1991 H   0  0  0  0  0  0  0  0  0  0  0  0
   -1.2833   21.5900  -33.0241 H   0  0  0  0  0  0  0  0  0  0  0  0
   -0.6590   19.6100  -31.2180 H   0  0  0  0  0  0  0  0  0  0  0  0
   -2.5182   19.7754  -28.9324 H   0  0  0  0  0  0  0  0  0  0  0  0
   -2.7542   21.2202  -26.9141 H   0  0  0  0  0  0  0  0  0  0  0  0
   -1.3111   25.1520  -24.5532 H   0  0  0  0  0  0  0  0  0  0  0  0
   -0.6610   26.5695  -25.4447 H   0  0  0  0  0  0  0  0  0  0  0  0
   -2.4270   26.2413  -25.4447 H   0  0  0  0  0  0  0  0  0  0  0  0
   -0.3290   22.9345  -30.9429 H   0  0  0  0  0  0  0  0  0  0  0  0
   -2.7349   23.0604  -31.3563 H   0  0  0  0  0  0  0  0  0  0  0  0
   -3.6380   26.0450  -31.2370 H   0  0  0  0  0  0  0  0  0  0  0  0
  1  2  1  0
  2  3  2  0
  3  4  1  0
  4  5  2  0
  5  6  1  0
  6  7  1  0
  7  8  1  0
  8  9  2  0
  9 10  1  0
 10 11  2  0
 11 12  1  0
 12 13  2  0
 13 14  1  0
 13 15  1  0
 15 16  2  0
 15 17  1  0
 17 18  1  0
 18 19  2  0
  5 20  1  0
 20 21  2  0
 21 22  1  0
 22 23  1  0
 22 24  2  0
 22 25  2  0
 21  2  1  0
 19  8  1  0
 18 11  1  0
  1 26  1  0
  1 27  1  0
  1 28  1  0
  3 29  1  0
  4 30  1  0
  6 31  1  0
  6 32  1  0
  7 33  1  0
  9 34  1  0
 10 35  1  0
 14 36  1  0
 14 37  1  0
 14 38  1  0
 19 39  1  0
 20 40  1  0
 23 41  1  0
M  CHG  2  17  -1  23  -1
M  END
>  <UniqueID>  (6) 
6

>  <SMILES>  (6) 
Cc1ccc(CNc2ccc3nc(C)c(=O)[n-]c3c2)cc1S([NH-])(=O)=O

>  <Energy>  (6) 
47.733752730194354

>  <Genealogy>  (6) 
Cc1ccc(CNc2ccc3nc(C)c(=O)[n-]c3c2)cc1S([NH-])(=O)=O (protonated)
Cc1ccc(CNc2ccc3nc(C)c(=O)[n-]c3c2)cc1S([NH-])(=O)=O (3D coordinates assigned)
Cc1ccc(CNc2ccc3nc(C)c(=O)[n-]c3c2)cc1S([NH-])(=O)=O (optimized conformer: 47.733752730194354 kcal/mol)

>  <smiles>  (6) 
Cc1ccc(CNc2ccc3nc(C)c(=O)[nH]c3c2)cc1S(N)(=O)=O

>  <score_type>  (6) 
oracle

>  <origin>  (6) 
adgpu

>  <m_score__min__energy>  (6) 
-11.48

>  <m_primary>  (6) 
energy

$$$$
6:0
     RDKit          3D

 57 59  0  0  0  0  0  0  0  0999 V2000
    0.4770   18.9340  -28.3100 C   0  0  0  0  0  0  0  0  0  0  0  0
   -0.8510   19.2520  -28.7150 O   0  0  0  0  0  0  0  0  0  0  0  0
   -1.3340   20.5550  -28.9200 C   0  0  0  0  0  0  0  0  0  0  0  0
   -1.8960   21.3060  -27.8710 C   0  0  0  0  0  0  0  0  0  0  0  0
   -2.3590   22.6030  -28.0950 C   0  0  0  0  0  0  0  0  0  0  0  0
   -2.2780   23.1760  -29.3720 C   0  0  0  0  0  0  0  0  0  0  0  0
   -2.7660   24.5540  -29.6170 C   0  0  0  0  0  0  0  0  0  0  0  0
   -2.2960   25.5070  -28.9390 O   0  0  0  0  0  0  0  0  0  0  0  0
   -3.7980   24.8370  -30.5730 N   0  0  0  0  0  0  0  0  0  0  0  0
   -4.9330   24.0070  -30.8570 C   0  0  0  0  0  0  0  0  0  0  0  0
   -4.8100   22.6190  -30.7230 C   0  0  0  0  0  0  0  0  0  0  0  0
   -5.8960   21.7820  -30.9960 C   0  0  0  0  0  0  0  0  0  0  0  0
   -7.1260   22.3290  -31.3860 C   0  0  0  0  0  0  0  0  0  0  0  0
   -8.4950   21.2890  -31.7680 S   0  0  0  0  0  0  0  0  0  0  0  0
   -9.6040   22.1390  -32.3240 O   0  0  0  0  0  0  0  0  0  0  0  0
   -8.9910   20.6130  -30.5180 O   0  0  0  0  0  0  0  0  0  0  0  0
   -8.0200   20.0900  -32.9430 N   0  0  0  0  0  0  0  0  0  0  0  0
   -8.0020   18.7590  -32.3200 C   0  0  0  0  0  0  0  0  0  0  0  0
   -6.6980   20.4190  -33.4940 C   0  0  0  0  0  0  0  0  0  0  0  0
   -7.2610   23.7190  -31.4980 C   0  0  0  0  0  0  0  0  0  0  0  0
   -6.1740   24.5550  -31.2260 C   0  0  0  0  0  0  0  0  0  0  0  0
   -1.7040   22.4370  -30.4170 C   0  0  0  0  0  0  0  0  0  0  0  0
   -1.2450   21.1280  -30.2050 C   0  0  0  0  0  0  0  0  0  0  0  0
   -0.5290   20.2550  -31.5680 S   0  0  0  0  0  0  0  0  0  0  0  0
   -0.8220   18.7910  -31.3890 O   0  0  0  0  0  0  0  0  0  0  0  0
    0.9650   20.4300  -31.5850 O   0  0  0  0  0  0  0  0  0  0  0  0
   -1.2330   20.8010  -33.0770 N   0  0  0  0  0  0  0  0  0  0  0  0
   -0.8330   19.9560  -34.2150 C   0  0  0  0  0  0  0  0  0  0  0  0
   -1.5810   18.6010  -34.2390 C   0  0  0  0  0  0  0  0  0  0  0  0
   -2.7220   18.5720  -33.4020 O   0  0  0  0  0  0  0  0  0  0  0  0
   -3.4680   19.7570  -33.5630 C   0  0  0  0  0  0  0  0  0  0  0  0
   -2.7010   20.9560  -32.9760 C   0  0  0  0  0  0  0  0  0  0  0  0
    0.5321   18.9208  -27.2115 H   0  0  0  0  0  0  0  0  0  0  0  0
    0.7531   17.9443  -28.7029 H   0  0  0  0  0  0  0  0  0  0  0  0
    1.1714   19.6913  -28.7029 H   0  0  0  0  0  0  0  0  0  0  0  0
   -1.9710   20.8666  -26.8654 H   0  0  0  0  0  0  0  0  0  0  0  0
   -2.7906   23.1800  -27.2639 H   0  0  0  0  0  0  0  0  0  0  0  0
   -3.8524   22.1840  -30.4007 H   0  0  0  0  0  0  0  0  0  0  0  0
   -5.7848   20.6915  -30.9045 H   0  0  0  0  0  0  0  0  0  0  0  0
   -8.7220   20.0910  -33.7200 H   0  0  0  0  0  0  0  0  0  0  0  0
   -8.0035   18.8665  -31.2253 H   0  0  0  0  0  0  0  0  0  0  0  0
   -8.8926   18.1950  -32.6342 H   0  0  0  0  0  0  0  0  0  0  0  0
   -7.0965   18.2193  -32.6342 H   0  0  0  0  0  0  0  0  0  0  0  0
   -5.9908   20.5950  -32.6700 H   0  0  0  0  0  0  0  0  0  0  0  0
   -6.3399   19.5826  -34.1122 H   0  0  0  0  0  0  0  0  0  0  0  0
   -6.7737   21.3257  -34.1122 H   0  0  0  0  0  0  0  0  0  0  0  0
   -8.2250   24.1538  -31.8008 H   0  0  0  0  0  0  0  0  0  0  0  0
   -6.2902   25.6463  -31.3010 H   0  0  0  0  0  0  0  0  0  0  0  0
   -1.6125   22.8894  -31.4155 H   0  0  0  0  0  0  0  0  0  0  0  0
   -1.0504   20.4956  -35.1486 H   0  0  0  0  0  0  0  0  0  0  0  0
    0.2412   19.7430  -34.1118 H   0  0  0  0  0  0  0  0  0  0  0  0
   -1.9012   18.3981  -35.2716 H   0  0  0  0  0  0  0  0  0  0  0  0
   -0.8831   17.8390  -33.8618 H   0  0  0  0  0  0  0  0  0  0  0  0
   -3.6470   19.9302  -34.6344 H   0  0  0  0  0  0  0  0  0  0  0  0
   -4.4260   19.6512  -33.0329 H   0  0  0  0  0  0  0  0  0  0  0  0
   -2.9971   21.8641  -33.5215 H   0  0  0  0  0  0  0  0  0  0  0  0
   -2.9550   21.0215  -31.9077 H   0  0  0  0  0  0  0  0  0  0  0  0
  1  2  1  0
  2  3  1  0
  3  4  2  0
  4  5  1  0
  5  6  2  0
  6  7  1  0
  7  8  2  0
  7  9  1  0
  9 10  1  0
 10 11  2  0
 11 12  1  0
 12 13  2  0
 13 14  1  0
 14 15  2  0
 14 16  2  0
 14 17  1  0
 17 18  1  0
 17 19  1  0
 13 20  1  0
 20 21  2  0
  6 22  1  0
 22 23  2  0
 23 24  1  0
 24 25  2  0
 24 26  2  0
 24 27  1  0
 27 28  1  0
 28 29  1  0
 29 30  1  0
 30 31  1  0
 31 32  1  0
 23  3  1  0
 32 27  1  0
 21 10  1  0
  1 33  1  0
  1 34  1  0
  1 35  1  0
  4 36  1  0
  5 37  1  0
 11 38  1  0
 12 39  1  0
 17 40  1  0
 18 41  1  0
 18 42  1  0
 18 43  1  0
 19 44  1  0
 19 45  1  0
 19 46  1  0
 20 47  1  0
 21 48  1  0
 22 49  1  0
 28 50  1  0
 28 51  1  0
 29 52  1  0
 29 53  1  0
 31 54  1  0
 31 55  1  0
 32 56  1  0
 32 57  1  0
M  CHG  2   9  -1  17   1
M  END
>  <UniqueID>  (7) 
7

>  <SMILES>  (7) 
COc1ccc(C(=O)[N-]c2ccc(S(=O)(=O)[NH+](C)C)cc2)cc1S(=O)(=O)N1CCOCC1

>  <Energy>  (7) 
72.7985791108545

>  <Genealogy>  (7) 
COc1ccc(C(=O)[N-]c2ccc(S(=O)(=O)[NH+](C)C)cc2)cc1S(=O)(=O)N1CCOCC1 (protonated)
COc1ccc(C(=O)[N-]c2ccc(S(=O)(=O)[NH+](C)C)cc2)cc1S(=O)(=O)N1CCOCC1 (3D coordinates assigned)
COc1ccc(C(=O)[N-]c2ccc(S(=O)(=O)[NH+](C)C)cc2)cc1S(=O)(=O)N1CCOCC1 (nonaromatic ring conformer: 72.7985791108545 kcal/mol)

>  <smiles>  (7) 
COc1ccc(C(=O)Nc2ccc(S(=O)(=O)N(C)C)cc2)cc1S(=O)(=O)N1CCOCC1

>  <score_type>  (7) 
oracle

>  <origin>  (7) 
adgpu

>  <m_score__min__energy>  (7) 
-11.09

>  <m_primary>  (7) 
energy

$$$$
7:0
     RDKit          3D

 27 28  0  0  0  0  0  0  0  0999 V2000
   -1.6330   26.0420  -28.9650 O   0  0  0  0  0  0  0  0  0  0  0  0
   -2.0320   24.7590  -29.3270 C   0  0  0  0  0  0  0  0  0  0  0  0
   -1.3080   23.6520  -28.8740 C   0  0  0  0  0  0  0  0  0  0  0  0
   -1.7040   22.3600  -29.2340 C   0  0  0  0  0  0  0  0  0  0  0  0
   -2.8240   22.1670  -30.0580 C   0  0  0  0  0  0  0  0  0  0  0  0
   -3.2590   20.7770  -30.4480 C   0  0  0  0  0  0  0  0  0  0  0  0
   -3.8290   20.7720  -31.7960 N   0  0  0  0  0  0  0  0  0  0  0  0
   -5.2370   20.6360  -32.0860 C   0  0  0  0  0  0  0  0  0  0  0  0
   -6.2140   21.2950  -31.3130 C   0  0  0  0  0  0  0  0  0  0  0  0
   -7.5710   21.1470  -31.6100 C   0  0  0  0  0  0  0  0  0  0  0  0
   -7.9720   20.3470  -32.6800 C   0  0  0  0  0  0  0  0  0  0  0  0
   -7.0160   19.6930  -33.4580 C   0  0  0  0  0  0  0  0  0  0  0  0
   -5.6540   19.8330  -33.1670 C   0  0  0  0  0  0  0  0  0  0  0  0
   -4.7220   19.1660  -33.9550 O   0  0  0  0  0  0  0  0  0  0  0  0
   -3.5530   23.2820  -30.5010 C   0  0  0  0  0  0  0  0  0  0  0  0
   -3.1570   24.5740  -30.1390 C   0  0  0  0  0  0  0  0  0  0  0  0
   -3.8830   25.6720  -30.5880 O   0  0  0  0  0  0  0  0  0  0  0  0
   -0.4256   23.7975  -28.2335 H   0  0  0  0  0  0  0  0  0  0  0  0
   -1.1356   21.4914  -28.8700 H   0  0  0  0  0  0  0  0  0  0  0  0
   -2.3881   20.1055  -30.4218 H   0  0  0  0  0  0  0  0  0  0  0  0
   -4.0266   20.4347  -29.7384 H   0  0  0  0  0  0  0  0  0  0  0  0
   -3.1530   20.8270  -32.5910 H   0  0  0  0  0  0  0  0  0  0  0  0
   -5.9058   21.9305  -30.4697 H   0  0  0  0  0  0  0  0  0  0  0  0
   -8.3256   21.6629  -30.9982 H   0  0  0  0  0  0  0  0  0  0  0  0
   -9.0414   20.2318  -32.9104 H   0  0  0  0  0  0  0  0  0  0  0  0
   -7.3339   19.0650  -34.3033 H   0  0  0  0  0  0  0  0  0  0  0  0
   -4.4399   23.1391  -31.1358 H   0  0  0  0  0  0  0  0  0  0  0  0
  1  2  1  0
  2  3  2  0
  3  4  1  0
  4  5  2  0
  5  6  1  0
  6  7  1  0
  7  8  1  0
  8  9  2  0
  9 10  1  0
 10 11  2  0
 11 12  1  0
 12 13  2  0
 13 14  1  0
  5 15  1  0
 15 16  2  0
 16 17  1  0
 16  2  1  0
 13  8  1  0
  3 18  1  0
  4 19  1  0
  6 20  1  0
  6 21  1  0
  7 22  1  0
  9 23  1  0
 10 24  1  0
 11 25  1  0
 12 26  1  0
 15 27  1  0
M  CHG  3   1  -1  14  -1  17  -1
M  END
>  <UniqueID>  (8) 
8

>  <SMILES>  (8) 
[O-]c1ccc(CNc2ccccc2[O-])cc1[O-]

>  <Energy>  (8) 
28.17207009825998

>  <Genealogy>  (8) 
[O-]c1ccc(CNc2ccccc2[O-])cc1[O-] (protonated)
[O-]c1ccc(CNc2ccccc2[O-])cc1[O-] (3D coordinates assigned)
[O-]c1ccc(CNc2ccccc2[O-])cc1[O-] (optimized conformer: 28.17207009825998 kcal/mol)

>  <smiles>  (8) 
Oc1ccc(CNc2ccccc2O)cc1O

>  <score_type>  (8) 
oracle

>  <origin>  (8) 
adgpu

>  <m_score__min__energy>  (8) 
-11.48

>  <m_primary>  (8) 
energy

$$$$
8:0
     RDKit          3D

 30 32  0  0  0  0  0  0  0  0999 V2000
    4.1170   23.7680  -24.9120 H   0  0  0  0  0  0  0  0  0  0  0  0
    4.6780   24.3540  -25.5710 N   0  0  0  0  0  0  0  0  0  0  0  0
    3.9910   24.1430  -27.1430 S   0  0  0  0  0  0  0  0  0  0  0  0
    4.1590   22.7120  -27.5690 O   0  0  0  0  0  0  0  0  0  0  0  0
    4.7030   25.0270  -28.1280 O   0  0  0  0  0  0  0  0  0  0  0  0
    2.2820   24.5630  -27.0980 C   0  0  0  0  0  0  0  0  0  0  0  0
    1.8680   25.8090  -26.6070 C   0  0  0  0  0  0  0  0  0  0  0  0
    2.6146   26.5360  -26.2550 H   0  0  0  0  0  0  0  0  0  0  0  0
    0.5090   26.1290  -26.5640 C   0  0  0  0  0  0  0  0  0  0  0  0
    0.1869   27.1030  -26.1670 H   0  0  0  0  0  0  0  0  0  0  0  0
   -0.4420   25.2150  -27.0240 C   0  0  0  0  0  0  0  0  0  0  0  0
   -1.5117   25.4657  -26.9695 H   0  0  0  0  0  0  0  0  0  0  0  0
   -0.0430   23.9820  -27.5540 C   0  0  0  0  0  0  0  0  0  0  0  0
   -1.0560   23.0640  -27.9970 N   0  0  0  0  0  0  0  0  0  0  0  0
   -2.0340   23.3250  -28.8150 C   0  0  0  0  0  0  0  0  0  0  0  0
   -2.3060   24.5520  -29.3120 N   0  0  0  0  0  0  0  0  0  0  0  0
   -3.4110   24.5330  -30.1030 C   0  0  0  0  0  0  0  0  0  0  0  0
   -3.8680   25.6880  -30.7230 O   0  0  0  0  0  0  0  0  0  0  0  0
   -4.0320   23.2870  -30.2330 C   0  0  0  0  0  0  0  0  0  0  0  0
   -5.2410   22.9580  -31.0150 C   0  0  0  0  0  0  0  0  0  0  0  0
   -6.2950   23.8120  -31.2790 C   0  0  0  0  0  0  0  0  0  0  0  0
   -6.3677   24.8555  -30.9386 H   0  0  0  0  0  0  0  0  0  0  0  0
   -7.1960   23.1850  -31.9990 O   0  0  0  0  0  0  0  0  0  0  0  0
   -6.7860   21.9570  -32.2210 C   0  0  0  0  0  0  0  0  0  0  0  0
   -7.3389   21.2004  -32.7971 H   0  0  0  0  0  0  0  0  0  0  0  0
   -5.5590   21.7580  -31.6240 C   0  0  0  0  0  0  0  0  0  0  0  0
   -4.9583   20.8365  -31.6308 H   0  0  0  0  0  0  0  0  0  0  0  0
   -3.1530   22.1790  -29.3140 S   0  0  0  0  0  0  0  0  0  0  0  0
    1.3260   23.6500  -27.5670 C   0  0  0  0  0  0  0  0  0  0  0  0
    1.6471   22.6690  -27.9472 H   0  0  0  0  0  0  0  0  0  0  0  0
  1  2  1  0
  2  3  1  0
  3  4  2  0
  3  5  2  0
  3  6  1  0
  6  7  2  0
  7  8  1  0
  7  9  1  0
  9 10  1  0
  9 11  2  0
 11 12  1  0
 11 13  1  0
 13 14  1  0
 14 15  2  0
 15 16  1  0
 16 17  1  0
 17 18  1  0
 17 19  2  0
 19 20  1  0
 20 21  2  0
 21 22  1  0
 21 23  1  0
 23 24  1  0
 24 25  1  0
 24 26  2  0
 26 27  1  0
 19 28  1  0
 13 29  2  0
 29 30  1  0
 29  6  1  0
 28 15  1  0
 26 20  1  0
M  CHG  3   2  -1  16  -1  18  -1
M  END
>  <UniqueID>  (9) 
9

>  <SMILES>  (9) 
[NH-]S(=O)(=O)c1cccc(/N=c2\[n-]c([O-])c(-c3ccoc3)s2)c1

>  <Energy>  (9) 
95.8509644366899

>  <Genealogy>  (9) 
[NH-]S(=O)(=O)c1cccc(N=c2[n-]c([O-])c(-c3ccoc3)s2)c1 (protonated)
[NH-]S(=O)(=O)c1cccc(/N=c2\[n-]c([O-])c(-c3ccoc3)s2)c1 (cis-trans isomerization)
[NH-]S(=O)(=O)c1cccc(/N=c2\[n-]c([O-])c(-c3ccoc3)s2)c1 (3D coordinates assigned)
[NH-]S(=O)(=O)c1cccc(/N=c2\[n-]c([O-])c(-c3ccoc3)s2)c1 (optimized conformer: 95.8509644366899 kcal/mol)

>  <smiles>  (9) 
NS(=O)(=O)c1cccc(N=c2[nH]c(O)c(-c3ccoc3)s2)c1

>  <score_type>  (9) 
oracle

>  <origin>  (9) 
adgpu

>  <m_score__min__energy>  (9) 
-10.289999999999999

>  <m_primary>  (9) 
energy

$$$$
9:0
     RDKit          3D

 62 65  0  0  0  0  0  0  0  0999 V2000
   -3.1070   24.5340  -27.2800 C   0  0  0  0  0  0  0  0  0  0  0  0
   -2.6540   23.7300  -28.4690 C   0  0  0  0  0  0  0  0  0  0  0  0
   -1.8630   22.5910  -28.2480 C   0  0  0  0  0  0  0  0  0  0  0  0
   -1.4790   21.7730  -29.3110 C   0  0  0  0  0  0  0  0  0  0  0  0
   -1.8820   22.0700  -30.6240 C   0  0  0  0  0  0  0  0  0  0  0  0
   -1.5120   21.1690  -31.7420 C   0  0  0  0  0  0  0  0  0  0  0  0
   -2.3430   20.3130  -32.1520 O   0  0  0  0  0  0  0  0  0  0  0  0
   -0.2090   21.2420  -32.3480 N   0  0  0  0  0  0  0  0  0  0  0  0
    0.0660   20.7940  -33.6880 C   0  0  0  0  0  0  0  0  0  0  0  0
   -0.2570   19.4780  -34.0600 C   0  0  0  0  0  0  0  0  0  0  0  0
    0.0250   19.0170  -35.3500 C   0  0  0  0  0  0  0  0  0  0  0  0
    0.6500   19.8600  -36.2740 C   0  0  0  0  0  0  0  0  0  0  0  0
    0.9970   21.1660  -35.9060 C   0  0  0  0  0  0  0  0  0  0  0  0
    1.6350   21.9990  -36.8180 O   0  0  0  0  0  0  0  0  0  0  0  0
    0.7120   21.6300  -34.6180 C   0  0  0  0  0  0  0  0  0  0  0  0
   -2.6640   23.2140  -30.8480 C   0  0  0  0  0  0  0  0  0  0  0  0
   -3.0110   24.0710  -29.7960 C   0  0  0  0  0  0  0  0  0  0  0  0
   -3.7510   25.2600  -30.1140 N   0  0  0  0  0  0  0  0  0  0  0  0
   -5.1410   25.3210  -30.4690 C   0  0  0  0  0  0  0  0  0  0  0  0
   -5.7350   26.4300  -30.3880 O   0  0  0  0  0  0  0  0  0  0  0  0
   -5.9040   24.1220  -30.8870 C   0  0  0  0  0  0  0  0  0  0  0  0
   -5.8680   23.6650  -32.2140 C   0  0  0  0  0  0  0  0  0  0  0  0
   -6.6080   22.5430  -32.5960 C   0  0  0  0  0  0  0  0  0  0  0  0
   -7.3780   21.8450  -31.6540 C   0  0  0  0  0  0  0  0  0  0  0  0
   -8.1830   20.6310  -32.0720 C   0  0  0  0  0  0  0  0  0  0  0  0
   -7.3590   19.4950  -32.5430 N   0  0  0  0  0  0  0  0  0  0  0  0
   -7.9520   18.1780  -32.2720 C   0  0  0  0  0  0  0  0  0  0  0  0
   -7.2440   17.1030  -33.1180 C   0  0  0  0  0  0  0  0  0  0  0  0
   -5.8420   17.4480  -33.4580 N   0  0  0  0  0  0  0  0  0  0  0  0
   -5.7230   18.0760  -34.7860 C   0  0  0  0  0  0  0  0  0  0  0  0
   -5.1870   18.2550  -32.4070 C   0  0  0  0  0  0  0  0  0  0  0  0
   -5.9550   19.5620  -32.0930 C   0  0  0  0  0  0  0  0  0  0  0  0
   -7.4080   22.2970  -30.3260 C   0  0  0  0  0  0  0  0  0  0  0  0
   -6.6680   23.4170  -29.9420 C   0  0  0  0  0  0  0  0  0  0  0  0
   -2.8152   24.0161  -26.3545 H   0  0  0  0  0  0  0  0  0  0  0  0
   -2.6360   25.5276  -27.3083 H   0  0  0  0  0  0  0  0  0  0  0  0
   -4.2009   24.6459  -27.3083 H   0  0  0  0  0  0  0  0  0  0  0  0
   -1.5427   22.3410  -27.2258 H   0  0  0  0  0  0  0  0  0  0  0  0
   -0.8551   20.8875  -29.1195 H   0  0  0  0  0  0  0  0  0  0  0  0
    0.5990   21.5280  -31.7500 H   0  0  0  0  0  0  0  0  0  0  0  0
   -0.7348   18.8060  -33.3319 H   0  0  0  0  0  0  0  0  0  0  0  0
   -0.2451   17.9903  -35.6379 H   0  0  0  0  0  0  0  0  0  0  0  0
    0.8690   19.4977  -37.2893 H   0  0  0  0  0  0  0  0  0  0  0  0
    0.9941   22.6535  -34.3302 H   0  0  0  0  0  0  0  0  0  0  0  0
   -3.0101   23.4412  -31.8671 H   0  0  0  0  0  0  0  0  0  0  0  0
   -5.2534   24.1935  -32.9576 H   0  0  0  0  0  0  0  0  0  0  0  0
   -6.5866   22.2048  -33.6425 H   0  0  0  0  0  0  0  0  0  0  0  0
   -8.7748   20.2942  -31.2081 H   0  0  0  0  0  0  0  0  0  0  0  0
   -8.8106   20.9420  -32.9201 H   0  0  0  0  0  0  0  0  0  0  0  0
   -7.8360   17.9379  -31.2048 H   0  0  0  0  0  0  0  0  0  0  0  0
   -9.0204   18.2001  -32.5329 H   0  0  0  0  0  0  0  0  0  0  0  0
   -7.2433   16.1593  -32.5527 H   0  0  0  0  0  0  0  0  0  0  0  0
   -7.7964   17.0205  -34.0656 H   0  0  0  0  0  0  0  0  0  0  0  0
   -5.5194   19.1504  -34.6666 H   0  0  0  0  0  0  0  0  0  0  0  0
   -4.8979   17.6060  -35.3413 H   0  0  0  0  0  0  0  0  0  0  0  0
   -6.6628   17.9404  -35.3413 H   0  0  0  0  0  0  0  0  0  0  0  0
   -5.1255   17.6533  -31.4882 H   0  0  0  0  0  0  0  0  0  0  0  0
   -4.1896   18.5358  -32.7763 H   0  0  0  0  0  0  0  0  0  0  0  0
   -5.9372   19.7330  -31.0065 H   0  0  0  0  0  0  0  0  0  0  0  0
   -5.4626   20.3853  -32.6313 H   0  0  0  0  0  0  0  0  0  0  0  0
   -8.0190   21.7650  -29.5819 H   0  0  0  0  0  0  0  0  0  0  0  0
   -6.6833   23.7493  -28.8935 H   0  0  0  0  0  0  0  0  0  0  0  0
  1  2  1  0
  2  3  2  0
  3  4  1  0
  4  5  2  0
  5  6  1  0
  6  7  2  0
  6  8  1  0
  8  9  1  0
  9 10  2  0
 10 11  1  0
 11 12  2  0
 12 13  1  0
 13 14  1  0
 13 15  2  0
  5 16  1  0
 16 17  2  0
 17 18  1  0
 18 19  1  0
 19 20  2  0
 19 21  1  0
 21 22  2  0
 22 23  1  0
 23 24  2  0
 24 25  1  0
 25 26  1  0
 26 27  1  0
 27 28  1  0
 28 29  1  0
 29 30  1  0
 29 31  1  0
 31 32  1  0
 24 33  1  0
 33 34  2  0
 17  2  1  0
 34 21  1  0
 15  9  1  0
 32 26  1  0
  1 35  1  0
  1 36  1  0
  1 37  1  0
  3 38  1  0
  4 39  1  0
  8 40  1  0
 10 41  1  0
 11 42  1  0
 12 43  1  0
 15 44  1  0
 16 45  1  0
 22 46  1  0
 23 47  1  0
 25 48  1  0
 25 49  1  0
 27 50  1  0
 27 51  1  0
 28 52  1  0
 28 53  1  0
 30 54  1  0
 30 55  1  0
 30 56  1  0
 31 57  1  0
 31 58  1  0
 32 59  1  0
 32 60  1  0
 33 61  1  0
 34 62  1  0
M  CHG  2  14  -1  18  -1
M  END
>  <UniqueID>  (10) 
10

>  <SMILES>  (10) 
Cc1ccc(C(=O)Nc2cccc([O-])c2)cc1[N-]C(=O)c1ccc(CN2CCN(C)CC2)cc1

>  <Energy>  (10) 
93.84245907908665

>  <Genealogy>  (10) 
Cc1ccc(C(=O)Nc2cccc([O-])c2)cc1[N-]C(=O)c1ccc(CN2CCN(C)CC2)cc1 (protonated)
Cc1ccc(C(=O)Nc2cccc([O-])c2)cc1[N-]C(=O)c1ccc(CN2CCN(C)CC2)cc1 (3D coordinates assigned)
Cc1ccc(C(=O)Nc2cccc([O-])c2)cc1[N-]C(=O)c1ccc(CN2CCN(C)CC2)cc1 (nonaromatic ring conformer: 93.84245907908665 kcal/mol)

>  <smiles>  (10) 
Cc1ccc(C(=O)Nc2cccc(O)c2)cc1NC(=O)c1ccc(CN2CCN(C)CC2)cc1

>  <score_type>  (10) 
oracle

>  <origin>  (10) 
adgpu

>  <m_score__min__energy>  (10) 
-12.880000000000001

>  <m_primary>  (10) 
energy

$$$$
10:0
     RDKit          3D

 43 46  0  0  0  0  0  0  0  0999 V2000
   -3.2370   18.5120  -33.9470 C   0  0  0  0  0  0  0  0  0  0  0  0
   -4.5120   19.0330  -33.3510 C   0  0  0  0  0  0  0  0  0  0  0  0
   -5.3540   18.1840  -32.6150 C   0  0  0  0  0  0  0  0  0  0  0  0
   -6.5260   18.6820  -32.0390 C   0  0  0  0  0  0  0  0  0  0  0  0
   -6.8590   20.0380  -32.1750 C   0  0  0  0  0  0  0  0  0  0  0  0
   -8.3430   20.6620  -31.4640 S   0  0  0  0  0  0  0  0  0  0  0  0
   -9.1130   19.5260  -30.8480 O   0  0  0  0  0  0  0  0  0  0  0  0
   -9.1810   21.3060  -32.5340 O   0  0  0  0  0  0  0  0  0  0  0  0
   -7.9390   21.8310  -30.2480 N   0  0  0  0  0  0  0  0  0  0  0  0
   -6.8730   22.7880  -30.3740 C   0  0  0  0  0  0  0  0  0  0  0  0
   -7.1880   24.1420  -30.5760 C   0  0  0  0  0  0  0  0  0  0  0  0
   -6.1750   25.0950  -30.7120 C   0  0  0  0  0  0  0  0  0  0  0  0
   -4.8340   24.7100  -30.6450 C   0  0  0  0  0  0  0  0  0  0  0  0
   -3.8360   25.6680  -30.7870 O   0  0  0  0  0  0  0  0  0  0  0  0
   -4.5040   23.3630  -30.4380 C   0  0  0  0  0  0  0  0  0  0  0  0
   -2.7870   22.8430  -30.3640 S   0  0  0  0  0  0  0  0  0  0  0  0
   -2.4450   23.9070  -28.9680 C   0  0  0  0  0  0  0  0  0  0  0  0
   -1.4740   24.8520  -28.9760 N   0  0  0  0  0  0  0  0  0  0  0  0
   -1.4180   25.4920  -27.7810 C   0  0  0  0  0  0  0  0  0  0  0  0
   -0.5190   26.5150  -27.4760 C   0  0  0  0  0  0  0  0  0  0  0  0
   -0.5610   27.0920  -26.1940 C   0  0  0  0  0  0  0  0  0  0  0  0
   -1.4970   26.6430  -25.2400 C   0  0  0  0  0  0  0  0  0  0  0  0
   -2.3980   25.6140  -25.5590 C   0  0  0  0  0  0  0  0  0  0  0  0
   -2.3350   25.0600  -26.8350 C   0  0  0  0  0  0  0  0  0  0  0  0
   -3.2680   23.8290  -27.4910 S   0  0  0  0  0  0  0  0  0  0  0  0
   -5.5190   22.4090  -30.2960 C   0  0  0  0  0  0  0  0  0  0  0  0
   -6.0160   20.8870  -32.9030 C   0  0  0  0  0  0  0  0  0  0  0  0
   -4.8440   20.3890  -33.4820 C   0  0  0  0  0  0  0  0  0  0  0  0
   -2.5442   18.2289  -33.1408 H   0  0  0  0  0  0  0  0  0  0  0  0
   -3.4559   17.6312  -34.5685 H   0  0  0  0  0  0  0  0  0  0  0  0
   -2.7764   19.2940  -34.5685 H   0  0  0  0  0  0  0  0  0  0  0  0
   -5.0903   17.1233  -32.4913 H   0  0  0  0  0  0  0  0  0  0  0  0
   -7.1896   18.0084  -31.4771 H   0  0  0  0  0  0  0  0  0  0  0  0
   -8.5480   21.8600  -29.4000 H   0  0  0  0  0  0  0  0  0  0  0  0
   -8.2413   24.4549  -30.6276 H   0  0  0  0  0  0  0  0  0  0  0  0
   -6.4346   26.1518  -30.8723 H   0  0  0  0  0  0  0  0  0  0  0  0
    0.2085   26.8634  -28.2239 H   0  0  0  0  0  0  0  0  0  0  0  0
    0.1406   27.8984  -25.9341 H   0  0  0  0  0  0  0  0  0  0  0  0
   -1.5217   27.1012  -24.2403 H   0  0  0  0  0  0  0  0  0  0  0  0
   -3.1322   25.2560  -24.8222 H   0  0  0  0  0  0  0  0  0  0  0  0
   -5.2566   21.3550  -30.1221 H   0  0  0  0  0  0  0  0  0  0  0  0
   -6.2764   21.9493  -33.0199 H   0  0  0  0  0  0  0  0  0  0  0  0
   -4.1802   21.0639  -34.0423 H   0  0  0  0  0  0  0  0  0  0  0  0
  1  2  1  0
  2  3  2  0
  3  4  1  0
  4  5  2  0
  5  6  1  0
  6  7  2  0
  6  8  2  0
  6  9  1  0
  9 10  1  0
 10 11  2  0
 11 12  1  0
 12 13  2  0
 13 14  1  0
 13 15  1  0
 15 16  1  0
 16 17  1  0
 17 18  2  0
 18 19  1  0
 19 20  2  0
 20 21  1  0
 21 22  2  0
 22 23  1  0
 23 24  2  0
 24 25  1  0
 15 26  2  0
  5 27  1  0
 27 28  2  0
 28  2  1  0
 26 10  1  0
 25 17  1  0
 24 19  1  0
  1 29  1  0
  1 30  1  0
  1 31  1  0
  3 32  1  0
  4 33  1  0
  9 34  1  0
 11 35  1  0
 12 36  1  0
 20 37  1  0
 21 38  1  0
 22 39  1  0
 23 40  1  0
 26 41  1  0
 27 42  1  0
 28 43  1  0
M  CHG  1  14  -1
M  END
>  <UniqueID>  (11) 
11

>  <SMILES>  (11) 
Cc1ccc(S(=O)(=O)Nc2ccc([O-])c(Sc3nc4ccccc4s3)c2)cc1

>  <Energy>  (11) 
80.90584458145412

>  <Genealogy>  (11) 
Cc1ccc(S(=O)(=O)Nc2ccc([O-])c(Sc3nc4ccccc4s3)c2)cc1 (protonated)
Cc1ccc(S(=O)(=O)Nc2ccc([O-])c(Sc3nc4ccccc4s3)c2)cc1 (3D coordinates assigned)
Cc1ccc(S(=O)(=O)Nc2ccc([O-])c(Sc3nc4ccccc4s3)c2)cc1 (optimized conformer: 80.90584458145412 kcal/mol)

>  <smiles>  (11) 
Cc1ccc(S(=O)(=O)Nc2ccc(O)c(Sc3nc4ccccc4s3)c2)cc1

>  <score_type>  (11) 
oracle

>  <origin>  (11) 
adgpu

>  <m_score__min__energy>  (11) 
-13.09

>  <m_primary>  (11) 
energy

$$$$
11:0
     RDKit          3D

 38 40  0  0  1  0  0  0  0  0999 V2000
   -3.0530   21.0530  -27.6100 C   0  0  0  0  0  0  0  0  0  0  0  0
   -2.7960   22.3860  -28.2500 C   0  0  0  0  0  0  0  0  0  0  0  0
   -3.6240   22.9430  -29.1790 C   0  0  0  0  0  0  0  0  0  0  0  0
   -3.3180   24.1730  -29.7210 C   0  0  0  0  0  0  0  0  0  0  0  0
   -4.0440   24.7680  -30.6020 N   0  0  0  0  0  0  0  0  0  0  0  0
   -5.2270   24.1100  -31.0340 C   0  0  0  0  0  0  0  0  0  0  0  0
   -5.0510   23.0340  -31.9000 C   0  0  0  0  0  0  0  0  0  0  0  0
   -6.1210   22.3130  -32.3920 C   0  0  0  0  0  0  0  0  0  0  0  0
   -7.3890   22.6900  -31.9960 C   0  0  0  0  0  0  0  0  0  0  0  0
   -8.4770   22.0080  -32.4530 F   0  0  0  0  0  0  0  0  0  0  0  0
   -7.5570   23.7540  -31.1390 C   0  0  0  0  0  0  0  0  0  0  0  0
   -6.4890   24.4740  -30.6490 C   0  0  0  0  0  0  0  0  0  0  0  0
   -2.1810   24.7720  -29.2840 N   0  0  0  0  0  0  0  0  0  0  0  0
   -1.3580   24.2620  -28.3860 C   0  0  0  0  0  0  0  0  0  0  0  0
   -0.1240   24.8750  -27.8710 C   0  0  0  0  0  0  0  0  0  0  0  0
   -0.3120   25.2300  -26.4500 C   0  0  0  0  0  0  0  0  0  0  0  0
   -0.3150   24.3810  -25.3950 C   0  0  0  0  0  0  0  0  0  0  0  0
   -0.1120   22.6700  -25.6540 Cl  0  0  0  0  0  0  0  0  0  0  0  0
   -0.4900   24.7990  -24.0790 C   0  0  0  0  0  0  0  0  0  0  0  0
   -0.6680   26.1430  -23.8330 C   0  0  0  0  0  0  0  0  0  0  0  0
   -0.6710   27.0450  -24.8760 C   0  0  0  0  0  0  0  0  0  0  0  0
   -0.4960   26.5910  -26.1700 C   0  0  0  0  0  0  0  0  0  0  0  0
   -0.5030   27.7700  -27.4910 Cl  0  0  0  0  0  0  0  0  0  0  0  0
   -1.6870   23.0410  -27.8680 N   0  0  0  0  0  0  0  0  0  0  0  0
   -3.0321   21.1616  -26.5156 H   0  0  0  0  0  0  0  0  0  0  0  0
   -4.0396   20.6802  -27.9227 H   0  0  0  0  0  0  0  0  0  0  0  0
   -2.2757   20.3402  -27.9227 H   0  0  0  0  0  0  0  0  0  0  0  0
   -4.5340   22.4122  -29.4953 H   0  0  0  0  0  0  0  0  0  0  0  0
   -4.0315   22.7505  -32.2005 H   0  0  0  0  0  0  0  0  0  0  0  0
   -5.9683   21.4660  -33.0770 H   0  0  0  0  0  0  0  0  0  0  0  0
   -8.5754   24.0384  -30.8358 H   0  0  0  0  0  0  0  0  0  0  0  0
   -6.6469   25.3208  -29.9650 H   0  0  0  0  0  0  0  0  0  0  0  0
   -1.9600   25.6930  -29.7070 H   0  0  0  0  0  0  0  0  0  0  0  0
    0.7077   24.1612  -27.9645 H   0  0  0  0  0  0  0  0  0  0  0  0
    0.1068   25.7814  -28.4500 H   0  0  0  0  0  0  0  0  0  0  0  0
   -0.4863   24.0722  -23.2533 H   0  0  0  0  0  0  0  0  0  0  0  0
   -0.8082   26.4976  -22.8012 H   0  0  0  0  0  0  0  0  0  0  0  0
   -0.8116   28.1182  -24.6798 H   0  0  0  0  0  0  0  0  0  0  0  0
  1  2  1  0
  2  3  2  0
  3  4  1  0
  4  5  2  0
  5  6  1  0
  6  7  2  0
  7  8  1  0
  8  9  2  0
  9 10  1  0
  9 11  1  0
 11 12  2  0
  4 13  1  0
 13 14  1  0
 14 15  1  0
 15 16  1  0
 16 17  2  0
 17 18  1  0
 17 19  1  0
 19 20  2  0
 20 21  1  0
 21 22  2  0
 22 23  1  0
 14 24  2  0
 24  2  1  0
 12  6  1  0
 22 16  1  0
  1 25  1  0
  1 26  1  0
  1 27  1  0
  3 28  1  0
  7 29  1  0
  8 30  1  0
 11 31  1  0
 12 32  1  0
 13 33  1  0
 15 34  1  0
 15 35  1  0
 19 36  1  0
 20 37  1  0
 21 38  1  0
M  END
>  <smiles>  (12) 
Cc1cc(=Nc2ccc(F)cc2)[nH]c(Cc2c(Cl)cccc2Cl)n1

>  <score_type>  (12) 
oracle

>  <origin>  (12) 
adgpu

>  <m_score__min__energy>  (12) 
-8.4499999999999993

>  <m_primary>  (12) 
energy

$$$$
12:0
     RDKit          3D

 56 58  0  0  0  0  0  0  0  0999 V2000
    0.6350   24.7470  -36.1040 C   0  0  0  0  0  0  0  0  0  0  0  0
    1.0550   23.2980  -36.3130 C   0  0  0  0  0  0  0  0  0  0  0  0
    1.3660   22.6730  -35.0250 N   0  0  0  0  0  0  0  0  0  0  0  0
    0.5060   21.1770  -34.8250 S   0  0  0  0  0  0  0  0  0  0  0  0
   -0.2650   20.8790  -36.0770 O   0  0  0  0  0  0  0  0  0  0  0  0
    1.4870   20.0600  -34.5920 O   0  0  0  0  0  0  0  0  0  0  0  0
   -0.6200   21.2910  -33.4770 C   0  0  0  0  0  0  0  0  0  0  0  0
   -0.1560   21.5010  -32.1710 C   0  0  0  0  0  0  0  0  0  0  0  0
   -1.0620   21.6060  -31.1120 C   0  0  0  0  0  0  0  0  0  0  0  0
   -2.4370   21.5070  -31.3510 C   0  0  0  0  0  0  0  0  0  0  0  0
   -3.5970   21.6510  -29.9930 S   0  0  0  0  0  0  0  0  0  0  0  0
   -2.5470   22.7880  -29.0860 C   0  0  0  0  0  0  0  0  0  0  0  0
   -1.6740   22.5060  -28.0500 C   0  0  0  0  0  0  0  0  0  0  0  0
   -1.4730   21.1780  -27.3950 C   0  0  0  0  0  0  0  0  0  0  0  0
   -1.1110   23.6500  -27.6100 N   0  0  0  0  0  0  0  0  0  0  0  0
   -1.5640   24.6420  -28.3650 N   0  0  0  0  0  0  0  0  0  0  0  0
   -1.2830   26.0460  -28.0870 C   0  0  0  0  0  0  0  0  0  0  0  0
   -2.4290   24.1440  -29.2760 C   0  0  0  0  0  0  0  0  0  0  0  0
   -3.2340   24.9230  -30.1660 N   0  0  0  0  0  0  0  0  0  0  0  0
   -4.6120   24.6590  -30.4270 C   0  0  0  0  0  0  0  0  0  0  0  0
   -5.4760   25.0380  -29.5940 O   0  0  0  0  0  0  0  0  0  0  0  0
   -4.9900   23.8750  -31.5670 N   0  0  0  0  0  0  0  0  0  0  0  0
   -6.1240   23.0010  -31.6640 C   0  0  0  0  0  0  0  0  0  0  0  0
   -7.3900   23.3640  -31.1720 C   0  0  0  0  0  0  0  0  0  0  0  0
   -8.4700   22.4890  -31.2980 C   0  0  0  0  0  0  0  0  0  0  0  0
   -8.3050   21.2560  -31.9300 C   0  0  0  0  0  0  0  0  0  0  0  0
   -7.0540   20.8860  -32.4540 C   0  0  0  0  0  0  0  0  0  0  0  0
   -6.8810   19.5870  -33.1460 C   0  0  0  0  0  0  0  0  0  0  0  0
   -6.3400   19.5440  -34.2840 O   0  0  0  0  0  0  0  0  0  0  0  0
   -7.3280   18.3750  -32.5290 N   0  0  0  0  0  0  0  0  0  0  0  0
   -6.4530   17.5170  -31.7430 C   0  0  0  0  0  0  0  0  0  0  0  0
   -5.9690   21.7730  -32.3210 C   0  0  0  0  0  0  0  0  0  0  0  0
   -2.9040   21.3130  -32.6570 C   0  0  0  0  0  0  0  0  0  0  0  0
   -1.9990   21.2010  -33.7150 C   0  0  0  0  0  0  0  0  0  0  0  0
    0.5735   24.9591  -35.0264 H   0  0  0  0  0  0  0  0  0  0  0  0
    1.3767   25.4142  -36.5673 H   0  0  0  0  0  0  0  0  0  0  0  0
   -0.3486   24.9141  -36.5673 H   0  0  0  0  0  0  0  0  0  0  0  0
    0.2342   22.7474  -36.7958 H   0  0  0  0  0  0  0  0  0  0  0  0
    1.9503   23.2713  -36.9516 H   0  0  0  0  0  0  0  0  0  0  0  0
    0.9240   21.5834  -31.9792 H   0  0  0  0  0  0  0  0  0  0  0  0
   -0.6932   21.7669  -30.0882 H   0  0  0  0  0  0  0  0  0  0  0  0
   -1.4917   21.3016  -26.3021 H   0  0  0  0  0  0  0  0  0  0  0  0
   -2.2777   20.4930  -27.7004 H   0  0  0  0  0  0  0  0  0  0  0  0
   -0.5016   20.7618  -27.7004 H   0  0  0  0  0  0  0  0  0  0  0  0
   -1.2512   26.2051  -26.9990 H   0  0  0  0  0  0  0  0  0  0  0  0
   -0.3123   26.3196  -28.5262 H   0  0  0  0  0  0  0  0  0  0  0  0
   -2.0736   26.6721  -28.5262 H   0  0  0  0  0  0  0  0  0  0  0  0
   -7.5298   24.3409  -30.6861 H   0  0  0  0  0  0  0  0  0  0  0  0
   -9.4546   22.7724  -30.8977 H   0  0  0  0  0  0  0  0  0  0  0  0
   -9.1594   20.5689  -32.0188 H   0  0  0  0  0  0  0  0  0  0  0  0
   -6.6324   17.6929  -30.6721 H   0  0  0  0  0  0  0  0  0  0  0  0
   -6.6616   16.4636  -31.9815 H   0  0  0  0  0  0  0  0  0  0  0  0
   -5.4039   17.7462  -31.9815 H   0  0  0  0  0  0  0  0  0  0  0  0
   -4.9884   21.4991  -32.7375 H   0  0  0  0  0  0  0  0  0  0  0  0
   -3.9851   21.2487  -32.8498 H   0  0  0  0  0  0  0  0  0  0  0  0
   -2.3693   21.0416  -34.7385 H   0  0  0  0  0  0  0  0  0  0  0  0
  1  2  1  0
  2  3  1  0
  3  4  1  0
  4  5  2  0
  4  6  2  0
  4  7  1  0
  7  8  2  0
  8  9  1  0
  9 10  2  0
 10 11  1  0
 11 12  1  0
 12 13  1  0
 13 14  1  0
 13 15  2  0
 15 16  1  0
 16 17  1  0
 16 18  1  0
 18 19  1  0
 19 20  1  0
 20 21  2  0
 20 22  1  0
 22 23  1  0
 23 24  2  0
 24 25  1  0
 25 26  2  0
 26 27  1  0
 27 28  1  0
 28 29  2  0
 28 30  1  0
 30 31  1  0
 27 32  2  0
 10 33  1  0
 33 34  2  0
 34  7  1  0
 18 12  2  0
 32 23  1  0
  1 35  1  0
  1 36  1  0
  1 37  1  0
  2 38  1  0
  2 39  1  0
  8 40  1  0
  9 41  1  0
 14 42  1  0
 14 43  1  0
 14 44  1  0
 17 45  1  0
 17 46  1  0
 17 47  1  0
 24 48  1  0
 25 49  1  0
 26 50  1  0
 31 51  1  0
 31 52  1  0
 31 53  1  0
 32 54  1  0
 33 55  1  0
 34 56  1  0
M  CHG  4   3  -1  19  -1  22  -1  30  -1
M  END
>  <UniqueID>  (13) 
12

>  <SMILES>  (13) 
CC[N-]S(=O)(=O)c1ccc(Sc2c(C)nn(C)c2[N-]C(=O)[N-]c2cccc(C(=O)[N-]C)c2)cc1

>  <Energy>  (13) 
86.2458365886735

>  <Genealogy>  (13) 
CC[N-]S(=O)(=O)c1ccc(Sc2c(C)nn(C)c2[N-]C(=O)[N-]c2cccc(C(=O)[N-]C)c2)cc1 (protonated)
CC[N-]S(=O)(=O)c1ccc(Sc2c(C)nn(C)c2[N-]C(=O)[N-]c2cccc(C(=O)[N-]C)c2)cc1 (3D coordinates assigned)
CC[N-]S(=O)(=O)c1ccc(Sc2c(C)nn(C)c2[N-]C(=O)[N-]c2cccc(C(=O)[N-]C)c2)cc1 (optimized conformer: 86.2458365886735 kcal/mol)

>  <smiles>  (13) 
CCNS(=O)(=O)c1ccc(Sc2c(C)nn(C)c2NC(=O)Nc2cccc(C(=O)NC)c2)cc1

>  <score_type>  (13) 
oracle

>  <origin>  (13) 
adgpu

>  <m_score__min__energy>  (13) 
-11.85

>  <m_primary>  (13) 
energy

$$$$
13:0
     RDKit          3D

 48 51  0  0  0  0  0  0  0  0999 V2000
   -8.8510   18.5490  -32.3050 C   0  0  0  0  0  0  0  0  0  0  0  0
   -7.6070   19.3390  -32.5380 C   0  0  0  0  0  0  0  0  0  0  0  0
   -6.6480   18.8690  -33.3790 N   0  0  0  0  0  0  0  0  0  0  0  0
   -5.5260   19.5890  -33.6270 C   0  0  0  0  0  0  0  0  0  0  0  0
   -5.3490   20.8340  -33.0250 C   0  0  0  0  0  0  0  0  0  0  0  0
   -6.3550   21.3240  -32.1760 C   0  0  0  0  0  0  0  0  0  0  0  0
   -6.2380   22.6410  -31.5000 C   0  0  0  0  0  0  0  0  0  0  0  0
   -7.3760   23.3640  -31.1000 C   0  0  0  0  0  0  0  0  0  0  0  0
   -7.2420   24.6000  -30.4630 C   0  0  0  0  0  0  0  0  0  0  0  0
   -5.9740   25.1240  -30.2050 C   0  0  0  0  0  0  0  0  0  0  0  0
   -4.8260   24.4060  -30.5710 C   0  0  0  0  0  0  0  0  0  0  0  0
   -3.5060   24.9250  -30.3520 N   0  0  0  0  0  0  0  0  0  0  0  0
   -2.7900   24.9100  -29.1140 C   0  0  0  0  0  0  0  0  0  0  0  0
   -3.2040   24.2220  -28.1430 O   0  0  0  0  0  0  0  0  0  0  0  0
   -1.5880   25.6790  -29.0000 N   0  0  0  0  0  0  0  0  0  0  0  0
   -0.7680   25.8000  -27.8280 C   0  0  0  0  0  0  0  0  0  0  0  0
   -1.0060   26.7990  -26.8650 C   0  0  0  0  0  0  0  0  0  0  0  0
   -0.2090   26.8790  -25.7200 C   0  0  0  0  0  0  0  0  0  0  0  0
    0.8170   25.9550  -25.5170 C   0  0  0  0  0  0  0  0  0  0  0  0
    1.0490   24.9470  -26.4560 C   0  0  0  0  0  0  0  0  0  0  0  0
    0.2640   24.8690  -27.6210 C   0  0  0  0  0  0  0  0  0  0  0  0
    0.4640   23.8530  -28.5680 O   0  0  0  0  0  0  0  0  0  0  0  0
   -0.4230   22.7950  -28.8190 C   0  0  0  0  0  0  0  0  0  0  0  0
   -0.8410   22.4680  -30.1210 C   0  0  0  0  0  0  0  0  0  0  0  0
   -1.7310   21.4100  -30.3300 C   0  0  0  0  0  0  0  0  0  0  0  0
   -2.2200   20.6810  -29.2430 C   0  0  0  0  0  0  0  0  0  0  0  0
   -1.8280   21.0170  -27.9440 C   0  0  0  0  0  0  0  0  0  0  0  0
   -0.9350   22.0730  -27.7330 C   0  0  0  0  0  0  0  0  0  0  0  0
   -4.9640   23.1760  -31.2250 C   0  0  0  0  0  0  0  0  0  0  0  0
   -7.4580   20.5570  -31.9550 N   0  0  0  0  0  0  0  0  0  0  0  0
   -9.0200   18.4417  -31.2234 H   0  0  0  0  0  0  0  0  0  0  0  0
   -9.7066   19.0696  -32.7599 H   0  0  0  0  0  0  0  0  0  0  0  0
   -8.7436   17.5533  -32.7599 H   0  0  0  0  0  0  0  0  0  0  0  0
   -4.7553   19.1907  -34.3033 H   0  0  0  0  0  0  0  0  0  0  0  0
   -4.4381   21.4218  -33.2115 H   0  0  0  0  0  0  0  0  0  0  0  0
   -8.3786   22.9534  -31.2901 H   0  0  0  0  0  0  0  0  0  0  0  0
   -8.1387   25.1624  -30.1636 H   0  0  0  0  0  0  0  0  0  0  0  0
   -5.8749   26.1029  -29.7132 H   0  0  0  0  0  0  0  0  0  0  0  0
   -1.8232   27.5200  -27.0146 H   0  0  0  0  0  0  0  0  0  0  0  0
   -0.3904   27.6707  -24.9782 H   0  0  0  0  0  0  0  0  0  0  0  0
    1.4443   26.0205  -24.6158 H   0  0  0  0  0  0  0  0  0  0  0  0
    1.8485   24.2114  -26.2839 H   0  0  0  0  0  0  0  0  0  0  0  0
   -0.4665   23.0466  -30.9783 H   0  0  0  0  0  0  0  0  0  0  0  0
   -2.0466   21.1513  -31.3515 H   0  0  0  0  0  0  0  0  0  0  0  0
   -2.9131   19.8431  -29.4093 H   0  0  0  0  0  0  0  0  0  0  0  0
   -2.2219   20.4507  -27.0872 H   0  0  0  0  0  0  0  0  0  0  0  0
   -0.6332   22.3379  -26.7089 H   0  0  0  0  0  0  0  0  0  0  0  0
   -4.0651   22.6194  -31.5285 H   0  0  0  0  0  0  0  0  0  0  0  0
  1  2  1  0
  2  3  2  0
  3  4  1  0
  4  5  2  0
  5  6  1  0
  6  7  1  0
  7  8  2  0
  8  9  1  0
  9 10  2  0
 10 11  1  0
 11 12  1  0
 12 13  1  0
 13 14  2  0
 13 15  1  0
 15 16  1  0
 16 17  2  0
 17 18  1  0
 18 19  2  0
 19 20  1  0
 20 21  2  0
 21 22  1  0
 22 23  1  0
 23 24  2  0
 24 25  1  0
 25 26  2  0
 26 27  1  0
 27 28  2  0
 11 29  2  0
  6 30  2  0
 30  2  1  0
 29  7  1  0
 21 16  1  0
 28 23  1  0
  1 31  1  0
  1 32  1  0
  1 33  1  0
  4 34  1  0
  5 35  1  0
  8 36  1  0
  9 37  1  0
 10 38  1  0
 17 39  1  0
 18 40  1  0
 19 41  1  0
 20 42  1  0
 24 43  1  0
 25 44  1  0
 26 45  1  0
 27 46  1  0
 28 47  1  0
 29 48  1  0
M  CHG  2  12  -1  15  -1
M  END
>  <UniqueID>  (14) 
13

>  <SMILES>  (14) 
Cc1nccc(-c2cccc([N-]C(=O)[N-]c3ccccc3Oc3ccccc3)c2)n1

>  <Energy>  (14) 
70.17958674554156

>  <Genealogy>  (14) 
Cc1nccc(-c2cccc([N-]C(=O)[N-]c3ccccc3Oc3ccccc3)c2)n1 (protonated)
Cc1nccc(-c2cccc([N-]C(=O)[N-]c3ccccc3Oc3ccccc3)c2)n1 (3D coordinates assigned)
Cc1nccc(-c2cccc([N-]C(=O)[N-]c3ccccc3Oc3ccccc3)c2)n1 (optimized conformer: 70.17958674554156 kcal/mol)

>  <smiles>  (14) 
Cc1nccc(-c2cccc(NC(=O)Nc3ccccc3Oc3ccccc3)c2)n1

>  <score_type>  (14) 
oracle

>  <origin>  (14) 
adgpu

>  <m_score__min__energy>  (14) 
-12.949999999999999

>  <m_primary>  (14) 
energy

$$$$
14:0
     RDKit          3D

 76 80  0  0  1  0  0  0  0  0999 V2000
   -0.0160   18.9300  -30.1690 C   0  0  0  0  0  0  0  0  0  0  0  0
    0.1190   20.2610  -30.6360 O   0  0  0  0  0  0  0  0  0  0  0  0
   -0.8650   21.2120  -30.5830 C   0  0  0  0  0  0  0  0  0  0  0  0
   -0.9100   22.1270  -29.5240 C   0  0  0  0  0  0  0  0  0  0  0  0
   -1.9040   23.0970  -29.4590 C   0  0  0  0  0  0  0  0  0  0  0  0
   -1.9040   24.0040  -28.3660 N   0  0  0  0  0  0  0  0  0  0  0  0
   -1.3200   25.3230  -28.6310 C   0  0  0  0  0  0  0  0  0  0  0  0
   -1.2490   26.0700  -27.3050 C   0  0  0  0  0  0  0  0  0  0  0  0
   -0.5080   25.1730  -26.3550 C   0  0  0  0  0  0  0  0  0  0  0  0
   -0.1340   25.9150  -25.1700 N   0  0  0  0  0  0  0  0  0  0  0  0
   -0.8830   27.1550  -25.0770 C   0  0  0  0  0  0  0  0  0  0  0  0
   -0.0280   28.2320  -24.4940 C   0  0  0  0  0  0  0  0  0  0  0  0
    0.6950   27.7070  -23.3450 N   0  0  0  0  0  0  0  0  0  0  0  0
    1.4290   28.8090  -22.7590 C   0  0  0  0  0  0  0  0  0  0  0  0
    1.6220   26.6800  -23.7100 C   0  0  0  0  0  0  0  0  0  0  0  0
    1.2950   26.1470  -25.0930 C   0  0  0  0  0  0  0  0  0  0  0  0
   -1.2790   23.9070  -26.0510 C   0  0  0  0  0  0  0  0  0  0  0  0
   -2.4160   23.7230  -27.0640 C   0  0  0  0  0  0  0  0  0  0  0  0
   -2.8210   23.1070  -30.4720 C   0  0  0  0  0  0  0  0  0  0  0  0
   -2.7910   22.2090  -31.5260 C   0  0  0  0  0  0  0  0  0  0  0  0
   -1.8010   21.2410  -31.5950 C   0  0  0  0  0  0  0  0  0  0  0  0
   -1.8190   20.3550  -32.6910 N   0  0  0  0  0  0  0  0  0  0  0  0
   -0.8210   20.1210  -33.4750 C   0  0  0  0  0  0  0  0  0  0  0  0
    0.3340   20.7740  -33.2270 N   0  0  0  0  0  0  0  0  0  0  0  0
    1.3830   20.5310  -34.0480 C   0  0  0  0  0  0  0  0  0  0  0  0
    1.2920   19.6580  -35.0970 C   0  0  0  0  0  0  0  0  0  0  0  0
    2.6400   19.3700  -36.1320 Cl  0  0  0  0  0  0  0  0  0  0  0  0
    0.0890   19.0230  -35.2990 C   0  0  0  0  0  0  0  0  0  0  0  0
   -0.0550   18.1990  -36.2510 N   0  0  0  0  0  0  0  0  0  0  0  0
    0.9210   17.8130  -37.2040 C   0  0  0  0  0  0  0  0  0  0  0  0
    1.0120   18.5720  -38.3820 C   0  0  0  0  0  0  0  0  0  0  0  0
    1.9520   18.2640  -39.3420 C   0  0  0  0  0  0  0  0  0  0  0  0
    2.7810   17.2020  -39.1020 C   0  0  0  0  0  0  0  0  0  0  0  0
    2.7050   16.4500  -37.9540 C   0  0  0  0  0  0  0  0  0  0  0  0
    1.7630   16.7450  -36.9730 C   0  0  0  0  0  0  0  0  0  0  0  0
    1.6900   15.7960  -35.5400 S   0  0  0  0  0  0  0  0  0  0  0  0
    2.5920   16.4980  -34.1880 C   0  0  0  0  0  0  0  0  0  0  0  0
    2.2510   14.4030  -35.7550 O   0  0  0  0  0  0  0  0  0  0  0  0
    0.2650   15.6330  -35.1120 O   0  0  0  0  0  0  0  0  0  0  0  0
   -0.9640   19.2530  -34.4920 N   0  0  0  0  0  0  0  0  0  0  0  0
   -0.0164   18.9256  -29.0690 H   0  0  0  0  0  0  0  0  0  0  0  0
   -0.9617   18.5062  -30.5377 H   0  0  0  0  0  0  0  0  0  0  0  0
    0.8254   18.3249  -30.5377 H   0  0  0  0  0  0  0  0  0  0  0  0
   -0.1480   22.0777  -28.7322 H   0  0  0  0  0  0  0  0  0  0  0  0
   -0.3100   25.2084  -29.0516 H   0  0  0  0  0  0  0  0  0  0  0  0
   -1.9336   25.8788  -29.3552 H   0  0  0  0  0  0  0  0  0  0  0  0
   -0.7090   27.0200  -27.4314 H   0  0  0  0  0  0  0  0  0  0  0  0
   -2.2538   26.3099  -26.9269 H   0  0  0  0  0  0  0  0  0  0  0  0
    0.4199   24.8325  -26.8377 H   0  0  0  0  0  0  0  0  0  0  0  0
   -1.2123   27.4568  -26.0822 H   0  0  0  0  0  0  0  0  0  0  0  0
   -1.7563   26.9987  -24.4267 H   0  0  0  0  0  0  0  0  0  0  0  0
    0.6898   28.5809  -25.2511 H   0  0  0  0  0  0  0  0  0  0  0  0
   -0.6622   29.0727  -24.1761 H   0  0  0  0  0  0  0  0  0  0  0  0
    1.3822   28.7387  -21.6622 H   0  0  0  0  0  0  0  0  0  0  0  0
    2.4787   28.7648  -23.0848 H   0  0  0  0  0  0  0  0  0  0  0  0
    0.9837   29.7606  -23.0848 H   0  0  0  0  0  0  0  0  0  0  0  0
    2.6411   27.0941  -23.7116 H   0  0  0  0  0  0  0  0  0  0  0  0
    1.5522   25.8579  -22.9825 H   0  0  0  0  0  0  0  0  0  0  0  0
    1.5931   26.8828  -25.8544 H   0  0  0  0  0  0  0  0  0  0  0  0
    1.8397   25.2086  -25.2740 H   0  0  0  0  0  0  0  0  0  0  0  0
   -0.5985   23.0446  -26.1080 H   0  0  0  0  0  0  0  0  0  0  0  0
   -1.7072   23.9814  -25.0405 H   0  0  0  0  0  0  0  0  0  0  0  0
   -2.7855   22.6877  -27.0248 H   0  0  0  0  0  0  0  0  0  0  0  0
   -3.2481   24.4028  -26.8284 H   0  0  0  0  0  0  0  0  0  0  0  0
   -3.6197   23.8630  -30.4493 H   0  0  0  0  0  0  0  0  0  0  0  0
   -3.5574   22.2642  -32.3132 H   0  0  0  0  0  0  0  0  0  0  0  0
    0.4260   21.4540  -32.4210 H   0  0  0  0  0  0  0  0  0  0  0  0
    2.3354   21.0504  -33.8662 H   0  0  0  0  0  0  0  0  0  0  0  0
    0.3279   19.4188  -38.5399 H   0  0  0  0  0  0  0  0  0  0  0  0
    2.0329   18.8513  -40.2686 H   0  0  0  0  0  0  0  0  0  0  0  0
    3.5372   16.9401  -39.8568 H   0  0  0  0  0  0  0  0  0  0  0  0
    3.3958   15.6063  -37.8092 H   0  0  0  0  0  0  0  0  0  0  0  0
    2.1538   16.1570  -33.2384 H   0  0  0  0  0  0  0  0  0  0  0  0
    3.6429   16.1778  -34.2428 H   0  0  0  0  0  0  0  0  0  0  0  0
    2.5397   17.5954  -34.2428 H   0  0  0  0  0  0  0  0  0  0  0  0
   -1.8590   18.7750  -34.6500 H   0  0  0  0  0  0  0  0  0  0  0  0
  1  2  1  0
  2  3  1  0
  3  4  2  0
  4  5  1  0
  5  6  1  0
  6  7  1  0
  7  8  1  0
  8  9  1  0
  9 10  1  0
 10 11  1  0
 11 12  1  0
 12 13  1  0
 13 14  1  0
 13 15  1  0
 15 16  1  0
  9 17  1  0
 17 18  1  0
  5 19  2  0
 19 20  1  0
 20 21  2  0
 21 22  1  0
 22 23  2  0
 23 24  1  0
 24 25  1  0
 25 26  2  0
 26 27  1  0
 26 28  1  0
 28 29  2  0
 29 30  1  0
 30 31  2  0
 31 32  1  0
 32 33  2  0
 33 34  1  0
 34 35  2  0
 35 36  1  0
 36 37  1  0
 36 38  2  0
 36 39  2  0
 28 40  1  0
 21  3  1  0
 40 23  1  0
 18  6  1  0
 35 30  1  0
 16 10  1  0
  1 41  1  0
  1 42  1  0
  1 43  1  0
  4 44  1  0
  7 45  1  0
  7 46  1  0
  8 47  1  0
  8 48  1  0
  9 49  1  0
 11 50  1  0
 11 51  1  0
 12 52  1  0
 12 53  1  0
 14 54  1  0
 14 55  1  0
 14 56  1  0
 15 57  1  0
 15 58  1  0
 16 59  1  0
 16 60  1  0
 17 61  1  0
 17 62  1  0
 18 63  1  0
 18 64  1  0
 19 65  1  0
 20 66  1  0
 24 67  1  0
 25 68  1  0
 31 69  1  0
 32 70  1  0
 33 71  1  0
 34 72  1  0
 37 73  1  0
 37 74  1  0
 37 75  1  0
 40 76  1  0
M  END
>  <smiles>  (15) 
COc1cc(N2CCC(N3CCN(C)CC3)CC2)ccc1N=c1[nH]cc(Cl)c(=Nc2ccccc2S(C)(=O)=O)[nH]1

>  <score_type>  (15) 
oracle

>  <origin>  (15) 
adgpu

>  <m_score__min__energy>  (15) 
-10.73

>  <m_primary>  (15) 
energy

$$$$
15:0
     RDKit          3D

 46 48  0  0  0  0  0  0  0  0999 V2000
   -1.5760   26.3470  -25.5660 C   0  0  0  0  0  0  0  0  0  0  0  0
   -0.7820   26.4030  -26.8650 C   0  0  0  0  0  0  0  0  0  0  0  0
   -0.9690   25.1420  -27.6480 C   0  0  0  0  0  0  0  0  0  0  0  0
   -0.0690   24.6760  -28.5360 N   0  0  0  0  0  0  0  0  0  0  0  0
   -0.6240   23.6210  -29.0460 O   0  0  0  0  0  0  0  0  0  0  0  0
   -1.8100   23.4470  -28.5170 C   0  0  0  0  0  0  0  0  0  0  0  0
   -2.7350   22.3280  -28.8770 C   0  0  0  0  0  0  0  0  0  0  0  0
   -3.2180   22.4830  -30.2490 N   0  0  0  0  0  0  0  0  0  0  0  0
   -4.4790   23.0870  -30.6070 C   0  0  0  0  0  0  0  0  0  0  0  0
   -5.6200   22.3030  -30.8750 C   0  0  0  0  0  0  0  0  0  0  0  0
   -6.8360   22.9040  -31.2280 C   0  0  0  0  0  0  0  0  0  0  0  0
   -8.2580   21.9070  -31.5490 S   0  0  0  0  0  0  0  0  0  0  0  0
   -8.7250   21.2830  -30.2640 O   0  0  0  0  0  0  0  0  0  0  0  0
   -9.3660   22.7790  -32.0710 O   0  0  0  0  0  0  0  0  0  0  0  0
   -7.9090   20.6470  -32.7100 N   0  0  0  0  0  0  0  0  0  0  0  0
   -8.3830   19.3220  -32.2380 C   0  0  0  0  0  0  0  0  0  0  0  0
   -7.2460   18.4290  -31.7190 C   0  0  0  0  0  0  0  0  0  0  0  0
   -6.1840   18.1940  -32.8070 C   0  0  0  0  0  0  0  0  0  0  0  0
   -6.0490   19.3850  -33.7750 C   0  0  0  0  0  0  0  0  0  0  0  0
   -6.4840   20.6900  -33.1040 C   0  0  0  0  0  0  0  0  0  0  0  0
   -6.9180   24.2990  -31.3200 C   0  0  0  0  0  0  0  0  0  0  0  0
   -5.7980   25.0850  -31.0500 C   0  0  0  0  0  0  0  0  0  0  0  0
   -4.5840   24.4880  -30.6940 C   0  0  0  0  0  0  0  0  0  0  0  0
   -3.4850   25.2990  -30.4340 O   0  0  0  0  0  0  0  0  0  0  0  0
   -2.0930   24.3980  -27.6060 N   0  0  0  0  0  0  0  0  0  0  0  0
   -0.8850   26.3957  -24.7115 H   0  0  0  0  0  0  0  0  0  0  0  0
   -2.2713   27.1983  -25.5243 H   0  0  0  0  0  0  0  0  0  0  0  0
   -2.1450   25.4065  -25.5243 H   0  0  0  0  0  0  0  0  0  0  0  0
   -1.1296   27.2568  -27.4652 H   0  0  0  0  0  0  0  0  0  0  0  0
    0.2853   26.5178  -26.6250 H   0  0  0  0  0  0  0  0  0  0  0  0
   -2.1982   21.3720  -28.7882 H   0  0  0  0  0  0  0  0  0  0  0  0
   -3.5963   22.3447  -28.1929 H   0  0  0  0  0  0  0  0  0  0  0  0
   -2.6010   22.1120  -31.0070 H   0  0  0  0  0  0  0  0  0  0  0  0
   -5.5550   21.2071  -30.8062 H   0  0  0  0  0  0  0  0  0  0  0  0
   -9.1061   19.4778  -31.4238 H   0  0  0  0  0  0  0  0  0  0  0  0
   -8.8382   18.8093  -33.0982 H   0  0  0  0  0  0  0  0  0  0  0  0
   -6.7724   18.9170  -30.8544 H   0  0  0  0  0  0  0  0  0  0  0  0
   -7.6706   17.4563  -31.4301 H   0  0  0  0  0  0  0  0  0  0  0  0
   -5.2125   18.0252  -32.3195 H   0  0  0  0  0  0  0  0  0  0  0  0
   -6.5010   17.3214  -33.3969 H   0  0  0  0  0  0  0  0  0  0  0  0
   -4.9989   19.4752  -34.0899 H   0  0  0  0  0  0  0  0  0  0  0  0
   -6.6983   19.2049  -34.6445 H   0  0  0  0  0  0  0  0  0  0  0  0
   -5.8695   20.8527  -32.2063 H   0  0  0  0  0  0  0  0  0  0  0  0
   -6.3492   21.5105  -33.8241 H   0  0  0  0  0  0  0  0  0  0  0  0
   -7.8673   24.7756  -31.6057 H   0  0  0  0  0  0  0  0  0  0  0  0
   -5.8696   26.1806  -31.1174 H   0  0  0  0  0  0  0  0  0  0  0  0
  1  2  1  0
  2  3  1  0
  3  4  2  0
  4  5  1  0
  5  6  1  0
  6  7  1  0
  7  8  1  0
  8  9  1  0
  9 10  2  0
 10 11  1  0
 11 12  1  0
 12 13  2  0
 12 14  2  0
 12 15  1  0
 15 16  1  0
 16 17  1  0
 17 18  1  0
 18 19  1  0
 19 20  1  0
 11 21  2  0
 21 22  1  0
 22 23  2  0
 23 24  1  0
  6 25  2  0
 25  3  1  0
 23  9  1  0
 20 15  1  0
  1 26  1  0
  1 27  1  0
  1 28  1  0
  2 29  1  0
  2 30  1  0
  7 31  1  0
  7 32  1  0
  8 33  1  0
 10 34  1  0
 16 35  1  0
 16 36  1  0
 17 37  1  0
 17 38  1  0
 18 39  1  0
 18 40  1  0
 19 41  1  0
 19 42  1  0
 20 43  1  0
 20 44  1  0
 21 45  1  0
 22 46  1  0
M  CHG  1  24  -1
M  END
>  <UniqueID>  (16) 
14

>  <SMILES>  (16) 
CCc1noc(CNc2cc(S(=O)(=O)N3CCCCC3)ccc2[O-])n1

>  <Energy>  (16) 
78.71144028834993

>  <Genealogy>  (16) 
CCc1noc(CNc2cc(S(=O)(=O)N3CCCCC3)ccc2[O-])n1 (protonated)
CCc1noc(CNc2cc(S(=O)(=O)N3CCCCC3)ccc2[O-])n1 (3D coordinates assigned)
CCc1noc(CNc2cc(S(=O)(=O)N3CCCCC3)ccc2[O-])n1 (nonaromatic ring conformer: 78.71144028834993 kcal/mol)

>  <smiles>  (16) 
CCc1noc(CNc2cc(S(=O)(=O)N3CCCCC3)ccc2O)n1

>  <score_type>  (16) 
oracle

>  <origin>  (16) 
adgpu

>  <m_score__min__energy>  (16) 
-12.460000000000001

>  <m_primary>  (16) 
energy

$$$$
16:0
     RDKit          3D

 61 64  0  0  0  0  0  0  0  0999 V2000
    1.0160   23.4530  -24.4770 C   0  0  0  0  0  0  0  0  0  0  0  0
    0.5230   24.2030  -25.6500 N   0  0  0  0  0  0  0  0  0  0  0  0
    1.3330   23.9370  -26.8620 C   0  0  0  0  0  0  0  0  0  0  0  0
    1.0810   22.5420  -27.4510 C   0  0  0  0  0  0  0  0  0  0  0  0
   -0.3570   22.3310  -27.6100 N   0  0  0  0  0  0  0  0  0  0  0  0
   -0.9100   21.9600  -28.8870 C   0  0  0  0  0  0  0  0  0  0  0  0
   -0.8040   20.6310  -29.3250 C   0  0  0  0  0  0  0  0  0  0  0  0
   -1.3830   20.2340  -30.5320 C   0  0  0  0  0  0  0  0  0  0  0  0
   -2.0880   21.1560  -31.3140 C   0  0  0  0  0  0  0  0  0  0  0  0
   -2.8550   20.6450  -32.8200 S   0  0  0  0  0  0  0  0  0  0  0  0
   -1.8220   20.0160  -33.7130 O   0  0  0  0  0  0  0  0  0  0  0  0
   -3.4100   21.8510  -33.5270 O   0  0  0  0  0  0  0  0  0  0  0  0
   -4.1380   19.4950  -32.5220 N   0  0  0  0  0  0  0  0  0  0  0  0
   -5.1730   20.0550  -31.6170 C   0  0  0  0  0  0  0  0  0  0  0  0
   -6.4310   20.5220  -32.3630 C   0  0  0  0  0  0  0  0  0  0  0  0
   -7.0710   19.3670  -33.1530 C   0  0  0  0  0  0  0  0  0  0  0  0
   -6.0410   18.3250  -33.6230 C   0  0  0  0  0  0  0  0  0  0  0  0
   -4.6590   18.9620  -33.8010 C   0  0  0  0  0  0  0  0  0  0  0  0
   -2.1910   22.4860  -30.8880 C   0  0  0  0  0  0  0  0  0  0  0  0
   -1.5960   22.8980  -29.6880 C   0  0  0  0  0  0  0  0  0  0  0  0
   -1.6530   24.3250  -29.3260 C   0  0  0  0  0  0  0  0  0  0  0  0
   -0.6020   24.9070  -28.9580 O   0  0  0  0  0  0  0  0  0  0  0  0
   -2.8880   25.0540  -29.3440 N   0  0  0  0  0  0  0  0  0  0  0  0
   -4.1610   24.5500  -28.8370 C   0  0  0  0  0  0  0  0  0  0  0  0
   -5.0770   24.1980  -29.9670 C   0  0  0  0  0  0  0  0  0  0  0  0
   -6.4000   23.8200  -29.8460 C   0  0  0  0  0  0  0  0  0  0  0  0
   -6.8300   23.5710  -31.1330 C   0  0  0  0  0  0  0  0  0  0  0  0
   -5.7460   23.8120  -31.9540 C   0  0  0  0  0  0  0  0  0  0  0  0
   -4.7160   24.1860  -31.2290 O   0  0  0  0  0  0  0  0  0  0  0  0
   -1.2220   22.5890  -26.4580 C   0  0  0  0  0  0  0  0  0  0  0  0
   -0.9230   23.9820  -25.8890 C   0  0  0  0  0  0  0  0  0  0  0  0
    0.6860   23.9551  -23.5556 H   0  0  0  0  0  0  0  0  0  0  0  0
    0.6141   22.4293  -24.5009 H   0  0  0  0  0  0  0  0  0  0  0  0
    2.1151   23.4160  -24.5009 H   0  0  0  0  0  0  0  0  0  0  0  0
    0.6410   25.2180  -25.4200 H   0  0  0  0  0  0  0  0  0  0  0  0
    1.0838   24.6905  -27.6237 H   0  0  0  0  0  0  0  0  0  0  0  0
    2.3924   23.9870  -26.5701 H   0  0  0  0  0  0  0  0  0  0  0  0
    1.5734   22.4639  -28.4315 H   0  0  0  0  0  0  0  0  0  0  0  0
    1.4901   21.7789  -26.7726 H   0  0  0  0  0  0  0  0  0  0  0  0
   -0.2606   19.8963  -28.7127 H   0  0  0  0  0  0  0  0  0  0  0  0
   -1.2846   19.1918  -30.8698 H   0  0  0  0  0  0  0  0  0  0  0  0
   -5.4624   19.2794  -30.8926 H   0  0  0  0  0  0  0  0  0  0  0  0
   -4.7370   20.9356  -31.1225 H   0  0  0  0  0  0  0  0  0  0  0  0
   -7.1597   20.9044  -31.6331 H   0  0  0  0  0  0  0  0  0  0  0  0
   -6.1420   21.3111  -33.0728 H   0  0  0  0  0  0  0  0  0  0  0  0
   -7.8087   18.8665  -32.5086 H   0  0  0  0  0  0  0  0  0  0  0  0
   -7.5396   19.7982  -34.0499 H   0  0  0  0  0  0  0  0  0  0  0  0
   -5.9735   17.5223  -32.8739 H   0  0  0  0  0  0  0  0  0  0  0  0
   -6.3683   17.9205  -34.5921 H   0  0  0  0  0  0  0  0  0  0  0  0
   -3.9614   18.2016  -34.1819 H   0  0  0  0  0  0  0  0  0  0  0  0
   -4.7531   19.7976  -34.5101 H   0  0  0  0  0  0  0  0  0  0  0  0
   -2.7437   23.2135  -31.5006 H   0  0  0  0  0  0  0  0  0  0  0  0
   -3.9775   23.6527  -28.2277 H   0  0  0  0  0  0  0  0  0  0  0  0
   -4.6349   25.3338  -28.2279 H   0  0  0  0  0  0  0  0  0  0  0  0
   -6.9867   23.7354  -28.9194 H   0  0  0  0  0  0  0  0  0  0  0  0
   -7.8342   23.2459  -31.4429 H   0  0  0  0  0  0  0  0  0  0  0  0
   -5.7450   23.7068  -33.0490 H   0  0  0  0  0  0  0  0  0  0  0  0
   -2.2748   22.5409  -26.7731 H   0  0  0  0  0  0  0  0  0  0  0  0
   -1.0334   21.8309  -25.6836 H   0  0  0  0  0  0  0  0  0  0  0  0
   -1.2815   24.7383  -26.6028 H   0  0  0  0  0  0  0  0  0  0  0  0
   -1.4365   24.0626  -24.9196 H   0  0  0  0  0  0  0  0  0  0  0  0
  1  2  1  0
  2  3  1  0
  3  4  1  0
  4  5  1  0
  5  6  1  0
  6  7  2  0
  7  8  1  0
  8  9  2  0
  9 10  1  0
 10 11  2  0
 10 12  2  0
 10 13  1  0
 13 14  1  0
 14 15  1  0
 15 16  1  0
 16 17  1  0
 17 18  1  0
  9 19  1  0
 19 20  2  0
 20 21  1  0
 21 22  2  0
 21 23  1  0
 23 24  1  0
 24 25  1  0
 25 26  2  0
 26 27  1  0
 27 28  2  0
 28 29  1  0
  5 30  1  0
 30 31  1  0
 31  2  1  0
 20  6  1  0
 29 25  1  0
 18 13  1  0
  1 32  1  0
  1 33  1  0
  1 34  1  0
  2 35  1  0
  3 36  1  0
  3 37  1  0
  4 38  1  0
  4 39  1  0
  7 40  1  0
  8 41  1  0
 14 42  1  0
 14 43  1  0
 15 44  1  0
 15 45  1  0
 16 46  1  0
 16 47  1  0
 17 48  1  0
 17 49  1  0
 18 50  1  0
 18 51  1  0
 19 52  1  0
 24 53  1  0
 24 54  1  0
 26 55  1  0
 27 56  1  0
 28 57  1  0
 30 58  1  0
 30 59  1  0
 31 60  1  0
 31 61  1  0
M  CHG  2   2   1  23  -1
M  END
>  <UniqueID>  (17) 
15

>  <SMILES>  (17) 
C[NH+]1CCN(c2ccc(S(=O)(=O)N3CCCCC3)cc2C(=O)[N-]Cc2ccco2)CC1

>  <Energy>  (17) 
101.36283191542084

>  <Genealogy>  (17) 
C[NH+]1CCN(c2ccc(S(=O)(=O)N3CCCCC3)cc2C(=O)[N-]Cc2ccco2)CC1 (protonated)
C[NH+]1CCN(c2ccc(S(=O)(=O)N3CCCCC3)cc2C(=O)[N-]Cc2ccco2)CC1 (3D coordinates assigned)
C[NH+]1CCN(c2ccc(S(=O)(=O)N3CCCCC3)cc2C(=O)[N-]Cc2ccco2)CC1 (nonaromatic ring conformer: 101.36283191542084 kcal/mol)

>  <smiles>  (17) 
CN1CCN(c2ccc(S(=O)(=O)N3CCCCC3)cc2C(=O)NCc2ccco2)CC1

>  <score_type>  (17) 
oracle

>  <origin>  (17) 
adgpu

>  <m_score__min__energy>  (17) 
-11.779999999999999

>  <m_primary>  (17) 
energy

$$$$
17:0
     RDKit          3D

 53 55  0  0  0  0  0  0  0  0999 V2000
   -3.6170   24.9330  -26.3640 C   0  0  0  0  0  0  0  0  0  0  0  0
   -4.2540   24.4210  -27.6520 C   0  0  0  0  0  0  0  0  0  0  0  0
   -3.2840   23.5580  -28.4250 C   0  0  0  0  0  0  0  0  0  0  0  0
   -2.6270   22.5040  -27.7670 C   0  0  0  0  0  0  0  0  0  0  0  0
   -1.7060   21.7070  -28.4510 C   0  0  0  0  0  0  0  0  0  0  0  0
   -1.4310   21.9540  -29.7960 C   0  0  0  0  0  0  0  0  0  0  0  0
   -2.0650   23.0060  -30.4600 C   0  0  0  0  0  0  0  0  0  0  0  0
   -2.9760   23.8350  -29.7770 C   0  0  0  0  0  0  0  0  0  0  0  0
   -3.6370   24.9230  -30.4430 N   0  0  0  0  0  0  0  0  0  0  0  0
   -5.0460   25.0550  -30.6750 C   0  0  0  0  0  0  0  0  0  0  0  0
   -5.7240   25.9160  -30.0510 O   0  0  0  0  0  0  0  0  0  0  0  0
   -5.7200   24.1290  -31.6530 C   0  0  1  0  0  0  0  0  0  0  0  0
   -4.8900   22.8440  -31.8920 C   0  0  0  0  0  0  0  0  0  0  0  0
   -5.3790   21.6780  -31.0160 C   0  0  0  0  0  0  0  0  0  0  0  0
   -6.8190   21.3510  -31.2260 N   0  0  2  0  0  0  0  0  0  0  0  0
   -6.9980   19.9550  -32.2700 S   0  0  0  0  0  0  0  0  0  0  0  0
   -7.7110   18.8700  -31.5110 O   0  0  0  0  0  0  0  0  0  0  0  0
   -7.8350   20.3630  -33.4500 O   0  0  0  0  0  0  0  0  0  0  0  0
   -5.4320   19.3080  -32.8300 C   0  0  0  0  0  0  0  0  0  0  0  0
   -4.5000   20.2040  -33.3910 C   0  0  0  0  0  0  0  0  0  0  0  0
   -3.2680   19.7560  -33.8650 C   0  0  0  0  0  0  0  0  0  0  0  0
   -2.9390   18.4080  -33.7890 C   0  0  0  0  0  0  0  0  0  0  0  0
   -3.8320   17.5030  -33.2170 C   0  0  0  0  0  0  0  0  0  0  0  0
   -5.0740   17.9310  -32.7030 C   0  0  0  0  0  0  0  0  0  0  0  0
   -5.9980   16.8950  -32.0860 C   0  0  0  0  0  0  0  0  0  0  0  0
   -5.4510   15.6240  -32.1560 F   0  0  0  0  0  0  0  0  0  0  0  0
   -7.2000   16.8820  -32.7670 F   0  0  0  0  0  0  0  0  0  0  0  0
   -6.2220   17.1680  -30.7500 F   0  0  0  0  0  0  0  0  0  0  0  0
   -7.6250   22.4760  -31.7610 C   0  0  0  0  0  0  0  0  0  0  0  0
   -7.1600   23.8200  -31.1910 C   0  0  0  0  0  0  0  0  0  0  0  0
   -4.1464   24.5075  -25.4988 H   0  0  0  0  0  0  0  0  0  0  0  0
   -2.5599   24.6303  -26.3322 H   0  0  0  0  0  0  0  0  0  0  0  0
   -3.6853   26.0304  -26.3322 H   0  0  0  0  0  0  0  0  0  0  0  0
   -5.1451   23.8266  -27.4019 H   0  0  0  0  0  0  0  0  0  0  0  0
   -4.5314   25.2840  -28.2751 H   0  0  0  0  0  0  0  0  0  0  0  0
   -2.8395   22.3054  -26.7062 H   0  0  0  0  0  0  0  0  0  0  0  0
   -1.1970   20.8837  -27.9284 H   0  0  0  0  0  0  0  0  0  0  0  0
   -0.7129   21.3184  -30.3349 H   0  0  0  0  0  0  0  0  0  0  0  0
   -1.8516   23.1885  -31.5235 H   0  0  0  0  0  0  0  0  0  0  0  0
   -5.7821   24.6378  -32.6263 H   0  0  0  0  0  0  0  0  0  0  0  0
   -3.8363   23.0511  -31.6537 H   0  0  0  0  0  0  0  0  0  0  0  0
   -5.0065   22.5524  -32.9462 H   0  0  0  0  0  0  0  0  0  0  0  0
   -5.2320   21.9482  -29.9599 H   0  0  0  0  0  0  0  0  0  0  0  0
   -4.7965   20.7889  -31.2992 H   0  0  0  0  0  0  0  0  0  0  0  0
   -7.2360   21.1000  -30.2990 H   0  0  0  0  0  0  0  0  0  0  0  0
   -4.7486   21.2736  -33.4558 H   0  0  0  0  0  0  0  0  0  0  0  0
   -2.5545   20.4712  -34.3002 H   0  0  0  0  0  0  0  0  0  0  0  0
   -1.9735   18.0549  -34.1803 H   0  0  0  0  0  0  0  0  0  0  0  0
   -3.5636   16.4375  -33.1656 H   0  0  0  0  0  0  0  0  0  0  0  0
   -8.6801   22.3195  -31.4922 H   0  0  0  0  0  0  0  0  0  0  0  0
   -7.4992   22.5021  -32.8535 H   0  0  0  0  0  0  0  0  0  0  0  0
   -7.1871   23.7769  -30.0922 H   0  0  0  0  0  0  0  0  0  0  0  0
   -7.8300   24.6134  -31.5539 H   0  0  0  0  0  0  0  0  0  0  0  0
  1  2  1  0
  2  3  1  0
  3  4  2  0
  4  5  1  0
  5  6  2  0
  6  7  1  0
  7  8  2  0
  8  9  1  0
  9 10  1  0
 10 11  2  0
 10 12  1  0
 12 13  1  0
 13 14  1  0
 14 15  1  0
 15 16  1  0
 16 17  2  0
 16 18  2  0
 16 19  1  0
 19 20  2  0
 20 21  1  0
 21 22  2  0
 22 23  1  0
 23 24  2  0
 24 25  1  0
 25 26  1  0
 25 27  1  0
 25 28  1  0
 15 29  1  0
 29 30  1  0
  8  3  1  0
 30 12  1  0
 24 19  1  0
  1 31  1  0
  1 32  1  0
  1 33  1  0
  2 34  1  0
  2 35  1  0
  4 36  1  0
  5 37  1  0
  6 38  1  0
  7 39  1  0
 12 40  1  6
 13 41  1  0
 13 42  1  0
 14 43  1  0
 14 44  1  0
 15 45  1  1
 20 46  1  0
 21 47  1  0
 22 48  1  0
 23 49  1  0
 29 50  1  0
 29 51  1  0
 30 52  1  0
 30 53  1  0
M  CHG  2   9  -1  15   1
M  END
>  <UniqueID>  (18) 
16

>  <SMILES>  (18) 
CCc1ccccc1[N-]C(=O)C1CC[NH+](S(=O)(=O)c2ccccc2C(F)(F)F)CC1

>  <Energy>  (18) 
67.59005543195394

>  <Genealogy>  (18) 
CCc1ccccc1[N-]C(=O)C1CC[NH+](S(=O)(=O)c2ccccc2C(F)(F)F)CC1 (protonated)
CCc1ccccc1[N-]C(=O)C1CC[NH+](S(=O)(=O)c2ccccc2C(F)(F)F)CC1 (3D coordinates assigned)
CCc1ccccc1[N-]C(=O)C1CC[NH+](S(=O)(=O)c2ccccc2C(F)(F)F)CC1 (nonaromatic ring conformer: 67.59005543195394 kcal/mol)

>  <smiles>  (18) 
CCc1ccccc1NC(=O)C1CCN(S(=O)(=O)c2ccccc2C(F)(F)F)CC1

>  <score_type>  (18) 
oracle

>  <origin>  (18) 
adgpu

>  <m_score__min__energy>  (18) 
-10.130000000000001

>  <m_primary>  (18) 
energy

$$$$
18:0
     RDKit          3D

 41 43  0  0  0  0  0  0  0  0999 V2000
   -9.1030   20.4540  -32.3140 C   0  0  0  0  0  0  0  0  0  0  0  0
   -9.0810   18.9740  -31.9370 C   0  0  0  0  0  0  0  0  0  0  0  0
   -7.9480   18.2100  -32.6330 C   0  0  0  0  0  0  0  0  0  0  0  0
   -6.7490   19.0790  -32.8550 C   0  0  0  0  0  0  0  0  0  0  0  0
   -6.3530   19.5110  -34.0690 N   0  0  0  0  0  0  0  0  0  0  0  0
   -5.3200   20.2580  -33.8330 O   0  0  0  0  0  0  0  0  0  0  0  0
   -5.0870   20.3000  -32.5420 C   0  0  0  0  0  0  0  0  0  0  0  0
   -3.9800   21.0530  -31.9200 C   0  0  0  0  0  0  0  0  0  0  0  0
   -2.6910   20.5050  -31.8770 C   0  0  0  0  0  0  0  0  0  0  0  0
   -1.6470   21.2100  -31.2770 C   0  0  0  0  0  0  0  0  0  0  0  0
   -1.8720   22.4630  -30.6980 C   0  0  0  0  0  0  0  0  0  0  0  0
   -0.7790   23.1360  -30.1480 O   0  0  0  0  0  0  0  0  0  0  0  0
   -3.1770   23.0100  -30.6990 C   0  0  0  0  0  0  0  0  0  0  0  0
   -3.5490   24.5390  -29.8880 S   0  0  0  0  0  0  0  0  0  0  0  0
   -4.4500   24.2550  -28.7200 O   0  0  0  0  0  0  0  0  0  0  0  0
   -4.2540   25.4650  -30.8410 O   0  0  0  0  0  0  0  0  0  0  0  0
   -2.0920   25.2950  -29.2940 N   0  0  0  0  0  0  0  0  0  0  0  0
   -1.9590   25.1740  -27.8400 C   0  0  0  0  0  0  0  0  0  0  0  0
   -0.6520   24.5450  -27.4710 C   0  0  0  0  0  0  0  0  0  0  0  0
   -0.3860   23.8490  -26.3090 C   0  0  0  0  0  0  0  0  0  0  0  0
    0.9440   23.4930  -26.3870 C   0  0  0  0  0  0  0  0  0  0  0  0
    1.4040   23.9920  -27.5890 C   0  0  0  0  0  0  0  0  0  0  0  0
    0.4300   24.6150  -28.2130 O   0  0  0  0  0  0  0  0  0  0  0  0
   -4.2090   22.3130  -31.3480 C   0  0  0  0  0  0  0  0  0  0  0  0
   -5.9810   19.5610  -31.8560 N   0  0  0  0  0  0  0  0  0  0  0  0
   -9.1121   21.0652  -31.3995 H   0  0  0  0  0  0  0  0  0  0  0  0
   -8.2083   20.6947  -32.9070 H   0  0  0  0  0  0  0  0  0  0  0  0
  -10.0044   20.6680  -32.9070 H   0  0  0  0  0  0  0  0  0  0  0  0
   -8.9479   18.8887  -30.8484 H   0  0  0  0  0  0  0  0  0  0  0  0
  -10.0337   18.5309  -32.2626 H   0  0  0  0  0  0  0  0  0  0  0  0
   -7.6570   17.3545  -32.0058 H   0  0  0  0  0  0  0  0  0  0  0  0
   -8.3137   17.8730  -33.6142 H   0  0  0  0  0  0  0  0  0  0  0  0
   -2.5015   19.5152  -32.3180 H   0  0  0  0  0  0  0  0  0  0  0  0
   -0.6365   20.7757  -31.2592 H   0  0  0  0  0  0  0  0  0  0  0  0
   -0.7900   24.1200  -29.9160 H   0  0  0  0  0  0  0  0  0  0  0  0
   -2.0161   26.1757  -27.3890 H   0  0  0  0  0  0  0  0  0  0  0  0
   -2.7729   24.5357  -27.4657 H   0  0  0  0  0  0  0  0  0  0  0  0
   -1.0878   23.6252  -25.4921 H   0  0  0  0  0  0  0  0  0  0  0  0
    1.5215   22.9260  -25.6420 H   0  0  0  0  0  0  0  0  0  0  0  0
    2.4312   23.8843  -27.9674 H   0  0  0  0  0  0  0  0  0  0  0  0
   -5.2115   22.7617  -31.4086 H   0  0  0  0  0  0  0  0  0  0  0  0
  1  2  1  0
  2  3  1  0
  3  4  1  0
  4  5  2  0
  5  6  1  0
  6  7  1  0
  7  8  1  0
  8  9  2  0
  9 10  1  0
 10 11  2  0
 11 12  1  0
 11 13  1  0
 13 14  1  0
 14 15  2  0
 14 16  2  0
 14 17  1  0
 17 18  1  0
 18 19  1  0
 19 20  2  0
 20 21  1  0
 21 22  2  0
 22 23  1  0
 13 24  2  0
  7 25  2  0
 25  4  1  0
 24  8  1  0
 23 19  1  0
  1 26  1  0
  1 27  1  0
  1 28  1  0
  2 29  1  0
  2 30  1  0
  3 31  1  0
  3 32  1  0
  9 33  1  0
 10 34  1  0
 12 35  1  0
 18 36  1  0
 18 37  1  0
 20 38  1  0
 21 39  1  0
 22 40  1  0
 24 41  1  0
M  CHG  1  17  -1
M  END
>  <UniqueID>  (19) 
17

>  <SMILES>  (19) 
CCCc1noc(-c2ccc(O)c(S(=O)(=O)[N-]Cc3ccco3)c2)n1

>  <Energy>  (19) 
94.87399636573835

>  <Genealogy>  (19) 
CCCc1noc(-c2ccc(O)c(S(=O)(=O)[N-]Cc3ccco3)c2)n1 (protonated)
CCCc1noc(-c2ccc(O)c(S(=O)(=O)[N-]Cc3ccco3)c2)n1 (3D coordinates assigned)
CCCc1noc(-c2ccc(O)c(S(=O)(=O)[N-]Cc3ccco3)c2)n1 (optimized conformer: 94.87399636573835 kcal/mol)

>  <smiles>  (19) 
CCCc1noc(-c2ccc(O)c(S(=O)(=O)NCc3ccco3)c2)n1

>  <score_type>  (19) 
oracle

>  <origin>  (19) 
adgpu

>  <m_score__min__energy>  (19) 
-9.5199999999999996

>  <m_primary>  (19) 
energy

$$$$
19:0
     RDKit          3D

 53 55  0  0  0  0  0  0  0  0999 V2000
    2.6490   26.8660  -37.9010 C   0  0  0  0  0  0  0  0  0  0  0  0
    1.7040   25.9010  -37.1670 C   0  0  1  0  0  0  0  0  0  0  0  0
    1.2710   24.9080  -38.0580 O   0  0  0  0  0  0  0  0  0  0  0  0
    2.3980   25.2390  -35.9770 C   0  0  0  0  0  0  0  0  0  0  0  0
    1.4760   24.2990  -35.3450 N   0  0  0  0  0  0  0  0  0  0  0  0
    1.3920   23.0290  -35.6030 C   0  0  0  0  0  0  0  0  0  0  0  0
    0.4510   22.2900  -34.9700 N   0  0  0  0  0  0  0  0  0  0  0  0
    0.2970   20.9570  -35.2070 C   0  0  0  0  0  0  0  0  0  0  0  0
   -0.7440   20.2460  -34.5150 N   0  0  0  0  0  0  0  0  0  0  0  0
   -0.9160   18.9120  -34.4000 C   0  0  0  0  0  0  0  0  0  0  0  0
   -2.0770   18.6520  -33.6940 C   0  0  0  0  0  0  0  0  0  0  0  0
   -2.6180   19.8810  -33.3630 C   0  0  0  0  0  0  0  0  0  0  0  0
   -3.9040   20.1550  -32.7210 C   0  0  0  0  0  0  0  0  0  0  0  0
   -4.2020   19.5640  -31.6460 O   0  0  0  0  0  0  0  0  0  0  0  0
   -4.8520   21.0340  -33.3310 N   0  0  0  0  0  0  0  0  0  0  0  0
   -5.5960   22.0090  -32.5770 C   0  0  0  0  0  0  0  0  0  0  0  0
   -6.9780   21.8410  -32.3320 C   0  0  0  0  0  0  0  0  0  0  0  0
   -7.6770   22.7810  -31.5790 C   0  0  0  0  0  0  0  0  0  0  0  0
   -7.0210   23.8890  -31.0460 C   0  0  0  0  0  0  0  0  0  0  0  0
   -5.6440   24.0640  -31.2520 C   0  0  0  0  0  0  0  0  0  0  0  0
   -4.9380   25.2020  -30.6170 C   0  0  0  0  0  0  0  0  0  0  0  0
   -5.5820   26.2230  -30.2420 O   0  0  0  0  0  0  0  0  0  0  0  0
   -3.5090   25.1700  -30.4760 N   0  0  0  0  0  0  0  0  0  0  0  0
   -2.7930   24.1790  -29.6770 C   0  0  0  0  0  0  0  0  0  0  0  0
   -3.7150   23.5640  -28.6260 C   0  0  0  0  0  0  0  0  0  0  0  0
   -4.4260   24.5540  -27.9380 O   0  0  0  0  0  0  0  0  0  0  0  0
   -4.9260   23.1150  -32.0200 C   0  0  0  0  0  0  0  0  0  0  0  0
   -1.7840   20.8400  -33.8770 C   0  0  0  0  0  0  0  0  0  0  0  0
    1.1490   20.3340  -36.1270 C   0  0  0  0  0  0  0  0  0  0  0  0
    2.1210   21.1080  -36.7660 C   0  0  0  0  0  0  0  0  0  0  0  0
    2.2250   22.4340  -36.4950 N   0  0  0  0  0  0  0  0  0  0  0  0
    3.2209   27.4500  -37.1649 H   0  0  0  0  0  0  0  0  0  0  0  0
    3.3429   26.2909  -38.5317 H   0  0  0  0  0  0  0  0  0  0  0  0
    2.0595   27.5477  -38.5317 H   0  0  0  0  0  0  0  0  0  0  0  0
    0.8475   26.4794  -36.7905 H   0  0  0  0  0  0  0  0  0  0  0  0
    1.3950   24.0430  -37.5980 H   0  0  0  0  0  0  0  0  0  0  0  0
    3.2914   24.7000  -36.3254 H   0  0  0  0  0  0  0  0  0  0  0  0
    2.6979   26.0078  -35.2497 H   0  0  0  0  0  0  0  0  0  0  0  0
   -0.2365   18.1481  -34.8058 H   0  0  0  0  0  0  0  0  0  0  0  0
   -2.4887   17.6628  -33.4450 H   0  0  0  0  0  0  0  0  0  0  0  0
   -4.9800   20.9840  -34.3650 H   0  0  0  0  0  0  0  0  0  0  0  0
   -7.5035   20.9640  -32.7379 H   0  0  0  0  0  0  0  0  0  0  0  0
   -8.7548   22.6480  -31.4036 H   0  0  0  0  0  0  0  0  0  0  0  0
   -7.5854   24.6301  -30.4609 H   0  0  0  0  0  0  0  0  0  0  0  0
   -2.4188   23.3839  -30.3386 H   0  0  0  0  0  0  0  0  0  0  0  0
   -1.9555   24.6757  -29.1653 H   0  0  0  0  0  0  0  0  0  0  0  0
   -4.4278   22.8900  -29.1236 H   0  0  0  0  0  0  0  0  0  0  0  0
   -3.0992   23.0096  -27.9025 H   0  0  0  0  0  0  0  0  0  0  0  0
   -4.5340   25.3150  -28.5540 H   0  0  0  0  0  0  0  0  0  0  0  0
   -3.8453   23.2420  -32.1813 H   0  0  0  0  0  0  0  0  0  0  0  0
   -1.9349   21.9258  -33.7861 H   0  0  0  0  0  0  0  0  0  0  0  0
    1.0552   19.2593  -36.3419 H   0  0  0  0  0  0  0  0  0  0  0  0
    2.8041   20.6413  -37.4910 H   0  0  0  0  0  0  0  0  0  0  0  0
  1  2  1  0
  2  3  1  0
  2  4  1  0
  4  5  1  0
  5  6  2  3
  6  7  1  0
  7  8  2  0
  8  9  1  0
  9 10  1  0
 10 11  2  0
 11 12  1  0
 12 13  1  0
 13 14  2  0
 13 15  1  0
 15 16  1  0
 16 17  2  0
 17 18  1  0
 18 19  2  0
 19 20  1  0
 20 21  1  0
 21 22  2  0
 21 23  1  0
 23 24  1  0
 24 25  1  0
 25 26  1  0
 20 27  2  0
 12 28  2  0
  8 29  1  0
 29 30  2  0
 30 31  1  0
 31  6  1  0
 28  9  1  0
 27 16  1  0
  1 32  1  0
  1 33  1  0
  1 34  1  0
  2 35  1  1
  3 36  1  0
  4 37  1  0
  4 38  1  0
 10 39  1  0
 11 40  1  0
 15 41  1  0
 17 42  1  0
 18 43  1  0
 19 44  1  0
 24 45  1  0
 24 46  1  0
 25 47  1  0
 25 48  1  0
 26 49  1  0
 27 50  1  0
 28 51  1  0
 29 52  1  0
 30 53  1  0
M  CHG  2  23  -1  31  -1
M  END
>  <UniqueID>  (20) 
18

>  <SMILES>  (20) 
C[C@@H](O)CN=c1nc(-n2ccc(C(=O)Nc3cccc(C(=O)[N-]CCO)c3)c2)cc[n-]1

>  <Energy>  (20) 
88.56780764844696

>  <Genealogy>  (20) 
CC(O)CN=c1nc(-n2ccc(C(=O)Nc3cccc(C(=O)[N-]CCO)c3)c2)cc[n-]1 (protonated)
C[C@@H](O)CN=c1nc(-n2ccc(C(=O)Nc3cccc(C(=O)[N-]CCO)c3)c2)cc[n-]1 (chirality)
C[C@@H](O)CN=c1nc(-n2ccc(C(=O)Nc3cccc(C(=O)[N-]CCO)c3)c2)cc[n-]1 (3D coordinates assigned)
C[C@@H](O)CN=c1nc(-n2ccc(C(=O)Nc3cccc(C(=O)[N-]CCO)c3)c2)cc[n-]1 (optimized conformer: 88.56780764844696 kcal/mol)

>  <smiles>  (20) 
CC(O)CN=c1nc(-n2ccc(C(=O)Nc3cccc(C(=O)NCCO)c3)c2)cc[nH]1

>  <score_type>  (20) 
oracle

>  <origin>  (20) 
adgpu

>  <m_score__min__energy>  (20) 
-12.210000000000001

>  <m_primary>  (20) 
energy

$$$$
20:0
     RDKit          3D

 54 56  0  0  0  0  0  0  0  0999 V2000
   -0.8700   27.0580  -27.9580 C   0  0  0  0  0  0  0  0  0  0  0  0
   -1.2500   26.0480  -28.9380 N   0  0  0  0  0  0  0  0  0  0  0  0
   -0.8610   24.6710  -28.8670 C   0  0  0  0  0  0  0  0  0  0  0  0
    0.3480   24.3870  -28.6590 O   0  0  0  0  0  0  0  0  0  0  0  0
   -1.8300   23.5780  -29.0710 C   0  0  0  0  0  0  0  0  0  0  0  0
   -2.6170   23.1170  -28.0060 C   0  0  0  0  0  0  0  0  0  0  0  0
   -3.5510   22.0990  -28.2130 C   0  0  0  0  0  0  0  0  0  0  0  0
   -3.7110   21.5440  -29.4870 C   0  0  0  0  0  0  0  0  0  0  0  0
   -2.9140   21.9820  -30.5520 C   0  0  0  0  0  0  0  0  0  0  0  0
   -3.2120   21.3740  -32.1770 S   0  0  0  0  0  0  0  0  0  0  0  0
   -3.7030   19.9560  -32.0940 O   0  0  0  0  0  0  0  0  0  0  0  0
   -1.9520   21.4030  -32.9960 O   0  0  0  0  0  0  0  0  0  0  0  0
   -4.4200   22.3670  -32.9220 N   0  0  0  0  0  0  0  0  0  0  0  0
   -5.7800   22.2630  -32.4850 C   0  0  0  0  0  0  0  0  0  0  0  0
   -6.3980   23.3310  -31.8280 C   0  0  0  0  0  0  0  0  0  0  0  0
   -7.6800   23.1820  -31.3010 C   0  0  0  0  0  0  0  0  0  0  0  0
   -8.3530   21.9500  -31.3830 C   0  0  0  0  0  0  0  0  0  0  0  0
   -9.7270   21.8530  -30.7720 C   0  0  0  0  0  0  0  0  0  0  0  0
   -7.7310   20.8640  -32.0600 C   0  0  0  0  0  0  0  0  0  0  0  0
   -8.4280   19.2280  -32.1620 S   0  0  0  0  0  0  0  0  0  0  0  0
   -9.5580   19.2590  -33.1540 O   0  0  0  0  0  0  0  0  0  0  0  0
   -9.0050   18.7980  -30.8450 O   0  0  0  0  0  0  0  0  0  0  0  0
   -7.2340   18.0450  -32.6670 N   0  0  0  0  0  0  0  0  0  0  0  0
   -6.2980   17.7500  -31.5720 C   0  0  0  0  0  0  0  0  0  0  0  0
   -5.3940   16.5560  -31.9300 C   0  0  0  0  0  0  0  0  0  0  0  0
   -5.3010   16.3200  -33.4440 C   0  0  0  0  0  0  0  0  0  0  0  0
   -5.2820   17.6470  -34.2030 C   0  0  0  0  0  0  0  0  0  0  0  0
   -6.5140   18.5160  -33.8700 C   0  0  0  0  0  0  0  0  0  0  0  0
   -6.4640   21.0550  -32.6350 C   0  0  0  0  0  0  0  0  0  0  0  0
   -1.9630   22.9900  -30.3370 C   0  0  0  0  0  0  0  0  0  0  0  0
   -1.0199   26.6595  -26.9438 H   0  0  0  0  0  0  0  0  0  0  0  0
    0.1890   27.3221  -28.0954 H   0  0  0  0  0  0  0  0  0  0  0  0
   -1.4923   27.9546  -28.0954 H   0  0  0  0  0  0  0  0  0  0  0  0
   -2.4987   23.5580  -27.0052 H   0  0  0  0  0  0  0  0  0  0  0  0
   -4.1610   21.7336  -27.3737 H   0  0  0  0  0  0  0  0  0  0  0  0
   -4.4654   20.7608  -29.6529 H   0  0  0  0  0  0  0  0  0  0  0  0
   -4.2250   22.7130  -33.8890 H   0  0  0  0  0  0  0  0  0  0  0  0
   -5.8714   24.2914  -31.7266 H   0  0  0  0  0  0  0  0  0  0  0  0
   -8.1709   24.0382  -30.8153 H   0  0  0  0  0  0  0  0  0  0  0  0
   -9.6419   21.8590  -29.6753 H   0  0  0  0  0  0  0  0  0  0  0  0
  -10.3343   22.7105  -31.0973 H   0  0  0  0  0  0  0  0  0  0  0  0
  -10.2078   20.9187  -31.0973 H   0  0  0  0  0  0  0  0  0  0  0  0
   -5.6705   18.6342  -31.3863 H   0  0  0  0  0  0  0  0  0  0  0  0
   -6.8777   17.4952  -30.6725 H   0  0  0  0  0  0  0  0  0  0  0  0
   -4.3836   16.7498  -31.5408 H   0  0  0  0  0  0  0  0  0  0  0  0
   -5.8364   15.6557  -31.4787 H   0  0  0  0  0  0  0  0  0  0  0  0
   -4.3776   15.7650  -33.6659 H   0  0  0  0  0  0  0  0  0  0  0  0
   -6.1818   15.7444  -33.7647 H   0  0  0  0  0  0  0  0  0  0  0  0
   -4.3715   18.2005  -33.9296 H   0  0  0  0  0  0  0  0  0  0  0  0
   -5.3014   17.4250  -35.2802 H   0  0  0  0  0  0  0  0  0  0  0  0
   -6.1798   19.5499  -33.6983 H   0  0  0  0  0  0  0  0  0  0  0  0
   -7.2081   18.4499  -34.7208 H   0  0  0  0  0  0  0  0  0  0  0  0
   -6.0032   20.2401  -33.2126 H   0  0  0  0  0  0  0  0  0  0  0  0
   -1.3187   23.3208  -31.1649 H   0  0  0  0  0  0  0  0  0  0  0  0
  1  2  1  0
  2  3  1  0
  3  4  2  0
  3  5  1  0
  5  6  2  0
  6  7  1  0
  7  8  2  0
  8  9  1  0
  9 10  1  0
 10 11  2  0
 10 12  2  0
 10 13  1  0
 13 14  1  0
 14 15  2  0
 15 16  1  0
 16 17  2  0
 17 18  1  0
 17 19  1  0
 19 20  1  0
 20 21  2  0
 20 22  2  0
 20 23  1  0
 23 24  1  0
 24 25  1  0
 25 26  1  0
 26 27  1  0
 27 28  1  0
 19 29  2  0
  9 30  2  0
 30  5  1  0
 29 14  1  0
 28 23  1  0
  1 31  1  0
  1 32  1  0
  1 33  1  0
  6 34  1  0
  7 35  1  0
  8 36  1  0
 13 37  1  0
 15 38  1  0
 16 39  1  0
 18 40  1  0
 18 41  1  0
 18 42  1  0
 24 43  1  0
 24 44  1  0
 25 45  1  0
 25 46  1  0
 26 47  1  0
 26 48  1  0
 27 49  1  0
 27 50  1  0
 28 51  1  0
 28 52  1  0
 29 53  1  0
 30 54  1  0
M  CHG  1   2  -1
M  END
>  <UniqueID>  (21) 
19

>  <SMILES>  (21) 
C[N-]C(=O)c1cccc(S(=O)(=O)Nc2ccc(C)c(S(=O)(=O)N3CCCCC3)c2)c1

>  <Energy>  (21) 
64.3069776946568

>  <Genealogy>  (21) 
C[N-]C(=O)c1cccc(S(=O)(=O)Nc2ccc(C)c(S(=O)(=O)N3CCCCC3)c2)c1 (protonated)
C[N-]C(=O)c1cccc(S(=O)(=O)Nc2ccc(C)c(S(=O)(=O)N3CCCCC3)c2)c1 (3D coordinates assigned)
C[N-]C(=O)c1cccc(S(=O)(=O)Nc2ccc(C)c(S(=O)(=O)N3CCCCC3)c2)c1 (nonaromatic ring conformer: 64.3069776946568 kcal/mol)

>  <smiles>  (21) 
CNC(=O)c1cccc(S(=O)(=O)Nc2ccc(C)c(S(=O)(=O)N3CCCCC3)c2)c1

>  <score_type>  (21) 
oracle

>  <origin>  (21) 
adgpu

>  <m_score__min__energy>  (21) 
-12.199999999999999

>  <m_primary>  (21) 
energy

$$$$
21:0
     RDKit          3D

 62 64  0  0  0  0  0  0  0  0999 V2000
   -3.4620   18.9140  -26.3950 C   0  0  0  0  0  0  0  0  0  0  0  0
   -2.0040   19.3600  -26.3440 C   0  0  0  0  0  0  0  0  0  0  0  0
   -1.3320   19.2140  -27.7150 C   0  0  0  0  0  0  0  0  0  0  0  0
   -0.8210   20.5670  -28.2540 C   0  0  0  0  0  0  0  0  0  0  0  0
   -1.9180   21.4210  -28.7860 N   0  0  0  0  0  0  0  0  0  0  0  0
   -2.5330   22.2410  -27.7090 C   0  0  0  0  0  0  0  0  0  0  0  0
   -3.9350   22.7840  -28.0720 C   0  0  0  0  0  0  0  0  0  0  0  0
   -4.2100   24.1800  -27.4960 C   0  0  0  0  0  0  0  0  0  0  0  0
   -2.9860   24.7330  -26.7750 C   0  0  0  0  0  0  0  0  0  0  0  0
   -1.4290   22.2580  -29.8710 C   0  0  0  0  0  0  0  0  0  0  0  0
   -0.8160   23.2830  -29.6060 O   0  0  0  0  0  0  0  0  0  0  0  0
   -1.6850   21.9280  -31.3270 C   0  0  0  0  0  0  0  0  0  0  0  0
   -3.0710   21.4820  -31.5240 N   0  0  0  0  0  0  0  0  0  0  0  0
   -3.2800   20.1710  -31.7380 N   0  0  0  0  0  0  0  0  0  0  0  0
   -4.5240   19.6460  -31.9150 C   0  0  0  0  0  0  0  0  0  0  0  0
   -5.6010   20.5140  -31.8620 C   0  0  0  0  0  0  0  0  0  0  0  0
   -6.9490   20.3120  -32.0240 C   0  0  0  0  0  0  0  0  0  0  0  0
   -7.6850   19.1590  -32.2940 C   0  0  0  0  0  0  0  0  0  0  0  0
   -9.0770   19.2910  -32.4390 C   0  0  0  0  0  0  0  0  0  0  0  0
   -9.6930   20.5550  -32.3210 C   0  0  0  0  0  0  0  0  0  0  0  0
   -8.9260   21.7040  -32.0520 C   0  0  0  0  0  0  0  0  0  0  0  0
   -7.5420   21.5530  -31.8980 C   0  0  0  0  0  0  0  0  0  0  0  0
   -6.6160   22.5140  -31.6500 N   0  0  0  0  0  0  0  0  0  0  0  0
   -6.8570   23.9550  -31.5120 C   0  0  0  0  0  0  0  0  0  0  0  0
   -6.5200   24.4140  -30.0900 C   0  0  0  0  0  0  0  0  0  0  0  0
   -5.7390   25.7240  -30.1020 C   0  0  0  0  0  0  0  0  0  0  0  0
   -5.4220   21.8580  -31.6470 C   0  0  0  0  0  0  0  0  0  0  0  0
   -4.1280   22.3660  -31.4880 C   0  0  0  0  0  0  0  0  0  0  0  0
   -3.9360   23.6000  -31.3220 O   0  0  0  0  0  0  0  0  0  0  0  0
   -3.8456   18.7967  -25.3707 H   0  0  0  0  0  0  0  0  0  0  0  0
   -4.0586   19.6707  -26.9255 H   0  0  0  0  0  0  0  0  0  0  0  0
   -3.5331   17.9530  -26.9255 H   0  0  0  0  0  0  0  0  0  0  0  0
   -1.9618   20.4146  -26.0340 H   0  0  0  0  0  0  0  0  0  0  0  0
   -1.4694   18.7229  -25.6240 H   0  0  0  0  0  0  0  0  0  0  0  0
   -0.4803   18.5241  -27.6217 H   0  0  0  0  0  0  0  0  0  0  0  0
   -2.0810   18.8271  -28.4217 H   0  0  0  0  0  0  0  0  0  0  0  0
   -0.3199   21.1057  -27.4362 H   0  0  0  0  0  0  0  0  0  0  0  0
   -0.1300   20.3562  -29.0835 H   0  0  0  0  0  0  0  0  0  0  0  0
   -2.6570   20.7930  -29.1810 H   0  0  0  0  0  0  0  0  0  0  0  0
   -2.6234   21.6190  -26.8063 H   0  0  0  0  0  0  0  0  0  0  0  0
   -1.8794   23.1116  -27.5517 H   0  0  0  0  0  0  0  0  0  0  0  0
   -4.0172   22.8354  -29.1677 H   0  0  0  0  0  0  0  0  0  0  0  0
   -4.6750   22.0979  -27.6341 H   0  0  0  0  0  0  0  0  0  0  0  0
   -4.4794   24.8599  -28.3177 H   0  0  0  0  0  0  0  0  0  0  0  0
   -5.0333   24.1002  -26.7709 H   0  0  0  0  0  0  0  0  0  0  0  0
   -3.1386   24.6641  -25.6878 H   0  0  0  0  0  0  0  0  0  0  0  0
   -2.0983   24.1485  -27.0585 H   0  0  0  0  0  0  0  0  0  0  0  0
   -2.8379   25.7855  -27.0585 H   0  0  0  0  0  0  0  0  0  0  0  0
   -1.5044   22.8251  -31.9374 H   0  0  0  0  0  0  0  0  0  0  0  0
   -1.0067   21.1166  -31.6296 H   0  0  0  0  0  0  0  0  0  0  0  0
   -4.6679   18.5702  -32.0938 H   0  0  0  0  0  0  0  0  0  0  0  0
   -7.1933   18.1797  -32.3902 H   0  0  0  0  0  0  0  0  0  0  0  0
   -9.6908   18.4020  -32.6461 H   0  0  0  0  0  0  0  0  0  0  0  0
  -10.7829   20.6432  -32.4404 H   0  0  0  0  0  0  0  0  0  0  0  0
   -9.4001   22.6928  -31.9651 H   0  0  0  0  0  0  0  0  0  0  0  0
   -6.2248   24.4994  -32.2289 H   0  0  0  0  0  0  0  0  0  0  0  0
   -7.9182   24.1624  -31.7140 H   0  0  0  0  0  0  0  0  0  0  0  0
   -7.4550   24.5592  -29.5291 H   0  0  0  0  0  0  0  0  0  0  0  0
   -5.8971   23.6423  -29.6141 H   0  0  0  0  0  0  0  0  0  0  0  0
   -5.5471   26.0459  -29.0678 H   0  0  0  0  0  0  0  0  0  0  0  0
   -4.7819   25.5755  -30.6234 H   0  0  0  0  0  0  0  0  0  0  0  0
   -6.3248   26.4954  -30.6234 H   0  0  0  0  0  0  0  0  0  0  0  0
  1  2  1  0
  2  3  1  0
  3  4  1  0
  4  5  1  0
  5  6  1  0
  6  7  1  0
  7  8  1  0
  8  9  1  0
  5 10  1  0
 10 11  2  0
 10 12  1  0
 12 13  1  0
 13 14  1  0
 14 15  2  0
 15 16  1  0
 16 17  1  0
 17 18  2  0
 18 19  1  0
 19 20  2  0
 20 21  1  0
 21 22  2  0
 22 23  1  0
 23 24  1  0
 24 25  1  0
 25 26  1  0
 23 27  1  0
 27 28  1  0
 28 29  2  0
 28 13  1  0
 27 16  2  0
 22 17  1  0
  1 30  1  0
  1 31  1  0
  1 32  1  0
  2 33  1  0
  2 34  1  0
  3 35  1  0
  3 36  1  0
  4 37  1  0
  4 38  1  0
  5 39  1  0
  6 40  1  0
  6 41  1  0
  7 42  1  0
  7 43  1  0
  8 44  1  0
  8 45  1  0
  9 46  1  0
  9 47  1  0
  9 48  1  0
 12 49  1  0
 12 50  1  0
 15 51  1  0
 18 52  1  0
 19 53  1  0
 20 54  1  0
 21 55  1  0
 24 56  1  0
 24 57  1  0
 25 58  1  0
 25 59  1  0
 26 60  1  0
 26 61  1  0
 26 62  1  0
M  CHG  1   5   1
M  END
>  <UniqueID>  (22) 
20

>  <SMILES>  (22) 
CCCC[NH+](CCCC)C(=O)Cn1ncc2c3ccccc3n(CCC)c2c1=O

>  <Energy>  (22) 
97.34341808609095

>  <Genealogy>  (22) 
CCCC[NH+](CCCC)C(=O)Cn1ncc2c3ccccc3n(CCC)c2c1=O (protonated)
CCCC[NH+](CCCC)C(=O)Cn1ncc2c3ccccc3n(CCC)c2c1=O (3D coordinates assigned)
CCCC[NH+](CCCC)C(=O)Cn1ncc2c3ccccc3n(CCC)c2c1=O (optimized conformer: 97.34341808609095 kcal/mol)

>  <smiles>  (22) 
CCCCN(CCCC)C(=O)Cn1ncc2c3ccccc3n(CCC)c2c1=O

>  <score_type>  (22) 
oracle

>  <origin>  (22) 
adgpu

>  <m_score__min__energy>  (22) 
-8.3800000000000008

>  <m_primary>  (22) 
energy

$$$$
22:0
     RDKit          3D

 46 48  0  0  0  0  0  0  0  0999 V2000
   -2.1200   25.4800  -25.5490 C   0  0  0  0  0  0  0  0  0  0  0  0
   -2.6530   24.8290  -26.8000 C   0  0  0  0  0  0  0  0  0  0  0  0
   -4.0440   24.6960  -26.9280 C   0  0  0  0  0  0  0  0  0  0  0  0
   -4.6030   24.1040  -28.0560 C   0  0  0  0  0  0  0  0  0  0  0  0
   -3.7850   23.6060  -29.0740 C   0  0  0  0  0  0  0  0  0  0  0  0
   -4.3820   23.0490  -30.2550 N   0  0  0  0  0  0  0  0  0  0  0  0
   -5.2160   23.7900  -31.1690 C   0  0  0  0  0  0  0  0  0  0  0  0
   -5.6850   25.3290  -30.8340 S   0  0  0  0  0  0  0  0  0  0  0  0
   -5.6290   23.2060  -32.4120 N   0  0  0  0  0  0  0  0  0  0  0  0
   -5.8830   21.8020  -32.5930 C   0  0  0  0  0  0  0  0  0  0  0  0
   -4.8520   20.9190  -32.9610 C   0  0  0  0  0  0  0  0  0  0  0  0
   -5.1120   19.5530  -33.1060 C   0  0  0  0  0  0  0  0  0  0  0  0
   -6.3990   19.0550  -32.8710 C   0  0  0  0  0  0  0  0  0  0  0  0
   -6.6660   17.6490  -33.0190 C   0  0  0  0  0  0  0  0  0  0  0  0
   -6.8810   16.5170  -33.1400 N   0  0  0  0  0  0  0  0  0  0  0  0
   -7.4230   19.9260  -32.4790 C   0  0  0  0  0  0  0  0  0  0  0  0
   -7.1620   21.2920  -32.3330 C   0  0  0  0  0  0  0  0  0  0  0  0
   -2.3860   23.7240  -28.9670 C   0  0  0  0  0  0  0  0  0  0  0  0
   -1.5630   23.2310  -29.9820 O   0  0  0  0  0  0  0  0  0  0  0  0
   -1.8040   24.3280  -27.8270 C   0  0  0  0  0  0  0  0  0  0  0  0
   -0.0250   24.4620  -27.7260 S   0  0  0  0  0  0  0  0  0  0  0  0
    0.6040   24.0930  -29.0390 O   0  0  0  0  0  0  0  0  0  0  0  0
    0.3540   25.8900  -27.4470 O   0  0  0  0  0  0  0  0  0  0  0  0
    0.6920   23.4190  -26.4420 C   0  0  0  0  0  0  0  0  0  0  0  0
   -0.2650   22.4020  -25.8230 C   0  0  0  0  0  0  0  0  0  0  0  0
   -0.1330   23.1010  -24.4770 C   0  0  0  0  0  0  0  0  0  0  0  0
    0.8250   24.1100  -25.0890 C   0  0  0  0  0  0  0  0  0  0  0  0
   -2.5355   24.9725  -24.6660 H   0  0  0  0  0  0  0  0  0  0  0  0
   -1.0228   25.4023  -25.5341 H   0  0  0  0  0  0  0  0  0  0  0  0
   -2.4127   26.5402  -25.5341 H   0  0  0  0  0  0  0  0  0  0  0  0
   -4.7008   25.0645  -26.1262 H   0  0  0  0  0  0  0  0  0  0  0  0
   -5.6965   24.0273  -28.1474 H   0  0  0  0  0  0  0  0  0  0  0  0
   -4.1660   22.0500  -30.4690 H   0  0  0  0  0  0  0  0  0  0  0  0
   -5.7540   23.8380  -33.2350 H   0  0  0  0  0  0  0  0  0  0  0  0
   -3.8368   21.3048  -33.1355 H   0  0  0  0  0  0  0  0  0  0  0  0
   -4.3043   18.8688  -33.4051 H   0  0  0  0  0  0  0  0  0  0  0  0
   -8.4331   19.5355  -32.2859 H   0  0  0  0  0  0  0  0  0  0  0  0
   -7.9660   21.9706  -32.0119 H   0  0  0  0  0  0  0  0  0  0  0  0
   -0.8740   23.7960  -30.4600 H   0  0  0  0  0  0  0  0  0  0  0  0
    1.5796   23.0725  -26.9917 H   0  0  0  0  0  0  0  0  0  0  0  0
   -1.2808   22.4263  -26.2444 H   0  0  0  0  0  0  0  0  0  0  0  0
   -0.0673   21.3237  -25.9131 H   0  0  0  0  0  0  0  0  0  0  0  0
   -1.0707   23.5408  -24.1064 H   0  0  0  0  0  0  0  0  0  0  0  0
    0.1580   22.5315  -23.5821 H   0  0  0  0  0  0  0  0  0  0  0  0
    0.4546   25.1457  -25.0757 H   0  0  0  0  0  0  0  0  0  0  0  0
    1.8174   24.2751  -24.6442 H   0  0  0  0  0  0  0  0  0  0  0  0
  1  2  1  0
  2  3  2  0
  3  4  1  0
  4  5  2  0
  5  6  1  0
  6  7  1  0
  7  8  2  0
  7  9  1  0
  9 10  1  0
 10 11  2  0
 11 12  1  0
 12 13  2  0
 13 14  1  0
 14 15  3  0
 13 16  1  0
 16 17  2  0
  5 18  1  0
 18 19  1  0
 18 20  2  0
 20 21  1  0
 21 22  2  0
 21 23  2  0
 21 24  1  0
 24 25  1  0
 25 26  1  0
 26 27  1  0
 20  2  1  0
 27 24  1  0
 17 10  1  0
  1 28  1  0
  1 29  1  0
  1 30  1  0
  3 31  1  0
  4 32  1  0
  6 33  1  0
  9 34  1  0
 11 35  1  0
 12 36  1  0
 16 37  1  0
 17 38  1  0
 19 39  1  0
 24 40  1  0
 25 41  1  0
 25 42  1  0
 26 43  1  0
 26 44  1  0
 27 45  1  0
 27 46  1  0
M  END
>  <UniqueID>  (23) 
21

>  <SMILES>  (23) 
Cc1ccc(NC(=S)Nc2ccc(C#N)cc2)c(O)c1S(=O)(=O)C1CCC1

>  <Energy>  (23) 
119.60921608713433

>  <Genealogy>  (23) 
Cc1ccc(NC(=S)Nc2ccc(C#N)cc2)c(O)c1S(=O)(=O)C1CCC1 (3D coordinates assigned)
Cc1ccc(NC(=S)Nc2ccc(C#N)cc2)c(O)c1S(=O)(=O)C1CCC1 (nonaromatic ring conformer: 119.60921608713433 kcal/mol)

>  <smiles>  (23) 
Cc1ccc(NC(=S)Nc2ccc(C#N)cc2)c(O)c1S(=O)(=O)C1CCC1

>  <score_type>  (23) 
oracle

>  <origin>  (23) 
adgpu

>  <m_score__min__energy>  (23) 
-10.33

>  <m_primary>  (23) 
energy

$$$$
23:0
     RDKit          3D

 55 58  0  0  0  0  0  0  0  0999 V2000
   -8.4050   21.3000  -31.8270 C   0  0  0  0  0  0  0  0  0  0  0  0
   -8.2950   22.4920  -31.0550 O   0  0  0  0  0  0  0  0  0  0  0  0
   -7.1020   23.2080  -30.8690 C   0  0  0  0  0  0  0  0  0  0  0  0
   -7.0320   24.3690  -30.0750 C   0  0  0  0  0  0  0  0  0  0  0  0
   -5.8200   25.0480  -29.9300 C   0  0  0  0  0  0  0  0  0  0  0  0
   -4.6660   24.5750  -30.5610 C   0  0  0  0  0  0  0  0  0  0  0  0
   -3.4850   25.3000  -30.4520 O   0  0  0  0  0  0  0  0  0  0  0  0
   -4.7180   23.3950  -31.3270 C   0  0  0  0  0  0  0  0  0  0  0  0
   -3.5540   22.8640  -31.9750 N   0  0  0  0  0  0  0  0  0  0  0  0
   -2.9040   21.6260  -31.6460 C   0  0  0  0  0  0  0  0  0  0  0  0
   -1.9300   21.6650  -30.8500 O   0  0  0  0  0  0  0  0  0  0  0  0
   -3.2930   20.3360  -32.2960 C   0  0  0  0  0  0  0  0  0  0  0  0
   -4.5980   19.8400  -32.0840 C   0  0  0  0  0  0  0  0  0  0  0  0
   -5.0150   18.6430  -32.6710 C   0  0  0  0  0  0  0  0  0  0  0  0
   -4.1480   17.9240  -33.4930 C   0  0  0  0  0  0  0  0  0  0  0  0
   -2.8610   18.4010  -33.7350 C   0  0  0  0  0  0  0  0  0  0  0  0
   -2.4170   19.6000  -33.1480 C   0  0  0  0  0  0  0  0  0  0  0  0
   -1.0390   20.0420  -33.4630 C   0  0  0  0  0  0  0  0  0  0  0  0
   -0.8610   20.8880  -34.5730 C   0  0  0  0  0  0  0  0  0  0  0  0
    0.4150   21.2960  -34.9590 C   0  0  0  0  0  0  0  0  0  0  0  0
    1.5320   20.8440  -34.2620 C   0  0  0  0  0  0  0  0  0  0  0  0
    1.3790   19.9730  -33.1820 C   0  0  0  0  0  0  0  0  0  0  0  0
    0.1010   19.5490  -32.7680 C   0  0  0  0  0  0  0  0  0  0  0  0
    0.0020   18.5990  -31.6260 C   0  0  0  0  0  0  0  0  0  0  0  0
   -0.5680   17.4830  -31.7640 O   0  0  0  0  0  0  0  0  0  0  0  0
    0.6070   18.9360  -30.3670 N   0  0  0  0  0  0  0  0  0  0  0  0
   -0.0150   19.6810  -29.3100 C   0  0  0  0  0  0  0  0  0  0  0  0
    0.2530   21.0520  -29.1120 C   0  0  0  0  0  0  0  0  0  0  0  0
   -0.3550   21.7450  -28.0600 C   0  0  0  0  0  0  0  0  0  0  0  0
   -1.2300   21.0780  -27.1990 C   0  0  0  0  0  0  0  0  0  0  0  0
   -1.5080   19.7120  -27.3810 C   0  0  0  0  0  0  0  0  0  0  0  0
   -2.3940   18.9910  -26.3940 C   0  0  0  0  0  0  0  0  0  0  0  0
   -1.9570   17.6880  -26.2290 F   0  0  0  0  0  0  0  0  0  0  0  0
   -2.3800   19.6130  -25.1570 F   0  0  0  0  0  0  0  0  0  0  0  0
   -3.6930   18.9750  -26.8740 F   0  0  0  0  0  0  0  0  0  0  0  0
   -0.8680   19.0130  -28.4230 C   0  0  0  0  0  0  0  0  0  0  0  0
   -5.9420   22.7380  -31.4980 C   0  0  0  0  0  0  0  0  0  0  0  0
   -8.4850   20.4335  -31.1542 H   0  0  0  0  0  0  0  0  0  0  0  0
   -9.3018   21.3555  -32.4615 H   0  0  0  0  0  0  0  0  0  0  0  0
   -7.5131   21.1905  -32.4615 H   0  0  0  0  0  0  0  0  0  0  0  0
   -7.9340   24.7420  -29.5678 H   0  0  0  0  0  0  0  0  0  0  0  0
   -5.7735   25.9596  -29.3161 H   0  0  0  0  0  0  0  0  0  0  0  0
   -5.2959   20.4041  -31.4478 H   0  0  0  0  0  0  0  0  0  0  0  0
   -6.0314   18.2661  -32.4841 H   0  0  0  0  0  0  0  0  0  0  0  0
   -4.4798   16.9803  -33.9505 H   0  0  0  0  0  0  0  0  0  0  0  0
   -2.1851   17.8339  -34.3920 H   0  0  0  0  0  0  0  0  0  0  0  0
   -1.7376   21.2310  -35.1421 H   0  0  0  0  0  0  0  0  0  0  0  0
    0.5392   21.9756  -35.8150 H   0  0  0  0  0  0  0  0  0  0  0  0
    2.5373   21.1739  -34.5629 H   0  0  0  0  0  0  0  0  0  0  0  0
    2.2695   19.6124  -32.6463 H   0  0  0  0  0  0  0  0  0  0  0  0
    0.9431   21.5782  -29.7879 H   0  0  0  0  0  0  0  0  0  0  0  0
   -0.1444   22.8143  -27.9107 H   0  0  0  0  0  0  0  0  0  0  0  0
   -1.7052   21.6260  -26.3721 H   0  0  0  0  0  0  0  0  0  0  0  0
   -1.0398   17.9329  -28.5410 H   0  0  0  0  0  0  0  0  0  0  0  0
   -5.9936   21.8419  -32.1339 H   0  0  0  0  0  0  0  0  0  0  0  0
  1  2  1  0
  2  3  1  0
  3  4  2  0
  4  5  1  0
  5  6  2  0
  6  7  1  0
  6  8  1  0
  8  9  1  0
  9 10  1  0
 10 11  2  0
 10 12  1  0
 12 13  2  0
 13 14  1  0
 14 15  2  0
 15 16  1  0
 16 17  2  0
 17 18  1  0
 18 19  2  0
 19 20  1  0
 20 21  2  0
 21 22  1  0
 22 23  2  0
 23 24  1  0
 24 25  2  0
 24 26  1  0
 26 27  1  0
 27 28  2  0
 28 29  1  0
 29 30  2  0
 30 31  1  0
 31 32  1  0
 32 33  1  0
 32 34  1  0
 32 35  1  0
 31 36  2  0
  8 37  2  0
 37  3  1  0
 17 12  1  0
 23 18  1  0
 36 27  1  0
  1 38  1  0
  1 39  1  0
  1 40  1  0
  4 41  1  0
  5 42  1  0
 13 43  1  0
 14 44  1  0
 15 45  1  0
 16 46  1  0
 19 47  1  0
 20 48  1  0
 21 49  1  0
 22 50  1  0
 28 51  1  0
 29 52  1  0
 30 53  1  0
 36 54  1  0
 37 55  1  0
M  CHG  3   7  -1   9  -1  26  -1
M  END
>  <UniqueID>  (24) 
22

>  <SMILES>  (24) 
COc1ccc([O-])c([N-]C(=O)c2ccccc2-c2ccccc2C(=O)[N-]c2cccc(C(F)(F)F)c2)c1

>  <Energy>  (24) 
87.05185122813273

>  <Genealogy>  (24) 
COc1ccc([O-])c([N-]C(=O)c2ccccc2-c2ccccc2C(=O)[N-]c2cccc(C(F)(F)F)c2)c1 (protonated)
COc1ccc([O-])c([N-]C(=O)c2ccccc2-c2ccccc2C(=O)[N-]c2cccc(C(F)(F)F)c2)c1 (3D coordinates assigned)
COc1ccc([O-])c([N-]C(=O)c2ccccc2-c2ccccc2C(=O)[N-]c2cccc(C(F)(F)F)c2)c1 (optimized conformer: 87.05185122813273 kcal/mol)

>  <smiles>  (24) 
COc1ccc(O)c(NC(=O)c2ccccc2-c2ccccc2C(=O)Nc2cccc(C(F)(F)F)c2)c1

>  <score_type>  (24) 
oracle

>  <origin>  (24) 
adgpu

>  <m_score__min__energy>  (24) 
-13.76

>  <m_primary>  (24) 
energy

$$$$
24:0
     RDKit          3D

 40 42  0  0  0  0  0  0  0  0999 V2000
   -6.5460   25.3000  -30.0310 C   0  0  0  0  0  0  0  0  0  0  0  0
   -5.8950   24.1090  -30.6660 C   0  0  0  0  0  0  0  0  0  0  0  0
   -4.5370   23.9310  -30.8610 C   0  0  0  0  0  0  0  0  0  0  0  0
   -3.5030   24.8360  -30.4550 N   0  0  0  0  0  0  0  0  0  0  0  0
   -2.4120   24.5540  -29.1400 S   0  0  0  0  0  0  0  0  0  0  0  0
   -3.0960   24.9110  -27.8510 O   0  0  0  0  0  0  0  0  0  0  0  0
   -1.2010   25.4290  -29.3120 O   0  0  0  0  0  0  0  0  0  0  0  0
   -1.9480   22.8560  -29.0870 C   0  0  0  0  0  0  0  0  0  0  0  0
   -2.6710   21.9540  -28.2940 C   0  0  0  0  0  0  0  0  0  0  0  0
   -2.3100   20.6040  -28.2600 C   0  0  0  0  0  0  0  0  0  0  0  0
   -1.2220   20.1500  -29.0120 C   0  0  0  0  0  0  0  0  0  0  0  0
   -0.4930   21.0480  -29.7980 C   0  0  0  0  0  0  0  0  0  0  0  0
   -0.8540   22.3990  -29.8350 C   0  0  0  0  0  0  0  0  0  0  0  0
   -4.4260   22.7100  -31.4980 C   0  0  0  0  0  0  0  0  0  0  0  0
   -3.3570   22.1450  -31.8530 O   0  0  0  0  0  0  0  0  0  0  0  0
   -5.6560   22.1870  -31.6800 N   0  0  0  0  0  0  0  0  0  0  0  0
   -5.9480   20.9120  -32.2790 C   0  0  0  0  0  0  0  0  0  0  0  0
   -5.3080   20.5270  -33.4680 C   0  0  0  0  0  0  0  0  0  0  0  0
   -5.5810   19.2830  -34.0430 C   0  0  0  0  0  0  0  0  0  0  0  0
   -6.4890   18.4130  -33.4330 C   0  0  0  0  0  0  0  0  0  0  0  0
   -7.1220   18.7850  -32.2430 C   0  0  0  0  0  0  0  0  0  0  0  0
   -6.8510   20.0290  -31.6650 C   0  0  0  0  0  0  0  0  0  0  0  0
   -6.5510   23.0450  -31.1920 N   0  0  0  0  0  0  0  0  0  0  0  0
   -8.0040   22.8620  -31.2180 C   0  0  0  0  0  0  0  0  0  0  0  0
   -6.4945   25.2058  -28.9363 H   0  0  0  0  0  0  0  0  0  0  0  0
   -6.0226   26.2150  -30.3453 H   0  0  0  0  0  0  0  0  0  0  0  0
   -7.5988   25.3535  -30.3453 H   0  0  0  0  0  0  0  0  0  0  0  0
   -3.5241   22.3093  -27.6973 H   0  0  0  0  0  0  0  0  0  0  0  0
   -2.8826   19.8978  -27.6408 H   0  0  0  0  0  0  0  0  0  0  0  0
   -0.9397   19.0872  -28.9853 H   0  0  0  0  0  0  0  0  0  0  0  0
    0.3647   20.6918  -30.3875 H   0  0  0  0  0  0  0  0  0  0  0  0
   -0.2782   23.1042  -30.4523 H   0  0  0  0  0  0  0  0  0  0  0  0
   -4.5892   21.2070  -33.9485 H   0  0  0  0  0  0  0  0  0  0  0  0
   -5.0805   18.9880  -34.9771 H   0  0  0  0  0  0  0  0  0  0  0  0
   -6.7056   17.4357  -33.8890 H   0  0  0  0  0  0  0  0  0  0  0  0
   -7.8337   18.0985  -31.7612 H   0  0  0  0  0  0  0  0  0  0  0  0
   -7.3468   20.3170  -30.7262 H   0  0  0  0  0  0  0  0  0  0  0  0
   -8.3860   22.8139  -30.1876 H   0  0  0  0  0  0  0  0  0  0  0  0
   -8.4708   23.7084  -31.7430 H   0  0  0  0  0  0  0  0  0  0  0  0
   -8.2464   21.9262  -31.7430 H   0  0  0  0  0  0  0  0  0  0  0  0
  1  2  1  0
  2  3  2  0
  3  4  1  0
  4  5  1  0
  5  6  2  0
  5  7  2  0
  5  8  1  0
  8  9  2  0
  9 10  1  0
 10 11  2  0
 11 12  1  0
 12 13  2  0
  3 14  1  0
 14 15  2  0
 14 16  1  0
 16 17  1  0
 17 18  2  0
 18 19  1  0
 19 20  2  0
 20 21  1  0
 21 22  2  0
 16 23  1  0
 23 24  1  0
 23  2  1  0
 13  8  1  0
 22 17  1  0
  1 25  1  0
  1 26  1  0
  1 27  1  0
  9 28  1  0
 10 29  1  0
 11 30  1  0
 12 31  1  0
 13 32  1  0
 18 33  1  0
 19 34  1  0
 20 35  1  0
 21 36  1  0
 22 37  1  0
 24 38  1  0
 24 39  1  0
 24 40  1  0
M  CHG  1   4  -1
M  END
>  <UniqueID>  (25) 
23

>  <SMILES>  (25) 
Cc1c([N-]S(=O)(=O)c2ccccc2)c(=O)n(-c2ccccc2)n1C

>  <Energy>  (25) 
85.86119751851237

>  <Genealogy>  (25) 
Cc1c([N-]S(=O)(=O)c2ccccc2)c(=O)n(-c2ccccc2)n1C (protonated)
Cc1c([N-]S(=O)(=O)c2ccccc2)c(=O)n(-c2ccccc2)n1C (3D coordinates assigned)
Cc1c([N-]S(=O)(=O)c2ccccc2)c(=O)n(-c2ccccc2)n1C (optimized conformer: 85.86119751851237 kcal/mol)

>  <smiles>  (25) 
Cc1c(NS(=O)(=O)c2ccccc2)c(=O)n(-c2ccccc2)n1C

>  <score_type>  (25) 
oracle

>  <origin>  (25) 
adgpu

>  <m_score__min__energy>  (25) 
-9.7599999999999998

>  <m_primary>  (25) 
energy

$$$$
25:0
     RDKit          3D

 55 58  0  0  0  0  0  0  0  0999 V2000
   -0.5084   22.2660  -29.7131 H   0  0  0  0  0  0  0  0  0  0  0  0
   -1.0460   22.0770  -30.6540 C   0  0  0  0  0  0  0  0  0  0  0  0
   -0.3610   21.5410  -31.7510 C   0  0  0  0  0  0  0  0  0  0  0  0
    0.7129   21.3167  -31.6713 H   0  0  0  0  0  0  0  0  0  0  0  0
   -1.0400   21.2900  -32.9490 C   0  0  0  0  0  0  0  0  0  0  0  0
   -0.1590   20.6920  -34.3500 S   0  0  0  0  0  0  0  0  0  0  0  0
    1.2320   20.3150  -33.9270 O   0  0  0  0  0  0  0  0  0  0  0  0
   -0.8410   19.4810  -34.9250 O   0  0  0  0  0  0  0  0  0  0  0  0
   -0.0680   21.9210  -35.5730 N   0  0  0  0  0  0  0  0  0  0  0  0
    1.0020   22.6000  -35.8580 C   0  0  0  0  0  0  0  0  0  0  0  0
    1.0300   23.5390  -36.8200 N   0  0  0  0  0  0  0  0  0  0  0  0
    2.2460   24.0050  -36.8440 O   0  0  0  0  0  0  0  0  0  0  0  0
    2.9990   23.4100  -35.9470 C   0  0  0  0  0  0  0  0  0  0  0  0
    4.4370   23.7240  -35.7090 C   0  0  0  0  0  0  0  0  0  0  0  0
    4.6289   23.7659  -34.6267 H   0  0  0  0  0  0  0  0  0  0  0  0
    5.0631   22.9414  -36.1624 H   0  0  0  0  0  0  0  0  0  0  0  0
    4.6799   24.6963  -36.1624 H   0  0  0  0  0  0  0  0  0  0  0  0
    2.2450   22.4830  -35.2620 C   0  0  0  0  0  0  0  0  0  0  0  0
    2.5543   21.8155  -34.4442 H   0  0  0  0  0  0  0  0  0  0  0  0
   -2.4150   21.5420  -33.0310 C   0  0  0  0  0  0  0  0  0  0  0  0
   -2.9583   21.3168  -33.9606 H   0  0  0  0  0  0  0  0  0  0  0  0
   -3.1000   22.0780  -31.9380 C   0  0  0  0  0  0  0  0  0  0  0  0
   -4.1810   22.2693  -32.0083 H   0  0  0  0  0  0  0  0  0  0  0  0
   -2.4110   22.3740  -30.7470 C   0  0  0  0  0  0  0  0  0  0  0  0
   -3.0570   23.0090  -29.6350 N   0  0  0  0  0  0  0  0  0  0  0  0
   -4.3270   24.1820  -29.7780 S   0  0  0  0  0  0  0  0  0  0  0  0
   -4.6500   24.7220  -28.4140 O   0  0  0  0  0  0  0  0  0  0  0  0
   -3.8630   25.3050  -30.6610 O   0  0  0  0  0  0  0  0  0  0  0  0
   -5.7520   23.4400  -30.5030 C   0  0  0  0  0  0  0  0  0  0  0  0
   -5.9870   23.5660  -31.8780 C   0  0  0  0  0  0  0  0  0  0  0  0
   -5.3179   24.1858  -32.4929 H   0  0  0  0  0  0  0  0  0  0  0  0
   -7.0660   22.9090  -32.4720 C   0  0  0  0  0  0  0  0  0  0  0  0
   -7.2417   23.0104  -33.5531 H   0  0  0  0  0  0  0  0  0  0  0  0
   -7.9290   22.1180  -31.6930 C   0  0  0  0  0  0  0  0  0  0  0  0
   -9.0360   21.4180  -32.2750 N   0  0  0  0  0  0  0  0  0  0  0  0
   -9.0130   20.0550  -32.7200 C   0  0  0  0  0  0  0  0  0  0  0  0
  -10.0860   19.4870  -33.0590 O   0  0  0  0  0  0  0  0  0  0  0  0
   -7.7270   19.3270  -32.8310 C   0  0  0  0  0  0  0  0  0  0  0  0
   -7.4800   18.1830  -32.0490 C   0  0  0  0  0  0  0  0  0  0  0  0
   -8.2493   17.8229  -31.3501 H   0  0  0  0  0  0  0  0  0  0  0  0
   -6.2640   17.5010  -32.1540 C   0  0  0  0  0  0  0  0  0  0  0  0
   -6.0808   16.6112  -31.5338 H   0  0  0  0  0  0  0  0  0  0  0  0
   -5.2780   17.9440  -33.0440 C   0  0  0  0  0  0  0  0  0  0  0  0
   -3.9620   17.2270  -33.1220 C   0  0  0  0  0  0  0  0  0  0  0  0
   -3.5931   17.0260  -32.1054 H   0  0  0  0  0  0  0  0  0  0  0  0
   -4.0938   16.2760  -33.6589 H   0  0  0  0  0  0  0  0  0  0  0  0
   -3.2344   17.8534  -33.6589 H   0  0  0  0  0  0  0  0  0  0  0  0
   -5.5130   19.0910  -33.8180 C   0  0  0  0  0  0  0  0  0  0  0  0
   -4.7371   19.4548  -34.5077 H   0  0  0  0  0  0  0  0  0  0  0  0
   -6.7290   19.7730  -33.7160 C   0  0  0  0  0  0  0  0  0  0  0  0
   -6.9068   20.6660  -34.3331 H   0  0  0  0  0  0  0  0  0  0  0  0
   -7.7280   22.0440  -30.3090 C   0  0  0  0  0  0  0  0  0  0  0  0
   -8.4305   21.4731  -29.6841 H   0  0  0  0  0  0  0  0  0  0  0  0
   -6.6390   22.6920  -29.7170 C   0  0  0  0  0  0  0  0  0  0  0  0
   -6.4783   22.6143  -28.6316 H   0  0  0  0  0  0  0  0  0  0  0  0
  1  2  1  0
  2  3  2  0
  3  4  1  0
  3  5  1  0
  5  6  1  0
  6  7  2  0
  6  8  2  0
  6  9  1  0
  9 10  2  0
 10 11  1  0
 11 12  1  0
 12 13  1  0
 13 14  1  0
 14 15  1  0
 14 16  1  0
 14 17  1  0
 13 18  2  0
 18 19  1  0
  5 20  2  0
 20 21  1  0
 20 22  1  0
 22 23  1  0
 22 24  2  0
 24 25  1  0
 25 26  1  0
 26 27  2  0
 26 28  2  0
 26 29  1  0
 29 30  2  0
 30 31  1  0
 30 32  1  0
 32 33  1  0
 32 34  2  0
 34 35  1  0
 35 36  1  0
 36 37  2  0
 36 38  1  0
 38 39  2  0
 39 40  1  0
 39 41  1  0
 41 42  1  0
 41 43  2  0
 43 44  1  0
 44 45  1  0
 44 46  1  0
 44 47  1  0
 43 48  1  0
 48 49  1  0
 48 50  2  0
 50 51  1  0
 34 52  1  0
 52 53  1  0
 52 54  2  0
 54 55  1  0
 24  2  1  0
 54 29  1  0
 18 10  1  0
 50 38  1  0
M  CHG  3  11  -1  25  -1  35  -1
M  END
>  <UniqueID>  (26) 
24

>  <SMILES>  (26) 
Cc1ccc(C(=O)[N-]c2ccc(S(=O)(=O)[N-]c3ccc(S(=O)(=O)/N=c4\cc(C)o[n-]4)cc3)cc2)cc1

>  <Energy>  (26) 
97.94793397262028

>  <Genealogy>  (26) 
Cc1ccc(C(=O)[N-]c2ccc(S(=O)(=O)[N-]c3ccc(S(=O)(=O)N=c4cc(C)o[n-]4)cc3)cc2)cc1 (protonated)
Cc1ccc(C(=O)[N-]c2ccc(S(=O)(=O)[N-]c3ccc(S(=O)(=O)/N=c4\cc(C)o[n-]4)cc3)cc2)cc1 (cis-trans isomerization)
Cc1ccc(C(=O)[N-]c2ccc(S(=O)(=O)[N-]c3ccc(S(=O)(=O)/N=c4\cc(C)o[n-]4)cc3)cc2)cc1 (3D coordinates assigned)
Cc1ccc(C(=O)[N-]c2ccc(S(=O)(=O)[N-]c3ccc(S(=O)(=O)/N=c4\cc(C)o[n-]4)cc3)cc2)cc1 (optimized conformer: 97.94793397262028 kcal/mol)

>  <smiles>  (26) 
Cc1ccc(C(=O)Nc2ccc(S(=O)(=O)Nc3ccc(S(=O)(=O)N=c4cc(C)o[nH]4)cc3)cc2)cc1

>  <score_type>  (26) 
oracle

>  <origin>  (26) 
adgpu

>  <m_score__min__energy>  (26) 
-12.800000000000001

>  <m_primary>  (26) 
energy

$$$$
26:0
     RDKit          3D

 49 51  0  0  0  0  0  0  0  0999 V2000
   -5.7290   18.0500  -35.1100 C   0  0  0  0  0  0  0  0  0  0  0  0
   -5.2960   19.0640  -34.0920 C   0  0  0  0  0  0  0  0  0  0  0  0
   -6.2410   19.8210  -33.3820 C   0  0  0  0  0  0  0  0  0  0  0  0
   -5.8240   20.7620  -32.4370 C   0  0  0  0  0  0  0  0  0  0  0  0
   -4.4550   20.9690  -32.1940 C   0  0  0  0  0  0  0  0  0  0  0  0
   -4.0000   21.9130  -31.2100 N   0  0  0  0  0  0  0  0  0  0  0  0
   -4.4840   23.2590  -31.0970 C   0  0  0  0  0  0  0  0  0  0  0  0
   -5.1690   23.7700  -32.0240 O   0  0  0  0  0  0  0  0  0  0  0  0
   -4.0970   24.0440  -29.9630 N   0  0  0  0  0  0  0  0  0  0  0  0
   -3.1900   23.6500  -28.9210 C   0  0  0  0  0  0  0  0  0  0  0  0
   -3.3380   22.4340  -28.2400 C   0  0  0  0  0  0  0  0  0  0  0  0
   -2.4380   22.0740  -27.2400 C   0  0  0  0  0  0  0  0  0  0  0  0
   -1.3630   22.9110  -26.9040 C   0  0  0  0  0  0  0  0  0  0  0  0
   -0.4220   22.4670  -25.8130 C   0  0  0  0  0  0  0  0  0  0  0  0
   -1.1670   24.1180  -27.6250 C   0  0  0  0  0  0  0  0  0  0  0  0
    0.2120   25.1830  -27.2530 S   0  0  0  0  0  0  0  0  0  0  0  0
    1.4520   24.6030  -27.8770 O   0  0  0  0  0  0  0  0  0  0  0  0
    0.0060   26.5550  -27.8300 O   0  0  0  0  0  0  0  0  0  0  0  0
    0.4020   25.2820  -25.5140 N   0  0  0  0  0  0  0  0  0  0  0  0
   -0.8990   25.3950  -24.8210 C   0  0  0  0  0  0  0  0  0  0  0  0
   -1.2320   26.8420  -24.4120 C   0  0  0  0  0  0  0  0  0  0  0  0
   -0.6980   27.7490  -25.3490 O   0  0  0  0  0  0  0  0  0  0  0  0
    0.7180   27.7590  -25.2700 C   0  0  0  0  0  0  0  0  0  0  0  0
    1.3400   26.3490  -25.1260 C   0  0  0  0  0  0  0  0  0  0  0  0
   -2.0980   24.4790  -28.6240 C   0  0  0  0  0  0  0  0  0  0  0  0
   -1.9600   25.6730  -29.3270 O   0  0  0  0  0  0  0  0  0  0  0  0
   -3.5150   20.1940  -32.8900 C   0  0  0  0  0  0  0  0  0  0  0  0
   -3.9310   19.2540  -33.8370 C   0  0  0  0  0  0  0  0  0  0  0  0
   -6.1111   17.1552  -34.5968 H   0  0  0  0  0  0  0  0  0  0  0  0
   -6.5226   18.4785  -35.7397 H   0  0  0  0  0  0  0  0  0  0  0  0
   -4.8707   17.7730  -35.7397 H   0  0  0  0  0  0  0  0  0  0  0  0
   -7.3146   19.6728  -33.5704 H   0  0  0  0  0  0  0  0  0  0  0  0
   -6.5720   21.3447  -31.8794 H   0  0  0  0  0  0  0  0  0  0  0  0
   -3.2140   21.6310  -30.5810 H   0  0  0  0  0  0  0  0  0  0  0  0
   -4.1691   21.7606  -28.4966 H   0  0  0  0  0  0  0  0  0  0  0  0
   -2.5716   21.1213  -26.7067 H   0  0  0  0  0  0  0  0  0  0  0  0
   -0.8719   22.6793  -24.8319 H   0  0  0  0  0  0  0  0  0  0  0  0
   -0.2370   21.3866  -25.9055 H   0  0  0  0  0  0  0  0  0  0  0  0
    0.5295   23.0112  -25.9055 H   0  0  0  0  0  0  0  0  0  0  0  0
   -1.6887   25.0290  -25.4936 H   0  0  0  0  0  0  0  0  0  0  0  0
   -0.8378   24.7958  -23.9006 H   0  0  0  0  0  0  0  0  0  0  0  0
   -2.3243   26.9650  -24.3693 H   0  0  0  0  0  0  0  0  0  0  0  0
   -0.7916   27.0458  -23.4248 H   0  0  0  0  0  0  0  0  0  0  0  0
    1.1142   28.2221  -26.1857 H   0  0  0  0  0  0  0  0  0  0  0  0
    0.9869   28.3243  -24.3655 H   0  0  0  0  0  0  0  0  0  0  0  0
    2.2307   26.2880  -25.7687 H   0  0  0  0  0  0  0  0  0  0  0  0
    1.5979   26.2016  -24.0669 H   0  0  0  0  0  0  0  0  0  0  0  0
   -2.4418   20.3273  -32.6887 H   0  0  0  0  0  0  0  0  0  0  0  0
   -3.1839   18.6607  -34.3846 H   0  0  0  0  0  0  0  0  0  0  0  0
  1  2  1  0
  2  3  2  0
  3  4  1  0
  4  5  2  0
  5  6  1  0
  6  7  1  0
  7  8  2  0
  7  9  1  0
  9 10  1  0
 10 11  2  0
 11 12  1  0
 12 13  2  0
 13 14  1  0
 13 15  1  0
 15 16  1  0
 16 17  2  0
 16 18  2  0
 16 19  1  0
 19 20  1  0
 20 21  1  0
 21 22  1  0
 22 23  1  0
 23 24  1  0
 15 25  2  0
 25 26  1  0
  5 27  1  0
 27 28  2  0
 28  2  1  0
 25 10  1  0
 24 19  1  0
  1 29  1  0
  1 30  1  0
  1 31  1  0
  3 32  1  0
  4 33  1  0
  6 34  1  0
 11 35  1  0
 12 36  1  0
 14 37  1  0
 14 38  1  0
 14 39  1  0
 20 40  1  0
 20 41  1  0
 21 42  1  0
 21 43  1  0
 23 44  1  0
 23 45  1  0
 24 46  1  0
 24 47  1  0
 27 48  1  0
 28 49  1  0
M  CHG  2   9  -1  26  -1
M  END
>  <UniqueID>  (27) 
25

>  <SMILES>  (27) 
Cc1ccc(NC(=O)[N-]c2ccc(C)c(S(=O)(=O)N3CCOCC3)c2[O-])cc1

>  <Energy>  (27) 
70.54572174869882

>  <Genealogy>  (27) 
Cc1ccc(NC(=O)[N-]c2ccc(C)c(S(=O)(=O)N3CCOCC3)c2[O-])cc1 (protonated)
Cc1ccc(NC(=O)[N-]c2ccc(C)c(S(=O)(=O)N3CCOCC3)c2[O-])cc1 (3D coordinates assigned)
Cc1ccc(NC(=O)[N-]c2ccc(C)c(S(=O)(=O)N3CCOCC3)c2[O-])cc1 (nonaromatic ring conformer: 70.54572174869882 kcal/mol)

>  <smiles>  (27) 
Cc1ccc(NC(=O)Nc2ccc(C)c(S(=O)(=O)N3CCOCC3)c2O)cc1

>  <score_type>  (27) 
oracle

>  <origin>  (27) 
adgpu

>  <m_score__min__energy>  (27) 
-13.359999999999999

>  <m_primary>  (27) 
energy

$$$$
27:0
     RDKit          3D

 55 58  0  0  0  0  0  0  0  0999 V2000
   -8.3526   22.7901  -33.3189 H   0  0  0  0  0  0  0  0  0  0  0  0
   -7.8700   22.8950  -32.3360 C   0  0  0  0  0  0  0  0  0  0  0  0
   -6.7890   23.7670  -32.1810 C   0  0  0  0  0  0  0  0  0  0  0  0
   -6.4303   24.3507  -33.0416 H   0  0  0  0  0  0  0  0  0  0  0  0
   -6.1580   23.9030  -30.9350 C   0  0  0  0  0  0  0  0  0  0  0  0
   -4.9850   24.8340  -30.7860 C   0  0  0  0  0  0  0  0  0  0  0  0
   -4.9573   25.5226  -31.6433 H   0  0  0  0  0  0  0  0  0  0  0  0
   -5.0954   25.4011  -29.8500 H   0  0  0  0  0  0  0  0  0  0  0  0
   -3.7370   24.0750  -30.7370 N   0  0  0  0  0  0  0  0  0  0  0  0
   -2.9440   23.9880  -29.7070 C   0  0  0  0  0  0  0  0  0  0  0  0
   -3.1500   24.6390  -28.5330 N   0  0  0  0  0  0  0  0  0  0  0  0
   -3.9210   25.2910  -28.2740 H   0  0  0  0  0  0  0  0  0  0  0  0
   -2.1100   24.2550  -27.7700 C   0  0  0  0  0  0  0  0  0  0  0  0
   -1.3070   23.4030  -28.4680 C   0  0  0  0  0  0  0  0  0  0  0  0
   -0.1580   22.8930  -27.8660 C   0  0  0  0  0  0  0  0  0  0  0  0
    0.6250   22.1180  -28.4690 O   0  0  0  0  0  0  0  0  0  0  0  0
    0.1110   23.2720  -26.5860 N   0  0  0  0  0  0  0  0  0  0  0  0
   -0.7080   24.1260  -25.8960 C   0  0  0  0  0  0  0  0  0  0  0  0
   -0.3970   24.4440  -24.7150 O   0  0  0  0  0  0  0  0  0  0  0  0
   -1.8470   24.6320  -26.4850 N   0  0  0  0  0  0  0  0  0  0  0  0
   -2.7500   25.5550  -25.7840 C   0  0  0  0  0  0  0  0  0  0  0  0
   -2.6293   25.4316  -24.6976 H   0  0  0  0  0  0  0  0  0  0  0  0
   -2.5064   26.5903  -26.0648 H   0  0  0  0  0  0  0  0  0  0  0  0
   -3.7904   25.3341  -26.0648 H   0  0  0  0  0  0  0  0  0  0  0  0
   -1.8190   23.2230  -29.7070 N   0  0  0  0  0  0  0  0  0  0  0  0
   -1.3820   22.3120  -30.7690 C   0  0  0  0  0  0  0  0  0  0  0  0
   -0.8321   22.8814  -31.5328 H   0  0  0  0  0  0  0  0  0  0  0  0
   -0.7297   21.5402  -30.3344 H   0  0  0  0  0  0  0  0  0  0  0  0
   -2.5740   21.6470  -31.4060 C   0  0  0  0  0  0  0  0  0  0  0  0
   -2.8290   21.8140  -32.7770 C   0  0  0  0  0  0  0  0  0  0  0  0
   -2.1365   22.4064  -33.3930 H   0  0  0  0  0  0  0  0  0  0  0  0
   -3.9560   21.2330  -33.3640 C   0  0  0  0  0  0  0  0  0  0  0  0
   -4.1440   21.3671  -34.4395 H   0  0  0  0  0  0  0  0  0  0  0  0
   -4.8480   20.4800  -32.5880 C   0  0  0  0  0  0  0  0  0  0  0  0
   -6.0190   19.8010  -33.2340 C   0  0  0  0  0  0  0  0  0  0  0  0
   -6.6917   19.4109  -32.4560 H   0  0  0  0  0  0  0  0  0  0  0  0
   -6.5626   20.5240  -33.8599 H   0  0  0  0  0  0  0  0  0  0  0  0
   -5.6615   18.9701  -33.8599 H   0  0  0  0  0  0  0  0  0  0  0  0
   -4.5900   20.3000  -31.2200 C   0  0  0  0  0  0  0  0  0  0  0  0
   -5.2748   19.6939  -30.6086 H   0  0  0  0  0  0  0  0  0  0  0  0
   -3.4660   20.8880  -30.6310 C   0  0  0  0  0  0  0  0  0  0  0  0
   -3.2796   20.7553  -29.5551 H   0  0  0  0  0  0  0  0  0  0  0  0
   -6.6320   23.1620  -29.8420 C   0  0  0  0  0  0  0  0  0  0  0  0
   -6.1493   23.2667  -28.8591 H   0  0  0  0  0  0  0  0  0  0  0  0
   -7.7150   22.2910  -29.9960 C   0  0  0  0  0  0  0  0  0  0  0  0
   -8.0759   21.7117  -29.1334 H   0  0  0  0  0  0  0  0  0  0  0  0
   -8.3440   22.1500  -31.2390 C   0  0  0  0  0  0  0  0  0  0  0  0
   -9.4320   21.2710  -31.3410 O   0  0  0  0  0  0  0  0  0  0  0  0
   -9.4760   20.1460  -32.2150 C   0  0  0  0  0  0  0  0  0  0  0  0
   -8.9956   20.4049  -33.1701 H   0  0  0  0  0  0  0  0  0  0  0  0
  -10.5236   19.8633  -32.3958 H   0  0  0  0  0  0  0  0  0  0  0  0
   -8.7390   18.9780  -31.5770 C   0  0  0  0  0  0  0  0  0  0  0  0
   -8.7935   19.0643  -30.4817 H   0  0  0  0  0  0  0  0  0  0  0  0
   -9.2049   18.0333  -31.8940 H   0  0  0  0  0  0  0  0  0  0  0  0
   -7.6858   18.9919  -31.8940 H   0  0  0  0  0  0  0  0  0  0  0  0
  1  2  1  0
  2  3  2  0
  3  4  1  0
  3  5  1  0
  5  6  1  0
  6  7  1  0
  6  8  1  0
  6  9  1  0
  9 10  2  0
 10 11  1  0
 11 12  1  0
 11 13  1  0
 13 14  2  0
 14 15  1  0
 15 16  2  0
 15 17  1  0
 17 18  1  0
 18 19  2  0
 18 20  1  0
 20 21  1  0
 21 22  1  0
 21 23  1  0
 21 24  1  0
 14 25  1  0
 25 26  1  0
 26 27  1  0
 26 28  1  0
 26 29  1  0
 29 30  2  0
 30 31  1  0
 30 32  1  0
 32 33  1  0
 32 34  2  0
 34 35  1  0
 35 36  1  0
 35 37  1  0
 35 38  1  0
 34 39  1  0
 39 40  1  0
 39 41  2  0
 41 42  1  0
  5 43  2  0
 43 44  1  0
 43 45  1  0
 45 46  1  0
 45 47  2  0
 47 48  1  0
 48 49  1  0
 49 50  1  0
 49 51  1  0
 49 52  1  0
 52 53  1  0
 52 54  1  0
 52 55  1  0
 47  2  1  0
 25 10  1  0
 41 29  1  0
 20 13  1  0
M  CHG  1  17  -1
M  END
>  <UniqueID>  (28) 
26

>  <SMILES>  (28) 
CCOc1ccc(C/N=c2\[nH]c3c(c(=O)[n-]c(=O)n3C)n2Cc2ccc(C)cc2)cc1

>  <Energy>  (28) 
97.37512150399088

>  <Genealogy>  (28) 
CCOc1ccc(CN=c2[nH]c3c(c(=O)[n-]c(=O)n3C)n2Cc2ccc(C)cc2)cc1 (protonated)
CCOc1ccc(C/N=c2\[nH]c3c(c(=O)[n-]c(=O)n3C)n2Cc2ccc(C)cc2)cc1 (cis-trans isomerization)
CCOc1ccc(C/N=c2\[nH]c3c(c(=O)[n-]c(=O)n3C)n2Cc2ccc(C)cc2)cc1 (3D coordinates assigned)
CCOc1ccc(C/N=c2\[nH]c3c(c(=O)[n-]c(=O)n3C)n2Cc2ccc(C)cc2)cc1 (optimized conformer: 97.37512150399088 kcal/mol)

>  <smiles>  (28) 
CCOc1ccc(CN=c2[nH]c3c(c(=O)[nH]c(=O)n3C)n2Cc2ccc(C)cc2)cc1

>  <score_type>  (28) 
oracle

>  <origin>  (28) 
adgpu

>  <m_score__min__energy>  (28) 
-9.4900000000000002

>  <m_primary>  (28) 
energy

$$$$
28:0
     RDKit          3D

 51 53  0  0  1  0  0  0  0  0999 V2000
   -8.6530   21.4000  -31.7820 C   0  0  0  0  0  0  0  0  0  0  0  0
   -7.4540   22.2240  -31.4480 C   0  0  0  0  0  0  0  0  0  0  0  0
   -7.5460   23.1650  -30.4450 C   0  0  0  0  0  0  0  0  0  0  0  0
   -6.4230   23.9130  -30.1560 C   0  0  0  0  0  0  0  0  0  0  0  0
   -5.2370   23.7370  -30.8390 C   0  0  0  0  0  0  0  0  0  0  0  0
   -4.0650   24.4860  -30.5700 N   0  0  0  0  0  0  0  0  0  0  0  0
   -3.2960   24.1340  -29.5960 C   0  0  0  0  0  0  0  0  0  0  0  0
   -3.6040   23.0660  -28.8430 N   0  0  0  0  0  0  0  0  0  0  0  0
   -2.7730   22.7420  -27.8450 C   0  0  0  0  0  0  0  0  0  0  0  0
   -1.6340   23.4600  -27.5740 C   0  0  0  0  0  0  0  0  0  0  0  0
   -0.5730   23.0120  -26.2840 Cl  0  0  0  0  0  0  0  0  0  0  0  0
   -1.3250   24.5490  -28.3460 C   0  0  0  0  0  0  0  0  0  0  0  0
   -0.3150   25.3080  -28.2090 N   0  0  0  0  0  0  0  0  0  0  0  0
    0.6390   25.0950  -27.1950 C   0  0  0  0  0  0  0  0  0  0  0  0
    1.7540   24.2980  -27.4960 C   0  0  0  0  0  0  0  0  0  0  0  0
    2.7170   24.0100  -26.5530 C   0  0  0  0  0  0  0  0  0  0  0  0
    2.5410   24.5390  -25.2930 C   0  0  0  0  0  0  0  0  0  0  0  0
    1.4580   25.3180  -24.9840 C   0  0  0  0  0  0  0  0  0  0  0  0
    0.4630   25.6280  -25.9230 C   0  0  0  0  0  0  0  0  0  0  0  0
   -0.8930   26.5990  -25.4820 S   0  0  0  0  0  0  0  0  0  0  0  0
   -0.9050   27.1620  -23.8210 C   0  0  0  0  0  0  0  0  0  0  0  0
   -1.0020   27.8260  -26.3590 O   0  0  0  0  0  0  0  0  0  0  0  0
   -2.1540   25.7700  -25.6920 O   0  0  0  0  0  0  0  0  0  0  0  0
   -2.1900   24.8480  -29.3500 N   0  0  0  0  0  0  0  0  0  0  0  0
   -5.2000   22.7710  -31.8440 C   0  0  0  0  0  0  0  0  0  0  0  0
   -6.2960   22.0010  -32.1670 C   0  0  0  0  0  0  0  0  0  0  0  0
   -6.2400   21.0190  -33.1950 N   0  0  0  0  0  0  0  0  0  0  0  0
   -5.0120   19.8010  -33.1050 S   0  0  0  0  0  0  0  0  0  0  0  0
   -5.3160   18.4490  -34.1880 C   0  0  0  0  0  0  0  0  0  0  0  0
   -3.7000   20.4460  -33.5130 O   0  0  0  0  0  0  0  0  0  0  0  0
   -4.8530   19.3100  -31.6990 O   0  0  0  0  0  0  0  0  0  0  0  0
   -9.1388   21.0662  -30.8532 H   0  0  0  0  0  0  0  0  0  0  0  0
   -9.3606   22.0035  -32.3694 H   0  0  0  0  0  0  0  0  0  0  0  0
   -8.3432   20.5231  -32.3694 H   0  0  0  0  0  0  0  0  0  0  0  0
   -8.4852   23.3150  -29.8923 H   0  0  0  0  0  0  0  0  0  0  0  0
   -6.4746   24.6700  -29.3596 H   0  0  0  0  0  0  0  0  0  0  0  0
   -4.4370   22.4830  -28.9860 H   0  0  0  0  0  0  0  0  0  0  0  0
   -3.0109   21.8692  -27.2193 H   0  0  0  0  0  0  0  0  0  0  0  0
    1.8625   23.8919  -28.5125 H   0  0  0  0  0  0  0  0  0  0  0  0
    3.5887   23.3846  -26.7959 H   0  0  0  0  0  0  0  0  0  0  0  0
    3.2900   24.3301  -24.5150 H   0  0  0  0  0  0  0  0  0  0  0  0
    1.3649   25.7151  -23.9624 H   0  0  0  0  0  0  0  0  0  0  0  0
   -0.8866   26.2977  -23.1408 H   0  0  0  0  0  0  0  0  0  0  0  0
   -0.0200   27.7898  -23.6402 H   0  0  0  0  0  0  0  0  0  0  0  0
   -1.8159   27.7515  -23.6402 H   0  0  0  0  0  0  0  0  0  0  0  0
   -1.9970   25.6720  -29.9670 H   0  0  0  0  0  0  0  0  0  0  0  0
   -4.2624   22.6183  -32.3987 H   0  0  0  0  0  0  0  0  0  0  0  0
   -6.9410   21.0680  -33.9650 H   0  0  0  0  0  0  0  0  0  0  0  0
   -5.5195   17.5441  -33.5966 H   0  0  0  0  0  0  0  0  0  0  0  0
   -6.1856   18.6757  -34.8224 H   0  0  0  0  0  0  0  0  0  0  0  0
   -4.4331   18.2816  -34.8224 H   0  0  0  0  0  0  0  0  0  0  0  0
  1  2  1  0
  2  3  2  0
  3  4  1  0
  4  5  2  0
  5  6  1  0
  6  7  2  0
  7  8  1  0
  8  9  1  0
  9 10  2  0
 10 11  1  0
 10 12  1  0
 12 13  2  0
 13 14  1  0
 14 15  2  0
 15 16  1  0
 16 17  2  0
 17 18  1  0
 18 19  2  0
 19 20  1  0
 20 21  1  0
 20 22  2  0
 20 23  2  0
 12 24  1  0
  5 25  1  0
 25 26  2  0
 26 27  1  0
 27 28  1  0
 28 29  1  0
 28 30  2  0
 28 31  2  0
 26  2  1  0
 24  7  1  0
 19 14  1  0
  1 32  1  0
  1 33  1  0
  1 34  1  0
  3 35  1  0
  4 36  1  0
  8 37  1  0
  9 38  1  0
 15 39  1  0
 16 40  1  0
 17 41  1  0
 18 42  1  0
 21 43  1  0
 21 44  1  0
 21 45  1  0
 24 46  1  0
 25 47  1  0
 27 48  1  0
 29 49  1  0
 29 50  1  0
 29 51  1  0
M  END
>  <smiles>  (29) 
Cc1ccc(N=c2[nH]cc(Cl)c(=Nc3ccccc3S(C)(=O)=O)[nH]2)cc1NS(C)(=O)=O

>  <score_type>  (29) 
oracle

>  <origin>  (29) 
adgpu

>  <m_score__min__energy>  (29) 
-10.24

>  <m_primary>  (29) 
energy

$$$$
29:0
     RDKit          3D

 43 45  0  0  0  0  0  0  0  0999 V2000
   -0.0599   24.0809  -28.2244 H   0  0  0  0  0  0  0  0  0  0  0  0
   -0.8430   23.5580  -28.7930 C   0  0  0  0  0  0  0  0  0  0  0  0
   -0.8200   22.2060  -28.8960 N   0  0  0  0  0  0  0  0  0  0  0  0
   -1.7830   21.5320  -29.5840 C   0  0  0  0  0  0  0  0  0  0  0  0
   -1.7460   20.2340  -29.6960 N   0  0  0  0  0  0  0  0  0  0  0  0
   -0.8050   19.3400  -29.0790 C   0  0  0  0  0  0  0  0  0  0  0  0
    0.4600   19.0820  -29.6410 C   0  0  0  0  0  0  0  0  0  0  0  0
    0.7404   19.5501  -30.5961 H   0  0  0  0  0  0  0  0  0  0  0  0
    1.3610   18.2340  -28.9910 C   0  0  0  0  0  0  0  0  0  0  0  0
    2.3420   18.0251  -29.4427 H   0  0  0  0  0  0  0  0  0  0  0  0
    1.0170   17.6500  -27.7660 C   0  0  0  0  0  0  0  0  0  0  0  0
    1.9460   16.7780  -27.0960 C   0  0  0  0  0  0  0  0  0  0  0  0
    2.6930   16.0770  -26.5570 N   0  0  0  0  0  0  0  0  0  0  0  0
   -0.2270   17.9280  -27.1880 C   0  0  0  0  0  0  0  0  0  0  0  0
   -0.4964   17.4771  -26.2215 H   0  0  0  0  0  0  0  0  0  0  0  0
   -1.1280   18.7780  -27.8370 C   0  0  0  0  0  0  0  0  0  0  0  0
   -2.0969   19.0069  -27.3692 H   0  0  0  0  0  0  0  0  0  0  0  0
   -2.7810   22.2280  -30.2000 N   0  0  0  0  0  0  0  0  0  0  0  0
   -3.5180   21.7010  -30.7200 H   0  0  0  0  0  0  0  0  0  0  0  0
   -2.8350   23.5920  -30.1310 C   0  0  0  0  0  0  0  0  0  0  0  0
   -3.8580   24.3180  -30.7560 O   0  0  0  0  0  0  0  0  0  0  0  0
   -5.1110   23.7840  -31.0850 C   0  0  0  0  0  0  0  0  0  0  0  0
   -6.2560   24.2710  -30.4260 C   0  0  0  0  0  0  0  0  0  0  0  0
   -6.1260   25.3280  -29.3650 C   0  0  0  0  0  0  0  0  0  0  0  0
   -6.1836   24.8593  -28.3715 H   0  0  0  0  0  0  0  0  0  0  0  0
   -5.1582   25.8394  -29.4736 H   0  0  0  0  0  0  0  0  0  0  0  0
   -6.9410   26.0587  -29.4736 H   0  0  0  0  0  0  0  0  0  0  0  0
   -7.5140   23.7200  -30.7160 C   0  0  0  0  0  0  0  0  0  0  0  0
   -8.4042   24.0803  -30.1796 H   0  0  0  0  0  0  0  0  0  0  0  0
   -7.6450   22.7140  -31.6840 C   0  0  0  0  0  0  0  0  0  0  0  0
   -8.9870   22.1010  -31.9550 C   0  0  0  0  0  0  0  0  0  0  0  0
   -9.4855   21.8733  -31.0012 H   0  0  0  0  0  0  0  0  0  0  0  0
   -9.6030   22.8070  -32.5313 H   0  0  0  0  0  0  0  0  0  0  0  0
   -8.8567   21.1731  -32.5313 H   0  0  0  0  0  0  0  0  0  0  0  0
   -6.5060   22.2410  -32.3470 C   0  0  0  0  0  0  0  0  0  0  0  0
   -6.6035   21.4327  -33.0867 H   0  0  0  0  0  0  0  0  0  0  0  0
   -5.2410   22.7870  -32.0780 C   0  0  0  0  0  0  0  0  0  0  0  0
   -4.0450   22.2750  -32.8320 C   0  0  0  0  0  0  0  0  0  0  0  0
   -3.2753   21.9455  -32.1186 H   0  0  0  0  0  0  0  0  0  0  0  0
   -4.3459   21.4268  -33.4645 H   0  0  0  0  0  0  0  0  0  0  0  0
   -3.6389   23.0781  -33.4645 H   0  0  0  0  0  0  0  0  0  0  0  0
   -1.8590   24.2820  -29.4080 C   0  0  0  0  0  0  0  0  0  0  0  0
   -1.8960   25.6680  -29.3100 O   0  0  0  0  0  0  0  0  0  0  0  0
  1  2  1  0
  2  3  2  0
  3  4  1  0
  4  5  2  0
  5  6  1  0
  6  7  2  0
  7  8  1  0
  7  9  1  0
  9 10  1  0
  9 11  2  0
 11 12  1  0
 12 13  3  0
 11 14  1  0
 14 15  1  0
 14 16  2  0
 16 17  1  0
  4 18  1  0
 18 19  1  0
 18 20  1  0
 20 21  1  0
 21 22  1  0
 22 23  2  0
 23 24  1  0
 24 25  1  0
 24 26  1  0
 24 27  1  0
 23 28  1  0
 28 29  1  0
 28 30  2  0
 30 31  1  0
 31 32  1  0
 31 33  1  0
 31 34  1  0
 30 35  1  0
 35 36  1  0
 35 37  2  0
 37 38  1  0
 38 39  1  0
 38 40  1  0
 38 41  1  0
 20 42  2  0
 42 43  1  0
 42  2  1  0
 16  6  1  0
 37 22  1  0
M  CHG  1  43  -1
M  END
>  <UniqueID>  (30) 
27

>  <SMILES>  (30) 
Cc1cc(C)c(Oc2[nH]/c(=N/c3ccc(C#N)cc3)ncc2[O-])c(C)c1

>  <Energy>  (30) 
58.04223179476873

>  <Genealogy>  (30) 
Cc1cc(C)c(Oc2[nH]c(=Nc3ccc(C#N)cc3)ncc2[O-])c(C)c1 (protonated)
Cc1cc(C)c(Oc2[nH]/c(=N/c3ccc(C#N)cc3)ncc2[O-])c(C)c1 (cis-trans isomerization)
Cc1cc(C)c(Oc2[nH]/c(=N/c3ccc(C#N)cc3)ncc2[O-])c(C)c1 (3D coordinates assigned)
Cc1cc(C)c(Oc2[nH]/c(=N/c3ccc(C#N)cc3)ncc2[O-])c(C)c1 (optimized conformer: 58.04223179476873 kcal/mol)

>  <smiles>  (30) 
Cc1cc(C)c(Oc2[nH]c(=Nc3ccc(C#N)cc3)ncc2O)c(C)c1

>  <score_type>  (30) 
oracle

>  <origin>  (30) 
adgpu

>  <m_score__min__energy>  (30) 
-11.35

>  <m_primary>  (30) 
energy

$$$$
30:0
     RDKit          3D

 69 71  0  0  0  0  0  0  0  0999 V2000
   -2.6770   20.5590  -27.8890 C   0  0  0  0  0  0  0  0  0  0  0  0
   -3.3620   21.8780  -28.2480 C   0  0  0  0  0  0  0  0  0  0  0  0
   -2.4430   22.8360  -29.0210 C   0  0  0  0  0  0  0  0  0  0  0  0
   -2.7090   22.8100  -30.4660 N   0  0  0  0  0  0  0  0  0  0  0  0
   -3.6780   23.8150  -30.8020 C   0  0  0  0  0  0  0  0  0  0  0  0
   -3.4840   25.0160  -30.4620 O   0  0  0  0  0  0  0  0  0  0  0  0
   -4.8770   23.4490  -31.4880 N   0  0  0  0  0  0  0  0  0  0  0  0
   -5.1660   21.8410  -32.0610 S   0  0  0  0  0  0  0  0  0  0  0  0
   -4.4740   20.8570  -31.1600 O   0  0  0  0  0  0  0  0  0  0  0  0
   -4.5830   21.7110  -33.4410 O   0  0  0  0  0  0  0  0  0  0  0  0
   -6.9070   21.5110  -32.0880 C   0  0  0  0  0  0  0  0  0  0  0  0
   -7.7970   22.5140  -31.6690 C   0  0  0  0  0  0  0  0  0  0  0  0
   -9.1710   22.2710  -31.6220 C   0  0  0  0  0  0  0  0  0  0  0  0
   -9.6730   21.0230  -31.9860 C   0  0  0  0  0  0  0  0  0  0  0  0
   -8.8040   20.0150  -32.4070 C   0  0  0  0  0  0  0  0  0  0  0  0
   -7.4210   20.2470  -32.4690 C   0  0  0  0  0  0  0  0  0  0  0  0
   -6.5460   19.1550  -32.9300 C   0  0  0  0  0  0  0  0  0  0  0  0
   -6.1110   18.1710  -32.0320 C   0  0  0  0  0  0  0  0  0  0  0  0
   -5.2940   17.1280  -32.4730 C   0  0  0  0  0  0  0  0  0  0  0  0
   -4.9020   17.0520  -33.8200 C   0  0  0  0  0  0  0  0  0  0  0  0
   -4.0490   15.9120  -34.3160 C   0  0  0  0  0  0  0  0  0  0  0  0
   -2.8020   15.7960  -33.5400 N   0  0  0  0  0  0  0  0  0  0  0  0
   -2.2700   14.6410  -33.0600 C   0  0  0  0  0  0  0  0  0  0  0  0
   -2.9010   13.2710  -33.1390 C   0  0  0  0  0  0  0  0  0  0  0  0
   -3.4550   12.8000  -31.7860 C   0  0  0  0  0  0  0  0  0  0  0  0
   -4.6020   13.6690  -31.2720 C   0  0  0  0  0  0  0  0  0  0  0  0
   -1.0780   14.8940  -32.4120 C   0  0  0  0  0  0  0  0  0  0  0  0
   -0.8700   16.2520  -32.4840 C   0  0  0  0  0  0  0  0  0  0  0  0
   -1.9450   16.7870  -33.1720 C   0  0  0  0  0  0  0  0  0  0  0  0
   -2.1120   18.2440  -33.3920 C   0  0  0  0  0  0  0  0  0  0  0  0
   -2.1670   18.7270  -34.5540 O   0  0  0  0  0  0  0  0  0  0  0  0
   -2.2440   19.1080  -32.2610 N   0  0  0  0  0  0  0  0  0  0  0  0
   -1.3640   20.5910  -32.1020 S   0  0  0  0  0  0  0  0  0  0  0  0
    0.1870   20.4750  -32.9670 C   0  0  0  0  0  0  0  0  0  0  0  0
   -1.1290   20.8860  -30.6480 O   0  0  0  0  0  0  0  0  0  0  0  0
   -2.1760   21.7020  -32.7040 O   0  0  0  0  0  0  0  0  0  0  0  0
   -5.2970   18.0700  -34.7050 C   0  0  0  0  0  0  0  0  0  0  0  0
   -6.1130   19.1150  -34.2620 C   0  0  0  0  0  0  0  0  0  0  0  0
   -2.6250   20.4588  -26.7948 H   0  0  0  0  0  0  0  0  0  0  0  0
   -3.2537   19.7207  -28.3070 H   0  0  0  0  0  0  0  0  0  0  0  0
   -1.6596   20.5486  -28.3070 H   0  0  0  0  0  0  0  0  0  0  0  0
   -4.2430   21.6586  -28.8691 H   0  0  0  0  0  0  0  0  0  0  0  0
   -3.6394   22.3738  -27.3061 H   0  0  0  0  0  0  0  0  0  0  0  0
   -2.6031   23.8588  -28.6490 H   0  0  0  0  0  0  0  0  0  0  0  0
   -1.4040   22.5119  -28.8615 H   0  0  0  0  0  0  0  0  0  0  0  0
   -1.8250   22.9870  -30.9990 H   0  0  0  0  0  0  0  0  0  0  0  0
   -3.0950   21.8800  -30.7470 H   0  0  0  0  0  0  0  0  0  0  0  0
   -7.4077   23.5000  -31.3752 H   0  0  0  0  0  0  0  0  0  0  0  0
   -9.8584   23.0659  -31.2971 H   0  0  0  0  0  0  0  0  0  0  0  0
  -10.7554   20.8320  -31.9415 H   0  0  0  0  0  0  0  0  0  0  0  0
   -9.2059   19.0316  -32.6923 H   0  0  0  0  0  0  0  0  0  0  0  0
   -6.4143   18.2204  -30.9758 H   0  0  0  0  0  0  0  0  0  0  0  0
   -4.9551   16.3609  -31.7612 H   0  0  0  0  0  0  0  0  0  0  0  0
   -4.6164   14.9741  -34.2238 H   0  0  0  0  0  0  0  0  0  0  0  0
   -3.7862   16.1079  -35.3660 H   0  0  0  0  0  0  0  0  0  0  0  0
   -3.7260   13.3039  -33.8659 H   0  0  0  0  0  0  0  0  0  0  0  0
   -2.1197   12.5602  -33.4461 H   0  0  0  0  0  0  0  0  0  0  0  0
   -3.8202   11.7684  -31.8973 H   0  0  0  0  0  0  0  0  0  0  0  0
   -2.6368   12.8708  -31.0542 H   0  0  0  0  0  0  0  0  0  0  0  0
   -4.5992   13.6669  -30.1720 H   0  0  0  0  0  0  0  0  0  0  0  0
   -4.4739   14.6987  -31.6370 H   0  0  0  0  0  0  0  0  0  0  0  0
   -5.5586   13.2670  -31.6370 H   0  0  0  0  0  0  0  0  0  0  0  0
   -0.4217   14.1536  -31.9313 H   0  0  0  0  0  0  0  0  0  0  0  0
   -0.0133   16.8064  -32.0733 H   0  0  0  0  0  0  0  0  0  0  0  0
    1.0092   20.4135  -32.2389 H   0  0  0  0  0  0  0  0  0  0  0  0
    0.1882   19.5743  -33.5984 H   0  0  0  0  0  0  0  0  0  0  0  0
    0.3222   21.3655  -33.5984 H   0  0  0  0  0  0  0  0  0  0  0  0
   -4.9620   18.0442  -35.7524 H   0  0  0  0  0  0  0  0  0  0  0  0
   -6.4161   19.9083  -34.9612 H   0  0  0  0  0  0  0  0  0  0  0  0
  1  2  1  0
  2  3  1  0
  3  4  1  0
  4  5  1  0
  5  6  2  0
  5  7  1  0
  7  8  1  0
  8  9  2  0
  8 10  2  0
  8 11  1  0
 11 12  2  0
 12 13  1  0
 13 14  2  0
 14 15  1  0
 15 16  2  0
 16 17  1  0
 17 18  2  0
 18 19  1  0
 19 20  2  0
 20 21  1  0
 21 22  1  0
 22 23  1  0
 23 24  1  0
 24 25  1  0
 25 26  1  0
 23 27  2  0
 27 28  1  0
 28 29  2  0
 29 30  1  0
 30 31  2  0
 30 32  1  0
 32 33  1  0
 33 34  1  0
 33 35  2  0
 33 36  2  0
 20 37  1  0
 37 38  2  0
 16 11  1  0
 38 17  1  0
 29 22  1  0
  1 39  1  0
  1 40  1  0
  1 41  1  0
  2 42  1  0
  2 43  1  0
  3 44  1  0
  3 45  1  0
  4 46  1  0
  4 47  1  0
 12 48  1  0
 13 49  1  0
 14 50  1  0
 15 51  1  0
 18 52  1  0
 19 53  1  0
 21 54  1  0
 21 55  1  0
 24 56  1  0
 24 57  1  0
 25 58  1  0
 25 59  1  0
 26 60  1  0
 26 61  1  0
 26 62  1  0
 27 63  1  0
 28 64  1  0
 34 65  1  0
 34 66  1  0
 34 67  1  0
 37 68  1  0
 38 69  1  0
M  CHG  3   4   1   7  -1  32  -1
M  END
>  <UniqueID>  (31) 
28

>  <SMILES>  (31) 
CCC[NH2+]C(=O)[N-]S(=O)(=O)c1ccccc1-c1ccc(Cn2c(CCC)ccc2C(=O)[N-]S(C)(=O)=O)cc1

>  <Energy>  (31) 
90.16125643466629

>  <Genealogy>  (31) 
CCC[NH2+]C(=O)[N-]S(=O)(=O)c1ccccc1-c1ccc(Cn2c(CCC)ccc2C(=O)[N-]S(C)(=O)=O)cc1 (protonated)
CCC[NH2+]C(=O)[N-]S(=O)(=O)c1ccccc1-c1ccc(Cn2c(CCC)ccc2C(=O)[N-]S(C)(=O)=O)cc1 (3D coordinates assigned)
CCC[NH2+]C(=O)[N-]S(=O)(=O)c1ccccc1-c1ccc(Cn2c(CCC)ccc2C(=O)[N-]S(C)(=O)=O)cc1 (optimized conformer: 90.16125643466629 kcal/mol)

>  <smiles>  (31) 
CCCNC(=O)NS(=O)(=O)c1ccccc1-c1ccc(Cn2c(CCC)ccc2C(=O)NS(C)(=O)=O)cc1

>  <score_type>  (31) 
oracle

>  <origin>  (31) 
adgpu

>  <m_score__min__energy>  (31) 
-11.52

>  <m_primary>  (31) 
energy

$$$$
31:0
     RDKit          3D

 42 45  0  0  0  0  0  0  0  0999 V2000
   -4.5420   20.9030  -33.2370 C   0  0  0  0  0  0  0  0  0  0  0  0
   -4.2370   22.0790  -32.3380 C   0  0  0  0  0  0  0  0  0  0  0  0
   -5.2760   22.9750  -31.9930 C   0  0  0  0  0  0  0  0  0  0  0  0
   -6.5690   22.7700  -32.5040 O   0  0  0  0  0  0  0  0  0  0  0  0
   -7.4070   21.6900  -32.1900 C   0  0  0  0  0  0  0  0  0  0  0  0
   -7.3850   20.5600  -33.0170 C   0  0  0  0  0  0  0  0  0  0  0  0
   -8.2170   19.4690  -32.7470 C   0  0  0  0  0  0  0  0  0  0  0  0
   -9.0870   19.5070  -31.6530 C   0  0  0  0  0  0  0  0  0  0  0  0
   -9.1300   20.6370  -30.8330 C   0  0  0  0  0  0  0  0  0  0  0  0
   -8.2990   21.7300  -31.1010 C   0  0  0  0  0  0  0  0  0  0  0  0
   -5.0190   24.0320  -31.1060 C   0  0  0  0  0  0  0  0  0  0  0  0
   -3.7400   24.2320  -30.5950 C   0  0  0  0  0  0  0  0  0  0  0  0
   -3.5000   25.2830  -29.7180 O   0  0  0  0  0  0  0  0  0  0  0  0
   -2.6990   23.3840  -30.9650 C   0  0  0  0  0  0  0  0  0  0  0  0
   -2.9220   22.3100  -31.8460 C   0  0  0  0  0  0  0  0  0  0  0  0
   -1.7640   21.4680  -32.2380 C   0  0  0  0  0  0  0  0  0  0  0  0
   -1.0130   21.6810  -33.3410 N   0  0  0  0  0  0  0  0  0  0  0  0
    0.0120   20.7910  -33.4680 C   0  0  0  0  0  0  0  0  0  0  0  0
    0.9420   20.8460  -34.6250 C   0  0  0  0  0  0  0  0  0  0  0  0
    0.9920   19.8130  -35.5820 C   0  0  0  0  0  0  0  0  0  0  0  0
    1.8790   19.8870  -36.6620 C   0  0  0  0  0  0  0  0  0  0  0  0
    2.7270   20.9880  -36.8000 C   0  0  0  0  0  0  0  0  0  0  0  0
    3.6060   21.0590  -37.8730 O   0  0  0  0  0  0  0  0  0  0  0  0
    2.6920   22.0170  -35.8560 C   0  0  0  0  0  0  0  0  0  0  0  0
    1.8080   21.9470  -34.7750 C   0  0  0  0  0  0  0  0  0  0  0  0
    0.0850   19.8500  -32.4380 C   0  0  0  0  0  0  0  0  0  0  0  0
   -1.1660   20.1620  -31.3610 S   0  0  0  0  0  0  0  0  0  0  0  0
   -4.7709   20.0206  -32.6214 H   0  0  0  0  0  0  0  0  0  0  0  0
   -5.4079   21.1417  -33.8719 H   0  0  0  0  0  0  0  0  0  0  0  0
   -3.6692   20.6908  -33.8719 H   0  0  0  0  0  0  0  0  0  0  0  0
   -6.7091   20.5305  -33.8843 H   0  0  0  0  0  0  0  0  0  0  0  0
   -8.1871   18.5808  -33.3953 H   0  0  0  0  0  0  0  0  0  0  0  0
   -9.7378   18.6467  -31.4380 H   0  0  0  0  0  0  0  0  0  0  0  0
   -9.8182   20.6675  -29.9754 H   0  0  0  0  0  0  0  0  0  0  0  0
   -8.3424   22.6227  -30.4597 H   0  0  0  0  0  0  0  0  0  0  0  0
   -5.8355   24.7081  -30.8122 H   0  0  0  0  0  0  0  0  0  0  0  0
   -1.6896   23.5562  -30.5633 H   0  0  0  0  0  0  0  0  0  0  0  0
    0.3286   18.9415  -35.4794 H   0  0  0  0  0  0  0  0  0  0  0  0
    1.9083   19.0757  -37.4042 H   0  0  0  0  0  0  0  0  0  0  0  0
    3.3609   22.8837  -35.9632 H   0  0  0  0  0  0  0  0  0  0  0  0
    1.7885   22.7599  -34.0341 H   0  0  0  0  0  0  0  0  0  0  0  0
    0.8305   19.0462  -32.3480 H   0  0  0  0  0  0  0  0  0  0  0  0
  1  2  1  0
  2  3  2  0
  3  4  1  0
  4  5  1  0
  5  6  2  0
  6  7  1  0
  7  8  2  0
  8  9  1  0
  9 10  2  0
  3 11  1  0
 11 12  2  0
 12 13  1  0
 12 14  1  0
 14 15  2  0
 15 16  1  0
 16 17  2  0
 17 18  1  0
 18 19  1  0
 19 20  2  0
 20 21  1  0
 21 22  2  0
 22 23  1  0
 22 24  1  0
 24 25  2  0
 18 26  2  0
 26 27  1  0
 15  2  1  0
 27 16  1  0
 10  5  1  0
 25 19  1  0
  1 28  1  0
  1 29  1  0
  1 30  1  0
  6 31  1  0
  7 32  1  0
  8 33  1  0
  9 34  1  0
 10 35  1  0
 11 36  1  0
 14 37  1  0
 20 38  1  0
 21 39  1  0
 24 40  1  0
 25 41  1  0
 26 42  1  0
M  CHG  2  13  -1  23  -1
M  END
>  <UniqueID>  (32) 
29

>  <SMILES>  (32) 
Cc1c(Oc2ccccc2)cc([O-])cc1-c1nc(-c2ccc([O-])cc2)cs1

>  <Energy>  (32) 
90.90828583099929

>  <Genealogy>  (32) 
Cc1c(Oc2ccccc2)cc([O-])cc1-c1nc(-c2ccc([O-])cc2)cs1 (protonated)
Cc1c(Oc2ccccc2)cc([O-])cc1-c1nc(-c2ccc([O-])cc2)cs1 (3D coordinates assigned)
Cc1c(Oc2ccccc2)cc([O-])cc1-c1nc(-c2ccc([O-])cc2)cs1 (optimized conformer: 90.90828583099929 kcal/mol)

>  <smiles>  (32) 
Cc1c(Oc2ccccc2)cc(O)cc1-c1nc(-c2ccc(O)cc2)cs1

>  <score_type>  (32) 
oracle

>  <origin>  (32) 
adgpu

>  <m_score__min__energy>  (32) 
-10.960000000000001

>  <m_primary>  (32) 
energy

$$$$
32:0
     RDKit          3D

 51 53  0  0  0  0  0  0  0  0999 V2000
   -6.8490   17.5680  -32.2320 C   0  0  0  0  0  0  0  0  0  0  0  0
   -6.9580   18.8610  -33.0290 C   0  0  0  0  0  0  0  0  0  0  0  0
   -8.0200   20.0370  -32.2060 S   0  0  0  0  0  0  0  0  0  0  0  0
   -8.5440   19.4320  -30.9350 O   0  0  0  0  0  0  0  0  0  0  0  0
   -9.1860   20.3720  -33.0940 O   0  0  0  0  0  0  0  0  0  0  0  0
   -7.1140   21.4980  -31.8250 C   0  0  0  0  0  0  0  0  0  0  0  0
   -7.6490   22.4440  -30.9420 C   0  0  0  0  0  0  0  0  0  0  0  0
   -6.9210   23.5890  -30.6090 C   0  0  0  0  0  0  0  0  0  0  0  0
   -5.6370   23.7970  -31.1430 C   0  0  0  0  0  0  0  0  0  0  0  0
   -4.8620   25.0030  -30.7710 C   0  0  0  0  0  0  0  0  0  0  0  0
   -5.4070   26.1350  -30.8470 O   0  0  0  0  0  0  0  0  0  0  0  0
   -3.4880   24.9270  -30.3700 N   0  0  0  0  0  0  0  0  0  0  0  0
   -2.9640   24.0910  -29.3280 C   0  0  0  0  0  0  0  0  0  0  0  0
   -3.6650   22.9650  -28.8640 C   0  0  0  0  0  0  0  0  0  0  0  0
   -3.1240   22.1660  -27.8530 C   0  0  0  0  0  0  0  0  0  0  0  0
   -1.8880   22.4910  -27.2900 C   0  0  0  0  0  0  0  0  0  0  0  0
   -1.1940   23.6280  -27.7260 C   0  0  0  0  0  0  0  0  0  0  0  0
    0.3840   24.0060  -27.0370 S   0  0  0  0  0  0  0  0  0  0  0  0
    1.1400   24.8550  -28.0220 O   0  0  0  0  0  0  0  0  0  0  0  0
    1.1600   22.7360  -26.8210 O   0  0  0  0  0  0  0  0  0  0  0  0
    0.2040   24.8870  -25.5310 N   0  0  0  0  0  0  0  0  0  0  0  0
   -1.2210   25.0000  -25.1350 C   0  0  0  0  0  0  0  0  0  0  0  0
   -1.8420   26.3530  -25.5310 C   0  0  0  0  0  0  0  0  0  0  0  0
   -1.2490   26.8430  -26.7120 O   0  0  0  0  0  0  0  0  0  0  0  0
    0.0970   27.2130  -26.4700 C   0  0  0  0  0  0  0  0  0  0  0  0
    0.8670   26.2060  -25.5820 C   0  0  0  0  0  0  0  0  0  0  0  0
   -1.7380   24.4290  -28.7390 C   0  0  0  0  0  0  0  0  0  0  0  0
   -5.1110   22.8510  -32.0420 C   0  0  0  0  0  0  0  0  0  0  0  0
   -5.8420   21.7080  -32.3740 C   0  0  0  0  0  0  0  0  0  0  0  0
   -6.8684   17.7975  -31.1564 H   0  0  0  0  0  0  0  0  0  0  0  0
   -7.6949   16.9108  -32.4819 H   0  0  0  0  0  0  0  0  0  0  0  0
   -5.9050   17.0617  -32.4819 H   0  0  0  0  0  0  0  0  0  0  0  0
   -5.9554   19.2995  -33.1409 H   0  0  0  0  0  0  0  0  0  0  0  0
   -7.3910   18.6289  -34.0132 H   0  0  0  0  0  0  0  0  0  0  0  0
   -8.6473   22.2848  -30.5084 H   0  0  0  0  0  0  0  0  0  0  0  0
   -7.3552   24.3327  -29.9246 H   0  0  0  0  0  0  0  0  0  0  0  0
   -4.6434   22.7114  -29.2982 H   0  0  0  0  0  0  0  0  0  0  0  0
   -3.6724   21.2801  -27.5003 H   0  0  0  0  0  0  0  0  0  0  0  0
   -1.4584   21.8536  -26.5031 H   0  0  0  0  0  0  0  0  0  0  0  0
    0.6970   24.3170  -24.8050 H   0  0  0  0  0  0  0  0  0  0  0  0
   -1.7877   24.1953  -25.6262 H   0  0  0  0  0  0  0  0  0  0  0  0
   -1.2688   24.9203  -24.0389 H   0  0  0  0  0  0  0  0  0  0  0  0
   -2.9215   26.2211  -25.6961 H   0  0  0  0  0  0  0  0  0  0  0  0
   -1.6672   27.0750  -24.7198 H   0  0  0  0  0  0  0  0  0  0  0  0
    0.6154   27.2909  -27.4371 H   0  0  0  0  0  0  0  0  0  0  0  0
    0.0757   28.1700  -25.9281 H   0  0  0  0  0  0  0  0  0  0  0  0
    1.8807   26.0775  -25.9892 H   0  0  0  0  0  0  0  0  0  0  0  0
    0.8948   26.6099  -24.5592 H   0  0  0  0  0  0  0  0  0  0  0  0
   -1.1998   25.3280  -29.0738 H   0  0  0  0  0  0  0  0  0  0  0  0
   -4.1177   23.0126  -32.4862 H   0  0  0  0  0  0  0  0  0  0  0  0
   -5.4172   20.9693  -33.0696 H   0  0  0  0  0  0  0  0  0  0  0  0
  1  2  1  0
  2  3  1  0
  3  4  2  0
  3  5  2  0
  3  6  1  0
  6  7  2  0
  7  8  1  0
  8  9  2  0
  9 10  1  0
 10 11  2  0
 10 12  1  0
 12 13  1  0
 13 14  2  0
 14 15  1  0
 15 16  2  0
 16 17  1  0
 17 18  1  0
 18 19  2  0
 18 20  2  0
 18 21  1  0
 21 22  1  0
 22 23  1  0
 23 24  1  0
 24 25  1  0
 25 26  1  0
 17 27  2  0
  9 28  1  0
 28 29  2  0
 29  6  1  0
 27 13  1  0
 26 21  1  0
  1 30  1  0
  1 31  1  0
  1 32  1  0
  2 33  1  0
  2 34  1  0
  7 35  1  0
  8 36  1  0
 14 37  1  0
 15 38  1  0
 16 39  1  0
 21 40  1  0
 22 41  1  0
 22 42  1  0
 23 43  1  0
 23 44  1  0
 25 45  1  0
 25 46  1  0
 26 47  1  0
 26 48  1  0
 27 49  1  0
 28 50  1  0
 29 51  1  0
M  CHG  2  12  -1  21   1
M  END
>  <UniqueID>  (33) 
30

>  <SMILES>  (33) 
CCS(=O)(=O)c1ccc(C(=O)[N-]c2cccc(S(=O)(=O)[NH+]3CCOCC3)c2)cc1

>  <Energy>  (33) 
63.14685934667876

>  <Genealogy>  (33) 
CCS(=O)(=O)c1ccc(C(=O)[N-]c2cccc(S(=O)(=O)[NH+]3CCOCC3)c2)cc1 (protonated)
CCS(=O)(=O)c1ccc(C(=O)[N-]c2cccc(S(=O)(=O)[NH+]3CCOCC3)c2)cc1 (3D coordinates assigned)
CCS(=O)(=O)c1ccc(C(=O)[N-]c2cccc(S(=O)(=O)[NH+]3CCOCC3)c2)cc1 (nonaromatic ring conformer: 63.14685934667876 kcal/mol)

>  <smiles>  (33) 
CCS(=O)(=O)c1ccc(C(=O)Nc2cccc(S(=O)(=O)N3CCOCC3)c2)cc1

>  <score_type>  (33) 
oracle

>  <origin>  (33) 
adgpu

>  <m_score__min__energy>  (33) 
-11.039999999999999

>  <m_primary>  (33) 
energy

$$$$
33:0
     RDKit          3D

 57 60  0  0  0  0  0  0  0  0999 V2000
   -3.7760   21.9530  -29.5690 O   0  0  0  0  0  0  0  0  0  0  0  0
   -2.7190   22.4600  -30.0320 C   0  0  0  0  0  0  0  0  0  0  0  0
   -2.2190   22.0520  -31.3190 N   0  0  0  0  0  0  0  0  0  0  0  0
   -2.8350   21.0450  -32.1380 C   0  0  0  0  0  0  0  0  0  0  0  0
   -2.0940   20.3060  -33.0770 C   0  0  0  0  0  0  0  0  0  0  0  0
   -2.7250   19.3530  -33.8800 C   0  0  0  0  0  0  0  0  0  0  0  0
   -4.1020   19.1420  -33.7690 C   0  0  0  0  0  0  0  0  0  0  0  0
   -4.8580   19.8950  -32.8610 C   0  0  0  0  0  0  0  0  0  0  0  0
   -6.6030   19.6580  -32.7490 S   0  0  0  0  0  0  0  0  0  0  0  0
   -6.8960   18.1850  -32.6590 O   0  0  0  0  0  0  0  0  0  0  0  0
   -7.2540   20.1810  -33.9990 O   0  0  0  0  0  0  0  0  0  0  0  0
   -7.2900   20.4700  -31.3560 N   0  0  0  0  0  0  0  0  0  0  0  0
   -7.0850   21.9210  -31.4340 C   0  0  0  0  0  0  0  0  0  0  0  0
   -8.3600   22.5590  -31.9670 C   0  0  0  0  0  0  0  0  0  0  0  0
   -9.4270   21.4860  -31.8810 C   0  0  0  0  0  0  0  0  0  0  0  0
   -8.7400   20.2650  -31.2870 C   0  0  0  0  0  0  0  0  0  0  0  0
   -4.2210   20.8440  -32.0500 C   0  0  0  0  0  0  0  0  0  0  0  0
   -1.9980   23.4700  -29.2280 C   0  0  0  0  0  0  0  0  0  0  0  0
   -1.0040   23.0480  -28.3290 C   0  0  0  0  0  0  0  0  0  0  0  0
   -0.2850   23.9800  -27.5690 C   0  0  0  0  0  0  0  0  0  0  0  0
    0.9950   23.4410  -26.4770 S   0  0  0  0  0  0  0  0  0  0  0  0
    1.4150   22.0480  -26.8590 O   0  0  0  0  0  0  0  0  0  0  0  0
    0.4630   23.3980  -25.0720 O   0  0  0  0  0  0  0  0  0  0  0  0
    2.3850   24.5010  -26.5410 N   0  0  0  0  0  0  0  0  0  0  0  0
    2.6650   25.1180  -25.2260 C   0  0  0  0  0  0  0  0  0  0  0  0
    3.8810   24.4750  -24.5340 C   0  0  0  0  0  0  0  0  0  0  0  0
    5.0730   24.5560  -25.3030 O   0  0  0  0  0  0  0  0  0  0  0  0
    4.8570   24.4920  -26.7090 C   0  0  0  0  0  0  0  0  0  0  0  0
    3.5480   23.7930  -27.1080 C   0  0  0  0  0  0  0  0  0  0  0  0
   -0.5830   25.3430  -27.6870 C   0  0  0  0  0  0  0  0  0  0  0  0
   -1.5860   25.7710  -28.5580 C   0  0  0  0  0  0  0  0  0  0  0  0
   -2.3000   24.8440  -29.3240 C   0  0  0  0  0  0  0  0  0  0  0  0
   -3.3250   25.2960  -30.1480 O   0  0  0  0  0  0  0  0  0  0  0  0
   -1.3850   22.5440  -31.7120 H   0  0  0  0  0  0  0  0  0  0  0  0
   -1.0126   20.4791  -33.1797 H   0  0  0  0  0  0  0  0  0  0  0  0
   -2.1366   18.7672  -34.6015 H   0  0  0  0  0  0  0  0  0  0  0  0
   -4.5933   18.3832  -34.3958 H   0  0  0  0  0  0  0  0  0  0  0  0
   -6.8610   22.3188  -30.4332 H   0  0  0  0  0  0  0  0  0  0  0  0
   -6.2412   22.1478  -32.1023 H   0  0  0  0  0  0  0  0  0  0  0  0
   -8.6397   23.4272  -31.3522 H   0  0  0  0  0  0  0  0  0  0  0  0
   -8.2313   22.9197  -32.9982 H   0  0  0  0  0  0  0  0  0  0  0  0
  -10.2507   21.8161  -31.2310 H   0  0  0  0  0  0  0  0  0  0  0  0
   -9.8609   21.2665  -32.8677 H   0  0  0  0  0  0  0  0  0  0  0  0
   -9.0478   20.1390  -30.2385 H   0  0  0  0  0  0  0  0  0  0  0  0
   -9.0211   19.3624  -31.8495 H   0  0  0  0  0  0  0  0  0  0  0  0
   -4.8132   21.4370  -31.3376 H   0  0  0  0  0  0  0  0  0  0  0  0
   -0.7881   21.9748  -28.2207 H   0  0  0  0  0  0  0  0  0  0  0  0
    2.8652   26.1897  -25.3720 H   0  0  0  0  0  0  0  0  0  0  0  0
    1.7862   24.9612  -24.5832 H   0  0  0  0  0  0  0  0  0  0  0  0
    4.0485   24.9875  -23.5752 H   0  0  0  0  0  0  0  0  0  0  0  0
    3.6523   23.4076  -24.3989 H   0  0  0  0  0  0  0  0  0  0  0  0
    4.8350   25.5188  -27.1029 H   0  0  0  0  0  0  0  0  0  0  0  0
    5.6787   23.8946  -27.1308 H   0  0  0  0  0  0  0  0  0  0  0  0
    3.4644   23.7818  -28.2048 H   0  0  0  0  0  0  0  0  0  0  0  0
    3.5621   22.7654  -26.7158 H   0  0  0  0  0  0  0  0  0  0  0  0
   -0.0243   26.0795  -27.0908 H   0  0  0  0  0  0  0  0  0  0  0  0
   -1.8162   26.8433  -28.6425 H   0  0  0  0  0  0  0  0  0  0  0  0
  1  2  2  0
  2  3  1  0
  3  4  1  0
  4  5  2  0
  5  6  1  0
  6  7  2  0
  7  8  1  0
  8  9  1  0
  9 10  2  0
  9 11  2  0
  9 12  1  0
 12 13  1  0
 13 14  1  0
 14 15  1  0
 15 16  1  0
  8 17  2  0
  2 18  1  0
 18 19  2  0
 19 20  1  0
 20 21  1  0
 21 22  2  0
 21 23  2  0
 21 24  1  0
 24 25  1  0
 25 26  1  0
 26 27  1  0
 27 28  1  0
 28 29  1  0
 20 30  2  0
 30 31  1  0
 31 32  2  0
 32 33  1  0
 17  4  1  0
 32 18  1  0
 16 12  1  0
 29 24  1  0
  3 34  1  0
  5 35  1  0
  6 36  1  0
  7 37  1  0
 13 38  1  0
 13 39  1  0
 14 40  1  0
 14 41  1  0
 15 42  1  0
 15 43  1  0
 16 44  1  0
 16 45  1  0
 17 46  1  0
 19 47  1  0
 25 48  1  0
 25 49  1  0
 26 50  1  0
 26 51  1  0
 28 52  1  0
 28 53  1  0
 29 54  1  0
 29 55  1  0
 30 56  1  0
 31 57  1  0
M  CHG  1  33  -1
M  END
>  <UniqueID>  (34) 
31

>  <SMILES>  (34) 
O=C(Nc1cccc(S(=O)(=O)N2CCCC2)c1)c1cc(S(=O)(=O)N2CCOCC2)ccc1[O-]

>  <Energy>  (34) 
79.53680221321649

>  <Genealogy>  (34) 
O=C(Nc1cccc(S(=O)(=O)N2CCCC2)c1)c1cc(S(=O)(=O)N2CCOCC2)ccc1[O-] (protonated)
O=C(Nc1cccc(S(=O)(=O)N2CCCC2)c1)c1cc(S(=O)(=O)N2CCOCC2)ccc1[O-] (3D coordinates assigned)
O=C(Nc1cccc(S(=O)(=O)N2CCCC2)c1)c1cc(S(=O)(=O)N2CCOCC2)ccc1[O-] (nonaromatic ring conformer: 79.53680221321649 kcal/mol)

>  <smiles>  (34) 
O=C(Nc1cccc(S(=O)(=O)N2CCCC2)c1)c1cc(S(=O)(=O)N2CCOCC2)ccc1O

>  <score_type>  (34) 
oracle

>  <origin>  (34) 
adgpu

>  <m_score__min__energy>  (34) 
-12.94

>  <m_primary>  (34) 
energy

$$$$
34:0
     RDKit          3D

 67 70  0  0  0  0  0  0  0  0999 V2000
   -0.5830   28.9070  -24.8550 C   0  0  0  0  0  0  0  0  0  0  0  0
   -0.2330   27.4050  -24.7200 C   0  0  0  0  0  0  0  0  0  0  0  0
   -0.4750   26.9980  -23.2500 C   0  0  0  0  0  0  0  0  0  0  0  0
    1.2670   27.2390  -25.0550 C   0  0  0  0  0  0  0  0  0  0  0  0
   -1.0720   26.5020  -25.6470 C   0  0  0  0  0  0  0  0  0  0  0  0
   -2.3400   26.0500  -25.2200 C   0  0  0  0  0  0  0  0  0  0  0  0
   -3.1370   25.2460  -26.0390 C   0  0  0  0  0  0  0  0  0  0  0  0
   -2.6990   24.8740  -27.3190 C   0  0  0  0  0  0  0  0  0  0  0  0
   -3.5670   24.0460  -28.1920 C   0  0  0  0  0  0  0  0  0  0  0  0
   -3.5100   22.7880  -28.1050 O   0  0  0  0  0  0  0  0  0  0  0  0
   -4.5130   24.6600  -29.0840 N   0  0  0  0  0  0  0  0  0  0  0  0
   -5.2200   23.9370  -30.1050 C   0  0  0  0  0  0  0  0  0  0  0  0
   -6.5150   24.3400  -30.4630 C   0  0  0  0  0  0  0  0  0  0  0  0
   -7.2170   23.6560  -31.4560 C   0  0  0  0  0  0  0  0  0  0  0  0
   -6.6300   22.5750  -32.1130 C   0  0  0  0  0  0  0  0  0  0  0  0
   -5.3230   22.1690  -31.7920 C   0  0  0  0  0  0  0  0  0  0  0  0
   -4.6920   21.0270  -32.5050 C   0  0  0  0  0  0  0  0  0  0  0  0
   -3.2920   20.8860  -32.5300 C   0  0  0  0  0  0  0  0  0  0  0  0
   -2.6970   19.8250  -33.2160 C   0  0  0  0  0  0  0  0  0  0  0  0
   -3.4870   18.8900  -33.9030 C   0  0  0  0  0  0  0  0  0  0  0  0
   -2.8370   17.7870  -34.6400 C   0  0  0  0  0  0  0  0  0  0  0  0
   -3.5540   17.0040  -35.3190 O   0  0  0  0  0  0  0  0  0  0  0  0
   -1.4290   17.5290  -34.5560 N   0  0  0  0  0  0  0  0  0  0  0  0
   -0.4590   17.7730  -35.6170 C   0  0  0  0  0  0  0  0  0  0  0  0
    0.5420   18.7590  -35.1650 N   0  0  0  0  0  0  0  0  0  0  0  0
    0.5900   19.9390  -36.0630 C   0  0  0  0  0  0  0  0  0  0  0  0
   -0.1040   21.1660  -35.4450 C   0  0  0  0  0  0  0  0  0  0  0  0
    0.4770   21.5720  -34.2140 O   0  0  0  0  0  0  0  0  0  0  0  0
    0.9600   20.4910  -33.4250 C   0  0  0  0  0  0  0  0  0  0  0  0
    0.3130   19.1330  -33.7480 C   0  0  0  0  0  0  0  0  0  0  0  0
   -4.8850   19.0070  -33.8510 C   0  0  0  0  0  0  0  0  0  0  0  0
   -5.4810   20.0690  -33.1660 C   0  0  0  0  0  0  0  0  0  0  0  0
   -4.6210   22.8640  -30.7880 C   0  0  0  0  0  0  0  0  0  0  0  0
   -1.4320   25.2970  -27.7480 C   0  0  0  0  0  0  0  0  0  0  0  0
   -0.6290   26.0960  -26.9290 C   0  0  0  0  0  0  0  0  0  0  0  0
   -0.6864   29.3508  -23.8538 H   0  0  0  0  0  0  0  0  0  0  0  0
    0.2191   29.4225  -25.4035 H   0  0  0  0  0  0  0  0  0  0  0  0
   -1.5303   29.0149  -25.4035 H   0  0  0  0  0  0  0  0  0  0  0  0
   -0.0280   27.7499  -22.5830 H   0  0  0  0  0  0  0  0  0  0  0  0
   -1.5567   26.9361  -23.0600 H   0  0  0  0  0  0  0  0  0  0  0  0
   -0.0127   26.0181  -23.0600 H   0  0  0  0  0  0  0  0  0  0  0  0
    1.8462   27.1749  -24.1220 H   0  0  0  0  0  0  0  0  0  0  0  0
    1.4123   26.3193  -25.6407 H   0  0  0  0  0  0  0  0  0  0  0  0
    1.6099   28.1047  -25.6407 H   0  0  0  0  0  0  0  0  0  0  0  0
   -2.7073   26.3364  -24.2235 H   0  0  0  0  0  0  0  0  0  0  0  0
   -4.1169   24.9015  -25.6769 H   0  0  0  0  0  0  0  0  0  0  0  0
   -4.8200   25.6390  -28.8850 H   0  0  0  0  0  0  0  0  0  0  0  0
   -6.9796   25.1999  -29.9582 H   0  0  0  0  0  0  0  0  0  0  0  0
   -8.2371   23.9705  -31.7216 H   0  0  0  0  0  0  0  0  0  0  0  0
   -7.1940   22.0359  -32.8884 H   0  0  0  0  0  0  0  0  0  0  0  0
   -2.6609   21.6179  -32.0046 H   0  0  0  0  0  0  0  0  0  0  0  0
   -1.6019   19.7213  -33.2180 H   0  0  0  0  0  0  0  0  0  0  0  0
    0.0470   16.8303  -35.8725 H   0  0  0  0  0  0  0  0  0  0  0  0
   -0.9811   18.1663  -36.5018 H   0  0  0  0  0  0  0  0  0  0  0  0
    1.6422   20.1899  -36.2629 H   0  0  0  0  0  0  0  0  0  0  0  0
    0.0580   19.6805  -36.9904 H   0  0  0  0  0  0  0  0  0  0  0  0
   -0.0367   22.0020  -36.1567 H   0  0  0  0  0  0  0  0  0  0  0  0
   -1.1472   20.8844  -35.2389 H   0  0  0  0  0  0  0  0  0  0  0  0
    2.0444   20.4034  -33.5876 H   0  0  0  0  0  0  0  0  0  0  0  0
    0.7017   20.7228  -32.3812 H   0  0  0  0  0  0  0  0  0  0  0  0
    0.7509   18.3619  -33.0971 H   0  0  0  0  0  0  0  0  0  0  0  0
   -0.7708   19.2115  -33.5769 H   0  0  0  0  0  0  0  0  0  0  0  0
   -5.5152   18.2579  -34.3527 H   0  0  0  0  0  0  0  0  0  0  0  0
   -6.5773   20.1564  -33.1436 H   0  0  0  0  0  0  0  0  0  0  0  0
   -3.5932   22.5641  -30.5356 H   0  0  0  0  0  0  0  0  0  0  0  0
   -1.0661   24.9963  -28.7408 H   0  0  0  0  0  0  0  0  0  0  0  0
    0.3617   26.4140  -27.2858 H   0  0  0  0  0  0  0  0  0  0  0  0
  1  2  1  0
  2  3  1  0
  2  4  1  0
  2  5  1  0
  5  6  2  0
  6  7  1  0
  7  8  2  0
  8  9  1  0
  9 10  2  0
  9 11  1  0
 11 12  1  0
 12 13  2  0
 13 14  1  0
 14 15  2  0
 15 16  1  0
 16 17  1  0
 17 18  2  0
 18 19  1  0
 19 20  2  0
 20 21  1  0
 21 22  2  0
 21 23  1  0
 23 24  1  0
 24 25  1  0
 25 26  1  0
 26 27  1  0
 27 28  1  0
 28 29  1  0
 29 30  1  0
 20 31  1  0
 31 32  2  0
 16 33  2  0
  8 34  1  0
 34 35  2  0
 35  5  1  0
 33 12  1  0
 32 17  1  0
 30 25  1  0
  1 36  1  0
  1 37  1  0
  1 38  1  0
  3 39  1  0
  3 40  1  0
  3 41  1  0
  4 42  1  0
  4 43  1  0
  4 44  1  0
  6 45  1  0
  7 46  1  0
 11 47  1  0
 13 48  1  0
 14 49  1  0
 15 50  1  0
 18 51  1  0
 19 52  1  0
 24 53  1  0
 24 54  1  0
 26 55  1  0
 26 56  1  0
 27 57  1  0
 27 58  1  0
 29 59  1  0
 29 60  1  0
 30 61  1  0
 30 62  1  0
 31 63  1  0
 32 64  1  0
 33 65  1  0
 34 66  1  0
 35 67  1  0
M  CHG  1  23  -1
M  END
>  <UniqueID>  (35) 
32

>  <SMILES>  (35) 
CC(C)(C)c1ccc(C(=O)Nc2cccc(-c3ccc(C(=O)[N-]CN4CCOCC4)cc3)c2)cc1

>  <Energy>  (35) 
100.80182573638236

>  <Genealogy>  (35) 
CC(C)(C)c1ccc(C(=O)Nc2cccc(-c3ccc(C(=O)[N-]CN4CCOCC4)cc3)c2)cc1 (protonated)
CC(C)(C)c1ccc(C(=O)Nc2cccc(-c3ccc(C(=O)[N-]CN4CCOCC4)cc3)c2)cc1 (3D coordinates assigned)
CC(C)(C)c1ccc(C(=O)Nc2cccc(-c3ccc(C(=O)[N-]CN4CCOCC4)cc3)c2)cc1 (nonaromatic ring conformer: 100.80182573638236 kcal/mol)

>  <smiles>  (35) 
CC(C)(C)c1ccc(C(=O)Nc2cccc(-c3ccc(C(=O)NCN4CCOCC4)cc3)c2)cc1

>  <score_type>  (35) 
oracle

>  <origin>  (35) 
adgpu

>  <m_score__min__energy>  (35) 
-10.18

>  <m_primary>  (35) 
energy

$$$$
35:0
     RDKit          3D

 54 57  0  0  0  0  0  0  0  0999 V2000
   -4.2950   19.3230  -33.7440 C   0  0  0  0  0  0  0  0  0  0  0  0
   -4.1450   20.3210  -32.6410 C   0  0  0  0  0  0  0  0  0  0  0  0
   -2.9650   20.8750  -32.2980 N   0  0  0  0  0  0  0  0  0  0  0  0
   -3.2060   21.7140  -31.3000 N   0  0  0  0  0  0  0  0  0  0  0  0
   -4.5270   21.6600  -31.0510 C   0  0  0  0  0  0  0  0  0  0  0  0
   -5.3440   22.6850  -29.8220 S   0  0  0  0  0  0  0  0  0  0  0  0
   -5.6380   24.0790  -30.9630 C   0  0  0  0  0  0  0  0  0  0  0  0
   -4.9150   25.2980  -30.4930 C   0  0  0  0  0  0  0  0  0  0  0  0
   -5.5430   26.3810  -30.3540 O   0  0  0  0  0  0  0  0  0  0  0  0
   -3.4930   25.2430  -30.3080 N   0  0  0  0  0  0  0  0  0  0  0  0
   -2.7810   24.4710  -29.3310 C   0  0  0  0  0  0  0  0  0  0  0  0
   -3.2510   24.3110  -28.0140 C   0  0  0  0  0  0  0  0  0  0  0  0
   -2.5330   23.5340  -27.0990 C   0  0  0  0  0  0  0  0  0  0  0  0
   -1.3480   22.8980  -27.4900 C   0  0  0  0  0  0  0  0  0  0  0  0
   -0.4200   21.9290  -26.3470 S   0  0  0  0  0  0  0  0  0  0  0  0
   -0.9790   22.1600  -24.9720 O   0  0  0  0  0  0  0  0  0  0  0  0
    1.0200   22.3620  -26.3580 O   0  0  0  0  0  0  0  0  0  0  0  0
   -0.5470   20.2290  -26.7490 N   0  0  0  0  0  0  0  0  0  0  0  0
   -1.8560   19.6690  -26.3620 C   0  0  0  0  0  0  0  0  0  0  0  0
   -2.9920   20.1240  -27.3090 C   0  0  0  0  0  0  0  0  0  0  0  0
   -2.5340   20.6020  -28.5620 O   0  0  0  0  0  0  0  0  0  0  0  0
   -1.4850   19.7930  -29.0420 C   0  0  0  0  0  0  0  0  0  0  0  0
   -0.2280   19.9740  -28.1710 C   0  0  0  0  0  0  0  0  0  0  0  0
   -0.8940   23.0350  -28.8080 C   0  0  0  0  0  0  0  0  0  0  0  0
   -1.6080   23.8140  -29.7220 C   0  0  0  0  0  0  0  0  0  0  0  0
   -5.1520   20.7980  -31.8790 N   0  0  0  0  0  0  0  0  0  0  0  0
   -6.5550   20.4990  -31.9510 C   0  0  0  0  0  0  0  0  0  0  0  0
   -6.9950   19.1670  -31.9720 C   0  0  0  0  0  0  0  0  0  0  0  0
   -8.3640   18.8760  -32.0190 C   0  0  0  0  0  0  0  0  0  0  0  0
   -9.2980   19.9130  -32.0430 C   0  0  0  0  0  0  0  0  0  0  0  0
   -8.8680   21.2430  -32.0230 C   0  0  0  0  0  0  0  0  0  0  0  0
   -7.5010   21.5370  -31.9770 C   0  0  0  0  0  0  0  0  0  0  0  0
   -4.4455   18.3216  -33.3144 H   0  0  0  0  0  0  0  0  0  0  0  0
   -5.1631   19.5900  -34.3646 H   0  0  0  0  0  0  0  0  0  0  0  0
   -3.3868   19.3231  -34.3646 H   0  0  0  0  0  0  0  0  0  0  0  0
   -5.2776   23.8082  -31.9664 H   0  0  0  0  0  0  0  0  0  0  0  0
   -6.7164   24.2935  -30.9937 H   0  0  0  0  0  0  0  0  0  0  0  0
   -4.1866   24.7989  -27.7031 H   0  0  0  0  0  0  0  0  0  0  0  0
   -2.9005   23.4220  -26.0683 H   0  0  0  0  0  0  0  0  0  0  0  0
   -1.7926   18.5711  -26.3874 H   0  0  0  0  0  0  0  0  0  0  0  0
   -2.0931   20.0342  -25.3519 H   0  0  0  0  0  0  0  0  0  0  0  0
   -3.6591   19.2677  -27.4871 H   0  0  0  0  0  0  0  0  0  0  0  0
   -3.5057   20.9616  -26.8145 H   0  0  0  0  0  0  0  0  0  0  0  0
   -1.7976   18.7387  -29.0131 H   0  0  0  0  0  0  0  0  0  0  0  0
   -1.2497   20.0885  -30.0751 H   0  0  0  0  0  0  0  0  0  0  0  0
    0.3794   19.0592  -28.2363 H   0  0  0  0  0  0  0  0  0  0  0  0
    0.3144   20.8523  -28.5511 H   0  0  0  0  0  0  0  0  0  0  0  0
    0.0288   22.5270  -29.1248 H   0  0  0  0  0  0  0  0  0  0  0  0
   -1.2460   23.9119  -30.7561 H   0  0  0  0  0  0  0  0  0  0  0  0
   -6.2614   18.3476  -31.9515 H   0  0  0  0  0  0  0  0  0  0  0  0
   -8.7034   17.8298  -32.0370 H   0  0  0  0  0  0  0  0  0  0  0  0
  -10.3732   19.6835  -32.0777 H   0  0  0  0  0  0  0  0  0  0  0  0
   -9.6052   22.0592  -32.0434 H   0  0  0  0  0  0  0  0  0  0  0  0
   -7.1659   22.5846  -31.9611 H   0  0  0  0  0  0  0  0  0  0  0  0
  1  2  1  0
  2  3  2  0
  3  4  1  0
  4  5  2  0
  5  6  1  0
  6  7  1  0
  7  8  1  0
  8  9  2  0
  8 10  1  0
 10 11  1  0
 11 12  2  0
 12 13  1  0
 13 14  2  0
 14 15  1  0
 15 16  2  0
 15 17  2  0
 15 18  1  0
 18 19  1  0
 19 20  1  0
 20 21  1  0
 21 22  1  0
 22 23  1  0
 14 24  1  0
 24 25  2  0
  5 26  1  0
 26 27  1  0
 27 28  2  0
 28 29  1  0
 29 30  2  0
 30 31  1  0
 31 32  2  0
 26  2  1  0
 32 27  1  0
 25 11  1  0
 23 18  1  0
  1 33  1  0
  1 34  1  0
  1 35  1  0
  7 36  1  0
  7 37  1  0
 12 38  1  0
 13 39  1  0
 19 40  1  0
 19 41  1  0
 20 42  1  0
 20 43  1  0
 22 44  1  0
 22 45  1  0
 23 46  1  0
 23 47  1  0
 24 48  1  0
 25 49  1  0
 28 50  1  0
 29 51  1  0
 30 52  1  0
 31 53  1  0
 32 54  1  0
M  CHG  1  10  -1
M  END
>  <UniqueID>  (36) 
33

>  <SMILES>  (36) 
Cc1nnc(SCC(=O)[N-]c2ccc(S(=O)(=O)N3CCOCC3)cc2)n1-c1ccccc1

>  <Energy>  (36) 
105.98193230456734

>  <Genealogy>  (36) 
Cc1nnc(SCC(=O)[N-]c2ccc(S(=O)(=O)N3CCOCC3)cc2)n1-c1ccccc1 (protonated)
Cc1nnc(SCC(=O)[N-]c2ccc(S(=O)(=O)N3CCOCC3)cc2)n1-c1ccccc1 (3D coordinates assigned)
Cc1nnc(SCC(=O)[N-]c2ccc(S(=O)(=O)N3CCOCC3)cc2)n1-c1ccccc1 (nonaromatic ring conformer: 105.98193230456734 kcal/mol)

>  <smiles>  (36) 
Cc1nnc(SCC(=O)Nc2ccc(S(=O)(=O)N3CCOCC3)cc2)n1-c1ccccc1

>  <score_type>  (36) 
oracle

>  <origin>  (36) 
adgpu

>  <m_score__min__energy>  (36) 
-11.58

>  <m_primary>  (36) 
energy

$$$$
36:0
     RDKit          3D

 61 64  0  0  0  0  0  0  0  0999 V2000
   -1.2100   20.7460  -34.1630 C   0  0  0  0  0  0  0  0  0  0  0  0
   -0.9350   20.6210  -32.6950 C   0  0  0  0  0  0  0  0  0  0  0  0
    0.2640   20.0470  -32.2420 C   0  0  0  0  0  0  0  0  0  0  0  0
    0.5360   19.9660  -30.8740 C   0  0  0  0  0  0  0  0  0  0  0  0
   -0.3830   20.4790  -29.9370 C   0  0  0  0  0  0  0  0  0  0  0  0
   -0.1570   20.4260  -28.5540 O   0  0  0  0  0  0  0  0  0  0  0  0
    0.6490   21.3530  -27.8310 C   0  0  0  0  0  0  0  0  0  0  0  0
    0.0910   22.7310  -28.0000 C   0  0  0  0  0  0  0  0  0  0  0  0
   -0.0700   23.3260  -29.1990 N   0  0  0  0  0  0  0  0  0  0  0  0
   -0.5390   24.5430  -28.9690 N   0  0  0  0  0  0  0  0  0  0  0  0
   -0.6450   24.6790  -27.6330 C   0  0  0  0  0  0  0  0  0  0  0  0
   -1.2570   26.1690  -26.8370 S   0  0  0  0  0  0  0  0  0  0  0  0
   -2.5830   25.3120  -25.9120 C   0  0  0  0  0  0  0  0  0  0  0  0
   -3.7040   24.8770  -26.8090 C   0  0  0  0  0  0  0  0  0  0  0  0
   -4.8990   24.9680  -26.4130 O   0  0  0  0  0  0  0  0  0  0  0  0
   -3.4090   24.2710  -28.0750 N   0  0  0  0  0  0  0  0  0  0  0  0
   -4.3880   24.1150  -29.1140 C   0  0  0  0  0  0  0  0  0  0  0  0
   -5.3670   25.0980  -29.3380 C   0  0  0  0  0  0  0  0  0  0  0  0
   -6.3020   24.9380  -30.3630 C   0  0  0  0  0  0  0  0  0  0  0  0
   -6.2670   23.8000  -31.1730 C   0  0  0  0  0  0  0  0  0  0  0  0
   -5.2830   22.8210  -30.9750 C   0  0  0  0  0  0  0  0  0  0  0  0
   -5.2560   21.3730  -31.9860 S   0  0  0  0  0  0  0  0  0  0  0  0
   -4.6240   20.2500  -31.2140 O   0  0  0  0  0  0  0  0  0  0  0  0
   -4.4030   21.6410  -33.1960 O   0  0  0  0  0  0  0  0  0  0  0  0
   -6.8480   20.8740  -32.5050 N   0  0  0  0  0  0  0  0  0  0  0  0
   -6.8970   19.4580  -32.8620 C   0  0  0  0  0  0  0  0  0  0  0  0
   -8.3410   19.0150  -32.6630 C   0  0  0  0  0  0  0  0  0  0  0  0
   -8.9730   20.0800  -31.7760 C   0  0  0  0  0  0  0  0  0  0  0  0
   -7.8450   21.0450  -31.4510 C   0  0  0  0  0  0  0  0  0  0  0  0
   -4.3440   22.9860  -29.9470 C   0  0  0  0  0  0  0  0  0  0  0  0
   -0.2470   23.5630  -26.9910 N   0  0  0  0  0  0  0  0  0  0  0  0
   -0.1850   23.3090  -25.5530 C   0  0  0  0  0  0  0  0  0  0  0  0
   -1.5700   21.0660  -30.3930 C   0  0  0  0  0  0  0  0  0  0  0  0
   -1.8450   21.1390  -31.7610 C   0  0  0  0  0  0  0  0  0  0  0  0
   -2.2020   21.1969  -34.3131 H   0  0  0  0  0  0  0  0  0  0  0  0
   -0.4432   21.3841  -34.6267 H   0  0  0  0  0  0  0  0  0  0  0  0
   -1.1866   19.7488  -34.6267 H   0  0  0  0  0  0  0  0  0  0  0  0
    0.9932   19.6589  -32.9684 H   0  0  0  0  0  0  0  0  0  0  0  0
    1.4703   19.5004  -30.5273 H   0  0  0  0  0  0  0  0  0  0  0  0
    0.6496   21.0852  -26.7641 H   0  0  0  0  0  0  0  0  0  0  0  0
    1.6793   21.3232  -28.2152 H   0  0  0  0  0  0  0  0  0  0  0  0
   -2.1568   24.4249  -25.4207 H   0  0  0  0  0  0  0  0  0  0  0  0
   -2.9928   26.0175  -25.1742 H   0  0  0  0  0  0  0  0  0  0  0  0
   -2.4630   23.8500  -28.2130 H   0  0  0  0  0  0  0  0  0  0  0  0
   -5.3970   25.9964  -28.7039 H   0  0  0  0  0  0  0  0  0  0  0  0
   -7.0675   25.7094  -30.5330 H   0  0  0  0  0  0  0  0  0  0  0  0
   -7.0147   23.6716  -31.9695 H   0  0  0  0  0  0  0  0  0  0  0  0
   -6.5976   19.3195  -33.9114 H   0  0  0  0  0  0  0  0  0  0  0  0
   -6.2086   18.8658  -32.2412 H   0  0  0  0  0  0  0  0  0  0  0  0
   -8.8632   18.9598  -33.6296 H   0  0  0  0  0  0  0  0  0  0  0  0
   -8.4029   18.0151  -32.2087 H   0  0  0  0  0  0  0  0  0  0  0  0
   -9.7822   20.5981  -32.3115 H   0  0  0  0  0  0  0  0  0  0  0  0
   -9.4203   19.6482  -30.8685 H   0  0  0  0  0  0  0  0  0  0  0  0
   -8.2184   22.0797  -31.4431 H   0  0  0  0  0  0  0  0  0  0  0  0
   -7.4177   20.8432  -30.4577 H   0  0  0  0  0  0  0  0  0  0  0  0
   -3.5660   22.2240  -29.7919 H   0  0  0  0  0  0  0  0  0  0  0  0
   -0.4114   24.2365  -25.0067 H   0  0  0  0  0  0  0  0  0  0  0  0
   -0.9210   22.5367  -25.2850 H   0  0  0  0  0  0  0  0  0  0  0  0
    0.8241   22.9626  -25.2850 H   0  0  0  0  0  0  0  0  0  0  0  0
   -2.2912   21.4726  -29.6688 H   0  0  0  0  0  0  0  0  0  0  0  0
   -2.7794   21.6048  -32.1074 H   0  0  0  0  0  0  0  0  0  0  0  0
  1  2  1  0
  2  3  2  0
  3  4  1  0
  4  5  2  0
  5  6  1  0
  6  7  1  0
  7  8  1  0
  8  9  2  0
  9 10  1  0
 10 11  2  0
 11 12  1  0
 12 13  1  0
 13 14  1  0
 14 15  2  0
 14 16  1  0
 16 17  1  0
 17 18  2  0
 18 19  1  0
 19 20  2  0
 20 21  1  0
 21 22  1  0
 22 23  2  0
 22 24  2  0
 22 25  1  0
 25 26  1  0
 26 27  1  0
 27 28  1  0
 28 29  1  0
 21 30  2  0
 11 31  1  0
 31 32  1  0
  5 33  1  0
 33 34  2  0
 34  2  1  0
 31  8  1  0
 30 17  1  0
 29 25  1  0
  1 35  1  0
  1 36  1  0
  1 37  1  0
  3 38  1  0
  4 39  1  0
  7 40  1  0
  7 41  1  0
 13 42  1  0
 13 43  1  0
 16 44  1  0
 18 45  1  0
 19 46  1  0
 20 47  1  0
 26 48  1  0
 26 49  1  0
 27 50  1  0
 27 51  1  0
 28 52  1  0
 28 53  1  0
 29 54  1  0
 29 55  1  0
 30 56  1  0
 32 57  1  0
 32 58  1  0
 32 59  1  0
 33 60  1  0
 34 61  1  0
M  END
>  <UniqueID>  (37) 
34

>  <SMILES>  (37) 
Cc1ccc(OCc2nnc(SCC(=O)Nc3cccc(S(=O)(=O)N4CCCC4)c3)n2C)cc1

>  <Energy>  (37) 
96.42096557860225

>  <Genealogy>  (37) 
Cc1ccc(OCc2nnc(SCC(=O)Nc3cccc(S(=O)(=O)N4CCCC4)c3)n2C)cc1 (3D coordinates assigned)
Cc1ccc(OCc2nnc(SCC(=O)Nc3cccc(S(=O)(=O)N4CCCC4)c3)n2C)cc1 (nonaromatic ring conformer: 96.42096557860225 kcal/mol)

>  <smiles>  (37) 
Cc1ccc(OCc2nnc(SCC(=O)Nc3cccc(S(=O)(=O)N4CCCC4)c3)n2C)cc1

>  <score_type>  (37) 
oracle

>  <origin>  (37) 
adgpu

>  <m_score__min__energy>  (37) 
-10.24

>  <m_primary>  (37) 
energy

$$$$
37:0
     RDKit          3D

 27 28  0  0  0  0  0  0  0  0999 V2000
   -1.5010   25.9590  -29.3430 O   0  0  0  0  0  0  0  0  0  0  0  0
   -1.3160   24.6450  -28.9250 C   0  0  0  0  0  0  0  0  0  0  0  0
   -0.0300   24.2110  -28.5800 C   0  0  0  0  0  0  0  0  0  0  0  0
    0.1740   22.8990  -28.1430 C   0  0  0  0  0  0  0  0  0  0  0  0
   -0.9060   22.0190  -28.0460 C   0  0  0  0  0  0  0  0  0  0  0  0
   -2.1910   22.4450  -28.3890 C   0  0  0  0  0  0  0  0  0  0  0  0
   -2.4060   23.7560  -28.8460 C   0  0  0  0  0  0  0  0  0  0  0  0
   -3.8000   24.2170  -29.1820 C   0  0  0  0  0  0  0  0  0  0  0  0
   -3.7980   24.8800  -30.4920 N   0  0  0  0  0  0  0  0  0  0  0  0
   -5.1260   25.4070  -30.8410 C   0  0  0  0  0  0  0  0  0  0  0  0
   -6.1200   24.3100  -31.0920 C   0  0  0  0  0  0  0  0  0  0  0  0
   -6.4610   23.7890  -32.3340 C   0  0  0  0  0  0  0  0  0  0  0  0
   -7.3790   22.7350  -32.2550 C   0  0  0  0  0  0  0  0  0  0  0  0
   -7.7540   22.4190  -30.9550 C   0  0  0  0  0  0  0  0  0  0  0  0
   -6.9420   23.4520  -29.9030 S   0  0  0  0  0  0  0  0  0  0  0  0
    0.8212   24.9039  -28.6530 H   0  0  0  0  0  0  0  0  0  0  0  0
    1.1855   22.5596  -27.8754 H   0  0  0  0  0  0  0  0  0  0  0  0
   -0.7442   20.9879  -27.6986 H   0  0  0  0  0  0  0  0  0  0  0  0
   -3.0393   21.7504  -28.3009 H   0  0  0  0  0  0  0  0  0  0  0  0
   -4.4751   23.3491  -29.2122 H   0  0  0  0  0  0  0  0  0  0  0  0
   -4.1449   24.9258  -28.4148 H   0  0  0  0  0  0  0  0  0  0  0  0
   -3.1090   25.6690  -30.4730 H   0  0  0  0  0  0  0  0  0  0  0  0
   -5.4890   26.0318  -30.0116 H   0  0  0  0  0  0  0  0  0  0  0  0
   -5.0259   25.9923  -31.7670 H   0  0  0  0  0  0  0  0  0  0  0  0
   -6.0514   24.1662  -33.2827 H   0  0  0  0  0  0  0  0  0  0  0  0
   -7.7668   22.2069  -33.1386 H   0  0  0  0  0  0  0  0  0  0  0  0
   -8.4610   21.6285  -30.6631 H   0  0  0  0  0  0  0  0  0  0  0  0
  1  2  1  0
  2  3  2  0
  3  4  1  0
  4  5  2  0
  5  6  1  0
  6  7  2  0
  7  8  1  0
  8  9  1  0
  9 10  1  0
 10 11  1  0
 11 12  2  0
 12 13  1  0
 13 14  2  0
 14 15  1  0
  7  2  1  0
 15 11  1  0
  3 16  1  0
  4 17  1  0
  5 18  1  0
  6 19  1  0
  8 20  1  0
  8 21  1  0
  9 22  1  0
 10 23  1  0
 10 24  1  0
 12 25  1  0
 13 26  1  0
 14 27  1  0
M  CHG  1   1  -1
M  END
>  <UniqueID>  (38) 
35

>  <SMILES>  (38) 
[O-]c1ccccc1CNCc1cccs1

>  <Energy>  (38) 
52.169776699833946

>  <Genealogy>  (38) 
[O-]c1ccccc1CNCc1cccs1 (protonated)
[O-]c1ccccc1CNCc1cccs1 (3D coordinates assigned)
[O-]c1ccccc1CNCc1cccs1 (optimized conformer: 52.169776699833946 kcal/mol)

>  <smiles>  (38) 
Oc1ccccc1CNCc1cccs1

>  <score_type>  (38) 
oracle

>  <origin>  (38) 
adgpu

>  <m_score__min__energy>  (38) 
-9.3699999999999992

>  <m_primary>  (38) 
energy

$$$$
38:0
     RDKit          3D

 51 53  0  0  0  0  0  0  0  0999 V2000
   -6.5820   20.6720  -33.3460 C   0  0  0  0  0  0  0  0  0  0  0  0
   -5.1150   20.5390  -33.0290 C   0  0  0  0  0  0  0  0  0  0  0  0
   -4.5240   21.5230  -32.2190 C   0  0  0  0  0  0  0  0  0  0  0  0
   -3.1830   21.4400  -31.8580 C   0  0  0  0  0  0  0  0  0  0  0  0
   -2.4040   20.3610  -32.2760 C   0  0  0  0  0  0  0  0  0  0  0  0
   -1.0250   20.3030  -31.8880 N   0  0  0  0  0  0  0  0  0  0  0  0
   -0.6080   19.9720  -30.5550 C   0  0  0  0  0  0  0  0  0  0  0  0
    0.9910   19.7380  -30.2620 S   0  0  0  0  0  0  0  0  0  0  0  0
   -1.5870   19.6580  -29.5510 N   0  0  0  0  0  0  0  0  0  0  0  0
   -2.1370   20.4740  -28.6960 C   0  0  0  0  0  0  0  0  0  0  0  0
   -1.9800   21.9450  -28.7310 C   0  0  0  0  0  0  0  0  0  0  0  0
   -3.1200   22.7530  -28.8440 C   0  0  0  0  0  0  0  0  0  0  0  0
   -2.9950   24.1450  -28.9160 C   0  0  0  0  0  0  0  0  0  0  0  0
   -1.7280   24.7360  -28.8970 C   0  0  0  0  0  0  0  0  0  0  0  0
   -1.6040   26.1180  -28.9680 O   0  0  0  0  0  0  0  0  0  0  0  0
   -0.5840   23.9350  -28.8150 C   0  0  0  0  0  0  0  0  0  0  0  0
   -0.7070   22.5440  -28.7420 C   0  0  0  0  0  0  0  0  0  0  0  0
   -2.9680   19.3760  -33.1060 C   0  0  0  0  0  0  0  0  0  0  0  0
   -2.1560   18.3510  -33.5800 O   0  0  0  0  0  0  0  0  0  0  0  0
   -4.3320   19.4400  -33.4740 C   0  0  0  0  0  0  0  0  0  0  0  0
   -5.0270   18.1660  -34.5120 S   0  0  0  0  0  0  0  0  0  0  0  0
   -6.1350   18.7300  -35.3570 O   0  0  0  0  0  0  0  0  0  0  0  0
   -3.9700   17.6450  -35.4460 O   0  0  0  0  0  0  0  0  0  0  0  0
   -5.6630   16.8220  -33.4890 C   0  0  0  0  0  0  0  0  0  0  0  0
   -5.0720   16.8570  -32.0510 C   0  0  0  0  0  0  0  0  0  0  0  0
   -6.1200   17.0990  -30.9540 C   0  0  0  0  0  0  0  0  0  0  0  0
   -7.0770   18.2270  -31.3490 C   0  0  0  0  0  0  0  0  0  0  0  0
   -7.8270   17.9350  -32.6670 C   0  0  0  0  0  0  0  0  0  0  0  0
   -7.2050   16.7970  -33.4960 C   0  0  0  0  0  0  0  0  0  0  0  0
   -7.1563   20.7241  -32.4093 H   0  0  0  0  0  0  0  0  0  0  0  0
   -6.7493   21.5890  -33.9301 H   0  0  0  0  0  0  0  0  0  0  0  0
   -6.9114   19.8000  -33.9301 H   0  0  0  0  0  0  0  0  0  0  0  0
   -5.1297   22.3705  -31.8655 H   0  0  0  0  0  0  0  0  0  0  0  0
   -2.7340   22.2306  -31.2388 H   0  0  0  0  0  0  0  0  0  0  0  0
   -0.3150   20.7020  -32.5420 H   0  0  0  0  0  0  0  0  0  0  0  0
   -2.7575   20.0414  -27.8974 H   0  0  0  0  0  0  0  0  0  0  0  0
   -4.1176   22.2906  -28.8762 H   0  0  0  0  0  0  0  0  0  0  0  0
   -3.8941   24.7746  -28.9876 H   0  0  0  0  0  0  0  0  0  0  0  0
    0.4130   24.3997  -28.8079 H   0  0  0  0  0  0  0  0  0  0  0  0
    0.1947   21.9159  -28.6930 H   0  0  0  0  0  0  0  0  0  0  0  0
   -5.3256   15.8746  -33.9347 H   0  0  0  0  0  0  0  0  0  0  0  0
   -4.5811   15.8924  -31.8545 H   0  0  0  0  0  0  0  0  0  0  0  0
   -4.3697   17.7029  -32.0145 H   0  0  0  0  0  0  0  0  0  0  0  0
   -6.6972   16.1757  -30.7979 H   0  0  0  0  0  0  0  0  0  0  0  0
   -5.5992   17.3888  -30.0294 H   0  0  0  0  0  0  0  0  0  0  0  0
   -7.8160   18.3598  -30.5451 H   0  0  0  0  0  0  0  0  0  0  0  0
   -6.4761   19.1356  -31.5018 H   0  0  0  0  0  0  0  0  0  0  0  0
   -8.8636   17.6597  -32.4226 H   0  0  0  0  0  0  0  0  0  0  0  0
   -7.7671   18.8472  -33.2789 H   0  0  0  0  0  0  0  0  0  0  0  0
   -7.5422   15.8358  -33.0809 H   0  0  0  0  0  0  0  0  0  0  0  0
   -7.5323   16.9309  -34.5376 H   0  0  0  0  0  0  0  0  0  0  0  0
  1  2  1  0
  2  3  2  0
  3  4  1  0
  4  5  2  0
  5  6  1  0
  6  7  1  0
  7  8  2  0
  7  9  1  0
  9 10  2  3
 10 11  1  0
 11 12  2  0
 12 13  1  0
 13 14  2  0
 14 15  1  0
 14 16  1  0
 16 17  2  0
  5 18  1  0
 18 19  1  0
 18 20  2  0
 20 21  1  0
 21 22  2  0
 21 23  2  0
 21 24  1  0
 24 25  1  0
 25 26  1  0
 26 27  1  0
 27 28  1  0
 28 29  1  0
 20  2  1  0
 29 24  1  0
 17 11  1  0
  1 30  1  0
  1 31  1  0
  1 32  1  0
  3 33  1  0
  4 34  1  0
  6 35  1  0
 10 36  1  0
 12 37  1  0
 13 38  1  0
 16 39  1  0
 17 40  1  0
 24 41  1  0
 25 42  1  0
 25 43  1  0
 26 44  1  0
 26 45  1  0
 27 46  1  0
 27 47  1  0
 28 48  1  0
 28 49  1  0
 29 50  1  0
 29 51  1  0
M  CHG  2  15  -1  19  -1
M  END
>  <UniqueID>  (39) 
36

>  <SMILES>  (39) 
Cc1ccc(NC(=S)N=Cc2ccc([O-])cc2)c([O-])c1S(=O)(=O)C1CCCCC1

>  <Energy>  (39) 
73.37174217238935

>  <Genealogy>  (39) 
Cc1ccc(NC(=S)N=Cc2ccc([O-])cc2)c([O-])c1S(=O)(=O)C1CCCCC1 (protonated)
Cc1ccc(NC(=S)N=Cc2ccc([O-])cc2)c([O-])c1S(=O)(=O)C1CCCCC1 (3D coordinates assigned)
Cc1ccc(NC(=S)N=Cc2ccc([O-])cc2)c([O-])c1S(=O)(=O)C1CCCCC1 (nonaromatic ring conformer: 73.37174217238935 kcal/mol)

>  <smiles>  (39) 
Cc1ccc(NC(=S)N=Cc2ccc(O)cc2)c(O)c1S(=O)(=O)C1CCCCC1

>  <score_type>  (39) 
oracle

>  <origin>  (39) 
adgpu

>  <m_score__min__energy>  (39) 
-12.470000000000001

>  <m_primary>  (39) 
energy

$$$$
39:0
     RDKit          3D

 73 77  0  0  0  0  0  0  0  0999 V2000
   -6.8630   24.8770  -30.4420 C   0  0  0  0  0  0  0  0  0  0  0  0
   -6.9960   23.4480  -30.9090 C   0  0  0  0  0  0  0  0  0  0  0  0
   -8.2030   23.0780  -31.5320 C   0  0  0  0  0  0  0  0  0  0  0  0
   -8.4020   21.7800  -31.9910 C   0  0  0  0  0  0  0  0  0  0  0  0
   -7.4010   20.8200  -31.8420 C   0  0  0  0  0  0  0  0  0  0  0  0
   -7.6890   19.1690  -32.3860 S   0  0  0  0  0  0  0  0  0  0  0  0
   -7.3740   18.2340  -31.2490 O   0  0  0  0  0  0  0  0  0  0  0  0
   -9.1460   19.0130  -32.7290 O   0  0  0  0  0  0  0  0  0  0  0  0
   -6.6610   18.8600  -33.7790 N   0  0  0  0  0  0  0  0  0  0  0  0
   -5.3320   19.5030  -33.6690 C   0  0  0  0  0  0  0  0  0  0  0  0
   -4.3800   18.7510  -32.7270 C   0  0  0  0  0  0  0  0  0  0  0  0
   -4.2480   17.2910  -33.1520 C   0  0  0  0  0  0  0  0  0  0  0  0
   -5.6250   16.6350  -33.1980 C   0  0  0  0  0  0  0  0  0  0  0  0
   -6.5740   17.4210  -34.1200 C   0  0  0  0  0  0  0  0  0  0  0  0
   -6.1980   21.1630  -31.2140 C   0  0  0  0  0  0  0  0  0  0  0  0
   -5.9630   22.4740  -30.7460 C   0  0  0  0  0  0  0  0  0  0  0  0
   -4.6290   22.7670  -30.1320 C   0  0  0  0  0  0  0  0  0  0  0  0
   -4.4870   22.6910  -28.8810 O   0  0  0  0  0  0  0  0  0  0  0  0
   -3.5030   23.1480  -30.9290 N   0  0  0  0  0  0  0  0  0  0  0  0
   -2.7260   22.2470  -31.7240 C   0  0  0  0  0  0  0  0  0  0  0  0
   -3.1820   21.9290  -33.0040 C   0  0  0  0  0  0  0  0  0  0  0  0
   -2.4810   21.0290  -33.8090 C   0  0  0  0  0  0  0  0  0  0  0  0
   -1.3080   20.3940  -33.3420 C   0  0  0  0  0  0  0  0  0  0  0  0
   -0.6150   19.3970  -34.1580 N   0  0  0  0  0  0  0  0  0  0  0  0
   -0.8950   17.9620  -33.9390 C   0  0  0  0  0  0  0  0  0  0  0  0
   -0.0920   17.0270  -34.8510 C   0  0  0  0  0  0  0  0  0  0  0  0
    0.0830   17.5860  -36.1310 O   0  0  0  0  0  0  0  0  0  0  0  0
    0.9340   18.7010  -36.0140 C   0  0  0  0  0  0  0  0  0  0  0  0
    0.2300   19.8470  -35.2850 C   0  0  0  0  0  0  0  0  0  0  0  0
   -0.8600   20.7180  -32.0400 C   0  0  0  0  0  0  0  0  0  0  0  0
   -1.5580   21.6300  -31.2300 C   0  0  0  0  0  0  0  0  0  0  0  0
   -1.1250   21.8290  -29.8710 N   0  0  0  0  0  0  0  0  0  0  0  0
   -0.8320   23.1840  -29.3910 C   0  0  0  0  0  0  0  0  0  0  0  0
   -1.0410   23.2570  -27.8780 C   0  0  0  0  0  0  0  0  0  0  0  0
   -2.2040   22.5330  -27.5340 O   0  0  0  0  0  0  0  0  0  0  0  0
   -1.9720   21.1370  -27.6430 C   0  0  0  0  0  0  0  0  0  0  0  0
   -1.1780   20.7250  -28.9070 C   0  0  0  0  0  0  0  0  0  0  0  0
   -6.8604   24.9046  -29.3423 H   0  0  0  0  0  0  0  0  0  0  0  0
   -5.9215   25.3007  -30.8216 H   0  0  0  0  0  0  0  0  0  0  0  0
   -7.7101   25.4672  -30.8216 H   0  0  0  0  0  0  0  0  0  0  0  0
   -8.9999   23.8258  -31.6576 H   0  0  0  0  0  0  0  0  0  0  0  0
   -9.3528   21.5095  -32.4735 H   0  0  0  0  0  0  0  0  0  0  0  0
   -7.1430   19.3230  -34.5840 H   0  0  0  0  0  0  0  0  0  0  0  0
   -4.8771   19.5420  -34.6698 H   0  0  0  0  0  0  0  0  0  0  0  0
   -5.4855   20.5082  -33.2495 H   0  0  0  0  0  0  0  0  0  0  0  0
   -3.3892   19.2278  -32.7579 H   0  0  0  0  0  0  0  0  0  0  0  0
   -4.7878   18.7882  -31.7061 H   0  0  0  0  0  0  0  0  0  0  0  0
   -3.7876   17.2421  -34.1498 H   0  0  0  0  0  0  0  0  0  0  0  0
   -3.6181   16.7583  -32.4243 H   0  0  0  0  0  0  0  0  0  0  0  0
   -5.5226   15.6076  -33.5773 H   0  0  0  0  0  0  0  0  0  0  0  0
   -6.0463   16.6277  -32.1819 H   0  0  0  0  0  0  0  0  0  0  0  0
   -6.2123   17.3283  -35.1547 H   0  0  0  0  0  0  0  0  0  0  0  0
   -7.5799   16.9941  -33.9937 H   0  0  0  0  0  0  0  0  0  0  0  0
   -5.4205   20.3960  -31.0826 H   0  0  0  0  0  0  0  0  0  0  0  0
   -4.1045   22.3928  -33.3832 H   0  0  0  0  0  0  0  0  0  0  0  0
   -2.8476   20.8107  -34.8229 H   0  0  0  0  0  0  0  0  0  0  0  0
   -0.6543   17.7175  -32.8939 H   0  0  0  0  0  0  0  0  0  0  0  0
   -1.9577   17.8040  -34.1752 H   0  0  0  0  0  0  0  0  0  0  0  0
    0.8953   16.8480  -34.4003 H   0  0  0  0  0  0  0  0  0  0  0  0
   -0.6484   16.0841  -34.9574 H   0  0  0  0  0  0  0  0  0  0  0  0
    1.8321   18.4116  -35.4487 H   0  0  0  0  0  0  0  0  0  0  0  0
    1.2101   19.0415  -37.0229 H   0  0  0  0  0  0  0  0  0  0  0  0
    0.9954   20.5336  -34.8941 H   0  0  0  0  0  0  0  0  0  0  0  0
   -0.4343   20.3348  -36.0135 H   0  0  0  0  0  0  0  0  0  0  0  0
    0.0549   20.2457  -31.6530 H   0  0  0  0  0  0  0  0  0  0  0  0
    0.2121   23.4369  -29.6275 H   0  0  0  0  0  0  0  0  0  0  0  0
   -1.5085   23.8972  -29.8847 H   0  0  0  0  0  0  0  0  0  0  0  0
   -0.1711   22.8210  -27.3650 H   0  0  0  0  0  0  0  0  0  0  0  0
   -1.1553   24.3071  -27.5711 H   0  0  0  0  0  0  0  0  0  0  0  0
   -1.4061   20.8107  -26.7579 H   0  0  0  0  0  0  0  0  0  0  0  0
   -2.9586   20.6563  -27.7174 H   0  0  0  0  0  0  0  0  0  0  0  0
   -0.1533   20.4508  -28.6159 H   0  0  0  0  0  0  0  0  0  0  0  0
   -1.6839   19.8693  -29.3781 H   0  0  0  0  0  0  0  0  0  0  0  0
  1  2  1  0
  2  3  2  0
  3  4  1  0
  4  5  2  0
  5  6  1  0
  6  7  2  0
  6  8  2  0
  6  9  1  0
  9 10  1  0
 10 11  1  0
 11 12  1  0
 12 13  1  0
 13 14  1  0
  5 15  1  0
 15 16  2  0
 16 17  1  0
 17 18  2  0
 17 19  1  0
 19 20  1  0
 20 21  2  0
 21 22  1  0
 22 23  2  0
 23 24  1  0
 24 25  1  0
 25 26  1  0
 26 27  1  0
 27 28  1  0
 28 29  1  0
 23 30  1  0
 30 31  2  0
 31 32  1  0
 32 33  1  0
 33 34  1  0
 34 35  1  0
 35 36  1  0
 36 37  1  0
 16  2  1  0
 31 20  1  0
 37 32  1  0
 14  9  1  0
 29 24  1  0
  1 38  1  0
  1 39  1  0
  1 40  1  0
  3 41  1  0
  4 42  1  0
  9 43  1  0
 10 44  1  0
 10 45  1  0
 11 46  1  0
 11 47  1  0
 12 48  1  0
 12 49  1  0
 13 50  1  0
 13 51  1  0
 14 52  1  0
 14 53  1  0
 15 54  1  0
 21 55  1  0
 22 56  1  0
 25 57  1  0
 25 58  1  0
 26 59  1  0
 26 60  1  0
 28 61  1  0
 28 62  1  0
 29 63  1  0
 29 64  1  0
 30 65  1  0
 33 66  1  0
 33 67  1  0
 34 68  1  0
 34 69  1  0
 36 70  1  0
 36 71  1  0
 37 72  1  0
 37 73  1  0
M  CHG  2   9   1  19  -1
M  END
>  <UniqueID>  (40) 
37

>  <SMILES>  (40) 
Cc1ccc(S(=O)(=O)[NH+]2CCCCC2)cc1C(=O)[N-]c1ccc(N2CCOCC2)cc1N1CCOCC1

>  <Energy>  (40) 
106.88550341884964

>  <Genealogy>  (40) 
Cc1ccc(S(=O)(=O)[NH+]2CCCCC2)cc1C(=O)[N-]c1ccc(N2CCOCC2)cc1N1CCOCC1 (protonated)
Cc1ccc(S(=O)(=O)[NH+]2CCCCC2)cc1C(=O)[N-]c1ccc(N2CCOCC2)cc1N1CCOCC1 (3D coordinates assigned)
Cc1ccc(S(=O)(=O)[NH+]2CCCCC2)cc1C(=O)[N-]c1ccc(N2CCOCC2)cc1N1CCOCC1 (nonaromatic ring conformer: 106.88550341884964 kcal/mol)

>  <smiles>  (40) 
Cc1ccc(S(=O)(=O)N2CCCCC2)cc1C(=O)Nc1ccc(N2CCOCC2)cc1N1CCOCC1

>  <score_type>  (40) 
oracle

>  <origin>  (40) 
adgpu

>  <m_score__min__energy>  (40) 
-11.58

>  <m_primary>  (40) 
energy

$$$$
40:0
     RDKit          3D

 54 57  0  0  0  0  0  0  0  0999 V2000
   -9.4780   19.5400  -32.3830 C   0  0  0  0  0  0  0  0  0  0  0  0
   -8.5610   20.4320  -33.0090 O   0  0  0  0  0  0  0  0  0  0  0  0
   -7.6700   21.2730  -32.3240 C   0  0  0  0  0  0  0  0  0  0  0  0
   -8.0950   22.4860  -31.7500 C   0  0  0  0  0  0  0  0  0  0  0  0
   -7.1930   23.3020  -31.0650 C   0  0  0  0  0  0  0  0  0  0  0  0
   -5.8450   22.9310  -30.9430 C   0  0  0  0  0  0  0  0  0  0  0  0
   -4.8840   23.7830  -30.2010 C   0  0  0  0  0  0  0  0  0  0  0  0
   -3.9910   24.4080  -30.8350 O   0  0  0  0  0  0  0  0  0  0  0  0
   -4.9880   23.9410  -28.7760 N   0  0  0  0  0  0  0  0  0  0  0  0
   -3.9040   24.3840  -27.9400 C   0  0  0  0  0  0  0  0  0  0  0  0
   -4.1350   24.8900  -26.6490 C   0  0  0  0  0  0  0  0  0  0  0  0
   -3.0720   25.3360  -25.8600 C   0  0  0  0  0  0  0  0  0  0  0  0
   -1.7540   25.2980  -26.3520 C   0  0  0  0  0  0  0  0  0  0  0  0
   -0.6410   25.7340  -25.5980 C   0  0  0  0  0  0  0  0  0  0  0  0
   -0.7870   26.2720  -24.1980 C   0  0  0  0  0  0  0  0  0  0  0  0
    0.6330   25.6650  -26.1770 C   0  0  0  0  0  0  0  0  0  0  0  0
    0.7710   25.1680  -27.4750 C   0  0  0  0  0  0  0  0  0  0  0  0
    1.9130   25.1010  -28.0020 O   0  0  0  0  0  0  0  0  0  0  0  0
   -0.2920   24.7640  -28.1580 O   0  0  0  0  0  0  0  0  0  0  0  0
   -1.5240   24.8070  -27.6610 C   0  0  0  0  0  0  0  0  0  0  0  0
   -2.5950   24.3640  -28.4430 C   0  0  0  0  0  0  0  0  0  0  0  0
   -5.4210   21.7180  -31.5110 C   0  0  0  0  0  0  0  0  0  0  0  0
   -6.3210   20.8900  -32.1980 C   0  0  0  0  0  0  0  0  0  0  0  0
   -5.7360   19.3600  -32.8720 S   0  0  0  0  0  0  0  0  0  0  0  0
   -4.2960   19.1750  -32.4770 O   0  0  0  0  0  0  0  0  0  0  0  0
   -5.7850   19.4230  -34.3740 O   0  0  0  0  0  0  0  0  0  0  0  0
   -6.6560   17.9750  -32.3140 N   0  0  0  0  0  0  0  0  0  0  0  0
   -5.9220   17.1420  -31.3380 C   0  0  0  0  0  0  0  0  0  0  0  0
   -5.2790   15.8960  -31.9730 C   0  0  0  0  0  0  0  0  0  0  0  0
   -5.0360   16.1010  -33.3440 O   0  0  0  0  0  0  0  0  0  0  0  0
   -6.2660   16.1750  -34.0370 C   0  0  0  0  0  0  0  0  0  0  0  0
   -7.2450   17.2030  -33.4230 C   0  0  0  0  0  0  0  0  0  0  0  0
   -9.3873   19.6282  -31.2903 H   0  0  0  0  0  0  0  0  0  0  0  0
  -10.5037   19.7952  -32.6876 H   0  0  0  0  0  0  0  0  0  0  0  0
   -9.2512   18.5076  -32.6876 H   0  0  0  0  0  0  0  0  0  0  0  0
   -9.1471   22.7936  -31.8420 H   0  0  0  0  0  0  0  0  0  0  0  0
   -7.5419   24.2441  -30.6169 H   0  0  0  0  0  0  0  0  0  0  0  0
   -5.9310   23.8370  -28.3380 H   0  0  0  0  0  0  0  0  0  0  0  0
   -5.1617   24.9351  -26.2567 H   0  0  0  0  0  0  0  0  0  0  0  0
   -3.2664   25.7194  -24.8475 H   0  0  0  0  0  0  0  0  0  0  0  0
   -0.5702   25.4730  -23.4737 H   0  0  0  0  0  0  0  0  0  0  0  0
   -0.0819   27.1031  -24.0492 H   0  0  0  0  0  0  0  0  0  0  0  0
   -1.8155   26.6326  -24.0492 H   0  0  0  0  0  0  0  0  0  0  0  0
    1.5170   25.9994  -25.6141 H   0  0  0  0  0  0  0  0  0  0  0  0
   -2.4091   23.9961  -29.4629 H   0  0  0  0  0  0  0  0  0  0  0  0
   -4.3684   21.4133  -31.4156 H   0  0  0  0  0  0  0  0  0  0  0  0
   -5.1282   17.7527  -30.8831 H   0  0  0  0  0  0  0  0  0  0  0  0
   -6.6500   16.7919  -30.5914 H   0  0  0  0  0  0  0  0  0  0  0  0
   -4.3261   15.6841  -31.4659 H   0  0  0  0  0  0  0  0  0  0  0  0
   -5.9701   15.0476  -31.8611 H   0  0  0  0  0  0  0  0  0  0  0  0
   -6.0642   16.4625  -35.0794 H   0  0  0  0  0  0  0  0  0  0  0  0
   -6.7422   15.1858  -33.9685 H   0  0  0  0  0  0  0  0  0  0  0  0
   -7.5551   17.9046  -34.2114 H   0  0  0  0  0  0  0  0  0  0  0  0
   -8.0962   16.6395  -33.0132 H   0  0  0  0  0  0  0  0  0  0  0  0
  1  2  1  0
  2  3  1  0
  3  4  2  0
  4  5  1  0
  5  6  2  0
  6  7  1  0
  7  8  2  0
  7  9  1  0
  9 10  1  0
 10 11  2  0
 11 12  1  0
 12 13  2  0
 13 14  1  0
 14 15  1  0
 14 16  2  0
 16 17  1  0
 17 18  2  0
 17 19  1  0
 19 20  1  0
 20 21  2  0
  6 22  1  0
 22 23  2  0
 23 24  1  0
 24 25  2  0
 24 26  2  0
 24 27  1  0
 27 28  1  0
 28 29  1  0
 29 30  1  0
 30 31  1  0
 31 32  1  0
 23  3  1  0
 32 27  1  0
 21 10  1  0
 20 13  1  0
  1 33  1  0
  1 34  1  0
  1 35  1  0
  4 36  1  0
  5 37  1  0
  9 38  1  0
 11 39  1  0
 12 40  1  0
 15 41  1  0
 15 42  1  0
 15 43  1  0
 16 44  1  0
 21 45  1  0
 22 46  1  0
 28 47  1  0
 28 48  1  0
 29 49  1  0
 29 50  1  0
 31 51  1  0
 31 52  1  0
 32 53  1  0
 32 54  1  0
M  END
>  <UniqueID>  (41) 
38

>  <SMILES>  (41) 
COc1ccc(C(=O)Nc2ccc3c(C)cc(=O)oc3c2)cc1S(=O)(=O)N1CCOCC1

>  <Energy>  (41) 
78.82649867872769

>  <Genealogy>  (41) 
COc1ccc(C(=O)Nc2ccc3c(C)cc(=O)oc3c2)cc1S(=O)(=O)N1CCOCC1 (3D coordinates assigned)
COc1ccc(C(=O)Nc2ccc3c(C)cc(=O)oc3c2)cc1S(=O)(=O)N1CCOCC1 (nonaromatic ring conformer: 78.82649867872769 kcal/mol)

>  <smiles>  (41) 
COc1ccc(C(=O)Nc2ccc3c(C)cc(=O)oc3c2)cc1S(=O)(=O)N1CCOCC1

>  <score_type>  (41) 
oracle

>  <origin>  (41) 
adgpu

>  <m_score__min__energy>  (41) 
-11.06

>  <m_primary>  (41) 
energy

$$$$
41:0
     RDKit          3D

 52 56  0  0  0  0  0  0  0  0999 V2000
   -3.1210   25.2960  -29.7960 O   0  0  0  0  0  0  0  0  0  0  0  0
   -3.9790   24.4140  -30.4430 C   0  0  0  0  0  0  0  0  0  0  0  0
   -5.3620   24.5890  -30.3460 C   0  0  0  0  0  0  0  0  0  0  0  0
   -6.2240   23.7130  -31.0100 C   0  0  0  0  0  0  0  0  0  0  0  0
   -5.7070   22.6560  -31.7640 C   0  0  0  0  0  0  0  0  0  0  0  0
   -4.3190   22.4570  -31.8460 C   0  0  0  0  0  0  0  0  0  0  0  0
   -3.7860   21.3420  -32.6560 C   0  0  0  0  0  0  0  0  0  0  0  0
   -2.5400   21.3450  -33.1640 N   0  0  0  0  0  0  0  0  0  0  0  0
   -2.4170   20.1370  -33.7560 C   0  0  0  0  0  0  0  0  0  0  0  0
   -1.1850   19.6960  -34.4480 C   0  0  0  0  0  0  0  0  0  0  0  0
   -0.9070   18.3270  -34.6030 C   0  0  0  0  0  0  0  0  0  0  0  0
    0.2630   17.9140  -35.2450 C   0  0  0  0  0  0  0  0  0  0  0  0
    1.1640   18.8580  -35.7420 C   0  0  0  0  0  0  0  0  0  0  0  0
    0.9000   20.2310  -35.6050 C   0  0  0  0  0  0  0  0  0  0  0  0
    1.8290   21.2070  -36.1140 N   0  0  0  0  0  0  0  0  0  0  0  0
    3.2150   20.8220  -36.4090 C   0  0  0  0  0  0  0  0  0  0  0  0
    4.1040   22.0670  -36.5420 C   0  0  0  0  0  0  0  0  0  0  0  0
    3.7520   23.0610  -35.5190 N   0  0  0  0  0  0  0  0  0  0  0  0
    2.3760   23.5770  -35.6750 C   0  0  0  0  0  0  0  0  0  0  0  0
    1.4120   22.5910  -36.3640 C   0  0  0  0  0  0  0  0  0  0  0  0
   -0.2740   20.6420  -34.9490 C   0  0  0  0  0  0  0  0  0  0  0  0
   -3.5240   19.3700  -33.6500 N   0  0  0  0  0  0  0  0  0  0  0  0
   -4.3920   20.1320  -32.9610 C   0  0  0  0  0  0  0  0  0  0  0  0
   -5.7830   19.7110  -32.6900 C   0  0  0  0  0  0  0  0  0  0  0  0
   -6.8680   20.3290  -33.3370 C   0  0  0  0  0  0  0  0  0  0  0  0
   -8.1750   19.9040  -33.0850 C   0  0  0  0  0  0  0  0  0  0  0  0
   -8.4110   18.8520  -32.1950 C   0  0  0  0  0  0  0  0  0  0  0  0
   -9.6800   18.4380  -31.9560 F   0  0  0  0  0  0  0  0  0  0  0  0
   -7.3380   18.2180  -31.5630 C   0  0  0  0  0  0  0  0  0  0  0  0
   -6.0280   18.6390  -31.8150 C   0  0  0  0  0  0  0  0  0  0  0  0
   -3.4560   23.3560  -31.1940 C   0  0  0  0  0  0  0  0  0  0  0  0
   -5.7715   25.4159  -29.7473 H   0  0  0  0  0  0  0  0  0  0  0  0
   -7.3124   23.8555  -30.9392 H   0  0  0  0  0  0  0  0  0  0  0  0
   -6.3900   21.9770  -32.2955 H   0  0  0  0  0  0  0  0  0  0  0  0
   -1.6137   17.5776  -34.2171 H   0  0  0  0  0  0  0  0  0  0  0  0
    0.4754   16.8408  -35.3595 H   0  0  0  0  0  0  0  0  0  0  0  0
    2.0848   18.5250  -36.2432 H   0  0  0  0  0  0  0  0  0  0  0  0
    3.5965   20.1906  -35.5930 H   0  0  0  0  0  0  0  0  0  0  0  0
    3.2351   20.2682  -37.3592 H   0  0  0  0  0  0  0  0  0  0  0  0
    5.1571   21.7752  -36.4162 H   0  0  0  0  0  0  0  0  0  0  0  0
    3.9500   22.5100  -37.5370 H   0  0  0  0  0  0  0  0  0  0  0  0
    3.8380   22.6090  -34.5780 H   0  0  0  0  0  0  0  0  0  0  0  0
    1.9781   23.8091  -34.6761 H   0  0  0  0  0  0  0  0  0  0  0  0
    2.4399   24.4646  -36.3216 H   0  0  0  0  0  0  0  0  0  0  0  0
    0.3968   22.7405  -35.9679 H   0  0  0  0  0  0  0  0  0  0  0  0
    1.4268   22.7772  -37.4480 H   0  0  0  0  0  0  0  0  0  0  0  0
   -0.4816   21.7153  -34.8266 H   0  0  0  0  0  0  0  0  0  0  0  0
   -6.6868   21.1511  -34.0450 H   0  0  0  0  0  0  0  0  0  0  0  0
   -9.0196   20.3979  -33.5877 H   0  0  0  0  0  0  0  0  0  0  0  0
   -7.5237   17.3870  -30.8666 H   0  0  0  0  0  0  0  0  0  0  0  0
   -5.1854   18.1284  -31.3258 H   0  0  0  0  0  0  0  0  0  0  0  0
   -2.3666   23.2268  -31.2748 H   0  0  0  0  0  0  0  0  0  0  0  0
  1  2  1  0
  2  3  2  0
  3  4  1  0
  4  5  2  0
  5  6  1  0
  6  7  1  0
  7  8  1  0
  8  9  2  0
  9 10  1  0
 10 11  2  0
 11 12  1  0
 12 13  2  0
 13 14  1  0
 14 15  1  0
 15 16  1  0
 16 17  1  0
 17 18  1  0
 18 19  1  0
 19 20  1  0
 14 21  2  0
  9 22  1  0
 22 23  1  0
 23 24  1  0
 24 25  2  0
 25 26  1  0
 26 27  2  0
 27 28  1  0
 27 29  1  0
 29 30  2  0
  6 31  2  0
 31  2  1  0
 23  7  2  0
 30 24  1  0
 21 10  1  0
 20 15  1  0
  3 32  1  0
  4 33  1  0
  5 34  1  0
 11 35  1  0
 12 36  1  0
 13 37  1  0
 16 38  1  0
 16 39  1  0
 17 40  1  0
 17 41  1  0
 18 42  1  0
 19 43  1  0
 19 44  1  0
 20 45  1  0
 20 46  1  0
 21 47  1  0
 25 48  1  0
 26 49  1  0
 29 50  1  0
 30 51  1  0
 31 52  1  0
M  CHG  2   1  -1  22  -1
M  END
>  <UniqueID>  (42) 
39

>  <SMILES>  (42) 
[O-]c1cccc(-c2nc(-c3cccc(N4CCNCC4)c3)[n-]c2-c2ccc(F)cc2)c1

>  <Energy>  (42) 
102.23547693991169

>  <Genealogy>  (42) 
[O-]c1cccc(-c2nc(-c3cccc(N4CCNCC4)c3)[n-]c2-c2ccc(F)cc2)c1 (protonated)
[O-]c1cccc(-c2nc(-c3cccc(N4CCNCC4)c3)[n-]c2-c2ccc(F)cc2)c1 (3D coordinates assigned)
[O-]c1cccc(-c2nc(-c3cccc(N4CCNCC4)c3)[n-]c2-c2ccc(F)cc2)c1 (nonaromatic ring conformer: 102.23547693991169 kcal/mol)

>  <smiles>  (42) 
Oc1cccc(-c2nc(-c3cccc(N4CCNCC4)c3)[nH]c2-c2ccc(F)cc2)c1

>  <score_type>  (42) 
oracle

>  <origin>  (42) 
adgpu

>  <m_score__min__energy>  (42) 
-12.039999999999999

>  <m_primary>  (42) 
energy

$$$$
42:0
     RDKit          3D

 35 37  0  0  0  0  0  0  0  0999 V2000
   -5.7350   26.1430  -31.1820 O   0  0  0  0  0  0  0  0  0  0  0  0
   -5.2310   24.9310  -30.4500 S   0  0  0  0  0  0  0  0  0  0  0  0
   -5.7200   24.9900  -29.0300 O   0  0  0  0  0  0  0  0  0  0  0  0
   -3.4990   24.9320  -30.4580 N   0  0  0  0  0  0  0  0  0  0  0  0
   -2.7300   24.7990  -29.2620 C   0  0  0  0  0  0  0  0  0  0  0  0
   -3.0150   23.8320  -28.3070 C   0  0  0  0  0  0  0  0  0  0  0  0
   -1.8880   24.0030  -27.0720 S   0  0  0  0  0  0  0  0  0  0  0  0
   -1.0940   25.2930  -27.8010 C   0  0  0  0  0  0  0  0  0  0  0  0
   -1.6710   25.6060  -28.9820 N   0  0  0  0  0  0  0  0  0  0  0  0
   -5.8240   23.4540  -31.2020 C   0  0  0  0  0  0  0  0  0  0  0  0
   -4.9610   22.6780  -31.9830 C   0  0  0  0  0  0  0  0  0  0  0  0
   -5.4270   21.5150  -32.6020 C   0  0  0  0  0  0  0  0  0  0  0  0
   -6.7570   21.1110  -32.4390 C   0  0  0  0  0  0  0  0  0  0  0  0
   -7.1830   19.9350  -33.0710 O   0  0  0  0  0  0  0  0  0  0  0  0
   -6.5100   18.7060  -33.0050 C   0  0  0  0  0  0  0  0  0  0  0  0
   -5.6460   18.2750  -34.0240 C   0  0  0  0  0  0  0  0  0  0  0  0
   -5.0020   17.0410  -33.9140 C   0  0  0  0  0  0  0  0  0  0  0  0
   -3.8280   16.5140  -35.3390 Br  0  0  0  0  0  0  0  0  0  0  0  0
   -5.2300   16.2270  -32.7840 C   0  0  0  0  0  0  0  0  0  0  0  0
   -4.5470   14.8840  -32.6350 C   0  0  0  0  0  0  0  0  0  0  0  0
   -4.9520   14.0430  -33.6550 F   0  0  0  0  0  0  0  0  0  0  0  0
   -3.1750   15.0510  -32.6980 F   0  0  0  0  0  0  0  0  0  0  0  0
   -4.8560   14.2820  -31.4270 F   0  0  0  0  0  0  0  0  0  0  0  0
   -6.1160   16.6950  -31.7970 C   0  0  0  0  0  0  0  0  0  0  0  0
   -6.7250   17.9020  -31.9320 N   0  0  0  0  0  0  0  0  0  0  0  0
   -7.6370   21.9070  -31.6790 C   0  0  0  0  0  0  0  0  0  0  0  0
   -9.3460   21.5140  -31.5470 Cl  0  0  0  0  0  0  0  0  0  0  0  0
   -7.1640   23.0690  -31.0600 C   0  0  0  0  0  0  0  0  0  0  0  0
   -3.8274   23.0917  -28.3507 H   0  0  0  0  0  0  0  0  0  0  0  0
   -0.2229   25.8119  -27.3744 H   0  0  0  0  0  0  0  0  0  0  0  0
   -3.9122   22.9842  -32.1103 H   0  0  0  0  0  0  0  0  0  0  0  0
   -4.7447   20.9137  -33.2208 H   0  0  0  0  0  0  0  0  0  0  0  0
   -5.4767   18.9082  -34.9074 H   0  0  0  0  0  0  0  0  0  0  0  0
   -6.3175   16.0787  -30.9084 H   0  0  0  0  0  0  0  0  0  0  0  0
   -7.8484   23.6846  -30.4578 H   0  0  0  0  0  0  0  0  0  0  0  0
  1  2  2  0
  2  3  2  0
  2  4  1  0
  4  5  1  0
  5  6  2  0
  6  7  1  0
  7  8  1  0
  8  9  2  0
  2 10  1  0
 10 11  2  0
 11 12  1  0
 12 13  2  0
 13 14  1  0
 14 15  1  0
 15 16  2  0
 16 17  1  0
 17 18  1  0
 17 19  2  0
 19 20  1  0
 20 21  1  0
 20 22  1  0
 20 23  1  0
 19 24  1  0
 24 25  2  0
 13 26  1  0
 26 27  1  0
 26 28  2  0
  9  5  1  0
 28 10  1  0
 25 15  1  0
  6 29  1  0
  8 30  1  0
 11 31  1  0
 12 32  1  0
 16 33  1  0
 24 34  1  0
 28 35  1  0
M  CHG  1   4  -1
M  END
>  <UniqueID>  (43) 
40

>  <SMILES>  (43) 
O=S(=O)([N-]c1cscn1)c1ccc(Oc2cc(Br)c(C(F)(F)F)cn2)c(Cl)c1

>  <Energy>  (43) 
80.423407196151

>  <Genealogy>  (43) 
O=S(=O)([N-]c1cscn1)c1ccc(Oc2cc(Br)c(C(F)(F)F)cn2)c(Cl)c1 (protonated)
O=S(=O)([N-]c1cscn1)c1ccc(Oc2cc(Br)c(C(F)(F)F)cn2)c(Cl)c1 (3D coordinates assigned)
O=S(=O)([N-]c1cscn1)c1ccc(Oc2cc(Br)c(C(F)(F)F)cn2)c(Cl)c1 (optimized conformer: 80.423407196151 kcal/mol)

>  <smiles>  (43) 
O=S(=O)(Nc1cscn1)c1ccc(Oc2cc(Br)c(C(F)(F)F)cn2)c(Cl)c1

>  <score_type>  (43) 
oracle

>  <origin>  (43) 
adgpu

>  <m_score__min__energy>  (43) 
-10.49

>  <m_primary>  (43) 
energy

$$$$
43:0
     RDKit          3D

 60 63  0  0  0  0  0  0  0  0999 V2000
   -9.1140   19.0710  -32.7090 C   0  0  0  0  0  0  0  0  0  0  0  0
   -9.1340   19.7810  -31.3590 C   0  0  0  0  0  0  0  0  0  0  0  0
   -8.4280   21.1080  -31.4460 C   0  0  0  0  0  0  0  0  0  0  0  0
   -9.0660   22.2180  -32.0220 C   0  0  0  0  0  0  0  0  0  0  0  0
   -8.3940   23.4380  -32.1280 C   0  0  0  0  0  0  0  0  0  0  0  0
   -7.0730   23.5530  -31.6860 C   0  0  0  0  0  0  0  0  0  0  0  0
   -6.4090   22.4430  -31.1420 C   0  0  0  0  0  0  0  0  0  0  0  0
   -5.0000   22.5690  -30.7080 C   0  0  0  0  0  0  0  0  0  0  0  0
   -4.5840   23.5610  -29.8930 N   0  0  0  0  0  0  0  0  0  0  0  0
   -3.2720   23.3160  -29.6970 C   0  0  0  0  0  0  0  0  0  0  0  0
   -2.4290   24.1790  -28.8480 C   0  0  0  0  0  0  0  0  0  0  0  0
   -1.9040   25.2020  -29.3640 O   0  0  0  0  0  0  0  0  0  0  0  0
   -2.2400   23.8990  -27.4500 N   0  0  0  0  0  0  0  0  0  0  0  0
   -1.6450   24.8350  -26.5340 C   0  0  0  0  0  0  0  0  0  0  0  0
   -2.4650   25.6580  -25.7450 C   0  0  0  0  0  0  0  0  0  0  0  0
   -1.9140   26.5000  -24.7780 C   0  0  0  0  0  0  0  0  0  0  0  0
   -0.5280   26.5270  -24.5640 C   0  0  0  0  0  0  0  0  0  0  0  0
    0.0440   27.3890  -23.5610 N   0  0  0  0  0  0  0  0  0  0  0  0
   -0.1640   27.1800  -22.3480 O   0  0  0  0  0  0  0  0  0  0  0  0
    0.8330   28.4570  -23.9220 O   0  0  0  0  0  0  0  0  0  0  0  0
    0.2970   25.6960  -25.3400 C   0  0  0  0  0  0  0  0  0  0  0  0
   -0.2450   24.8530  -26.3280 C   0  0  0  0  0  0  0  0  0  0  0  0
    0.6360   24.0470  -27.1310 N   0  0  0  0  0  0  0  0  0  0  0  0
    0.9680   24.4260  -28.2740 O   0  0  0  0  0  0  0  0  0  0  0  0
    0.9910   22.7820  -26.7240 O   0  0  0  0  0  0  0  0  0  0  0  0
   -2.9000   22.1950  -30.4260 C   0  0  0  0  0  0  0  0  0  0  0  0
   -1.5100   21.6590  -30.6160 C   0  0  0  0  0  0  0  0  0  0  0  0
   -4.0000   21.7200  -31.0510 N   0  0  0  0  0  0  0  0  0  0  0  0
   -4.0560   20.6260  -31.9840 C   0  0  0  0  0  0  0  0  0  0  0  0
   -3.2820   20.6510  -33.1540 C   0  0  0  0  0  0  0  0  0  0  0  0
   -3.3590   19.6000  -34.0710 C   0  0  0  0  0  0  0  0  0  0  0  0
   -4.2070   18.5160  -33.8250 C   0  0  0  0  0  0  0  0  0  0  0  0
   -4.9860   18.4820  -32.6610 C   0  0  0  0  0  0  0  0  0  0  0  0
   -6.0470   17.1150  -32.3380 S   0  0  0  0  0  0  0  0  0  0  0  0
   -5.0990   15.7480  -31.8710 N   0  0  0  0  0  0  0  0  0  0  0  0
   -6.8370   16.7750  -33.5710 O   0  0  0  0  0  0  0  0  0  0  0  0
   -7.0030   17.4670  -31.2340 O   0  0  0  0  0  0  0  0  0  0  0  0
   -4.9050   19.5350  -31.7400 C   0  0  0  0  0  0  0  0  0  0  0  0
   -7.1020   21.2290  -31.0030 C   0  0  0  0  0  0  0  0  0  0  0  0
   -9.0834   17.9829  -32.5506 H   0  0  0  0  0  0  0  0  0  0  0  0
  -10.0199   19.3338  -33.2749 H   0  0  0  0  0  0  0  0  0  0  0  0
   -8.2243   19.3844  -33.2749 H   0  0  0  0  0  0  0  0  0  0  0  0
  -10.1776   19.9464  -31.0533 H   0  0  0  0  0  0  0  0  0  0  0  0
   -8.6155   19.1519  -30.6205 H   0  0  0  0  0  0  0  0  0  0  0  0
  -10.0982   22.1267  -32.3910 H   0  0  0  0  0  0  0  0  0  0  0  0
   -8.9057   24.3104  -32.5604 H   0  0  0  0  0  0  0  0  0  0  0  0
   -6.5514   24.5183  -31.7650 H   0  0  0  0  0  0  0  0  0  0  0  0
   -2.6130   23.0110  -27.0510 H   0  0  0  0  0  0  0  0  0  0  0  0
   -3.5551   25.6387  -25.8910 H   0  0  0  0  0  0  0  0  0  0  0  0
   -2.5715   27.1473  -24.1792 H   0  0  0  0  0  0  0  0  0  0  0  0
    1.3842   25.7043  -25.1727 H   0  0  0  0  0  0  0  0  0  0  0  0
   -1.0482   21.4809  -29.6336 H   0  0  0  0  0  0  0  0  0  0  0  0
   -1.5550   20.7137  -31.1768 H   0  0  0  0  0  0  0  0  0  0  0  0
   -0.9087   22.3897  -31.1768 H   0  0  0  0  0  0  0  0  0  0  0  0
   -2.6121   21.5012  -33.3499 H   0  0  0  0  0  0  0  0  0  0  0  0
   -2.7517   19.6253  -34.9878 H   0  0  0  0  0  0  0  0  0  0  0  0
   -4.2627   17.6880  -34.5470 H   0  0  0  0  0  0  0  0  0  0  0  0
   -5.3750   15.5050  -30.8930 H   0  0  0  0  0  0  0  0  0  0  0  0
   -5.5096   19.5066  -30.8215 H   0  0  0  0  0  0  0  0  0  0  0  0
   -6.6005   20.3650  -30.5425 H   0  0  0  0  0  0  0  0  0  0  0  0
  1  2  1  0
  2  3  1  0
  3  4  2  0
  4  5  1  0
  5  6  2  0
  6  7  1  0
  7  8  1  0
  8  9  2  0
  9 10  1  0
 10 11  1  0
 11 12  2  0
 11 13  1  0
 13 14  1  0
 14 15  2  0
 15 16  1  0
 16 17  2  0
 17 18  1  0
 18 19  2  0
 18 20  1  0
 17 21  1  0
 21 22  2  0
 22 23  1  0
 23 24  2  0
 23 25  1  0
 10 26  2  0
 26 27  1  0
 26 28  1  0
 28 29  1  0
 29 30  2  0
 30 31  1  0
 31 32  2  0
 32 33  1  0
 33 34  1  0
 34 35  1  0
 34 36  2  0
 34 37  2  0
 33 38  2  0
  7 39  2  0
 39  3  1  0
 28  8  1  0
 38 29  1  0
 22 14  1  0
  1 40  1  0
  1 41  1  0
  1 42  1  0
  2 43  1  0
  2 44  1  0
  4 45  1  0
  5 46  1  0
  6 47  1  0
 13 48  1  0
 15 49  1  0
 16 50  1  0
 21 51  1  0
 27 52  1  0
 27 53  1  0
 27 54  1  0
 30 55  1  0
 31 56  1  0
 32 57  1  0
 35 58  1  0
 38 59  1  0
 39 60  1  0
M  CHG  5  18   1  20  -1  23   1  25  -1  35  -1
M  END
>  <UniqueID>  (44) 
41

>  <SMILES>  (44) 
CCc1cccc(-c2nc(C(=O)Nc3ccc([N+](=O)[O-])cc3[N+](=O)[O-])c(C)n2-c2cccc(S([NH-])(=O)=O)c2)c1

>  <Energy>  (44) 
111.02041344508902

>  <Genealogy>  (44) 
CCc1cccc(-c2nc(C(=O)Nc3ccc([N+](=O)[O-])cc3[N+](=O)[O-])c(C)n2-c2cccc(S([NH-])(=O)=O)c2)c1 (protonated)
CCc1cccc(-c2nc(C(=O)Nc3ccc([N+](=O)[O-])cc3[N+](=O)[O-])c(C)n2-c2cccc(S([NH-])(=O)=O)c2)c1 (3D coordinates assigned)
CCc1cccc(-c2nc(C(=O)Nc3ccc([N+](=O)[O-])cc3[N+](=O)[O-])c(C)n2-c2cccc(S([NH-])(=O)=O)c2)c1 (optimized conformer: 111.02041344508902 kcal/mol)

>  <smiles>  (44) 
CCc1cccc(-c2nc(C(=O)Nc3ccc([N+](=O)[O-])cc3[N+](=O)[O-])c(C)n2-c2cccc(S(N)(=O)=O)c2)c1

>  <score_type>  (44) 
oracle

>  <origin>  (44) 
adgpu

>  <m_score__min__energy>  (44) 
-11.789999999999999

>  <m_primary>  (44) 
energy

$$$$
44:0
     RDKit          3D

 53 57  0  0  0  0  0  0  0  0999 V2000
   -4.7480   15.9590  -33.3020 C   0  0  0  0  0  0  0  0  0  0  0  0
   -4.7290   17.4080  -34.3370 S   0  0  0  0  0  0  0  0  0  0  0  0
   -3.7770   18.4070  -33.7430 O   0  0  0  0  0  0  0  0  0  0  0  0
   -4.2570   17.0600  -35.7200 O   0  0  0  0  0  0  0  0  0  0  0  0
   -6.3130   18.1160  -34.4070 N   0  0  0  0  0  0  0  0  0  0  0  0
   -6.8940   18.9250  -33.3680 C   0  0  0  0  0  0  0  0  0  0  0  0
   -8.1000   18.5750  -32.7340 C   0  0  0  0  0  0  0  0  0  0  0  0
   -8.6340   19.3880  -31.7330 C   0  0  0  0  0  0  0  0  0  0  0  0
   -7.9790   20.5600  -31.3540 C   0  0  0  0  0  0  0  0  0  0  0  0
   -6.7760   20.9360  -31.9750 C   0  0  0  0  0  0  0  0  0  0  0  0
   -6.0760   22.1820  -31.5720 C   0  0  0  0  0  0  0  0  0  0  0  0
   -6.6050   23.4390  -31.8960 C   0  0  0  0  0  0  0  0  0  0  0  0
   -5.9540   24.5710  -31.5290 N   0  0  0  0  0  0  0  0  0  0  0  0
   -4.7810   24.5480  -30.8400 C   0  0  0  0  0  0  0  0  0  0  0  0
   -4.2160   25.6700  -30.5220 N   0  0  0  0  0  0  0  0  0  0  0  0
   -4.1970   23.3090  -30.4830 C   0  0  0  0  0  0  0  0  0  0  0  0
   -2.9160   23.2090  -29.7300 C   0  0  0  0  0  0  0  0  0  0  0  0
   -2.2160   24.3040  -29.3240 N   0  0  0  0  0  0  0  0  0  0  0  0
   -1.1580   23.7700  -28.6980 C   0  0  0  0  0  0  0  0  0  0  0  0
   -0.0990   24.4410  -28.0880 C   0  0  0  0  0  0  0  0  0  0  0  0
   -0.0810   25.8430  -28.0640 O   0  0  0  0  0  0  0  0  0  0  0  0
   -0.2740   26.6380  -26.9240 C   0  0  0  0  0  0  0  0  0  0  0  0
   -0.0290   28.0240  -26.9320 C   0  0  0  0  0  0  0  0  0  0  0  0
   -0.2570   28.7850  -25.7810 C   0  0  0  0  0  0  0  0  0  0  0  0
   -0.7360   28.1730  -24.6200 C   0  0  0  0  0  0  0  0  0  0  0  0
   -0.9950   26.7990  -24.6110 C   0  0  0  0  0  0  0  0  0  0  0  0
   -0.7720   26.0360  -25.7610 C   0  0  0  0  0  0  0  0  0  0  0  0
    0.9000   23.6490  -27.4710 C   0  0  0  0  0  0  0  0  0  0  0  0
    0.8210   22.2390  -27.5120 C   0  0  0  0  0  0  0  0  0  0  0  0
   -0.2580   21.6030  -28.1540 C   0  0  0  0  0  0  0  0  0  0  0  0
   -1.2320   22.4130  -28.7330 C   0  0  0  0  0  0  0  0  0  0  0  0
   -2.3370   22.0260  -29.3840 N   0  0  0  0  0  0  0  0  0  0  0  0
   -4.8670   22.1320  -30.8600 C   0  0  0  0  0  0  0  0  0  0  0  0
   -6.2440   20.1100  -32.9840 C   0  0  0  0  0  0  0  0  0  0  0  0
   -4.7440   16.2634  -32.2450 H   0  0  0  0  0  0  0  0  0  0  0  0
   -5.6539   15.3711  -33.5109 H   0  0  0  0  0  0  0  0  0  0  0  0
   -3.8578   15.3475  -33.5109 H   0  0  0  0  0  0  0  0  0  0  0  0
   -6.8420   17.9840  -35.2980 H   0  0  0  0  0  0  0  0  0  0  0  0
   -8.6255   17.6548  -33.0290 H   0  0  0  0  0  0  0  0  0  0  0  0
   -9.5756   19.1033  -31.2407 H   0  0  0  0  0  0  0  0  0  0  0  0
   -8.4072   21.1940  -30.5637 H   0  0  0  0  0  0  0  0  0  0  0  0
   -7.5525   23.5077  -32.4505 H   0  0  0  0  0  0  0  0  0  0  0  0
   -4.6390   26.5910  -30.7800 H   0  0  0  0  0  0  0  0  0  0  0  0
    0.3428   28.5100  -27.8461 H   0  0  0  0  0  0  0  0  0  0  0  0
   -0.0589   29.8670  -25.7898 H   0  0  0  0  0  0  0  0  0  0  0  0
   -0.9093   28.7717  -23.7136 H   0  0  0  0  0  0  0  0  0  0  0  0
   -1.3748   26.3177  -23.6977 H   0  0  0  0  0  0  0  0  0  0  0  0
   -0.9886   24.9576  -25.7527 H   0  0  0  0  0  0  0  0  0  0  0  0
    1.7425   24.1346  -26.9568 H   0  0  0  0  0  0  0  0  0  0  0  0
    1.6084   21.6340  -27.0388 H   0  0  0  0  0  0  0  0  0  0  0  0
   -0.3295   20.5062  -28.1969 H   0  0  0  0  0  0  0  0  0  0  0  0
   -4.4368   21.1555  -30.5927 H   0  0  0  0  0  0  0  0  0  0  0  0
   -5.3047   20.3971  -33.4793 H   0  0  0  0  0  0  0  0  0  0  0  0
  1  2  1  0
  2  3  2  0
  2  4  2  0
  2  5  1  0
  5  6  1  0
  6  7  2  0
  7  8  1  0
  8  9  2  0
  9 10  1  0
 10 11  1  0
 11 12  2  0
 12 13  1  0
 13 14  1  0
 14 15  2  3
 14 16  1  0
 16 17  1  0
 17 18  2  0
 18 19  1  0
 19 20  2  0
 20 21  1  0
 21 22  1  0
 22 23  2  0
 23 24  1  0
 24 25  2  0
 25 26  1  0
 26 27  2  0
 20 28  1  0
 28 29  2  0
 29 30  1  0
 30 31  2  0
 31 32  1  0
 16 33  2  0
 10 34  2  0
 34  6  1  0
 33 11  1  0
 32 17  1  0
 31 19  1  0
 27 22  1  0
  1 35  1  0
  1 36  1  0
  1 37  1  0
  5 38  1  0
  7 39  1  0
  8 40  1  0
  9 41  1  0
 12 42  1  0
 15 43  1  0
 23 44  1  0
 24 45  1  0
 25 46  1  0
 26 47  1  0
 27 48  1  0
 28 49  1  0
 29 50  1  0
 30 51  1  0
 33 52  1  0
 34 53  1  0
M  CHG  2  13  -1  32  -1
M  END
>  <UniqueID>  (45) 
42

>  <SMILES>  (45) 
CS(=O)(=O)Nc1cccc(-c2c[n-]c(=N)c(-c3nc4c(Oc5ccccc5)cccc4[n-]3)c2)c1

>  <Energy>  (45) 
108.53608237861634

>  <Genealogy>  (45) 
CS(=O)(=O)Nc1cccc(-c2c[n-]c(=N)c(-c3nc4c(Oc5ccccc5)cccc4[n-]3)c2)c1 (protonated)
CS(=O)(=O)Nc1cccc(-c2c[n-]c(=N)c(-c3nc4c(Oc5ccccc5)cccc4[n-]3)c2)c1 (3D coordinates assigned)
CS(=O)(=O)Nc1cccc(-c2c[n-]c(=N)c(-c3nc4c(Oc5ccccc5)cccc4[n-]3)c2)c1 (optimized conformer: 108.53608237861634 kcal/mol)

>  <smiles>  (45) 
CS(=O)(=O)Nc1cccc(-c2c[nH]c(=N)c(-c3nc4c(Oc5ccccc5)cccc4[nH]3)c2)c1

>  <score_type>  (45) 
oracle

>  <origin>  (45) 
adgpu

>  <m_score__min__energy>  (45) 
-13.539999999999999

>  <m_primary>  (45) 
energy

$$$$
45:0
     RDKit          3D

 44 46  0  0  0  0  0  0  0  0999 V2000
   -8.8280   21.2810  -31.4100 C   0  0  0  0  0  0  0  0  0  0  0  0
   -8.6050   22.6860  -31.3780 O   0  0  0  0  0  0  0  0  0  0  0  0
   -7.3560   23.2820  -31.1490 C   0  0  0  0  0  0  0  0  0  0  0  0
   -7.1580   24.2700  -30.1650 C   0  0  0  0  0  0  0  0  0  0  0  0
   -5.8900   24.8220  -29.9680 C   0  0  0  0  0  0  0  0  0  0  0  0
   -4.8040   24.4050  -30.7450 C   0  0  0  0  0  0  0  0  0  0  0  0
   -3.5230   25.0050  -30.5110 N   0  0  0  0  0  0  0  0  0  0  0  0
   -2.4050   24.5330  -29.2750 S   0  0  0  0  0  0  0  0  0  0  0  0
   -1.2820   25.5320  -29.2080 O   0  0  0  0  0  0  0  0  0  0  0  0
   -3.0990   24.4710  -27.9420 O   0  0  0  0  0  0  0  0  0  0  0  0
   -1.7740   22.9330  -29.6750 C   0  0  0  0  0  0  0  0  0  0  0  0
   -2.3930   22.1670  -30.6750 C   0  0  0  0  0  0  0  0  0  0  0  0
   -1.9030   20.9000  -30.9970 C   0  0  0  0  0  0  0  0  0  0  0  0
   -0.7970   20.3840  -30.3220 C   0  0  0  0  0  0  0  0  0  0  0  0
   -0.1800   21.1310  -29.3180 C   0  0  0  0  0  0  0  0  0  0  0  0
   -0.6680   22.4040  -28.9760 C   0  0  0  0  0  0  0  0  0  0  0  0
   -0.0170   23.2010  -27.9740 N   0  0  0  0  0  0  0  0  0  0  0  0
   -0.5280   23.4920  -26.6680 C   0  0  0  0  0  0  0  0  0  0  0  0
   -0.9450   22.5500  -25.9420 O   0  0  0  0  0  0  0  0  0  0  0  0
   -0.5880   24.8910  -26.1640 C   0  0  0  0  0  0  0  0  0  0  0  0
   -1.4150   25.1920  -25.0630 C   0  0  0  0  0  0  0  0  0  0  0  0
   -1.4440   26.4790  -24.5200 C   0  0  0  0  0  0  0  0  0  0  0  0
   -0.6520   27.4880  -25.0640 C   0  0  0  0  0  0  0  0  0  0  0  0
    0.1540   27.2180  -26.1700 C   0  0  0  0  0  0  0  0  0  0  0  0
    0.1950   25.9300  -26.7280 C   0  0  0  0  0  0  0  0  0  0  0  0
    1.0200   25.6920  -27.8270 O   0  0  0  0  0  0  0  0  0  0  0  0
   -4.9990   23.4190  -31.7300 C   0  0  0  0  0  0  0  0  0  0  0  0
   -6.2690   22.8700  -31.9290 C   0  0  0  0  0  0  0  0  0  0  0  0
   -8.8891   20.8959  -30.3814 H   0  0  0  0  0  0  0  0  0  0  0  0
   -9.7707   21.0713  -31.9367 H   0  0  0  0  0  0  0  0  0  0  0  0
   -7.9966   20.7897  -31.9367 H   0  0  0  0  0  0  0  0  0  0  0  0
   -8.0047   24.6081  -29.5495 H   0  0  0  0  0  0  0  0  0  0  0  0
   -5.7442   25.5912  -29.1953 H   0  0  0  0  0  0  0  0  0  0  0  0
   -3.2685   22.5669  -31.2076 H   0  0  0  0  0  0  0  0  0  0  0  0
   -2.3904   20.3072  -31.7850 H   0  0  0  0  0  0  0  0  0  0  0  0
   -0.4108   19.3872  -30.5814 H   0  0  0  0  0  0  0  0  0  0  0  0
    0.6940   20.7210  -28.7907 H   0  0  0  0  0  0  0  0  0  0  0  0
   -2.0455   24.4037  -24.6258 H   0  0  0  0  0  0  0  0  0  0  0  0
   -2.0944   26.6964  -23.6600 H   0  0  0  0  0  0  0  0  0  0  0  0
   -0.6623   28.4954  -24.6223 H   0  0  0  0  0  0  0  0  0  0  0  0
    0.7633   28.0216  -26.6093 H   0  0  0  0  0  0  0  0  0  0  0  0
    0.7380   25.0810  -28.5830 H   0  0  0  0  0  0  0  0  0  0  0  0
   -4.1514   23.0801  -32.3438 H   0  0  0  0  0  0  0  0  0  0  0  0
   -6.4158   22.1061  -32.7068 H   0  0  0  0  0  0  0  0  0  0  0  0
  1  2  1  0
  2  3  1  0
  3  4  2  0
  4  5  1  0
  5  6  2  0
  6  7  1  0
  7  8  1  0
  8  9  2  0
  8 10  2  0
  8 11  1  0
 11 12  2  0
 12 13  1  0
 13 14  2  0
 14 15  1  0
 15 16  2  0
 16 17  1  0
 17 18  1  0
 18 19  2  0
 18 20  1  0
 20 21  2  0
 21 22  1  0
 22 23  2  0
 23 24  1  0
 24 25  2  0
 25 26  1  0
  6 27  1  0
 27 28  2  0
 28  3  1  0
 16 11  1  0
 25 20  1  0
  1 29  1  0
  1 30  1  0
  1 31  1  0
  4 32  1  0
  5 33  1  0
 12 34  1  0
 13 35  1  0
 14 36  1  0
 15 37  1  0
 21 38  1  0
 22 39  1  0
 23 40  1  0
 24 41  1  0
 26 42  1  0
 27 43  1  0
 28 44  1  0
M  CHG  2   7  -1  17  -1
M  END
>  <UniqueID>  (46) 
43

>  <SMILES>  (46) 
COc1ccc([N-]S(=O)(=O)c2ccccc2[N-]C(=O)c2ccccc2O)cc1

>  <Energy>  (46) 
57.172738099285915

>  <Genealogy>  (46) 
COc1ccc([N-]S(=O)(=O)c2ccccc2[N-]C(=O)c2ccccc2O)cc1 (protonated)
COc1ccc([N-]S(=O)(=O)c2ccccc2[N-]C(=O)c2ccccc2O)cc1 (3D coordinates assigned)
COc1ccc([N-]S(=O)(=O)c2ccccc2[N-]C(=O)c2ccccc2O)cc1 (optimized conformer: 57.172738099285915 kcal/mol)

>  <smiles>  (46) 
COc1ccc(NS(=O)(=O)c2ccccc2NC(=O)c2ccccc2O)cc1

>  <score_type>  (46) 
oracle

>  <origin>  (46) 
adgpu

>  <m_score__min__energy>  (46) 
-10.6

>  <m_primary>  (46) 
energy

$$$$
46:0
     RDKit          3D

 53 55  0  0  0  0  0  0  0  0999 V2000
   -9.1780   21.2420  -32.2300 C   0  0  0  0  0  0  0  0  0  0  0  0
   -8.7220   19.9690  -32.8050 N   0  0  0  0  0  0  0  0  0  0  0  0
   -9.5540   18.8570  -32.3230 C   0  0  0  0  0  0  0  0  0  0  0  0
   -7.0520   19.6850  -32.3850 S   0  0  0  0  0  0  0  0  0  0  0  0
   -6.9580   18.6130  -31.3350 O   0  0  0  0  0  0  0  0  0  0  0  0
   -6.2940   19.2300  -33.6020 O   0  0  0  0  0  0  0  0  0  0  0  0
   -6.3200   21.1730  -31.7880 C   0  0  0  0  0  0  0  0  0  0  0  0
   -5.2000   21.7060  -32.4370 C   0  0  0  0  0  0  0  0  0  0  0  0
   -4.6190   22.8920  -31.9780 C   0  0  0  0  0  0  0  0  0  0  0  0
   -5.1500   23.5610  -30.8630 C   0  0  0  0  0  0  0  0  0  0  0  0
   -4.5320   24.8220  -30.3890 C   0  0  0  0  0  0  0  0  0  0  0  0
   -5.2610   25.8290  -30.1880 O   0  0  0  0  0  0  0  0  0  0  0  0
   -3.1300   24.9230  -30.0980 N   0  0  0  0  0  0  0  0  0  0  0  0
   -2.3530   23.9900  -29.3330 C   0  0  0  0  0  0  0  0  0  0  0  0
   -2.6670   22.6200  -29.2990 C   0  0  0  0  0  0  0  0  0  0  0  0
   -1.8760   21.7370  -28.5590 C   0  0  0  0  0  0  0  0  0  0  0  0
   -0.7610   22.2090  -27.8620 C   0  0  0  0  0  0  0  0  0  0  0  0
   -0.4270   23.5690  -27.9090 C   0  0  0  0  0  0  0  0  0  0  0  0
    0.9950   24.1760  -27.0680 S   0  0  0  0  0  0  0  0  0  0  0  0
    1.5190   25.4210  -27.7260 O   0  0  0  0  0  0  0  0  0  0  0  0
    2.0660   23.1230  -27.1140 O   0  0  0  0  0  0  0  0  0  0  0  0
    0.6030   24.5210  -25.4120 N   0  0  0  0  0  0  0  0  0  0  0  0
   -0.0250   25.5950  -25.0300 C   0  0  0  0  0  0  0  0  0  0  0  0
   -0.5160   26.6740  -25.9240 C   0  0  0  0  0  0  0  0  0  0  0  0
   -1.0740   27.7200  -24.9490 C   0  0  0  0  0  0  0  0  0  0  0  0
   -1.0570   27.0900  -23.5460 C   0  0  0  0  0  0  0  0  0  0  0  0
   -0.3340   25.8440  -23.6750 N   0  0  0  0  0  0  0  0  0  0  0  0
   -1.2200   24.4520  -28.6530 C   0  0  0  0  0  0  0  0  0  0  0  0
   -6.2930   23.0350  -30.2330 C   0  0  0  0  0  0  0  0  0  0  0  0
   -6.8680   21.8460  -30.6900 C   0  0  0  0  0  0  0  0  0  0  0  0
   -9.1549   21.1776  -31.1321 H   0  0  0  0  0  0  0  0  0  0  0  0
   -8.5147   22.0536  -32.5637 H   0  0  0  0  0  0  0  0  0  0  0  0
  -10.2058   21.4478  -32.5637 H   0  0  0  0  0  0  0  0  0  0  0  0
   -8.7970   20.0210  -33.8470 H   0  0  0  0  0  0  0  0  0  0  0  0
   -9.5578   18.8519  -31.2230 H   0  0  0  0  0  0  0  0  0  0  0  0
  -10.5825   18.9816  -32.6927 H   0  0  0  0  0  0  0  0  0  0  0  0
   -9.1442   17.9055  -32.6927 H   0  0  0  0  0  0  0  0  0  0  0  0
   -4.7757   21.1901  -33.3109 H   0  0  0  0  0  0  0  0  0  0  0  0
   -3.7394   23.3043  -32.4940 H   0  0  0  0  0  0  0  0  0  0  0  0
   -3.5371   22.2424  -29.8560 H   0  0  0  0  0  0  0  0  0  0  0  0
   -2.1319   20.6677  -28.5252 H   0  0  0  0  0  0  0  0  0  0  0  0
   -0.1444   21.5120  -27.2755 H   0  0  0  0  0  0  0  0  0  0  0  0
    0.8970   23.8210  -24.6950 H   0  0  0  0  0  0  0  0  0  0  0  0
    0.3061   27.0934  -26.5226 H   0  0  0  0  0  0  0  0  0  0  0  0
   -1.2641   26.3222  -26.6497 H   0  0  0  0  0  0  0  0  0  0  0  0
   -0.4453   28.6225  -24.9643 H   0  0  0  0  0  0  0  0  0  0  0  0
   -2.0957   28.0122  -25.2331 H   0  0  0  0  0  0  0  0  0  0  0  0
   -0.5465   27.7558  -22.8346 H   0  0  0  0  0  0  0  0  0  0  0  0
   -2.0764   26.9259  -23.1666 H   0  0  0  0  0  0  0  0  0  0  0  0
   -0.1470   25.1830  -22.8860 H   0  0  0  0  0  0  0  0  0  0  0  0
   -0.9502   25.5172  -28.7033 H   0  0  0  0  0  0  0  0  0  0  0  0
   -6.7365   23.5627  -29.3758 H   0  0  0  0  0  0  0  0  0  0  0  0
   -7.7553   21.4372  -30.1844 H   0  0  0  0  0  0  0  0  0  0  0  0
  1  2  1  0
  2  3  1  0
  2  4  1  0
  4  5  2  0
  4  6  2  0
  4  7  1  0
  7  8  2  0
  8  9  1  0
  9 10  2  0
 10 11  1  0
 11 12  2  0
 11 13  1  0
 13 14  1  0
 14 15  2  0
 15 16  1  0
 16 17  2  0
 17 18  1  0
 18 19  1  0
 19 20  2  0
 19 21  2  0
 19 22  1  0
 22 23  2  3
 23 24  1  0
 24 25  1  0
 25 26  1  0
 26 27  1  0
 18 28  2  0
 10 29  1  0
 29 30  2  0
 30  7  1  0
 28 14  1  0
 27 23  1  0
  1 31  1  0
  1 32  1  0
  1 33  1  0
  2 34  1  0
  3 35  1  0
  3 36  1  0
  3 37  1  0
  8 38  1  0
  9 39  1  0
 15 40  1  0
 16 41  1  0
 17 42  1  0
 22 43  1  0
 24 44  1  0
 24 45  1  0
 25 46  1  0
 25 47  1  0
 26 48  1  0
 26 49  1  0
 27 50  1  0
 28 51  1  0
 29 52  1  0
 30 53  1  0
M  CHG  3   2   1  13  -1  22   1
M  END
>  <UniqueID>  (47) 
44

>  <SMILES>  (47) 
C[NH+](C)S(=O)(=O)c1ccc(C(=O)[N-]c2cccc(S(=O)(=O)[NH+]=C3CCCN3)c2)cc1

>  <Energy>  (47) 
65.34379296333904

>  <Genealogy>  (47) 
C[NH+](C)S(=O)(=O)c1ccc(C(=O)[N-]c2cccc(S(=O)(=O)[NH+]=C3CCCN3)c2)cc1 (protonated)
C[NH+](C)S(=O)(=O)c1ccc(C(=O)[N-]c2cccc(S(=O)(=O)[NH+]=C3CCCN3)c2)cc1 (3D coordinates assigned)
C[NH+](C)S(=O)(=O)c1ccc(C(=O)[N-]c2cccc(S(=O)(=O)[NH+]=C3CCCN3)c2)cc1 (nonaromatic ring conformer: 65.34379296333904 kcal/mol)

>  <smiles>  (47) 
CN(C)S(=O)(=O)c1ccc(C(=O)Nc2cccc(S(=O)(=O)N=C3CCCN3)c2)cc1

>  <score_type>  (47) 
oracle

>  <origin>  (47) 
adgpu

>  <m_score__min__energy>  (47) 
-12.359999999999999

>  <m_primary>  (47) 
energy

$$$$
47:0
     RDKit          3D

 43 45  0  0  0  0  0  0  0  0999 V2000
   -6.7220   15.3880  -34.1640 C   0  0  0  0  0  0  0  0  0  0  0  0
   -6.8070   16.7520  -34.5640 O   0  0  0  0  0  0  0  0  0  0  0  0
   -6.3070   17.8290  -33.8180 C   0  0  0  0  0  0  0  0  0  0  0  0
   -6.9600   18.1740  -32.6290 C   0  0  0  0  0  0  0  0  0  0  0  0
   -6.5000   19.2400  -31.8490 C   0  0  0  0  0  0  0  0  0  0  0  0
   -5.3770   19.9790  -32.2480 C   0  0  0  0  0  0  0  0  0  0  0  0
   -4.8950   21.1030  -31.4200 C   0  0  0  0  0  0  0  0  0  0  0  0
   -4.1430   20.9500  -30.3090 N   0  0  0  0  0  0  0  0  0  0  0  0
   -3.9470   22.2120  -29.8800 C   0  0  0  0  0  0  0  0  0  0  0  0
   -3.2310   22.5230  -28.6330 C   0  0  0  0  0  0  0  0  0  0  0  0
   -3.7140   22.1300  -27.5360 O   0  0  0  0  0  0  0  0  0  0  0  0
   -2.0580   23.3500  -28.6460 N   0  0  0  0  0  0  0  0  0  0  0  0
   -1.1750   23.4790  -27.5200 C   0  0  0  0  0  0  0  0  0  0  0  0
   -1.1130   22.4380  -26.5820 C   0  0  0  0  0  0  0  0  0  0  0  0
   -0.2700   22.5320  -25.4740 C   0  0  0  0  0  0  0  0  0  0  0  0
    0.5090   23.6740  -25.2840 C   0  0  0  0  0  0  0  0  0  0  0  0
    0.4370   24.7310  -26.1940 C   0  0  0  0  0  0  0  0  0  0  0  0
   -0.4170   24.6520  -27.3140 C   0  0  0  0  0  0  0  0  0  0  0  0
   -0.5520   25.7200  -28.2160 O   0  0  0  0  0  0  0  0  0  0  0  0
   -0.6530   27.0900  -27.8390 C   0  0  0  0  0  0  0  0  0  0  0  0
   -4.5710   23.0860  -30.7590 C   0  0  0  0  0  0  0  0  0  0  0  0
   -4.5790   24.5580  -30.7620 C   0  0  0  0  0  0  0  0  0  0  0  0
   -3.4890   25.3000  -30.2230 N   0  0  0  0  0  0  0  0  0  0  0  0
   -5.5400   25.1690  -31.3000 O   0  0  0  0  0  0  0  0  0  0  0  0
   -5.1530   22.3660  -31.6840 O   0  0  0  0  0  0  0  0  0  0  0  0
   -4.7190   19.6340  -33.4410 C   0  0  0  0  0  0  0  0  0  0  0  0
   -5.1800   18.5690  -34.2210 C   0  0  0  0  0  0  0  0  0  0  0  0
   -6.7182   15.3275  -33.0657 H   0  0  0  0  0  0  0  0  0  0  0  0
   -7.5875   14.8355  -34.5587 H   0  0  0  0  0  0  0  0  0  0  0  0
   -5.7946   14.9473  -34.5587 H   0  0  0  0  0  0  0  0  0  0  0  0
   -7.8422   17.6021  -32.3054 H   0  0  0  0  0  0  0  0  0  0  0  0
   -7.0225   19.5003  -30.9167 H   0  0  0  0  0  0  0  0  0  0  0  0
   -1.9280   24.0010  -29.4530 H   0  0  0  0  0  0  0  0  0  0  0  0
   -1.7337   21.5406  -26.7209 H   0  0  0  0  0  0  0  0  0  0  0  0
   -0.2195   21.7054  -24.7500 H   0  0  0  0  0  0  0  0  0  0  0  0
    1.1811   23.7419  -24.4158 H   0  0  0  0  0  0  0  0  0  0  0  0
    1.0500   25.6307  -26.0364 H   0  0  0  0  0  0  0  0  0  0  0  0
   -0.6588   27.1689  -26.7418 H   0  0  0  0  0  0  0  0  0  0  0  0
    0.2066   27.6455  -28.2420 H   0  0  0  0  0  0  0  0  0  0  0  0
   -1.5848   27.5135  -28.2420 H   0  0  0  0  0  0  0  0  0  0  0  0
   -3.6370   25.9940  -29.4570 H   0  0  0  0  0  0  0  0  0  0  0  0
   -3.8359   20.2053  -33.7631 H   0  0  0  0  0  0  0  0  0  0  0  0
   -4.6592   18.3084  -35.1542 H   0  0  0  0  0  0  0  0  0  0  0  0
  1  2  1  0
  2  3  1  0
  3  4  2  0
  4  5  1  0
  5  6  2  0
  6  7  1  0
  7  8  2  0
  8  9  1  0
  9 10  1  0
 10 11  2  0
 10 12  1  0
 12 13  1  0
 13 14  2  0
 14 15  1  0
 15 16  2  0
 16 17  1  0
 17 18  2  0
 18 19  1  0
 19 20  1  0
  9 21  2  0
 21 22  1  0
 22 23  1  0
 22 24  2  0
 21 25  1  0
  6 26  1  0
 26 27  2  0
 27  3  1  0
 25  7  1  0
 18 13  1  0
  1 28  1  0
  1 29  1  0
  1 30  1  0
  4 31  1  0
  5 32  1  0
 12 33  1  0
 14 34  1  0
 15 35  1  0
 16 36  1  0
 17 37  1  0
 20 38  1  0
 20 39  1  0
 20 40  1  0
 23 41  1  0
 26 42  1  0
 27 43  1  0
M  CHG  1  23  -1
M  END
>  <UniqueID>  (48) 
45

>  <SMILES>  (48) 
COc1ccc(-c2nc(C(=O)Nc3ccccc3OC)c(C([NH-])=O)o2)cc1

>  <Energy>  (48) 
81.90136113506863

>  <Genealogy>  (48) 
COc1ccc(-c2nc(C(=O)Nc3ccccc3OC)c(C([NH-])=O)o2)cc1 (protonated)
COc1ccc(-c2nc(C(=O)Nc3ccccc3OC)c(C([NH-])=O)o2)cc1 (3D coordinates assigned)
COc1ccc(-c2nc(C(=O)Nc3ccccc3OC)c(C([NH-])=O)o2)cc1 (optimized conformer: 81.90136113506863 kcal/mol)

>  <smiles>  (48) 
COc1ccc(-c2nc(C(=O)Nc3ccccc3OC)c(C(N)=O)o2)cc1

>  <score_type>  (48) 
oracle

>  <origin>  (48) 
adgpu

>  <m_score__min__energy>  (48) 
-9.9299999999999997

>  <m_primary>  (48) 
energy

$$$$
48:0
     RDKit          3D

 33 35  0  0  0  0  0  0  0  0999 V2000
   -0.0270   23.1110  -24.8270 C   0  0  0  0  0  0  0  0  0  0  0  0
    0.2100   23.0230  -26.2280 O   0  0  0  0  0  0  0  0  0  0  0  0
   -0.6040   23.6120  -27.2070 C   0  0  0  0  0  0  0  0  0  0  0  0
   -0.4220   24.9380  -27.6420 C   0  0  0  0  0  0  0  0  0  0  0  0
   -1.2680   25.4810  -28.6120 C   0  0  0  0  0  0  0  0  0  0  0  0
   -2.2960   24.7130  -29.1650 C   0  0  0  0  0  0  0  0  0  0  0  0
   -3.1550   25.2950  -30.0890 O   0  0  0  0  0  0  0  0  0  0  0  0
   -2.4680   23.3740  -28.7610 C   0  0  0  0  0  0  0  0  0  0  0  0
   -3.5170   22.5560  -29.3040 N   0  0  0  0  0  0  0  0  0  0  0  0
   -3.9070   22.5940  -30.6850 C   0  0  0  0  0  0  0  0  0  0  0  0
   -3.1140   23.0610  -31.5480 O   0  0  0  0  0  0  0  0  0  0  0  0
   -5.1940   22.0280  -31.1260 C   0  0  0  0  0  0  0  0  0  0  0  0
   -5.3410   20.5200  -31.8810 S   0  0  0  0  0  0  0  0  0  0  0  0
   -7.0040   20.6040  -32.0810 C   0  0  0  0  0  0  0  0  0  0  0  0
   -7.8470   19.6610  -32.6650 C   0  0  0  0  0  0  0  0  0  0  0  0
   -9.2180   19.9540  -32.7390 C   0  0  0  0  0  0  0  0  0  0  0  0
   -9.7110   21.1730  -32.2360 C   0  0  0  0  0  0  0  0  0  0  0  0
   -8.8400   22.1100  -31.6530 C   0  0  0  0  0  0  0  0  0  0  0  0
   -7.4740   21.8090  -31.5790 C   0  0  0  0  0  0  0  0  0  0  0  0
   -6.4620   22.6230  -31.0410 C   0  0  0  0  0  0  0  0  0  0  0  0
   -6.7640   24.2490  -30.4350 Cl  0  0  0  0  0  0  0  0  0  0  0  0
   -1.6310   22.8440  -27.7670 C   0  0  0  0  0  0  0  0  0  0  0  0
    0.8687   22.7784  -24.2820 H   0  0  0  0  0  0  0  0  0  0  0  0
   -0.2538   24.1533  -24.5582 H   0  0  0  0  0  0  0  0  0  0  0  0
   -0.8791   22.4693  -24.5582 H   0  0  0  0  0  0  0  0  0  0  0  0
    0.3885   25.5484  -27.2171 H   0  0  0  0  0  0  0  0  0  0  0  0
   -1.1239   26.5202  -28.9427 H   0  0  0  0  0  0  0  0  0  0  0  0
   -3.8780   21.7690  -28.7190 H   0  0  0  0  0  0  0  0  0  0  0  0
   -7.4495   18.7133  -33.0572 H   0  0  0  0  0  0  0  0  0  0  0  0
   -9.9097   19.2283  -33.1917 H   0  0  0  0  0  0  0  0  0  0  0  0
  -10.7867   21.3942  -32.2997 H   0  0  0  0  0  0  0  0  0  0  0  0
   -9.2247   23.0633  -31.2616 H   0  0  0  0  0  0  0  0  0  0  0  0
   -1.7844   21.8104  -27.4233 H   0  0  0  0  0  0  0  0  0  0  0  0
  1  2  1  0
  2  3  1  0
  3  4  2  0
  4  5  1  0
  5  6  2  0
  6  7  1  0
  6  8  1  0
  8  9  1  0
  9 10  1  0
 10 11  2  0
 10 12  1  0
 12 13  1  0
 13 14  1  0
 14 15  2  0
 15 16  1  0
 16 17  2  0
 17 18  1  0
 18 19  2  0
 19 20  1  0
 20 21  1  0
  8 22  2  0
 22  3  1  0
 20 12  2  0
 19 14  1  0
  1 23  1  0
  1 24  1  0
  1 25  1  0
  4 26  1  0
  5 27  1  0
  9 28  1  0
 15 29  1  0
 16 30  1  0
 17 31  1  0
 18 32  1  0
 22 33  1  0
M  CHG  1   7  -1
M  END
>  <UniqueID>  (49) 
46

>  <SMILES>  (49) 
COc1ccc([O-])c(NC(=O)c2sc3ccccc3c2Cl)c1

>  <Energy>  (49) 
73.95288866105739

>  <Genealogy>  (49) 
COc1ccc([O-])c(NC(=O)c2sc3ccccc3c2Cl)c1 (protonated)
COc1ccc([O-])c(NC(=O)c2sc3ccccc3c2Cl)c1 (3D coordinates assigned)
COc1ccc([O-])c(NC(=O)c2sc3ccccc3c2Cl)c1 (optimized conformer: 73.95288866105739 kcal/mol)

>  <smiles>  (49) 
COc1ccc(O)c(NC(=O)c2sc3ccccc3c2Cl)c1

>  <score_type>  (49) 
oracle

>  <origin>  (49) 
adgpu

>  <m_score__min__energy>  (49) 
-10.9

>  <m_primary>  (49) 
energy

$$$$
