0:0
     RDKit          3D

 29 31  0  0  0  0  0  0  0  0999 V2000
   -6.8580   15.8260  -34.1150 C   0  0  0  0  0  0  0  0  0  0  0  0
   -6.6060   17.2150  -33.6070 C   0  0  0  0  0  0  0  0  0  0  0  0
   -7.3030   17.6950  -32.4890 C   0  0  0  0  0  0  0  0  0  0  0  0
   -7.0980   19.0020  -32.0370 C   0  0  0  0  0  0  0  0  0  0  0  0
   -6.1960   19.8560  -32.7000 C   0  0  0  0  0  0  0  0  0  0  0  0
   -5.9690   21.2510  -32.2410 C   0  0  0  0  0  0  0  0  0  0  0  0
   -6.9770   22.2480  -32.3460 C   0  0  0  0  0  0  0  0  0  0  0  0
   -6.7260   23.5560  -31.8990 C   0  0  0  0  0  0  0  0  0  0  0  0
   -5.4760   23.8060  -31.3560 C   0  0  0  0  0  0  0  0  0  0  0  0
   -5.0000   24.9700  -30.8720 N   0  0  0  0  0  0  0  0  0  0  0  0
   -3.7540   24.7200  -30.4680 N   0  0  0  0  0  0  0  0  0  0  0  0
   -3.5030   23.4100  -30.7050 C   0  0  0  0  0  0  0  0  0  0  0  0
   -2.1950   22.7360  -30.4520 C   0  0  0  0  0  0  0  0  0  0  0  0
   -4.5720   22.8340  -31.2680 N   0  0  0  0  0  0  0  0  0  0  0  0
   -4.7670   21.5860  -31.6830 N   0  0  0  0  0  0  0  0  0  0  0  0
   -5.5230   19.3770  -33.8380 C   0  0  0  0  0  0  0  0  0  0  0  0
   -5.7290   18.0700  -34.2890 C   0  0  0  0  0  0  0  0  0  0  0  0
   -6.9823   15.1410  -33.2633 H   0  0  0  0  0  0  0  0  0  0  0  0
   -7.7720   15.8196  -34.7271 H   0  0  0  0  0  0  0  0  0  0  0  0
   -6.0045   15.4990  -34.7271 H   0  0  0  0  0  0  0  0  0  0  0  0
   -8.0146   17.0400  -31.9650 H   0  0  0  0  0  0  0  0  0  0  0  0
   -7.6462   19.3664  -31.1557 H   0  0  0  0  0  0  0  0  0  0  0  0
   -7.9562   21.9946  -32.7784 H   0  0  0  0  0  0  0  0  0  0  0  0
   -7.4875   24.3460  -31.9766 H   0  0  0  0  0  0  0  0  0  0  0  0
   -2.0300   22.6510  -29.3678 H   0  0  0  0  0  0  0  0  0  0  0  0
   -2.2071   21.7318  -30.9009 H   0  0  0  0  0  0  0  0  0  0  0  0
   -1.3843   23.3286  -30.9009 H   0  0  0  0  0  0  0  0  0  0  0  0
   -4.8281   20.0368  -34.3782 H   0  0  0  0  0  0  0  0  0  0  0  0
   -5.2001   17.7104  -35.1839 H   0  0  0  0  0  0  0  0  0  0  0  0
  1  2  1  0
  2  3  2  0
  3  4  1  0
  4  5  2  0
  5  6  1  0
  6  7  1  0
  7  8  2  0
  8  9  1  0
  9 10  2  0
 10 11  1  0
 11 12  2  0
 12 13  1  0
 12 14  1  0
 14 15  1  0
  5 16  1  0
 16 17  2  0
 17  2  1  0
 15  6  2  0
 14  9  1  0
  1 18  1  0
  1 19  1  0
  1 20  1  0
  3 21  1  0
  4 22  1  0
  7 23  1  0
  8 24  1  0
 13 25  1  0
 13 26  1  0
 13 27  1  0
 16 28  1  0
 17 29  1  0
M  END
>  <UniqueID>  (1) 
1

>  <SMILES>  (1) 
Cc1ccc(-c2ccc3nnc(C)n3n2)cc1

>  <Energy>  (1) 
76.53027771954892

>  <Genealogy>  (1) 
Cc1ccc(-c2ccc3nnc(C)n3n2)cc1 (3D coordinates assigned)
Cc1ccc(-c2ccc3nnc(C)n3n2)cc1 (optimized conformer: 76.53027771954892 kcal/mol)

>  <smiles>  (1) 
Cc1ccc(-c2ccc3nnc(C)n3n2)cc1

>  <score_type>  (1) 
oracle

>  <origin>  (1) 
adgpu

>  <m_score__min__energy>  (1) 
-7.8399999999999999

>  <m_primary>  (1) 
energy

$$$$
1:0
     RDKit          3D

 38 41  0  0  0  0  0  0  0  0999 V2000
   -1.1134   17.8765  -34.1602 H   0  0  0  0  0  0  0  0  0  0  0  0
   -0.9120   18.9500  -34.2910 C   0  0  0  0  0  0  0  0  0  0  0  0
    0.5600   19.6300  -34.7450 S   0  0  0  0  0  0  0  0  0  0  0  0
   -0.0270   21.2090  -34.6970 C   0  0  0  0  0  0  0  0  0  0  0  0
    0.6380   22.2960  -34.9650 N   0  0  0  0  0  0  0  0  0  0  0  0
    2.0170   22.4120  -35.3580 C   0  0  0  0  0  0  0  0  0  0  0  0
    2.7290   21.3830  -35.5200 O   0  0  0  0  0  0  0  0  0  0  0  0
    2.6090   23.7530  -35.5750 C   0  0  0  0  0  0  0  0  0  0  0  0
    4.0020   23.9090  -35.7090 C   0  0  0  0  0  0  0  0  0  0  0  0
    4.6582   23.0280  -35.6520 H   0  0  0  0  0  0  0  0  0  0  0  0
    4.5570   25.1760  -35.9140 C   0  0  0  0  0  0  0  0  0  0  0  0
    5.6465   25.2872  -36.0173 H   0  0  0  0  0  0  0  0  0  0  0  0
    3.7320   26.3010  -35.9880 C   0  0  0  0  0  0  0  0  0  0  0  0
    4.1715   27.2966  -36.1484 H   0  0  0  0  0  0  0  0  0  0  0  0
    2.3480   26.1600  -35.8580 C   0  0  0  0  0  0  0  0  0  0  0  0
    1.3120   27.5740  -35.9530 Cl  0  0  0  0  0  0  0  0  0  0  0  0
    1.7880   24.8940  -35.6530 C   0  0  0  0  0  0  0  0  0  0  0  0
    0.6976   24.7895  -35.5520 H   0  0  0  0  0  0  0  0  0  0  0  0
   -1.3280   21.2320  -34.3380 N   0  0  0  0  0  0  0  0  0  0  0  0
   -1.8830   22.1140  -34.2720 H   0  0  0  0  0  0  0  0  0  0  0  0
   -1.8340   19.9850  -34.1090 C   0  0  0  0  0  0  0  0  0  0  0  0
   -3.2430   19.7590  -33.6990 C   0  0  0  0  0  0  0  0  0  0  0  0
   -3.9590   20.7630  -33.0250 C   0  0  0  0  0  0  0  0  0  0  0  0
   -3.4717   21.7230  -32.7994 H   0  0  0  0  0  0  0  0  0  0  0  0
   -5.2860   20.5510  -32.6390 C   0  0  0  0  0  0  0  0  0  0  0  0
   -5.8338   21.3472  -32.1137 H   0  0  0  0  0  0  0  0  0  0  0  0
   -5.9270   19.3320  -32.9150 C   0  0  0  0  0  0  0  0  0  0  0  0
   -7.2970   19.1140  -32.5160 N   0  0  0  0  0  0  0  0  0  0  0  0
   -8.3590   19.9200  -32.7050 C   0  0  0  0  0  0  0  0  0  0  0  0
   -8.3167   20.8960  -33.2106 H   0  0  0  0  0  0  0  0  0  0  0  0
   -9.4800   19.3750  -32.1940 N   0  0  0  0  0  0  0  0  0  0  0  0
   -9.1390   18.2090  -31.6670 N   0  0  0  0  0  0  0  0  0  0  0  0
   -7.8170   18.0550  -31.8650 C   0  0  0  0  0  0  0  0  0  0  0  0
   -7.2368   17.1794  -31.5383 H   0  0  0  0  0  0  0  0  0  0  0  0
   -5.2090   18.3270  -33.5880 C   0  0  0  0  0  0  0  0  0  0  0  0
   -5.6958   17.3665  -33.8124 H   0  0  0  0  0  0  0  0  0  0  0  0
   -3.8830   18.5380  -33.9740 C   0  0  0  0  0  0  0  0  0  0  0  0
   -3.3347   17.7413  -34.4980 H   0  0  0  0  0  0  0  0  0  0  0  0
  1  2  1  0
  2  3  1  0
  3  4  1  0
  4  5  2  0
  5  6  1  0
  6  7  2  0
  6  8  1  0
  8  9  2  0
  9 10  1  0
  9 11  1  0
 11 12  1  0
 11 13  2  0
 13 14  1  0
 13 15  1  0
 15 16  1  0
 15 17  2  0
 17 18  1  0
  4 19  1  0
 19 20  1  0
 19 21  1  0
 21 22  1  0
 22 23  2  0
 23 24  1  0
 23 25  1  0
 25 26  1  0
 25 27  2  0
 27 28  1  0
 28 29  1  0
 29 30  1  0
 29 31  2  0
 31 32  1  0
 32 33  2  0
 33 34  1  0
 27 35  1  0
 35 36  1  0
 35 37  2  0
 37 38  1  0
 21  2  2  0
 37 22  1  0
 17  8  1  0
 33 28  1  0
M  END
>  <UniqueID>  (2) 
2

>  <SMILES>  (2) 
O=C(/N=c1/[nH]c(-c2ccc(-n3cnnc3)cc2)cs1)c1cccc(Cl)c1

>  <Energy>  (2) 
117.85587315200313

>  <Genealogy>  (2) 
O=C(/N=c1/[nH]c(-c2ccc(-n3cnnc3)cc2)cs1)c1cccc(Cl)c1 (cis-trans isomerization)
O=C(/N=c1/[nH]c(-c2ccc(-n3cnnc3)cc2)cs1)c1cccc(Cl)c1 (3D coordinates assigned)
O=C(/N=c1/[nH]c(-c2ccc(-n3cnnc3)cc2)cs1)c1cccc(Cl)c1 (optimized conformer: 117.85587315200313 kcal/mol)

>  <smiles>  (2) 
O=C(N=c1[nH]c(-c2ccc(-n3cnnc3)cc2)cs1)c1cccc(Cl)c1

>  <score_type>  (2) 
oracle

>  <origin>  (2) 
adgpu

>  <m_score__min__energy>  (2) 
-9.25

>  <m_primary>  (2) 
energy

$$$$
2:0
     RDKit          3D

 37 38  0  0  0  0  0  0  0  0999 V2000
   -5.7260   18.5780  -31.2600 C   0  0  0  0  0  0  0  0  0  0  0  0
   -4.8640   19.7080  -31.7510 C   0  0  0  0  0  0  0  0  0  0  0  0
   -4.5960   20.8020  -30.9110 C   0  0  0  0  0  0  0  0  0  0  0  0
   -3.8080   21.8700  -31.3540 C   0  0  0  0  0  0  0  0  0  0  0  0
   -3.5560   22.9560  -30.4520 N   0  0  0  0  0  0  0  0  0  0  0  0
   -4.3000   24.1770  -30.3530 C   0  0  0  0  0  0  0  0  0  0  0  0
   -3.7650   25.2810  -30.6450 O   0  0  0  0  0  0  0  0  0  0  0  0
   -5.7720   24.1110  -30.0320 C   0  0  1  0  0  0  0  0  0  0  0  0
   -6.1700   25.2430  -29.1860 N   0  0  0  0  0  0  0  0  0  0  0  0
   -6.6120   24.0810  -31.3280 C   0  0  0  0  0  0  0  0  0  0  0  0
   -7.2820   22.7440  -31.5250 C   0  0  0  0  0  0  0  0  0  0  0  0
   -8.2620   22.2980  -30.6210 C   0  0  0  0  0  0  0  0  0  0  0  0
   -8.9220   21.0860  -30.8390 C   0  0  0  0  0  0  0  0  0  0  0  0
   -8.6140   20.3120  -31.9600 C   0  0  0  0  0  0  0  0  0  0  0  0
   -7.6450   20.7500  -32.8670 C   0  0  0  0  0  0  0  0  0  0  0  0
   -6.9830   21.9630  -32.6540 C   0  0  0  0  0  0  0  0  0  0  0  0
   -3.2490   21.8260  -32.6420 C   0  0  0  0  0  0  0  0  0  0  0  0
   -3.5080   20.7430  -33.4830 C   0  0  0  0  0  0  0  0  0  0  0  0
   -4.3150   19.6850  -33.0500 C   0  0  0  0  0  0  0  0  0  0  0  0
   -4.6310   18.2270  -34.2560 Br  0  0  0  0  0  0  0  0  0  0  0  0
   -5.7308   18.5717  -30.1600 H   0  0  0  0  0  0  0  0  0  0  0  0
   -6.7530   18.7126  -31.6304 H   0  0  0  0  0  0  0  0  0  0  0  0
   -5.3248   17.6231  -31.6304 H   0  0  0  0  0  0  0  0  0  0  0  0
   -5.0109   20.8191  -29.8924 H   0  0  0  0  0  0  0  0  0  0  0  0
   -5.9605   23.1809  -29.4758 H   0  0  0  0  0  0  0  0  0  0  0  0
   -6.4390   24.9160  -28.2290 H   0  0  0  0  0  0  0  0  0  0  0  0
   -6.9790   25.7450  -29.6200 H   0  0  0  0  0  0  0  0  0  0  0  0
   -5.3740   25.9180  -29.1030 H   0  0  0  0  0  0  0  0  0  0  0  0
   -7.3843   24.8623  -31.2710 H   0  0  0  0  0  0  0  0  0  0  0  0
   -5.9376   24.2564  -32.1791 H   0  0  0  0  0  0  0  0  0  0  0  0
   -8.5102   22.9058  -29.7384 H   0  0  0  0  0  0  0  0  0  0  0  0
   -9.6856   20.7408  -30.1264 H   0  0  0  0  0  0  0  0  0  0  0  0
   -9.1341   19.3576  -32.1291 H   0  0  0  0  0  0  0  0  0  0  0  0
   -7.4029   20.1397  -33.7495 H   0  0  0  0  0  0  0  0  0  0  0  0
   -6.2251   22.3072  -33.3732 H   0  0  0  0  0  0  0  0  0  0  0  0
   -2.6052   22.6478  -32.9887 H   0  0  0  0  0  0  0  0  0  0  0  0
   -3.0746   20.7208  -34.4938 H   0  0  0  0  0  0  0  0  0  0  0  0
  1  2  1  0
  2  3  2  0
  3  4  1  0
  4  5  1  0
  5  6  1  0
  6  7  2  0
  6  8  1  0
  8  9  1  0
  8 10  1  0
 10 11  1  0
 11 12  2  0
 12 13  1  0
 13 14  2  0
 14 15  1  0
 15 16  2  0
  4 17  2  0
 17 18  1  0
 18 19  2  0
 19 20  1  0
 19  2  1  0
 16 11  1  0
  1 21  1  0
  1 22  1  0
  1 23  1  0
  3 24  1  0
  8 25  1  1
  9 26  1  0
  9 27  1  0
  9 28  1  0
 10 29  1  0
 10 30  1  0
 12 31  1  0
 13 32  1  0
 14 33  1  0
 15 34  1  0
 16 35  1  0
 17 36  1  0
 18 37  1  0
M  CHG  2   5  -1   9   1
M  END
>  <UniqueID>  (3) 
3

>  <SMILES>  (3) 
Cc1cc([N-]C(=O)[C@@H]([NH3+])Cc2ccccc2)ccc1Br

>  <Energy>  (3) 
37.187344209298445

>  <Genealogy>  (3) 
Cc1cc([N-]C(=O)C([NH3+])Cc2ccccc2)ccc1Br (protonated)
Cc1cc([N-]C(=O)[C@@H]([NH3+])Cc2ccccc2)ccc1Br (chirality)
Cc1cc([N-]C(=O)[C@@H]([NH3+])Cc2ccccc2)ccc1Br (3D coordinates assigned)
Cc1cc([N-]C(=O)[C@@H]([NH3+])Cc2ccccc2)ccc1Br (optimized conformer: 37.187344209298445 kcal/mol)

>  <smiles>  (3) 
Cc1cc(NC(=O)C(N)Cc2ccccc2)ccc1Br

>  <score_type>  (3) 
oracle

>  <origin>  (3) 
adgpu

>  <m_score__min__energy>  (3) 
-9.4900000000000002

>  <m_primary>  (3) 
energy

$$$$
3:0
     RDKit          3D

 20 21  0  0  0  0  0  0  0  0999 V2000
   -3.8620   25.3000  -30.7890 O   0  0  0  0  0  0  0  0  0  0  0  0
   -4.8810   24.5620  -30.8470 C   0  0  0  0  0  0  0  0  0  0  0  0
   -4.8420   23.4090  -31.5620 N   0  0  0  0  0  0  0  0  0  0  0  0
   -5.9210   22.5810  -31.6520 C   0  0  0  0  0  0  0  0  0  0  0  0
   -5.8010   21.3250  -32.4590 C   0  0  0  0  0  0  0  0  0  0  0  0
   -6.9440   20.5320  -32.6900 C   0  0  0  0  0  0  0  0  0  0  0  0
   -6.8580   19.3580  -33.4390 C   0  0  0  0  0  0  0  0  0  0  0  0
   -5.6270   18.9710  -33.9600 C   0  0  0  0  0  0  0  0  0  0  0  0
   -4.5270   19.7330  -33.7380 N   0  0  0  0  0  0  0  0  0  0  0  0
   -4.5800   20.8820  -33.0130 C   0  0  0  0  0  0  0  0  0  0  0  0
   -7.0750   22.9270  -31.0000 N   0  0  0  0  0  0  0  0  0  0  0  0
   -7.1510   24.0750  -30.2740 C   0  0  0  0  0  0  0  0  0  0  0  0
   -6.0500   24.9210  -30.1820 C   0  0  0  0  0  0  0  0  0  0  0  0
   -6.1210   26.0680  -29.4580 F   0  0  0  0  0  0  0  0  0  0  0  0
   -7.9143   20.8425  -32.2750 H   0  0  0  0  0  0  0  0  0  0  0  0
   -7.7539   18.7447  -33.6158 H   0  0  0  0  0  0  0  0  0  0  0  0
   -5.5460   18.0473  -34.5518 H   0  0  0  0  0  0  0  0  0  0  0  0
   -3.6644   21.4712  -32.8568 H   0  0  0  0  0  0  0  0  0  0  0  0
   -7.9290   22.3350  -31.0320 H   0  0  0  0  0  0  0  0  0  0  0  0
   -8.0866   24.3356  -29.7576 H   0  0  0  0  0  0  0  0  0  0  0  0
  1  2  2  0
  2  3  1  0
  3  4  2  0
  4  5  1  0
  5  6  2  0
  6  7  1  0
  7  8  2  0
  8  9  1  0
  9 10  2  0
  4 11  1  0
 11 12  1  0
 12 13  2  0
 13 14  1  0
 13  2  1  0
 10  5  1  0
  6 15  1  0
  7 16  1  0
  8 17  1  0
 10 18  1  0
 11 19  1  0
 12 20  1  0
M  END
>  <UniqueID>  (4) 
4

>  <SMILES>  (4) 
O=c1nc(-c2cccnc2)[nH]cc1F

>  <Energy>  (4) 
26.97397923687729

>  <Genealogy>  (4) 
O=c1nc(-c2cccnc2)[nH]cc1F (3D coordinates assigned)
O=c1nc(-c2cccnc2)[nH]cc1F (optimized conformer: 26.97397923687729 kcal/mol)

>  <smiles>  (4) 
O=c1nc(-c2cccnc2)[nH]cc1F

>  <score_type>  (4) 
oracle

>  <origin>  (4) 
adgpu

>  <m_score__min__energy>  (4) 
-5.7999999999999998

>  <m_primary>  (4) 
energy

$$$$
4:0
     RDKit          3D

 45 47  0  0  0  0  0  0  0  0999 V2000
   -6.1380   25.4820  -29.1260 N   0  0  0  0  0  0  0  0  0  0  0  0
   -5.0910   24.3500  -29.9130 S   0  0  0  0  0  0  0  0  0  0  0  0
   -5.8920   23.1460  -30.3220 O   0  0  0  0  0  0  0  0  0  0  0  0
   -4.5320   25.0160  -31.1390 O   0  0  0  0  0  0  0  0  0  0  0  0
   -3.7690   23.8450  -28.8420 C   0  0  0  0  0  0  0  0  0  0  0  0
   -3.5770   24.5250  -27.6280 C   0  0  0  0  0  0  0  0  0  0  0  0
   -2.5190   24.1890  -26.7820 C   0  0  0  0  0  0  0  0  0  0  0  0
   -1.6380   23.1690  -27.1340 C   0  0  0  0  0  0  0  0  0  0  0  0
   -1.8210   22.4700  -28.3280 C   0  0  0  0  0  0  0  0  0  0  0  0
   -2.8890   22.7860  -29.1840 C   0  0  0  0  0  0  0  0  0  0  0  0
   -3.0590   21.9850  -30.4140 C   0  0  0  0  0  0  0  0  0  0  0  0
   -2.2790   22.2610  -31.5460 C   0  0  0  0  0  0  0  0  0  0  0  0
   -2.4310   21.5000  -32.7080 C   0  0  0  0  0  0  0  0  0  0  0  0
   -3.3610   20.4430  -32.7540 C   0  0  0  0  0  0  0  0  0  0  0  0
   -3.5420   19.6420  -33.9370 N   0  0  0  0  0  0  0  0  0  0  0  0
   -4.2810   18.3770  -33.9430 C   0  0  0  0  0  0  0  0  0  0  0  0
   -5.6840   18.5660  -34.5290 C   0  0  0  0  0  0  0  0  0  0  0  0
   -6.6430   19.0350  -33.4680 C   0  0  0  0  0  0  0  0  0  0  0  0
   -6.8870   20.4070  -33.2900 C   0  0  0  0  0  0  0  0  0  0  0  0
   -7.8030   20.8400  -32.3260 C   0  0  0  0  0  0  0  0  0  0  0  0
   -8.4860   19.9070  -31.5400 C   0  0  0  0  0  0  0  0  0  0  0  0
   -8.2590   18.5410  -31.7210 C   0  0  0  0  0  0  0  0  0  0  0  0
   -7.3430   18.1040  -32.6840 C   0  0  0  0  0  0  0  0  0  0  0  0
   -4.1260   20.1640  -31.6110 C   0  0  0  0  0  0  0  0  0  0  0  0
   -3.9740   20.9240  -30.4490 C   0  0  0  0  0  0  0  0  0  0  0  0
   -5.5570   26.3030  -28.8440 H   0  0  0  0  0  0  0  0  0  0  0  0
   -6.4940   25.0320  -28.2540 H   0  0  0  0  0  0  0  0  0  0  0  0
   -4.2681   25.3312  -27.3409 H   0  0  0  0  0  0  0  0  0  0  0  0
   -2.3805   24.7310  -25.8349 H   0  0  0  0  0  0  0  0  0  0  0  0
   -0.7981   22.9145  -26.4709 H   0  0  0  0  0  0  0  0  0  0  0  0
   -1.1230   21.6648  -28.6011 H   0  0  0  0  0  0  0  0  0  0  0  0
   -1.5447   23.0796  -31.5192 H   0  0  0  0  0  0  0  0  0  0  0  0
   -1.8197   21.7281  -33.5936 H   0  0  0  0  0  0  0  0  0  0  0  0
   -3.1200   19.9830  -34.8310 H   0  0  0  0  0  0  0  0  0  0  0  0
   -3.7327   17.6425  -34.5511 H   0  0  0  0  0  0  0  0  0  0  0  0
   -4.3781   18.0218  -32.9064 H   0  0  0  0  0  0  0  0  0  0  0  0
   -5.6416   19.3143  -35.3342 H   0  0  0  0  0  0  0  0  0  0  0  0
   -6.0361   17.6015  -34.9237 H   0  0  0  0  0  0  0  0  0  0  0  0
   -6.3557   21.1433  -33.9110 H   0  0  0  0  0  0  0  0  0  0  0  0
   -7.9863   21.9156  -32.1860 H   0  0  0  0  0  0  0  0  0  0  0  0
   -9.2025   20.2491  -30.7787 H   0  0  0  0  0  0  0  0  0  0  0  0
   -8.8010   17.8078  -31.1057 H   0  0  0  0  0  0  0  0  0  0  0  0
   -7.1706   17.0271  -32.8275 H   0  0  0  0  0  0  0  0  0  0  0  0
   -4.8527   19.3384  -31.6304 H   0  0  0  0  0  0  0  0  0  0  0  0
   -4.5747   20.6889  -29.5580 H   0  0  0  0  0  0  0  0  0  0  0  0
  1  2  1  0
  2  3  2  0
  2  4  2  0
  2  5  1  0
  5  6  2  0
  6  7  1  0
  7  8  2  0
  8  9  1  0
  9 10  2  0
 10 11  1  0
 11 12  2  0
 12 13  1  0
 13 14  2  0
 14 15  1  0
 15 16  1  0
 16 17  1  0
 17 18  1  0
 18 19  2  0
 19 20  1  0
 20 21  2  0
 21 22  1  0
 22 23  2  0
 14 24  1  0
 24 25  2  0
 10  5  1  0
 25 11  1  0
 23 18  1  0
  1 26  1  0
  1 27  1  0
  6 28  1  0
  7 29  1  0
  8 30  1  0
  9 31  1  0
 12 32  1  0
 13 33  1  0
 15 34  1  0
 16 35  1  0
 16 36  1  0
 17 37  1  0
 17 38  1  0
 19 39  1  0
 20 40  1  0
 21 41  1  0
 22 42  1  0
 23 43  1  0
 24 44  1  0
 25 45  1  0
M  END
>  <UniqueID>  (5) 
5

>  <SMILES>  (5) 
NS(=O)(=O)c1ccccc1-c1ccc(NCCc2ccccc2)cc1

>  <Energy>  (5) 
51.91724862481758

>  <Genealogy>  (5) 
NS(=O)(=O)c1ccccc1-c1ccc(NCCc2ccccc2)cc1 (3D coordinates assigned)
NS(=O)(=O)c1ccccc1-c1ccc(NCCc2ccccc2)cc1 (optimized conformer: 51.91724862481758 kcal/mol)

>  <smiles>  (5) 
NS(=O)(=O)c1ccccc1-c1ccc(NCCc2ccccc2)cc1

>  <score_type>  (5) 
oracle

>  <origin>  (5) 
adgpu

>  <m_score__min__energy>  (5) 
-9.3100000000000005

>  <m_primary>  (5) 
energy

$$$$
5:0
     RDKit          3D

 50 52  0  0  0  0  0  0  0  0999 V2000
   -9.1280   20.5190  -32.6930 C   0  0  0  0  0  0  0  0  0  0  0  0
   -9.0070   21.2340  -31.4670 O   0  0  0  0  0  0  0  0  0  0  0  0
   -8.0290   22.2070  -31.2120 C   0  0  0  0  0  0  0  0  0  0  0  0
   -7.5750   22.4980  -29.9120 C   0  0  0  0  0  0  0  0  0  0  0  0
   -6.6040   23.4820  -29.7090 C   0  0  0  0  0  0  0  0  0  0  0  0
   -6.0590   24.1830  -30.7990 C   0  0  0  0  0  0  0  0  0  0  0  0
   -5.0320   25.2330  -30.5950 C   0  0  0  0  0  0  0  0  0  0  0  0
   -5.3920   26.4360  -30.4900 O   0  0  0  0  0  0  0  0  0  0  0  0
   -3.6380   24.9200  -30.4580 N   0  0  0  0  0  0  0  0  0  0  0  0
   -3.0600   23.6060  -30.4670 C   0  0  0  0  0  0  0  0  0  0  0  0
   -2.2720   23.2050  -29.3820 C   0  0  0  0  0  0  0  0  0  0  0  0
   -1.6900   21.9340  -29.3640 C   0  0  0  0  0  0  0  0  0  0  0  0
   -1.8800   21.0610  -30.4370 C   0  0  0  0  0  0  0  0  0  0  0  0
   -2.6490   21.4570  -31.5380 C   0  0  0  0  0  0  0  0  0  0  0  0
   -2.8410   20.3680  -32.9070 S   0  0  0  0  0  0  0  0  0  0  0  0
   -1.9240   20.7890  -34.0210 O   0  0  0  0  0  0  0  0  0  0  0  0
   -2.4850   18.9620  -32.5070 O   0  0  0  0  0  0  0  0  0  0  0  0
   -4.4890   20.4080  -33.4360 N   0  0  0  0  0  0  0  0  0  0  0  0
   -5.3880   19.3690  -33.0350 C   0  0  0  0  0  0  0  0  0  0  0  0
   -6.1370   19.5470  -31.8660 C   0  0  0  0  0  0  0  0  0  0  0  0
   -7.0580   18.5830  -31.4640 C   0  0  0  0  0  0  0  0  0  0  0  0
   -7.2460   17.4320  -32.2280 C   0  0  0  0  0  0  0  0  0  0  0  0
   -6.5030   17.2240  -33.4020 C   0  0  0  0  0  0  0  0  0  0  0  0
   -6.7260   15.9590  -34.1900 C   0  0  0  0  0  0  0  0  0  0  0  0
   -5.5360   18.1850  -33.7980 C   0  0  0  0  0  0  0  0  0  0  0  0
   -4.6820   17.9470  -35.0220 C   0  0  0  0  0  0  0  0  0  0  0  0
   -3.2240   22.7360  -31.5600 C   0  0  0  0  0  0  0  0  0  0  0  0
   -6.5240   23.8980  -32.0930 C   0  0  0  0  0  0  0  0  0  0  0  0
   -7.4970   22.9150  -32.2960 C   0  0  0  0  0  0  0  0  0  0  0  0
   -9.3081   19.4548  -32.4806 H   0  0  0  0  0  0  0  0  0  0  0  0
   -9.9702   20.9249  -33.2726 H   0  0  0  0  0  0  0  0  0  0  0  0
   -8.1991   20.6251  -33.2726 H   0  0  0  0  0  0  0  0  0  0  0  0
   -7.9862   21.9486  -29.0523 H   0  0  0  0  0  0  0  0  0  0  0  0
   -6.2633   23.7100  -28.6882 H   0  0  0  0  0  0  0  0  0  0  0  0
   -2.1098   23.8932  -28.5394 H   0  0  0  0  0  0  0  0  0  0  0  0
   -1.0812   21.6211  -28.5029 H   0  0  0  0  0  0  0  0  0  0  0  0
   -1.4245   20.0599  -30.4173 H   0  0  0  0  0  0  0  0  0  0  0  0
   -4.6790   20.9010  -34.3370 H   0  0  0  0  0  0  0  0  0  0  0  0
   -5.9971   20.4547  -31.2606 H   0  0  0  0  0  0  0  0  0  0  0  0
   -7.6386   18.7300  -30.5414 H   0  0  0  0  0  0  0  0  0  0  0  0
   -7.9826   16.6801  -31.9087 H   0  0  0  0  0  0  0  0  0  0  0  0
   -6.8744   15.1171  -33.4977 H   0  0  0  0  0  0  0  0  0  0  0  0
   -7.6177   16.0742  -34.8237 H   0  0  0  0  0  0  0  0  0  0  0  0
   -5.8487   15.7623  -34.8237 H   0  0  0  0  0  0  0  0  0  0  0  0
   -3.6657   17.6638  -34.7106 H   0  0  0  0  0  0  0  0  0  0  0  0
   -5.1205   17.1368  -35.6231 H   0  0  0  0  0  0  0  0  0  0  0  0
   -4.6382   18.8672  -35.6231 H   0  0  0  0  0  0  0  0  0  0  0  0
   -3.8056   23.0601  -32.4356 H   0  0  0  0  0  0  0  0  0  0  0  0
   -6.1198   24.4521  -32.9530 H   0  0  0  0  0  0  0  0  0  0  0  0
   -7.8473   22.6962  -33.3155 H   0  0  0  0  0  0  0  0  0  0  0  0
  1  2  1  0
  2  3  1  0
  3  4  2  0
  4  5  1  0
  5  6  2  0
  6  7  1  0
  7  8  2  0
  7  9  1  0
  9 10  1  0
 10 11  2  0
 11 12  1  0
 12 13  2  0
 13 14  1  0
 14 15  1  0
 15 16  2  0
 15 17  2  0
 15 18  1  0
 18 19  1  0
 19 20  2  0
 20 21  1  0
 21 22  2  0
 22 23  1  0
 23 24  1  0
 23 25  2  0
 25 26  1  0
 14 27  2  0
  6 28  1  0
 28 29  2  0
 29  3  1  0
 27 10  1  0
 25 19  1  0
  1 30  1  0
  1 31  1  0
  1 32  1  0
  4 33  1  0
  5 34  1  0
 11 35  1  0
 12 36  1  0
 13 37  1  0
 18 38  1  0
 20 39  1  0
 21 40  1  0
 22 41  1  0
 24 42  1  0
 24 43  1  0
 24 44  1  0
 26 45  1  0
 26 46  1  0
 26 47  1  0
 27 48  1  0
 28 49  1  0
 29 50  1  0
M  CHG  1   9  -1
M  END
>  <UniqueID>  (6) 
6

>  <SMILES>  (6) 
COc1ccc(C(=O)[N-]c2cccc(S(=O)(=O)Nc3cccc(C)c3C)c2)cc1

>  <Energy>  (6) 
67.00554298991133

>  <Genealogy>  (6) 
COc1ccc(C(=O)[N-]c2cccc(S(=O)(=O)Nc3cccc(C)c3C)c2)cc1 (protonated)
COc1ccc(C(=O)[N-]c2cccc(S(=O)(=O)Nc3cccc(C)c3C)c2)cc1 (3D coordinates assigned)
COc1ccc(C(=O)[N-]c2cccc(S(=O)(=O)Nc3cccc(C)c3C)c2)cc1 (optimized conformer: 67.00554298991133 kcal/mol)

>  <smiles>  (6) 
COc1ccc(C(=O)Nc2cccc(S(=O)(=O)Nc3cccc(C)c3C)c2)cc1

>  <score_type>  (6) 
oracle

>  <origin>  (6) 
adgpu

>  <m_score__min__energy>  (6) 
-11.68

>  <m_primary>  (6) 
energy

$$$$
6:0
     RDKit          3D

 52 55  0  0  0  0  0  0  0  0999 V2000
   -5.8649   25.9674  -30.9427 H   0  0  0  0  0  0  0  0  0  0  0  0
   -5.3080   25.0240  -30.8440 C   0  0  0  0  0  0  0  0  0  0  0  0
   -4.3010   24.9220  -29.9410 N   0  0  0  0  0  0  0  0  0  0  0  0
   -3.5920   23.7680  -29.8040 C   0  0  0  0  0  0  0  0  0  0  0  0
   -2.6440   23.6560  -28.9200 N   0  0  0  0  0  0  0  0  0  0  0  0
   -2.1400   24.6890  -28.0570 C   0  0  0  0  0  0  0  0  0  0  0  0
   -2.5980   24.8490  -26.7350 C   0  0  0  0  0  0  0  0  0  0  0  0
   -3.3446   24.1526  -26.3255 H   0  0  0  0  0  0  0  0  0  0  0  0
   -2.1070   25.8900  -25.9410 C   0  0  0  0  0  0  0  0  0  0  0  0
   -2.4568   26.0014  -24.9041 H   0  0  0  0  0  0  0  0  0  0  0  0
   -1.1730   26.7890  -26.4620 C   0  0  0  0  0  0  0  0  0  0  0  0
   -0.7803   27.6011  -25.8325 H   0  0  0  0  0  0  0  0  0  0  0  0
   -0.7380   26.6560  -27.7830 C   0  0  0  0  0  0  0  0  0  0  0  0
   -0.0098   27.3696  -28.1959 H   0  0  0  0  0  0  0  0  0  0  0  0
   -1.2270   25.6170  -28.5810 C   0  0  0  0  0  0  0  0  0  0  0  0
   -0.8941   25.5266  -29.6255 H   0  0  0  0  0  0  0  0  0  0  0  0
   -3.9090   22.6940  -30.5730 N   0  0  0  0  0  0  0  0  0  0  0  0
   -4.9070   22.7430  -31.5000 C   0  0  0  0  0  0  0  0  0  0  0  0
   -5.2070   21.5350  -32.3120 C   0  0  0  0  0  0  0  0  0  0  0  0
   -6.5280   21.1990  -32.6610 C   0  0  0  0  0  0  0  0  0  0  0  0
   -7.3593   21.8407  -32.3337 H   0  0  0  0  0  0  0  0  0  0  0  0
   -6.7910   20.0580  -33.4190 C   0  0  0  0  0  0  0  0  0  0  0  0
   -7.8287   19.8101  -33.6869 H   0  0  0  0  0  0  0  0  0  0  0  0
   -5.7500   19.2260  -33.8420 C   0  0  0  0  0  0  0  0  0  0  0  0
   -6.0820   18.0520  -34.5950 N   0  0  0  0  0  0  0  0  0  0  0  0
   -6.1790   16.7370  -34.0410 C   0  0  0  0  0  0  0  0  0  0  0  0
   -7.2190   16.0600  -34.2540 O   0  0  0  0  0  0  0  0  0  0  0  0
   -5.1410   16.2220  -33.1910 N   0  0  0  0  0  0  0  0  0  0  0  0
   -4.5170   16.9090  -32.7110 H   0  0  0  0  0  0  0  0  0  0  0  0
   -4.9620   14.8260  -32.9000 C   0  0  0  0  0  0  0  0  0  0  0  0
   -4.6260   14.4330  -31.5960 C   0  0  0  0  0  0  0  0  0  0  0  0
   -4.5296   15.1908  -30.8046 H   0  0  0  0  0  0  0  0  0  0  0  0
   -4.4130   13.0850  -31.2960 C   0  0  0  0  0  0  0  0  0  0  0  0
   -4.1582   12.7848  -30.2689 H   0  0  0  0  0  0  0  0  0  0  0  0
   -4.5230   12.1180  -32.2980 C   0  0  0  0  0  0  0  0  0  0  0  0
   -4.3508   11.0584  -32.0582 H   0  0  0  0  0  0  0  0  0  0  0  0
   -4.8520   12.4930  -33.6080 C   0  0  0  0  0  0  0  0  0  0  0  0
   -4.9110   11.4620  -34.6960 C   0  0  0  0  0  0  0  0  0  0  0  0
   -4.9684   10.4590  -34.2480 H   0  0  0  0  0  0  0  0  0  0  0  0
   -5.8006   11.6368  -35.3189 H   0  0  0  0  0  0  0  0  0  0  0  0
   -4.0073   11.5342  -35.3189 H   0  0  0  0  0  0  0  0  0  0  0  0
   -5.0490   13.8500  -33.9100 C   0  0  0  0  0  0  0  0  0  0  0  0
   -5.2730   14.1524  -34.9436 H   0  0  0  0  0  0  0  0  0  0  0  0
   -4.4110   19.5860  -33.5580 C   0  0  0  0  0  0  0  0  0  0  0  0
   -3.2450   18.7810  -34.0670 C   0  0  0  0  0  0  0  0  0  0  0  0
   -2.6725   18.3857  -33.2149 H   0  0  0  0  0  0  0  0  0  0  0  0
   -3.6156   17.9454  -34.6790 H   0  0  0  0  0  0  0  0  0  0  0  0
   -2.5950   19.4237  -34.6790 H   0  0  0  0  0  0  0  0  0  0  0  0
   -4.1570   20.7240  -32.7760 C   0  0  0  0  0  0  0  0  0  0  0  0
   -3.1190   20.9852  -32.5222 H   0  0  0  0  0  0  0  0  0  0  0  0
   -5.6370   23.9330  -31.6470 C   0  0  0  0  0  0  0  0  0  0  0  0
   -6.4528   24.0032  -32.3815 H   0  0  0  0  0  0  0  0  0  0  0  0
  1  2  1  0
  2  3  1  0
  3  4  1  0
  4  5  2  0
  5  6  1  0
  6  7  2  0
  7  8  1  0
  7  9  1  0
  9 10  1  0
  9 11  2  0
 11 12  1  0
 11 13  1  0
 13 14  1  0
 13 15  2  0
 15 16  1  0
  4 17  1  0
 17 18  2  0
 18 19  1  0
 19 20  2  0
 20 21  1  0
 20 22  1  0
 22 23  1  0
 22 24  2  0
 24 25  1  0
 25 26  1  0
 26 27  2  0
 26 28  1  0
 28 29  1  0
 28 30  1  0
 30 31  2  0
 31 32  1  0
 31 33  1  0
 33 34  1  0
 33 35  2  0
 35 36  1  0
 35 37  1  0
 37 38  1  0
 38 39  1  0
 38 40  1  0
 38 41  1  0
 37 42  2  0
 42 43  1  0
 24 44  1  0
 44 45  1  0
 45 46  1  0
 45 47  1  0
 45 48  1  0
 44 49  2  0
 49 50  1  0
 18 51  1  0
 51 52  1  0
 51  2  2  0
 15  6  1  0
 49 19  1  0
 42 30  1  0
M  CHG  2   3  -1  25  -1
M  END
>  <UniqueID>  (7) 
7

>  <SMILES>  (7) 
Cc1cccc(NC(=O)[N-]c2ccc(-c3cc[n-]/c(=N\c4ccccc4)n3)cc2C)c1

>  <Energy>  (7) 
76.27572240334797

>  <Genealogy>  (7) 
Cc1cccc(NC(=O)[N-]c2ccc(-c3cc[n-]c(=Nc4ccccc4)n3)cc2C)c1 (protonated)
Cc1cccc(NC(=O)[N-]c2ccc(-c3cc[n-]/c(=N\c4ccccc4)n3)cc2C)c1 (cis-trans isomerization)
Cc1cccc(NC(=O)[N-]c2ccc(-c3cc[n-]/c(=N\c4ccccc4)n3)cc2C)c1 (3D coordinates assigned)
Cc1cccc(NC(=O)[N-]c2ccc(-c3cc[n-]/c(=N\c4ccccc4)n3)cc2C)c1 (optimized conformer: 76.27572240334797 kcal/mol)

>  <smiles>  (7) 
Cc1cccc(NC(=O)Nc2ccc(-c3cc[nH]c(=Nc4ccccc4)n3)cc2C)c1

>  <score_type>  (7) 
oracle

>  <origin>  (7) 
adgpu

>  <m_score__min__energy>  (7) 
-11.16

>  <m_primary>  (7) 
energy

$$$$
7:0
     RDKit          3D

 68 70  0  0  1  0  0  0  0  0999 V2000
   -0.0750   23.3030  -24.7890 C   0  0  0  0  0  0  0  0  0  0  0  0
    0.8870   24.4410  -24.9810 C   0  0  0  0  0  0  0  0  0  0  0  0
    0.6220   25.6290  -24.0970 C   0  0  0  0  0  0  0  0  0  0  0  0
    0.8750   26.8970  -24.6320 N   0  0  0  0  0  0  0  0  0  0  0  0
    1.8490   27.6650  -24.0260 C   0  0  0  0  0  0  0  0  0  0  0  0
    1.4260   28.3080  -22.7070 C   0  0  0  0  0  0  0  0  0  0  0  0
    1.8120   29.7680  -22.7720 C   0  0  0  0  0  0  0  0  0  0  0  0
   -0.2880   27.5180  -25.6370 S   0  0  0  0  0  0  0  0  0  0  0  0
   -1.1920   28.5460  -24.9500 O   0  0  0  0  0  0  0  0  0  0  0  0
    0.4200   28.3540  -26.7080 O   0  0  0  0  0  0  0  0  0  0  0  0
   -1.2690   26.3600  -26.5060 C   0  0  0  0  0  0  0  0  0  0  0  0
   -0.8760   26.0670  -27.8060 C   0  0  0  0  0  0  0  0  0  0  0  0
   -1.5960   25.1530  -28.5450 C   0  0  0  0  0  0  0  0  0  0  0  0
   -2.7000   24.5180  -28.0270 C   0  0  0  0  0  0  0  0  0  0  0  0
   -3.4790   23.5490  -28.7870 C   0  0  0  0  0  0  0  0  0  0  0  0
   -3.9910   22.5340  -28.2260 O   0  0  0  0  0  0  0  0  0  0  0  0
   -3.7120   23.6750  -30.1830 N   0  0  0  0  0  0  0  0  0  0  0  0
   -4.4710   22.7330  -30.9360 C   0  0  0  0  0  0  0  0  0  0  0  0
   -3.9010   21.9630  -31.9410 C   0  0  0  0  0  0  0  0  0  0  0  0
   -4.7000   21.0570  -32.6390 C   0  0  0  0  0  0  0  0  0  0  0  0
   -6.0460   20.9590  -32.3000 C   0  0  0  0  0  0  0  0  0  0  0  0
   -7.1160   19.8360  -33.1350 S   0  0  0  0  0  0  0  0  0  0  0  0
   -8.5380   20.2280  -32.9290 O   0  0  0  0  0  0  0  0  0  0  0  0
   -6.8080   19.8960  -34.5880 O   0  0  0  0  0  0  0  0  0  0  0  0
   -6.8910   18.2310  -32.5340 N   0  0  0  0  0  0  0  0  0  0  0  0
   -5.8120   17.5720  -32.7880 C   0  0  0  0  0  0  0  0  0  0  0  0
   -5.7340   16.2930  -32.2570 C   0  0  0  0  0  0  0  0  0  0  0  0
   -4.5860   15.5760  -32.5210 C   0  0  0  0  0  0  0  0  0  0  0  0
   -4.4620   14.1860  -31.9640 C   0  0  0  0  0  0  0  0  0  0  0  0
   -3.5820   16.1090  -33.2660 N   0  0  0  0  0  0  0  0  0  0  0  0
   -3.7130   17.3670  -33.7590 C   0  0  0  0  0  0  0  0  0  0  0  0
   -2.5810   17.9180  -34.5790 C   0  0  0  0  0  0  0  0  0  0  0  0
   -4.8280   18.1030  -33.5220 N   0  0  0  0  0  0  0  0  0  0  0  0
   -6.6040   21.7320  -31.2960 C   0  0  0  0  0  0  0  0  0  0  0  0
   -5.8160   22.6280  -30.6040 C   0  0  0  0  0  0  0  0  0  0  0  0
   -3.0670   24.8230  -26.7450 C   0  0  0  0  0  0  0  0  0  0  0  0
   -2.3720   25.7420  -25.9560 C   0  0  0  0  0  0  0  0  0  0  0  0
   -0.2242   23.1265  -23.7136 H   0  0  0  0  0  0  0  0  0  0  0  0
   -1.0385   23.5545  -25.2564 H   0  0  0  0  0  0  0  0  0  0  0  0
    0.3334   22.3948  -25.2564 H   0  0  0  0  0  0  0  0  0  0  0  0
    1.9022   24.0737  -24.7700 H   0  0  0  0  0  0  0  0  0  0  0  0
    0.7653   24.7859  -26.0184 H   0  0  0  0  0  0  0  0  0  0  0  0
   -0.4396   25.5972  -23.8105 H   0  0  0  0  0  0  0  0  0  0  0  0
    1.3347   25.5264  -23.2654 H   0  0  0  0  0  0  0  0  0  0  0  0
    2.7197   27.0220  -23.8300 H   0  0  0  0  0  0  0  0  0  0  0  0
    2.0683   28.4914  -24.7181 H   0  0  0  0  0  0  0  0  0  0  0  0
    0.3383   28.2122  -22.5737 H   0  0  0  0  0  0  0  0  0  0  0  0
    1.9195   27.8131  -21.8576 H   0  0  0  0  0  0  0  0  0  0  0  0
    1.9170   30.1653  -21.7516 H   0  0  0  0  0  0  0  0  0  0  0  0
    2.7682   29.8710  -23.3058 H   0  0  0  0  0  0  0  0  0  0  0  0
    1.0316   30.3302  -23.3058 H   0  0  0  0  0  0  0  0  0  0  0  0
    0.0043   26.5613  -28.2428 H   0  0  0  0  0  0  0  0  0  0  0  0
   -1.2797   24.9262  -29.5739 H   0  0  0  0  0  0  0  0  0  0  0  0
   -3.3240   24.4830  -30.7180 H   0  0  0  0  0  0  0  0  0  0  0  0
   -2.8331   22.0660  -32.1838 H   0  0  0  0  0  0  0  0  0  0  0  0
   -4.2752   20.4338  -33.4398 H   0  0  0  0  0  0  0  0  0  0  0  0
   -6.5503   15.8701  -31.6531 H   0  0  0  0  0  0  0  0  0  0  0  0
   -4.4659   14.2297  -30.8649 H   0  0  0  0  0  0  0  0  0  0  0  0
   -5.3093   13.5755  -32.3097 H   0  0  0  0  0  0  0  0  0  0  0  0
   -3.5201   13.7351  -32.3097 H   0  0  0  0  0  0  0  0  0  0  0  0
   -2.7350   15.5370  -33.4410 H   0  0  0  0  0  0  0  0  0  0  0  0
   -1.7958   18.3002  -33.9101 H   0  0  0  0  0  0  0  0  0  0  0  0
   -2.1661   17.1210  -35.2136 H   0  0  0  0  0  0  0  0  0  0  0  0
   -2.9523   18.7362  -35.2136 H   0  0  0  0  0  0  0  0  0  0  0  0
   -7.6717   21.6320  -31.0511 H   0  0  0  0  0  0  0  0  0  0  0  0
   -6.2449   23.2485  -29.8034 H   0  0  0  0  0  0  0  0  0  0  0  0
   -3.9480   24.3225  -26.3169 H   0  0  0  0  0  0  0  0  0  0  0  0
   -2.6943   25.9657  -24.9283 H   0  0  0  0  0  0  0  0  0  0  0  0
  1  2  1  0
  2  3  1  0
  3  4  1  0
  4  5  1  0
  5  6  1  0
  6  7  1  0
  4  8  1  0
  8  9  2  0
  8 10  2  0
  8 11  1  0
 11 12  2  0
 12 13  1  0
 13 14  2  0
 14 15  1  0
 15 16  2  0
 15 17  1  0
 17 18  1  0
 18 19  2  0
 19 20  1  0
 20 21  2  0
 21 22  1  0
 22 23  2  0
 22 24  2  0
 22 25  1  0
 25 26  2  0
 26 27  1  0
 27 28  2  0
 28 29  1  0
 28 30  1  0
 30 31  1  0
 31 32  1  0
 31 33  2  0
 21 34  1  0
 34 35  2  0
 14 36  1  0
 36 37  2  0
 37 11  1  0
 35 18  1  0
 33 26  1  0
  1 38  1  0
  1 39  1  0
  1 40  1  0
  2 41  1  0
  2 42  1  0
  3 43  1  0
  3 44  1  0
  5 45  1  0
  5 46  1  0
  6 47  1  0
  6 48  1  0
  7 49  1  0
  7 50  1  0
  7 51  1  0
 12 52  1  0
 13 53  1  0
 17 54  1  0
 19 55  1  0
 20 56  1  0
 27 57  1  0
 29 58  1  0
 29 59  1  0
 29 60  1  0
 30 61  1  0
 32 62  1  0
 32 63  1  0
 32 64  1  0
 34 65  1  0
 35 66  1  0
 36 67  1  0
 37 68  1  0
M  END
>  <smiles>  (8) 
CCCN(CCC)S(=O)(=O)c1ccc(C(=O)Nc2ccc(S(=O)(=O)N=c3cc(C)[nH]c(C)n3)cc2)cc1

>  <score_type>  (8) 
oracle

>  <origin>  (8) 
adgpu

>  <m_score__min__energy>  (8) 
-9.6799999999999997

>  <m_primary>  (8) 
energy

$$$$
8:0
     RDKit          3D

 50 51  0  0  0  0  0  0  0  0999 V2000
   -1.4310   25.4490  -26.5380 C   0  0  0  0  0  0  0  0  0  0  0  0
   -0.7250   24.9240  -27.6560 O   0  0  0  0  0  0  0  0  0  0  0  0
   -1.3030   24.1240  -28.6540 C   0  0  0  0  0  0  0  0  0  0  0  0
   -0.7180   22.9240  -29.0870 C   0  0  0  0  0  0  0  0  0  0  0  0
   -1.3240   22.1710  -30.0930 C   0  0  0  0  0  0  0  0  0  0  0  0
   -2.4990   22.6200  -30.7200 C   0  0  0  0  0  0  0  0  0  0  0  0
   -3.1280   21.7850  -31.8200 C   0  0  0  0  0  0  0  0  0  0  0  0
   -4.5530   22.0990  -32.0470 N   0  0  0  0  0  0  0  0  0  0  0  0
   -5.2340   21.1580  -32.9590 C   0  0  0  0  0  0  0  0  0  0  0  0
   -6.5640   20.6740  -32.4290 C   0  0  0  0  0  0  0  0  0  0  0  0
   -7.6780   21.4240  -32.0610 C   0  0  0  0  0  0  0  0  0  0  0  0
   -7.8170   22.9130  -32.0850 C   0  0  0  0  0  0  0  0  0  0  0  0
   -8.6800   20.6020  -31.6890 N   0  0  0  0  0  0  0  0  0  0  0  0
   -8.2600   19.3560  -31.8370 N   0  0  0  0  0  0  0  0  0  0  0  0
   -9.1110   18.1960  -31.6050 C   0  0  0  0  0  0  0  0  0  0  0  0
   -6.9900   19.3610  -32.2960 C   0  0  0  0  0  0  0  0  0  0  0  0
   -6.2890   18.1980  -32.7720 N   0  0  0  0  0  0  0  0  0  0  0  0
   -6.1200   17.9930  -34.2100 C   0  0  0  0  0  0  0  0  0  0  0  0
   -6.0470   17.0640  -31.8840 C   0  0  0  0  0  0  0  0  0  0  0  0
   -3.1200   23.8010  -30.2550 C   0  0  0  0  0  0  0  0  0  0  0  0
   -4.3400   24.2040  -30.8220 O   0  0  0  0  0  0  0  0  0  0  0  0
   -5.4110   24.8040  -30.0990 C   0  0  0  0  0  0  0  0  0  0  0  0
   -2.5070   24.5440  -29.2260 C   0  0  0  0  0  0  0  0  0  0  0  0
   -0.9590   25.0980  -25.6085 H   0  0  0  0  0  0  0  0  0  0  0  0
   -1.4040   26.5482  -26.5705 H   0  0  0  0  0  0  0  0  0  0  0  0
   -2.4759   25.1068  -26.5705 H   0  0  0  0  0  0  0  0  0  0  0  0
    0.2211   22.5762  -28.6318 H   0  0  0  0  0  0  0  0  0  0  0  0
   -0.8766   21.2139  -30.3993 H   0  0  0  0  0  0  0  0  0  0  0  0
   -2.5770   21.9661  -32.7547 H   0  0  0  0  0  0  0  0  0  0  0  0
   -3.0717   20.7329  -31.5040 H   0  0  0  0  0  0  0  0  0  0  0  0
   -5.0620   22.1940  -31.1410 H   0  0  0  0  0  0  0  0  0  0  0  0
   -4.5880   23.0440  -32.4960 H   0  0  0  0  0  0  0  0  0  0  0  0
   -5.4040   21.6641  -33.9207 H   0  0  0  0  0  0  0  0  0  0  0  0
   -4.5839   20.2771  -33.0655 H   0  0  0  0  0  0  0  0  0  0  0  0
   -7.8526   23.2946  -31.0539 H   0  0  0  0  0  0  0  0  0  0  0  0
   -6.9560   23.3532  -32.6094 H   0  0  0  0  0  0  0  0  0  0  0  0
   -8.7446   23.1863  -32.6094 H   0  0  0  0  0  0  0  0  0  0  0  0
   -9.2275   18.0373  -30.5228 H   0  0  0  0  0  0  0  0  0  0  0  0
  -10.0981   18.3688  -32.0586 H   0  0  0  0  0  0  0  0  0  0  0  0
   -8.6498   17.3063  -32.0586 H   0  0  0  0  0  0  0  0  0  0  0  0
   -5.4289   17.1547  -34.3821 H   0  0  0  0  0  0  0  0  0  0  0  0
   -7.0950   17.7637  -34.6648 H   0  0  0  0  0  0  0  0  0  0  0  0
   -5.7090   18.9064  -34.6648 H   0  0  0  0  0  0  0  0  0  0  0  0
   -6.1178   17.3960  -30.8377 H   0  0  0  0  0  0  0  0  0  0  0  0
   -6.7988   16.2835  -32.0728 H   0  0  0  0  0  0  0  0  0  0  0  0
   -5.0421   16.6584  -32.0728 H   0  0  0  0  0  0  0  0  0  0  0  0
   -5.2275   24.7012  -29.0193 H   0  0  0  0  0  0  0  0  0  0  0  0
   -5.4772   25.8706  -30.3597 H   0  0  0  0  0  0  0  0  0  0  0  0
   -6.3552   24.3035  -30.3597 H   0  0  0  0  0  0  0  0  0  0  0  0
   -2.9835   25.4685  -28.8677 H   0  0  0  0  0  0  0  0  0  0  0  0
  1  2  1  0
  2  3  1  0
  3  4  2  0
  4  5  1  0
  5  6  2  0
  6  7  1  0
  7  8  1  0
  8  9  1  0
  9 10  1  0
 10 11  1  0
 11 12  1  0
 11 13  2  0
 13 14  1  0
 14 15  1  0
 14 16  1  0
 16 17  1  0
 17 18  1  0
 17 19  1  0
  6 20  1  0
 20 21  1  0
 21 22  1  0
 20 23  2  0
 23  3  1  0
 16 10  2  0
  1 24  1  0
  1 25  1  0
  1 26  1  0
  4 27  1  0
  5 28  1  0
  7 29  1  0
  7 30  1  0
  8 31  1  0
  8 32  1  0
  9 33  1  0
  9 34  1  0
 12 35  1  0
 12 36  1  0
 12 37  1  0
 15 38  1  0
 15 39  1  0
 15 40  1  0
 18 41  1  0
 18 42  1  0
 18 43  1  0
 19 44  1  0
 19 45  1  0
 19 46  1  0
 22 47  1  0
 22 48  1  0
 22 49  1  0
 23 50  1  0
M  CHG  1   8   1
M  END
>  <UniqueID>  (9) 
8

>  <SMILES>  (9) 
COc1ccc(C[NH2+]Cc2c(C)nn(C)c2N(C)C)c(OC)c1

>  <Energy>  (9) 
79.8832865189445

>  <Genealogy>  (9) 
COc1ccc(C[NH2+]Cc2c(C)nn(C)c2N(C)C)c(OC)c1 (protonated)
COc1ccc(C[NH2+]Cc2c(C)nn(C)c2N(C)C)c(OC)c1 (3D coordinates assigned)
COc1ccc(C[NH2+]Cc2c(C)nn(C)c2N(C)C)c(OC)c1 (optimized conformer: 79.8832865189445 kcal/mol)

>  <smiles>  (9) 
COc1ccc(CNCc2c(C)nn(C)c2N(C)C)c(OC)c1

>  <score_type>  (9) 
oracle

>  <origin>  (9) 
adgpu

>  <m_score__min__energy>  (9) 
-6.0199999999999996

>  <m_primary>  (9) 
energy

$$$$
9:0
     RDKit          3D

 32 34  0  0  0  0  0  0  0  0999 V2000
   -9.1350   21.4930  -31.4990 C   0  0  0  0  0  0  0  0  0  0  0  0
   -8.7040   19.8410  -31.9940 S   0  0  0  0  0  0  0  0  0  0  0  0
   -9.5850   19.4110  -33.1340 O   0  0  0  0  0  0  0  0  0  0  0  0
   -8.9160   18.9000  -30.8410 O   0  0  0  0  0  0  0  0  0  0  0  0
   -7.0180   19.8010  -32.4960 C   0  0  0  0  0  0  0  0  0  0  0  0
   -6.5030   18.6730  -33.1480 C   0  0  0  0  0  0  0  0  0  0  0  0
   -5.1680   18.6460  -33.5610 C   0  0  0  0  0  0  0  0  0  0  0  0
   -4.3310   19.7510  -33.3290 C   0  0  0  0  0  0  0  0  0  0  0  0
   -2.9200   19.7290  -33.7610 C   0  0  0  0  0  0  0  0  0  0  0  0
   -2.1320   18.6340  -33.7460 N   0  0  0  0  0  0  0  0  0  0  0  0
   -0.9500   19.0180  -34.2020 N   0  0  0  0  0  0  0  0  0  0  0  0
   -1.0620   20.3300  -34.4800 C   0  0  0  0  0  0  0  0  0  0  0  0
    0.0220   21.1600  -35.0130 C   0  0  0  0  0  0  0  0  0  0  0  0
    1.3020   20.7310  -35.3110 C   0  0  0  0  0  0  0  0  0  0  0  0
    1.9720   21.8420  -35.7810 C   0  0  0  0  0  0  0  0  0  0  0  0
    1.0510   22.8700  -35.7370 C   0  0  0  0  0  0  0  0  0  0  0  0
    1.2970   24.2210  -36.1310 N   0  0  0  0  0  0  0  0  0  0  0  0
    1.4160   25.1120  -35.2650 O   0  0  0  0  0  0  0  0  0  0  0  0
    1.4030   24.5490  -37.4620 O   0  0  0  0  0  0  0  0  0  0  0  0
   -0.1010   22.4410  -35.2770 O   0  0  0  0  0  0  0  0  0  0  0  0
   -2.2660   20.7750  -34.2120 O   0  0  0  0  0  0  0  0  0  0  0  0
   -4.8530   20.8820  -32.6810 C   0  0  0  0  0  0  0  0  0  0  0  0
   -6.1890   20.9070  -32.2690 C   0  0  0  0  0  0  0  0  0  0  0  0
   -9.1510   21.5543  -30.4008 H   0  0  0  0  0  0  0  0  0  0  0  0
   -8.3913   22.2002  -31.8949 H   0  0  0  0  0  0  0  0  0  0  0  0
  -10.1294   21.7467  -31.8949 H   0  0  0  0  0  0  0  0  0  0  0  0
   -7.1520   17.8049  -33.3357 H   0  0  0  0  0  0  0  0  0  0  0  0
   -4.7705   17.7556  -34.0701 H   0  0  0  0  0  0  0  0  0  0  0  0
    1.7037   19.7134  -35.1969 H   0  0  0  0  0  0  0  0  0  0  0  0
    3.0174   21.8971  -36.1188 H   0  0  0  0  0  0  0  0  0  0  0  0
   -4.2073   21.7532  -32.4964 H   0  0  0  0  0  0  0  0  0  0  0  0
   -6.5904   21.7984  -31.7648 H   0  0  0  0  0  0  0  0  0  0  0  0
  1  2  1  0
  2  3  2  0
  2  4  2  0
  2  5  1  0
  5  6  2  0
  6  7  1  0
  7  8  2  0
  8  9  1  0
  9 10  2  0
 10 11  1  0
 11 12  2  0
 12 13  1  0
 13 14  2  0
 14 15  1  0
 15 16  2  0
 16 17  1  0
 17 18  2  0
 17 19  1  0
 16 20  1  0
 12 21  1  0
  8 22  1  0
 22 23  2  0
 23  5  1  0
 21  9  1  0
 20 13  1  0
  1 24  1  0
  1 25  1  0
  1 26  1  0
  6 27  1  0
  7 28  1  0
 14 29  1  0
 15 30  1  0
 22 31  1  0
 23 32  1  0
M  CHG  2  17   1  19  -1
M  END
>  <UniqueID>  (10) 
9

>  <SMILES>  (10) 
CS(=O)(=O)c1ccc(-c2nnc(-c3ccc([N+](=O)[O-])o3)o2)cc1

>  <Energy>  (10) 
91.37937734287529

>  <Genealogy>  (10) 
CS(=O)(=O)c1ccc(-c2nnc(-c3ccc([N+](=O)[O-])o3)o2)cc1 (3D coordinates assigned)
CS(=O)(=O)c1ccc(-c2nnc(-c3ccc([N+](=O)[O-])o3)o2)cc1 (optimized conformer: 91.37937734287529 kcal/mol)

>  <smiles>  (10) 
CS(=O)(=O)c1ccc(-c2nnc(-c3ccc([N+](=O)[O-])o3)o2)cc1

>  <score_type>  (10) 
oracle

>  <origin>  (10) 
adgpu

>  <m_score__min__energy>  (10) 
-8.1099999999999994

>  <m_primary>  (10) 
energy

$$$$
10:0
     RDKit          3D

 43 45  0  0  0  0  0  0  0  0999 V2000
    1.2461   18.8844  -36.4894 H   0  0  0  0  0  0  0  0  0  0  0  0
    1.1200   19.7330  -35.8010 C   0  0  0  0  0  0  0  0  0  0  0  0
    1.1920   19.5754  -34.7147 H   0  0  0  0  0  0  0  0  0  0  0  0
    0.8800   20.9520  -36.2830 C   0  0  0  0  0  0  0  0  0  0  0  0
    0.8119   21.0871  -37.3725 H   0  0  0  0  0  0  0  0  0  0  0  0
    0.7020   22.1290  -35.4070 C   0  0  0  0  0  0  0  0  0  0  0  0
    1.5480   23.0630  -35.4250 O   0  0  0  0  0  0  0  0  0  0  0  0
   -0.4630   22.2720  -34.5840 N   0  0  0  0  0  0  0  0  0  0  0  0
   -0.9990   21.2860  -33.6910 C   0  0  0  0  0  0  0  0  0  0  0  0
   -0.6050   21.2190  -32.3440 C   0  0  0  0  0  0  0  0  0  0  0  0
    0.1520   21.9181  -31.9591 H   0  0  0  0  0  0  0  0  0  0  0  0
   -1.1710   20.2680  -31.4920 C   0  0  0  0  0  0  0  0  0  0  0  0
   -0.8490   20.2118  -30.4417 H   0  0  0  0  0  0  0  0  0  0  0  0
   -2.1450   19.3880  -31.9700 C   0  0  0  0  0  0  0  0  0  0  0  0
   -2.5834   18.6370  -31.2963 H   0  0  0  0  0  0  0  0  0  0  0  0
   -2.5660   19.4590  -33.3070 C   0  0  0  0  0  0  0  0  0  0  0  0
   -3.5780   18.5610  -33.7980 N   0  0  0  0  0  0  0  0  0  0  0  0
   -4.9620   18.7110  -33.4140 C   0  0  0  0  0  0  0  0  0  0  0  0
   -5.3600   19.8290  -32.7460 N   0  0  0  0  0  0  0  0  0  0  0  0
   -6.6530   20.0140  -32.3620 C   0  0  0  0  0  0  0  0  0  0  0  0
   -7.0170   21.0800  -31.7090 N   0  0  0  0  0  0  0  0  0  0  0  0
   -6.1970   22.2150  -31.3840 C   0  0  0  0  0  0  0  0  0  0  0  0
   -4.8230   22.0880  -31.1000 C   0  0  0  0  0  0  0  0  0  0  0  0
   -4.3526   21.0937  -31.1016 H   0  0  0  0  0  0  0  0  0  0  0  0
   -4.0550   23.2220  -30.8160 C   0  0  0  0  0  0  0  0  0  0  0  0
   -2.9863   23.1158  -30.5780 H   0  0  0  0  0  0  0  0  0  0  0  0
   -4.6430   24.4900  -30.8340 C   0  0  0  0  0  0  0  0  0  0  0  0
   -3.8790   25.6160  -30.5520 O   0  0  0  0  0  0  0  0  0  0  0  0
   -5.9990   24.6250  -31.1460 C   0  0  0  0  0  0  0  0  0  0  0  0
   -6.4605   25.6233  -31.1682 H   0  0  0  0  0  0  0  0  0  0  0  0
   -6.7700   23.4930  -31.4300 C   0  0  0  0  0  0  0  0  0  0  0  0
   -7.8325   23.6067  -31.6910 H   0  0  0  0  0  0  0  0  0  0  0  0
   -7.5730   19.0500  -32.6250 N   0  0  0  0  0  0  0  0  0  0  0  0
   -7.2270   17.9120  -33.2780 C   0  0  0  0  0  0  0  0  0  0  0  0
   -7.9878   17.1452  -33.4858 H   0  0  0  0  0  0  0  0  0  0  0  0
   -5.9090   17.7130  -33.6860 C   0  0  0  0  0  0  0  0  0  0  0  0
   -5.6175   16.7913  -34.2110 H   0  0  0  0  0  0  0  0  0  0  0  0
   -3.1700   17.3700  -34.5500 C   0  0  0  0  0  0  0  0  0  0  0  0
   -2.8956   16.5691  -33.8477 H   0  0  0  0  0  0  0  0  0  0  0  0
   -4.0038   17.0327  -35.1832 H   0  0  0  0  0  0  0  0  0  0  0  0
   -2.3045   17.6148  -35.1832 H   0  0  0  0  0  0  0  0  0  0  0  0
   -1.9960   20.4210  -34.1580 C   0  0  0  0  0  0  0  0  0  0  0  0
   -2.3364   20.4952  -35.2014 H   0  0  0  0  0  0  0  0  0  0  0  0
  1  2  1  0
  2  3  1  0
  2  4  2  0
  4  5  1  0
  4  6  1  0
  6  7  2  0
  6  8  1  0
  8  9  1  0
  9 10  2  0
 10 11  1  0
 10 12  1  0
 12 13  1  0
 12 14  2  0
 14 15  1  0
 14 16  1  0
 16 17  1  0
 17 18  1  0
 18 19  2  0
 19 20  1  0
 20 21  2  0
 21 22  1  0
 22 23  2  0
 23 24  1  0
 23 25  1  0
 25 26  1  0
 25 27  2  0
 27 28  1  0
 27 29  1  0
 29 30  1  0
 29 31  2  0
 31 32  1  0
 20 33  1  0
 33 34  1  0
 34 35  1  0
 34 36  2  0
 36 37  1  0
 17 38  1  0
 38 39  1  0
 38 40  1  0
 38 41  1  0
 16 42  2  0
 42 43  1  0
 42  9  1  0
 36 18  1  0
 31 22  1  0
M  CHG  3   8  -1  28  -1  33  -1
M  END
>  <UniqueID>  (11) 
10

>  <SMILES>  (11) 
C=CC(=O)[N-]c1cccc(N(C)c2cc[n-]/c(=N/c3ccc([O-])cc3)n2)c1

>  <Energy>  (11) 
62.402429107634816

>  <Genealogy>  (11) 
C=CC(=O)[N-]c1cccc(N(C)c2cc[n-]c(=Nc3ccc([O-])cc3)n2)c1 (protonated)
C=CC(=O)[N-]c1cccc(N(C)c2cc[n-]/c(=N/c3ccc([O-])cc3)n2)c1 (cis-trans isomerization)
C=CC(=O)[N-]c1cccc(N(C)c2cc[n-]/c(=N/c3ccc([O-])cc3)n2)c1 (3D coordinates assigned)
C=CC(=O)[N-]c1cccc(N(C)c2cc[n-]/c(=N/c3ccc([O-])cc3)n2)c1 (optimized conformer: 62.402429107634816 kcal/mol)

>  <smiles>  (11) 
C=CC(=O)Nc1cccc(N(C)c2cc[nH]c(=Nc3ccc(O)cc3)n2)c1

>  <score_type>  (11) 
oracle

>  <origin>  (11) 
adgpu

>  <m_score__min__energy>  (11) 
-11.640000000000001

>  <m_primary>  (11) 
energy

$$$$
11:0
     RDKit          3D

 49 51  0  0  0  0  0  0  0  0999 V2000
   -2.6960   19.0560  -26.4210 C   0  0  0  0  0  0  0  0  0  0  0  0
   -1.4750   19.6460  -27.1190 C   0  0  0  0  0  0  0  0  0  0  0  0
   -1.4020   21.0570  -26.9080 O   0  0  0  0  0  0  0  0  0  0  0  0
   -1.9330   22.0390  -27.7620 C   0  0  0  0  0  0  0  0  0  0  0  0
   -2.0240   21.7440  -29.1270 C   0  0  0  0  0  0  0  0  0  0  0  0
   -2.5460   22.6810  -30.0240 C   0  0  0  0  0  0  0  0  0  0  0  0
   -2.9980   23.9280  -29.5600 C   0  0  0  0  0  0  0  0  0  0  0  0
   -3.5270   24.9170  -30.4550 N   0  0  0  0  0  0  0  0  0  0  0  0
   -4.9040   25.0710  -30.8280 C   0  0  0  0  0  0  0  0  0  0  0  0
   -5.3920   26.2300  -30.8690 O   0  0  0  0  0  0  0  0  0  0  0  0
   -5.7720   23.9060  -31.1160 C   0  0  0  0  0  0  0  0  0  0  0  0
   -7.1280   23.9100  -30.7450 C   0  0  0  0  0  0  0  0  0  0  0  0
   -7.9370   22.8030  -31.0140 C   0  0  0  0  0  0  0  0  0  0  0  0
   -7.4070   21.6870  -31.6640 C   0  0  0  0  0  0  0  0  0  0  0  0
   -6.0620   21.6760  -32.0580 C   0  0  0  0  0  0  0  0  0  0  0  0
   -5.3700   20.2660  -32.8560 S   0  0  0  0  0  0  0  0  0  0  0  0
   -4.3020   20.7040  -33.8200 O   0  0  0  0  0  0  0  0  0  0  0  0
   -4.7380   19.3900  -31.8090 O   0  0  0  0  0  0  0  0  0  0  0  0
   -6.6390   19.3910  -33.6900 N   0  0  0  0  0  0  0  0  0  0  0  0
   -7.6230   18.8310  -32.7420 C   0  0  0  0  0  0  0  0  0  0  0  0
   -7.0660   17.6080  -31.9730 C   0  0  0  0  0  0  0  0  0  0  0  0
   -5.9260   17.0250  -32.5810 O   0  0  0  0  0  0  0  0  0  0  0  0
   -6.1040   16.9470  -33.9770 C   0  0  0  0  0  0  0  0  0  0  0  0
   -6.0880   18.3560  -34.6000 C   0  0  0  0  0  0  0  0  0  0  0  0
   -5.2500   22.7860  -31.7860 C   0  0  0  0  0  0  0  0  0  0  0  0
   -2.8830   24.2360  -28.2010 C   0  0  0  0  0  0  0  0  0  0  0  0
   -2.3610   23.2990  -27.3030 C   0  0  0  0  0  0  0  0  0  0  0  0
   -2.5622   19.1207  -25.3311 H   0  0  0  0  0  0  0  0  0  0  0  0
   -3.5940   19.6196  -26.7142 H   0  0  0  0  0  0  0  0  0  0  0  0
   -2.8125   18.0022  -26.7142 H   0  0  0  0  0  0  0  0  0  0  0  0
   -0.5665   19.1738  -26.7168 H   0  0  0  0  0  0  0  0  0  0  0  0
   -1.5600   19.4551  -28.1990 H   0  0  0  0  0  0  0  0  0  0  0  0
   -1.6819   20.7664  -29.4975 H   0  0  0  0  0  0  0  0  0  0  0  0
   -2.6030   22.4413  -31.0960 H   0  0  0  0  0  0  0  0  0  0  0  0
   -7.5544   24.7894  -30.2402 H   0  0  0  0  0  0  0  0  0  0  0  0
   -8.9949   22.8109  -30.7126 H   0  0  0  0  0  0  0  0  0  0  0  0
   -8.0459   20.8150  -31.8673 H   0  0  0  0  0  0  0  0  0  0  0  0
   -7.1410   20.0990  -34.2760 H   0  0  0  0  0  0  0  0  0  0  0  0
   -7.8983   19.6102  -32.0160 H   0  0  0  0  0  0  0  0  0  0  0  0
   -8.4961   18.4959  -33.3212 H   0  0  0  0  0  0  0  0  0  0  0  0
   -6.7915   17.9313  -30.9580 H   0  0  0  0  0  0  0  0  0  0  0  0
   -7.8560   16.8426  -31.9697 H   0  0  0  0  0  0  0  0  0  0  0  0
   -5.2906   16.3486  -34.4132 H   0  0  0  0  0  0  0  0  0  0  0  0
   -7.0751   16.4750  -34.1871 H   0  0  0  0  0  0  0  0  0  0  0  0
   -5.0489   18.6204  -34.8455 H   0  0  0  0  0  0  0  0  0  0  0  0
   -6.7240   18.3298  -35.4971 H   0  0  0  0  0  0  0  0  0  0  0  0
   -4.1956   22.7804  -32.0995 H   0  0  0  0  0  0  0  0  0  0  0  0
   -3.2053   25.2221  -27.8354 H   0  0  0  0  0  0  0  0  0  0  0  0
   -2.2847   23.5477  -26.2342 H   0  0  0  0  0  0  0  0  0  0  0  0
  1  2  1  0
  2  3  1  0
  3  4  1  0
  4  5  2  0
  5  6  1  0
  6  7  2  0
  7  8  1  0
  8  9  1  0
  9 10  2  0
  9 11  1  0
 11 12  2  0
 12 13  1  0
 13 14  2  0
 14 15  1  0
 15 16  1  0
 16 17  2  0
 16 18  2  0
 16 19  1  0
 19 20  1  0
 20 21  1  0
 21 22  1  0
 22 23  1  0
 23 24  1  0
 15 25  2  0
  7 26  1  0
 26 27  2  0
 27  4  1  0
 25 11  1  0
 24 19  1  0
  1 28  1  0
  1 29  1  0
  1 30  1  0
  2 31  1  0
  2 32  1  0
  5 33  1  0
  6 34  1  0
 12 35  1  0
 13 36  1  0
 14 37  1  0
 19 38  1  0
 20 39  1  0
 20 40  1  0
 21 41  1  0
 21 42  1  0
 23 43  1  0
 23 44  1  0
 24 45  1  0
 24 46  1  0
 25 47  1  0
 26 48  1  0
 27 49  1  0
M  CHG  2   8  -1  19   1
M  END
>  <UniqueID>  (12) 
11

>  <SMILES>  (12) 
CCOc1ccc([N-]C(=O)c2cccc(S(=O)(=O)[NH+]3CCOCC3)c2)cc1

>  <Energy>  (12) 
65.29457775291337

>  <Genealogy>  (12) 
CCOc1ccc([N-]C(=O)c2cccc(S(=O)(=O)[NH+]3CCOCC3)c2)cc1 (protonated)
CCOc1ccc([N-]C(=O)c2cccc(S(=O)(=O)[NH+]3CCOCC3)c2)cc1 (3D coordinates assigned)
CCOc1ccc([N-]C(=O)c2cccc(S(=O)(=O)[NH+]3CCOCC3)c2)cc1 (nonaromatic ring conformer: 65.29457775291337 kcal/mol)

>  <smiles>  (12) 
CCOc1ccc(NC(=O)c2cccc(S(=O)(=O)N3CCOCC3)c2)cc1

>  <score_type>  (12) 
oracle

>  <origin>  (12) 
adgpu

>  <m_score__min__energy>  (12) 
-10.18

>  <m_primary>  (12) 
energy

$$$$
12:0
     RDKit          3D

 32 34  0  0  0  0  0  0  0  0999 V2000
   -5.4430   26.3250  -30.2260 O   0  0  0  0  0  0  0  0  0  0  0  0
   -5.1840   25.1730  -30.6610 C   0  0  0  0  0  0  0  0  0  0  0  0
   -6.1330   24.4850  -31.4190 C   0  0  0  0  0  0  0  0  0  0  0  0
   -5.8360   23.2000  -31.8960 C   0  0  0  0  0  0  0  0  0  0  0  0
   -6.7850   22.5040  -32.7230 N   0  0  0  0  0  0  0  0  0  0  0  0
   -7.2510   21.1680  -32.4570 C   0  0  0  0  0  0  0  0  0  0  0  0
   -8.2600   20.9210  -31.5090 C   0  0  0  0  0  0  0  0  0  0  0  0
   -8.6710   19.6150  -31.2430 C   0  0  0  0  0  0  0  0  0  0  0  0
   -8.0810   18.5410  -31.9140 C   0  0  0  0  0  0  0  0  0  0  0  0
   -7.0770   18.7660  -32.8710 C   0  0  0  0  0  0  0  0  0  0  0  0
   -6.4000   17.6060  -33.5560 C   0  0  0  0  0  0  0  0  0  0  0  0
   -7.2290   16.4990  -33.5810 F   0  0  0  0  0  0  0  0  0  0  0  0
   -5.2430   17.2870  -32.8680 F   0  0  0  0  0  0  0  0  0  0  0  0
   -6.0730   17.9320  -34.8610 F   0  0  0  0  0  0  0  0  0  0  0  0
   -6.6490   20.0840  -33.1140 C   0  0  0  0  0  0  0  0  0  0  0  0
   -4.5730   22.6450  -31.6020 C   0  0  0  0  0  0  0  0  0  0  0  0
   -4.1960   21.3550  -32.0270 C   0  0  0  0  0  0  0  0  0  0  0  0
   -2.9320   20.8510  -31.7020 C   0  0  0  0  0  0  0  0  0  0  0  0
   -2.0400   21.6180  -30.9500 C   0  0  0  0  0  0  0  0  0  0  0  0
   -2.4060   22.8920  -30.5120 C   0  0  0  0  0  0  0  0  0  0  0  0
   -3.6660   23.4100  -30.8290 C   0  0  0  0  0  0  0  0  0  0  0  0
   -4.0050   24.6210  -30.3970 O   0  0  0  0  0  0  0  0  0  0  0  0
   -7.1063   24.9471  -31.6405 H   0  0  0  0  0  0  0  0  0  0  0  0
   -7.2040   23.0220  -33.5280 H   0  0  0  0  0  0  0  0  0  0  0  0
   -8.7271   21.7616  -30.9749 H   0  0  0  0  0  0  0  0  0  0  0  0
   -9.4627   19.4299  -30.5021 H   0  0  0  0  0  0  0  0  0  0  0  0
   -8.4043   17.5133  -31.6919 H   0  0  0  0  0  0  0  0  0  0  0  0
   -5.8323   20.2670  -33.8278 H   0  0  0  0  0  0  0  0  0  0  0  0
   -4.8965   20.7438  -32.6150 H   0  0  0  0  0  0  0  0  0  0  0  0
   -2.6396   19.8460  -32.0404 H   0  0  0  0  0  0  0  0  0  0  0  0
   -1.0461   21.2173  -30.7020 H   0  0  0  0  0  0  0  0  0  0  0  0
   -1.7013   23.4903  -29.9158 H   0  0  0  0  0  0  0  0  0  0  0  0
  1  2  2  0
  2  3  1  0
  3  4  2  0
  4  5  1  0
  5  6  1  0
  6  7  2  0
  7  8  1  0
  8  9  2  0
  9 10  1  0
 10 11  1  0
 11 12  1  0
 11 13  1  0
 11 14  1  0
 10 15  2  0
  4 16  1  0
 16 17  2  0
 17 18  1  0
 18 19  2  0
 19 20  1  0
 20 21  2  0
 21 22  1  0
 22  2  1  0
 15  6  1  0
 21 16  1  0
  3 23  1  0
  5 24  1  0
  7 25  1  0
  8 26  1  0
  9 27  1  0
 15 28  1  0
 17 29  1  0
 18 30  1  0
 19 31  1  0
 20 32  1  0
M  END
>  <UniqueID>  (13) 
12

>  <SMILES>  (13) 
O=c1cc(Nc2cccc(C(F)(F)F)c2)c2ccccc2o1

>  <Energy>  (13) 
46.592647716082986

>  <Genealogy>  (13) 
O=c1cc(Nc2cccc(C(F)(F)F)c2)c2ccccc2o1 (3D coordinates assigned)
O=c1cc(Nc2cccc(C(F)(F)F)c2)c2ccccc2o1 (optimized conformer: 46.592647716082986 kcal/mol)

>  <smiles>  (13) 
O=c1cc(Nc2cccc(C(F)(F)F)c2)c2ccccc2o1

>  <score_type>  (13) 
oracle

>  <origin>  (13) 
adgpu

>  <m_score__min__energy>  (13) 
-7.9400000000000004

>  <m_primary>  (13) 
energy

$$$$
13:0
     RDKit          3D

 37 39  0  0  0  0  0  0  0  0999 V2000
   -5.6600   26.0450  -30.8430 O   0  0  0  0  0  0  0  0  0  0  0  0
   -4.8920   25.0470  -30.8120 C   0  0  0  0  0  0  0  0  0  0  0  0
   -3.5360   25.2410  -30.3860 N   0  0  0  0  0  0  0  0  0  0  0  0
   -2.8820   24.5590  -29.3050 C   0  0  0  0  0  0  0  0  0  0  0  0
   -1.5770   24.9330  -28.9580 C   0  0  0  0  0  0  0  0  0  0  0  0
   -0.9180   24.2990  -27.9000 C   0  0  0  0  0  0  0  0  0  0  0  0
   -1.5650   23.2970  -27.1730 C   0  0  0  0  0  0  0  0  0  0  0  0
   -2.8750   22.9320  -27.4970 C   0  0  0  0  0  0  0  0  0  0  0  0
   -3.5370   23.5650  -28.5540 C   0  0  0  0  0  0  0  0  0  0  0  0
   -5.3940   23.7280  -31.2630 C   0  0  0  0  0  0  0  0  0  0  0  0
   -6.7720   23.4700  -31.3070 C   0  0  0  0  0  0  0  0  0  0  0  0
   -7.2410   22.2280  -31.7370 C   0  0  0  0  0  0  0  0  0  0  0  0
   -6.3270   21.2370  -32.1340 C   0  0  0  0  0  0  0  0  0  0  0  0
   -6.7690   19.9370  -32.5830 N   0  0  0  0  0  0  0  0  0  0  0  0
   -8.0360   19.3630  -32.1090 C   0  0  0  0  0  0  0  0  0  0  0  0
   -7.9860   17.8330  -32.1780 C   0  0  0  0  0  0  0  0  0  0  0  0
   -7.5720   17.3990  -33.4580 O   0  0  0  0  0  0  0  0  0  0  0  0
   -6.2350   17.7990  -33.6830 C   0  0  0  0  0  0  0  0  0  0  0  0
   -6.1300   19.3250  -33.7560 C   0  0  0  0  0  0  0  0  0  0  0  0
   -4.9950   21.5220  -32.1050 N   0  0  0  0  0  0  0  0  0  0  0  0
   -4.5140   22.7230  -31.6900 C   0  0  0  0  0  0  0  0  0  0  0  0
   -1.0682   25.7295  -29.5208 H   0  0  0  0  0  0  0  0  0  0  0  0
    0.1106   24.5896  -27.6401 H   0  0  0  0  0  0  0  0  0  0  0  0
   -1.0434   22.7948  -26.3450 H   0  0  0  0  0  0  0  0  0  0  0  0
   -3.3854   22.1465  -26.9203 H   0  0  0  0  0  0  0  0  0  0  0  0
   -4.5722   23.2853  -28.7990 H   0  0  0  0  0  0  0  0  0  0  0  0
   -7.4855   24.2494  -31.0015 H   0  0  0  0  0  0  0  0  0  0  0  0
   -8.3218   22.0255  -31.7651 H   0  0  0  0  0  0  0  0  0  0  0  0
   -8.2081   19.6738  -31.0679 H   0  0  0  0  0  0  0  0  0  0  0  0
   -8.8539   19.7234  -32.7502 H   0  0  0  0  0  0  0  0  0  0  0  0
   -7.2758   17.4615  -31.4246 H   0  0  0  0  0  0  0  0  0  0  0  0
   -8.9944   17.4393  -31.9825 H   0  0  0  0  0  0  0  0  0  0  0  0
   -5.6053   17.4330  -32.8587 H   0  0  0  0  0  0  0  0  0  0  0  0
   -5.8962   17.3756  -34.6400 H   0  0  0  0  0  0  0  0  0  0  0  0
   -5.0692   19.6148  -33.7838 H   0  0  0  0  0  0  0  0  0  0  0  0
   -6.6405   19.6756  -34.6651 H   0  0  0  0  0  0  0  0  0  0  0  0
   -3.4296   22.9079  -31.6889 H   0  0  0  0  0  0  0  0  0  0  0  0
  1  2  2  0
  2  3  1  0
  3  4  1  0
  4  5  2  0
  5  6  1  0
  6  7  2  0
  7  8  1  0
  8  9  2  0
  2 10  1  0
 10 11  2  0
 11 12  1  0
 12 13  2  0
 13 14  1  0
 14 15  1  0
 15 16  1  0
 16 17  1  0
 17 18  1  0
 18 19  1  0
 13 20  1  0
 20 21  2  0
  9  4  1  0
 21 10  1  0
 19 14  1  0
  5 22  1  0
  6 23  1  0
  7 24  1  0
  8 25  1  0
  9 26  1  0
 11 27  1  0
 12 28  1  0
 15 29  1  0
 15 30  1  0
 16 31  1  0
 16 32  1  0
 18 33  1  0
 18 34  1  0
 19 35  1  0
 19 36  1  0
 21 37  1  0
M  CHG  1   3  -1
M  END
>  <UniqueID>  (14) 
13

>  <SMILES>  (14) 
O=C([N-]c1ccccc1)c1ccc(N2CCOCC2)nc1

>  <Energy>  (14) 
50.32465163954916

>  <Genealogy>  (14) 
O=C([N-]c1ccccc1)c1ccc(N2CCOCC2)nc1 (protonated)
O=C([N-]c1ccccc1)c1ccc(N2CCOCC2)nc1 (3D coordinates assigned)
O=C([N-]c1ccccc1)c1ccc(N2CCOCC2)nc1 (nonaromatic ring conformer: 50.32465163954916 kcal/mol)

>  <smiles>  (14) 
O=C(Nc1ccccc1)c1ccc(N2CCOCC2)nc1

>  <score_type>  (14) 
oracle

>  <origin>  (14) 
adgpu

>  <m_score__min__energy>  (14) 
-9.2100000000000009

>  <m_primary>  (14) 
energy

$$$$
14:0
     RDKit          3D

 61 65  0  0  0  0  0  0  0  0999 V2000
    1.8680   23.9820  -26.6010 C   0  0  0  0  0  0  0  0  0  0  0  0
    0.6270   23.8770  -27.4450 C   0  0  0  0  0  0  0  0  0  0  0  0
    0.5870   22.9640  -28.5090 C   0  0  0  0  0  0  0  0  0  0  0  0
   -0.5630   22.8400  -29.2870 C   0  0  0  0  0  0  0  0  0  0  0  0
   -1.6700   23.6500  -29.0100 C   0  0  0  0  0  0  0  0  0  0  0  0
   -2.9160   23.5210  -29.7810 C   0  0  0  0  0  0  0  0  0  0  0  0
   -3.5630   24.6200  -30.2350 N   0  0  0  0  0  0  0  0  0  0  0  0
   -4.6340   24.0990  -30.8450 C   0  0  0  0  0  0  0  0  0  0  0  0
   -5.6330   24.8150  -31.4100 N   0  0  0  0  0  0  0  0  0  0  0  0
   -6.6770   24.1440  -31.9680 C   0  0  0  0  0  0  0  0  0  0  0  0
   -6.6880   22.7790  -31.9850 N   0  0  0  0  0  0  0  0  0  0  0  0
   -5.6910   22.0360  -31.4180 C   0  0  0  0  0  0  0  0  0  0  0  0
   -5.6770   20.6280  -31.6720 N   0  0  0  0  0  0  0  0  0  0  0  0
   -6.9110   19.8490  -31.6490 C   0  0  0  0  0  0  0  0  0  0  0  0
   -6.7900   18.8300  -32.7730 C   0  0  0  0  0  0  0  0  0  0  0  0
   -5.3040   18.7550  -33.0890 C   0  0  0  0  0  0  0  0  0  0  0  0
   -4.7460   20.1030  -32.6650 C   0  0  0  0  0  0  0  0  0  0  0  0
   -4.6310   22.7340  -30.7950 C   0  0  0  0  0  0  0  0  0  0  0  0
   -3.5310   22.3390  -30.0940 N   0  0  0  0  0  0  0  0  0  0  0  0
   -3.1420   21.0170  -29.5560 C   0  0  0  0  0  0  0  0  0  0  0  0
   -1.9800   20.4190  -30.3570 C   0  0  0  0  0  0  0  0  0  0  0  0
   -2.8990   21.0300  -28.0430 C   0  0  0  0  0  0  0  0  0  0  0  0
   -1.6170   24.5320  -27.9760 N   0  0  0  0  0  0  0  0  0  0  0  0
   -0.5060   24.6830  -27.2060 C   0  0  0  0  0  0  0  0  0  0  0  0
   -0.5200   25.6500  -26.1450 N   0  0  0  0  0  0  0  0  0  0  0  0
   -0.0100   25.2860  -24.8190 C   0  0  0  0  0  0  0  0  0  0  0  0
   -0.8350   25.9640  -23.7030 C   0  0  0  0  0  0  0  0  0  0  0  0
   -1.5530   27.1770  -24.1480 N   0  0  0  0  0  0  0  0  0  0  0  0
   -0.8250   27.9060  -25.1960 C   0  0  0  0  0  0  0  0  0  0  0  0
   -0.7510   27.0590  -26.4730 C   0  0  0  0  0  0  0  0  0  0  0  0
    1.5907   23.9585  -25.5368 H   0  0  0  0  0  0  0  0  0  0  0  0
    2.5360   23.1372  -26.8246 H   0  0  0  0  0  0  0  0  0  0  0  0
    2.3846   24.9271  -26.8246 H   0  0  0  0  0  0  0  0  0  0  0  0
    1.4674   22.3428  -28.7306 H   0  0  0  0  0  0  0  0  0  0  0  0
   -0.6000   22.1122  -30.1110 H   0  0  0  0  0  0  0  0  0  0  0  0
   -7.5158   24.7039  -32.4073 H   0  0  0  0  0  0  0  0  0  0  0  0
   -7.0216   19.3380  -30.6812 H   0  0  0  0  0  0  0  0  0  0  0  0
   -7.7936   20.4916  -31.7834 H   0  0  0  0  0  0  0  0  0  0  0  0
   -7.1642   17.8488  -32.4454 H   0  0  0  0  0  0  0  0  0  0  0  0
   -7.3823   19.1188  -33.6537 H   0  0  0  0  0  0  0  0  0  0  0  0
   -4.8278   17.9427  -32.5202 H   0  0  0  0  0  0  0  0  0  0  0  0
   -5.1167   18.5451  -34.1524 H   0  0  0  0  0  0  0  0  0  0  0  0
   -3.7455   19.9813  -32.2244 H   0  0  0  0  0  0  0  0  0  0  0  0
   -4.6436   20.7848  -33.5221 H   0  0  0  0  0  0  0  0  0  0  0  0
   -4.0017   20.3437  -29.6889 H   0  0  0  0  0  0  0  0  0  0  0  0
   -1.2201   20.0280  -29.6644 H   0  0  0  0  0  0  0  0  0  0  0  0
   -2.3540   19.6013  -30.9907 H   0  0  0  0  0  0  0  0  0  0  0  0
   -1.5320   21.1985  -30.9907 H   0  0  0  0  0  0  0  0  0  0  0  0
   -3.8633   20.9784  -27.5163 H   0  0  0  0  0  0  0  0  0  0  0  0
   -2.2816   20.1636  -27.7633 H   0  0  0  0  0  0  0  0  0  0  0  0
   -2.3776   21.9573  -27.7633 H   0  0  0  0  0  0  0  0  0  0  0  0
   -0.0699   24.1943  -24.6978 H   0  0  0  0  0  0  0  0  0  0  0  0
    1.0331   25.6261  -24.7394 H   0  0  0  0  0  0  0  0  0  0  0  0
   -1.5744   25.2403  -23.3293 H   0  0  0  0  0  0  0  0  0  0  0  0
   -0.1247   26.2786  -22.9242 H   0  0  0  0  0  0  0  0  0  0  0  0
   -1.6890   27.8130  -23.3280 H   0  0  0  0  0  0  0  0  0  0  0  0
   -2.5000   26.9100  -24.5070 H   0  0  0  0  0  0  0  0  0  0  0  0
   -1.3486   28.8484  -25.4143 H   0  0  0  0  0  0  0  0  0  0  0  0
    0.1957   28.1176  -24.8447 H   0  0  0  0  0  0  0  0  0  0  0  0
   -1.6989   27.1513  -27.0233 H   0  0  0  0  0  0  0  0  0  0  0  0
    0.0844   27.4208  -27.0904 H   0  0  0  0  0  0  0  0  0  0  0  0
  1  2  1  0
  2  3  2  0
  3  4  1  0
  4  5  2  0
  5  6  1  0
  6  7  2  0
  7  8  1  0
  8  9  2  0
  9 10  1  0
 10 11  2  0
 11 12  1  0
 12 13  1  0
 13 14  1  0
 14 15  1  0
 15 16  1  0
 16 17  1  0
 12 18  2  0
 18 19  1  0
 19 20  1  0
 20 21  1  0
 20 22  1  0
  5 23  1  0
 23 24  2  0
 24 25  1  0
 25 26  1  0
 26 27  1  0
 27 28  1  0
 28 29  1  0
 29 30  1  0
 24  2  1  0
 30 25  1  0
 19  6  1  0
 18  8  1  0
 17 13  1  0
  1 31  1  0
  1 32  1  0
  1 33  1  0
  3 34  1  0
  4 35  1  0
 10 36  1  0
 14 37  1  0
 14 38  1  0
 15 39  1  0
 15 40  1  0
 16 41  1  0
 16 42  1  0
 17 43  1  0
 17 44  1  0
 20 45  1  0
 21 46  1  0
 21 47  1  0
 21 48  1  0
 22 49  1  0
 22 50  1  0
 22 51  1  0
 26 52  1  0
 26 53  1  0
 27 54  1  0
 27 55  1  0
 28 56  1  0
 28 57  1  0
 29 58  1  0
 29 59  1  0
 30 60  1  0
 30 61  1  0
M  CHG  1  28   1
M  END
>  <UniqueID>  (15) 
14

>  <SMILES>  (15) 
Cc1ccc(-c2nc3ncnc(N4CCCC4)c3n2C(C)C)nc1N1CC[NH2+]CC1

>  <Energy>  (15) 
134.71185188687787

>  <Genealogy>  (15) 
Cc1ccc(-c2nc3ncnc(N4CCCC4)c3n2C(C)C)nc1N1CC[NH2+]CC1 (protonated)
Cc1ccc(-c2nc3ncnc(N4CCCC4)c3n2C(C)C)nc1N1CC[NH2+]CC1 (3D coordinates assigned)
Cc1ccc(-c2nc3ncnc(N4CCCC4)c3n2C(C)C)nc1N1CC[NH2+]CC1 (nonaromatic ring conformer: 134.71185188687787 kcal/mol)

>  <smiles>  (15) 
Cc1ccc(-c2nc3ncnc(N4CCCC4)c3n2C(C)C)nc1N1CCNCC1

>  <score_type>  (15) 
oracle

>  <origin>  (15) 
adgpu

>  <m_score__min__energy>  (15) 
-8.5099999999999998

>  <m_primary>  (15) 
energy

$$$$
15:0
     RDKit          3D

 48 52  0  0  0  0  0  0  0  0999 V2000
    1.6280   20.0000  -33.0520 C   0  0  0  0  0  0  0  0  0  0  0  0
    0.2150   20.4090  -33.3060 C   0  0  0  0  0  0  0  0  0  0  0  0
   -0.3920   20.3580  -34.5160 N   0  0  0  0  0  0  0  0  0  0  0  0
   -1.6460   20.7760  -34.3670 N   0  0  0  0  0  0  0  0  0  0  0  0
   -1.8410   21.0880  -33.0750 C   0  0  0  0  0  0  0  0  0  0  0  0
   -2.9980   21.5630  -32.4650 C   0  0  0  0  0  0  0  0  0  0  0  0
   -2.9490   21.8110  -31.0790 C   0  0  0  0  0  0  0  0  0  0  0  0
   -1.7600   21.5680  -30.3440 C   0  0  0  0  0  0  0  0  0  0  0  0
   -1.7130   21.8450  -28.9410 N   0  0  0  0  0  0  0  0  0  0  0  0
   -1.8250   20.8980  -28.0230 N   0  0  0  0  0  0  0  0  0  0  0  0
   -1.7850   21.4910  -26.8140 C   0  0  0  0  0  0  0  0  0  0  0  0
   -1.6560   22.8570  -26.9700 C   0  0  0  0  0  0  0  0  0  0  0  0
   -1.6230   23.0530  -28.3380 C   0  0  0  0  0  0  0  0  0  0  0  0
   -1.5560   24.3680  -29.0170 C   0  0  0  0  0  0  0  0  0  0  0  0
   -0.4410   24.8530  -29.3410 O   0  0  0  0  0  0  0  0  0  0  0  0
   -2.7360   25.1430  -29.2640 N   0  0  0  0  0  0  0  0  0  0  0  0
   -3.9900   24.6320  -29.7380 C   0  0  0  0  0  0  0  0  0  0  0  0
   -4.5810   23.5540  -29.0680 C   0  0  0  0  0  0  0  0  0  0  0  0
   -5.8130   23.0490  -29.4890 C   0  0  0  0  0  0  0  0  0  0  0  0
   -6.4880   23.6390  -30.5730 C   0  0  0  0  0  0  0  0  0  0  0  0
   -7.7200   23.1530  -31.0350 O   0  0  0  0  0  0  0  0  0  0  0  0
   -7.9240   21.9180  -31.6670 C   0  0  0  0  0  0  0  0  0  0  0  0
   -9.1830   21.2910  -31.6930 C   0  0  0  0  0  0  0  0  0  0  0  0
   -9.3280   20.0670  -32.3530 C   0  0  0  0  0  0  0  0  0  0  0  0
   -8.2620   19.4990  -32.9780 N   0  0  0  0  0  0  0  0  0  0  0  0
   -7.0400   20.0940  -32.9820 C   0  0  0  0  0  0  0  0  0  0  0  0
   -6.8520   21.3160  -32.3340 C   0  0  0  0  0  0  0  0  0  0  0  0
   -5.8970   24.7150  -31.2430 C   0  0  0  0  0  0  0  0  0  0  0  0
   -4.6630   25.2200  -30.8220 C   0  0  0  0  0  0  0  0  0  0  0  0
   -0.6040   21.1000  -31.0030 C   0  0  0  0  0  0  0  0  0  0  0  0
   -0.6900   20.8680  -32.3730 C   0  0  0  0  0  0  0  0  0  0  0  0
    1.8056   19.9486  -31.9676 H   0  0  0  0  0  0  0  0  0  0  0  0
    1.8101   19.0123  -33.5006 H   0  0  0  0  0  0  0  0  0  0  0  0
    2.3095   20.7377  -33.5006 H   0  0  0  0  0  0  0  0  0  0  0  0
   -2.3450   20.8410  -35.1400 H   0  0  0  0  0  0  0  0  0  0  0  0
   -3.9169   21.7384  -33.0436 H   0  0  0  0  0  0  0  0  0  0  0  0
   -3.8403   22.1964  -30.5622 H   0  0  0  0  0  0  0  0  0  0  0  0
   -1.8459   20.9666  -25.8490 H   0  0  0  0  0  0  0  0  0  0  0  0
   -1.5934   23.6203  -26.1804 H   0  0  0  0  0  0  0  0  0  0  0  0
   -4.0715   23.1019  -28.2043 H   0  0  0  0  0  0  0  0  0  0  0  0
   -6.2574   22.1864  -28.9709 H   0  0  0  0  0  0  0  0  0  0  0  0
  -10.0463   21.7599  -31.1981 H   0  0  0  0  0  0  0  0  0  0  0  0
  -10.3055   19.5628  -32.3668 H   0  0  0  0  0  0  0  0  0  0  0  0
   -6.1967   19.6112  -33.4974 H   0  0  0  0  0  0  0  0  0  0  0  0
   -5.8658   21.8031  -32.3478 H   0  0  0  0  0  0  0  0  0  0  0  0
   -6.4063   25.1670  -32.1069 H   0  0  0  0  0  0  0  0  0  0  0  0
   -4.2174   26.0811  -31.3416 H   0  0  0  0  0  0  0  0  0  0  0  0
    0.3327   20.9245  -30.4536 H   0  0  0  0  0  0  0  0  0  0  0  0
  1  2  1  0
  2  3  2  0
  3  4  1  0
  4  5  1  0
  5  6  2  0
  6  7  1  0
  7  8  2  0
  8  9  1  0
  9 10  1  0
 10 11  2  0
 11 12  1  0
 12 13  2  0
 13 14  1  0
 14 15  2  0
 14 16  1  0
 16 17  1  0
 17 18  2  0
 18 19  1  0
 19 20  2  0
 20 21  1  0
 21 22  1  0
 22 23  2  0
 23 24  1  0
 24 25  2  0
 25 26  1  0
 26 27  2  0
 20 28  1  0
 28 29  2  0
  8 30  1  0
 30 31  2  0
 31  2  1  0
 31  5  1  0
 13  9  1  0
 29 17  1  0
 27 22  1  0
  1 32  1  0
  1 33  1  0
  1 34  1  0
  4 35  1  0
  6 36  1  0
  7 37  1  0
 11 38  1  0
 12 39  1  0
 18 40  1  0
 19 41  1  0
 23 42  1  0
 24 43  1  0
 26 44  1  0
 27 45  1  0
 28 46  1  0
 29 47  1  0
 30 48  1  0
M  CHG  1  16  -1
M  END
>  <UniqueID>  (16) 
15

>  <SMILES>  (16) 
Cc1n[nH]c2ccc(-n3nccc3C(=O)[N-]c3ccc(Oc4ccncc4)cc3)cc12

>  <Energy>  (16) 
142.97307188058824

>  <Genealogy>  (16) 
Cc1n[nH]c2ccc(-n3nccc3C(=O)[N-]c3ccc(Oc4ccncc4)cc3)cc12 (protonated)
Cc1n[nH]c2ccc(-n3nccc3C(=O)[N-]c3ccc(Oc4ccncc4)cc3)cc12 (3D coordinates assigned)
Cc1n[nH]c2ccc(-n3nccc3C(=O)[N-]c3ccc(Oc4ccncc4)cc3)cc12 (optimized conformer: 142.97307188058824 kcal/mol)

>  <smiles>  (16) 
Cc1n[nH]c2ccc(-n3nccc3C(=O)Nc3ccc(Oc4ccncc4)cc3)cc12

>  <score_type>  (16) 
oracle

>  <origin>  (16) 
adgpu

>  <m_score__min__energy>  (16) 
-10.9

>  <m_primary>  (16) 
energy

$$$$
16:0
     RDKit          3D

 38 40  0  0  0  0  0  0  0  0999 V2000
   -6.4640   26.0510  -28.9830 N   0  0  0  0  0  0  0  0  0  0  0  0
   -6.2110   25.1120  -29.6100 C   0  0  0  0  0  0  0  0  0  0  0  0
   -5.8950   23.9430  -30.3930 C   0  0  0  0  0  0  0  0  0  0  0  0
   -6.9340   23.0850  -30.7810 C   0  0  0  0  0  0  0  0  0  0  0  0
   -6.6700   21.9740  -31.5940 C   0  0  0  0  0  0  0  0  0  0  0  0
   -7.9820   20.9090  -32.0840 S   0  0  0  0  0  0  0  0  0  0  0  0
   -8.3440   20.0180  -30.9300 O   0  0  0  0  0  0  0  0  0  0  0  0
   -9.1710   21.7350  -32.4910 O   0  0  0  0  0  0  0  0  0  0  0  0
   -7.4610   19.9520  -33.4390 N   0  0  0  0  0  0  0  0  0  0  0  0
   -6.8060   18.8260  -33.3900 C   0  0  0  0  0  0  0  0  0  0  0  0
   -6.4280   18.2270  -32.1700 C   0  0  0  0  0  0  0  0  0  0  0  0
   -5.7260   17.0200  -32.1860 C   0  0  0  0  0  0  0  0  0  0  0  0
   -5.4060   16.4170  -33.4000 C   0  0  0  0  0  0  0  0  0  0  0  0
   -5.7930   17.0320  -34.5890 C   0  0  0  0  0  0  0  0  0  0  0  0
   -6.4760   18.2090  -34.5620 N   0  0  0  0  0  0  0  0  0  0  0  0
   -5.3630   21.7370  -32.0380 C   0  0  0  0  0  0  0  0  0  0  0  0
   -4.3240   22.5880  -31.6540 C   0  0  0  0  0  0  0  0  0  0  0  0
   -4.5740   23.6800  -30.8150 C   0  0  0  0  0  0  0  0  0  0  0  0
   -3.5000   24.5040  -30.4520 O   0  0  0  0  0  0  0  0  0  0  0  0
   -2.6590   24.2810  -29.3510 C   0  0  0  0  0  0  0  0  0  0  0  0
   -1.6720   25.2080  -28.9640 C   0  0  0  0  0  0  0  0  0  0  0  0
   -0.8590   24.9490  -27.8570 C   0  0  0  0  0  0  0  0  0  0  0  0
   -1.0270   23.7710  -27.1210 C   0  0  0  0  0  0  0  0  0  0  0  0
   -0.0000   23.4570  -25.7330 Cl  0  0  0  0  0  0  0  0  0  0  0  0
   -2.0170   22.8530  -27.4930 C   0  0  0  0  0  0  0  0  0  0  0  0
   -2.1930   21.7100  -26.7830 F   0  0  0  0  0  0  0  0  0  0  0  0
   -2.8300   23.1120  -28.6000 C   0  0  0  0  0  0  0  0  0  0  0  0
   -7.9623   23.2849  -30.4454 H   0  0  0  0  0  0  0  0  0  0  0  0
   -6.6842   18.7068  -31.2139 H   0  0  0  0  0  0  0  0  0  0  0  0
   -5.4258   16.5456  -31.2401 H   0  0  0  0  0  0  0  0  0  0  0  0
   -4.8539   15.4658  -33.4200 H   0  0  0  0  0  0  0  0  0  0  0  0
   -5.5455   16.5643  -35.5534 H   0  0  0  0  0  0  0  0  0  0  0  0
   -6.7520   18.6450  -35.4720 H   0  0  0  0  0  0  0  0  0  0  0  0
   -5.1539   20.8774  -32.6917 H   0  0  0  0  0  0  0  0  0  0  0  0
   -3.3019   22.3985  -32.0136 H   0  0  0  0  0  0  0  0  0  0  0  0
   -1.5405   26.1390  -29.5349 H   0  0  0  0  0  0  0  0  0  0  0  0
   -0.0849   25.6733  -27.5636 H   0  0  0  0  0  0  0  0  0  0  0  0
   -3.6109   22.3911  -28.8836 H   0  0  0  0  0  0  0  0  0  0  0  0
  1  2  3  0
  2  3  1  0
  3  4  2  0
  4  5  1  0
  5  6  1  0
  6  7  2  0
  6  8  2  0
  6  9  1  0
  9 10  2  3
 10 11  1  0
 11 12  2  0
 12 13  1  0
 13 14  2  0
 14 15  1  0
  5 16  2  0
 16 17  1  0
 17 18  2  0
 18 19  1  0
 19 20  1  0
 20 21  2  0
 21 22  1  0
 22 23  2  0
 23 24  1  0
 23 25  1  0
 25 26  1  0
 25 27  2  0
 18  3  1  0
 27 20  1  0
 15 10  1  0
  4 28  1  0
 11 29  1  0
 12 30  1  0
 13 31  1  0
 14 32  1  0
 15 33  1  0
 16 34  1  0
 17 35  1  0
 21 36  1  0
 22 37  1  0
 27 38  1  0
M  END
>  <UniqueID>  (17) 
16

>  <SMILES>  (17) 
N#Cc1cc(S(=O)(=O)N=c2cccc[nH]2)ccc1Oc1ccc(Cl)c(F)c1

>  <Energy>  (17) 
55.464993131196195

>  <Genealogy>  (17) 
N#Cc1cc(S(=O)(=O)N=c2cccc[nH]2)ccc1Oc1ccc(Cl)c(F)c1 (3D coordinates assigned)
N#Cc1cc(S(=O)(=O)N=c2cccc[nH]2)ccc1Oc1ccc(Cl)c(F)c1 (optimized conformer: 55.464993131196195 kcal/mol)

>  <smiles>  (17) 
N#Cc1cc(S(=O)(=O)N=c2cccc[nH]2)ccc1Oc1ccc(Cl)c(F)c1

>  <score_type>  (17) 
oracle

>  <origin>  (17) 
adgpu

>  <m_score__min__energy>  (17) 
-9.5500000000000007

>  <m_primary>  (17) 
energy

$$$$
17:0
     RDKit          3D

 33 34  0  0  0  0  0  0  0  0999 V2000
   -2.6010   21.9610  -31.7090 C   0  0  0  0  0  0  0  0  0  0  0  0
   -3.7650   22.3650  -32.4230 O   0  0  0  0  0  0  0  0  0  0  0  0
   -4.9780   21.6580  -32.4350 C   0  0  0  0  0  0  0  0  0  0  0  0
   -5.1380   20.4710  -33.1780 C   0  0  0  0  0  0  0  0  0  0  0  0
   -6.3530   19.7830  -33.1600 C   0  0  0  0  0  0  0  0  0  0  0  0
   -7.4200   20.2640  -32.4000 C   0  0  0  0  0  0  0  0  0  0  0  0
   -9.0780   19.3180  -32.3720 Br  0  0  0  0  0  0  0  0  0  0  0  0
   -7.2730   21.4390  -31.6580 C   0  0  0  0  0  0  0  0  0  0  0  0
   -6.0630   22.1480  -31.6810 C   0  0  0  0  0  0  0  0  0  0  0  0
   -5.9100   23.6390  -30.7450 S   0  0  0  0  0  0  0  0  0  0  0  0
   -7.2520   24.2900  -30.5610 O   0  0  0  0  0  0  0  0  0  0  0  0
   -5.0020   24.5820  -31.4820 O   0  0  0  0  0  0  0  0  0  0  0  0
   -5.2300   23.3140  -29.1820 N   0  0  0  0  0  0  0  0  0  0  0  0
   -3.8530   23.4950  -28.8240 C   0  0  0  0  0  0  0  0  0  0  0  0
   -3.1380   22.5320  -28.0910 C   0  0  0  0  0  0  0  0  0  0  0  0
   -1.7940   22.7430  -27.7730 C   0  0  0  0  0  0  0  0  0  0  0  0
   -1.1440   23.9190  -28.1800 C   0  0  0  0  0  0  0  0  0  0  0  0
    0.3040   24.1410  -27.8460 C   0  0  0  0  0  0  0  0  0  0  0  0
   -1.8580   24.8810  -28.9150 C   0  0  0  0  0  0  0  0  0  0  0  0
   -1.2360   26.0520  -29.3370 O   0  0  0  0  0  0  0  0  0  0  0  0
   -3.2040   24.6660  -29.2310 C   0  0  0  0  0  0  0  0  0  0  0  0
   -2.7925   22.0275  -30.6278 H   0  0  0  0  0  0  0  0  0  0  0  0
   -2.3502   20.9232  -31.9738 H   0  0  0  0  0  0  0  0  0  0  0  0
   -1.7612   22.6202  -31.9738 H   0  0  0  0  0  0  0  0  0  0  0  0
   -4.2999   20.0839  -33.7762 H   0  0  0  0  0  0  0  0  0  0  0  0
   -6.4693   18.8596  -33.7463 H   0  0  0  0  0  0  0  0  0  0  0  0
   -8.1122   21.8105  -31.0516 H   0  0  0  0  0  0  0  0  0  0  0  0
   -3.6389   21.6081  -27.7663 H   0  0  0  0  0  0  0  0  0  0  0  0
   -1.2418   21.9833  -27.2004 H   0  0  0  0  0  0  0  0  0  0  0  0
    0.4295   24.1602  -26.7534 H   0  0  0  0  0  0  0  0  0  0  0  0
    0.9074   23.3249  -28.2701 H   0  0  0  0  0  0  0  0  0  0  0  0
    0.6352   25.1004  -28.2701 H   0  0  0  0  0  0  0  0  0  0  0  0
   -3.7570   25.4244  -29.8046 H   0  0  0  0  0  0  0  0  0  0  0  0
  1  2  1  0
  2  3  1  0
  3  4  2  0
  4  5  1  0
  5  6  2  0
  6  7  1  0
  6  8  1  0
  8  9  2  0
  9 10  1  0
 10 11  2  0
 10 12  2  0
 10 13  1  0
 13 14  1  0
 14 15  2  0
 15 16  1  0
 16 17  2  0
 17 18  1  0
 17 19  1  0
 19 20  1  0
 19 21  2  0
  9  3  1  0
 21 14  1  0
  1 22  1  0
  1 23  1  0
  1 24  1  0
  4 25  1  0
  5 26  1  0
  8 27  1  0
 15 28  1  0
 16 29  1  0
 18 30  1  0
 18 31  1  0
 18 32  1  0
 21 33  1  0
M  CHG  2  13  -1  20  -1
M  END
>  <UniqueID>  (18) 
17

>  <SMILES>  (18) 
COc1ccc(Br)cc1S(=O)(=O)[N-]c1ccc(C)c([O-])c1

>  <Energy>  (18) 
36.31528424648129

>  <Genealogy>  (18) 
COc1ccc(Br)cc1S(=O)(=O)[N-]c1ccc(C)c([O-])c1 (protonated)
COc1ccc(Br)cc1S(=O)(=O)[N-]c1ccc(C)c([O-])c1 (3D coordinates assigned)
COc1ccc(Br)cc1S(=O)(=O)[N-]c1ccc(C)c([O-])c1 (optimized conformer: 36.31528424648129 kcal/mol)

>  <smiles>  (18) 
COc1ccc(Br)cc1S(=O)(=O)Nc1ccc(C)c(O)c1

>  <score_type>  (18) 
oracle

>  <origin>  (18) 
adgpu

>  <m_score__min__energy>  (18) 
-11.17

>  <m_primary>  (18) 
energy

$$$$
18:0
     RDKit          3D

 31 33  0  0  0  0  0  0  0  0999 V2000
   -2.1090   21.4810  -32.5870 C   0  0  0  0  0  0  0  0  0  0  0  0
   -2.5920   22.5320  -31.5930 C   0  0  0  0  0  0  0  0  0  0  0  0
   -4.0710   22.4210  -31.3800 C   0  0  0  0  0  0  0  0  0  0  0  0
   -4.7940   21.3260  -31.7140 N   0  0  0  0  0  0  0  0  0  0  0  0
   -6.0730   21.5750  -31.4590 N   0  0  0  0  0  0  0  0  0  0  0  0
   -7.1220   20.6200  -31.6910 C   0  0  0  0  0  0  0  0  0  0  0  0
   -6.8720   19.2400  -31.6060 C   0  0  0  0  0  0  0  0  0  0  0  0
   -7.8960   18.3210  -31.8590 C   0  0  0  0  0  0  0  0  0  0  0  0
   -9.1710   18.7730  -32.2090 C   0  0  0  0  0  0  0  0  0  0  0  0
   -9.4220   20.1430  -32.3170 C   0  0  0  0  0  0  0  0  0  0  0  0
   -8.4000   21.0650  -32.0660 C   0  0  0  0  0  0  0  0  0  0  0  0
   -6.1830   22.8360  -30.9860 C   0  0  0  0  0  0  0  0  0  0  0  0
   -7.3330   23.5660  -30.6710 C   0  0  0  0  0  0  0  0  0  0  0  0
   -7.1710   24.8970  -30.2430 C   0  0  0  0  0  0  0  0  0  0  0  0
   -5.8840   25.4710  -30.1580 C   0  0  0  0  0  0  0  0  0  0  0  0
   -4.7460   24.7240  -30.5090 C   0  0  0  0  0  0  0  0  0  0  0  0
   -3.4800   25.2950  -30.4490 O   0  0  0  0  0  0  0  0  0  0  0  0
   -4.9350   23.4020  -30.9230 C   0  0  0  0  0  0  0  0  0  0  0  0
   -1.7106   20.6141  -32.0394 H   0  0  0  0  0  0  0  0  0  0  0  0
   -2.9501   21.1604  -33.2193 H   0  0  0  0  0  0  0  0  0  0  0  0
   -1.3179   21.9105  -33.2193 H   0  0  0  0  0  0  0  0  0  0  0  0
   -2.0769   22.3839  -30.6324 H   0  0  0  0  0  0  0  0  0  0  0  0
   -2.3673   23.5301  -31.9972 H   0  0  0  0  0  0  0  0  0  0  0  0
   -5.8671   18.8808  -31.3395 H   0  0  0  0  0  0  0  0  0  0  0  0
   -7.6973   17.2418  -31.7823 H   0  0  0  0  0  0  0  0  0  0  0  0
   -9.9775   18.0497  -32.3996 H   0  0  0  0  0  0  0  0  0  0  0  0
  -10.4243   20.4973  -32.5997 H   0  0  0  0  0  0  0  0  0  0  0  0
   -8.5984   22.1426  -32.1628 H   0  0  0  0  0  0  0  0  0  0  0  0
   -8.3326   23.1145  -30.7550 H   0  0  0  0  0  0  0  0  0  0  0  0
   -8.0540   25.4946  -29.9726 H   0  0  0  0  0  0  0  0  0  0  0  0
   -5.7709   26.5099  -29.8148 H   0  0  0  0  0  0  0  0  0  0  0  0
  1  2  1  0
  2  3  1  0
  3  4  2  0
  4  5  1  0
  5  6  1  0
  6  7  2  0
  7  8  1  0
  8  9  2  0
  9 10  1  0
 10 11  2  0
  5 12  1  0
 12 13  2  0
 13 14  1  0
 14 15  2  0
 15 16  1  0
 16 17  1  0
 16 18  2  0
 18  3  1  0
 11  6  1  0
 18 12  1  0
  1 19  1  0
  1 20  1  0
  1 21  1  0
  2 22  1  0
  2 23  1  0
  7 24  1  0
  8 25  1  0
  9 26  1  0
 10 27  1  0
 11 28  1  0
 13 29  1  0
 14 30  1  0
 15 31  1  0
M  CHG  1  17  -1
M  END
>  <UniqueID>  (19) 
18

>  <SMILES>  (19) 
CCc1nn(-c2ccccc2)c2cccc([O-])c12

>  <Energy>  (19) 
74.69171457158487

>  <Genealogy>  (19) 
CCc1nn(-c2ccccc2)c2cccc([O-])c12 (protonated)
CCc1nn(-c2ccccc2)c2cccc([O-])c12 (3D coordinates assigned)
CCc1nn(-c2ccccc2)c2cccc([O-])c12 (optimized conformer: 74.69171457158487 kcal/mol)

>  <smiles>  (19) 
CCc1nn(-c2ccccc2)c2cccc(O)c12

>  <score_type>  (19) 
oracle

>  <origin>  (19) 
adgpu

>  <m_score__min__energy>  (19) 
-10.539999999999999

>  <m_primary>  (19) 
energy

$$$$
19:0
     RDKit          3D

 39 40  0  0  0  0  0  0  0  0999 V2000
   -2.7760   21.3140  -27.9930 C   0  0  0  0  0  0  0  0  0  0  0  0
   -3.7510   22.4070  -27.5590 C   0  0  0  0  0  0  0  0  0  0  0  0
   -3.5580   23.7170  -28.3630 C   0  0  1  0  0  0  0  0  0  0  0  0
   -4.8300   24.4540  -28.5140 N   0  0  0  0  0  0  0  0  0  0  0  0
   -5.1480   24.8690  -30.1740 S   0  0  0  0  0  0  0  0  0  0  0  0
   -6.1070   26.0260  -30.2170 O   0  0  0  0  0  0  0  0  0  0  0  0
   -3.8680   25.2920  -30.8410 O   0  0  0  0  0  0  0  0  0  0  0  0
   -5.8520   23.5050  -31.0370 C   0  0  0  0  0  0  0  0  0  0  0  0
   -7.2350   23.2860  -30.9890 C   0  0  0  0  0  0  0  0  0  0  0  0
   -7.7960   22.1820  -31.6380 C   0  0  0  0  0  0  0  0  0  0  0  0
   -6.9800   21.2910  -32.3510 C   0  0  0  0  0  0  0  0  0  0  0  0
   -7.5760   20.0820  -33.0090 C   0  0  0  0  0  0  0  0  0  0  0  0
   -5.5930   21.5000  -32.3800 C   0  0  0  0  0  0  0  0  0  0  0  0
   -5.0340   22.6050  -31.7320 C   0  0  0  0  0  0  0  0  0  0  0  0
   -2.5480   24.6200  -27.6830 C   0  0  0  0  0  0  0  0  0  0  0  0
   -1.4160   25.0840  -28.3810 C   0  0  0  0  0  0  0  0  0  0  0  0
   -0.4970   25.9300  -27.7530 C   0  0  0  0  0  0  0  0  0  0  0  0
   -0.6980   26.3230  -26.4270 C   0  0  0  0  0  0  0  0  0  0  0  0
   -1.8200   25.8720  -25.7270 C   0  0  0  0  0  0  0  0  0  0  0  0
   -2.7420   25.0260  -26.3500 C   0  0  0  0  0  0  0  0  0  0  0  0
   -2.3458   20.8318  -27.1028 H   0  0  0  0  0  0  0  0  0  0  0  0
   -3.3103   20.5637  -28.5943 H   0  0  0  0  0  0  0  0  0  0  0  0
   -1.9698   21.7595  -28.5943 H   0  0  0  0  0  0  0  0  0  0  0  0
   -4.7787   22.0459  -27.7118 H   0  0  0  0  0  0  0  0  0  0  0  0
   -3.5581   22.6299  -26.4992 H   0  0  0  0  0  0  0  0  0  0  0  0
   -3.1906   23.4306  -29.3595 H   0  0  0  0  0  0  0  0  0  0  0  0
   -5.6360   23.8890  -28.1630 H   0  0  0  0  0  0  0  0  0  0  0  0
   -7.8818   23.9852  -30.4387 H   0  0  0  0  0  0  0  0  0  0  0  0
   -8.8816   22.0113  -31.5894 H   0  0  0  0  0  0  0  0  0  0  0  0
   -7.9229   19.3784  -32.2379 H   0  0  0  0  0  0  0  0  0  0  0  0
   -8.4267   20.3876  -33.6358 H   0  0  0  0  0  0  0  0  0  0  0  0
   -6.8155   19.5934  -33.6358 H   0  0  0  0  0  0  0  0  0  0  0  0
   -4.9431   20.7916  -32.9147 H   0  0  0  0  0  0  0  0  0  0  0  0
   -3.9468   22.7687  -31.7679 H   0  0  0  0  0  0  0  0  0  0  0  0
   -1.2542   24.7792  -29.4255 H   0  0  0  0  0  0  0  0  0  0  0  0
    0.3859   26.2869  -28.3036 H   0  0  0  0  0  0  0  0  0  0  0  0
    0.0272   26.9874  -25.9344 H   0  0  0  0  0  0  0  0  0  0  0  0
   -1.9780   26.1832  -24.6838 H   0  0  0  0  0  0  0  0  0  0  0  0
   -3.6245   24.6756  -25.7947 H   0  0  0  0  0  0  0  0  0  0  0  0
  1  2  1  0
  2  3  1  0
  3  4  1  0
  4  5  1  0
  5  6  2  0
  5  7  2  0
  5  8  1  0
  8  9  2  0
  9 10  1  0
 10 11  2  0
 11 12  1  0
 11 13  1  0
 13 14  2  0
  3 15  1  0
 15 16  2  0
 16 17  1  0
 17 18  2  0
 18 19  1  0
 19 20  2  0
 14  8  1  0
 20 15  1  0
  1 21  1  0
  1 22  1  0
  1 23  1  0
  2 24  1  0
  2 25  1  0
  3 26  1  6
  4 27  1  0
  9 28  1  0
 10 29  1  0
 12 30  1  0
 12 31  1  0
 12 32  1  0
 13 33  1  0
 14 34  1  0
 16 35  1  0
 17 36  1  0
 18 37  1  0
 19 38  1  0
 20 39  1  0
M  END
>  <UniqueID>  (20) 
19

>  <SMILES>  (20) 
CC[C@@H](NS(=O)(=O)c1ccc(C)cc1)c1ccccc1

>  <Energy>  (20) 
34.65712835974649

>  <Genealogy>  (20) 
CC[C@@H](NS(=O)(=O)c1ccc(C)cc1)c1ccccc1 (chirality)
CC[C@@H](NS(=O)(=O)c1ccc(C)cc1)c1ccccc1 (3D coordinates assigned)
CC[C@@H](NS(=O)(=O)c1ccc(C)cc1)c1ccccc1 (optimized conformer: 34.65712835974649 kcal/mol)

>  <smiles>  (20) 
CCC(NS(=O)(=O)c1ccc(C)cc1)c1ccccc1

>  <score_type>  (20) 
oracle

>  <origin>  (20) 
adgpu

>  <m_score__min__energy>  (20) 
-8.4399999999999995

>  <m_primary>  (20) 
energy

$$$$
20:0
     RDKit          3D

 40 42  0  0  0  0  0  0  0  0999 V2000
   -0.0790   26.2570  -23.9340 C   0  0  0  0  0  0  0  0  0  0  0  0
    0.2410   25.8750  -25.2670 O   0  0  0  0  0  0  0  0  0  0  0  0
   -0.7090   25.5410  -26.2450 C   0  0  0  0  0  0  0  0  0  0  0  0
   -0.3480   25.6610  -27.5910 C   0  0  0  0  0  0  0  0  0  0  0  0
   -1.2570   25.3400  -28.6030 C   0  0  0  0  0  0  0  0  0  0  0  0
   -2.5520   24.8930  -28.2830 C   0  0  0  0  0  0  0  0  0  0  0  0
   -3.5320   24.5460  -29.3360 C   0  0  0  0  0  0  0  0  0  0  0  0
   -4.4010   23.4710  -29.3600 C   0  0  0  0  0  0  0  0  0  0  0  0
   -5.0810   23.6190  -30.5560 C   0  0  0  0  0  0  0  0  0  0  0  0
   -6.1140   22.7170  -31.1200 C   0  0  0  0  0  0  0  0  0  0  0  0
   -7.4690   23.0320  -30.9160 C   0  0  0  0  0  0  0  0  0  0  0  0
   -8.4770   22.2230  -31.4400 C   0  0  0  0  0  0  0  0  0  0  0  0
   -8.1520   21.0730  -32.1770 C   0  0  0  0  0  0  0  0  0  0  0  0
   -9.1300   20.2320  -32.7280 O   0  0  0  0  0  0  0  0  0  0  0  0
   -9.3580   18.8870  -32.3190 C   0  0  0  0  0  0  0  0  0  0  0  0
   -6.8070   20.7430  -32.3700 C   0  0  0  0  0  0  0  0  0  0  0  0
   -5.7770   21.5470  -31.8390 C   0  0  0  0  0  0  0  0  0  0  0  0
   -4.4260   21.1940  -31.9890 O   0  0  0  0  0  0  0  0  0  0  0  0
   -3.6200   21.5230  -33.1160 C   0  0  0  0  0  0  0  0  0  0  0  0
   -4.6180   24.7130  -31.1950 N   0  0  0  0  0  0  0  0  0  0  0  0
   -3.7020   25.2400  -30.4380 O   0  0  0  0  0  0  0  0  0  0  0  0
   -2.9120   24.7720  -26.9310 C   0  0  0  0  0  0  0  0  0  0  0  0
   -2.0020   25.0920  -25.9190 C   0  0  0  0  0  0  0  0  0  0  0  0
    0.4624   25.6107  -23.2274 H   0  0  0  0  0  0  0  0  0  0  0  0
    0.2151   27.3045  -23.7721 H   0  0  0  0  0  0  0  0  0  0  0  0
   -1.1618   26.1510  -23.7721 H   0  0  0  0  0  0  0  0  0  0  0  0
    0.6606   26.0112  -27.8555 H   0  0  0  0  0  0  0  0  0  0  0  0
   -0.9578   25.4375  -29.6570 H   0  0  0  0  0  0  0  0  0  0  0  0
   -4.5234   22.6814  -28.6040 H   0  0  0  0  0  0  0  0  0  0  0  0
   -7.7373   23.9274  -30.3361 H   0  0  0  0  0  0  0  0  0  0  0  0
   -9.5320   22.4872  -31.2750 H   0  0  0  0  0  0  0  0  0  0  0  0
   -9.3669   18.8344  -31.2203 H   0  0  0  0  0  0  0  0  0  0  0  0
  -10.3271   18.5440  -32.7104 H   0  0  0  0  0  0  0  0  0  0  0  0
   -8.5561   18.2438  -32.7104 H   0  0  0  0  0  0  0  0  0  0  0  0
   -6.5481   19.8418  -32.9452 H   0  0  0  0  0  0  0  0  0  0  0  0
   -2.6526   21.9179  -32.7722 H   0  0  0  0  0  0  0  0  0  0  0  0
   -3.4530   20.6211  -33.7232 H   0  0  0  0  0  0  0  0  0  0  0  0
   -4.1318   22.2842  -33.7232 H   0  0  0  0  0  0  0  0  0  0  0  0
   -3.9204   24.4218  -26.6655 H   0  0  0  0  0  0  0  0  0  0  0  0
   -2.2979   24.9924  -24.8642 H   0  0  0  0  0  0  0  0  0  0  0  0
  1  2  1  0
  2  3  1  0
  3  4  2  0
  4  5  1  0
  5  6  2  0
  6  7  1  0
  7  8  2  0
  8  9  1  0
  9 10  1  0
 10 11  2  0
 11 12  1  0
 12 13  2  0
 13 14  1  0
 14 15  1  0
 13 16  1  0
 16 17  2  0
 17 18  1  0
 18 19  1  0
  9 20  2  0
 20 21  1  0
  6 22  1  0
 22 23  2  0
 23  3  1  0
 21  7  1  0
 17 10  1  0
  1 24  1  0
  1 25  1  0
  1 26  1  0
  4 27  1  0
  5 28  1  0
  8 29  1  0
 11 30  1  0
 12 31  1  0
 15 32  1  0
 15 33  1  0
 15 34  1  0
 16 35  1  0
 19 36  1  0
 19 37  1  0
 19 38  1  0
 22 39  1  0
 23 40  1  0
M  END
>  <UniqueID>  (21) 
20

>  <SMILES>  (21) 
COc1ccc(-c2cc(-c3ccc(OC)cc3OC)no2)cc1

>  <Energy>  (21) 
75.86323544974465

>  <Genealogy>  (21) 
COc1ccc(-c2cc(-c3ccc(OC)cc3OC)no2)cc1 (3D coordinates assigned)
COc1ccc(-c2cc(-c3ccc(OC)cc3OC)no2)cc1 (optimized conformer: 75.86323544974465 kcal/mol)

>  <smiles>  (21) 
COc1ccc(-c2cc(-c3ccc(OC)cc3OC)no2)cc1

>  <score_type>  (21) 
oracle

>  <origin>  (21) 
adgpu

>  <m_score__min__energy>  (21) 
-8

>  <m_primary>  (21) 
energy

$$$$
21:0
     RDKit          3D

 41 44  0  0  0  0  0  0  0  0999 V2000
  -10.2370   21.9110  -30.9530 O   0  0  0  0  0  0  0  0  0  0  0  0
   -9.0170   21.7670  -31.2240 C   0  0  0  0  0  0  0  0  0  0  0  0
   -8.5890   20.6450  -31.9370 C   0  0  0  0  0  0  0  0  0  0  0  0
   -7.2270   20.4890  -32.2250 C   0  0  0  0  0  0  0  0  0  0  0  0
   -6.7890   19.2700  -32.9410 C   0  0  0  0  0  0  0  0  0  0  0  0
   -6.9640   18.0050  -32.3550 C   0  0  0  0  0  0  0  0  0  0  0  0
   -6.5300   16.8550  -33.0200 C   0  0  0  0  0  0  0  0  0  0  0  0
   -5.9090   16.9590  -34.2670 C   0  0  0  0  0  0  0  0  0  0  0  0
   -5.7170   18.2140  -34.8500 C   0  0  0  0  0  0  0  0  0  0  0  0
   -6.1500   19.3680  -34.1890 C   0  0  0  0  0  0  0  0  0  0  0  0
   -6.3250   21.4930  -31.8020 C   0  0  0  0  0  0  0  0  0  0  0  0
   -4.9470   21.4560  -32.0930 C   0  0  0  0  0  0  0  0  0  0  0  0
   -4.1030   22.4740  -31.6440 C   0  0  0  0  0  0  0  0  0  0  0  0
   -4.6080   23.5510  -30.9080 C   0  0  0  0  0  0  0  0  0  0  0  0
   -3.7070   24.5370  -30.4740 O   0  0  0  0  0  0  0  0  0  0  0  0
   -2.8780   24.4460  -29.3150 C   0  0  0  0  0  0  0  0  0  0  0  0
   -2.2440   23.0830  -29.2150 C   0  0  0  0  0  0  0  0  0  0  0  0
   -1.1710   22.7320  -30.0510 C   0  0  0  0  0  0  0  0  0  0  0  0
   -0.5920   21.4620  -29.9580 C   0  0  0  0  0  0  0  0  0  0  0  0
   -1.0850   20.5330  -29.0370 C   0  0  0  0  0  0  0  0  0  0  0  0
   -2.1610   20.8700  -28.2110 C   0  0  0  0  0  0  0  0  0  0  0  0
   -2.7830   19.7020  -27.0590 Cl  0  0  0  0  0  0  0  0  0  0  0  0
   -2.7430   22.1400  -28.3020 C   0  0  0  0  0  0  0  0  0  0  0  0
   -5.9860   23.6090  -30.6350 C   0  0  0  0  0  0  0  0  0  0  0  0
   -6.8420   22.5960  -31.0800 C   0  0  0  0  0  0  0  0  0  0  0  0
   -8.1440   22.6830  -30.8250 O   0  0  0  0  0  0  0  0  0  0  0  0
   -9.3159   19.8895  -32.2699 H   0  0  0  0  0  0  0  0  0  0  0  0
   -7.4444   17.9195  -31.3691 H   0  0  0  0  0  0  0  0  0  0  0  0
   -6.6776   15.8664  -32.5608 H   0  0  0  0  0  0  0  0  0  0  0  0
   -5.5710   16.0523  -34.7901 H   0  0  0  0  0  0  0  0  0  0  0  0
   -5.2246   18.2947  -35.8303 H   0  0  0  0  0  0  0  0  0  0  0  0
   -5.9900   20.3551  -34.6472 H   0  0  0  0  0  0  0  0  0  0  0  0
   -4.5336   20.6206  -32.6771 H   0  0  0  0  0  0  0  0  0  0  0  0
   -3.0278   22.4284  -31.8719 H   0  0  0  0  0  0  0  0  0  0  0  0
   -2.0869   25.2078  -29.3770 H   0  0  0  0  0  0  0  0  0  0  0  0
   -3.5003   24.6111  -28.4231 H   0  0  0  0  0  0  0  0  0  0  0  0
   -0.7848   23.4583  -30.7813 H   0  0  0  0  0  0  0  0  0  0  0  0
    0.2522   21.1940  -30.6103 H   0  0  0  0  0  0  0  0  0  0  0  0
   -0.6258   19.5362  -28.9623 H   0  0  0  0  0  0  0  0  0  0  0  0
   -3.5944   22.4001  -27.6559 H   0  0  0  0  0  0  0  0  0  0  0  0
   -6.3943   24.4578  -30.0669 H   0  0  0  0  0  0  0  0  0  0  0  0
  1  2  2  0
  2  3  1  0
  3  4  2  0
  4  5  1  0
  5  6  2  0
  6  7  1  0
  7  8  2  0
  8  9  1  0
  9 10  2  0
  4 11  1  0
 11 12  2  0
 12 13  1  0
 13 14  2  0
 14 15  1  0
 15 16  1  0
 16 17  1  0
 17 18  2  0
 18 19  1  0
 19 20  2  0
 20 21  1  0
 21 22  1  0
 21 23  2  0
 14 24  1  0
 24 25  2  0
 25 26  1  0
 26  2  1  0
 10  5  1  0
 25 11  1  0
 23 17  1  0
  3 27  1  0
  6 28  1  0
  7 29  1  0
  8 30  1  0
  9 31  1  0
 10 32  1  0
 12 33  1  0
 13 34  1  0
 16 35  1  0
 16 36  1  0
 18 37  1  0
 19 38  1  0
 20 39  1  0
 23 40  1  0
 24 41  1  0
M  END
>  <UniqueID>  (22) 
21

>  <SMILES>  (22) 
O=c1cc(-c2ccccc2)c2ccc(OCc3cccc(Cl)c3)cc2o1

>  <Energy>  (22) 
58.06807724635408

>  <Genealogy>  (22) 
O=c1cc(-c2ccccc2)c2ccc(OCc3cccc(Cl)c3)cc2o1 (3D coordinates assigned)
O=c1cc(-c2ccccc2)c2ccc(OCc3cccc(Cl)c3)cc2o1 (optimized conformer: 58.06807724635408 kcal/mol)

>  <smiles>  (22) 
O=c1cc(-c2ccccc2)c2ccc(OCc3cccc(Cl)c3)cc2o1

>  <score_type>  (22) 
oracle

>  <origin>  (22) 
adgpu

>  <m_score__min__energy>  (22) 
-9.7799999999999994

>  <m_primary>  (22) 
energy

$$$$
22:0
     RDKit          3D

 45 47  0  0  0  0  0  0  0  0999 V2000
   -0.5530   26.7580  -23.0780 C   0  0  0  0  0  0  0  0  0  0  0  0
   -0.7760   26.2550  -24.4730 C   0  0  0  0  0  0  0  0  0  0  0  0
   -0.8480   24.8780  -24.7290 C   0  0  0  0  0  0  0  0  0  0  0  0
   -1.0180   24.4110  -26.0360 C   0  0  0  0  0  0  0  0  0  0  0  0
   -1.0950   25.3130  -27.1110 C   0  0  0  0  0  0  0  0  0  0  0  0
   -1.2720   24.8280  -28.5000 C   0  0  0  0  0  0  0  0  0  0  0  0
   -0.4390   24.0150  -28.9800 O   0  0  0  0  0  0  0  0  0  0  0  0
   -2.3350   25.2970  -29.3420 N   0  0  0  0  0  0  0  0  0  0  0  0
   -3.4160   24.5090  -29.8610 C   0  0  0  0  0  0  0  0  0  0  0  0
   -4.7120   25.0330  -30.0010 C   0  0  0  0  0  0  0  0  0  0  0  0
   -5.7440   24.2350  -30.5030 C   0  0  0  0  0  0  0  0  0  0  0  0
   -5.4980   22.9000  -30.8500 C   0  0  0  0  0  0  0  0  0  0  0  0
   -6.5650   22.0950  -31.3650 N   0  0  0  0  0  0  0  0  0  0  0  0
   -7.7660   21.8730  -30.5560 C   0  0  0  0  0  0  0  0  0  0  0  0
   -8.9410   21.4450  -31.4480 C   0  0  0  0  0  0  0  0  0  0  0  0
   -8.6190   20.2890  -32.3230 N   0  0  0  0  0  0  0  0  0  0  0  0
   -9.0570   19.0210  -31.7170 C   0  0  0  0  0  0  0  0  0  0  0  0
   -7.2010   20.2010  -32.7580 C   0  0  0  0  0  0  0  0  0  0  0  0
   -6.4860   21.5540  -32.7190 C   0  0  0  0  0  0  0  0  0  0  0  0
   -4.2100   22.3640  -30.6900 C   0  0  0  0  0  0  0  0  0  0  0  0
   -3.8630   20.6980  -31.1260 Cl  0  0  0  0  0  0  0  0  0  0  0  0
   -3.1780   23.1680  -30.1900 C   0  0  0  0  0  0  0  0  0  0  0  0
   -1.0220   26.6910  -26.8500 C   0  0  0  0  0  0  0  0  0  0  0  0
   -0.8540   27.1570  -25.5430 C   0  0  0  0  0  0  0  0  0  0  0  0
   -0.8895   25.9990  -22.3564 H   0  0  0  0  0  0  0  0  0  0  0  0
    0.5181   26.9580  -22.9272 H   0  0  0  0  0  0  0  0  0  0  0  0
   -1.1240   27.6860  -22.9272 H   0  0  0  0  0  0  0  0  0  0  0  0
   -0.7704   24.1619  -23.8976 H   0  0  0  0  0  0  0  0  0  0  0  0
   -1.0920   23.3297  -26.2242 H   0  0  0  0  0  0  0  0  0  0  0  0
   -4.9154   26.0754  -29.7144 H   0  0  0  0  0  0  0  0  0  0  0  0
   -6.7526   24.6565  -30.6260 H   0  0  0  0  0  0  0  0  0  0  0  0
   -7.5647   21.0827  -29.8178 H   0  0  0  0  0  0  0  0  0  0  0  0
   -8.0296   22.8102  -30.0441 H   0  0  0  0  0  0  0  0  0  0  0  0
   -9.7881   21.1699  -30.8025 H   0  0  0  0  0  0  0  0  0  0  0  0
   -9.1809   22.2951  -32.1036 H   0  0  0  0  0  0  0  0  0  0  0  0
   -9.0267   19.1087  -30.6209 H   0  0  0  0  0  0  0  0  0  0  0  0
  -10.0847   18.7966  -32.0386 H   0  0  0  0  0  0  0  0  0  0  0  0
   -8.3869   18.2101  -32.0386 H   0  0  0  0  0  0  0  0  0  0  0  0
   -6.6713   19.5037  -32.0922 H   0  0  0  0  0  0  0  0  0  0  0  0
   -7.1945   19.8518  -33.8011 H   0  0  0  0  0  0  0  0  0  0  0  0
   -5.4314   21.4220  -33.0024 H   0  0  0  0  0  0  0  0  0  0  0  0
   -6.9655   22.2481  -33.4249 H   0  0  0  0  0  0  0  0  0  0  0  0
   -2.1724   22.7432  -30.0545 H   0  0  0  0  0  0  0  0  0  0  0  0
   -1.0976   27.4087  -27.6801 H   0  0  0  0  0  0  0  0  0  0  0  0
   -0.7826   28.2381  -25.3530 H   0  0  0  0  0  0  0  0  0  0  0  0
  1  2  1  0
  2  3  2  0
  3  4  1  0
  4  5  2  0
  5  6  1  0
  6  7  2  0
  6  8  1  0
  8  9  1  0
  9 10  2  0
 10 11  1  0
 11 12  2  0
 12 13  1  0
 13 14  1  0
 14 15  1  0
 15 16  1  0
 16 17  1  0
 16 18  1  0
 18 19  1  0
 12 20  1  0
 20 21  1  0
 20 22  2  0
  5 23  1  0
 23 24  2  0
 24  2  1  0
 22  9  1  0
 19 13  1  0
  1 25  1  0
  1 26  1  0
  1 27  1  0
  3 28  1  0
  4 29  1  0
 10 30  1  0
 11 31  1  0
 14 32  1  0
 14 33  1  0
 15 34  1  0
 15 35  1  0
 17 36  1  0
 17 37  1  0
 17 38  1  0
 18 39  1  0
 18 40  1  0
 19 41  1  0
 19 42  1  0
 22 43  1  0
 23 44  1  0
 24 45  1  0
M  CHG  1   8  -1
M  END
>  <UniqueID>  (23) 
22

>  <SMILES>  (23) 
Cc1ccc(C(=O)[N-]c2ccc(N3CCN(C)CC3)c(Cl)c2)cc1

>  <Energy>  (23) 
64.67908324440144

>  <Genealogy>  (23) 
Cc1ccc(C(=O)[N-]c2ccc(N3CCN(C)CC3)c(Cl)c2)cc1 (protonated)
Cc1ccc(C(=O)[N-]c2ccc(N3CCN(C)CC3)c(Cl)c2)cc1 (3D coordinates assigned)
Cc1ccc(C(=O)[N-]c2ccc(N3CCN(C)CC3)c(Cl)c2)cc1 (nonaromatic ring conformer: 64.67908324440144 kcal/mol)

>  <smiles>  (23) 
Cc1ccc(C(=O)Nc2ccc(N3CCN(C)CC3)c(Cl)c2)cc1

>  <score_type>  (23) 
oracle

>  <origin>  (23) 
adgpu

>  <m_score__min__energy>  (23) 
-10.380000000000001

>  <m_primary>  (23) 
energy

$$$$
23:0
     RDKit          3D

 44 46  0  0  1  0  0  0  0  0999 V2000
    0.1470   21.0410  -33.8050 C   0  0  0  0  0  0  0  0  0  0  0  0
    0.4080   20.4170  -32.4600 C   0  0  0  0  0  0  0  0  0  0  0  0
    1.4870   19.8080  -32.3390 O   0  0  0  0  0  0  0  0  0  0  0  0
   -0.5370   20.5370  -31.4180 N   0  0  0  0  0  0  0  0  0  0  0  0
   -0.4150   20.0050  -30.1210 C   0  0  0  0  0  0  0  0  0  0  0  0
    0.6130   19.2360  -29.6560 C   0  0  0  0  0  0  0  0  0  0  0  0
    0.6710   18.7390  -28.3530 C   0  0  0  0  0  0  0  0  0  0  0  0
   -0.3410   19.0170  -27.4610 C   0  0  0  0  0  0  0  0  0  0  0  0
   -1.3840   19.7900  -27.9170 C   0  0  0  0  0  0  0  0  0  0  0  0
   -1.4400   20.2850  -29.2200 C   0  0  0  0  0  0  0  0  0  0  0  0
   -2.5720   21.0410  -29.6080 N   0  0  0  0  0  0  0  0  0  0  0  0
   -2.6560   22.2930  -29.5230 C   0  0  0  0  0  0  0  0  0  0  0  0
   -3.7960   22.8960  -29.9280 N   0  0  0  0  0  0  0  0  0  0  0  0
   -3.9730   24.2280  -29.8740 C   0  0  0  0  0  0  0  0  0  0  0  0
   -5.0520   24.8210  -30.2550 N   0  0  0  0  0  0  0  0  0  0  0  0
   -6.1160   24.0210  -30.7630 C   0  0  0  0  0  0  0  0  0  0  0  0
   -6.4840   24.0100  -32.0860 C   0  0  0  0  0  0  0  0  0  0  0  0
   -7.5300   23.2000  -32.4780 C   0  0  0  0  0  0  0  0  0  0  0  0
   -8.1910   22.4130  -31.5360 C   0  0  0  0  0  0  0  0  0  0  0  0
   -9.3260   21.5260  -31.9260 C   0  0  0  0  0  0  0  0  0  0  0  0
   -7.8300   22.4150  -30.2000 C   0  0  0  0  0  0  0  0  0  0  0  0
   -6.7810   23.2310  -29.8190 C   0  0  0  0  0  0  0  0  0  0  0  0
   -2.9780   24.9990  -29.3980 N   0  0  0  0  0  0  0  0  0  0  0  0
   -1.8300   24.4250  -28.9860 C   0  0  0  0  0  0  0  0  0  0  0  0
   -1.6350   23.0690  -29.0360 C   0  0  0  0  0  0  0  0  0  0  0  0
   -0.1300   22.3780  -28.4910 Cl  0  0  0  0  0  0  0  0  0  0  0  0
   -0.2741   22.0477  -33.6666 H   0  0  0  0  0  0  0  0  0  0  0  0
    1.0908   21.1122  -34.3655 H   0  0  0  0  0  0  0  0  0  0  0  0
   -0.5664   20.4190  -34.3655 H   0  0  0  0  0  0  0  0  0  0  0  0
   -1.4130   21.0870  -31.6680 H   0  0  0  0  0  0  0  0  0  0  0  0
    1.4376   18.9959  -30.3434 H   0  0  0  0  0  0  0  0  0  0  0  0
    1.5268   18.1240  -28.0378 H   0  0  0  0  0  0  0  0  0  0  0  0
   -0.3165   18.6375  -26.4288 H   0  0  0  0  0  0  0  0  0  0  0  0
   -2.2067   20.0272  -27.2264 H   0  0  0  0  0  0  0  0  0  0  0  0
   -4.5810   22.2920  -30.3040 H   0  0  0  0  0  0  0  0  0  0  0  0
   -5.9546   24.6355  -32.8198 H   0  0  0  0  0  0  0  0  0  0  0  0
   -7.8420   23.1752  -33.5325 H   0  0  0  0  0  0  0  0  0  0  0  0
   -9.8184   21.1412  -31.0208 H   0  0  0  0  0  0  0  0  0  0  0  0
  -10.0511   22.0992  -32.5223 H   0  0  0  0  0  0  0  0  0  0  0  0
   -8.9450   20.6838  -32.5223 H   0  0  0  0  0  0  0  0  0  0  0  0
   -8.3594   21.7890  -29.4666 H   0  0  0  0  0  0  0  0  0  0  0  0
   -6.4667   23.2594  -28.7652 H   0  0  0  0  0  0  0  0  0  0  0  0
   -3.1110   26.0360  -29.3530 H   0  0  0  0  0  0  0  0  0  0  0  0
   -1.0241   25.0650  -28.5974 H   0  0  0  0  0  0  0  0  0  0  0  0
  1  2  1  0
  2  3  2  0
  2  4  1  0
  4  5  1  0
  5  6  2  0
  6  7  1  0
  7  8  2  0
  8  9  1  0
  9 10  2  0
 10 11  1  0
 11 12  2  0
 12 13  1  0
 13 14  1  0
 14 15  2  0
 15 16  1  0
 16 17  2  0
 17 18  1  0
 18 19  2  0
 19 20  1  0
 19 21  1  0
 21 22  2  0
 14 23  1  0
 23 24  1  0
 24 25  2  0
 25 26  1  0
 10  5  1  0
 25 12  1  0
 22 16  1  0
  1 27  1  0
  1 28  1  0
  1 29  1  0
  4 30  1  0
  6 31  1  0
  7 32  1  0
  8 33  1  0
  9 34  1  0
 13 35  1  0
 17 36  1  0
 18 37  1  0
 20 38  1  0
 20 39  1  0
 20 40  1  0
 21 41  1  0
 22 42  1  0
 23 43  1  0
 24 44  1  0
M  END
>  <smiles>  (24) 
CC(=O)Nc1ccccc1N=c1[nH]c(=Nc2ccc(C)cc2)[nH]cc1Cl

>  <score_type>  (24) 
oracle

>  <origin>  (24) 
adgpu

>  <m_score__min__energy>  (24) 
-8.8200000000000003

>  <m_primary>  (24) 
energy

$$$$
24:0
     RDKit          3D

 59 62  0  0  0  0  0  0  0  0999 V2000
   -5.7860   25.9520  -30.1070 C   0  0  0  0  0  0  0  0  0  0  0  0
   -4.4210   25.6630  -30.3920 O   0  0  0  0  0  0  0  0  0  0  0  0
   -3.8780   24.3700  -30.4550 C   0  0  0  0  0  0  0  0  0  0  0  0
   -4.5780   23.2970  -31.0310 C   0  0  0  0  0  0  0  0  0  0  0  0
   -4.0210   22.0200  -31.0510 C   0  0  0  0  0  0  0  0  0  0  0  0
   -2.7400   21.7910  -30.5290 C   0  0  0  0  0  0  0  0  0  0  0  0
   -2.1500   20.3950  -30.5790 C   0  0  0  0  0  0  0  0  0  0  0  0
   -0.8470   20.3590  -31.2950 N   0  0  0  0  0  0  0  0  0  0  0  0
   -0.3340   18.9660  -31.4640 C   0  0  0  0  0  0  0  0  0  0  0  0
   -0.5360   18.3810  -32.8770 C   0  0  0  0  0  0  0  0  0  0  0  0
   -1.7230   18.9520  -33.5150 N   0  0  0  0  0  0  0  0  0  0  0  0
   -2.7830   18.0990  -33.9690 C   0  0  0  0  0  0  0  0  0  0  0  0
   -2.4830   17.0570  -34.7900 N   0  0  0  0  0  0  0  0  0  0  0  0
   -3.4480   16.2460  -35.2960 C   0  0  0  0  0  0  0  0  0  0  0  0
   -3.0720   15.0960  -36.1680 C   0  0  0  0  0  0  0  0  0  0  0  0
   -4.7480   16.4530  -34.9680 N   0  0  0  0  0  0  0  0  0  0  0  0
   -5.1110   17.4690  -34.1440 C   0  0  0  0  0  0  0  0  0  0  0  0
   -6.4590   17.6580  -33.8200 C   0  0  0  0  0  0  0  0  0  0  0  0
   -6.8330   18.6870  -32.9520 C   0  0  0  0  0  0  0  0  0  0  0  0
   -5.8630   19.5280  -32.4020 C   0  0  0  0  0  0  0  0  0  0  0  0
   -4.5130   19.3520  -32.7230 C   0  0  0  0  0  0  0  0  0  0  0  0
   -4.1260   18.3280  -33.6080 C   0  0  0  0  0  0  0  0  0  0  0  0
   -1.8910   20.4050  -33.5630 C   0  0  0  0  0  0  0  0  0  0  0  0
   -0.9270   21.0910  -32.5820 C   0  0  0  0  0  0  0  0  0  0  0  0
   -2.0110   22.8710  -29.9880 C   0  0  0  0  0  0  0  0  0  0  0  0
   -0.6980   22.6650  -29.5630 O   0  0  0  0  0  0  0  0  0  0  0  0
   -0.4100   22.2200  -28.2450 C   0  0  0  0  0  0  0  0  0  0  0  0
   -2.6040   24.1550  -29.9070 C   0  0  0  0  0  0  0  0  0  0  0  0
   -1.9680   25.2490  -29.2960 O   0  0  0  0  0  0  0  0  0  0  0  0
   -1.6050   25.3120  -27.9210 C   0  0  0  0  0  0  0  0  0  0  0  0
   -5.9344   25.9834  -29.0175 H   0  0  0  0  0  0  0  0  0  0  0  0
   -6.0530   26.9266  -30.5417 H   0  0  0  0  0  0  0  0  0  0  0  0
   -6.4250   25.1692  -30.5417 H   0  0  0  0  0  0  0  0  0  0  0  0
   -5.5727   23.4660  -31.4693 H   0  0  0  0  0  0  0  0  0  0  0  0
   -4.5917   21.1834  -31.4805 H   0  0  0  0  0  0  0  0  0  0  0  0
   -1.9982   20.0379  -29.5497 H   0  0  0  0  0  0  0  0  0  0  0  0
   -2.8536   19.7514  -31.1274 H   0  0  0  0  0  0  0  0  0  0  0  0
   -0.1480   20.8810  -30.7140 H   0  0  0  0  0  0  0  0  0  0  0  0
    0.7435   18.9667  -31.2424 H   0  0  0  0  0  0  0  0  0  0  0  0
   -0.9122   18.3322  -30.7756 H   0  0  0  0  0  0  0  0  0  0  0  0
    0.3477   18.6095  -33.4909 H   0  0  0  0  0  0  0  0  0  0  0  0
   -0.6733   17.2931  -32.7901 H   0  0  0  0  0  0  0  0  0  0  0  0
   -2.7911   14.2369  -35.5410 H   0  0  0  0  0  0  0  0  0  0  0  0
   -3.9275   14.8223  -36.8031 H   0  0  0  0  0  0  0  0  0  0  0  0
   -2.2201   15.3806  -36.8031 H   0  0  0  0  0  0  0  0  0  0  0  0
   -7.2252   16.9957  -34.2492 H   0  0  0  0  0  0  0  0  0  0  0  0
   -7.8938   18.8351  -32.7012 H   0  0  0  0  0  0  0  0  0  0  0  0
   -6.1619   20.3321  -31.7135 H   0  0  0  0  0  0  0  0  0  0  0  0
   -3.7529   20.0145  -32.2834 H   0  0  0  0  0  0  0  0  0  0  0  0
   -1.6827   20.7600  -34.5831 H   0  0  0  0  0  0  0  0  0  0  0  0
   -2.9242   20.6533  -33.2787 H   0  0  0  0  0  0  0  0  0  0  0  0
    0.0751   21.1293  -33.0340 H   0  0  0  0  0  0  0  0  0  0  0  0
   -1.3050   22.1039  -32.3792 H   0  0  0  0  0  0  0  0  0  0  0  0
   -0.8585   22.9129  -27.5178 H   0  0  0  0  0  0  0  0  0  0  0  0
   -0.8283   21.2133  -28.0983 H   0  0  0  0  0  0  0  0  0  0  0  0
    0.6797   22.1892  -28.0983 H   0  0  0  0  0  0  0  0  0  0  0  0
   -2.4985   25.1569  -27.2984 H   0  0  0  0  0  0  0  0  0  0  0  0
   -0.8644   24.5290  -27.7010 H   0  0  0  0  0  0  0  0  0  0  0  0
   -1.1716   26.2988  -27.7010 H   0  0  0  0  0  0  0  0  0  0  0  0
  1  2  1  0
  2  3  1  0
  3  4  2  0
  4  5  1  0
  5  6  2  0
  6  7  1  0
  7  8  1  0
  8  9  1  0
  9 10  1  0
 10 11  1  0
 11 12  1  0
 12 13  2  0
 13 14  1  0
 14 15  1  0
 14 16  2  0
 16 17  1  0
 17 18  2  0
 18 19  1  0
 19 20  2  0
 20 21  1  0
 21 22  2  0
 11 23  1  0
 23 24  1  0
  6 25  1  0
 25 26  1  0
 26 27  1  0
 25 28  2  0
 28 29  1  0
 29 30  1  0
 28  3  1  0
 24  8  1  0
 22 12  1  0
 22 17  1  0
  1 31  1  0
  1 32  1  0
  1 33  1  0
  4 34  1  0
  5 35  1  0
  7 36  1  0
  7 37  1  0
  8 38  1  0
  9 39  1  0
  9 40  1  0
 10 41  1  0
 10 42  1  0
 15 43  1  0
 15 44  1  0
 15 45  1  0
 18 46  1  0
 19 47  1  0
 20 48  1  0
 21 49  1  0
 23 50  1  0
 23 51  1  0
 24 52  1  0
 24 53  1  0
 27 54  1  0
 27 55  1  0
 27 56  1  0
 30 57  1  0
 30 58  1  0
 30 59  1  0
M  CHG  1   8   1
M  END
>  <UniqueID>  (25) 
23

>  <SMILES>  (25) 
COc1ccc(C[NH+]2CCN(c3nc(C)nc4ccccc34)CC2)c(OC)c1OC

>  <Energy>  (25) 
88.77179857025173

>  <Genealogy>  (25) 
COc1ccc(C[NH+]2CCN(c3nc(C)nc4ccccc34)CC2)c(OC)c1OC (protonated)
COc1ccc(C[NH+]2CCN(c3nc(C)nc4ccccc34)CC2)c(OC)c1OC (3D coordinates assigned)
COc1ccc(C[NH+]2CCN(c3nc(C)nc4ccccc34)CC2)c(OC)c1OC (nonaromatic ring conformer: 88.77179857025173 kcal/mol)

>  <smiles>  (25) 
COc1ccc(CN2CCN(c3nc(C)nc4ccccc34)CC2)c(OC)c1OC

>  <score_type>  (25) 
oracle

>  <origin>  (25) 
adgpu

>  <m_score__min__energy>  (25) 
-8.6500000000000004

>  <m_primary>  (25) 
energy

$$$$
25:0
     RDKit          3D

 22 23  0  0  1  0  0  0  0  0999 V2000
   -6.9680   22.6680  -29.7970 N   0  0  0  0  0  0  0  0  0  0  0  0
   -6.2710   23.6820  -30.0870 C   0  0  0  0  0  0  0  0  0  0  0  0
   -6.3030   24.8260  -29.3370 N   0  0  0  0  0  0  0  0  0  0  0  0
   -5.4780   25.6970  -29.8870 N   0  0  0  0  0  0  0  0  0  0  0  0
   -4.8950   25.2000  -30.9600 N   0  0  0  0  0  0  0  0  0  0  0  0
   -5.3780   23.9580  -31.0910 C   0  0  0  0  0  0  0  0  0  0  0  0
   -5.0520   23.1490  -32.0200 N   0  0  0  0  0  0  0  0  0  0  0  0
   -5.5460   21.8310  -32.1850 C   0  0  0  0  0  0  0  0  0  0  0  0
   -6.8510   21.6350  -32.6600 C   0  0  0  0  0  0  0  0  0  0  0  0
   -7.3610   20.3690  -32.8110 C   0  0  0  0  0  0  0  0  0  0  0  0
   -6.5680   19.2740  -32.4870 C   0  0  0  0  0  0  0  0  0  0  0  0
   -7.2700   17.6780  -32.6990 Cl  0  0  0  0  0  0  0  0  0  0  0  0
   -5.2810   19.4560  -32.0180 C   0  0  0  0  0  0  0  0  0  0  0  0
   -4.7420   20.7320  -31.8560 C   0  0  0  0  0  0  0  0  0  0  0  0
   -7.1140   21.7560  -30.1680 H   0  0  0  0  0  0  0  0  0  0  0  0
   -6.8800   24.9840  -28.4810 H   0  0  0  0  0  0  0  0  0  0  0  0
   -5.3250   26.6530  -29.4960 H   0  0  0  0  0  0  0  0  0  0  0  0
   -4.1900   25.6750  -31.5930 H   0  0  0  0  0  0  0  0  0  0  0  0
   -7.4733   22.5056  -32.9146 H   0  0  0  0  0  0  0  0  0  0  0  0
   -8.3854   20.2229  -33.1841 H   0  0  0  0  0  0  0  0  0  0  0  0
   -4.6693   18.5768  -31.7674 H   0  0  0  0  0  0  0  0  0  0  0  0
   -3.7171   20.8712  -31.4814 H   0  0  0  0  0  0  0  0  0  0  0  0
  1  2  2  0
  2  3  1  0
  3  4  1  0
  4  5  1  0
  5  6  1  0
  6  7  2  0
  7  8  1  0
  8  9  2  0
  9 10  1  0
 10 11  2  0
 11 12  1  0
 11 13  1  0
 13 14  2  0
  6  2  1  0
 14  8  1  0
  1 15  1  0
  3 16  1  0
  4 17  1  0
  5 18  1  0
  9 19  1  0
 10 20  1  0
 13 21  1  0
 14 22  1  0
M  END
>  <smiles>  (26) 
N=c1[nH][nH][nH]c1=Nc1ccc(Cl)cc1

>  <score_type>  (26) 
oracle

>  <origin>  (26) 
adgpu

>  <m_score__min__energy>  (26) 
-6.5099999999999998

>  <m_primary>  (26) 
energy

$$$$
26:0
     RDKit          3D

 38 40  0  0  0  0  0  0  0  0999 V2000
   -1.0529   23.5218  -27.8502 H   0  0  0  0  0  0  0  0  0  0  0  0
   -1.8790   23.6190  -28.5700 C   0  0  0  0  0  0  0  0  0  0  0  0
   -2.1140   24.8390  -29.2150 C   0  0  0  0  0  0  0  0  0  0  0  0
   -1.2480   25.9590  -28.9670 N   0  0  0  0  0  0  0  0  0  0  0  0
   -1.2040   26.7150  -29.6880 H   0  0  0  0  0  0  0  0  0  0  0  0
   -0.5230   26.1590  -27.7400 C   0  0  0  0  0  0  0  0  0  0  0  0
    0.5500   25.3250  -27.3800 C   0  0  0  0  0  0  0  0  0  0  0  0
    0.8372   24.4888  -28.0345 H   0  0  0  0  0  0  0  0  0  0  0  0
    1.2540   25.5540  -26.1930 C   0  0  0  0  0  0  0  0  0  0  0  0
    2.0839   24.8889  -25.9122 H   0  0  0  0  0  0  0  0  0  0  0  0
    0.9060   26.6310  -25.3560 C   0  0  0  0  0  0  0  0  0  0  0  0
    1.5800   26.9000  -24.1560 O   0  0  0  0  0  0  0  0  0  0  0  0
    1.0510   27.6970  -23.1000 C   0  0  0  0  0  0  0  0  0  0  0  0
    1.3399   27.2617  -22.1320 H   0  0  0  0  0  0  0  0  0  0  0  0
    1.4507   28.7190  -23.1764 H   0  0  0  0  0  0  0  0  0  0  0  0
   -0.0460   27.7256  -23.1764 H   0  0  0  0  0  0  0  0  0  0  0  0
   -0.1470   27.4720  -25.7310 C   0  0  0  0  0  0  0  0  0  0  0  0
   -0.4234   28.3200  -25.0872 H   0  0  0  0  0  0  0  0  0  0  0  0
   -0.8510   27.2440  -26.9170 C   0  0  0  0  0  0  0  0  0  0  0  0
   -1.6682   27.9213  -27.2059 H   0  0  0  0  0  0  0  0  0  0  0  0
   -3.1350   24.9370  -30.1110 N   0  0  0  0  0  0  0  0  0  0  0  0
   -3.9680   23.8980  -30.3930 C   0  0  0  0  0  0  0  0  0  0  0  0
   -4.9150   24.0850  -31.2700 N   0  0  0  0  0  0  0  0  0  0  0  0
   -5.9540   23.1690  -31.6460 C   0  0  0  0  0  0  0  0  0  0  0  0
   -7.2660   23.4100  -31.2160 C   0  0  0  0  0  0  0  0  0  0  0  0
   -7.4937   24.3157  -30.6348 H   0  0  0  0  0  0  0  0  0  0  0  0
   -8.2870   22.5050  -31.5220 C   0  0  0  0  0  0  0  0  0  0  0  0
   -9.3180   22.7088  -31.1970 H   0  0  0  0  0  0  0  0  0  0  0  0
   -7.9980   21.3410  -32.2410 C   0  0  0  0  0  0  0  0  0  0  0  0
   -8.8031   20.6341  -32.4901 H   0  0  0  0  0  0  0  0  0  0  0  0
   -6.6860   21.0760  -32.6430 C   0  0  0  0  0  0  0  0  0  0  0  0
   -6.4578   20.1555  -33.2003 H   0  0  0  0  0  0  0  0  0  0  0  0
   -5.6630   21.9790  -32.3380 C   0  0  0  0  0  0  0  0  0  0  0  0
   -4.6284   21.7586  -32.6397 H   0  0  0  0  0  0  0  0  0  0  0  0
   -3.7480   22.6570  -29.7610 C   0  0  0  0  0  0  0  0  0  0  0  0
   -4.3963   21.7972  -29.9859 H   0  0  0  0  0  0  0  0  0  0  0  0
   -2.7010   22.5290  -28.8480 C   0  0  0  0  0  0  0  0  0  0  0  0
   -2.5242   21.5659  -28.3468 H   0  0  0  0  0  0  0  0  0  0  0  0
  1  2  1  0
  2  3  2  0
  3  4  1  0
  4  5  1  0
  4  6  1  0
  6  7  2  0
  7  8  1  0
  7  9  1  0
  9 10  1  0
  9 11  2  0
 11 12  1  0
 12 13  1  0
 13 14  1  0
 13 15  1  0
 13 16  1  0
 11 17  1  0
 17 18  1  0
 17 19  2  0
 19 20  1  0
  3 21  1  0
 21 22  1  0
 22 23  2  0
 23 24  1  0
 24 25  2  0
 25 26  1  0
 25 27  1  0
 27 28  1  0
 27 29  2  0
 29 30  1  0
 29 31  1  0
 31 32  1  0
 31 33  2  0
 33 34  1  0
 22 35  1  0
 35 36  1  0
 35 37  2  0
 37 38  1  0
 37  2  1  0
 19  6  1  0
 33 24  1  0
M  CHG  1  21  -1
M  END
>  <UniqueID>  (27) 
24

>  <SMILES>  (27) 
COc1ccc(Nc2ccc/c(=N\c3ccccc3)[n-]2)cc1

>  <Energy>  (27) 
53.879982371169426

>  <Genealogy>  (27) 
COc1ccc(Nc2cccc(=Nc3ccccc3)[n-]2)cc1 (protonated)
COc1ccc(Nc2ccc/c(=N\c3ccccc3)[n-]2)cc1 (cis-trans isomerization)
COc1ccc(Nc2ccc/c(=N\c3ccccc3)[n-]2)cc1 (3D coordinates assigned)
COc1ccc(Nc2ccc/c(=N\c3ccccc3)[n-]2)cc1 (optimized conformer: 53.879982371169426 kcal/mol)

>  <smiles>  (27) 
COc1ccc(Nc2cccc(=Nc3ccccc3)[nH]2)cc1

>  <score_type>  (27) 
oracle

>  <origin>  (27) 
adgpu

>  <m_score__min__energy>  (27) 
-9.4399999999999995

>  <m_primary>  (27) 
energy

$$$$
27:0
     RDKit          3D

 42 44  0  0  1  0  0  0  0  0999 V2000
   -5.6510   18.5010  -34.5500 C   0  0  0  0  0  0  0  0  0  0  0  0
   -6.8380   18.9290  -33.8500 N   0  0  0  0  0  0  0  0  0  0  0  0
   -6.4880   19.3780  -32.2210 S   0  0  0  0  0  0  0  0  0  0  0  0
   -5.0910   19.0720  -31.8370 O   0  0  0  0  0  0  0  0  0  0  0  0
   -7.4570   18.6090  -31.3470 O   0  0  0  0  0  0  0  0  0  0  0  0
   -6.8330   21.0700  -31.9500 C   0  0  0  0  0  0  0  0  0  0  0  0
   -8.1090   21.5920  -31.9790 C   0  0  0  0  0  0  0  0  0  0  0  0
   -8.3540   22.9370  -31.7620 C   0  0  0  0  0  0  0  0  0  0  0  0
   -7.2850   23.7900  -31.5060 C   0  0  0  0  0  0  0  0  0  0  0  0
   -6.0030   23.2720  -31.4780 C   0  0  0  0  0  0  0  0  0  0  0  0
   -4.9400   24.1820  -31.2130 N   0  0  0  0  0  0  0  0  0  0  0  0
   -4.2990   24.0790  -30.1070 C   0  0  0  0  0  0  0  0  0  0  0  0
   -4.5800   23.1290  -29.1440 C   0  0  0  0  0  0  0  0  0  0  0  0
   -3.8180   23.1190  -27.9910 C   0  0  0  0  0  0  0  0  0  0  0  0
   -2.8170   23.9880  -27.7600 N   0  0  0  0  0  0  0  0  0  0  0  0
   -2.5680   24.9010  -28.7150 C   0  0  0  0  0  0  0  0  0  0  0  0
   -1.6370   25.7770  -28.5980 N   0  0  0  0  0  0  0  0  0  0  0  0
   -0.8080   25.8330  -27.4400 C   0  0  0  0  0  0  0  0  0  0  0  0
    0.3720   25.0980  -27.4780 C   0  0  0  0  0  0  0  0  0  0  0  0
    1.1770   25.1500  -26.3580 C   0  0  0  0  0  0  0  0  0  0  0  0
    0.8630   25.8830  -25.2330 C   0  0  0  0  0  0  0  0  0  0  0  0
    1.6880   25.9080  -24.1430 F   0  0  0  0  0  0  0  0  0  0  0  0
   -0.3310   26.6010  -25.2480 C   0  0  0  0  0  0  0  0  0  0  0  0
   -1.1570   26.5810  -26.3290 C   0  0  0  0  0  0  0  0  0  0  0  0
   -3.2960   24.9440  -29.8680 N   0  0  0  0  0  0  0  0  0  0  0  0
   -5.7700   21.9120  -31.6990 C   0  0  0  0  0  0  0  0  0  0  0  0
   -4.8761   18.2216  -33.8210 H   0  0  0  0  0  0  0  0  0  0  0  0
   -5.8907   17.6327  -35.1813 H   0  0  0  0  0  0  0  0  0  0  0  0
   -5.2814   19.3225  -35.1813 H   0  0  0  0  0  0  0  0  0  0  0  0
   -7.3350   19.6680  -34.3520 H   0  0  0  0  0  0  0  0  0  0  0  0
   -8.9565   20.9203  -32.1804 H   0  0  0  0  0  0  0  0  0  0  0  0
   -9.3821   23.3270  -31.7916 H   0  0  0  0  0  0  0  0  0  0  0  0
   -7.4572   24.8618  -31.3283 H   0  0  0  0  0  0  0  0  0  0  0  0
   -5.3897   22.3991  -29.2912 H   0  0  0  0  0  0  0  0  0  0  0  0
   -4.0410   22.3629  -27.2238 H   0  0  0  0  0  0  0  0  0  0  0  0
   -2.2370   23.9970  -26.9070 H   0  0  0  0  0  0  0  0  0  0  0  0
    0.6509   24.5027  -28.3599 H   0  0  0  0  0  0  0  0  0  0  0  0
    2.1165   24.5778  -26.3631 H   0  0  0  0  0  0  0  0  0  0  0  0
   -0.6119   27.1968  -24.3670 H   0  0  0  0  0  0  0  0  0  0  0  0
   -2.0953   27.1551  -26.3200 H   0  0  0  0  0  0  0  0  0  0  0  0
   -3.0730   25.6710  -30.5910 H   0  0  0  0  0  0  0  0  0  0  0  0
   -4.7444   21.5152  -31.6729 H   0  0  0  0  0  0  0  0  0  0  0  0
  1  2  1  0
  2  3  1  0
  3  4  2  0
  3  5  2  0
  3  6  1  0
  6  7  2  0
  7  8  1  0
  8  9  2  0
  9 10  1  0
 10 11  1  0
 11 12  2  0
 12 13  1  0
 13 14  2  0
 14 15  1  0
 15 16  1  0
 16 17  2  0
 17 18  1  0
 18 19  2  0
 19 20  1  0
 20 21  2  0
 21 22  1  0
 21 23  1  0
 23 24  2  0
 16 25  1  0
 10 26  2  0
 26  6  1  0
 25 12  1  0
 24 18  1  0
  1 27  1  0
  1 28  1  0
  1 29  1  0
  2 30  1  0
  7 31  1  0
  8 32  1  0
  9 33  1  0
 13 34  1  0
 14 35  1  0
 15 36  1  0
 19 37  1  0
 20 38  1  0
 23 39  1  0
 24 40  1  0
 25 41  1  0
 26 42  1  0
M  END
>  <smiles>  (28) 
CNS(=O)(=O)c1cccc(N=c2cc[nH]c(=Nc3ccc(F)cc3)[nH]2)c1

>  <score_type>  (28) 
oracle

>  <origin>  (28) 
adgpu

>  <m_score__min__energy>  (28) 
-9.1600000000000001

>  <m_primary>  (28) 
energy

$$$$
28:0
     RDKit          3D

 30 32  0  0  0  0  0  0  0  0999 V2000
   -6.4350   18.1290  -33.4280 C   0  0  0  0  0  0  0  0  0  0  0  0
   -6.6580   19.4950  -33.7660 O   0  0  0  0  0  0  0  0  0  0  0  0
   -7.0030   20.4980  -32.8470 C   0  0  0  0  0  0  0  0  0  0  0  0
   -6.0540   21.4220  -32.3620 C   0  0  0  0  0  0  0  0  0  0  0  0
   -6.4240   22.4160  -31.4430 C   0  0  0  0  0  0  0  0  0  0  0  0
   -5.4210   23.3770  -30.9440 C   0  0  0  0  0  0  0  0  0  0  0  0
   -4.6230   23.1580  -29.8780 N   0  0  0  0  0  0  0  0  0  0  0  0
   -3.9120   24.3040  -29.8400 C   0  0  0  0  0  0  0  0  0  0  0  0
   -2.8750   24.5880  -28.8430 C   0  0  0  0  0  0  0  0  0  0  0  0
   -2.6850   23.9090  -27.6570 C   0  0  0  0  0  0  0  0  0  0  0  0
   -1.6060   24.5180  -27.0510 C   0  0  0  0  0  0  0  0  0  0  0  0
   -1.2090   25.5290  -27.9040 C   0  0  0  0  0  0  0  0  0  0  0  0
   -1.9840   25.5450  -28.9640 O   0  0  0  0  0  0  0  0  0  0  0  0
   -4.2560   25.1620  -30.8180 N   0  0  0  0  0  0  0  0  0  0  0  0
   -5.1920   24.5520  -31.4780 O   0  0  0  0  0  0  0  0  0  0  0  0
   -7.7560   22.4850  -31.0060 C   0  0  0  0  0  0  0  0  0  0  0  0
   -8.7010   21.5740  -31.4810 C   0  0  0  0  0  0  0  0  0  0  0  0
   -8.3350   20.5800  -32.3990 C   0  0  0  0  0  0  0  0  0  0  0  0
   -9.3230   19.6580  -32.8710 N   0  0  0  0  0  0  0  0  0  0  0  0
   -6.4173   18.0203  -32.3335 H   0  0  0  0  0  0  0  0  0  0  0  0
   -7.2442   17.5113  -33.8448 H   0  0  0  0  0  0  0  0  0  0  0  0
   -5.4714   17.8008  -33.8448 H   0  0  0  0  0  0  0  0  0  0  0  0
   -5.0116   21.3628  -32.7082 H   0  0  0  0  0  0  0  0  0  0  0  0
   -3.2711   23.0601  -27.2750 H   0  0  0  0  0  0  0  0  0  0  0  0
   -1.1534   24.2523  -26.0843 H   0  0  0  0  0  0  0  0  0  0  0  0
   -0.3701   26.2171  -27.7228 H   0  0  0  0  0  0  0  0  0  0  0  0
   -8.0566   23.2604  -30.2860 H   0  0  0  0  0  0  0  0  0  0  0  0
   -9.7422   21.6367  -31.1318 H   0  0  0  0  0  0  0  0  0  0  0  0
  -10.2780   19.6380  -32.4480 H   0  0  0  0  0  0  0  0  0  0  0  0
   -9.1170   18.9870  -33.6440 H   0  0  0  0  0  0  0  0  0  0  0  0
  1  2  1  0
  2  3  1  0
  3  4  2  0
  4  5  1  0
  5  6  1  0
  6  7  2  0
  7  8  1  0
  8  9  1  0
  9 10  2  0
 10 11  1  0
 11 12  2  0
 12 13  1  0
  8 14  2  0
 14 15  1  0
  5 16  2  0
 16 17  1  0
 17 18  2  0
 18 19  1  0
 18  3  1  0
 15  6  1  0
 13  9  1  0
  1 20  1  0
  1 21  1  0
  1 22  1  0
  4 23  1  0
 10 24  1  0
 11 25  1  0
 12 26  1  0
 16 27  1  0
 17 28  1  0
 19 29  1  0
 19 30  1  0
M  END
>  <UniqueID>  (29) 
25

>  <SMILES>  (29) 
COc1cc(-c2nc(-c3ccco3)no2)ccc1N

>  <Energy>  (29) 
89.62000287245257

>  <Genealogy>  (29) 
COc1cc(-c2nc(-c3ccco3)no2)ccc1N (3D coordinates assigned)
COc1cc(-c2nc(-c3ccco3)no2)ccc1N (optimized conformer: 89.62000287245257 kcal/mol)

>  <smiles>  (29) 
COc1cc(-c2nc(-c3ccco3)no2)ccc1N

>  <score_type>  (29) 
oracle

>  <origin>  (29) 
adgpu

>  <m_score__min__energy>  (29) 
-7.8200000000000003

>  <m_primary>  (29) 
energy

$$$$
29:0
     RDKit          3D

 44 46  0  0  0  0  0  0  0  0999 V2000
   -1.2850   18.5380  -33.8720 C   0  0  0  0  0  0  0  0  0  0  0  0
   -2.3860   18.7800  -33.0020 O   0  0  0  0  0  0  0  0  0  0  0  0
   -2.7380   20.0440  -32.5060 C   0  0  0  0  0  0  0  0  0  0  0  0
   -2.4210   20.4580  -31.1990 C   0  0  0  0  0  0  0  0  0  0  0  0
   -2.7920   21.7310  -30.7520 C   0  0  0  0  0  0  0  0  0  0  0  0
   -3.4840   22.6100  -31.6050 C   0  0  0  0  0  0  0  0  0  0  0  0
   -3.8810   23.9240  -31.1900 N   0  0  0  0  0  0  0  0  0  0  0  0
   -5.4120   24.3310  -30.4860 S   0  0  0  0  0  0  0  0  0  0  0  0
   -5.3220   24.2100  -28.9900 O   0  0  0  0  0  0  0  0  0  0  0  0
   -5.7530   25.7530  -30.8320 O   0  0  0  0  0  0  0  0  0  0  0  0
   -6.6610   23.2730  -31.1350 C   0  0  0  0  0  0  0  0  0  0  0  0
   -7.9210   23.7990  -31.4400 C   0  0  0  0  0  0  0  0  0  0  0  0
   -8.9160   22.9760  -31.9680 C   0  0  0  0  0  0  0  0  0  0  0  0
   -8.6620   21.6210  -32.1950 C   0  0  0  0  0  0  0  0  0  0  0  0
   -7.4010   21.0750  -31.8970 C   0  0  0  0  0  0  0  0  0  0  0  0
   -7.1100   19.6480  -32.1750 C   0  0  0  0  0  0  0  0  0  0  0  0
   -7.0620   18.8230  -31.2200 O   0  0  0  0  0  0  0  0  0  0  0  0
   -6.9150   19.1870  -33.5220 N   0  0  0  0  0  0  0  0  0  0  0  0
   -6.1500   18.0170  -33.8550 C   0  0  0  0  0  0  0  0  0  0  0  0
   -4.9920   18.1480  -34.6380 C   0  0  0  0  0  0  0  0  0  0  0  0
   -4.2210   17.0250  -34.9530 C   0  0  0  0  0  0  0  0  0  0  0  0
   -4.5910   15.7630  -34.4740 C   0  0  0  0  0  0  0  0  0  0  0  0
   -3.5320   14.2310  -34.8990 Br  0  0  0  0  0  0  0  0  0  0  0  0
   -5.7300   15.6260  -33.6760 C   0  0  0  0  0  0  0  0  0  0  0  0
   -6.5040   16.7460  -33.3630 C   0  0  0  0  0  0  0  0  0  0  0  0
   -6.4030   21.9130  -31.3670 C   0  0  0  0  0  0  0  0  0  0  0  0
   -3.7960   22.1950  -32.9040 C   0  0  0  0  0  0  0  0  0  0  0  0
   -3.4260   20.9220  -33.3510 C   0  0  0  0  0  0  0  0  0  0  0  0
   -0.3826   18.3397  -33.2750 H   0  0  0  0  0  0  0  0  0  0  0  0
   -1.5037   17.6665  -34.5065 H   0  0  0  0  0  0  0  0  0  0  0  0
   -1.1181   19.4209  -34.5065 H   0  0  0  0  0  0  0  0  0  0  0  0
   -1.8790   19.7777  -30.5256 H   0  0  0  0  0  0  0  0  0  0  0  0
   -2.5413   22.0461  -29.7283 H   0  0  0  0  0  0  0  0  0  0  0  0
   -8.1278   24.8648  -31.2629 H   0  0  0  0  0  0  0  0  0  0  0  0
   -9.9045   23.3955  -32.2066 H   0  0  0  0  0  0  0  0  0  0  0  0
   -9.4527   20.9780  -32.6090 H   0  0  0  0  0  0  0  0  0  0  0  0
   -7.4310   19.6750  -34.2880 H   0  0  0  0  0  0  0  0  0  0  0  0
   -4.6897   19.1397  -35.0057 H   0  0  0  0  0  0  0  0  0  0  0  0
   -3.3224   17.1334  -35.5781 H   0  0  0  0  0  0  0  0  0  0  0  0
   -6.0174   14.6353  -33.2940 H   0  0  0  0  0  0  0  0  0  0  0  0
   -7.3955   16.6344  -32.7283 H   0  0  0  0  0  0  0  0  0  0  0  0
   -5.4114   21.4986  -31.1323 H   0  0  0  0  0  0  0  0  0  0  0  0
   -4.3364   22.8748  -33.5791 H   0  0  0  0  0  0  0  0  0  0  0  0
   -3.6779   20.6087  -34.3749 H   0  0  0  0  0  0  0  0  0  0  0  0
  1  2  1  0
  2  3  1  0
  3  4  2  0
  4  5  1  0
  5  6  2  0
  6  7  1  0
  7  8  1  0
  8  9  2  0
  8 10  2  0
  8 11  1  0
 11 12  2  0
 12 13  1  0
 13 14  2  0
 14 15  1  0
 15 16  1  0
 16 17  2  0
 16 18  1  0
 18 19  1  0
 19 20  2  0
 20 21  1  0
 21 22  2  0
 22 23  1  0
 22 24  1  0
 24 25  2  0
 15 26  2  0
  6 27  1  0
 27 28  2  0
 28  3  1  0
 26 11  1  0
 25 19  1  0
  1 29  1  0
  1 30  1  0
  1 31  1  0
  4 32  1  0
  5 33  1  0
 12 34  1  0
 13 35  1  0
 14 36  1  0
 18 37  1  0
 20 38  1  0
 21 39  1  0
 24 40  1  0
 25 41  1  0
 26 42  1  0
 27 43  1  0
 28 44  1  0
M  CHG  1   7  -1
M  END
>  <UniqueID>  (30) 
26

>  <SMILES>  (30) 
COc1ccc([N-]S(=O)(=O)c2cccc(C(=O)Nc3ccc(Br)cc3)c2)cc1

>  <Energy>  (30) 
54.69375410371049

>  <Genealogy>  (30) 
COc1ccc([N-]S(=O)(=O)c2cccc(C(=O)Nc3ccc(Br)cc3)c2)cc1 (protonated)
COc1ccc([N-]S(=O)(=O)c2cccc(C(=O)Nc3ccc(Br)cc3)c2)cc1 (3D coordinates assigned)
COc1ccc([N-]S(=O)(=O)c2cccc(C(=O)Nc3ccc(Br)cc3)c2)cc1 (optimized conformer: 54.69375410371049 kcal/mol)

>  <smiles>  (30) 
COc1ccc(NS(=O)(=O)c2cccc(C(=O)Nc3ccc(Br)cc3)c2)cc1

>  <score_type>  (30) 
oracle

>  <origin>  (30) 
adgpu

>  <m_score__min__energy>  (30) 
-9.8699999999999992

>  <m_primary>  (30) 
energy

$$$$
30:0
     RDKit          3D

 36 37  0  0  0  0  0  0  0  0999 V2000
   -2.1488   20.8502  -27.7234 H   0  0  0  0  0  0  0  0  0  0  0  0
   -2.4330   21.8010  -28.1980 C   0  0  0  0  0  0  0  0  0  0  0  0
   -3.1610   21.8010  -29.3380 N   0  0  0  0  0  0  0  0  0  0  0  0
   -3.5210   22.9600  -29.9510 C   0  0  0  0  0  0  0  0  0  0  0  0
   -4.2440   22.9510  -31.0360 N   0  0  0  0  0  0  0  0  0  0  0  0
   -4.6730   21.7980  -31.7800 C   0  0  0  0  0  0  0  0  0  0  0  0
   -3.8560   21.1910  -32.7480 C   0  0  0  0  0  0  0  0  0  0  0  0
   -2.8459   21.5835  -32.9368 H   0  0  0  0  0  0  0  0  0  0  0  0
   -4.3210   20.0920  -33.4710 C   0  0  0  0  0  0  0  0  0  0  0  0
   -3.6684   19.6127  -34.2156 H   0  0  0  0  0  0  0  0  0  0  0  0
   -5.6110   19.5950  -33.2560 C   0  0  0  0  0  0  0  0  0  0  0  0
   -6.1240   18.1960  -34.1950 Cl  0  0  0  0  0  0  0  0  0  0  0  0
   -6.4550   20.2210  -32.3150 C   0  0  0  0  0  0  0  0  0  0  0  0
   -8.1000   19.6380  -32.0130 S   0  0  0  0  0  0  0  0  0  0  0  0
   -8.0730   18.1760  -31.6700 O   0  0  0  0  0  0  0  0  0  0  0  0
   -8.7040   20.3860  -30.8580 O   0  0  0  0  0  0  0  0  0  0  0  0
   -9.0710   19.8630  -33.4270 N   0  0  0  0  0  0  0  0  0  0  0  0
   -9.4990   18.9370  -33.6510 H   0  0  0  0  0  0  0  0  0  0  0  0
   -8.4250   20.0950  -34.2150 H   0  0  0  0  0  0  0  0  0  0  0  0
   -5.9760   21.3230  -31.5890 C   0  0  0  0  0  0  0  0  0  0  0  0
   -6.6333   21.8199  -30.8603 H   0  0  0  0  0  0  0  0  0  0  0  0
   -3.1430   24.1850  -29.3730 C   0  0  0  0  0  0  0  0  0  0  0  0
   -3.4910   25.2650  -29.9300 O   0  0  0  0  0  0  0  0  0  0  0  0
   -2.4020   24.2000  -28.2120 N   0  0  0  0  0  0  0  0  0  0  0  0
   -1.9840   25.4790  -27.5870 C   0  0  0  0  0  0  0  0  0  0  0  0
   -2.5259   26.2946  -28.0882 H   0  0  0  0  0  0  0  0  0  0  0  0
   -2.3610   25.5130  -26.1000 C   0  0  0  0  0  0  0  0  0  0  0  0
   -1.4501   25.4309  -25.4888 H   0  0  0  0  0  0  0  0  0  0  0  0
   -2.8709   26.4608  -25.8726 H   0  0  0  0  0  0  0  0  0  0  0  0
   -3.0323   24.6717  -25.8726 H   0  0  0  0  0  0  0  0  0  0  0  0
   -0.4830   25.7270  -27.7880 C   0  0  0  0  0  0  0  0  0  0  0  0
    0.0097   25.8084  -26.8079 H   0  0  0  0  0  0  0  0  0  0  0  0
   -0.0450   24.8891  -28.3501 H   0  0  0  0  0  0  0  0  0  0  0  0
   -0.3378   26.6613  -28.3501 H   0  0  0  0  0  0  0  0  0  0  0  0
   -2.0450   23.0120  -27.6280 C   0  0  0  0  0  0  0  0  0  0  0  0
   -1.4486   23.0148  -26.7037 H   0  0  0  0  0  0  0  0  0  0  0  0
  1  2  1  0
  2  3  1  0
  3  4  1  0
  4  5  2  0
  5  6  1  0
  6  7  2  0
  7  8  1  0
  7  9  1  0
  9 10  1  0
  9 11  2  0
 11 12  1  0
 11 13  1  0
 13 14  1  0
 14 15  2  0
 14 16  2  0
 14 17  1  0
 17 18  1  0
 17 19  1  0
 13 20  2  0
 20 21  1  0
  4 22  1  0
 22 23  2  0
 22 24  1  0
 24 25  1  0
 25 26  1  0
 25 27  1  0
 27 28  1  0
 27 29  1  0
 27 30  1  0
 25 31  1  0
 31 32  1  0
 31 33  1  0
 31 34  1  0
 24 35  1  0
 35 36  1  0
 35  2  2  0
 20  6  1  0
M  CHG  1   3  -1
M  END
>  <UniqueID>  (31) 
27

>  <SMILES>  (31) 
CC(C)n1cc[n-]/c(=N\c2ccc(Cl)c(S(N)(=O)=O)c2)c1=O

>  <Energy>  (31) 
45.39015496322965

>  <Genealogy>  (31) 
CC(C)n1cc[n-]c(=Nc2ccc(Cl)c(S(N)(=O)=O)c2)c1=O (protonated)
CC(C)n1cc[n-]/c(=N\c2ccc(Cl)c(S(N)(=O)=O)c2)c1=O (cis-trans isomerization)
CC(C)n1cc[n-]/c(=N\c2ccc(Cl)c(S(N)(=O)=O)c2)c1=O (3D coordinates assigned)
CC(C)n1cc[n-]/c(=N\c2ccc(Cl)c(S(N)(=O)=O)c2)c1=O (optimized conformer: 45.39015496322965 kcal/mol)

>  <smiles>  (31) 
CC(C)n1cc[nH]c(=Nc2ccc(Cl)c(S(N)(=O)=O)c2)c1=O

>  <score_type>  (31) 
oracle

>  <origin>  (31) 
adgpu

>  <m_score__min__energy>  (31) 
-8.5800000000000001

>  <m_primary>  (31) 
energy

$$$$
31:0
     RDKit          3D

 41 44  0  0  0  0  0  0  0  0999 V2000
   -6.5130   23.7700  -33.7260 H   0  0  0  0  0  0  0  0  0  0  0  0
   -6.8300   23.7890  -32.7650 O   0  0  0  0  0  0  0  0  0  0  0  0
   -5.9660   24.0800  -31.7120 C   0  0  0  0  0  0  0  0  0  0  0  0
   -6.1020   25.1400  -30.8470 C   0  0  0  0  0  0  0  0  0  0  0  0
   -6.9226   25.8725  -30.8585 H   0  0  0  0  0  0  0  0  0  0  0  0
   -5.0670   25.1370  -29.9820 N   0  0  0  0  0  0  0  0  0  0  0  0
   -4.3240   24.0700  -30.3550 C   0  0  0  0  0  0  0  0  0  0  0  0
   -3.2520   23.6760  -29.7280 N   0  0  0  0  0  0  0  0  0  0  0  0
   -2.6070   24.3390  -28.6280 C   0  0  0  0  0  0  0  0  0  0  0  0
   -1.3580   24.9320  -28.8410 C   0  0  0  0  0  0  0  0  0  0  0  0
   -0.8828   24.8612  -29.8305 H   0  0  0  0  0  0  0  0  0  0  0  0
   -0.7090   25.6130  -27.8090 C   0  0  0  0  0  0  0  0  0  0  0  0
    0.2790   26.0622  -27.9882 H   0  0  0  0  0  0  0  0  0  0  0  0
   -1.3090   25.7290  -26.5420 C   0  0  0  0  0  0  0  0  0  0  0  0
   -0.6190   26.4530  -25.4430 C   0  0  0  0  0  0  0  0  0  0  0  0
   -0.8580   26.1110  -24.0980 C   0  0  0  0  0  0  0  0  0  0  0  0
   -1.5623   25.3011  -23.8573 H   0  0  0  0  0  0  0  0  0  0  0  0
   -0.2060   26.7940  -23.0660 C   0  0  0  0  0  0  0  0  0  0  0  0
   -0.3984   26.5195  -22.0183 H   0  0  0  0  0  0  0  0  0  0  0  0
    0.6890   27.8240  -23.3640 C   0  0  0  0  0  0  0  0  0  0  0  0
    1.2011   28.3598  -22.5512 H   0  0  0  0  0  0  0  0  0  0  0  0
    0.9340   28.1740  -24.6940 C   0  0  0  0  0  0  0  0  0  0  0  0
    1.6382   28.9863  -24.9269 H   0  0  0  0  0  0  0  0  0  0  0  0
    0.2860   27.4940  -25.7300 C   0  0  0  0  0  0  0  0  0  0  0  0
    0.4840   27.7735  -26.7753 H   0  0  0  0  0  0  0  0  0  0  0  0
   -2.5780   25.1600  -26.3370 C   0  0  0  0  0  0  0  0  0  0  0  0
   -3.0649   25.2512  -25.3548 H   0  0  0  0  0  0  0  0  0  0  0  0
   -3.2260   24.4790  -27.3720 C   0  0  0  0  0  0  0  0  0  0  0  0
   -4.2250   24.0504  -27.2036 H   0  0  0  0  0  0  0  0  0  0  0  0
   -4.8500   23.3930  -31.4010 N   0  0  0  0  0  0  0  0  0  0  0  0
   -4.3440   22.1960  -32.0160 C   0  0  0  0  0  0  0  0  0  0  0  0
   -5.2300   21.2200  -32.5030 C   0  0  0  0  0  0  0  0  0  0  0  0
   -6.3155   21.3671  -32.4030 H   0  0  0  0  0  0  0  0  0  0  0  0
   -4.7380   20.0630  -33.1140 C   0  0  0  0  0  0  0  0  0  0  0  0
   -5.4364   19.3012  -33.4906 H   0  0  0  0  0  0  0  0  0  0  0  0
   -3.3600   19.8730  -33.2470 C   0  0  0  0  0  0  0  0  0  0  0  0
   -2.9744   18.9609  -33.7259 H   0  0  0  0  0  0  0  0  0  0  0  0
   -2.4720   20.8410  -32.7720 C   0  0  0  0  0  0  0  0  0  0  0  0
   -1.1340   20.6600  -32.9090 F   0  0  0  0  0  0  0  0  0  0  0  0
   -2.9600   22.0010  -32.1610 C   0  0  0  0  0  0  0  0  0  0  0  0
   -2.2577   22.7633  -31.7927 H   0  0  0  0  0  0  0  0  0  0  0  0
  1  2  1  0
  2  3  1  0
  3  4  2  0
  4  5  1  0
  4  6  1  0
  6  7  1  0
  7  8  2  0
  8  9  1  0
  9 10  2  0
 10 11  1  0
 10 12  1  0
 12 13  1  0
 12 14  2  0
 14 15  1  0
 15 16  2  0
 16 17  1  0
 16 18  1  0
 18 19  1  0
 18 20  2  0
 20 21  1  0
 20 22  1  0
 22 23  1  0
 22 24  2  0
 24 25  1  0
 14 26  1  0
 26 27  1  0
 26 28  2  0
 28 29  1  0
  7 30  1  0
 30 31  1  0
 31 32  2  0
 32 33  1  0
 32 34  1  0
 34 35  1  0
 34 36  2  0
 36 37  1  0
 36 38  1  0
 38 39  1  0
 38 40  2  0
 40 41  1  0
 30  3  1  0
 40 31  1  0
 28  9  1  0
 24 15  1  0
M  CHG  1   6  -1
M  END
>  <UniqueID>  (32) 
28

>  <SMILES>  (32) 
Oc1c[n-]/c(=N\c2ccc(-c3ccccc3)cc2)n1-c1cccc(F)c1

>  <Energy>  (32) 
94.1762676252508

>  <Genealogy>  (32) 
Oc1c[n-]c(=Nc2ccc(-c3ccccc3)cc2)n1-c1cccc(F)c1 (protonated)
Oc1c[n-]/c(=N\c2ccc(-c3ccccc3)cc2)n1-c1cccc(F)c1 (cis-trans isomerization)
Oc1c[n-]/c(=N\c2ccc(-c3ccccc3)cc2)n1-c1cccc(F)c1 (3D coordinates assigned)
Oc1c[n-]/c(=N\c2ccc(-c3ccccc3)cc2)n1-c1cccc(F)c1 (optimized conformer: 94.1762676252508 kcal/mol)

>  <smiles>  (32) 
Oc1c[nH]c(=Nc2ccc(-c3ccccc3)cc2)n1-c1cccc(F)c1

>  <score_type>  (32) 
oracle

>  <origin>  (32) 
adgpu

>  <m_score__min__energy>  (32) 
-8.3800000000000008

>  <m_primary>  (32) 
energy

$$$$
32:0
     RDKit          3D

 57 59  0  0  0  0  0  0  0  0999 V2000
   -3.6560   16.7590  -35.0240 C   0  0  0  0  0  0  0  0  0  0  0  0
   -4.1720   16.9530  -33.7100 O   0  0  0  0  0  0  0  0  0  0  0  0
   -5.2790   17.7620  -33.4050 C   0  0  0  0  0  0  0  0  0  0  0  0
   -6.5170   17.2190  -33.0110 C   0  0  0  0  0  0  0  0  0  0  0  0
   -7.5950   18.0550  -32.7170 C   0  0  0  0  0  0  0  0  0  0  0  0
   -7.4620   19.4470  -32.8210 C   0  0  0  0  0  0  0  0  0  0  0  0
   -8.6320   20.3560  -32.4980 C   0  0  0  0  0  0  0  0  0  0  0  0
   -8.3470   21.3650  -31.4470 N   0  0  0  0  0  0  0  0  0  0  0  0
   -9.4950   21.5800  -30.5520 C   0  0  0  0  0  0  0  0  0  0  0  0
   -7.8410   22.6520  -31.9700 C   0  0  0  0  0  0  0  0  0  0  0  0
   -6.6640   23.1530  -31.1690 C   0  0  0  0  0  0  0  0  0  0  0  0
   -5.5200   22.3570  -31.0140 C   0  0  0  0  0  0  0  0  0  0  0  0
   -4.4380   22.8130  -30.2570 C   0  0  0  0  0  0  0  0  0  0  0  0
   -4.4820   24.0760  -29.6370 C   0  0  0  0  0  0  0  0  0  0  0  0
   -3.3330   24.5540  -28.8330 C   0  0  0  0  0  0  0  0  0  0  0  0
   -2.2680   24.9020  -29.4130 O   0  0  0  0  0  0  0  0  0  0  0  0
   -3.4240   24.6420  -27.4020 N   0  0  0  0  0  0  0  0  0  0  0  0
   -2.2760   24.8810  -26.5750 C   0  0  0  0  0  0  0  0  0  0  0  0
   -2.3440   25.8830  -25.5950 C   0  0  0  0  0  0  0  0  0  0  0  0
   -1.2380   26.1630  -24.7890 C   0  0  0  0  0  0  0  0  0  0  0  0
   -0.0560   25.4380  -24.9480 C   0  0  0  0  0  0  0  0  0  0  0  0
    0.0180   24.4200  -25.9030 C   0  0  0  0  0  0  0  0  0  0  0  0
   -1.0900   24.1220  -26.7130 C   0  0  0  0  0  0  0  0  0  0  0  0
   -1.0100   23.0180  -27.6240 N   0  0  0  0  0  0  0  0  0  0  0  0
   -5.6430   24.8570  -29.7690 C   0  0  0  0  0  0  0  0  0  0  0  0
   -6.7270   24.3950  -30.5200 C   0  0  0  0  0  0  0  0  0  0  0  0
   -6.2250   19.9910  -33.1950 C   0  0  0  0  0  0  0  0  0  0  0  0
   -5.1320   19.1550  -33.4950 C   0  0  0  0  0  0  0  0  0  0  0  0
   -3.8840   19.6690  -33.8810 O   0  0  0  0  0  0  0  0  0  0  0  0
   -3.2340   20.7700  -33.2530 C   0  0  0  0  0  0  0  0  0  0  0  0
   -2.6281   16.3725  -34.9609 H   0  0  0  0  0  0  0  0  0  0  0  0
   -4.2869   16.0367  -35.5627 H   0  0  0  0  0  0  0  0  0  0  0  0
   -3.6547   17.7180  -35.5627 H   0  0  0  0  0  0  0  0  0  0  0  0
   -6.6352   16.1281  -32.9344 H   0  0  0  0  0  0  0  0  0  0  0  0
   -8.5547   17.6194  -32.4018 H   0  0  0  0  0  0  0  0  0  0  0  0
   -8.9200   20.8873  -33.4171 H   0  0  0  0  0  0  0  0  0  0  0  0
   -9.4343   19.7121  -32.1086 H   0  0  0  0  0  0  0  0  0  0  0  0
   -9.1610   21.5175  -29.5058 H   0  0  0  0  0  0  0  0  0  0  0  0
   -9.9257   22.5744  -30.7406 H   0  0  0  0  0  0  0  0  0  0  0  0
  -10.2564   20.8088  -30.7406 H   0  0  0  0  0  0  0  0  0  0  0  0
   -7.5285   22.5143  -33.0157 H   0  0  0  0  0  0  0  0  0  0  0  0
   -8.6488   23.3949  -31.8960 H   0  0  0  0  0  0  0  0  0  0  0  0
   -5.4743   21.3671  -31.4916 H   0  0  0  0  0  0  0  0  0  0  0  0
   -3.5451   22.1804  -30.1446 H   0  0  0  0  0  0  0  0  0  0  0  0
   -4.3670   24.7710  -26.9700 H   0  0  0  0  0  0  0  0  0  0  0  0
   -3.2755   26.4524  -25.4604 H   0  0  0  0  0  0  0  0  0  0  0  0
   -1.2987   26.9554  -24.0285 H   0  0  0  0  0  0  0  0  0  0  0  0
    0.8182   25.6680  -24.3212 H   0  0  0  0  0  0  0  0  0  0  0  0
    0.9504   23.8484  -26.0209 H   0  0  0  0  0  0  0  0  0  0  0  0
   -1.3080   23.1270  -28.6190 H   0  0  0  0  0  0  0  0  0  0  0  0
   -0.5760   22.1080  -27.3490 H   0  0  0  0  0  0  0  0  0  0  0  0
   -5.6987   25.8394  -29.2774 H   0  0  0  0  0  0  0  0  0  0  0  0
   -7.6357   25.0093  -30.6028 H   0  0  0  0  0  0  0  0  0  0  0  0
   -6.1069   21.0830  -33.2548 H   0  0  0  0  0  0  0  0  0  0  0  0
   -3.2991   20.6597  -32.1605 H   0  0  0  0  0  0  0  0  0  0  0  0
   -2.1770   20.7937  -33.5568 H   0  0  0  0  0  0  0  0  0  0  0  0
   -3.7239   21.7069  -33.5568 H   0  0  0  0  0  0  0  0  0  0  0  0
  1  2  1  0
  2  3  1  0
  3  4  2  0
  4  5  1  0
  5  6  2  0
  6  7  1  0
  7  8  1  0
  8  9  1  0
  8 10  1  0
 10 11  1  0
 11 12  2  0
 12 13  1  0
 13 14  2  0
 14 15  1  0
 15 16  2  0
 15 17  1  0
 17 18  1  0
 18 19  2  0
 19 20  1  0
 20 21  2  0
 21 22  1  0
 22 23  2  0
 23 24  1  0
 14 25  1  0
 25 26  2  0
  6 27  1  0
 27 28  2  0
 28 29  1  0
 29 30  1  0
 28  3  1  0
 26 11  1  0
 23 18  1  0
  1 31  1  0
  1 32  1  0
  1 33  1  0
  4 34  1  0
  5 35  1  0
  7 36  1  0
  7 37  1  0
  9 38  1  0
  9 39  1  0
  9 40  1  0
 10 41  1  0
 10 42  1  0
 12 43  1  0
 13 44  1  0
 17 45  1  0
 19 46  1  0
 20 47  1  0
 21 48  1  0
 22 49  1  0
 24 50  1  0
 24 51  1  0
 25 52  1  0
 26 53  1  0
 27 54  1  0
 30 55  1  0
 30 56  1  0
 30 57  1  0
M  END
>  <UniqueID>  (33) 
29

>  <SMILES>  (33) 
COc1ccc(CN(C)Cc2ccc(C(=O)Nc3ccccc3N)cc2)cc1OC

>  <Energy>  (33) 
67.97254787765739

>  <Genealogy>  (33) 
COc1ccc(CN(C)Cc2ccc(C(=O)Nc3ccccc3N)cc2)cc1OC (3D coordinates assigned)
COc1ccc(CN(C)Cc2ccc(C(=O)Nc3ccccc3N)cc2)cc1OC (optimized conformer: 67.97254787765739 kcal/mol)

>  <smiles>  (33) 
COc1ccc(CN(C)Cc2ccc(C(=O)Nc3ccccc3N)cc2)cc1OC

>  <score_type>  (33) 
oracle

>  <origin>  (33) 
adgpu

>  <m_score__min__energy>  (33) 
-8.8800000000000008

>  <m_primary>  (33) 
energy

$$$$
33:0
     RDKit          3D

 53 56  0  0  0  0  0  0  0  0999 V2000
   -0.1360   18.1290  -28.6600 C   0  0  0  0  0  0  0  0  0  0  0  0
   -0.1470   19.2190  -27.7430 O   0  0  0  0  0  0  0  0  0  0  0  0
   -0.5190   20.5320  -28.0730 C   0  0  0  0  0  0  0  0  0  0  0  0
    0.1530   21.2710  -29.0650 C   0  0  0  0  0  0  0  0  0  0  0  0
   -0.2440   22.5760  -29.3640 C   0  0  0  0  0  0  0  0  0  0  0  0
   -1.3070   23.1680  -28.6710 C   0  0  0  0  0  0  0  0  0  0  0  0
   -1.7380   24.5430  -28.9880 C   0  0  0  0  0  0  0  0  0  0  0  0
   -0.8640   25.4170  -29.2280 O   0  0  0  0  0  0  0  0  0  0  0  0
   -3.1210   24.9160  -29.0480 N   0  0  0  0  0  0  0  0  0  0  0  0
   -4.0270   24.6610  -30.1680 C   0  0  2  0  0  0  0  0  0  0  0  0
   -5.4790   24.9850  -29.7700 C   0  0  0  0  0  0  0  0  0  0  0  0
   -6.5150   24.5710  -30.8400 C   0  0  0  0  0  0  0  0  0  0  0  0
   -5.9090   23.8180  -32.0330 C   0  0  0  0  0  0  0  0  0  0  0  0
   -4.9390   22.8160  -31.5680 N   0  0  0  0  0  0  0  0  0  0  0  0
   -4.9180   21.4920  -32.1350 C   0  0  0  0  0  0  0  0  0  0  0  0
   -3.8330   20.9750  -32.7680 N   0  0  0  0  0  0  0  0  0  0  0  0
   -4.2530   19.7510  -33.1270 C   0  0  0  0  0  0  0  0  0  0  0  0
   -3.5380   18.7680  -33.8200 C   0  0  0  0  0  0  0  0  0  0  0  0
   -2.1190   19.0060  -34.2620 C   0  0  0  0  0  0  0  0  0  0  0  0
   -4.2070   17.5450  -34.0910 C   0  0  0  0  0  0  0  0  0  0  0  0
   -3.2900   16.1460  -35.0480 Br  0  0  0  0  0  0  0  0  0  0  0  0
   -5.5510   17.3520  -33.6610 C   0  0  0  0  0  0  0  0  0  0  0  0
   -6.4590   15.6950  -34.0270 Br  0  0  0  0  0  0  0  0  0  0  0  0
   -6.2270   18.3790  -32.9610 C   0  0  0  0  0  0  0  0  0  0  0  0
   -8.0360   18.1920  -32.3520 Br  0  0  0  0  0  0  0  0  0  0  0  0
   -5.5360   19.5620  -32.7180 C   0  0  0  0  0  0  0  0  0  0  0  0
   -5.9870   20.6540  -32.0820 N   0  0  0  0  0  0  0  0  0  0  0  0
   -3.9140   23.1860  -30.5810 C   0  0  0  0  0  0  0  0  0  0  0  0
   -1.9930   22.4280  -27.6970 C   0  0  0  0  0  0  0  0  0  0  0  0
   -1.5970   21.1120  -27.3880 C   0  0  0  0  0  0  0  0  0  0  0  0
   -2.2500   20.3490  -26.4050 O   0  0  0  0  0  0  0  0  0  0  0  0
   -3.0490   19.2020  -26.6740 C   0  0  0  0  0  0  0  0  0  0  0  0
   -0.1264   17.1808  -28.1024 H   0  0  0  0  0  0  0  0  0  0  0  0
   -1.0346   18.1732  -29.2929 H   0  0  0  0  0  0  0  0  0  0  0  0
    0.7616   18.1913  -29.2929 H   0  0  0  0  0  0  0  0  0  0  0  0
    0.9957   20.8179  -29.6077 H   0  0  0  0  0  0  0  0  0  0  0  0
    0.2810   23.1417  -30.1478 H   0  0  0  0  0  0  0  0  0  0  0  0
   -3.7469   25.3059  -31.0140 H   0  0  0  0  0  0  0  0  0  0  0  0
   -5.7114   24.4535  -28.8354 H   0  0  0  0  0  0  0  0  0  0  0  0
   -5.5487   26.0768  -29.6553 H   0  0  0  0  0  0  0  0  0  0  0  0
   -7.2638   23.9208  -30.3640 H   0  0  0  0  0  0  0  0  0  0  0  0
   -6.9530   25.4988  -31.2367 H   0  0  0  0  0  0  0  0  0  0  0  0
   -6.7128   23.3134  -32.5892 H   0  0  0  0  0  0  0  0  0  0  0  0
   -5.3929   24.5385  -32.6845 H   0  0  0  0  0  0  0  0  0  0  0  0
   -1.4730   19.1144  -33.3783 H   0  0  0  0  0  0  0  0  0  0  0  0
   -1.7749   18.1530  -34.8654 H   0  0  0  0  0  0  0  0  0  0  0  0
   -2.0721   19.9246  -34.8654 H   0  0  0  0  0  0  0  0  0  0  0  0
   -4.0357   22.5557  -29.6878 H   0  0  0  0  0  0  0  0  0  0  0  0
   -2.9261   23.0339  -31.0402 H   0  0  0  0  0  0  0  0  0  0  0  0
   -2.8470   22.8788  -27.1702 H   0  0  0  0  0  0  0  0  0  0  0  0
   -3.3668   18.7458  -25.7249 H   0  0  0  0  0  0  0  0  0  0  0  0
   -3.9358   19.5003  -27.2525 H   0  0  0  0  0  0  0  0  0  0  0  0
   -2.4618   18.4736  -27.2525 H   0  0  0  0  0  0  0  0  0  0  0  0
  1  2  1  0
  2  3  1  0
  3  4  2  0
  4  5  1  0
  5  6  2  0
  6  7  1  0
  7  8  2  0
  7  9  1  0
  9 10  1  0
 10 11  1  0
 11 12  1  0
 12 13  1  0
 13 14  1  0
 14 15  1  0
 15 16  2  0
 16 17  1  0
 17 18  2  0
 18 19  1  0
 18 20  1  0
 20 21  1  0
 20 22  2  0
 22 23  1  0
 22 24  1  0
 24 25  1  0
 24 26  2  0
 26 27  1  0
 14 28  1  0
  6 29  1  0
 29 30  2  0
 30 31  1  0
 31 32  1  0
 30  3  1  0
 28 10  1  0
 27 15  1  0
 26 17  1  0
  1 33  1  0
  1 34  1  0
  1 35  1  0
  4 36  1  0
  5 37  1  0
 10 38  1  6
 11 39  1  0
 11 40  1  0
 12 41  1  0
 12 42  1  0
 13 43  1  0
 13 44  1  0
 19 45  1  0
 19 46  1  0
 19 47  1  0
 28 48  1  0
 28 49  1  0
 29 50  1  0
 32 51  1  0
 32 52  1  0
 32 53  1  0
M  CHG  2   9  -1  27  -1
M  END
>  <UniqueID>  (34) 
30

>  <SMILES>  (34) 
COc1ccc(C(=O)[N-][C@@H]2CCCN(c3nc4c(C)c(Br)c(Br)c(Br)c4[n-]3)C2)cc1OC

>  <Energy>  (34) 
98.21709052996542

>  <Genealogy>  (34) 
COc1ccc(C(=O)[N-]C2CCCN(c3nc4c(C)c(Br)c(Br)c(Br)c4[n-]3)C2)cc1OC (protonated)
COc1ccc(C(=O)[N-][C@@H]2CCCN(c3nc4c(C)c(Br)c(Br)c(Br)c4[n-]3)C2)cc1OC (chirality)
COc1ccc(C(=O)[N-][C@@H]2CCCN(c3nc4c(C)c(Br)c(Br)c(Br)c4[n-]3)C2)cc1OC (3D coordinates assigned)
COc1ccc(C(=O)[N-][C@@H]2CCCN(c3nc4c(C)c(Br)c(Br)c(Br)c4[n-]3)C2)cc1OC (nonaromatic ring conformer: 98.21709052996542 kcal/mol)

>  <smiles>  (34) 
COc1ccc(C(=O)NC2CCCN(c3nc4c(C)c(Br)c(Br)c(Br)c4[nH]3)C2)cc1OC

>  <score_type>  (34) 
oracle

>  <origin>  (34) 
adgpu

>  <m_score__min__energy>  (34) 
-12.460000000000001

>  <m_primary>  (34) 
energy

$$$$
34:0
     RDKit          3D

 36 38  0  0  0  0  0  0  0  0999 V2000
   -9.2220   19.3330  -32.4830 O   0  0  0  0  0  0  0  0  0  0  0  0
   -8.1050   19.6490  -31.9880 C   0  0  0  0  0  0  0  0  0  0  0  0
   -7.1310   18.6660  -31.7710 O   0  0  0  0  0  0  0  0  0  0  0  0
   -6.4360   18.0210  -32.8010 C   0  0  0  0  0  0  0  0  0  0  0  0
   -6.8540   16.7440  -33.1950 C   0  0  0  0  0  0  0  0  0  0  0  0
   -6.1830   16.0630  -34.2130 C   0  0  0  0  0  0  0  0  0  0  0  0
   -5.0960   16.6600  -34.8560 C   0  0  0  0  0  0  0  0  0  0  0  0
   -4.6860   17.9450  -34.4890 C   0  0  0  0  0  0  0  0  0  0  0  0
   -5.3530   18.6340  -33.4690 C   0  0  0  0  0  0  0  0  0  0  0  0
   -4.8690   20.2870  -33.1130 Cl  0  0  0  0  0  0  0  0  0  0  0  0
   -7.8080   21.0630  -31.6670 C   0  0  0  0  0  0  0  0  0  0  0  0
   -8.6720   22.0900  -32.0850 C   0  0  0  0  0  0  0  0  0  0  0  0
   -8.3930   23.4210  -31.7660 C   0  0  0  0  0  0  0  0  0  0  0  0
   -7.2470   23.7440  -31.0370 C   0  0  0  0  0  0  0  0  0  0  0  0
   -6.3590   22.7340  -30.6290 C   0  0  0  0  0  0  0  0  0  0  0  0
   -5.1850   23.0370  -29.8550 N   0  0  0  0  0  0  0  0  0  0  0  0
   -4.3900   24.2220  -30.0290 C   0  0  0  0  0  0  0  0  0  0  0  0
   -4.5500   24.9560  -31.0420 O   0  0  0  0  0  0  0  0  0  0  0  0
   -3.3550   24.5640  -29.0430 C   0  0  0  0  0  0  0  0  0  0  0  0
   -3.3380   24.1780  -27.7170 C   0  0  0  0  0  0  0  0  0  0  0  0
   -2.1900   24.7250  -27.1860 C   0  0  0  0  0  0  0  0  0  0  0  0
   -1.5770   25.4070  -28.2170 C   0  0  0  0  0  0  0  0  0  0  0  0
   -2.2950   25.2930  -29.3110 O   0  0  0  0  0  0  0  0  0  0  0  0
   -6.6560   21.3960  -30.9310 C   0  0  0  0  0  0  0  0  0  0  0  0
   -7.7164   16.2742  -32.6995 H   0  0  0  0  0  0  0  0  0  0  0  0
   -6.5108   15.0555  -34.5088 H   0  0  0  0  0  0  0  0  0  0  0  0
   -4.5626   16.1188  -35.6513 H   0  0  0  0  0  0  0  0  0  0  0  0
   -3.8359   18.4167  -35.0037 H   0  0  0  0  0  0  0  0  0  0  0  0
   -9.5728   21.8442  -32.6665 H   0  0  0  0  0  0  0  0  0  0  0  0
   -9.0787   24.2176  -32.0904 H   0  0  0  0  0  0  0  0  0  0  0  0
   -7.0383   24.7932  -30.7809 H   0  0  0  0  0  0  0  0  0  0  0  0
   -4.8400   22.3110  -29.1870 H   0  0  0  0  0  0  0  0  0  0  0  0
   -4.0848   23.5625  -27.1940 H   0  0  0  0  0  0  0  0  0  0  0  0
   -1.8340   24.6359  -26.1490 H   0  0  0  0  0  0  0  0  0  0  0  0
   -0.6307   25.9619  -28.1352 H   0  0  0  0  0  0  0  0  0  0  0  0
   -5.9804   20.5984  -30.5883 H   0  0  0  0  0  0  0  0  0  0  0  0
  1  2  2  0
  2  3  1  0
  3  4  1  0
  4  5  2  0
  5  6  1  0
  6  7  2  0
  7  8  1  0
  8  9  2  0
  9 10  1  0
  2 11  1  0
 11 12  2  0
 12 13  1  0
 13 14  2  0
 14 15  1  0
 15 16  1  0
 16 17  1  0
 17 18  2  0
 17 19  1  0
 19 20  2  0
 20 21  1  0
 21 22  2  0
 22 23  1  0
 15 24  2  0
  9  4  1  0
 24 11  1  0
 23 19  1  0
  5 25  1  0
  6 26  1  0
  7 27  1  0
  8 28  1  0
 12 29  1  0
 13 30  1  0
 14 31  1  0
 16 32  1  0
 20 33  1  0
 21 34  1  0
 22 35  1  0
 24 36  1  0
M  END
>  <UniqueID>  (35) 
31

>  <SMILES>  (35) 
O=C(Oc1ccccc1Cl)c1cccc(NC(=O)c2ccco2)c1

>  <Energy>  (35) 
75.17537622466268

>  <Genealogy>  (35) 
O=C(Oc1ccccc1Cl)c1cccc(NC(=O)c2ccco2)c1 (3D coordinates assigned)
O=C(Oc1ccccc1Cl)c1cccc(NC(=O)c2ccco2)c1 (optimized conformer: 75.17537622466268 kcal/mol)

>  <smiles>  (35) 
O=C(Oc1ccccc1Cl)c1cccc(NC(=O)c2ccco2)c1

>  <score_type>  (35) 
oracle

>  <origin>  (35) 
adgpu

>  <m_score__min__energy>  (35) 
-8.9600000000000009

>  <m_primary>  (35) 
energy

$$$$
35:0
     RDKit          3D

 25 26  0  0  0  0  0  0  0  0999 V2000
   -3.8530   25.3540  -30.8460 O   0  0  0  0  0  0  0  0  0  0  0  0
   -4.2040   24.4560  -30.0360 C   0  0  0  0  0  0  0  0  0  0  0  0
   -5.6040   24.2000  -29.8640 N   0  0  0  0  0  0  0  0  0  0  0  0
   -6.3620   23.1660  -30.5110 C   0  0  0  0  0  0  0  0  0  0  0  0
   -5.8290   22.5460  -31.6480 C   0  0  0  0  0  0  0  0  0  0  0  0
   -6.5360   21.5290  -32.2950 C   0  0  0  0  0  0  0  0  0  0  0  0
   -7.7770   21.1120  -31.8000 C   0  0  0  0  0  0  0  0  0  0  0  0
   -8.7420   19.7230  -32.6850 Br  0  0  0  0  0  0  0  0  0  0  0  0
   -8.3040   21.7100  -30.6510 C   0  0  0  0  0  0  0  0  0  0  0  0
   -7.5980   22.7270  -30.0020 C   0  0  0  0  0  0  0  0  0  0  0  0
   -3.1720   23.7480  -29.2390 C   0  0  0  0  0  0  0  0  0  0  0  0
   -3.4090   22.4360  -28.7890 C   0  0  0  0  0  0  0  0  0  0  0  0
   -2.4440   21.7580  -28.0390 C   0  0  0  0  0  0  0  0  0  0  0  0
   -2.7500   20.1180  -27.4940 Cl  0  0  0  0  0  0  0  0  0  0  0  0
   -1.2390   22.3870  -27.7170 C   0  0  0  0  0  0  0  0  0  0  0  0
   -0.9980   23.6930  -28.1450 C   0  0  0  0  0  0  0  0  0  0  0  0
   -1.9550   24.3770  -28.9030 C   0  0  0  0  0  0  0  0  0  0  0  0
   -1.6790   25.6710  -29.3310 O   0  0  0  0  0  0  0  0  0  0  0  0
   -4.8484   22.8613  -32.0339 H   0  0  0  0  0  0  0  0  0  0  0  0
   -6.1165   21.0554  -33.1948 H   0  0  0  0  0  0  0  0  0  0  0  0
   -9.2763   21.3793  -30.2570 H   0  0  0  0  0  0  0  0  0  0  0  0
   -8.0099   23.1853  -29.0908 H   0  0  0  0  0  0  0  0  0  0  0  0
   -4.3611   21.9402  -29.0293 H   0  0  0  0  0  0  0  0  0  0  0  0
   -0.4803   21.8529  -27.1262 H   0  0  0  0  0  0  0  0  0  0  0  0
   -0.0505   24.1877  -27.8851 H   0  0  0  0  0  0  0  0  0  0  0  0
  1  2  2  0
  2  3  1  0
  3  4  1  0
  4  5  2  0
  5  6  1  0
  6  7  2  0
  7  8  1  0
  7  9  1  0
  9 10  2  0
  2 11  1  0
 11 12  2  0
 12 13  1  0
 13 14  1  0
 13 15  2  0
 15 16  1  0
 16 17  2  0
 17 18  1  0
 10  4  1  0
 17 11  1  0
  5 19  1  0
  6 20  1  0
  9 21  1  0
 10 22  1  0
 12 23  1  0
 15 24  1  0
 16 25  1  0
M  CHG  2   3  -1  18  -1
M  END
>  <UniqueID>  (36) 
32

>  <SMILES>  (36) 
O=C([N-]c1ccc(Br)cc1)c1cc(Cl)ccc1[O-]

>  <Energy>  (36) 
33.57886243125014

>  <Genealogy>  (36) 
O=C([N-]c1ccc(Br)cc1)c1cc(Cl)ccc1[O-] (protonated)
O=C([N-]c1ccc(Br)cc1)c1cc(Cl)ccc1[O-] (3D coordinates assigned)
O=C([N-]c1ccc(Br)cc1)c1cc(Cl)ccc1[O-] (optimized conformer: 33.57886243125014 kcal/mol)

>  <smiles>  (36) 
O=C(Nc1ccc(Br)cc1)c1cc(Cl)ccc1O

>  <score_type>  (36) 
oracle

>  <origin>  (36) 
adgpu

>  <m_score__min__energy>  (36) 
-11.69

>  <m_primary>  (36) 
energy

$$$$
36:0
     RDKit          3D

 54 56  0  0  1  0  0  0  0  0999 V2000
    1.9590   24.1780  -27.4930 C   0  0  0  0  0  0  0  0  0  0  0  0
    0.8640   24.7040  -28.2060 O   0  0  0  0  0  0  0  0  0  0  0  0
   -0.3860   24.8900  -27.6250 C   0  0  0  0  0  0  0  0  0  0  0  0
   -1.5190   24.2240  -28.1020 C   0  0  0  0  0  0  0  0  0  0  0  0
   -2.7630   24.4180  -27.5130 C   0  0  0  0  0  0  0  0  0  0  0  0
   -3.9300   23.7340  -28.0010 N   0  0  0  0  0  0  0  0  0  0  0  0
   -4.3390   24.1310  -29.1810 C   0  0  0  0  0  0  0  0  0  0  0  0
   -3.7960   25.0870  -29.9630 N   0  0  0  0  0  0  0  0  0  0  0  0
   -4.4830   25.2120  -31.0880 N   0  0  0  0  0  0  0  0  0  0  0  0
   -5.4900   24.3200  -31.0320 C   0  0  0  0  0  0  0  0  0  0  0  0
   -6.3640   24.1600  -31.9570 N   0  0  0  0  0  0  0  0  0  0  0  0
   -7.6180   23.0040  -31.8190 S   0  0  0  0  0  0  0  0  0  0  0  0
   -7.9560   22.9110  -30.3380 O   0  0  0  0  0  0  0  0  0  0  0  0
   -8.8930   23.4260  -32.4900 O   0  0  0  0  0  0  0  0  0  0  0  0
   -7.1150   21.3990  -32.3640 C   0  0  0  0  0  0  0  0  0  0  0  0
   -5.8250   21.1180  -32.7230 C   0  0  0  0  0  0  0  0  0  0  0  0
   -5.4730   19.8480  -33.1450 C   0  0  0  0  0  0  0  0  0  0  0  0
   -4.0880   19.4870  -33.5460 C   0  0  0  0  0  0  0  0  0  0  0  0
   -6.4450   18.8430  -33.2040 C   0  0  0  0  0  0  0  0  0  0  0  0
   -6.0590   17.4610  -33.6630 C   0  0  0  0  0  0  0  0  0  0  0  0
   -7.7410   19.1430  -32.8390 C   0  0  0  0  0  0  0  0  0  0  0  0
   -8.1080   20.4190  -32.4130 C   0  0  0  0  0  0  0  0  0  0  0  0
   -9.7980   20.7960  -31.9400 S   0  0  0  0  0  0  0  0  0  0  0  0
   -5.3990   23.6590  -29.8650 N   0  0  0  0  0  0  0  0  0  0  0  0
   -2.8400   25.2960  -26.4390 C   0  0  0  0  0  0  0  0  0  0  0  0
   -1.7240   25.9550  -25.9660 C   0  0  0  0  0  0  0  0  0  0  0  0
   -1.7570   26.8390  -24.8960 O   0  0  0  0  0  0  0  0  0  0  0  0
   -0.9720   26.5100  -23.7630 C   0  0  0  0  0  0  0  0  0  0  0  0
   -0.4830   25.7570  -26.5580 C   0  0  0  0  0  0  0  0  0  0  0  0
    0.6510   26.4120  -26.0960 O   0  0  0  0  0  0  0  0  0  0  0  0
    0.8720   27.7990  -26.3530 C   0  0  0  0  0  0  0  0  0  0  0  0
    1.7708   24.2684  -26.4130 H   0  0  0  0  0  0  0  0  0  0  0  0
    2.0917   23.1178  -27.7546 H   0  0  0  0  0  0  0  0  0  0  0  0
    2.8695   24.7370  -27.7546 H   0  0  0  0  0  0  0  0  0  0  0  0
   -1.4246   23.5367  -28.9556 H   0  0  0  0  0  0  0  0  0  0  0  0
   -2.9390   25.6660  -29.7250 H   0  0  0  0  0  0  0  0  0  0  0  0
   -4.2800   25.8820  -31.8750 H   0  0  0  0  0  0  0  0  0  0  0  0
   -5.0613   21.9082  -32.6758 H   0  0  0  0  0  0  0  0  0  0  0  0
   -3.4756   19.3274  -32.6463 H   0  0  0  0  0  0  0  0  0  0  0  0
   -4.1082   18.5641  -34.1442 H   0  0  0  0  0  0  0  0  0  0  0  0
   -3.6552   20.3023  -34.1442 H   0  0  0  0  0  0  0  0  0  0  0  0
   -5.8801   16.8203  -32.7869 H   0  0  0  0  0  0  0  0  0  0  0  0
   -6.8726   17.0352  -34.2686 H   0  0  0  0  0  0  0  0  0  0  0  0
   -5.1425   17.5184  -34.2686 H   0  0  0  0  0  0  0  0  0  0  0  0
   -8.5060   18.3539  -32.8853 H   0  0  0  0  0  0  0  0  0  0  0  0
   -9.8530   21.9910  -31.1920 H   0  0  0  0  0  0  0  0  0  0  0  0
   -6.0350   22.9210  -29.5520 H   0  0  0  0  0  0  0  0  0  0  0  0
   -3.8124   25.4696  -25.9550 H   0  0  0  0  0  0  0  0  0  0  0  0
   -1.5336   26.7454  -22.8469 H   0  0  0  0  0  0  0  0  0  0  0  0
   -0.7337   25.4363  -23.7813 H   0  0  0  0  0  0  0  0  0  0  0  0
   -0.0394   27.0930  -23.7813 H   0  0  0  0  0  0  0  0  0  0  0  0
    0.9581   28.3395  -25.3988 H   0  0  0  0  0  0  0  0  0  0  0  0
    1.8010   27.9217  -26.9291 H   0  0  0  0  0  0  0  0  0  0  0  0
    0.0271   28.2043  -26.9291 H   0  0  0  0  0  0  0  0  0  0  0  0
  1  2  1  0
  2  3  1  0
  3  4  2  0
  4  5  1  0
  5  6  1  0
  6  7  2  0
  7  8  1  0
  8  9  1  0
  9 10  1  0
 10 11  2  0
 11 12  1  0
 12 13  2  0
 12 14  2  0
 12 15  1  0
 15 16  2  0
 16 17  1  0
 17 18  1  0
 17 19  2  0
 19 20  1  0
 19 21  1  0
 21 22  2  0
 22 23  1  0
 10 24  1  0
  5 25  2  0
 25 26  1  0
 26 27  1  0
 27 28  1  0
 26 29  2  0
 29 30  1  0
 30 31  1  0
 29  3  1  0
 24  7  1  0
 22 15  1  0
  1 32  1  0
  1 33  1  0
  1 34  1  0
  4 35  1  0
  8 36  1  0
  9 37  1  0
 16 38  1  0
 18 39  1  0
 18 40  1  0
 18 41  1  0
 20 42  1  0
 20 43  1  0
 20 44  1  0
 21 45  1  0
 23 46  1  0
 24 47  1  0
 25 48  1  0
 28 49  1  0
 28 50  1  0
 28 51  1  0
 31 52  1  0
 31 53  1  0
 31 54  1  0
M  END
>  <smiles>  (37) 
COc1cc(N=c2[nH][nH]c(=NS(=O)(=O)c3cc(C)c(C)cc3S)[nH]2)cc(OC)c1OC

>  <score_type>  (37) 
oracle

>  <origin>  (37) 
adgpu

>  <m_score__min__energy>  (37) 
-9.6300000000000008

>  <m_primary>  (37) 
energy

$$$$
37:0
     RDKit          3D

 51 52  0  0  0  0  0  0  0  0999 V2000
  -10.4544   21.5080  -32.2441 H   0  0  0  0  0  0  0  0  0  0  0  0
   -9.4210   21.1350  -32.1900 C   0  0  0  0  0  0  0  0  0  0  0  0
   -9.1870   19.8960  -32.6520 C   0  0  0  0  0  0  0  0  0  0  0  0
  -10.0089   19.3899  -33.1796 H   0  0  0  0  0  0  0  0  0  0  0  0
   -7.9130   19.1560  -32.5090 C   0  0  0  0  0  0  0  0  0  0  0  0
   -7.7680   18.1180  -31.5720 C   0  0  0  0  0  0  0  0  0  0  0  0
   -8.6064   17.8567  -30.9096 H   0  0  0  0  0  0  0  0  0  0  0  0
   -6.5630   17.4170  -31.4790 C   0  0  0  0  0  0  0  0  0  0  0  0
   -6.4498   16.6163  -30.7333 H   0  0  0  0  0  0  0  0  0  0  0  0
   -5.5020   17.7310  -32.3310 C   0  0  0  0  0  0  0  0  0  0  0  0
   -4.5537   17.1794  -32.2508 H   0  0  0  0  0  0  0  0  0  0  0  0
   -5.6400   18.7460  -33.2880 C   0  0  0  0  0  0  0  0  0  0  0  0
   -4.5030   19.0560  -34.2270 C   0  0  0  0  0  0  0  0  0  0  0  0
   -4.9142   19.4252  -35.1781 H   0  0  0  0  0  0  0  0  0  0  0  0
   -3.9225   18.1352  -34.3856 H   0  0  0  0  0  0  0  0  0  0  0  0
   -3.6020   20.0850  -33.6590 N   0  0  0  0  0  0  0  0  0  0  0  0
   -4.3300   21.2390  -33.0640 C   0  0  0  0  0  0  0  0  0  0  0  0
   -5.3866   20.9546  -32.9512 H   0  0  0  0  0  0  0  0  0  0  0  0
   -4.1767   22.0858  -33.7492 H   0  0  0  0  0  0  0  0  0  0  0  0
   -3.8110   21.6960  -31.6940 C   0  0  0  0  0  0  0  0  0  0  0  0
   -4.3818   21.1933  -30.8993 H   0  0  0  0  0  0  0  0  0  0  0  0
   -2.7460   21.4370  -31.6003 H   0  0  0  0  0  0  0  0  0  0  0  0
   -3.9331   22.7852  -31.6003 H   0  0  0  0  0  0  0  0  0  0  0  0
   -2.6050   19.4650  -32.7560 C   0  0  0  0  0  0  0  0  0  0  0  0
   -1.7866   20.1804  -32.5875 H   0  0  0  0  0  0  0  0  0  0  0  0
   -3.1144   19.2101  -31.8150 H   0  0  0  0  0  0  0  0  0  0  0  0
   -2.0210   18.1770  -33.3370 C   0  0  0  0  0  0  0  0  0  0  0  0
   -1.7182   17.5092  -32.5170 H   0  0  0  0  0  0  0  0  0  0  0  0
   -2.7803   17.6767  -33.9560 H   0  0  0  0  0  0  0  0  0  0  0  0
   -1.1443   18.4185  -33.9560 H   0  0  0  0  0  0  0  0  0  0  0  0
   -6.8540   19.4470  -33.3810 C   0  0  0  0  0  0  0  0  0  0  0  0
   -6.9748   20.2303  -34.1438 H   0  0  0  0  0  0  0  0  0  0  0  0
   -8.4010   22.0390  -31.6140 C   0  0  0  0  0  0  0  0  0  0  0  0
   -7.6970   22.9020  -32.4610 C   0  0  0  0  0  0  0  0  0  0  0  0
   -7.9191   22.9106  -33.5383 H   0  0  0  0  0  0  0  0  0  0  0  0
   -6.7140   23.7530  -31.9490 C   0  0  0  0  0  0  0  0  0  0  0  0
   -6.1806   24.4358  -32.6267 H   0  0  0  0  0  0  0  0  0  0  0  0
   -6.3970   23.7480  -30.5760 C   0  0  0  0  0  0  0  0  0  0  0  0
   -5.3800   24.6350  -30.0410 N   0  0  0  0  0  0  0  0  0  0  0  0
   -4.3850   24.1390  -29.0820 C   0  0  0  0  0  0  0  0  0  0  0  0
   -4.7428   24.3173  -28.0572 H   0  0  0  0  0  0  0  0  0  0  0  0
   -4.2341   23.0602  -29.2352 H   0  0  0  0  0  0  0  0  0  0  0  0
   -3.4327   24.6678  -29.2352 H   0  0  0  0  0  0  0  0  0  0  0  0
   -5.3260   26.0440  -30.4520 C   0  0  0  0  0  0  0  0  0  0  0  0
   -5.3014   26.6858  -29.5589 H   0  0  0  0  0  0  0  0  0  0  0  0
   -4.4206   26.2164  -31.0524 H   0  0  0  0  0  0  0  0  0  0  0  0
   -6.2156   26.2852  -31.0524 H   0  0  0  0  0  0  0  0  0  0  0  0
   -7.0900   22.8520  -29.7360 C   0  0  0  0  0  0  0  0  0  0  0  0
   -6.8552   22.8228  -28.6617 H   0  0  0  0  0  0  0  0  0  0  0  0
   -8.0710   22.0010  -30.2510 C   0  0  0  0  0  0  0  0  0  0  0  0
   -8.5882   21.2963  -29.5832 H   0  0  0  0  0  0  0  0  0  0  0  0
  1  2  1  0
  2  3  2  0
  3  4  1  0
  3  5  1  0
  5  6  2  0
  6  7  1  0
  6  8  1  0
  8  9  1  0
  8 10  2  0
 10 11  1  0
 10 12  1  0
 12 13  1  0
 13 14  1  0
 13 15  1  0
 13 16  1  0
 16 17  1  0
 17 18  1  0
 17 19  1  0
 17 20  1  0
 20 21  1  0
 20 22  1  0
 20 23  1  0
 16 24  1  0
 24 25  1  0
 24 26  1  0
 24 27  1  0
 27 28  1  0
 27 29  1  0
 27 30  1  0
 12 31  2  0
 31 32  1  0
  2 33  1  0
 33 34  2  0
 34 35  1  0
 34 36  1  0
 36 37  1  0
 36 38  2  0
 38 39  1  0
 39 40  1  0
 40 41  1  0
 40 42  1  0
 40 43  1  0
 39 44  1  0
 44 45  1  0
 44 46  1  0
 44 47  1  0
 38 48  1  0
 48 49  1  0
 48 50  2  0
 50 51  1  0
 31  5  1  0
 50 33  1  0
M  END
>  <UniqueID>  (38) 
33

>  <SMILES>  (38) 
CCN(CC)Cc1cccc(/C=C\c2ccc(N(C)C)cc2)c1

>  <Energy>  (38) 
63.07416450283888

>  <Genealogy>  (38) 
CCN(CC)Cc1cccc(/C=C\c2ccc(N(C)C)cc2)c1 (cis-trans isomerization)
CCN(CC)Cc1cccc(/C=C\c2ccc(N(C)C)cc2)c1 (3D coordinates assigned)
CCN(CC)Cc1cccc(/C=C\c2ccc(N(C)C)cc2)c1 (optimized conformer: 63.07416450283888 kcal/mol)

>  <smiles>  (38) 
CCN(CC)Cc1cccc(C=Cc2ccc(N(C)C)cc2)c1

>  <score_type>  (38) 
oracle

>  <origin>  (38) 
adgpu

>  <m_score__min__energy>  (38) 
-8.2899999999999991

>  <m_primary>  (38) 
energy

$$$$
38:0
     RDKit          3D

 26 27  0  0  0  0  0  0  0  0999 V2000
   -3.8910   17.8760  -33.9920 C   0  0  0  0  0  0  0  0  0  0  0  0
   -4.4550   19.1730  -34.1640 O   0  0  0  0  0  0  0  0  0  0  0  0
   -5.4460   19.7250  -33.3370 C   0  0  0  0  0  0  0  0  0  0  0  0
   -5.3020   20.9910  -32.7360 C   0  0  0  0  0  0  0  0  0  0  0  0
   -6.3150   21.5150  -31.9120 C   0  0  0  0  0  0  0  0  0  0  0  0
   -6.1590   22.8500  -31.2810 C   0  0  0  0  0  0  0  0  0  0  0  0
   -7.2770   23.5350  -30.7720 C   0  0  0  0  0  0  0  0  0  0  0  0
   -7.1280   24.7920  -30.1760 C   0  0  0  0  0  0  0  0  0  0  0  0
   -5.8630   25.3780  -30.0850 C   0  0  0  0  0  0  0  0  0  0  0  0
   -4.7440   24.7090  -30.5870 C   0  0  0  0  0  0  0  0  0  0  0  0
   -3.4870   25.2950  -30.4980 O   0  0  0  0  0  0  0  0  0  0  0  0
   -4.8880   23.4510  -31.1820 C   0  0  0  0  0  0  0  0  0  0  0  0
   -7.4760   20.7550  -31.6940 C   0  0  0  0  0  0  0  0  0  0  0  0
   -7.6250   19.5000  -32.2880 C   0  0  0  0  0  0  0  0  0  0  0  0
   -9.0940   18.5770  -32.0010 Cl  0  0  0  0  0  0  0  0  0  0  0  0
   -6.6130   18.9850  -33.1080 C   0  0  0  0  0  0  0  0  0  0  0  0
   -6.7630   17.7350  -33.6980 O   0  0  0  0  0  0  0  0  0  0  0  0
   -3.7958   17.6570  -32.9182 H   0  0  0  0  0  0  0  0  0  0  0  0
   -4.5445   17.1266  -34.4625 H   0  0  0  0  0  0  0  0  0  0  0  0
   -2.8972   17.8430  -34.4625 H   0  0  0  0  0  0  0  0  0  0  0  0
   -4.3876   21.5763  -32.9129 H   0  0  0  0  0  0  0  0  0  0  0  0
   -8.2756   23.0792  -30.8430 H   0  0  0  0  0  0  0  0  0  0  0  0
   -8.0077   25.3194  -29.7787 H   0  0  0  0  0  0  0  0  0  0  0  0
   -5.7480   26.3671  -29.6176 H   0  0  0  0  0  0  0  0  0  0  0  0
   -4.0038   22.9277  -31.5750 H   0  0  0  0  0  0  0  0  0  0  0  0
   -8.2746   21.1518  -31.0499 H   0  0  0  0  0  0  0  0  0  0  0  0
  1  2  1  0
  2  3  1  0
  3  4  2  0
  4  5  1  0
  5  6  1  0
  6  7  2  0
  7  8  1  0
  8  9  2  0
  9 10  1  0
 10 11  1  0
 10 12  2  0
  5 13  2  0
 13 14  1  0
 14 15  1  0
 14 16  2  0
 16 17  1  0
 16  3  1  0
 12  6  1  0
  1 18  1  0
  1 19  1  0
  1 20  1  0
  4 21  1  0
  7 22  1  0
  8 23  1  0
  9 24  1  0
 12 25  1  0
 13 26  1  0
M  CHG  2  11  -1  17  -1
M  END
>  <UniqueID>  (39) 
34

>  <SMILES>  (39) 
COc1cc(-c2cccc([O-])c2)cc(Cl)c1[O-]

>  <Energy>  (39) 
32.12955614890855

>  <Genealogy>  (39) 
COc1cc(-c2cccc([O-])c2)cc(Cl)c1[O-] (protonated)
COc1cc(-c2cccc([O-])c2)cc(Cl)c1[O-] (3D coordinates assigned)
COc1cc(-c2cccc([O-])c2)cc(Cl)c1[O-] (optimized conformer: 32.12955614890855 kcal/mol)

>  <smiles>  (39) 
COc1cc(-c2cccc(O)c2)cc(Cl)c1O

>  <score_type>  (39) 
oracle

>  <origin>  (39) 
adgpu

>  <m_score__min__energy>  (39) 
-10.19

>  <m_primary>  (39) 
energy

$$$$
39:0
     RDKit          3D

 51 54  0  0  0  0  0  0  0  0999 V2000
   -6.6450   24.9640  -30.0090 C   0  0  0  0  0  0  0  0  0  0  0  0
   -4.9230   24.5290  -30.0780 S   0  0  0  0  0  0  0  0  0  0  0  0
   -4.3550   24.4940  -28.6870 O   0  0  0  0  0  0  0  0  0  0  0  0
   -4.1760   25.5610  -30.8780 O   0  0  0  0  0  0  0  0  0  0  0  0
   -4.7510   22.9480  -30.8330 C   0  0  0  0  0  0  0  0  0  0  0  0
   -5.4530   22.6480  -32.0060 C   0  0  0  0  0  0  0  0  0  0  0  0
   -5.3040   21.4000  -32.6160 C   0  0  0  0  0  0  0  0  0  0  0  0
   -4.4350   20.4410  -32.0690 C   0  0  0  0  0  0  0  0  0  0  0  0
   -4.2740   19.1150  -32.7040 C   0  0  0  0  0  0  0  0  0  0  0  0
   -5.1600   18.0600  -32.6050 C   0  0  0  0  0  0  0  0  0  0  0  0
   -4.7380   17.0660  -33.4160 N   0  0  0  0  0  0  0  0  0  0  0  0
   -5.3770   15.7930  -33.6400 C   0  0  0  0  0  0  0  0  0  0  0  0
   -4.7280   14.6030  -33.2590 C   0  0  0  0  0  0  0  0  0  0  0  0
   -5.3370   13.3620  -33.4680 C   0  0  0  0  0  0  0  0  0  0  0  0
   -6.6010   13.2920  -34.0550 C   0  0  0  0  0  0  0  0  0  0  0  0
   -7.2600   14.4640  -34.4320 C   0  0  0  0  0  0  0  0  0  0  0  0
   -6.6570   15.7080  -34.2270 C   0  0  0  0  0  0  0  0  0  0  0  0
   -3.6210   17.4390  -34.0250 N   0  0  0  0  0  0  0  0  0  0  0  0
   -3.3070   18.6810  -33.6050 C   0  0  0  0  0  0  0  0  0  0  0  0
   -2.0770   19.3830  -34.0290 C   0  0  0  0  0  0  0  0  0  0  0  0
   -1.0350   18.6940  -34.6710 C   0  0  0  0  0  0  0  0  0  0  0  0
    0.1180   19.3740  -35.0740 C   0  0  0  0  0  0  0  0  0  0  0  0
    0.2350   20.7530  -34.8610 C   0  0  0  0  0  0  0  0  0  0  0  0
    1.6970   21.6020  -35.3500 S   0  0  0  0  0  0  0  0  0  0  0  0
    3.1000   20.8770  -34.5320 C   0  0  0  0  0  0  0  0  0  0  0  0
    1.5940   23.0550  -34.9780 O   0  0  0  0  0  0  0  0  0  0  0  0
    1.8730   21.4970  -36.8380 O   0  0  0  0  0  0  0  0  0  0  0  0
   -0.8100   21.4470  -34.2360 C   0  0  0  0  0  0  0  0  0  0  0  0
   -1.9630   20.7680  -33.8310 C   0  0  0  0  0  0  0  0  0  0  0  0
   -3.7410   20.7420  -30.8860 C   0  0  0  0  0  0  0  0  0  0  0  0
   -3.8920   21.9910  -30.2770 C   0  0  0  0  0  0  0  0  0  0  0  0
   -6.9612   25.0439  -28.9585 H   0  0  0  0  0  0  0  0  0  0  0  0
   -6.7998   25.9295  -30.5129 H   0  0  0  0  0  0  0  0  0  0  0  0
   -7.2397   24.1879  -30.5129 H   0  0  0  0  0  0  0  0  0  0  0  0
   -6.1247   23.3978  -32.4494 H   0  0  0  0  0  0  0  0  0  0  0  0
   -5.8703   21.1669  -33.5298 H   0  0  0  0  0  0  0  0  0  0  0  0
   -6.0589   18.0338  -31.9716 H   0  0  0  0  0  0  0  0  0  0  0  0
   -3.7328   14.6501  -32.7927 H   0  0  0  0  0  0  0  0  0  0  0  0
   -4.8187   12.4389  -33.1691 H   0  0  0  0  0  0  0  0  0  0  0  0
   -7.0778   12.3146  -34.2206 H   0  0  0  0  0  0  0  0  0  0  0  0
   -8.2576   14.4079  -34.8921 H   0  0  0  0  0  0  0  0  0  0  0  0
   -7.1837   16.6265  -34.5252 H   0  0  0  0  0  0  0  0  0  0  0  0
   -1.1266   17.6138  -34.8576 H   0  0  0  0  0  0  0  0  0  0  0  0
    0.9367   18.8235  -35.5604 H   0  0  0  0  0  0  0  0  0  0  0  0
    2.9655   20.9465  -33.4425 H   0  0  0  0  0  0  0  0  0  0  0  0
    3.1888   19.8201  -34.8238 H   0  0  0  0  0  0  0  0  0  0  0  0
    4.0134   21.4160  -34.8238 H   0  0  0  0  0  0  0  0  0  0  0  0
   -0.7227   22.5299  -34.0635 H   0  0  0  0  0  0  0  0  0  0  0  0
   -2.7853   21.3220  -33.3546 H   0  0  0  0  0  0  0  0  0  0  0  0
   -3.0750   19.9909  -30.4362 H   0  0  0  0  0  0  0  0  0  0  0  0
   -3.3343   22.2234  -29.3578 H   0  0  0  0  0  0  0  0  0  0  0  0
  1  2  1  0
  2  3  2  0
  2  4  2  0
  2  5  1  0
  5  6  2  0
  6  7  1  0
  7  8  2  0
  8  9  1  0
  9 10  2  0
 10 11  1  0
 11 12  1  0
 12 13  2  0
 13 14  1  0
 14 15  2  0
 15 16  1  0
 16 17  2  0
 11 18  1  0
 18 19  2  0
 19 20  1  0
 20 21  2  0
 21 22  1  0
 22 23  2  0
 23 24  1  0
 24 25  1  0
 24 26  2  0
 24 27  2  0
 23 28  1  0
 28 29  2  0
  8 30  1  0
 30 31  2  0
 31  5  1  0
 19  9  1  0
 29 20  1  0
 17 12  1  0
  1 32  1  0
  1 33  1  0
  1 34  1  0
  6 35  1  0
  7 36  1  0
 10 37  1  0
 13 38  1  0
 14 39  1  0
 15 40  1  0
 16 41  1  0
 17 42  1  0
 21 43  1  0
 22 44  1  0
 25 45  1  0
 25 46  1  0
 25 47  1  0
 28 48  1  0
 29 49  1  0
 30 50  1  0
 31 51  1  0
M  END
>  <UniqueID>  (40) 
35

>  <SMILES>  (40) 
CS(=O)(=O)c1ccc(-c2cn(-c3ccccc3)nc2-c2ccc(S(C)(=O)=O)cc2)cc1

>  <Energy>  (40) 
90.22932611052543

>  <Genealogy>  (40) 
CS(=O)(=O)c1ccc(-c2cn(-c3ccccc3)nc2-c2ccc(S(C)(=O)=O)cc2)cc1 (3D coordinates assigned)
CS(=O)(=O)c1ccc(-c2cn(-c3ccccc3)nc2-c2ccc(S(C)(=O)=O)cc2)cc1 (optimized conformer: 90.22932611052543 kcal/mol)

>  <smiles>  (40) 
CS(=O)(=O)c1ccc(-c2cn(-c3ccccc3)nc2-c2ccc(S(C)(=O)=O)cc2)cc1

>  <score_type>  (40) 
oracle

>  <origin>  (40) 
adgpu

>  <m_score__min__energy>  (40) 
-9.4499999999999993

>  <m_primary>  (40) 
energy

$$$$
40:0
     RDKit          3D

 57 60  0  0  0  0  0  0  0  0999 V2000
    1.5037   24.9584  -27.1925 H   0  0  0  0  0  0  0  0  0  0  0  0
    1.8260   26.0080  -27.1250 C   0  0  0  0  0  0  0  0  0  0  0  0
    3.0840   26.3540  -27.5080 N   0  0  0  0  0  0  0  0  0  0  0  0
    3.5320   27.6360  -27.4430 C   0  0  0  0  0  0  0  0  0  0  0  0
    4.8300   27.9650  -27.8470 O   0  0  0  0  0  0  0  0  0  0  0  0
    5.1030   28.9600  -28.8250 C   0  0  0  0  0  0  0  0  0  0  0  0
    5.3622   29.9047  -28.3246 H   0  0  0  0  0  0  0  0  0  0  0  0
    5.9452   28.6350  -29.4536 H   0  0  0  0  0  0  0  0  0  0  0  0
    4.2129   29.1103  -29.4536 H   0  0  0  0  0  0  0  0  0  0  0  0
    2.6870   28.6390  -26.9680 C   0  0  0  0  0  0  0  0  0  0  0  0
    3.0395   29.6795  -26.9114 H   0  0  0  0  0  0  0  0  0  0  0  0
    1.3910   28.3130  -26.5650 C   0  0  0  0  0  0  0  0  0  0  0  0
    0.7235   29.1001  -26.1844 H   0  0  0  0  0  0  0  0  0  0  0  0
    0.9320   26.9850  -26.6420 C   0  0  0  0  0  0  0  0  0  0  0  0
   -0.4130   26.6340  -26.2280 N   0  0  0  0  0  0  0  0  0  0  0  0
   -1.0700   25.4890  -26.7880 C   0  0  0  0  0  0  0  0  0  0  0  0
   -1.7660   25.6070  -27.9490 N   0  0  0  0  0  0  0  0  0  0  0  0
   -2.4060   24.5440  -28.5040 C   0  0  0  0  0  0  0  0  0  0  0  0
   -3.0560   24.7230  -29.6200 N   0  0  0  0  0  0  0  0  0  0  0  0
   -3.8800   23.7680  -30.3050 C   0  0  0  0  0  0  0  0  0  0  0  0
   -5.2260   24.0460  -30.5940 C   0  0  0  0  0  0  0  0  0  0  0  0
   -5.6758   24.9896  -30.2516 H   0  0  0  0  0  0  0  0  0  0  0  0
   -5.9960   23.1300  -31.3140 C   0  0  0  0  0  0  0  0  0  0  0  0
   -7.0533   23.3501  -31.5232 H   0  0  0  0  0  0  0  0  0  0  0  0
   -5.4290   21.9290  -31.7730 C   0  0  0  0  0  0  0  0  0  0  0  0
   -6.2170   20.9890  -32.5290 N   0  0  0  0  0  0  0  0  0  0  0  0
   -5.5690   20.0750  -33.4770 C   0  0  0  0  0  0  0  0  0  0  0  0
   -5.3435   20.6190  -34.4061 H   0  0  0  0  0  0  0  0  0  0  0  0
   -4.6425   19.6938  -33.0229 H   0  0  0  0  0  0  0  0  0  0  0  0
   -6.4880   18.8830  -33.8000 C   0  0  0  0  0  0  0  0  0  0  0  0
   -7.2034   19.1855  -34.5789 H   0  0  0  0  0  0  0  0  0  0  0  0
   -5.8589   18.0489  -34.1444 H   0  0  0  0  0  0  0  0  0  0  0  0
   -7.2390   18.4320  -32.6090 N   0  0  0  0  0  0  0  0  0  0  0  0
   -6.3540   17.8330  -31.5960 C   0  0  0  0  0  0  0  0  0  0  0  0
   -6.7245   18.0838  -30.5911 H   0  0  0  0  0  0  0  0  0  0  0  0
   -6.3416   16.7401  -31.7201 H   0  0  0  0  0  0  0  0  0  0  0  0
   -5.3348   18.2277  -31.7201 H   0  0  0  0  0  0  0  0  0  0  0  0
   -8.1110   19.4870  -32.0280 C   0  0  0  0  0  0  0  0  0  0  0  0
   -9.1338   19.3361  -32.4036 H   0  0  0  0  0  0  0  0  0  0  0  0
   -8.0430   19.3898  -30.9344 H   0  0  0  0  0  0  0  0  0  0  0  0
   -7.6740   20.9220  -32.3760 C   0  0  0  0  0  0  0  0  0  0  0  0
   -8.1520   21.2282  -33.3182 H   0  0  0  0  0  0  0  0  0  0  0  0
   -7.9789   21.5956  -31.5616 H   0  0  0  0  0  0  0  0  0  0  0  0
   -4.0690   21.6760  -31.5200 C   0  0  0  0  0  0  0  0  0  0  0  0
   -3.6069   20.7491  -31.8906 H   0  0  0  0  0  0  0  0  0  0  0  0
   -3.3010   22.5960  -30.8000 C   0  0  0  0  0  0  0  0  0  0  0  0
   -2.2341   22.3962  -30.6219 H   0  0  0  0  0  0  0  0  0  0  0  0
   -2.3200   23.3170  -27.9010 N   0  0  0  0  0  0  0  0  0  0  0  0
   -2.7460   22.4650  -28.3270 H   0  0  0  0  0  0  0  0  0  0  0  0
   -1.6290   23.1600  -26.7400 C   0  0  0  0  0  0  0  0  0  0  0  0
   -1.5762   22.1704  -26.2626 H   0  0  0  0  0  0  0  0  0  0  0  0
   -0.9880   24.2490  -26.1540 C   0  0  0  0  0  0  0  0  0  0  0  0
   -0.4300   24.1339  -25.2130 H   0  0  0  0  0  0  0  0  0  0  0  0
   -1.2040   27.5150  -25.3650 C   0  0  0  0  0  0  0  0  0  0  0  0
   -0.9938   27.2809  -24.3109 H   0  0  0  0  0  0  0  0  0  0  0  0
   -0.9377   28.5628  -25.5681 H   0  0  0  0  0  0  0  0  0  0  0  0
   -2.2743   27.3627  -25.5681 H   0  0  0  0  0  0  0  0  0  0  0  0
  1  2  1  0
  2  3  2  0
  3  4  1  0
  4  5  1  0
  5  6  1  0
  6  7  1  0
  6  8  1  0
  6  9  1  0
  4 10  2  0
 10 11  1  0
 10 12  1  0
 12 13  1  0
 12 14  2  0
 14 15  1  0
 15 16  1  0
 16 17  2  0
 17 18  1  0
 18 19  2  0
 19 20  1  0
 20 21  2  0
 21 22  1  0
 21 23  1  0
 23 24  1  0
 23 25  2  0
 25 26  1  0
 26 27  1  0
 27 28  1  0
 27 29  1  0
 27 30  1  0
 30 31  1  0
 30 32  1  0
 30 33  1  0
 33 34  1  0
 34 35  1  0
 34 36  1  0
 34 37  1  0
 33 38  1  0
 38 39  1  0
 38 40  1  0
 38 41  1  0
 41 42  1  0
 41 43  1  0
 25 44  1  0
 44 45  1  0
 44 46  2  0
 46 47  1  0
 18 48  1  0
 48 49  1  0
 48 50  1  0
 50 51  1  0
 50 52  2  0
 52 53  1  0
 15 54  1  0
 54 55  1  0
 54 56  1  0
 54 57  1  0
 14  2  1  0
 52 16  1  0
 46 20  1  0
 41 26  1  0
M  END
>  <UniqueID>  (41) 
36

>  <SMILES>  (41) 
COc1ccc(N(C)c2cc[nH]/c(=N\c3ccc(N4CCN(C)CC4)cc3)n2)cn1

>  <Energy>  (41) 
89.33307861789675

>  <Genealogy>  (41) 
COc1ccc(N(C)c2cc[nH]/c(=N\c3ccc(N4CCN(C)CC4)cc3)n2)cn1 (cis-trans isomerization)
COc1ccc(N(C)c2cc[nH]/c(=N\c3ccc(N4CCN(C)CC4)cc3)n2)cn1 (3D coordinates assigned)
COc1ccc(N(C)c2cc[nH]/c(=N\c3ccc(N4CCN(C)CC4)cc3)n2)cn1 (nonaromatic ring conformer: 89.33307861789675 kcal/mol)

>  <smiles>  (41) 
COc1ccc(N(C)c2cc[nH]c(=Nc3ccc(N4CCN(C)CC4)cc3)n2)cn1

>  <score_type>  (41) 
oracle

>  <origin>  (41) 
adgpu

>  <m_score__min__energy>  (41) 
-8.2899999999999991

>  <m_primary>  (41) 
energy

$$$$
41:0
     RDKit          3D

 40 42  0  0  0  0  0  0  0  0999 V2000
   -9.2860   21.1740  -31.9390 C   0  0  0  0  0  0  0  0  0  0  0  0
   -8.9900   22.3230  -31.1520 O   0  0  0  0  0  0  0  0  0  0  0  0
   -7.7030   22.8580  -30.9860 C   0  0  0  0  0  0  0  0  0  0  0  0
   -7.0720   22.9290  -29.7300 C   0  0  0  0  0  0  0  0  0  0  0  0
   -5.7890   23.4740  -29.6160 C   0  0  0  0  0  0  0  0  0  0  0  0
   -5.1220   23.9650  -30.7530 C   0  0  0  0  0  0  0  0  0  0  0  0
   -3.8300   24.5060  -30.6870 O   0  0  0  0  0  0  0  0  0  0  0  0
   -2.8970   24.2610  -29.6710 C   0  0  0  0  0  0  0  0  0  0  0  0
   -2.3580   25.2960  -28.9670 N   0  0  0  0  0  0  0  0  0  0  0  0
   -1.4030   25.1090  -28.0190 C   0  0  0  0  0  0  0  0  0  0  0  0
   -0.9270   23.8260  -27.7540 C   0  0  0  0  0  0  0  0  0  0  0  0
    0.3160   23.5740  -26.5410 Cl  0  0  0  0  0  0  0  0  0  0  0  0
   -1.4510   22.7430  -28.4620 C   0  0  0  0  0  0  0  0  0  0  0  0
   -2.4560   22.9460  -29.4200 C   0  0  0  0  0  0  0  0  0  0  0  0
   -3.0090   21.7870  -30.1540 C   0  0  0  0  0  0  0  0  0  0  0  0
   -3.1120   20.6810  -29.5560 O   0  0  0  0  0  0  0  0  0  0  0  0
   -3.4250   21.9160  -31.5250 N   0  0  0  0  0  0  0  0  0  0  0  0
   -3.9120   20.8250  -32.3250 C   0  0  0  0  0  0  0  0  0  0  0  0
   -2.9990   20.0580  -33.0660 C   0  0  0  0  0  0  0  0  0  0  0  0
   -3.4480   19.0060  -33.8700 C   0  0  0  0  0  0  0  0  0  0  0  0
   -4.8140   18.7230  -33.9540 C   0  0  0  0  0  0  0  0  0  0  0  0
   -5.3770   17.4040  -34.9670 Cl  0  0  0  0  0  0  0  0  0  0  0  0
   -5.7330   19.4970  -33.2400 C   0  0  0  0  0  0  0  0  0  0  0  0
   -5.2870   20.5490  -32.4340 C   0  0  0  0  0  0  0  0  0  0  0  0
   -5.7450   23.8730  -32.0020 C   0  0  0  0  0  0  0  0  0  0  0  0
   -7.0280   23.3300  -32.1170 C   0  0  0  0  0  0  0  0  0  0  0  0
   -9.5052   20.3230  -31.2774 H   0  0  0  0  0  0  0  0  0  0  0  0
  -10.1605   21.3797  -32.5738 H   0  0  0  0  0  0  0  0  0  0  0  0
   -8.4210   20.9316  -32.5738 H   0  0  0  0  0  0  0  0  0  0  0  0
   -7.5898   22.5545  -28.8347 H   0  0  0  0  0  0  0  0  0  0  0  0
   -5.2990   23.5189  -28.6322 H   0  0  0  0  0  0  0  0  0  0  0  0
   -1.0056   25.9696  -27.4609 H   0  0  0  0  0  0  0  0  0  0  0  0
   -1.0750   21.7276  -28.2683 H   0  0  0  0  0  0  0  0  0  0  0  0
   -3.3050   22.8390  -32.0000 H   0  0  0  0  0  0  0  0  0  0  0  0
   -1.9242   20.2860  -33.0137 H   0  0  0  0  0  0  0  0  0  0  0  0
   -2.7255   18.4006  -34.4369 H   0  0  0  0  0  0  0  0  0  0  0  0
   -6.8086   19.2783  -33.3122 H   0  0  0  0  0  0  0  0  0  0  0  0
   -6.0144   21.1632  -31.8829 H   0  0  0  0  0  0  0  0  0  0  0  0
   -5.2213   24.2307  -32.9007 H   0  0  0  0  0  0  0  0  0  0  0  0
   -7.5104   23.2734  -33.1039 H   0  0  0  0  0  0  0  0  0  0  0  0
  1  2  1  0
  2  3  1  0
  3  4  2  0
  4  5  1  0
  5  6  2  0
  6  7  1  0
  7  8  1  0
  8  9  2  0
  9 10  1  0
 10 11  2  0
 11 12  1  0
 11 13  1  0
 13 14  2  0
 14 15  1  0
 15 16  2  0
 15 17  1  0
 17 18  1  0
 18 19  2  0
 19 20  1  0
 20 21  2  0
 21 22  1  0
 21 23  1  0
 23 24  2  0
  6 25  1  0
 25 26  2  0
 26  3  1  0
 14  8  1  0
 24 18  1  0
  1 27  1  0
  1 28  1  0
  1 29  1  0
  4 30  1  0
  5 31  1  0
 10 32  1  0
 13 33  1  0
 17 34  1  0
 19 35  1  0
 20 36  1  0
 23 37  1  0
 24 38  1  0
 25 39  1  0
 26 40  1  0
M  END
>  <UniqueID>  (42) 
37

>  <SMILES>  (42) 
COc1ccc(Oc2ncc(Cl)cc2C(=O)Nc2ccc(Cl)cc2)cc1

>  <Energy>  (42) 
55.660234150780504

>  <Genealogy>  (42) 
COc1ccc(Oc2ncc(Cl)cc2C(=O)Nc2ccc(Cl)cc2)cc1 (3D coordinates assigned)
COc1ccc(Oc2ncc(Cl)cc2C(=O)Nc2ccc(Cl)cc2)cc1 (optimized conformer: 55.660234150780504 kcal/mol)

>  <smiles>  (42) 
COc1ccc(Oc2ncc(Cl)cc2C(=O)Nc2ccc(Cl)cc2)cc1

>  <score_type>  (42) 
oracle

>  <origin>  (42) 
adgpu

>  <m_score__min__energy>  (42) 
-8.0999999999999996

>  <m_primary>  (42) 
energy

$$$$
42:0
     RDKit          3D

 46 49  0  0  0  0  0  0  0  0999 V2000
   -0.8540   26.5500  -27.8500 C   0  0  0  0  0  0  0  0  0  0  0  0
   -1.4840   25.8440  -28.9140 O   0  0  0  0  0  0  0  0  0  0  0  0
   -1.5630   24.4450  -29.0020 C   0  0  0  0  0  0  0  0  0  0  0  0
   -0.6590   23.6020  -28.3240 C   0  0  0  0  0  0  0  0  0  0  0  0
   -0.7630   22.2150  -28.4450 C   0  0  0  0  0  0  0  0  0  0  0  0
   -1.7670   21.6530  -29.2330 C   0  0  0  0  0  0  0  0  0  0  0  0
   -2.6720   22.4770  -29.9050 C   0  0  0  0  0  0  0  0  0  0  0  0
   -2.5760   23.8780  -29.7950 C   0  0  0  0  0  0  0  0  0  0  0  0
   -3.4870   24.7530  -30.4780 N   0  0  0  0  0  0  0  0  0  0  0  0
   -5.1670   24.9430  -30.0990 S   0  0  0  0  0  0  0  0  0  0  0  0
   -5.6500   26.2570  -30.6460 O   0  0  0  0  0  0  0  0  0  0  0  0
   -5.3380   24.9450  -28.6040 O   0  0  0  0  0  0  0  0  0  0  0  0
   -6.0970   23.6440  -30.8390 C   0  0  0  0  0  0  0  0  0  0  0  0
   -7.4910   23.6780  -30.7900 C   0  0  0  0  0  0  0  0  0  0  0  0
   -8.2390   22.6580  -31.3750 C   0  0  0  0  0  0  0  0  0  0  0  0
   -7.6070   21.5850  -32.0260 C   0  0  0  0  0  0  0  0  0  0  0  0
   -8.4630   20.5220  -32.6640 C   0  0  0  0  0  0  0  0  0  0  0  0
   -6.1890   21.5350  -32.0680 C   0  0  0  0  0  0  0  0  0  0  0  0
   -5.4580   20.4130  -32.7090 C   0  0  0  0  0  0  0  0  0  0  0  0
   -5.8260   19.0800  -32.7080 C   0  0  0  0  0  0  0  0  0  0  0  0
   -4.8310   18.4650  -33.4410 C   0  0  0  0  0  0  0  0  0  0  0  0
   -4.7280   17.0320  -33.7470 C   0  0  0  0  0  0  0  0  0  0  0  0
   -3.5630   16.3320  -34.0440 C   0  0  0  0  0  0  0  0  0  0  0  0
   -3.7850   14.9730  -34.2920 C   0  0  0  0  0  0  0  0  0  0  0  0
   -5.1180   14.5970  -34.1910 C   0  0  0  0  0  0  0  0  0  0  0  0
   -6.0220   15.9580  -33.7940 S   0  0  0  0  0  0  0  0  0  0  0  0
   -3.9370   19.3860  -33.8490 N   0  0  0  0  0  0  0  0  0  0  0  0
   -4.3440   20.5350  -33.3930 O   0  0  0  0  0  0  0  0  0  0  0  0
   -5.4500   22.5770  -31.4730 C   0  0  0  0  0  0  0  0  0  0  0  0
   -1.2077   26.1536  -26.8868 H   0  0  0  0  0  0  0  0  0  0  0  0
    0.2364   26.4229  -27.9206 H   0  0  0  0  0  0  0  0  0  0  0  0
   -1.1039   27.6189  -27.9206 H   0  0  0  0  0  0  0  0  0  0  0  0
    0.1319   24.0391  -27.6968 H   0  0  0  0  0  0  0  0  0  0  0  0
   -0.0509   21.5636  -27.9172 H   0  0  0  0  0  0  0  0  0  0  0  0
   -1.8460   20.5597  -29.3252 H   0  0  0  0  0  0  0  0  0  0  0  0
   -3.4641   22.0297  -30.5235 H   0  0  0  0  0  0  0  0  0  0  0  0
   -8.0015   24.5130  -30.2878 H   0  0  0  0  0  0  0  0  0  0  0  0
   -9.3374   22.6933  -31.3266 H   0  0  0  0  0  0  0  0  0  0  0  0
   -8.9468   19.9212  -31.8798 H   0  0  0  0  0  0  0  0  0  0  0  0
   -9.2331   20.9976  -33.2890 H   0  0  0  0  0  0  0  0  0  0  0  0
   -7.8341   19.8710  -33.2890 H   0  0  0  0  0  0  0  0  0  0  0  0
   -6.7050   18.6183  -32.2344 H   0  0  0  0  0  0  0  0  0  0  0  0
   -2.5680   16.7996  -34.0802 H   0  0  0  0  0  0  0  0  0  0  0  0
   -2.9788   14.2681  -34.5435 H   0  0  0  0  0  0  0  0  0  0  0  0
   -5.5146   13.5825  -34.3444 H   0  0  0  0  0  0  0  0  0  0  0  0
   -4.3508   22.5515  -31.5073 H   0  0  0  0  0  0  0  0  0  0  0  0
  1  2  1  0
  2  3  1  0
  3  4  2  0
  4  5  1  0
  5  6  2  0
  6  7  1  0
  7  8  2  0
  8  9  1  0
  9 10  1  0
 10 11  2  0
 10 12  2  0
 10 13  1  0
 13 14  2  0
 14 15  1  0
 15 16  2  0
 16 17  1  0
 16 18  1  0
 18 19  1  0
 19 20  2  0
 20 21  1  0
 21 22  1  0
 22 23  2  0
 23 24  1  0
 24 25  2  0
 25 26  1  0
 21 27  2  0
 27 28  1  0
 18 29  2  0
  8  3  1  0
 29 13  1  0
 28 19  1  0
 26 22  1  0
  1 30  1  0
  1 31  1  0
  1 32  1  0
  4 33  1  0
  5 34  1  0
  6 35  1  0
  7 36  1  0
 14 37  1  0
 15 38  1  0
 17 39  1  0
 17 40  1  0
 17 41  1  0
 20 42  1  0
 23 43  1  0
 24 44  1  0
 25 45  1  0
 29 46  1  0
M  CHG  1   9  -1
M  END
>  <UniqueID>  (43) 
38

>  <SMILES>  (43) 
COc1ccccc1[N-]S(=O)(=O)c1ccc(C)c(-c2cc(-c3cccs3)no2)c1

>  <Energy>  (43) 
112.69813650557148

>  <Genealogy>  (43) 
COc1ccccc1[N-]S(=O)(=O)c1ccc(C)c(-c2cc(-c3cccs3)no2)c1 (protonated)
COc1ccccc1[N-]S(=O)(=O)c1ccc(C)c(-c2cc(-c3cccs3)no2)c1 (3D coordinates assigned)
COc1ccccc1[N-]S(=O)(=O)c1ccc(C)c(-c2cc(-c3cccs3)no2)c1 (optimized conformer: 112.69813650557148 kcal/mol)

>  <smiles>  (43) 
COc1ccccc1NS(=O)(=O)c1ccc(C)c(-c2cc(-c3cccs3)no2)c1

>  <score_type>  (43) 
oracle

>  <origin>  (43) 
adgpu

>  <m_score__min__energy>  (43) 
-11.56

>  <m_primary>  (43) 
energy

$$$$
43:0
     RDKit          3D

 36 37  0  0  0  0  0  0  0  0999 V2000
   -1.6130   23.6940  -28.1990 C   0  0  0  0  0  0  0  0  0  0  0  0
   -2.0170   24.9170  -28.9650 C   0  0  0  0  0  0  0  0  0  0  0  0
   -1.2210   25.8910  -29.0230 O   0  0  0  0  0  0  0  0  0  0  0  0
   -3.2980   25.0300  -29.6000 N   0  0  0  0  0  0  0  0  0  0  0  0
   -3.8970   24.0800  -30.4920 C   0  0  0  0  0  0  0  0  0  0  0  0
   -3.2110   22.9320  -30.9110 C   0  0  0  0  0  0  0  0  0  0  0  0
   -3.8120   22.0250  -31.7970 C   0  0  0  0  0  0  0  0  0  0  0  0
   -3.0860   20.7740  -32.2050 C   0  0  0  0  0  0  0  0  0  0  0  0
   -5.1120   22.2740  -32.2730 C   0  0  0  0  0  0  0  0  0  0  0  0
   -5.7170   21.3410  -33.1260 O   0  0  0  0  0  0  0  0  0  0  0  0
   -6.7460   20.4700  -32.7380 C   0  0  0  0  0  0  0  0  0  0  0  0
   -8.0020   20.9380  -32.3080 C   0  0  0  0  0  0  0  0  0  0  0  0
   -8.9970   20.0350  -31.9250 C   0  0  0  0  0  0  0  0  0  0  0  0
   -8.7470   18.6550  -31.9610 C   0  0  0  0  0  0  0  0  0  0  0  0
   -9.7310   17.7450  -31.5820 O   0  0  0  0  0  0  0  0  0  0  0  0
   -7.4970   18.1880  -32.3770 C   0  0  0  0  0  0  0  0  0  0  0  0
   -6.5010   19.0910  -32.7610 C   0  0  0  0  0  0  0  0  0  0  0  0
   -5.7780   23.4650  -31.9110 C   0  0  0  0  0  0  0  0  0  0  0  0
   -7.1470   23.7880  -32.4450 C   0  0  0  0  0  0  0  0  0  0  0  0
   -5.1650   24.3530  -31.0140 C   0  0  0  0  0  0  0  0  0  0  0  0
   -1.6804   23.8981  -27.1202 H   0  0  0  0  0  0  0  0  0  0  0  0
   -2.2838   22.8614  -28.4573 H   0  0  0  0  0  0  0  0  0  0  0  0
   -0.5782   23.4248  -28.4573 H   0  0  0  0  0  0  0  0  0  0  0  0
   -2.1926   22.7403  -30.5421 H   0  0  0  0  0  0  0  0  0  0  0  0
   -2.7675   20.2253  -31.3064 H   0  0  0  0  0  0  0  0  0  0  0  0
   -3.7563   20.1397  -32.8036 H   0  0  0  0  0  0  0  0  0  0  0  0
   -2.2027   21.0413  -32.8036 H   0  0  0  0  0  0  0  0  0  0  0  0
   -8.2010   22.0193  -32.2734 H   0  0  0  0  0  0  0  0  0  0  0  0
   -9.9781   20.4068  -31.5946 H   0  0  0  0  0  0  0  0  0  0  0  0
   -9.9390   17.5650  -30.6070 H   0  0  0  0  0  0  0  0  0  0  0  0
   -7.2962   17.1068  -32.4024 H   0  0  0  0  0  0  0  0  0  0  0  0
   -5.5184   18.7160  -33.0833 H   0  0  0  0  0  0  0  0  0  0  0  0
   -7.8389   23.9512  -31.6056 H   0  0  0  0  0  0  0  0  0  0  0  0
   -7.0953   24.6986  -33.0599 H   0  0  0  0  0  0  0  0  0  0  0  0
   -7.5078   22.9503  -33.0599 H   0  0  0  0  0  0  0  0  0  0  0  0
   -5.6880   25.2744  -30.7181 H   0  0  0  0  0  0  0  0  0  0  0  0
  1  2  1  0
  2  3  2  0
  2  4  1  0
  4  5  1  0
  5  6  2  0
  6  7  1  0
  7  8  1  0
  7  9  2  0
  9 10  1  0
 10 11  1  0
 11 12  2  0
 12 13  1  0
 13 14  2  0
 14 15  1  0
 14 16  1  0
 16 17  2  0
  9 18  1  0
 18 19  1  0
 18 20  2  0
 20  5  1  0
 17 11  1  0
  1 21  1  0
  1 22  1  0
  1 23  1  0
  6 24  1  0
  8 25  1  0
  8 26  1  0
  8 27  1  0
 12 28  1  0
 13 29  1  0
 15 30  1  0
 16 31  1  0
 17 32  1  0
 19 33  1  0
 19 34  1  0
 19 35  1  0
 20 36  1  0
M  CHG  1   4  -1
M  END
>  <UniqueID>  (44) 
39

>  <SMILES>  (44) 
CC(=O)[N-]c1cc(C)c(Oc2ccc(O)cc2)c(C)c1

>  <Energy>  (44) 
46.44289857735995

>  <Genealogy>  (44) 
CC(=O)[N-]c1cc(C)c(Oc2ccc(O)cc2)c(C)c1 (protonated)
CC(=O)[N-]c1cc(C)c(Oc2ccc(O)cc2)c(C)c1 (3D coordinates assigned)
CC(=O)[N-]c1cc(C)c(Oc2ccc(O)cc2)c(C)c1 (optimized conformer: 46.44289857735995 kcal/mol)

>  <smiles>  (44) 
CC(=O)Nc1cc(C)c(Oc2ccc(O)cc2)c(C)c1

>  <score_type>  (44) 
oracle

>  <origin>  (44) 
adgpu

>  <m_score__min__energy>  (44) 
-8.9800000000000004

>  <m_primary>  (44) 
energy

$$$$
44:0
     RDKit          3D

 48 50  0  0  0  0  0  0  0  0999 V2000
   -8.7630   18.4200  -31.6450 C   0  0  0  0  0  0  0  0  0  0  0  0
   -7.4410   18.8920  -32.1760 C   0  0  0  0  0  0  0  0  0  0  0  0
   -7.3720   19.9510  -33.0950 C   0  0  0  0  0  0  0  0  0  0  0  0
   -6.1340   20.3920  -33.5730 C   0  0  0  0  0  0  0  0  0  0  0  0
   -4.9450   19.7990  -33.1130 C   0  0  0  0  0  0  0  0  0  0  0  0
   -3.6530   20.2290  -33.5600 N   0  0  0  0  0  0  0  0  0  0  0  0
   -2.2280   20.3230  -32.5750 S   0  0  0  0  0  0  0  0  0  0  0  0
   -1.1570   21.0560  -33.3360 O   0  0  0  0  0  0  0  0  0  0  0  0
   -1.7490   18.9320  -32.2740 O   0  0  0  0  0  0  0  0  0  0  0  0
   -2.5770   21.1440  -31.0560 C   0  0  0  0  0  0  0  0  0  0  0  0
   -2.8280   20.3980  -29.8970 C   0  0  0  0  0  0  0  0  0  0  0  0
   -3.0890   21.0470  -28.6900 C   0  0  0  0  0  0  0  0  0  0  0  0
   -3.1030   22.4430  -28.6320 C   0  0  0  0  0  0  0  0  0  0  0  0
   -2.8580   23.2090  -29.7870 C   0  0  0  0  0  0  0  0  0  0  0  0
   -2.8790   24.6880  -29.7210 C   0  0  0  0  0  0  0  0  0  0  0  0
   -2.0030   25.3030  -29.0530 O   0  0  0  0  0  0  0  0  0  0  0  0
   -3.8920   25.4290  -30.4100 N   0  0  0  0  0  0  0  0  0  0  0  0
   -5.2810   24.9890  -30.4670 C   0  0  0  0  0  0  0  0  0  0  0  0
   -5.4690   23.9730  -31.5920 C   0  0  0  0  0  0  0  0  0  0  0  0
   -6.8090   23.2880  -31.5000 C   0  0  0  0  0  0  0  0  0  0  0  0
   -7.8380   23.6300  -32.3940 C   0  0  0  0  0  0  0  0  0  0  0  0
   -9.0750   22.9860  -32.3250 C   0  0  0  0  0  0  0  0  0  0  0  0
   -9.2950   21.9930  -31.3640 C   0  0  0  0  0  0  0  0  0  0  0  0
  -10.4980   21.3720  -31.2950 F   0  0  0  0  0  0  0  0  0  0  0  0
   -8.2730   21.6450  -30.4740 C   0  0  0  0  0  0  0  0  0  0  0  0
   -7.0300   22.2780  -30.5500 C   0  0  0  0  0  0  0  0  0  0  0  0
   -2.5960   22.5440  -31.0010 C   0  0  0  0  0  0  0  0  0  0  0  0
   -5.0180   18.7410  -32.2020 C   0  0  0  0  0  0  0  0  0  0  0  0
   -6.2560   18.2910  -31.7320 C   0  0  0  0  0  0  0  0  0  0  0  0
   -8.7404   18.4281  -30.5453 H   0  0  0  0  0  0  0  0  0  0  0  0
   -9.5608   19.0888  -32.0003 H   0  0  0  0  0  0  0  0  0  0  0  0
   -8.9568   17.3971  -32.0003 H   0  0  0  0  0  0  0  0  0  0  0  0
   -8.2965   20.4364  -33.4409 H   0  0  0  0  0  0  0  0  0  0  0  0
   -6.0902   21.2059  -34.3117 H   0  0  0  0  0  0  0  0  0  0  0  0
   -2.8193   19.2988  -29.9388 H   0  0  0  0  0  0  0  0  0  0  0  0
   -3.2843   20.4582  -27.7816 H   0  0  0  0  0  0  0  0  0  0  0  0
   -3.3071   22.9473  -27.6760 H   0  0  0  0  0  0  0  0  0  0  0  0
   -5.5540   24.5237  -29.5084 H   0  0  0  0  0  0  0  0  0  0  0  0
   -5.9248   25.8598  -30.6598 H   0  0  0  0  0  0  0  0  0  0  0  0
   -5.3992   24.4932  -32.5587 H   0  0  0  0  0  0  0  0  0  0  0  0
   -4.6836   23.2082  -31.5011 H   0  0  0  0  0  0  0  0  0  0  0  0
   -7.6681   24.4089  -33.1519 H   0  0  0  0  0  0  0  0  0  0  0  0
   -9.8770   23.2594  -33.0265 H   0  0  0  0  0  0  0  0  0  0  0  0
   -8.4488   20.8709  -29.7125 H   0  0  0  0  0  0  0  0  0  0  0  0
   -6.2221   21.9843  -29.8637 H   0  0  0  0  0  0  0  0  0  0  0  0
   -2.4048   23.1285  -31.9130 H   0  0  0  0  0  0  0  0  0  0  0  0
   -4.0937   18.2583  -31.8518 H   0  0  0  0  0  0  0  0  0  0  0  0
   -6.2994   17.4617  -31.0107 H   0  0  0  0  0  0  0  0  0  0  0  0
  1  2  1  0
  2  3  2  0
  3  4  1  0
  4  5  2  0
  5  6  1  0
  6  7  1  0
  7  8  2  0
  7  9  2  0
  7 10  1  0
 10 11  2  0
 11 12  1  0
 12 13  2  0
 13 14  1  0
 14 15  1  0
 15 16  2  0
 15 17  1  0
 17 18  1  0
 18 19  1  0
 19 20  1  0
 20 21  2  0
 21 22  1  0
 22 23  2  0
 23 24  1  0
 23 25  1  0
 25 26  2  0
 14 27  2  0
  5 28  1  0
 28 29  2  0
 29  2  1  0
 27 10  1  0
 26 20  1  0
  1 30  1  0
  1 31  1  0
  1 32  1  0
  3 33  1  0
  4 34  1  0
 11 35  1  0
 12 36  1  0
 13 37  1  0
 18 38  1  0
 18 39  1  0
 19 40  1  0
 19 41  1  0
 21 42  1  0
 22 43  1  0
 25 44  1  0
 26 45  1  0
 27 46  1  0
 28 47  1  0
 29 48  1  0
M  CHG  2   6  -1  17  -1
M  END
>  <UniqueID>  (45) 
40

>  <SMILES>  (45) 
Cc1ccc([N-]S(=O)(=O)c2cccc(C(=O)[N-]CCc3ccc(F)cc3)c2)cc1

>  <Energy>  (45) 
45.96351965211102

>  <Genealogy>  (45) 
Cc1ccc([N-]S(=O)(=O)c2cccc(C(=O)[N-]CCc3ccc(F)cc3)c2)cc1 (protonated)
Cc1ccc([N-]S(=O)(=O)c2cccc(C(=O)[N-]CCc3ccc(F)cc3)c2)cc1 (3D coordinates assigned)
Cc1ccc([N-]S(=O)(=O)c2cccc(C(=O)[N-]CCc3ccc(F)cc3)c2)cc1 (optimized conformer: 45.96351965211102 kcal/mol)

>  <smiles>  (45) 
Cc1ccc(NS(=O)(=O)c2cccc(C(=O)NCCc3ccc(F)cc3)c2)cc1

>  <score_type>  (45) 
oracle

>  <origin>  (45) 
adgpu

>  <m_score__min__energy>  (45) 
-11.050000000000001

>  <m_primary>  (45) 
energy

$$$$
45:0
     RDKit          3D

 34 36  0  0  0  0  0  0  0  0999 V2000
   -7.1347   17.1301  -33.2409 H   0  0  0  0  0  0  0  0  0  0  0  0
   -7.1040   18.2140  -33.0560 C   0  0  0  0  0  0  0  0  0  0  0  0
   -8.2290   18.8600  -32.6550 N   0  0  0  0  0  0  0  0  0  0  0  0
   -8.2440   20.1960  -32.4150 C   0  0  0  0  0  0  0  0  0  0  0  0
   -9.4280   20.8150  -31.9990 C   0  0  0  0  0  0  0  0  0  0  0  0
  -10.3426   20.2186  -31.8655 H   0  0  0  0  0  0  0  0  0  0  0  0
   -9.4490   22.1910  -31.7530 C   0  0  0  0  0  0  0  0  0  0  0  0
  -10.3806   22.6758  -31.4257 H   0  0  0  0  0  0  0  0  0  0  0  0
   -8.2890   22.9520  -31.9220 C   0  0  0  0  0  0  0  0  0  0  0  0
   -8.3099   24.0343  -31.7263 H   0  0  0  0  0  0  0  0  0  0  0  0
   -7.1020   22.3420  -32.3390 C   0  0  0  0  0  0  0  0  0  0  0  0
   -6.1928   22.9463  -32.4735 H   0  0  0  0  0  0  0  0  0  0  0  0
   -7.0670   20.9580  -32.5870 C   0  0  0  0  0  0  0  0  0  0  0  0
   -5.8930   20.3120  -33.0170 C   0  0  0  0  0  0  0  0  0  0  0  0
   -4.7320   21.0610  -33.2370 O   0  0  0  0  0  0  0  0  0  0  0  0
   -3.8920   21.4550  -32.1590 C   0  0  0  0  0  0  0  0  0  0  0  0
   -4.3871   21.2228  -31.2046 H   0  0  0  0  0  0  0  0  0  0  0  0
   -2.9382   20.9103  -32.2194 H   0  0  0  0  0  0  0  0  0  0  0  0
   -3.7010   22.5366  -32.2194 H   0  0  0  0  0  0  0  0  0  0  0  0
   -5.9010   18.9170  -33.2370 C   0  0  0  0  0  0  0  0  0  0  0  0
   -4.6670   18.1880  -33.6150 C   0  0  0  0  0  0  0  0  0  0  0  0
   -3.5250   18.8420  -33.9650 N   0  0  0  0  0  0  0  0  0  0  0  0
   -2.5250   17.9820  -34.2570 C   0  0  0  0  0  0  0  0  0  0  0  0
   -1.3160   18.3380  -34.5740 N   0  0  0  0  0  0  0  0  0  0  0  0
   -0.8480   19.6840  -34.7620 C   0  0  0  0  0  0  0  0  0  0  0  0
   -1.7070   20.8070  -34.5310 N   0  0  0  0  0  0  0  0  0  0  0  0
   -1.3360   21.7810  -34.5930 H   0  0  0  0  0  0  0  0  0  0  0  0
   -2.7350   20.6830  -34.4130 H   0  0  0  0  0  0  0  0  0  0  0  0
    0.3500   19.8750  -35.2180 N   0  0  0  0  0  0  0  0  0  0  0  0
    0.9790   19.0660  -35.4180 H   0  0  0  0  0  0  0  0  0  0  0  0
    0.7120   20.8400  -35.3930 H   0  0  0  0  0  0  0  0  0  0  0  0
   -2.9990   16.3830  -34.0770 S   0  0  0  0  0  0  0  0  0  0  0  0
   -4.5640   16.7950  -33.6150 C   0  0  0  0  0  0  0  0  0  0  0  0
   -5.3673   16.0890  -33.3574 H   0  0  0  0  0  0  0  0  0  0  0  0
  1  2  1  0
  2  3  2  0
  3  4  1  0
  4  5  2  0
  5  6  1  0
  5  7  1  0
  7  8  1  0
  7  9  2  0
  9 10  1  0
  9 11  1  0
 11 12  1  0
 11 13  2  0
 13 14  1  0
 14 15  1  0
 15 16  1  0
 16 17  1  0
 16 18  1  0
 16 19  1  0
 14 20  2  0
 20 21  1  0
 21 22  1  0
 22 23  1  0
 23 24  2  0
 24 25  1  0
 25 26  1  0
 26 27  1  0
 26 28  1  0
 25 29  2  0
 29 30  1  0
 29 31  1  0
 23 32  1  0
 32 33  1  0
 33 34  1  0
 20  2  1  0
 33 21  2  0
 13  4  1  0
M  CHG  2  22  -1  29   1
M  END
>  <UniqueID>  (46) 
41

>  <SMILES>  (46) 
COc1c(-c2cs/c(=N/C(N)=[NH2+])[n-]2)cnc2ccccc12

>  <Energy>  (46) 
81.34046143651139

>  <Genealogy>  (46) 
COc1c(-c2csc(=NC(N)=[NH2+])[n-]2)cnc2ccccc12 (protonated)
COc1c(-c2cs/c(=N/C(N)=[NH2+])[n-]2)cnc2ccccc12 (cis-trans isomerization)
COc1c(-c2cs/c(=N/C(N)=[NH2+])[n-]2)cnc2ccccc12 (3D coordinates assigned)
COc1c(-c2cs/c(=N/C(N)=[NH2+])[n-]2)cnc2ccccc12 (optimized conformer: 81.34046143651139 kcal/mol)

>  <smiles>  (46) 
COc1c(-c2csc(=NC(=N)N)[nH]2)cnc2ccccc12

>  <score_type>  (46) 
oracle

>  <origin>  (46) 
adgpu

>  <m_score__min__energy>  (46) 
-7.6600000000000001

>  <m_primary>  (46) 
energy

$$$$
46:0
     RDKit          3D

 30 31  0  0  0  0  0  0  0  0999 V2000
   -1.7440   22.6340  -30.0640 C   0  0  0  0  0  0  0  0  0  0  0  0
   -2.0420   23.9820  -29.7170 O   0  0  0  0  0  0  0  0  0  0  0  0
   -2.1310   24.4650  -28.4000 C   0  0  0  0  0  0  0  0  0  0  0  0
   -0.9900   24.8670  -27.6780 C   0  0  0  0  0  0  0  0  0  0  0  0
   -1.1120   25.3410  -26.3690 C   0  0  0  0  0  0  0  0  0  0  0  0
   -2.3680   25.4270  -25.7720 C   0  0  0  0  0  0  0  0  0  0  0  0
   -3.5080   25.0330  -26.4760 C   0  0  0  0  0  0  0  0  0  0  0  0
   -3.4000   24.5370  -27.7880 C   0  0  0  0  0  0  0  0  0  0  0  0
   -4.5740   24.1560  -28.5280 N   0  0  0  0  0  0  0  0  0  0  0  0
   -4.7580   24.4420  -29.9250 C   0  0  0  0  0  0  0  0  0  0  0  0
   -4.0330   25.2990  -30.4980 O   0  0  0  0  0  0  0  0  0  0  0  0
   -5.8150   23.7740  -30.7020 C   0  0  0  0  0  0  0  0  0  0  0  0
   -5.9720   23.7970  -32.0790 C   0  0  0  0  0  0  0  0  0  0  0  0
   -7.0950   23.0420  -32.3420 C   0  0  0  0  0  0  0  0  0  0  0  0
   -7.5530   22.6120  -31.1130 C   0  0  0  0  0  0  0  0  0  0  0  0
   -8.7490   21.7500  -30.8840 C   0  0  0  0  0  0  0  0  0  0  0  0
   -6.7740   23.0610  -30.1560 O   0  0  0  0  0  0  0  0  0  0  0  0
   -1.6127   22.0399  -29.1476 H   0  0  0  0  0  0  0  0  0  0  0  0
   -2.5715   22.2163  -30.6563 H   0  0  0  0  0  0  0  0  0  0  0  0
   -0.8176   22.6041  -30.6563 H   0  0  0  0  0  0  0  0  0  0  0  0
    0.0030   24.8074  -28.1475 H   0  0  0  0  0  0  0  0  0  0  0  0
   -0.2156   25.6465  -25.8094 H   0  0  0  0  0  0  0  0  0  0  0  0
   -2.4619   25.8061  -24.7437 H   0  0  0  0  0  0  0  0  0  0  0  0
   -4.4972   25.1111  -26.0013 H   0  0  0  0  0  0  0  0  0  0  0  0
   -5.3680   23.7280  -28.0030 H   0  0  0  0  0  0  0  0  0  0  0  0
   -5.3323   24.3117  -32.8111 H   0  0  0  0  0  0  0  0  0  0  0  0
   -7.5349   22.8269  -33.3270 H   0  0  0  0  0  0  0  0  0  0  0  0
   -8.9138   21.6312  -29.8029 H   0  0  0  0  0  0  0  0  0  0  0  0
   -9.6326   22.2202  -31.3401 H   0  0  0  0  0  0  0  0  0  0  0  0
   -8.5824   20.7630  -31.3401 H   0  0  0  0  0  0  0  0  0  0  0  0
  1  2  1  0
  2  3  1  0
  3  4  2  0
  4  5  1  0
  5  6  2  0
  6  7  1  0
  7  8  2  0
  8  9  1  0
  9 10  1  0
 10 11  2  0
 10 12  1  0
 12 13  2  0
 13 14  1  0
 14 15  2  0
 15 16  1  0
 15 17  1  0
  8  3  1  0
 17 12  1  0
  1 18  1  0
  1 19  1  0
  1 20  1  0
  4 21  1  0
  5 22  1  0
  6 23  1  0
  7 24  1  0
  9 25  1  0
 13 26  1  0
 14 27  1  0
 16 28  1  0
 16 29  1  0
 16 30  1  0
M  END
>  <UniqueID>  (47) 
42

>  <SMILES>  (47) 
COc1ccccc1NC(=O)c1ccc(C)o1

>  <Energy>  (47) 
57.7448821965101

>  <Genealogy>  (47) 
COc1ccccc1NC(=O)c1ccc(C)o1 (3D coordinates assigned)
COc1ccccc1NC(=O)c1ccc(C)o1 (optimized conformer: 57.7448821965101 kcal/mol)

>  <smiles>  (47) 
COc1ccccc1NC(=O)c1ccc(C)o1

>  <score_type>  (47) 
oracle

>  <origin>  (47) 
adgpu

>  <m_score__min__energy>  (47) 
-6.6399999999999997

>  <m_primary>  (47) 
energy

$$$$
47:0
     RDKit          3D

 62 65  0  0  0  0  0  0  0  0999 V2000
   -3.1540   16.0840  -33.2670 C   0  0  0  0  0  0  0  0  0  0  0  0
   -3.8010   16.9110  -34.2240 O   0  0  0  0  0  0  0  0  0  0  0  0
   -4.6680   17.9330  -33.8320 C   0  0  0  0  0  0  0  0  0  0  0  0
   -4.1770   19.2290  -33.6100 C   0  0  0  0  0  0  0  0  0  0  0  0
   -2.4680   19.5860  -33.8110 Cl  0  0  0  0  0  0  0  0  0  0  0  0
   -5.0480   20.2510  -33.2140 C   0  0  0  0  0  0  0  0  0  0  0  0
   -6.4190   19.9930  -33.0320 C   0  0  0  0  0  0  0  0  0  0  0  0
   -7.3390   21.0730  -32.6070 C   0  0  0  0  0  0  0  0  0  0  0  0
   -8.5570   20.8160  -32.4050 O   0  0  0  0  0  0  0  0  0  0  0  0
   -6.8590   22.4180  -32.4740 N   0  0  0  0  0  0  0  0  0  0  0  0
   -5.9590   22.9100  -31.4690 C   0  0  0  0  0  0  0  0  0  0  0  0
   -4.5630   22.8170  -31.6100 C   0  0  0  0  0  0  0  0  0  0  0  0
   -3.7210   23.3230  -30.6170 C   0  0  0  0  0  0  0  0  0  0  0  0
   -4.2530   23.9460  -29.4740 C   0  0  0  0  0  0  0  0  0  0  0  0
   -3.3560   24.4790  -28.4170 C   0  0  0  0  0  0  0  0  0  0  0  0
   -2.0550   24.9080  -28.7340 C   0  0  0  0  0  0  0  0  0  0  0  0
   -1.2100   25.4080  -27.7390 C   0  0  0  0  0  0  0  0  0  0  0  0
   -1.6540   25.4950  -26.4150 C   0  0  0  0  0  0  0  0  0  0  0  0
   -0.5820   26.1030  -25.1590 S   0  0  0  0  0  0  0  0  0  0  0  0
   -1.4020   26.7010  -24.0500 O   0  0  0  0  0  0  0  0  0  0  0  0
    0.3140   27.1670  -25.7290 O   0  0  0  0  0  0  0  0  0  0  0  0
    0.3690   24.7830  -24.5510 N   0  0  0  0  0  0  0  0  0  0  0  0
   -0.2060   23.5110  -24.9910 C   0  0  0  0  0  0  0  0  0  0  0  0
    0.4580   23.0280  -26.3010 C   0  0  0  0  0  0  0  0  0  0  0  0
    0.0460   21.6800  -26.7660 N   0  0  0  0  0  0  0  0  0  0  0  0
    0.0020   21.5270  -28.2240 C   0  0  0  0  0  0  0  0  0  0  0  0
   -1.4580   21.5300  -28.6490 C   0  0  0  0  0  0  0  0  0  0  0  0
   -2.2540   21.2330  -27.3930 C   0  0  0  0  0  0  0  0  0  0  0  0
   -1.2510   21.2330  -26.2440 C   0  0  0  0  0  0  0  0  0  0  0  0
   -2.9450   25.0610  -26.0890 C   0  0  0  0  0  0  0  0  0  0  0  0
   -3.7910   24.5600  -27.0820 C   0  0  0  0  0  0  0  0  0  0  0  0
   -5.6500   24.0610  -29.3530 C   0  0  0  0  0  0  0  0  0  0  0  0
   -6.4910   23.5530  -30.3480 C   0  0  0  0  0  0  0  0  0  0  0  0
   -6.9000   18.6890  -33.2500 C   0  0  0  0  0  0  0  0  0  0  0  0
   -6.0310   17.6650  -33.6430 C   0  0  0  0  0  0  0  0  0  0  0  0
   -6.6670   16.0470  -33.8930 Cl  0  0  0  0  0  0  0  0  0  0  0  0
   -3.4175   16.4208  -32.2535 H   0  0  0  0  0  0  0  0  0  0  0  0
   -3.4792   15.0420  -33.4033 H   0  0  0  0  0  0  0  0  0  0  0  0
   -2.0644   16.1489  -33.4033 H   0  0  0  0  0  0  0  0  0  0  0  0
   -4.6569   21.2649  -33.0436 H   0  0  0  0  0  0  0  0  0  0  0  0
   -4.1327   22.3443  -32.5052 H   0  0  0  0  0  0  0  0  0  0  0  0
   -2.6305   23.2332  -30.7302 H   0  0  0  0  0  0  0  0  0  0  0  0
   -1.6993   24.8497  -29.7733 H   0  0  0  0  0  0  0  0  0  0  0  0
   -0.1919   25.7344  -27.9980 H   0  0  0  0  0  0  0  0  0  0  0  0
    0.3160   24.8260  -23.5070 H   0  0  0  0  0  0  0  0  0  0  0  0
   -0.0489   22.7548  -24.2077 H   0  0  0  0  0  0  0  0  0  0  0  0
   -1.2807   23.6566  -25.1751 H   0  0  0  0  0  0  0  0  0  0  0  0
    0.2104   23.7502  -27.0929 H   0  0  0  0  0  0  0  0  0  0  0  0
    1.5346   22.9578  -26.0863 H   0  0  0  0  0  0  0  0  0  0  0  0
    0.5329   22.3624  -28.7039 H   0  0  0  0  0  0  0  0  0  0  0  0
    0.4877   20.5874  -28.5261 H   0  0  0  0  0  0  0  0  0  0  0  0
   -1.7366   22.5134  -29.0556 H   0  0  0  0  0  0  0  0  0  0  0  0
   -1.6521   20.7871  -29.4367 H   0  0  0  0  0  0  0  0  0  0  0  0
   -3.0173   22.0087  -27.2329 H   0  0  0  0  0  0  0  0  0  0  0  0
   -2.7771   20.2683  -27.4686 H   0  0  0  0  0  0  0  0  0  0  0  0
   -1.5904   21.9187  -25.4537 H   0  0  0  0  0  0  0  0  0  0  0  0
   -1.1611   20.2225  -25.8187 H   0  0  0  0  0  0  0  0  0  0  0  0
   -3.2944   25.1147  -25.0473 H   0  0  0  0  0  0  0  0  0  0  0  0
   -4.8052   24.2263  -26.8174 H   0  0  0  0  0  0  0  0  0  0  0  0
   -6.0834   24.5536  -28.4701 H   0  0  0  0  0  0  0  0  0  0  0  0
   -7.5811   23.6605  -30.2475 H   0  0  0  0  0  0  0  0  0  0  0  0
   -7.9693   18.4723  -33.1102 H   0  0  0  0  0  0  0  0  0  0  0  0
  1  2  1  0
  2  3  1  0
  3  4  2  0
  4  5  1  0
  4  6  1  0
  6  7  2  0
  7  8  1  0
  8  9  2  0
  8 10  1  0
 10 11  1  0
 11 12  2  0
 12 13  1  0
 13 14  2  0
 14 15  1  0
 15 16  2  0
 16 17  1  0
 17 18  2  0
 18 19  1  0
 19 20  2  0
 19 21  2  0
 19 22  1  0
 22 23  1  0
 23 24  1  0
 24 25  1  0
 25 26  1  0
 26 27  1  0
 27 28  1  0
 28 29  1  0
 18 30  1  0
 30 31  2  0
 14 32  1  0
 32 33  2  0
  7 34  1  0
 34 35  2  0
 35 36  1  0
 35  3  1  0
 33 11  1  0
 31 15  1  0
 29 25  1  0
  1 37  1  0
  1 38  1  0
  1 39  1  0
  6 40  1  0
 12 41  1  0
 13 42  1  0
 16 43  1  0
 17 44  1  0
 22 45  1  0
 23 46  1  0
 23 47  1  0
 24 48  1  0
 24 49  1  0
 26 50  1  0
 26 51  1  0
 27 52  1  0
 27 53  1  0
 28 54  1  0
 28 55  1  0
 29 56  1  0
 29 57  1  0
 30 58  1  0
 31 59  1  0
 32 60  1  0
 33 61  1  0
 34 62  1  0
M  CHG  1  10  -1
M  END
>  <UniqueID>  (48) 
43

>  <SMILES>  (48) 
COc1c(Cl)cc(C(=O)[N-]c2ccc(-c3ccc(S(=O)(=O)NCCN4CCCC4)cc3)cc2)cc1Cl

>  <Energy>  (48) 
84.41015725516267

>  <Genealogy>  (48) 
COc1c(Cl)cc(C(=O)[N-]c2ccc(-c3ccc(S(=O)(=O)NCCN4CCCC4)cc3)cc2)cc1Cl (protonated)
COc1c(Cl)cc(C(=O)[N-]c2ccc(-c3ccc(S(=O)(=O)NCCN4CCCC4)cc3)cc2)cc1Cl (3D coordinates assigned)
COc1c(Cl)cc(C(=O)[N-]c2ccc(-c3ccc(S(=O)(=O)NCCN4CCCC4)cc3)cc2)cc1Cl (nonaromatic ring conformer: 84.41015725516267 kcal/mol)

>  <smiles>  (48) 
COc1c(Cl)cc(C(=O)Nc2ccc(-c3ccc(S(=O)(=O)NCCN4CCCC4)cc3)cc2)cc1Cl

>  <score_type>  (48) 
oracle

>  <origin>  (48) 
adgpu

>  <m_score__min__energy>  (48) 
-10.029999999999999

>  <m_primary>  (48) 
energy

$$$$
