0:0
     RDKit          3D

 48 50  0  0  0  0  0  0  0  0999 V2000
   -0.9310   21.8900  -27.5210 C   0  0  0  0  0  0  0  0  0  0  0  0
   -2.1410   22.0520  -28.3410 N   0  0  0  0  0  0  0  0  0  0  0  0
   -3.3380   22.1840  -27.4810 C   0  0  0  0  0  0  0  0  0  0  0  0
   -4.4760   22.8950  -28.2210 C   0  0  0  0  0  0  0  0  0  0  0  0
   -4.1010   24.2870  -28.5670 N   0  0  0  0  0  0  0  0  0  0  0  0
   -5.0740   24.8490  -29.9070 S   0  0  0  0  0  0  0  0  0  0  0  0
   -4.2380   25.6810  -30.8390 O   0  0  0  0  0  0  0  0  0  0  0  0
   -6.2050   25.6960  -29.3940 O   0  0  0  0  0  0  0  0  0  0  0  0
   -5.7460   23.4720  -30.7760 C   0  0  0  0  0  0  0  0  0  0  0  0
   -4.9460   22.7150  -31.6420 C   0  0  0  0  0  0  0  0  0  0  0  0
   -5.4800   21.6080  -32.3060 C   0  0  0  0  0  0  0  0  0  0  0  0
   -6.8180   21.2440  -32.1080 C   0  0  0  0  0  0  0  0  0  0  0  0
   -7.4690   19.8360  -32.9420 S   0  0  0  0  0  0  0  0  0  0  0  0
   -6.8000   19.7270  -34.2840 O   0  0  0  0  0  0  0  0  0  0  0  0
   -8.9510   19.9950  -33.1460 O   0  0  0  0  0  0  0  0  0  0  0  0
   -7.1470   18.3960  -32.0000 N   0  0  0  0  0  0  0  0  0  0  0  0
   -7.3600   17.1910  -32.8090 C   0  0  0  0  0  0  0  0  0  0  0  0
   -6.0260   16.7850  -33.4170 C   0  0  0  0  0  0  0  0  0  0  0  0
   -4.9730   17.5400  -32.6280 C   0  0  0  0  0  0  0  0  0  0  0  0
   -5.7380   18.3510  -31.5930 C   0  0  0  0  0  0  0  0  0  0  0  0
   -7.6190   21.9980  -31.2390 C   0  0  0  0  0  0  0  0  0  0  0  0
   -7.0840   23.1050  -30.5740 C   0  0  0  0  0  0  0  0  0  0  0  0
   -2.6530   24.4580  -28.8530 C   0  0  0  0  0  0  0  0  0  0  0  0
   -1.9880   23.1520  -29.3250 C   0  0  0  0  0  0  0  0  0  0  0  0
   -1.2025   21.9263  -26.4556 H   0  0  0  0  0  0  0  0  0  0  0  0
   -0.4619   20.9210  -27.7470 H   0  0  0  0  0  0  0  0  0  0  0  0
   -0.2236   22.7014  -27.7470 H   0  0  0  0  0  0  0  0  0  0  0  0
   -3.6765   21.1814  -27.1807 H   0  0  0  0  0  0  0  0  0  0  0  0
   -3.0686   22.7828  -26.5984 H   0  0  0  0  0  0  0  0  0  0  0  0
   -4.7028   22.3438  -29.1455 H   0  0  0  0  0  0  0  0  0  0  0  0
   -5.3563   22.9242  -27.5620 H   0  0  0  0  0  0  0  0  0  0  0  0
   -4.3410   24.8980  -27.7510 H   0  0  0  0  0  0  0  0  0  0  0  0
   -3.8935   22.9934  -31.7996 H   0  0  0  0  0  0  0  0  0  0  0  0
   -4.8473   21.0199  -32.9870 H   0  0  0  0  0  0  0  0  0  0  0  0
   -7.7423   16.3786  -32.1735 H   0  0  0  0  0  0  0  0  0  0  0  0
   -8.0943   17.3913  -33.6031 H   0  0  0  0  0  0  0  0  0  0  0  0
   -5.8740   15.6999  -33.3202 H   0  0  0  0  0  0  0  0  0  0  0  0
   -5.9785   17.0213  -34.4903 H   0  0  0  0  0  0  0  0  0  0  0  0
   -4.2866   16.8369  -32.1336 H   0  0  0  0  0  0  0  0  0  0  0  0
   -4.3621   18.1837  -33.2780 H   0  0  0  0  0  0  0  0  0  0  0  0
   -5.6501   17.8736  -30.6059 H   0  0  0  0  0  0  0  0  0  0  0  0
   -5.3275   19.3694  -31.5273 H   0  0  0  0  0  0  0  0  0  0  0  0
   -8.6708   21.7179  -31.0801 H   0  0  0  0  0  0  0  0  0  0  0  0
   -7.7153   23.6906  -29.8894 H   0  0  0  0  0  0  0  0  0  0  0  0
   -2.5359   25.2180  -29.6396 H   0  0  0  0  0  0  0  0  0  0  0  0
   -2.1612   24.7651  -27.9182 H   0  0  0  0  0  0  0  0  0  0  0  0
   -2.4498   22.8435  -30.2745 H   0  0  0  0  0  0  0  0  0  0  0  0
   -0.9122   23.3476  -29.4450 H   0  0  0  0  0  0  0  0  0  0  0  0
  1  2  1  0
  2  3  1  0
  3  4  1  0
  4  5  1  0
  5  6  1  0
  6  7  2  0
  6  8  2  0
  6  9  1  0
  9 10  2  0
 10 11  1  0
 11 12  2  0
 12 13  1  0
 13 14  2  0
 13 15  2  0
 13 16  1  0
 16 17  1  0
 17 18  1  0
 18 19  1  0
 19 20  1  0
 12 21  1  0
 21 22  2  0
  5 23  1  0
 23 24  1  0
 24  2  1  0
 22  9  1  0
 20 16  1  0
  1 25  1  0
  1 26  1  0
  1 27  1  0
  3 28  1  0
  3 29  1  0
  4 30  1  0
  4 31  1  0
  5 32  1  0
 10 33  1  0
 11 34  1  0
 17 35  1  0
 17 36  1  0
 18 37  1  0
 18 38  1  0
 19 39  1  0
 19 40  1  0
 20 41  1  0
 20 42  1  0
 21 43  1  0
 22 44  1  0
 23 45  1  0
 23 46  1  0
 24 47  1  0
 24 48  1  0
M  CHG  1   5   1
M  END
>  <UniqueID>  (1) 
1

>  <SMILES>  (1) 
CN1CC[NH+](S(=O)(=O)c2ccc(S(=O)(=O)N3CCCC3)cc2)CC1

>  <Energy>  (1) 
58.532352392223636

>  <Genealogy>  (1) 
CN1CC[NH+](S(=O)(=O)c2ccc(S(=O)(=O)N3CCCC3)cc2)CC1 (protonated)
CN1CC[NH+](S(=O)(=O)c2ccc(S(=O)(=O)N3CCCC3)cc2)CC1 (3D coordinates assigned)
CN1CC[NH+](S(=O)(=O)c2ccc(S(=O)(=O)N3CCCC3)cc2)CC1 (nonaromatic ring conformer: 58.532352392223636 kcal/mol)

>  <smiles>  (1) 
CN1CCN(S(=O)(=O)c2ccc(S(=O)(=O)N3CCCC3)cc2)CC1

>  <score_type>  (1) 
oracle

>  <origin>  (1) 
adgpu

>  <m_score__min__energy>  (1) 
-9.0999999999999996

>  <m_primary>  (1) 
energy

$$$$
1:0
     RDKit          3D

 60 63  0  0  0  0  0  0  0  0999 V2000
    1.4640   19.1120  -29.3040 C   0  0  0  0  0  0  0  0  0  0  0  0
    1.1990   20.1580  -28.2290 C   0  0  0  0  0  0  0  0  0  0  0  0
   -0.1580   19.9500  -27.5970 C   0  0  0  0  0  0  0  0  0  0  0  0
   -0.5780   18.6310  -27.3400 C   0  0  0  0  0  0  0  0  0  0  0  0
   -1.8680   18.3740  -26.8680 C   0  0  0  0  0  0  0  0  0  0  0  0
   -2.7590   19.4260  -26.6600 C   0  0  0  0  0  0  0  0  0  0  0  0
   -2.3640   20.7400  -26.9190 C   0  0  0  0  0  0  0  0  0  0  0  0
   -1.0660   21.0180  -27.3690 C   0  0  0  0  0  0  0  0  0  0  0  0
   -0.7090   22.3880  -27.6040 N   0  0  0  0  0  0  0  0  0  0  0  0
   -0.5530   22.9910  -28.8970 C   0  0  0  0  0  0  0  0  0  0  0  0
    0.1970   23.9980  -29.0110 O   0  0  0  0  0  0  0  0  0  0  0  0
   -1.2840   22.4930  -30.0820 C   0  0  0  0  0  0  0  0  0  0  0  0
   -0.5960   21.8400  -31.1100 C   0  0  0  0  0  0  0  0  0  0  0  0
   -1.2740   21.4530  -32.2640 C   0  0  0  0  0  0  0  0  0  0  0  0
   -2.6460   21.6970  -32.3740 C   0  0  0  0  0  0  0  0  0  0  0  0
   -3.2420   21.3810  -33.4410 O   0  0  0  0  0  0  0  0  0  0  0  0
   -3.3300   22.2740  -31.3350 N   0  0  0  0  0  0  0  0  0  0  0  0
   -4.7490   22.5120  -31.4270 C   0  0  0  0  0  0  0  0  0  0  0  0
   -5.6080   21.4370  -31.7140 C   0  0  0  0  0  0  0  0  0  0  0  0
   -6.9960   21.6270  -31.7630 C   0  0  0  0  0  0  0  0  0  0  0  0
   -8.0630   20.2680  -32.1240 S   0  0  0  0  0  0  0  0  0  0  0  0
   -8.7150   19.7980  -30.8520 O   0  0  0  0  0  0  0  0  0  0  0  0
   -9.1480   20.7300  -33.0560 O   0  0  0  0  0  0  0  0  0  0  0  0
   -7.1970   18.9370  -32.8490 N   0  0  0  0  0  0  0  0  0  0  0  0
   -6.2680   19.4220  -33.8840 C   0  0  0  0  0  0  0  0  0  0  0  0
   -5.7130   18.2380  -34.6980 C   0  0  0  0  0  0  0  0  0  0  0  0
   -5.7590   16.9140  -33.9140 C   0  0  0  0  0  0  0  0  0  0  0  0
   -5.4880   17.1450  -32.4230 C   0  0  0  0  0  0  0  0  0  0  0  0
   -6.4700   18.1750  -31.8130 C   0  0  0  0  0  0  0  0  0  0  0  0
   -7.5270   22.9010  -31.5270 C   0  0  0  0  0  0  0  0  0  0  0  0
   -6.6780   23.9800  -31.2670 C   0  0  0  0  0  0  0  0  0  0  0  0
   -5.2930   23.8000  -31.2330 C   0  0  0  0  0  0  0  0  0  0  0  0
   -4.4810   24.9170  -31.0250 O   0  0  0  0  0  0  0  0  0  0  0  0
   -2.6690   22.6760  -30.2070 C   0  0  0  0  0  0  0  0  0  0  0  0
    1.7076   18.1507  -28.8281 H   0  0  0  0  0  0  0  0  0  0  0  0
    0.5673   18.9944  -29.9301 H   0  0  0  0  0  0  0  0  0  0  0  0
    2.3086   19.4355  -29.9301 H   0  0  0  0  0  0  0  0  0  0  0  0
    1.9738   20.0803  -27.4521 H   0  0  0  0  0  0  0  0  0  0  0  0
    1.2207   21.1542  -28.6950 H   0  0  0  0  0  0  0  0  0  0  0  0
    0.1158   17.7949  -27.5123 H   0  0  0  0  0  0  0  0  0  0  0  0
   -2.1809   17.3401  -26.6603 H   0  0  0  0  0  0  0  0  0  0  0  0
   -3.7748   19.2205  -26.2913 H   0  0  0  0  0  0  0  0  0  0  0  0
   -3.0773   21.5637  -26.7686 H   0  0  0  0  0  0  0  0  0  0  0  0
    0.4793   21.6322  -31.0074 H   0  0  0  0  0  0  0  0  0  0  0  0
   -0.7327   20.9582  -33.0839 H   0  0  0  0  0  0  0  0  0  0  0  0
   -5.1874   20.4381  -31.9018 H   0  0  0  0  0  0  0  0  0  0  0  0
   -6.8014   20.1082  -34.5583 H   0  0  0  0  0  0  0  0  0  0  0  0
   -5.4321   19.9468  -33.3984 H   0  0  0  0  0  0  0  0  0  0  0  0
   -6.3121   18.1272  -35.6138 H   0  0  0  0  0  0  0  0  0  0  0  0
   -4.6596   18.4544  -34.9292 H   0  0  0  0  0  0  0  0  0  0  0  0
   -6.7544   16.4611  -34.0321 H   0  0  0  0  0  0  0  0  0  0  0  0
   -4.9804   16.2460  -34.3109 H   0  0  0  0  0  0  0  0  0  0  0  0
   -5.5971   16.1895  -31.8890 H   0  0  0  0  0  0  0  0  0  0  0  0
   -4.4675   17.5420  -32.3184 H   0  0  0  0  0  0  0  0  0  0  0  0
   -7.2010   17.6403  -31.1887 H   0  0  0  0  0  0  0  0  0  0  0  0
   -5.8820   18.8903  -31.2191 H   0  0  0  0  0  0  0  0  0  0  0  0
   -8.6163   23.0530  -31.5463 H   0  0  0  0  0  0  0  0  0  0  0  0
   -7.1033   24.9785  -31.0878 H   0  0  0  0  0  0  0  0  0  0  0  0
   -3.4940   24.9240  -31.2500 H   0  0  0  0  0  0  0  0  0  0  0  0
   -3.2306   23.1487  -29.3877 H   0  0  0  0  0  0  0  0  0  0  0  0
  1  2  1  0
  2  3  1  0
  3  4  2  0
  4  5  1  0
  5  6  2  0
  6  7  1  0
  7  8  2  0
  8  9  1  0
  9 10  1  0
 10 11  2  0
 10 12  1  0
 12 13  1  0
 13 14  2  0
 14 15  1  0
 15 16  2  0
 15 17  1  0
 17 18  1  0
 18 19  2  0
 19 20  1  0
 20 21  1  0
 21 22  2  0
 21 23  2  0
 21 24  1  0
 24 25  1  0
 25 26  1  0
 26 27  1  0
 27 28  1  0
 28 29  1  0
 20 30  2  0
 30 31  1  0
 31 32  2  0
 32 33  1  0
 17 34  1  0
  8  3  1  0
 34 12  2  0
 32 18  1  0
 29 24  1  0
  1 35  1  0
  1 36  1  0
  1 37  1  0
  2 38  1  0
  2 39  1  0
  4 40  1  0
  5 41  1  0
  6 42  1  0
  7 43  1  0
 13 44  1  0
 14 45  1  0
 19 46  1  0
 25 47  1  0
 25 48  1  0
 26 49  1  0
 26 50  1  0
 27 51  1  0
 27 52  1  0
 28 53  1  0
 28 54  1  0
 29 55  1  0
 29 56  1  0
 30 57  1  0
 31 58  1  0
 33 59  1  0
 34 60  1  0
M  CHG  1   9  -1
M  END
>  <UniqueID>  (2) 
2

>  <SMILES>  (2) 
CCc1ccccc1[N-]C(=O)c1ccc(=O)n(-c2cc(S(=O)(=O)N3CCCCC3)ccc2O)c1

>  <Energy>  (2) 
80.46171717540285

>  <Genealogy>  (2) 
CCc1ccccc1[N-]C(=O)c1ccc(=O)n(-c2cc(S(=O)(=O)N3CCCCC3)ccc2O)c1 (protonated)
CCc1ccccc1[N-]C(=O)c1ccc(=O)n(-c2cc(S(=O)(=O)N3CCCCC3)ccc2O)c1 (3D coordinates assigned)
CCc1ccccc1[N-]C(=O)c1ccc(=O)n(-c2cc(S(=O)(=O)N3CCCCC3)ccc2O)c1 (nonaromatic ring conformer: 80.46171717540285 kcal/mol)

>  <smiles>  (2) 
CCc1ccccc1NC(=O)c1ccc(=O)n(-c2cc(S(=O)(=O)N3CCCCC3)ccc2O)c1

>  <score_type>  (2) 
oracle

>  <origin>  (2) 
adgpu

>  <m_score__min__energy>  (2) 
-11.65

>  <m_primary>  (2) 
energy

$$$$
2:0
     RDKit          3D

 52 54  0  0  0  0  0  0  0  0999 V2000
   -4.6980   24.7265  -28.5588 H   0  0  0  0  0  0  0  0  0  0  0  0
   -4.5260   24.9140  -29.6290 C   0  0  0  0  0  0  0  0  0  0  0  0
   -3.3200   24.9200  -30.1050 N   0  0  0  0  0  0  0  0  0  0  0  0
   -2.1480   24.6850  -29.3170 C   0  0  0  0  0  0  0  0  0  0  0  0
   -1.4080   25.6590  -29.0140 O   0  0  0  0  0  0  0  0  0  0  0  0
   -1.8110   23.3610  -28.8780 N   0  0  0  0  0  0  0  0  0  0  0  0
   -2.7970   22.3160  -28.6290 C   0  0  0  0  0  0  0  0  0  0  0  0
   -2.3599   21.5566  -27.9640 H   0  0  0  0  0  0  0  0  0  0  0  0
   -3.6829   22.7669  -28.1580 H   0  0  0  0  0  0  0  0  0  0  0  0
   -3.2100   21.6650  -29.9200 C   0  0  0  0  0  0  0  0  0  0  0  0
   -4.4220   22.0090  -30.5400 C   0  0  0  0  0  0  0  0  0  0  0  0
   -5.0700   22.7744  -30.0880 H   0  0  0  0  0  0  0  0  0  0  0  0
   -4.8090   21.3840  -31.7280 C   0  0  0  0  0  0  0  0  0  0  0  0
   -5.7618   21.6579  -32.2046 H   0  0  0  0  0  0  0  0  0  0  0  0
   -3.9880   20.4070  -32.3180 C   0  0  0  0  0  0  0  0  0  0  0  0
   -4.4060   19.7120  -33.5990 C   0  0  2  0  0  0  0  0  0  0  0  0
   -4.7663   20.5107  -34.2640 H   0  0  0  0  0  0  0  0  0  0  0  0
   -5.4480   18.7170  -33.3560 N   0  0  0  0  0  0  0  0  0  0  0  0
   -6.7370   19.0040  -32.7630 C   0  0  0  0  0  0  0  0  0  0  0  0
   -7.4750   18.0000  -32.1110 C   0  0  0  0  0  0  0  0  0  0  0  0
   -7.0750   16.9776  -32.0434 H   0  0  0  0  0  0  0  0  0  0  0  0
   -8.7160   18.3040  -31.5500 C   0  0  0  0  0  0  0  0  0  0  0  0
   -9.2952   17.5188  -31.0421 H   0  0  0  0  0  0  0  0  0  0  0  0
   -9.2110   19.5660  -31.6290 N   0  0  0  0  0  0  0  0  0  0  0  0
   -8.5260   20.5650  -32.2510 C   0  0  0  0  0  0  0  0  0  0  0  0
   -9.0540   21.8570  -32.3220 O   0  0  0  0  0  0  0  0  0  0  0  0
   -8.3210   23.0120  -31.9340 C   0  0  0  0  0  0  0  0  0  0  0  0
   -8.2836   23.0709  -30.8362 H   0  0  0  0  0  0  0  0  0  0  0  0
   -7.2978   22.9480  -32.3328 H   0  0  0  0  0  0  0  0  0  0  0  0
   -8.8145   23.9106  -32.3328 H   0  0  0  0  0  0  0  0  0  0  0  0
   -7.2810   20.3010  -32.8260 C   0  0  0  0  0  0  0  0  0  0  0  0
   -6.7253   21.1066  -33.3282 H   0  0  0  0  0  0  0  0  0  0  0  0
   -5.0860   17.4070  -33.8810 C   0  0  0  0  0  0  0  0  0  0  0  0
   -5.8920   17.0142  -34.5183 H   0  0  0  0  0  0  0  0  0  0  0  0
   -4.9260   16.6783  -33.0726 H   0  0  0  0  0  0  0  0  0  0  0  0
   -3.8210   17.6200  -34.6990 C   0  0  0  0  0  0  0  0  0  0  0  0
   -4.0621   17.6678  -35.7712 H   0  0  0  0  0  0  0  0  0  0  0  0
   -3.1079   16.7936  -34.5628 H   0  0  0  0  0  0  0  0  0  0  0  0
   -3.2370   18.9470  -34.2270 C   0  0  0  0  0  0  0  0  0  0  0  0
   -2.8234   19.5086  -35.0776 H   0  0  0  0  0  0  0  0  0  0  0  0
   -2.4162   18.7981  -33.5100 H   0  0  0  0  0  0  0  0  0  0  0  0
   -2.7840   20.0540  -31.6890 C   0  0  0  0  0  0  0  0  0  0  0  0
   -2.1419   19.2791  -32.1331 H   0  0  0  0  0  0  0  0  0  0  0  0
   -2.3960   20.6810  -30.5020 C   0  0  0  0  0  0  0  0  0  0  0  0
   -1.4470   20.4017  -30.0210 H   0  0  0  0  0  0  0  0  0  0  0  0
   -5.6830   25.1640  -30.5460 C   0  0  0  0  0  0  0  0  0  0  0  0
   -5.7663   24.3256  -31.2532 H   0  0  0  0  0  0  0  0  0  0  0  0
   -5.5031   26.1093  -31.0789 H   0  0  0  0  0  0  0  0  0  0  0  0
   -6.9910   25.2920  -29.7730 C   0  0  0  0  0  0  0  0  0  0  0  0
   -6.7823   25.2716  -28.6932 H   0  0  0  0  0  0  0  0  0  0  0  0
   -7.4797   26.2423  -30.0341 H   0  0  0  0  0  0  0  0  0  0  0  0
   -7.6547   24.4545  -30.0341 H   0  0  0  0  0  0  0  0  0  0  0  0
  1  2  1  0
  2  3  2  0
  3  4  1  0
  4  5  2  0
  4  6  1  0
  6  7  1  0
  7  8  1  0
  7  9  1  0
  7 10  1  0
 10 11  2  0
 11 12  1  0
 11 13  1  0
 13 14  1  0
 13 15  2  0
 15 16  1  0
 16 17  1  6
 16 18  1  0
 18 19  1  0
 19 20  2  0
 20 21  1  0
 20 22  1  0
 22 23  1  0
 22 24  2  0
 24 25  1  0
 25 26  1  0
 26 27  1  0
 27 28  1  0
 27 29  1  0
 27 30  1  0
 25 31  2  0
 31 32  1  0
 18 33  1  0
 33 34  1  0
 33 35  1  0
 33 36  1  0
 36 37  1  0
 36 38  1  0
 36 39  1  0
 39 40  1  0
 39 41  1  0
 15 42  1  0
 42 43  1  0
 42 44  2  0
 44 45  1  0
  2 46  1  0
 46 47  1  0
 46 48  1  0
 46 49  1  0
 49 50  1  0
 49 51  1  0
 49 52  1  0
 44 10  1  0
 39 16  1  0
 31 19  1  0
M  CHG  1   6  -1
M  END
>  <UniqueID>  (3) 
3

>  <SMILES>  (3) 
CC/C=N/C(=O)[N-]Cc1ccc([C@H]2CCCN2c2ccnc(OC)c2)cc1

>  <Energy>  (3) 
45.94559747523196

>  <Genealogy>  (3) 
CCC=NC(=O)[N-]Cc1ccc(C2CCCN2c2ccnc(OC)c2)cc1 (protonated)
CCC=NC(=O)[N-]Cc1ccc([C@H]2CCCN2c2ccnc(OC)c2)cc1 (chirality)
CC/C=N/C(=O)[N-]Cc1ccc([C@H]2CCCN2c2ccnc(OC)c2)cc1 (cis-trans isomerization)
CC/C=N/C(=O)[N-]Cc1ccc([C@H]2CCCN2c2ccnc(OC)c2)cc1 (3D coordinates assigned)
CC/C=N/C(=O)[N-]Cc1ccc([C@H]2CCCN2c2ccnc(OC)c2)cc1 (nonaromatic ring conformer: 45.94559747523196 kcal/mol)

>  <smiles>  (3) 
CCC=NC(=O)NCc1ccc(C2CCCN2c2ccnc(OC)c2)cc1

>  <score_type>  (3) 
oracle

>  <origin>  (3) 
adgpu

>  <m_score__min__energy>  (3) 
-9.4900000000000002

>  <m_primary>  (3) 
energy

$$$$
3:0
     RDKit          3D

 58 61  0  0  0  0  0  0  0  0999 V2000
   -3.7130   23.0080  -32.2420 O   0  0  0  0  0  0  0  0  0  0  0  0
   -4.6930   23.4630  -31.1970 S   0  0  0  0  0  0  0  0  0  0  0  0
   -5.1300   24.8640  -31.5300 O   0  0  0  0  0  0  0  0  0  0  0  0
   -6.0870   22.3850  -31.2120 C   0  0  0  0  0  0  0  0  0  0  0  0
   -7.3360   22.8510  -30.7980 C   0  0  0  0  0  0  0  0  0  0  0  0
   -8.4450   22.0070  -30.8400 C   0  0  0  0  0  0  0  0  0  0  0  0
   -8.3240   20.6920  -31.3060 C   0  0  0  0  0  0  0  0  0  0  0  0
   -9.4780   19.9040  -31.3180 O   0  0  0  0  0  0  0  0  0  0  0  0
   -7.0650   20.2100  -31.7450 C   0  0  0  0  0  0  0  0  0  0  0  0
   -6.9010   18.5500  -32.3730 S   0  0  0  0  0  0  0  0  0  0  0  0
   -8.2820   18.0060  -32.6180 O   0  0  0  0  0  0  0  0  0  0  0  0
   -6.2340   17.7140  -31.3160 O   0  0  0  0  0  0  0  0  0  0  0  0
   -5.9910   18.3630  -33.8560 N   0  0  0  0  0  0  0  0  0  0  0  0
   -5.8450   16.9650  -34.2640 C   0  0  0  0  0  0  0  0  0  0  0  0
   -4.5070   16.8520  -34.9700 C   0  0  0  0  0  0  0  0  0  0  0  0
   -3.6730   18.0030  -34.4410 C   0  0  0  0  0  0  0  0  0  0  0  0
   -4.6600   18.9760  -33.8060 C   0  0  0  0  0  0  0  0  0  0  0  0
   -5.9570   21.0730  -31.6830 C   0  0  0  0  0  0  0  0  0  0  0  0
   -3.9360   23.4230  -29.6250 N   0  0  0  0  0  0  0  0  0  0  0  0
   -3.7070   22.0250  -29.2100 C   0  0  0  0  0  0  0  0  0  0  0  0
   -3.4540   21.9030  -27.6900 C   0  0  0  0  0  0  0  0  0  0  0  0
   -3.0190   23.1810  -27.0910 N   0  0  0  0  0  0  0  0  0  0  0  0
   -1.6600   23.5700  -27.5290 C   0  0  0  0  0  0  0  0  0  0  0  0
   -1.2600   24.8720  -26.8810 C   0  0  0  0  0  0  0  0  0  0  0  0
   -0.8900   24.9040  -25.5250 C   0  0  0  0  0  0  0  0  0  0  0  0
   -0.5070   26.1060  -24.9260 C   0  0  0  0  0  0  0  0  0  0  0  0
   -0.4870   27.2860  -25.6730 C   0  0  0  0  0  0  0  0  0  0  0  0
   -0.8500   27.2660  -27.0210 C   0  0  0  0  0  0  0  0  0  0  0  0
   -1.2360   26.0650  -27.6290 C   0  0  0  0  0  0  0  0  0  0  0  0
   -1.5920   26.0660  -28.9740 O   0  0  0  0  0  0  0  0  0  0  0  0
   -4.0220   24.2540  -27.3030 C   0  0  0  0  0  0  0  0  0  0  0  0
   -4.7710   24.1290  -28.6460 C   0  0  0  0  0  0  0  0  0  0  0  0
   -7.4454   23.8848  -30.4384 H   0  0  0  0  0  0  0  0  0  0  0  0
   -9.4246   22.3777  -30.5038 H   0  0  0  0  0  0  0  0  0  0  0  0
   -9.4950   18.9380  -31.6130 H   0  0  0  0  0  0  0  0  0  0  0  0
   -5.8640   16.3089  -33.3813 H   0  0  0  0  0  0  0  0  0  0  0  0
   -6.6680   16.6592  -34.9266 H   0  0  0  0  0  0  0  0  0  0  0  0
   -4.0281   15.8900  -34.7350 H   0  0  0  0  0  0  0  0  0  0  0  0
   -4.6169   16.8957  -36.0636 H   0  0  0  0  0  0  0  0  0  0  0  0
   -2.9548   17.6418  -33.6902 H   0  0  0  0  0  0  0  0  0  0  0  0
   -3.0916   18.4825  -35.2423 H   0  0  0  0  0  0  0  0  0  0  0  0
   -4.3758   19.1681  -32.7608 H   0  0  0  0  0  0  0  0  0  0  0  0
   -4.6578   19.9331  -34.3482 H   0  0  0  0  0  0  0  0  0  0  0  0
   -4.9710   20.7113  -32.0101 H   0  0  0  0  0  0  0  0  0  0  0  0
   -4.5932   21.4280  -29.4710 H   0  0  0  0  0  0  0  0  0  0  0  0
   -2.8109   21.6592  -29.7327 H   0  0  0  0  0  0  0  0  0  0  0  0
   -4.3854   21.5817  -27.2008 H   0  0  0  0  0  0  0  0  0  0  0  0
   -2.6484   21.1691  -27.5403 H   0  0  0  0  0  0  0  0  0  0  0  0
   -0.9458   22.7850  -27.2397 H   0  0  0  0  0  0  0  0  0  0  0  0
   -1.6558   23.6952  -28.6218 H   0  0  0  0  0  0  0  0  0  0  0  0
   -0.9023   23.9772  -24.9326 H   0  0  0  0  0  0  0  0  0  0  0  0
   -0.2206   26.1235  -23.8641 H   0  0  0  0  0  0  0  0  0  0  0  0
   -0.1851   28.2316  -25.1990 H   0  0  0  0  0  0  0  0  0  0  0  0
   -0.8327   28.1966  -27.6073 H   0  0  0  0  0  0  0  0  0  0  0  0
   -4.7581   24.2107  -26.4868 H   0  0  0  0  0  0  0  0  0  0  0  0
   -3.4790   25.2105  -27.3193 H   0  0  0  0  0  0  0  0  0  0  0  0
   -5.7041   23.5674  -28.4913 H   0  0  0  0  0  0  0  0  0  0  0  0
   -4.9989   25.1357  -29.0264 H   0  0  0  0  0  0  0  0  0  0  0  0
  1  2  2  0
  2  3  2  0
  2  4  1  0
  4  5  2  0
  5  6  1  0
  6  7  2  0
  7  8  1  0
  7  9  1  0
  9 10  1  0
 10 11  2  0
 10 12  2  0
 10 13  1  0
 13 14  1  0
 14 15  1  0
 15 16  1  0
 16 17  1  0
  9 18  2  0
  2 19  1  0
 19 20  1  0
 20 21  1  0
 21 22  1  0
 22 23  1  0
 23 24  1  0
 24 25  2  0
 25 26  1  0
 26 27  2  0
 27 28  1  0
 28 29  2  0
 29 30  1  0
 22 31  1  0
 31 32  1  0
 18  4  1  0
 32 19  1  0
 17 13  1  0
 29 24  1  0
  5 33  1  0
  6 34  1  0
  8 35  1  0
 14 36  1  0
 14 37  1  0
 15 38  1  0
 15 39  1  0
 16 40  1  0
 16 41  1  0
 17 42  1  0
 17 43  1  0
 18 44  1  0
 20 45  1  0
 20 46  1  0
 21 47  1  0
 21 48  1  0
 23 49  1  0
 23 50  1  0
 25 51  1  0
 26 52  1  0
 27 53  1  0
 28 54  1  0
 31 55  1  0
 31 56  1  0
 32 57  1  0
 32 58  1  0
M  CHG  1  30  -1
M  END
>  <UniqueID>  (4) 
4

>  <SMILES>  (4) 
O=S(=O)(c1ccc(O)c(S(=O)(=O)N2CCCC2)c1)N1CCN(Cc2ccccc2[O-])CC1

>  <Energy>  (4) 
74.82711970757771

>  <Genealogy>  (4) 
O=S(=O)(c1ccc(O)c(S(=O)(=O)N2CCCC2)c1)N1CCN(Cc2ccccc2[O-])CC1 (protonated)
O=S(=O)(c1ccc(O)c(S(=O)(=O)N2CCCC2)c1)N1CCN(Cc2ccccc2[O-])CC1 (3D coordinates assigned)
O=S(=O)(c1ccc(O)c(S(=O)(=O)N2CCCC2)c1)N1CCN(Cc2ccccc2[O-])CC1 (nonaromatic ring conformer: 74.82711970757771 kcal/mol)

>  <smiles>  (4) 
O=S(=O)(c1ccc(O)c(S(=O)(=O)N2CCCC2)c1)N1CCN(Cc2ccccc2O)CC1

>  <score_type>  (4) 
oracle

>  <origin>  (4) 
adgpu

>  <m_score__min__energy>  (4) 
-13.6

>  <m_primary>  (4) 
energy

$$$$
4:0
     RDKit          3D

 49 52  0  0  0  0  0  0  0  0999 V2000
   -1.2100   25.7260  -24.8190 C   0  0  0  0  0  0  0  0  0  0  0  0
   -1.5320   25.2850  -26.1690 N   0  0  0  0  0  0  0  0  0  0  0  0
   -2.7470   24.9050  -26.6030 C   0  0  0  0  0  0  0  0  0  0  0  0
   -2.6570   24.6350  -27.9580 C   0  0  0  0  0  0  0  0  0  0  0  0
   -3.7410   24.1860  -28.8680 C   0  0  0  0  0  0  0  0  0  0  0  0
   -4.5650   23.0990  -28.5220 C   0  0  0  0  0  0  0  0  0  0  0  0
   -5.5810   22.6740  -29.3840 C   0  0  0  0  0  0  0  0  0  0  0  0
   -5.7860   23.3230  -30.6060 C   0  0  0  0  0  0  0  0  0  0  0  0
   -7.0620   22.7660  -31.6840 S   0  0  0  0  0  0  0  0  0  0  0  0
   -8.3740   23.0890  -31.0240 O   0  0  0  0  0  0  0  0  0  0  0  0
   -7.0140   23.4890  -33.0020 O   0  0  0  0  0  0  0  0  0  0  0  0
   -6.9350   21.0180  -31.9710 C   0  0  0  0  0  0  0  0  0  0  0  0
   -8.0840   20.2380  -31.7480 C   0  0  0  0  0  0  0  0  0  0  0  0
   -8.0580   18.8500  -31.9190 C   0  0  0  0  0  0  0  0  0  0  0  0
   -9.2010   18.0850  -31.6950 O   0  0  0  0  0  0  0  0  0  0  0  0
   -6.8780   18.2240  -32.3110 C   0  0  0  0  0  0  0  0  0  0  0  0
   -5.7290   18.9780  -32.5430 C   0  0  0  0  0  0  0  0  0  0  0  0
   -5.7360   20.3760  -32.3970 C   0  0  0  0  0  0  0  0  0  0  0  0
   -4.2180   21.2450  -32.7210 S   0  0  0  0  0  0  0  0  0  0  0  0
   -4.5290   22.6620  -33.1150 O   0  0  0  0  0  0  0  0  0  0  0  0
   -3.4360   20.5900  -33.8220 O   0  0  0  0  0  0  0  0  0  0  0  0
   -3.1860   21.2520  -31.2920 C   0  0  0  0  0  0  0  0  0  0  0  0
   -3.4820   20.4350  -30.1890 C   0  0  0  0  0  0  0  0  0  0  0  0
   -2.6450   20.4370  -29.0690 C   0  0  0  0  0  0  0  0  0  0  0  0
   -1.5080   21.2510  -29.0450 C   0  0  0  0  0  0  0  0  0  0  0  0
   -1.2070   22.0620  -30.1420 C   0  0  0  0  0  0  0  0  0  0  0  0
   -2.0420   22.0620  -31.2640 C   0  0  0  0  0  0  0  0  0  0  0  0
   -4.9820   24.4150  -30.9520 C   0  0  0  0  0  0  0  0  0  0  0  0
   -3.9660   24.8410  -30.0940 C   0  0  0  0  0  0  0  0  0  0  0  0
   -1.3310   24.8930  -28.2770 C   0  0  0  0  0  0  0  0  0  0  0  0
   -0.6710   25.2940  -27.1730 N   0  0  0  0  0  0  0  0  0  0  0  0
   -1.6959   25.0606  -24.0902 H   0  0  0  0  0  0  0  0  0  0  0  0
   -0.1201   25.6956  -24.6735 H   0  0  0  0  0  0  0  0  0  0  0  0
   -1.5708   26.7549  -24.6735 H   0  0  0  0  0  0  0  0  0  0  0  0
   -3.6552   24.8229  -25.9878 H   0  0  0  0  0  0  0  0  0  0  0  0
   -4.4086   22.5791  -27.5653 H   0  0  0  0  0  0  0  0  0  0  0  0
   -6.2214   21.8260  -29.0999 H   0  0  0  0  0  0  0  0  0  0  0  0
   -9.0178   20.7273  -31.4341 H   0  0  0  0  0  0  0  0  0  0  0  0
   -9.3730   17.6350  -30.8040 H   0  0  0  0  0  0  0  0  0  0  0  0
   -6.8524   17.1317  -32.4380 H   0  0  0  0  0  0  0  0  0  0  0  0
   -4.8011   18.4705  -32.8454 H   0  0  0  0  0  0  0  0  0  0  0  0
   -4.3743   19.7920  -30.2061 H   0  0  0  0  0  0  0  0  0  0  0  0
   -2.8811   19.7975  -28.2057 H   0  0  0  0  0  0  0  0  0  0  0  0
   -0.8510   21.2527  -28.1628 H   0  0  0  0  0  0  0  0  0  0  0  0
   -0.3121   22.7014  -30.1233 H   0  0  0  0  0  0  0  0  0  0  0  0
   -1.8004   22.6995  -32.1272 H   0  0  0  0  0  0  0  0  0  0  0  0
   -5.1511   24.9399  -31.9038 H   0  0  0  0  0  0  0  0  0  0  0  0
   -3.3355   25.6963  -30.3785 H   0  0  0  0  0  0  0  0  0  0  0  0
   -0.8871   24.7864  -29.2778 H   0  0  0  0  0  0  0  0  0  0  0  0
  1  2  1  0
  2  3  1  0
  3  4  2  0
  4  5  1  0
  5  6  2  0
  6  7  1  0
  7  8  2  0
  8  9  1  0
  9 10  2  0
  9 11  2  0
  9 12  1  0
 12 13  2  0
 13 14  1  0
 14 15  1  0
 14 16  2  0
 16 17  1  0
 17 18  2  0
 18 19  1  0
 19 20  2  0
 19 21  2  0
 19 22  1  0
 22 23  2  0
 23 24  1  0
 24 25  2  0
 25 26  1  0
 26 27  2  0
  8 28  1  0
 28 29  2  0
  4 30  1  0
 30 31  2  0
 31  2  1  0
 29  5  1  0
 18 12  1  0
 27 22  1  0
  1 32  1  0
  1 33  1  0
  1 34  1  0
  3 35  1  0
  6 36  1  0
  7 37  1  0
 13 38  1  0
 15 39  1  0
 16 40  1  0
 17 41  1  0
 23 42  1  0
 24 43  1  0
 25 44  1  0
 26 45  1  0
 27 46  1  0
 28 47  1  0
 29 48  1  0
 30 49  1  0
M  END
>  <UniqueID>  (5) 
5

>  <SMILES>  (5) 
Cn1cc(-c2ccc(S(=O)(=O)c3cc(O)ccc3S(=O)(=O)c3ccccc3)cc2)cn1

>  <Energy>  (5) 
92.31361898791384

>  <Genealogy>  (5) 
Cn1cc(-c2ccc(S(=O)(=O)c3cc(O)ccc3S(=O)(=O)c3ccccc3)cc2)cn1 (3D coordinates assigned)
Cn1cc(-c2ccc(S(=O)(=O)c3cc(O)ccc3S(=O)(=O)c3ccccc3)cc2)cn1 (optimized conformer: 92.31361898791384 kcal/mol)

>  <smiles>  (5) 
Cn1cc(-c2ccc(S(=O)(=O)c3cc(O)ccc3S(=O)(=O)c3ccccc3)cc2)cn1

>  <score_type>  (5) 
oracle

>  <origin>  (5) 
adgpu

>  <m_score__min__energy>  (5) 
-9.0199999999999996

>  <m_primary>  (5) 
energy

$$$$
5:0
     RDKit          3D

 48 51  0  0  0  0  0  0  0  0999 V2000
   -5.8050   25.6760  -28.8420 O   0  0  0  0  0  0  0  0  0  0  0  0
   -5.4000   25.2650  -30.2310 S   0  0  0  0  0  0  0  0  0  0  0  0
   -5.7320   26.3850  -31.1760 O   0  0  0  0  0  0  0  0  0  0  0  0
   -3.6900   24.9670  -30.2770 N   0  0  0  0  0  0  0  0  0  0  0  0
   -3.3590   23.8450  -29.4040 C   0  0  0  0  0  0  0  0  0  0  0  0
   -2.3640   22.9660  -30.0910 C   0  0  0  0  0  0  0  0  0  0  0  0
   -1.0620   22.7010  -29.6760 C   0  0  0  0  0  0  0  0  0  0  0  0
   -0.4760   21.8050  -30.5040 N   0  0  0  0  0  0  0  0  0  0  0  0
   -1.4010   21.4960  -31.4300 C   0  0  0  0  0  0  0  0  0  0  0  0
   -1.2710   20.5970  -32.4880 C   0  0  0  0  0  0  0  0  0  0  0  0
   -2.3810   20.4080  -33.3320 C   0  0  0  0  0  0  0  0  0  0  0  0
   -3.5840   21.1100  -33.0980 C   0  0  0  0  0  0  0  0  0  0  0  0
   -3.6890   22.0090  -32.0210 C   0  0  0  0  0  0  0  0  0  0  0  0
   -2.5690   22.1800  -31.2070 C   0  0  0  0  0  0  0  0  0  0  0  0
   -6.2830   23.8210  -30.7200 C   0  0  0  0  0  0  0  0  0  0  0  0
   -6.3730   23.4620  -32.0720 C   0  0  0  0  0  0  0  0  0  0  0  0
   -7.0940   22.3260  -32.4510 C   0  0  0  0  0  0  0  0  0  0  0  0
   -7.7300   21.5360  -31.4830 C   0  0  0  0  0  0  0  0  0  0  0  0
   -8.6490   20.1050  -31.9640 S   0  0  0  0  0  0  0  0  0  0  0  0
   -9.8710   20.5410  -32.7230 O   0  0  0  0  0  0  0  0  0  0  0  0
   -9.1030   19.3770  -30.7300 O   0  0  0  0  0  0  0  0  0  0  0  0
   -7.7230   19.0080  -32.9610 N   0  0  0  0  0  0  0  0  0  0  0  0
   -6.7320   19.7080  -33.7760 C   0  0  0  0  0  0  0  0  0  0  0  0
   -5.6340   18.6990  -34.0750 C   0  0  0  0  0  0  0  0  0  0  0  0
   -5.7860   17.6120  -33.0210 C   0  0  0  0  0  0  0  0  0  0  0  0
   -6.9650   18.0470  -32.1640 C   0  0  0  0  0  0  0  0  0  0  0  0
   -7.6520   21.9060  -30.1330 C   0  0  0  0  0  0  0  0  0  0  0  0
   -6.9330   23.0420  -29.7530 C   0  0  0  0  0  0  0  0  0  0  0  0
   -2.9292   24.2236  -28.4649 H   0  0  0  0  0  0  0  0  0  0  0  0
   -4.2692   23.2692  -29.1803 H   0  0  0  0  0  0  0  0  0  0  0  0
   -0.5778   23.1555  -28.7991 H   0  0  0  0  0  0  0  0  0  0  0  0
    0.4930   21.4250  -30.4280 H   0  0  0  0  0  0  0  0  0  0  0  0
   -0.3303   20.0527  -32.6575 H   0  0  0  0  0  0  0  0  0  0  0  0
   -2.3113   19.7095  -34.1789 H   0  0  0  0  0  0  0  0  0  0  0  0
   -4.4458   20.9525  -33.7632 H   0  0  0  0  0  0  0  0  0  0  0  0
   -4.6222   22.5583  -31.8274 H   0  0  0  0  0  0  0  0  0  0  0  0
   -5.8749   24.0759  -32.8368 H   0  0  0  0  0  0  0  0  0  0  0  0
   -7.1627   22.0506  -33.5137 H   0  0  0  0  0  0  0  0  0  0  0  0
   -7.1896   20.0611  -34.7119 H   0  0  0  0  0  0  0  0  0  0  0  0
   -6.3331   20.5885  -33.2510 H   0  0  0  0  0  0  0  0  0  0  0  0
   -5.7623   18.2781  -35.0832 H   0  0  0  0  0  0  0  0  0  0  0  0
   -4.6358   19.1602  -34.0460 H   0  0  0  0  0  0  0  0  0  0  0  0
   -5.9918   16.6412  -33.4955 H   0  0  0  0  0  0  0  0  0  0  0  0
   -4.8697   17.4869  -32.4254 H   0  0  0  0  0  0  0  0  0  0  0  0
   -7.5941   17.1799  -31.9144 H   0  0  0  0  0  0  0  0  0  0  0  0
   -6.6262   18.4937  -31.2176 H   0  0  0  0  0  0  0  0  0  0  0  0
   -8.1595   21.2987  -29.3690 H   0  0  0  0  0  0  0  0  0  0  0  0
   -6.8769   23.3259  -28.6917 H   0  0  0  0  0  0  0  0  0  0  0  0
  1  2  2  0
  2  3  2  0
  2  4  1  0
  4  5  1  0
  5  6  1  0
  6  7  2  0
  7  8  1  0
  8  9  1  0
  9 10  2  0
 10 11  1  0
 11 12  2  0
 12 13  1  0
 13 14  2  0
  2 15  1  0
 15 16  2  0
 16 17  1  0
 17 18  2  0
 18 19  1  0
 19 20  2  0
 19 21  2  0
 19 22  1  0
 22 23  1  0
 23 24  1  0
 24 25  1  0
 25 26  1  0
 18 27  1  0
 27 28  2  0
 14  6  1  0
 28 15  1  0
 14  9  1  0
 26 22  1  0
  5 29  1  0
  5 30  1  0
  7 31  1  0
  8 32  1  0
 10 33  1  0
 11 34  1  0
 12 35  1  0
 13 36  1  0
 16 37  1  0
 17 38  1  0
 23 39  1  0
 23 40  1  0
 24 41  1  0
 24 42  1  0
 25 43  1  0
 25 44  1  0
 26 45  1  0
 26 46  1  0
 27 47  1  0
 28 48  1  0
M  CHG  1   4  -1
M  END
>  <UniqueID>  (6) 
6

>  <SMILES>  (6) 
O=S(=O)([N-]Cc1c[nH]c2ccccc12)c1ccc(S(=O)(=O)N2CCCC2)cc1

>  <Energy>  (6) 
82.24063026304226

>  <Genealogy>  (6) 
O=S(=O)([N-]Cc1c[nH]c2ccccc12)c1ccc(S(=O)(=O)N2CCCC2)cc1 (protonated)
O=S(=O)([N-]Cc1c[nH]c2ccccc12)c1ccc(S(=O)(=O)N2CCCC2)cc1 (3D coordinates assigned)
O=S(=O)([N-]Cc1c[nH]c2ccccc12)c1ccc(S(=O)(=O)N2CCCC2)cc1 (nonaromatic ring conformer: 82.24063026304226 kcal/mol)

>  <smiles>  (6) 
O=S(=O)(NCc1c[nH]c2ccccc12)c1ccc(S(=O)(=O)N2CCCC2)cc1

>  <score_type>  (6) 
oracle

>  <origin>  (6) 
adgpu

>  <m_score__min__energy>  (6) 
-11.49

>  <m_primary>  (6) 
energy

$$$$
6:0
     RDKit          3D

 54 56  0  0  0  0  0  0  0  0999 V2000
   -7.3980   23.3870  -31.5890 C   0  0  0  0  0  0  0  0  0  0  0  0
   -8.5700   22.8600  -31.9590 C   0  0  0  0  0  0  0  0  0  0  0  0
   -8.7470   21.3830  -32.1250 C   0  0  0  0  0  0  0  0  0  0  0  0
   -7.4420   20.7080  -32.1010 N   0  0  0  0  0  0  0  0  0  0  0  0
   -6.8300   20.6460  -33.4630 C   0  0  0  0  0  0  0  0  0  0  0  0
   -6.2580   19.2690  -33.8380 C   0  0  0  0  0  0  0  0  0  0  0  0
   -5.5720   18.6710  -32.6920 N   0  0  0  0  0  0  0  0  0  0  0  0
   -4.3210   17.9870  -32.8870 C   0  0  0  0  0  0  0  0  0  0  0  0
   -4.2510   16.6890  -32.7650 N   0  0  0  0  0  0  0  0  0  0  0  0
   -5.3670   15.8900  -32.6150 O   0  0  0  0  0  0  0  0  0  0  0  0
   -3.1180   18.7690  -33.2910 C   0  0  0  0  0  0  0  0  0  0  0  0
   -2.2170   18.2360  -34.2300 C   0  0  0  0  0  0  0  0  0  0  0  0
   -1.1050   18.9690  -34.6370 C   0  0  0  0  0  0  0  0  0  0  0  0
   -0.8970   20.2430  -34.1110 C   0  0  0  0  0  0  0  0  0  0  0  0
   -1.7760   20.7580  -33.2140 N   0  0  0  0  0  0  0  0  0  0  0  0
   -2.8700   20.0660  -32.7860 C   0  0  0  0  0  0  0  0  0  0  0  0
   -3.7570   20.6440  -31.8690 O   0  0  0  0  0  0  0  0  0  0  0  0
   -3.4660   21.7180  -31.0130 C   0  0  0  0  0  0  0  0  0  0  0  0
   -2.7830   21.4570  -29.8230 C   0  0  0  0  0  0  0  0  0  0  0  0
   -2.4570   22.4940  -28.9490 C   0  0  0  0  0  0  0  0  0  0  0  0
   -2.8240   23.8180  -29.2430 C   0  0  0  0  0  0  0  0  0  0  0  0
   -2.4430   24.9180  -28.3290 C   0  0  0  0  0  0  0  0  0  0  0  0
   -2.8720   24.9090  -27.1450 O   0  0  0  0  0  0  0  0  0  0  0  0
   -1.5800   25.9870  -28.7330 N   0  0  0  0  0  0  0  0  0  0  0  0
   -0.7110   26.7500  -27.8400 C   0  0  0  0  0  0  0  0  0  0  0  0
   -3.4730   24.0890  -30.4640 C   0  0  0  0  0  0  0  0  0  0  0  0
   -3.8010   25.3920  -30.8200 O   0  0  0  0  0  0  0  0  0  0  0  0
   -3.7890   23.0460  -31.3410 C   0  0  0  0  0  0  0  0  0  0  0  0
   -6.1960   18.7100  -31.3640 C   0  0  0  0  0  0  0  0  0  0  0  0
   -7.5610   19.3990  -31.4330 C   0  0  0  0  0  0  0  0  0  0  0  0
   -7.2964   24.4763  -31.4747 H   0  0  0  0  0  0  0  0  0  0  0  0
   -6.5356   22.7312  -31.3990 H   0  0  0  0  0  0  0  0  0  0  0  0
   -9.4241   23.5276  -32.1457 H   0  0  0  0  0  0  0  0  0  0  0  0
   -9.3702   20.9976  -31.3046 H   0  0  0  0  0  0  0  0  0  0  0  0
   -9.2339   21.1870  -33.0917 H   0  0  0  0  0  0  0  0  0  0  0  0
   -7.6025   20.9104  -34.2001 H   0  0  0  0  0  0  0  0  0  0  0  0
   -5.9834   21.3484  -33.4600 H   0  0  0  0  0  0  0  0  0  0  0  0
   -7.0797   18.6090  -34.1531 H   0  0  0  0  0  0  0  0  0  0  0  0
   -5.5370   19.3943  -34.6592 H   0  0  0  0  0  0  0  0  0  0  0  0
   -3.3270   16.2070  -32.8120 H   0  0  0  0  0  0  0  0  0  0  0  0
   -5.4480   14.9790  -33.0510 H   0  0  0  0  0  0  0  0  0  0  0  0
   -2.3918   17.2328  -34.6460 H   0  0  0  0  0  0  0  0  0  0  0  0
   -0.3979   18.5468  -35.3662 H   0  0  0  0  0  0  0  0  0  0  0  0
   -0.0210   20.8307  -34.4227 H   0  0  0  0  0  0  0  0  0  0  0  0
   -2.4995   20.4240  -29.5727 H   0  0  0  0  0  0  0  0  0  0  0  0
   -1.9079   22.2734  -28.0217 H   0  0  0  0  0  0  0  0  0  0  0  0
   -0.9692   26.5233  -26.7951 H   0  0  0  0  0  0  0  0  0  0  0  0
    0.3378   26.4757  -28.0263 H   0  0  0  0  0  0  0  0  0  0  0  0
   -0.8473   27.8255  -28.0263 H   0  0  0  0  0  0  0  0  0  0  0  0
   -4.2934   23.2665  -32.2933 H   0  0  0  0  0  0  0  0  0  0  0  0
   -6.3277   17.6819  -30.9956 H   0  0  0  0  0  0  0  0  0  0  0  0
   -5.5455   19.2769  -30.6818 H   0  0  0  0  0  0  0  0  0  0  0  0
   -8.2590   18.7650  -31.9995 H   0  0  0  0  0  0  0  0  0  0  0  0
   -7.9356   19.5527  -30.4102 H   0  0  0  0  0  0  0  0  0  0  0  0
  1  2  2  0
  2  3  1  0
  3  4  1  0
  4  5  1  0
  5  6  1  0
  6  7  1  0
  7  8  1  0
  8  9  2  3
  9 10  1  0
  8 11  1  0
 11 12  2  0
 12 13  1  0
 13 14  2  0
 14 15  1  0
 15 16  2  0
 16 17  1  0
 17 18  1  0
 18 19  2  0
 19 20  1  0
 20 21  2  0
 21 22  1  0
 22 23  2  0
 22 24  1  0
 24 25  1  0
 21 26  1  0
 26 27  1  0
 26 28  2  0
  7 29  1  0
 29 30  1  0
 30  4  1  0
 16 11  1  0
 28 18  1  0
  1 31  1  0
  1 32  1  0
  2 33  1  0
  3 34  1  0
  3 35  1  0
  5 36  1  0
  5 37  1  0
  6 38  1  0
  6 39  1  0
  9 40  1  0
 10 41  1  0
 12 42  1  0
 13 43  1  0
 14 44  1  0
 19 45  1  0
 20 46  1  0
 25 47  1  0
 25 48  1  0
 25 49  1  0
 28 50  1  0
 29 51  1  0
 29 52  1  0
 30 53  1  0
 30 54  1  0
M  CHG  3   9   1  24  -1  27  -1
M  END
>  <UniqueID>  (7) 
7

>  <SMILES>  (7) 
C=CCN1CCN(C(=[NH+]O)c2cccnc2Oc2ccc(C(=O)[N-]C)c([O-])c2)CC1

>  <Energy>  (7) 
78.76816459848368

>  <Genealogy>  (7) 
C=CCN1CCN(C(=[NH+]O)c2cccnc2Oc2ccc(C(=O)[N-]C)c([O-])c2)CC1 (protonated)
C=CCN1CCN(C(=[NH+]O)c2cccnc2Oc2ccc(C(=O)[N-]C)c([O-])c2)CC1 (3D coordinates assigned)
C=CCN1CCN(C(=[NH+]O)c2cccnc2Oc2ccc(C(=O)[N-]C)c([O-])c2)CC1 (nonaromatic ring conformer: 78.76816459848368 kcal/mol)

>  <smiles>  (7) 
C=CCN1CCN(C(=NO)c2cccnc2Oc2ccc(C(=O)NC)c(O)c2)CC1

>  <score_type>  (7) 
oracle

>  <origin>  (7) 
adgpu

>  <m_score__min__energy>  (7) 
-11.869999999999999

>  <m_primary>  (7) 
energy

$$$$
7:0
     RDKit          3D

 60 63  0  0  0  0  0  0  0  0999 V2000
   -9.0960   19.6290  -32.0680 C   0  0  0  0  0  0  0  0  0  0  0  0
   -8.7230   21.0810  -32.3480 C   0  0  0  0  0  0  0  0  0  0  0  0
   -7.2810   21.2840  -32.1790 N   0  0  0  0  0  0  0  0  0  0  0  0
   -6.2550   20.7260  -32.8820 C   0  0  0  0  0  0  0  0  0  0  0  0
   -6.4170   19.7120  -33.9810 C   0  0  0  0  0  0  0  0  0  0  0  0
   -5.9310   18.3550  -33.5440 C   0  0  0  0  0  0  0  0  0  0  0  0
   -5.2410   17.5290  -34.4430 C   0  0  0  0  0  0  0  0  0  0  0  0
   -4.8020   16.2620  -34.0450 C   0  0  0  0  0  0  0  0  0  0  0  0
   -5.0340   15.8050  -32.7370 C   0  0  0  0  0  0  0  0  0  0  0  0
   -4.5720   14.4550  -32.3240 C   0  0  0  0  0  0  0  0  0  0  0  0
   -3.7630   13.6760  -33.2130 N   0  0  0  0  0  0  0  0  0  0  0  0
   -4.8910   13.9730  -31.1600 N   0  0  0  0  0  0  0  0  0  0  0  0
   -5.7150   16.6410  -31.8350 C   0  0  0  0  0  0  0  0  0  0  0  0
   -6.1560   17.9060  -32.2330 C   0  0  0  0  0  0  0  0  0  0  0  0
   -5.0340   21.1960  -32.5140 N   0  0  0  0  0  0  0  0  0  0  0  0
   -5.3260   22.0780  -31.5420 C   0  0  0  0  0  0  0  0  0  0  0  0
   -4.4360   22.8660  -30.8190 C   0  0  0  0  0  0  0  0  0  0  0  0
   -4.9580   23.7370  -29.8390 C   0  0  0  0  0  0  0  0  0  0  0  0
   -4.0590   24.5800  -29.0980 N   0  0  0  0  0  0  0  0  0  0  0  0
   -2.7970   24.1340  -28.5750 C   0  0  0  0  0  0  0  0  0  0  0  0
   -2.2400   23.1150  -29.0700 O   0  0  0  0  0  0  0  0  0  0  0  0
   -2.1130   24.8860  -27.4950 C   0  0  0  0  0  0  0  0  0  0  0  0
   -2.7900   25.1800  -26.2980 C   0  0  0  0  0  0  0  0  0  0  0  0
   -2.1540   25.8930  -25.2790 C   0  0  0  0  0  0  0  0  0  0  0  0
   -0.8290   26.3340  -25.4360 C   0  0  0  0  0  0  0  0  0  0  0  0
   -0.1500   27.0990  -24.3600 C   0  0  0  0  0  0  0  0  0  0  0  0
    0.5770   26.4020  -23.3400 N   0  0  0  0  0  0  0  0  0  0  0  0
   -0.2120   28.3970  -24.3290 N   0  0  0  0  0  0  0  0  0  0  0  0
   -0.1570   26.0530  -26.6360 C   0  0  0  0  0  0  0  0  0  0  0  0
   -0.7910   25.3370  -27.6560 C   0  0  0  0  0  0  0  0  0  0  0  0
   -6.3650   23.8070  -29.6420 C   0  0  0  0  0  0  0  0  0  0  0  0
   -7.2360   22.9970  -30.3930 C   0  0  0  0  0  0  0  0  0  0  0  0
   -6.6730   22.1370  -31.3380 C   0  0  0  0  0  0  0  0  0  0  0  0
   -9.1383   19.4643  -30.9812 H   0  0  0  0  0  0  0  0  0  0  0  0
  -10.0793   19.4112  -32.5104 H   0  0  0  0  0  0  0  0  0  0  0  0
   -8.3395   18.9642  -32.5104 H   0  0  0  0  0  0  0  0  0  0  0  0
   -9.0054   21.3343  -33.3805 H   0  0  0  0  0  0  0  0  0  0  0  0
   -9.2584   21.7284  -31.6379 H   0  0  0  0  0  0  0  0  0  0  0  0
   -7.4810   19.6424  -34.2514 H   0  0  0  0  0  0  0  0  0  0  0  0
   -5.8183   20.0354  -34.8453 H   0  0  0  0  0  0  0  0  0  0  0  0
   -5.0439   17.8795  -35.4669 H   0  0  0  0  0  0  0  0  0  0  0  0
   -4.2710   15.6184  -34.7618 H   0  0  0  0  0  0  0  0  0  0  0  0
   -3.5620   14.0010  -34.1840 H   0  0  0  0  0  0  0  0  0  0  0  0
   -3.4060   12.7380  -32.9250 H   0  0  0  0  0  0  0  0  0  0  0  0
   -5.4490   14.5230  -30.4690 H   0  0  0  0  0  0  0  0  0  0  0  0
   -4.5700   13.0210  -30.8720 H   0  0  0  0  0  0  0  0  0  0  0  0
   -5.9023   16.2966  -30.8073 H   0  0  0  0  0  0  0  0  0  0  0  0
   -6.6820   18.5530  -31.5156 H   0  0  0  0  0  0  0  0  0  0  0  0
   -3.3535   22.8115  -31.0064 H   0  0  0  0  0  0  0  0  0  0  0  0
   -4.2840   25.5980  -29.0370 H   0  0  0  0  0  0  0  0  0  0  0  0
   -3.8292   24.8457  -26.1630 H   0  0  0  0  0  0  0  0  0  0  0  0
   -2.6947   26.1110  -24.3462 H   0  0  0  0  0  0  0  0  0  0  0  0
    0.7040   25.3680  -23.3800 H   0  0  0  0  0  0  0  0  0  0  0  0
    1.0260   26.9230  -22.5530 H   0  0  0  0  0  0  0  0  0  0  0  0
   -0.7630   28.9370  -25.0340 H   0  0  0  0  0  0  0  0  0  0  0  0
    0.2680   28.9360  -23.5740 H   0  0  0  0  0  0  0  0  0  0  0  0
    0.8778   26.3992  -26.7751 H   0  0  0  0  0  0  0  0  0  0  0  0
   -0.2517   25.1250  -28.5910 H   0  0  0  0  0  0  0  0  0  0  0  0
   -6.7762   24.5017  -28.8947 H   0  0  0  0  0  0  0  0  0  0  0  0
   -8.3246   23.0397  -30.2408 H   0  0  0  0  0  0  0  0  0  0  0  0
  1  2  1  0
  2  3  1  0
  3  4  1  0
  4  5  1  0
  5  6  1  0
  6  7  2  0
  7  8  1  0
  8  9  2  0
  9 10  1  0
 10 11  1  0
 10 12  2  0
  9 13  1  0
 13 14  2  0
  4 15  2  0
 15 16  1  0
 16 17  2  0
 17 18  1  0
 18 19  1  0
 19 20  1  0
 20 21  2  0
 20 22  1  0
 22 23  2  0
 23 24  1  0
 24 25  2  0
 25 26  1  0
 26 27  1  0
 26 28  2  0
 25 29  1  0
 29 30  2  0
 18 31  2  0
 31 32  1  0
 32 33  2  0
 33  3  1  0
 14  6  1  0
 33 16  1  0
 30 22  1  0
  1 34  1  0
  1 35  1  0
  1 36  1  0
  2 37  1  0
  2 38  1  0
  5 39  1  0
  5 40  1  0
  7 41  1  0
  8 42  1  0
 11 43  1  0
 11 44  1  0
 12 45  1  0
 12 46  1  0
 13 47  1  0
 14 48  1  0
 17 49  1  0
 19 50  1  0
 23 51  1  0
 24 52  1  0
 27 53  1  0
 27 54  1  0
 28 55  1  0
 28 56  1  0
 29 57  1  0
 30 58  1  0
 31 59  1  0
 32 60  1  0
M  CHG  2  12   1  28   1
M  END
>  <UniqueID>  (8) 
8

>  <SMILES>  (8) 
CCn1c(Cc2ccc(C(N)=[NH2+])cc2)nc2cc(NC(=O)c3ccc(C(N)=[NH2+])cc3)ccc21

>  <Energy>  (8) 
105.75727215118631

>  <Genealogy>  (8) 
CCn1c(Cc2ccc(C(N)=[NH2+])cc2)nc2cc(NC(=O)c3ccc(C(N)=[NH2+])cc3)ccc21 (protonated)
CCn1c(Cc2ccc(C(N)=[NH2+])cc2)nc2cc(NC(=O)c3ccc(C(N)=[NH2+])cc3)ccc21 (3D coordinates assigned)
CCn1c(Cc2ccc(C(N)=[NH2+])cc2)nc2cc(NC(=O)c3ccc(C(N)=[NH2+])cc3)ccc21 (optimized conformer: 105.75727215118631 kcal/mol)

>  <smiles>  (8) 
CCn1c(Cc2ccc(C(=N)N)cc2)nc2cc(NC(=O)c3ccc(C(=N)N)cc3)ccc21

>  <score_type>  (8) 
oracle

>  <origin>  (8) 
adgpu

>  <m_score__min__energy>  (8) 
-11.15

>  <m_primary>  (8) 
energy

$$$$
8:0
     RDKit          3D

 58 61  0  0  0  0  0  0  0  0999 V2000
   -6.7910   15.5940  -33.9240 C   0  0  0  0  0  0  0  0  0  0  0  0
   -6.0330   16.8780  -34.0780 C   0  0  0  0  0  0  0  0  0  0  0  0
   -5.0740   16.9140  -34.8960 O   0  0  0  0  0  0  0  0  0  0  0  0
   -6.3690   18.0540  -33.3080 N   0  0  0  0  0  0  0  0  0  0  0  0
   -5.7770   19.3490  -33.6700 C   0  0  0  0  0  0  0  0  0  0  0  0
   -6.7780   20.4760  -33.4280 C   0  0  0  0  0  0  0  0  0  0  0  0
   -7.3530   20.3570  -32.0850 N   0  0  0  0  0  0  0  0  0  0  0  0
   -7.6700   21.5430  -31.3360 C   0  0  0  0  0  0  0  0  0  0  0  0
   -8.8090   21.6710  -30.8110 O   0  0  0  0  0  0  0  0  0  0  0  0
   -6.6730   22.6220  -31.1830 C   0  0  0  0  0  0  0  0  0  0  0  0
   -7.0880   23.9430  -30.9480 C   0  0  0  0  0  0  0  0  0  0  0  0
   -6.1460   24.9520  -30.7420 C   0  0  0  0  0  0  0  0  0  0  0  0
   -4.7820   24.6480  -30.7360 C   0  0  0  0  0  0  0  0  0  0  0  0
   -3.8560   25.6570  -30.4990 O   0  0  0  0  0  0  0  0  0  0  0  0
   -4.3570   23.3290  -30.9590 C   0  0  0  0  0  0  0  0  0  0  0  0
   -2.9860   22.9690  -30.7770 N   0  0  0  0  0  0  0  0  0  0  0  0
   -2.2940   23.1080  -29.1940 S   0  0  0  0  0  0  0  0  0  0  0  0
   -1.1500   24.0810  -29.2300 O   0  0  0  0  0  0  0  0  0  0  0  0
   -3.3260   23.6100  -28.2240 O   0  0  0  0  0  0  0  0  0  0  0  0
   -1.7030   21.5220  -28.6950 C   0  0  0  0  0  0  0  0  0  0  0  0
   -2.5530   20.6370  -28.0180 C   0  0  0  0  0  0  0  0  0  0  0  0
   -2.0590   19.4270  -27.5210 C   0  0  0  0  0  0  0  0  0  0  0  0
   -0.7080   19.0950  -27.6960 C   0  0  0  0  0  0  0  0  0  0  0  0
    0.1480   19.9820  -28.3640 C   0  0  0  0  0  0  0  0  0  0  0  0
   -0.3500   21.1940  -28.8620 C   0  0  0  0  0  0  0  0  0  0  0  0
    1.6130   19.6470  -28.4440 C   0  0  0  0  0  0  0  0  0  0  0  0
    1.8320   18.1630  -28.7980 C   0  0  0  0  0  0  0  0  0  0  0  0
    0.8260   17.1770  -28.1440 C   0  0  0  0  0  0  0  0  0  0  0  0
   -0.1330   17.8250  -27.1330 C   0  0  0  0  0  0  0  0  0  0  0  0
   -5.3020   22.3270  -31.2170 C   0  0  0  0  0  0  0  0  0  0  0  0
   -7.9670   19.0770  -31.7260 C   0  0  0  0  0  0  0  0  0  0  0  0
   -6.9770   17.9350  -31.9720 C   0  0  0  0  0  0  0  0  0  0  0  0
   -6.9222   15.3717  -32.8547 H   0  0  0  0  0  0  0  0  0  0  0  0
   -7.7769   15.6906  -34.4021 H   0  0  0  0  0  0  0  0  0  0  0  0
   -6.2301   14.7775  -34.4021 H   0  0  0  0  0  0  0  0  0  0  0  0
   -4.8805   19.5222  -33.0566 H   0  0  0  0  0  0  0  0  0  0  0  0
   -5.5072   19.3333  -34.7363 H   0  0  0  0  0  0  0  0  0  0  0  0
   -6.2650   21.4447  -33.5199 H   0  0  0  0  0  0  0  0  0  0  0  0
   -7.5845   20.4083  -34.1730 H   0  0  0  0  0  0  0  0  0  0  0  0
   -8.1611   24.1837  -30.9262 H   0  0  0  0  0  0  0  0  0  0  0  0
   -6.4779   25.9888  -30.5840 H   0  0  0  0  0  0  0  0  0  0  0  0
   -2.5660   22.2630  -31.4220 H   0  0  0  0  0  0  0  0  0  0  0  0
   -3.6129   20.8953  -27.8771 H   0  0  0  0  0  0  0  0  0  0  0  0
   -2.7309   18.7349  -26.9922 H   0  0  0  0  0  0  0  0  0  0  0  0
    0.3225   21.8897  -29.3852 H   0  0  0  0  0  0  0  0  0  0  0  0
    2.0814   20.2725  -29.2182 H   0  0  0  0  0  0  0  0  0  0  0  0
    2.0662   19.8388  -27.4602 H   0  0  0  0  0  0  0  0  0  0  0  0
    1.7525   18.0573  -29.8900 H   0  0  0  0  0  0  0  0  0  0  0  0
    2.8240   17.8962  -28.4045 H   0  0  0  0  0  0  0  0  0  0  0  0
    0.2249   16.7186  -28.9431 H   0  0  0  0  0  0  0  0  0  0  0  0
    1.4247   16.4442  -27.5831 H   0  0  0  0  0  0  0  0  0  0  0  0
   -0.9512   17.1246  -26.9092 H   0  0  0  0  0  0  0  0  0  0  0  0
    0.4236   18.0618  -26.2143 H   0  0  0  0  0  0  0  0  0  0  0  0
   -4.9673   21.3047  -31.4472 H   0  0  0  0  0  0  0  0  0  0  0  0
   -8.2479   19.0931  -30.6626 H   0  0  0  0  0  0  0  0  0  0  0  0
   -8.8621   18.9191  -32.3455 H   0  0  0  0  0  0  0  0  0  0  0  0
   -6.1848   17.9730  -31.2098 H   0  0  0  0  0  0  0  0  0  0  0  0
   -7.5173   16.9787  -31.9125 H   0  0  0  0  0  0  0  0  0  0  0  0
  1  2  1  0
  2  3  2  0
  2  4  1  0
  4  5  1  0
  5  6  1  0
  6  7  1  0
  7  8  1  0
  8  9  2  0
  8 10  1  0
 10 11  2  0
 11 12  1  0
 12 13  2  0
 13 14  1  0
 13 15  1  0
 15 16  1  0
 16 17  1  0
 17 18  2  0
 17 19  2  0
 17 20  1  0
 20 21  2  0
 21 22  1  0
 22 23  2  0
 23 24  1  0
 24 25  2  0
 24 26  1  0
 26 27  1  0
 27 28  1  0
 28 29  1  0
 15 30  2  0
  7 31  1  0
 31 32  1  0
 32  4  1  0
 30 10  1  0
 25 20  1  0
 29 23  1  0
  1 33  1  0
  1 34  1  0
  1 35  1  0
  5 36  1  0
  5 37  1  0
  6 38  1  0
  6 39  1  0
 11 40  1  0
 12 41  1  0
 16 42  1  0
 21 43  1  0
 22 44  1  0
 25 45  1  0
 26 46  1  0
 26 47  1  0
 27 48  1  0
 27 49  1  0
 28 50  1  0
 28 51  1  0
 29 52  1  0
 29 53  1  0
 30 54  1  0
 31 55  1  0
 31 56  1  0
 32 57  1  0
 32 58  1  0
M  CHG  1  14  -1
M  END
>  <UniqueID>  (9) 
9

>  <SMILES>  (9) 
CC(=O)N1CCN(C(=O)c2ccc([O-])c(NS(=O)(=O)c3ccc4c(c3)CCCC4)c2)CC1

>  <Energy>  (9) 
72.17075872428804

>  <Genealogy>  (9) 
CC(=O)N1CCN(C(=O)c2ccc([O-])c(NS(=O)(=O)c3ccc4c(c3)CCCC4)c2)CC1 (protonated)
CC(=O)N1CCN(C(=O)c2ccc([O-])c(NS(=O)(=O)c3ccc4c(c3)CCCC4)c2)CC1 (3D coordinates assigned)
CC(=O)N1CCN(C(=O)c2ccc([O-])c(NS(=O)(=O)c3ccc4c(c3)CCCC4)c2)CC1 (nonaromatic ring conformer: 72.17075872428804 kcal/mol)

>  <smiles>  (9) 
CC(=O)N1CCN(C(=O)c2ccc(O)c(NS(=O)(=O)c3ccc4c(c3)CCCC4)c2)CC1

>  <score_type>  (9) 
oracle

>  <origin>  (9) 
adgpu

>  <m_score__min__energy>  (9) 
-14.52

>  <m_primary>  (9) 
energy

$$$$
9:0
     RDKit          3D

 53 56  0  0  0  0  0  0  0  0999 V2000
    2.8390   15.5880  -29.3960 C   0  0  0  0  0  0  0  0  0  0  0  0
    2.9210   16.7360  -28.4380 C   0  0  0  0  0  0  0  0  0  0  0  0
    3.9190   16.8180  -27.6730 O   0  0  0  0  0  0  0  0  0  0  0  0
    1.8800   17.7340  -28.3690 N   0  0  0  0  0  0  0  0  0  0  0  0
    0.5420   17.4750  -28.9290 C   0  0  0  0  0  0  0  0  0  0  0  0
   -0.5370   18.1780  -28.0960 C   0  0  0  0  0  0  0  0  0  0  0  0
   -0.1820   19.5730  -27.8100 N   0  0  0  0  0  0  0  0  0  0  0  0
   -1.1240   20.4160  -27.1250 C   0  0  0  0  0  0  0  0  0  0  0  0
   -1.7300   19.9780  -26.1120 O   0  0  0  0  0  0  0  0  0  0  0  0
   -1.3720   21.7980  -27.5830 C   0  0  0  0  0  0  0  0  0  0  0  0
   -0.3080   22.7030  -27.7060 C   0  0  0  0  0  0  0  0  0  0  0  0
   -0.5360   23.9980  -28.1770 C   0  0  0  0  0  0  0  0  0  0  0  0
   -1.8310   24.4160  -28.5040 C   0  0  0  0  0  0  0  0  0  0  0  0
   -2.0190   25.7220  -28.9600 O   0  0  0  0  0  0  0  0  0  0  0  0
   -2.9140   23.5270  -28.3560 C   0  0  0  0  0  0  0  0  0  0  0  0
   -4.2430   23.9840  -28.6460 N   0  0  0  0  0  0  0  0  0  0  0  0
   -4.8170   24.4100  -30.2260 S   0  0  0  0  0  0  0  0  0  0  0  0
   -3.8560   25.3740  -30.8660 O   0  0  0  0  0  0  0  0  0  0  0  0
   -6.1710   25.0620  -30.1270 O   0  0  0  0  0  0  0  0  0  0  0  0
   -4.9270   22.9520  -31.2180 C   0  0  0  0  0  0  0  0  0  0  0  0
   -3.7590   22.4060  -31.7710 C   0  0  0  0  0  0  0  0  0  0  0  0
   -3.8210   21.2730  -32.5850 C   0  0  0  0  0  0  0  0  0  0  0  0
   -5.0490   20.6640  -32.8530 C   0  0  0  0  0  0  0  0  0  0  0  0
   -6.2230   21.1820  -32.2930 C   0  0  0  0  0  0  0  0  0  0  0  0
   -7.4650   20.5850  -32.5460 C   0  0  0  0  0  0  0  0  0  0  0  0
   -8.6210   21.1160  -31.9680 C   0  0  0  0  0  0  0  0  0  0  0  0
   -8.5240   22.2390  -31.1450 C   0  0  0  0  0  0  0  0  0  0  0  0
   -7.3130   22.8140  -30.9170 N   0  0  0  0  0  0  0  0  0  0  0  0
   -6.1650   22.3270  -31.4650 C   0  0  0  0  0  0  0  0  0  0  0  0
   -2.6710   22.2120  -27.9180 C   0  0  0  0  0  0  0  0  0  0  0  0
    1.1360   20.0970  -28.1910 C   0  0  0  0  0  0  0  0  0  0  0  0
    2.2200   19.0690  -27.8490 C   0  0  0  0  0  0  0  0  0  0  0  0
    2.7717   14.6451  -28.8335 H   0  0  0  0  0  0  0  0  0  0  0  0
    1.9467   15.7018  -30.0291 H   0  0  0  0  0  0  0  0  0  0  0  0
    3.7384   15.5738  -30.0291 H   0  0  0  0  0  0  0  0  0  0  0  0
    0.5034   17.8511  -29.9620 H   0  0  0  0  0  0  0  0  0  0  0  0
    0.3538   16.3914  -28.9113 H   0  0  0  0  0  0  0  0  0  0  0  0
   -1.4854   18.1589  -28.6529 H   0  0  0  0  0  0  0  0  0  0  0  0
   -0.6303   17.6456  -27.1380 H   0  0  0  0  0  0  0  0  0  0  0  0
    0.7104   22.3918  -27.4304 H   0  0  0  0  0  0  0  0  0  0  0  0
    0.3080   24.6941  -28.2917 H   0  0  0  0  0  0  0  0  0  0  0  0
   -2.9020   26.0420  -29.3350 H   0  0  0  0  0  0  0  0  0  0  0  0
   -2.7860   22.8744  -31.5616 H   0  0  0  0  0  0  0  0  0  0  0  0
   -2.8984   20.8582  -33.0171 H   0  0  0  0  0  0  0  0  0  0  0  0
   -5.0937   19.7781  -33.5035 H   0  0  0  0  0  0  0  0  0  0  0  0
   -7.5299   19.7011  -33.1976 H   0  0  0  0  0  0  0  0  0  0  0  0
   -9.5999   20.6525  -32.1601 H   0  0  0  0  0  0  0  0  0  0  0  0
   -9.4281   22.6594  -30.6803 H   0  0  0  0  0  0  0  0  0  0  0  0
   -3.5069   21.5016  -27.8373 H   0  0  0  0  0  0  0  0  0  0  0  0
    1.1508   20.2978  -29.2724 H   0  0  0  0  0  0  0  0  0  0  0  0
    1.3307   21.0285  -27.6393 H   0  0  0  0  0  0  0  0  0  0  0  0
    3.1730   19.3934  -28.2923 H   0  0  0  0  0  0  0  0  0  0  0  0
    2.3003   19.0030  -26.7539 H   0  0  0  0  0  0  0  0  0  0  0  0
  1  2  1  0
  2  3  2  0
  2  4  1  0
  4  5  1  0
  5  6  1  0
  6  7  1  0
  7  8  1  0
  8  9  2  0
  8 10  1  0
 10 11  2  0
 11 12  1  0
 12 13  2  0
 13 14  1  0
 13 15  1  0
 15 16  1  0
 16 17  1  0
 17 18  2  0
 17 19  2  0
 17 20  1  0
 20 21  2  0
 21 22  1  0
 22 23  2  0
 23 24  1  0
 24 25  2  0
 25 26  1  0
 26 27  2  0
 27 28  1  0
 28 29  2  0
 15 30  2  0
  7 31  1  0
 31 32  1  0
 32  4  1  0
 30 10  1  0
 29 20  1  0
 29 24  1  0
  1 33  1  0
  1 34  1  0
  1 35  1  0
  5 36  1  0
  5 37  1  0
  6 38  1  0
  6 39  1  0
 11 40  1  0
 12 41  1  0
 14 42  1  0
 21 43  1  0
 22 44  1  0
 23 45  1  0
 25 46  1  0
 26 47  1  0
 27 48  1  0
 30 49  1  0
 31 50  1  0
 31 51  1  0
 32 52  1  0
 32 53  1  0
M  CHG  1  16  -1
M  END
>  <UniqueID>  (10) 
10

>  <SMILES>  (10) 
CC(=O)N1CCN(C(=O)c2ccc(O)c([N-]S(=O)(=O)c3cccc4cccnc34)c2)CC1

>  <Energy>  (10) 
70.76400145234925

>  <Genealogy>  (10) 
CC(=O)N1CCN(C(=O)c2ccc(O)c([N-]S(=O)(=O)c3cccc4cccnc34)c2)CC1 (protonated)
CC(=O)N1CCN(C(=O)c2ccc(O)c([N-]S(=O)(=O)c3cccc4cccnc34)c2)CC1 (3D coordinates assigned)
CC(=O)N1CCN(C(=O)c2ccc(O)c([N-]S(=O)(=O)c3cccc4cccnc34)c2)CC1 (nonaromatic ring conformer: 70.76400145234925 kcal/mol)

>  <smiles>  (10) 
CC(=O)N1CCN(C(=O)c2ccc(O)c(NS(=O)(=O)c3cccc4cccnc34)c2)CC1

>  <score_type>  (10) 
oracle

>  <origin>  (10) 
adgpu

>  <m_score__min__energy>  (10) 
-11.220000000000001

>  <m_primary>  (10) 
energy

$$$$
10:0
     RDKit          3D

 44 47  0  0  0  0  0  0  0  0999 V2000
   -6.4400   17.2560  -31.2330 C   0  0  0  0  0  0  0  0  0  0  0  0
   -6.8750   17.9050  -32.4810 N   0  0  0  0  0  0  0  0  0  0  0  0
   -8.1230   18.6960  -32.2600 C   0  0  0  0  0  0  0  0  0  0  0  0
   -8.1620   20.0300  -33.0220 C   0  0  0  0  0  0  0  0  0  0  0  0
   -6.9020   20.7890  -32.7420 C   0  0  0  0  0  0  0  0  0  0  0  0
   -6.9040   22.1660  -32.4840 C   0  0  0  0  0  0  0  0  0  0  0  0
   -5.6960   22.8400  -32.2280 C   0  0  0  0  0  0  0  0  0  0  0  0
   -5.6590   24.2470  -31.9440 N   0  0  0  0  0  0  0  0  0  0  0  0
   -5.6540   24.9450  -30.3580 S   0  0  0  0  0  0  0  0  0  0  0  0
   -5.4190   26.4250  -30.4690 O   0  0  0  0  0  0  0  0  0  0  0  0
   -6.9890   24.7130  -29.7090 O   0  0  0  0  0  0  0  0  0  0  0  0
   -4.3550   24.2330  -29.4060 C   0  0  0  0  0  0  0  0  0  0  0  0
   -4.5970   23.1290  -28.5740 C   0  0  0  0  0  0  0  0  0  0  0  0
   -3.5480   22.5490  -27.8520 C   0  0  0  0  0  0  0  0  0  0  0  0
   -2.2540   23.0660  -27.9620 C   0  0  0  0  0  0  0  0  0  0  0  0
   -2.0130   24.1790  -28.7810 C   0  0  0  0  0  0  0  0  0  0  0  0
   -3.0600   24.7590  -29.5000 C   0  0  0  0  0  0  0  0  0  0  0  0
   -0.6980   24.7350  -28.8350 N   0  0  0  0  0  0  0  0  0  0  0  0
    0.3780   24.0940  -28.1510 C   0  0  0  0  0  0  0  0  0  0  0  0
    1.5100   24.6430  -28.1150 O   0  0  0  0  0  0  0  0  0  0  0  0
    0.1770   22.7320  -27.5470 C   0  0  0  0  0  0  0  0  0  0  0  0
   -1.2010   22.4890  -27.2410 O   0  0  0  0  0  0  0  0  0  0  0  0
   -4.4890   22.1220  -32.2500 C   0  0  0  0  0  0  0  0  0  0  0  0
   -3.2870   22.7820  -31.9970 O   0  0  0  0  0  0  0  0  0  0  0  0
   -4.4920   20.7460  -32.5240 C   0  0  0  0  0  0  0  0  0  0  0  0
   -5.7010   20.0800  -32.7620 C   0  0  0  0  0  0  0  0  0  0  0  0
   -5.7480   18.6210  -33.1320 C   0  0  0  0  0  0  0  0  0  0  0  0
   -6.8211   17.8246  -30.3719 H   0  0  0  0  0  0  0  0  0  0  0  0
   -6.8330   16.2292  -31.1974 H   0  0  0  0  0  0  0  0  0  0  0  0
   -5.3409   17.2293  -31.1974 H   0  0  0  0  0  0  0  0  0  0  0  0
   -8.9800   18.0874  -32.5844 H   0  0  0  0  0  0  0  0  0  0  0  0
   -8.1583   18.9411  -31.1882 H   0  0  0  0  0  0  0  0  0  0  0  0
   -8.2432   19.8357  -34.1016 H   0  0  0  0  0  0  0  0  0  0  0  0
   -9.0312   20.6194  -32.6947 H   0  0  0  0  0  0  0  0  0  0  0  0
   -7.8532   22.7220  -32.4816 H   0  0  0  0  0  0  0  0  0  0  0  0
   -5.6140   22.7185  -28.4892 H   0  0  0  0  0  0  0  0  0  0  0  0
   -3.7417   21.6861  -27.1978 H   0  0  0  0  0  0  0  0  0  0  0  0
   -2.8675   25.6313  -30.1419 H   0  0  0  0  0  0  0  0  0  0  0  0
    0.5239   21.9703  -28.2607 H   0  0  0  0  0  0  0  0  0  0  0  0
    0.7513   22.6830  -26.6101 H   0  0  0  0  0  0  0  0  0  0  0  0
   -3.2360   23.7930  -31.9570 H   0  0  0  0  0  0  0  0  0  0  0  0
   -3.5436   20.1895  -32.5519 H   0  0  0  0  0  0  0  0  0  0  0  0
   -5.8601   18.5372  -34.2231 H   0  0  0  0  0  0  0  0  0  0  0  0
   -4.8126   18.1578  -32.7847 H   0  0  0  0  0  0  0  0  0  0  0  0
  1  2  1  0
  2  3  1  0
  3  4  1  0
  4  5  1  0
  5  6  2  0
  6  7  1  0
  7  8  1  0
  8  9  1  0
  9 10  2  0
  9 11  2  0
  9 12  1  0
 12 13  2  0
 13 14  1  0
 14 15  2  0
 15 16  1  0
 16 17  2  0
 16 18  1  0
 18 19  1  0
 19 20  2  0
 19 21  1  0
 21 22  1  0
  7 23  2  0
 23 24  1  0
 23 25  1  0
 25 26  2  0
 26 27  1  0
 27  2  1  0
 26  5  1  0
 17 12  1  0
 22 15  1  0
  1 28  1  0
  1 29  1  0
  1 30  1  0
  3 31  1  0
  3 32  1  0
  4 33  1  0
  4 34  1  0
  6 35  1  0
 13 36  1  0
 14 37  1  0
 17 38  1  0
 21 39  1  0
 21 40  1  0
 24 41  1  0
 25 42  1  0
 27 43  1  0
 27 44  1  0
M  CHG  2   8  -1  18  -1
M  END
>  <UniqueID>  (11) 
11

>  <SMILES>  (11) 
CN1CCc2cc([N-]S(=O)(=O)c3ccc4c(c3)[N-]C(=O)CO4)c(O)cc2C1

>  <Energy>  (11) 
62.45883120626631

>  <Genealogy>  (11) 
CN1CCc2cc([N-]S(=O)(=O)c3ccc4c(c3)[N-]C(=O)CO4)c(O)cc2C1 (protonated)
CN1CCc2cc([N-]S(=O)(=O)c3ccc4c(c3)[N-]C(=O)CO4)c(O)cc2C1 (3D coordinates assigned)
CN1CCc2cc([N-]S(=O)(=O)c3ccc4c(c3)[N-]C(=O)CO4)c(O)cc2C1 (nonaromatic ring conformer: 62.45883120626631 kcal/mol)

>  <smiles>  (11) 
CN1CCc2cc(NS(=O)(=O)c3ccc4c(c3)NC(=O)CO4)c(O)cc2C1

>  <score_type>  (11) 
oracle

>  <origin>  (11) 
adgpu

>  <m_score__min__energy>  (11) 
-10.390000000000001

>  <m_primary>  (11) 
energy

$$$$
11:0
     RDKit          3D

 54 57  0  0  0  0  0  0  0  0999 V2000
   -8.7560   19.5490  -31.9380 C   0  0  0  0  0  0  0  0  0  0  0  0
   -7.9770   20.8380  -31.9640 C   0  0  0  0  0  0  0  0  0  0  0  0
   -8.6180   22.0370  -31.6070 C   0  0  0  0  0  0  0  0  0  0  0  0
   -7.9200   23.2450  -31.6170 C   0  0  0  0  0  0  0  0  0  0  0  0
   -6.5680   23.2800  -31.9650 C   0  0  0  0  0  0  0  0  0  0  0  0
   -5.8890   24.5450  -31.9800 N   0  0  0  0  0  0  0  0  0  0  0  0
   -5.2580   25.1600  -30.8520 C   0  0  0  0  0  0  0  0  0  0  0  0
   -5.9530   25.8610  -30.0720 O   0  0  0  0  0  0  0  0  0  0  0  0
   -3.8530   24.9750  -30.6250 N   0  0  0  0  0  0  0  0  0  0  0  0
   -3.2050   24.0680  -29.7200 C   0  0  0  0  0  0  0  0  0  0  0  0
   -3.6850   22.7670  -29.4860 C   0  0  0  0  0  0  0  0  0  0  0  0
   -3.0290   21.9300  -28.5810 C   0  0  0  0  0  0  0  0  0  0  0  0
   -1.8880   22.3740  -27.9140 C   0  0  0  0  0  0  0  0  0  0  0  0
   -1.3750   23.6550  -28.1620 C   0  0  0  0  0  0  0  0  0  0  0  0
    0.0530   24.2000  -27.2750 S   0  0  0  0  0  0  0  0  0  0  0  0
    1.0470   24.8410  -28.2020 O   0  0  0  0  0  0  0  0  0  0  0  0
    0.7210   23.0170  -26.6340 O   0  0  0  0  0  0  0  0  0  0  0  0
   -0.4360   25.3220  -26.0400 N   0  0  0  0  0  0  0  0  0  0  0  0
    0.4700   25.9430  -25.1400 C   0  0  0  0  0  0  0  0  0  0  0  0
    1.6490   25.4000  -24.6160 C   0  0  0  0  0  0  0  0  0  0  0  0
    2.4150   26.1820  -23.7380 C   0  0  0  0  0  0  0  0  0  0  0  0
    1.9920   27.4790  -23.3910 C   0  0  0  0  0  0  0  0  0  0  0  0
    0.7960   27.9950  -23.9160 C   0  0  0  0  0  0  0  0  0  0  0  0
    0.0510   27.1970  -24.7850 C   0  0  0  0  0  0  0  0  0  0  0  0
   -1.2310   27.5310  -25.4570 C   0  0  0  0  0  0  0  0  0  0  0  0
   -1.5720   26.2310  -26.2380 C   0  0  2  0  0  0  0  0  0  0  0  0
   -2.8560   25.5810  -25.7190 C   0  0  0  0  0  0  0  0  0  0  0  0
   -2.0350   24.4980  -29.0750 C   0  0  0  0  0  0  0  0  0  0  0  0
   -1.5420   25.7700  -29.3430 O   0  0  0  0  0  0  0  0  0  0  0  0
   -5.9250   22.0920  -32.3490 C   0  0  0  0  0  0  0  0  0  0  0  0
   -6.6100   20.8650  -32.3300 C   0  0  0  0  0  0  0  0  0  0  0  0
   -5.8840   19.6110  -32.7410 C   0  0  0  0  0  0  0  0  0  0  0  0
   -8.9364   19.2506  -30.8947 H   0  0  0  0  0  0  0  0  0  0  0  0
   -9.7189   19.6921  -32.4501 H   0  0  0  0  0  0  0  0  0  0  0  0
   -8.1816   18.7630  -32.4501 H   0  0  0  0  0  0  0  0  0  0  0  0
   -9.6791   22.0227  -31.3173 H   0  0  0  0  0  0  0  0  0  0  0  0
   -8.4387   24.1772  -31.3487 H   0  0  0  0  0  0  0  0  0  0  0  0
   -4.5790   22.4080  -30.0169 H   0  0  0  0  0  0  0  0  0  0  0  0
   -3.4138   20.9167  -28.3937 H   0  0  0  0  0  0  0  0  0  0  0  0
   -1.3874   21.7154  -27.1890 H   0  0  0  0  0  0  0  0  0  0  0  0
    1.9680   24.3826  -24.8865 H   0  0  0  0  0  0  0  0  0  0  0  0
    3.3494   25.7800  -23.3194 H   0  0  0  0  0  0  0  0  0  0  0  0
    2.5996   28.0898  -22.7071 H   0  0  0  0  0  0  0  0  0  0  0  0
    0.4542   29.0056  -23.6481 H   0  0  0  0  0  0  0  0  0  0  0  0
   -2.0134   27.7651  -24.7200 H   0  0  0  0  0  0  0  0  0  0  0  0
   -1.1604   28.4173  -26.1047 H   0  0  0  0  0  0  0  0  0  0  0  0
   -1.7394   26.4571  -27.3014 H   0  0  0  0  0  0  0  0  0  0  0  0
   -2.8498   25.5841  -24.6190 H   0  0  0  0  0  0  0  0  0  0  0  0
   -3.7263   26.1471  -26.0824 H   0  0  0  0  0  0  0  0  0  0  0  0
   -2.9150   24.5444  -26.0824 H   0  0  0  0  0  0  0  0  0  0  0  0
   -4.8728   22.1222  -32.6684 H   0  0  0  0  0  0  0  0  0  0  0  0
   -5.5655   19.0608  -31.8433 H   0  0  0  0  0  0  0  0  0  0  0  0
   -6.5554   18.9782  -33.3399 H   0  0  0  0  0  0  0  0  0  0  0  0
   -5.0009   19.8782  -33.3399 H   0  0  0  0  0  0  0  0  0  0  0  0
  1  2  1  0
  2  3  2  0
  3  4  1  0
  4  5  2  0
  5  6  1  0
  6  7  1  0
  7  8  2  0
  7  9  1  0
  9 10  1  0
 10 11  2  0
 11 12  1  0
 12 13  2  0
 13 14  1  0
 14 15  1  0
 15 16  2  0
 15 17  2  0
 15 18  1  0
 18 19  1  0
 19 20  2  0
 20 21  1  0
 21 22  2  0
 22 23  1  0
 23 24  2  0
 24 25  1  0
 25 26  1  0
 26 27  1  0
 14 28  2  0
 28 29  1  0
  5 30  1  0
 30 31  2  0
 31 32  1  0
 31  2  1  0
 28 10  1  0
 26 18  1  0
 24 19  1  0
  1 33  1  0
  1 34  1  0
  1 35  1  0
  3 36  1  0
  4 37  1  0
 11 38  1  0
 12 39  1  0
 13 40  1  0
 20 41  1  0
 21 42  1  0
 22 43  1  0
 23 44  1  0
 25 45  1  0
 25 46  1  0
 26 47  1  6
 27 48  1  0
 27 49  1  0
 27 50  1  0
 30 51  1  0
 32 52  1  0
 32 53  1  0
 32 54  1  0
M  CHG  3   6  -1   9  -1  29  -1
M  END
>  <UniqueID>  (12) 
12

>  <SMILES>  (12) 
Cc1ccc([N-]C(=O)[N-]c2cccc(S(=O)(=O)N3c4ccccc4C[C@@H]3C)c2[O-])cc1C

>  <Energy>  (12) 
80.42557682941225

>  <Genealogy>  (12) 
Cc1ccc([N-]C(=O)[N-]c2cccc(S(=O)(=O)N3c4ccccc4CC3C)c2[O-])cc1C (protonated)
Cc1ccc([N-]C(=O)[N-]c2cccc(S(=O)(=O)N3c4ccccc4C[C@@H]3C)c2[O-])cc1C (chirality)
Cc1ccc([N-]C(=O)[N-]c2cccc(S(=O)(=O)N3c4ccccc4C[C@@H]3C)c2[O-])cc1C (3D coordinates assigned)
Cc1ccc([N-]C(=O)[N-]c2cccc(S(=O)(=O)N3c4ccccc4C[C@@H]3C)c2[O-])cc1C (nonaromatic ring conformer: 80.42557682941225 kcal/mol)

>  <smiles>  (12) 
Cc1ccc(NC(=O)Nc2cccc(S(=O)(=O)N3c4ccccc4CC3C)c2O)cc1C

>  <score_type>  (12) 
oracle

>  <origin>  (12) 
adgpu

>  <m_score__min__energy>  (12) 
-16.010000000000002

>  <m_primary>  (12) 
energy

$$$$
12:0
     RDKit          3D

 36 38  0  0  0  0  0  0  0  0999 V2000
   -7.2430   22.9150  -29.6560 O   0  0  0  0  0  0  0  0  0  0  0  0
   -6.2680   23.8730  -30.2800 S   0  0  0  0  0  0  0  0  0  0  0  0
   -6.8660   25.2520  -30.2700 O   0  0  0  0  0  0  0  0  0  0  0  0
   -5.9890   23.4020  -31.9280 N   0  0  0  0  0  0  0  0  0  0  0  0
   -5.4010   22.1810  -32.4090 C   0  0  0  0  0  0  0  0  0  0  0  0
   -6.2760   21.1830  -32.8580 C   0  0  0  0  0  0  0  0  0  0  0  0
   -5.7880   19.9710  -33.3630 C   0  0  0  0  0  0  0  0  0  0  0  0
   -4.4020   19.7520  -33.4380 C   0  0  0  0  0  0  0  0  0  0  0  0
   -3.5220   20.7310  -32.9590 C   0  0  0  0  0  0  0  0  0  0  0  0
   -4.0080   21.9420  -32.4420 C   0  0  0  0  0  0  0  0  0  0  0  0
   -3.1010   22.8780  -31.9530 O   0  0  0  0  0  0  0  0  0  0  0  0
   -3.8620   18.4380  -33.9480 C   0  0  0  0  0  0  0  0  0  0  0  0
   -4.8520   17.7480  -34.8950 C   0  0  0  0  0  0  0  0  0  0  0  0
   -6.2330   17.6460  -34.2450 C   0  0  0  0  0  0  0  0  0  0  0  0
   -6.7020   18.9700  -33.8380 N   0  0  0  0  0  0  0  0  0  0  0  0
   -4.7480   23.9210  -29.3810 C   0  0  0  0  0  0  0  0  0  0  0  0
   -4.5550   23.0440  -28.3020 C   0  0  0  0  0  0  0  0  0  0  0  0
   -3.3640   23.0740  -27.5720 C   0  0  0  0  0  0  0  0  0  0  0  0
   -2.3540   23.9730  -27.9180 C   0  0  0  0  0  0  0  0  0  0  0  0
   -2.5290   24.8410  -29.0000 C   0  0  0  0  0  0  0  0  0  0  0  0
   -1.5150   25.7280  -29.3430 O   0  0  0  0  0  0  0  0  0  0  0  0
   -3.7210   24.8170  -29.7350 C   0  0  0  0  0  0  0  0  0  0  0  0
   -3.8740   25.6780  -30.8170 O   0  0  0  0  0  0  0  0  0  0  0  0
   -7.3617   21.3537  -32.8133 H   0  0  0  0  0  0  0  0  0  0  0  0
   -2.4376   20.5486  -32.9884 H   0  0  0  0  0  0  0  0  0  0  0  0
   -3.3570   23.8480  -31.8140 H   0  0  0  0  0  0  0  0  0  0  0  0
   -2.9222   18.6243  -34.4885 H   0  0  0  0  0  0  0  0  0  0  0  0
   -3.6953   17.7771  -33.0846 H   0  0  0  0  0  0  0  0  0  0  0  0
   -4.9314   18.3319  -35.8238 H   0  0  0  0  0  0  0  0  0  0  0  0
   -4.4864   16.7340  -35.1145 H   0  0  0  0  0  0  0  0  0  0  0  0
   -6.9428   17.2158  -34.9668 H   0  0  0  0  0  0  0  0  0  0  0  0
   -6.1630   17.0025  -33.3556 H   0  0  0  0  0  0  0  0  0  0  0  0
   -7.7300   19.1570  -33.8360 H   0  0  0  0  0  0  0  0  0  0  0  0
   -5.3456   22.3293  -28.0297 H   0  0  0  0  0  0  0  0  0  0  0  0
   -3.2222   22.3883  -26.7236 H   0  0  0  0  0  0  0  0  0  0  0  0
   -1.4192   23.9986  -27.3387 H   0  0  0  0  0  0  0  0  0  0  0  0
  1  2  2  0
  2  3  2  0
  2  4  1  0
  4  5  1  0
  5  6  2  0
  6  7  1  0
  7  8  2  0
  8  9  1  0
  9 10  2  0
 10 11  1  0
  8 12  1  0
 12 13  1  0
 13 14  1  0
 14 15  1  0
  2 16  1  0
 16 17  2  0
 17 18  1  0
 18 19  2  0
 19 20  1  0
 20 21  1  0
 20 22  2  0
 22 23  1  0
 10  5  1  0
 22 16  1  0
 15  7  1  0
  6 24  1  0
  9 25  1  0
 11 26  1  0
 12 27  1  0
 12 28  1  0
 13 29  1  0
 13 30  1  0
 14 31  1  0
 14 32  1  0
 15 33  1  0
 17 34  1  0
 18 35  1  0
 19 36  1  0
M  CHG  3   4  -1  21  -1  23  -1
M  END
>  <UniqueID>  (13) 
13

>  <SMILES>  (13) 
O=S(=O)([N-]c1cc2c(cc1O)CCCN2)c1cccc([O-])c1[O-]

>  <Energy>  (13) 
43.868732421596825

>  <Genealogy>  (13) 
O=S(=O)([N-]c1cc2c(cc1O)CCCN2)c1cccc([O-])c1[O-] (protonated)
O=S(=O)([N-]c1cc2c(cc1O)CCCN2)c1cccc([O-])c1[O-] (3D coordinates assigned)
O=S(=O)([N-]c1cc2c(cc1O)CCCN2)c1cccc([O-])c1[O-] (nonaromatic ring conformer: 43.868732421596825 kcal/mol)

>  <smiles>  (13) 
O=S(=O)(Nc1cc2c(cc1O)CCCN2)c1cccc(O)c1O

>  <score_type>  (13) 
oracle

>  <origin>  (13) 
adgpu

>  <m_score__min__energy>  (13) 
-14.470000000000001

>  <m_primary>  (13) 
energy

$$$$
13:0
     RDKit          3D

 46 50  0  0  0  0  0  0  0  0999 V2000
   -0.1680   21.1870  -32.3490 O   0  0  0  0  0  0  0  0  0  0  0  0
   -1.1730   20.3790  -31.5780 S   0  0  0  0  0  0  0  0  0  0  0  0
   -0.4320   19.4740  -30.6330 O   0  0  0  0  0  0  0  0  0  0  0  0
   -2.2390   21.4450  -30.6720 C   0  0  0  0  0  0  0  0  0  0  0  0
   -2.6500   21.0870  -29.3620 C   0  0  0  0  0  0  0  0  0  0  0  0
   -3.4850   21.9380  -28.6140 C   0  0  0  0  0  0  0  0  0  0  0  0
   -3.8800   23.1320  -29.2070 C   0  0  0  0  0  0  0  0  0  0  0  0
   -4.6680   24.1670  -28.7630 C   0  0  0  0  0  0  0  0  0  0  0  0
   -4.7150   25.0880  -29.7530 N   0  0  0  0  0  0  0  0  0  0  0  0
   -3.9950   24.6870  -30.7960 N   0  0  0  0  0  0  0  0  0  0  0  0
   -3.4830   23.4880  -30.4650 C   0  0  0  0  0  0  0  0  0  0  0  0
   -2.6570   22.6720  -31.2330 C   0  0  0  0  0  0  0  0  0  0  0  0
   -2.1310   19.4180  -32.6870 C   0  0  0  0  0  0  0  0  0  0  0  0
   -1.6530   18.6540  -33.7350 C   0  0  0  0  0  0  0  0  0  0  0  0
   -2.7630   18.0670  -34.3130 C   0  0  0  0  0  0  0  0  0  0  0  0
   -3.8710   18.4440  -33.6470 N   0  0  0  0  0  0  0  0  0  0  0  0
   -5.4960   17.9900  -34.0310 S   0  0  0  0  0  0  0  0  0  0  0  0
   -5.7470   16.5800  -33.5750 O   0  0  0  0  0  0  0  0  0  0  0  0
   -5.7010   18.0490  -35.5190 O   0  0  0  0  0  0  0  0  0  0  0  0
   -6.6070   19.0900  -33.2240 C   0  0  0  0  0  0  0  0  0  0  0  0
   -7.8220   18.6110  -32.6930 C   0  0  0  0  0  0  0  0  0  0  0  0
   -8.7180   19.4950  -32.0720 C   0  0  0  0  0  0  0  0  0  0  0  0
   -8.3840   20.8490  -31.9950 C   0  0  0  0  0  0  0  0  0  0  0  0
   -7.2060   21.3180  -32.5170 C   0  0  0  0  0  0  0  0  0  0  0  0
   -6.2990   20.4590  -33.1410 C   0  0  0  0  0  0  0  0  0  0  0  0
   -7.0610   22.7800  -32.3380 C   0  0  0  0  0  0  0  0  0  0  0  0
   -8.3440   23.1960  -31.5930 C   0  0  0  0  0  0  0  0  0  0  0  0
   -9.1960   21.9280  -31.3890 C   0  0  0  0  0  0  0  0  0  0  0  0
   -3.5000   19.2700  -32.6550 C   0  0  0  0  0  0  0  0  0  0  0  0
   -2.3127   20.1348  -28.9266 H   0  0  0  0  0  0  0  0  0  0  0  0
   -3.8126   21.6688  -27.5990 H   0  0  0  0  0  0  0  0  0  0  0  0
   -5.1673   24.2340  -27.7851 H   0  0  0  0  0  0  0  0  0  0  0  0
   -5.2360   25.9920  -29.7170 H   0  0  0  0  0  0  0  0  0  0  0  0
   -2.3405   22.9727  -32.2427 H   0  0  0  0  0  0  0  0  0  0  0  0
   -0.6042   18.5371  -34.0455 H   0  0  0  0  0  0  0  0  0  0  0  0
   -2.7441   17.3949  -35.1836 H   0  0  0  0  0  0  0  0  0  0  0  0
   -8.0685   17.5414  -32.7656 H   0  0  0  0  0  0  0  0  0  0  0  0
   -9.6666   19.1279  -31.6533 H   0  0  0  0  0  0  0  0  0  0  0  0
   -5.3592   20.8472  -33.5606 H   0  0  0  0  0  0  0  0  0  0  0  0
   -6.1684   23.0135  -31.7390 H   0  0  0  0  0  0  0  0  0  0  0  0
   -6.9356   23.3120  -33.2926 H   0  0  0  0  0  0  0  0  0  0  0  0
   -8.0860   23.6354  -30.6182 H   0  0  0  0  0  0  0  0  0  0  0  0
   -8.9012   23.9468  -32.1725 H   0  0  0  0  0  0  0  0  0  0  0  0
   -9.3631   21.7373  -30.3186 H   0  0  0  0  0  0  0  0  0  0  0  0
  -10.1946   22.0117  -31.8426 H   0  0  0  0  0  0  0  0  0  0  0  0
   -4.1787   19.7500  -31.9346 H   0  0  0  0  0  0  0  0  0  0  0  0
  1  2  2  0
  2  3  2  0
  2  4  1  0
  4  5  1  0
  5  6  2  0
  6  7  1  0
  7  8  2  0
  8  9  1  0
  9 10  1  0
 10 11  2  0
 11 12  1  0
  2 13  1  0
 13 14  1  0
 14 15  2  0
 15 16  1  0
 16 17  1  0
 17 18  2  0
 17 19  2  0
 17 20  1  0
 20 21  2  0
 21 22  1  0
 22 23  2  0
 23 24  1  0
 24 25  2  0
 24 26  1  0
 26 27  1  0
 27 28  1  0
 16 29  1  0
 12  4  2  0
 29 13  2  0
 11  7  1  0
 25 20  1  0
 28 23  1  0
  5 30  1  0
  6 31  1  0
  8 32  1  0
  9 33  1  0
 12 34  1  0
 14 35  1  0
 15 36  1  0
 21 37  1  0
 22 38  1  0
 25 39  1  0
 26 40  1  0
 26 41  1  0
 27 42  1  0
 27 43  1  0
 28 44  1  0
 28 45  1  0
 29 46  1  0
M  END
>  <UniqueID>  (14) 
14

>  <SMILES>  (14) 
O=S(=O)(c1ccc2c[nH]nc2c1)c1ccn(S(=O)(=O)c2ccc3c(c2)CCC3)c1

>  <Energy>  (14) 
126.05233464080355

>  <Genealogy>  (14) 
O=S(=O)(c1ccc2c[nH]nc2c1)c1ccn(S(=O)(=O)c2ccc3c(c2)CCC3)c1 (3D coordinates assigned)
O=S(=O)(c1ccc2c[nH]nc2c1)c1ccn(S(=O)(=O)c2ccc3c(c2)CCC3)c1 (nonaromatic ring conformer: 126.05233464080355 kcal/mol)

>  <smiles>  (14) 
O=S(=O)(c1ccc2c[nH]nc2c1)c1ccn(S(=O)(=O)c2ccc3c(c2)CCC3)c1

>  <score_type>  (14) 
oracle

>  <origin>  (14) 
adgpu

>  <m_score__min__energy>  (14) 
-10.83

>  <m_primary>  (14) 
energy

$$$$
14:0
     RDKit          3D

 53 56  0  0  0  0  0  0  0  0999 V2000
   -9.6920   19.3200  -32.9840 O   0  0  0  0  0  0  0  0  0  0  0  0
   -8.5920   19.8700  -32.7000 C   0  0  0  0  0  0  0  0  0  0  0  0
   -8.5650   21.1890  -32.1280 N   0  0  0  0  0  0  0  0  0  0  0  0
   -7.5250   21.7880  -31.6270 C   0  0  0  0  0  0  0  0  0  0  0  0
   -6.2850   21.2490  -31.5730 N   0  0  0  0  0  0  0  0  0  0  0  0
   -5.3960   22.1020  -30.9980 C   0  0  0  0  0  0  0  0  0  0  0  0
   -5.9390   23.3150  -30.5990 C   0  0  0  0  0  0  0  0  0  0  0  0
   -5.0610   24.6180  -29.8230 S   0  0  0  0  0  0  0  0  0  0  0  0
   -5.9970   25.4230  -28.9650 O   0  0  0  0  0  0  0  0  0  0  0  0
   -4.4730   25.5220  -30.8690 O   0  0  0  0  0  0  0  0  0  0  0  0
   -3.7890   23.9390  -28.8130 C   0  0  0  0  0  0  0  0  0  0  0  0
   -3.9390   22.6600  -28.2630 C   0  0  0  0  0  0  0  0  0  0  0  0
   -2.9290   22.1160  -27.4680 C   0  0  0  0  0  0  0  0  0  0  0  0
   -1.7570   22.8390  -27.2270 C   0  0  0  0  0  0  0  0  0  0  0  0
   -1.5770   24.1100  -27.8000 C   0  0  0  0  0  0  0  0  0  0  0  0
   -0.3320   24.9120  -27.5090 C   0  0  0  0  0  0  0  0  0  0  0  0
   -0.4570   26.2030  -27.9930 F   0  0  0  0  0  0  0  0  0  0  0  0
    0.7520   24.3050  -28.1170 F   0  0  0  0  0  0  0  0  0  0  0  0
   -0.1050   24.9820  -26.1460 F   0  0  0  0  0  0  0  0  0  0  0  0
   -2.6110   24.6620  -28.5790 C   0  0  0  0  0  0  0  0  0  0  0  0
   -7.5790   23.3360  -30.9700 S   0  0  0  0  0  0  0  0  0  0  0  0
   -7.3230   19.1520  -32.9600 C   0  0  0  0  0  0  0  0  0  0  0  0
   -6.4850   19.5440  -34.0210 C   0  0  0  0  0  0  0  0  0  0  0  0
   -5.2890   18.8640  -34.2690 C   0  0  0  0  0  0  0  0  0  0  0  0
   -4.9120   17.7830  -33.4660 C   0  0  0  0  0  0  0  0  0  0  0  0
   -3.3930   16.9490  -33.7860 S   0  0  0  0  0  0  0  0  0  0  0  0
   -3.0610   17.1090  -35.2430 O   0  0  0  0  0  0  0  0  0  0  0  0
   -3.5390   15.4830  -33.4840 O   0  0  0  0  0  0  0  0  0  0  0  0
   -2.1350   17.6590  -32.7960 N   0  0  0  0  0  0  0  0  0  0  0  0
   -2.4850   19.0250  -32.3650 C   0  0  0  0  0  0  0  0  0  0  0  0
   -2.3570   20.0540  -33.5150 C   0  0  0  0  0  0  0  0  0  0  0  0
   -1.5760   19.5930  -34.6050 O   0  0  0  0  0  0  0  0  0  0  0  0
   -0.4250   18.9290  -34.1330 C   0  0  0  0  0  0  0  0  0  0  0  0
   -0.8120   17.6010  -33.4570 C   0  0  0  0  0  0  0  0  0  0  0  0
   -5.7370   17.3890  -32.4040 C   0  0  0  0  0  0  0  0  0  0  0  0
   -6.9340   18.0670  -32.1540 C   0  0  0  0  0  0  0  0  0  0  0  0
   -4.3338   21.8512  -30.8604 H   0  0  0  0  0  0  0  0  0  0  0  0
   -4.8549   22.0828  -28.4579 H   0  0  0  0  0  0  0  0  0  0  0  0
   -3.0556   21.1151  -27.0296 H   0  0  0  0  0  0  0  0  0  0  0  0
   -0.9720   22.4113  -26.5860 H   0  0  0  0  0  0  0  0  0  0  0  0
   -2.4939   25.6683  -29.0075 H   0  0  0  0  0  0  0  0  0  0  0  0
   -6.7734   20.3918  -34.6598 H   0  0  0  0  0  0  0  0  0  0  0  0
   -4.6414   19.1808  -35.0998 H   0  0  0  0  0  0  0  0  0  0  0  0
   -3.5236   19.0266  -32.0027 H   0  0  0  0  0  0  0  0  0  0  0  0
   -1.7825   19.3181  -31.5709 H   0  0  0  0  0  0  0  0  0  0  0  0
   -3.3658   20.2893  -33.8850 H   0  0  0  0  0  0  0  0  0  0  0  0
   -1.8462   20.9366  -33.1027 H   0  0  0  0  0  0  0  0  0  0  0  0
    0.2473   18.7229  -34.9789 H   0  0  0  0  0  0  0  0  0  0  0  0
    0.0808   19.5707  -33.3965 H   0  0  0  0  0  0  0  0  0  0  0  0
   -0.8355   16.8108  -34.2219 H   0  0  0  0  0  0  0  0  0  0  0  0
   -0.0618   17.3937  -32.6797 H   0  0  0  0  0  0  0  0  0  0  0  0
   -5.4420   16.5436  -31.7650 H   0  0  0  0  0  0  0  0  0  0  0  0
   -7.5769   17.7491  -31.3199 H   0  0  0  0  0  0  0  0  0  0  0  0
  1  2  2  0
  2  3  1  0
  3  4  2  3
  4  5  1  0
  5  6  1  0
  6  7  2  0
  7  8  1  0
  8  9  2  0
  8 10  2  0
  8 11  1  0
 11 12  2  0
 12 13  1  0
 13 14  2  0
 14 15  1  0
 15 16  1  0
 16 17  1  0
 16 18  1  0
 16 19  1  0
 15 20  2  0
  7 21  1  0
  2 22  1  0
 22 23  2  0
 23 24  1  0
 24 25  2  0
 25 26  1  0
 26 27  2  0
 26 28  2  0
 26 29  1  0
 29 30  1  0
 30 31  1  0
 31 32  1  0
 32 33  1  0
 33 34  1  0
 25 35  1  0
 35 36  2  0
 21  4  1  0
 36 22  1  0
 20 11  1  0
 34 29  1  0
  6 37  1  0
 12 38  1  0
 13 39  1  0
 14 40  1  0
 20 41  1  0
 23 42  1  0
 24 43  1  0
 30 44  1  0
 30 45  1  0
 31 46  1  0
 31 47  1  0
 33 48  1  0
 33 49  1  0
 34 50  1  0
 34 51  1  0
 35 52  1  0
 36 53  1  0
M  CHG  1   5  -1
M  END
>  <UniqueID>  (15) 
15

>  <SMILES>  (15) 
O=C(N=c1[n-]cc(S(=O)(=O)c2cccc(C(F)(F)F)c2)s1)c1ccc(S(=O)(=O)N2CCOCC2)cc1

>  <Energy>  (15) 
103.21662411086317

>  <Genealogy>  (15) 
O=C(N=c1[n-]cc(S(=O)(=O)c2cccc(C(F)(F)F)c2)s1)c1ccc(S(=O)(=O)N2CCOCC2)cc1 (protonated)
O=C(N=c1[n-]cc(S(=O)(=O)c2cccc(C(F)(F)F)c2)s1)c1ccc(S(=O)(=O)N2CCOCC2)cc1 (3D coordinates assigned)
O=C(N=c1[n-]cc(S(=O)(=O)c2cccc(C(F)(F)F)c2)s1)c1ccc(S(=O)(=O)N2CCOCC2)cc1 (nonaromatic ring conformer: 103.21662411086317 kcal/mol)

>  <smiles>  (15) 
O=C(N=c1[nH]cc(S(=O)(=O)c2cccc(C(F)(F)F)c2)s1)c1ccc(S(=O)(=O)N2CCOCC2)cc1

>  <score_type>  (15) 
oracle

>  <origin>  (15) 
adgpu

>  <m_score__min__energy>  (15) 
-11.26

>  <m_primary>  (15) 
energy

$$$$
15:0
     RDKit          3D

 58 62  0  0  0  0  0  0  0  0999 V2000
   -6.1630   18.0920  -31.8300 C   0  0  0  0  0  0  0  0  0  0  0  0
   -7.0250   18.9250  -32.6860 N   0  0  0  0  0  0  0  0  0  0  0  0
   -6.2380   19.6900  -33.6790 C   0  0  0  0  0  0  0  0  0  0  0  0
   -5.4650   20.8440  -33.0280 C   0  0  0  0  0  0  0  0  0  0  0  0
   -6.3270   21.5800  -32.1020 N   0  0  0  0  0  0  0  0  0  0  0  0
   -5.7890   22.6820  -31.3580 C   0  0  0  0  0  0  0  0  0  0  0  0
   -6.3870   23.9410  -31.4880 C   0  0  0  0  0  0  0  0  0  0  0  0
   -5.8430   25.0540  -30.8450 C   0  0  0  0  0  0  0  0  0  0  0  0
   -4.6860   24.9270  -30.0770 C   0  0  0  0  0  0  0  0  0  0  0  0
   -4.0700   23.6750  -29.9320 C   0  0  0  0  0  0  0  0  0  0  0  0
   -2.8790   23.5520  -29.2000 C   0  0  0  0  0  0  0  0  0  0  0  0
   -2.2440   22.3100  -29.0830 C   0  0  0  0  0  0  0  0  0  0  0  0
   -0.6210   22.2290  -28.3980 S   0  0  0  0  0  0  0  0  0  0  0  0
    0.2260   21.2380  -29.1500 O   0  0  0  0  0  0  0  0  0  0  0  0
   -0.7270   21.8040  -26.9640 O   0  0  0  0  0  0  0  0  0  0  0  0
    0.1290   23.7900  -28.4770 N   0  0  0  0  0  0  0  0  0  0  0  0
   -0.1280   24.8690  -27.5660 C   0  0  0  0  0  0  0  0  0  0  0  0
    0.2910   24.8190  -26.2250 C   0  0  0  0  0  0  0  0  0  0  0  0
    0.1750   25.9420  -25.3960 C   0  0  0  0  0  0  0  0  0  0  0  0
   -0.4070   27.1200  -25.9020 C   0  0  0  0  0  0  0  0  0  0  0  0
   -0.9180   27.1360  -27.2090 C   0  0  0  0  0  0  0  0  0  0  0  0
   -0.7670   26.0220  -28.0410 C   0  0  0  0  0  0  0  0  0  0  0  0
   -1.2370   26.0750  -29.3490 O   0  0  0  0  0  0  0  0  0  0  0  0
   -0.5610   28.3330  -25.0210 C   0  0  0  0  0  0  0  0  0  0  0  0
    0.4450   28.3450  -23.9520 N   0  0  0  0  0  0  0  0  0  0  0  0
    0.3730   27.1060  -23.1680 C   0  0  0  0  0  0  0  0  0  0  0  0
    0.8020   25.9130  -24.0260 C   0  0  0  0  0  0  0  0  0  0  0  0
   -2.8350   21.1720  -29.6460 C   0  0  0  0  0  0  0  0  0  0  0  0
   -4.0170   21.2800  -30.3800 C   0  0  0  0  0  0  0  0  0  0  0  0
   -4.6320   22.5330  -30.5590 C   0  0  0  0  0  0  0  0  0  0  0  0
   -7.7550   21.2700  -32.0200 C   0  0  0  0  0  0  0  0  0  0  0  0
   -7.9670   19.7510  -31.8830 C   0  0  0  0  0  0  0  0  0  0  0  0
   -6.3818   18.3035  -30.7729 H   0  0  0  0  0  0  0  0  0  0  0  0
   -6.3559   17.0294  -32.0389 H   0  0  0  0  0  0  0  0  0  0  0  0
   -5.1076   18.3211  -32.0389 H   0  0  0  0  0  0  0  0  0  0  0  0
   -5.5216   19.0111  -34.1647 H   0  0  0  0  0  0  0  0  0  0  0  0
   -6.9373   20.1182  -34.4123 H   0  0  0  0  0  0  0  0  0  0  0  0
   -4.6045   20.4376  -32.4762 H   0  0  0  0  0  0  0  0  0  0  0  0
   -5.1205   21.5305  -33.8154 H   0  0  0  0  0  0  0  0  0  0  0  0
   -7.2928   24.0541  -32.1018 H   0  0  0  0  0  0  0  0  0  0  0  0
   -6.3291   26.0357  -30.9445 H   0  0  0  0  0  0  0  0  0  0  0  0
   -4.2553   25.8108  -29.5836 H   0  0  0  0  0  0  0  0  0  0  0  0
   -2.4417   24.4372  -28.7151 H   0  0  0  0  0  0  0  0  0  0  0  0
    0.7148   23.8873  -25.8222 H   0  0  0  0  0  0  0  0  0  0  0  0
   -1.4402   28.0298  -27.5811 H   0  0  0  0  0  0  0  0  0  0  0  0
   -0.4436   29.2387  -25.6341 H   0  0  0  0  0  0  0  0  0  0  0  0
   -1.5590   28.3032  -24.5593 H   0  0  0  0  0  0  0  0  0  0  0  0
    0.2190   29.1420  -23.3110 H   0  0  0  0  0  0  0  0  0  0  0  0
    1.0412   27.1870  -22.2979 H   0  0  0  0  0  0  0  0  0  0  0  0
   -0.6632   26.9530  -22.8322 H   0  0  0  0  0  0  0  0  0  0  0  0
    1.8962   25.9317  -24.1368 H   0  0  0  0  0  0  0  0  0  0  0  0
    0.4663   24.9955  -23.5205 H   0  0  0  0  0  0  0  0  0  0  0  0
   -2.3647   20.1871  -29.5088 H   0  0  0  0  0  0  0  0  0  0  0  0
   -4.4707   20.3803  -30.8213 H   0  0  0  0  0  0  0  0  0  0  0  0
   -8.1863   21.7767  -31.1441 H   0  0  0  0  0  0  0  0  0  0  0  0
   -8.2492   21.6180  -32.9390 H   0  0  0  0  0  0  0  0  0  0  0  0
   -7.8450   19.4805  -30.8238 H   0  0  0  0  0  0  0  0  0  0  0  0
   -8.9762   19.5386  -32.2657 H   0  0  0  0  0  0  0  0  0  0  0  0
  1  2  1  0
  2  3  1  0
  3  4  1  0
  4  5  1  0
  5  6  1  0
  6  7  2  0
  7  8  1  0
  8  9  2  0
  9 10  1  0
 10 11  2  0
 11 12  1  0
 12 13  1  0
 13 14  2  0
 13 15  2  0
 13 16  1  0
 16 17  1  0
 17 18  2  0
 18 19  1  0
 19 20  2  0
 20 21  1  0
 21 22  2  0
 22 23  1  0
 20 24  1  0
 24 25  1  0
 25 26  1  0
 26 27  1  0
 12 28  2  0
 28 29  1  0
 29 30  2  0
  5 31  1  0
 31 32  1  0
 32  2  1  0
 30  6  1  0
 30 10  1  0
 22 17  1  0
 27 19  1  0
  1 33  1  0
  1 34  1  0
  1 35  1  0
  3 36  1  0
  3 37  1  0
  4 38  1  0
  4 39  1  0
  7 40  1  0
  8 41  1  0
  9 42  1  0
 11 43  1  0
 18 44  1  0
 21 45  1  0
 24 46  1  0
 24 47  1  0
 25 48  1  0
 26 49  1  0
 26 50  1  0
 27 51  1  0
 27 52  1  0
 28 53  1  0
 29 54  1  0
 31 55  1  0
 31 56  1  0
 32 57  1  0
 32 58  1  0
M  CHG  2  16  -1  23  -1
M  END
>  <UniqueID>  (16) 
16

>  <SMILES>  (16) 
CN1CCN(c2cccc3cc(S(=O)(=O)[N-]c4cc5c(cc4[O-])CNCC5)ccc23)CC1

>  <Energy>  (16) 
83.99343818521419

>  <Genealogy>  (16) 
CN1CCN(c2cccc3cc(S(=O)(=O)[N-]c4cc5c(cc4[O-])CNCC5)ccc23)CC1 (protonated)
CN1CCN(c2cccc3cc(S(=O)(=O)[N-]c4cc5c(cc4[O-])CNCC5)ccc23)CC1 (3D coordinates assigned)
CN1CCN(c2cccc3cc(S(=O)(=O)[N-]c4cc5c(cc4[O-])CNCC5)ccc23)CC1 (nonaromatic ring conformer: 83.99343818521419 kcal/mol)

>  <smiles>  (16) 
CN1CCN(c2cccc3cc(S(=O)(=O)Nc4cc5c(cc4O)CNCC5)ccc23)CC1

>  <score_type>  (16) 
oracle

>  <origin>  (16) 
adgpu

>  <m_score__min__energy>  (16) 
-16.530000000000001

>  <m_primary>  (16) 
energy

$$$$
16:0
     RDKit          3D

 48 51  0  0  0  0  0  0  0  0999 V2000
   -1.9950   25.4320  -28.8710 O   0  0  0  0  0  0  0  0  0  0  0  0
   -1.4930   24.3250  -28.5340 C   0  0  0  0  0  0  0  0  0  0  0  0
   -0.1940   24.3080  -27.8020 C   0  0  0  0  0  0  0  0  0  0  0  0
   -0.3110   23.1890  -26.4360 S   0  0  0  0  0  0  0  0  0  0  0  0
    1.0600   22.6730  -26.1010 O   0  0  0  0  0  0  0  0  0  0  0  0
   -0.8930   23.9030  -25.2480 O   0  0  0  0  0  0  0  0  0  0  0  0
   -1.3590   21.8610  -26.8990 C   0  0  0  0  0  0  0  0  0  0  0  0
   -1.4150   20.7300  -26.0730 C   0  0  0  0  0  0  0  0  0  0  0  0
   -2.2610   19.6680  -26.3880 C   0  0  0  0  0  0  0  0  0  0  0  0
   -3.0700   19.7330  -27.5210 C   0  0  0  0  0  0  0  0  0  0  0  0
   -3.0260   20.8580  -28.3480 C   0  0  0  0  0  0  0  0  0  0  0  0
   -2.1550   21.9340  -28.0670 C   0  0  0  0  0  0  0  0  0  0  0  0
   -2.1160   23.0930  -28.9440 N   0  0  0  0  0  0  0  0  0  0  0  0
   -2.5750   23.0030  -30.3070 C   0  0  0  0  0  0  0  0  0  0  0  0
   -1.7630   22.6720  -31.2130 O   0  0  0  0  0  0  0  0  0  0  0  0
   -4.0110   23.1840  -30.6290 C   0  0  0  0  0  0  0  0  0  0  0  0
   -4.7880   22.0410  -30.8890 C   0  0  0  0  0  0  0  0  0  0  0  0
   -6.1260   22.1520  -31.2810 C   0  0  0  0  0  0  0  0  0  0  0  0
   -7.0640   20.7020  -31.6410 S   0  0  0  0  0  0  0  0  0  0  0  0
   -8.2340   20.6270  -30.7000 O   0  0  0  0  0  0  0  0  0  0  0  0
   -7.6020   20.7960  -33.0410 O   0  0  0  0  0  0  0  0  0  0  0  0
   -6.1020   19.2450  -31.4970 N   0  0  0  0  0  0  0  0  0  0  0  0
   -6.9450   18.0480  -31.5760 C   0  0  0  0  0  0  0  0  0  0  0  0
   -6.9020   17.5300  -33.0050 C   0  0  0  0  0  0  0  0  0  0  0  0
   -5.6740   18.1650  -33.6300 C   0  0  0  0  0  0  0  0  0  0  0  0
   -5.1290   19.1340  -32.5900 C   0  0  0  0  0  0  0  0  0  0  0  0
   -6.7040   23.4200  -31.4060 C   0  0  0  0  0  0  0  0  0  0  0  0
   -5.9540   24.5640  -31.1270 C   0  0  0  0  0  0  0  0  0  0  0  0
   -4.6190   24.4610  -30.7200 C   0  0  0  0  0  0  0  0  0  0  0  0
   -3.9480   25.6390  -30.3850 O   0  0  0  0  0  0  0  0  0  0  0  0
    0.6064   23.9780  -28.4805 H   0  0  0  0  0  0  0  0  0  0  0  0
    0.0360   25.3186  -27.4335 H   0  0  0  0  0  0  0  0  0  0  0  0
   -0.7876   20.6802  -25.1708 H   0  0  0  0  0  0  0  0  0  0  0  0
   -2.2902   18.7781  -25.7420 H   0  0  0  0  0  0  0  0  0  0  0  0
   -3.7435   18.8980  -27.7642 H   0  0  0  0  0  0  0  0  0  0  0  0
   -3.6796   20.9067  -29.2315 H   0  0  0  0  0  0  0  0  0  0  0  0
   -4.3362   21.0437  -30.7824 H   0  0  0  0  0  0  0  0  0  0  0  0
   -6.5637   17.2780  -30.8892 H   0  0  0  0  0  0  0  0  0  0  0  0
   -7.9791   18.2921  -31.2913 H   0  0  0  0  0  0  0  0  0  0  0  0
   -6.8144   16.4335  -33.0139 H   0  0  0  0  0  0  0  0  0  0  0  0
   -7.8184   17.7830  -33.5583 H   0  0  0  0  0  0  0  0  0  0  0  0
   -4.9240   17.3958  -33.8662 H   0  0  0  0  0  0  0  0  0  0  0  0
   -5.9202   18.6793  -34.5707 H   0  0  0  0  0  0  0  0  0  0  0  0
   -4.1728   18.7573  -32.1979 H   0  0  0  0  0  0  0  0  0  0  0  0
   -4.9632   20.1209  -33.0468 H   0  0  0  0  0  0  0  0  0  0  0  0
   -7.7524   23.5158  -31.7250 H   0  0  0  0  0  0  0  0  0  0  0  0
   -6.4172   25.5566  -31.2281 H   0  0  0  0  0  0  0  0  0  0  0  0
   -2.9600   25.6740  -30.1700 H   0  0  0  0  0  0  0  0  0  0  0  0
  1  2  2  0
  2  3  1  0
  3  4  1  0
  4  5  2  0
  4  6  2  0
  4  7  1  0
  7  8  2  0
  8  9  1  0
  9 10  2  0
 10 11  1  0
 11 12  2  0
 12 13  1  0
 13 14  1  0
 14 15  2  0
 14 16  1  0
 16 17  2  0
 17 18  1  0
 18 19  1  0
 19 20  2  0
 19 21  2  0
 19 22  1  0
 22 23  1  0
 23 24  1  0
 24 25  1  0
 25 26  1  0
 18 27  2  0
 27 28  1  0
 28 29  2  0
 29 30  1  0
 13  2  1  0
 29 16  1  0
 12  7  1  0
 26 22  1  0
  3 31  1  0
  3 32  1  0
  8 33  1  0
  9 34  1  0
 10 35  1  0
 11 36  1  0
 17 37  1  0
 23 38  1  0
 23 39  1  0
 24 40  1  0
 24 41  1  0
 25 42  1  0
 25 43  1  0
 26 44  1  0
 26 45  1  0
 27 46  1  0
 28 47  1  0
 30 48  1  0
M  END
>  <UniqueID>  (17) 
17

>  <SMILES>  (17) 
O=C1CS(=O)(=O)c2ccccc2N1C(=O)c1cc(S(=O)(=O)N2CCCC2)ccc1O

>  <Energy>  (17) 
66.22611560863741

>  <Genealogy>  (17) 
O=C1CS(=O)(=O)c2ccccc2N1C(=O)c1cc(S(=O)(=O)N2CCCC2)ccc1O (3D coordinates assigned)
O=C1CS(=O)(=O)c2ccccc2N1C(=O)c1cc(S(=O)(=O)N2CCCC2)ccc1O (nonaromatic ring conformer: 66.22611560863741 kcal/mol)

>  <smiles>  (17) 
O=C1CS(=O)(=O)c2ccccc2N1C(=O)c1cc(S(=O)(=O)N2CCCC2)ccc1O

>  <score_type>  (17) 
oracle

>  <origin>  (17) 
adgpu

>  <m_score__min__energy>  (17) 
-11.220000000000001

>  <m_primary>  (17) 
energy

$$$$
17:0
     RDKit          3D

 54 56  0  0  0  0  0  0  0  0999 V2000
   -0.4990   18.1840  -35.1080 C   0  0  0  0  0  0  0  0  0  0  0  0
   -0.4330   18.8650  -33.7660 C   0  0  0  0  0  0  0  0  0  0  0  0
   -0.5150   18.0830  -32.6000 C   0  0  0  0  0  0  0  0  0  0  0  0
   -0.4580   18.6790  -31.3390 C   0  0  0  0  0  0  0  0  0  0  0  0
   -0.3270   20.0690  -31.2200 C   0  0  0  0  0  0  0  0  0  0  0  0
   -0.2770   20.7130  -29.8620 C   0  0  0  0  0  0  0  0  0  0  0  0
   -1.5660   21.4130  -29.5630 C   0  0  0  0  0  0  0  0  0  0  0  0
   -2.3840   20.8940  -28.7600 O   0  0  0  0  0  0  0  0  0  0  0  0
   -1.8470   22.6870  -30.1630 N   0  0  0  0  0  0  0  0  0  0  0  0
   -3.1780   23.2060  -30.3300 C   0  0  0  0  0  0  0  0  0  0  0  0
   -3.4510   24.5300  -29.9450 C   0  0  0  0  0  0  0  0  0  0  0  0
   -2.4630   25.3050  -29.3450 O   0  0  0  0  0  0  0  0  0  0  0  0
   -4.7180   25.0790  -30.1580 C   0  0  0  0  0  0  0  0  0  0  0  0
   -5.7180   24.3190  -30.7640 C   0  0  0  0  0  0  0  0  0  0  0  0
   -5.4540   23.0120  -31.1760 C   0  0  0  0  0  0  0  0  0  0  0  0
   -4.1790   22.4520  -30.9830 C   0  0  0  0  0  0  0  0  0  0  0  0
   -3.8840   21.1260  -31.4450 N   0  0  0  0  0  0  0  0  0  0  0  0
   -4.1940   20.5870  -32.7360 C   0  0  0  0  0  0  0  0  0  0  0  0
   -3.5580   20.9800  -33.7510 O   0  0  0  0  0  0  0  0  0  0  0  0
   -5.2200   19.5230  -32.8650 C   0  0  0  0  0  0  0  0  0  0  0  0
   -6.5430   19.7620  -32.4530 C   0  0  0  0  0  0  0  0  0  0  0  0
   -7.5230   18.7620  -32.5670 C   0  0  0  0  0  0  0  0  0  0  0  0
   -8.9230   19.0470  -32.0840 C   0  0  0  0  0  0  0  0  0  0  0  0
   -9.6930   19.5190  -33.1330 F   0  0  0  0  0  0  0  0  0  0  0  0
   -9.5280   17.9080  -31.5770 F   0  0  0  0  0  0  0  0  0  0  0  0
   -8.8800   20.0090  -31.0910 F   0  0  0  0  0  0  0  0  0  0  0  0
   -7.1650   17.5060  -33.0850 C   0  0  0  0  0  0  0  0  0  0  0  0
   -5.8550   17.2570  -33.5250 C   0  0  0  0  0  0  0  0  0  0  0  0
   -5.4800   15.8940  -34.0510 C   0  0  0  0  0  0  0  0  0  0  0  0
   -4.9880   15.0980  -33.0280 F   0  0  0  0  0  0  0  0  0  0  0  0
   -4.5100   16.0290  -35.0280 F   0  0  0  0  0  0  0  0  0  0  0  0
   -6.5790   15.2580  -34.5960 F   0  0  0  0  0  0  0  0  0  0  0  0
   -4.8840   18.2640  -33.3930 C   0  0  0  0  0  0  0  0  0  0  0  0
   -0.2070   20.8550  -32.3770 C   0  0  0  0  0  0  0  0  0  0  0  0
   -0.2410   20.2640  -33.6530 C   0  0  0  0  0  0  0  0  0  0  0  0
   -0.1260   21.1430  -34.8700 C   0  0  0  0  0  0  0  0  0  0  0  0
   -0.6042   17.0986  -34.9636 H   0  0  0  0  0  0  0  0  0  0  0  0
   -1.3645   18.5647  -35.6702 H   0  0  0  0  0  0  0  0  0  0  0  0
    0.4235   18.3914  -35.6702 H   0  0  0  0  0  0  0  0  0  0  0  0
   -0.6251   16.9916  -32.6824 H   0  0  0  0  0  0  0  0  0  0  0  0
   -0.5162   18.0549  -30.4350 H   0  0  0  0  0  0  0  0  0  0  0  0
   -0.1012   19.9385  -29.1009 H   0  0  0  0  0  0  0  0  0  0  0  0
    0.5386   21.4510  -29.8494 H   0  0  0  0  0  0  0  0  0  0  0  0
   -1.0440   23.2660  -30.5020 H   0  0  0  0  0  0  0  0  0  0  0  0
   -4.9272   26.1132  -29.8470 H   0  0  0  0  0  0  0  0  0  0  0  0
   -6.7179   24.7510  -30.9177 H   0  0  0  0  0  0  0  0  0  0  0  0
   -6.2468   22.4176  -31.6537 H   0  0  0  0  0  0  0  0  0  0  0  0
   -6.8137   20.7435  -32.0366 H   0  0  0  0  0  0  0  0  0  0  0  0
   -7.9199   16.7083  -33.1466 H   0  0  0  0  0  0  0  0  0  0  0  0
   -3.8486   18.0649  -33.7065 H   0  0  0  0  0  0  0  0  0  0  0  0
   -0.0851   21.9443  -32.2848 H   0  0  0  0  0  0  0  0  0  0  0  0
    0.0108   22.1882  -34.5558 H   0  0  0  0  0  0  0  0  0  0  0  0
    0.7382   20.8250  -35.4717 H   0  0  0  0  0  0  0  0  0  0  0  0
   -1.0429   21.0580  -35.4717 H   0  0  0  0  0  0  0  0  0  0  0  0
  1  2  1  0
  2  3  2  0
  3  4  1  0
  4  5  2  0
  5  6  1  0
  6  7  1  0
  7  8  2  0
  7  9  1  0
  9 10  1  0
 10 11  2  0
 11 12  1  0
 11 13  1  0
 13 14  2  0
 14 15  1  0
 15 16  2  0
 16 17  1  0
 17 18  1  0
 18 19  2  0
 18 20  1  0
 20 21  2  0
 21 22  1  0
 22 23  1  0
 23 24  1  0
 23 25  1  0
 23 26  1  0
 22 27  2  0
 27 28  1  0
 28 29  1  0
 29 30  1  0
 29 31  1  0
 29 32  1  0
 28 33  2  0
  5 34  1  0
 34 35  2  0
 35 36  1  0
 35  2  1  0
 16 10  1  0
 33 20  1  0
  1 37  1  0
  1 38  1  0
  1 39  1  0
  3 40  1  0
  4 41  1  0
  6 42  1  0
  6 43  1  0
  9 44  1  0
 13 45  1  0
 14 46  1  0
 15 47  1  0
 21 48  1  0
 27 49  1  0
 33 50  1  0
 34 51  1  0
 36 52  1  0
 36 53  1  0
 36 54  1  0
M  CHG  2  12  -1  17  -1
M  END
>  <UniqueID>  (18) 
18

>  <SMILES>  (18) 
Cc1ccc(CC(=O)Nc2c([O-])cccc2[N-]C(=O)c2cc(C(F)(F)F)cc(C(F)(F)F)c2)cc1C

>  <Energy>  (18) 
65.72403894936538

>  <Genealogy>  (18) 
Cc1ccc(CC(=O)Nc2c([O-])cccc2[N-]C(=O)c2cc(C(F)(F)F)cc(C(F)(F)F)c2)cc1C (protonated)
Cc1ccc(CC(=O)Nc2c([O-])cccc2[N-]C(=O)c2cc(C(F)(F)F)cc(C(F)(F)F)c2)cc1C (3D coordinates assigned)
Cc1ccc(CC(=O)Nc2c([O-])cccc2[N-]C(=O)c2cc(C(F)(F)F)cc(C(F)(F)F)c2)cc1C (optimized conformer: 65.72403894936538 kcal/mol)

>  <smiles>  (18) 
Cc1ccc(CC(=O)Nc2c(O)cccc2NC(=O)c2cc(C(F)(F)F)cc(C(F)(F)F)c2)cc1C

>  <score_type>  (18) 
oracle

>  <origin>  (18) 
adgpu

>  <m_score__min__energy>  (18) 
-11.59

>  <m_primary>  (18) 
energy

$$$$
18:0
     RDKit          3D

 43 45  0  0  0  0  0  0  0  0999 V2000
   -3.3610   24.5970  -27.1540 C   0  0  0  0  0  0  0  0  0  0  0  0
   -2.6850   23.6540  -28.1140 C   0  0  0  0  0  0  0  0  0  0  0  0
   -2.0270   22.5150  -27.6200 C   0  0  0  0  0  0  0  0  0  0  0  0
   -1.4290   21.6050  -28.4980 C   0  0  0  0  0  0  0  0  0  0  0  0
   -0.5960   20.1970  -27.8650 Cl  0  0  0  0  0  0  0  0  0  0  0  0
   -1.5050   21.8100  -29.8790 C   0  0  0  0  0  0  0  0  0  0  0  0
   -2.1830   22.9220  -30.3850 C   0  0  0  0  0  0  0  0  0  0  0  0
   -2.7810   23.8500  -29.5130 C   0  0  0  0  0  0  0  0  0  0  0  0
   -3.4690   25.0060  -30.0160 N   0  0  0  0  0  0  0  0  0  0  0  0
   -5.1930   25.1750  -30.1140 S   0  0  0  0  0  0  0  0  0  0  0  0
   -5.5140   26.4170  -30.8980 O   0  0  0  0  0  0  0  0  0  0  0  0
   -5.7530   25.3390  -28.7260 O   0  0  0  0  0  0  0  0  0  0  0  0
   -5.9310   23.7920  -30.9230 C   0  0  0  0  0  0  0  0  0  0  0  0
   -7.2980   23.5390  -30.7900 C   0  0  0  0  0  0  0  0  0  0  0  0
   -7.8790   22.4600  -31.4510 C   0  0  0  0  0  0  0  0  0  0  0  0
   -7.1170   21.6270  -32.2830 C   0  0  0  0  0  0  0  0  0  0  0  0
   -5.7150   21.8610  -32.4180 C   0  0  0  0  0  0  0  0  0  0  0  0
   -5.1470   22.9510  -31.7240 C   0  0  0  0  0  0  0  0  0  0  0  0
   -4.7860   20.9690  -33.1770 C   0  0  0  0  0  0  0  0  0  0  0  0
   -3.8450   21.5110  -33.8240 O   0  0  0  0  0  0  0  0  0  0  0  0
   -4.9460   19.5310  -33.2380 N   0  0  0  0  0  0  0  0  0  0  0  0
   -4.0380   18.6540  -32.4740 C   0  0  0  0  0  0  0  0  0  0  0  0
   -6.1120   18.9730  -33.9400 C   0  0  1  0  0  0  0  0  0  0  0  0
   -5.9540   17.4900  -34.3310 C   0  0  0  0  0  0  0  0  0  0  0  0
   -7.3140   19.2190  -33.0860 C   0  0  0  0  0  0  0  0  0  0  0  0
   -7.8580   18.2790  -32.4470 O   0  0  0  0  0  0  0  0  0  0  0  0
   -7.8100   20.5460  -32.9290 N   0  0  0  0  0  0  0  0  0  0  0  0
   -3.1404   24.2893  -26.1212 H   0  0  0  0  0  0  0  0  0  0  0  0
   -2.9882   25.6185  -27.3198 H   0  0  0  0  0  0  0  0  0  0  0  0
   -4.4481   24.5720  -27.3198 H   0  0  0  0  0  0  0  0  0  0  0  0
   -1.9818   22.3377  -26.5353 H   0  0  0  0  0  0  0  0  0  0  0  0
   -1.0307   21.0953  -30.5676 H   0  0  0  0  0  0  0  0  0  0  0  0
   -2.2496   23.0729  -31.4726 H   0  0  0  0  0  0  0  0  0  0  0  0
   -7.9180   24.1945  -30.1608 H   0  0  0  0  0  0  0  0  0  0  0  0
   -8.9521   22.2578  -31.3186 H   0  0  0  0  0  0  0  0  0  0  0  0
   -4.0678   23.1440  -31.8137 H   0  0  0  0  0  0  0  0  0  0  0  0
   -4.1986   18.8091  -31.3969 H   0  0  0  0  0  0  0  0  0  0  0  0
   -4.2432   17.6035  -32.7278 H   0  0  0  0  0  0  0  0  0  0  0  0
   -2.9953   18.8956  -32.7278 H   0  0  0  0  0  0  0  0  0  0  0  0
   -6.2230   19.4823  -34.9087 H   0  0  0  0  0  0  0  0  0  0  0  0
   -5.8886   16.8758  -33.4208 H   0  0  0  0  0  0  0  0  0  0  0  0
   -6.8234   17.1729  -34.9256 H   0  0  0  0  0  0  0  0  0  0  0  0
   -5.0373   17.3632  -34.9256 H   0  0  0  0  0  0  0  0  0  0  0  0
  1  2  1  0
  2  3  2  0
  3  4  1  0
  4  5  1  0
  4  6  2  0
  6  7  1  0
  7  8  2  0
  8  9  1  0
  9 10  1  0
 10 11  2  0
 10 12  2  0
 10 13  1  0
 13 14  2  0
 14 15  1  0
 15 16  2  0
 16 17  1  0
 17 18  2  0
 17 19  1  0
 19 20  2  0
 19 21  1  0
 21 22  1  0
 21 23  1  0
 23 24  1  0
 23 25  1  0
 25 26  2  0
 25 27  1  0
  8  2  1  0
 18 13  1  0
 27 16  1  0
  1 28  1  0
  1 29  1  0
  1 30  1  0
  3 31  1  0
  6 32  1  0
  7 33  1  0
 14 34  1  0
 15 35  1  0
 18 36  1  0
 22 37  1  0
 22 38  1  0
 22 39  1  0
 23 40  1  6
 24 41  1  0
 24 42  1  0
 24 43  1  0
M  CHG  2   9  -1  27  -1
M  END
>  <UniqueID>  (19) 
19

>  <SMILES>  (19) 
Cc1cc(Cl)ccc1[N-]S(=O)(=O)c1ccc2c(c1)C(=O)N(C)[C@@H](C)C(=O)[N-]2

>  <Energy>  (19) 
63.595027544726754

>  <Genealogy>  (19) 
Cc1cc(Cl)ccc1[N-]S(=O)(=O)c1ccc2c(c1)C(=O)N(C)C(C)C(=O)[N-]2 (protonated)
Cc1cc(Cl)ccc1[N-]S(=O)(=O)c1ccc2c(c1)C(=O)N(C)[C@@H](C)C(=O)[N-]2 (chirality)
Cc1cc(Cl)ccc1[N-]S(=O)(=O)c1ccc2c(c1)C(=O)N(C)[C@@H](C)C(=O)[N-]2 (3D coordinates assigned)
Cc1cc(Cl)ccc1[N-]S(=O)(=O)c1ccc2c(c1)C(=O)N(C)[C@@H](C)C(=O)[N-]2 (nonaromatic ring conformer: 63.595027544726754 kcal/mol)

>  <smiles>  (19) 
Cc1cc(Cl)ccc1NS(=O)(=O)c1ccc2c(c1)C(=O)N(C)C(C)C(=O)N2

>  <score_type>  (19) 
oracle

>  <origin>  (19) 
adgpu

>  <m_score__min__energy>  (19) 
-10

>  <m_primary>  (19) 
energy

$$$$
19:0
     RDKit          3D

 52 55  0  0  0  0  0  0  0  0999 V2000
   -4.1580   26.6060  -30.2480 H   0  0  0  0  0  0  0  0  0  0  0  0
   -4.2850   25.6420  -30.6310 N   0  0  0  0  0  0  0  0  0  0  0  0
   -3.5230   24.6610  -30.2650 C   0  0  0  0  0  0  0  0  0  0  0  0
   -2.5330   24.8740  -29.3580 N   0  0  0  0  0  0  0  0  0  0  0  0
   -1.7040   23.8800  -28.9470 C   0  0  0  0  0  0  0  0  0  0  0  0
   -0.9234   24.0904  -28.2011 H   0  0  0  0  0  0  0  0  0  0  0  0
   -1.8400   22.5850  -29.4710 C   0  0  0  0  0  0  0  0  0  0  0  0
   -0.9390   21.4900  -29.0430 C   0  0  0  0  0  0  0  0  0  0  0  0
   -0.9650   21.1040  -27.8430 O   0  0  0  0  0  0  0  0  0  0  0  0
    0.0000   20.8820  -29.9380 N   0  0  0  0  0  0  0  0  0  0  0  0
   -0.2650   20.5160  -31.2970 C   0  0  0  0  0  0  0  0  0  0  0  0
   -1.0440   19.4490  -31.6870 C   0  0  0  0  0  0  0  0  0  0  0  0
   -1.5272   18.7057  -31.0358 H   0  0  0  0  0  0  0  0  0  0  0  0
   -1.0920   19.5070  -33.0690 C   0  0  0  0  0  0  0  0  0  0  0  0
   -1.8280   18.5460  -33.9160 C   0  0  0  0  0  0  0  0  0  0  0  0
   -1.2300   17.5160  -34.3260 O   0  0  0  0  0  0  0  0  0  0  0  0
   -3.1940   18.7520  -34.3080 N   0  0  0  0  0  0  0  0  0  0  0  0
   -4.1460   17.8660  -34.2620 C   0  0  0  0  0  0  0  0  0  0  0  0
   -3.8950   16.5790  -33.8870 N   0  0  0  0  0  0  0  0  0  0  0  0
   -4.8770   15.6380  -33.8370 C   0  0  0  0  0  0  0  0  0  0  0  0
   -4.6397   14.6110  -33.5225 H   0  0  0  0  0  0  0  0  0  0  0  0
   -6.1890   15.9780  -34.1860 C   0  0  0  0  0  0  0  0  0  0  0  0
   -7.2110   15.0310  -34.1400 O   0  0  0  0  0  0  0  0  0  0  0  0
   -7.0120   14.0430  -34.0410 H   0  0  0  0  0  0  0  0  0  0  0  0
   -6.4690   17.2880  -34.5840 C   0  0  0  0  0  0  0  0  0  0  0  0
   -7.4946   17.5715  -34.8630 H   0  0  0  0  0  0  0  0  0  0  0  0
   -5.4460   18.2360  -34.6270 C   0  0  0  0  0  0  0  0  0  0  0  0
   -5.6595   19.2670  -34.9455 H   0  0  0  0  0  0  0  0  0  0  0  0
   -0.3570   20.5560  -33.5170 N   0  0  0  0  0  0  0  0  0  0  0  0
   -0.1110   20.9550  -34.9010 C   0  0  0  0  0  0  0  0  0  0  0  0
    0.4662   21.8913  -34.9156 H   0  0  0  0  0  0  0  0  0  0  0  0
    0.4575   20.1657  -35.4146 H   0  0  0  0  0  0  0  0  0  0  0  0
   -1.0715   21.1084  -35.4146 H   0  0  0  0  0  0  0  0  0  0  0  0
    0.1300   21.1920  -32.4350 C   0  0  0  0  0  0  0  0  0  0  0  0
    0.7443   22.1043  -32.4541 H   0  0  0  0  0  0  0  0  0  0  0  0
   -2.8680   22.3400  -30.3920 C   0  0  0  0  0  0  0  0  0  0  0  0
   -3.0033   21.3287  -30.8030 H   0  0  0  0  0  0  0  0  0  0  0  0
   -3.7270   23.3770  -30.7940 C   0  0  0  0  0  0  0  0  0  0  0  0
   -4.7470   23.1780  -31.7360 O   0  0  0  0  0  0  0  0  0  0  0  0
   -4.9730   21.9930  -32.4500 C   0  0  0  0  0  0  0  0  0  0  0  0
   -4.1260   21.5950  -33.2970 O   0  0  0  0  0  0  0  0  0  0  0  0
   -6.1580   21.1540  -32.1470 C   0  0  0  0  0  0  0  0  0  0  0  0
   -5.9900   19.7620  -32.0070 C   0  0  0  0  0  0  0  0  0  0  0  0
   -4.9918   19.3187  -32.1378 H   0  0  0  0  0  0  0  0  0  0  0  0
   -7.0770   18.9390  -31.7040 C   0  0  0  0  0  0  0  0  0  0  0  0
   -6.9306   17.8544  -31.5931 H   0  0  0  0  0  0  0  0  0  0  0  0
   -8.3470   19.4900  -31.5420 C   0  0  0  0  0  0  0  0  0  0  0  0
   -9.2008   18.8408  -31.2981 H   0  0  0  0  0  0  0  0  0  0  0  0
   -8.5360   20.8650  -31.6890 C   0  0  0  0  0  0  0  0  0  0  0  0
   -9.5413   21.2939  -31.5651 H   0  0  0  0  0  0  0  0  0  0  0  0
   -7.4560   21.7030  -31.9930 C   0  0  0  0  0  0  0  0  0  0  0  0
   -7.8000   23.4140  -32.2340 Cl  0  0  0  0  0  0  0  0  0  0  0  0
  1  2  1  0
  2  3  2  0
  3  4  1  0
  4  5  1  0
  5  6  1  0
  5  7  2  0
  7  8  1  0
  8  9  2  0
  8 10  1  0
 10 11  1  0
 11 12  1  0
 12 13  1  0
 12 14  2  0
 14 15  1  0
 15 16  2  0
 15 17  1  0
 17 18  2  3
 18 19  1  0
 19 20  1  0
 20 21  1  0
 20 22  2  0
 22 23  1  0
 23 24  1  0
 22 25  1  0
 25 26  1  0
 25 27  2  0
 27 28  1  0
 14 29  1  0
 29 30  1  0
 30 31  1  0
 30 32  1  0
 30 33  1  0
 29 34  1  0
 34 35  1  0
  7 36  1  0
 36 37  1  0
 36 38  2  0
 38 39  1  0
 39 40  1  0
 40 41  2  0
 40 42  1  0
 42 43  2  0
 43 44  1  0
 43 45  1  0
 45 46  1  0
 45 47  2  0
 47 48  1  0
 47 49  1  0
 49 50  1  0
 49 51  2  0
 51 52  1  0
 38  3  1  0
 51 42  1  0
 34 11  2  0
 27 18  1  0
M  CHG  3   4  -1  10  -1  19  -1
M  END
>  <UniqueID>  (20) 
20

>  <SMILES>  (20) 
[H]/N=c1\[n-]cc(C(=O)[N-]c2cc(C(=O)N=c3ccc(O)c[n-]3)n(C)c2)cc1OC(=O)c1ccccc1Cl

>  <Energy>  (20) 
106.93660137825083

>  <Genealogy>  (20) 
Cn1cc([N-]C(=O)c2c[n-]c(=N)c(OC(=O)c3ccccc3Cl)c2)cc1C(=O)N=c1ccc(O)c[n-]1 (protonated)
[H]/N=c1\[n-]cc(C(=O)[N-]c2cc(C(=O)N=c3ccc(O)c[n-]3)n(C)c2)cc1OC(=O)c1ccccc1Cl (cis-trans isomerization)
[H]/N=c1\[n-]cc(C(=O)[N-]c2cc(C(=O)N=c3ccc(O)c[n-]3)n(C)c2)cc1OC(=O)c1ccccc1Cl (3D coordinates assigned)
[H]/N=c1\[n-]cc(C(=O)[N-]c2cc(C(=O)N=c3ccc(O)c[n-]3)n(C)c2)cc1OC(=O)c1ccccc1Cl (optimized conformer: 106.93660137825083 kcal/mol)

>  <smiles>  (20) 
Cn1cc(NC(=O)c2c[nH]c(=N)c(OC(=O)c3ccccc3Cl)c2)cc1C(=O)N=c1ccc(O)c[nH]1

>  <score_type>  (20) 
oracle

>  <origin>  (20) 
adgpu

>  <m_score__min__energy>  (20) 
-12.710000000000001

>  <m_primary>  (20) 
energy

$$$$
20:0
     RDKit          3D

 50 53  0  0  0  0  0  0  0  0999 V2000
   -1.0120   27.7210  -24.1020 O   0  0  0  0  0  0  0  0  0  0  0  0
   -0.1860   26.8640  -25.0200 S   0  0  0  0  0  0  0  0  0  0  0  0
    0.6000   27.7630  -25.9370 O   0  0  0  0  0  0  0  0  0  0  0  0
   -1.2700   25.8420  -25.9610 C   0  0  0  0  0  0  0  0  0  0  0  0
   -2.6110   25.6820  -25.5840 C   0  0  0  0  0  0  0  0  0  0  0  0
   -3.4660   24.8790  -26.3460 C   0  0  0  0  0  0  0  0  0  0  0  0
   -2.9910   24.2430  -27.5090 C   0  0  0  0  0  0  0  0  0  0  0  0
   -3.8260   23.3830  -28.3020 N   0  0  0  0  0  0  0  0  0  0  0  0
   -4.5760   23.7300  -29.3080 C   0  0  0  0  0  0  0  0  0  0  0  0
   -5.3440   22.7890  -29.9150 N   0  0  0  0  0  0  0  0  0  0  0  0
   -6.1270   23.0840  -30.9910 C   0  0  0  0  0  0  0  0  0  0  0  0
   -6.9540   22.0140  -31.6050 C   0  0  0  0  0  0  0  0  0  0  0  0
   -6.3810   21.0180  -32.4220 C   0  0  0  0  0  0  0  0  0  0  0  0
   -7.1780   20.0160  -32.9840 C   0  0  0  0  0  0  0  0  0  0  0  0
   -8.5520   19.9910  -32.7350 C   0  0  0  0  0  0  0  0  0  0  0  0
   -9.1320   20.9640  -31.9190 C   0  0  0  0  0  0  0  0  0  0  0  0
   -8.3400   21.9680  -31.3530 C   0  0  0  0  0  0  0  0  0  0  0  0
   -6.1400   24.4020  -31.4760 C   0  0  0  0  0  0  0  0  0  0  0  0
   -5.3380   25.3540  -30.8520 C   0  0  0  0  0  0  0  0  0  0  0  0
   -4.5700   25.0030  -29.7880 N   0  0  0  0  0  0  0  0  0  0  0  0
   -1.6430   24.3830  -27.8630 C   0  0  0  0  0  0  0  0  0  0  0  0
   -0.7910   25.1860  -27.1010 C   0  0  0  0  0  0  0  0  0  0  0  0
    0.9050   25.8680  -24.0850 N   0  0  0  0  0  0  0  0  0  0  0  0
    1.2010   24.5930  -24.7960 C   0  0  0  0  0  0  0  0  0  0  0  0
    2.5600   24.6090  -25.5100 C   0  0  0  0  0  0  0  0  0  0  0  0
    3.7060   24.8620  -24.5160 C   0  0  0  0  0  0  0  0  0  0  0  0
    3.2810   25.7510  -23.3340 C   0  0  0  0  0  0  0  0  0  0  0  0
    2.1070   26.6570  -23.7200 C   0  0  0  0  0  0  0  0  0  0  0  0
   -2.9920   26.1898  -24.6857 H   0  0  0  0  0  0  0  0  0  0  0  0
   -4.5127   24.7439  -26.0358 H   0  0  0  0  0  0  0  0  0  0  0  0
   -5.2988   21.0293  -32.6188 H   0  0  0  0  0  0  0  0  0  0  0  0
   -6.7219   19.2459  -33.6235 H   0  0  0  0  0  0  0  0  0  0  0  0
   -9.1775   19.2043  -33.1820 H   0  0  0  0  0  0  0  0  0  0  0  0
  -10.2138   20.9409  -31.7209 H   0  0  0  0  0  0  0  0  0  0  0  0
   -8.8024   22.7279  -30.7059 H   0  0  0  0  0  0  0  0  0  0  0  0
   -6.7722   24.6772  -32.3331 H   0  0  0  0  0  0  0  0  0  0  0  0
   -5.3264   26.3903  -31.2207 H   0  0  0  0  0  0  0  0  0  0  0  0
   -1.2527   23.8572  -28.7469 H   0  0  0  0  0  0  0  0  0  0  0  0
    0.2615   25.3034  -27.3983 H   0  0  0  0  0  0  0  0  0  0  0  0
    0.4000   25.6300  -23.2000 H   0  0  0  0  0  0  0  0  0  0  0  0
    1.1996   23.7734  -24.0623 H   0  0  0  0  0  0  0  0  0  0  0  0
    0.4259   24.4558  -25.5644 H   0  0  0  0  0  0  0  0  0  0  0  0
    2.7188   23.6378  -26.0015 H   0  0  0  0  0  0  0  0  0  0  0  0
    2.5552   25.4218  -26.2512 H   0  0  0  0  0  0  0  0  0  0  0  0
    4.0507   23.8943  -24.1225 H   0  0  0  0  0  0  0  0  0  0  0  0
    4.5055   25.3888  -25.0575 H   0  0  0  0  0  0  0  0  0  0  0  0
    2.9788   25.1100  -22.4927 H   0  0  0  0  0  0  0  0  0  0  0  0
    4.1334   26.3854  -23.0495 H   0  0  0  0  0  0  0  0  0  0  0  0
    1.8620   27.3067  -22.8668 H   0  0  0  0  0  0  0  0  0  0  0  0
    2.4058   27.2532  -24.5948 H   0  0  0  0  0  0  0  0  0  0  0  0
  1  2  2  0
  2  3  2  0
  2  4  1  0
  4  5  2  0
  5  6  1  0
  6  7  2  0
  7  8  1  0
  8  9  2  3
  9 10  1  0
 10 11  2  0
 11 12  1  0
 12 13  2  0
 13 14  1  0
 14 15  2  0
 15 16  1  0
 16 17  2  0
 11 18  1  0
 18 19  2  0
 19 20  1  0
  7 21  1  0
 21 22  2  0
  2 23  1  0
 23 24  1  0
 24 25  1  0
 25 26  1  0
 26 27  1  0
 27 28  1  0
 22  4  1  0
 28 23  1  0
 20  9  1  0
 17 12  1  0
  5 29  1  0
  6 30  1  0
 13 31  1  0
 14 32  1  0
 15 33  1  0
 16 34  1  0
 17 35  1  0
 18 36  1  0
 19 37  1  0
 21 38  1  0
 22 39  1  0
 23 40  1  0
 24 41  1  0
 24 42  1  0
 25 43  1  0
 25 44  1  0
 26 45  1  0
 26 46  1  0
 27 47  1  0
 27 48  1  0
 28 49  1  0
 28 50  1  0
M  CHG  2  20  -1  23   1
M  END
>  <UniqueID>  (21) 
21

>  <SMILES>  (21) 
O=S(=O)(c1ccc(N=c2nc(-c3ccccc3)cc[n-]2)cc1)[NH+]1CCCCC1

>  <Energy>  (21) 
69.77764247529123

>  <Genealogy>  (21) 
O=S(=O)(c1ccc(N=c2nc(-c3ccccc3)cc[n-]2)cc1)[NH+]1CCCCC1 (protonated)
O=S(=O)(c1ccc(N=c2nc(-c3ccccc3)cc[n-]2)cc1)[NH+]1CCCCC1 (3D coordinates assigned)
O=S(=O)(c1ccc(N=c2nc(-c3ccccc3)cc[n-]2)cc1)[NH+]1CCCCC1 (nonaromatic ring conformer: 69.77764247529123 kcal/mol)

>  <smiles>  (21) 
O=S(=O)(c1ccc(N=c2nc(-c3ccccc3)cc[nH]2)cc1)N1CCCCC1

>  <score_type>  (21) 
oracle

>  <origin>  (21) 
adgpu

>  <m_score__min__energy>  (21) 
-9.9900000000000002

>  <m_primary>  (21) 
energy

$$$$
21:0
     RDKit          3D

 30 33  0  0  0  0  0  0  0  0999 V2000
   -2.6320   25.0310  -29.3030 O   0  0  0  0  0  0  0  0  0  0  0  0
   -3.4770   24.5530  -30.1050 C   0  0  0  0  0  0  0  0  0  0  0  0
   -4.3040   25.3120  -30.8440 N   0  0  0  0  0  0  0  0  0  0  0  0
   -5.0750   24.4730  -31.5240 N   0  0  0  0  0  0  0  0  0  0  0  0
   -4.6970   23.2220  -31.1900 C   0  0  0  0  0  0  0  0  0  0  0  0
   -5.3180   22.0210  -31.7730 C   0  0  0  0  0  0  0  0  0  0  0  0
   -4.6440   20.9890  -32.4160 C   0  0  0  0  0  0  0  0  0  0  0  0
   -5.5140   20.0380  -32.8250 N   0  0  0  0  0  0  0  0  0  0  0  0
   -6.7300   20.4510  -32.4270 C   0  0  0  0  0  0  0  0  0  0  0  0
   -7.9410   19.7800  -32.5920 C   0  0  0  0  0  0  0  0  0  0  0  0
   -9.0980   20.3710  -32.0530 C   0  0  0  0  0  0  0  0  0  0  0  0
   -9.0170   21.5950  -31.3540 C   0  0  0  0  0  0  0  0  0  0  0  0
   -7.7800   22.2460  -31.1970 C   0  0  0  0  0  0  0  0  0  0  0  0
   -6.6530   21.6530  -31.7710 C   0  0  0  0  0  0  0  0  0  0  0  0
   -3.6890   23.2350  -30.2870 N   0  0  0  0  0  0  0  0  0  0  0  0
   -3.0920   22.1440  -29.5620 C   0  0  0  0  0  0  0  0  0  0  0  0
   -3.4550   21.8780  -28.2350 C   0  0  0  0  0  0  0  0  0  0  0  0
   -2.8770   20.8490  -27.5650 N   0  0  0  0  0  0  0  0  0  0  0  0
   -1.9480   20.0600  -28.1630 C   0  0  0  0  0  0  0  0  0  0  0  0
   -1.5870   20.2910  -29.4520 N   0  0  0  0  0  0  0  0  0  0  0  0
   -2.1380   21.3090  -30.1600 C   0  0  0  0  0  0  0  0  0  0  0  0
   -3.5555   20.9513  -32.5704 H   0  0  0  0  0  0  0  0  0  0  0  0
   -5.2820   19.1560  -33.3330 H   0  0  0  0  0  0  0  0  0  0  0  0
   -7.9900   18.8197  -33.1263 H   0  0  0  0  0  0  0  0  0  0  0  0
  -10.0726   19.8762  -32.1769 H   0  0  0  0  0  0  0  0  0  0  0  0
   -9.9276   22.0427  -30.9292 H   0  0  0  0  0  0  0  0  0  0  0  0
   -7.7026   23.1915  -30.6402 H   0  0  0  0  0  0  0  0  0  0  0  0
   -4.2093   22.5039  -27.7358 H   0  0  0  0  0  0  0  0  0  0  0  0
   -1.4872   19.2328  -27.6031 H   0  0  0  0  0  0  0  0  0  0  0  0
   -1.8358   21.4791  -31.2039 H   0  0  0  0  0  0  0  0  0  0  0  0
  1  2  2  0
  2  3  1  0
  3  4  1  0
  4  5  2  0
  5  6  1  0
  6  7  2  0
  7  8  1  0
  8  9  1  0
  9 10  2  0
 10 11  1  0
 11 12  2  0
 12 13  1  0
 13 14  2  0
  5 15  1  0
 15 16  1  0
 16 17  2  0
 17 18  1  0
 18 19  2  0
 19 20  1  0
 20 21  2  0
 15  2  1  0
 21 16  1  0
 14  6  1  0
 14  9  1  0
  7 22  1  0
  8 23  1  0
 10 24  1  0
 11 25  1  0
 12 26  1  0
 13 27  1  0
 17 28  1  0
 19 29  1  0
 21 30  1  0
M  CHG  1   3  -1
M  END
>  <UniqueID>  (22) 
22

>  <SMILES>  (22) 
O=c1[n-]nc(-c2c[nH]c3ccccc23)n1-c1cncnc1

>  <Energy>  (22) 
114.41207683299552

>  <Genealogy>  (22) 
O=c1[n-]nc(-c2c[nH]c3ccccc23)n1-c1cncnc1 (protonated)
O=c1[n-]nc(-c2c[nH]c3ccccc23)n1-c1cncnc1 (3D coordinates assigned)
O=c1[n-]nc(-c2c[nH]c3ccccc23)n1-c1cncnc1 (optimized conformer: 114.41207683299552 kcal/mol)

>  <smiles>  (22) 
O=c1[nH]nc(-c2c[nH]c3ccccc23)n1-c1cncnc1

>  <score_type>  (22) 
oracle

>  <origin>  (22) 
adgpu

>  <m_score__min__energy>  (22) 
-8.8300000000000001

>  <m_primary>  (22) 
energy

$$$$
22:0
     RDKit          3D

 57 60  0  0  0  0  0  0  0  0999 V2000
   -4.2080   24.4600  -27.1950 O   0  0  0  0  0  0  0  0  0  0  0  0
   -3.1940   24.5590  -27.9400 C   0  0  0  0  0  0  0  0  0  0  0  0
   -3.3310   24.3330  -29.3510 N   0  0  0  0  0  0  0  0  0  0  0  0
   -4.4630   23.6600  -29.9280 C   0  0  0  0  0  0  0  0  0  0  0  0
   -5.6290   24.3990  -30.1790 C   0  0  0  0  0  0  0  0  0  0  0  0
   -6.7600   23.7840  -30.7160 C   0  0  0  0  0  0  0  0  0  0  0  0
   -6.7370   22.4220  -31.0320 C   0  0  0  0  0  0  0  0  0  0  0  0
   -8.1790   21.6460  -31.6840 S   0  0  0  0  0  0  0  0  0  0  0  0
   -8.8980   22.5990  -32.6000 O   0  0  0  0  0  0  0  0  0  0  0  0
   -9.0970   21.2920  -30.5480 O   0  0  0  0  0  0  0  0  0  0  0  0
   -7.7320   20.1970  -32.5510 N   0  0  0  0  0  0  0  0  0  0  0  0
   -7.5940   19.0680  -31.6040 C   0  0  0  0  0  0  0  0  0  0  0  0
   -6.8750   17.8530  -32.2310 C   0  0  0  0  0  0  0  0  0  0  0  0
   -6.8520   17.9370  -33.7590 C   0  0  0  0  0  0  0  0  0  0  0  0
   -6.1850   19.2410  -34.2280 C   0  0  0  0  0  0  0  0  0  0  0  0
   -6.4780   20.4240  -33.2870 C   0  0  0  0  0  0  0  0  0  0  0  0
   -5.5730   21.6790  -30.8070 C   0  0  0  0  0  0  0  0  0  0  0  0
   -4.4280   22.2840  -30.2650 C   0  0  0  0  0  0  0  0  0  0  0  0
   -3.2260   21.5090  -30.1080 N   0  0  0  0  0  0  0  0  0  0  0  0
   -2.5760   20.9360  -31.2920 C   0  0  0  0  0  0  0  0  0  0  0  0
   -1.0600   20.7300  -31.0640 C   0  0  0  0  0  0  0  0  0  0  0  0
   -0.6350   21.1320  -29.7740 O   0  0  0  0  0  0  0  0  0  0  0  0
   -1.4120   20.4770  -28.7940 C   0  0  0  0  0  0  0  0  0  0  0  0
   -2.8230   21.0680  -28.7670 C   0  0  0  0  0  0  0  0  0  0  0  0
   -1.8950   24.9700  -27.3470 C   0  0  0  0  0  0  0  0  0  0  0  0
   -1.5560   24.5180  -26.0570 C   0  0  0  0  0  0  0  0  0  0  0  0
   -0.3420   24.8830  -25.4690 C   0  0  0  0  0  0  0  0  0  0  0  0
    0.5540   25.6980  -26.1610 C   0  0  0  0  0  0  0  0  0  0  0  0
    0.2400   26.1440  -27.4470 C   0  0  0  0  0  0  0  0  0  0  0  0
   -0.9710   25.7820  -28.0470 C   0  0  0  0  0  0  0  0  0  0  0  0
   -1.2260   26.2160  -29.3420 O   0  0  0  0  0  0  0  0  0  0  0  0
   -2.7110   24.8740  -29.9930 H   0  0  0  0  0  0  0  0  0  0  0  0
   -5.6515   25.4746  -29.9499 H   0  0  0  0  0  0  0  0  0  0  0  0
   -7.6728   24.3722  -30.8914 H   0  0  0  0  0  0  0  0  0  0  0  0
   -7.0163   19.4080  -30.7318 H   0  0  0  0  0  0  0  0  0  0  0  0
   -8.6064   18.7460  -31.3187 H   0  0  0  0  0  0  0  0  0  0  0  0
   -5.8400   17.8205  -31.8599 H   0  0  0  0  0  0  0  0  0  0  0  0
   -7.4243   16.9438  -31.9453 H   0  0  0  0  0  0  0  0  0  0  0  0
   -6.2886   17.0807  -34.1581 H   0  0  0  0  0  0  0  0  0  0  0  0
   -7.8885   17.9208  -34.1271 H   0  0  0  0  0  0  0  0  0  0  0  0
   -5.0969   19.0852  -34.2708 H   0  0  0  0  0  0  0  0  0  0  0  0
   -6.5967   19.4904  -35.2171 H   0  0  0  0  0  0  0  0  0  0  0  0
   -5.6509   20.5297  -32.5695 H   0  0  0  0  0  0  0  0  0  0  0  0
   -6.5779   21.3405  -33.8871 H   0  0  0  0  0  0  0  0  0  0  0  0
   -5.5548   20.6081  -31.0578 H   0  0  0  0  0  0  0  0  0  0  0  0
   -3.0386   19.9639  -31.5182 H   0  0  0  0  0  0  0  0  0  0  0  0
   -2.7064   21.6368  -32.1298 H   0  0  0  0  0  0  0  0  0  0  0  0
   -0.8280   19.6625  -31.1927 H   0  0  0  0  0  0  0  0  0  0  0  0
   -0.5289   21.3566  -31.7957 H   0  0  0  0  0  0  0  0  0  0  0  0
   -1.4703   19.4046  -29.0317 H   0  0  0  0  0  0  0  0  0  0  0  0
   -0.9429   20.6147  -27.8086 H   0  0  0  0  0  0  0  0  0  0  0  0
   -3.5284   20.3026  -28.4113 H   0  0  0  0  0  0  0  0  0  0  0  0
   -2.8301   21.9364  -28.0919 H   0  0  0  0  0  0  0  0  0  0  0  0
   -2.2544   23.8707  -25.5063 H   0  0  0  0  0  0  0  0  0  0  0  0
   -0.0925   24.5270  -24.4586 H   0  0  0  0  0  0  0  0  0  0  0  0
    1.5067   25.9891  -25.6945 H   0  0  0  0  0  0  0  0  0  0  0  0
    0.9496   26.7841  -27.9916 H   0  0  0  0  0  0  0  0  0  0  0  0
  1  2  2  0
  2  3  1  0
  3  4  1  0
  4  5  2  0
  5  6  1  0
  6  7  2  0
  7  8  1  0
  8  9  2  0
  8 10  2  0
  8 11  1  0
 11 12  1  0
 12 13  1  0
 13 14  1  0
 14 15  1  0
 15 16  1  0
  7 17  1  0
 17 18  2  0
 18 19  1  0
 19 20  1  0
 20 21  1  0
 21 22  1  0
 22 23  1  0
 23 24  1  0
  2 25  1  0
 25 26  2  0
 26 27  1  0
 27 28  2  0
 28 29  1  0
 29 30  2  0
 30 31  1  0
 18  4  1  0
 24 19  1  0
 30 25  1  0
 16 11  1  0
  3 32  1  0
  5 33  1  0
  6 34  1  0
 12 35  1  0
 12 36  1  0
 13 37  1  0
 13 38  1  0
 14 39  1  0
 14 40  1  0
 15 41  1  0
 15 42  1  0
 16 43  1  0
 16 44  1  0
 17 45  1  0
 20 46  1  0
 20 47  1  0
 21 48  1  0
 21 49  1  0
 23 50  1  0
 23 51  1  0
 24 52  1  0
 24 53  1  0
 26 54  1  0
 27 55  1  0
 28 56  1  0
 29 57  1  0
M  CHG  1  31  -1
M  END
>  <UniqueID>  (23) 
23

>  <SMILES>  (23) 
O=C(Nc1ccc(S(=O)(=O)N2CCCCC2)cc1N1CCOCC1)c1ccccc1[O-]

>  <Energy>  (23) 
79.62966745496189

>  <Genealogy>  (23) 
O=C(Nc1ccc(S(=O)(=O)N2CCCCC2)cc1N1CCOCC1)c1ccccc1[O-] (protonated)
O=C(Nc1ccc(S(=O)(=O)N2CCCCC2)cc1N1CCOCC1)c1ccccc1[O-] (3D coordinates assigned)
O=C(Nc1ccc(S(=O)(=O)N2CCCCC2)cc1N1CCOCC1)c1ccccc1[O-] (nonaromatic ring conformer: 79.62966745496189 kcal/mol)

>  <smiles>  (23) 
O=C(Nc1ccc(S(=O)(=O)N2CCCCC2)cc1N1CCOCC1)c1ccccc1O

>  <score_type>  (23) 
oracle

>  <origin>  (23) 
adgpu

>  <m_score__min__energy>  (23) 
-12.9

>  <m_primary>  (23) 
energy

$$$$
23:0
     RDKit          3D

 53 55  0  0  0  0  0  0  0  0999 V2000
   -6.3480   25.1040  -30.7390 C   0  0  0  0  0  0  0  0  0  0  0  0
   -6.7130   23.6900  -31.1010 C   0  0  0  0  0  0  0  0  0  0  0  0
   -8.0150   23.4420  -31.5710 C   0  0  0  0  0  0  0  0  0  0  0  0
   -8.4000   22.1630  -31.9660 C   0  0  0  0  0  0  0  0  0  0  0  0
   -7.4900   21.1060  -31.9100 C   0  0  0  0  0  0  0  0  0  0  0  0
   -7.9690   19.4910  -32.4410 S   0  0  0  0  0  0  0  0  0  0  0  0
   -8.0150   18.5760  -31.2480 O   0  0  0  0  0  0  0  0  0  0  0  0
   -9.3510   19.5560  -33.0300 O   0  0  0  0  0  0  0  0  0  0  0  0
   -6.8570   18.8340  -33.6200 N   0  0  0  0  0  0  0  0  0  0  0  0
   -6.8030   17.3670  -33.5220 C   0  0  0  0  0  0  0  0  0  0  0  0
   -5.8320   16.7890  -34.5770 C   0  0  0  0  0  0  0  0  0  0  0  0
   -5.0410   17.7890  -35.1980 O   0  0  0  0  0  0  0  0  0  0  0  0
   -4.4450   18.6110  -34.2150 C   0  0  0  0  0  0  0  0  0  0  0  0
   -5.5130   19.4210  -33.4530 C   0  0  0  0  0  0  0  0  0  0  0  0
   -6.1970   21.3360  -31.4270 C   0  0  0  0  0  0  0  0  0  0  0  0
   -5.7990   22.6090  -30.9760 C   0  0  0  0  0  0  0  0  0  0  0  0
   -4.1430   22.8270  -30.3380 S   0  0  0  0  0  0  0  0  0  0  0  0
   -4.1750   22.8990  -28.8370 O   0  0  0  0  0  0  0  0  0  0  0  0
   -3.5980   24.1260  -30.8620 O   0  0  0  0  0  0  0  0  0  0  0  0
   -3.0470   21.5240  -30.7430 N   0  0  0  0  0  0  0  0  0  0  0  0
   -2.5240   21.6740  -32.1120 C   0  0  0  0  0  0  0  0  0  0  0  0
   -1.7340   20.4270  -32.5370 C   0  0  0  0  0  0  0  0  0  0  0  0
   -0.8700   19.8420  -31.4020 C   0  0  0  0  0  0  0  0  0  0  0  0
   -0.6550   20.8530  -30.2650 C   0  0  2  0  0  0  0  0  0  0  0  0
    0.2300   20.2590  -29.1640 C   0  0  0  0  0  0  0  0  0  0  0  0
   -2.0210   21.3000  -29.6950 C   0  0  0  0  0  0  0  0  0  0  0  0
   -6.3214   25.2070  -29.6442 H   0  0  0  0  0  0  0  0  0  0  0  0
   -5.3582   25.3449  -31.1541 H   0  0  0  0  0  0  0  0  0  0  0  0
   -7.0975   25.7939  -31.1541 H   0  0  0  0  0  0  0  0  0  0  0  0
   -8.7386   24.2686  -31.6274 H   0  0  0  0  0  0  0  0  0  0  0  0
   -9.4250   21.9852  -32.3234 H   0  0  0  0  0  0  0  0  0  0  0  0
   -7.2240   19.0960  -34.5660 H   0  0  0  0  0  0  0  0  0  0  0  0
   -6.4561   17.0839  -32.5173 H   0  0  0  0  0  0  0  0  0  0  0  0
   -7.8090   16.9611  -33.7044 H   0  0  0  0  0  0  0  0  0  0  0  0
   -5.1640   16.0681  -34.0830 H   0  0  0  0  0  0  0  0  0  0  0  0
   -6.4384   16.3106  -35.3603 H   0  0  0  0  0  0  0  0  0  0  0  0
   -3.8958   17.9788  -33.5018 H   0  0  0  0  0  0  0  0  0  0  0  0
   -3.7603   19.3135  -34.7127 H   0  0  0  0  0  0  0  0  0  0  0  0
   -5.2578   19.4316  -32.3831 H   0  0  0  0  0  0  0  0  0  0  0  0
   -5.5288   20.4422  -33.8615 H   0  0  0  0  0  0  0  0  0  0  0  0
   -5.4767   20.5051  -31.3991 H   0  0  0  0  0  0  0  0  0  0  0  0
   -3.3656   21.8206  -32.8050 H   0  0  0  0  0  0  0  0  0  0  0  0
   -1.8496   22.5426  -32.1372 H   0  0  0  0  0  0  0  0  0  0  0  0
   -2.4467   19.6568  -32.8669 H   0  0  0  0  0  0  0  0  0  0  0  0
   -1.0520   20.7306  -33.3449 H   0  0  0  0  0  0  0  0  0  0  0  0
   -1.3723   18.9517  -30.9957 H   0  0  0  0  0  0  0  0  0  0  0  0
    0.1144   19.5861  -31.8208 H   0  0  0  0  0  0  0  0  0  0  0  0
   -0.1356   21.7343  -30.6695 H   0  0  0  0  0  0  0  0  0  0  0  0
   -0.1769   20.5321  -28.1792 H   0  0  0  0  0  0  0  0  0  0  0  0
    0.2506   19.1635  -29.2612 H   0  0  0  0  0  0  0  0  0  0  0  0
    1.2516   20.6550  -29.2612 H   0  0  0  0  0  0  0  0  0  0  0  0
   -2.3857   20.5207  -29.0097 H   0  0  0  0  0  0  0  0  0  0  0  0
   -1.8626   22.2602  -29.1823 H   0  0  0  0  0  0  0  0  0  0  0  0
  1  2  1  0
  2  3  2  0
  3  4  1  0
  4  5  2  0
  5  6  1  0
  6  7  2  0
  6  8  2  0
  6  9  1  0
  9 10  1  0
 10 11  1  0
 11 12  1  0
 12 13  1  0
 13 14  1  0
  5 15  1  0
 15 16  2  0
 16 17  1  0
 17 18  2  0
 17 19  2  0
 17 20  1  0
 20 21  1  0
 21 22  1  0
 22 23  1  0
 23 24  1  0
 24 25  1  0
 24 26  1  0
 16  2  1  0
 26 20  1  0
 14  9  1  0
  1 27  1  0
  1 28  1  0
  1 29  1  0
  3 30  1  0
  4 31  1  0
  9 32  1  0
 10 33  1  0
 10 34  1  0
 11 35  1  0
 11 36  1  0
 13 37  1  0
 13 38  1  0
 14 39  1  0
 14 40  1  0
 15 41  1  0
 21 42  1  0
 21 43  1  0
 22 44  1  0
 22 45  1  0
 23 46  1  0
 23 47  1  0
 24 48  1  6
 25 49  1  0
 25 50  1  0
 25 51  1  0
 26 52  1  0
 26 53  1  0
M  CHG  1   9   1
M  END
>  <UniqueID>  (24) 
24

>  <SMILES>  (24) 
Cc1ccc(S(=O)(=O)[NH+]2CCOCC2)cc1S(=O)(=O)N1CCC[C@H](C)C1

>  <Energy>  (24) 
66.32885177622678

>  <Genealogy>  (24) 
Cc1ccc(S(=O)(=O)[NH+]2CCOCC2)cc1S(=O)(=O)N1CCCC(C)C1 (protonated)
Cc1ccc(S(=O)(=O)[NH+]2CCOCC2)cc1S(=O)(=O)N1CCC[C@H](C)C1 (chirality)
Cc1ccc(S(=O)(=O)[NH+]2CCOCC2)cc1S(=O)(=O)N1CCC[C@H](C)C1 (3D coordinates assigned)
Cc1ccc(S(=O)(=O)[NH+]2CCOCC2)cc1S(=O)(=O)N1CCC[C@H](C)C1 (nonaromatic ring conformer: 66.32885177622678 kcal/mol)

>  <smiles>  (24) 
Cc1ccc(S(=O)(=O)N2CCOCC2)cc1S(=O)(=O)N1CCCC(C)C1

>  <score_type>  (24) 
oracle

>  <origin>  (24) 
adgpu

>  <m_score__min__energy>  (24) 
-9.0999999999999996

>  <m_primary>  (24) 
energy

$$$$
24:0
     RDKit          3D

 71 75  0  0  0  0  0  0  0  0999 V2000
   -1.2650   21.2560  -26.4880 C   0  0  0  0  0  0  0  0  0  0  0  0
   -2.1240   22.1960  -27.2940 C   0  0  0  0  0  0  0  0  0  0  0  0
   -3.4440   21.8060  -27.5720 C   0  0  0  0  0  0  0  0  0  0  0  0
   -4.3120   22.6570  -28.2490 C   0  0  0  0  0  0  0  0  0  0  0  0
   -3.8920   23.9240  -28.6500 C   0  0  0  0  0  0  0  0  0  0  0  0
   -4.8420   24.7820  -29.2920 N   0  0  0  0  0  0  0  0  0  0  0  0
   -4.8440   25.1050  -30.6890 C   0  0  0  0  0  0  0  0  0  0  0  0
   -3.8530   25.6820  -31.2120 O   0  0  0  0  0  0  0  0  0  0  0  0
   -5.9680   24.7810  -31.5140 N   0  0  0  0  0  0  0  0  0  0  0  0
   -6.6400   23.5160  -31.6050 C   0  0  0  0  0  0  0  0  0  0  0  0
   -8.0400   23.4200  -31.8450 C   0  0  0  0  0  0  0  0  0  0  0  0
   -8.6640   22.1630  -31.9630 C   0  0  0  0  0  0  0  0  0  0  0  0
   -7.8590   21.0330  -31.8640 C   0  0  0  0  0  0  0  0  0  0  0  0
   -8.1400   19.6920  -31.9540 C   0  0  0  0  0  0  0  0  0  0  0  0
   -6.9650   19.0310  -31.8160 N   0  0  0  0  0  0  0  0  0  0  0  0
   -6.7980   17.5810  -31.8160 C   0  0  0  0  0  0  0  0  0  0  0  0
   -6.4120   17.0820  -33.2130 C   0  0  0  0  0  0  0  0  0  0  0  0
   -5.5750   18.0790  -33.9210 N   0  0  0  0  0  0  0  0  0  0  0  0
   -4.2430   18.1920  -33.3080 C   0  0  0  0  0  0  0  0  0  0  0  0
   -3.3120   17.2270  -34.0250 C   0  0  0  0  0  0  0  0  0  0  0  0
   -3.9930   16.9150  -35.3440 C   0  0  0  0  0  0  0  0  0  0  0  0
   -5.3120   17.6770  -35.3130 C   0  0  0  0  0  0  0  0  0  0  0  0
   -5.9640   19.8870  -31.6320 N   0  0  0  0  0  0  0  0  0  0  0  0
   -6.5100   21.1150  -31.6630 C   0  0  0  0  0  0  0  0  0  0  0  0
   -5.8630   22.3410  -31.5300 C   0  0  0  0  0  0  0  0  0  0  0  0
   -2.5560   24.3150  -28.4360 C   0  0  0  0  0  0  0  0  0  0  0  0
   -2.1110   25.5230  -28.9620 O   0  0  0  0  0  0  0  0  0  0  0  0
   -1.6700   23.4750  -27.7210 C   0  0  0  0  0  0  0  0  0  0  0  0
   -0.0110   24.0330  -27.3760 S   0  0  0  0  0  0  0  0  0  0  0  0
    0.6180   24.5500  -28.6410 O   0  0  0  0  0  0  0  0  0  0  0  0
    0.8380   22.8940  -26.8830 O   0  0  0  0  0  0  0  0  0  0  0  0
   -0.0290   25.3330  -26.1360 C   0  0  0  0  0  0  0  0  0  0  0  0
   -0.9010   24.9290  -24.9450 C   0  0  0  0  0  0  0  0  0  0  0  0
   -0.8080   25.9870  -23.8270 C   0  0  0  0  0  0  0  0  0  0  0  0
   -0.7420   27.3890  -24.3200 N   0  0  0  0  0  0  0  0  0  0  0  0
    0.5850   28.0010  -24.1290 C   0  0  0  0  0  0  0  0  0  0  0  0
   -1.2410   27.5630  -25.7010 C   0  0  0  0  0  0  0  0  0  0  0  0
   -0.5020   26.6760  -26.7290 C   0  0  0  0  0  0  0  0  0  0  0  0
   -1.4302   21.4367  -25.4156 H   0  0  0  0  0  0  0  0  0  0  0  0
   -1.5319   20.2167  -26.7300 H   0  0  0  0  0  0  0  0  0  0  0  0
   -0.2059   21.4284  -26.7300 H   0  0  0  0  0  0  0  0  0  0  0  0
   -3.7964   20.8148  -27.2504 H   0  0  0  0  0  0  0  0  0  0  0  0
   -5.3380   22.3272  -28.4695 H   0  0  0  0  0  0  0  0  0  0  0  0
   -8.6404   24.3369  -31.9392 H   0  0  0  0  0  0  0  0  0  0  0  0
   -9.7483   22.0779  -32.1274 H   0  0  0  0  0  0  0  0  0  0  0  0
   -9.1308   19.2400  -32.1087 H   0  0  0  0  0  0  0  0  0  0  0  0
   -6.0058   17.3084  -31.1032 H   0  0  0  0  0  0  0  0  0  0  0  0
   -7.7503   17.1145  -31.5236 H   0  0  0  0  0  0  0  0  0  0  0  0
   -5.8479   16.1426  -33.1162 H   0  0  0  0  0  0  0  0  0  0  0  0
   -7.3320   16.9212  -33.7941 H   0  0  0  0  0  0  0  0  0  0  0  0
   -3.8688   19.2208  -33.4153 H   0  0  0  0  0  0  0  0  0  0  0  0
   -4.2938   17.9487  -32.2364 H   0  0  0  0  0  0  0  0  0  0  0  0
   -2.3321   17.6954  -34.1992 H   0  0  0  0  0  0  0  0  0  0  0  0
   -3.1307   16.3177  -33.4332 H   0  0  0  0  0  0  0  0  0  0  0  0
   -3.3727   17.2548  -36.1865 H   0  0  0  0  0  0  0  0  0  0  0  0
   -4.1497   15.8343  -35.4761 H   0  0  0  0  0  0  0  0  0  0  0  0
   -5.2421   18.5696  -35.9521 H   0  0  0  0  0  0  0  0  0  0  0  0
   -6.1283   17.0416  -35.6871 H   0  0  0  0  0  0  0  0  0  0  0  0
   -4.7758   22.3918  -31.3708 H   0  0  0  0  0  0  0  0  0  0  0  0
    1.0034   25.4722  -25.7828 H   0  0  0  0  0  0  0  0  0  0  0  0
   -1.9467   24.8412  -25.2748 H   0  0  0  0  0  0  0  0  0  0  0  0
   -0.5456   23.9643  -24.5537 H   0  0  0  0  0  0  0  0  0  0  0  0
   -1.6950   25.8886  -23.1839 H   0  0  0  0  0  0  0  0  0  0  0  0
    0.1317   25.7963  -23.2879 H   0  0  0  0  0  0  0  0  0  0  0  0
    0.7931   28.0970  -23.0531 H   0  0  0  0  0  0  0  0  0  0  0  0
    1.3523   27.3658  -24.5957 H   0  0  0  0  0  0  0  0  0  0  0  0
    0.6000   28.9970  -24.5957 H   0  0  0  0  0  0  0  0  0  0  0  0
   -2.3104   27.3063  -25.7218 H   0  0  0  0  0  0  0  0  0  0  0  0
   -1.0635   28.6110  -25.9843 H   0  0  0  0  0  0  0  0  0  0  0  0
   -1.1835   26.4685  -27.5671 H   0  0  0  0  0  0  0  0  0  0  0  0
    0.3935   27.2257  -27.0545 H   0  0  0  0  0  0  0  0  0  0  0  0
  1  2  1  0
  2  3  2  0
  3  4  1  0
  4  5  2  0
  5  6  1  0
  6  7  1  0
  7  8  2  0
  7  9  1  0
  9 10  1  0
 10 11  1  0
 11 12  2  0
 12 13  1  0
 13 14  2  0
 14 15  1  0
 15 16  1  0
 16 17  1  0
 17 18  1  0
 18 19  1  0
 19 20  1  0
 20 21  1  0
 21 22  1  0
 15 23  1  0
 23 24  2  0
 24 25  1  0
  5 26  1  0
 26 27  1  0
 26 28  2  0
 28 29  1  0
 29 30  2  0
 29 31  2  0
 29 32  1  0
 32 33  1  0
 33 34  1  0
 34 35  1  0
 35 36  1  0
 35 37  1  0
 37 38  1  0
 28  2  1  0
 38 32  1  0
 25 10  2  0
 24 13  1  0
 22 18  1  0
  1 39  1  0
  1 40  1  0
  1 41  1  0
  3 42  1  0
  4 43  1  0
 11 44  1  0
 12 45  1  0
 14 46  1  0
 16 47  1  0
 16 48  1  0
 17 49  1  0
 17 50  1  0
 19 51  1  0
 19 52  1  0
 20 53  1  0
 20 54  1  0
 21 55  1  0
 21 56  1  0
 22 57  1  0
 22 58  1  0
 25 59  1  0
 32 60  1  0
 33 61  1  0
 33 62  1  0
 34 63  1  0
 34 64  1  0
 36 65  1  0
 36 66  1  0
 36 67  1  0
 37 68  1  0
 37 69  1  0
 38 70  1  0
 38 71  1  0
M  CHG  3   6  -1   9  -1  27  -1
M  END
>  <UniqueID>  (25) 
25

>  <SMILES>  (25) 
Cc1ccc([N-]C(=O)[N-]c2ccc3cn(CCN4CCCC4)nc3c2)c([O-])c1S(=O)(=O)C1CCN(C)CC1

>  <Energy>  (25) 
131.93566502970904

>  <Genealogy>  (25) 
Cc1ccc([N-]C(=O)[N-]c2ccc3cn(CCN4CCCC4)nc3c2)c([O-])c1S(=O)(=O)C1CCN(C)CC1 (protonated)
Cc1ccc([N-]C(=O)[N-]c2ccc3cn(CCN4CCCC4)nc3c2)c([O-])c1S(=O)(=O)C1CCN(C)CC1 (3D coordinates assigned)
Cc1ccc([N-]C(=O)[N-]c2ccc3cn(CCN4CCCC4)nc3c2)c([O-])c1S(=O)(=O)C1CCN(C)CC1 (nonaromatic ring conformer: 131.93566502970904 kcal/mol)

>  <smiles>  (25) 
Cc1ccc(NC(=O)Nc2ccc3cn(CCN4CCCC4)nc3c2)c(O)c1S(=O)(=O)C1CCN(C)CC1

>  <score_type>  (25) 
oracle

>  <origin>  (25) 
adgpu

>  <m_score__min__energy>  (25) 
-17.699999999999999

>  <m_primary>  (25) 
energy

$$$$
25:0
     RDKit          3D

 75 79  0  0  0  0  0  0  0  0999 V2000
    0.6810   14.3270  -31.6440 C   0  0  0  0  0  0  0  0  0  0  0  0
   -0.4930   14.8750  -32.4050 C   0  0  0  0  0  0  0  0  0  0  0  0
   -0.3350   16.0140  -33.2090 C   0  0  0  0  0  0  0  0  0  0  0  0
   -1.4210   16.5490  -33.9120 C   0  0  0  0  0  0  0  0  0  0  0  0
   -1.2270   17.7400  -34.6840 N   0  0  0  0  0  0  0  0  0  0  0  0
   -1.6760   19.0440  -34.2970 C   0  0  0  0  0  0  0  0  0  0  0  0
   -1.0770   20.0540  -34.7540 O   0  0  0  0  0  0  0  0  0  0  0  0
   -2.7630   19.2100  -33.3720 N   0  0  0  0  0  0  0  0  0  0  0  0
   -2.9020   20.3410  -32.4950 C   0  0  0  0  0  0  0  0  0  0  0  0
   -1.9400   20.5610  -31.5000 C   0  0  0  0  0  0  0  0  0  0  0  0
   -2.0060   21.6970  -30.6860 C   0  0  0  0  0  0  0  0  0  0  0  0
   -3.0210   22.6470  -30.8760 C   0  0  0  0  0  0  0  0  0  0  0  0
   -3.0630   23.8670  -30.0390 C   0  0  0  0  0  0  0  0  0  0  0  0
   -3.6110   24.9060  -30.4950 O   0  0  0  0  0  0  0  0  0  0  0  0
   -2.5040   23.8860  -28.7090 N   0  0  0  0  0  0  0  0  0  0  0  0
   -2.7670   22.7910  -27.7680 C   0  0  0  0  0  0  0  0  0  0  0  0
   -1.5650   22.6440  -26.8310 C   0  0  0  0  0  0  0  0  0  0  0  0
   -1.2780   23.8880  -26.0740 N   0  0  0  0  0  0  0  0  0  0  0  0
    0.1580   23.9970  -25.7730 C   0  0  0  0  0  0  0  0  0  0  0  0
   -1.8010   25.1340  -26.6880 C   0  0  0  0  0  0  0  0  0  0  0  0
   -1.8180   25.0920  -28.2240 C   0  0  0  0  0  0  0  0  0  0  0  0
   -3.9950   22.4210  -31.8620 C   0  0  0  0  0  0  0  0  0  0  0  0
   -3.9340   21.2810  -32.6690 C   0  0  0  0  0  0  0  0  0  0  0  0
   -2.6710   15.8990  -33.8640 C   0  0  0  0  0  0  0  0  0  0  0  0
   -3.7520   16.3450  -34.6340 O   0  0  0  0  0  0  0  0  0  0  0  0
   -4.8790   16.9910  -34.1040 C   0  0  0  0  0  0  0  0  0  0  0  0
   -5.2950   18.2000  -34.6770 C   0  0  0  0  0  0  0  0  0  0  0  0
   -6.3920   18.8910  -34.1540 C   0  0  0  0  0  0  0  0  0  0  0  0
   -7.0890   18.3790  -33.0510 C   0  0  0  0  0  0  0  0  0  0  0  0
   -8.4280   19.2780  -32.3460 S   0  0  0  0  0  0  0  0  0  0  0  0
   -9.6880   18.9270  -33.0880 O   0  0  0  0  0  0  0  0  0  0  0  0
   -8.5880   18.8970  -30.8970 O   0  0  0  0  0  0  0  0  0  0  0  0
   -8.1320   20.9930  -32.4830 N   0  0  0  0  0  0  0  0  0  0  0  0
   -7.0330   21.4240  -31.6150 C   0  0  0  0  0  0  0  0  0  0  0  0
   -7.3150   22.8740  -31.2340 C   0  0  0  0  0  0  0  0  0  0  0  0
   -8.7720   23.1140  -31.5950 C   0  0  0  0  0  0  0  0  0  0  0  0
   -9.2970   21.7650  -32.0500 C   0  0  0  0  0  0  0  0  0  0  0  0
   -6.6780   17.1700  -32.4740 C   0  0  0  0  0  0  0  0  0  0  0  0
   -5.5860   16.4740  -33.0030 C   0  0  0  0  0  0  0  0  0  0  0  0
   -2.8410   14.7870  -33.0360 C   0  0  0  0  0  0  0  0  0  0  0  0
   -1.7630   14.2710  -32.3080 C   0  0  0  0  0  0  0  0  0  0  0  0
   -2.0340   12.8510  -31.3020 Cl  0  0  0  0  0  0  0  0  0  0  0  0
    0.4915   14.4154  -30.5641 H   0  0  0  0  0  0  0  0  0  0  0  0
    0.8256   13.2683  -31.9054 H   0  0  0  0  0  0  0  0  0  0  0  0
    1.5854   14.8960  -31.9054 H   0  0  0  0  0  0  0  0  0  0  0  0
    0.6527   16.4917  -33.2878 H   0  0  0  0  0  0  0  0  0  0  0  0
   -3.4890   18.4640  -33.3070 H   0  0  0  0  0  0  0  0  0  0  0  0
   -1.1263   19.8346  -31.3578 H   0  0  0  0  0  0  0  0  0  0  0  0
   -1.2584   21.8462  -29.8930 H   0  0  0  0  0  0  0  0  0  0  0  0
   -3.6684   23.0179  -27.1797 H   0  0  0  0  0  0  0  0  0  0  0  0
   -2.9255   21.8536  -28.3213 H   0  0  0  0  0  0  0  0  0  0  0  0
   -1.7730   21.8354  -26.1148 H   0  0  0  0  0  0  0  0  0  0  0  0
   -0.6842   22.4194  -27.4505 H   0  0  0  0  0  0  0  0  0  0  0  0
    0.3043   24.0081  -24.6828 H   0  0  0  0  0  0  0  0  0  0  0  0
    0.6896   23.1366  -26.2056 H   0  0  0  0  0  0  0  0  0  0  0  0
    0.5537   24.9278  -26.2056 H   0  0  0  0  0  0  0  0  0  0  0  0
   -2.8291   25.2944  -26.3314 H   0  0  0  0  0  0  0  0  0  0  0  0
   -1.1279   25.9518  -26.3911 H   0  0  0  0  0  0  0  0  0  0  0  0
   -2.3428   25.9815  -28.6027 H   0  0  0  0  0  0  0  0  0  0  0  0
   -0.7795   25.0748  -28.5862 H   0  0  0  0  0  0  0  0  0  0  0  0
   -4.8111   23.1455  -32.0003 H   0  0  0  0  0  0  0  0  0  0  0  0
   -4.6972   21.1182  -33.4443 H   0  0  0  0  0  0  0  0  0  0  0  0
   -4.7549   18.6081  -35.5440 H   0  0  0  0  0  0  0  0  0  0  0  0
   -6.7094   19.8404  -34.6100 H   0  0  0  0  0  0  0  0  0  0  0  0
   -6.9945   20.7960  -30.7127 H   0  0  0  0  0  0  0  0  0  0  0  0
   -6.0648   21.3321  -32.1289 H   0  0  0  0  0  0  0  0  0  0  0  0
   -7.1561   23.0259  -30.1562 H   0  0  0  0  0  0  0  0  0  0  0  0
   -6.6449   23.5710  -31.7586 H   0  0  0  0  0  0  0  0  0  0  0  0
   -9.3329   23.4704  -30.7184 H   0  0  0  0  0  0  0  0  0  0  0  0
   -8.8810   23.8818  -32.3751 H   0  0  0  0  0  0  0  0  0  0  0  0
   -9.8043   21.2540  -31.2184 H   0  0  0  0  0  0  0  0  0  0  0  0
  -10.0274   21.8756  -32.8650 H   0  0  0  0  0  0  0  0  0  0  0  0
   -7.2154   16.7672  -31.6028 H   0  0  0  0  0  0  0  0  0  0  0  0
   -5.2784   15.5173  -32.5557 H   0  0  0  0  0  0  0  0  0  0  0  0
   -3.8304   14.3130  -32.9555 H   0  0  0  0  0  0  0  0  0  0  0  0
  1  2  1  0
  2  3  2  0
  3  4  1  0
  4  5  1  0
  5  6  1  0
  6  7  2  0
  6  8  1  0
  8  9  1  0
  9 10  2  0
 10 11  1  0
 11 12  2  0
 12 13  1  0
 13 14  2  0
 13 15  1  0
 15 16  1  0
 16 17  1  0
 17 18  1  0
 18 19  1  0
 18 20  1  0
 20 21  1  0
 12 22  1  0
 22 23  2  0
  4 24  2  0
 24 25  1  0
 25 26  1  0
 26 27  2  0
 27 28  1  0
 28 29  2  0
 29 30  1  0
 30 31  2  0
 30 32  2  0
 30 33  1  0
 33 34  1  0
 34 35  1  0
 35 36  1  0
 36 37  1  0
 29 38  1  0
 38 39  2  0
 24 40  1  0
 40 41  2  0
 41 42  1  0
 41  2  1  0
 23  9  1  0
 39 26  1  0
 21 15  1  0
 37 33  1  0
  1 43  1  0
  1 44  1  0
  1 45  1  0
  3 46  1  0
  8 47  1  0
 10 48  1  0
 11 49  1  0
 16 50  1  0
 16 51  1  0
 17 52  1  0
 17 53  1  0
 19 54  1  0
 19 55  1  0
 19 56  1  0
 20 57  1  0
 20 58  1  0
 21 59  1  0
 21 60  1  0
 22 61  1  0
 23 62  1  0
 27 63  1  0
 28 64  1  0
 34 65  1  0
 34 66  1  0
 35 67  1  0
 35 68  1  0
 36 69  1  0
 36 70  1  0
 37 71  1  0
 37 72  1  0
 38 73  1  0
 39 74  1  0
 40 75  1  0
M  CHG  1   5  -1
M  END
>  <UniqueID>  (26) 
26

>  <SMILES>  (26) 
Cc1cc([N-]C(=O)Nc2ccc(C(=O)N3CCN(C)CC3)cc2)c(Oc2ccc(S(=O)(=O)N3CCCC3)cc2)cc1Cl

>  <Energy>  (26) 
110.12116257415089

>  <Genealogy>  (26) 
Cc1cc([N-]C(=O)Nc2ccc(C(=O)N3CCN(C)CC3)cc2)c(Oc2ccc(S(=O)(=O)N3CCCC3)cc2)cc1Cl (protonated)
Cc1cc([N-]C(=O)Nc2ccc(C(=O)N3CCN(C)CC3)cc2)c(Oc2ccc(S(=O)(=O)N3CCCC3)cc2)cc1Cl (3D coordinates assigned)
Cc1cc([N-]C(=O)Nc2ccc(C(=O)N3CCN(C)CC3)cc2)c(Oc2ccc(S(=O)(=O)N3CCCC3)cc2)cc1Cl (nonaromatic ring conformer: 110.12116257415089 kcal/mol)

>  <smiles>  (26) 
Cc1cc(NC(=O)Nc2ccc(C(=O)N3CCN(C)CC3)cc2)c(Oc2ccc(S(=O)(=O)N3CCCC3)cc2)cc1Cl

>  <score_type>  (26) 
oracle

>  <origin>  (26) 
adgpu

>  <m_score__min__energy>  (26) 
-12.210000000000001

>  <m_primary>  (26) 
energy

$$$$
26:0
     RDKit          3D

 31 33  0  0  0  0  0  0  0  0999 V2000
   -1.8980   25.4760  -28.9630 N   0  0  0  0  0  0  0  0  0  0  0  0
   -2.8490   24.4170  -29.0990 C   0  0  0  0  0  0  0  0  0  0  0  0
   -2.9930   23.4640  -28.0810 C   0  0  0  0  0  0  0  0  0  0  0  0
   -3.9250   22.4300  -28.2150 C   0  0  0  0  0  0  0  0  0  0  0  0
   -4.7150   22.3410  -29.3640 C   0  0  0  0  0  0  0  0  0  0  0  0
   -4.5730   23.2850  -30.3890 C   0  0  0  0  0  0  0  0  0  0  0  0
   -5.5630   23.1590  -31.8380 S   0  0  0  0  0  0  0  0  0  0  0  0
   -4.7660   22.5760  -32.9720 O   0  0  0  0  0  0  0  0  0  0  0  0
   -6.0390   24.5310  -32.2280 O   0  0  0  0  0  0  0  0  0  0  0  0
   -6.9230   22.1310  -31.5250 N   0  0  0  0  0  0  0  0  0  0  0  0
   -8.0380   22.4690  -30.8360 C   0  0  0  0  0  0  0  0  0  0  0  0
   -8.9070   21.3860  -30.7590 C   0  0  0  0  0  0  0  0  0  0  0  0
   -8.2740   20.3620  -31.4330 C   0  0  0  0  0  0  0  0  0  0  0  0
   -8.6760   19.0480  -31.6630 C   0  0  0  0  0  0  0  0  0  0  0  0
   -7.8040   18.2120  -32.3850 C   0  0  0  0  0  0  0  0  0  0  0  0
   -6.5640   18.7050  -32.8540 C   0  0  0  0  0  0  0  0  0  0  0  0
   -6.1870   20.0370  -32.6040 C   0  0  0  0  0  0  0  0  0  0  0  0
   -7.0730   20.8440  -31.8860 C   0  0  0  0  0  0  0  0  0  0  0  0
   -3.6420   24.3250  -30.2530 C   0  0  0  0  0  0  0  0  0  0  0  0
   -1.4690   25.6940  -28.0360 H   0  0  0  0  0  0  0  0  0  0  0  0
   -1.6160   26.0510  -29.7890 H   0  0  0  0  0  0  0  0  0  0  0  0
   -2.3720   23.5296  -27.1755 H   0  0  0  0  0  0  0  0  0  0  0  0
   -4.0364   21.6847  -27.4136 H   0  0  0  0  0  0  0  0  0  0  0  0
   -5.4496   21.5283  -29.4638 H   0  0  0  0  0  0  0  0  0  0  0  0
   -8.2296   23.4601  -30.3989 H   0  0  0  0  0  0  0  0  0  0  0  0
   -9.8897   21.3528  -30.2658 H   0  0  0  0  0  0  0  0  0  0  0  0
   -9.6428   18.6764  -31.2926 H   0  0  0  0  0  0  0  0  0  0  0  0
   -8.0886   17.1686  -32.5859 H   0  0  0  0  0  0  0  0  0  0  0  0
   -5.8904   18.0428  -33.4177 H   0  0  0  0  0  0  0  0  0  0  0  0
   -5.2246   20.4309  -32.9627 H   0  0  0  0  0  0  0  0  0  0  0  0
   -3.5330   25.0712  -31.0538 H   0  0  0  0  0  0  0  0  0  0  0  0
  1  2  1  0
  2  3  2  0
  3  4  1  0
  4  5  2  0
  5  6  1  0
  6  7  1  0
  7  8  2  0
  7  9  2  0
  7 10  1  0
 10 11  1  0
 11 12  2  0
 12 13  1  0
 13 14  2  0
 14 15  1  0
 15 16  2  0
 16 17  1  0
 17 18  2  0
  6 19  2  0
 19  2  1  0
 18 10  1  0
 18 13  1  0
  1 20  1  0
  1 21  1  0
  3 22  1  0
  4 23  1  0
  5 24  1  0
 11 25  1  0
 12 26  1  0
 14 27  1  0
 15 28  1  0
 16 29  1  0
 17 30  1  0
 19 31  1  0
M  END
>  <UniqueID>  (27) 
27

>  <SMILES>  (27) 
Nc1cccc(S(=O)(=O)n2ccc3ccccc32)c1

>  <Energy>  (27) 
67.50464888241689

>  <Genealogy>  (27) 
Nc1cccc(S(=O)(=O)n2ccc3ccccc32)c1 (3D coordinates assigned)
Nc1cccc(S(=O)(=O)n2ccc3ccccc32)c1 (optimized conformer: 67.50464888241689 kcal/mol)

>  <smiles>  (27) 
Nc1cccc(S(=O)(=O)n2ccc3ccccc32)c1

>  <score_type>  (27) 
oracle

>  <origin>  (27) 
adgpu

>  <m_score__min__energy>  (27) 
-8.1400000000000006

>  <m_primary>  (27) 
energy

$$$$
27:0
     RDKit          3D

 38 40  0  0  0  0  0  0  0  0999 V2000
   -1.9950   25.6740  -28.9580 N   0  0  0  0  0  0  0  0  0  0  0  0
   -2.2900   24.5470  -29.5190 C   0  0  0  0  0  0  0  0  0  0  0  0
   -3.5560   24.3080  -29.9540 N   0  0  0  0  0  0  0  0  0  0  0  0
   -3.8940   23.1320  -30.5530 C   0  0  0  0  0  0  0  0  0  0  0  0
   -5.2940   22.9210  -31.0040 C   0  0  0  0  0  0  0  0  0  0  0  0
   -6.2230   23.9790  -31.0340 C   0  0  0  0  0  0  0  0  0  0  0  0
   -7.5350   23.7580  -31.4590 C   0  0  0  0  0  0  0  0  0  0  0  0
   -7.9410   22.4810  -31.8510 C   0  0  0  0  0  0  0  0  0  0  0  0
   -7.0370   21.4130  -31.8120 C   0  0  0  0  0  0  0  0  0  0  0  0
   -7.5610   19.8100  -32.3230 S   0  0  0  0  0  0  0  0  0  0  0  0
   -9.0330   19.8580  -32.6250 O   0  0  0  0  0  0  0  0  0  0  0  0
   -7.3310   18.8160  -31.2180 O   0  0  0  0  0  0  0  0  0  0  0  0
   -6.6770   19.3270  -33.7510 N   0  0  0  0  0  0  0  0  0  0  0  0
   -5.3620   20.0130  -33.8250 C   0  0  0  0  0  0  0  0  0  0  0  0
   -4.2030   19.0840  -33.4250 C   0  0  0  0  0  0  0  0  0  0  0  0
   -4.1120   17.9220  -34.2380 O   0  0  0  0  0  0  0  0  0  0  0  0
   -5.3730   17.4270  -34.6760 C   0  0  0  0  0  0  0  0  0  0  0  0
   -6.5570   17.8530  -33.7910 C   0  0  0  0  0  0  0  0  0  0  0  0
   -5.7180   21.6340  -31.3880 C   0  0  0  0  0  0  0  0  0  0  0  0
   -2.9090   22.1420  -30.7080 C   0  0  0  0  0  0  0  0  0  0  0  0
   -1.6150   22.4070  -30.2560 C   0  0  0  0  0  0  0  0  0  0  0  0
   -0.7110   21.5400  -30.3820 O   0  0  0  0  0  0  0  0  0  0  0  0
   -1.3300   23.5990  -29.6740 N   0  0  0  0  0  0  0  0  0  0  0  0
   -2.7140   26.4220  -28.8260 H   0  0  0  0  0  0  0  0  0  0  0  0
   -5.9131   24.9868  -30.7204 H   0  0  0  0  0  0  0  0  0  0  0  0
   -8.2508   24.5929  -31.4849 H   0  0  0  0  0  0  0  0  0  0  0  0
   -8.9736   22.3138  -32.1913 H   0  0  0  0  0  0  0  0  0  0  0  0
   -7.2490   19.6280  -34.5750 H   0  0  0  0  0  0  0  0  0  0  0  0
   -5.1997   20.3591  -34.8565 H   0  0  0  0  0  0  0  0  0  0  0  0
   -5.3793   20.8570  -33.1197 H   0  0  0  0  0  0  0  0  0  0  0  0
   -3.2603   19.6446  -33.5093 H   0  0  0  0  0  0  0  0  0  0  0  0
   -4.3930   18.7486  -32.3948 H   0  0  0  0  0  0  0  0  0  0  0  0
   -5.5537   17.7967  -35.6961 H   0  0  0  0  0  0  0  0  0  0  0  0
   -5.3179   16.3296  -34.6252 H   0  0  0  0  0  0  0  0  0  0  0  0
   -7.4849   17.4262  -34.1995 H   0  0  0  0  0  0  0  0  0  0  0  0
   -6.3847   17.4846  -32.7689 H   0  0  0  0  0  0  0  0  0  0  0  0
   -5.0083   20.7942  -31.3552 H   0  0  0  0  0  0  0  0  0  0  0  0
   -3.1527   21.1770  -31.1764 H   0  0  0  0  0  0  0  0  0  0  0  0
  1  2  2  3
  2  3  1  0
  3  4  1  0
  4  5  1  0
  5  6  2  0
  6  7  1  0
  7  8  2  0
  8  9  1  0
  9 10  1  0
 10 11  2  0
 10 12  2  0
 10 13  1  0
 13 14  1  0
 14 15  1  0
 15 16  1  0
 16 17  1  0
 17 18  1  0
  9 19  2  0
  4 20  2  0
 20 21  1  0
 21 22  2  0
 21 23  1  0
 23  2  1  0
 19  5  1  0
 18 13  1  0
  1 24  1  0
  6 25  1  0
  7 26  1  0
  8 27  1  0
 13 28  1  0
 14 29  1  0
 14 30  1  0
 15 31  1  0
 15 32  1  0
 17 33  1  0
 17 34  1  0
 18 35  1  0
 18 36  1  0
 19 37  1  0
 20 38  1  0
M  CHG  3   3  -1  13   1  23  -1
M  END
>  <UniqueID>  (28) 
28

>  <SMILES>  (28) 
N=c1[n-]c(-c2cccc(S(=O)(=O)[NH+]3CCOCC3)c2)cc(=O)[n-]1

>  <Energy>  (28) 
56.340288062917004

>  <Genealogy>  (28) 
N=c1[n-]c(-c2cccc(S(=O)(=O)[NH+]3CCOCC3)c2)cc(=O)[n-]1 (protonated)
N=c1[n-]c(-c2cccc(S(=O)(=O)[NH+]3CCOCC3)c2)cc(=O)[n-]1 (3D coordinates assigned)
N=c1[n-]c(-c2cccc(S(=O)(=O)[NH+]3CCOCC3)c2)cc(=O)[n-]1 (nonaromatic ring conformer: 56.340288062917004 kcal/mol)

>  <smiles>  (28) 
N=c1[nH]c(-c2cccc(S(=O)(=O)N3CCOCC3)c2)cc(=O)[nH]1

>  <score_type>  (28) 
oracle

>  <origin>  (28) 
adgpu

>  <m_score__min__energy>  (28) 
-10.57

>  <m_primary>  (28) 
energy

$$$$
28:0
     RDKit          3D

 43 45  0  0  0  0  0  0  0  0999 V2000
   -5.3690   24.8300  -28.5790 O   0  0  0  0  0  0  0  0  0  0  0  0
   -5.1890   24.9240  -30.0680 S   0  0  0  0  0  0  0  0  0  0  0  0
   -5.8510   26.1770  -30.5670 O   0  0  0  0  0  0  0  0  0  0  0  0
   -3.4960   24.9800  -30.4410 N   0  0  0  0  0  0  0  0  0  0  0  0
   -2.4960   24.2760  -29.6900 C   0  0  0  0  0  0  0  0  0  0  0  0
   -1.5400   25.0180  -28.9850 C   0  0  0  0  0  0  0  0  0  0  0  0
   -1.6050   26.4070  -28.9680 O   0  0  0  0  0  0  0  0  0  0  0  0
   -0.5040   24.3710  -28.3130 C   0  0  0  0  0  0  0  0  0  0  0  0
   -0.4060   22.9800  -28.3450 C   0  0  0  0  0  0  0  0  0  0  0  0
   -1.3670   22.2110  -29.0220 C   0  0  0  0  0  0  0  0  0  0  0  0
   -1.2050   20.4480  -29.0560 S   0  0  0  0  0  0  0  0  0  0  0  0
    0.0330   20.0410  -28.3060 O   0  0  0  0  0  0  0  0  0  0  0  0
   -2.4040   19.8290  -28.3900 O   0  0  0  0  0  0  0  0  0  0  0  0
   -1.0950   19.8260  -30.7030 C   0  0  0  0  0  0  0  0  0  0  0  0
   -2.1290   20.0760  -31.6190 C   0  0  0  0  0  0  0  0  0  0  0  0
   -2.0490   19.5760  -32.9220 C   0  0  0  0  0  0  0  0  0  0  0  0
   -0.9390   18.8210  -33.3170 C   0  0  0  0  0  0  0  0  0  0  0  0
    0.0880   18.5610  -32.4050 C   0  0  0  0  0  0  0  0  0  0  0  0
    0.0110   19.0590  -31.1000 C   0  0  0  0  0  0  0  0  0  0  0  0
   -2.4430   22.8640  -29.6730 C   0  0  0  0  0  0  0  0  0  0  0  0
   -3.4730   22.1440  -30.2820 O   0  0  0  0  0  0  0  0  0  0  0  0
   -5.9240   23.5390  -30.8770 C   0  0  0  0  0  0  0  0  0  0  0  0
   -5.3920   23.0900  -32.0920 C   0  0  0  0  0  0  0  0  0  0  0  0
   -5.9010   21.9400  -32.7010 C   0  0  0  0  0  0  0  0  0  0  0  0
   -6.9460   21.2170  -32.1010 C   0  0  0  0  0  0  0  0  0  0  0  0
   -7.4730   19.9760  -32.7780 C   0  0  0  0  0  0  0  0  0  0  0  0
   -6.7480   19.7330  -33.9310 F   0  0  0  0  0  0  0  0  0  0  0  0
   -8.8020   20.1650  -33.1110 F   0  0  0  0  0  0  0  0  0  0  0  0
   -7.3730   18.8650  -31.9560 F   0  0  0  0  0  0  0  0  0  0  0  0
   -7.4970   21.6890  -30.8960 C   0  0  0  0  0  0  0  0  0  0  0  0
   -6.9870   22.8410  -30.2860 C   0  0  0  0  0  0  0  0  0  0  0  0
    0.2391   24.9598  -27.7553 H   0  0  0  0  0  0  0  0  0  0  0  0
    0.4313   22.4807  -27.8355 H   0  0  0  0  0  0  0  0  0  0  0  0
   -3.0042   20.6667  -31.3107 H   0  0  0  0  0  0  0  0  0  0  0  0
   -2.8598   19.7764  -33.6379 H   0  0  0  0  0  0  0  0  0  0  0  0
   -0.8747   18.4325  -34.3441 H   0  0  0  0  0  0  0  0  0  0  0  0
    0.9584   17.9636  -32.7141 H   0  0  0  0  0  0  0  0  0  0  0  0
    0.8190   18.8490  -30.3837 H   0  0  0  0  0  0  0  0  0  0  0  0
   -4.3440   21.9130  -29.8260 H   0  0  0  0  0  0  0  0  0  0  0  0
   -4.5704   23.6446  -32.5688 H   0  0  0  0  0  0  0  0  0  0  0  0
   -5.4802   21.5978  -33.6580 H   0  0  0  0  0  0  0  0  0  0  0  0
   -8.3344   21.1491  -30.4298 H   0  0  0  0  0  0  0  0  0  0  0  0
   -7.4210   23.1996  -29.3410 H   0  0  0  0  0  0  0  0  0  0  0  0
  1  2  2  0
  2  3  2  0
  2  4  1  0
  4  5  1  0
  5  6  2  0
  6  7  1  0
  6  8  1  0
  8  9  2  0
  9 10  1  0
 10 11  1  0
 11 12  2  0
 11 13  2  0
 11 14  1  0
 14 15  2  0
 15 16  1  0
 16 17  2  0
 17 18  1  0
 18 19  2  0
 10 20  2  0
 20 21  1  0
  2 22  1  0
 22 23  2  0
 23 24  1  0
 24 25  2  0
 25 26  1  0
 26 27  1  0
 26 28  1  0
 26 29  1  0
 25 30  1  0
 30 31  2  0
 20  5  1  0
 31 22  1  0
 19 14  1  0
  8 32  1  0
  9 33  1  0
 15 34  1  0
 16 35  1  0
 17 36  1  0
 18 37  1  0
 19 38  1  0
 21 39  1  0
 23 40  1  0
 24 41  1  0
 30 42  1  0
 31 43  1  0
M  CHG  2   4  -1   7  -1
M  END
>  <UniqueID>  (29) 
29

>  <SMILES>  (29) 
O=S(=O)([N-]c1c([O-])ccc(S(=O)(=O)c2ccccc2)c1O)c1ccc(C(F)(F)F)cc1

>  <Energy>  (29) 
57.523114522291486

>  <Genealogy>  (29) 
O=S(=O)([N-]c1c([O-])ccc(S(=O)(=O)c2ccccc2)c1O)c1ccc(C(F)(F)F)cc1 (protonated)
O=S(=O)([N-]c1c([O-])ccc(S(=O)(=O)c2ccccc2)c1O)c1ccc(C(F)(F)F)cc1 (3D coordinates assigned)
O=S(=O)([N-]c1c([O-])ccc(S(=O)(=O)c2ccccc2)c1O)c1ccc(C(F)(F)F)cc1 (optimized conformer: 57.523114522291486 kcal/mol)

>  <smiles>  (29) 
O=S(=O)(Nc1c(O)ccc(S(=O)(=O)c2ccccc2)c1O)c1ccc(C(F)(F)F)cc1

>  <score_type>  (29) 
oracle

>  <origin>  (29) 
adgpu

>  <m_score__min__energy>  (29) 
-13.210000000000001

>  <m_primary>  (29) 
energy

$$$$
29:0
     RDKit          3D

 49 51  0  0  0  0  0  0  0  0999 V2000
   -8.9090   18.2200  -31.8920 C   0  0  0  0  0  0  0  0  0  0  0  0
   -8.2050   19.5470  -31.9560 C   0  0  0  0  0  0  0  0  0  0  0  0
   -8.8310   20.6900  -31.4300 C   0  0  0  0  0  0  0  0  0  0  0  0
   -8.1950   21.9340  -31.4820 C   0  0  0  0  0  0  0  0  0  0  0  0
   -6.9330   22.0520  -32.0660 C   0  0  0  0  0  0  0  0  0  0  0  0
   -6.1360   23.6130  -32.1340 Cl  0  0  0  0  0  0  0  0  0  0  0  0
   -6.3050   20.9260  -32.6050 C   0  0  0  0  0  0  0  0  0  0  0  0
   -6.9340   19.6720  -32.5610 C   0  0  0  0  0  0  0  0  0  0  0  0
   -6.2800   18.5350  -33.1460 N   0  0  0  0  0  0  0  0  0  0  0  0
   -6.1110   18.4480  -34.5960 C   0  0  0  0  0  0  0  0  0  0  0  0
   -4.6340   18.1920  -34.8940 C   0  0  0  0  0  0  0  0  0  0  0  0
   -4.1130   16.9680  -34.2300 N   0  0  0  0  0  0  0  0  0  0  0  0
   -2.4380   17.1780  -33.7530 S   0  0  0  0  0  0  0  0  0  0  0  0
   -1.5680   16.3210  -34.6280 O   0  0  0  0  0  0  0  0  0  0  0  0
   -2.2690   16.6780  -32.3460 O   0  0  0  0  0  0  0  0  0  0  0  0
   -1.8890   18.8690  -33.8500 C   0  0  0  0  0  0  0  0  0  0  0  0
   -2.3540   19.9690  -33.1230 C   0  0  0  0  0  0  0  0  0  0  0  0
   -3.4020   20.0060  -32.0560 C   0  0  0  0  0  0  0  0  0  0  0  0
   -1.6380   21.0610  -33.4500 N   0  0  0  0  0  0  0  0  0  0  0  0
   -0.7570   20.7110  -34.3720 N   0  0  0  0  0  0  0  0  0  0  0  0
    0.2090   21.6410  -34.9450 C   0  0  0  0  0  0  0  0  0  0  0  0
   -0.8870   19.3980  -34.6620 C   0  0  0  0  0  0  0  0  0  0  0  0
    0.0250   18.6570  -35.5980 C   0  0  0  0  0  0  0  0  0  0  0  0
   -4.9410   16.4490  -33.1110 C   0  0  0  0  0  0  0  0  0  0  0  0
   -5.6160   17.5570  -32.2820 C   0  0  0  0  0  0  0  0  0  0  0  0
   -9.0600   17.9354  -30.8402 H   0  0  0  0  0  0  0  0  0  0  0  0
   -9.8844   18.2978  -32.3945 H   0  0  0  0  0  0  0  0  0  0  0  0
   -8.2976   17.4560  -32.3945 H   0  0  0  0  0  0  0  0  0  0  0  0
   -9.8285   20.6053  -30.9741 H   0  0  0  0  0  0  0  0  0  0  0  0
   -8.6904   22.8216  -31.0617 H   0  0  0  0  0  0  0  0  0  0  0  0
   -5.3113   21.0230  -33.0667 H   0  0  0  0  0  0  0  0  0  0  0  0
   -6.7188   17.6212  -34.9921 H   0  0  0  0  0  0  0  0  0  0  0  0
   -6.4361   19.3850  -35.0717 H   0  0  0  0  0  0  0  0  0  0  0  0
   -4.5095   18.0814  -35.9813 H   0  0  0  0  0  0  0  0  0  0  0  0
   -4.0651   19.0478  -34.5015 H   0  0  0  0  0  0  0  0  0  0  0  0
   -4.0960   16.2130  -34.9560 H   0  0  0  0  0  0  0  0  0  0  0  0
   -2.9196   19.9890  -31.0675 H   0  0  0  0  0  0  0  0  0  0  0  0
   -3.9968   20.9257  -32.1580 H   0  0  0  0  0  0  0  0  0  0  0  0
   -4.0601   19.1305  -32.1580 H   0  0  0  0  0  0  0  0  0  0  0  0
    0.7455   22.1575  -34.1354 H   0  0  0  0  0  0  0  0  0  0  0  0
    0.9280   21.0865  -35.5659 H   0  0  0  0  0  0  0  0  0  0  0  0
   -0.3178   22.3806  -35.5659 H   0  0  0  0  0  0  0  0  0  0  0  0
    0.7491   18.0687  -35.0152 H   0  0  0  0  0  0  0  0  0  0  0  0
   -0.5695   17.9828  -36.2320 H   0  0  0  0  0  0  0  0  0  0  0  0
    0.5632   19.3769  -36.2320 H   0  0  0  0  0  0  0  0  0  0  0  0
   -5.7249   15.8005  -33.5294 H   0  0  0  0  0  0  0  0  0  0  0  0
   -4.2662   15.9040  -32.4345 H   0  0  0  0  0  0  0  0  0  0  0  0
   -6.3631   17.1016  -31.6153 H   0  0  0  0  0  0  0  0  0  0  0  0
   -4.8413   18.0766  -31.6990 H   0  0  0  0  0  0  0  0  0  0  0  0
  1  2  1  0
  2  3  2  0
  3  4  1  0
  4  5  2  0
  5  6  1  0
  5  7  1  0
  7  8  2  0
  8  9  1  0
  9 10  1  0
 10 11  1  0
 11 12  1  0
 12 13  1  0
 13 14  2  0
 13 15  2  0
 13 16  1  0
 16 17  1  0
 17 18  1  0
 17 19  2  0
 19 20  1  0
 20 21  1  0
 20 22  1  0
 22 23  1  0
 12 24  1  0
 24 25  1  0
  8  2  1  0
 25  9  1  0
 22 16  2  0
  1 26  1  0
  1 27  1  0
  1 28  1  0
  3 29  1  0
  4 30  1  0
  7 31  1  0
 10 32  1  0
 10 33  1  0
 11 34  1  0
 11 35  1  0
 12 36  1  0
 18 37  1  0
 18 38  1  0
 18 39  1  0
 21 40  1  0
 21 41  1  0
 21 42  1  0
 23 43  1  0
 23 44  1  0
 23 45  1  0
 24 46  1  0
 24 47  1  0
 25 48  1  0
 25 49  1  0
M  CHG  1  12   1
M  END
>  <UniqueID>  (30) 
30

>  <SMILES>  (30) 
Cc1ccc(Cl)cc1N1CC[NH+](S(=O)(=O)c2c(C)nn(C)c2C)CC1

>  <Energy>  (30) 
89.38509929524274

>  <Genealogy>  (30) 
Cc1ccc(Cl)cc1N1CC[NH+](S(=O)(=O)c2c(C)nn(C)c2C)CC1 (protonated)
Cc1ccc(Cl)cc1N1CC[NH+](S(=O)(=O)c2c(C)nn(C)c2C)CC1 (3D coordinates assigned)
Cc1ccc(Cl)cc1N1CC[NH+](S(=O)(=O)c2c(C)nn(C)c2C)CC1 (nonaromatic ring conformer: 89.38509929524274 kcal/mol)

>  <smiles>  (30) 
Cc1ccc(Cl)cc1N1CCN(S(=O)(=O)c2c(C)nn(C)c2C)CC1

>  <score_type>  (30) 
oracle

>  <origin>  (30) 
adgpu

>  <m_score__min__energy>  (30) 
-8.3100000000000005

>  <m_primary>  (30) 
energy

$$$$
30:0
     RDKit          3D

 51 54  0  0  0  0  0  0  0  0999 V2000
   -2.4040   20.6560  -33.5360 C   0  0  0  0  0  0  0  0  0  0  0  0
   -3.8180   20.7140  -33.0520 C   0  0  0  0  0  0  0  0  0  0  0  0
   -4.3230   21.8910  -32.4850 C   0  0  0  0  0  0  0  0  0  0  0  0
   -5.6470   21.9320  -32.0290 C   0  0  0  0  0  0  0  0  0  0  0  0
   -6.1620   23.1460  -31.4650 N   0  0  0  0  0  0  0  0  0  0  0  0
   -7.3170   23.7970  -32.0800 C   0  0  0  0  0  0  0  0  0  0  0  0
   -5.6170   23.6480  -30.2010 C   0  0  0  0  0  0  0  0  0  0  0  0
   -4.6350   24.7590  -30.4640 C   0  0  0  0  0  0  0  0  0  0  0  0
   -5.0660   25.8920  -30.8070 O   0  0  0  0  0  0  0  0  0  0  0  0
   -3.2210   24.5310  -30.4500 N   0  0  0  0  0  0  0  0  0  0  0  0
   -2.4550   24.1240  -29.3080 C   0  0  0  0  0  0  0  0  0  0  0  0
   -2.4410   22.7700  -28.9490 C   0  0  0  0  0  0  0  0  0  0  0  0
   -1.6880   22.3340  -27.8490 C   0  0  0  0  0  0  0  0  0  0  0  0
   -1.7020   20.6380  -27.3750 S   0  0  0  0  0  0  0  0  0  0  0  0
   -1.6890   20.5280  -25.8750 O   0  0  0  0  0  0  0  0  0  0  0  0
   -2.9590   19.9880  -27.8950 O   0  0  0  0  0  0  0  0  0  0  0  0
   -0.2320   19.8470  -28.0300 C   0  0  0  0  0  0  0  0  0  0  0  0
   -0.2320   18.3300  -27.9560 C   0  0  0  0  0  0  0  0  0  0  0  0
   -0.4610   19.0270  -29.2880 C   0  0  0  0  0  0  0  0  0  0  0  0
   -0.9420   23.2600  -27.1090 C   0  0  0  0  0  0  0  0  0  0  0  0
   -0.9270   24.6060  -27.4800 C   0  0  0  0  0  0  0  0  0  0  0  0
   -1.6670   25.0410  -28.5840 C   0  0  0  0  0  0  0  0  0  0  0  0
   -1.5970   26.3770  -28.9670 O   0  0  0  0  0  0  0  0  0  0  0  0
   -6.4580   20.7850  -32.1440 C   0  0  0  0  0  0  0  0  0  0  0  0
   -7.7900   20.7640  -31.6890 C   0  0  0  0  0  0  0  0  0  0  0  0
   -8.5600   19.6040  -31.8250 C   0  0  0  0  0  0  0  0  0  0  0  0
   -8.0140   18.4620  -32.4190 C   0  0  0  0  0  0  0  0  0  0  0  0
   -6.6910   18.4690  -32.8740 C   0  0  0  0  0  0  0  0  0  0  0  0
   -5.9090   19.6220  -32.7360 C   0  0  0  0  0  0  0  0  0  0  0  0
   -4.6180   19.6190  -33.1670 N   0  0  0  0  0  0  0  0  0  0  0  0
   -1.7220   20.6280  -32.6734 H   0  0  0  0  0  0  0  0  0  0  0  0
   -2.2618   19.7513  -34.1453 H   0  0  0  0  0  0  0  0  0  0  0  0
   -2.1882   21.5460  -34.1453 H   0  0  0  0  0  0  0  0  0  0  0  0
   -3.6819   22.7806  -32.3980 H   0  0  0  0  0  0  0  0  0  0  0  0
   -7.9869   24.1746  -31.2935 H   0  0  0  0  0  0  0  0  0  0  0  0
   -6.9757   24.6356  -32.7047 H   0  0  0  0  0  0  0  0  0  0  0  0
   -7.8577   23.0708  -32.7047 H   0  0  0  0  0  0  0  0  0  0  0  0
   -6.4386   24.0292  -29.5768 H   0  0  0  0  0  0  0  0  0  0  0  0
   -5.1006   22.8275  -29.6812 H   0  0  0  0  0  0  0  0  0  0  0  0
   -3.0246   22.0438  -29.5338 H   0  0  0  0  0  0  0  0  0  0  0  0
    0.4692   20.6400  -27.7308 H   0  0  0  0  0  0  0  0  0  0  0  0
    0.7077   17.7882  -27.7731 H   0  0  0  0  0  0  0  0  0  0  0  0
   -0.7792   17.5798  -27.3662 H   0  0  0  0  0  0  0  0  0  0  0  0
    0.3130   18.9895  -30.0687 H   0  0  0  0  0  0  0  0  0  0  0  0
   -1.2425   18.9901  -30.0612 H   0  0  0  0  0  0  0  0  0  0  0  0
   -0.3664   22.9260  -26.2332 H   0  0  0  0  0  0  0  0  0  0  0  0
   -0.3308   25.3271  -26.9016 H   0  0  0  0  0  0  0  0  0  0  0  0
   -8.2261   21.6613  -31.2257 H   0  0  0  0  0  0  0  0  0  0  0  0
   -9.5988   19.5902  -31.4633 H   0  0  0  0  0  0  0  0  0  0  0  0
   -8.6267   17.5551  -32.5289 H   0  0  0  0  0  0  0  0  0  0  0  0
   -6.2651   17.5683  -33.3403 H   0  0  0  0  0  0  0  0  0  0  0  0
  1  2  1  0
  2  3  2  0
  3  4  1  0
  4  5  1  0
  5  6  1  0
  5  7  1  0
  7  8  1  0
  8  9  2  0
  8 10  1  0
 10 11  1  0
 11 12  2  0
 12 13  1  0
 13 14  1  0
 14 15  2  0
 14 16  2  0
 14 17  1  0
 17 18  1  0
 18 19  1  0
 13 20  2  0
 20 21  1  0
 21 22  2  0
 22 23  1  0
  4 24  2  0
 24 25  1  0
 25 26  2  0
 26 27  1  0
 27 28  2  0
 28 29  1  0
 29 30  2  0
 30  2  1  0
 22 11  1  0
 29 24  1  0
 19 17  1  0
  1 31  1  0
  1 32  1  0
  1 33  1  0
  3 34  1  0
  6 35  1  0
  6 36  1  0
  6 37  1  0
  7 38  1  0
  7 39  1  0
 12 40  1  0
 17 41  1  0
 18 42  1  0
 18 43  1  0
 19 44  1  0
 19 45  1  0
 20 46  1  0
 21 47  1  0
 25 48  1  0
 26 49  1  0
 27 50  1  0
 28 51  1  0
M  CHG  2  10  -1  23  -1
M  END
>  <UniqueID>  (31) 
31

>  <SMILES>  (31) 
Cc1cc(N(C)CC(=O)[N-]c2cc(S(=O)(=O)C3CC3)ccc2[O-])c2ccccc2n1

>  <Energy>  (31) 
329.5306405057228

>  <Genealogy>  (31) 
Cc1cc(N(C)CC(=O)[N-]c2cc(S(=O)(=O)C3CC3)ccc2[O-])c2ccccc2n1 (protonated)
Cc1cc(N(C)CC(=O)[N-]c2cc(S(=O)(=O)C3CC3)ccc2[O-])c2ccccc2n1 (3D coordinates assigned)
Cc1cc(N(C)CC(=O)[N-]c2cc(S(=O)(=O)C3CC3)ccc2[O-])c2ccccc2n1 (nonaromatic ring conformer: 329.5306405057228 kcal/mol)

>  <smiles>  (31) 
Cc1cc(N(C)CC(=O)Nc2cc(S(=O)(=O)C3CC3)ccc2O)c2ccccc2n1

>  <score_type>  (31) 
oracle

>  <origin>  (31) 
adgpu

>  <m_score__min__energy>  (31) 
-14.92

>  <m_primary>  (31) 
energy

$$$$
31:0
     RDKit          3D

 45 47  0  0  0  0  0  0  0  0999 V2000
   -3.8780   25.3590  -30.6460 N   0  0  0  0  0  0  0  0  0  0  0  0
   -4.1240   23.6520  -30.5460 S   0  0  0  0  0  0  0  0  0  0  0  0
   -5.1810   23.3460  -29.5220 O   0  0  0  0  0  0  0  0  0  0  0  0
   -4.5880   23.1550  -31.8860 O   0  0  0  0  0  0  0  0  0  0  0  0
   -2.6060   22.8660  -30.0900 C   0  0  0  0  0  0  0  0  0  0  0  0
   -1.6800   23.5620  -29.2960 C   0  0  0  0  0  0  0  0  0  0  0  0
   -0.4820   22.9560  -28.8880 C   0  0  0  0  0  0  0  0  0  0  0  0
    0.4870   23.7010  -28.0530 C   0  0  0  0  0  0  0  0  0  0  0  0
    0.6040   24.9510  -28.1660 O   0  0  0  0  0  0  0  0  0  0  0  0
    1.2810   23.0310  -27.1290 O   0  0  0  0  0  0  0  0  0  0  0  0
   -0.2150   21.6370  -29.2860 C   0  0  0  0  0  0  0  0  0  0  0  0
   -1.1280   20.9380  -30.0760 C   0  0  0  0  0  0  0  0  0  0  0  0
   -2.3310   21.5370  -30.4800 C   0  0  0  0  0  0  0  0  0  0  0  0
   -3.2380   20.8170  -31.3300 N   0  0  0  0  0  0  0  0  0  0  0  0
   -2.7980   19.8660  -32.3140 C   0  0  0  0  0  0  0  0  0  0  0  0
   -1.5730   19.5750  -32.4050 O   0  0  0  0  0  0  0  0  0  0  0  0
   -3.7560   19.2320  -33.2490 C   0  0  0  0  0  0  0  0  0  0  0  0
   -3.3280   18.1330  -34.0150 C   0  0  0  0  0  0  0  0  0  0  0  0
   -4.1980   17.5040  -34.9130 C   0  0  0  0  0  0  0  0  0  0  0  0
   -3.7480   16.3930  -35.6940 N   0  0  0  0  0  0  0  0  0  0  0  0
   -5.5090   17.9730  -35.0500 C   0  0  0  0  0  0  0  0  0  0  0  0
   -5.9530   19.0510  -34.2830 C   0  0  0  0  0  0  0  0  0  0  0  0
   -5.0930   19.6740  -33.3590 C   0  0  0  0  0  0  0  0  0  0  0  0
   -5.5450   20.7350  -32.5600 O   0  0  0  0  0  0  0  0  0  0  0  0
   -6.8840   20.9910  -32.2400 C   0  0  0  0  0  0  0  0  0  0  0  0
   -7.3440   22.3130  -32.2760 C   0  0  0  0  0  0  0  0  0  0  0  0
   -8.6710   22.6100  -31.9540 C   0  0  0  0  0  0  0  0  0  0  0  0
   -9.5470   21.5860  -31.5850 C   0  0  0  0  0  0  0  0  0  0  0  0
   -9.0920   20.2660  -31.5240 C   0  0  0  0  0  0  0  0  0  0  0  0
   -7.7630   19.9640  -31.8380 C   0  0  0  0  0  0  0  0  0  0  0  0
   -7.3170   18.6520  -31.7240 O   0  0  0  0  0  0  0  0  0  0  0  0
   -3.4970   25.6670  -29.7240 H   0  0  0  0  0  0  0  0  0  0  0  0
   -1.8968   24.5961  -28.9898 H   0  0  0  0  0  0  0  0  0  0  0  0
    0.7207   21.1509  -28.9729 H   0  0  0  0  0  0  0  0  0  0  0  0
   -0.9026   19.9068  -30.3854 H   0  0  0  0  0  0  0  0  0  0  0  0
   -4.2550   21.0390  -31.2520 H   0  0  0  0  0  0  0  0  0  0  0  0
   -2.2976   17.7635  -33.9071 H   0  0  0  0  0  0  0  0  0  0  0  0
   -4.1320   15.4360  -35.5320 H   0  0  0  0  0  0  0  0  0  0  0  0
   -3.0270   16.5200  -36.4390 H   0  0  0  0  0  0  0  0  0  0  0  0
   -6.1920   17.4905  -35.7646 H   0  0  0  0  0  0  0  0  0  0  0  0
   -6.9836   19.4169  -34.4015 H   0  0  0  0  0  0  0  0  0  0  0  0
   -6.6562   23.1232  -32.5597 H   0  0  0  0  0  0  0  0  0  0  0  0
   -9.0260   23.6505  -31.9911 H   0  0  0  0  0  0  0  0  0  0  0  0
  -10.5944   21.8187  -31.3426 H   0  0  0  0  0  0  0  0  0  0  0  0
   -9.7816   19.4617  -31.2280 H   0  0  0  0  0  0  0  0  0  0  0  0
  1  2  1  0
  2  3  2  0
  2  4  2  0
  2  5  1  0
  5  6  2  0
  6  7  1  0
  7  8  1  0
  8  9  2  0
  8 10  1  0
  7 11  2  0
 11 12  1  0
 12 13  2  0
 13 14  1  0
 14 15  1  0
 15 16  2  0
 15 17  1  0
 17 18  2  0
 18 19  1  0
 19 20  1  0
 19 21  2  0
 21 22  1  0
 22 23  2  0
 23 24  1  0
 24 25  1  0
 25 26  2  0
 26 27  1  0
 27 28  2  0
 28 29  1  0
 29 30  2  0
 30 31  1  0
 13  5  1  0
 23 17  1  0
 30 25  1  0
  1 32  1  0
  6 33  1  0
 11 34  1  0
 12 35  1  0
 14 36  1  0
 18 37  1  0
 20 38  1  0
 20 39  1  0
 21 40  1  0
 22 41  1  0
 26 42  1  0
 27 43  1  0
 28 44  1  0
 29 45  1  0
M  CHG  3   1  -1  10  -1  31  -1
M  END
>  <UniqueID>  (32) 
32

>  <SMILES>  (32) 
[NH-]S(=O)(=O)c1cc(C(=O)[O-])ccc1NC(=O)c1cc(N)ccc1Oc1ccccc1[O-]

>  <Energy>  (32) 
63.810697287909775

>  <Genealogy>  (32) 
[NH-]S(=O)(=O)c1cc(C(=O)[O-])ccc1NC(=O)c1cc(N)ccc1Oc1ccccc1[O-] (protonated)
[NH-]S(=O)(=O)c1cc(C(=O)[O-])ccc1NC(=O)c1cc(N)ccc1Oc1ccccc1[O-] (3D coordinates assigned)
[NH-]S(=O)(=O)c1cc(C(=O)[O-])ccc1NC(=O)c1cc(N)ccc1Oc1ccccc1[O-] (optimized conformer: 63.810697287909775 kcal/mol)

>  <smiles>  (32) 
Nc1ccc(Oc2ccccc2O)c(C(=O)Nc2ccc(C(=O)O)cc2S(N)(=O)=O)c1

>  <score_type>  (32) 
oracle

>  <origin>  (32) 
adgpu

>  <m_score__min__energy>  (32) 
-12.710000000000001

>  <m_primary>  (32) 
energy

$$$$
32:0
     RDKit          3D

 44 46  0  0  0  0  0  0  0  0999 V2000
   -2.0770   20.3250  -32.0940 C   0  0  0  0  0  0  0  0  0  0  0  0
   -0.4640   21.0040  -31.5820 S   0  0  0  0  0  0  0  0  0  0  0  0
   -0.8520   20.9840  -29.8260 C   0  0  0  0  0  0  0  0  0  0  0  0
   -0.3190   19.9910  -29.0630 N   0  0  0  0  0  0  0  0  0  0  0  0
   -0.5280   19.9160  -27.7230 C   0  0  0  0  0  0  0  0  0  0  0  0
   -1.2960   20.8870  -27.0820 C   0  0  0  0  0  0  0  0  0  0  0  0
   -1.8300   21.9360  -27.8280 C   0  0  0  0  0  0  0  0  0  0  0  0
   -1.6260   21.9980  -29.2150 C   0  0  0  0  0  0  0  0  0  0  0  0
   -2.1300   23.1760  -29.9570 C   0  0  0  0  0  0  0  0  0  0  0  0
   -1.6530   24.3110  -29.6930 O   0  0  0  0  0  0  0  0  0  0  0  0
   -3.1220   23.0710  -30.9860 N   0  0  0  0  0  0  0  0  0  0  0  0
   -4.5120   23.4050  -30.8650 C   0  0  0  0  0  0  0  0  0  0  0  0
   -5.5170   22.4360  -31.0340 C   0  0  0  0  0  0  0  0  0  0  0  0
   -6.8690   22.7940  -30.9550 C   0  0  0  0  0  0  0  0  0  0  0  0
   -8.1250   21.5910  -31.2640 S   0  0  0  0  0  0  0  0  0  0  0  0
   -8.9090   22.0000  -32.4790 O   0  0  0  0  0  0  0  0  0  0  0  0
   -9.0670   21.5520  -30.0920 O   0  0  0  0  0  0  0  0  0  0  0  0
   -7.4720   19.9900  -31.5230 N   0  0  0  0  0  0  0  0  0  0  0  0
   -8.5190   18.9710  -31.5750 C   0  0  0  0  0  0  0  0  0  0  0  0
   -7.9670   17.8250  -32.4070 C   0  0  0  0  0  0  0  0  0  0  0  0
   -6.8070   18.4190  -33.1920 C   0  0  0  0  0  0  0  0  0  0  0  0
   -6.7620   19.8850  -32.7970 C   0  0  0  0  0  0  0  0  0  0  0  0
   -7.2160   24.1140  -30.6400 C   0  0  0  0  0  0  0  0  0  0  0  0
   -6.2230   25.0710  -30.4240 C   0  0  0  0  0  0  0  0  0  0  0  0
   -4.8700   24.7210  -30.5380 C   0  0  0  0  0  0  0  0  0  0  0  0
   -3.8780   25.6790  -30.3380 O   0  0  0  0  0  0  0  0  0  0  0  0
   -2.6697   20.0755  -31.2016 H   0  0  0  0  0  0  0  0  0  0  0  0
   -2.6156   21.0727  -32.6946 H   0  0  0  0  0  0  0  0  0  0  0  0
   -1.9187   19.4172  -32.6946 H   0  0  0  0  0  0  0  0  0  0  0  0
   -0.0913   19.0892  -27.1436 H   0  0  0  0  0  0  0  0  0  0  0  0
   -1.4785   20.8258  -25.9990 H   0  0  0  0  0  0  0  0  0  0  0  0
   -2.4153   22.7206  -27.3263 H   0  0  0  0  0  0  0  0  0  0  0  0
   -5.2396   21.3897  -31.2296 H   0  0  0  0  0  0  0  0  0  0  0  0
   -8.7598   18.6218  -30.5601 H   0  0  0  0  0  0  0  0  0  0  0  0
   -9.4430   19.3730  -32.0162 H   0  0  0  0  0  0  0  0  0  0  0  0
   -7.6147   17.0114  -31.7559 H   0  0  0  0  0  0  0  0  0  0  0  0
   -8.7321   17.3946  -33.0698 H   0  0  0  0  0  0  0  0  0  0  0  0
   -5.8646   17.9190  -32.9239 H   0  0  0  0  0  0  0  0  0  0  0  0
   -6.9387   18.2912  -34.2766 H   0  0  0  0  0  0  0  0  0  0  0  0
   -5.7195   20.2159  -32.6802 H   0  0  0  0  0  0  0  0  0  0  0  0
   -7.2257   20.5202  -33.5661 H   0  0  0  0  0  0  0  0  0  0  0  0
   -8.2759   24.3978  -30.5625 H   0  0  0  0  0  0  0  0  0  0  0  0
   -6.5027   26.1025  -30.1636 H   0  0  0  0  0  0  0  0  0  0  0  0
   -2.9960   25.6410  -30.8360 H   0  0  0  0  0  0  0  0  0  0  0  0
  1  2  1  0
  2  3  1  0
  3  4  2  0
  4  5  1  0
  5  6  2  0
  6  7  1  0
  7  8  2  0
  8  9  1  0
  9 10  2  0
  9 11  1  0
 11 12  1  0
 12 13  2  0
 13 14  1  0
 14 15  1  0
 15 16  2  0
 15 17  2  0
 15 18  1  0
 18 19  1  0
 19 20  1  0
 20 21  1  0
 21 22  1  0
 14 23  2  0
 23 24  1  0
 24 25  2  0
 25 26  1  0
  8  3  1  0
 25 12  1  0
 22 18  1  0
  1 27  1  0
  1 28  1  0
  1 29  1  0
  5 30  1  0
  6 31  1  0
  7 32  1  0
 13 33  1  0
 19 34  1  0
 19 35  1  0
 20 36  1  0
 20 37  1  0
 21 38  1  0
 21 39  1  0
 22 40  1  0
 22 41  1  0
 23 42  1  0
 24 43  1  0
 26 44  1  0
M  CHG  1  11  -1
M  END
>  <UniqueID>  (33) 
33

>  <SMILES>  (33) 
CSc1ncccc1C(=O)[N-]c1cc(S(=O)(=O)N2CCCC2)ccc1O

>  <Energy>  (33) 
48.74703521116599

>  <Genealogy>  (33) 
CSc1ncccc1C(=O)[N-]c1cc(S(=O)(=O)N2CCCC2)ccc1O (protonated)
CSc1ncccc1C(=O)[N-]c1cc(S(=O)(=O)N2CCCC2)ccc1O (3D coordinates assigned)
CSc1ncccc1C(=O)[N-]c1cc(S(=O)(=O)N2CCCC2)ccc1O (nonaromatic ring conformer: 48.74703521116599 kcal/mol)

>  <smiles>  (33) 
CSc1ncccc1C(=O)Nc1cc(S(=O)(=O)N2CCCC2)ccc1O

>  <score_type>  (33) 
oracle

>  <origin>  (33) 
adgpu

>  <m_score__min__energy>  (33) 
-10.380000000000001

>  <m_primary>  (33) 
energy

$$$$
33:0
     RDKit          3D

 46 49  0  0  0  0  0  0  0  0999 V2000
   -6.2810   17.6180  -33.2410 C   0  0  0  0  0  0  0  0  0  0  0  0
   -6.4850   18.9900  -33.8040 C   0  0  0  0  0  0  0  0  0  0  0  0
   -6.0790   19.2310  -34.9720 O   0  0  0  0  0  0  0  0  0  0  0  0
   -7.0980   20.0250  -33.0100 N   0  0  0  0  0  0  0  0  0  0  0  0
   -8.5230   20.0500  -32.6630 C   0  0  0  0  0  0  0  0  0  0  0  0
   -8.7190   21.2560  -31.7170 C   0  0  0  0  0  0  0  0  0  0  0  0
   -7.3570   21.8440  -31.6210 C   0  0  0  0  0  0  0  0  0  0  0  0
   -6.9690   22.9740  -30.9000 C   0  0  0  0  0  0  0  0  0  0  0  0
   -5.6250   23.3820  -30.9550 C   0  0  0  0  0  0  0  0  0  0  0  0
   -5.1050   24.7900  -30.0320 S   0  0  0  0  0  0  0  0  0  0  0  0
   -4.1800   25.6400  -30.8580 O   0  0  0  0  0  0  0  0  0  0  0  0
   -6.3120   25.6090  -29.6720 O   0  0  0  0  0  0  0  0  0  0  0  0
   -4.3060   24.2800  -28.5730 N   0  0  0  0  0  0  0  0  0  0  0  0
   -3.1940   23.3720  -28.8660 C   0  0  0  0  0  0  0  0  0  0  0  0
   -1.9560   24.1690  -29.2770 C   0  0  0  0  0  0  0  0  0  0  0  0
   -1.4210   24.9370  -28.1090 C   0  0  0  0  0  0  0  0  0  0  0  0
   -0.0920   25.1200  -27.8900 N   0  0  0  0  0  0  0  0  0  0  0  0
   -0.0740   25.7890  -26.7240 C   0  0  0  0  0  0  0  0  0  0  0  0
    1.0390   26.2360  -26.0140 C   0  0  0  0  0  0  0  0  0  0  0  0
    0.8110   26.9050  -24.7970 C   0  0  0  0  0  0  0  0  0  0  0  0
   -0.5070   27.1050  -24.3240 C   0  0  0  0  0  0  0  0  0  0  0  0
   -1.6080   26.6380  -25.0650 C   0  0  0  0  0  0  0  0  0  0  0  0
   -1.3430   25.9840  -26.2670 C   0  0  0  0  0  0  0  0  0  0  0  0
   -2.2120   25.4450  -27.1310 N   0  0  0  0  0  0  0  0  0  0  0  0
   -4.7020   22.6500  -31.7310 C   0  0  0  0  0  0  0  0  0  0  0  0
   -5.1170   21.5160  -32.4490 C   0  0  0  0  0  0  0  0  0  0  0  0
   -6.4610   21.1260  -32.3680 C   0  0  0  0  0  0  0  0  0  0  0  0
   -6.2884   17.6677  -32.1422 H   0  0  0  0  0  0  0  0  0  0  0  0
   -7.0907   16.9570  -33.5836 H   0  0  0  0  0  0  0  0  0  0  0  0
   -5.3140   17.2211  -33.5836 H   0  0  0  0  0  0  0  0  0  0  0  0
   -9.1335   20.1741  -33.5696 H   0  0  0  0  0  0  0  0  0  0  0  0
   -8.8335   19.1106  -32.1822 H   0  0  0  0  0  0  0  0  0  0  0  0
   -9.4305   21.9787  -32.1429 H   0  0  0  0  0  0  0  0  0  0  0  0
   -9.1336   20.9713  -30.7387 H   0  0  0  0  0  0  0  0  0  0  0  0
   -7.7009   23.5347  -30.3001 H   0  0  0  0  0  0  0  0  0  0  0  0
   -2.9630   22.7790  -27.9688 H   0  0  0  0  0  0  0  0  0  0  0  0
   -3.4827   22.7058  -29.6924 H   0  0  0  0  0  0  0  0  0  0  0  0
   -1.1828   23.4763  -29.6407 H   0  0  0  0  0  0  0  0  0  0  0  0
   -2.2335   24.8757  -30.0730 H   0  0  0  0  0  0  0  0  0  0  0  0
    2.0591   26.0718  -26.3914 H   0  0  0  0  0  0  0  0  0  0  0  0
    1.6640   27.2751  -24.2093 H   0  0  0  0  0  0  0  0  0  0  0  0
   -0.6721   27.6289  -23.3710 H   0  0  0  0  0  0  0  0  0  0  0  0
   -2.6387   26.7835  -24.7093 H   0  0  0  0  0  0  0  0  0  0  0  0
   -3.2520   25.4080  -27.0580 H   0  0  0  0  0  0  0  0  0  0  0  0
   -3.6502   22.9693  -31.7742 H   0  0  0  0  0  0  0  0  0  0  0  0
   -4.4026   20.9464  -33.0616 H   0  0  0  0  0  0  0  0  0  0  0  0
  1  2  1  0
  2  3  2  0
  2  4  1  0
  4  5  1  0
  5  6  1  0
  6  7  1  0
  7  8  2  0
  8  9  1  0
  9 10  1  0
 10 11  2  0
 10 12  2  0
 10 13  1  0
 13 14  1  0
 14 15  1  0
 15 16  1  0
 16 17  2  0
 17 18  1  0
 18 19  2  0
 19 20  1  0
 20 21  2  0
 21 22  1  0
 22 23  2  0
 23 24  1  0
  9 25  2  0
 25 26  1  0
 26 27  2  0
 27  4  1  0
 27  7  1  0
 24 16  1  0
 23 18  1  0
  1 28  1  0
  1 29  1  0
  1 30  1  0
  5 31  1  0
  5 32  1  0
  6 33  1  0
  6 34  1  0
  8 35  1  0
 14 36  1  0
 14 37  1  0
 15 38  1  0
 15 39  1  0
 19 40  1  0
 20 41  1  0
 21 42  1  0
 22 43  1  0
 24 44  1  0
 25 45  1  0
 26 46  1  0
M  CHG  1  13  -1
M  END
>  <UniqueID>  (34) 
34

>  <SMILES>  (34) 
CC(=O)N1CCc2cc(S(=O)(=O)[N-]CCc3nc4ccccc4[nH]3)ccc21

>  <Energy>  (34) 
97.05413297419844

>  <Genealogy>  (34) 
CC(=O)N1CCc2cc(S(=O)(=O)[N-]CCc3nc4ccccc4[nH]3)ccc21 (protonated)
CC(=O)N1CCc2cc(S(=O)(=O)[N-]CCc3nc4ccccc4[nH]3)ccc21 (3D coordinates assigned)
CC(=O)N1CCc2cc(S(=O)(=O)[N-]CCc3nc4ccccc4[nH]3)ccc21 (nonaromatic ring conformer: 97.05413297419844 kcal/mol)

>  <smiles>  (34) 
CC(=O)N1CCc2cc(S(=O)(=O)NCCc3nc4ccccc4[nH]3)ccc21

>  <score_type>  (34) 
oracle

>  <origin>  (34) 
adgpu

>  <m_score__min__energy>  (34) 
-10.800000000000001

>  <m_primary>  (34) 
energy

$$$$
34:0
     RDKit          3D

 67 70  0  0  0  0  0  0  0  0999 V2000
   -5.2420   15.4830  -33.1380 C   0  0  0  0  0  0  0  0  0  0  0  0
   -4.5630   16.6010  -32.3540 C   0  0  0  0  0  0  0  0  0  0  0  0
   -4.9230   17.9130  -32.9140 N   0  0  0  0  0  0  0  0  0  0  0  0
   -3.8700   18.8680  -33.1380 C   0  0  0  0  0  0  0  0  0  0  0  0
   -2.7330   18.5070  -33.8720 C   0  0  0  0  0  0  0  0  0  0  0  0
   -1.7370   19.4640  -34.1190 C   0  0  0  0  0  0  0  0  0  0  0  0
   -0.5170   19.1010  -34.9100 C   0  0  0  0  0  0  0  0  0  0  0  0
   -1.8710   20.7470  -33.5730 C   0  0  0  0  0  0  0  0  0  0  0  0
   -3.0040   21.0590  -32.8230 C   0  0  0  0  0  0  0  0  0  0  0  0
   -3.9720   20.1260  -32.6310 N   0  0  0  0  0  0  0  0  0  0  0  0
   -6.3150   18.2010  -33.3220 C   0  0  0  0  0  0  0  0  0  0  0  0
   -7.2830   18.1480  -32.1090 C   0  0  0  0  0  0  0  0  0  0  0  0
   -8.2780   19.3110  -32.0930 C   0  0  0  0  0  0  0  0  0  0  0  0
   -7.5480   20.5820  -32.1910 N   0  0  0  0  0  0  0  0  0  0  0  0
   -7.7590   21.6230  -31.2150 C   0  0  0  0  0  0  0  0  0  0  0  0
   -8.7790   21.6060  -30.4750 O   0  0  0  0  0  0  0  0  0  0  0  0
   -6.7570   22.6800  -31.0010 C   0  0  0  0  0  0  0  0  0  0  0  0
   -7.1410   24.0220  -30.8770 C   0  0  0  0  0  0  0  0  0  0  0  0
   -6.1690   25.0130  -30.7070 C   0  0  0  0  0  0  0  0  0  0  0  0
   -4.8140   24.6690  -30.6440 C   0  0  0  0  0  0  0  0  0  0  0  0
   -3.8620   25.6660  -30.4670 O   0  0  0  0  0  0  0  0  0  0  0  0
   -4.4240   23.3230  -30.7440 C   0  0  0  0  0  0  0  0  0  0  0  0
   -3.0350   22.9690  -30.6870 N   0  0  0  0  0  0  0  0  0  0  0  0
   -2.2850   22.4450  -29.2120 S   0  0  0  0  0  0  0  0  0  0  0  0
   -3.1480   21.3970  -28.5680 O   0  0  0  0  0  0  0  0  0  0  0  0
   -0.9500   21.8320  -29.5240 O   0  0  0  0  0  0  0  0  0  0  0  0
   -2.0840   23.7810  -28.0830 C   0  0  0  0  0  0  0  0  0  0  0  0
   -0.8330   24.3970  -27.9420 C   0  0  0  0  0  0  0  0  0  0  0  0
   -0.6400   25.3820  -26.9690 C   0  0  0  0  0  0  0  0  0  0  0  0
   -1.7020   25.7760  -26.1400 C   0  0  0  0  0  0  0  0  0  0  0  0
   -1.4760   26.7820  -25.0520 C   0  0  0  0  0  0  0  0  0  0  0  0
   -2.9540   25.1570  -26.2820 C   0  0  0  0  0  0  0  0  0  0  0  0
   -3.1450   24.1690  -27.2520 C   0  0  0  0  0  0  0  0  0  0  0  0
   -5.4030   22.3380  -30.9460 C   0  0  0  0  0  0  0  0  0  0  0  0
   -6.5570   20.7680  -33.2610 C   0  0  0  0  0  0  0  0  0  0  0  0
   -6.4060   19.5150  -34.1380 C   0  0  0  0  0  0  0  0  0  0  0  0
   -5.6820   14.7585  -32.4370 H   0  0  0  0  0  0  0  0  0  0  0  0
   -6.0345   15.9083  -33.7713 H   0  0  0  0  0  0  0  0  0  0  0  0
   -4.4992   14.9758  -33.7713 H   0  0  0  0  0  0  0  0  0  0  0  0
   -4.8858   16.5546  -31.3035 H   0  0  0  0  0  0  0  0  0  0  0  0
   -3.4726   16.4719  -32.4209 H   0  0  0  0  0  0  0  0  0  0  0  0
   -2.6217   17.4808  -34.2520 H   0  0  0  0  0  0  0  0  0  0  0  0
    0.3062   18.8561  -34.2227 H   0  0  0  0  0  0  0  0  0  0  0  0
   -0.7370   18.2294  -35.5440 H   0  0  0  0  0  0  0  0  0  0  0  0
   -0.2247   19.9511  -35.5440 H   0  0  0  0  0  0  0  0  0  0  0  0
   -1.0882   21.5026  -33.7348 H   0  0  0  0  0  0  0  0  0  0  0  0
   -3.1141   22.0625  -32.3860 H   0  0  0  0  0  0  0  0  0  0  0  0
   -6.6482   17.4049  -34.0040 H   0  0  0  0  0  0  0  0  0  0  0  0
   -7.8463   17.2041  -32.1499 H   0  0  0  0  0  0  0  0  0  0  0  0
   -6.6740   18.2205  -31.1958 H   0  0  0  0  0  0  0  0  0  0  0  0
   -8.9659   19.2166  -32.9461 H   0  0  0  0  0  0  0  0  0  0  0  0
   -8.8519   19.2894  -31.1548 H   0  0  0  0  0  0  0  0  0  0  0  0
   -8.2058   24.2956  -30.9133 H   0  0  0  0  0  0  0  0  0  0  0  0
   -6.4708   26.0674  -30.6224 H   0  0  0  0  0  0  0  0  0  0  0  0
   -2.3990   23.3290  -31.4340 H   0  0  0  0  0  0  0  0  0  0  0  0
   -0.0006   24.1045  -28.5989 H   0  0  0  0  0  0  0  0  0  0  0  0
    0.3485   25.8504  -26.8525 H   0  0  0  0  0  0  0  0  0  0  0  0
   -1.5857   26.2936  -24.0725 H   0  0  0  0  0  0  0  0  0  0  0  0
   -0.4619   27.1984  -25.1425 H   0  0  0  0  0  0  0  0  0  0  0  0
   -2.2145   27.5922  -25.1425 H   0  0  0  0  0  0  0  0  0  0  0  0
   -3.7878   25.4507  -25.6274 H   0  0  0  0  0  0  0  0  0  0  0  0
   -4.1309   23.6941  -27.3640 H   0  0  0  0  0  0  0  0  0  0  0  0
   -5.1017   21.2865  -31.0622 H   0  0  0  0  0  0  0  0  0  0  0  0
   -6.8748   21.6083  -33.8958 H   0  0  0  0  0  0  0  0  0  0  0  0
   -5.5840   20.9682  -32.7885 H   0  0  0  0  0  0  0  0  0  0  0  0
   -7.2767   19.4505  -34.8071 H   0  0  0  0  0  0  0  0  0  0  0  0
   -5.4622   19.6188  -34.6934 H   0  0  0  0  0  0  0  0  0  0  0  0
  1  2  1  0
  2  3  1  0
  3  4  1  0
  4  5  2  0
  5  6  1  0
  6  7  1  0
  6  8  2  0
  8  9  1  0
  9 10  2  0
  3 11  1  0
 11 12  1  0
 12 13  1  0
 13 14  1  0
 14 15  1  0
 15 16  2  0
 15 17  1  0
 17 18  2  0
 18 19  1  0
 19 20  2  0
 20 21  1  0
 20 22  1  0
 22 23  1  0
 23 24  1  0
 24 25  2  0
 24 26  2  0
 24 27  1  0
 27 28  2  0
 28 29  1  0
 29 30  2  0
 30 31  1  0
 30 32  1  0
 32 33  2  0
 22 34  2  0
 14 35  1  0
 35 36  1  0
 10  4  1  0
 36 11  1  0
 34 17  1  0
 33 27  1  0
  1 37  1  0
  1 38  1  0
  1 39  1  0
  2 40  1  0
  2 41  1  0
  5 42  1  0
  7 43  1  0
  7 44  1  0
  7 45  1  0
  8 46  1  0
  9 47  1  0
 11 48  1  0
 12 49  1  0
 12 50  1  0
 13 51  1  0
 13 52  1  0
 18 53  1  0
 19 54  1  0
 23 55  1  0
 28 56  1  0
 29 57  1  0
 31 58  1  0
 31 59  1  0
 31 60  1  0
 32 61  1  0
 33 62  1  0
 34 63  1  0
 35 64  1  0
 35 65  1  0
 36 66  1  0
 36 67  1  0
M  CHG  1  21  -1
M  END
>  <UniqueID>  (35) 
35

>  <SMILES>  (35) 
CCN(c1cc(C)ccn1)C1CCN(C(=O)c2ccc([O-])c(NS(=O)(=O)c3ccc(C)cc3)c2)CC1

>  <Energy>  (35) 
82.92473114852794

>  <Genealogy>  (35) 
CCN(c1cc(C)ccn1)C1CCN(C(=O)c2ccc([O-])c(NS(=O)(=O)c3ccc(C)cc3)c2)CC1 (protonated)
CCN(c1cc(C)ccn1)C1CCN(C(=O)c2ccc([O-])c(NS(=O)(=O)c3ccc(C)cc3)c2)CC1 (3D coordinates assigned)
CCN(c1cc(C)ccn1)C1CCN(C(=O)c2ccc([O-])c(NS(=O)(=O)c3ccc(C)cc3)c2)CC1 (nonaromatic ring conformer: 82.92473114852794 kcal/mol)

>  <smiles>  (35) 
CCN(c1cc(C)ccn1)C1CCN(C(=O)c2ccc(O)c(NS(=O)(=O)c3ccc(C)cc3)c2)CC1

>  <score_type>  (35) 
oracle

>  <origin>  (35) 
adgpu

>  <m_score__min__energy>  (35) 
-14.039999999999999

>  <m_primary>  (35) 
energy

$$$$
35:0
     RDKit          3D

 50 53  0  0  0  0  0  0  0  0999 V2000
   -4.6040   13.9030  -31.3150 C   0  0  0  0  0  0  0  0  0  0  0  0
   -4.6760   14.0280  -32.7420 N   0  0  0  0  0  0  0  0  0  0  0  0
   -5.7720   13.8570  -33.4650 N   0  0  0  0  0  0  0  0  0  0  0  0
   -5.5020   14.0400  -34.7290 N   0  0  0  0  0  0  0  0  0  0  0  0
   -4.2350   14.3320  -34.8630 N   0  0  0  0  0  0  0  0  0  0  0  0
   -3.6930   14.3320  -33.6350 C   0  0  0  0  0  0  0  0  0  0  0  0
   -2.0150   14.6530  -33.1260 S   0  0  0  0  0  0  0  0  0  0  0  0
   -1.6650   16.4290  -33.1370 C   0  0  0  0  0  0  0  0  0  0  0  0
   -1.8580   17.0220  -34.5150 C   0  0  0  0  0  0  0  0  0  0  0  0
   -3.1940   16.9080  -34.9540 O   0  0  0  0  0  0  0  0  0  0  0  0
   -4.2310   17.6010  -34.2960 C   0  0  0  0  0  0  0  0  0  0  0  0
   -4.0690   18.9310  -34.1050 N   0  0  0  0  0  0  0  0  0  0  0  0
   -5.0450   19.6380  -33.4740 C   0  0  0  0  0  0  0  0  0  0  0  0
   -4.9130   20.9900  -33.2650 C   0  0  0  0  0  0  0  0  0  0  0  0
   -5.8990   21.7460  -32.6180 C   0  0  0  0  0  0  0  0  0  0  0  0
   -5.6830   23.1220  -32.4410 N   0  0  0  0  0  0  0  0  0  0  0  0
   -5.0750   23.8660  -31.0180 S   0  0  0  0  0  0  0  0  0  0  0  0
   -4.9150   25.3410  -31.2170 O   0  0  0  0  0  0  0  0  0  0  0  0
   -6.0540   23.7100  -29.8760 O   0  0  0  0  0  0  0  0  0  0  0  0
   -3.5250   23.1950  -30.5550 C   0  0  0  0  0  0  0  0  0  0  0  0
   -3.0990   21.9470  -30.9480 C   0  0  0  0  0  0  0  0  0  0  0  0
   -1.8570   21.5230  -30.5210 C   0  0  0  0  0  0  0  0  0  0  0  0
   -1.2860   19.9380  -31.0040 Cl  0  0  0  0  0  0  0  0  0  0  0  0
   -1.0500   22.3240  -29.7150 C   0  0  0  0  0  0  0  0  0  0  0  0
   -1.4780   23.5930  -29.3130 C   0  0  0  0  0  0  0  0  0  0  0  0
   -0.4660   24.5960  -28.3030 Cl  0  0  0  0  0  0  0  0  0  0  0  0
   -2.7100   23.9880  -29.7490 C   0  0  0  0  0  0  0  0  0  0  0  0
   -3.1470   25.2590  -29.3500 O   0  0  0  0  0  0  0  0  0  0  0  0
   -7.0070   21.0460  -32.2070 C   0  0  0  0  0  0  0  0  0  0  0  0
   -8.0090   21.6910  -31.5830 F   0  0  0  0  0  0  0  0  0  0  0  0
   -7.1670   19.6840  -32.4050 C   0  0  0  0  0  0  0  0  0  0  0  0
   -6.1750   18.9760  -33.0450 C   0  0  0  0  0  0  0  0  0  0  0  0
   -6.3320   17.6220  -33.2420 C   0  0  0  0  0  0  0  0  0  0  0  0
   -7.3360   16.9330  -32.8800 N   0  0  0  0  0  0  0  0  0  0  0  0
   -5.3290   16.9470  -33.8800 N   0  0  0  0  0  0  0  0  0  0  0  0
   -5.1006   14.7652  -30.8459 H   0  0  0  0  0  0  0  0  0  0  0  0
   -5.1064   12.9757  -31.0023 H   0  0  0  0  0  0  0  0  0  0  0  0
   -3.5498   13.8723  -31.0023 H   0  0  0  0  0  0  0  0  0  0  0  0
   -2.3442   16.9318  -32.4329 H   0  0  0  0  0  0  0  0  0  0  0  0
   -0.6159   16.5765  -32.8409 H   0  0  0  0  0  0  0  0  0  0  0  0
   -1.5828   18.0866  -34.4858 H   0  0  0  0  0  0  0  0  0  0  0  0
   -1.2195   16.4667  -35.2178 H   0  0  0  0  0  0  0  0  0  0  0  0
   -4.0020   21.4957  -33.6178 H   0  0  0  0  0  0  0  0  0  0  0  0
   -5.9080   23.7630  -33.2450 H   0  0  0  0  0  0  0  0  0  0  0  0
   -3.7291   21.3069  -31.5830 H   0  0  0  0  0  0  0  0  0  0  0  0
   -0.0659   21.9539  -29.3917 H   0  0  0  0  0  0  0  0  0  0  0  0
   -4.1600   25.3290  -29.1960 H   0  0  0  0  0  0  0  0  0  0  0  0
   -8.0766   19.1742  -32.0547 H   0  0  0  0  0  0  0  0  0  0  0  0
   -8.1820   17.2430  -32.3930 H   0  0  0  0  0  0  0  0  0  0  0  0
   -5.4160   15.9080  -34.0480 H   0  0  0  0  0  0  0  0  0  0  0  0
  1  2  1  0
  2  3  1  0
  3  4  2  0
  4  5  1  0
  5  6  2  0
  6  7  1  0
  7  8  1  0
  8  9  1  0
  9 10  1  0
 10 11  1  0
 11 12  2  0
 12 13  1  0
 13 14  2  0
 14 15  1  0
 15 16  1  0
 16 17  1  0
 17 18  2  0
 17 19  2  0
 17 20  1  0
 20 21  2  0
 21 22  1  0
 22 23  1  0
 22 24  2  0
 24 25  1  0
 25 26  1  0
 25 27  2  0
 27 28  1  0
 15 29  2  0
 29 30  1  0
 29 31  1  0
 31 32  2  0
 32 33  1  0
 33 34  2  3
 33 35  1  0
  6  2  1  0
 35 11  1  0
 32 13  1  0
 27 20  1  0
  1 36  1  0
  1 37  1  0
  1 38  1  0
  8 39  1  0
  8 40  1  0
  9 41  1  0
  9 42  1  0
 14 43  1  0
 16 44  1  0
 21 45  1  0
 24 46  1  0
 28 47  1  0
 31 48  1  0
 34 49  1  0
 35 50  1  0
M  END
>  <smiles>  (36) 
Cn1nnnc1SCCOc1nc2cc(NS(=O)(=O)c3cc(Cl)cc(Cl)c3O)c(F)cc2c(=N)[nH]1

>  <score_type>  (36) 
oracle

>  <origin>  (36) 
adgpu

>  <m_score__min__energy>  (36) 
-10.51

>  <m_primary>  (36) 
energy

$$$$
36:0
     RDKit          3D

 38 41  0  0  0  0  0  0  0  0999 V2000
   -0.8260   18.3030  -32.7160 O   0  0  0  0  0  0  0  0  0  0  0  0
   -1.8350   18.9710  -32.3630 C   0  0  0  0  0  0  0  0  0  0  0  0
   -1.6480   20.1700  -31.6750 C   0  0  0  0  0  0  0  0  0  0  0  0
   -2.7660   20.9190  -31.2800 C   0  0  0  0  0  0  0  0  0  0  0  0
   -2.6210   22.1930  -30.5370 C   0  0  0  0  0  0  0  0  0  0  0  0
   -1.7460   22.2400  -29.4400 C   0  0  0  0  0  0  0  0  0  0  0  0
   -1.5720   23.4250  -28.7060 C   0  0  0  0  0  0  0  0  0  0  0  0
   -0.6420   23.4470  -27.5530 C   0  0  0  0  0  0  0  0  0  0  0  0
   -1.1070   23.0930  -26.2750 C   0  0  0  0  0  0  0  0  0  0  0  0
   -0.2420   23.0900  -25.1770 C   0  0  0  0  0  0  0  0  0  0  0  0
   -0.7380   22.7320  -23.9230 O   0  0  0  0  0  0  0  0  0  0  0  0
    1.1060   23.4440  -25.3500 C   0  0  0  0  0  0  0  0  0  0  0  0
    1.9770   23.4450  -24.2660 O   0  0  0  0  0  0  0  0  0  0  0  0
    1.5780   23.7990  -26.6190 C   0  0  0  0  0  0  0  0  0  0  0  0
    2.9120   24.1520  -26.7870 O   0  0  0  0  0  0  0  0  0  0  0  0
    0.7100   23.8020  -27.7190 C   0  0  0  0  0  0  0  0  0  0  0  0
    1.1940   24.1770  -28.9690 O   0  0  0  0  0  0  0  0  0  0  0  0
   -2.2950   24.5750  -29.0740 C   0  0  0  0  0  0  0  0  0  0  0  0
   -2.1230   25.7700  -28.3790 O   0  0  0  0  0  0  0  0  0  0  0  0
   -3.1880   24.5290  -30.1510 C   0  0  0  0  0  0  0  0  0  0  0  0
   -3.9090   25.6660  -30.4990 O   0  0  0  0  0  0  0  0  0  0  0  0
   -3.3610   23.3450  -30.8760 C   0  0  0  0  0  0  0  0  0  0  0  0
   -4.2910   23.3160  -31.9110 O   0  0  0  0  0  0  0  0  0  0  0  0
   -3.9890   20.4700  -31.5470 O   0  0  0  0  0  0  0  0  0  0  0  0
   -4.2200   19.3350  -32.1990 C   0  0  0  0  0  0  0  0  0  0  0  0
   -5.5390   18.9410  -32.4430 C   0  0  0  0  0  0  0  0  0  0  0  0
   -5.8040   17.7530  -33.1280 C   0  0  0  0  0  0  0  0  0  0  0  0
   -7.1180   17.3690  -33.3670 O   0  0  0  0  0  0  0  0  0  0  0  0
   -4.7510   16.9520  -33.5720 C   0  0  0  0  0  0  0  0  0  0  0  0
   -3.4230   17.3270  -33.3370 C   0  0  0  0  0  0  0  0  0  0  0  0
   -2.4040   16.5010  -33.7950 O   0  0  0  0  0  0  0  0  0  0  0  0
   -3.1430   18.5290  -32.6450 C   0  0  0  0  0  0  0  0  0  0  0  0
   -0.6327   20.5249  -31.4443 H   0  0  0  0  0  0  0  0  0  0  0  0
   -1.1890   21.3364  -29.1513 H   0  0  0  0  0  0  0  0  0  0  0  0
   -2.1625   22.8154  -26.1373 H   0  0  0  0  0  0  0  0  0  0  0  0
   -0.2580   22.9760  -23.0650 H   0  0  0  0  0  0  0  0  0  0  0  0
   -6.3717   19.5693  -32.0940 H   0  0  0  0  0  0  0  0  0  0  0  0
   -4.9665   16.0178  -34.1113 H   0  0  0  0  0  0  0  0  0  0  0  0
  1  2  2  0
  2  3  1  0
  3  4  2  0
  4  5  1  0
  5  6  2  0
  6  7  1  0
  7  8  1  0
  8  9  2  0
  9 10  1  0
 10 11  1  0
 10 12  2  0
 12 13  1  0
 12 14  1  0
 14 15  1  0
 14 16  2  0
 16 17  1  0
  7 18  2  0
 18 19  1  0
 18 20  1  0
 20 21  1  0
 20 22  2  0
 22 23  1  0
  4 24  1  0
 24 25  1  0
 25 26  2  0
 26 27  1  0
 27 28  1  0
 27 29  2  0
 29 30  1  0
 30 31  1  0
 30 32  2  0
 32  2  1  0
 22  5  1  0
 32 25  1  0
 16  8  1  0
  3 33  1  0
  6 34  1  0
  9 35  1  0
 11 36  1  0
 26 37  1  0
 29 38  1  0
M  CHG  8  13  -1  15  -1  17  -1  19  -1  21  -1  23  -1  28  -1  31  -1
M  END
>  <UniqueID>  (37) 
36

>  <SMILES>  (37) 
O=c1cc(-c2cc(-c3cc(O)c([O-])c([O-])c3[O-])c([O-])c([O-])c2[O-])oc2cc([O-])cc([O-])c12

>  <Energy>  (37) 
65.14200219864674

>  <Genealogy>  (37) 
O=c1cc(-c2cc(-c3cc(O)c([O-])c([O-])c3[O-])c([O-])c([O-])c2[O-])oc2cc([O-])cc([O-])c12 (protonated)
O=c1cc(-c2cc(-c3cc(O)c([O-])c([O-])c3[O-])c([O-])c([O-])c2[O-])oc2cc([O-])cc([O-])c12 (3D coordinates assigned)
O=c1cc(-c2cc(-c3cc(O)c([O-])c([O-])c3[O-])c([O-])c([O-])c2[O-])oc2cc([O-])cc([O-])c12 (optimized conformer: 65.14200219864674 kcal/mol)

>  <smiles>  (37) 
O=c1cc(-c2cc(-c3cc(O)c(O)c(O)c3O)c(O)c(O)c2O)oc2cc(O)cc(O)c12

>  <score_type>  (37) 
oracle

>  <origin>  (37) 
adgpu

>  <m_score__min__energy>  (37) 
-13.02

>  <m_primary>  (37) 
energy

$$$$
37:0
     RDKit          3D

 51 54  0  0  0  0  0  0  0  0999 V2000
   -4.8930   25.6460  -31.2210 O   0  0  0  0  0  0  0  0  0  0  0  0
   -5.6310   24.9440  -30.1150 S   0  0  0  0  0  0  0  0  0  0  0  0
   -6.8690   25.7280  -29.7790 O   0  0  0  0  0  0  0  0  0  0  0  0
   -4.6170   24.8570  -28.7090 N   0  0  0  0  0  0  0  0  0  0  0  0
   -3.5160   23.9370  -28.5850 C   0  0  0  0  0  0  0  0  0  0  0  0
   -3.7190   22.6150  -28.1470 C   0  0  0  0  0  0  0  0  0  0  0  0
   -2.6480   21.7130  -28.0650 C   0  0  0  0  0  0  0  0  0  0  0  0
   -1.3440   22.1500  -28.3700 C   0  0  0  0  0  0  0  0  0  0  0  0
   -1.1400   23.4680  -28.7990 C   0  0  0  0  0  0  0  0  0  0  0  0
   -2.2120   24.3570  -28.9030 C   0  0  0  0  0  0  0  0  0  0  0  0
   -1.9760   25.6570  -29.3370 O   0  0  0  0  0  0  0  0  0  0  0  0
   -0.1800   21.1860  -28.3420 C   0  0  0  0  0  0  0  0  0  0  0  0
   -0.4440   20.0150  -27.4940 N   0  0  0  0  0  0  0  0  0  0  0  0
   -1.7170   19.3840  -27.8620 C   0  0  0  0  0  0  0  0  0  0  0  0
   -2.8980   20.3150  -27.5620 C   0  0  0  0  0  0  0  0  0  0  0  0
   -6.0450   23.3190  -30.6550 C   0  0  0  0  0  0  0  0  0  0  0  0
   -7.3300   22.8140  -30.4160 C   0  0  0  0  0  0  0  0  0  0  0  0
   -7.6830   21.5420  -30.8760 C   0  0  0  0  0  0  0  0  0  0  0  0
   -6.7510   20.7640  -31.5770 C   0  0  0  0  0  0  0  0  0  0  0  0
   -7.1740   19.1570  -32.1610 S   0  0  0  0  0  0  0  0  0  0  0  0
   -7.5380   18.2660  -31.0040 O   0  0  0  0  0  0  0  0  0  0  0  0
   -8.3580   19.2700  -33.0800 O   0  0  0  0  0  0  0  0  0  0  0  0
   -5.8170   18.4890  -33.0320 N   0  0  0  0  0  0  0  0  0  0  0  0
   -5.8430   17.0270  -33.0160 C   0  0  0  0  0  0  0  0  0  0  0  0
   -5.1170   16.5670  -34.2700 C   0  0  0  0  0  0  0  0  0  0  0  0
   -5.1270   17.7670  -35.2050 C   0  0  0  0  0  0  0  0  0  0  0  0
   -5.8520   18.8670  -34.4430 C   0  0  0  0  0  0  0  0  0  0  0  0
   -5.4640   21.2650  -31.8070 C   0  0  0  0  0  0  0  0  0  0  0  0
   -5.1110   22.5370  -31.3480 C   0  0  0  0  0  0  0  0  0  0  0  0
   -4.7500   25.6020  -27.9880 H   0  0  0  0  0  0  0  0  0  0  0  0
   -4.7299   22.2851  -27.8655 H   0  0  0  0  0  0  0  0  0  0  0  0
   -0.1254   23.8060  -29.0565 H   0  0  0  0  0  0  0  0  0  0  0  0
    0.0188   20.8420  -29.3677 H   0  0  0  0  0  0  0  0  0  0  0  0
    0.6861   21.7174  -27.9207 H   0  0  0  0  0  0  0  0  0  0  0  0
   -0.4910   20.3230  -26.4940 H   0  0  0  0  0  0  0  0  0  0  0  0
   -1.7060   19.1518  -28.9371 H   0  0  0  0  0  0  0  0  0  0  0  0
   -1.8364   18.4642  -27.2706 H   0  0  0  0  0  0  0  0  0  0  0  0
   -3.7992   19.9163  -28.0507 H   0  0  0  0  0  0  0  0  0  0  0  0
   -3.0289   20.3617  -26.4708 H   0  0  0  0  0  0  0  0  0  0  0  0
   -8.0635   23.4205  -29.8645 H   0  0  0  0  0  0  0  0  0  0  0  0
   -8.6937   21.1509  -30.6876 H   0  0  0  0  0  0  0  0  0  0  0  0
   -5.3302   16.6479  -32.1197 H   0  0  0  0  0  0  0  0  0  0  0  0
   -6.8755   16.6484  -32.9935 H   0  0  0  0  0  0  0  0  0  0  0  0
   -4.0841   16.2737  -34.0311 H   0  0  0  0  0  0  0  0  0  0  0  0
   -5.6008   15.6899  -34.7246 H   0  0  0  0  0  0  0  0  0  0  0  0
   -4.0991   18.0774  -35.4438 H   0  0  0  0  0  0  0  0  0  0  0  0
   -5.6213   17.5371  -36.1604 H   0  0  0  0  0  0  0  0  0  0  0  0
   -5.3424   19.8306  -34.5907 H   0  0  0  0  0  0  0  0  0  0  0  0
   -6.8869   18.9803  -34.7982 H   0  0  0  0  0  0  0  0  0  0  0  0
   -4.7278   20.6551  -32.3511 H   0  0  0  0  0  0  0  0  0  0  0  0
   -4.0981   22.9251  -31.5310 H   0  0  0  0  0  0  0  0  0  0  0  0
  1  2  2  0
  2  3  2  0
  2  4  1  0
  4  5  1  0
  5  6  2  0
  6  7  1  0
  7  8  2  0
  8  9  1  0
  9 10  2  0
 10 11  1  0
  8 12  1  0
 12 13  1  0
 13 14  1  0
 14 15  1  0
  2 16  1  0
 16 17  2  0
 17 18  1  0
 18 19  2  0
 19 20  1  0
 20 21  2  0
 20 22  2  0
 20 23  1  0
 23 24  1  0
 24 25  1  0
 25 26  1  0
 26 27  1  0
 19 28  1  0
 28 29  2  0
 10  5  1  0
 29 16  1  0
 15  7  1  0
 27 23  1  0
  4 30  1  0
  6 31  1  0
  9 32  1  0
 12 33  1  0
 12 34  1  0
 13 35  1  0
 14 36  1  0
 14 37  1  0
 15 38  1  0
 15 39  1  0
 17 40  1  0
 18 41  1  0
 24 42  1  0
 24 43  1  0
 25 44  1  0
 25 45  1  0
 26 46  1  0
 26 47  1  0
 27 48  1  0
 27 49  1  0
 28 50  1  0
 29 51  1  0
M  CHG  1  11  -1
M  END
>  <UniqueID>  (38) 
37

>  <SMILES>  (38) 
O=S(=O)(Nc1cc2c(cc1[O-])CNCC2)c1ccc(S(=O)(=O)N2CCCC2)cc1

>  <Energy>  (38) 
58.717806718024505

>  <Genealogy>  (38) 
O=S(=O)(Nc1cc2c(cc1[O-])CNCC2)c1ccc(S(=O)(=O)N2CCCC2)cc1 (protonated)
O=S(=O)(Nc1cc2c(cc1[O-])CNCC2)c1ccc(S(=O)(=O)N2CCCC2)cc1 (3D coordinates assigned)
O=S(=O)(Nc1cc2c(cc1[O-])CNCC2)c1ccc(S(=O)(=O)N2CCCC2)cc1 (nonaromatic ring conformer: 58.717806718024505 kcal/mol)

>  <smiles>  (38) 
O=S(=O)(Nc1cc2c(cc1O)CNCC2)c1ccc(S(=O)(=O)N2CCCC2)cc1

>  <score_type>  (38) 
oracle

>  <origin>  (38) 
adgpu

>  <m_score__min__energy>  (38) 
-14.779999999999999

>  <m_primary>  (38) 
energy

$$$$
38:0
     RDKit          3D

 47 50  0  0  0  0  0  0  0  0999 V2000
   -6.0100   15.7480  -33.0010 O   0  0  0  0  0  0  0  0  0  0  0  0
   -6.0960   17.2230  -33.2810 S   0  0  0  0  0  0  0  0  0  0  0  0
   -6.8460   17.4130  -34.5720 O   0  0  0  0  0  0  0  0  0  0  0  0
   -6.9850   17.9840  -31.9980 N   0  0  0  0  0  0  0  0  0  0  0  0
   -7.3450   19.3710  -31.9650 C   0  0  0  0  0  0  0  0  0  0  0  0
   -8.6280   19.8090  -32.3270 C   0  0  0  0  0  0  0  0  0  0  0  0
   -8.9330   21.1720  -32.3190 C   0  0  0  0  0  0  0  0  0  0  0  0
   -7.9660   22.1080  -31.9400 C   0  0  0  0  0  0  0  0  0  0  0  0
   -6.6760   21.6870  -31.5680 C   0  0  0  0  0  0  0  0  0  0  0  0
   -5.6570   22.6770  -31.1460 C   0  0  0  0  0  0  0  0  0  0  0  0
   -5.1020   23.5950  -31.9610 N   0  0  0  0  0  0  0  0  0  0  0  0
   -4.2690   24.2740  -31.1880 N   0  0  0  0  0  0  0  0  0  0  0  0
   -4.3140   23.7990  -29.9520 N   0  0  0  0  0  0  0  0  0  0  0  0
   -5.1770   22.7950  -29.8910 N   0  0  0  0  0  0  0  0  0  0  0  0
   -6.3700   20.3140  -31.6000 C   0  0  0  0  0  0  0  0  0  0  0  0
   -4.4560   17.8600  -33.4220 C   0  0  0  0  0  0  0  0  0  0  0  0
   -3.4030   17.0150  -33.8110 C   0  0  0  0  0  0  0  0  0  0  0  0
   -2.1070   17.5270  -33.9550 C   0  0  0  0  0  0  0  0  0  0  0  0
   -1.8580   18.8840  -33.7090 C   0  0  0  0  0  0  0  0  0  0  0  0
   -2.9040   19.7340  -33.3160 C   0  0  0  0  0  0  0  0  0  0  0  0
   -2.6210   21.4500  -33.0260 S   0  0  0  0  0  0  0  0  0  0  0  0
   -1.2710   21.8150  -33.5770 O   0  0  0  0  0  0  0  0  0  0  0  0
   -3.6690   22.2750  -33.7250 O   0  0  0  0  0  0  0  0  0  0  0  0
   -2.6650   21.7600  -31.3090 N   0  0  0  0  0  0  0  0  0  0  0  0
   -3.0070   20.5280  -30.5740 C   0  0  0  0  0  0  0  0  0  0  0  0
   -3.0440   20.8010  -29.0520 C   0  0  0  0  0  0  0  0  0  0  0  0
   -2.5330   22.0800  -28.7190 O   0  0  0  0  0  0  0  0  0  0  0  0
   -1.2610   22.2550  -29.3090 C   0  0  0  0  0  0  0  0  0  0  0  0
   -1.3680   22.3000  -30.8500 C   0  0  0  0  0  0  0  0  0  0  0  0
   -4.2020   19.2200  -33.1790 C   0  0  0  0  0  0  0  0  0  0  0  0
   -9.3957   19.0769  -32.6179 H   0  0  0  0  0  0  0  0  0  0  0  0
   -9.9378   21.5103  -32.6120 H   0  0  0  0  0  0  0  0  0  0  0  0
   -8.2151   23.1794  -31.9326 H   0  0  0  0  0  0  0  0  0  0  0  0
   -5.3570   19.9757  -31.3365 H   0  0  0  0  0  0  0  0  0  0  0  0
   -3.5966   15.9493  -34.0029 H   0  0  0  0  0  0  0  0  0  0  0  0
   -1.2846   16.8637  -34.2612 H   0  0  0  0  0  0  0  0  0  0  0  0
   -0.8399   19.2844  -33.8242 H   0  0  0  0  0  0  0  0  0  0  0  0
   -3.4140   22.4740  -31.1390 H   0  0  0  0  0  0  0  0  0  0  0  0
   -3.9947   20.1723  -30.9026 H   0  0  0  0  0  0  0  0  0  0  0  0
   -2.2423   19.7649  -30.7812 H   0  0  0  0  0  0  0  0  0  0  0  0
   -4.0865   20.7366  -28.7070 H   0  0  0  0  0  0  0  0  0  0  0  0
   -2.4092   20.0486  -28.5613 H   0  0  0  0  0  0  0  0  0  0  0  0
   -0.8249   23.1992  -28.9508 H   0  0  0  0  0  0  0  0  0  0  0  0
   -0.6230   21.4047  -29.0262 H   0  0  0  0  0  0  0  0  0  0  0  0
   -1.2737   23.3430  -31.1864 H   0  0  0  0  0  0  0  0  0  0  0  0
   -0.5625   21.6827  -31.2745 H   0  0  0  0  0  0  0  0  0  0  0  0
   -5.0252   19.8854  -32.8797 H   0  0  0  0  0  0  0  0  0  0  0  0
  1  2  2  0
  2  3  2  0
  2  4  1  0
  4  5  1  0
  5  6  2  0
  6  7  1  0
  7  8  2  0
  8  9  1  0
  9 10  1  0
 10 11  2  0
 11 12  1  0
 12 13  2  0
 13 14  1  0
  9 15  2  0
  2 16  1  0
 16 17  2  0
 17 18  1  0
 18 19  2  0
 19 20  1  0
 20 21  1  0
 21 22  2  0
 21 23  2  0
 21 24  1  0
 24 25  1  0
 25 26  1  0
 26 27  1  0
 27 28  1  0
 28 29  1  0
 20 30  2  0
 15  5  1  0
 30 16  1  0
 14 10  1  0
 29 24  1  0
  6 31  1  0
  7 32  1  0
  8 33  1  0
 15 34  1  0
 17 35  1  0
 18 36  1  0
 19 37  1  0
 24 38  1  0
 25 39  1  0
 25 40  1  0
 26 41  1  0
 26 42  1  0
 28 43  1  0
 28 44  1  0
 29 45  1  0
 29 46  1  0
 30 47  1  0
M  CHG  3   4  -1  14  -1  24   1
M  END
>  <UniqueID>  (39) 
38

>  <SMILES>  (39) 
O=S(=O)([N-]c1cccc(-c2nnn[n-]2)c1)c1cccc(S(=O)(=O)[NH+]2CCOCC2)c1

>  <Energy>  (39) 
102.25676597346964

>  <Genealogy>  (39) 
O=S(=O)([N-]c1cccc(-c2nnn[n-]2)c1)c1cccc(S(=O)(=O)[NH+]2CCOCC2)c1 (protonated)
O=S(=O)([N-]c1cccc(-c2nnn[n-]2)c1)c1cccc(S(=O)(=O)[NH+]2CCOCC2)c1 (3D coordinates assigned)
O=S(=O)([N-]c1cccc(-c2nnn[n-]2)c1)c1cccc(S(=O)(=O)[NH+]2CCOCC2)c1 (nonaromatic ring conformer: 102.25676597346964 kcal/mol)

>  <smiles>  (39) 
O=S(=O)(Nc1cccc(-c2nnn[nH]2)c1)c1cccc(S(=O)(=O)N2CCOCC2)c1

>  <score_type>  (39) 
oracle

>  <origin>  (39) 
adgpu

>  <m_score__min__energy>  (39) 
-11.529999999999999

>  <m_primary>  (39) 
energy

$$$$
39:0
     RDKit          3D

 41 44  0  0  0  0  0  0  0  0999 V2000
   -8.0040   17.8220  -33.1250 O   0  0  0  0  0  0  0  0  0  0  0  0
   -7.7420   18.9170  -32.5630 C   0  0  0  0  0  0  0  0  0  0  0  0
   -8.6010   19.4180  -31.4400 C   0  0  0  0  0  0  0  0  0  0  0  0
   -8.6430   20.9540  -31.4240 C   0  0  0  0  0  0  0  0  0  0  0  0
   -7.2670   21.5620  -31.5620 C   0  0  0  0  0  0  0  0  0  0  0  0
   -6.9820   22.8130  -30.9920 C   0  0  0  0  0  0  0  0  0  0  0  0
   -5.7270   23.4090  -31.1850 C   0  0  0  0  0  0  0  0  0  0  0  0
   -5.3370   24.9500  -30.4280 S   0  0  0  0  0  0  0  0  0  0  0  0
   -5.9150   26.0600  -31.2590 O   0  0  0  0  0  0  0  0  0  0  0  0
   -5.9120   25.0290  -29.0410 O   0  0  0  0  0  0  0  0  0  0  0  0
   -3.6160   25.1370  -30.3410 N   0  0  0  0  0  0  0  0  0  0  0  0
   -2.7340   24.3190  -29.5590 C   0  0  0  0  0  0  0  0  0  0  0  0
   -3.0330   22.9760  -29.2640 C   0  0  0  0  0  0  0  0  0  0  0  0
   -2.1490   22.2050  -28.5040 C   0  0  0  0  0  0  0  0  0  0  0  0
   -0.9440   22.7640  -28.0410 C   0  0  0  0  0  0  0  0  0  0  0  0
   -0.6530   24.1060  -28.3200 C   0  0  0  0  0  0  0  0  0  0  0  0
   -1.5420   24.8780  -29.0740 C   0  0  0  0  0  0  0  0  0  0  0  0
   -1.2350   26.2080  -29.3420 O   0  0  0  0  0  0  0  0  0  0  0  0
   -0.0030   21.9390  -27.1960 C   0  0  0  0  0  0  0  0  0  0  0  0
   -0.2070   20.4350  -27.4270 C   0  0  0  0  0  0  0  0  0  0  0  0
   -1.6920   20.0820  -27.3160 C   0  0  0  0  0  0  0  0  0  0  0  0
   -2.4590   20.8670  -28.2290 O   0  0  0  0  0  0  0  0  0  0  0  0
   -4.7660   22.7640  -31.9750 C   0  0  0  0  0  0  0  0  0  0  0  0
   -5.0510   21.5300  -32.5650 C   0  0  0  0  0  0  0  0  0  0  0  0
   -6.2940   20.9250  -32.3570 C   0  0  0  0  0  0  0  0  0  0  0  0
   -6.5710   19.6460  -32.9380 N   0  0  0  0  0  0  0  0  0  0  0  0
   -9.6228   19.0312  -31.5681 H   0  0  0  0  0  0  0  0  0  0  0  0
   -8.1740   19.0685  -30.4884 H   0  0  0  0  0  0  0  0  0  0  0  0
   -9.2691   21.3003  -32.2595 H   0  0  0  0  0  0  0  0  0  0  0  0
   -9.0578   21.2713  -30.4558 H   0  0  0  0  0  0  0  0  0  0  0  0
   -7.7462   23.3280  -30.3914 H   0  0  0  0  0  0  0  0  0  0  0  0
   -3.9682   22.5302  -29.6338 H   0  0  0  0  0  0  0  0  0  0  0  0
    0.2787   24.5540  -27.9442 H   0  0  0  0  0  0  0  0  0  0  0  0
    1.0332   22.2026  -27.4547 H   0  0  0  0  0  0  0  0  0  0  0  0
   -0.2111   22.1558  -26.1379 H   0  0  0  0  0  0  0  0  0  0  0  0
    0.1562   20.1686  -28.4306 H   0  0  0  0  0  0  0  0  0  0  0  0
    0.3540   19.8745  -26.6647 H   0  0  0  0  0  0  0  0  0  0  0  0
   -1.8298   19.0160  -27.5499 H   0  0  0  0  0  0  0  0  0  0  0  0
   -2.0331   20.2910  -26.2913 H   0  0  0  0  0  0  0  0  0  0  0  0
   -3.7826   23.2314  -32.1314 H   0  0  0  0  0  0  0  0  0  0  0  0
   -4.2967   21.0341  -33.1937 H   0  0  0  0  0  0  0  0  0  0  0  0
  1  2  2  0
  2  3  1  0
  3  4  1  0
  4  5  1  0
  5  6  2  0
  6  7  1  0
  7  8  1  0
  8  9  2  0
  8 10  2  0
  8 11  1  0
 11 12  1  0
 12 13  2  0
 13 14  1  0
 14 15  2  0
 15 16  1  0
 16 17  2  0
 17 18  1  0
 15 19  1  0
 19 20  1  0
 20 21  1  0
 21 22  1  0
  7 23  2  0
 23 24  1  0
 24 25  2  0
 25 26  1  0
 26  2  1  0
 25  5  1  0
 17 12  1  0
 22 14  1  0
  3 27  1  0
  3 28  1  0
  4 29  1  0
  4 30  1  0
  6 31  1  0
 13 32  1  0
 16 33  1  0
 19 34  1  0
 19 35  1  0
 20 36  1  0
 20 37  1  0
 21 38  1  0
 21 39  1  0
 23 40  1  0
 24 41  1  0
M  CHG  3  11  -1  18  -1  26  -1
M  END
>  <UniqueID>  (40) 
39

>  <SMILES>  (40) 
O=C1CCc2cc(S(=O)(=O)[N-]c3cc4c(cc3[O-])CCCO4)ccc2[N-]1

>  <Energy>  (40) 
46.88050626964949

>  <Genealogy>  (40) 
O=C1CCc2cc(S(=O)(=O)[N-]c3cc4c(cc3[O-])CCCO4)ccc2[N-]1 (protonated)
O=C1CCc2cc(S(=O)(=O)[N-]c3cc4c(cc3[O-])CCCO4)ccc2[N-]1 (3D coordinates assigned)
O=C1CCc2cc(S(=O)(=O)[N-]c3cc4c(cc3[O-])CCCO4)ccc2[N-]1 (nonaromatic ring conformer: 46.88050626964949 kcal/mol)

>  <smiles>  (40) 
O=C1CCc2cc(S(=O)(=O)Nc3cc4c(cc3O)CCCO4)ccc2N1

>  <score_type>  (40) 
oracle

>  <origin>  (40) 
adgpu

>  <m_score__min__energy>  (40) 
-13.779999999999999

>  <m_primary>  (40) 
energy

$$$$
40:0
     RDKit          3D

 55 57  0  0  0  0  0  0  0  0999 V2000
   -8.9940   19.6410  -32.1970 C   0  0  0  0  0  0  0  0  0  0  0  0
   -8.1090   20.8020  -31.8230 C   0  0  0  0  0  0  0  0  0  0  0  0
   -8.5500   21.7110  -30.8450 C   0  0  0  0  0  0  0  0  0  0  0  0
   -7.7450   22.7880  -30.4660 C   0  0  0  0  0  0  0  0  0  0  0  0
   -6.4920   22.9810  -31.0600 C   0  0  0  0  0  0  0  0  0  0  0  0
   -5.4620   24.2900  -30.4890 S   0  0  0  0  0  0  0  0  0  0  0  0
   -5.3430   24.1970  -28.9940 O   0  0  0  0  0  0  0  0  0  0  0  0
   -6.0350   25.6320  -30.8480 O   0  0  0  0  0  0  0  0  0  0  0  0
   -3.8950   24.1010  -31.2020 N   0  0  0  0  0  0  0  0  0  0  0  0
   -2.8270   23.4430  -30.5150 C   0  0  0  0  0  0  0  0  0  0  0  0
   -2.3530   22.1970  -30.9600 C   0  0  0  0  0  0  0  0  0  0  0  0
   -1.3440   21.5210  -30.2550 C   0  0  0  0  0  0  0  0  0  0  0  0
   -0.8080   20.2240  -30.7330 C   0  0  0  0  0  0  0  0  0  0  0  0
   -0.7760   19.2540  -29.9250 O   0  0  0  0  0  0  0  0  0  0  0  0
   -0.3590   20.0250  -32.0930 N   0  0  0  0  0  0  0  0  0  0  0  0
    0.5430   18.9170  -32.4230 C   0  0  0  0  0  0  0  0  0  0  0  0
   -0.1470   17.9350  -33.3870 C   0  0  0  0  0  0  0  0  0  0  0  0
   -1.0510   18.5930  -34.3600 N   0  0  0  0  0  0  0  0  0  0  0  0
   -2.7390   18.1870  -34.1090 S   0  0  0  0  0  0  0  0  0  0  0  0
   -3.3780   17.0260  -35.3060 C   0  0  0  0  0  0  0  0  0  0  0  0
   -3.5500   19.4480  -34.2040 O   0  0  0  0  0  0  0  0  0  0  0  0
   -2.9230   17.6080  -32.7340 O   0  0  0  0  0  0  0  0  0  0  0  0
   -0.8220   20.0400  -34.5320 C   0  0  0  0  0  0  0  0  0  0  0  0
   -0.9150   20.8090  -33.2050 C   0  0  0  0  0  0  0  0  0  0  0  0
   -0.7860   22.1250  -29.1150 C   0  0  0  0  0  0  0  0  0  0  0  0
   -1.2300   23.3800  -28.6900 C   0  0  0  0  0  0  0  0  0  0  0  0
   -2.2420   24.0470  -29.3880 C   0  0  0  0  0  0  0  0  0  0  0  0
   -2.6570   25.2990  -28.9370 O   0  0  0  0  0  0  0  0  0  0  0  0
   -6.0500   22.0930  -32.0490 C   0  0  0  0  0  0  0  0  0  0  0  0
   -6.8520   21.0080  -32.4480 C   0  0  0  0  0  0  0  0  0  0  0  0
   -6.3270   20.0500  -33.4840 C   0  0  0  0  0  0  0  0  0  0  0  0
   -9.3654   19.1538  -31.2833 H   0  0  0  0  0  0  0  0  0  0  0  0
   -9.8456   20.0053  -32.7903 H   0  0  0  0  0  0  0  0  0  0  0  0
   -8.4170   18.9164  -32.7903 H   0  0  0  0  0  0  0  0  0  0  0  0
   -9.5351   21.5732  -30.3754 H   0  0  0  0  0  0  0  0  0  0  0  0
   -8.0981   23.4892  -29.6955 H   0  0  0  0  0  0  0  0  0  0  0  0
   -2.7767   21.7467  -31.8698 H   0  0  0  0  0  0  0  0  0  0  0  0
    1.4497   19.3171  -32.9002 H   0  0  0  0  0  0  0  0  0  0  0  0
    0.8078   18.3837  -31.4981 H   0  0  0  0  0  0  0  0  0  0  0  0
    0.6300   17.3931  -33.9461 H   0  0  0  0  0  0  0  0  0  0  0  0
   -0.7671   17.2643  -32.7741 H   0  0  0  0  0  0  0  0  0  0  0  0
   -3.8444   16.1786  -34.7821 H   0  0  0  0  0  0  0  0  0  0  0  0
   -4.1284   17.5252  -35.9366 H   0  0  0  0  0  0  0  0  0  0  0  0
   -2.5548   16.6591  -35.9366 H   0  0  0  0  0  0  0  0  0  0  0  0
    0.1808   20.1908  -34.9583 H   0  0  0  0  0  0  0  0  0  0  0  0
   -1.6059   20.4268  -35.1997 H   0  0  0  0  0  0  0  0  0  0  0  0
   -0.3528   21.7501  -33.2961 H   0  0  0  0  0  0  0  0  0  0  0  0
   -1.9758   21.0082  -32.9929 H   0  0  0  0  0  0  0  0  0  0  0  0
    0.0053   21.6064  -28.5538 H   0  0  0  0  0  0  0  0  0  0  0  0
   -0.7807   23.8463  -27.8008 H   0  0  0  0  0  0  0  0  0  0  0  0
   -3.6070   25.4800  -28.6290 H   0  0  0  0  0  0  0  0  0  0  0  0
   -5.0668   22.2453  -32.5181 H   0  0  0  0  0  0  0  0  0  0  0  0
   -5.8562   19.1909  -32.9838 H   0  0  0  0  0  0  0  0  0  0  0  0
   -7.1582   19.6980  -34.1126 H   0  0  0  0  0  0  0  0  0  0  0  0
   -5.5830   20.5612  -34.1126 H   0  0  0  0  0  0  0  0  0  0  0  0
  1  2  1  0
  2  3  2  0
  3  4  1  0
  4  5  2  0
  5  6  1  0
  6  7  2  0
  6  8  2  0
  6  9  1  0
  9 10  1  0
 10 11  2  0
 11 12  1  0
 12 13  1  0
 13 14  2  0
 13 15  1  0
 15 16  1  0
 16 17  1  0
 17 18  1  0
 18 19  1  0
 19 20  1  0
 19 21  2  0
 19 22  2  0
 18 23  1  0
 23 24  1  0
 12 25  2  0
 25 26  1  0
 26 27  2  0
 27 28  1  0
  5 29  1  0
 29 30  2  0
 30 31  1  0
 30  2  1  0
 27 10  1  0
 24 15  1  0
  1 32  1  0
  1 33  1  0
  1 34  1  0
  3 35  1  0
  4 36  1  0
 11 37  1  0
 16 38  1  0
 16 39  1  0
 17 40  1  0
 17 41  1  0
 20 42  1  0
 20 43  1  0
 20 44  1  0
 23 45  1  0
 23 46  1  0
 24 47  1  0
 24 48  1  0
 25 49  1  0
 26 50  1  0
 28 51  1  0
 29 52  1  0
 31 53  1  0
 31 54  1  0
 31 55  1  0
M  CHG  1   9  -1
M  END
>  <UniqueID>  (41) 
40

>  <SMILES>  (41) 
Cc1ccc(S(=O)(=O)[N-]c2cc(C(=O)N3CCN(S(C)(=O)=O)CC3)ccc2O)cc1C

>  <Energy>  (41) 
68.93012608639324

>  <Genealogy>  (41) 
Cc1ccc(S(=O)(=O)[N-]c2cc(C(=O)N3CCN(S(C)(=O)=O)CC3)ccc2O)cc1C (protonated)
Cc1ccc(S(=O)(=O)[N-]c2cc(C(=O)N3CCN(S(C)(=O)=O)CC3)ccc2O)cc1C (3D coordinates assigned)
Cc1ccc(S(=O)(=O)[N-]c2cc(C(=O)N3CCN(S(C)(=O)=O)CC3)ccc2O)cc1C (nonaromatic ring conformer: 68.93012608639324 kcal/mol)

>  <smiles>  (41) 
Cc1ccc(S(=O)(=O)Nc2cc(C(=O)N3CCN(S(C)(=O)=O)CC3)ccc2O)cc1C

>  <score_type>  (41) 
oracle

>  <origin>  (41) 
adgpu

>  <m_score__min__energy>  (41) 
-11.16

>  <m_primary>  (41) 
energy

$$$$
41:0
     RDKit          3D

 54 57  0  0  0  0  0  0  0  0999 V2000
   -1.7210   25.7040  -28.9590 O   0  0  0  0  0  0  0  0  0  0  0  0
   -2.4130   24.7200  -29.3360 C   0  0  0  0  0  0  0  0  0  0  0  0
   -3.4910   24.9490  -30.2530 N   0  0  0  0  0  0  0  0  0  0  0  0
   -4.3660   23.9390  -30.7720 C   0  0  0  0  0  0  0  0  0  0  0  0
   -5.7450   24.1590  -30.7480 C   0  0  0  0  0  0  0  0  0  0  0  0
   -6.6230   23.1830  -31.2190 C   0  0  0  0  0  0  0  0  0  0  0  0
   -6.1360   21.9630  -31.7090 C   0  0  0  0  0  0  0  0  0  0  0  0
   -7.0710   20.9680  -32.1470 N   0  0  0  0  0  0  0  0  0  0  0  0
   -8.1040   20.4980  -31.2170 C   0  0  0  0  0  0  0  0  0  0  0  0
   -9.0720   19.5320  -31.9080 C   0  0  0  0  0  0  0  0  0  0  0  0
   -8.3240   18.3860  -32.6120 C   0  0  0  0  0  0  0  0  0  0  0  0
   -7.0400   18.8320  -33.3500 C   0  0  0  0  0  0  0  0  0  0  0  0
   -6.9210   20.3540  -33.4720 C   0  0  0  0  0  0  0  0  0  0  0  0
   -4.7430   21.7270  -31.7330 C   0  0  0  0  0  0  0  0  0  0  0  0
   -4.0680   20.2030  -32.3280 S   0  0  0  0  0  0  0  0  0  0  0  0
   -4.7790   19.0650  -31.6520 O   0  0  0  0  0  0  0  0  0  0  0  0
   -4.2600   20.0940  -33.8170 O   0  0  0  0  0  0  0  0  0  0  0  0
   -2.3630   20.1160  -31.9540 N   0  0  0  0  0  0  0  0  0  0  0  0
   -1.6070   21.1530  -32.6550 C   0  0  0  0  0  0  0  0  0  0  0  0
   -0.1890   20.6260  -32.7980 C   0  0  0  0  0  0  0  0  0  0  0  0
   -0.3140   19.1140  -32.6820 C   0  0  0  0  0  0  0  0  0  0  0  0
   -1.7850   18.8480  -32.3990 C   0  0  0  0  0  0  0  0  0  0  0  0
   -3.8710   22.7140  -31.2490 C   0  0  0  0  0  0  0  0  0  0  0  0
   -2.0590   23.3590  -28.8710 C   0  0  0  0  0  0  0  0  0  0  0  0
   -0.9300   22.6930  -29.3730 C   0  0  0  0  0  0  0  0  0  0  0  0
   -0.5960   21.4240  -28.8990 C   0  0  0  0  0  0  0  0  0  0  0  0
   -1.3950   20.8260  -27.9240 C   0  0  0  0  0  0  0  0  0  0  0  0
   -2.4820   21.4820  -27.4390 N   0  0  0  0  0  0  0  0  0  0  0  0
   -2.8260   22.7220  -27.8820 C   0  0  0  0  0  0  0  0  0  0  0  0
   -6.1408   25.1073  -30.3555 H   0  0  0  0  0  0  0  0  0  0  0  0
   -7.7066   23.3720  -31.2059 H   0  0  0  0  0  0  0  0  0  0  0  0
   -7.6206   19.9808  -30.3751 H   0  0  0  0  0  0  0  0  0  0  0  0
   -8.6747   21.3683  -30.8608 H   0  0  0  0  0  0  0  0  0  0  0  0
   -9.7496   19.1055  -31.1537 H   0  0  0  0  0  0  0  0  0  0  0  0
   -9.6339   20.0940  -32.6686 H   0  0  0  0  0  0  0  0  0  0  0  0
   -8.0456   17.6382  -31.8548 H   0  0  0  0  0  0  0  0  0  0  0  0
   -9.0058   17.9828  -33.3753 H   0  0  0  0  0  0  0  0  0  0  0  0
   -6.1677   18.4550  -32.7959 H   0  0  0  0  0  0  0  0  0  0  0  0
   -7.0858   18.4217  -34.3696 H   0  0  0  0  0  0  0  0  0  0  0  0
   -5.9348   20.6120  -33.8854 H   0  0  0  0  0  0  0  0  0  0  0  0
   -7.7103   20.7295  -34.1399 H   0  0  0  0  0  0  0  0  0  0  0  0
   -2.0456   21.3393  -33.6464 H   0  0  0  0  0  0  0  0  0  0  0  0
   -1.6257   22.1036  -32.1018 H   0  0  0  0  0  0  0  0  0  0  0  0
    0.2297   20.9049  -33.7762 H   0  0  0  0  0  0  0  0  0  0  0  0
    0.4845   21.0434  -32.0351 H   0  0  0  0  0  0  0  0  0  0  0  0
   -0.0097   18.6299  -33.6217 H   0  0  0  0  0  0  0  0  0  0  0  0
    0.3334   18.7107  -31.8894 H   0  0  0  0  0  0  0  0  0  0  0  0
   -2.2901   18.5009  -33.3124 H   0  0  0  0  0  0  0  0  0  0  0  0
   -1.9060   18.0675  -31.6334 H   0  0  0  0  0  0  0  0  0  0  0  0
   -2.7871   22.5263  -31.2430 H   0  0  0  0  0  0  0  0  0  0  0  0
   -0.3069   23.1728  -30.1421 H   0  0  0  0  0  0  0  0  0  0  0  0
    0.2886   20.9001  -29.2902 H   0  0  0  0  0  0  0  0  0  0  0  0
   -1.1450   19.8231  -27.5476 H   0  0  0  0  0  0  0  0  0  0  0  0
   -3.7088   23.2276  -27.4635 H   0  0  0  0  0  0  0  0  0  0  0  0
  1  2  2  0
  2  3  1  0
  3  4  1  0
  4  5  2  0
  5  6  1  0
  6  7  2  0
  7  8  1  0
  8  9  1  0
  9 10  1  0
 10 11  1  0
 11 12  1  0
 12 13  1  0
  7 14  1  0
 14 15  1  0
 15 16  2  0
 15 17  2  0
 15 18  1  0
 18 19  1  0
 19 20  1  0
 20 21  1  0
 21 22  1  0
 14 23  2  0
  2 24  1  0
 24 25  2  0
 25 26  1  0
 26 27  2  0
 27 28  1  0
 28 29  2  0
 23  4  1  0
 29 24  1  0
 13  8  1  0
 22 18  1  0
  5 30  1  0
  6 31  1  0
  9 32  1  0
  9 33  1  0
 10 34  1  0
 10 35  1  0
 11 36  1  0
 11 37  1  0
 12 38  1  0
 12 39  1  0
 13 40  1  0
 13 41  1  0
 19 42  1  0
 19 43  1  0
 20 44  1  0
 20 45  1  0
 21 46  1  0
 21 47  1  0
 22 48  1  0
 22 49  1  0
 23 50  1  0
 25 51  1  0
 26 52  1  0
 27 53  1  0
 29 54  1  0
M  CHG  1   3  -1
M  END
>  <UniqueID>  (42) 
41

>  <SMILES>  (42) 
O=C([N-]c1ccc(N2CCCCC2)c(S(=O)(=O)N2CCCC2)c1)c1cccnc1

>  <Energy>  (42) 
68.36872362189483

>  <Genealogy>  (42) 
O=C([N-]c1ccc(N2CCCCC2)c(S(=O)(=O)N2CCCC2)c1)c1cccnc1 (protonated)
O=C([N-]c1ccc(N2CCCCC2)c(S(=O)(=O)N2CCCC2)c1)c1cccnc1 (3D coordinates assigned)
O=C([N-]c1ccc(N2CCCCC2)c(S(=O)(=O)N2CCCC2)c1)c1cccnc1 (nonaromatic ring conformer: 68.36872362189483 kcal/mol)

>  <smiles>  (42) 
O=C(Nc1ccc(N2CCCCC2)c(S(=O)(=O)N2CCCC2)c1)c1cccnc1

>  <score_type>  (42) 
oracle

>  <origin>  (42) 
adgpu

>  <m_score__min__energy>  (42) 
-11.31

>  <m_primary>  (42) 
energy

$$$$
42:0
     RDKit          3D

 49 51  0  0  0  0  0  0  0  0999 V2000
    4.1460   17.0860  -28.7490 C   0  0  0  0  0  0  0  0  0  0  0  0
    2.6840   16.7530  -28.7740 C   0  0  0  0  0  0  0  0  0  0  0  0
    2.3360   15.5860  -29.0950 O   0  0  0  0  0  0  0  0  0  0  0  0
    1.6790   17.7500  -28.4910 N   0  0  0  0  0  0  0  0  0  0  0  0
    0.2780   17.3420  -28.2920 C   0  0  0  0  0  0  0  0  0  0  0  0
   -0.4060   18.2430  -27.2600 C   0  0  0  0  0  0  0  0  0  0  0  0
   -0.1810   19.6670  -27.5460 N   0  0  0  0  0  0  0  0  0  0  0  0
   -0.9140   20.6520  -26.7850 C   0  0  0  0  0  0  0  0  0  0  0  0
   -1.3140   20.3660  -25.6210 O   0  0  0  0  0  0  0  0  0  0  0  0
   -1.2130   21.9950  -27.3370 C   0  0  0  0  0  0  0  0  0  0  0  0
   -0.6920   23.1410  -26.7150 C   0  0  0  0  0  0  0  0  0  0  0  0
   -0.9650   24.4120  -27.2260 C   0  0  0  0  0  0  0  0  0  0  0  0
   -1.7430   24.5560  -28.3810 C   0  0  0  0  0  0  0  0  0  0  0  0
   -1.9990   25.8230  -28.9030 O   0  0  0  0  0  0  0  0  0  0  0  0
   -2.2490   23.4180  -29.0270 C   0  0  0  0  0  0  0  0  0  0  0  0
   -2.9930   23.5710  -30.2350 N   0  0  0  0  0  0  0  0  0  0  0  0
   -4.4870   24.4470  -30.2450 S   0  0  0  0  0  0  0  0  0  0  0  0
   -4.8330   24.9030  -28.8520 O   0  0  0  0  0  0  0  0  0  0  0  0
   -4.3560   25.6520  -31.1300 O   0  0  0  0  0  0  0  0  0  0  0  0
   -5.7530   23.4000  -30.8820 C   0  0  0  0  0  0  0  0  0  0  0  0
   -7.0640   23.8800  -31.0300 C   0  0  0  0  0  0  0  0  0  0  0  0
   -8.0790   23.0300  -31.4840 C   0  0  0  0  0  0  0  0  0  0  0  0
   -7.7910   21.6930  -31.7900 C   0  0  0  0  0  0  0  0  0  0  0  0
   -8.8340   20.8150  -32.2580 C   0  0  0  0  0  0  0  0  0  0  0  0
   -9.6730   20.1100  -32.6340 N   0  0  0  0  0  0  0  0  0  0  0  0
   -6.4820   21.2100  -31.6340 C   0  0  0  0  0  0  0  0  0  0  0  0
   -5.4680   22.0590  -31.1780 C   0  0  0  0  0  0  0  0  0  0  0  0
   -1.9900   22.1390  -28.5040 C   0  0  0  0  0  0  0  0  0  0  0  0
   -2.5240   21.0180  -29.1330 O   0  0  0  0  0  0  0  0  0  0  0  0
    0.7820   20.0670  -28.5810 C   0  0  0  0  0  0  0  0  0  0  0  0
    2.0300   19.1790  -28.5200 C   0  0  0  0  0  0  0  0  0  0  0  0
    4.4866   17.1636  -27.7059 H   0  0  0  0  0  0  0  0  0  0  0  0
    4.7114   16.2936  -29.2614 H   0  0  0  0  0  0  0  0  0  0  0  0
    4.3124   18.0451  -29.2614 H   0  0  0  0  0  0  0  0  0  0  0  0
   -0.2593   17.4163  -29.2490 H   0  0  0  0  0  0  0  0  0  0  0  0
    0.2600   16.3055  -27.9241 H   0  0  0  0  0  0  0  0  0  0  0  0
   -1.4876   18.0434  -27.2740 H   0  0  0  0  0  0  0  0  0  0  0  0
    0.0238   18.0200  -26.2723 H   0  0  0  0  0  0  0  0  0  0  0  0
   -0.0638   23.0370  -25.8181 H   0  0  0  0  0  0  0  0  0  0  0  0
   -0.5671   25.3034  -26.7189 H   0  0  0  0  0  0  0  0  0  0  0  0
   -2.8880   26.0500  -29.3340 H   0  0  0  0  0  0  0  0  0  0  0  0
   -7.2943   24.9281  -30.7882 H   0  0  0  0  0  0  0  0  0  0  0  0
   -9.1040   23.4118  -31.6008 H   0  0  0  0  0  0  0  0  0  0  0  0
   -6.2530   20.1606  -31.8711 H   0  0  0  0  0  0  0  0  0  0  0  0
   -4.4453   21.6742  -31.0514 H   0  0  0  0  0  0  0  0  0  0  0  0
    0.3132   19.9661  -29.5710 H   0  0  0  0  0  0  0  0  0  0  0  0
    1.0784   21.1122  -28.4085 H   0  0  0  0  0  0  0  0  0  0  0  0
    2.6514   19.3758  -29.4061 H   0  0  0  0  0  0  0  0  0  0  0  0
    2.5762   19.4173  -27.5954 H   0  0  0  0  0  0  0  0  0  0  0  0
  1  2  1  0
  2  3  2  0
  2  4  1  0
  4  5  1  0
  5  6  1  0
  6  7  1  0
  7  8  1  0
  8  9  2  0
  8 10  1  0
 10 11  2  0
 11 12  1  0
 12 13  2  0
 13 14  1  0
 13 15  1  0
 15 16  1  0
 16 17  1  0
 17 18  2  0
 17 19  2  0
 17 20  1  0
 20 21  2  0
 21 22  1  0
 22 23  2  0
 23 24  1  0
 24 25  3  0
 23 26  1  0
 26 27  2  0
 15 28  2  0
 28 29  1  0
  7 30  1  0
 30 31  1  0
 31  4  1  0
 28 10  1  0
 27 20  1  0
  1 32  1  0
  1 33  1  0
  1 34  1  0
  5 35  1  0
  5 36  1  0
  6 37  1  0
  6 38  1  0
 11 39  1  0
 12 40  1  0
 14 41  1  0
 21 42  1  0
 22 43  1  0
 26 44  1  0
 27 45  1  0
 30 46  1  0
 30 47  1  0
 31 48  1  0
 31 49  1  0
M  CHG  2  16  -1  29  -1
M  END
>  <UniqueID>  (43) 
42

>  <SMILES>  (43) 
CC(=O)N1CCN(C(=O)c2ccc(O)c([N-]S(=O)(=O)c3ccc(C#N)cc3)c2[O-])CC1

>  <Energy>  (43) 
63.09608248232953

>  <Genealogy>  (43) 
CC(=O)N1CCN(C(=O)c2ccc(O)c([N-]S(=O)(=O)c3ccc(C#N)cc3)c2[O-])CC1 (protonated)
CC(=O)N1CCN(C(=O)c2ccc(O)c([N-]S(=O)(=O)c3ccc(C#N)cc3)c2[O-])CC1 (3D coordinates assigned)
CC(=O)N1CCN(C(=O)c2ccc(O)c([N-]S(=O)(=O)c3ccc(C#N)cc3)c2[O-])CC1 (nonaromatic ring conformer: 63.09608248232953 kcal/mol)

>  <smiles>  (43) 
CC(=O)N1CCN(C(=O)c2ccc(O)c(NS(=O)(=O)c3ccc(C#N)cc3)c2O)CC1

>  <score_type>  (43) 
oracle

>  <origin>  (43) 
adgpu

>  <m_score__min__energy>  (43) 
-13.02

>  <m_primary>  (43) 
energy

$$$$
43:0
     RDKit          3D

 71 77  0  0  0  0  0  0  0  0999 V2000
   -7.8630   18.5400  -30.9240 O   0  0  0  0  0  0  0  0  0  0  0  0
   -7.8280   19.2100  -32.2690 S   0  0  0  0  0  0  0  0  0  0  0  0
   -9.0150   18.7440  -33.0660 O   0  0  0  0  0  0  0  0  0  0  0  0
   -7.8670   20.9550  -32.0430 C   0  0  0  0  0  0  0  0  0  0  0  0
   -9.0630   21.6710  -32.1790 C   0  0  0  0  0  0  0  0  0  0  0  0
   -9.0720   23.0570  -32.0050 C   0  0  0  0  0  0  0  0  0  0  0  0
   -7.8900   23.7350  -31.6950 C   0  0  0  0  0  0  0  0  0  0  0  0
   -6.6810   23.0290  -31.5590 C   0  0  0  0  0  0  0  0  0  0  0  0
   -5.4290   23.7420  -31.2270 C   0  0  0  0  0  0  0  0  0  0  0  0
   -4.2500   23.1410  -30.9830 N   0  0  0  0  0  0  0  0  0  0  0  0
   -3.4070   24.1330  -30.7460 N   0  0  0  0  0  0  0  0  0  0  0  0
   -4.0410   25.2910  -30.8410 N   0  0  0  0  0  0  0  0  0  0  0  0
   -5.3120   25.0800  -31.1420 N   0  0  0  0  0  0  0  0  0  0  0  0
   -6.6790   21.6350  -31.7390 C   0  0  0  0  0  0  0  0  0  0  0  0
   -6.3700   18.7830  -33.1030 N   0  0  0  0  0  0  0  0  0  0  0  0
   -5.4130   19.6430  -33.5150 C   0  0  0  0  0  0  0  0  0  0  0  0
   -4.4020   18.9580  -34.1750 C   0  0  0  0  0  0  0  0  0  0  0  0
   -4.7850   17.6290  -34.1690 C   0  0  0  0  0  0  0  0  0  0  0  0
   -4.1590   16.4810  -34.6800 C   0  0  0  0  0  0  0  0  0  0  0  0
   -2.9470   16.5270  -35.3840 O   0  0  0  0  0  0  0  0  0  0  0  0
   -1.7160   16.8860  -34.8180 C   0  0  0  0  0  0  0  0  0  0  0  0
   -1.0050   15.9300  -34.0830 C   0  0  0  0  0  0  0  0  0  0  0  0
    0.2120   16.2610  -33.4810 C   0  0  0  0  0  0  0  0  0  0  0  0
    0.7200   17.5630  -33.6000 C   0  0  0  0  0  0  0  0  0  0  0  0
    0.0430   18.5090  -34.3740 C   0  0  0  0  0  0  0  0  0  0  0  0
   -1.1680   18.1710  -34.9940 C   0  0  0  0  0  0  0  0  0  0  0  0
    0.6780   19.8530  -34.5600 C   0  0  0  0  0  0  0  0  0  0  0  0
    1.2280   20.3750  -33.2210 C   0  0  0  0  0  0  0  0  0  0  0  0
    1.9370   19.3470  -32.4050 N   0  0  0  0  0  0  0  0  0  0  0  0
    1.6440   19.4240  -30.9560 C   0  0  0  0  0  0  0  0  0  0  0  0
    0.3250   18.7340  -30.5330 C   0  0  0  0  0  0  0  0  0  0  0  0
   -0.8250   19.6600  -30.5730 N   0  0  0  0  0  0  0  0  0  0  0  0
   -0.4290   21.0740  -30.5940 C   0  0  0  0  0  0  0  0  0  0  0  0
   -1.5150   21.8320  -31.3500 C   0  0  0  0  0  0  0  0  0  0  0  0
   -2.3630   20.7670  -32.0230 C   0  0  0  0  0  0  0  0  0  0  0  0
   -1.6180   19.4680  -31.7890 C   0  0  0  0  0  0  0  0  0  0  0  0
    2.0130   17.9720  -32.9520 C   0  0  0  0  0  0  0  0  0  0  0  0
   -4.7780   15.2410  -34.4450 C   0  0  0  0  0  0  0  0  0  0  0  0
   -6.0110   15.1710  -33.7620 C   0  0  0  0  0  0  0  0  0  0  0  0
   -6.6330   16.3380  -33.2890 C   0  0  0  0  0  0  0  0  0  0  0  0
   -5.9830   17.5570  -33.5010 C   0  0  0  0  0  0  0  0  0  0  0  0
   -9.9958   21.1416  -32.4230 H   0  0  0  0  0  0  0  0  0  0  0  0
  -10.0128   23.6167  -32.1124 H   0  0  0  0  0  0  0  0  0  0  0  0
   -7.9051   24.8262  -31.5567 H   0  0  0  0  0  0  0  0  0  0  0  0
   -5.7384   21.0733  -31.6406 H   0  0  0  0  0  0  0  0  0  0  0  0
   -5.4322   20.7305  -33.3509 H   0  0  0  0  0  0  0  0  0  0  0  0
   -3.4866   19.3836  -34.6119 H   0  0  0  0  0  0  0  0  0  0  0  0
   -1.4069   14.9114  -33.9786 H   0  0  0  0  0  0  0  0  0  0  0  0
    0.7708   15.5015  -32.9146 H   0  0  0  0  0  0  0  0  0  0  0  0
   -1.6906   18.9104  -35.6186 H   0  0  0  0  0  0  0  0  0  0  0  0
    1.5032   19.7674  -35.2824 H   0  0  0  0  0  0  0  0  0  0  0  0
   -0.0795   20.5574  -34.9341 H   0  0  0  0  0  0  0  0  0  0  0  0
    1.9330   21.1922  -33.4335 H   0  0  0  0  0  0  0  0  0  0  0  0
    0.3596   20.7017  -32.6301 H   0  0  0  0  0  0  0  0  0  0  0  0
    2.4720   18.9464  -30.4117 H   0  0  0  0  0  0  0  0  0  0  0  0
    1.5314   20.4913  -30.7148 H   0  0  0  0  0  0  0  0  0  0  0  0
    0.1286   17.8950  -31.2168 H   0  0  0  0  0  0  0  0  0  0  0  0
    0.4428   18.3853  -29.4964 H   0  0  0  0  0  0  0  0  0  0  0  0
   -0.3462   21.4581  -29.5666 H   0  0  0  0  0  0  0  0  0  0  0  0
    0.5487   21.1998  -31.0821 H   0  0  0  0  0  0  0  0  0  0  0  0
   -2.1253   22.4252  -30.6531 H   0  0  0  0  0  0  0  0  0  0  0  0
   -1.0877   22.5342  -32.0810 H   0  0  0  0  0  0  0  0  0  0  0  0
   -3.3642   20.7259  -31.5692 H   0  0  0  0  0  0  0  0  0  0  0  0
   -2.5111   20.9717  -33.0936 H   0  0  0  0  0  0  0  0  0  0  0  0
   -2.3297   18.6404  -31.6524 H   0  0  0  0  0  0  0  0  0  0  0  0
   -0.9778   19.2151  -32.6470 H   0  0  0  0  0  0  0  0  0  0  0  0
    2.8171   17.9297  -33.7014 H   0  0  0  0  0  0  0  0  0  0  0  0
    2.2151   17.2811  -32.1202 H   0  0  0  0  0  0  0  0  0  0  0  0
   -4.2968   14.3165  -34.7968 H   0  0  0  0  0  0  0  0  0  0  0  0
   -6.4891   14.1939  -33.5987 H   0  0  0  0  0  0  0  0  0  0  0  0
   -7.6009   16.2940  -32.7683 H   0  0  0  0  0  0  0  0  0  0  0  0
  1  2  2  0
  2  3  2  0
  2  4  1  0
  4  5  2  0
  5  6  1  0
  6  7  2  0
  7  8  1  0
  8  9  1  0
  9 10  1  0
 10 11  2  0
 11 12  1  0
 12 13  1  0
  8 14  2  0
  2 15  1  0
 15 16  1  0
 16 17  2  0
 17 18  1  0
 18 19  2  0
 19 20  1  0
 20 21  1  0
 21 22  2  0
 22 23  1  0
 23 24  2  0
 24 25  1  0
 25 26  2  0
 25 27  1  0
 27 28  1  0
 28 29  1  0
 29 30  1  0
 30 31  1  0
 31 32  1  0
 32 33  1  0
 33 34  1  0
 34 35  1  0
 35 36  1  0
 29 37  1  0
 19 38  1  0
 38 39  2  0
 39 40  1  0
 40 41  2  0
 14  4  1  0
 41 15  1  0
 13  9  2  0
 41 18  1  0
 26 21  1  0
 36 32  1  0
 37 24  1  0
  5 42  1  0
  6 43  1  0
  7 44  1  0
 14 45  1  0
 16 46  1  0
 17 47  1  0
 22 48  1  0
 23 49  1  0
 26 50  1  0
 27 51  1  0
 27 52  1  0
 28 53  1  0
 28 54  1  0
 30 55  1  0
 30 56  1  0
 31 57  1  0
 31 58  1  0
 33 59  1  0
 33 60  1  0
 34 61  1  0
 34 62  1  0
 35 63  1  0
 35 64  1  0
 36 65  1  0
 36 66  1  0
 37 67  1  0
 37 68  1  0
 38 69  1  0
 39 70  1  0
 40 71  1  0
M  CHG  1  12  -1
M  END
>  <UniqueID>  (44) 
43

>  <SMILES>  (44) 
O=S(=O)(c1cccc(-c2nn[n-]n2)c1)n1ccc2c(Oc3ccc4c(c3)CCN(CCN3CCCC3)C4)cccc21

>  <Energy>  (44) 
171.90503394815553

>  <Genealogy>  (44) 
O=S(=O)(c1cccc(-c2nn[n-]n2)c1)n1ccc2c(Oc3ccc4c(c3)CCN(CCN3CCCC3)C4)cccc21 (protonated)
O=S(=O)(c1cccc(-c2nn[n-]n2)c1)n1ccc2c(Oc3ccc4c(c3)CCN(CCN3CCCC3)C4)cccc21 (3D coordinates assigned)
O=S(=O)(c1cccc(-c2nn[n-]n2)c1)n1ccc2c(Oc3ccc4c(c3)CCN(CCN3CCCC3)C4)cccc21 (nonaromatic ring conformer: 171.90503394815553 kcal/mol)

>  <smiles>  (44) 
O=S(=O)(c1cccc(-c2nn[nH]n2)c1)n1ccc2c(Oc3ccc4c(c3)CCN(CCN3CCCC3)C4)cccc21

>  <score_type>  (44) 
oracle

>  <origin>  (44) 
adgpu

>  <m_score__min__energy>  (44) 
-12.539999999999999

>  <m_primary>  (44) 
energy

$$$$
44:0
     RDKit          3D

 57 59  0  0  0  0  0  0  0  0999 V2000
   -6.1190   19.0200  -34.0540 C   0  0  0  0  0  0  0  0  0  0  0  0
   -6.9040   19.7710  -33.1360 O   0  0  0  0  0  0  0  0  0  0  0  0
   -6.4900   20.9690  -32.5320 C   0  0  0  0  0  0  0  0  0  0  0  0
   -5.2370   21.5500  -32.8060 C   0  0  0  0  0  0  0  0  0  0  0  0
   -4.8560   22.7360  -32.1750 C   0  0  0  0  0  0  0  0  0  0  0  0
   -5.7170   23.3560  -31.2630 C   0  0  0  0  0  0  0  0  0  0  0  0
   -5.2340   24.8420  -30.4550 S   0  0  0  0  0  0  0  0  0  0  0  0
   -5.7840   26.0210  -31.2100 O   0  0  0  0  0  0  0  0  0  0  0  0
   -5.7530   24.8470  -29.0450 O   0  0  0  0  0  0  0  0  0  0  0  0
   -3.5060   24.9240  -30.4530 N   0  0  0  0  0  0  0  0  0  0  0  0
   -2.6250   23.9760  -29.8370 C   0  0  0  0  0  0  0  0  0  0  0  0
   -2.6650   22.6150  -30.1770 C   0  0  0  0  0  0  0  0  0  0  0  0
   -1.7500   21.7070  -29.6200 C   0  0  0  0  0  0  0  0  0  0  0  0
   -1.8230   20.2530  -30.0080 C   0  0  0  0  0  0  0  0  0  0  0  0
   -0.7780   22.1740  -28.7040 C   0  0  0  0  0  0  0  0  0  0  0  0
    0.2300   21.2390  -28.0890 C   0  0  0  0  0  0  0  0  0  0  0  0
   -0.7410   23.5380  -28.3740 C   0  0  0  0  0  0  0  0  0  0  0  0
   -1.6680   24.4330  -28.9130 C   0  0  0  0  0  0  0  0  0  0  0  0
   -1.5940   25.7820  -28.5330 O   0  0  0  0  0  0  0  0  0  0  0  0
   -0.9570   26.2610  -27.3770 C   0  0  0  0  0  0  0  0  0  0  0  0
    0.3930   26.6610  -27.3820 C   0  0  0  0  0  0  0  0  0  0  0  0
    0.9890   27.1420  -26.2130 C   0  0  0  0  0  0  0  0  0  0  0  0
    0.2420   27.2530  -25.0330 C   0  0  0  0  0  0  0  0  0  0  0  0
    0.9740   27.9030  -23.5710 S   0  0  0  0  0  0  0  0  0  0  0  0
    1.0900   29.6710  -23.6890 C   0  0  0  0  0  0  0  0  0  0  0  0
    0.1430   27.5360  -22.3750 O   0  0  0  0  0  0  0  0  0  0  0  0
    2.3460   27.3180  -23.3960 O   0  0  0  0  0  0  0  0  0  0  0  0
   -1.1020   26.8570  -25.0280 C   0  0  0  0  0  0  0  0  0  0  0  0
   -1.6970   26.3690  -26.1950 C   0  0  0  0  0  0  0  0  0  0  0  0
   -6.9680   22.7870  -30.9900 C   0  0  0  0  0  0  0  0  0  0  0  0
   -7.3600   21.5910  -31.6210 C   0  0  0  0  0  0  0  0  0  0  0  0
   -8.6000   20.9850  -31.3630 O   0  0  0  0  0  0  0  0  0  0  0  0
   -9.8630   21.5900  -31.6200 C   0  0  0  0  0  0  0  0  0  0  0  0
   -5.4330   18.3637  -33.4985 H   0  0  0  0  0  0  0  0  0  0  0  0
   -6.7793   18.4088  -34.6867 H   0  0  0  0  0  0  0  0  0  0  0  0
   -5.5376   19.7067  -34.6867 H   0  0  0  0  0  0  0  0  0  0  0  0
   -4.5546   21.0670  -33.5209 H   0  0  0  0  0  0  0  0  0  0  0  0
   -3.8760   23.1842  -32.3956 H   0  0  0  0  0  0  0  0  0  0  0  0
   -3.4226   22.2550  -30.8887 H   0  0  0  0  0  0  0  0  0  0  0  0
   -1.8542   19.6324  -29.1003 H   0  0  0  0  0  0  0  0  0  0  0  0
   -2.7311   20.0776  -30.6035 H   0  0  0  0  0  0  0  0  0  0  0  0
   -0.9371   19.9875  -30.6035 H   0  0  0  0  0  0  0  0  0  0  0  0
    0.1649   21.2994  -26.9926 H   0  0  0  0  0  0  0  0  0  0  0  0
    0.0198   20.2089  -28.4126 H   0  0  0  0  0  0  0  0  0  0  0  0
    1.2414   21.5259  -28.4126 H   0  0  0  0  0  0  0  0  0  0  0  0
    0.0292   23.9073  -27.6809 H   0  0  0  0  0  0  0  0  0  0  0  0
    0.9807   26.5947  -28.3094 H   0  0  0  0  0  0  0  0  0  0  0  0
    2.0493   27.4347  -26.2194 H   0  0  0  0  0  0  0  0  0  0  0  0
    1.1185   30.1048  -22.6786 H   0  0  0  0  0  0  0  0  0  0  0  0
    2.0079   29.9429  -24.2308 H   0  0  0  0  0  0  0  0  0  0  0  0
    0.2155   30.0605  -24.2308 H   0  0  0  0  0  0  0  0  0  0  0  0
   -1.6913   26.9304  -24.1021 H   0  0  0  0  0  0  0  0  0  0  0  0
   -2.7549   26.0677  -26.1837 H   0  0  0  0  0  0  0  0  0  0  0  0
   -7.6481   23.2778  -30.2782 H   0  0  0  0  0  0  0  0  0  0  0  0
  -10.3571   21.8267  -30.6661 H   0  0  0  0  0  0  0  0  0  0  0  0
   -9.7158   22.5154  -32.1962 H   0  0  0  0  0  0  0  0  0  0  0  0
  -10.4919   20.8954  -32.1962 H   0  0  0  0  0  0  0  0  0  0  0  0
  1  2  1  0
  2  3  1  0
  3  4  2  0
  4  5  1  0
  5  6  2  0
  6  7  1  0
  7  8  2  0
  7  9  2  0
  7 10  1  0
 10 11  1  0
 11 12  2  0
 12 13  1  0
 13 14  1  0
 13 15  2  0
 15 16  1  0
 15 17  1  0
 17 18  2  0
 18 19  1  0
 19 20  1  0
 20 21  2  0
 21 22  1  0
 22 23  2  0
 23 24  1  0
 24 25  1  0
 24 26  2  0
 24 27  2  0
 23 28  1  0
 28 29  2  0
  6 30  1  0
 30 31  2  0
 31 32  1  0
 32 33  1  0
 31  3  1  0
 18 11  1  0
 29 20  1  0
  1 34  1  0
  1 35  1  0
  1 36  1  0
  4 37  1  0
  5 38  1  0
 12 39  1  0
 14 40  1  0
 14 41  1  0
 14 42  1  0
 16 43  1  0
 16 44  1  0
 16 45  1  0
 17 46  1  0
 21 47  1  0
 22 48  1  0
 25 49  1  0
 25 50  1  0
 25 51  1  0
 28 52  1  0
 29 53  1  0
 30 54  1  0
 33 55  1  0
 33 56  1  0
 33 57  1  0
M  CHG  1  10  -1
M  END
>  <UniqueID>  (45) 
44

>  <SMILES>  (45) 
COc1ccc(S(=O)(=O)[N-]c2cc(C)c(C)cc2Oc2ccc(S(C)(=O)=O)cc2)cc1OC

>  <Energy>  (45) 
61.76431657690074

>  <Genealogy>  (45) 
COc1ccc(S(=O)(=O)[N-]c2cc(C)c(C)cc2Oc2ccc(S(C)(=O)=O)cc2)cc1OC (protonated)
COc1ccc(S(=O)(=O)[N-]c2cc(C)c(C)cc2Oc2ccc(S(C)(=O)=O)cc2)cc1OC (3D coordinates assigned)
COc1ccc(S(=O)(=O)[N-]c2cc(C)c(C)cc2Oc2ccc(S(C)(=O)=O)cc2)cc1OC (optimized conformer: 61.76431657690074 kcal/mol)

>  <smiles>  (45) 
COc1ccc(S(=O)(=O)Nc2cc(C)c(C)cc2Oc2ccc(S(C)(=O)=O)cc2)cc1OC

>  <score_type>  (45) 
oracle

>  <origin>  (45) 
adgpu

>  <m_score__min__energy>  (45) 
-10.58

>  <m_primary>  (45) 
energy

$$$$
45:0
     RDKit          3D

 60 63  0  0  0  0  0  0  0  0999 V2000
   -3.9750   18.9220  -32.7970 C   0  0  0  0  0  0  0  0  0  0  0  0
   -5.4300   18.7080  -32.8420 N   0  0  0  0  0  0  0  0  0  0  0  0
   -6.0290   18.9640  -31.5110 C   0  0  0  0  0  0  0  0  0  0  0  0
   -7.5350   19.2580  -31.6190 C   0  0  0  0  0  0  0  0  0  0  0  0
   -7.8200   20.4380  -32.4690 N   0  0  0  0  0  0  0  0  0  0  0  0
   -8.2310   21.8390  -31.5060 S   0  0  0  0  0  0  0  0  0  0  0  0
   -8.7790   21.3880  -30.1810 O   0  0  0  0  0  0  0  0  0  0  0  0
   -9.2970   22.6370  -32.2020 O   0  0  0  0  0  0  0  0  0  0  0  0
   -6.8240   22.8700  -31.2330 C   0  0  0  0  0  0  0  0  0  0  0  0
   -6.9880   24.2340  -30.9650 C   0  0  0  0  0  0  0  0  0  0  0  0
   -5.8740   25.0380  -30.7100 C   0  0  0  0  0  0  0  0  0  0  0  0
   -4.5890   24.4880  -30.7390 C   0  0  0  0  0  0  0  0  0  0  0  0
   -3.4900   25.2990  -30.4790 O   0  0  0  0  0  0  0  0  0  0  0  0
   -4.4090   23.1300  -31.0370 C   0  0  0  0  0  0  0  0  0  0  0  0
   -3.0810   22.5850  -31.0550 N   0  0  0  0  0  0  0  0  0  0  0  0
   -2.4930   21.8290  -32.1230 C   0  0  0  0  0  0  0  0  0  0  0  0
   -3.1060   21.7580  -33.2220 O   0  0  0  0  0  0  0  0  0  0  0  0
   -1.2140   21.1010  -31.9620 C   0  0  0  0  0  0  0  0  0  0  0  0
   -0.9700   20.3890  -30.7750 C   0  0  0  0  0  0  0  0  0  0  0  0
    0.2320   19.6880  -30.5970 C   0  0  0  0  0  0  0  0  0  0  0  0
    0.5380   18.8190  -29.0880 S   0  0  0  0  0  0  0  0  0  0  0  0
    0.0240   17.4100  -29.2240 O   0  0  0  0  0  0  0  0  0  0  0  0
    2.0240   18.7500  -28.8550 O   0  0  0  0  0  0  0  0  0  0  0  0
   -0.2120   19.5700  -27.7000 N   0  0  0  0  0  0  0  0  0  0  0  0
   -0.3760   21.0100  -27.8690 C   0  0  0  0  0  0  0  0  0  0  0  0
   -1.4780   21.4140  -26.9040 C   0  0  0  0  0  0  0  0  0  0  0  0
   -2.3250   20.1600  -26.7360 C   0  0  0  0  0  0  0  0  0  0  0  0
   -1.5560   19.0510  -27.4450 C   0  0  0  0  0  0  0  0  0  0  0  0
    1.2020   19.7120  -31.6070 C   0  0  0  0  0  0  0  0  0  0  0  0
    0.9710   20.4220  -32.7860 C   0  0  0  0  0  0  0  0  0  0  0  0
   -0.2240   21.1240  -32.9660 C   0  0  0  0  0  0  0  0  0  0  0  0
   -0.4060   21.8600  -34.1330 O   0  0  0  0  0  0  0  0  0  0  0  0
   -5.5360   22.3210  -31.2650 C   0  0  0  0  0  0  0  0  0  0  0  0
   -6.7400   20.7640  -33.4240 C   0  0  0  0  0  0  0  0  0  0  0  0
   -6.0580   19.4890  -33.9370 C   0  0  0  0  0  0  0  0  0  0  0  0
   -3.6438   18.9707  -31.7492 H   0  0  0  0  0  0  0  0  0  0  0  0
   -3.4660   18.0891  -33.3041 H   0  0  0  0  0  0  0  0  0  0  0  0
   -3.7274   19.8662  -33.3041 H   0  0  0  0  0  0  0  0  0  0  0  0
   -5.8822   18.0777  -30.8763 H   0  0  0  0  0  0  0  0  0  0  0  0
   -5.5355   19.8443  -31.0734 H   0  0  0  0  0  0  0  0  0  0  0  0
   -8.0361   18.3803  -32.0532 H   0  0  0  0  0  0  0  0  0  0  0  0
   -7.9080   19.4751  -30.6072 H   0  0  0  0  0  0  0  0  0  0  0  0
   -7.9961   24.6740  -30.9551 H   0  0  0  0  0  0  0  0  0  0  0  0
   -6.0084   26.1065  -30.4858 H   0  0  0  0  0  0  0  0  0  0  0  0
   -1.7285   20.3814  -29.9783 H   0  0  0  0  0  0  0  0  0  0  0  0
    0.5596   21.5340  -27.6239 H   0  0  0  0  0  0  0  0  0  0  0  0
   -0.6294   21.2708  -28.9071 H   0  0  0  0  0  0  0  0  0  0  0  0
   -1.0528   21.7269  -25.9389 H   0  0  0  0  0  0  0  0  0  0  0  0
   -2.0657   22.2658  -27.2770 H   0  0  0  0  0  0  0  0  0  0  0  0
   -2.4496   19.9203  -25.6697 H   0  0  0  0  0  0  0  0  0  0  0  0
   -3.3336   20.2896  -27.1554 H   0  0  0  0  0  0  0  0  0  0  0  0
   -1.5027   18.1576  -26.8054 H   0  0  0  0  0  0  0  0  0  0  0  0
   -2.0532   18.7608  -28.3823 H   0  0  0  0  0  0  0  0  0  0  0  0
    2.1491   19.1694  -31.4705 H   0  0  0  0  0  0  0  0  0  0  0  0
    1.7340   20.4292  -33.5783 H   0  0  0  0  0  0  0  0  0  0  0  0
   -5.4051   21.2483  -31.4702 H   0  0  0  0  0  0  0  0  0  0  0  0
   -7.1670   21.3119  -34.2769 H   0  0  0  0  0  0  0  0  0  0  0  0
   -5.9892   21.3803  -32.9078 H   0  0  0  0  0  0  0  0  0  0  0  0
   -6.8114   18.8598  -34.4335 H   0  0  0  0  0  0  0  0  0  0  0  0
   -5.2631   19.7896  -34.6354 H   0  0  0  0  0  0  0  0  0  0  0  0
  1  2  1  0
  2  3  1  0
  3  4  1  0
  4  5  1  0
  5  6  1  0
  6  7  2  0
  6  8  2  0
  6  9  1  0
  9 10  2  0
 10 11  1  0
 11 12  2  0
 12 13  1  0
 12 14  1  0
 14 15  1  0
 15 16  1  0
 16 17  2  0
 16 18  1  0
 18 19  2  0
 19 20  1  0
 20 21  1  0
 21 22  2  0
 21 23  2  0
 21 24  1  0
 24 25  1  0
 25 26  1  0
 26 27  1  0
 27 28  1  0
 20 29  2  0
 29 30  1  0
 30 31  2  0
 31 32  1  0
 14 33  2  0
  5 34  1  0
 34 35  1  0
 35  2  1  0
 33  9  1  0
 31 18  1  0
 28 24  1  0
  1 36  1  0
  1 37  1  0
  1 38  1  0
  3 39  1  0
  3 40  1  0
  4 41  1  0
  4 42  1  0
 10 43  1  0
 11 44  1  0
 19 45  1  0
 25 46  1  0
 25 47  1  0
 26 48  1  0
 26 49  1  0
 27 50  1  0
 27 51  1  0
 28 52  1  0
 28 53  1  0
 29 54  1  0
 30 55  1  0
 33 56  1  0
 34 57  1  0
 34 58  1  0
 35 59  1  0
 35 60  1  0
M  CHG  3  13  -1  15  -1  32  -1
M  END
>  <UniqueID>  (46) 
45

>  <SMILES>  (46) 
CN1CCN(S(=O)(=O)c2ccc([O-])c([N-]C(=O)c3cc(S(=O)(=O)N4CCCC4)ccc3[O-])c2)CC1

>  <Energy>  (46) 
78.23648682419503

>  <Genealogy>  (46) 
CN1CCN(S(=O)(=O)c2ccc([O-])c([N-]C(=O)c3cc(S(=O)(=O)N4CCCC4)ccc3[O-])c2)CC1 (protonated)
CN1CCN(S(=O)(=O)c2ccc([O-])c([N-]C(=O)c3cc(S(=O)(=O)N4CCCC4)ccc3[O-])c2)CC1 (3D coordinates assigned)
CN1CCN(S(=O)(=O)c2ccc([O-])c([N-]C(=O)c3cc(S(=O)(=O)N4CCCC4)ccc3[O-])c2)CC1 (nonaromatic ring conformer: 78.23648682419503 kcal/mol)

>  <smiles>  (46) 
CN1CCN(S(=O)(=O)c2ccc(O)c(NC(=O)c3cc(S(=O)(=O)N4CCCC4)ccc3O)c2)CC1

>  <score_type>  (46) 
oracle

>  <origin>  (46) 
adgpu

>  <m_score__min__energy>  (46) 
-17.16

>  <m_primary>  (46) 
energy

$$$$
46:0
     RDKit          3D

 57 60  0  0  0  0  0  0  0  0999 V2000
   -5.4140   16.5980  -34.3370 C   0  0  0  0  0  0  0  0  0  0  0  0
   -5.8260   17.0030  -32.9940 N   0  0  0  0  0  0  0  0  0  0  0  0
   -5.3750   16.2180  -31.8460 C   0  0  0  0  0  0  0  0  0  0  0  0
   -6.7590   18.0820  -32.8070 C   0  0  0  0  0  0  0  0  0  0  0  0
   -7.9500   17.8490  -32.1000 C   0  0  0  0  0  0  0  0  0  0  0  0
   -8.8680   18.8830  -31.9010 C   0  0  0  0  0  0  0  0  0  0  0  0
   -8.6150   20.1530  -32.4240 C   0  0  0  0  0  0  0  0  0  0  0  0
   -7.4480   20.3910  -33.1530 C   0  0  0  0  0  0  0  0  0  0  0  0
   -6.5090   19.3600  -33.3490 C   0  0  0  0  0  0  0  0  0  0  0  0
   -5.2840   19.6140  -34.0540 N   0  0  0  0  0  0  0  0  0  0  0  0
   -4.0590   20.0210  -33.4340 C   0  0  0  0  0  0  0  0  0  0  0  0
   -2.9910   19.4340  -33.7490 O   0  0  0  0  0  0  0  0  0  0  0  0
   -4.0260   21.1370  -32.4660 C   0  0  0  0  0  0  0  0  0  0  0  0
   -3.0550   21.1690  -31.4530 C   0  0  0  0  0  0  0  0  0  0  0  0
   -3.0540   22.1980  -30.5070 C   0  0  0  0  0  0  0  0  0  0  0  0
   -3.9970   23.2320  -30.5860 C   0  0  0  0  0  0  0  0  0  0  0  0
   -3.9660   24.5480  -29.4130 S   0  0  0  0  0  0  0  0  0  0  0  0
   -4.9840   25.5850  -29.8030 O   0  0  0  0  0  0  0  0  0  0  0  0
   -4.3270   24.0230  -28.0510 O   0  0  0  0  0  0  0  0  0  0  0  0
   -2.4050   25.3020  -29.3430 N   0  0  0  0  0  0  0  0  0  0  0  0
   -1.5690   25.2040  -28.1890 C   0  0  0  0  0  0  0  0  0  0  0  0
   -1.9360   25.8510  -27.0020 C   0  0  0  0  0  0  0  0  0  0  0  0
   -1.0970   25.8160  -25.8810 C   0  0  0  0  0  0  0  0  0  0  0  0
    0.1180   25.1070  -25.9420 C   0  0  0  0  0  0  0  0  0  0  0  0
    0.4540   24.4090  -27.1120 C   0  0  0  0  0  0  0  0  0  0  0  0
   -0.3760   24.4600  -28.2360 C   0  0  0  0  0  0  0  0  0  0  0  0
    0.0070   23.7750  -29.3910 O   0  0  0  0  0  0  0  0  0  0  0  0
    1.0030   25.0070  -24.7220 C   0  0  0  0  0  0  0  0  0  0  0  0
    0.7810   26.1300  -23.7990 N   0  0  0  0  0  0  0  0  0  0  0  0
   -0.6380   26.2250  -23.4390 C   0  0  0  0  0  0  0  0  0  0  0  0
   -1.4620   26.6260  -24.6660 C   0  0  0  0  0  0  0  0  0  0  0  0
   -4.9630   23.2080  -31.6030 C   0  0  0  0  0  0  0  0  0  0  0  0
   -4.9880   22.1590  -32.5260 C   0  0  0  0  0  0  0  0  0  0  0  0
   -4.6313   15.8286  -34.2640 H   0  0  0  0  0  0  0  0  0  0  0  0
   -6.2800   16.1898  -34.8787 H   0  0  0  0  0  0  0  0  0  0  0  0
   -5.0207   17.4709  -34.8787 H   0  0  0  0  0  0  0  0  0  0  0  0
   -5.6676   16.7272  -30.9159 H   0  0  0  0  0  0  0  0  0  0  0  0
   -5.8378   15.2207  -31.8792 H   0  0  0  0  0  0  0  0  0  0  0  0
   -4.2803   16.1155  -31.8792 H   0  0  0  0  0  0  0  0  0  0  0  0
   -8.1612   16.8461  -31.7005 H   0  0  0  0  0  0  0  0  0  0  0  0
   -9.7908   18.6968  -31.3320 H   0  0  0  0  0  0  0  0  0  0  0  0
   -9.3364   20.9674  -32.2614 H   0  0  0  0  0  0  0  0  0  0  0  0
   -7.2612   21.3890  -33.5763 H   0  0  0  0  0  0  0  0  0  0  0  0
   -2.2904   20.3797  -31.4033 H   0  0  0  0  0  0  0  0  0  0  0  0
   -2.3098   22.1963  -29.6969 H   0  0  0  0  0  0  0  0  0  0  0  0
   -2.8924   26.3918  -26.9498 H   0  0  0  0  0  0  0  0  0  0  0  0
    1.3797   23.8157  -27.1452 H   0  0  0  0  0  0  0  0  0  0  0  0
   -0.4840   23.8820  -30.2720 H   0  0  0  0  0  0  0  0  0  0  0  0
    0.7833   24.0652  -24.1978 H   0  0  0  0  0  0  0  0  0  0  0  0
    2.0513   25.0364  -25.0539 H   0  0  0  0  0  0  0  0  0  0  0  0
    1.3220   25.9370  -22.9250 H   0  0  0  0  0  0  0  0  0  0  0  0
   -0.9863   25.2495  -23.0688 H   0  0  0  0  0  0  0  0  0  0  0  0
   -0.7622   26.9865  -22.6550 H   0  0  0  0  0  0  0  0  0  0  0  0
   -2.5281   26.4714  -24.4435 H   0  0  0  0  0  0  0  0  0  0  0  0
   -1.2501   27.6826  -24.8865 H   0  0  0  0  0  0  0  0  0  0  0  0
   -5.7037   24.0181  -31.6742 H   0  0  0  0  0  0  0  0  0  0  0  0
   -5.7653   22.1334  -33.3039 H   0  0  0  0  0  0  0  0  0  0  0  0
  1  2  1  0
  2  3  1  0
  2  4  1  0
  4  5  2  0
  5  6  1  0
  6  7  2  0
  7  8  1  0
  8  9  2  0
  9 10  1  0
 10 11  1  0
 11 12  2  0
 11 13  1  0
 13 14  2  0
 14 15  1  0
 15 16  2  0
 16 17  1  0
 17 18  2  0
 17 19  2  0
 17 20  1  0
 20 21  1  0
 21 22  2  0
 22 23  1  0
 23 24  2  0
 24 25  1  0
 25 26  2  0
 26 27  1  0
 24 28  1  0
 28 29  1  0
 29 30  1  0
 30 31  1  0
 16 32  1  0
 32 33  2  0
  9  4  1  0
 33 13  1  0
 26 21  1  0
 31 23  1  0
  1 34  1  0
  1 35  1  0
  1 36  1  0
  3 37  1  0
  3 38  1  0
  3 39  1  0
  5 40  1  0
  6 41  1  0
  7 42  1  0
  8 43  1  0
 14 44  1  0
 15 45  1  0
 22 46  1  0
 25 47  1  0
 27 48  1  0
 28 49  1  0
 28 50  1  0
 29 51  1  0
 30 52  1  0
 30 53  1  0
 31 54  1  0
 31 55  1  0
 32 56  1  0
 33 57  1  0
M  CHG  2  10  -1  20  -1
M  END
>  <UniqueID>  (47) 
46

>  <SMILES>  (47) 
CN(C)c1ccccc1[N-]C(=O)c1ccc(S(=O)(=O)[N-]c2cc3c(cc2O)CNCC3)cc1

>  <Energy>  (47) 
79.43891784407644

>  <Genealogy>  (47) 
CN(C)c1ccccc1[N-]C(=O)c1ccc(S(=O)(=O)[N-]c2cc3c(cc2O)CNCC3)cc1 (protonated)
CN(C)c1ccccc1[N-]C(=O)c1ccc(S(=O)(=O)[N-]c2cc3c(cc2O)CNCC3)cc1 (3D coordinates assigned)
CN(C)c1ccccc1[N-]C(=O)c1ccc(S(=O)(=O)[N-]c2cc3c(cc2O)CNCC3)cc1 (nonaromatic ring conformer: 79.43891784407644 kcal/mol)

>  <smiles>  (47) 
CN(C)c1ccccc1NC(=O)c1ccc(S(=O)(=O)Nc2cc3c(cc2O)CNCC3)cc1

>  <score_type>  (47) 
oracle

>  <origin>  (47) 
adgpu

>  <m_score__min__energy>  (47) 
-11.24

>  <m_primary>  (47) 
energy

$$$$
47:0
     RDKit          3D

 66 70  0  0  0  0  0  0  0  0999 V2000
    0.3140   25.2310  -27.0570 C   0  0  0  0  0  0  0  0  0  0  0  0
   -1.1230   25.0750  -27.2690 N   0  0  0  0  0  0  0  0  0  0  0  0
   -2.1190   25.3330  -26.3870 C   0  0  0  0  0  0  0  0  0  0  0  0
   -1.9250   25.8590  -25.2580 O   0  0  0  0  0  0  0  0  0  0  0  0
   -3.3380   24.9250  -26.8240 N   0  0  0  0  0  0  0  0  0  0  0  0
   -4.5900   24.9230  -26.0690 C   0  0  0  0  0  0  0  0  0  0  0  0
   -3.0790   24.3350  -28.0090 C   0  0  0  0  0  0  0  0  0  0  0  0
   -3.9480   23.6380  -28.8470 C   0  0  0  0  0  0  0  0  0  0  0  0
   -3.4110   23.0160  -29.9930 C   0  0  0  0  0  0  0  0  0  0  0  0
   -4.4760   22.0920  -31.0640 S   0  0  0  0  0  0  0  0  0  0  0  0
   -4.2540   20.6260  -30.8080 O   0  0  0  0  0  0  0  0  0  0  0  0
   -4.1400   22.3950  -32.4990 O   0  0  0  0  0  0  0  0  0  0  0  0
   -6.1560   22.4830  -30.7630 N   0  0  0  0  0  0  0  0  0  0  0  0
   -6.6020   23.6130  -31.5860 C   0  0  0  0  0  0  0  0  0  0  0  0
   -8.0900   23.4090  -31.8460 C   0  0  0  0  0  0  0  0  0  0  0  0
   -8.3760   21.9640  -31.4740 C   0  0  0  0  0  0  0  0  0  0  0  0
   -7.0210   21.3650  -31.1440 C   0  0  0  0  0  0  0  0  0  0  0  0
   -2.0080   23.0610  -30.2370 C   0  0  0  0  0  0  0  0  0  0  0  0
   -1.4590   22.2990  -31.3170 N   0  0  0  0  0  0  0  0  0  0  0  0
   -0.8510   20.6750  -31.2070 S   0  0  0  0  0  0  0  0  0  0  0  0
    0.5690   20.6570  -31.7090 O   0  0  0  0  0  0  0  0  0  0  0  0
   -0.8610   20.2370  -29.7650 O   0  0  0  0  0  0  0  0  0  0  0  0
   -1.7890   19.5550  -32.1960 C   0  0  0  0  0  0  0  0  0  0  0  0
   -2.8140   20.0260  -33.0290 C   0  0  0  0  0  0  0  0  0  0  0  0
   -3.5200   19.1390  -33.8450 C   0  0  0  0  0  0  0  0  0  0  0  0
   -3.2090   17.7730  -33.8400 C   0  0  0  0  0  0  0  0  0  0  0  0
   -4.1170   16.6520  -34.8580 S   0  0  0  0  0  0  0  0  0  0  0  0
   -3.1950   15.5680  -35.3460 O   0  0  0  0  0  0  0  0  0  0  0  0
   -4.6370   17.3920  -36.0610 O   0  0  0  0  0  0  0  0  0  0  0  0
   -5.4630   15.9270  -33.9990 N   0  0  0  0  0  0  0  0  0  0  0  0
   -5.1950   15.8590  -32.5580 C   0  0  0  0  0  0  0  0  0  0  0  0
   -5.8420   17.0680  -31.8990 C   0  0  0  0  0  0  0  0  0  0  0  0
   -6.8760   17.5650  -32.8900 C   0  0  0  0  0  0  0  0  0  0  0  0
   -6.6840   16.7290  -34.1510 C   0  0  0  0  0  0  0  0  0  0  0  0
   -2.1760   17.3040  -33.0150 C   0  0  0  0  0  0  0  0  0  0  0  0
   -1.4760   18.1880  -32.1890 C   0  0  0  0  0  0  0  0  0  0  0  0
   -1.1720   23.8230  -29.3930 C   0  0  0  0  0  0  0  0  0  0  0  0
   -1.7400   24.4300  -28.2790 C   0  0  0  0  0  0  0  0  0  0  0  0
    0.5250   25.2539  -25.9777 H   0  0  0  0  0  0  0  0  0  0  0  0
    0.8464   24.3854  -27.5168 H   0  0  0  0  0  0  0  0  0  0  0  0
    0.6525   26.1712  -27.5168 H   0  0  0  0  0  0  0  0  0  0  0  0
   -4.3684   24.9234  -24.9915 H   0  0  0  0  0  0  0  0  0  0  0  0
   -5.1732   25.8202  -26.3237 H   0  0  0  0  0  0  0  0  0  0  0  0
   -5.1703   24.0239  -26.3237 H   0  0  0  0  0  0  0  0  0  0  0  0
   -5.0226   23.5749  -28.6206 H   0  0  0  0  0  0  0  0  0  0  0  0
   -6.4376   24.5596  -31.0504 H   0  0  0  0  0  0  0  0  0  0  0  0
   -6.0394   23.6597  -32.5301 H   0  0  0  0  0  0  0  0  0  0  0  0
   -8.6858   24.0912  -31.2218 H   0  0  0  0  0  0  0  0  0  0  0  0
   -8.3525   23.6190  -32.8934 H   0  0  0  0  0  0  0  0  0  0  0  0
   -9.0430   21.9148  -30.6007 H   0  0  0  0  0  0  0  0  0  0  0  0
   -8.8796   21.4210  -32.2873 H   0  0  0  0  0  0  0  0  0  0  0  0
   -7.1126   20.6536  -30.3100 H   0  0  0  0  0  0  0  0  0  0  0  0
   -6.6079   20.8163  -32.0032 H   0  0  0  0  0  0  0  0  0  0  0  0
   -3.0629   21.0974  -33.0399 H   0  0  0  0  0  0  0  0  0  0  0  0
   -4.3241   19.5149  -34.4947 H   0  0  0  0  0  0  0  0  0  0  0  0
   -5.6226   14.9346  -32.1425 H   0  0  0  0  0  0  0  0  0  0  0  0
   -4.1109   15.8583  -32.3718 H   0  0  0  0  0  0  0  0  0  0  0  0
   -6.3238   16.7784  -30.9535 H   0  0  0  0  0  0  0  0  0  0  0  0
   -5.1022   17.8453  -31.6570 H   0  0  0  0  0  0  0  0  0  0  0  0
   -7.8901   17.4233  -32.4880 H   0  0  0  0  0  0  0  0  0  0  0  0
   -6.7543   18.6388  -33.0955 H   0  0  0  0  0  0  0  0  0  0  0  0
   -7.5492   16.0642  -34.2904 H   0  0  0  0  0  0  0  0  0  0  0  0
   -6.5954   17.3865  -35.0284 H   0  0  0  0  0  0  0  0  0  0  0  0
   -1.9155   16.2353  -33.0181 H   0  0  0  0  0  0  0  0  0  0  0  0
   -0.6782   17.8108  -31.5323 H   0  0  0  0  0  0  0  0  0  0  0  0
   -0.0995   23.9336  -29.6110 H   0  0  0  0  0  0  0  0  0  0  0  0
  1  2  1  0
  2  3  1  0
  3  4  2  0
  3  5  1  0
  5  6  1  0
  5  7  1  0
  7  8  2  0
  8  9  1  0
  9 10  1  0
 10 11  2  0
 10 12  2  0
 10 13  1  0
 13 14  1  0
 14 15  1  0
 15 16  1  0
 16 17  1  0
  9 18  2  0
 18 19  1  0
 19 20  1  0
 20 21  2  0
 20 22  2  0
 20 23  1  0
 23 24  2  0
 24 25  1  0
 25 26  2  0
 26 27  1  0
 27 28  2  0
 27 29  2  0
 27 30  1  0
 30 31  1  0
 31 32  1  0
 32 33  1  0
 33 34  1  0
 26 35  1  0
 35 36  2  0
 18 37  1  0
 37 38  2  0
 38  2  1  0
 38  7  1  0
 17 13  1  0
 36 23  1  0
 34 30  1  0
  1 39  1  0
  1 40  1  0
  1 41  1  0
  6 42  1  0
  6 43  1  0
  6 44  1  0
  8 45  1  0
 14 46  1  0
 14 47  1  0
 15 48  1  0
 15 49  1  0
 16 50  1  0
 16 51  1  0
 17 52  1  0
 17 53  1  0
 24 54  1  0
 25 55  1  0
 31 56  1  0
 31 57  1  0
 32 58  1  0
 32 59  1  0
 33 60  1  0
 33 61  1  0
 34 62  1  0
 34 63  1  0
 35 64  1  0
 36 65  1  0
 37 66  1  0
M  CHG  1  19  -1
M  END
>  <UniqueID>  (48) 
47

>  <SMILES>  (48) 
Cn1c(=O)n(C)c2cc(S(=O)(=O)N3CCCC3)c([N-]S(=O)(=O)c3ccc(S(=O)(=O)N4CCCC4)cc3)cc21

>  <Energy>  (48) 
116.26729052789442

>  <Genealogy>  (48) 
Cn1c(=O)n(C)c2cc(S(=O)(=O)N3CCCC3)c([N-]S(=O)(=O)c3ccc(S(=O)(=O)N4CCCC4)cc3)cc21 (protonated)
Cn1c(=O)n(C)c2cc(S(=O)(=O)N3CCCC3)c([N-]S(=O)(=O)c3ccc(S(=O)(=O)N4CCCC4)cc3)cc21 (3D coordinates assigned)
Cn1c(=O)n(C)c2cc(S(=O)(=O)N3CCCC3)c([N-]S(=O)(=O)c3ccc(S(=O)(=O)N4CCCC4)cc3)cc21 (nonaromatic ring conformer: 116.26729052789442 kcal/mol)

>  <smiles>  (48) 
Cn1c(=O)n(C)c2cc(S(=O)(=O)N3CCCC3)c(NS(=O)(=O)c3ccc(S(=O)(=O)N4CCCC4)cc3)cc21

>  <score_type>  (48) 
oracle

>  <origin>  (48) 
adgpu

>  <m_score__min__energy>  (48) 
-12.66

>  <m_primary>  (48) 
energy

$$$$
48:0
     RDKit          3D

 73 77  0  0  0  0  0  0  0  0999 V2000
   -9.2930   23.0770  -32.0070 C   0  0  0  0  0  0  0  0  0  0  0  0
   -8.0700   23.1900  -31.2890 O   0  0  0  0  0  0  0  0  0  0  0  0
   -6.8690   22.5590  -31.6520 C   0  0  0  0  0  0  0  0  0  0  0  0
   -6.8540   21.3650  -32.3960 C   0  0  0  0  0  0  0  0  0  0  0  0
   -5.6440   20.7500  -32.7260 C   0  0  0  0  0  0  0  0  0  0  0  0
   -4.4230   21.3160  -32.3240 C   0  0  0  0  0  0  0  0  0  0  0  0
   -3.1350   20.6530  -32.6590 C   0  0  0  0  0  0  0  0  0  0  0  0
   -2.0260   21.4150  -33.0700 C   0  0  0  0  0  0  0  0  0  0  0  0
   -0.8150   20.7910  -33.3810 C   0  0  0  0  0  0  0  0  0  0  0  0
   -0.6970   19.4030  -33.2920 C   0  0  0  0  0  0  0  0  0  0  0  0
   -1.7910   18.6250  -32.8860 C   0  0  0  0  0  0  0  0  0  0  0  0
   -1.6660   17.1280  -32.7720 C   0  0  0  0  0  0  0  0  0  0  0  0
   -2.0700   16.4830  -34.0420 N   0  0  0  0  0  0  0  0  0  0  0  0
   -2.8630   15.2580  -33.8160 C   0  0  0  0  0  0  0  0  0  0  0  0
   -4.2610   15.5620  -33.2320 C   0  0  0  0  0  0  0  0  0  0  0  0
   -4.6890   16.9520  -33.5000 N   0  0  0  0  0  0  0  0  0  0  0  0
   -6.1410   17.0890  -33.3160 C   0  0  0  0  0  0  0  0  0  0  0  0
   -4.2960   17.3700  -34.8550 C   0  0  0  0  0  0  0  0  0  0  0  0
   -2.7570   17.4180  -34.9680 C   0  0  0  0  0  0  0  0  0  0  0  0
   -3.0060   19.2540  -32.5670 C   0  0  0  0  0  0  0  0  0  0  0  0
   -4.4390   22.5160  -31.5920 C   0  0  0  0  0  0  0  0  0  0  0  0
   -5.6510   23.1360  -31.2550 C   0  0  0  0  0  0  0  0  0  0  0  0
   -5.6440   24.6090  -30.2820 S   0  0  0  0  0  0  0  0  0  0  0  0
   -4.8800   25.7070  -30.9670 O   0  0  0  0  0  0  0  0  0  0  0  0
   -7.0640   25.0620  -30.0830 O   0  0  0  0  0  0  0  0  0  0  0  0
   -4.9220   24.2880  -28.7370 N   0  0  0  0  0  0  0  0  0  0  0  0
   -3.7080   23.5300  -28.5720 C   0  0  0  0  0  0  0  0  0  0  0  0
   -3.7140   22.2670  -27.9450 C   0  0  0  0  0  0  0  0  0  0  0  0
   -2.5200   21.5550  -27.7750 C   0  0  0  0  0  0  0  0  0  0  0  0
   -1.3160   22.0810  -28.2450 C   0  0  0  0  0  0  0  0  0  0  0  0
   -1.2990   23.3310  -28.8760 C   0  0  0  0  0  0  0  0  0  0  0  0
   -2.4870   24.0520  -29.0420 C   0  0  0  0  0  0  0  0  0  0  0  0
   -2.4430   25.2930  -29.6680 O   0  0  0  0  0  0  0  0  0  0  0  0
   -0.0540   21.3050  -27.9780 C   0  0  0  0  0  0  0  0  0  0  0  0
   -0.2250   19.8450  -28.2030 N   0  0  0  0  0  0  0  0  0  0  0  0
    0.1870   19.4670  -29.5640 C   0  0  0  0  0  0  0  0  0  0  0  0
   -1.5670   19.2780  -27.8750 C   0  0  0  0  0  0  0  0  0  0  0  0
   -2.4760   20.2290  -27.0810 C   0  0  0  0  0  0  0  0  0  0  0  0
  -10.1294   22.9997  -31.2967 H   0  0  0  0  0  0  0  0  0  0  0  0
   -9.4302   23.9663  -32.6397 H   0  0  0  0  0  0  0  0  0  0  0  0
   -9.2650   22.1776  -32.6397 H   0  0  0  0  0  0  0  0  0  0  0  0
   -7.8026   20.9122  -32.7204 H   0  0  0  0  0  0  0  0  0  0  0  0
   -5.6474   19.8149  -33.3053 H   0  0  0  0  0  0  0  0  0  0  0  0
   -2.1128   22.5089  -33.1470 H   0  0  0  0  0  0  0  0  0  0  0  0
    0.0480   21.3955  -33.6969 H   0  0  0  0  0  0  0  0  0  0  0  0
    0.2580   18.9174  -33.5413 H   0  0  0  0  0  0  0  0  0  0  0  0
   -0.6212   16.8666  -32.5480 H   0  0  0  0  0  0  0  0  0  0  0  0
   -2.3233   16.7734  -31.9644 H   0  0  0  0  0  0  0  0  0  0  0  0
   -2.9870   14.7351  -34.7758 H   0  0  0  0  0  0  0  0  0  0  0  0
   -2.3219   14.6375  -33.0865 H   0  0  0  0  0  0  0  0  0  0  0  0
   -4.9906   14.8736  -33.6833 H   0  0  0  0  0  0  0  0  0  0  0  0
   -4.2070   15.4300  -32.1413 H   0  0  0  0  0  0  0  0  0  0  0  0
   -6.3739   17.1110  -32.2412 H   0  0  0  0  0  0  0  0  0  0  0  0
   -6.4834   18.0234  -33.7846 H   0  0  0  0  0  0  0  0  0  0  0  0
   -6.6522   16.2351  -33.7846 H   0  0  0  0  0  0  0  0  0  0  0  0
   -4.6927   16.6513  -35.5872 H   0  0  0  0  0  0  0  0  0  0  0  0
   -4.7039   18.3716  -35.0561 H   0  0  0  0  0  0  0  0  0  0  0  0
   -2.4745   17.1586  -35.9990 H   0  0  0  0  0  0  0  0  0  0  0  0
   -2.4423   18.4361  -34.6952 H   0  0  0  0  0  0  0  0  0  0  0  0
   -3.8646   18.6478  -32.2423 H   0  0  0  0  0  0  0  0  0  0  0  0
   -3.4891   22.9744  -31.2796 H   0  0  0  0  0  0  0  0  0  0  0  0
   -5.4710   24.5730  -27.8940 H   0  0  0  0  0  0  0  0  0  0  0  0
   -4.6619   21.8385  -27.5874 H   0  0  0  0  0  0  0  0  0  0  0  0
   -0.3491   23.7475  -29.2423 H   0  0  0  0  0  0  0  0  0  0  0  0
    0.7361   21.6750  -28.6479 H   0  0  0  0  0  0  0  0  0  0  0  0
    0.2111   21.4515  -26.9205 H   0  0  0  0  0  0  0  0  0  0  0  0
    0.9965   18.7243  -29.5091 H   0  0  0  0  0  0  0  0  0  0  0  0
   -0.6709   19.0353  -30.1002 H   0  0  0  0  0  0  0  0  0  0  0  0
    0.5434   20.3589  -30.1002 H   0  0  0  0  0  0  0  0  0  0  0  0
   -2.0736   19.0235  -28.8176 H   0  0  0  0  0  0  0  0  0  0  0  0
   -1.3915   18.4008  -27.2349 H   0  0  0  0  0  0  0  0  0  0  0  0
   -3.4908   19.8082  -27.0253 H   0  0  0  0  0  0  0  0  0  0  0  0
   -2.0811   20.3560  -26.0622 H   0  0  0  0  0  0  0  0  0  0  0  0
  1  2  1  0
  2  3  1  0
  3  4  2  0
  4  5  1  0
  5  6  2  0
  6  7  1  0
  7  8  2  0
  8  9  1  0
  9 10  2  0
 10 11  1  0
 11 12  1  0
 12 13  1  0
 13 14  1  0
 14 15  1  0
 15 16  1  0
 16 17  1  0
 16 18  1  0
 18 19  1  0
 11 20  2  0
  6 21  1  0
 21 22  2  0
 22 23  1  0
 23 24  2  0
 23 25  2  0
 23 26  1  0
 26 27  1  0
 27 28  2  0
 28 29  1  0
 29 30  2  0
 30 31  1  0
 31 32  2  0
 32 33  1  0
 30 34  1  0
 34 35  1  0
 35 36  1  0
 35 37  1  0
 37 38  1  0
 22  3  1  0
 32 27  1  0
 20  7  1  0
 38 29  1  0
 19 13  1  0
  1 39  1  0
  1 40  1  0
  1 41  1  0
  4 42  1  0
  5 43  1  0
  8 44  1  0
  9 45  1  0
 10 46  1  0
 12 47  1  0
 12 48  1  0
 14 49  1  0
 14 50  1  0
 15 51  1  0
 15 52  1  0
 17 53  1  0
 17 54  1  0
 17 55  1  0
 18 56  1  0
 18 57  1  0
 19 58  1  0
 19 59  1  0
 20 60  1  0
 21 61  1  0
 26 62  1  0
 28 63  1  0
 31 64  1  0
 34 65  1  0
 34 66  1  0
 36 67  1  0
 36 68  1  0
 36 69  1  0
 37 70  1  0
 37 71  1  0
 38 72  1  0
 38 73  1  0
M  CHG  1  33  -1
M  END
>  <UniqueID>  (49) 
48

>  <SMILES>  (49) 
COc1ccc(-c2cccc(CN3CCN(C)CC3)c2)cc1S(=O)(=O)Nc1cc2c(cc1[O-])CN(C)CC2

>  <Energy>  (49) 
105.12034189404639

>  <Genealogy>  (49) 
COc1ccc(-c2cccc(CN3CCN(C)CC3)c2)cc1S(=O)(=O)Nc1cc2c(cc1[O-])CN(C)CC2 (protonated)
COc1ccc(-c2cccc(CN3CCN(C)CC3)c2)cc1S(=O)(=O)Nc1cc2c(cc1[O-])CN(C)CC2 (3D coordinates assigned)
COc1ccc(-c2cccc(CN3CCN(C)CC3)c2)cc1S(=O)(=O)Nc1cc2c(cc1[O-])CN(C)CC2 (nonaromatic ring conformer: 105.12034189404639 kcal/mol)

>  <smiles>  (49) 
COc1ccc(-c2cccc(CN3CCN(C)CC3)c2)cc1S(=O)(=O)Nc1cc2c(cc1O)CN(C)CC2

>  <score_type>  (49) 
oracle

>  <origin>  (49) 
adgpu

>  <m_score__min__energy>  (49) 
-14.880000000000001

>  <m_primary>  (49) 
energy

$$$$
49:0
     RDKit          3D

 56 59  0  0  0  0  0  0  0  0999 V2000
   -0.8940   26.7310  -24.2640 C   0  0  0  0  0  0  0  0  0  0  0  0
   -1.2690   25.5850  -25.1570 C   0  0  0  0  0  0  0  0  0  0  0  0
   -2.3920   25.6740  -25.9950 C   0  0  0  0  0  0  0  0  0  0  0  0
   -2.7070   24.6250  -26.8630 C   0  0  0  0  0  0  0  0  0  0  0  0
   -1.8950   23.4810  -26.9180 C   0  0  0  0  0  0  0  0  0  0  0  0
   -2.2080   22.3630  -27.8760 C   0  0  0  0  0  0  0  0  0  0  0  0
   -2.7570   22.8920  -29.1210 N   0  0  0  0  0  0  0  0  0  0  0  0
   -2.8550   22.1040  -30.3150 C   0  0  0  0  0  0  0  0  0  0  0  0
   -2.3310   20.9570  -30.3610 O   0  0  0  0  0  0  0  0  0  0  0  0
   -3.5500   22.6650  -31.5230 C   0  0  0  0  0  0  0  0  0  0  0  0
   -4.8520   23.2540  -31.1620 N   0  0  0  0  0  0  0  0  0  0  0  0
   -4.9010   24.6000  -30.6410 C   0  0  0  0  0  0  0  0  0  0  0  0
   -3.8540   25.2990  -30.5620 O   0  0  0  0  0  0  0  0  0  0  0  0
   -6.1880   25.1590  -30.1110 C   0  0  0  0  0  0  0  0  0  0  0  0
   -7.3140   24.5300  -30.7160 O   0  0  0  0  0  0  0  0  0  0  0  0
   -7.3110   23.1790  -31.0700 C   0  0  0  0  0  0  0  0  0  0  0  0
   -8.5250   22.5080  -31.2310 C   0  0  0  0  0  0  0  0  0  0  0  0
   -8.5400   21.1500  -31.5520 C   0  0  0  0  0  0  0  0  0  0  0  0
   -7.3380   20.4560  -31.7270 C   0  0  0  0  0  0  0  0  0  0  0  0
   -7.3500   18.7350  -32.1070 S   0  0  0  0  0  0  0  0  0  0  0  0
   -8.7710   18.2510  -32.1970 O   0  0  0  0  0  0  0  0  0  0  0  0
   -6.6600   17.9780  -31.0070 O   0  0  0  0  0  0  0  0  0  0  0  0
   -6.5070   18.4640  -33.6120 N   0  0  0  0  0  0  0  0  0  0  0  0
   -6.3940   17.0350  -33.9250 C   0  0  0  0  0  0  0  0  0  0  0  0
   -5.0510   16.8250  -34.6150 C   0  0  0  0  0  0  0  0  0  0  0  0
   -4.3420   18.1650  -34.5510 C   0  0  0  0  0  0  0  0  0  0  0  0
   -5.1360   18.9670  -33.5410 C   0  0  0  0  0  0  0  0  0  0  0  0
   -6.1190   21.1320  -31.5840 C   0  0  0  0  0  0  0  0  0  0  0  0
   -6.0900   22.5070  -31.2690 C   0  0  0  0  0  0  0  0  0  0  0  0
   -0.7750   23.3930  -26.0780 C   0  0  0  0  0  0  0  0  0  0  0  0
   -0.4600   24.4400  -25.2070 C   0  0  0  0  0  0  0  0  0  0  0  0
   -0.9943   26.4244  -23.2124 H   0  0  0  0  0  0  0  0  0  0  0  0
    0.1472   27.0250  -24.4625 H   0  0  0  0  0  0  0  0  0  0  0  0
   -1.5600   27.5837  -24.4625 H   0  0  0  0  0  0  0  0  0  0  0  0
   -3.0261   26.5725  -25.9682 H   0  0  0  0  0  0  0  0  0  0  0  0
   -3.5961   24.6960  -27.5067 H   0  0  0  0  0  0  0  0  0  0  0  0
   -1.2852   21.8061  -28.0956 H   0  0  0  0  0  0  0  0  0  0  0  0
   -2.9528   21.6982  -27.4141 H   0  0  0  0  0  0  0  0  0  0  0  0
   -3.1480   23.8620  -29.1210 H   0  0  0  0  0  0  0  0  0  0  0  0
   -2.9161   23.4435  -31.9726 H   0  0  0  0  0  0  0  0  0  0  0  0
   -3.7235   21.8465  -32.2371 H   0  0  0  0  0  0  0  0  0  0  0  0
   -6.2283   24.9967  -29.0238 H   0  0  0  0  0  0  0  0  0  0  0  0
   -6.2227   26.2331  -30.3459 H   0  0  0  0  0  0  0  0  0  0  0  0
   -9.4728   23.0518  -31.1044 H   0  0  0  0  0  0  0  0  0  0  0  0
   -9.4992   20.6240  -31.6677 H   0  0  0  0  0  0  0  0  0  0  0  0
   -6.4379   16.4426  -32.9992 H   0  0  0  0  0  0  0  0  0  0  0  0
   -7.2201   16.7132  -34.5762 H   0  0  0  0  0  0  0  0  0  0  0  0
   -4.4659   16.0561  -34.0893 H   0  0  0  0  0  0  0  0  0  0  0  0
   -5.1771   16.4817  -35.6524 H   0  0  0  0  0  0  0  0  0  0  0  0
   -3.3019   18.0388  -34.2160 H   0  0  0  0  0  0  0  0  0  0  0  0
   -4.2935   18.6595  -35.5324 H   0  0  0  0  0  0  0  0  0  0  0  0
   -4.7272   18.8201  -32.5304 H   0  0  0  0  0  0  0  0  0  0  0  0
   -5.0913   20.0444  -33.7585 H   0  0  0  0  0  0  0  0  0  0  0  0
   -5.1744   20.5847  -31.7188 H   0  0  0  0  0  0  0  0  0  0  0  0
   -0.1408   22.4947  -26.1049 H   0  0  0  0  0  0  0  0  0  0  0  0
    0.4254   24.3658  -24.5585 H   0  0  0  0  0  0  0  0  0  0  0  0
  1  2  1  0
  2  3  2  0
  3  4  1  0
  4  5  2  0
  5  6  1  0
  6  7  1  0
  7  8  1  0
  8  9  2  0
  8 10  1  0
 10 11  1  0
 11 12  1  0
 12 13  2  0
 12 14  1  0
 14 15  1  0
 15 16  1  0
 16 17  2  0
 17 18  1  0
 18 19  2  0
 19 20  1  0
 20 21  2  0
 20 22  2  0
 20 23  1  0
 23 24  1  0
 24 25  1  0
 25 26  1  0
 26 27  1  0
 19 28  1  0
 28 29  2  0
  5 30  1  0
 30 31  2  0
 31  2  1  0
 29 11  1  0
 29 16  1  0
 27 23  1  0
  1 32  1  0
  1 33  1  0
  1 34  1  0
  3 35  1  0
  4 36  1  0
  6 37  1  0
  6 38  1  0
  7 39  1  0
 10 40  1  0
 10 41  1  0
 14 42  1  0
 14 43  1  0
 17 44  1  0
 18 45  1  0
 24 46  1  0
 24 47  1  0
 25 48  1  0
 25 49  1  0
 26 50  1  0
 26 51  1  0
 27 52  1  0
 27 53  1  0
 28 54  1  0
 30 55  1  0
 31 56  1  0
M  END
>  <UniqueID>  (50) 
49

>  <SMILES>  (50) 
Cc1ccc(CNC(=O)CN2C(=O)COc3ccc(S(=O)(=O)N4CCCC4)cc32)cc1

>  <Energy>  (50) 
56.79506985505742

>  <Genealogy>  (50) 
Cc1ccc(CNC(=O)CN2C(=O)COc3ccc(S(=O)(=O)N4CCCC4)cc32)cc1 (3D coordinates assigned)
Cc1ccc(CNC(=O)CN2C(=O)COc3ccc(S(=O)(=O)N4CCCC4)cc32)cc1 (nonaromatic ring conformer: 56.79506985505742 kcal/mol)

>  <smiles>  (50) 
Cc1ccc(CNC(=O)CN2C(=O)COc3ccc(S(=O)(=O)N4CCCC4)cc32)cc1

>  <score_type>  (50) 
oracle

>  <origin>  (50) 
adgpu

>  <m_score__min__energy>  (50) 
-10.210000000000001

>  <m_primary>  (50) 
energy

$$$$
