0:0
     RDKit          3D

 40 43  0  0  0  0  0  0  0  0999 V2000
   -5.9140   25.6010  -31.5570 O   0  0  0  0  0  0  0  0  0  0  0  0
   -5.2830   24.5050  -30.7440 S   0  0  0  0  0  0  0  0  0  0  0  0
   -6.0360   24.3490  -29.4510 O   0  0  0  0  0  0  0  0  0  0  0  0
   -3.6240   24.9060  -30.4360 N   0  0  0  0  0  0  0  0  0  0  0  0
   -2.7680   24.3040  -29.4540 C   0  0  0  0  0  0  0  0  0  0  0  0
   -3.0750   22.9970  -29.0350 C   0  0  0  0  0  0  0  0  0  0  0  0
   -2.2740   22.3790  -28.0730 C   0  0  0  0  0  0  0  0  0  0  0  0
   -1.1900   23.0200  -27.5390 C   0  0  0  0  0  0  0  0  0  0  0  0
   -0.8400   24.3070  -27.9460 C   0  0  0  0  0  0  0  0  0  0  0  0
   -1.6240   24.9540  -28.9160 C   0  0  0  0  0  0  0  0  0  0  0  0
   -1.2340   26.2140  -29.3490 O   0  0  0  0  0  0  0  0  0  0  0  0
   -0.4820   22.1850  -26.5420 C   0  0  0  0  0  0  0  0  0  0  0  0
   -1.2990   20.8790  -26.5010 C   0  0  0  0  0  0  0  0  0  0  0  0
   -2.4550   21.0230  -27.5100 C   0  0  0  0  0  0  0  0  0  0  0  0
   -5.3440   22.9660  -31.6250 C   0  0  0  0  0  0  0  0  0  0  0  0
   -4.1480   22.4510  -32.1370 C   0  0  0  0  0  0  0  0  0  0  0  0
   -4.1290   21.2460  -32.8290 C   0  0  0  0  0  0  0  0  0  0  0  0
   -5.2980   20.5140  -33.0340 C   0  0  0  0  0  0  0  0  0  0  0  0
   -5.1770   19.3140  -33.7420 O   0  0  0  0  0  0  0  0  0  0  0  0
   -6.5310   21.0050  -32.5300 C   0  0  0  0  0  0  0  0  0  0  0  0
   -7.7420   20.3010  -32.7110 C   0  0  0  0  0  0  0  0  0  0  0  0
   -8.9420   20.8030  -32.2080 C   0  0  0  0  0  0  0  0  0  0  0  0
   -8.9640   22.0100  -31.5210 C   0  0  0  0  0  0  0  0  0  0  0  0
   -7.7870   22.7290  -31.3260 C   0  0  0  0  0  0  0  0  0  0  0  0
   -6.5540   22.2470  -31.8200 C   0  0  0  0  0  0  0  0  0  0  0  0
   -3.9389   22.4662  -29.4616 H   0  0  0  0  0  0  0  0  0  0  0  0
    0.0381   24.8089  -27.5135 H   0  0  0  0  0  0  0  0  0  0  0  0
    0.5526   21.9891  -26.8602 H   0  0  0  0  0  0  0  0  0  0  0  0
   -0.4107   22.6706  -25.5576 H   0  0  0  0  0  0  0  0  0  0  0  0
   -0.6606   20.0279  -26.7804 H   0  0  0  0  0  0  0  0  0  0  0  0
   -1.6891   20.6980  -25.4886 H   0  0  0  0  0  0  0  0  0  0  0  0
   -2.3826   20.2596  -28.2987 H   0  0  0  0  0  0  0  0  0  0  0  0
   -3.4421   20.8871  -27.0441 H   0  0  0  0  0  0  0  0  0  0  0  0
   -3.2105   23.0072  -31.9898 H   0  0  0  0  0  0  0  0  0  0  0  0
   -3.1755   20.8631  -33.2217 H   0  0  0  0  0  0  0  0  0  0  0  0
   -4.3240   18.9720  -34.1600 H   0  0  0  0  0  0  0  0  0  0  0  0
   -7.7386   19.3451  -33.2553 H   0  0  0  0  0  0  0  0  0  0  0  0
   -9.8756   20.2404  -32.3560 H   0  0  0  0  0  0  0  0  0  0  0  0
   -9.9151   22.3998  -31.1292 H   0  0  0  0  0  0  0  0  0  0  0  0
   -7.8178   23.6838  -30.7807 H   0  0  0  0  0  0  0  0  0  0  0  0
  1  2  2  0
  2  3  2  0
  2  4  1  0
  4  5  1  0
  5  6  2  0
  6  7  1  0
  7  8  2  0
  8  9  1  0
  9 10  2  0
 10 11  1  0
  8 12  1  0
 12 13  1  0
 13 14  1  0
  2 15  1  0
 15 16  2  0
 16 17  1  0
 17 18  2  0
 18 19  1  0
 18 20  1  0
 20 21  2  0
 21 22  1  0
 22 23  2  0
 23 24  1  0
 24 25  2  0
 10  5  1  0
 25 15  1  0
 14  7  1  0
 25 20  1  0
  6 26  1  0
  9 27  1  0
 12 28  1  0
 12 29  1  0
 13 30  1  0
 13 31  1  0
 14 32  1  0
 14 33  1  0
 16 34  1  0
 17 35  1  0
 19 36  1  0
 21 37  1  0
 22 38  1  0
 23 39  1  0
 24 40  1  0
M  CHG  2   4  -1  11  -1
M  END
>  <UniqueID>  (1) 
1

>  <SMILES>  (1) 
O=S(=O)([N-]c1cc2c(cc1[O-])CCC2)c1ccc(O)c2ccccc12

>  <Energy>  (1) 
68.13269536849964

>  <Genealogy>  (1) 
O=S(=O)([N-]c1cc2c(cc1[O-])CCC2)c1ccc(O)c2ccccc12 (protonated)
O=S(=O)([N-]c1cc2c(cc1[O-])CCC2)c1ccc(O)c2ccccc12 (3D coordinates assigned)
O=S(=O)([N-]c1cc2c(cc1[O-])CCC2)c1ccc(O)c2ccccc12 (nonaromatic ring conformer: 68.13269536849964 kcal/mol)

>  <smiles>  (1) 
O=S(=O)(Nc1cc2c(cc1O)CCC2)c1ccc(O)c2ccccc12

>  <score_type>  (1) 
oracle

>  <origin>  (1) 
adgpu

>  <m_score__min__energy>  (1) 
-14.01

>  <m_primary>  (1) 
energy

$$$$
1:0
     RDKit          3D

 50 52  0  0  0  0  0  0  0  0999 V2000
   -4.9600   12.8490  -32.8970 C   0  0  0  0  0  0  0  0  0  0  0  0
   -5.0770   14.3100  -33.2210 C   0  0  0  0  0  0  0  0  0  0  0  0
   -4.1260   15.2220  -32.7400 C   0  0  0  0  0  0  0  0  0  0  0  0
   -4.2570   16.5870  -33.0120 C   0  0  0  0  0  0  0  0  0  0  0  0
   -5.3460   17.0550  -33.7590 C   0  0  0  0  0  0  0  0  0  0  0  0
   -5.5380   18.7730  -34.1000 S   0  0  0  0  0  0  0  0  0  0  0  0
   -4.2050   19.4670  -34.0940 O   0  0  0  0  0  0  0  0  0  0  0  0
   -6.1570   18.9110  -35.4630 O   0  0  0  0  0  0  0  0  0  0  0  0
   -6.5650   19.4970  -32.8960 N   0  0  0  0  0  0  0  0  0  0  0  0
   -7.7850   18.7980  -32.4910 C   0  0  0  0  0  0  0  0  0  0  0  0
   -6.2040   20.7470  -32.2760 C   0  0  0  0  0  0  0  0  0  0  0  0
   -4.8710   21.0060  -31.9130 C   0  0  0  0  0  0  0  0  0  0  0  0
   -4.5230   22.2200  -31.3140 C   0  0  0  0  0  0  0  0  0  0  0  0
   -5.5000   23.1940  -31.0700 C   0  0  0  0  0  0  0  0  0  0  0  0
   -5.0410   24.7180  -30.3160 S   0  0  0  0  0  0  0  0  0  0  0  0
   -6.0230   25.7790  -30.7280 O   0  0  0  0  0  0  0  0  0  0  0  0
   -3.6640   25.1290  -30.7610 O   0  0  0  0  0  0  0  0  0  0  0  0
   -5.0670   24.5520  -28.5860 N   0  0  0  0  0  0  0  0  0  0  0  0
   -4.2000   23.4440  -28.1810 C   0  0  0  0  0  0  0  0  0  0  0  0
   -2.7610   23.8460  -28.3460 C   0  0  0  0  0  0  0  0  0  0  0  0
   -2.2310   24.9150  -27.6100 C   0  0  0  0  0  0  0  0  0  0  0  0
   -0.8800   25.2460  -27.7550 C   0  0  0  0  0  0  0  0  0  0  0  0
   -0.0880   24.5280  -28.5940 N   0  0  0  0  0  0  0  0  0  0  0  0
   -0.5740   23.4780  -29.3080 C   0  0  0  0  0  0  0  0  0  0  0  0
   -1.9180   23.1140  -29.1930 C   0  0  0  0  0  0  0  0  0  0  0  0
   -6.8280   22.9460  -31.4370 C   0  0  0  0  0  0  0  0  0  0  0  0
   -7.1770   21.7340  -32.0390 C   0  0  0  0  0  0  0  0  0  0  0  0
   -6.3070   16.1480  -34.2240 C   0  0  0  0  0  0  0  0  0  0  0  0
   -6.1770   14.7830  -33.9530 C   0  0  0  0  0  0  0  0  0  0  0  0
   -4.9493   12.7153  -31.8052 H   0  0  0  0  0  0  0  0  0  0  0  0
   -5.8178   12.3089  -33.3242 H   0  0  0  0  0  0  0  0  0  0  0  0
   -4.0272   12.4522  -33.3242 H   0  0  0  0  0  0  0  0  0  0  0  0
   -3.2732   14.8615  -32.1460 H   0  0  0  0  0  0  0  0  0  0  0  0
   -3.5030   17.2955  -32.6385 H   0  0  0  0  0  0  0  0  0  0  0  0
   -7.8416   18.7655  -31.3929 H   0  0  0  0  0  0  0  0  0  0  0  0
   -8.6618   19.3308  -32.8878 H   0  0  0  0  0  0  0  0  0  0  0  0
   -7.7688   17.7722  -32.8878 H   0  0  0  0  0  0  0  0  0  0  0  0
   -4.0964   20.2481  -32.1016 H   0  0  0  0  0  0  0  0  0  0  0  0
   -3.4769   22.4116  -31.0328 H   0  0  0  0  0  0  0  0  0  0  0  0
   -4.6700   25.4360  -28.1910 H   0  0  0  0  0  0  0  0  0  0  0  0
   -4.3923   23.1946  -27.1270 H   0  0  0  0  0  0  0  0  0  0  0  0
   -4.4094   22.5664  -28.8102 H   0  0  0  0  0  0  0  0  0  0  0  0
   -2.8722   25.4884  -26.9244 H   0  0  0  0  0  0  0  0  0  0  0  0
   -0.4576   26.0892  -27.1888 H   0  0  0  0  0  0  0  0  0  0  0  0
    0.0922   22.9140  -29.9774 H   0  0  0  0  0  0  0  0  0  0  0  0
   -2.3114   22.2594  -29.7629 H   0  0  0  0  0  0  0  0  0  0  0  0
   -7.5995   23.7077  -31.2509 H   0  0  0  0  0  0  0  0  0  0  0  0
   -8.2219   21.5506  -32.3299 H   0  0  0  0  0  0  0  0  0  0  0  0
   -7.1675   16.5116  -34.8048 H   0  0  0  0  0  0  0  0  0  0  0  0
   -6.9393   14.0772  -34.3146 H   0  0  0  0  0  0  0  0  0  0  0  0
  1  2  1  0
  2  3  2  0
  3  4  1  0
  4  5  2  0
  5  6  1  0
  6  7  2  0
  6  8  2  0
  6  9  1  0
  9 10  1  0
  9 11  1  0
 11 12  2  0
 12 13  1  0
 13 14  2  0
 14 15  1  0
 15 16  2  0
 15 17  2  0
 15 18  1  0
 18 19  1  0
 19 20  1  0
 20 21  2  0
 21 22  1  0
 22 23  2  0
 23 24  1  0
 24 25  2  0
 14 26  1  0
 26 27  2  0
  5 28  1  0
 28 29  2  0
 29  2  1  0
 27 11  1  0
 25 20  1  0
  1 30  1  0
  1 31  1  0
  1 32  1  0
  3 33  1  0
  4 34  1  0
 10 35  1  0
 10 36  1  0
 10 37  1  0
 12 38  1  0
 13 39  1  0
 18 40  1  0
 19 41  1  0
 19 42  1  0
 21 43  1  0
 22 44  1  0
 24 45  1  0
 25 46  1  0
 26 47  1  0
 27 48  1  0
 28 49  1  0
 29 50  1  0
M  END
>  <UniqueID>  (2) 
2

>  <SMILES>  (2) 
Cc1ccc(S(=O)(=O)N(C)c2ccc(S(=O)(=O)NCc3ccncc3)cc2)cc1

>  <Energy>  (2) 
53.813975371202126

>  <Genealogy>  (2) 
Cc1ccc(S(=O)(=O)N(C)c2ccc(S(=O)(=O)NCc3ccncc3)cc2)cc1 (3D coordinates assigned)
Cc1ccc(S(=O)(=O)N(C)c2ccc(S(=O)(=O)NCc3ccncc3)cc2)cc1 (optimized conformer: 53.813975371202126 kcal/mol)

>  <smiles>  (2) 
Cc1ccc(S(=O)(=O)N(C)c2ccc(S(=O)(=O)NCc3ccncc3)cc2)cc1

>  <score_type>  (2) 
oracle

>  <origin>  (2) 
adgpu

>  <m_score__min__energy>  (2) 
-10.300000000000001

>  <m_primary>  (2) 
energy

$$$$
2:0
     RDKit          3D

 54 57  0  0  0  0  0  0  0  0999 V2000
   -3.7500   17.1790  -35.1980 C   0  0  0  0  0  0  0  0  0  0  0  0
   -3.3040   18.1640  -34.1590 C   0  0  0  0  0  0  0  0  0  0  0  0
   -2.1810   17.8900  -33.3720 C   0  0  0  0  0  0  0  0  0  0  0  0
   -1.7400   18.8170  -32.4270 C   0  0  0  0  0  0  0  0  0  0  0  0
   -2.4050   20.0430  -32.2590 C   0  0  0  0  0  0  0  0  0  0  0  0
   -1.9090   20.9650  -31.2120 C   0  0  0  0  0  0  0  0  0  0  0  0
   -0.5560   21.1950  -30.9530 C   0  0  0  0  0  0  0  0  0  0  0  0
   -0.4430   22.3510  -29.7350 S   0  0  0  0  0  0  0  0  0  0  0  0
   -2.1080   22.5110  -29.5970 C   0  0  0  0  0  0  0  0  0  0  0  0
   -2.6840   23.3330  -28.7720 N   0  0  0  0  0  0  0  0  0  0  0  0
   -4.0990   23.4910  -28.5740 C   0  0  0  0  0  0  0  0  0  0  0  0
   -4.5500   23.4110  -27.4010 O   0  0  0  0  0  0  0  0  0  0  0  0
   -5.0470   23.6730  -29.7010 C   0  0  0  0  0  0  0  0  0  0  0  0
   -6.1200   22.7810  -29.8670 C   0  0  0  0  0  0  0  0  0  0  0  0
   -7.0310   22.9480  -30.9180 C   0  0  0  0  0  0  0  0  0  0  0  0
   -8.3600   21.8110  -31.1440 S   0  0  0  0  0  0  0  0  0  0  0  0
   -9.1570   21.6960  -29.8720 O   0  0  0  0  0  0  0  0  0  0  0  0
   -9.2570   22.3300  -32.2330 O   0  0  0  0  0  0  0  0  0  0  0  0
   -7.7400   20.2400  -31.5880 N   0  0  0  0  0  0  0  0  0  0  0  0
   -8.7940   19.2180  -31.4610 C   0  0  0  0  0  0  0  0  0  0  0  0
   -8.2920   17.8450  -31.9610 C   0  0  0  0  0  0  0  0  0  0  0  0
   -6.9570   17.9030  -32.4260 O   0  0  0  0  0  0  0  0  0  0  0  0
   -6.8590   18.8580  -33.4650 C   0  0  0  0  0  0  0  0  0  0  0  0
   -7.2130   20.2760  -32.9650 C   0  0  0  0  0  0  0  0  0  0  0  0
   -6.8890   24.0330  -31.7910 C   0  0  0  0  0  0  0  0  0  0  0  0
   -5.8350   24.9340  -31.6250 C   0  0  0  0  0  0  0  0  0  0  0  0
   -4.9150   24.7600  -30.5880 C   0  0  0  0  0  0  0  0  0  0  0  0
   -3.8660   25.6650  -30.4550 O   0  0  0  0  0  0  0  0  0  0  0  0
   -2.7660   21.7180  -30.4700 N   0  0  0  0  0  0  0  0  0  0  0  0
   -3.5000   20.3570  -33.1050 C   0  0  0  0  0  0  0  0  0  0  0  0
   -4.1840   21.7000  -33.0730 C   0  0  0  0  0  0  0  0  0  0  0  0
   -3.9540   19.3980  -34.0280 C   0  0  0  0  0  0  0  0  0  0  0  0
   -4.1554   16.2836  -34.7042 H   0  0  0  0  0  0  0  0  0  0  0  0
   -4.5290   17.6359  -35.8260 H   0  0  0  0  0  0  0  0  0  0  0  0
   -2.8927   16.8950  -35.8260 H   0  0  0  0  0  0  0  0  0  0  0  0
   -1.6427   16.9391  -33.4986 H   0  0  0  0  0  0  0  0  0  0  0  0
   -0.8617   18.5852  -31.8066 H   0  0  0  0  0  0  0  0  0  0  0  0
    0.2897   20.7052  -31.4579 H   0  0  0  0  0  0  0  0  0  0  0  0
   -6.2458   21.9436  -29.1649 H   0  0  0  0  0  0  0  0  0  0  0  0
   -6.9570   20.0100  -30.9310 H   0  0  0  0  0  0  0  0  0  0  0  0
   -9.0868   19.1316  -30.4042 H   0  0  0  0  0  0  0  0  0  0  0  0
   -9.6552   19.5224  -32.0740 H   0  0  0  0  0  0  0  0  0  0  0  0
   -8.3478   17.1238  -31.1323 H   0  0  0  0  0  0  0  0  0  0  0  0
   -8.9304   17.5370  -32.8022 H   0  0  0  0  0  0  0  0  0  0  0  0
   -5.8290   18.8618  -33.8511 H   0  0  0  0  0  0  0  0  0  0  0  0
   -7.5723   18.5825  -34.2557 H   0  0  0  0  0  0  0  0  0  0  0  0
   -6.3077   20.9004  -32.9865 H   0  0  0  0  0  0  0  0  0  0  0  0
   -7.9883   20.6941  -33.6238 H   0  0  0  0  0  0  0  0  0  0  0  0
   -7.6094   24.1763  -32.6098 H   0  0  0  0  0  0  0  0  0  0  0  0
   -5.7286   25.7848  -32.3140 H   0  0  0  0  0  0  0  0  0  0  0  0
   -4.3404   22.0070  -32.0284 H   0  0  0  0  0  0  0  0  0  0  0  0
   -3.5550   22.4441  -33.5836 H   0  0  0  0  0  0  0  0  0  0  0  0
   -5.1557   21.6289  -33.5836 H   0  0  0  0  0  0  0  0  0  0  0  0
   -4.8303   19.6196  -34.6548 H   0  0  0  0  0  0  0  0  0  0  0  0
  1  2  1  0
  2  3  2  0
  3  4  1  0
  4  5  2  0
  5  6  1  0
  6  7  2  0
  7  8  1  0
  8  9  1  0
  9 10  2  3
 10 11  1  0
 11 12  2  0
 11 13  1  0
 13 14  2  0
 14 15  1  0
 15 16  1  0
 16 17  2  0
 16 18  2  0
 16 19  1  0
 19 20  1  0
 20 21  1  0
 21 22  1  0
 22 23  1  0
 23 24  1  0
 15 25  2  0
 25 26  1  0
 26 27  2  0
 27 28  1  0
  9 29  1  0
  5 30  1  0
 30 31  1  0
 30 32  2  0
 32  2  1  0
 29  6  1  0
 27 13  1  0
 24 19  1  0
  1 33  1  0
  1 34  1  0
  1 35  1  0
  3 36  1  0
  4 37  1  0
  7 38  1  0
 14 39  1  0
 19 40  1  0
 20 41  1  0
 20 42  1  0
 21 43  1  0
 21 44  1  0
 23 45  1  0
 23 46  1  0
 24 47  1  0
 24 48  1  0
 25 49  1  0
 26 50  1  0
 31 51  1  0
 31 52  1  0
 31 53  1  0
 32 54  1  0
M  CHG  3  19   1  28  -1  29  -1
M  END
>  <UniqueID>  (3) 
3

>  <SMILES>  (3) 
Cc1ccc(-c2csc(=NC(=O)c3cc(S(=O)(=O)[NH+]4CCOCC4)ccc3[O-])[n-]2)c(C)c1

>  <Energy>  (3) 
102.28713580179455

>  <Genealogy>  (3) 
Cc1ccc(-c2csc(=NC(=O)c3cc(S(=O)(=O)[NH+]4CCOCC4)ccc3[O-])[n-]2)c(C)c1 (protonated)
Cc1ccc(-c2csc(=NC(=O)c3cc(S(=O)(=O)[NH+]4CCOCC4)ccc3[O-])[n-]2)c(C)c1 (3D coordinates assigned)
Cc1ccc(-c2csc(=NC(=O)c3cc(S(=O)(=O)[NH+]4CCOCC4)ccc3[O-])[n-]2)c(C)c1 (nonaromatic ring conformer: 102.28713580179455 kcal/mol)

>  <smiles>  (3) 
Cc1ccc(-c2csc(=NC(=O)c3cc(S(=O)(=O)N4CCOCC4)ccc3O)[nH]2)c(C)c1

>  <score_type>  (3) 
oracle

>  <origin>  (3) 
adgpu

>  <m_score__min__energy>  (3) 
-13.07

>  <m_primary>  (3) 
energy

$$$$
3:0
     RDKit          3D

 62 65  0  0  0  0  0  0  0  0999 V2000
   -2.5110   24.8720  -29.0190 O   0  0  0  0  0  0  0  0  0  0  0  0
   -3.1620   24.4820  -30.0250 C   0  0  0  0  0  0  0  0  0  0  0  0
   -3.9000   25.4210  -30.8090 N   0  0  0  0  0  0  0  0  0  0  0  0
   -5.3280   25.6470  -30.6340 C   0  0  0  0  0  0  0  0  0  0  0  0
   -6.0710   24.3760  -30.9240 C   0  0  0  0  0  0  0  0  0  0  0  0
   -6.8420   23.7630  -29.9230 C   0  0  0  0  0  0  0  0  0  0  0  0
   -7.4960   22.5540  -30.1770 C   0  0  0  0  0  0  0  0  0  0  0  0
   -7.3800   21.9410  -31.4330 C   0  0  0  0  0  0  0  0  0  0  0  0
   -8.1650   20.3960  -31.7560 S   0  0  0  0  0  0  0  0  0  0  0  0
   -8.9640   20.5200  -33.0240 O   0  0  0  0  0  0  0  0  0  0  0  0
   -9.1000   20.0480  -30.6290 O   0  0  0  0  0  0  0  0  0  0  0  0
   -6.9610   19.1440  -31.9360 N   0  0  0  0  0  0  0  0  0  0  0  0
   -7.6070   17.8830  -32.3690 C   0  0  0  0  0  0  0  0  0  0  0  0
   -6.5900   16.9080  -32.9670 C   0  0  0  0  0  0  0  0  0  0  0  0
   -5.9300   17.4970  -34.2270 C   0  0  0  0  0  0  0  0  0  0  0  0
   -5.9350   19.0360  -34.2350 C   0  0  0  0  0  0  0  0  0  0  0  0
   -5.8480   19.5970  -32.8080 C   0  0  0  0  0  0  0  0  0  0  0  0
   -6.5980   22.5420  -32.4260 C   0  0  0  0  0  0  0  0  0  0  0  0
   -5.9440   23.7510  -32.1740 C   0  0  0  0  0  0  0  0  0  0  0  0
   -3.2180   23.0930  -30.3690 N   0  0  0  0  0  0  0  0  0  0  0  0
   -2.1030   22.2330  -30.6440 C   0  0  0  0  0  0  0  0  0  0  0  0
   -1.4300   21.6430  -29.5670 C   0  0  0  0  0  0  0  0  0  0  0  0
   -0.3440   20.7910  -29.7910 C   0  0  0  0  0  0  0  0  0  0  0  0
    0.0700   20.5140  -31.0960 C   0  0  0  0  0  0  0  0  0  0  0  0
   -0.6070   21.0810  -32.1840 C   0  0  0  0  0  0  0  0  0  0  0  0
   -0.0990   20.7280  -33.8330 S   0  0  0  0  0  0  0  0  0  0  0  0
    1.2600   20.0880  -33.7850 O   0  0  0  0  0  0  0  0  0  0  0  0
   -0.0170   22.0030  -34.6270 O   0  0  0  0  0  0  0  0  0  0  0  0
   -1.2410   19.6330  -34.5840 N   0  0  0  0  0  0  0  0  0  0  0  0
   -0.8440   18.2380  -34.3590 C   0  0  0  0  0  0  0  0  0  0  0  0
   -1.5720   17.7310  -33.1230 C   0  0  0  0  0  0  0  0  0  0  0  0
   -2.6830   18.7290  -32.8630 C   0  0  0  0  0  0  0  0  0  0  0  0
   -2.5660   19.7690  -33.9680 C   0  0  0  0  0  0  0  0  0  0  0  0
   -1.7010   21.9280  -31.9570 C   0  0  0  0  0  0  0  0  0  0  0  0
   -5.5261   25.9602  -29.5983 H   0  0  0  0  0  0  0  0  0  0  0  0
   -5.6634   26.4353  -31.3241 H   0  0  0  0  0  0  0  0  0  0  0  0
   -6.9317   24.2366  -28.9342 H   0  0  0  0  0  0  0  0  0  0  0  0
   -8.1029   22.0824  -29.3901 H   0  0  0  0  0  0  0  0  0  0  0  0
   -8.0867   17.4102  -31.4993 H   0  0  0  0  0  0  0  0  0  0  0  0
   -8.3502   18.1242  -33.1432 H   0  0  0  0  0  0  0  0  0  0  0  0
   -5.8115   16.6977  -32.2189 H   0  0  0  0  0  0  0  0  0  0  0  0
   -7.1164   15.9841  -33.2485 H   0  0  0  0  0  0  0  0  0  0  0  0
   -4.8879   17.1481  -34.2744 H   0  0  0  0  0  0  0  0  0  0  0  0
   -6.5120   17.1580  -35.0967 H   0  0  0  0  0  0  0  0  0  0  0  0
   -5.0722   19.3950  -34.8153 H   0  0  0  0  0  0  0  0  0  0  0  0
   -6.8763   19.3798  -34.6886 H   0  0  0  0  0  0  0  0  0  0  0  0
   -4.8975   19.2706  -32.3607 H   0  0  0  0  0  0  0  0  0  0  0  0
   -5.9134   20.6926  -32.8814 H   0  0  0  0  0  0  0  0  0  0  0  0
   -6.4977   22.0603  -33.4098 H   0  0  0  0  0  0  0  0  0  0  0  0
   -5.3274   24.2144  -32.9583 H   0  0  0  0  0  0  0  0  0  0  0  0
   -1.7578   21.8512  -28.5378 H   0  0  0  0  0  0  0  0  0  0  0  0
    0.1846   20.3386  -28.9390 H   0  0  0  0  0  0  0  0  0  0  0  0
    0.9292   19.8495  -31.2699 H   0  0  0  0  0  0  0  0  0  0  0  0
   -1.1201   17.6268  -35.2309 H   0  0  0  0  0  0  0  0  0  0  0  0
    0.2443   18.1710  -34.2137 H   0  0  0  0  0  0  0  0  0  0  0  0
   -1.9905   16.7307  -33.3078 H   0  0  0  0  0  0  0  0  0  0  0  0
   -0.8950   17.6433  -32.2605 H   0  0  0  0  0  0  0  0  0  0  0  0
   -3.6634   18.2320  -32.9058 H   0  0  0  0  0  0  0  0  0  0  0  0
   -2.5962   19.1838  -31.8652 H   0  0  0  0  0  0  0  0  0  0  0  0
   -3.3475   19.5998  -34.7234 H   0  0  0  0  0  0  0  0  0  0  0  0
   -2.6917   20.7804  -33.5541 H   0  0  0  0  0  0  0  0  0  0  0  0
   -2.2477   22.3562  -32.8101 H   0  0  0  0  0  0  0  0  0  0  0  0
  1  2  2  0
  2  3  1  0
  3  4  1  0
  4  5  1  0
  5  6  2  0
  6  7  1  0
  7  8  2  0
  8  9  1  0
  9 10  2  0
  9 11  2  0
  9 12  1  0
 12 13  1  0
 13 14  1  0
 14 15  1  0
 15 16  1  0
 16 17  1  0
  8 18  1  0
 18 19  2  0
  2 20  1  0
 20 21  1  0
 21 22  2  0
 22 23  1  0
 23 24  2  0
 24 25  1  0
 25 26  1  0
 26 27  2  0
 26 28  2  0
 26 29  1  0
 29 30  1  0
 30 31  1  0
 31 32  1  0
 32 33  1  0
 25 34  2  0
 19  5  1  0
 34 21  1  0
 17 12  1  0
 33 29  1  0
  4 35  1  0
  4 36  1  0
  6 37  1  0
  7 38  1  0
 13 39  1  0
 13 40  1  0
 14 41  1  0
 14 42  1  0
 15 43  1  0
 15 44  1  0
 16 45  1  0
 16 46  1  0
 17 47  1  0
 17 48  1  0
 18 49  1  0
 19 50  1  0
 22 51  1  0
 23 52  1  0
 24 53  1  0
 30 54  1  0
 30 55  1  0
 31 56  1  0
 31 57  1  0
 32 58  1  0
 32 59  1  0
 33 60  1  0
 33 61  1  0
 34 62  1  0
M  CHG  2   3  -1  20  -1
M  END
>  <UniqueID>  (4) 
4

>  <SMILES>  (4) 
O=C([N-]Cc1ccc(S(=O)(=O)N2CCCCC2)cc1)[N-]c1cccc(S(=O)(=O)N2CCCC2)c1

>  <Energy>  (4) 
70.08171427087912

>  <Genealogy>  (4) 
O=C([N-]Cc1ccc(S(=O)(=O)N2CCCCC2)cc1)[N-]c1cccc(S(=O)(=O)N2CCCC2)c1 (protonated)
O=C([N-]Cc1ccc(S(=O)(=O)N2CCCCC2)cc1)[N-]c1cccc(S(=O)(=O)N2CCCC2)c1 (3D coordinates assigned)
O=C([N-]Cc1ccc(S(=O)(=O)N2CCCCC2)cc1)[N-]c1cccc(S(=O)(=O)N2CCCC2)c1 (nonaromatic ring conformer: 70.08171427087912 kcal/mol)

>  <smiles>  (4) 
O=C(NCc1ccc(S(=O)(=O)N2CCCCC2)cc1)Nc1cccc(S(=O)(=O)N2CCCC2)c1

>  <score_type>  (4) 
oracle

>  <origin>  (4) 
adgpu

>  <m_score__min__energy>  (4) 
-14.1

>  <m_primary>  (4) 
energy

$$$$
4:0
     RDKit          3D

 76 80  0  0  0  0  0  0  0  0999 V2000
    1.6810   22.7650  -36.5530 N   0  0  0  0  0  0  0  0  0  0  0  0
    0.5770   21.6590  -35.8150 S   0  0  0  0  0  0  0  0  0  0  0  0
   -0.1660   22.3840  -34.7280 O   0  0  0  0  0  0  0  0  0  0  0  0
   -0.3990   21.1700  -36.8500 O   0  0  0  0  0  0  0  0  0  0  0  0
    1.4400   20.2790  -35.1210 C   0  0  0  0  0  0  0  0  0  0  0  0
    2.0870   19.3640  -35.9680 C   0  0  0  0  0  0  0  0  0  0  0  0
    2.8020   18.2910  -35.4340 C   0  0  0  0  0  0  0  0  0  0  0  0
    2.8710   18.1160  -34.0530 C   0  0  0  0  0  0  0  0  0  0  0  0
    2.2310   19.0180  -33.2000 C   0  0  0  0  0  0  0  0  0  0  0  0
    1.5080   20.1050  -33.7220 C   0  0  0  0  0  0  0  0  0  0  0  0
    0.8330   21.0340  -32.8600 N   0  0  0  0  0  0  0  0  0  0  0  0
   -0.3870   20.6250  -31.6980 S   0  0  0  0  0  0  0  0  0  0  0  0
    0.0810   21.0390  -30.3300 O   0  0  0  0  0  0  0  0  0  0  0  0
   -0.5710   19.1320  -31.7110 O   0  0  0  0  0  0  0  0  0  0  0  0
   -1.9270   21.4260  -32.0500 C   0  0  0  0  0  0  0  0  0  0  0  0
   -2.4630   22.3040  -31.0940 C   0  0  0  0  0  0  0  0  0  0  0  0
   -3.6990   22.9280  -31.3080 C   0  0  0  0  0  0  0  0  0  0  0  0
   -4.3370   24.0730  -30.1240 S   0  0  0  0  0  0  0  0  0  0  0  0
   -5.7870   23.7640  -29.8760 O   0  0  0  0  0  0  0  0  0  0  0  0
   -4.2560   25.4570  -30.7000 O   0  0  0  0  0  0  0  0  0  0  0  0
   -3.4780   24.0270  -28.5990 N   0  0  0  0  0  0  0  0  0  0  0  0
   -4.0240   23.0230  -27.6620 C   0  0  0  0  0  0  0  0  0  0  0  0
   -3.4460   21.6070  -27.8580 C   0  0  0  0  0  0  0  0  0  0  0  0
   -1.9670   21.5920  -28.2710 C   0  0  0  0  0  0  0  0  0  0  0  0
   -1.2880   22.9260  -27.9910 C   0  0  0  0  0  0  0  0  0  0  0  0
   -2.0040   24.0410  -28.7620 C   0  0  0  0  0  0  0  0  0  0  0  0
   -4.4030   22.6760  -32.4920 C   0  0  0  0  0  0  0  0  0  0  0  0
   -3.8770   21.8090  -33.4500 C   0  0  0  0  0  0  0  0  0  0  0  0
   -2.6340   21.1960  -33.2490 C   0  0  0  0  0  0  0  0  0  0  0  0
   -2.1110   20.3440  -34.2760 N   0  0  0  0  0  0  0  0  0  0  0  0
   -2.0840   18.9080  -34.1710 C   0  0  0  0  0  0  0  0  0  0  0  0
   -1.1370   18.1840  -34.9100 C   0  0  0  0  0  0  0  0  0  0  0  0
   -1.0910   16.7890  -34.8340 C   0  0  0  0  0  0  0  0  0  0  0  0
   -1.9840   16.0990  -34.0060 C   0  0  0  0  0  0  0  0  0  0  0  0
   -1.9270   14.3390  -33.9230 S   0  0  0  0  0  0  0  0  0  0  0  0
   -3.2300   13.8500  -33.3540 O   0  0  0  0  0  0  0  0  0  0  0  0
   -1.7760   13.7730  -35.3070 O   0  0  0  0  0  0  0  0  0  0  0  0
   -0.6120   13.8250  -32.8860 N   0  0  0  0  0  0  0  0  0  0  0  0
   -0.4710   14.6670  -31.6830 C   0  0  0  0  0  0  0  0  0  0  0  0
    0.3050   15.9590  -31.9710 C   0  0  0  0  0  0  0  0  0  0  0  0
    1.5660   15.6690  -32.5360 O   0  0  0  0  0  0  0  0  0  0  0  0
    1.3870   15.0340  -33.7850 C   0  0  0  0  0  0  0  0  0  0  0  0
    0.6600   13.6900  -33.6210 C   0  0  0  0  0  0  0  0  0  0  0  0
   -2.9290   16.8150  -33.2600 C   0  0  0  0  0  0  0  0  0  0  0  0
   -2.9750   18.2110  -33.3340 C   0  0  0  0  0  0  0  0  0  0  0  0
    1.1270   23.3630  -37.2070 H   0  0  0  0  0  0  0  0  0  0  0  0
    2.0297   19.4940  -37.0588 H   0  0  0  0  0  0  0  0  0  0  0  0
    3.3116   17.5827  -36.1037 H   0  0  0  0  0  0  0  0  0  0  0  0
    3.4303   17.2663  -33.6343 H   0  0  0  0  0  0  0  0  0  0  0  0
    2.2931   18.8768  -32.1109 H   0  0  0  0  0  0  0  0  0  0  0  0
   -1.9061   22.5041  -30.1667 H   0  0  0  0  0  0  0  0  0  0  0  0
   -3.8005   23.3494  -26.6356 H   0  0  0  0  0  0  0  0  0  0  0  0
   -5.1044   22.9571  -27.8581 H   0  0  0  0  0  0  0  0  0  0  0  0
   -3.5469   21.0572  -26.9106 H   0  0  0  0  0  0  0  0  0  0  0  0
   -4.0120   21.1411  -28.6781 H   0  0  0  0  0  0  0  0  0  0  0  0
   -1.4479   20.8030  -27.7071 H   0  0  0  0  0  0  0  0  0  0  0  0
   -1.9162   21.4031  -29.3535 H   0  0  0  0  0  0  0  0  0  0  0  0
   -1.3324   23.1399  -26.9129 H   0  0  0  0  0  0  0  0  0  0  0  0
   -0.2377   22.8756  -28.3141 H   0  0  0  0  0  0  0  0  0  0  0  0
   -1.6243   25.0095  -28.4045 H   0  0  0  0  0  0  0  0  0  0  0  0
   -1.7971   23.8773  -29.8299 H   0  0  0  0  0  0  0  0  0  0  0  0
   -5.3736   23.1631  -32.6672 H   0  0  0  0  0  0  0  0  0  0  0  0
   -4.4432   21.6052  -34.3708 H   0  0  0  0  0  0  0  0  0  0  0  0
   -1.6080   20.8010  -35.0680 H   0  0  0  0  0  0  0  0  0  0  0  0
   -0.4242   18.7186  -35.5551 H   0  0  0  0  0  0  0  0  0  0  0  0
   -0.3507   16.2317  -35.4268 H   0  0  0  0  0  0  0  0  0  0  0  0
   -1.4735   14.9299  -31.3145 H   0  0  0  0  0  0  0  0  0  0  0  0
    0.0923   14.0936  -30.9321 H   0  0  0  0  0  0  0  0  0  0  0  0
   -0.2720   16.5775  -32.6742 H   0  0  0  0  0  0  0  0  0  0  0  0
    0.4574   16.4982  -31.0244 H   0  0  0  0  0  0  0  0  0  0  0  0
    0.7910   15.6878  -34.4387 H   0  0  0  0  0  0  0  0  0  0  0  0
    2.3765   14.8453  -34.2269 H   0  0  0  0  0  0  0  0  0  0  0  0
    0.4494   13.2781  -34.6190 H   0  0  0  0  0  0  0  0  0  0  0  0
    1.3142   13.0234  -33.0399 H   0  0  0  0  0  0  0  0  0  0  0  0
   -3.6379   16.2772  -32.6133 H   0  0  0  0  0  0  0  0  0  0  0  0
   -3.7113   18.7668  -32.7349 H   0  0  0  0  0  0  0  0  0  0  0  0
  1  2  1  0
  2  3  2  0
  2  4  2  0
  2  5  1  0
  5  6  2  0
  6  7  1  0
  7  8  2  0
  8  9  1  0
  9 10  2  0
 10 11  1  0
 11 12  1  0
 12 13  2  0
 12 14  2  0
 12 15  1  0
 15 16  2  0
 16 17  1  0
 17 18  1  0
 18 19  2  0
 18 20  2  0
 18 21  1  0
 21 22  1  0
 22 23  1  0
 23 24  1  0
 24 25  1  0
 25 26  1  0
 17 27  2  0
 27 28  1  0
 28 29  2  0
 29 30  1  0
 30 31  1  0
 31 32  2  0
 32 33  1  0
 33 34  2  0
 34 35  1  0
 35 36  2  0
 35 37  2  0
 35 38  1  0
 38 39  1  0
 39 40  1  0
 40 41  1  0
 41 42  1  0
 42 43  1  0
 34 44  1  0
 44 45  2  0
 10  5  1  0
 29 15  1  0
 45 31  1  0
 26 21  1  0
 43 38  1  0
  1 46  1  0
  6 47  1  0
  7 48  1  0
  8 49  1  0
  9 50  1  0
 16 51  1  0
 22 52  1  0
 22 53  1  0
 23 54  1  0
 23 55  1  0
 24 56  1  0
 24 57  1  0
 25 58  1  0
 25 59  1  0
 26 60  1  0
 26 61  1  0
 27 62  1  0
 28 63  1  0
 30 64  1  0
 32 65  1  0
 33 66  1  0
 39 67  1  0
 39 68  1  0
 40 69  1  0
 40 70  1  0
 42 71  1  0
 42 72  1  0
 43 73  1  0
 43 74  1  0
 44 75  1  0
 45 76  1  0
M  CHG  2   1  -1  11  -1
M  END
>  <UniqueID>  (5) 
5

>  <SMILES>  (5) 
[NH-]S(=O)(=O)c1ccccc1[N-]S(=O)(=O)c1cc(S(=O)(=O)N2CCCCC2)ccc1Nc1ccc(S(=O)(=O)N2CCOCC2)cc1

>  <Energy>  (5) 
100.86374001483702

>  <Genealogy>  (5) 
[NH-]S(=O)(=O)c1ccccc1[N-]S(=O)(=O)c1cc(S(=O)(=O)N2CCCCC2)ccc1Nc1ccc(S(=O)(=O)N2CCOCC2)cc1 (protonated)
[NH-]S(=O)(=O)c1ccccc1[N-]S(=O)(=O)c1cc(S(=O)(=O)N2CCCCC2)ccc1Nc1ccc(S(=O)(=O)N2CCOCC2)cc1 (3D coordinates assigned)
[NH-]S(=O)(=O)c1ccccc1[N-]S(=O)(=O)c1cc(S(=O)(=O)N2CCCCC2)ccc1Nc1ccc(S(=O)(=O)N2CCOCC2)cc1 (nonaromatic ring conformer: 100.86374001483702 kcal/mol)

>  <smiles>  (5) 
NS(=O)(=O)c1ccccc1NS(=O)(=O)c1cc(S(=O)(=O)N2CCCCC2)ccc1Nc1ccc(S(=O)(=O)N2CCOCC2)cc1

>  <score_type>  (5) 
oracle

>  <origin>  (5) 
adgpu

>  <m_score__min__energy>  (5) 
-13.539999999999999

>  <m_primary>  (5) 
energy

$$$$
5:0
     RDKit          3D

 31 32  0  0  0  0  0  0  0  0999 V2000
   -3.7990   25.2960  -30.4930 N   0  0  0  0  0  0  0  0  0  0  0  0
   -3.8440   23.9060  -30.1780 C   0  0  0  0  0  0  0  0  0  0  0  0
   -2.9140   23.4070  -29.4920 O   0  0  0  0  0  0  0  0  0  0  0  0
   -4.9890   23.0730  -30.6330 C   0  0  0  0  0  0  0  0  0  0  0  0
   -4.7300   21.7890  -31.1530 C   0  0  0  0  0  0  0  0  0  0  0  0
   -5.7690   20.9660  -31.6090 C   0  0  0  0  0  0  0  0  0  0  0  0
   -5.3960   19.3670  -32.2630 S   0  0  0  0  0  0  0  0  0  0  0  0
   -3.9080   19.1550  -32.3110 O   0  0  0  0  0  0  0  0  0  0  0  0
   -6.0080   18.3210  -31.3740 O   0  0  0  0  0  0  0  0  0  0  0  0
   -6.0380   19.2590  -33.8760 N   0  0  0  0  0  0  0  0  0  0  0  0
   -6.3920   17.8780  -34.2080 C   0  0  0  0  0  0  0  0  0  0  0  0
   -5.2050   16.9710  -34.0230 C   0  0  0  0  0  0  0  0  0  0  0  0
   -5.2430   15.9150  -33.1000 C   0  0  0  0  0  0  0  0  0  0  0  0
   -4.1330   15.0810  -32.9480 C   0  0  0  0  0  0  0  0  0  0  0  0
   -2.9930   15.3120  -33.7190 C   0  0  0  0  0  0  0  0  0  0  0  0
   -2.9690   16.3420  -34.6070 N   0  0  0  0  0  0  0  0  0  0  0  0
   -4.0360   17.1680  -34.7730 C   0  0  0  0  0  0  0  0  0  0  0  0
   -7.0950   21.4300  -31.5470 C   0  0  0  0  0  0  0  0  0  0  0  0
   -8.4510   20.4530  -32.1040 Cl  0  0  0  0  0  0  0  0  0  0  0  0
   -7.3650   22.6970  -31.0270 C   0  0  0  0  0  0  0  0  0  0  0  0
   -6.3310   23.5200  -30.5690 C   0  0  0  0  0  0  0  0  0  0  0  0
   -6.7890   25.0750  -29.8770 Cl  0  0  0  0  0  0  0  0  0  0  0  0
   -3.1460   25.6600  -31.2220 H   0  0  0  0  0  0  0  0  0  0  0  0
   -3.6929   21.4258  -31.2020 H   0  0  0  0  0  0  0  0  0  0  0  0
   -7.2081   17.5452  -33.5498 H   0  0  0  0  0  0  0  0  0  0  0  0
   -6.7120   17.8355  -35.2596 H   0  0  0  0  0  0  0  0  0  0  0  0
   -6.1465   15.7440  -32.4964 H   0  0  0  0  0  0  0  0  0  0  0  0
   -4.1572   14.2501  -32.2275 H   0  0  0  0  0  0  0  0  0  0  0  0
   -2.1134   14.6608  -33.6085 H   0  0  0  0  0  0  0  0  0  0  0  0
   -3.9825   17.9936  -35.4979 H   0  0  0  0  0  0  0  0  0  0  0  0
   -8.4046   23.0528  -30.9768 H   0  0  0  0  0  0  0  0  0  0  0  0
  1  2  1  0
  2  3  2  0
  2  4  1  0
  4  5  2  0
  5  6  1  0
  6  7  1  0
  7  8  2  0
  7  9  2  0
  7 10  1  0
 10 11  1  0
 11 12  1  0
 12 13  2  0
 13 14  1  0
 14 15  2  0
 15 16  1  0
 16 17  2  0
  6 18  2  0
 18 19  1  0
 18 20  1  0
 20 21  2  0
 21 22  1  0
 21  4  1  0
 17 12  1  0
  1 23  1  0
  5 24  1  0
 11 25  1  0
 11 26  1  0
 13 27  1  0
 14 28  1  0
 15 29  1  0
 17 30  1  0
 20 31  1  0
M  CHG  2   1  -1  10  -1
M  END
>  <UniqueID>  (6) 
6

>  <SMILES>  (6) 
[NH-]C(=O)c1cc(S(=O)(=O)[N-]Cc2cccnc2)c(Cl)cc1Cl

>  <Energy>  (6) 
37.02835687969532

>  <Genealogy>  (6) 
[NH-]C(=O)c1cc(S(=O)(=O)[N-]Cc2cccnc2)c(Cl)cc1Cl (protonated)
[NH-]C(=O)c1cc(S(=O)(=O)[N-]Cc2cccnc2)c(Cl)cc1Cl (3D coordinates assigned)
[NH-]C(=O)c1cc(S(=O)(=O)[N-]Cc2cccnc2)c(Cl)cc1Cl (optimized conformer: 37.02835687969532 kcal/mol)

>  <smiles>  (6) 
NC(=O)c1cc(S(=O)(=O)NCc2cccnc2)c(Cl)cc1Cl

>  <score_type>  (6) 
oracle

>  <origin>  (6) 
adgpu

>  <m_score__min__energy>  (6) 
-10.41

>  <m_primary>  (6) 
energy

$$$$
6:0
     RDKit          3D

 53 56  0  0  0  0  0  0  0  0999 V2000
   -6.8710   17.2330  -33.4070 C   0  0  0  0  0  0  0  0  0  0  0  0
   -5.9110   18.6430  -33.9080 S   0  0  0  0  0  0  0  0  0  0  0  0
   -6.1220   18.8800  -35.3780 O   0  0  0  0  0  0  0  0  0  0  0  0
   -4.4510   18.3890  -33.6630 O   0  0  0  0  0  0  0  0  0  0  0  0
   -6.4160   20.0420  -33.0200 N   0  0  0  0  0  0  0  0  0  0  0  0
   -7.8070   20.4130  -32.7800 C   0  0  0  0  0  0  0  0  0  0  0  0
   -7.7570   21.6990  -31.9160 C   0  0  0  0  0  0  0  0  0  0  0  0
   -6.2960   21.9260  -31.7190 C   0  0  0  0  0  0  0  0  0  0  0  0
   -5.6760   22.9550  -31.0090 C   0  0  0  0  0  0  0  0  0  0  0  0
   -4.2640   22.9900  -30.9490 C   0  0  0  0  0  0  0  0  0  0  0  0
   -3.5600   24.0690  -30.2150 C   0  0  0  0  0  0  0  0  0  0  0  0
   -3.8600   25.2730  -30.4450 O   0  0  0  0  0  0  0  0  0  0  0  0
   -2.5080   23.7640  -29.2850 N   0  0  0  0  0  0  0  0  0  0  0  0
   -2.0710   24.6610  -28.2490 C   0  0  0  0  0  0  0  0  0  0  0  0
   -2.7600   24.6910  -27.0260 C   0  0  0  0  0  0  0  0  0  0  0  0
   -2.3660   25.5660  -26.0100 C   0  0  0  0  0  0  0  0  0  0  0  0
   -1.2820   26.4330  -26.2070 C   0  0  0  0  0  0  0  0  0  0  0  0
   -0.7870   27.5540  -24.9430 S   0  0  0  0  0  0  0  0  0  0  0  0
   -1.3440   27.0830  -23.6280 O   0  0  0  0  0  0  0  0  0  0  0  0
   -1.3280   28.9270  -25.2300 O   0  0  0  0  0  0  0  0  0  0  0  0
    0.9560   27.5960  -24.8610 N   0  0  0  0  0  0  0  0  0  0  0  0
    1.4310   28.5970  -23.8930 C   0  0  0  0  0  0  0  0  0  0  0  0
    2.4460   27.9240  -22.9770 C   0  0  0  0  0  0  0  0  0  0  0  0
    2.7430   26.5960  -23.6340 C   0  0  0  0  0  0  0  0  0  0  0  0
    1.4950   26.3010  -24.4370 C   0  0  0  0  0  0  0  0  0  0  0  0
   -0.6100   26.4290  -27.4340 C   0  0  0  0  0  0  0  0  0  0  0  0
   -1.0030   25.5540  -28.4520 C   0  0  0  0  0  0  0  0  0  0  0  0
   -3.5220   21.9900  -31.6260 C   0  0  0  0  0  0  0  0  0  0  0  0
   -4.1740   20.9700  -32.3360 C   0  0  0  0  0  0  0  0  0  0  0  0
   -5.5690   20.9650  -32.3610 C   0  0  0  0  0  0  0  0  0  0  0  0
   -6.9045   17.1838  -32.3086 H   0  0  0  0  0  0  0  0  0  0  0  0
   -7.8936   17.3269  -33.8012 H   0  0  0  0  0  0  0  0  0  0  0  0
   -6.4088   16.3159  -33.8012 H   0  0  0  0  0  0  0  0  0  0  0  0
   -8.3206   20.6109  -33.7324 H   0  0  0  0  0  0  0  0  0  0  0  0
   -8.3601   19.6071  -32.2755 H   0  0  0  0  0  0  0  0  0  0  0  0
   -8.2194   22.5461  -32.4438 H   0  0  0  0  0  0  0  0  0  0  0  0
   -8.3082   21.6020  -30.9690 H   0  0  0  0  0  0  0  0  0  0  0  0
   -6.2762   23.7263  -30.5042 H   0  0  0  0  0  0  0  0  0  0  0  0
   -1.9480   22.8970  -29.4460 H   0  0  0  0  0  0  0  0  0  0  0  0
   -3.6170   24.0202  -26.8662 H   0  0  0  0  0  0  0  0  0  0  0  0
   -2.9080   25.5745  -25.0529 H   0  0  0  0  0  0  0  0  0  0  0  0
    1.9063   29.4343  -24.4251 H   0  0  0  0  0  0  0  0  0  0  0  0
    0.5880   28.9894  -23.3053 H   0  0  0  0  0  0  0  0  0  0  0  0
    3.3602   28.5309  -22.9005 H   0  0  0  0  0  0  0  0  0  0  0  0
    2.0628   27.8027  -21.9531 H   0  0  0  0  0  0  0  0  0  0  0  0
    3.6222   26.6720  -24.2907 H   0  0  0  0  0  0  0  0  0  0  0  0
    2.9763   25.8050  -22.9061 H   0  0  0  0  0  0  0  0  0  0  0  0
    1.7446   25.6875  -25.3153 H   0  0  0  0  0  0  0  0  0  0  0  0
    0.7606   25.7416  -23.8389 H   0  0  0  0  0  0  0  0  0  0  0  0
    0.2318   27.1176  -27.5990 H   0  0  0  0  0  0  0  0  0  0  0  0
   -0.4742   25.5641  -29.4165 H   0  0  0  0  0  0  0  0  0  0  0  0
   -2.4227   22.0136  -31.5946 H   0  0  0  0  0  0  0  0  0  0  0  0
   -3.5988   20.1928  -32.8604 H   0  0  0  0  0  0  0  0  0  0  0  0
  1  2  1  0
  2  3  2  0
  2  4  2  0
  2  5  1  0
  5  6  1  0
  6  7  1  0
  7  8  1  0
  8  9  2  0
  9 10  1  0
 10 11  1  0
 11 12  2  0
 11 13  1  0
 13 14  1  0
 14 15  2  0
 15 16  1  0
 16 17  2  0
 17 18  1  0
 18 19  2  0
 18 20  2  0
 18 21  1  0
 21 22  1  0
 22 23  1  0
 23 24  1  0
 24 25  1  0
 17 26  1  0
 26 27  2  0
 10 28  2  0
 28 29  1  0
 29 30  2  0
 30  5  1  0
 30  8  1  0
 27 14  1  0
 25 21  1  0
  1 31  1  0
  1 32  1  0
  1 33  1  0
  6 34  1  0
  6 35  1  0
  7 36  1  0
  7 37  1  0
  9 38  1  0
 13 39  1  0
 15 40  1  0
 16 41  1  0
 22 42  1  0
 22 43  1  0
 23 44  1  0
 23 45  1  0
 24 46  1  0
 24 47  1  0
 25 48  1  0
 25 49  1  0
 26 50  1  0
 27 51  1  0
 28 52  1  0
 29 53  1  0
M  END
>  <UniqueID>  (7) 
7

>  <SMILES>  (7) 
CS(=O)(=O)N1CCc2cc(C(=O)Nc3ccc(S(=O)(=O)N4CCCC4)cc3)ccc21

>  <Energy>  (7) 
72.92589527449407

>  <Genealogy>  (7) 
CS(=O)(=O)N1CCc2cc(C(=O)Nc3ccc(S(=O)(=O)N4CCCC4)cc3)ccc21 (3D coordinates assigned)
CS(=O)(=O)N1CCc2cc(C(=O)Nc3ccc(S(=O)(=O)N4CCCC4)cc3)ccc21 (nonaromatic ring conformer: 72.92589527449407 kcal/mol)

>  <smiles>  (7) 
CS(=O)(=O)N1CCc2cc(C(=O)Nc3ccc(S(=O)(=O)N4CCCC4)cc3)ccc21

>  <score_type>  (7) 
oracle

>  <origin>  (7) 
adgpu

>  <m_score__min__energy>  (7) 
-9.6799999999999997

>  <m_primary>  (7) 
energy

$$$$
7:0
     RDKit          3D

 46 48  0  0  0  0  0  0  0  0999 V2000
   -3.2010   18.9080  -25.9780 C   0  0  0  0  0  0  0  0  0  0  0  0
   -2.9370   19.1660  -27.3540 O   0  0  0  0  0  0  0  0  0  0  0  0
   -2.1290   20.2120  -27.8250 C   0  0  0  0  0  0  0  0  0  0  0  0
   -1.0920   20.0070  -28.7540 C   0  0  0  0  0  0  0  0  0  0  0  0
   -0.3230   21.0860  -29.1990 C   0  0  0  0  0  0  0  0  0  0  0  0
   -0.5890   22.3760  -28.7340 C   0  0  0  0  0  0  0  0  0  0  0  0
   -1.6140   22.5920  -27.7990 C   0  0  0  0  0  0  0  0  0  0  0  0
   -1.9690   23.9090  -27.3560 N   0  0  0  0  0  0  0  0  0  0  0  0
   -1.8940   25.1180  -28.1210 C   0  0  0  0  0  0  0  0  0  0  0  0
   -1.1530   26.0510  -27.7160 O   0  0  0  0  0  0  0  0  0  0  0  0
   -2.6330   25.3000  -29.3360 N   0  0  0  0  0  0  0  0  0  0  0  0
   -3.7280   24.5040  -29.8180 C   0  0  0  0  0  0  0  0  0  0  0  0
   -5.0230   24.9200  -29.5090 C   0  0  0  0  0  0  0  0  0  0  0  0
   -6.1270   24.2440  -30.0230 C   0  0  0  0  0  0  0  0  0  0  0  0
   -5.9620   23.1300  -30.8580 C   0  0  0  0  0  0  0  0  0  0  0  0
   -7.1990   22.4910  -31.4320 C   0  0  0  0  0  0  0  0  0  0  0  0
   -4.6530   22.6480  -31.1240 C   0  0  0  0  0  0  0  0  0  0  0  0
   -4.3670   21.1670  -32.0720 S   0  0  0  0  0  0  0  0  0  0  0  0
   -3.0760   20.5140  -31.6610 O   0  0  0  0  0  0  0  0  0  0  0  0
   -4.2750   21.5450  -33.5230 O   0  0  0  0  0  0  0  0  0  0  0  0
   -5.6370   19.9960  -31.8800 N   0  0  0  0  0  0  0  0  0  0  0  0
   -5.8910   18.9820  -32.6550 C   0  0  0  0  0  0  0  0  0  0  0  0
   -6.9610   18.1410  -32.3220 C   0  0  0  0  0  0  0  0  0  0  0  0
   -7.2350   17.0210  -33.1080 C   0  0  0  0  0  0  0  0  0  0  0  0
   -6.4620   16.7420  -34.1890 N   0  0  0  0  0  0  0  0  0  0  0  0
   -5.4190   17.5380  -34.5410 C   0  0  0  0  0  0  0  0  0  0  0  0
   -5.1170   18.6770  -33.7930 C   0  0  0  0  0  0  0  0  0  0  0  0
   -3.5430   23.3870  -30.6580 C   0  0  0  0  0  0  0  0  0  0  0  0
   -2.2610   23.0400  -31.0720 O   0  0  0  0  0  0  0  0  0  0  0  0
   -2.3780   21.5060  -27.3540 C   0  0  0  0  0  0  0  0  0  0  0  0
   -2.5526   19.5417  -25.3551 H   0  0  0  0  0  0  0  0  0  0  0  0
   -4.2549   19.1339  -25.7582 H   0  0  0  0  0  0  0  0  0  0  0  0
   -2.9994   17.8492  -25.7582 H   0  0  0  0  0  0  0  0  0  0  0  0
   -0.8860   18.9944  -29.1311 H   0  0  0  0  0  0  0  0  0  0  0  0
    0.4935   20.9189  -29.9170 H   0  0  0  0  0  0  0  0  0  0  0  0
    0.0062   23.2250  -29.1013 H   0  0  0  0  0  0  0  0  0  0  0  0
   -5.1738   25.7902  -28.8532 H   0  0  0  0  0  0  0  0  0  0  0  0
   -7.1408   24.5884  -29.7707 H   0  0  0  0  0  0  0  0  0  0  0  0
   -7.8514   22.1540  -30.6129 H   0  0  0  0  0  0  0  0  0  0  0  0
   -7.7368   23.2241  -32.0512 H   0  0  0  0  0  0  0  0  0  0  0  0
   -6.9124   21.6282  -32.0512 H   0  0  0  0  0  0  0  0  0  0  0  0
   -7.5837   18.3631  -31.4429 H   0  0  0  0  0  0  0  0  0  0  0  0
   -8.0785   16.3631  -32.8515 H   0  0  0  0  0  0  0  0  0  0  0  0
   -4.8091   17.2835  -35.4204 H   0  0  0  0  0  0  0  0  0  0  0  0
   -4.2830   19.3304  -34.0887 H   0  0  0  0  0  0  0  0  0  0  0  0
   -3.1845   21.6723  -26.6246 H   0  0  0  0  0  0  0  0  0  0  0  0
  1  2  1  0
  2  3  1  0
  3  4  2  0
  4  5  1  0
  5  6  2  0
  6  7  1  0
  7  8  1  0
  8  9  1  0
  9 10  2  0
  9 11  1  0
 11 12  1  0
 12 13  2  0
 13 14  1  0
 14 15  2  0
 15 16  1  0
 15 17  1  0
 17 18  1  0
 18 19  2  0
 18 20  2  0
 18 21  1  0
 21 22  2  3
 22 23  1  0
 23 24  2  0
 24 25  1  0
 25 26  1  0
 26 27  2  0
 17 28  2  0
 28 29  1  0
  7 30  2  0
 30  3  1  0
 28 12  1  0
 27 22  1  0
  1 31  1  0
  1 32  1  0
  1 33  1  0
  4 34  1  0
  5 35  1  0
  6 36  1  0
 13 37  1  0
 14 38  1  0
 16 39  1  0
 16 40  1  0
 16 41  1  0
 23 42  1  0
 24 43  1  0
 26 44  1  0
 27 45  1  0
 30 46  1  0
M  CHG  4   8  -1  11  -1  25  -1  29  -1
M  END
>  <UniqueID>  (8) 
8

>  <SMILES>  (8) 
COc1cccc([N-]C(=O)[N-]c2ccc(C)c(S(=O)(=O)N=c3cc[n-]cc3)c2[O-])c1

>  <Energy>  (8) 
64.91786676289006

>  <Genealogy>  (8) 
COc1cccc([N-]C(=O)[N-]c2ccc(C)c(S(=O)(=O)N=c3cc[n-]cc3)c2[O-])c1 (protonated)
COc1cccc([N-]C(=O)[N-]c2ccc(C)c(S(=O)(=O)N=c3cc[n-]cc3)c2[O-])c1 (3D coordinates assigned)
COc1cccc([N-]C(=O)[N-]c2ccc(C)c(S(=O)(=O)N=c3cc[n-]cc3)c2[O-])c1 (optimized conformer: 64.91786676289006 kcal/mol)

>  <smiles>  (8) 
COc1cccc(NC(=O)Nc2ccc(C)c(S(=O)(=O)N=c3cc[nH]cc3)c2O)c1

>  <score_type>  (8) 
oracle

>  <origin>  (8) 
adgpu

>  <m_score__min__energy>  (8) 
-13.52

>  <m_primary>  (8) 
energy

$$$$
8:0
     RDKit          3D

 74 78  0  0  0  0  0  0  0  0999 V2000
    1.4710   14.8980  -30.6620 C   0  0  0  0  0  0  0  0  0  0  0  0
    1.0230   16.1220  -29.9220 C   0  0  0  0  0  0  0  0  0  0  0  0
    0.9870   16.1190  -28.5090 C   0  0  0  0  0  0  0  0  0  0  0  0
    0.5890   17.2650  -27.8030 C   0  0  0  0  0  0  0  0  0  0  0  0
    0.2410   18.3930  -28.5410 C   0  0  0  0  0  0  0  0  0  0  0  0
   -0.1610   19.5760  -28.0290 N   0  0  0  0  0  0  0  0  0  0  0  0
   -0.3800   20.3410  -29.1280 C   0  0  0  0  0  0  0  0  0  0  0  0
   -0.8570   21.7370  -29.0590 C   0  0  0  0  0  0  0  0  0  0  0  0
   -2.0810   22.0680  -29.6590 C   0  0  0  0  0  0  0  0  0  0  0  0
   -2.5910   23.3760  -29.5890 C   0  0  0  0  0  0  0  0  0  0  0  0
   -3.9270   23.6520  -30.1640 C   0  0  0  0  0  0  0  0  0  0  0  0
   -4.1220   24.7200  -30.7990 O   0  0  0  0  0  0  0  0  0  0  0  0
   -5.0400   22.7790  -29.9280 N   0  0  0  0  0  0  0  0  0  0  0  0
   -6.2110   22.6460  -30.7500 C   0  0  0  0  0  0  0  0  0  0  0  0
   -6.9570   23.7640  -31.1660 C   0  0  0  0  0  0  0  0  0  0  0  0
   -8.1160   23.5880  -31.9280 C   0  0  0  0  0  0  0  0  0  0  0  0
   -8.5530   22.3010  -32.2540 C   0  0  0  0  0  0  0  0  0  0  0  0
   -7.8320   21.1820  -31.8180 C   0  0  0  0  0  0  0  0  0  0  0  0
   -8.4230   19.5510  -32.1590 S   0  0  0  0  0  0  0  0  0  0  0  0
   -8.8550   18.8980  -30.8760 O   0  0  0  0  0  0  0  0  0  0  0  0
   -9.6210   19.6410  -33.0640 O   0  0  0  0  0  0  0  0  0  0  0  0
   -7.1910   18.5740  -32.9200 N   0  0  0  0  0  0  0  0  0  0  0  0
   -6.2870   19.4200  -33.7170 C   0  0  0  0  0  0  0  0  0  0  0  0
   -5.3510   18.5490  -34.5760 C   0  0  0  0  0  0  0  0  0  0  0  0
   -5.1550   17.1410  -33.9890 C   0  0  0  0  0  0  0  0  0  0  0  0
   -5.1520   17.1740  -32.4590 C   0  0  0  0  0  0  0  0  0  0  0  0
   -6.4410   17.8120  -31.8970 C   0  0  0  0  0  0  0  0  0  0  0  0
   -6.6590   21.3610  -31.0740 C   0  0  0  0  0  0  0  0  0  0  0  0
   -1.8340   24.3790  -28.9410 C   0  0  0  0  0  0  0  0  0  0  0  0
   -2.2440   25.7140  -28.8940 O   0  0  0  0  0  0  0  0  0  0  0  0
   -0.6120   24.0460  -28.3470 C   0  0  0  0  0  0  0  0  0  0  0  0
   -0.1170   22.7410  -28.4090 C   0  0  0  0  0  0  0  0  0  0  0  0
    1.1270   22.4640  -27.8490 O   0  0  0  0  0  0  0  0  0  0  0  0
   -0.0790   19.6080  -30.2700 C   0  0  0  0  0  0  0  0  0  0  0  0
   -0.0610   20.0780  -31.6270 N   0  0  0  0  0  0  0  0  0  0  0  0
   -1.2470   20.0790  -32.5030 C   0  0  0  0  0  0  0  0  0  0  0  0
   -1.0290   19.0390  -33.6170 C   0  0  0  0  0  0  0  0  0  0  0  0
   -1.4110   21.4740  -33.1320 C   0  0  0  0  0  0  0  0  0  0  0  0
   -2.5330   19.7130  -31.7300 C   0  0  0  0  0  0  0  0  0  0  0  0
    0.2940   18.3800  -29.8850 N   0  0  0  0  0  0  0  0  0  0  0  0
    0.6690   17.2960  -30.6120 C   0  0  0  0  0  0  0  0  0  0  0  0
    1.7566   14.1177  -29.9412 H   0  0  0  0  0  0  0  0  0  0  0  0
    0.6492   14.5303  -31.2940 H   0  0  0  0  0  0  0  0  0  0  0  0
    2.3360   15.1477  -31.2940 H   0  0  0  0  0  0  0  0  0  0  0  0
    1.2733   15.2110  -27.9580 H   0  0  0  0  0  0  0  0  0  0  0  0
    0.5533   17.2716  -26.7036 H   0  0  0  0  0  0  0  0  0  0  0  0
   -2.6502   21.2924  -30.1923 H   0  0  0  0  0  0  0  0  0  0  0  0
   -6.6282   24.7772  -30.8916 H   0  0  0  0  0  0  0  0  0  0  0  0
   -8.6852   24.4643  -32.2717 H   0  0  0  0  0  0  0  0  0  0  0  0
   -9.4650   22.1666  -32.8542 H   0  0  0  0  0  0  0  0  0  0  0  0
   -6.8842   20.0679  -34.3755 H   0  0  0  0  0  0  0  0  0  0  0  0
   -5.6778   20.0312  -33.0348 H   0  0  0  0  0  0  0  0  0  0  0  0
   -5.7826   18.4545  -35.5834 H   0  0  0  0  0  0  0  0  0  0  0  0
   -4.3673   19.0405  -34.6026 H   0  0  0  0  0  0  0  0  0  0  0  0
   -5.9743   16.4921  -34.3322 H   0  0  0  0  0  0  0  0  0  0  0  0
   -4.1838   16.7536  -34.3306 H   0  0  0  0  0  0  0  0  0  0  0  0
   -5.0701   16.1443  -32.0807 H   0  0  0  0  0  0  0  0  0  0  0  0
   -4.2974   17.7844  -32.1317 H   0  0  0  0  0  0  0  0  0  0  0  0
   -7.0889   17.0129  -31.5075 H   0  0  0  0  0  0  0  0  0  0  0  0
   -6.1464   18.5170  -31.1057 H   0  0  0  0  0  0  0  0  0  0  0  0
   -6.0850   20.4835  -30.7415 H   0  0  0  0  0  0  0  0  0  0  0  0
   -3.0870   26.0490  -29.3430 H   0  0  0  0  0  0  0  0  0  0  0  0
   -0.0333   24.8218  -27.8243 H   0  0  0  0  0  0  0  0  0  0  0  0
    0.6770   20.7870  -31.8400 H   0  0  0  0  0  0  0  0  0  0  0  0
   -0.8231   18.0568  -33.1665 H   0  0  0  0  0  0  0  0  0  0  0  0
   -1.9331   18.9743  -34.2402 H   0  0  0  0  0  0  0  0  0  0  0  0
   -0.1750   19.3428  -34.2402 H   0  0  0  0  0  0  0  0  0  0  0  0
   -1.4996   22.2273  -32.3353 H   0  0  0  0  0  0  0  0  0  0  0  0
   -0.5333   21.7007  -33.7551 H   0  0  0  0  0  0  0  0  0  0  0  0
   -2.3173   21.4910  -33.7551 H   0  0  0  0  0  0  0  0  0  0  0  0
   -2.3391   19.7682  -30.6486 H   0  0  0  0  0  0  0  0  0  0  0  0
   -3.3338   20.4189  -31.9954 H   0  0  0  0  0  0  0  0  0  0  0  0
   -2.8421   18.6912  -31.9954 H   0  0  0  0  0  0  0  0  0  0  0  0
    0.6953   17.3348  -31.7110 H   0  0  0  0  0  0  0  0  0  0  0  0
  1  2  1  0
  2  3  1  0
  3  4  2  0
  4  5  1  0
  5  6  2  0
  6  7  1  0
  7  8  1  0
  8  9  2  0
  9 10  1  0
 10 11  1  0
 11 12  2  0
 11 13  1  0
 13 14  1  0
 14 15  2  0
 15 16  1  0
 16 17  2  0
 17 18  1  0
 18 19  1  0
 19 20  2  0
 19 21  2  0
 19 22  1  0
 22 23  1  0
 23 24  1  0
 24 25  1  0
 25 26  1  0
 26 27  1  0
 18 28  2  0
 10 29  2  0
 29 30  1  0
 29 31  1  0
 31 32  2  0
 32 33  1  0
  7 34  2  0
 34 35  1  0
 35 36  1  0
 36 37  1  0
 36 38  1  0
 36 39  1  0
 34 40  1  0
 40 41  1  0
 41  2  2  0
 40  5  1  0
 32  8  1  0
 28 14  1  0
 27 22  1  0
  1 42  1  0
  1 43  1  0
  1 44  1  0
  3 45  1  0
  4 46  1  0
  9 47  1  0
 15 48  1  0
 16 49  1  0
 17 50  1  0
 23 51  1  0
 23 52  1  0
 24 53  1  0
 24 54  1  0
 25 55  1  0
 25 56  1  0
 26 57  1  0
 26 58  1  0
 27 59  1  0
 27 60  1  0
 28 61  1  0
 30 62  1  0
 31 63  1  0
 35 64  1  0
 37 65  1  0
 37 66  1  0
 37 67  1  0
 38 68  1  0
 38 69  1  0
 38 70  1  0
 39 71  1  0
 39 72  1  0
 39 73  1  0
 41 74  1  0
M  CHG  2  13  -1  33  -1
M  END
>  <UniqueID>  (9) 
9

>  <SMILES>  (9) 
Cc1ccc2nc(-c3cc(C(=O)[N-]c4cccc(S(=O)(=O)N5CCCCC5)c4)c(O)cc3[O-])c(NC(C)(C)C)n2c1

>  <Energy>  (9) 
131.11549576908695

>  <Genealogy>  (9) 
Cc1ccc2nc(-c3cc(C(=O)[N-]c4cccc(S(=O)(=O)N5CCCCC5)c4)c(O)cc3[O-])c(NC(C)(C)C)n2c1 (protonated)
Cc1ccc2nc(-c3cc(C(=O)[N-]c4cccc(S(=O)(=O)N5CCCCC5)c4)c(O)cc3[O-])c(NC(C)(C)C)n2c1 (3D coordinates assigned)
Cc1ccc2nc(-c3cc(C(=O)[N-]c4cccc(S(=O)(=O)N5CCCCC5)c4)c(O)cc3[O-])c(NC(C)(C)C)n2c1 (nonaromatic ring conformer: 131.11549576908695 kcal/mol)

>  <smiles>  (9) 
Cc1ccc2nc(-c3cc(C(=O)Nc4cccc(S(=O)(=O)N5CCCCC5)c4)c(O)cc3O)c(NC(C)(C)C)n2c1

>  <score_type>  (9) 
oracle

>  <origin>  (9) 
adgpu

>  <m_score__min__energy>  (9) 
-13.57

>  <m_primary>  (9) 
energy

$$$$
9:0
     RDKit          3D

 55 58  0  0  0  0  0  0  0  0999 V2000
   -1.5290   25.3200  -29.3350 O   0  0  0  0  0  0  0  0  0  0  0  0
   -2.6200   24.6860  -29.3620 C   0  0  0  0  0  0  0  0  0  0  0  0
   -3.5810   24.9360  -30.3930 N   0  0  0  0  0  0  0  0  0  0  0  0
   -4.8110   24.2240  -30.6000 C   0  0  0  0  0  0  0  0  0  0  0  0
   -4.7530   22.9130  -31.0920 C   0  0  0  0  0  0  0  0  0  0  0  0
   -5.9230   22.1700  -31.2670 C   0  0  0  0  0  0  0  0  0  0  0  0
   -7.1670   22.7250  -30.9390 C   0  0  0  0  0  0  0  0  0  0  0  0
   -8.6320   21.7520  -31.1010 S   0  0  0  0  0  0  0  0  0  0  0  0
   -9.4890   21.9180  -29.8770 O   0  0  0  0  0  0  0  0  0  0  0  0
   -9.4070   22.2510  -32.2880 O   0  0  0  0  0  0  0  0  0  0  0  0
   -8.2920   20.0550  -31.3260 N   0  0  0  0  0  0  0  0  0  0  0  0
   -8.3350   19.6530  -32.7330 C   0  0  0  0  0  0  0  0  0  0  0  0
   -7.0330   20.0120  -33.4660 C   0  0  0  0  0  0  0  0  0  0  0  0
   -5.9240   19.1370  -33.0180 N   0  0  0  0  0  0  0  0  0  0  0  0
   -5.1340   18.6600  -34.1620 C   0  0  0  0  0  0  0  0  0  0  0  0
   -5.7540   17.3590  -34.6400 C   0  0  0  0  0  0  0  0  0  0  0  0
   -6.4920   16.8100  -33.4350 C   0  0  0  0  0  0  0  0  0  0  0  0
   -6.4280   17.9080  -32.3790 C   0  0  0  0  0  0  0  0  0  0  0  0
   -7.2290   24.0330  -30.4390 C   0  0  0  0  0  0  0  0  0  0  0  0
   -6.0590   24.7750  -30.2590 C   0  0  0  0  0  0  0  0  0  0  0  0
   -2.8850   23.6700  -28.3890 N   0  0  0  0  0  0  0  0  0  0  0  0
   -1.9910   23.3970  -27.2990 C   0  0  0  0  0  0  0  0  0  0  0  0
   -1.4440   22.1100  -27.1880 C   0  0  0  0  0  0  0  0  0  0  0  0
   -0.5380   21.8080  -26.1710 C   0  0  0  0  0  0  0  0  0  0  0  0
   -0.1720   22.7820  -25.2430 C   0  0  0  0  0  0  0  0  0  0  0  0
   -0.7270   24.0680  -25.3120 C   0  0  0  0  0  0  0  0  0  0  0  0
   -0.3740   25.0390  -24.3610 C   0  0  0  0  0  0  0  0  0  0  0  0
   -0.9490   26.3100  -24.4100 C   0  0  0  0  0  0  0  0  0  0  0  0
   -1.8850   26.6210  -25.3970 C   0  0  0  0  0  0  0  0  0  0  0  0
   -2.2440   25.6670  -26.3520 C   0  0  0  0  0  0  0  0  0  0  0  0
   -1.6550   24.3840  -26.3390 C   0  0  0  0  0  0  0  0  0  0  0  0
   -3.7795   22.4660  -31.3421 H   0  0  0  0  0  0  0  0  0  0  0  0
   -5.8674   21.1455  -31.6637 H   0  0  0  0  0  0  0  0  0  0  0  0
   -8.4871   18.5650  -32.7885 H   0  0  0  0  0  0  0  0  0  0  0  0
   -9.1620   20.1916  -33.2187 H   0  0  0  0  0  0  0  0  0  0  0  0
   -7.1803   19.8834  -34.5485 H   0  0  0  0  0  0  0  0  0  0  0  0
   -6.7745   21.0567  -33.2386 H   0  0  0  0  0  0  0  0  0  0  0  0
   -5.1574   19.4055  -34.9705 H   0  0  0  0  0  0  0  0  0  0  0  0
   -4.0859   18.5023  -33.8678 H   0  0  0  0  0  0  0  0  0  0  0  0
   -6.4524   17.5453  -35.4692 H   0  0  0  0  0  0  0  0  0  0  0  0
   -4.9977   16.6550  -35.0173 H   0  0  0  0  0  0  0  0  0  0  0  0
   -7.5375   16.5870  -33.6940 H   0  0  0  0  0  0  0  0  0  0  0  0
   -6.0426   15.8727  -33.0750 H   0  0  0  0  0  0  0  0  0  0  0  0
   -7.4324   18.0876  -31.9681 H   0  0  0  0  0  0  0  0  0  0  0  0
   -5.7598   17.6062  -31.5590 H   0  0  0  0  0  0  0  0  0  0  0  0
   -8.2033   24.4773  -30.1872 H   0  0  0  0  0  0  0  0  0  0  0  0
   -6.1143   25.7942  -29.8489 H   0  0  0  0  0  0  0  0  0  0  0  0
   -3.6520   22.9870  -28.5860 H   0  0  0  0  0  0  0  0  0  0  0  0
   -1.7322   21.3315  -27.9097 H   0  0  0  0  0  0  0  0  0  0  0  0
   -0.1105   20.7969  -26.1010 H   0  0  0  0  0  0  0  0  0  0  0  0
    0.5550   22.5408  -24.4535 H   0  0  0  0  0  0  0  0  0  0  0  0
    0.3573   24.7975  -23.5756 H   0  0  0  0  0  0  0  0  0  0  0  0
   -0.6631   27.0695  -23.6675 H   0  0  0  0  0  0  0  0  0  0  0  0
   -2.3419   27.6213  -25.4231 H   0  0  0  0  0  0  0  0  0  0  0  0
   -2.9910   25.9171  -27.1197 H   0  0  0  0  0  0  0  0  0  0  0  0
  1  2  2  0
  2  3  1  0
  3  4  1  0
  4  5  2  0
  5  6  1  0
  6  7  2  0
  7  8  1  0
  8  9  2  0
  8 10  2  0
  8 11  1  0
 11 12  1  0
 12 13  1  0
 13 14  1  0
 14 15  1  0
 15 16  1  0
 16 17  1  0
 17 18  1  0
  7 19  1  0
 19 20  2  0
  2 21  1  0
 21 22  1  0
 22 23  2  0
 23 24  1  0
 24 25  2  0
 25 26  1  0
 26 27  2  0
 27 28  1  0
 28 29  2  0
 29 30  1  0
 30 31  2  0
 20  4  1  0
 31 22  1  0
 18 14  1  0
 31 26  1  0
  5 32  1  0
  6 33  1  0
 12 34  1  0
 12 35  1  0
 13 36  1  0
 13 37  1  0
 15 38  1  0
 15 39  1  0
 16 40  1  0
 16 41  1  0
 17 42  1  0
 17 43  1  0
 18 44  1  0
 18 45  1  0
 19 46  1  0
 20 47  1  0
 21 48  1  0
 23 49  1  0
 24 50  1  0
 25 51  1  0
 27 52  1  0
 28 53  1  0
 29 54  1  0
 30 55  1  0
M  CHG  2   3  -1  11  -1
M  END
>  <UniqueID>  (10) 
10

>  <SMILES>  (10) 
O=C([N-]c1ccc(S(=O)(=O)[N-]CCN2CCCC2)cc1)Nc1cccc2ccccc12

>  <Energy>  (10) 
71.28785633038736

>  <Genealogy>  (10) 
O=C([N-]c1ccc(S(=O)(=O)[N-]CCN2CCCC2)cc1)Nc1cccc2ccccc12 (protonated)
O=C([N-]c1ccc(S(=O)(=O)[N-]CCN2CCCC2)cc1)Nc1cccc2ccccc12 (3D coordinates assigned)
O=C([N-]c1ccc(S(=O)(=O)[N-]CCN2CCCC2)cc1)Nc1cccc2ccccc12 (nonaromatic ring conformer: 71.28785633038736 kcal/mol)

>  <smiles>  (10) 
O=C(Nc1ccc(S(=O)(=O)NCCN2CCCC2)cc1)Nc1cccc2ccccc12

>  <score_type>  (10) 
oracle

>  <origin>  (10) 
adgpu

>  <m_score__min__energy>  (10) 
-12

>  <m_primary>  (10) 
energy

$$$$
10:0
     RDKit          3D

 38 40  0  0  0  0  0  0  0  0999 V2000
   -8.7418   22.1416  -31.3585 H   0  0  0  0  0  0  0  0  0  0  0  0
   -7.8250   22.7220  -31.1780 C   0  0  0  0  0  0  0  0  0  0  0  0
   -7.2440   22.7330  -29.9080 C   0  0  0  0  0  0  0  0  0  0  0  0
   -7.7080   22.1666  -29.0871 H   0  0  0  0  0  0  0  0  0  0  0  0
   -6.0730   23.4630  -29.6780 C   0  0  0  0  0  0  0  0  0  0  0  0
   -5.6266   23.4821  -28.6728 H   0  0  0  0  0  0  0  0  0  0  0  0
   -5.4650   24.1730  -30.7300 C   0  0  0  0  0  0  0  0  0  0  0  0
   -4.2410   24.9030  -30.5440 N   0  0  0  0  0  0  0  0  0  0  0  0
   -3.0760   24.4460  -29.8400 C   0  0  0  0  0  0  0  0  0  0  0  0
   -2.2910   25.2980  -29.3470 O   0  0  0  0  0  0  0  0  0  0  0  0
   -2.7910   23.0510  -29.6570 N   0  0  0  0  0  0  0  0  0  0  0  0
   -3.0070   22.1110  -30.5280 C   0  0  0  0  0  0  0  0  0  0  0  0
   -3.5460   22.3200  -32.1160 S   0  0  0  0  0  0  0  0  0  0  0  0
   -3.5840   20.6500  -32.3470 C   0  0  0  0  0  0  0  0  0  0  0  0
   -4.1730   19.9760  -33.5430 C   0  0  0  0  0  0  0  0  0  0  0  0
   -3.4469   19.2597  -33.9551 H   0  0  0  0  0  0  0  0  0  0  0  0
   -4.4173   20.7299  -34.3059 H   0  0  0  0  0  0  0  0  0  0  0  0
   -5.4260   19.2450  -33.1400 C   0  0  0  0  0  0  0  0  0  0  0  0
   -5.4390   17.8420  -33.0730 C   0  0  0  0  0  0  0  0  0  0  0  0
   -4.5125   17.2764  -33.2512 H   0  0  0  0  0  0  0  0  0  0  0  0
   -6.6240   17.1620  -32.7810 C   0  0  0  0  0  0  0  0  0  0  0  0
   -6.6262   16.0636  -32.7219 H   0  0  0  0  0  0  0  0  0  0  0  0
   -7.8060   17.8740  -32.5640 C   0  0  0  0  0  0  0  0  0  0  0  0
   -8.7384   17.3335  -32.3436 H   0  0  0  0  0  0  0  0  0  0  0  0
   -7.8090   19.2760  -32.6260 C   0  0  0  0  0  0  0  0  0  0  0  0
   -9.0900   20.0370  -32.4590 C   0  0  0  0  0  0  0  0  0  0  0  0
   -9.3040   20.1641  -31.3875 H   0  0  0  0  0  0  0  0  0  0  0  0
   -8.9942   21.0248  -32.9335 H   0  0  0  0  0  0  0  0  0  0  0  0
   -9.9117   19.4804  -32.9335 H   0  0  0  0  0  0  0  0  0  0  0  0
   -6.6190   19.9550  -32.9280 C   0  0  0  0  0  0  0  0  0  0  0  0
   -6.6204   21.0527  -32.9993 H   0  0  0  0  0  0  0  0  0  0  0  0
   -3.1840   19.9880  -31.2370 N   0  0  0  0  0  0  0  0  0  0  0  0
   -2.8410   20.8020  -30.2410 N   0  0  0  0  0  0  0  0  0  0  0  0
   -2.5190   20.4440  -29.3140 H   0  0  0  0  0  0  0  0  0  0  0  0
   -6.0700   24.1780  -31.9940 C   0  0  0  0  0  0  0  0  0  0  0  0
   -5.6208   24.7589  -32.8130 H   0  0  0  0  0  0  0  0  0  0  0  0
   -7.2410   23.4490  -32.2200 C   0  0  0  0  0  0  0  0  0  0  0  0
   -7.7034   23.4472  -33.2181 H   0  0  0  0  0  0  0  0  0  0  0  0
  1  2  1  0
  2  3  2  0
  3  4  1  0
  3  5  1  0
  5  6  1  0
  5  7  2  0
  7  8  1  0
  8  9  1  0
  9 10  2  0
  9 11  1  0
 11 12  2  0
 12 13  1  0
 13 14  1  0
 14 15  1  0
 15 16  1  0
 15 17  1  0
 15 18  1  0
 18 19  2  0
 19 20  1  0
 19 21  1  0
 21 22  1  0
 21 23  2  0
 23 24  1  0
 23 25  1  0
 25 26  1  0
 26 27  1  0
 26 28  1  0
 26 29  1  0
 25 30  2  0
 30 31  1  0
 14 32  2  0
 32 33  1  0
 33 34  1  0
  7 35  1  0
 35 36  1  0
 35 37  2  0
 37 38  1  0
 37  2  1  0
 33 12  1  0
 30 18  1  0
M  CHG  1   8  -1
M  END
>  <UniqueID>  (11) 
11

>  <SMILES>  (11) 
Cc1cccc(Cc2n[nH]/c(=N/C(=O)[N-]c3ccccc3)s2)c1

>  <Energy>  (11) 
77.60432557050304

>  <Genealogy>  (11) 
Cc1cccc(Cc2n[nH]c(=NC(=O)[N-]c3ccccc3)s2)c1 (protonated)
Cc1cccc(Cc2n[nH]/c(=N/C(=O)[N-]c3ccccc3)s2)c1 (cis-trans isomerization)
Cc1cccc(Cc2n[nH]/c(=N/C(=O)[N-]c3ccccc3)s2)c1 (3D coordinates assigned)
Cc1cccc(Cc2n[nH]/c(=N/C(=O)[N-]c3ccccc3)s2)c1 (optimized conformer: 77.60432557050304 kcal/mol)

>  <smiles>  (11) 
Cc1cccc(Cc2n[nH]c(=NC(=O)Nc3ccccc3)s2)c1

>  <score_type>  (11) 
oracle

>  <origin>  (11) 
adgpu

>  <m_score__min__energy>  (11) 
-10.039999999999999

>  <m_primary>  (11) 
energy

$$$$
11:0
     RDKit          3D

 53 56  0  0  0  0  0  0  0  0999 V2000
   -4.2290   22.1260  -33.0810 O   0  0  0  0  0  0  0  0  0  0  0  0
   -3.7600   21.9230  -31.9280 C   0  0  0  0  0  0  0  0  0  0  0  0
   -3.3880   20.5950  -31.5230 N   0  0  0  0  0  0  0  0  0  0  0  0
   -3.1630   19.5110  -32.4410 C   0  0  0  0  0  0  0  0  0  0  0  0
   -4.2110   19.0820  -33.2690 C   0  0  0  0  0  0  0  0  0  0  0  0
   -4.0250   18.0140  -34.1530 C   0  0  0  0  0  0  0  0  0  0  0  0
   -2.7900   17.3550  -34.2110 C   0  0  0  0  0  0  0  0  0  0  0  0
   -2.5530   15.9870  -35.2970 S   0  0  0  0  0  0  0  0  0  0  0  0
   -3.5340   16.0590  -36.4340 O   0  0  0  0  0  0  0  0  0  0  0  0
   -1.1610   16.0600  -35.8590 O   0  0  0  0  0  0  0  0  0  0  0  0
   -2.7590   14.4860  -34.4260 N   0  0  0  0  0  0  0  0  0  0  0  0
   -2.3360   14.6740  -33.0220 C   0  0  0  0  0  0  0  0  0  0  0  0
   -2.9930   13.6890  -32.0380 C   0  0  0  0  0  0  0  0  0  0  0  0
   -4.4530   14.0280  -31.6850 C   0  0  0  0  0  0  0  0  0  0  0  0
   -5.0590   15.2340  -32.4360 C   0  0  0  0  0  0  0  0  0  0  0  0
   -5.1610   15.0480  -33.9620 C   0  0  0  0  0  0  0  0  0  0  0  0
   -4.1560   14.0210  -34.5450 C   0  0  0  0  0  0  0  0  0  0  0  0
   -1.7490   17.7600  -33.3650 C   0  0  0  0  0  0  0  0  0  0  0  0
   -1.9340   18.8280  -32.4820 C   0  0  0  0  0  0  0  0  0  0  0  0
   -3.6410   23.0590  -30.9980 C   0  0  0  0  0  0  0  0  0  0  0  0
   -2.8500   23.1230  -29.8680 C   0  0  0  0  0  0  0  0  0  0  0  0
   -3.0940   24.3870  -29.3600 C   0  0  0  0  0  0  0  0  0  0  0  0
   -2.5310   24.9820  -28.1230 C   0  0  0  0  0  0  0  0  0  0  0  0
   -3.0240   24.5550  -26.8760 C   0  0  0  0  0  0  0  0  0  0  0  0
   -2.5110   25.0830  -25.6880 C   0  0  0  0  0  0  0  0  0  0  0  0
   -1.5070   26.0500  -25.7290 C   0  0  0  0  0  0  0  0  0  0  0  0
   -1.0180   26.4970  -26.9570 C   0  0  0  0  0  0  0  0  0  0  0  0
   -1.5270   25.9780  -28.1530 C   0  0  0  0  0  0  0  0  0  0  0  0
   -1.0450   26.4810  -29.3560 O   0  0  0  0  0  0  0  0  0  0  0  0
   -3.9860   25.0210  -30.1490 N   0  0  0  0  0  0  0  0  0  0  0  0
   -4.3130   24.2150  -31.1480 N   0  0  0  0  0  0  0  0  0  0  0  0
   -3.3760   20.3760  -30.5020 H   0  0  0  0  0  0  0  0  0  0  0  0
   -5.1860   19.5891  -33.2228 H   0  0  0  0  0  0  0  0  0  0  0  0
   -4.8505   17.6907  -34.8043 H   0  0  0  0  0  0  0  0  0  0  0  0
   -1.2452   14.5426  -32.9679 H   0  0  0  0  0  0  0  0  0  0  0  0
   -2.6536   15.6842  -32.7242 H   0  0  0  0  0  0  0  0  0  0  0  0
   -2.9711   12.6856  -32.4883 H   0  0  0  0  0  0  0  0  0  0  0  0
   -2.4195   13.7487  -31.1012 H   0  0  0  0  0  0  0  0  0  0  0  0
   -5.0692   13.1450  -31.9099 H   0  0  0  0  0  0  0  0  0  0  0  0
   -4.4479   14.3079  -30.6212 H   0  0  0  0  0  0  0  0  0  0  0  0
   -6.0709   15.4110  -32.0427 H   0  0  0  0  0  0  0  0  0  0  0  0
   -4.3790   16.0822  -32.2680 H   0  0  0  0  0  0  0  0  0  0  0  0
   -6.1795   14.7080  -34.2009 H   0  0  0  0  0  0  0  0  0  0  0  0
   -4.9191   16.0202  -34.4161 H   0  0  0  0  0  0  0  0  0  0  0  0
   -4.2620   13.0714  -33.9999 H   0  0  0  0  0  0  0  0  0  0  0  0
   -4.3820   13.8932  -35.6139 H   0  0  0  0  0  0  0  0  0  0  0  0
   -0.7825   17.2356  -33.3957 H   0  0  0  0  0  0  0  0  0  0  0  0
   -1.1144   19.1357  -31.8160 H   0  0  0  0  0  0  0  0  0  0  0  0
   -2.1808   22.3486  -29.4649 H   0  0  0  0  0  0  0  0  0  0  0  0
   -3.8211   23.7981  -26.8359 H   0  0  0  0  0  0  0  0  0  0  0  0
   -2.8997   24.7354  -24.7194 H   0  0  0  0  0  0  0  0  0  0  0  0
   -1.1004   26.4605  -24.7929 H   0  0  0  0  0  0  0  0  0  0  0  0
   -0.2278   27.2618  -26.9853 H   0  0  0  0  0  0  0  0  0  0  0  0
  1  2  2  0
  2  3  1  0
  3  4  1  0
  4  5  2  0
  5  6  1  0
  6  7  2  0
  7  8  1  0
  8  9  2  0
  8 10  2  0
  8 11  1  0
 11 12  1  0
 12 13  1  0
 13 14  1  0
 14 15  1  0
 15 16  1  0
 16 17  1  0
  7 18  1  0
 18 19  2  0
  2 20  1  0
 20 21  1  0
 21 22  2  0
 22 23  1  0
 23 24  2  0
 24 25  1  0
 25 26  2  0
 26 27  1  0
 27 28  2  0
 28 29  1  0
 22 30  1  0
 30 31  1  0
 19  4  1  0
 31 20  2  0
 17 11  1  0
 28 23  1  0
  3 32  1  0
  5 33  1  0
  6 34  1  0
 12 35  1  0
 12 36  1  0
 13 37  1  0
 13 38  1  0
 14 39  1  0
 14 40  1  0
 15 41  1  0
 15 42  1  0
 16 43  1  0
 16 44  1  0
 17 45  1  0
 17 46  1  0
 18 47  1  0
 19 48  1  0
 21 49  1  0
 24 50  1  0
 25 51  1  0
 26 52  1  0
 27 53  1  0
M  CHG  2  29  -1  30  -1
M  END
>  <UniqueID>  (12) 
12

>  <SMILES>  (12) 
O=C(Nc1ccc(S(=O)(=O)N2CCCCCC2)cc1)c1cc(-c2ccccc2[O-])[n-]n1

>  <Energy>  (12) 
100.11124300605346

>  <Genealogy>  (12) 
O=C(Nc1ccc(S(=O)(=O)N2CCCCCC2)cc1)c1cc(-c2ccccc2[O-])[n-]n1 (protonated)
O=C(Nc1ccc(S(=O)(=O)N2CCCCCC2)cc1)c1cc(-c2ccccc2[O-])[n-]n1 (3D coordinates assigned)
O=C(Nc1ccc(S(=O)(=O)N2CCCCCC2)cc1)c1cc(-c2ccccc2[O-])[n-]n1 (nonaromatic ring conformer: 100.11124300605346 kcal/mol)

>  <smiles>  (12) 
O=C(Nc1ccc(S(=O)(=O)N2CCCCCC2)cc1)c1cc(-c2ccccc2O)[nH]n1

>  <score_type>  (12) 
oracle

>  <origin>  (12) 
adgpu

>  <m_score__min__energy>  (12) 
-9.5399999999999991

>  <m_primary>  (12) 
energy

$$$$
12:0
     RDKit          3D

 43 46  0  0  0  0  0  0  0  0999 V2000
   -4.0420   18.8680  -26.1290 N   0  0  0  0  0  0  0  0  0  0  0  0
   -3.3700   19.7130  -27.1080 C   0  0  0  0  0  0  0  0  0  0  0  0
   -1.8470   19.6340  -26.8990 C   0  0  2  0  0  0  0  0  0  0  0  0
   -1.2860   20.6980  -25.9640 C   0  0  0  0  0  0  0  0  0  0  0  0
   -0.9550   20.7510  -27.4560 C   0  0  2  0  0  0  0  0  0  0  0  0
   -1.6200   21.8550  -28.2390 C   0  0  0  0  0  0  0  0  0  0  0  0
   -1.5230   21.9020  -29.6390 C   0  0  0  0  0  0  0  0  0  0  0  0
   -2.1630   22.9180  -30.3550 C   0  0  0  0  0  0  0  0  0  0  0  0
   -2.9120   23.8920  -29.6860 C   0  0  0  0  0  0  0  0  0  0  0  0
   -3.5520   24.9250  -30.4450 N   0  0  0  0  0  0  0  0  0  0  0  0
   -4.9390   24.9430  -30.8030 C   0  0  0  0  0  0  0  0  0  0  0  0
   -5.6020   25.9970  -30.6140 O   0  0  0  0  0  0  0  0  0  0  0  0
   -5.5900   23.7740  -31.3250 N   0  0  0  0  0  0  0  0  0  0  0  0
   -4.9940   22.8830  -32.3260 C   0  0  0  0  0  0  0  0  0  0  0  0
   -5.9160   21.7230  -32.3340 C   0  0  0  0  0  0  0  0  0  0  0  0
   -5.8410   20.5730  -33.1210 C   0  0  0  0  0  0  0  0  0  0  0  0
   -6.8340   19.5920  -32.9720 C   0  0  0  0  0  0  0  0  0  0  0  0
   -7.8800   19.7750  -32.0450 C   0  0  0  0  0  0  0  0  0  0  0  0
   -9.1160   18.5430  -31.8660 Cl  0  0  0  0  0  0  0  0  0  0  0  0
   -7.9350   20.9410  -31.2640 C   0  0  0  0  0  0  0  0  0  0  0  0
   -6.9380   21.9030  -31.4310 C   0  0  0  0  0  0  0  0  0  0  0  0
   -6.7930   23.1960  -30.7210 C   0  0  0  0  0  0  0  0  0  0  0  0
   -3.0670   23.8050  -28.2920 C   0  0  0  0  0  0  0  0  0  0  0  0
   -2.4280   22.7890  -27.5750 C   0  0  0  0  0  0  0  0  0  0  0  0
   -3.8610   19.2640  -25.1780 H   0  0  0  0  0  0  0  0  0  0  0  0
   -5.0720   18.9500  -26.2920 H   0  0  0  0  0  0  0  0  0  0  0  0
   -3.6188   19.3673  -28.1222 H   0  0  0  0  0  0  0  0  0  0  0  0
   -3.7027   20.7539  -26.9819 H   0  0  0  0  0  0  0  0  0  0  0  0
   -1.8175   18.5377  -26.9842 H   0  0  0  0  0  0  0  0  0  0  0  0
   -1.9565   21.4504  -25.5233 H   0  0  0  0  0  0  0  0  0  0  0  0
   -0.6928   20.6822  -25.0378 H   0  0  0  0  0  0  0  0  0  0  0  0
   -0.0378   20.7737  -28.0628 H   0  0  0  0  0  0  0  0  0  0  0  0
   -0.9415   21.1369  -30.1742 H   0  0  0  0  0  0  0  0  0  0  0  0
   -2.0771   22.9518  -31.4511 H   0  0  0  0  0  0  0  0  0  0  0  0
   -4.9585   23.3661  -33.3136 H   0  0  0  0  0  0  0  0  0  0  0  0
   -3.9542   22.6076  -32.0957 H   0  0  0  0  0  0  0  0  0  0  0  0
   -5.0216   20.4382  -33.8424 H   0  0  0  0  0  0  0  0  0  0  0  0
   -6.7957   18.6768  -33.5811 H   0  0  0  0  0  0  0  0  0  0  0  0
   -8.7462   21.0926  -30.5366 H   0  0  0  0  0  0  0  0  0  0  0  0
   -7.6685   23.8400  -30.8908 H   0  0  0  0  0  0  0  0  0  0  0  0
   -6.7173   23.0836  -29.6294 H   0  0  0  0  0  0  0  0  0  0  0  0
   -3.6932   24.5387  -27.7632 H   0  0  0  0  0  0  0  0  0  0  0  0
   -2.5597   22.7220  -26.4850 H   0  0  0  0  0  0  0  0  0  0  0  0
  1  2  1  0
  2  3  1  0
  3  4  1  0
  4  5  1  0
  5  6  1  0
  6  7  2  0
  7  8  1  0
  8  9  2  0
  9 10  1  0
 10 11  1  0
 11 12  2  0
 11 13  1  0
 13 14  1  0
 14 15  1  0
 15 16  2  0
 16 17  1  0
 17 18  2  0
 18 19  1  0
 18 20  1  0
 20 21  2  0
 21 22  1  0
  9 23  1  0
 23 24  2  0
  5  3  1  0
 24  6  1  0
 22 13  1  0
 21 15  1  0
  1 25  1  0
  1 26  1  0
  2 27  1  0
  2 28  1  0
  3 29  1  1
  4 30  1  0
  4 31  1  0
  5 32  1  1
  7 33  1  0
  8 34  1  0
 14 35  1  0
 14 36  1  0
 16 37  1  0
 17 38  1  0
 20 39  1  0
 22 40  1  0
 22 41  1  0
 23 42  1  0
 24 43  1  0
M  CHG  1  10  -1
M  END
>  <UniqueID>  (13) 
13

>  <SMILES>  (13) 
NC[C@@H]1C[C@@H]1c1ccc([N-]C(=O)N2Cc3ccc(Cl)cc3C2)cc1

>  <Energy>  (13) 
325.87263103791383

>  <Genealogy>  (13) 
NCC1CC1c1ccc([N-]C(=O)N2Cc3ccc(Cl)cc3C2)cc1 (protonated)
NC[C@@H]1C[C@@H]1c1ccc([N-]C(=O)N2Cc3ccc(Cl)cc3C2)cc1 (chirality)
NC[C@@H]1C[C@@H]1c1ccc([N-]C(=O)N2Cc3ccc(Cl)cc3C2)cc1 (3D coordinates assigned)
NC[C@@H]1C[C@@H]1c1ccc([N-]C(=O)N2Cc3ccc(Cl)cc3C2)cc1 (nonaromatic ring conformer: 325.87263103791383 kcal/mol)

>  <smiles>  (13) 
NCC1CC1c1ccc(NC(=O)N2Cc3ccc(Cl)cc3C2)cc1

>  <score_type>  (13) 
oracle

>  <origin>  (13) 
adgpu

>  <m_score__min__energy>  (13) 
-10.550000000000001

>  <m_primary>  (13) 
energy

$$$$
13:0
     RDKit          3D

 47 50  0  0  1  0  0  0  0  0999 V2000
   -1.2430   19.6920  -28.5730 C   0  0  0  0  0  0  0  0  0  0  0  0
   -1.0870   20.2830  -29.8630 N   0  0  0  0  0  0  0  0  0  0  0  0
   -0.7500   19.6260  -30.9660 N   0  0  0  0  0  0  0  0  0  0  0  0
   -0.6870   20.4410  -32.0230 C   0  0  0  0  0  0  0  0  0  0  0  0
   -1.0050   21.6990  -31.5540 C   0  0  0  0  0  0  0  0  0  0  0  0
   -1.2530   21.5670  -30.1820 C   0  0  0  0  0  0  0  0  0  0  0  0
   -1.6270   22.7150  -29.3690 C   0  0  0  0  0  0  0  0  0  0  0  0
   -0.8970   22.8810  -28.1860 C   0  0  0  0  0  0  0  0  0  0  0  0
   -1.1450   23.9210  -27.3160 C   0  0  0  0  0  0  0  0  0  0  0  0
   -0.2540   24.1590  -25.8300 Cl  0  0  0  0  0  0  0  0  0  0  0  0
   -2.1480   24.8060  -27.6510 C   0  0  0  0  0  0  0  0  0  0  0  0
   -2.8620   24.6330  -28.8180 C   0  0  0  0  0  0  0  0  0  0  0  0
   -2.6310   23.6000  -29.7040 C   0  0  0  0  0  0  0  0  0  0  0  0
   -3.3140   23.3970  -30.8670 O   0  0  0  0  0  0  0  0  0  0  0  0
   -4.4330   22.6630  -31.0990 C   0  0  0  0  0  0  0  0  0  0  0  0
   -4.2980   21.3080  -31.4250 C   0  0  0  0  0  0  0  0  0  0  0  0
   -5.3920   20.5060  -31.6740 C   0  0  0  0  0  0  0  0  0  0  0  0
   -6.6750   21.0230  -31.6090 C   0  0  0  0  0  0  0  0  0  0  0  0
   -8.0930   20.0460  -31.9170 S   0  0  0  0  0  0  0  0  0  0  0  0
   -8.6750   20.4180  -33.2590 O   0  0  0  0  0  0  0  0  0  0  0  0
   -9.0730   20.3530  -30.8190 O   0  0  0  0  0  0  0  0  0  0  0  0
   -7.6570   18.3560  -31.9310 N   0  0  0  0  0  0  0  0  0  0  0  0
   -6.9300   17.8850  -32.8590 C   0  0  0  0  0  0  0  0  0  0  0  0
   -6.4880   18.7400  -33.8650 C   0  0  0  0  0  0  0  0  0  0  0  0
   -5.7020   18.2280  -34.8690 C   0  0  0  0  0  0  0  0  0  0  0  0
   -5.3370   16.9400  -34.9280 N   0  0  0  0  0  0  0  0  0  0  0  0
   -5.7840   16.1280  -33.9330 C   0  0  0  0  0  0  0  0  0  0  0  0
   -6.5540   16.6110  -32.9440 N   0  0  0  0  0  0  0  0  0  0  0  0
   -6.8320   22.3390  -31.2950 C   0  0  0  0  0  0  0  0  0  0  0  0
   -5.7290   23.1310  -31.0480 C   0  0  0  0  0  0  0  0  0  0  0  0
   -5.9570   24.5130  -30.7340 C   0  0  0  0  0  0  0  0  0  0  0  0
   -6.1280   25.6200  -30.4650 N   0  0  0  0  0  0  0  0  0  0  0  0
   -1.0439   20.4464  -27.7976 H   0  0  0  0  0  0  0  0  0  0  0  0
   -2.2711   19.3163  -28.4637 H   0  0  0  0  0  0  0  0  0  0  0  0
   -0.5343   18.8579  -28.4637 H   0  0  0  0  0  0  0  0  0  0  0  0
   -0.4331   20.1650  -33.0571 H   0  0  0  0  0  0  0  0  0  0  0  0
   -1.0542   22.6263  -32.1437 H   0  0  0  0  0  0  0  0  0  0  0  0
   -0.1021   22.1603  -27.9436 H   0  0  0  0  0  0  0  0  0  0  0  0
   -2.3790   25.6514  -26.9862 H   0  0  0  0  0  0  0  0  0  0  0  0
   -3.6568   25.3556  -29.0551 H   0  0  0  0  0  0  0  0  0  0  0  0
   -3.2904   20.8706  -31.4842 H   0  0  0  0  0  0  0  0  0  0  0  0
   -5.2440   19.4457  -31.9266 H   0  0  0  0  0  0  0  0  0  0  0  0
   -6.7628   19.8051  -33.8562 H   0  0  0  0  0  0  0  0  0  0  0  0
   -5.3560   18.9075  -35.6618 H   0  0  0  0  0  0  0  0  0  0  0  0
   -4.7370   16.5910  -35.7100 H   0  0  0  0  0  0  0  0  0  0  0  0
   -5.5116   15.0623  -33.9381 H   0  0  0  0  0  0  0  0  0  0  0  0
   -7.8415   22.7722  -31.2381 H   0  0  0  0  0  0  0  0  0  0  0  0
  1  2  1  0
  2  3  1  0
  3  4  2  0
  4  5  1  0
  5  6  2  0
  6  7  1  0
  7  8  2  0
  8  9  1  0
  9 10  1  0
  9 11  2  0
 11 12  1  0
 12 13  2  0
 13 14  1  0
 14 15  1  0
 15 16  2  0
 16 17  1  0
 17 18  2  0
 18 19  1  0
 19 20  2  0
 19 21  2  0
 19 22  1  0
 22 23  2  0
 23 24  1  0
 24 25  2  0
 25 26  1  0
 26 27  1  0
 27 28  2  0
 18 29  1  0
 29 30  2  0
 30 31  1  0
 31 32  3  0
  6  2  1  0
 13  7  1  0
 30 15  1  0
 28 23  1  0
  1 33  1  0
  1 34  1  0
  1 35  1  0
  4 36  1  0
  5 37  1  0
  8 38  1  0
 11 39  1  0
 12 40  1  0
 16 41  1  0
 17 42  1  0
 24 43  1  0
 25 44  1  0
 26 45  1  0
 27 46  1  0
 29 47  1  0
M  END
>  <smiles>  (14) 
Cn1nccc1-c1cc(Cl)ccc1Oc1ccc(S(=O)(=O)N=c2cc[nH]cn2)cc1C#N

>  <score_type>  (14) 
oracle

>  <origin>  (14) 
adgpu

>  <m_score__min__energy>  (14) 
-10.43

>  <m_primary>  (14) 
energy

$$$$
14:0
     RDKit          3D

 42 44  0  0  0  0  0  0  0  0999 V2000
   -9.4000   20.2330  -31.7690 C   0  0  0  0  0  0  0  0  0  0  0  0
   -8.0810   19.7310  -32.2830 C   0  0  0  0  0  0  0  0  0  0  0  0
   -7.6600   18.4260  -31.9770 C   0  0  0  0  0  0  0  0  0  0  0  0
   -6.4460   17.9420  -32.4750 C   0  0  0  0  0  0  0  0  0  0  0  0
   -5.6360   18.7630  -33.2740 C   0  0  0  0  0  0  0  0  0  0  0  0
   -4.0550   18.2220  -33.8210 S   0  0  0  0  0  0  0  0  0  0  0  0
   -3.3590   17.4030  -32.7690 O   0  0  0  0  0  0  0  0  0  0  0  0
   -4.2290   17.3840  -35.0570 O   0  0  0  0  0  0  0  0  0  0  0  0
   -3.1050   19.6220  -34.2060 N   0  0  0  0  0  0  0  0  0  0  0  0
   -1.9310   19.9990  -33.4740 C   0  0  0  0  0  0  0  0  0  0  0  0
   -0.7570   19.2310  -33.5730 C   0  0  0  0  0  0  0  0  0  0  0  0
    0.3750   19.5680  -32.8260 C   0  0  0  0  0  0  0  0  0  0  0  0
    0.3330   20.6500  -31.9430 C   0  0  0  0  0  0  0  0  0  0  0  0
   -0.8350   21.4100  -31.8150 C   0  0  0  0  0  0  0  0  0  0  0  0
   -1.9690   21.1110  -32.5930 C   0  0  0  0  0  0  0  0  0  0  0  0
   -3.1940   21.9270  -32.4340 C   0  0  0  0  0  0  0  0  0  0  0  0
   -3.9380   22.1530  -33.4270 O   0  0  0  0  0  0  0  0  0  0  0  0
   -3.5130   22.4910  -31.1550 N   0  0  0  0  0  0  0  0  0  0  0  0
   -4.7070   23.2220  -30.8450 C   0  0  0  0  0  0  0  0  0  0  0  0
   -5.9440   22.5690  -30.9520 C   0  0  0  0  0  0  0  0  0  0  0  0
   -7.1280   23.2440  -30.6490 C   0  0  0  0  0  0  0  0  0  0  0  0
   -7.0910   24.5850  -30.2580 C   0  0  0  0  0  0  0  0  0  0  0  0
   -5.8700   25.2560  -30.1850 C   0  0  0  0  0  0  0  0  0  0  0  0
   -4.6790   24.5910  -30.4950 C   0  0  0  0  0  0  0  0  0  0  0  0
   -3.4870   25.3100  -30.4780 O   0  0  0  0  0  0  0  0  0  0  0  0
   -6.0610   20.0620  -33.5890 C   0  0  0  0  0  0  0  0  0  0  0  0
   -7.2830   20.5400  -33.1060 C   0  0  0  0  0  0  0  0  0  0  0  0
   -9.3903   20.2293  -30.6690 H   0  0  0  0  0  0  0  0  0  0  0  0
   -9.5684   21.2581  -32.1308 H   0  0  0  0  0  0  0  0  0  0  0  0
  -10.2073   19.5793  -32.1308 H   0  0  0  0  0  0  0  0  0  0  0  0
   -8.2877   17.7824  -31.3432 H   0  0  0  0  0  0  0  0  0  0  0  0
   -6.1258   16.9162  -32.2399 H   0  0  0  0  0  0  0  0  0  0  0  0
   -0.7296   18.3590  -34.2430 H   0  0  0  0  0  0  0  0  0  0  0  0
    1.2993   18.9813  -32.9332 H   0  0  0  0  0  0  0  0  0  0  0  0
    1.2212   20.9053  -31.3464 H   0  0  0  0  0  0  0  0  0  0  0  0
   -0.8670   22.2467  -31.1016 H   0  0  0  0  0  0  0  0  0  0  0  0
   -5.9813   21.5187  -31.2766 H   0  0  0  0  0  0  0  0  0  0  0  0
   -8.0921   22.7190  -30.7182 H   0  0  0  0  0  0  0  0  0  0  0  0
   -8.0240   25.1113  -30.0079 H   0  0  0  0  0  0  0  0  0  0  0  0
   -5.8437   26.3132  -29.8822 H   0  0  0  0  0  0  0  0  0  0  0  0
   -5.4305   20.7072  -34.2185 H   0  0  0  0  0  0  0  0  0  0  0  0
   -7.6196   21.5529  -33.3719 H   0  0  0  0  0  0  0  0  0  0  0  0
  1  2  1  0
  2  3  2  0
  3  4  1  0
  4  5  2  0
  5  6  1  0
  6  7  2  0
  6  8  2  0
  6  9  1  0
  9 10  1  0
 10 11  2  0
 11 12  1  0
 12 13  2  0
 13 14  1  0
 14 15  2  0
 15 16  1  0
 16 17  2  0
 16 18  1  0
 18 19  1  0
 19 20  2  0
 20 21  1  0
 21 22  2  0
 22 23  1  0
 23 24  2  0
 24 25  1  0
  5 26  1  0
 26 27  2  0
 27  2  1  0
 15 10  1  0
 24 19  1  0
  1 28  1  0
  1 29  1  0
  1 30  1  0
  3 31  1  0
  4 32  1  0
 11 33  1  0
 12 34  1  0
 13 35  1  0
 14 36  1  0
 20 37  1  0
 21 38  1  0
 22 39  1  0
 23 40  1  0
 26 41  1  0
 27 42  1  0
M  CHG  3   9  -1  18  -1  25  -1
M  END
>  <UniqueID>  (15) 
14

>  <SMILES>  (15) 
Cc1ccc(S(=O)(=O)[N-]c2ccccc2C(=O)[N-]c2ccccc2[O-])cc1

>  <Energy>  (15) 
58.29574256043624

>  <Genealogy>  (15) 
Cc1ccc(S(=O)(=O)[N-]c2ccccc2C(=O)[N-]c2ccccc2[O-])cc1 (protonated)
Cc1ccc(S(=O)(=O)[N-]c2ccccc2C(=O)[N-]c2ccccc2[O-])cc1 (3D coordinates assigned)
Cc1ccc(S(=O)(=O)[N-]c2ccccc2C(=O)[N-]c2ccccc2[O-])cc1 (optimized conformer: 58.29574256043624 kcal/mol)

>  <smiles>  (15) 
Cc1ccc(S(=O)(=O)Nc2ccccc2C(=O)Nc2ccccc2O)cc1

>  <score_type>  (15) 
oracle

>  <origin>  (15) 
adgpu

>  <m_score__min__energy>  (15) 
-13.529999999999999

>  <m_primary>  (15) 
energy

$$$$
15:0
     RDKit          3D

 43 45  0  0  0  0  0  0  0  0999 V2000
   -2.8240   20.5970  -27.3770 C   0  0  0  0  0  0  0  0  0  0  0  0
   -2.5350   21.9840  -27.8700 C   0  0  0  0  0  0  0  0  0  0  0  0
   -1.4140   22.6800  -27.3990 C   0  0  0  0  0  0  0  0  0  0  0  0
   -1.1250   23.9540  -27.8850 C   0  0  0  0  0  0  0  0  0  0  0  0
   -1.9390   24.5460  -28.8570 C   0  0  0  0  0  0  0  0  0  0  0  0
   -1.6020   25.8140  -29.3190 O   0  0  0  0  0  0  0  0  0  0  0  0
   -3.0680   23.8550  -29.3560 C   0  0  0  0  0  0  0  0  0  0  0  0
   -3.9600   24.4430  -30.3920 C   0  0  0  0  0  0  0  0  0  0  0  0
   -4.4060   25.6140  -30.2400 O   0  0  0  0  0  0  0  0  0  0  0  0
   -4.2670   23.7160  -31.5900 N   0  0  0  0  0  0  0  0  0  0  0  0
   -5.2010   22.6340  -31.7190 C   0  0  0  0  0  0  0  0  0  0  0  0
   -6.5020   22.8090  -31.2330 C   0  0  0  0  0  0  0  0  0  0  0  0
   -7.4490   21.7880  -31.3580 C   0  0  0  0  0  0  0  0  0  0  0  0
   -7.1090   20.5850  -31.9890 C   0  0  0  0  0  0  0  0  0  0  0  0
   -8.3140   19.3100  -32.1440 S   0  0  0  0  0  0  0  0  0  0  0  0
   -9.2650   19.6720  -33.2510 O   0  0  0  0  0  0  0  0  0  0  0  0
   -9.0850   19.1720  -30.8600 O   0  0  0  0  0  0  0  0  0  0  0  0
   -7.5170   17.8040  -32.5290 N   0  0  0  0  0  0  0  0  0  0  0  0
   -6.8210   17.8820  -33.8130 C   0  0  0  0  0  0  0  0  0  0  0  0
   -5.6660   16.8950  -33.7430 C   0  0  0  0  0  0  0  0  0  0  0  0
   -5.4580   16.6200  -32.2600 C   0  0  0  0  0  0  0  0  0  0  0  0
   -6.4850   17.4830  -31.5440 C   0  0  0  0  0  0  0  0  0  0  0  0
   -5.8150   20.4130  -32.4990 C   0  0  0  0  0  0  0  0  0  0  0  0
   -4.8670   21.4330  -32.3720 C   0  0  0  0  0  0  0  0  0  0  0  0
   -3.3450   22.5660  -28.8550 C   0  0  0  0  0  0  0  0  0  0  0  0
   -2.8251   20.5917  -26.2770 H   0  0  0  0  0  0  0  0  0  0  0  0
   -3.8087   20.2744  -27.7462 H   0  0  0  0  0  0  0  0  0  0  0  0
   -2.0501   19.9079  -27.7462 H   0  0  0  0  0  0  0  0  0  0  0  0
   -0.7601   22.2198  -26.6436 H   0  0  0  0  0  0  0  0  0  0  0  0
   -0.2497   24.4986  -27.5012 H   0  0  0  0  0  0  0  0  0  0  0  0
   -6.7813   23.7566  -30.7493 H   0  0  0  0  0  0  0  0  0  0  0  0
   -8.4643   21.9302  -30.9594 H   0  0  0  0  0  0  0  0  0  0  0  0
   -7.5035   17.6098  -34.6316 H   0  0  0  0  0  0  0  0  0  0  0  0
   -6.4590   18.9026  -34.0061 H   0  0  0  0  0  0  0  0  0  0  0  0
   -5.9207   15.9663  -34.2745 H   0  0  0  0  0  0  0  0  0  0  0  0
   -4.7571   17.2950  -34.2162 H   0  0  0  0  0  0  0  0  0  0  0  0
   -5.6269   15.5560  -32.0380 H   0  0  0  0  0  0  0  0  0  0  0  0
   -4.4318   16.8529  -31.9397 H   0  0  0  0  0  0  0  0  0  0  0  0
   -6.9238   16.9303  -30.7003 H   0  0  0  0  0  0  0  0  0  0  0  0
   -6.0242   18.3960  -31.1388 H   0  0  0  0  0  0  0  0  0  0  0  0
   -5.5442   19.4724  -33.0009 H   0  0  0  0  0  0  0  0  0  0  0  0
   -3.8563   21.2961  -32.7841 H   0  0  0  0  0  0  0  0  0  0  0  0
   -4.2102   22.0086  -29.2433 H   0  0  0  0  0  0  0  0  0  0  0  0
  1  2  1  0
  2  3  2  0
  3  4  1  0
  4  5  2  0
  5  6  1  0
  5  7  1  0
  7  8  1  0
  8  9  2  0
  8 10  1  0
 10 11  1  0
 11 12  2  0
 12 13  1  0
 13 14  2  0
 14 15  1  0
 15 16  2  0
 15 17  2  0
 15 18  1  0
 18 19  1  0
 19 20  1  0
 20 21  1  0
 21 22  1  0
 14 23  1  0
 23 24  2  0
  7 25  2  0
 25  2  1  0
 24 11  1  0
 22 18  1  0
  1 26  1  0
  1 27  1  0
  1 28  1  0
  3 29  1  0
  4 30  1  0
 12 31  1  0
 13 32  1  0
 19 33  1  0
 19 34  1  0
 20 35  1  0
 20 36  1  0
 21 37  1  0
 21 38  1  0
 22 39  1  0
 22 40  1  0
 23 41  1  0
 24 42  1  0
 25 43  1  0
M  CHG  2   6  -1  10  -1
M  END
>  <UniqueID>  (16) 
15

>  <SMILES>  (16) 
Cc1ccc([O-])c(C(=O)[N-]c2ccc(S(=O)(=O)N3CCCC3)cc2)c1

>  <Energy>  (16) 
50.62303950696278

>  <Genealogy>  (16) 
Cc1ccc([O-])c(C(=O)[N-]c2ccc(S(=O)(=O)N3CCCC3)cc2)c1 (protonated)
Cc1ccc([O-])c(C(=O)[N-]c2ccc(S(=O)(=O)N3CCCC3)cc2)c1 (3D coordinates assigned)
Cc1ccc([O-])c(C(=O)[N-]c2ccc(S(=O)(=O)N3CCCC3)cc2)c1 (nonaromatic ring conformer: 50.62303950696278 kcal/mol)

>  <smiles>  (16) 
Cc1ccc(O)c(C(=O)Nc2ccc(S(=O)(=O)N3CCCC3)cc2)c1

>  <score_type>  (16) 
oracle

>  <origin>  (16) 
adgpu

>  <m_score__min__energy>  (16) 
-13.390000000000001

>  <m_primary>  (16) 
energy

$$$$
16:0
     RDKit          3D

 49 51  0  0  0  0  0  0  0  0999 V2000
   -3.4480   22.2550  -29.2830 C   0  0  0  0  0  0  0  0  0  0  0  0
   -3.7200   23.6660  -29.0100 N   0  0  0  0  0  0  0  0  0  0  0  0
   -2.9880   24.3610  -27.9840 C   0  0  0  0  0  0  0  0  0  0  0  0
   -1.6690   24.7910  -28.2140 C   0  0  0  0  0  0  0  0  0  0  0  0
   -0.9580   25.4620  -27.2150 C   0  0  0  0  0  0  0  0  0  0  0  0
   -1.5500   25.7030  -25.9680 C   0  0  0  0  0  0  0  0  0  0  0  0
   -0.6720   26.5760  -24.7140 S   0  0  0  0  0  0  0  0  0  0  0  0
   -1.6100   26.9450  -23.5970 O   0  0  0  0  0  0  0  0  0  0  0  0
   -0.1150   27.8410  -25.3080 O   0  0  0  0  0  0  0  0  0  0  0  0
    0.6320   25.5870  -24.0990 N   0  0  0  0  0  0  0  0  0  0  0  0
    1.8890   26.3760  -24.0780 C   0  0  0  0  0  0  0  0  0  0  0  0
    3.1250   25.4720  -24.0260 C   0  0  0  0  0  0  0  0  0  0  0  0
    3.2100   24.5780  -25.2750 C   0  0  0  0  0  0  0  0  0  0  0  0
    1.8350   24.3150  -25.9120 C   0  0  0  0  0  0  0  0  0  0  0  0
    0.7250   24.3060  -24.8520 C   0  0  0  0  0  0  0  0  0  0  0  0
   -2.8620   25.2750  -25.7320 C   0  0  0  0  0  0  0  0  0  0  0  0
   -3.5740   24.6050  -26.7300 C   0  0  0  0  0  0  0  0  0  0  0  0
   -4.9710   24.4760  -29.9110 S   0  0  0  0  0  0  0  0  0  0  0  0
   -5.7960   25.3050  -28.9670 O   0  0  0  0  0  0  0  0  0  0  0  0
   -4.3630   25.3740  -30.9540 O   0  0  0  0  0  0  0  0  0  0  0  0
   -5.9750   23.2840  -30.7320 C   0  0  0  0  0  0  0  0  0  0  0  0
   -5.5280   22.6530  -31.9020 C   0  0  0  0  0  0  0  0  0  0  0  0
   -6.3410   21.7120  -32.5440 C   0  0  0  0  0  0  0  0  0  0  0  0
   -7.5990   21.4000  -32.0220 C   0  0  0  0  0  0  0  0  0  0  0  0
   -8.0470   22.0270  -30.8550 C   0  0  0  0  0  0  0  0  0  0  0  0
   -7.2370   22.9670  -30.2100 C   0  0  0  0  0  0  0  0  0  0  0  0
   -3.3432   21.7112  -28.3326 H   0  0  0  0  0  0  0  0  0  0  0  0
   -4.2800   21.8263  -29.8609 H   0  0  0  0  0  0  0  0  0  0  0  0
   -2.5162   22.1663  -29.8609 H   0  0  0  0  0  0  0  0  0  0  0  0
   -1.1934   24.5979  -29.1869 H   0  0  0  0  0  0  0  0  0  0  0  0
    0.0701   25.8021  -27.4084 H   0  0  0  0  0  0  0  0  0  0  0  0
    0.3840   25.3580  -23.1080 H   0  0  0  0  0  0  0  0  0  0  0  0
    1.9373   26.9938  -24.9868 H   0  0  0  0  0  0  0  0  0  0  0  0
    1.8849   27.0034  -23.1745 H   0  0  0  0  0  0  0  0  0  0  0  0
    4.0269   26.0993  -23.9711 H   0  0  0  0  0  0  0  0  0  0  0  0
    3.0487   24.8264  -23.1387 H   0  0  0  0  0  0  0  0  0  0  0  0
    3.8533   25.0719  -26.0181 H   0  0  0  0  0  0  0  0  0  0  0  0
    3.6217   23.6074  -24.9612 H   0  0  0  0  0  0  0  0  0  0  0  0
    1.6229   25.1055  -26.6470 H   0  0  0  0  0  0  0  0  0  0  0  0
    1.8596   23.3290  -26.3991 H   0  0  0  0  0  0  0  0  0  0  0  0
   -0.2370   24.1227  -25.3529 H   0  0  0  0  0  0  0  0  0  0  0  0
    0.9670   23.5143  -24.1276 H   0  0  0  0  0  0  0  0  0  0  0  0
   -3.3340   25.4670  -24.7571 H   0  0  0  0  0  0  0  0  0  0  0  0
   -4.6016   24.2657  -26.5327 H   0  0  0  0  0  0  0  0  0  0  0  0
   -4.5383   22.8977  -32.3151 H   0  0  0  0  0  0  0  0  0  0  0  0
   -5.9890   21.2171  -33.4612 H   0  0  0  0  0  0  0  0  0  0  0  0
   -8.2370   20.6612  -32.5290 H   0  0  0  0  0  0  0  0  0  0  0  0
   -9.0372   21.7806  -30.4441 H   0  0  0  0  0  0  0  0  0  0  0  0
   -7.5906   23.4585  -29.2916 H   0  0  0  0  0  0  0  0  0  0  0  0
  1  2  1  0
  2  3  1  0
  3  4  2  0
  4  5  1  0
  5  6  2  0
  6  7  1  0
  7  8  2  0
  7  9  2  0
  7 10  1  0
 10 11  1  0
 11 12  1  0
 12 13  1  0
 13 14  1  0
 14 15  1  0
  6 16  1  0
 16 17  2  0
  2 18  1  0
 18 19  2  0
 18 20  2  0
 18 21  1  0
 21 22  2  0
 22 23  1  0
 23 24  2  0
 24 25  1  0
 25 26  2  0
 17  3  1  0
 26 21  1  0
 15 10  1  0
  1 27  1  0
  1 28  1  0
  1 29  1  0
  4 30  1  0
  5 31  1  0
 10 32  1  0
 11 33  1  0
 11 34  1  0
 12 35  1  0
 12 36  1  0
 13 37  1  0
 13 38  1  0
 14 39  1  0
 14 40  1  0
 15 41  1  0
 15 42  1  0
 16 43  1  0
 17 44  1  0
 22 45  1  0
 23 46  1  0
 24 47  1  0
 25 48  1  0
 26 49  1  0
M  CHG  1  10   1
M  END
>  <UniqueID>  (17) 
16

>  <SMILES>  (17) 
CN(c1ccc(S(=O)(=O)[NH+]2CCCCC2)cc1)S(=O)(=O)c1ccccc1

>  <Energy>  (17) 
59.38364885395039

>  <Genealogy>  (17) 
CN(c1ccc(S(=O)(=O)[NH+]2CCCCC2)cc1)S(=O)(=O)c1ccccc1 (protonated)
CN(c1ccc(S(=O)(=O)[NH+]2CCCCC2)cc1)S(=O)(=O)c1ccccc1 (3D coordinates assigned)
CN(c1ccc(S(=O)(=O)[NH+]2CCCCC2)cc1)S(=O)(=O)c1ccccc1 (nonaromatic ring conformer: 59.38364885395039 kcal/mol)

>  <smiles>  (17) 
CN(c1ccc(S(=O)(=O)N2CCCCC2)cc1)S(=O)(=O)c1ccccc1

>  <score_type>  (17) 
oracle

>  <origin>  (17) 
adgpu

>  <m_score__min__energy>  (17) 
-9.1199999999999992

>  <m_primary>  (17) 
energy

$$$$
17:0
     RDKit          3D

 45 47  0  0  0  0  0  0  0  0999 V2000
   -7.5540   23.4030  -31.5070 C   0  0  0  0  0  0  0  0  0  0  0  0
   -6.2820   22.6660  -31.8410 C   0  0  0  0  0  0  0  0  0  0  0  0
   -6.3430   21.5700  -32.7190 C   0  0  0  0  0  0  0  0  0  0  0  0
   -5.1870   20.8680  -33.0610 C   0  0  0  0  0  0  0  0  0  0  0  0
   -3.9510   21.2460  -32.5310 C   0  0  0  0  0  0  0  0  0  0  0  0
   -2.4980   20.3660  -32.9980 S   0  0  0  0  0  0  0  0  0  0  0  0
   -2.0730   19.4830  -31.8570 O   0  0  0  0  0  0  0  0  0  0  0  0
   -1.3790   21.3230  -33.3010 O   0  0  0  0  0  0  0  0  0  0  0  0
   -2.8210   19.3800  -34.3910 N   0  0  0  0  0  0  0  0  0  0  0  0
   -2.7710   17.9680  -34.0210 C   0  0  0  0  0  0  0  0  0  0  0  0
   -4.1680   17.4280  -33.9460 C   0  0  0  0  0  0  0  0  0  0  0  0
   -4.4480   16.2780  -33.1940 C   0  0  0  0  0  0  0  0  0  0  0  0
   -5.7450   15.7640  -33.1610 C   0  0  0  0  0  0  0  0  0  0  0  0
   -6.7510   16.3990  -33.8900 C   0  0  0  0  0  0  0  0  0  0  0  0
   -6.4630   17.5030  -34.6290 N   0  0  0  0  0  0  0  0  0  0  0  0
   -5.2070   18.0240  -34.6770 C   0  0  0  0  0  0  0  0  0  0  0  0
   -3.8740   22.3430  -31.6640 C   0  0  0  0  0  0  0  0  0  0  0  0
   -5.0290   23.0620  -31.3130 C   0  0  0  0  0  0  0  0  0  0  0  0
   -4.8750   24.4410  -30.2110 S   0  0  0  0  0  0  0  0  0  0  0  0
   -5.7200   25.5870  -30.6930 O   0  0  0  0  0  0  0  0  0  0  0  0
   -5.3380   24.0260  -28.8420 O   0  0  0  0  0  0  0  0  0  0  0  0
   -3.2130   24.9350  -30.1620 N   0  0  0  0  0  0  0  0  0  0  0  0
   -2.2140   24.5280  -29.2150 C   0  0  0  0  0  0  0  0  0  0  0  0
   -2.1580   23.1690  -28.8760 C   0  0  0  0  0  0  0  0  0  0  0  0
   -1.2160   22.7000  -27.9560 C   0  0  0  0  0  0  0  0  0  0  0  0
   -0.3110   23.5860  -27.3720 C   0  0  0  0  0  0  0  0  0  0  0  0
   -0.3400   24.9400  -27.7140 C   0  0  0  0  0  0  0  0  0  0  0  0
   -1.2770   25.4170  -28.6380 C   0  0  0  0  0  0  0  0  0  0  0  0
   -1.2410   26.7630  -28.9800 O   0  0  0  0  0  0  0  0  0  0  0  0
   -7.6646   23.4671  -30.4144 H   0  0  0  0  0  0  0  0  0  0  0  0
   -7.5125   24.4170  -31.9314 H   0  0  0  0  0  0  0  0  0  0  0  0
   -8.4130   22.8627  -31.9314 H   0  0  0  0  0  0  0  0  0  0  0  0
   -7.3115   21.2629  -33.1405 H   0  0  0  0  0  0  0  0  0  0  0  0
   -5.2490   20.0134  -33.7508 H   0  0  0  0  0  0  0  0  0  0  0  0
   -2.2008   17.4094  -34.7778 H   0  0  0  0  0  0  0  0  0  0  0  0
   -2.2799   17.8595  -33.0427 H   0  0  0  0  0  0  0  0  0  0  0  0
   -3.6451   15.7809  -32.6299 H   0  0  0  0  0  0  0  0  0  0  0  0
   -5.9720   14.8670  -32.5661 H   0  0  0  0  0  0  0  0  0  0  0  0
   -7.7781   16.0059  -33.8667 H   0  0  0  0  0  0  0  0  0  0  0  0
   -5.0055   18.9146  -35.2904 H   0  0  0  0  0  0  0  0  0  0  0  0
   -2.8992   22.6449  -31.2535 H   0  0  0  0  0  0  0  0  0  0  0  0
   -2.8635   22.4636  -29.3393 H   0  0  0  0  0  0  0  0  0  0  0  0
   -1.1885   21.6323  -27.6927 H   0  0  0  0  0  0  0  0  0  0  0  0
    0.4255   23.2186  -26.6422 H   0  0  0  0  0  0  0  0  0  0  0  0
    0.3777   25.6355  -27.2545 H   0  0  0  0  0  0  0  0  0  0  0  0
  1  2  1  0
  2  3  2  0
  3  4  1  0
  4  5  2  0
  5  6  1  0
  6  7  2  0
  6  8  2  0
  6  9  1  0
  9 10  1  0
 10 11  1  0
 11 12  2  0
 12 13  1  0
 13 14  2  0
 14 15  1  0
 15 16  2  0
  5 17  1  0
 17 18  2  0
 18 19  1  0
 19 20  2  0
 19 21  2  0
 19 22  1  0
 22 23  1  0
 23 24  2  0
 24 25  1  0
 25 26  2  0
 26 27  1  0
 27 28  2  0
 28 29  1  0
 18  2  1  0
 28 23  1  0
 16 11  1  0
  1 30  1  0
  1 31  1  0
  1 32  1  0
  3 33  1  0
  4 34  1  0
 10 35  1  0
 10 36  1  0
 12 37  1  0
 13 38  1  0
 14 39  1  0
 16 40  1  0
 17 41  1  0
 24 42  1  0
 25 43  1  0
 26 44  1  0
 27 45  1  0
M  CHG  3   9  -1  22  -1  29  -1
M  END
>  <UniqueID>  (18) 
17

>  <SMILES>  (18) 
Cc1ccc(S(=O)(=O)[N-]Cc2cccnc2)cc1S(=O)(=O)[N-]c1ccccc1[O-]

>  <Energy>  (18) 
54.93471150204573

>  <Genealogy>  (18) 
Cc1ccc(S(=O)(=O)[N-]Cc2cccnc2)cc1S(=O)(=O)[N-]c1ccccc1[O-] (protonated)
Cc1ccc(S(=O)(=O)[N-]Cc2cccnc2)cc1S(=O)(=O)[N-]c1ccccc1[O-] (3D coordinates assigned)
Cc1ccc(S(=O)(=O)[N-]Cc2cccnc2)cc1S(=O)(=O)[N-]c1ccccc1[O-] (optimized conformer: 54.93471150204573 kcal/mol)

>  <smiles>  (18) 
Cc1ccc(S(=O)(=O)NCc2cccnc2)cc1S(=O)(=O)Nc1ccccc1O

>  <score_type>  (18) 
oracle

>  <origin>  (18) 
adgpu

>  <m_score__min__energy>  (18) 
-13.59

>  <m_primary>  (18) 
energy

$$$$
18:0
     RDKit          3D

 59 62  0  0  1  0  0  0  0  0999 V2000
   -6.1710   25.3030  -29.8720 C   0  0  0  0  0  0  0  0  0  0  0  0
   -5.7640   24.6720  -31.0420 O   0  0  0  0  0  0  0  0  0  0  0  0
   -5.3090   23.3780  -31.1680 C   0  0  0  0  0  0  0  0  0  0  0  0
   -6.1680   22.3650  -31.5120 C   0  0  0  0  0  0  0  0  0  0  0  0
   -5.7220   21.0540  -31.6430 C   0  0  0  0  0  0  0  0  0  0  0  0
   -6.7290   20.0710  -32.0170 C   0  0  0  0  0  0  0  0  0  0  0  0
   -7.9330   20.5040  -32.0300 O   0  0  0  0  0  0  0  0  0  0  0  0
   -6.4390   18.7270  -32.3470 N   0  0  0  0  0  0  0  0  0  0  0  0
   -5.1030   18.1680  -32.3610 C   0  0  0  0  0  0  0  0  0  0  0  0
   -4.8370   17.6460  -33.7520 C   0  0  0  0  0  0  0  0  0  0  0  0
   -5.9810   17.4190  -34.4700 O   0  0  0  0  0  0  0  0  0  0  0  0
   -7.0360   16.8840  -33.7400 C   0  0  0  0  0  0  0  0  0  0  0  0
   -7.5420   17.8430  -32.6900 C   0  0  0  0  0  0  0  0  0  0  0  0
   -4.3970   20.7630  -31.4240 C   0  0  0  0  0  0  0  0  0  0  0  0
   -3.4880   21.7710  -31.0710 C   0  0  0  0  0  0  0  0  0  0  0  0
   -3.9630   23.0520  -30.9510 C   0  0  0  0  0  0  0  0  0  0  0  0
   -3.1370   24.1730  -30.6020 N   0  0  0  0  0  0  0  0  0  0  0  0
   -2.6770   24.3150  -29.4000 C   0  0  0  0  0  0  0  0  0  0  0  0
   -3.0440   23.3330  -28.5260 N   0  0  0  0  0  0  0  0  0  0  0  0
   -2.5790   23.4120  -27.2580 C   0  0  0  0  0  0  0  0  0  0  0  0
   -1.7680   24.4310  -26.8340 C   0  0  0  0  0  0  0  0  0  0  0  0
   -1.1950   24.5060  -25.2100 Cl  0  0  0  0  0  0  0  0  0  0  0  0
   -1.4190   25.4020  -27.7400 C   0  0  0  0  0  0  0  0  0  0  0  0
   -0.6580   26.3870  -27.4760 N   0  0  0  0  0  0  0  0  0  0  0  0
   -0.0780   26.5950  -26.2040 C   0  0  0  0  0  0  0  0  0  0  0  0
   -0.8500   27.3330  -25.2940 C   0  0  0  0  0  0  0  0  0  0  0  0
   -0.3880   27.5640  -23.9980 C   0  0  0  0  0  0  0  0  0  0  0  0
    0.8560   27.0500  -23.6220 C   0  0  0  0  0  0  0  0  0  0  0  0
    1.6090   26.3200  -24.5430 C   0  0  0  0  0  0  0  0  0  0  0  0
    1.1540   26.0890  -25.8260 C   0  0  0  0  0  0  0  0  0  0  0  0
    2.0560   25.1850  -27.0150 S   0  0  0  0  0  0  0  0  0  0  0  0
    3.2820   26.1870  -27.8100 C   0  0  0  0  0  0  0  0  0  0  0  0
    2.7170   23.9900  -26.4280 O   0  0  0  0  0  0  0  0  0  0  0  0
    1.0850   24.7070  -28.0700 O   0  0  0  0  0  0  0  0  0  0  0  0
   -1.8850   25.3300  -29.0220 N   0  0  0  0  0  0  0  0  0  0  0  0
   -5.8052   24.7360  -29.0033 H   0  0  0  0  0  0  0  0  0  0  0  0
   -5.7601   26.3230  -29.8435 H   0  0  0  0  0  0  0  0  0  0  0  0
   -7.2697   25.3493  -29.8435 H   0  0  0  0  0  0  0  0  0  0  0  0
   -7.2295   22.5939  -31.6875 H   0  0  0  0  0  0  0  0  0  0  0  0
   -4.3687   18.9465  -32.1065 H   0  0  0  0  0  0  0  0  0  0  0  0
   -5.0176   17.3569  -31.6229 H   0  0  0  0  0  0  0  0  0  0  0  0
   -4.2259   18.3844  -34.2918 H   0  0  0  0  0  0  0  0  0  0  0  0
   -4.3200   16.6808  -33.6461 H   0  0  0  0  0  0  0  0  0  0  0  0
   -7.8595   16.6454  -34.4291 H   0  0  0  0  0  0  0  0  0  0  0  0
   -6.6710   15.9816  -33.2277 H   0  0  0  0  0  0  0  0  0  0  0  0
   -8.3839   18.4281  -33.0885 H   0  0  0  0  0  0  0  0  0  0  0  0
   -7.8963   17.2985  -31.8023 H   0  0  0  0  0  0  0  0  0  0  0  0
   -4.0447   19.7260  -31.5269 H   0  0  0  0  0  0  0  0  0  0  0  0
   -2.4266   21.5412  -30.8958 H   0  0  0  0  0  0  0  0  0  0  0  0
   -3.6610   22.5420  -28.8060 H   0  0  0  0  0  0  0  0  0  0  0  0
   -2.8630   22.6282  -26.5404 H   0  0  0  0  0  0  0  0  0  0  0  0
   -1.8267   27.7324  -25.6047 H   0  0  0  0  0  0  0  0  0  0  0  0
   -0.9932   28.1414  -23.2836 H   0  0  0  0  0  0  0  0  0  0  0  0
    1.2398   27.2199  -22.6052 H   0  0  0  0  0  0  0  0  0  0  0  0
    2.5876   25.9195  -24.2397 H   0  0  0  0  0  0  0  0  0  0  0  0
    3.8960   26.6888  -27.0477 H   0  0  0  0  0  0  0  0  0  0  0  0
    3.9239   25.5517  -28.4379 H   0  0  0  0  0  0  0  0  0  0  0  0
    2.7872   26.9426  -28.4379 H   0  0  0  0  0  0  0  0  0  0  0  0
   -1.6410   26.0490  -29.7390 H   0  0  0  0  0  0  0  0  0  0  0  0
  1  2  1  0
  2  3  1  0
  3  4  2  0
  4  5  1  0
  5  6  1  0
  6  7  2  0
  6  8  1  0
  8  9  1  0
  9 10  1  0
 10 11  1  0
 11 12  1  0
 12 13  1  0
  5 14  2  0
 14 15  1  0
 15 16  2  0
 16 17  1  0
 17 18  2  0
 18 19  1  0
 19 20  1  0
 20 21  2  0
 21 22  1  0
 21 23  1  0
 23 24  2  0
 24 25  1  0
 25 26  2  0
 26 27  1  0
 27 28  2  0
 28 29  1  0
 29 30  2  0
 30 31  1  0
 31 32  1  0
 31 33  2  0
 31 34  2  0
 23 35  1  0
 16  3  1  0
 35 18  1  0
 13  8  1  0
 30 25  1  0
  1 36  1  0
  1 37  1  0
  1 38  1  0
  4 39  1  0
  9 40  1  0
  9 41  1  0
 10 42  1  0
 10 43  1  0
 12 44  1  0
 12 45  1  0
 13 46  1  0
 13 47  1  0
 14 48  1  0
 15 49  1  0
 19 50  1  0
 20 51  1  0
 26 52  1  0
 27 53  1  0
 28 54  1  0
 29 55  1  0
 32 56  1  0
 32 57  1  0
 32 58  1  0
 35 59  1  0
M  END
>  <smiles>  (19) 
COc1cc(C(=O)N2CCOCC2)ccc1N=c1[nH]cc(Cl)c(=Nc2ccccc2S(C)(=O)=O)[nH]1

>  <score_type>  (19) 
oracle

>  <origin>  (19) 
adgpu

>  <m_score__min__energy>  (19) 
-10.56

>  <m_primary>  (19) 
energy

$$$$
19:0
     RDKit          3D

 66 69  0  0  0  0  0  0  0  0999 V2000
    1.0210   18.1530  -39.2570 C   0  0  0  0  0  0  0  0  0  0  0  0
    1.2270   17.4300  -37.9280 C   0  0  0  0  0  0  0  0  0  0  0  0
    0.6930   18.2520  -36.7780 C   0  0  0  0  0  0  0  0  0  0  0  0
    0.7540   19.6550  -36.8740 C   0  0  0  0  0  0  0  0  0  0  0  0
    0.2780   20.4610  -35.8410 C   0  0  0  0  0  0  0  0  0  0  0  0
   -0.2690   19.8810  -34.6990 C   0  0  0  0  0  0  0  0  0  0  0  0
   -0.3530   18.4930  -34.5910 C   0  0  0  0  0  0  0  0  0  0  0  0
    0.1130   17.6560  -35.6250 C   0  0  0  0  0  0  0  0  0  0  0  0
   -0.0300   16.2230  -35.5240 N   0  0  0  0  0  0  0  0  0  0  0  0
   -1.5510   15.3940  -35.6260 S   0  0  0  0  0  0  0  0  0  0  0  0
   -1.8820   15.1490  -37.0710 O   0  0  0  0  0  0  0  0  0  0  0  0
   -1.4450   14.0640  -34.9300 O   0  0  0  0  0  0  0  0  0  0  0  0
   -2.8150   16.3850  -34.9060 C   0  0  0  0  0  0  0  0  0  0  0  0
   -2.7960   16.6960  -33.5400 C   0  0  0  0  0  0  0  0  0  0  0  0
   -3.7990   17.4970  -32.9880 C   0  0  0  0  0  0  0  0  0  0  0  0
   -4.8470   17.9840  -33.7910 C   0  0  0  0  0  0  0  0  0  0  0  0
   -5.8720   18.8320  -33.2390 N   0  0  0  0  0  0  0  0  0  0  0  0
   -6.9560   18.2490  -32.7220 N   0  0  0  0  0  0  0  0  0  0  0  0
   -7.9890   18.9520  -32.1870 C   0  0  0  0  0  0  0  0  0  0  0  0
   -9.1580   18.1880  -31.6360 C   0  0  0  0  0  0  0  0  0  0  0  0
   -7.9250   20.3610  -32.1650 C   0  0  0  0  0  0  0  0  0  0  0  0
   -9.0700   21.2080  -31.6470 C   0  0  0  0  0  0  0  0  0  0  0  0
   -8.6780   21.9140  -30.3510 C   0  0  0  0  0  0  0  0  0  0  0  0
   -6.7940   20.9840  -32.7160 C   0  0  0  0  0  0  0  0  0  0  0  0
   -6.7070   22.3840  -32.7280 O   0  0  0  0  0  0  0  0  0  0  0  0
   -5.8160   23.1350  -31.9460 C   0  0  0  0  0  0  0  0  0  0  0  0
   -6.1640   24.3870  -31.4050 C   0  0  0  0  0  0  0  0  0  0  0  0
   -5.2560   25.0850  -30.6030 C   0  0  0  0  0  0  0  0  0  0  0  0
   -3.9900   24.5390  -30.3200 C   0  0  0  0  0  0  0  0  0  0  0  0
   -3.0500   25.1940  -29.5080 O   0  0  0  0  0  0  0  0  0  0  0  0
   -2.4260   24.6060  -28.3710 C   0  0  0  0  0  0  0  0  0  0  0  0
   -3.6480   23.2970  -30.8650 C   0  0  0  0  0  0  0  0  0  0  0  0
   -4.5550   22.5980  -31.6680 C   0  0  0  0  0  0  0  0  0  0  0  0
   -5.7510   20.1970  -33.2250 C   0  0  0  0  0  0  0  0  0  0  0  0
   -4.6940   20.7530  -33.6350 O   0  0  0  0  0  0  0  0  0  0  0  0
   -4.8510   17.6800  -35.1620 C   0  0  0  0  0  0  0  0  0  0  0  0
   -3.8440   16.8830  -35.7130 C   0  0  0  0  0  0  0  0  0  0  0  0
    0.7242   19.1947  -39.0655 H   0  0  0  0  0  0  0  0  0  0  0  0
    1.9590   18.1387  -39.8315 H   0  0  0  0  0  0  0  0  0  0  0  0
    0.2314   17.6464  -39.8315 H   0  0  0  0  0  0  0  0  0  0  0  0
    0.6987   16.4656  -37.9571 H   0  0  0  0  0  0  0  0  0  0  0  0
    2.3052   17.2733  -37.7768 H   0  0  0  0  0  0  0  0  0  0  0  0
    1.1820   20.1205  -37.7741 H   0  0  0  0  0  0  0  0  0  0  0  0
    0.3345   21.5561  -35.9279 H   0  0  0  0  0  0  0  0  0  0  0  0
   -0.6354   20.5186  -33.8809 H   0  0  0  0  0  0  0  0  0  0  0  0
   -0.7892   18.0451  -33.6859 H   0  0  0  0  0  0  0  0  0  0  0  0
    0.8070   15.6180  -35.3730 H   0  0  0  0  0  0  0  0  0  0  0  0
   -1.9893   16.3085  -32.9004 H   0  0  0  0  0  0  0  0  0  0  0  0
   -3.7692   17.7488  -31.9176 H   0  0  0  0  0  0  0  0  0  0  0  0
   -9.1249   18.2096  -30.5367 H   0  0  0  0  0  0  0  0  0  0  0  0
  -10.0942   18.6491  -31.9838 H   0  0  0  0  0  0  0  0  0  0  0  0
   -9.1115   17.1455  -31.9838 H   0  0  0  0  0  0  0  0  0  0  0  0
   -9.3320   21.9622  -32.4037 H   0  0  0  0  0  0  0  0  0  0  0  0
   -9.9306   20.5531  -31.4458 H   0  0  0  0  0  0  0  0  0  0  0  0
   -9.0112   21.3140  -29.4914 H   0  0  0  0  0  0  0  0  0  0  0  0
   -7.5850   22.0323  -30.3140 H   0  0  0  0  0  0  0  0  0  0  0  0
   -9.1555   22.9043  -30.3140 H   0  0  0  0  0  0  0  0  0  0  0  0
   -7.1542   24.8180  -31.6140 H   0  0  0  0  0  0  0  0  0  0  0  0
   -5.5327   26.0666  -30.1908 H   0  0  0  0  0  0  0  0  0  0  0  0
   -2.8680   25.0225  -27.4538 H   0  0  0  0  0  0  0  0  0  0  0  0
   -2.5800   23.5170  -28.3904 H   0  0  0  0  0  0  0  0  0  0  0  0
   -1.3481   24.8243  -28.3904 H   0  0  0  0  0  0  0  0  0  0  0  0
   -2.6568   22.8662  -30.6602 H   0  0  0  0  0  0  0  0  0  0  0  0
   -4.2745   21.6190  -32.0838 H   0  0  0  0  0  0  0  0  0  0  0  0
   -5.6519   18.0717  -35.8063 H   0  0  0  0  0  0  0  0  0  0  0  0
   -3.8603   16.6458  -36.7870 H   0  0  0  0  0  0  0  0  0  0  0  0
  1  2  1  0
  2  3  1  0
  3  4  2  0
  4  5  1  0
  5  6  2  0
  6  7  1  0
  7  8  2  0
  8  9  1  0
  9 10  1  0
 10 11  2  0
 10 12  2  0
 10 13  1  0
 13 14  2  0
 14 15  1  0
 15 16  2  0
 16 17  1  0
 17 18  1  0
 18 19  2  0
 19 20  1  0
 19 21  1  0
 21 22  1  0
 22 23  1  0
 21 24  2  0
 24 25  1  0
 25 26  1  0
 26 27  2  0
 27 28  1  0
 28 29  2  0
 29 30  1  0
 30 31  1  0
 29 32  1  0
 32 33  2  0
 24 34  1  0
 34 35  2  0
 16 36  1  0
 36 37  2  0
  8  3  1  0
 37 13  1  0
 34 17  1  0
 33 26  1  0
  1 38  1  0
  1 39  1  0
  1 40  1  0
  2 41  1  0
  2 42  1  0
  4 43  1  0
  5 44  1  0
  6 45  1  0
  7 46  1  0
  9 47  1  0
 14 48  1  0
 15 49  1  0
 20 50  1  0
 20 51  1  0
 20 52  1  0
 22 53  1  0
 22 54  1  0
 23 55  1  0
 23 56  1  0
 23 57  1  0
 27 58  1  0
 28 59  1  0
 31 60  1  0
 31 61  1  0
 31 62  1  0
 32 63  1  0
 33 64  1  0
 36 65  1  0
 37 66  1  0
M  END
>  <UniqueID>  (20) 
18

>  <SMILES>  (20) 
CCc1ccccc1NS(=O)(=O)c1ccc(-n2nc(C)c(CC)c(Oc3ccc(OC)cc3)c2=O)cc1

>  <Energy>  (20) 
84.74999771591975

>  <Genealogy>  (20) 
CCc1ccccc1NS(=O)(=O)c1ccc(-n2nc(C)c(CC)c(Oc3ccc(OC)cc3)c2=O)cc1 (3D coordinates assigned)
CCc1ccccc1NS(=O)(=O)c1ccc(-n2nc(C)c(CC)c(Oc3ccc(OC)cc3)c2=O)cc1 (optimized conformer: 84.74999771591975 kcal/mol)

>  <smiles>  (20) 
CCc1ccccc1NS(=O)(=O)c1ccc(-n2nc(C)c(CC)c(Oc3ccc(OC)cc3)c2=O)cc1

>  <score_type>  (20) 
oracle

>  <origin>  (20) 
adgpu

>  <m_score__min__energy>  (20) 
-10.529999999999999

>  <m_primary>  (20) 
energy

$$$$
20:0
     RDKit          3D

 62 65  0  0  0  0  0  0  0  0999 V2000
   -1.2200   25.3550  -28.9690 O   0  0  0  0  0  0  0  0  0  0  0  0
   -2.4840   24.5490  -28.8670 S   0  0  0  0  0  0  0  0  0  0  0  0
   -3.1720   24.9220  -27.5840 O   0  0  0  0  0  0  0  0  0  0  0  0
   -3.4820   24.9160  -30.2390 N   0  0  0  0  0  0  0  0  0  0  0  0
   -4.6930   24.2300  -30.5830 C   0  0  0  0  0  0  0  0  0  0  0  0
   -4.8200   22.8750  -30.2480 C   0  0  0  0  0  0  0  0  0  0  0  0
   -5.9990   22.1800  -30.5370 C   0  0  0  0  0  0  0  0  0  0  0  0
   -7.0560   22.8290  -31.1900 C   0  0  0  0  0  0  0  0  0  0  0  0
   -8.5520   21.9560  -31.5160 S   0  0  0  0  0  0  0  0  0  0  0  0
   -9.6180   22.9240  -31.9500 O   0  0  0  0  0  0  0  0  0  0  0  0
   -8.9910   21.2930  -30.2400 O   0  0  0  0  0  0  0  0  0  0  0  0
   -8.2780   20.7420  -32.7500 N   0  0  0  0  0  0  0  0  0  0  0  0
   -9.2870   19.6620  -32.7390 C   0  0  0  0  0  0  0  0  0  0  0  0
   -9.0460   18.6160  -31.6390 C   0  0  0  0  0  0  0  0  0  0  0  0
   -7.6190   18.0720  -31.7080 C   0  0  0  0  0  0  0  0  0  0  0  0
   -6.6050   19.2150  -31.6580 C   0  0  0  0  0  0  0  0  0  0  0  0
   -6.8860   20.2430  -32.7650 C   0  0  0  0  0  0  0  0  0  0  0  0
   -6.9190   24.1740  -31.5630 C   0  0  0  0  0  0  0  0  0  0  0  0
   -5.7420   24.8680  -31.2690 C   0  0  0  0  0  0  0  0  0  0  0  0
   -2.0860   22.8310  -28.8820 C   0  0  0  0  0  0  0  0  0  0  0  0
   -2.1930   22.0660  -27.7110 C   0  0  0  0  0  0  0  0  0  0  0  0
   -1.8100   20.7210  -27.7110 C   0  0  0  0  0  0  0  0  0  0  0  0
   -1.3060   20.1350  -28.8760 C   0  0  0  0  0  0  0  0  0  0  0  0
   -1.1950   20.8900  -30.0520 C   0  0  0  0  0  0  0  0  0  0  0  0
   -0.5300   20.1610  -31.5180 S   0  0  0  0  0  0  0  0  0  0  0  0
   -0.3250   18.6890  -31.2910 O   0  0  0  0  0  0  0  0  0  0  0  0
    0.8100   20.7780  -31.8100 O   0  0  0  0  0  0  0  0  0  0  0  0
   -1.5920   20.3920  -32.8890 N   0  0  0  0  0  0  0  0  0  0  0  0
   -1.5170   19.2530  -33.8380 C   0  0  0  0  0  0  0  0  0  0  0  0
   -2.7190   18.2990  -33.7300 C   0  0  0  0  0  0  0  0  0  0  0  0
   -4.0450   19.0420  -33.9730 C   0  0  0  0  0  0  0  0  0  0  0  0
   -3.9900   20.5180  -33.5420 C   0  0  0  0  0  0  0  0  0  0  0  0
   -2.9580   20.7270  -32.4290 C   0  0  0  0  0  0  0  0  0  0  0  0
   -1.5950   22.2330  -30.0520 C   0  0  0  0  0  0  0  0  0  0  0  0
   -3.9864   22.3543  -29.7542 H   0  0  0  0  0  0  0  0  0  0  0  0
   -6.0969   21.1223  -30.2513 H   0  0  0  0  0  0  0  0  0  0  0  0
  -10.2784   20.1120  -32.5817 H   0  0  0  0  0  0  0  0  0  0  0  0
   -9.2169   19.1408  -33.7052 H   0  0  0  0  0  0  0  0  0  0  0  0
   -9.2064   19.0832  -30.6562 H   0  0  0  0  0  0  0  0  0  0  0  0
   -9.7480   17.7821  -31.7866 H   0  0  0  0  0  0  0  0  0  0  0  0
   -7.4471   17.3986  -30.8554 H   0  0  0  0  0  0  0  0  0  0  0  0
   -7.4925   17.5266  -32.6549 H   0  0  0  0  0  0  0  0  0  0  0  0
   -6.6703   19.7124  -30.6790 H   0  0  0  0  0  0  0  0  0  0  0  0
   -5.5979   18.7996  -31.8102 H   0  0  0  0  0  0  0  0  0  0  0  0
   -6.2059   21.0971  -32.6311 H   0  0  0  0  0  0  0  0  0  0  0  0
   -6.7273   19.7393  -33.7299 H   0  0  0  0  0  0  0  0  0  0  0  0
   -7.7400   24.6840  -32.0883 H   0  0  0  0  0  0  0  0  0  0  0  0
   -5.6355   25.9190  -31.5758 H   0  0  0  0  0  0  0  0  0  0  0  0
   -2.5796   22.5257  -26.7895 H   0  0  0  0  0  0  0  0  0  0  0  0
   -1.9055   20.1230  -26.7927 H   0  0  0  0  0  0  0  0  0  0  0  0
   -0.9960   19.0796  -28.8699 H   0  0  0  0  0  0  0  0  0  0  0  0
   -1.4776   19.6524  -34.8622 H   0  0  0  0  0  0  0  0  0  0  0  0
   -0.6153   18.6751  -33.5870 H   0  0  0  0  0  0  0  0  0  0  0  0
   -2.6123   17.5015  -34.4800 H   0  0  0  0  0  0  0  0  0  0  0  0
   -2.7379   17.8772  -32.7142 H   0  0  0  0  0  0  0  0  0  0  0  0
   -4.2807   18.9981  -35.0466 H   0  0  0  0  0  0  0  0  0  0  0  0
   -4.8172   18.5483  -33.3647 H   0  0  0  0  0  0  0  0  0  0  0  0
   -3.7139   21.1359  -34.4092 H   0  0  0  0  0  0  0  0  0  0  0  0
   -4.9801   20.8089  -33.1610 H   0  0  0  0  0  0  0  0  0  0  0  0
   -2.9809   21.7804  -32.1130 H   0  0  0  0  0  0  0  0  0  0  0  0
   -3.2136   20.0622  -31.5907 H   0  0  0  0  0  0  0  0  0  0  0  0
   -1.5233   22.8233  -30.9774 H   0  0  0  0  0  0  0  0  0  0  0  0
  1  2  2  0
  2  3  2  0
  2  4  1  0
  4  5  1  0
  5  6  2  0
  6  7  1  0
  7  8  2  0
  8  9  1  0
  9 10  2  0
  9 11  2  0
  9 12  1  0
 12 13  1  0
 13 14  1  0
 14 15  1  0
 15 16  1  0
 16 17  1  0
  8 18  1  0
 18 19  2  0
  2 20  1  0
 20 21  2  0
 21 22  1  0
 22 23  2  0
 23 24  1  0
 24 25  1  0
 25 26  2  0
 25 27  2  0
 25 28  1  0
 28 29  1  0
 29 30  1  0
 30 31  1  0
 31 32  1  0
 32 33  1  0
 24 34  2  0
 19  5  1  0
 34 20  1  0
 17 12  1  0
 33 28  1  0
  6 35  1  0
  7 36  1  0
 13 37  1  0
 13 38  1  0
 14 39  1  0
 14 40  1  0
 15 41  1  0
 15 42  1  0
 16 43  1  0
 16 44  1  0
 17 45  1  0
 17 46  1  0
 18 47  1  0
 19 48  1  0
 21 49  1  0
 22 50  1  0
 23 51  1  0
 29 52  1  0
 29 53  1  0
 30 54  1  0
 30 55  1  0
 31 56  1  0
 31 57  1  0
 32 58  1  0
 32 59  1  0
 33 60  1  0
 33 61  1  0
 34 62  1  0
M  CHG  1   4  -1
M  END
>  <UniqueID>  (21) 
19

>  <SMILES>  (21) 
O=S(=O)([N-]c1ccc(S(=O)(=O)N2CCCCC2)cc1)c1cccc(S(=O)(=O)N2CCCCC2)c1

>  <Energy>  (21) 
72.9280902584415

>  <Genealogy>  (21) 
O=S(=O)([N-]c1ccc(S(=O)(=O)N2CCCCC2)cc1)c1cccc(S(=O)(=O)N2CCCCC2)c1 (protonated)
O=S(=O)([N-]c1ccc(S(=O)(=O)N2CCCCC2)cc1)c1cccc(S(=O)(=O)N2CCCCC2)c1 (3D coordinates assigned)
O=S(=O)([N-]c1ccc(S(=O)(=O)N2CCCCC2)cc1)c1cccc(S(=O)(=O)N2CCCCC2)c1 (nonaromatic ring conformer: 72.9280902584415 kcal/mol)

>  <smiles>  (21) 
O=S(=O)(Nc1ccc(S(=O)(=O)N2CCCCC2)cc1)c1cccc(S(=O)(=O)N2CCCCC2)c1

>  <score_type>  (21) 
oracle

>  <origin>  (21) 
adgpu

>  <m_score__min__energy>  (21) 
-13.039999999999999

>  <m_primary>  (21) 
energy

$$$$
21:0
     RDKit          3D

 47 50  0  0  0  0  0  0  0  0999 V2000
   -6.8920   15.3270  -34.5760 C   0  0  0  0  0  0  0  0  0  0  0  0
   -7.4200   16.0440  -33.4640 O   0  0  0  0  0  0  0  0  0  0  0  0
   -6.9250   17.2740  -32.9980 C   0  0  0  0  0  0  0  0  0  0  0  0
   -7.7840   18.3430  -32.6800 C   0  0  0  0  0  0  0  0  0  0  0  0
   -7.2690   19.5480  -32.1990 C   0  0  0  0  0  0  0  0  0  0  0  0
   -5.8870   19.7170  -32.0390 C   0  0  0  0  0  0  0  0  0  0  0  0
   -5.3370   20.9870  -31.5040 C   0  0  0  0  0  0  0  0  0  0  0  0
   -6.1150   22.1600  -31.5220 C   0  0  0  0  0  0  0  0  0  0  0  0
   -5.6060   23.3600  -31.0210 C   0  0  0  0  0  0  0  0  0  0  0  0
   -4.3090   23.4110  -30.4950 C   0  0  0  0  0  0  0  0  0  0  0  0
   -3.7890   24.6130  -29.9890 C   0  0  0  0  0  0  0  0  0  0  0  0
   -2.4930   24.6520  -29.4640 C   0  0  0  0  0  0  0  0  0  0  0  0
   -1.9820   25.8440  -28.9640 O   0  0  0  0  0  0  0  0  0  0  0  0
   -1.7100   23.4940  -29.4410 C   0  0  0  0  0  0  0  0  0  0  0  0
   -2.2170   22.2920  -29.9420 C   0  0  0  0  0  0  0  0  0  0  0  0
   -3.5160   22.2400  -30.4710 C   0  0  0  0  0  0  0  0  0  0  0  0
   -4.0340   21.0370  -30.9770 C   0  0  0  0  0  0  0  0  0  0  0  0
   -5.0270   18.6600  -32.3790 C   0  0  0  0  0  0  0  0  0  0  0  0
   -5.5340   17.4300  -32.8360 C   0  0  0  0  0  0  0  0  0  0  0  0
   -4.6500   16.3320  -33.1370 N   0  0  0  0  0  0  0  0  0  0  0  0
   -3.1920   16.5050  -34.0640 S   0  0  0  0  0  0  0  0  0  0  0  0
   -2.2980   15.3240  -33.8110 O   0  0  0  0  0  0  0  0  0  0  0  0
   -3.5420   16.5520  -35.5240 O   0  0  0  0  0  0  0  0  0  0  0  0
   -2.3380   17.9690  -33.5800 C   0  0  0  0  0  0  0  0  0  0  0  0
   -2.6110   19.1810  -34.2300 C   0  0  0  0  0  0  0  0  0  0  0  0
   -1.9060   20.3380  -33.8840 C   0  0  0  0  0  0  0  0  0  0  0  0
   -0.9280   20.2910  -32.8850 C   0  0  0  0  0  0  0  0  0  0  0  0
   -0.2430   21.4140  -32.5560 F   0  0  0  0  0  0  0  0  0  0  0  0
   -0.6570   19.0850  -32.2290 C   0  0  0  0  0  0  0  0  0  0  0  0
    0.2930   19.0360  -31.2640 F   0  0  0  0  0  0  0  0  0  0  0  0
   -1.3600   17.9270  -32.5750 C   0  0  0  0  0  0  0  0  0  0  0  0
   -6.2761   14.4906  -34.2140 H   0  0  0  0  0  0  0  0  0  0  0  0
   -7.7193   14.9358  -35.1863 H   0  0  0  0  0  0  0  0  0  0  0  0
   -6.2729   16.0010  -35.1863 H   0  0  0  0  0  0  0  0  0  0  0  0
   -8.8700   18.2278  -32.8116 H   0  0  0  0  0  0  0  0  0  0  0  0
   -7.9529   20.3709  -31.9437 H   0  0  0  0  0  0  0  0  0  0  0  0
   -7.1342   22.1311  -31.9349 H   0  0  0  0  0  0  0  0  0  0  0  0
   -6.2260   24.2685  -31.0396 H   0  0  0  0  0  0  0  0  0  0  0  0
   -4.4021   25.5261  -30.0054 H   0  0  0  0  0  0  0  0  0  0  0  0
   -0.6914   23.5292  -29.0272 H   0  0  0  0  0  0  0  0  0  0  0  0
   -1.5963   21.3841  -29.9217 H   0  0  0  0  0  0  0  0  0  0  0  0
   -3.4162   20.1270  -30.9611 H   0  0  0  0  0  0  0  0  0  0  0  0
   -3.9394   18.7962  -32.2864 H   0  0  0  0  0  0  0  0  0  0  0  0
   -4.8150   15.3990  -32.6980 H   0  0  0  0  0  0  0  0  0  0  0  0
   -3.3816   19.2218  -35.0139 H   0  0  0  0  0  0  0  0  0  0  0  0
   -2.1208   21.2864  -34.3981 H   0  0  0  0  0  0  0  0  0  0  0  0
   -1.1456   16.9802  -32.0577 H   0  0  0  0  0  0  0  0  0  0  0  0
  1  2  1  0
  2  3  1  0
  3  4  2  0
  4  5  1  0
  5  6  2  0
  6  7  1  0
  7  8  2  0
  8  9  1  0
  9 10  2  0
 10 11  1  0
 11 12  2  0
 12 13  1  0
 12 14  1  0
 14 15  2  0
 15 16  1  0
 16 17  2  0
  6 18  1  0
 18 19  2  0
 19 20  1  0
 20 21  1  0
 21 22  2  0
 21 23  2  0
 21 24  1  0
 24 25  2  0
 25 26  1  0
 26 27  2  0
 27 28  1  0
 27 29  1  0
 29 30  1  0
 29 31  2  0
 19  3  1  0
 31 24  1  0
 17  7  1  0
 16 10  1  0
  1 32  1  0
  1 33  1  0
  1 34  1  0
  4 35  1  0
  5 36  1  0
  8 37  1  0
  9 38  1  0
 11 39  1  0
 14 40  1  0
 15 41  1  0
 17 42  1  0
 18 43  1  0
 20 44  1  0
 25 45  1  0
 26 46  1  0
 31 47  1  0
M  CHG  1  13  -1
M  END
>  <UniqueID>  (22) 
20

>  <SMILES>  (22) 
COc1ccc(-c2ccc3cc([O-])ccc3c2)cc1NS(=O)(=O)c1ccc(F)c(F)c1

>  <Energy>  (22) 
61.81509757956868

>  <Genealogy>  (22) 
COc1ccc(-c2ccc3cc([O-])ccc3c2)cc1NS(=O)(=O)c1ccc(F)c(F)c1 (protonated)
COc1ccc(-c2ccc3cc([O-])ccc3c2)cc1NS(=O)(=O)c1ccc(F)c(F)c1 (3D coordinates assigned)
COc1ccc(-c2ccc3cc([O-])ccc3c2)cc1NS(=O)(=O)c1ccc(F)c(F)c1 (optimized conformer: 61.81509757956868 kcal/mol)

>  <smiles>  (22) 
COc1ccc(-c2ccc3cc(O)ccc3c2)cc1NS(=O)(=O)c1ccc(F)c(F)c1

>  <score_type>  (22) 
oracle

>  <origin>  (22) 
adgpu

>  <m_score__min__energy>  (22) 
-10.42

>  <m_primary>  (22) 
energy

$$$$
22:0
     RDKit          3D

 55 58  0  0  0  0  0  0  0  0999 V2000
    1.2400   19.3320  -30.2750 C   0  0  0  0  0  0  0  0  0  0  0  0
    0.2480   20.3620  -29.8270 C   0  0  0  0  0  0  0  0  0  0  0  0
    0.4770   20.9920  -28.7600 O   0  0  0  0  0  0  0  0  0  0  0  0
   -0.9780   20.6650  -30.6110 C   0  0  0  0  0  0  0  0  0  0  0  0
   -0.8730   21.1880  -31.9130 C   0  0  0  0  0  0  0  0  0  0  0  0
   -2.0180   21.4810  -32.6580 C   0  0  0  0  0  0  0  0  0  0  0  0
   -3.2900   21.2620  -32.1230 C   0  0  0  0  0  0  0  0  0  0  0  0
   -4.4100   21.5500  -32.9170 O   0  0  0  0  0  0  0  0  0  0  0  0
   -5.7180   21.7470  -32.4460 C   0  0  0  0  0  0  0  0  0  0  0  0
   -6.6760   20.7200  -32.5000 C   0  0  0  0  0  0  0  0  0  0  0  0
   -7.9790   20.9330  -32.0190 C   0  0  0  0  0  0  0  0  0  0  0  0
   -9.0320   19.8560  -32.0990 C   0  0  0  0  0  0  0  0  0  0  0  0
  -10.2590   20.4230  -32.3930 F   0  0  0  0  0  0  0  0  0  0  0  0
   -8.6970   18.9610  -33.0990 F   0  0  0  0  0  0  0  0  0  0  0  0
   -9.1470   19.1660  -30.9040 F   0  0  0  0  0  0  0  0  0  0  0  0
   -8.3200   22.1960  -31.5120 C   0  0  0  0  0  0  0  0  0  0  0  0
   -7.3650   23.2130  -31.4370 C   0  0  0  0  0  0  0  0  0  0  0  0
   -6.0490   22.9850  -31.8740 C   0  0  0  0  0  0  0  0  0  0  0  0
   -5.0380   24.0040  -31.8280 N   0  0  0  0  0  0  0  0  0  0  0  0
   -4.8530   25.0280  -30.8390 C   0  0  0  0  0  0  0  0  0  0  0  0
   -5.8390   25.6400  -30.3530 O   0  0  0  0  0  0  0  0  0  0  0  0
   -3.5490   25.2820  -30.3080 N   0  0  0  0  0  0  0  0  0  0  0  0
   -2.9130   24.5210  -29.2700 C   0  0  0  0  0  0  0  0  0  0  0  0
   -3.4430   23.2980  -28.8350 C   0  0  0  0  0  0  0  0  0  0  0  0
   -2.8060   22.5730  -27.8330 C   0  0  0  0  0  0  0  0  0  0  0  0
   -1.6200   23.0450  -27.2620 C   0  0  0  0  0  0  0  0  0  0  0  0
   -0.9060   22.0900  -25.9680 Cl  0  0  0  0  0  0  0  0  0  0  0  0
   -1.0520   24.2600  -27.7080 C   0  0  0  0  0  0  0  0  0  0  0  0
    0.4540   24.8730  -26.9860 S   0  0  0  0  0  0  0  0  0  0  0  0
    1.0080   26.0010  -27.8090 O   0  0  0  0  0  0  0  0  0  0  0  0
    1.4770   23.7750  -26.9840 O   0  0  0  0  0  0  0  0  0  0  0  0
    0.2390   25.4660  -25.3070 C   0  0  0  0  0  0  0  0  0  0  0  0
   -0.3530   26.8630  -25.2270 C   0  0  0  0  0  0  0  0  0  0  0  0
   -1.1850   25.6630  -24.8110 C   0  0  0  0  0  0  0  0  0  0  0  0
   -1.7150   24.9930  -28.7160 C   0  0  0  0  0  0  0  0  0  0  0  0
   -1.2030   26.2060  -29.1650 O   0  0  0  0  0  0  0  0  0  0  0  0
   -3.4040   20.7130  -30.8340 C   0  0  0  0  0  0  0  0  0  0  0  0
   -2.2620   20.4260  -30.0830 C   0  0  0  0  0  0  0  0  0  0  0  0
    1.6978   18.8567  -29.3950 H   0  0  0  0  0  0  0  0  0  0  0  0
    0.7283   18.5686  -30.8794 H   0  0  0  0  0  0  0  0  0  0  0  0
    2.0221   19.8147  -30.8794 H   0  0  0  0  0  0  0  0  0  0  0  0
    0.1208   21.3680  -32.3488 H   0  0  0  0  0  0  0  0  0  0  0  0
   -1.9172   21.8878  -33.6750 H   0  0  0  0  0  0  0  0  0  0  0  0
   -6.4035   19.7415  -32.9222 H   0  0  0  0  0  0  0  0  0  0  0  0
   -9.3481   22.3871  -31.1706 H   0  0  0  0  0  0  0  0  0  0  0  0
   -7.6447   24.1974  -31.0337 H   0  0  0  0  0  0  0  0  0  0  0  0
   -4.3671   22.9098  -29.2882 H   0  0  0  0  0  0  0  0  0  0  0  0
   -3.2381   21.6222  -27.4876 H   0  0  0  0  0  0  0  0  0  0  0  0
    1.1174   24.9428  -24.9011 H   0  0  0  0  0  0  0  0  0  0  0  0
    0.0093   27.5709  -24.4670 H   0  0  0  0  0  0  0  0  0  0  0  0
   -0.4860   27.6927  -25.9369 H   0  0  0  0  0  0  0  0  0  0  0  0
   -1.4251   25.5014  -23.7497 H   0  0  0  0  0  0  0  0  0  0  0  0
   -2.1698   25.2633  -25.0946 H   0  0  0  0  0  0  0  0  0  0  0  0
   -4.3997   20.5080  -30.4138 H   0  0  0  0  0  0  0  0  0  0  0  0
   -2.3661   20.0096  -29.0702 H   0  0  0  0  0  0  0  0  0  0  0  0
  1  2  1  0
  2  3  2  0
  2  4  1  0
  4  5  2  0
  5  6  1  0
  6  7  2  0
  7  8  1  0
  8  9  1  0
  9 10  2  0
 10 11  1  0
 11 12  1  0
 12 13  1  0
 12 14  1  0
 12 15  1  0
 11 16  2  0
 16 17  1  0
 17 18  2  0
 18 19  1  0
 19 20  1  0
 20 21  2  0
 20 22  1  0
 22 23  1  0
 23 24  2  0
 24 25  1  0
 25 26  2  0
 26 27  1  0
 26 28  1  0
 28 29  1  0
 29 30  2  0
 29 31  2  0
 29 32  1  0
 32 33  1  0
 33 34  1  0
 28 35  2  0
 35 36  1  0
  7 37  1  0
 37 38  2  0
 38  4  1  0
 18  9  1  0
 35 23  1  0
 34 32  1  0
  1 39  1  0
  1 40  1  0
  1 41  1  0
  5 42  1  0
  6 43  1  0
 10 44  1  0
 16 45  1  0
 17 46  1  0
 24 47  1  0
 25 48  1  0
 32 49  1  0
 33 50  1  0
 33 51  1  0
 34 52  1  0
 34 53  1  0
 37 54  1  0
 38 55  1  0
M  CHG  3  19  -1  22  -1  36  -1
M  END
>  <UniqueID>  (23) 
21

>  <SMILES>  (23) 
CC(=O)c1ccc(Oc2cc(C(F)(F)F)ccc2[N-]C(=O)[N-]c2ccc(Cl)c(S(=O)(=O)C3CC3)c2[O-])cc1

>  <Energy>  (23) 
339.6655332713957

>  <Genealogy>  (23) 
CC(=O)c1ccc(Oc2cc(C(F)(F)F)ccc2[N-]C(=O)[N-]c2ccc(Cl)c(S(=O)(=O)C3CC3)c2[O-])cc1 (protonated)
CC(=O)c1ccc(Oc2cc(C(F)(F)F)ccc2[N-]C(=O)[N-]c2ccc(Cl)c(S(=O)(=O)C3CC3)c2[O-])cc1 (3D coordinates assigned)
CC(=O)c1ccc(Oc2cc(C(F)(F)F)ccc2[N-]C(=O)[N-]c2ccc(Cl)c(S(=O)(=O)C3CC3)c2[O-])cc1 (nonaromatic ring conformer: 339.6655332713957 kcal/mol)

>  <smiles>  (23) 
CC(=O)c1ccc(Oc2cc(C(F)(F)F)ccc2NC(=O)Nc2ccc(Cl)c(S(=O)(=O)C3CC3)c2O)cc1

>  <score_type>  (23) 
oracle

>  <origin>  (23) 
adgpu

>  <m_score__min__energy>  (23) 
-16

>  <m_primary>  (23) 
energy

$$$$
23:0
     RDKit          3D

 26 26  0  0  0  0  0  0  0  0999 V2000
   -3.6565   21.1276  -33.9978 H   0  0  0  0  0  0  0  0  0  0  0  0
   -4.2060   20.7920  -33.1060 C   0  0  0  0  0  0  0  0  0  0  0  0
   -5.3040   20.1310  -33.2850 N   0  0  0  0  0  0  0  0  0  0  0  0
   -6.1170   19.5350  -32.2430 C   0  0  0  0  0  0  0  0  0  0  0  0
   -6.0593   20.1580  -31.3383 H   0  0  0  0  0  0  0  0  0  0  0  0
   -5.7392   18.5236  -32.0325 H   0  0  0  0  0  0  0  0  0  0  0  0
   -7.5730   19.4340  -32.6910 C   0  0  0  0  0  0  0  0  0  0  0  0
   -8.2263   19.3887  -31.8072 H   0  0  0  0  0  0  0  0  0  0  0  0
   -7.8330   20.3163  -33.2943 H   0  0  0  0  0  0  0  0  0  0  0  0
   -7.7087   18.5243  -33.2943 H   0  0  0  0  0  0  0  0  0  0  0  0
   -3.6310   21.1320  -31.7540 C   0  0  0  0  0  0  0  0  0  0  0  0
   -4.3346   20.8122  -30.9712 H   0  0  0  0  0  0  0  0  0  0  0  0
   -2.6690   20.6116  -31.6370 H   0  0  0  0  0  0  0  0  0  0  0  0
   -3.3940   22.6410  -31.6320 C   0  0  0  0  0  0  0  0  0  0  0  0
   -2.6727   22.8301  -30.8233 H   0  0  0  0  0  0  0  0  0  0  0  0
   -2.9996   23.0178  -32.5872 H   0  0  0  0  0  0  0  0  0  0  0  0
   -4.6850   23.3540  -31.3220 C   0  0  0  0  0  0  0  0  0  0  0  0
   -4.6810   24.6330  -30.7410 C   0  0  0  0  0  0  0  0  0  0  0  0
   -3.4880   25.2930  -30.4630 O   0  0  0  0  0  0  0  0  0  0  0  0
   -5.9070   25.2340  -30.4450 C   0  0  0  0  0  0  0  0  0  0  0  0
   -5.9440   26.3830  -29.9310 O   0  0  0  0  0  0  0  0  0  0  0  0
   -7.0640   24.5760  -30.7070 N   0  0  0  0  0  0  0  0  0  0  0  0
   -7.0560   23.3340  -31.2540 C   0  0  0  0  0  0  0  0  0  0  0  0
   -8.4750   22.5740  -31.5440 S   0  0  0  0  0  0  0  0  0  0  0  0
   -5.8740   22.7270  -31.5540 N   0  0  0  0  0  0  0  0  0  0  0  0
   -5.8790   21.7650  -31.9650 H   0  0  0  0  0  0  0  0  0  0  0  0
  1  2  1  0
  2  3  2  0
  3  4  1  0
  4  5  1  0
  4  6  1  0
  4  7  1  0
  7  8  1  0
  7  9  1  0
  7 10  1  0
  2 11  1  0
 11 12  1  0
 11 13  1  0
 11 14  1  0
 14 15  1  0
 14 16  1  0
 14 17  1  0
 17 18  2  0
 18 19  1  0
 18 20  1  0
 20 21  2  0
 20 22  1  0
 22 23  1  0
 23 24  2  0
 23 25  1  0
 25 26  1  0
 25 17  1  0
M  CHG  2  19  -1  22  -1
M  END
>  <UniqueID>  (24) 
22

>  <SMILES>  (24) 
CC/N=C\CCc1[nH]c(=S)[n-]c(=O)c1[O-]

>  <Energy>  (24) 
20.91478995207631

>  <Genealogy>  (24) 
CCN=CCCc1[nH]c(=S)[n-]c(=O)c1[O-] (protonated)
CC/N=C\CCc1[nH]c(=S)[n-]c(=O)c1[O-] (cis-trans isomerization)
CC/N=C\CCc1[nH]c(=S)[n-]c(=O)c1[O-] (3D coordinates assigned)
CC/N=C\CCc1[nH]c(=S)[n-]c(=O)c1[O-] (optimized conformer: 20.91478995207631 kcal/mol)

>  <smiles>  (24) 
CCN=CCCc1[nH]c(=S)[nH]c(=O)c1O

>  <score_type>  (24) 
oracle

>  <origin>  (24) 
adgpu

>  <m_score__min__energy>  (24) 
-9.1300000000000008

>  <m_primary>  (24) 
energy

$$$$
24:0
     RDKit          3D

 55 58  0  0  0  0  0  0  0  0999 V2000
   -6.8380   16.3020  -33.5360 C   0  0  0  0  0  0  0  0  0  0  0  0
   -5.9140   17.4100  -33.3160 N   0  0  0  0  0  0  0  0  0  0  0  0
   -4.5670   17.3680  -33.4440 C   0  0  0  0  0  0  0  0  0  0  0  0
   -4.0280   18.6230  -33.1880 C   0  0  0  0  0  0  0  0  0  0  0  0
   -2.3310   19.0720  -33.2500 S   0  0  0  0  0  0  0  0  0  0  0  0
   -2.0220   19.6640  -34.5960 O   0  0  0  0  0  0  0  0  0  0  0  0
   -1.4760   17.8530  -33.0420 O   0  0  0  0  0  0  0  0  0  0  0  0
   -1.9790   20.2440  -31.9840 C   0  0  0  0  0  0  0  0  0  0  0  0
   -2.2950   21.5970  -32.1580 C   0  0  0  0  0  0  0  0  0  0  0  0
   -2.0480   22.5130  -31.1340 C   0  0  0  0  0  0  0  0  0  0  0  0
   -1.4870   22.0860  -29.9210 C   0  0  0  0  0  0  0  0  0  0  0  0
   -1.2590   23.0070  -28.8980 O   0  0  0  0  0  0  0  0  0  0  0  0
   -1.1620   20.7280  -29.7390 C   0  0  0  0  0  0  0  0  0  0  0  0
   -0.5970   20.2280  -28.4320 C   0  0  0  0  0  0  0  0  0  0  0  0
    0.2960   19.0090  -28.6510 C   0  0  0  0  0  0  0  0  0  0  0  0
   -0.1950   17.9200  -27.9520 F   0  0  0  0  0  0  0  0  0  0  0  0
   -1.4200   19.8130  -30.7740 C   0  0  0  0  0  0  0  0  0  0  0  0
   -5.0950   19.4480  -32.8990 C   0  0  0  0  0  0  0  0  0  0  0  0
   -5.1450   20.8040  -32.5850 C   0  0  0  0  0  0  0  0  0  0  0  0
   -6.4100   21.3830  -32.3560 C   0  0  0  0  0  0  0  0  0  0  0  0
   -6.5450   23.1020  -31.9930 S   0  0  0  0  0  0  0  0  0  0  0  0
   -5.4410   23.8270  -32.7140 O   0  0  0  0  0  0  0  0  0  0  0  0
   -7.8610   23.6240  -32.5010 O   0  0  0  0  0  0  0  0  0  0  0  0
   -6.3900   23.3850  -30.2710 N   0  0  0  0  0  0  0  0  0  0  0  0
   -6.7520   24.7650  -29.9020 C   0  0  0  0  0  0  0  0  0  0  0  0
   -5.6720   25.7880  -30.3250 C   0  0  0  0  0  0  0  0  0  0  0  0
   -4.4090   25.2020  -30.5910 O   0  0  0  0  0  0  0  0  0  0  0  0
   -4.1100   24.2240  -29.6210 C   0  0  0  0  0  0  0  0  0  0  0  0
   -5.0460   23.0110  -29.7740 C   0  0  0  0  0  0  0  0  0  0  0  0
   -7.5800   20.5940  -32.4580 C   0  0  0  0  0  0  0  0  0  0  0  0
   -7.4960   19.2250  -32.7750 C   0  0  0  0  0  0  0  0  0  0  0  0
   -6.2280   18.6810  -32.9900 C   0  0  0  0  0  0  0  0  0  0  0  0
   -7.1703   15.9036  -32.5660 H   0  0  0  0  0  0  0  0  0  0  0  0
   -7.7099   16.6589  -34.1039 H   0  0  0  0  0  0  0  0  0  0  0  0
   -6.3303   15.5084  -34.1039 H   0  0  0  0  0  0  0  0  0  0  0  0
   -3.9855   16.4733  -33.7110 H   0  0  0  0  0  0  0  0  0  0  0  0
   -2.7392   21.9391  -33.1044 H   0  0  0  0  0  0  0  0  0  0  0  0
   -2.2945   23.5752  -31.2789 H   0  0  0  0  0  0  0  0  0  0  0  0
   -1.7620   22.9610  -28.0190 H   0  0  0  0  0  0  0  0  0  0  0  0
   -0.0039   21.0292  -27.9668 H   0  0  0  0  0  0  0  0  0  0  0  0
   -1.4324   19.9368  -27.7783 H   0  0  0  0  0  0  0  0  0  0  0  0
    0.3242   18.7683  -29.7240 H   0  0  0  0  0  0  0  0  0  0  0  0
    1.3089   19.2387  -28.2886 H   0  0  0  0  0  0  0  0  0  0  0  0
   -1.1808   18.7487  -30.6327 H   0  0  0  0  0  0  0  0  0  0  0  0
   -4.2259   21.4047  -32.5177 H   0  0  0  0  0  0  0  0  0  0  0  0
   -7.6995   25.0263  -30.3959 H   0  0  0  0  0  0  0  0  0  0  0  0
   -6.8450   24.8072  -28.8067 H   0  0  0  0  0  0  0  0  0  0  0  0
   -6.0162   26.3008  -31.2353 H   0  0  0  0  0  0  0  0  0  0  0  0
   -5.5353   26.4804  -29.4813 H   0  0  0  0  0  0  0  0  0  0  0  0
   -3.0678   23.8955  -29.7470 H   0  0  0  0  0  0  0  0  0  0  0  0
   -4.2513   24.6593  -28.6207 H   0  0  0  0  0  0  0  0  0  0  0  0
   -4.5924   22.3039  -30.4842 H   0  0  0  0  0  0  0  0  0  0  0  0
   -5.1733   22.5620  -28.7779 H   0  0  0  0  0  0  0  0  0  0  0  0
   -8.5644   21.0546  -32.2880 H   0  0  0  0  0  0  0  0  0  0  0  0
   -8.4004   18.6035  -32.8509 H   0  0  0  0  0  0  0  0  0  0  0  0
  1  2  1  0
  2  3  1  0
  3  4  2  0
  4  5  1  0
  5  6  2  0
  5  7  2  0
  5  8  1  0
  8  9  2  0
  9 10  1  0
 10 11  2  0
 11 12  1  0
 11 13  1  0
 13 14  1  0
 14 15  1  0
 15 16  1  0
 13 17  2  0
  4 18  1  0
 18 19  2  0
 19 20  1  0
 20 21  1  0
 21 22  2  0
 21 23  2  0
 21 24  1  0
 24 25  1  0
 25 26  1  0
 26 27  1  0
 27 28  1  0
 28 29  1  0
 20 30  2  0
 30 31  1  0
 31 32  2  0
 32  2  1  0
 17  8  1  0
 32 18  1  0
 29 24  1  0
  1 33  1  0
  1 34  1  0
  1 35  1  0
  3 36  1  0
  9 37  1  0
 10 38  1  0
 12 39  1  0
 14 40  1  0
 14 41  1  0
 15 42  1  0
 15 43  1  0
 17 44  1  0
 19 45  1  0
 25 46  1  0
 25 47  1  0
 26 48  1  0
 26 49  1  0
 28 50  1  0
 28 51  1  0
 29 52  1  0
 29 53  1  0
 30 54  1  0
 31 55  1  0
M  END
>  <UniqueID>  (25) 
23

>  <SMILES>  (25) 
Cn1cc(S(=O)(=O)c2ccc(O)c(CCF)c2)c2cc(S(=O)(=O)N3CCOCC3)ccc21

>  <Energy>  (25) 
100.40990196603644

>  <Genealogy>  (25) 
Cn1cc(S(=O)(=O)c2ccc(O)c(CCF)c2)c2cc(S(=O)(=O)N3CCOCC3)ccc21 (3D coordinates assigned)
Cn1cc(S(=O)(=O)c2ccc(O)c(CCF)c2)c2cc(S(=O)(=O)N3CCOCC3)ccc21 (nonaromatic ring conformer: 100.40990196603644 kcal/mol)

>  <smiles>  (25) 
Cn1cc(S(=O)(=O)c2ccc(O)c(CCF)c2)c2cc(S(=O)(=O)N3CCOCC3)ccc21

>  <score_type>  (25) 
oracle

>  <origin>  (25) 
adgpu

>  <m_score__min__energy>  (25) 
-9.7100000000000009

>  <m_primary>  (25) 
energy

$$$$
25:0
     RDKit          3D

 49 51  0  0  0  0  0  0  0  0999 V2000
   -9.1630   21.7160  -30.8340 C   0  0  0  0  0  0  0  0  0  0  0  0
   -8.5850   22.7700  -31.5950 O   0  0  0  0  0  0  0  0  0  0  0  0
   -7.3500   23.3700  -31.2990 C   0  0  0  0  0  0  0  0  0  0  0  0
   -6.2050   22.8910  -31.9460 C   0  0  0  0  0  0  0  0  0  0  0  0
   -4.9480   23.4310  -31.6550 C   0  0  0  0  0  0  0  0  0  0  0  0
   -4.8180   24.4760  -30.7320 C   0  0  0  0  0  0  0  0  0  0  0  0
   -3.5120   25.0150  -30.4810 N   0  0  0  0  0  0  0  0  0  0  0  0
   -2.4670   24.5400  -29.1820 S   0  0  0  0  0  0  0  0  0  0  0  0
   -3.2720   24.4380  -27.9160 O   0  0  0  0  0  0  0  0  0  0  0  0
   -1.4120   25.5950  -28.9930 O   0  0  0  0  0  0  0  0  0  0  0  0
   -1.7650   22.9560  -29.5340 C   0  0  0  0  0  0  0  0  0  0  0  0
   -2.4350   22.1200  -30.4400 C   0  0  0  0  0  0  0  0  0  0  0  0
   -1.9120   20.8640  -30.7840 C   0  0  0  0  0  0  0  0  0  0  0  0
   -2.6300   20.0360  -31.7180 N   0  0  0  0  0  0  0  0  0  0  0  0
   -3.3770   20.5780  -32.8560 C   0  0  0  0  0  0  0  0  0  0  0  0
   -4.0890   19.4700  -33.6440 C   0  0  0  0  0  0  0  0  0  0  0  0
   -5.4720   19.2100  -33.1040 C   0  0  0  0  0  0  0  0  0  0  0  0
   -6.5510   20.0060  -33.5200 C   0  0  0  0  0  0  0  0  0  0  0  0
   -7.8290   19.7890  -32.9990 C   0  0  0  0  0  0  0  0  0  0  0  0
   -8.0390   18.7790  -32.0590 C   0  0  0  0  0  0  0  0  0  0  0  0
   -6.9710   17.9820  -31.6390 C   0  0  0  0  0  0  0  0  0  0  0  0
   -5.6920   18.1950  -32.1570 C   0  0  0  0  0  0  0  0  0  0  0  0
   -0.7050   20.4450  -30.2000 C   0  0  0  0  0  0  0  0  0  0  0  0
   -0.0370   21.2710  -29.2950 C   0  0  0  0  0  0  0  0  0  0  0  0
   -0.5580   22.5260  -28.9580 C   0  0  0  0  0  0  0  0  0  0  0  0
    0.1290   23.3380  -28.0580 O   0  0  0  0  0  0  0  0  0  0  0  0
   -5.9690   24.9760  -30.1020 C   0  0  0  0  0  0  0  0  0  0  0  0
   -7.2240   24.4230  -30.3770 C   0  0  0  0  0  0  0  0  0  0  0  0
   -9.0452   21.9308  -29.7616 H   0  0  0  0  0  0  0  0  0  0  0  0
  -10.2328   21.6330  -31.0760 H   0  0  0  0  0  0  0  0  0  0  0  0
   -8.6578   20.7693  -31.0760 H   0  0  0  0  0  0  0  0  0  0  0  0
   -6.2943   22.0843  -32.6885 H   0  0  0  0  0  0  0  0  0  0  0  0
   -4.0538   23.0313  -32.1556 H   0  0  0  0  0  0  0  0  0  0  0  0
   -3.3832   22.4537  -30.8868 H   0  0  0  0  0  0  0  0  0  0  0  0
   -2.6000   19.0000  -31.5760 H   0  0  0  0  0  0  0  0  0  0  0  0
   -4.1281   21.2901  -32.4834 H   0  0  0  0  0  0  0  0  0  0  0  0
   -2.6641   21.0756  -33.5299 H   0  0  0  0  0  0  0  0  0  0  0  0
   -4.1682   19.7752  -34.6978 H   0  0  0  0  0  0  0  0  0  0  0  0
   -3.5011   18.5453  -33.5474 H   0  0  0  0  0  0  0  0  0  0  0  0
   -6.3895   20.8042  -34.2595 H   0  0  0  0  0  0  0  0  0  0  0  0
   -8.6708   20.4150  -33.3301 H   0  0  0  0  0  0  0  0  0  0  0  0
   -9.0456   18.6104  -31.6487 H   0  0  0  0  0  0  0  0  0  0  0  0
   -7.1381   17.1854  -30.8990 H   0  0  0  0  0  0  0  0  0  0  0  0
   -4.8536   17.5662  -31.8228 H   0  0  0  0  0  0  0  0  0  0  0  0
   -0.2846   19.4616  -30.4572 H   0  0  0  0  0  0  0  0  0  0  0  0
    0.9070   20.9331  -28.8426 H   0  0  0  0  0  0  0  0  0  0  0  0
   -0.2150   24.2530  -27.7960 H   0  0  0  0  0  0  0  0  0  0  0  0
   -5.8831   25.8080  -29.3876 H   0  0  0  0  0  0  0  0  0  0  0  0
   -8.1174   24.8146  -29.8687 H   0  0  0  0  0  0  0  0  0  0  0  0
  1  2  1  0
  2  3  1  0
  3  4  2  0
  4  5  1  0
  5  6  2  0
  6  7  1  0
  7  8  1  0
  8  9  2  0
  8 10  2  0
  8 11  1  0
 11 12  2  0
 12 13  1  0
 13 14  1  0
 14 15  1  0
 15 16  1  0
 16 17  1  0
 17 18  2  0
 18 19  1  0
 19 20  2  0
 20 21  1  0
 21 22  2  0
 13 23  2  0
 23 24  1  0
 24 25  2  0
 25 26  1  0
  6 27  1  0
 27 28  2  0
 28  3  1  0
 25 11  1  0
 22 17  1  0
  1 29  1  0
  1 30  1  0
  1 31  1  0
  4 32  1  0
  5 33  1  0
 12 34  1  0
 14 35  1  0
 15 36  1  0
 15 37  1  0
 16 38  1  0
 16 39  1  0
 18 40  1  0
 19 41  1  0
 20 42  1  0
 21 43  1  0
 22 44  1  0
 23 45  1  0
 24 46  1  0
 26 47  1  0
 27 48  1  0
 28 49  1  0
M  CHG  1   7  -1
M  END
>  <UniqueID>  (26) 
24

>  <SMILES>  (26) 
COc1ccc([N-]S(=O)(=O)c2cc(NCCc3ccccc3)ccc2O)cc1

>  <Energy>  (26) 
52.03102400326237

>  <Genealogy>  (26) 
COc1ccc([N-]S(=O)(=O)c2cc(NCCc3ccccc3)ccc2O)cc1 (protonated)
COc1ccc([N-]S(=O)(=O)c2cc(NCCc3ccccc3)ccc2O)cc1 (3D coordinates assigned)
COc1ccc([N-]S(=O)(=O)c2cc(NCCc3ccccc3)ccc2O)cc1 (optimized conformer: 52.03102400326237 kcal/mol)

>  <smiles>  (26) 
COc1ccc(NS(=O)(=O)c2cc(NCCc3ccccc3)ccc2O)cc1

>  <score_type>  (26) 
oracle

>  <origin>  (26) 
adgpu

>  <m_score__min__energy>  (26) 
-10.529999999999999

>  <m_primary>  (26) 
energy

$$$$
26:0
     RDKit          3D

 42 43  0  0  0  0  0  0  0  0999 V2000
   -7.5020   18.1280  -32.4200 C   0  0  0  0  0  0  0  0  0  0  0  0
   -8.2160   19.4770  -32.4770 C   0  0  0  0  0  0  0  0  0  0  0  0
   -8.0520   20.3650  -31.2150 C   0  0  0  0  0  0  0  0  0  0  0  0
   -7.8620   21.8440  -31.4130 N   0  0  0  0  0  0  0  0  0  0  0  0
   -7.6030   22.4210  -30.0650 C   0  0  0  0  0  0  0  0  0  0  0  0
   -9.1090   22.4640  -31.9310 C   0  0  0  0  0  0  0  0  0  0  0  0
   -6.7050   22.1190  -32.3260 C   0  0  0  0  0  0  0  0  0  0  0  0
   -5.4190   22.5330  -31.6190 C   0  0  0  0  0  0  0  0  0  0  0  0
   -5.1860   23.8920  -31.3690 C   0  0  0  0  0  0  0  0  0  0  0  0
   -4.0330   24.3150  -30.7120 C   0  0  0  0  0  0  0  0  0  0  0  0
   -3.8610   25.6770  -30.4870 O   0  0  0  0  0  0  0  0  0  0  0  0
   -3.0630   23.3780  -30.3030 C   0  0  0  0  0  0  0  0  0  0  0  0
   -3.2770   22.0000  -30.5580 C   0  0  0  0  0  0  0  0  0  0  0  0
   -4.4890   21.5760  -31.1630 C   0  0  0  0  0  0  0  0  0  0  0  0
   -4.8160   20.2210  -31.2840 O   0  0  0  0  0  0  0  0  0  0  0  0
   -2.1980   21.0480  -30.1910 C   0  0  0  0  0  0  0  0  0  0  0  0
   -2.0350   19.9670  -30.8170 O   0  0  0  0  0  0  0  0  0  0  0  0
   -1.2280   21.4290  -29.1150 C   0  0  0  0  0  0  0  0  0  0  0  0
   -0.6890   22.8340  -29.3820 C   0  0  0  0  0  0  0  0  0  0  0  0
   -1.8080   23.8110  -29.6160 C   0  0  0  0  0  0  0  0  0  0  0  0
   -1.6450   25.0100  -29.2630 O   0  0  0  0  0  0  0  0  0  0  0  0
   -7.3487   17.8384  -31.3699 H   0  0  0  0  0  0  0  0  0  0  0  0
   -8.1154   17.3669  -32.9245 H   0  0  0  0  0  0  0  0  0  0  0  0
   -6.5277   18.2072  -32.9245 H   0  0  0  0  0  0  0  0  0  0  0  0
   -7.8215   20.0347  -33.3392 H   0  0  0  0  0  0  0  0  0  0  0  0
   -9.2898   19.2511  -32.5540 H   0  0  0  0  0  0  0  0  0  0  0  0
   -8.9544   20.2303  -30.6006 H   0  0  0  0  0  0  0  0  0  0  0  0
   -7.1100   20.0251  -30.7600 H   0  0  0  0  0  0  0  0  0  0  0  0
   -7.9237   21.7065  -29.2925 H   0  0  0  0  0  0  0  0  0  0  0  0
   -6.5276   22.6236  -29.9533 H   0  0  0  0  0  0  0  0  0  0  0  0
   -8.1664   23.3592  -29.9533 H   0  0  0  0  0  0  0  0  0  0  0  0
   -9.7405   22.7780  -31.0868 H   0  0  0  0  0  0  0  0  0  0  0  0
   -8.8550   23.3407  -32.5448 H   0  0  0  0  0  0  0  0  0  0  0  0
   -9.6547   21.7323  -32.5448 H   0  0  0  0  0  0  0  0  0  0  0  0
   -6.4996   21.2055  -32.9033 H   0  0  0  0  0  0  0  0  0  0  0  0
   -7.0017   22.9713  -32.9549 H   0  0  0  0  0  0  0  0  0  0  0  0
   -5.9259   24.6370  -31.6970 H   0  0  0  0  0  0  0  0  0  0  0  0
   -4.1420   19.4720  -31.2180 H   0  0  0  0  0  0  0  0  0  0  0  0
   -1.7376   21.4119  -28.1403 H   0  0  0  0  0  0  0  0  0  0  0  0
   -0.3926   20.7135  -29.1073 H   0  0  0  0  0  0  0  0  0  0  0  0
   -0.1008   23.1637  -28.5129 H   0  0  0  0  0  0  0  0  0  0  0  0
   -0.0618   22.8004  -30.2850 H   0  0  0  0  0  0  0  0  0  0  0  0
  1  2  1  0
  2  3  1  0
  3  4  1  0
  4  5  1  0
  4  6  1  0
  4  7  1  0
  7  8  1  0
  8  9  2  0
  9 10  1  0
 10 11  1  0
 10 12  2  0
 12 13  1  0
 13 14  2  0
 14 15  1  0
 13 16  1  0
 16 17  2  0
 16 18  1  0
 18 19  1  0
 19 20  1  0
 20 21  2  0
 14  8  1  0
 20 12  1  0
  1 22  1  0
  1 23  1  0
  1 24  1  0
  2 25  1  0
  2 26  1  0
  3 27  1  0
  3 28  1  0
  5 29  1  0
  5 30  1  0
  5 31  1  0
  6 32  1  0
  6 33  1  0
  6 34  1  0
  7 35  1  0
  7 36  1  0
  9 37  1  0
 15 38  1  0
 18 39  1  0
 18 40  1  0
 19 41  1  0
 19 42  1  0
M  CHG  2   4   1  11  -1
M  END
>  <UniqueID>  (27) 
25

>  <SMILES>  (27) 
CCC[N+](C)(C)Cc1cc([O-])c2c(c1O)C(=O)CCC2=O

>  <Energy>  (27) 
63.282255121733634

>  <Genealogy>  (27) 
CCC[N+](C)(C)Cc1cc([O-])c2c(c1O)C(=O)CCC2=O (protonated)
CCC[N+](C)(C)Cc1cc([O-])c2c(c1O)C(=O)CCC2=O (3D coordinates assigned)
CCC[N+](C)(C)Cc1cc([O-])c2c(c1O)C(=O)CCC2=O (nonaromatic ring conformer: 63.282255121733634 kcal/mol)

>  <smiles>  (27) 
CCC[N+](C)(C)Cc1cc(O)c2c(c1O)C(=O)CCC2=O

>  <score_type>  (27) 
oracle

>  <origin>  (27) 
adgpu

>  <m_score__min__energy>  (27) 
-9.0199999999999996

>  <m_primary>  (27) 
energy

$$$$
27:0
     RDKit          3D

 59 62  0  0  0  0  0  0  0  0999 V2000
    1.9000   18.6360  -28.6230 C   0  0  0  0  0  0  0  0  0  0  0  0
    0.9440   19.6530  -28.0730 C   0  0  0  0  0  0  0  0  0  0  0  0
   -0.3900   19.3040  -27.8200 C   0  0  0  0  0  0  0  0  0  0  0  0
   -1.2970   20.2600  -27.3390 C   0  0  0  0  0  0  0  0  0  0  0  0
   -2.7320   19.8880  -27.1100 C   0  0  0  0  0  0  0  0  0  0  0  0
   -0.8700   21.5830  -27.1490 C   0  0  0  0  0  0  0  0  0  0  0  0
    0.4600   21.9420  -27.4090 C   0  0  0  0  0  0  0  0  0  0  0  0
    0.9900   23.6110  -27.1920 S   0  0  0  0  0  0  0  0  0  0  0  0
    1.3720   24.1520  -28.5420 O   0  0  0  0  0  0  0  0  0  0  0  0
    2.1960   23.6330  -26.2970 O   0  0  0  0  0  0  0  0  0  0  0  0
   -0.2930   24.6130  -26.4840 C   0  0  0  0  0  0  0  0  0  0  0  0
   -0.1450   25.0500  -25.1550 C   0  0  0  0  0  0  0  0  0  0  0  0
   -1.1560   25.7760  -24.5260 C   0  0  0  0  0  0  0  0  0  0  0  0
   -2.3310   26.0760  -25.2100 C   0  0  0  0  0  0  0  0  0  0  0  0
   -2.4930   25.6660  -26.5340 C   0  0  0  0  0  0  0  0  0  0  0  0
   -1.4790   24.9480  -27.1950 C   0  0  0  0  0  0  0  0  0  0  0  0
   -1.7000   24.5930  -28.6170 C   0  0  0  0  0  0  0  0  0  0  0  0
   -0.9670   23.7380  -29.1810 O   0  0  0  0  0  0  0  0  0  0  0  0
   -2.7580   25.2300  -29.3480 N   0  0  0  0  0  0  0  0  0  0  0  0
   -3.9380   24.6050  -29.8730 C   0  0  0  0  0  0  0  0  0  0  0  0
   -4.2520   23.3070  -29.4530 C   0  0  0  0  0  0  0  0  0  0  0  0
   -5.4050   22.6690  -29.9210 C   0  0  0  0  0  0  0  0  0  0  0  0
   -6.2690   23.3310  -30.8030 C   0  0  0  0  0  0  0  0  0  0  0  0
   -7.7110   22.5250  -31.4120 S   0  0  0  0  0  0  0  0  0  0  0  0
   -8.6350   23.5490  -32.0100 O   0  0  0  0  0  0  0  0  0  0  0  0
   -8.4270   21.8410  -30.2770 O   0  0  0  0  0  0  0  0  0  0  0  0
   -7.2510   21.3690  -32.6360 N   0  0  0  0  0  0  0  0  0  0  0  0
   -7.8590   20.0640  -32.3870 C   0  0  0  0  0  0  0  0  0  0  0  0
   -6.9530   19.0400  -33.0470 C   0  0  0  0  0  0  0  0  0  0  0  0
   -5.5920   19.7130  -33.1410 C   0  0  0  0  0  0  0  0  0  0  0  0
   -5.8060   21.1330  -32.6330 C   0  0  0  0  0  0  0  0  0  0  0  0
   -5.9680   24.6370  -31.2130 C   0  0  0  0  0  0  0  0  0  0  0  0
   -4.8160   25.2750  -30.7440 C   0  0  0  0  0  0  0  0  0  0  0  0
    1.3610   20.9790  -27.8810 C   0  0  0  0  0  0  0  0  0  0  0  0
    2.3941   18.1104  -27.7925 H   0  0  0  0  0  0  0  0  0  0  0  0
    1.3490   17.9108  -29.2399 H   0  0  0  0  0  0  0  0  0  0  0  0
    2.6579   19.1411  -29.2399 H   0  0  0  0  0  0  0  0  0  0  0  0
   -0.7280   18.2728  -28.0000 H   0  0  0  0  0  0  0  0  0  0  0  0
   -2.9295   19.8368  -26.0291 H   0  0  0  0  0  0  0  0  0  0  0  0
   -3.3848   20.6466  -27.5665 H   0  0  0  0  0  0  0  0  0  0  0  0
   -2.9340   18.9078  -27.5665 H   0  0  0  0  0  0  0  0  0  0  0  0
   -1.5824   22.3423  -26.7942 H   0  0  0  0  0  0  0  0  0  0  0  0
    0.7789   24.8163  -24.6056 H   0  0  0  0  0  0  0  0  0  0  0  0
   -1.0248   26.1124  -23.4870 H   0  0  0  0  0  0  0  0  0  0  0  0
   -3.1323   26.6366  -24.7063 H   0  0  0  0  0  0  0  0  0  0  0  0
   -3.4244   25.9069  -27.0674 H   0  0  0  0  0  0  0  0  0  0  0  0
   -3.5867   22.7850  -28.7495 H   0  0  0  0  0  0  0  0  0  0  0  0
   -5.6344   21.6436  -29.5954 H   0  0  0  0  0  0  0  0  0  0  0  0
   -7.9243   19.8741  -31.3055 H   0  0  0  0  0  0  0  0  0  0  0  0
   -8.8805   20.0146  -32.7920 H   0  0  0  0  0  0  0  0  0  0  0  0
   -6.8910   18.1283  -32.4346 H   0  0  0  0  0  0  0  0  0  0  0  0
   -7.3293   18.7340  -34.0343 H   0  0  0  0  0  0  0  0  0  0  0  0
   -4.8582   19.1863  -32.5132 H   0  0  0  0  0  0  0  0  0  0  0  0
   -5.2004   19.7013  -34.1689 H   0  0  0  0  0  0  0  0  0  0  0  0
   -5.4077   21.2344  -31.6127 H   0  0  0  0  0  0  0  0  0  0  0  0
   -5.2851   21.8632  -33.2698 H   0  0  0  0  0  0  0  0  0  0  0  0
   -6.6410   25.1621  -31.9067 H   0  0  0  0  0  0  0  0  0  0  0  0
   -4.5951   26.3059  -31.0576 H   0  0  0  0  0  0  0  0  0  0  0  0
    2.4003   21.2635  -28.1022 H   0  0  0  0  0  0  0  0  0  0  0  0
  1  2  1  0
  2  3  2  0
  3  4  1  0
  4  5  1  0
  4  6  2  0
  6  7  1  0
  7  8  1  0
  8  9  2  0
  8 10  2  0
  8 11  1  0
 11 12  2  0
 12 13  1  0
 13 14  2  0
 14 15  1  0
 15 16  2  0
 16 17  1  0
 17 18  2  0
 17 19  1  0
 19 20  1  0
 20 21  2  0
 21 22  1  0
 22 23  2  0
 23 24  1  0
 24 25  2  0
 24 26  2  0
 24 27  1  0
 27 28  1  0
 28 29  1  0
 29 30  1  0
 30 31  1  0
 23 32  1  0
 32 33  2  0
  7 34  2  0
 34  2  1  0
 16 11  1  0
 33 20  1  0
 31 27  1  0
  1 35  1  0
  1 36  1  0
  1 37  1  0
  3 38  1  0
  5 39  1  0
  5 40  1  0
  5 41  1  0
  6 42  1  0
 12 43  1  0
 13 44  1  0
 14 45  1  0
 15 46  1  0
 21 47  1  0
 22 48  1  0
 28 49  1  0
 28 50  1  0
 29 51  1  0
 29 52  1  0
 30 53  1  0
 30 54  1  0
 31 55  1  0
 31 56  1  0
 32 57  1  0
 33 58  1  0
 34 59  1  0
M  CHG  1  19  -1
M  END
>  <UniqueID>  (28) 
26

>  <SMILES>  (28) 
Cc1cc(C)cc(S(=O)(=O)c2ccccc2C(=O)[N-]c2ccc(S(=O)(=O)N3CCCC3)cc2)c1

>  <Energy>  (28) 
73.37240426958209

>  <Genealogy>  (28) 
Cc1cc(C)cc(S(=O)(=O)c2ccccc2C(=O)[N-]c2ccc(S(=O)(=O)N3CCCC3)cc2)c1 (protonated)
Cc1cc(C)cc(S(=O)(=O)c2ccccc2C(=O)[N-]c2ccc(S(=O)(=O)N3CCCC3)cc2)c1 (3D coordinates assigned)
Cc1cc(C)cc(S(=O)(=O)c2ccccc2C(=O)[N-]c2ccc(S(=O)(=O)N3CCCC3)cc2)c1 (nonaromatic ring conformer: 73.37240426958209 kcal/mol)

>  <smiles>  (28) 
Cc1cc(C)cc(S(=O)(=O)c2ccccc2C(=O)Nc2ccc(S(=O)(=O)N3CCCC3)cc2)c1

>  <score_type>  (28) 
oracle

>  <origin>  (28) 
adgpu

>  <m_score__min__energy>  (28) 
-12.6

>  <m_primary>  (28) 
energy

$$$$
28:0
     RDKit          3D

 36 37  0  0  0  0  0  0  0  0999 V2000
    0.3180   19.7670  -36.2900 H   0  0  0  0  0  0  0  0  0  0  0  0
    1.0210   20.5370  -36.3300 N   0  0  0  0  0  0  0  0  0  0  0  0
    0.8460   21.4550  -34.8770 S   0  0  0  0  0  0  0  0  0  0  0  0
    2.0200   22.3810  -34.7230 O   0  0  0  0  0  0  0  0  0  0  0  0
   -0.4100   22.2790  -34.9560 O   0  0  0  0  0  0  0  0  0  0  0  0
    0.7610   20.3650  -33.4970 C   0  0  0  0  0  0  0  0  0  0  0  0
   -0.4660   20.1190  -32.8660 C   0  0  0  0  0  0  0  0  0  0  0  0
   -1.3781   20.6163  -33.2275 H   0  0  0  0  0  0  0  0  0  0  0  0
   -0.5340   19.2430  -31.7780 C   0  0  0  0  0  0  0  0  0  0  0  0
   -1.4989   19.0588  -31.2829 H   0  0  0  0  0  0  0  0  0  0  0  0
    0.6230   18.5980  -31.3150 C   0  0  0  0  0  0  0  0  0  0  0  0
    0.5620   17.6700  -30.1330 C   0  0  0  0  0  0  0  0  0  0  0  0
   -0.3886   17.1170  -30.1544 H   0  0  0  0  0  0  0  0  0  0  0  0
    1.4073   16.9680  -30.1849 H   0  0  0  0  0  0  0  0  0  0  0  0
    0.6500   18.4280  -28.8900 N   0  0  0  0  0  0  0  0  0  0  0  0
   -0.4910   18.8210  -28.1160 C   0  0  0  0  0  0  0  0  0  0  0  0
   -0.7960   18.1810  -27.0730 O   0  0  0  0  0  0  0  0  0  0  0  0
   -1.3180   19.9740  -28.5150 C   0  0  0  0  0  0  0  0  0  0  0  0
   -2.4105   19.8546  -28.5608 H   0  0  0  0  0  0  0  0  0  0  0  0
   -0.7820   21.1640  -28.8240 C   0  0  0  0  0  0  0  0  0  0  0  0
    0.3125   21.2600  -28.7705 H   0  0  0  0  0  0  0  0  0  0  0  0
   -1.5610   22.3640  -29.2340 C   0  0  0  0  0  0  0  0  0  0  0  0
   -2.7160   22.1700  -30.0130 C   0  0  0  0  0  0  0  0  0  0  0  0
   -3.0171   21.1500  -30.2939 H   0  0  0  0  0  0  0  0  0  0  0  0
   -3.4850   23.2570  -30.4340 C   0  0  0  0  0  0  0  0  0  0  0  0
   -4.3855   23.0887  -31.0430 H   0  0  0  0  0  0  0  0  0  0  0  0
   -3.1140   24.5570  -30.0840 C   0  0  0  0  0  0  0  0  0  0  0  0
   -3.8840   25.6340  -30.5050 O   0  0  0  0  0  0  0  0  0  0  0  0
   -1.9660   24.7700  -29.3130 C   0  0  0  0  0  0  0  0  0  0  0  0
   -1.5900   26.0620  -28.9660 O   0  0  0  0  0  0  0  0  0  0  0  0
   -1.1910   23.6830  -28.8920 C   0  0  0  0  0  0  0  0  0  0  0  0
   -0.2869   23.8577  -28.2902 H   0  0  0  0  0  0  0  0  0  0  0  0
    1.8500   18.8450  -31.9500 C   0  0  0  0  0  0  0  0  0  0  0  0
    2.7626   18.3475  -31.5899 H   0  0  0  0  0  0  0  0  0  0  0  0
    1.9180   19.7210  -33.0390 C   0  0  0  0  0  0  0  0  0  0  0  0
    2.8817   19.9044  -33.5365 H   0  0  0  0  0  0  0  0  0  0  0  0
  1  2  1  0
  2  3  1  0
  3  4  2  0
  3  5  2  0
  3  6  1  0
  6  7  2  0
  7  8  1  0
  7  9  1  0
  9 10  1  0
  9 11  2  0
 11 12  1  0
 12 13  1  0
 12 14  1  0
 12 15  1  0
 15 16  1  0
 16 17  2  0
 16 18  1  0
 18 19  1  0
 18 20  2  0
 20 21  1  0
 20 22  1  0
 22 23  2  0
 23 24  1  0
 23 25  1  0
 25 26  1  0
 25 27  2  0
 27 28  1  0
 27 29  1  0
 29 30  1  0
 29 31  2  0
 31 32  1  0
 11 33  1  0
 33 34  1  0
 33 35  2  0
 35 36  1  0
 35  6  1  0
 31 22  1  0
M  CHG  4   2  -1  15  -1  28  -1  30  -1
M  END
>  <UniqueID>  (29) 
27

>  <SMILES>  (29) 
[NH-]S(=O)(=O)c1ccc(C[N-]C(=O)/C=C/c2ccc([O-])c([O-])c2)cc1

>  <Energy>  (29) 
35.83141355604885

>  <Genealogy>  (29) 
[NH-]S(=O)(=O)c1ccc(C[N-]C(=O)C=Cc2ccc([O-])c([O-])c2)cc1 (protonated)
[NH-]S(=O)(=O)c1ccc(C[N-]C(=O)/C=C/c2ccc([O-])c([O-])c2)cc1 (cis-trans isomerization)
[NH-]S(=O)(=O)c1ccc(C[N-]C(=O)/C=C/c2ccc([O-])c([O-])c2)cc1 (3D coordinates assigned)
[NH-]S(=O)(=O)c1ccc(C[N-]C(=O)/C=C/c2ccc([O-])c([O-])c2)cc1 (optimized conformer: 35.83141355604885 kcal/mol)

>  <smiles>  (29) 
NS(=O)(=O)c1ccc(CNC(=O)C=Cc2ccc(O)c(O)c2)cc1

>  <score_type>  (29) 
oracle

>  <origin>  (29) 
adgpu

>  <m_score__min__energy>  (29) 
-13.050000000000001

>  <m_primary>  (29) 
energy

$$$$
29:0
     RDKit          3D

 47 50  0  0  0  0  0  0  0  0999 V2000
   -5.7130   26.0540  -31.2150 O   0  0  0  0  0  0  0  0  0  0  0  0
   -5.0090   25.0780  -30.8460 C   0  0  0  0  0  0  0  0  0  0  0  0
   -3.9650   25.3010  -29.8890 N   0  0  0  0  0  0  0  0  0  0  0  0
   -2.8210   24.4630  -29.6770 C   0  0  0  0  0  0  0  0  0  0  0  0
   -2.9540   23.0820  -29.8740 C   0  0  0  0  0  0  0  0  0  0  0  0
   -1.8620   22.2250  -29.6840 C   0  0  0  0  0  0  0  0  0  0  0  0
   -2.0310   20.4890  -29.9720 S   0  0  0  0  0  0  0  0  0  0  0  0
   -3.4770   20.1070  -29.8230 O   0  0  0  0  0  0  0  0  0  0  0  0
   -1.2440   19.7420  -28.9320 O   0  0  0  0  0  0  0  0  0  0  0  0
   -1.4780   20.0070  -31.5580 N   0  0  0  0  0  0  0  0  0  0  0  0
   -0.8290   21.1060  -32.2720 C   0  0  0  0  0  0  0  0  0  0  0  0
   -0.9710   20.7970  -33.7550 C   0  0  0  0  0  0  0  0  0  0  0  0
   -2.1170   19.7990  -33.8500 C   0  0  0  0  0  0  0  0  0  0  0  0
   -2.5800   19.5780  -32.4180 C   0  0  0  0  0  0  0  0  0  0  0  0
   -0.6270   22.7570  -29.2910 C   0  0  0  0  0  0  0  0  0  0  0  0
   -0.4940   24.1290  -29.0610 C   0  0  0  0  0  0  0  0  0  0  0  0
   -1.5860   24.9830  -29.2380 C   0  0  0  0  0  0  0  0  0  0  0  0
   -1.4400   26.3360  -28.9550 O   0  0  0  0  0  0  0  0  0  0  0  0
   -5.3220   23.7340  -31.3700 C   0  0  0  0  0  0  0  0  0  0  0  0
   -6.4910   23.0220  -31.1840 C   0  0  0  0  0  0  0  0  0  0  0  0
   -6.2870   21.8490  -31.8860 C   0  0  0  0  0  0  0  0  0  0  0  0
   -7.2090   20.6910  -31.9920 C   0  0  0  0  0  0  0  0  0  0  0  0
   -8.5820   20.9320  -32.1850 C   0  0  0  0  0  0  0  0  0  0  0  0
   -9.4820   19.8710  -32.3050 C   0  0  0  0  0  0  0  0  0  0  0  0
   -9.0270   18.5560  -32.2280 C   0  0  0  0  0  0  0  0  0  0  0  0
   -7.6710   18.2980  -32.0210 C   0  0  0  0  0  0  0  0  0  0  0  0
   -6.7570   19.3550  -31.8930 C   0  0  0  0  0  0  0  0  0  0  0  0
   -5.4160   19.0700  -31.6430 O   0  0  0  0  0  0  0  0  0  0  0  0
   -5.0610   21.8750  -32.4500 N   0  0  0  0  0  0  0  0  0  0  0  0
   -4.4800   23.0240  -32.1430 N   0  0  0  0  0  0  0  0  0  0  0  0
   -3.9253   22.6667  -30.1808 H   0  0  0  0  0  0  0  0  0  0  0  0
   -1.3228   22.0594  -32.0329 H   0  0  0  0  0  0  0  0  0  0  0  0
    0.2283   21.2002  -31.9834 H   0  0  0  0  0  0  0  0  0  0  0  0
   -1.2090   21.7116  -34.3180 H   0  0  0  0  0  0  0  0  0  0  0  0
   -0.0402   20.3941  -34.1807 H   0  0  0  0  0  0  0  0  0  0  0  0
   -2.9352   20.2094  -34.4600 H   0  0  0  0  0  0  0  0  0  0  0  0
   -1.8026   18.8594  -34.3279 H   0  0  0  0  0  0  0  0  0  0  0  0
   -3.4791   20.1773  -32.2119 H   0  0  0  0  0  0  0  0  0  0  0  0
   -2.8380   18.5236  -32.2401 H   0  0  0  0  0  0  0  0  0  0  0  0
    0.2405   22.0929  -29.1631 H   0  0  0  0  0  0  0  0  0  0  0  0
    0.4748   24.5387  -28.7391 H   0  0  0  0  0  0  0  0  0  0  0  0
   -7.3802   23.3201  -30.6091 H   0  0  0  0  0  0  0  0  0  0  0  0
   -8.9501   21.9670  -32.2419 H   0  0  0  0  0  0  0  0  0  0  0  0
  -10.5519   20.0735  -32.4606 H   0  0  0  0  0  0  0  0  0  0  0  0
   -9.7364   17.7216  -32.3303 H   0  0  0  0  0  0  0  0  0  0  0  0
   -7.3163   17.2587  -31.9578 H   0  0  0  0  0  0  0  0  0  0  0  0
   -4.7180   19.8020  -31.5770 H   0  0  0  0  0  0  0  0  0  0  0  0
  1  2  2  0
  2  3  1  0
  3  4  1  0
  4  5  2  0
  5  6  1  0
  6  7  1  0
  7  8  2  0
  7  9  2  0
  7 10  1  0
 10 11  1  0
 11 12  1  0
 12 13  1  0
 13 14  1  0
  6 15  2  0
 15 16  1  0
 16 17  2  0
 17 18  1  0
  2 19  1  0
 19 20  1  0
 20 21  2  0
 21 22  1  0
 22 23  2  0
 23 24  1  0
 24 25  2  0
 25 26  1  0
 26 27  2  0
 27 28  1  0
 21 29  1  0
 29 30  1  0
 17  4  1  0
 30 19  2  0
 14 10  1  0
 27 22  1  0
  5 31  1  0
 11 32  1  0
 11 33  1  0
 12 34  1  0
 12 35  1  0
 13 36  1  0
 13 37  1  0
 14 38  1  0
 14 39  1  0
 15 40  1  0
 16 41  1  0
 20 42  1  0
 23 43  1  0
 24 44  1  0
 25 45  1  0
 26 46  1  0
 28 47  1  0
M  CHG  3   3  -1  18  -1  29  -1
M  END
>  <UniqueID>  (30) 
28

>  <SMILES>  (30) 
O=C([N-]c1cc(S(=O)(=O)N2CCCC2)ccc1[O-])c1cc(-c2ccccc2O)[n-]n1

>  <Energy>  (30) 
90.94876518442162

>  <Genealogy>  (30) 
O=C([N-]c1cc(S(=O)(=O)N2CCCC2)ccc1[O-])c1cc(-c2ccccc2O)[n-]n1 (protonated)
O=C([N-]c1cc(S(=O)(=O)N2CCCC2)ccc1[O-])c1cc(-c2ccccc2O)[n-]n1 (3D coordinates assigned)
O=C([N-]c1cc(S(=O)(=O)N2CCCC2)ccc1[O-])c1cc(-c2ccccc2O)[n-]n1 (nonaromatic ring conformer: 90.94876518442162 kcal/mol)

>  <smiles>  (30) 
O=C(Nc1cc(S(=O)(=O)N2CCCC2)ccc1O)c1cc(-c2ccccc2O)[nH]n1

>  <score_type>  (30) 
oracle

>  <origin>  (30) 
adgpu

>  <m_score__min__energy>  (30) 
-13.91

>  <m_primary>  (30) 
energy

$$$$
30:0
     RDKit          3D

 51 53  0  0  0  0  0  0  0  0999 V2000
   -6.1170   18.9560  -33.7130 C   0  0  0  0  0  0  0  0  0  0  0  0
   -6.9430   19.2030  -32.5790 O   0  0  0  0  0  0  0  0  0  0  0  0
   -7.5050   20.4500  -32.2650 C   0  0  0  0  0  0  0  0  0  0  0  0
   -8.8900   20.6900  -32.3240 C   0  0  0  0  0  0  0  0  0  0  0  0
   -9.4000   21.9460  -31.9900 C   0  0  0  0  0  0  0  0  0  0  0  0
   -8.5380   22.9770  -31.6070 C   0  0  0  0  0  0  0  0  0  0  0  0
   -7.1490   22.7580  -31.5670 C   0  0  0  0  0  0  0  0  0  0  0  0
   -6.2280   23.7790  -31.1580 N   0  0  0  0  0  0  0  0  0  0  0  0
   -4.8070   23.7680  -31.3340 C   0  0  0  0  0  0  0  0  0  0  0  0
   -4.2810   23.1480  -32.2980 O   0  0  0  0  0  0  0  0  0  0  0  0
   -3.9870   24.4700  -30.3930 N   0  0  0  0  0  0  0  0  0  0  0  0
   -3.2280   23.8610  -29.3390 C   0  0  0  0  0  0  0  0  0  0  0  0
   -3.6200   22.6020  -28.8820 C   0  0  0  0  0  0  0  0  0  0  0  0
   -2.9140   21.9730  -27.8600 C   0  0  0  0  0  0  0  0  0  0  0  0
   -1.7910   22.5800  -27.2910 C   0  0  0  0  0  0  0  0  0  0  0  0
   -0.9900   21.7100  -25.9870 Cl  0  0  0  0  0  0  0  0  0  0  0  0
   -1.3450   23.8350  -27.7710 C   0  0  0  0  0  0  0  0  0  0  0  0
    0.1120   24.6190  -27.1050 S   0  0  0  0  0  0  0  0  0  0  0  0
    1.0900   24.9090  -28.2090 O   0  0  0  0  0  0  0  0  0  0  0  0
    0.7940   23.6900  -26.1400 O   0  0  0  0  0  0  0  0  0  0  0  0
   -0.2710   26.1510  -26.2400 C   0  0  0  0  0  0  0  0  0  0  0  0
    0.7940   27.2390  -26.5040 C   0  0  0  0  0  0  0  0  0  0  0  0
    1.0050   28.1820  -25.3030 C   0  0  0  0  0  0  0  0  0  0  0  0
   -0.2390   28.4440  -24.5510 N   0  0  0  0  0  0  0  0  0  0  0  0
   -1.1650   29.3090  -25.3020 C   0  0  0  0  0  0  0  0  0  0  0  0
   -0.8990   27.2150  -24.0360 C   0  0  0  0  0  0  0  0  0  0  0  0
   -0.4560   25.9170  -24.7390 C   0  0  0  0  0  0  0  0  0  0  0  0
   -2.0710   24.4650  -28.8090 C   0  0  0  0  0  0  0  0  0  0  0  0
   -1.6280   25.6720  -29.3390 O   0  0  0  0  0  0  0  0  0  0  0  0
   -6.6470   21.4880  -31.8790 C   0  0  0  0  0  0  0  0  0  0  0  0
   -5.1134   18.6559  -33.3772 H   0  0  0  0  0  0  0  0  0  0  0  0
   -6.5572   18.1502  -34.3187 H   0  0  0  0  0  0  0  0  0  0  0  0
   -6.0426   19.8712  -34.3187 H   0  0  0  0  0  0  0  0  0  0  0  0
   -9.5732   19.8856  -32.6342 H   0  0  0  0  0  0  0  0  0  0  0  0
  -10.4847   22.1247  -32.0285 H   0  0  0  0  0  0  0  0  0  0  0  0
   -8.9464   23.9618  -31.3362 H   0  0  0  0  0  0  0  0  0  0  0  0
   -4.4916   22.1038  -29.3317 H   0  0  0  0  0  0  0  0  0  0  0  0
   -3.2434   20.9884  -27.4967 H   0  0  0  0  0  0  0  0  0  0  0  0
   -1.2265   26.5176  -26.6432 H   0  0  0  0  0  0  0  0  0  0  0  0
    1.7497   26.7451  -26.7336 H   0  0  0  0  0  0  0  0  0  0  0  0
    0.4355   27.8523  -27.3438 H   0  0  0  0  0  0  0  0  0  0  0  0
    1.7369   27.7238  -24.6216 H   0  0  0  0  0  0  0  0  0  0  0  0
    1.3601   29.1451  -25.6985 H   0  0  0  0  0  0  0  0  0  0  0  0
   -1.7819   29.8853  -24.5968 H   0  0  0  0  0  0  0  0  0  0  0  0
   -0.5892   30.0002  -25.9350 H   0  0  0  0  0  0  0  0  0  0  0  0
   -1.8154   28.6875  -25.9350 H   0  0  0  0  0  0  0  0  0  0  0  0
   -0.6681   27.1228  -22.9645 H   0  0  0  0  0  0  0  0  0  0  0  0
   -1.9753   27.3288  -24.2323 H   0  0  0  0  0  0  0  0  0  0  0  0
    0.4971   25.5790  -24.3060 H   0  0  0  0  0  0  0  0  0  0  0  0
   -1.2336   25.1527  -24.5934 H   0  0  0  0  0  0  0  0  0  0  0  0
   -5.5642   21.3032  -31.8201 H   0  0  0  0  0  0  0  0  0  0  0  0
  1  2  1  0
  2  3  1  0
  3  4  2  0
  4  5  1  0
  5  6  2  0
  6  7  1  0
  7  8  1  0
  8  9  1  0
  9 10  2  0
  9 11  1  0
 11 12  1  0
 12 13  2  0
 13 14  1  0
 14 15  2  0
 15 16  1  0
 15 17  1  0
 17 18  1  0
 18 19  2  0
 18 20  2  0
 18 21  1  0
 21 22  1  0
 22 23  1  0
 23 24  1  0
 24 25  1  0
 24 26  1  0
 26 27  1  0
 17 28  2  0
 28 29  1  0
  7 30  2  0
 30  3  1  0
 28 12  1  0
 27 21  1  0
  1 31  1  0
  1 32  1  0
  1 33  1  0
  4 34  1  0
  5 35  1  0
  6 36  1  0
 13 37  1  0
 14 38  1  0
 21 39  1  0
 22 40  1  0
 22 41  1  0
 23 42  1  0
 23 43  1  0
 25 44  1  0
 25 45  1  0
 25 46  1  0
 26 47  1  0
 26 48  1  0
 27 49  1  0
 27 50  1  0
 30 51  1  0
M  CHG  3   8  -1  11  -1  29  -1
M  END
>  <UniqueID>  (31) 
29

>  <SMILES>  (31) 
COc1cccc([N-]C(=O)[N-]c2ccc(Cl)c(S(=O)(=O)C3CCN(C)CC3)c2[O-])c1

>  <Energy>  (31) 
70.52952967506768

>  <Genealogy>  (31) 
COc1cccc([N-]C(=O)[N-]c2ccc(Cl)c(S(=O)(=O)C3CCN(C)CC3)c2[O-])c1 (protonated)
COc1cccc([N-]C(=O)[N-]c2ccc(Cl)c(S(=O)(=O)C3CCN(C)CC3)c2[O-])c1 (3D coordinates assigned)
COc1cccc([N-]C(=O)[N-]c2ccc(Cl)c(S(=O)(=O)C3CCN(C)CC3)c2[O-])c1 (nonaromatic ring conformer: 70.52952967506768 kcal/mol)

>  <smiles>  (31) 
COc1cccc(NC(=O)Nc2ccc(Cl)c(S(=O)(=O)C3CCN(C)CC3)c2O)c1

>  <score_type>  (31) 
oracle

>  <origin>  (31) 
adgpu

>  <m_score__min__energy>  (31) 
-15.1

>  <m_primary>  (31) 
energy

$$$$
31:0
     RDKit          3D

 37 39  0  0  0  0  0  0  0  0999 V2000
   -1.4330   21.1840  -26.9520 C   0  0  0  0  0  0  0  0  0  0  0  0
   -0.8290   22.3110  -26.1800 C   0  0  0  0  0  0  0  0  0  0  0  0
   -0.7980   22.3570  -24.8330 N   0  0  0  0  0  0  0  0  0  0  0  0
   -0.2270   23.4980  -24.4790 N   0  0  0  0  0  0  0  0  0  0  0  0
    0.1160   24.1910  -25.5810 C   0  0  0  0  0  0  0  0  0  0  0  0
    0.7020   25.5660  -25.5630 C   0  0  0  0  0  0  0  0  0  0  0  0
   -0.2620   23.4660  -26.6940 C   0  0  0  0  0  0  0  0  0  0  0  0
   -0.1120   23.9630  -28.3800 S   0  0  0  0  0  0  0  0  0  0  0  0
    1.2600   24.5370  -28.5910 O   0  0  0  0  0  0  0  0  0  0  0  0
   -0.2810   22.7830  -29.2950 O   0  0  0  0  0  0  0  0  0  0  0  0
   -1.3000   25.1740  -28.7700 N   0  0  0  0  0  0  0  0  0  0  0  0
   -2.6200   24.8120  -28.2500 C   0  0  0  0  0  0  0  0  0  0  0  0
   -3.5780   24.5370  -29.3640 C   0  0  0  0  0  0  0  0  0  0  0  0
   -4.4460   23.4700  -29.4530 C   0  0  0  0  0  0  0  0  0  0  0  0
   -5.1030   23.6900  -30.6490 C   0  0  0  0  0  0  0  0  0  0  0  0
   -6.1540   22.8360  -31.2280 C   0  0  0  0  0  0  0  0  0  0  0  0
   -7.5140   23.1330  -31.0370 C   0  0  0  0  0  0  0  0  0  0  0  0
   -8.4840   22.3010  -31.6000 C   0  0  0  0  0  0  0  0  0  0  0  0
   -8.0960   21.1850  -32.3420 C   0  0  0  0  0  0  0  0  0  0  0  0
   -6.7360   20.9170  -32.5140 C   0  0  0  0  0  0  0  0  0  0  0  0
   -5.8060   21.7390  -31.9580 N   0  0  0  0  0  0  0  0  0  0  0  0
   -4.6380   24.8210  -31.2190 N   0  0  0  0  0  0  0  0  0  0  0  0
   -3.7270   25.2990  -30.4220 O   0  0  0  0  0  0  0  0  0  0  0  0
   -1.8345   20.4349  -26.2537 H   0  0  0  0  0  0  0  0  0  0  0  0
   -2.2463   21.5678  -27.5854 H   0  0  0  0  0  0  0  0  0  0  0  0
   -0.6630   20.7193  -27.5854 H   0  0  0  0  0  0  0  0  0  0  0  0
   -0.0890   23.8010  -23.4890 H   0  0  0  0  0  0  0  0  0  0  0  0
    0.8408   25.8918  -24.5216 H   0  0  0  0  0  0  0  0  0  0  0  0
    1.6744   25.5569  -26.0771 H   0  0  0  0  0  0  0  0  0  0  0  0
    0.0220   26.2612  -26.0771 H   0  0  0  0  0  0  0  0  0  0  0  0
   -2.5260   23.9111  -27.6259 H   0  0  0  0  0  0  0  0  0  0  0  0
   -3.0055   25.6539  -27.6562 H   0  0  0  0  0  0  0  0  0  0  0  0
   -4.5830   22.6417  -28.7423 H   0  0  0  0  0  0  0  0  0  0  0  0
   -7.8121   24.0135  -30.4489 H   0  0  0  0  0  0  0  0  0  0  0  0
   -9.5516   22.5250  -31.4588 H   0  0  0  0  0  0  0  0  0  0  0  0
   -8.8534   20.5229  -32.7870 H   0  0  0  0  0  0  0  0  0  0  0  0
   -6.4173   20.0416  -33.0988 H   0  0  0  0  0  0  0  0  0  0  0  0
  1  2  1  0
  2  3  2  0
  3  4  1  0
  4  5  1  0
  5  6  1  0
  5  7  2  0
  7  8  1  0
  8  9  2  0
  8 10  2  0
  8 11  1  0
 11 12  1  0
 12 13  1  0
 13 14  2  0
 14 15  1  0
 15 16  1  0
 16 17  2  0
 17 18  1  0
 18 19  2  0
 19 20  1  0
 20 21  2  0
 15 22  2  0
 22 23  1  0
  7  2  1  0
 23 13  1  0
 21 16  1  0
  1 24  1  0
  1 25  1  0
  1 26  1  0
  4 27  1  0
  6 28  1  0
  6 29  1  0
  6 30  1  0
 12 31  1  0
 12 32  1  0
 14 33  1  0
 17 34  1  0
 18 35  1  0
 19 36  1  0
 20 37  1  0
M  CHG  1  11  -1
M  END
>  <UniqueID>  (32) 
30

>  <SMILES>  (32) 
Cc1n[nH]c(C)c1S(=O)(=O)[N-]Cc1cc(-c2ccccn2)no1

>  <Energy>  (32) 
96.18785681734029

>  <Genealogy>  (32) 
Cc1n[nH]c(C)c1S(=O)(=O)[N-]Cc1cc(-c2ccccn2)no1 (protonated)
Cc1n[nH]c(C)c1S(=O)(=O)[N-]Cc1cc(-c2ccccn2)no1 (3D coordinates assigned)
Cc1n[nH]c(C)c1S(=O)(=O)[N-]Cc1cc(-c2ccccn2)no1 (optimized conformer: 96.18785681734029 kcal/mol)

>  <smiles>  (32) 
Cc1n[nH]c(C)c1S(=O)(=O)NCc1cc(-c2ccccn2)no1

>  <score_type>  (32) 
oracle

>  <origin>  (32) 
adgpu

>  <m_score__min__energy>  (32) 
-10.5

>  <m_primary>  (32) 
energy

$$$$
32:0
     RDKit          3D

 72 75  0  0  0  0  0  0  0  0999 V2000
   -1.3130   20.8030  -34.4920 C   0  0  0  0  0  0  0  0  0  0  0  0
    0.1460   21.1540  -34.6220 C   0  0  0  0  0  0  0  0  0  0  0  0
    0.4970   22.3190  -35.3230 C   0  0  0  0  0  0  0  0  0  0  0  0
    1.8380   22.6810  -35.5160 C   0  0  0  0  0  0  0  0  0  0  0  0
    2.1960   24.1880  -36.3870 S   0  0  0  0  0  0  0  0  0  0  0  0
    2.4720   25.4840  -35.2730 N   0  0  0  0  0  0  0  0  0  0  0  0
    1.0340   24.5640  -37.2630 O   0  0  0  0  0  0  0  0  0  0  0  0
    3.4050   23.9980  -37.2600 O   0  0  0  0  0  0  0  0  0  0  0  0
    2.8590   21.8470  -35.0040 C   0  0  0  0  0  0  0  0  0  0  0  0
    4.3200   22.1840  -35.1490 C   0  0  0  0  0  0  0  0  0  0  0  0
    2.5090   20.7010  -34.2730 C   0  0  0  0  0  0  0  0  0  0  0  0
    1.1660   20.3500  -34.0610 C   0  0  0  0  0  0  0  0  0  0  0  0
    0.8720   19.1310  -33.2710 C   0  0  0  0  0  0  0  0  0  0  0  0
    1.1480   19.1040  -32.0410 O   0  0  0  0  0  0  0  0  0  0  0  0
    0.1970   18.0210  -33.8740 N   0  0  0  0  0  0  0  0  0  0  0  0
   -1.2230   17.8310  -33.8490 C   0  0  0  0  0  0  0  0  0  0  0  0
   -1.8150   17.0480  -34.8440 C   0  0  0  0  0  0  0  0  0  0  0  0
   -3.1980   16.8630  -34.8700 C   0  0  0  0  0  0  0  0  0  0  0  0
   -4.0100   17.4340  -33.8780 C   0  0  0  0  0  0  0  0  0  0  0  0
   -5.4800   17.2720  -33.9200 C   0  0  0  0  0  0  0  0  0  0  0  0
   -5.9730   16.3240  -34.5920 O   0  0  0  0  0  0  0  0  0  0  0  0
   -6.3580   18.1510  -33.1920 N   0  0  0  0  0  0  0  0  0  0  0  0
   -7.6170   17.6310  -32.6520 C   0  0  0  0  0  0  0  0  0  0  0  0
   -8.2220   18.6280  -31.6580 C   0  0  0  0  0  0  0  0  0  0  0  0
   -8.4360   19.9600  -32.2720 N   0  0  0  0  0  0  0  0  0  0  0  0
   -8.6350   20.9750  -31.2250 C   0  0  0  0  0  0  0  0  0  0  0  0
   -7.3840   20.3790  -33.2380 C   0  0  0  0  0  0  0  0  0  0  0  0
   -6.0770   19.5890  -33.0920 C   0  0  0  0  0  0  0  0  0  0  0  0
   -3.4130   18.1980  -32.8600 C   0  0  0  0  0  0  0  0  0  0  0  0
   -2.0220   18.3950  -32.8340 C   0  0  0  0  0  0  0  0  0  0  0  0
   -1.4050   19.0760  -31.7740 O   0  0  0  0  0  0  0  0  0  0  0  0
   -1.7740   20.3400  -31.2930 C   0  0  0  0  0  0  0  0  0  0  0  0
   -0.8320   21.2390  -30.7630 C   0  0  0  0  0  0  0  0  0  0  0  0
   -1.2410   22.4840  -30.2770 C   0  0  0  0  0  0  0  0  0  0  0  0
   -2.5970   22.8420  -30.3090 C   0  0  0  0  0  0  0  0  0  0  0  0
   -3.1280   24.4100  -29.7070 S   0  0  0  0  0  0  0  0  0  0  0  0
   -4.1800   24.1810  -28.2900 C   0  0  0  0  0  0  0  0  0  0  0  0
   -1.9440   25.2420  -29.3010 O   0  0  0  0  0  0  0  0  0  0  0  0
   -3.8830   25.1300  -30.7890 O   0  0  0  0  0  0  0  0  0  0  0  0
   -3.5380   21.9400  -30.8210 C   0  0  0  0  0  0  0  0  0  0  0  0
   -3.1280   20.6930  -31.3010 C   0  0  0  0  0  0  0  0  0  0  0  0
   -1.5811   20.7385  -33.4271 H   0  0  0  0  0  0  0  0  0  0  0  0
   -1.9218   21.5803  -34.9770 H   0  0  0  0  0  0  0  0  0  0  0  0
   -1.5016   19.8339  -34.9770 H   0  0  0  0  0  0  0  0  0  0  0  0
   -0.2975   22.9619  -35.7298 H   0  0  0  0  0  0  0  0  0  0  0  0
    3.3070   25.2380  -34.6980 H   0  0  0  0  0  0  0  0  0  0  0  0
    1.6520   25.5210  -34.6270 H   0  0  0  0  0  0  0  0  0  0  0  0
    4.7729   22.2885  -34.1520 H   0  0  0  0  0  0  0  0  0  0  0  0
    4.8289   21.3796  -35.7004 H   0  0  0  0  0  0  0  0  0  0  0  0
    4.4251   23.1300  -35.7004 H   0  0  0  0  0  0  0  0  0  0  0  0
    3.3038   20.0642  -33.8573 H   0  0  0  0  0  0  0  0  0  0  0  0
   -1.1862   16.5741  -35.6122 H   0  0  0  0  0  0  0  0  0  0  0  0
   -3.6545   16.2658  -35.6731 H   0  0  0  0  0  0  0  0  0  0  0  0
   -8.3253   17.4665  -33.4774 H   0  0  0  0  0  0  0  0  0  0  0  0
   -7.4181   16.6828  -32.1311 H   0  0  0  0  0  0  0  0  0  0  0  0
   -9.1892   18.2384  -31.3077 H   0  0  0  0  0  0  0  0  0  0  0  0
   -7.5164   18.7472  -30.8226 H   0  0  0  0  0  0  0  0  0  0  0  0
   -8.5426   20.5039  -30.2353 H   0  0  0  0  0  0  0  0  0  0  0  0
   -7.8742   21.7627  -31.3286 H   0  0  0  0  0  0  0  0  0  0  0  0
   -9.6369   21.4171  -31.3286 H   0  0  0  0  0  0  0  0  0  0  0  0
   -7.7684   20.2326  -34.2582 H   0  0  0  0  0  0  0  0  0  0  0  0
   -7.1521   21.4340  -33.0300 H   0  0  0  0  0  0  0  0  0  0  0  0
   -5.3804   19.8825  -33.8911 H   0  0  0  0  0  0  0  0  0  0  0  0
   -5.6257   19.8063  -32.1126 H   0  0  0  0  0  0  0  0  0  0  0  0
   -4.0411   18.6461  -32.0760 H   0  0  0  0  0  0  0  0  0  0  0  0
    0.2319   20.9613  -30.7307 H   0  0  0  0  0  0  0  0  0  0  0  0
   -0.4979   23.1847  -29.8685 H   0  0  0  0  0  0  0  0  0  0  0  0
   -3.5899   24.3095  -27.3706 H   0  0  0  0  0  0  0  0  0  0  0  0
   -4.9912   24.9236  -28.3118 H   0  0  0  0  0  0  0  0  0  0  0  0
   -4.6092   23.1684  -28.3118 H   0  0  0  0  0  0  0  0  0  0  0  0
   -4.6031   22.2138  -30.8455 H   0  0  0  0  0  0  0  0  0  0  0  0
   -3.8749   19.9841  -31.6878 H   0  0  0  0  0  0  0  0  0  0  0  0
  1  2  1  0
  2  3  2  0
  3  4  1  0
  4  5  1  0
  5  6  1  0
  5  7  2  0
  5  8  2  0
  4  9  2  0
  9 10  1  0
  9 11  1  0
 11 12  2  0
 12 13  1  0
 13 14  2  0
 13 15  1  0
 15 16  1  0
 16 17  2  0
 17 18  1  0
 18 19  2  0
 19 20  1  0
 20 21  2  0
 20 22  1  0
 22 23  1  0
 23 24  1  0
 24 25  1  0
 25 26  1  0
 25 27  1  0
 27 28  1  0
 19 29  1  0
 29 30  2  0
 30 31  1  0
 31 32  1  0
 32 33  2  0
 33 34  1  0
 34 35  2  0
 35 36  1  0
 36 37  1  0
 36 38  2  0
 36 39  2  0
 35 40  1  0
 40 41  2  0
 12  2  1  0
 30 16  1  0
 41 32  1  0
 28 22  1  0
  1 42  1  0
  1 43  1  0
  1 44  1  0
  3 45  1  0
  6 46  1  0
  6 47  1  0
 10 48  1  0
 10 49  1  0
 10 50  1  0
 11 51  1  0
 17 52  1  0
 18 53  1  0
 23 54  1  0
 23 55  1  0
 24 56  1  0
 24 57  1  0
 26 58  1  0
 26 59  1  0
 26 60  1  0
 27 61  1  0
 27 62  1  0
 28 63  1  0
 28 64  1  0
 29 65  1  0
 33 66  1  0
 34 67  1  0
 37 68  1  0
 37 69  1  0
 37 70  1  0
 40 71  1  0
 41 72  1  0
M  CHG  1  15  -1
M  END
>  <UniqueID>  (33) 
31

>  <SMILES>  (33) 
Cc1cc(S(N)(=O)=O)c(C)cc1C(=O)[N-]c1ccc(C(=O)N2CCN(C)CC2)cc1Oc1ccc(S(C)(=O)=O)cc1

>  <Energy>  (33) 
99.87395513436454

>  <Genealogy>  (33) 
Cc1cc(S(N)(=O)=O)c(C)cc1C(=O)[N-]c1ccc(C(=O)N2CCN(C)CC2)cc1Oc1ccc(S(C)(=O)=O)cc1 (protonated)
Cc1cc(S(N)(=O)=O)c(C)cc1C(=O)[N-]c1ccc(C(=O)N2CCN(C)CC2)cc1Oc1ccc(S(C)(=O)=O)cc1 (3D coordinates assigned)
Cc1cc(S(N)(=O)=O)c(C)cc1C(=O)[N-]c1ccc(C(=O)N2CCN(C)CC2)cc1Oc1ccc(S(C)(=O)=O)cc1 (nonaromatic ring conformer: 99.87395513436454 kcal/mol)

>  <smiles>  (33) 
Cc1cc(S(N)(=O)=O)c(C)cc1C(=O)Nc1ccc(C(=O)N2CCN(C)CC2)cc1Oc1ccc(S(C)(=O)=O)cc1

>  <score_type>  (33) 
oracle

>  <origin>  (33) 
adgpu

>  <m_score__min__energy>  (33) 
-13.039999999999999

>  <m_primary>  (33) 
energy

$$$$
33:0
     RDKit          3D

 41 43  0  0  0  0  0  0  0  0999 V2000
   -1.2220   26.0500  -29.8330 H   0  0  0  0  0  0  0  0  0  0  0  0
   -1.6830   25.6790  -28.9720 N   0  0  0  0  0  0  0  0  0  0  0  0
   -0.9900   24.1290  -28.6580 S   0  0  0  0  0  0  0  0  0  0  0  0
    0.5070   24.2540  -28.6020 O   0  0  0  0  0  0  0  0  0  0  0  0
   -1.4810   23.6170  -27.3330 O   0  0  0  0  0  0  0  0  0  0  0  0
   -1.4490   23.0090  -29.9360 C   0  0  0  0  0  0  0  0  0  0  0  0
   -2.6880   23.1370  -30.5780 C   0  0  0  0  0  0  0  0  0  0  0  0
   -3.3739   23.9467  -30.2883 H   0  0  0  0  0  0  0  0  0  0  0  0
   -3.0560   22.2400  -31.5850 C   0  0  0  0  0  0  0  0  0  0  0  0
   -4.0224   22.3597  -32.0967 H   0  0  0  0  0  0  0  0  0  0  0  0
   -2.2030   21.1900  -31.9470 C   0  0  0  0  0  0  0  0  0  0  0  0
   -2.6120   20.3060  -33.0040 N   0  0  0  0  0  0  0  0  0  0  0  0
   -3.7290   19.6440  -33.0740 C   0  0  0  0  0  0  0  0  0  0  0  0
   -4.0150   18.8140  -34.1000 N   0  0  0  0  0  0  0  0  0  0  0  0
   -5.2590   18.4000  -33.7820 C   0  0  0  0  0  0  0  0  0  0  0  0
   -6.0680   17.4920  -34.6530 C   0  0  0  0  0  0  0  0  0  0  0  0
   -6.6680   16.8186  -34.0234 H   0  0  0  0  0  0  0  0  0  0  0  0
   -6.7360   18.0923  -35.2881 H   0  0  0  0  0  0  0  0  0  0  0  0
   -5.3949   16.8974  -35.2881 H   0  0  0  0  0  0  0  0  0  0  0  0
   -5.6900   18.9620  -32.6340 N   0  0  0  0  0  0  0  0  0  0  0  0
   -7.0060   18.8400  -32.0080 C   0  0  0  0  0  0  0  0  0  0  0  0
   -7.6182   18.1305  -32.5840 H   0  0  0  0  0  0  0  0  0  0  0  0
   -6.8812   18.4770  -30.9771 H   0  0  0  0  0  0  0  0  0  0  0  0
   -7.6920   20.1780  -31.9780 C   0  0  0  0  0  0  0  0  0  0  0  0
   -9.0480   20.2770  -31.6290 C   0  0  0  0  0  0  0  0  0  0  0  0
   -9.6111   19.3725  -31.3554 H   0  0  0  0  0  0  0  0  0  0  0  0
   -9.6850   21.5210  -31.6280 C   0  0  0  0  0  0  0  0  0  0  0  0
  -10.7475   21.5930  -31.3524 H   0  0  0  0  0  0  0  0  0  0  0  0
   -8.9760   22.6730  -31.9760 C   0  0  0  0  0  0  0  0  0  0  0  0
   -9.4811   23.6502  -31.9723 H   0  0  0  0  0  0  0  0  0  0  0  0
   -7.6220   22.5870  -32.3300 C   0  0  0  0  0  0  0  0  0  0  0  0
   -6.8970   23.7650  -32.6910 N   0  0  0  0  0  0  0  0  0  0  0  0
   -6.9100   24.6100  -32.0770 H   0  0  0  0  0  0  0  0  0  0  0  0
   -6.3430   23.8020  -33.5750 H   0  0  0  0  0  0  0  0  0  0  0  0
   -6.9840   21.3380  -32.3300 C   0  0  0  0  0  0  0  0  0  0  0  0
   -5.9220   21.2669  -32.6076 H   0  0  0  0  0  0  0  0  0  0  0  0
   -4.7380   19.7590  -32.1860 N   0  0  0  0  0  0  0  0  0  0  0  0
   -0.9490   21.0750  -31.3170 C   0  0  0  0  0  0  0  0  0  0  0  0
   -0.2557   20.2757  -31.6176 H   0  0  0  0  0  0  0  0  0  0  0  0
   -0.5820   21.9740  -30.3100 C   0  0  0  0  0  0  0  0  0  0  0  0
    0.3918   21.8678  -29.8095 H   0  0  0  0  0  0  0  0  0  0  0  0
  1  2  1  0
  2  3  1  0
  3  4  2  0
  3  5  2  0
  3  6  1  0
  6  7  2  0
  7  8  1  0
  7  9  1  0
  9 10  1  0
  9 11  2  0
 11 12  1  0
 12 13  2  0
 13 14  1  0
 14 15  2  0
 15 16  1  0
 16 17  1  0
 16 18  1  0
 16 19  1  0
 15 20  1  0
 20 21  1  0
 21 22  1  0
 21 23  1  0
 21 24  1  0
 24 25  2  0
 25 26  1  0
 25 27  1  0
 27 28  1  0
 27 29  2  0
 29 30  1  0
 29 31  1  0
 31 32  1  0
 32 33  1  0
 32 34  1  0
 31 35  2  0
 35 36  1  0
 20 37  1  0
 11 38  1  0
 38 39  1  0
 38 40  2  0
 40 41  1  0
 40  6  1  0
 37 13  1  0
 35 24  1  0
M  CHG  2   2  -1  37  -1
M  END
>  <UniqueID>  (34) 
32

>  <SMILES>  (34) 
Cc1n/c(=N/c2ccc(S([NH-])(=O)=O)cc2)[n-]n1Cc1cccc(N)c1

>  <Energy>  (34) 
78.11140149652097

>  <Genealogy>  (34) 
Cc1nc(=Nc2ccc(S([NH-])(=O)=O)cc2)[n-]n1Cc1cccc(N)c1 (protonated)
Cc1n/c(=N/c2ccc(S([NH-])(=O)=O)cc2)[n-]n1Cc1cccc(N)c1 (cis-trans isomerization)
Cc1n/c(=N/c2ccc(S([NH-])(=O)=O)cc2)[n-]n1Cc1cccc(N)c1 (3D coordinates assigned)
Cc1n/c(=N/c2ccc(S([NH-])(=O)=O)cc2)[n-]n1Cc1cccc(N)c1 (optimized conformer: 78.11140149652097 kcal/mol)

>  <smiles>  (34) 
Cc1nc(=Nc2ccc(S(N)(=O)=O)cc2)[nH]n1Cc1cccc(N)c1

>  <score_type>  (34) 
oracle

>  <origin>  (34) 
adgpu

>  <m_score__min__energy>  (34) 
-10.98

>  <m_primary>  (34) 
energy

$$$$
34:0
     RDKit          3D

 46 48  0  0  0  0  0  0  0  0999 V2000
   -4.4680   23.9210  -31.9220 H   0  0  0  0  0  0  0  0  0  0  0  0
   -5.3760   23.4400  -32.0940 N   0  0  0  0  0  0  0  0  0  0  0  0
   -5.5350   22.1940  -32.4210 C   0  0  0  0  0  0  0  0  0  0  0  0
   -6.8070   21.7470  -32.6000 N   0  0  0  0  0  0  0  0  0  0  0  0
   -7.1040   20.4650  -32.9390 C   0  0  0  0  0  0  0  0  0  0  0  0
   -8.4710   20.0590  -33.1160 N   0  0  0  0  0  0  0  0  0  0  0  0
   -8.7920   19.7540  -34.0620 H   0  0  0  0  0  0  0  0  0  0  0  0
   -9.4580   20.1190  -32.0400 C   0  0  0  0  0  0  0  0  0  0  0  0
  -10.4436   19.8349  -32.4374 H   0  0  0  0  0  0  0  0  0  0  0  0
   -9.1548   19.4253  -31.2420 H   0  0  0  0  0  0  0  0  0  0  0  0
   -9.5380   21.5280  -31.4620 C   0  0  0  0  0  0  0  0  0  0  0  0
   -9.5350   21.4743  -30.3633 H   0  0  0  0  0  0  0  0  0  0  0  0
   -8.6717   22.1139  -31.8029 H   0  0  0  0  0  0  0  0  0  0  0  0
  -10.4651   22.0121  -31.8029 H   0  0  0  0  0  0  0  0  0  0  0  0
   -6.0730   19.5440  -33.1190 C   0  0  0  0  0  0  0  0  0  0  0  0
   -6.3031   18.5042  -33.3943 H   0  0  0  0  0  0  0  0  0  0  0  0
   -4.7440   19.9480  -32.9480 C   0  0  0  0  0  0  0  0  0  0  0  0
   -3.7070   19.0210  -33.1290 C   0  0  0  0  0  0  0  0  0  0  0  0
   -3.9442   17.9835  -33.4071 H   0  0  0  0  0  0  0  0  0  0  0  0
   -2.3790   19.4050  -32.9590 C   0  0  0  0  0  0  0  0  0  0  0  0
   -1.5735   18.6712  -33.1098 H   0  0  0  0  0  0  0  0  0  0  0  0
   -2.0640   20.7210  -32.5970 C   0  0  0  0  0  0  0  0  0  0  0  0
   -0.6260   21.1350  -32.4180 C   0  0  0  0  0  0  0  0  0  0  0  0
    0.0079   20.5362  -33.0885 H   0  0  0  0  0  0  0  0  0  0  0  0
   -0.5342   22.2044  -32.6586 H   0  0  0  0  0  0  0  0  0  0  0  0
   -0.2040   20.9310  -31.0680 O   0  0  0  0  0  0  0  0  0  0  0  0
   -0.5350   21.7570  -29.9820 C   0  0  0  0  0  0  0  0  0  0  0  0
   -0.0940   21.5000  -28.6700 C   0  0  0  0  0  0  0  0  0  0  0  0
    0.5282   20.6166  -28.4637 H   0  0  0  0  0  0  0  0  0  0  0  0
   -0.4440   22.3630  -27.6300 C   0  0  0  0  0  0  0  0  0  0  0  0
   -0.0880   22.1636  -26.6085 H   0  0  0  0  0  0  0  0  0  0  0  0
   -1.2450   23.4790  -27.8830 C   0  0  0  0  0  0  0  0  0  0  0  0
   -1.5082   24.1614  -27.0614 H   0  0  0  0  0  0  0  0  0  0  0  0
   -1.7140   23.7330  -29.1760 C   0  0  0  0  0  0  0  0  0  0  0  0
   -2.5160   24.9000  -29.4060 N   0  0  0  0  0  0  0  0  0  0  0  0
   -3.8800   24.9250  -29.8490 C   0  0  0  0  0  0  0  0  0  0  0  0
   -4.1810   25.6270  -30.8500 O   0  0  0  0  0  0  0  0  0  0  0  0
   -4.9640   24.1770  -29.1350 C   0  0  0  0  0  0  0  0  0  0  0  0
   -4.8225   24.2746  -28.0485 H   0  0  0  0  0  0  0  0  0  0  0  0
   -5.9428   24.5928  -29.4161 H   0  0  0  0  0  0  0  0  0  0  0  0
   -4.9226   23.1143  -29.4161 H   0  0  0  0  0  0  0  0  0  0  0  0
   -1.3320   22.8820  -30.2270 C   0  0  0  0  0  0  0  0  0  0  0  0
   -1.6625   23.1019  -31.2529 H   0  0  0  0  0  0  0  0  0  0  0  0
   -3.0920   21.6600  -32.4290 C   0  0  0  0  0  0  0  0  0  0  0  0
   -2.8409   22.6982  -32.1662 H   0  0  0  0  0  0  0  0  0  0  0  0
   -4.4480   21.2900  -32.5930 C   0  0  0  0  0  0  0  0  0  0  0  0
  1  2  1  0
  2  3  2  0
  3  4  1  0
  4  5  1  0
  5  6  1  0
  6  7  1  0
  6  8  1  0
  8  9  1  0
  8 10  1  0
  8 11  1  0
 11 12  1  0
 11 13  1  0
 11 14  1  0
  5 15  2  0
 15 16  1  0
 15 17  1  0
 17 18  2  0
 18 19  1  0
 18 20  1  0
 20 21  1  0
 20 22  2  0
 22 23  1  0
 23 24  1  0
 23 25  1  0
 23 26  1  0
 26 27  1  0
 27 28  2  0
 28 29  1  0
 28 30  1  0
 30 31  1  0
 30 32  2  0
 32 33  1  0
 32 34  1  0
 34 35  1  0
 35 36  1  0
 36 37  2  0
 36 38  1  0
 38 39  1  0
 38 40  1  0
 38 41  1  0
 34 42  2  0
 42 43  1  0
 22 44  1  0
 44 45  1  0
 44 46  2  0
 46  3  1  0
 46 17  1  0
 42 27  1  0
M  CHG  2   4  -1  35  -1
M  END
>  <UniqueID>  (35) 
33

>  <SMILES>  (35) 
[H]/N=c1/[n-]c(NCC)cc2ccc(COc3cccc([N-]C(C)=O)c3)cc12

>  <Energy>  (35) 
54.41998050797163

>  <Genealogy>  (35) 
CCNc1cc2ccc(COc3cccc([N-]C(C)=O)c3)cc2c(=N)[n-]1 (protonated)
[H]/N=c1/[n-]c(NCC)cc2ccc(COc3cccc([N-]C(C)=O)c3)cc12 (cis-trans isomerization)
[H]/N=c1/[n-]c(NCC)cc2ccc(COc3cccc([N-]C(C)=O)c3)cc12 (3D coordinates assigned)
[H]/N=c1/[n-]c(NCC)cc2ccc(COc3cccc([N-]C(C)=O)c3)cc12 (optimized conformer: 54.41998050797163 kcal/mol)

>  <smiles>  (35) 
CCNc1cc2ccc(COc3cccc(NC(C)=O)c3)cc2c(=N)[nH]1

>  <score_type>  (35) 
oracle

>  <origin>  (35) 
adgpu

>  <m_score__min__energy>  (35) 
-10.56

>  <m_primary>  (35) 
energy

$$$$
35:0
     RDKit          3D

 48 51  0  0  0  0  0  0  0  0999 V2000
   -9.1220   18.4710  -31.7790 C   0  0  0  0  0  0  0  0  0  0  0  0
   -8.0930   19.4960  -32.1150 C   0  0  0  0  0  0  0  0  0  0  0  0
   -8.2220   20.8560  -31.9100 C   0  0  0  0  0  0  0  0  0  0  0  0
   -7.0340   21.3920  -32.3670 C   0  0  0  0  0  0  0  0  0  0  0  0
   -6.6830   22.7790  -32.4360 N   0  0  0  0  0  0  0  0  0  0  0  0
   -6.6120   23.6710  -31.3190 C   0  0  0  0  0  0  0  0  0  0  0  0
   -7.6810   24.1340  -30.8430 O   0  0  0  0  0  0  0  0  0  0  0  0
   -5.3250   24.1080  -30.7460 C   0  0  0  0  0  0  0  0  0  0  0  0
   -4.6190   23.4880  -29.7350 C   0  0  0  0  0  0  0  0  0  0  0  0
   -3.4780   24.2580  -29.5980 C   0  0  0  0  0  0  0  0  0  0  0  0
   -2.3730   24.0410  -28.6290 C   0  0  0  0  0  0  0  0  0  0  0  0
   -2.3850   22.9120  -27.7840 C   0  0  0  0  0  0  0  0  0  0  0  0
   -1.3550   22.7010  -26.8630 C   0  0  0  0  0  0  0  0  0  0  0  0
   -0.3010   23.6090  -26.7700 C   0  0  0  0  0  0  0  0  0  0  0  0
   -0.2730   24.7330  -27.5970 C   0  0  0  0  0  0  0  0  0  0  0  0
   -1.2990   24.9550  -28.5240 C   0  0  0  0  0  0  0  0  0  0  0  0
   -1.2300   26.0800  -29.3390 O   0  0  0  0  0  0  0  0  0  0  0  0
   -3.5130   25.2650  -30.4960 N   0  0  0  0  0  0  0  0  0  0  0  0
   -4.6320   25.1700  -31.1970 N   0  0  0  0  0  0  0  0  0  0  0  0
   -6.2750   20.3430  -32.8450 C   0  0  0  0  0  0  0  0  0  0  0  0
   -4.9130   20.4350  -33.4820 C   0  0  0  0  0  0  0  0  0  0  0  0
   -3.8100   20.1670  -32.5340 N   0  0  0  0  0  0  0  0  0  0  0  0
   -2.4580   20.3980  -33.1030 C   0  0  0  0  0  0  0  0  0  0  0  0
   -1.7550   21.6020  -32.4590 C   0  0  0  0  0  0  0  0  0  0  0  0
   -1.6220   21.4410  -31.0000 N   0  0  0  0  0  0  0  0  0  0  0  0
   -2.7500   20.7270  -30.3670 C   0  0  0  0  0  0  0  0  0  0  0  0
   -4.0290   20.7880  -31.2100 C   0  0  0  0  0  0  0  0  0  0  0  0
   -6.9330   19.2190  -32.6700 O   0  0  0  0  0  0  0  0  0  0  0  0
   -9.2095   18.3839  -30.6860 H   0  0  0  0  0  0  0  0  0  0  0  0
  -10.0917   18.7727  -32.2016 H   0  0  0  0  0  0  0  0  0  0  0  0
   -8.8241   17.5001  -32.2016 H   0  0  0  0  0  0  0  0  0  0  0  0
   -9.0799   21.3926  -31.4788 H   0  0  0  0  0  0  0  0  0  0  0  0
   -4.8994   22.5879  -29.1682 H   0  0  0  0  0  0  0  0  0  0  0  0
   -3.2128   22.1906  -27.8503 H   0  0  0  0  0  0  0  0  0  0  0  0
   -1.3760   21.8162  -26.2098 H   0  0  0  0  0  0  0  0  0  0  0  0
    0.5085   23.4395  -26.0448 H   0  0  0  0  0  0  0  0  0  0  0  0
    0.5593   25.4482  -27.5203 H   0  0  0  0  0  0  0  0  0  0  0  0
   -4.8584   19.7008  -34.2993 H   0  0  0  0  0  0  0  0  0  0  0  0
   -4.7899   21.4658  -33.8456 H   0  0  0  0  0  0  0  0  0  0  0  0
   -1.8455   19.4996  -32.9366 H   0  0  0  0  0  0  0  0  0  0  0  0
   -2.5751   20.6099  -34.1760 H   0  0  0  0  0  0  0  0  0  0  0  0
   -0.7521   21.7061  -32.8988 H   0  0  0  0  0  0  0  0  0  0  0  0
   -2.3650   22.4972  -32.6504 H   0  0  0  0  0  0  0  0  0  0  0  0
   -1.5500   22.3960  -30.5770 H   0  0  0  0  0  0  0  0  0  0  0  0
   -2.4678   19.6727  -30.2295 H   0  0  0  0  0  0  0  0  0  0  0  0
   -2.9593   21.2178  -29.4051 H   0  0  0  0  0  0  0  0  0  0  0  0
   -4.8329   20.2495  -30.6867 H   0  0  0  0  0  0  0  0  0  0  0  0
   -4.3084   21.8421  -31.3546 H   0  0  0  0  0  0  0  0  0  0  0  0
  1  2  1  0
  2  3  2  0
  3  4  1  0
  4  5  1  0
  5  6  1  0
  6  7  2  0
  6  8  1  0
  8  9  1  0
  9 10  2  0
 10 11  1  0
 11 12  2  0
 12 13  1  0
 13 14  2  0
 14 15  1  0
 15 16  2  0
 16 17  1  0
 10 18  1  0
 18 19  1  0
  4 20  2  0
 20 21  1  0
 21 22  1  0
 22 23  1  0
 23 24  1  0
 24 25  1  0
 25 26  1  0
 26 27  1  0
 20 28  1  0
 28  2  1  0
 19  8  2  0
 27 22  1  0
 16 11  1  0
  1 29  1  0
  1 30  1  0
  1 31  1  0
  3 32  1  0
  9 33  1  0
 12 34  1  0
 13 35  1  0
 14 36  1  0
 15 37  1  0
 21 38  1  0
 21 39  1  0
 23 40  1  0
 23 41  1  0
 24 42  1  0
 24 43  1  0
 25 44  1  0
 26 45  1  0
 26 46  1  0
 27 47  1  0
 27 48  1  0
M  CHG  3   5  -1  17  -1  18  -1
M  END
>  <UniqueID>  (36) 
34

>  <SMILES>  (36) 
Cc1cc([N-]C(=O)c2cc(-c3ccccc3[O-])[n-]n2)c(CN2CCNCC2)o1

>  <Energy>  (36) 
123.99208446453119

>  <Genealogy>  (36) 
Cc1cc([N-]C(=O)c2cc(-c3ccccc3[O-])[n-]n2)c(CN2CCNCC2)o1 (protonated)
Cc1cc([N-]C(=O)c2cc(-c3ccccc3[O-])[n-]n2)c(CN2CCNCC2)o1 (3D coordinates assigned)
Cc1cc([N-]C(=O)c2cc(-c3ccccc3[O-])[n-]n2)c(CN2CCNCC2)o1 (nonaromatic ring conformer: 123.99208446453119 kcal/mol)

>  <smiles>  (36) 
Cc1cc(NC(=O)c2cc(-c3ccccc3O)[nH]n2)c(CN2CCNCC2)o1

>  <score_type>  (36) 
oracle

>  <origin>  (36) 
adgpu

>  <m_score__min__energy>  (36) 
-13.83

>  <m_primary>  (36) 
energy

$$$$
36:0
     RDKit          3D

 62 65  0  0  1  0  0  0  0  0999 V2000
   -9.1950   18.9170  -32.3010 C   0  0  0  0  0  0  0  0  0  0  0  0
   -7.7840   19.3320  -32.4600 C   0  0  0  0  0  0  0  0  0  0  0  0
   -7.2820   20.4610  -31.8060 C   0  0  0  0  0  0  0  0  0  0  0  0
   -5.9540   20.8380  -31.9640 C   0  0  0  0  0  0  0  0  0  0  0  0
   -5.5160   21.8610  -31.3660 N   0  0  0  0  0  0  0  0  0  0  0  0
   -3.8980   22.3990  -31.5020 S   0  0  0  0  0  0  0  0  0  0  0  0
   -3.8770   23.9050  -31.2140 O   0  0  0  0  0  0  0  0  0  0  0  0
   -3.3560   22.2910  -32.9140 O   0  0  0  0  0  0  0  0  0  0  0  0
   -2.7940   21.6590  -30.4040 C   0  0  0  0  0  0  0  0  0  0  0  0
   -3.1360   20.9490  -29.2800 C   0  0  0  0  0  0  0  0  0  0  0  0
   -2.1770   20.3950  -28.4510 C   0  0  0  0  0  0  0  0  0  0  0  0
   -0.8400   20.5160  -28.6940 C   0  0  0  0  0  0  0  0  0  0  0  0
    0.2100   20.0050  -27.9130 N   0  0  0  0  0  0  0  0  0  0  0  0
    1.4060   18.8910  -28.4220 S   0  0  0  0  0  0  0  0  0  0  0  0
    2.6190   19.6370  -28.9440 O   0  0  0  0  0  0  0  0  0  0  0  0
    1.9090   18.1340  -27.2050 O   0  0  0  0  0  0  0  0  0  0  0  0
    0.8590   17.8000  -29.6420 C   0  0  0  0  0  0  0  0  0  0  0  0
    1.1200   16.4480  -29.6720 C   0  0  0  0  0  0  0  0  0  0  0  0
    0.6280   15.6740  -30.7030 C   0  0  0  0  0  0  0  0  0  0  0  0
   -0.1300   16.1820  -31.7360 C   0  0  0  0  0  0  0  0  0  0  0  0
   -0.3930   17.5360  -31.7070 C   0  0  0  0  0  0  0  0  0  0  0  0
   -1.3490   18.3180  -32.9610 S   0  0  0  0  0  0  0  0  0  0  0  0
   -2.4020   19.1870  -32.3330 O   0  0  0  0  0  0  0  0  0  0  0  0
   -2.0680   17.2890  -33.7710 O   0  0  0  0  0  0  0  0  0  0  0  0
   -0.3820   19.3290  -33.9720 N   0  0  0  0  0  0  0  0  0  0  0  0
   -1.1540   20.3230  -34.6540 C   0  0  0  0  0  0  0  0  0  0  0  0
   -0.7590   21.7150  -34.2210 C   0  0  0  0  0  0  0  0  0  0  0  0
    0.5680   21.9190  -34.5840 O   0  0  0  0  0  0  0  0  0  0  0  0
    1.4110   20.8820  -34.2030 C   0  0  0  0  0  0  0  0  0  0  0  0
    0.7540   19.8920  -33.2670 C   0  0  0  0  0  0  0  0  0  0  0  0
    0.0900   18.3300  -30.6830 C   0  0  0  0  0  0  0  0  0  0  0  0
   -0.4770   21.2370  -29.8360 C   0  0  0  0  0  0  0  0  0  0  0  0
   -1.4330   21.7890  -30.6620 C   0  0  0  0  0  0  0  0  0  0  0  0
   -5.2010   20.0720  -32.7620 N   0  0  0  0  0  0  0  0  0  0  0  0
   -5.6470   18.9830  -33.4050 C   0  0  0  0  0  0  0  0  0  0  0  0
   -4.7010   18.2220  -34.2640 C   0  0  0  0  0  0  0  0  0  0  0  0
   -6.9350   18.6350  -33.2390 N   0  0  0  0  0  0  0  0  0  0  0  0
   -9.4378   18.8456  -31.2305 H   0  0  0  0  0  0  0  0  0  0  0  0
   -9.8516   19.6601  -32.7771 H   0  0  0  0  0  0  0  0  0  0  0  0
   -9.3448   17.9368  -32.7771 H   0  0  0  0  0  0  0  0  0  0  0  0
   -7.9444   21.0564  -31.1604 H   0  0  0  0  0  0  0  0  0  0  0  0
   -4.1996   20.8172  -29.0322 H   0  0  0  0  0  0  0  0  0  0  0  0
   -2.5049   19.8358  -27.5623 H   0  0  0  0  0  0  0  0  0  0  0  0
    0.2420   20.3610  -26.9050 H   0  0  0  0  0  0  0  0  0  0  0  0
    1.7203   15.9855  -28.8746 H   0  0  0  0  0  0  0  0  0  0  0  0
    0.8521   14.5971  -30.7003 H   0  0  0  0  0  0  0  0  0  0  0  0
   -0.5071   15.5387  -32.5447 H   0  0  0  0  0  0  0  0  0  0  0  0
   -0.9894   20.2241  -35.7371 H   0  0  0  0  0  0  0  0  0  0  0  0
   -2.2148   20.1697  -34.4067 H   0  0  0  0  0  0  0  0  0  0  0  0
   -1.4004   22.4568  -34.7194 H   0  0  0  0  0  0  0  0  0  0  0  0
   -0.8781   21.8244  -33.1330 H   0  0  0  0  0  0  0  0  0  0  0  0
    1.7358   20.3457  -35.1068 H   0  0  0  0  0  0  0  0  0  0  0  0
    2.2569   21.3310  -33.6619 H   0  0  0  0  0  0  0  0  0  0  0  0
    1.4648   19.0961  -32.9999 H   0  0  0  0  0  0  0  0  0  0  0  0
    0.4333   20.3850  -32.3374 H   0  0  0  0  0  0  0  0  0  0  0  0
   -0.1365   19.4064  -30.6873 H   0  0  0  0  0  0  0  0  0  0  0  0
    0.5881   21.3657  -30.0791 H   0  0  0  0  0  0  0  0  0  0  0  0
   -1.1099   22.3491  -31.5519 H   0  0  0  0  0  0  0  0  0  0  0  0
   -4.2100   20.3470  -32.8850 H   0  0  0  0  0  0  0  0  0  0  0  0
   -4.0010   17.6589  -33.6292 H   0  0  0  0  0  0  0  0  0  0  0  0
   -5.2641   17.5223  -34.8991 H   0  0  0  0  0  0  0  0  0  0  0  0
   -4.1382   18.9219  -34.8991 H   0  0  0  0  0  0  0  0  0  0  0  0
  1  2  1  0
  2  3  2  0
  3  4  1  0
  4  5  2  0
  5  6  1  0
  6  7  2  0
  6  8  2  0
  6  9  1  0
  9 10  2  0
 10 11  1  0
 11 12  2  0
 12 13  1  0
 13 14  1  0
 14 15  2  0
 14 16  2  0
 14 17  1  0
 17 18  2  0
 18 19  1  0
 19 20  2  0
 20 21  1  0
 21 22  1  0
 22 23  2  0
 22 24  2  0
 22 25  1  0
 25 26  1  0
 26 27  1  0
 27 28  1  0
 28 29  1  0
 29 30  1  0
 21 31  2  0
 12 32  1  0
 32 33  2  0
  4 34  1  0
 34 35  1  0
 35 36  1  0
 35 37  2  0
 37  2  1  0
 33  9  1  0
 31 17  1  0
 30 25  1  0
  1 38  1  0
  1 39  1  0
  1 40  1  0
  3 41  1  0
 10 42  1  0
 11 43  1  0
 13 44  1  0
 18 45  1  0
 19 46  1  0
 20 47  1  0
 26 48  1  0
 26 49  1  0
 27 50  1  0
 27 51  1  0
 29 52  1  0
 29 53  1  0
 30 54  1  0
 30 55  1  0
 31 56  1  0
 32 57  1  0
 33 58  1  0
 34 59  1  0
 36 60  1  0
 36 61  1  0
 36 62  1  0
M  END
>  <smiles>  (37) 
Cc1cc(=NS(=O)(=O)c2ccc(NS(=O)(=O)c3cccc(S(=O)(=O)N4CCOCC4)c3)cc2)[nH]c(C)n1

>  <score_type>  (37) 
oracle

>  <origin>  (37) 
adgpu

>  <m_score__min__energy>  (37) 
-11.6

>  <m_primary>  (37) 
energy

$$$$
37:0
     RDKit          3D

 48 51  0  0  0  0  0  0  0  0999 V2000
   -6.4750   18.3100  -33.8290 C   0  0  0  0  0  0  0  0  0  0  0  0
   -6.3660   18.3790  -32.3610 N   0  0  0  0  0  0  0  0  0  0  0  0
   -7.6800   18.3180  -31.6900 C   0  0  0  0  0  0  0  0  0  0  0  0
   -8.5600   19.5370  -32.0050 C   0  0  0  0  0  0  0  0  0  0  0  0
   -7.7890   20.8290  -31.9470 C   0  0  0  0  0  0  0  0  0  0  0  0
   -8.4900   22.0440  -31.9400 C   0  0  0  0  0  0  0  0  0  0  0  0
   -7.8020   23.2590  -31.9450 C   0  0  0  0  0  0  0  0  0  0  0  0
   -6.4040   23.2810  -31.9840 C   0  0  0  0  0  0  0  0  0  0  0  0
   -5.7330   24.5490  -31.9650 N   0  0  0  0  0  0  0  0  0  0  0  0
   -5.2740   25.2360  -30.7970 C   0  0  0  0  0  0  0  0  0  0  0  0
   -6.1010   25.8860  -30.1040 O   0  0  0  0  0  0  0  0  0  0  0  0
   -3.8770   25.2760  -30.4770 N   0  0  0  0  0  0  0  0  0  0  0  0
   -3.2090   24.3990  -29.5610 C   0  0  0  0  0  0  0  0  0  0  0  0
   -3.7340   23.1210  -29.3630 C   0  0  0  0  0  0  0  0  0  0  0  0
   -3.1130   22.2300  -28.4920 C   0  0  0  0  0  0  0  0  0  0  0  0
   -1.9720   22.6110  -27.7790 C   0  0  0  0  0  0  0  0  0  0  0  0
   -1.2210   21.4000  -26.7450 Cl  0  0  0  0  0  0  0  0  0  0  0  0
   -1.4580   23.9220  -27.9150 C   0  0  0  0  0  0  0  0  0  0  0  0
   -0.0260   24.4370  -26.9960 S   0  0  0  0  0  0  0  0  0  0  0  0
    1.1300   24.6680  -27.9290 O   0  0  0  0  0  0  0  0  0  0  0  0
    0.3850   23.3720  -26.0170 O   0  0  0  0  0  0  0  0  0  0  0  0
   -0.4400   25.9190  -26.0790 C   0  0  0  0  0  0  0  0  0  0  0  0
   -0.8300   25.7160  -24.6240 C   0  0  0  0  0  0  0  0  0  0  0  0
   -1.9000   26.0040  -25.6650 C   0  0  0  0  0  0  0  0  0  0  0  0
   -2.0840   24.8120  -28.8170 C   0  0  0  0  0  0  0  0  0  0  0  0
   -1.6100   26.1130  -28.9580 O   0  0  0  0  0  0  0  0  0  0  0  0
   -5.6960   22.0670  -31.9740 C   0  0  0  0  0  0  0  0  0  0  0  0
   -6.3800   20.8420  -31.9840 C   0  0  0  0  0  0  0  0  0  0  0  0
   -5.5910   19.5550  -31.9180 C   0  0  0  0  0  0  0  0  0  0  0  0
   -7.3750   17.7403  -34.1035 H   0  0  0  0  0  0  0  0  0  0  0  0
   -6.5461   19.3280  -34.2397 H   0  0  0  0  0  0  0  0  0  0  0  0
   -5.5853   17.8102  -34.2397 H   0  0  0  0  0  0  0  0  0  0  0  0
   -8.2038   17.4097  -32.0226 H   0  0  0  0  0  0  0  0  0  0  0  0
   -7.5003   18.3077  -30.6048 H   0  0  0  0  0  0  0  0  0  0  0  0
   -8.9781   19.4197  -33.0157 H   0  0  0  0  0  0  0  0  0  0  0  0
   -9.3536   19.5844  -31.2448 H   0  0  0  0  0  0  0  0  0  0  0  0
   -9.5899   22.0396  -31.9305 H   0  0  0  0  0  0  0  0  0  0  0  0
   -8.3630   24.2048  -31.9181 H   0  0  0  0  0  0  0  0  0  0  0  0
   -4.6448   22.8157  -29.8989 H   0  0  0  0  0  0  0  0  0  0  0  0
   -3.5234   21.2175  -28.3636 H   0  0  0  0  0  0  0  0  0  0  0  0
    0.2742   26.5745  -26.5988 H   0  0  0  0  0  0  0  0  0  0  0  0
   -0.7593   24.7166  -24.1699 H   0  0  0  0  0  0  0  0  0  0  0  0
   -0.5322   26.1714  -23.6680 H   0  0  0  0  0  0  0  0  0  0  0  0
   -2.6035   25.2130  -25.9641 H   0  0  0  0  0  0  0  0  0  0  0  0
   -2.6971   26.7541  -25.7742 H   0  0  0  0  0  0  0  0  0  0  0  0
   -4.5962   22.0773  -31.9582 H   0  0  0  0  0  0  0  0  0  0  0  0
   -4.7050   19.6537  -32.5624 H   0  0  0  0  0  0  0  0  0  0  0  0
   -5.3174   19.3908  -30.8653 H   0  0  0  0  0  0  0  0  0  0  0  0
  1  2  1  0
  2  3  1  0
  3  4  1  0
  4  5  1  0
  5  6  2  0
  6  7  1  0
  7  8  2  0
  8  9  1  0
  9 10  1  0
 10 11  2  0
 10 12  1  0
 12 13  1  0
 13 14  2  0
 14 15  1  0
 15 16  2  0
 16 17  1  0
 16 18  1  0
 18 19  1  0
 19 20  2  0
 19 21  2  0
 19 22  1  0
 22 23  1  0
 23 24  1  0
 18 25  2  0
 25 26  1  0
  8 27  1  0
 27 28  2  0
 28 29  1  0
 29  2  1  0
 28  5  1  0
 25 13  1  0
 24 22  1  0
  1 30  1  0
  1 31  1  0
  1 32  1  0
  3 33  1  0
  3 34  1  0
  4 35  1  0
  4 36  1  0
  6 37  1  0
  7 38  1  0
 14 39  1  0
 15 40  1  0
 22 41  1  0
 23 42  1  0
 23 43  1  0
 24 44  1  0
 24 45  1  0
 27 46  1  0
 29 47  1  0
 29 48  1  0
M  CHG  3   9  -1  12  -1  26  -1
M  END
>  <UniqueID>  (38) 
35

>  <SMILES>  (38) 
CN1CCc2ccc([N-]C(=O)[N-]c3ccc(Cl)c(S(=O)(=O)C4CC4)c3[O-])cc2C1

>  <Energy>  (38) 
330.7792024967466

>  <Genealogy>  (38) 
CN1CCc2ccc([N-]C(=O)[N-]c3ccc(Cl)c(S(=O)(=O)C4CC4)c3[O-])cc2C1 (protonated)
CN1CCc2ccc([N-]C(=O)[N-]c3ccc(Cl)c(S(=O)(=O)C4CC4)c3[O-])cc2C1 (3D coordinates assigned)
CN1CCc2ccc([N-]C(=O)[N-]c3ccc(Cl)c(S(=O)(=O)C4CC4)c3[O-])cc2C1 (nonaromatic ring conformer: 330.7792024967466 kcal/mol)

>  <smiles>  (38) 
CN1CCc2ccc(NC(=O)Nc3ccc(Cl)c(S(=O)(=O)C4CC4)c3O)cc2C1

>  <score_type>  (38) 
oracle

>  <origin>  (38) 
adgpu

>  <m_score__min__energy>  (38) 
-16.379999999999999

>  <m_primary>  (38) 
energy

$$$$
38:0
     RDKit          3D

 41 43  0  0  0  0  0  0  0  0999 V2000
   -0.6230   24.1740  -29.7250 O   0  0  0  0  0  0  0  0  0  0  0  0
   -1.4100   24.6900  -28.8850 C   0  0  0  0  0  0  0  0  0  0  0  0
   -2.6320   25.2920  -29.3340 N   0  0  0  0  0  0  0  0  0  0  0  0
   -3.7950   24.6070  -29.8210 C   0  0  0  0  0  0  0  0  0  0  0  0
   -4.7200   25.3210  -30.5930 C   0  0  0  0  0  0  0  0  0  0  0  0
   -5.8750   24.6980  -31.0710 C   0  0  0  0  0  0  0  0  0  0  0  0
   -6.1260   23.3500  -30.7770 C   0  0  0  0  0  0  0  0  0  0  0  0
   -7.5910   22.5640  -31.3740 S   0  0  0  0  0  0  0  0  0  0  0  0
   -8.4990   23.6060  -31.9670 O   0  0  0  0  0  0  0  0  0  0  0  0
   -8.3100   21.9250  -30.2190 O   0  0  0  0  0  0  0  0  0  0  0  0
   -7.2610   21.3450  -32.5820 N   0  0  0  0  0  0  0  0  0  0  0  0
   -5.8400   21.0090  -32.6510 C   0  0  0  0  0  0  0  0  0  0  0  0
   -5.7600   19.5960  -33.2070 C   0  0  0  0  0  0  0  0  0  0  0  0
   -7.1370   18.9930  -32.9730 C   0  0  0  0  0  0  0  0  0  0  0  0
   -7.9470   20.0870  -32.2950 C   0  0  0  0  0  0  0  0  0  0  0  0
   -5.2200   22.6430  -29.9750 C   0  0  0  0  0  0  0  0  0  0  0  0
   -4.0640   23.2650  -29.4960 C   0  0  0  0  0  0  0  0  0  0  0  0
   -1.0300   24.7250  -27.4460 C   0  0  0  0  0  0  0  0  0  0  0  0
    0.3030   24.4510  -27.0790 C   0  0  0  0  0  0  0  0  0  0  0  0
    0.6970   24.4780  -25.7380 C   0  0  0  0  0  0  0  0  0  0  0  0
   -0.2330   24.7760  -24.7430 C   0  0  0  0  0  0  0  0  0  0  0  0
   -1.5580   25.0460  -25.0840 C   0  0  0  0  0  0  0  0  0  0  0  0
   -1.9680   25.0210  -26.4260 C   0  0  0  0  0  0  0  0  0  0  0  0
   -3.3030   25.2820  -26.7330 O   0  0  0  0  0  0  0  0  0  0  0  0
   -4.5355   26.3804  -30.8246 H   0  0  0  0  0  0  0  0  0  0  0  0
   -6.5914   25.2676  -31.6812 H   0  0  0  0  0  0  0  0  0  0  0  0
   -5.3151   21.7101  -33.3165 H   0  0  0  0  0  0  0  0  0  0  0  0
   -5.3657   21.0755  -31.6607 H   0  0  0  0  0  0  0  0  0  0  0  0
   -5.5266   19.6177  -34.2817 H   0  0  0  0  0  0  0  0  0  0  0  0
   -4.9674   19.0085  -32.7205 H   0  0  0  0  0  0  0  0  0  0  0  0
   -7.5999   18.7080  -33.9293 H   0  0  0  0  0  0  0  0  0  0  0  0
   -7.0856   18.0818  -32.3589 H   0  0  0  0  0  0  0  0  0  0  0  0
   -8.9695   20.1100  -32.7000 H   0  0  0  0  0  0  0  0  0  0  0  0
   -8.0248   19.9129  -31.2117 H   0  0  0  0  0  0  0  0  0  0  0  0
   -5.4201   21.5916  -29.7209 H   0  0  0  0  0  0  0  0  0  0  0  0
   -3.3618   22.7032  -28.8625 H   0  0  0  0  0  0  0  0  0  0  0  0
    1.0426   24.2129  -27.8576 H   0  0  0  0  0  0  0  0  0  0  0  0
    1.7416   24.2640  -25.4677 H   0  0  0  0  0  0  0  0  0  0  0  0
    0.0786   24.7982  -23.6883 H   0  0  0  0  0  0  0  0  0  0  0  0
   -2.2876   25.2804  -24.2949 H   0  0  0  0  0  0  0  0  0  0  0  0
   -3.5860   25.5980  -27.6530 H   0  0  0  0  0  0  0  0  0  0  0  0
  1  2  2  0
  2  3  1  0
  3  4  1  0
  4  5  2  0
  5  6  1  0
  6  7  2  0
  7  8  1  0
  8  9  2  0
  8 10  2  0
  8 11  1  0
 11 12  1  0
 12 13  1  0
 13 14  1  0
 14 15  1  0
  7 16  1  0
 16 17  2  0
  2 18  1  0
 18 19  2  0
 19 20  1  0
 20 21  2  0
 21 22  1  0
 22 23  2  0
 23 24  1  0
 17  4  1  0
 23 18  1  0
 15 11  1  0
  5 25  1  0
  6 26  1  0
 12 27  1  0
 12 28  1  0
 13 29  1  0
 13 30  1  0
 14 31  1  0
 14 32  1  0
 15 33  1  0
 15 34  1  0
 16 35  1  0
 17 36  1  0
 19 37  1  0
 20 38  1  0
 21 39  1  0
 22 40  1  0
 24 41  1  0
M  CHG  1   3  -1
M  END
>  <UniqueID>  (39) 
36

>  <SMILES>  (39) 
O=C([N-]c1ccc(S(=O)(=O)N2CCCC2)cc1)c1ccccc1O

>  <Energy>  (39) 
49.55855488253335

>  <Genealogy>  (39) 
O=C([N-]c1ccc(S(=O)(=O)N2CCCC2)cc1)c1ccccc1O (protonated)
O=C([N-]c1ccc(S(=O)(=O)N2CCCC2)cc1)c1ccccc1O (3D coordinates assigned)
O=C([N-]c1ccc(S(=O)(=O)N2CCCC2)cc1)c1ccccc1O (nonaromatic ring conformer: 49.55855488253335 kcal/mol)

>  <smiles>  (39) 
O=C(Nc1ccc(S(=O)(=O)N2CCCC2)cc1)c1ccccc1O

>  <score_type>  (39) 
oracle

>  <origin>  (39) 
adgpu

>  <m_score__min__energy>  (39) 
-10.529999999999999

>  <m_primary>  (39) 
energy

$$$$
39:0
     RDKit          3D

 40 42  0  0  0  0  0  0  0  0999 V2000
   -6.4970   18.0200  -31.6850 N   0  0  0  0  0  0  0  0  0  0  0  0
   -7.1230   19.2450  -32.7290 S   0  0  0  0  0  0  0  0  0  0  0  0
   -6.5920   19.0220  -34.1170 O   0  0  0  0  0  0  0  0  0  0  0  0
   -8.6230   19.1640  -32.7600 O   0  0  0  0  0  0  0  0  0  0  0  0
   -6.6370   20.8280  -32.1320 C   0  0  0  0  0  0  0  0  0  0  0  0
   -7.2060   21.3270  -30.9530 C   0  0  0  0  0  0  0  0  0  0  0  0
   -6.8170   22.5750  -30.4580 C   0  0  0  0  0  0  0  0  0  0  0  0
   -5.8520   23.3320  -31.1340 C   0  0  0  0  0  0  0  0  0  0  0  0
   -5.3230   24.8730  -30.4650 S   0  0  0  0  0  0  0  0  0  0  0  0
   -5.8410   26.0190  -31.2890 O   0  0  0  0  0  0  0  0  0  0  0  0
   -5.8460   24.9990  -29.0620 O   0  0  0  0  0  0  0  0  0  0  0  0
   -3.5900   24.9360  -30.4360 N   0  0  0  0  0  0  0  0  0  0  0  0
   -2.7520   24.1910  -29.5390 C   0  0  0  0  0  0  0  0  0  0  0  0
   -2.8940   22.8000  -29.3740 C   0  0  0  0  0  0  0  0  0  0  0  0
   -2.0900   22.1130  -28.4540 C   0  0  0  0  0  0  0  0  0  0  0  0
   -1.1220   22.8050  -27.7150 C   0  0  0  0  0  0  0  0  0  0  0  0
   -0.9560   24.1840  -27.9010 C   0  0  0  0  0  0  0  0  0  0  0  0
   -1.7710   24.8740  -28.8040 C   0  0  0  0  0  0  0  0  0  0  0  0
   -1.6040   26.2440  -28.9680 O   0  0  0  0  0  0  0  0  0  0  0  0
   -0.2500   22.0280  -26.7670 C   0  0  0  0  0  0  0  0  0  0  0  0
   -1.0880   21.0260  -25.9530 C   0  0  0  0  0  0  0  0  0  0  0  0
   -2.1560   20.2540  -26.7760 C   0  0  0  0  0  0  0  0  0  0  0  0
   -2.2080   20.6250  -28.2680 C   0  0  0  0  0  0  0  0  0  0  0  0
   -5.2870   22.8380  -32.3180 C   0  0  0  0  0  0  0  0  0  0  0  0
   -5.6780   21.5900  -32.8150 C   0  0  0  0  0  0  0  0  0  0  0  0
   -6.9870   17.1300  -31.9300 H   0  0  0  0  0  0  0  0  0  0  0  0
   -7.9611   20.7349  -30.4152 H   0  0  0  0  0  0  0  0  0  0  0  0
   -7.2704   22.9639  -29.5343 H   0  0  0  0  0  0  0  0  0  0  0  0
   -3.6383   22.2505  -29.9690 H   0  0  0  0  0  0  0  0  0  0  0  0
   -0.1829   24.7249  -27.3355 H   0  0  0  0  0  0  0  0  0  0  0  0
    0.5097   21.4792  -27.3429 H   0  0  0  0  0  0  0  0  0  0  0  0
    0.2318   22.7320  -26.0725 H   0  0  0  0  0  0  0  0  0  0  0  0
   -0.4033   20.2909  -25.5050 H   0  0  0  0  0  0  0  0  0  0  0  0
   -1.6384   21.6161  -25.2055 H   0  0  0  0  0  0  0  0  0  0  0  0
   -1.9380   19.1787  -26.6975 H   0  0  0  0  0  0  0  0  0  0  0  0
   -3.1334   20.5288  -26.3528 H   0  0  0  0  0  0  0  0  0  0  0  0
   -1.3774   20.1293  -28.7918 H   0  0  0  0  0  0  0  0  0  0  0  0
   -3.1729   20.2941  -28.6797 H   0  0  0  0  0  0  0  0  0  0  0  0
   -4.5349   23.4326  -32.8573 H   0  0  0  0  0  0  0  0  0  0  0  0
   -5.2320   21.2054  -33.7441 H   0  0  0  0  0  0  0  0  0  0  0  0
  1  2  1  0
  2  3  2  0
  2  4  2  0
  2  5  1  0
  5  6  2  0
  6  7  1  0
  7  8  2  0
  8  9  1  0
  9 10  2  0
  9 11  2  0
  9 12  1  0
 12 13  1  0
 13 14  2  0
 14 15  1  0
 15 16  2  0
 16 17  1  0
 17 18  2  0
 18 19  1  0
 16 20  1  0
 20 21  1  0
 21 22  1  0
 22 23  1  0
  8 24  1  0
 24 25  2  0
 25  5  1  0
 18 13  1  0
 23 15  1  0
  1 26  1  0
  6 27  1  0
  7 28  1  0
 14 29  1  0
 17 30  1  0
 20 31  1  0
 20 32  1  0
 21 33  1  0
 21 34  1  0
 22 35  1  0
 22 36  1  0
 23 37  1  0
 23 38  1  0
 24 39  1  0
 25 40  1  0
M  CHG  3   1  -1  12  -1  19  -1
M  END
>  <UniqueID>  (40) 
37

>  <SMILES>  (40) 
[NH-]S(=O)(=O)c1ccc(S(=O)(=O)[N-]c2cc3c(cc2[O-])CCCC3)cc1

>  <Energy>  (40) 
48.57934060921825

>  <Genealogy>  (40) 
[NH-]S(=O)(=O)c1ccc(S(=O)(=O)[N-]c2cc3c(cc2[O-])CCCC3)cc1 (protonated)
[NH-]S(=O)(=O)c1ccc(S(=O)(=O)[N-]c2cc3c(cc2[O-])CCCC3)cc1 (3D coordinates assigned)
[NH-]S(=O)(=O)c1ccc(S(=O)(=O)[N-]c2cc3c(cc2[O-])CCCC3)cc1 (nonaromatic ring conformer: 48.57934060921825 kcal/mol)

>  <smiles>  (40) 
NS(=O)(=O)c1ccc(S(=O)(=O)Nc2cc3c(cc2O)CCCC3)cc1

>  <score_type>  (40) 
oracle

>  <origin>  (40) 
adgpu

>  <m_score__min__energy>  (40) 
-13.85

>  <m_primary>  (40) 
energy

$$$$
40:0
     RDKit          3D

 44 47  0  0  0  0  0  0  0  0999 V2000
   -5.1910   17.7520  -34.7580 C   0  0  0  0  0  0  0  0  0  0  0  0
   -4.8250   18.8450  -33.7880 C   0  0  0  0  0  0  0  0  0  0  0  0
   -3.5900   19.4980  -33.9400 C   0  0  0  0  0  0  0  0  0  0  0  0
   -3.2180   20.5280  -33.0780 C   0  0  0  0  0  0  0  0  0  0  0  0
   -4.0700   20.9230  -32.0380 C   0  0  0  0  0  0  0  0  0  0  0  0
   -3.6960   22.0350  -31.1390 C   0  0  0  0  0  0  0  0  0  0  0  0
   -3.9510   23.3030  -31.5590 N   0  0  0  0  0  0  0  0  0  0  0  0
   -3.6180   24.3710  -30.8360 N   0  0  0  0  0  0  0  0  0  0  0  0
   -3.0010   24.2560  -29.6350 C   0  0  0  0  0  0  0  0  0  0  0  0
   -2.6990   25.2990  -28.9940 O   0  0  0  0  0  0  0  0  0  0  0  0
   -2.7170   22.9800  -29.1210 C   0  0  0  0  0  0  0  0  0  0  0  0
   -2.0940   22.8150  -27.8690 C   0  0  0  0  0  0  0  0  0  0  0  0
   -1.8530   21.5370  -27.3660 C   0  0  0  0  0  0  0  0  0  0  0  0
   -2.2340   20.4120  -28.0960 C   0  0  0  0  0  0  0  0  0  0  0  0
   -2.8490   20.5570  -29.3410 C   0  0  0  0  0  0  0  0  0  0  0  0
   -3.0810   21.8400  -29.8810 C   0  0  0  0  0  0  0  0  0  0  0  0
   -5.3180   20.3030  -31.9000 C   0  0  0  0  0  0  0  0  0  0  0  0
   -5.7090   19.2670  -32.7640 C   0  0  0  0  0  0  0  0  0  0  0  0
   -7.2990   18.5190  -32.5380 S   0  0  0  0  0  0  0  0  0  0  0  0
   -7.5170   18.1960  -31.0850 O   0  0  0  0  0  0  0  0  0  0  0  0
   -7.3620   17.2440  -33.3330 O   0  0  0  0  0  0  0  0  0  0  0  0
   -8.5350   19.6200  -33.0660 N   0  0  0  0  0  0  0  0  0  0  0  0
   -9.0360   20.3840  -31.9250 C   0  0  0  0  0  0  0  0  0  0  0  0
   -8.1980   21.6070  -31.7340 C   0  0  0  0  0  0  0  0  0  0  0  0
   -8.0230   22.2870  -30.5460 C   0  0  0  0  0  0  0  0  0  0  0  0
   -7.2030   23.3520  -30.8470 C   0  0  0  0  0  0  0  0  0  0  0  0
   -6.9330   23.2590  -32.1990 C   0  0  0  0  0  0  0  0  0  0  0  0
   -7.5430   22.2090  -32.7000 O   0  0  0  0  0  0  0  0  0  0  0  0
   -5.4921   16.8528  -34.2006 H   0  0  0  0  0  0  0  0  0  0  0  0
   -6.0257   18.0878  -35.3908 H   0  0  0  0  0  0  0  0  0  0  0  0
   -4.3224   17.5174  -35.3908 H   0  0  0  0  0  0  0  0  0  0  0  0
   -2.9093   19.1928  -34.7484 H   0  0  0  0  0  0  0  0  0  0  0  0
   -2.2506   21.0335  -33.2147 H   0  0  0  0  0  0  0  0  0  0  0  0
   -1.7961   23.6983  -27.2851 H   0  0  0  0  0  0  0  0  0  0  0  0
   -1.3606   21.4160  -26.3898 H   0  0  0  0  0  0  0  0  0  0  0  0
   -2.0494   19.4066  -27.6897 H   0  0  0  0  0  0  0  0  0  0  0  0
   -3.1552   19.6640  -29.9056 H   0  0  0  0  0  0  0  0  0  0  0  0
   -6.0018   20.6320  -31.1036 H   0  0  0  0  0  0  0  0  0  0  0  0
   -8.0800   20.2860  -33.7340 H   0  0  0  0  0  0  0  0  0  0  0  0
  -10.0787   20.6802  -32.1121 H   0  0  0  0  0  0  0  0  0  0  0  0
   -8.9869   19.7622  -31.0189 H   0  0  0  0  0  0  0  0  0  0  0  0
   -8.4490   22.0320  -29.5644 H   0  0  0  0  0  0  0  0  0  0  0  0
   -6.8369   24.1214  -30.1514 H   0  0  0  0  0  0  0  0  0  0  0  0
   -6.3031   23.9579  -32.7690 H   0  0  0  0  0  0  0  0  0  0  0  0
  1  2  1  0
  2  3  2  0
  3  4  1  0
  4  5  2  0
  5  6  1  0
  6  7  2  0
  7  8  1  0
  8  9  1  0
  9 10  2  0
  9 11  1  0
 11 12  2  0
 12 13  1  0
 13 14  2  0
 14 15  1  0
 15 16  2  0
  5 17  1  0
 17 18  2  0
 18 19  1  0
 19 20  2  0
 19 21  2  0
 19 22  1  0
 22 23  1  0
 23 24  1  0
 24 25  2  0
 25 26  1  0
 26 27  2  0
 27 28  1  0
 18  2  1  0
 28 24  1  0
 16  6  1  0
 16 11  1  0
  1 29  1  0
  1 30  1  0
  1 31  1  0
  3 32  1  0
  4 33  1  0
 12 34  1  0
 13 35  1  0
 14 36  1  0
 15 37  1  0
 17 38  1  0
 22 39  1  0
 23 40  1  0
 23 41  1  0
 25 42  1  0
 26 43  1  0
 27 44  1  0
M  CHG  1   8  -1
M  END
>  <UniqueID>  (41) 
38

>  <SMILES>  (41) 
Cc1ccc(-c2n[n-]c(=O)c3ccccc23)cc1S(=O)(=O)NCc1ccco1

>  <Energy>  (41) 
86.42195953978349

>  <Genealogy>  (41) 
Cc1ccc(-c2n[n-]c(=O)c3ccccc23)cc1S(=O)(=O)NCc1ccco1 (protonated)
Cc1ccc(-c2n[n-]c(=O)c3ccccc23)cc1S(=O)(=O)NCc1ccco1 (3D coordinates assigned)
Cc1ccc(-c2n[n-]c(=O)c3ccccc23)cc1S(=O)(=O)NCc1ccco1 (optimized conformer: 86.42195953978349 kcal/mol)

>  <smiles>  (41) 
Cc1ccc(-c2n[nH]c(=O)c3ccccc23)cc1S(=O)(=O)NCc1ccco1

>  <score_type>  (41) 
oracle

>  <origin>  (41) 
adgpu

>  <m_score__min__energy>  (41) 
-11.66

>  <m_primary>  (41) 
energy

$$$$
41:0
     RDKit          3D

 46 48  0  0  0  0  0  0  0  0999 V2000
   -9.4520   20.9360  -32.3050 C   0  0  0  0  0  0  0  0  0  0  0  0
   -9.4610   19.5910  -32.8820 N   0  0  0  0  0  0  0  0  0  0  0  0
   -8.7680   18.6520  -31.9930 C   0  0  0  0  0  0  0  0  0  0  0  0
   -7.2950   18.7020  -32.2580 C   0  0  0  0  0  0  0  0  0  0  0  0
   -6.4470   19.7790  -32.0180 C   0  0  0  0  0  0  0  0  0  0  0  0
   -5.2030   19.4970  -32.4670 N   0  0  0  0  0  0  0  0  0  0  0  0
   -3.8480   20.5800  -32.4620 S   0  0  0  0  0  0  0  0  0  0  0  0
   -2.7630   20.0370  -31.5770 O   0  0  0  0  0  0  0  0  0  0  0  0
   -3.3220   20.7050  -33.8640 O   0  0  0  0  0  0  0  0  0  0  0  0
   -4.3590   22.1490  -31.8510 C   0  0  0  0  0  0  0  0  0  0  0  0
   -5.6360   22.6400  -32.1400 C   0  0  0  0  0  0  0  0  0  0  0  0
   -6.0460   23.8750  -31.6340 C   0  0  0  0  0  0  0  0  0  0  0  0
   -5.1800   24.6350  -30.8240 C   0  0  0  0  0  0  0  0  0  0  0  0
   -5.5600   25.8750  -30.2860 O   0  0  0  0  0  0  0  0  0  0  0  0
   -6.4920   26.0420  -29.2230 C   0  0  0  0  0  0  0  0  0  0  0  0
   -3.8940   24.1480  -30.5350 C   0  0  0  0  0  0  0  0  0  0  0  0
   -3.0510   24.9240  -29.7230 O   0  0  0  0  0  0  0  0  0  0  0  0
   -2.6010   24.5390  -28.4290 C   0  0  0  0  0  0  0  0  0  0  0  0
   -3.4880   22.9060  -31.0590 C   0  0  0  0  0  0  0  0  0  0  0  0
   -5.2560   18.2640  -33.0050 C   0  0  0  0  0  0  0  0  0  0  0  0
   -4.2340   17.5540  -33.6370 C   0  0  0  0  0  0  0  0  0  0  0  0
   -4.5380   16.2860  -34.1640 C   0  0  0  0  0  0  0  0  0  0  0  0
   -5.8450   15.7590  -34.0600 C   0  0  0  0  0  0  0  0  0  0  0  0
   -6.1200   14.5040  -34.5960 O   0  0  0  0  0  0  0  0  0  0  0  0
   -6.8580   16.5010  -33.4200 C   0  0  0  0  0  0  0  0  0  0  0  0
   -6.5240   17.7510  -32.8990 C   0  0  0  0  0  0  0  0  0  0  0  0
   -9.4525   20.8641  -31.2074 H   0  0  0  0  0  0  0  0  0  0  0  0
   -8.5503   21.4714  -32.6370 H   0  0  0  0  0  0  0  0  0  0  0  0
  -10.3465   21.4834  -32.6370 H   0  0  0  0  0  0  0  0  0  0  0  0
   -8.9330   19.6320  -33.7850 H   0  0  0  0  0  0  0  0  0  0  0  0
   -8.9611   18.9290  -30.9461 H   0  0  0  0  0  0  0  0  0  0  0  0
   -9.1378   17.6329  -32.1789 H   0  0  0  0  0  0  0  0  0  0  0  0
   -6.7448   20.7210  -31.5343 H   0  0  0  0  0  0  0  0  0  0  0  0
   -6.3202   22.0510  -32.7684 H   0  0  0  0  0  0  0  0  0  0  0  0
   -7.0506   24.2564  -31.8692 H   0  0  0  0  0  0  0  0  0  0  0  0
   -5.9698   25.9484  -28.2594 H   0  0  0  0  0  0  0  0  0  0  0  0
   -6.9548   27.0374  -29.2941 H   0  0  0  0  0  0  0  0  0  0  0  0
   -7.2716   25.2692  -29.2941 H   0  0  0  0  0  0  0  0  0  0  0  0
   -3.2016   25.0529  -27.6640 H   0  0  0  0  0  0  0  0  0  0  0  0
   -2.7107   23.4508  -28.3114 H   0  0  0  0  0  0  0  0  0  0  0  0
   -1.5429   24.8157  -28.3114 H   0  0  0  0  0  0  0  0  0  0  0  0
   -2.4778   22.5274  -30.8442 H   0  0  0  0  0  0  0  0  0  0  0  0
   -3.2207   17.9738  -33.7204 H   0  0  0  0  0  0  0  0  0  0  0  0
   -3.7516   15.6994  -34.6614 H   0  0  0  0  0  0  0  0  0  0  0  0
   -5.4180   13.9820  -35.1080 H   0  0  0  0  0  0  0  0  0  0  0  0
   -7.8811   16.1063  -33.3340 H   0  0  0  0  0  0  0  0  0  0  0  0
  1  2  1  0
  2  3  1  0
  3  4  1  0
  4  5  2  0
  5  6  1  0
  6  7  1  0
  7  8  2  0
  7  9  2  0
  7 10  1  0
 10 11  2  0
 11 12  1  0
 12 13  2  0
 13 14  1  0
 14 15  1  0
 13 16  1  0
 16 17  1  0
 17 18  1  0
 16 19  2  0
  6 20  1  0
 20 21  2  0
 21 22  1  0
 22 23  2  0
 23 24  1  0
 23 25  1  0
 25 26  2  0
 26  4  1  0
 19 10  1  0
 26 20  1  0
  1 27  1  0
  1 28  1  0
  1 29  1  0
  2 30  1  0
  3 31  1  0
  3 32  1  0
  5 33  1  0
 11 34  1  0
 12 35  1  0
 15 36  1  0
 15 37  1  0
 15 38  1  0
 18 39  1  0
 18 40  1  0
 18 41  1  0
 19 42  1  0
 21 43  1  0
 22 44  1  0
 24 45  1  0
 25 46  1  0
M  END
>  <UniqueID>  (42) 
39

>  <SMILES>  (42) 
CNCc1cn(S(=O)(=O)c2ccc(OC)c(OC)c2)c2ccc(O)cc12

>  <Energy>  (42) 
78.04821176805046

>  <Genealogy>  (42) 
CNCc1cn(S(=O)(=O)c2ccc(OC)c(OC)c2)c2ccc(O)cc12 (3D coordinates assigned)
CNCc1cn(S(=O)(=O)c2ccc(OC)c(OC)c2)c2ccc(O)cc12 (optimized conformer: 78.04821176805046 kcal/mol)

>  <smiles>  (42) 
CNCc1cn(S(=O)(=O)c2ccc(OC)c(OC)c2)c2ccc(O)cc12

>  <score_type>  (42) 
oracle

>  <origin>  (42) 
adgpu

>  <m_score__min__energy>  (42) 
-8.5199999999999996

>  <m_primary>  (42) 
energy

$$$$
42:0
     RDKit          3D

 52 55  0  0  0  0  0  0  0  0999 V2000
    1.4430   20.5770  -27.5240 N   0  0  0  0  0  0  0  0  0  0  0  0
    0.8410   22.1560  -27.1560 S   0  0  0  0  0  0  0  0  0  0  0  0
    1.9040   23.1660  -27.4900 O   0  0  0  0  0  0  0  0  0  0  0  0
    0.5130   22.2420  -25.6930 O   0  0  0  0  0  0  0  0  0  0  0  0
   -0.6080   22.4750  -28.1020 C   0  0  0  0  0  0  0  0  0  0  0  0
   -1.8420   22.6400  -27.4620 C   0  0  0  0  0  0  0  0  0  0  0  0
   -2.9940   22.9020  -28.2090 C   0  0  0  0  0  0  0  0  0  0  0  0
   -2.9250   23.0100  -29.6080 C   0  0  0  0  0  0  0  0  0  0  0  0
   -4.1110   23.2830  -30.3750 N   0  0  0  0  0  0  0  0  0  0  0  0
   -4.5360   24.4910  -30.8080 C   0  0  0  0  0  0  0  0  0  0  0  0
   -3.8700   25.6860  -30.5630 O   0  0  0  0  0  0  0  0  0  0  0  0
   -5.7300   24.3890  -31.4960 C   0  0  0  0  0  0  0  0  0  0  0  0
   -6.0370   23.0430  -31.4950 C   0  0  0  0  0  0  0  0  0  0  0  0
   -7.2090   22.4660  -32.0850 N   0  0  0  0  0  0  0  0  0  0  0  0
   -7.3960   21.0550  -32.2770 C   0  0  0  0  0  0  0  0  0  0  0  0
   -8.4670   20.3710  -31.6740 C   0  0  0  0  0  0  0  0  0  0  0  0
   -8.6260   18.9980  -31.8730 C   0  0  0  0  0  0  0  0  0  0  0  0
   -7.7200   18.2950  -32.6690 C   0  0  0  0  0  0  0  0  0  0  0  0
   -6.6430   18.9620  -33.2680 C   0  0  0  0  0  0  0  0  0  0  0  0
   -5.5190   18.0840  -34.3080 S   0  0  0  0  0  0  0  0  0  0  0  0
   -5.7620   18.4760  -35.7390 O   0  0  0  0  0  0  0  0  0  0  0  0
   -4.1110   18.4750  -33.9540 O   0  0  0  0  0  0  0  0  0  0  0  0
   -5.6940   16.3490  -34.1410 N   0  0  0  0  0  0  0  0  0  0  0  0
   -5.6730   15.9450  -32.7300 C   0  0  0  0  0  0  0  0  0  0  0  0
   -4.2750   15.4460  -32.3920 C   0  0  0  0  0  0  0  0  0  0  0  0
   -3.5600   15.2840  -33.7180 C   0  0  0  0  0  0  0  0  0  0  0  0
   -4.5840   15.6410  -34.7850 C   0  0  0  0  0  0  0  0  0  0  0  0
   -6.4750   20.3370  -33.0530 C   0  0  0  0  0  0  0  0  0  0  0  0
   -5.0420   22.3920  -30.7800 C   0  0  0  0  0  0  0  0  0  0  0  0
   -4.9910   21.0300  -30.4850 O   0  0  0  0  0  0  0  0  0  0  0  0
   -1.6830   22.8490  -30.2450 C   0  0  0  0  0  0  0  0  0  0  0  0
   -0.5320   22.5860  -29.4970 C   0  0  0  0  0  0  0  0  0  0  0  0
    2.4670   20.5860  -27.3200 H   0  0  0  0  0  0  0  0  0  0  0  0
   -1.9054   22.5631  -26.3665 H   0  0  0  0  0  0  0  0  0  0  0  0
   -3.9606   23.0244  -27.6983 H   0  0  0  0  0  0  0  0  0  0  0  0
   -6.3117   25.2059  -31.9480 H   0  0  0  0  0  0  0  0  0  0  0  0
   -7.9370   23.1180  -32.4580 H   0  0  0  0  0  0  0  0  0  0  0  0
   -9.1820   20.9197  -31.0433 H   0  0  0  0  0  0  0  0  0  0  0  0
   -9.4673   18.4691  -31.4013 H   0  0  0  0  0  0  0  0  0  0  0  0
   -7.8519   17.2144  -32.8265 H   0  0  0  0  0  0  0  0  0  0  0  0
   -5.9236   16.8064  -32.0935 H   0  0  0  0  0  0  0  0  0  0  0  0
   -6.4106   15.1480  -32.5548 H   0  0  0  0  0  0  0  0  0  0  0  0
   -3.7496   16.1780  -31.7609 H   0  0  0  0  0  0  0  0  0  0  0  0
   -4.3083   14.4993  -31.8328 H   0  0  0  0  0  0  0  0  0  0  0  0
   -2.6962   15.9628  -33.7732 H   0  0  0  0  0  0  0  0  0  0  0  0
   -3.1764   14.2615  -33.8498 H   0  0  0  0  0  0  0  0  0  0  0  0
   -4.1201   16.2887  -35.5434 H   0  0  0  0  0  0  0  0  0  0  0  0
   -4.9518   14.7284  -35.2768 H   0  0  0  0  0  0  0  0  0  0  0  0
   -5.6133   20.8571  -33.4969 H   0  0  0  0  0  0  0  0  0  0  0  0
   -5.7440   20.4010  -30.7250 H   0  0  0  0  0  0  0  0  0  0  0  0
   -1.6161   22.9305  -31.3399 H   0  0  0  0  0  0  0  0  0  0  0  0
    0.4364   22.4658  -30.0047 H   0  0  0  0  0  0  0  0  0  0  0  0
  1  2  1  0
  2  3  2  0
  2  4  2  0
  2  5  1  0
  5  6  2  0
  6  7  1  0
  7  8  2  0
  8  9  1  0
  9 10  1  0
 10 11  1  0
 10 12  2  0
 12 13  1  0
 13 14  1  0
 14 15  1  0
 15 16  2  0
 16 17  1  0
 17 18  2  0
 18 19  1  0
 19 20  1  0
 20 21  2  0
 20 22  2  0
 20 23  1  0
 23 24  1  0
 24 25  1  0
 25 26  1  0
 26 27  1  0
 19 28  2  0
 13 29  2  0
 29 30  1  0
  8 31  1  0
 31 32  2  0
 32  5  1  0
 29  9  1  0
 28 15  1  0
 27 23  1  0
  1 33  1  0
  6 34  1  0
  7 35  1  0
 12 36  1  0
 14 37  1  0
 16 38  1  0
 17 39  1  0
 18 40  1  0
 24 41  1  0
 24 42  1  0
 25 43  1  0
 25 44  1  0
 26 45  1  0
 26 46  1  0
 27 47  1  0
 27 48  1  0
 28 49  1  0
 30 50  1  0
 31 51  1  0
 32 52  1  0
M  CHG  2   1  -1  11  -1
M  END
>  <UniqueID>  (43) 
40

>  <SMILES>  (43) 
[NH-]S(=O)(=O)c1ccc(-n2c([O-])cc(Nc3cccc(S(=O)(=O)N4CCCC4)c3)c2O)cc1

>  <Energy>  (43) 
94.47926175809131

>  <Genealogy>  (43) 
[NH-]S(=O)(=O)c1ccc(-n2c([O-])cc(Nc3cccc(S(=O)(=O)N4CCCC4)c3)c2O)cc1 (protonated)
[NH-]S(=O)(=O)c1ccc(-n2c([O-])cc(Nc3cccc(S(=O)(=O)N4CCCC4)c3)c2O)cc1 (3D coordinates assigned)
[NH-]S(=O)(=O)c1ccc(-n2c([O-])cc(Nc3cccc(S(=O)(=O)N4CCCC4)c3)c2O)cc1 (nonaromatic ring conformer: 94.47926175809131 kcal/mol)

>  <smiles>  (43) 
NS(=O)(=O)c1ccc(-n2c(O)cc(Nc3cccc(S(=O)(=O)N4CCCC4)c3)c2O)cc1

>  <score_type>  (43) 
oracle

>  <origin>  (43) 
adgpu

>  <m_score__min__energy>  (43) 
-11.69

>  <m_primary>  (43) 
energy

$$$$
43:0
     RDKit          3D

 53 56  0  0  0  0  0  0  0  0999 V2000
   -6.2170   21.6780  -32.3420 C   0  0  0  0  0  0  0  0  0  0  0  0
   -5.3250   20.6190  -32.9190 C   0  0  0  0  0  0  0  0  0  0  0  0
   -3.9450   20.6300  -32.6580 C   0  0  0  0  0  0  0  0  0  0  0  0
   -3.1320   19.5990  -33.1660 C   0  0  0  0  0  0  0  0  0  0  0  0
   -1.6810   19.5760  -32.8780 C   0  0  0  0  0  0  0  0  0  0  0  0
   -1.2160   18.8860  -31.7450 C   0  0  0  0  0  0  0  0  0  0  0  0
    0.1390   18.9070  -31.4090 C   0  0  0  0  0  0  0  0  0  0  0  0
    0.5470   18.3210  -30.1640 N   0  0  0  0  0  0  0  0  0  0  0  0
    0.2380   19.0440  -28.6130 S   0  0  0  0  0  0  0  0  0  0  0  0
    1.5460   19.3020  -27.9110 O   0  0  0  0  0  0  0  0  0  0  0  0
   -0.5950   18.1040  -27.7800 O   0  0  0  0  0  0  0  0  0  0  0  0
   -0.6590   20.5460  -28.8410 C   0  0  0  0  0  0  0  0  0  0  0  0
   -1.8020   20.8230  -28.0760 C   0  0  0  0  0  0  0  0  0  0  0  0
   -2.4000   22.0840  -28.1410 C   0  0  0  0  0  0  0  0  0  0  0  0
   -1.8640   23.0760  -28.9760 C   0  0  0  0  0  0  0  0  0  0  0  0
   -2.5660   24.6920  -29.0000 S   0  0  0  0  0  0  0  0  0  0  0  0
   -3.4360   24.8850  -27.7880 O   0  0  0  0  0  0  0  0  0  0  0  0
   -1.4620   25.7110  -28.9580 O   0  0  0  0  0  0  0  0  0  0  0  0
   -3.4940   24.9250  -30.4450 N   0  0  0  0  0  0  0  0  0  0  0  0
   -4.8070   24.3140  -30.2650 C   0  0  0  0  0  0  0  0  0  0  0  0
   -5.8600   24.8990  -31.1960 C   0  0  0  0  0  0  0  0  0  0  0  0
   -5.8610   25.2670  -29.7180 C   0  0  0  0  0  0  0  0  0  0  0  0
   -0.7490   22.7850  -29.7720 C   0  0  0  0  0  0  0  0  0  0  0  0
   -0.1490   21.5250  -29.7050 C   0  0  0  0  0  0  0  0  0  0  0  0
    1.0530   19.5600  -32.2580 C   0  0  0  0  0  0  0  0  0  0  0  0
    0.6070   20.2700  -33.3830 C   0  0  0  0  0  0  0  0  0  0  0  0
    1.5960   21.0140  -34.2490 C   0  0  0  0  0  0  0  0  0  0  0  0
    1.0110   22.1840  -34.7590 O   0  0  0  0  0  0  0  0  0  0  0  0
   -0.7650   20.2700  -33.6990 C   0  0  0  0  0  0  0  0  0  0  0  0
   -1.2130   20.9470  -34.8330 O   0  0  0  0  0  0  0  0  0  0  0  0
   -3.7190   18.5650  -33.9170 C   0  0  0  0  0  0  0  0  0  0  0  0
   -5.0980   18.5900  -34.1570 C   0  0  0  0  0  0  0  0  0  0  0  0
   -5.8640   19.6010  -33.6520 N   0  0  0  0  0  0  0  0  0  0  0  0
   -6.1780   21.6317  -31.2437 H   0  0  0  0  0  0  0  0  0  0  0  0
   -5.8766   22.6680  -32.6796 H   0  0  0  0  0  0  0  0  0  0  0  0
   -7.2505   21.5108  -32.6796 H   0  0  0  0  0  0  0  0  0  0  0  0
   -3.5018   21.4398  -32.0599 H   0  0  0  0  0  0  0  0  0  0  0  0
   -1.9251   18.3252  -31.1183 H   0  0  0  0  0  0  0  0  0  0  0  0
   -2.2280   20.0462  -27.4240 H   0  0  0  0  0  0  0  0  0  0  0  0
   -3.2931   22.2996  -27.5361 H   0  0  0  0  0  0  0  0  0  0  0  0
   -4.4644   23.3030  -29.9992 H   0  0  0  0  0  0  0  0  0  0  0  0
   -5.5734   25.6478  -31.9491 H   0  0  0  0  0  0  0  0  0  0  0  0
   -6.6001   24.4805  -31.8939 H   0  0  0  0  0  0  0  0  0  0  0  0
   -5.5751   26.2816  -29.4036 H   0  0  0  0  0  0  0  0  0  0  0  0
   -6.6021   25.2243  -28.9062 H   0  0  0  0  0  0  0  0  0  0  0  0
   -0.3448   23.5500  -30.4513 H   0  0  0  0  0  0  0  0  0  0  0  0
    0.7263   21.3005  -30.3322 H   0  0  0  0  0  0  0  0  0  0  0  0
    2.1295   19.5129  -32.0366 H   0  0  0  0  0  0  0  0  0  0  0  0
    2.4770   21.2811  -33.6469 H   0  0  0  0  0  0  0  0  0  0  0  0
    1.8955   20.3680  -35.0874 H   0  0  0  0  0  0  0  0  0  0  0  0
    0.0680   21.9650  -34.9640 H   0  0  0  0  0  0  0  0  0  0  0  0
   -3.1010   17.7451  -34.3117 H   0  0  0  0  0  0  0  0  0  0  0  0
   -5.5655   17.7931  -34.7540 H   0  0  0  0  0  0  0  0  0  0  0  0
  1  2  1  0
  2  3  2  0
  3  4  1  0
  4  5  1  0
  5  6  2  0
  6  7  1  0
  7  8  1  0
  8  9  1  0
  9 10  2  0
  9 11  2  0
  9 12  1  0
 12 13  2  0
 13 14  1  0
 14 15  2  0
 15 16  1  0
 16 17  2  0
 16 18  2  0
 16 19  1  0
 19 20  1  0
 20 21  1  0
 21 22  1  0
 15 23  1  0
 23 24  2  0
  7 25  2  0
 25 26  1  0
 26 27  1  0
 27 28  1  0
 26 29  2  0
 29 30  1  0
  4 31  2  0
 31 32  1  0
 32 33  2  0
 33  2  1  0
 29  5  1  0
 24 12  1  0
 22 20  1  0
  1 34  1  0
  1 35  1  0
  1 36  1  0
  3 37  1  0
  6 38  1  0
 13 39  1  0
 14 40  1  0
 20 41  1  0
 21 42  1  0
 21 43  1  0
 22 44  1  0
 22 45  1  0
 23 46  1  0
 24 47  1  0
 25 48  1  0
 27 49  1  0
 27 50  1  0
 28 51  1  0
 31 52  1  0
 32 53  1  0
M  CHG  3   8  -1  19  -1  30  -1
M  END
>  <UniqueID>  (44) 
41

>  <SMILES>  (44) 
Cc1cc(-c2cc([N-]S(=O)(=O)c3ccc(S(=O)(=O)[N-]C4CC4)cc3)cc(CO)c2[O-])ccn1

>  <Energy>  (44) 
329.73273786575055

>  <Genealogy>  (44) 
Cc1cc(-c2cc([N-]S(=O)(=O)c3ccc(S(=O)(=O)[N-]C4CC4)cc3)cc(CO)c2[O-])ccn1 (protonated)
Cc1cc(-c2cc([N-]S(=O)(=O)c3ccc(S(=O)(=O)[N-]C4CC4)cc3)cc(CO)c2[O-])ccn1 (3D coordinates assigned)
Cc1cc(-c2cc([N-]S(=O)(=O)c3ccc(S(=O)(=O)[N-]C4CC4)cc3)cc(CO)c2[O-])ccn1 (nonaromatic ring conformer: 329.73273786575055 kcal/mol)

>  <smiles>  (44) 
Cc1cc(-c2cc(NS(=O)(=O)c3ccc(S(=O)(=O)NC4CC4)cc3)cc(CO)c2O)ccn1

>  <score_type>  (44) 
oracle

>  <origin>  (44) 
adgpu

>  <m_score__min__energy>  (44) 
-12.92

>  <m_primary>  (44) 
energy

$$$$
44:0
     RDKit          3D

 60 63  0  0  0  0  0  0  0  0999 V2000
   -0.9940   21.9680  -26.4770 C   0  0  0  0  0  0  0  0  0  0  0  0
   -1.6580   22.8680  -27.4870 C   0  0  0  0  0  0  0  0  0  0  0  0
   -2.8380   22.4070  -28.0930 C   0  0  0  0  0  0  0  0  0  0  0  0
   -3.4870   23.1610  -29.0650 C   0  0  0  0  0  0  0  0  0  0  0  0
   -2.9660   24.3970  -29.4640 C   0  0  0  0  0  0  0  0  0  0  0  0
   -3.5960   25.1900  -30.4820 N   0  0  0  0  0  0  0  0  0  0  0  0
   -5.0040   25.3460  -30.7090 C   0  0  0  0  0  0  0  0  0  0  0  0
   -5.7030   26.0570  -29.9400 O   0  0  0  0  0  0  0  0  0  0  0  0
   -5.6360   24.6950  -31.8150 N   0  0  0  0  0  0  0  0  0  0  0  0
   -6.0730   23.3280  -31.8510 C   0  0  0  0  0  0  0  0  0  0  0  0
   -5.1090   22.3130  -31.8940 C   0  0  0  0  0  0  0  0  0  0  0  0
   -5.4960   20.9690  -31.9120 C   0  0  0  0  0  0  0  0  0  0  0  0
   -6.8520   20.6250  -31.8620 C   0  0  0  0  0  0  0  0  0  0  0  0
   -7.3350   18.9330  -31.9090 S   0  0  0  0  0  0  0  0  0  0  0  0
   -8.8140   18.8200  -31.6530 O   0  0  0  0  0  0  0  0  0  0  0  0
   -6.6060   18.1820  -30.8290 O   0  0  0  0  0  0  0  0  0  0  0  0
   -6.9280   18.2590  -33.4660 N   0  0  0  0  0  0  0  0  0  0  0  0
   -6.5400   16.8550  -33.3510 C   0  0  0  0  0  0  0  0  0  0  0  0
   -5.6170   16.5670  -34.5230 C   0  0  0  0  0  0  0  0  0  0  0  0
   -5.0710   17.9210  -34.9440 C   0  0  0  0  0  0  0  0  0  0  0  0
   -5.7730   18.9380  -34.0540 C   0  0  0  0  0  0  0  0  0  0  0  0
   -7.8200   21.6370  -31.7980 C   0  0  0  0  0  0  0  0  0  0  0  0
   -7.4350   22.9810  -31.7810 C   0  0  0  0  0  0  0  0  0  0  0  0
   -1.7660   24.8530  -28.9050 C   0  0  0  0  0  0  0  0  0  0  0  0
   -1.2360   26.0540  -29.3640 O   0  0  0  0  0  0  0  0  0  0  0  0
   -1.1080   24.1180  -27.8900 C   0  0  0  0  0  0  0  0  0  0  0  0
    0.3840   24.7960  -27.1710 S   0  0  0  0  0  0  0  0  0  0  0  0
    1.4710   24.7590  -28.2100 O   0  0  0  0  0  0  0  0  0  0  0  0
    0.8590   23.9480  -26.0270 O   0  0  0  0  0  0  0  0  0  0  0  0
    0.2050   26.4490  -26.6020 N   0  0  0  0  0  0  0  0  0  0  0  0
   -1.1970   26.8460  -26.3660 C   0  0  0  0  0  0  0  0  0  0  0  0
   -1.6060   26.7420  -24.8860 C   0  0  0  0  0  0  0  0  0  0  0  0
   -0.8010   25.8080  -24.2050 O   0  0  0  0  0  0  0  0  0  0  0  0
    0.5250   26.2910  -24.1140 C   0  0  0  0  0  0  0  0  0  0  0  0
    1.0890   26.7740  -25.4710 C   0  0  0  0  0  0  0  0  0  0  0  0
   -1.2451   22.3083  -25.4616 H   0  0  0  0  0  0  0  0  0  0  0  0
   -1.3488   20.9361  -26.6161 H   0  0  0  0  0  0  0  0  0  0  0  0
    0.0966   22.0026  -26.6161 H   0  0  0  0  0  0  0  0  0  0  0  0
   -3.2556   21.4342  -27.7942 H   0  0  0  0  0  0  0  0  0  0  0  0
   -4.4138   22.7841  -29.5221 H   0  0  0  0  0  0  0  0  0  0  0  0
   -4.0407   22.5744  -31.9137 H   0  0  0  0  0  0  0  0  0  0  0  0
   -4.7320   20.1794  -31.9656 H   0  0  0  0  0  0  0  0  0  0  0  0
   -6.0133   16.6826  -32.4008 H   0  0  0  0  0  0  0  0  0  0  0  0
   -7.4204   16.1957  -33.3657 H   0  0  0  0  0  0  0  0  0  0  0  0
   -4.7984   15.9003  -34.2142 H   0  0  0  0  0  0  0  0  0  0  0  0
   -6.1440   16.0628  -35.3464 H   0  0  0  0  0  0  0  0  0  0  0  0
   -3.9827   17.9615  -34.7895 H   0  0  0  0  0  0  0  0  0  0  0  0
   -5.2510   18.1196  -36.0108 H   0  0  0  0  0  0  0  0  0  0  0  0
   -5.0919   19.2817  -33.2616 H   0  0  0  0  0  0  0  0  0  0  0  0
   -6.0858   19.8196  -34.6327 H   0  0  0  0  0  0  0  0  0  0  0  0
   -8.8871   21.3725  -31.7610 H   0  0  0  0  0  0  0  0  0  0  0  0
   -8.1990   23.7695  -31.7127 H   0  0  0  0  0  0  0  0  0  0  0  0
   -1.3271   27.8879  -26.6941 H   0  0  0  0  0  0  0  0  0  0  0  0
   -1.8367   26.1556  -26.9353 H   0  0  0  0  0  0  0  0  0  0  0  0
   -1.4933   27.7279  -24.4114 H   0  0  0  0  0  0  0  0  0  0  0  0
   -2.6525   26.4070  -24.8340 H   0  0  0  0  0  0  0  0  0  0  0  0
    0.5429   27.1339  -23.4074 H   0  0  0  0  0  0  0  0  0  0  0  0
    1.1558   25.4561  -23.7750 H   0  0  0  0  0  0  0  0  0  0  0  0
    1.2200   27.8654  -25.4292 H   0  0  0  0  0  0  0  0  0  0  0  0
    2.0448   26.2554  -25.6369 H   0  0  0  0  0  0  0  0  0  0  0  0
  1  2  1  0
  2  3  2  0
  3  4  1  0
  4  5  2  0
  5  6  1  0
  6  7  1  0
  7  8  2  0
  7  9  1  0
  9 10  1  0
 10 11  2  0
 11 12  1  0
 12 13  2  0
 13 14  1  0
 14 15  2  0
 14 16  2  0
 14 17  1  0
 17 18  1  0
 18 19  1  0
 19 20  1  0
 20 21  1  0
 13 22  1  0
 22 23  2  0
  5 24  1  0
 24 25  1  0
 24 26  2  0
 26 27  1  0
 27 28  2  0
 27 29  2  0
 27 30  1  0
 30 31  1  0
 31 32  1  0
 32 33  1  0
 33 34  1  0
 34 35  1  0
 26  2  1  0
 35 30  1  0
 23 10  1  0
 21 17  1  0
  1 36  1  0
  1 37  1  0
  1 38  1  0
  3 39  1  0
  4 40  1  0
 11 41  1  0
 12 42  1  0
 18 43  1  0
 18 44  1  0
 19 45  1  0
 19 46  1  0
 20 47  1  0
 20 48  1  0
 21 49  1  0
 21 50  1  0
 22 51  1  0
 23 52  1  0
 31 53  1  0
 31 54  1  0
 32 55  1  0
 32 56  1  0
 34 57  1  0
 34 58  1  0
 35 59  1  0
 35 60  1  0
M  CHG  3   6  -1   9  -1  25  -1
M  END
>  <UniqueID>  (45) 
42

>  <SMILES>  (45) 
Cc1ccc([N-]C(=O)[N-]c2ccc(S(=O)(=O)N3CCCC3)cc2)c([O-])c1S(=O)(=O)N1CCOCC1

>  <Energy>  (45) 
85.61762976386821

>  <Genealogy>  (45) 
Cc1ccc([N-]C(=O)[N-]c2ccc(S(=O)(=O)N3CCCC3)cc2)c([O-])c1S(=O)(=O)N1CCOCC1 (protonated)
Cc1ccc([N-]C(=O)[N-]c2ccc(S(=O)(=O)N3CCCC3)cc2)c([O-])c1S(=O)(=O)N1CCOCC1 (3D coordinates assigned)
Cc1ccc([N-]C(=O)[N-]c2ccc(S(=O)(=O)N3CCCC3)cc2)c([O-])c1S(=O)(=O)N1CCOCC1 (nonaromatic ring conformer: 85.61762976386821 kcal/mol)

>  <smiles>  (45) 
Cc1ccc(NC(=O)Nc2ccc(S(=O)(=O)N3CCCC3)cc2)c(O)c1S(=O)(=O)N1CCOCC1

>  <score_type>  (45) 
oracle

>  <origin>  (45) 
adgpu

>  <m_score__min__energy>  (45) 
-17.300000000000001

>  <m_primary>  (45) 
energy

$$$$
45:0
     RDKit          3D

 39 40  0  0  0  0  0  0  0  0999 V2000
   -2.5580   25.3330  -26.2970 C   0  0  0  0  0  0  0  0  0  0  0  0
   -1.3810   26.0240  -26.9780 C   0  0  0  0  0  0  0  0  0  0  0  0
   -1.0460   25.3440  -28.2680 C   0  0  0  0  0  0  0  0  0  0  0  0
    0.1200   24.9030  -28.4540 O   0  0  0  0  0  0  0  0  0  0  0  0
   -2.0250   25.2970  -29.3130 N   0  0  0  0  0  0  0  0  0  0  0  0
   -2.7550   24.1410  -29.7490 C   0  0  0  0  0  0  0  0  0  0  0  0
   -2.2130   22.8450  -29.6820 C   0  0  0  0  0  0  0  0  0  0  0  0
   -2.9660   21.7450  -30.1050 C   0  0  0  0  0  0  0  0  0  0  0  0
   -4.2660   21.9260  -30.5830 C   0  0  0  0  0  0  0  0  0  0  0  0
   -4.8270   23.2100  -30.6250 C   0  0  0  0  0  0  0  0  0  0  0  0
   -6.4620   23.4590  -31.2310 S   0  0  0  0  0  0  0  0  0  0  0  0
   -6.3790   24.1590  -32.5600 O   0  0  0  0  0  0  0  0  0  0  0  0
   -7.2420   24.3240  -30.2800 O   0  0  0  0  0  0  0  0  0  0  0  0
   -7.2590   21.9180  -31.4270 N   0  0  0  0  0  0  0  0  0  0  0  0
   -8.7230   22.1170  -31.4900 C   0  0  0  0  0  0  0  0  0  0  0  0
   -9.4720   20.8620  -31.9920 C   0  0  0  0  0  0  0  0  0  0  0  0
   -8.5910   19.6120  -31.9170 C   0  0  0  0  0  0  0  0  0  0  0  0
   -7.2910   19.8050  -32.7140 C   0  0  0  0  0  0  0  0  0  0  0  0
   -6.7660   21.2520  -32.6430 C   0  0  0  0  0  0  0  0  0  0  0  0
   -4.0690   24.3110  -30.2050 C   0  0  0  0  0  0  0  0  0  0  0  0
   -2.4416   25.4013  -25.2053 H   0  0  0  0  0  0  0  0  0  0  0  0
   -3.4953   25.8242  -26.5973 H   0  0  0  0  0  0  0  0  0  0  0  0
   -2.5859   24.2751  -26.5973 H   0  0  0  0  0  0  0  0  0  0  0  0
   -1.6449   27.0726  -27.1799 H   0  0  0  0  0  0  0  0  0  0  0  0
   -0.5065   25.9732  -26.3127 H   0  0  0  0  0  0  0  0  0  0  0  0
   -1.1939   22.6961  -29.2958 H   0  0  0  0  0  0  0  0  0  0  0  0
   -2.5334   20.7346  -30.0612 H   0  0  0  0  0  0  0  0  0  0  0  0
   -4.8503   21.0598  -30.9269 H   0  0  0  0  0  0  0  0  0  0  0  0
   -9.0884   22.3661  -30.4828 H   0  0  0  0  0  0  0  0  0  0  0  0
   -8.9184   22.9299  -32.2048 H   0  0  0  0  0  0  0  0  0  0  0  0
  -10.3656   20.7068  -31.3695 H   0  0  0  0  0  0  0  0  0  0  0  0
   -9.7494   21.0247  -33.0439 H   0  0  0  0  0  0  0  0  0  0  0  0
   -8.3412   19.4107  -30.8648 H   0  0  0  0  0  0  0  0  0  0  0  0
   -9.1452   18.7664  -32.3504 H   0  0  0  0  0  0  0  0  0  0  0  0
   -6.5236   19.1307  -32.3062 H   0  0  0  0  0  0  0  0  0  0  0  0
   -7.5081   19.5790  -33.7684 H   0  0  0  0  0  0  0  0  0  0  0  0
   -5.6662   21.2381  -32.6280 H   0  0  0  0  0  0  0  0  0  0  0  0
   -7.1253   21.8053  -33.5232 H   0  0  0  0  0  0  0  0  0  0  0  0
   -4.5097   25.3185  -30.2335 H   0  0  0  0  0  0  0  0  0  0  0  0
  1  2  1  0
  2  3  1  0
  3  4  2  0
  3  5  1  0
  5  6  1  0
  6  7  2  0
  7  8  1  0
  8  9  2  0
  9 10  1  0
 10 11  1  0
 11 12  2  0
 11 13  2  0
 11 14  1  0
 14 15  1  0
 15 16  1  0
 16 17  1  0
 17 18  1  0
 18 19  1  0
 10 20  2  0
 20  6  1  0
 19 14  1  0
  1 21  1  0
  1 22  1  0
  1 23  1  0
  2 24  1  0
  2 25  1  0
  7 26  1  0
  8 27  1  0
  9 28  1  0
 15 29  1  0
 15 30  1  0
 16 31  1  0
 16 32  1  0
 17 33  1  0
 17 34  1  0
 18 35  1  0
 18 36  1  0
 19 37  1  0
 19 38  1  0
 20 39  1  0
M  CHG  1   5  -1
M  END
>  <UniqueID>  (46) 
43

>  <SMILES>  (46) 
CCC(=O)[N-]c1cccc(S(=O)(=O)N2CCCCC2)c1

>  <Energy>  (46) 
39.49135883336949

>  <Genealogy>  (46) 
CCC(=O)[N-]c1cccc(S(=O)(=O)N2CCCCC2)c1 (protonated)
CCC(=O)[N-]c1cccc(S(=O)(=O)N2CCCCC2)c1 (3D coordinates assigned)
CCC(=O)[N-]c1cccc(S(=O)(=O)N2CCCCC2)c1 (nonaromatic ring conformer: 39.49135883336949 kcal/mol)

>  <smiles>  (46) 
CCC(=O)Nc1cccc(S(=O)(=O)N2CCCCC2)c1

>  <score_type>  (46) 
oracle

>  <origin>  (46) 
adgpu

>  <m_score__min__energy>  (46) 
-10.02

>  <m_primary>  (46) 
energy

$$$$
46:0
     RDKit          3D

 48 50  0  0  0  0  0  0  0  0999 V2000
   -2.5430   17.8990  -34.3970 C   0  0  0  0  0  0  0  0  0  0  0  0
   -3.4370   16.8690  -34.9550 N   0  0  0  0  0  0  0  0  0  0  0  0
   -3.5570   15.7000  -34.0610 C   0  0  0  0  0  0  0  0  0  0  0  0
   -4.3100   16.0470  -32.7660 C   0  0  0  0  0  0  0  0  0  0  0  0
   -5.4340   16.9480  -33.0380 N   0  0  0  0  0  0  0  0  0  0  0  0
   -6.2090   17.4550  -31.9360 C   0  0  0  0  0  0  0  0  0  0  0  0
   -6.4070   16.7190  -30.9310 O   0  0  0  0  0  0  0  0  0  0  0  0
   -6.7580   18.8310  -31.9440 C   0  0  0  0  0  0  0  0  0  0  0  0
   -8.0940   19.0730  -31.5790 C   0  0  0  0  0  0  0  0  0  0  0  0
   -8.6110   20.3720  -31.6010 C   0  0  0  0  0  0  0  0  0  0  0  0
   -7.8070   21.4470  -32.0090 C   0  0  0  0  0  0  0  0  0  0  0  0
   -8.3470   22.8470  -31.9960 C   0  0  0  0  0  0  0  0  0  0  0  0
   -7.2340   23.7870  -31.8860 N   0  0  0  0  0  0  0  0  0  0  0  0
   -6.7440   23.9310  -30.2260 S   0  0  0  0  0  0  0  0  0  0  0  0
   -7.1150   25.2950  -29.7120 O   0  0  0  0  0  0  0  0  0  0  0  0
   -7.4540   22.8880  -29.4100 O   0  0  0  0  0  0  0  0  0  0  0  0
   -5.0060   23.6840  -30.0850 C   0  0  0  0  0  0  0  0  0  0  0  0
   -4.4500   22.4130  -30.2950 C   0  0  0  0  0  0  0  0  0  0  0  0
   -3.0700   22.2230  -30.1810 C   0  0  0  0  0  0  0  0  0  0  0  0
   -2.2360   23.3000  -29.8600 C   0  0  0  0  0  0  0  0  0  0  0  0
   -0.8660   23.1040  -29.7460 O   0  0  0  0  0  0  0  0  0  0  0  0
   -2.7860   24.5720  -29.6550 C   0  0  0  0  0  0  0  0  0  0  0  0
   -1.9640   25.6460  -29.3370 O   0  0  0  0  0  0  0  0  0  0  0  0
   -4.1670   24.7630  -29.7710 C   0  0  0  0  0  0  0  0  0  0  0  0
   -6.4730   21.2090  -32.3730 C   0  0  0  0  0  0  0  0  0  0  0  0
   -5.9560   19.9110  -32.3520 C   0  0  0  0  0  0  0  0  0  0  0  0
   -5.9120   17.0880  -34.4180 C   0  0  0  0  0  0  0  0  0  0  0  0
   -4.7480   17.4350  -35.3670 C   0  0  0  0  0  0  0  0  0  0  0  0
   -2.5780   17.8587  -33.2983 H   0  0  0  0  0  0  0  0  0  0  0  0
   -1.5136   17.7149  -34.7381 H   0  0  0  0  0  0  0  0  0  0  0  0
   -2.8701   18.8923  -34.7381 H   0  0  0  0  0  0  0  0  0  0  0  0
   -4.1028   14.9033  -34.5878 H   0  0  0  0  0  0  0  0  0  0  0  0
   -2.5429   15.3714  -33.7895 H   0  0  0  0  0  0  0  0  0  0  0  0
   -4.6929   15.1206  -32.3131 H   0  0  0  0  0  0  0  0  0  0  0  0
   -3.6139   16.5518  -32.0800 H   0  0  0  0  0  0  0  0  0  0  0  0
   -8.7372   18.2344  -31.2739 H   0  0  0  0  0  0  0  0  0  0  0  0
   -9.6528   20.5519  -31.2971 H   0  0  0  0  0  0  0  0  0  0  0  0
   -8.8995   23.0375  -32.9279 H   0  0  0  0  0  0  0  0  0  0  0  0
   -9.0262   22.9746  -31.1402 H   0  0  0  0  0  0  0  0  0  0  0  0
   -5.1016   21.5642  -30.5499 H   0  0  0  0  0  0  0  0  0  0  0  0
   -2.6384   21.2244  -30.3440 H   0  0  0  0  0  0  0  0  0  0  0  0
   -4.5966   25.7636  -29.6153 H   0  0  0  0  0  0  0  0  0  0  0  0
   -5.8307   22.0488  -32.6766 H   0  0  0  0  0  0  0  0  0  0  0  0
   -4.9142   19.7331  -32.6569 H   0  0  0  0  0  0  0  0  0  0  0  0
   -6.3693   16.1405  -34.7393 H   0  0  0  0  0  0  0  0  0  0  0  0
   -6.6516   17.9014  -34.4545 H   0  0  0  0  0  0  0  0  0  0  0  0
   -4.9916   17.0484  -36.3676 H   0  0  0  0  0  0  0  0  0  0  0  0
   -4.6400   18.5295  -35.3479 H   0  0  0  0  0  0  0  0  0  0  0  0
  1  2  1  0
  2  3  1  0
  3  4  1  0
  4  5  1  0
  5  6  1  0
  6  7  2  0
  6  8  1  0
  8  9  2  0
  9 10  1  0
 10 11  2  0
 11 12  1  0
 12 13  1  0
 13 14  1  0
 14 15  2  0
 14 16  2  0
 14 17  1  0
 17 18  2  0
 18 19  1  0
 19 20  2  0
 20 21  1  0
 20 22  1  0
 22 23  1  0
 22 24  2  0
 11 25  1  0
 25 26  2  0
  5 27  1  0
 27 28  1  0
 28  2  1  0
 26  8  1  0
 24 17  1  0
  1 29  1  0
  1 30  1  0
  1 31  1  0
  3 32  1  0
  3 33  1  0
  4 34  1  0
  4 35  1  0
  9 36  1  0
 10 37  1  0
 12 38  1  0
 12 39  1  0
 18 40  1  0
 19 41  1  0
 24 42  1  0
 25 43  1  0
 26 44  1  0
 27 45  1  0
 27 46  1  0
 28 47  1  0
 28 48  1  0
M  CHG  3  13  -1  21  -1  23  -1
M  END
>  <UniqueID>  (47) 
44

>  <SMILES>  (47) 
CN1CCN(C(=O)c2ccc(C[N-]S(=O)(=O)c3ccc([O-])c([O-])c3)cc2)CC1

>  <Energy>  (47) 
58.79371401919239

>  <Genealogy>  (47) 
CN1CCN(C(=O)c2ccc(C[N-]S(=O)(=O)c3ccc([O-])c([O-])c3)cc2)CC1 (protonated)
CN1CCN(C(=O)c2ccc(C[N-]S(=O)(=O)c3ccc([O-])c([O-])c3)cc2)CC1 (3D coordinates assigned)
CN1CCN(C(=O)c2ccc(C[N-]S(=O)(=O)c3ccc([O-])c([O-])c3)cc2)CC1 (nonaromatic ring conformer: 58.79371401919239 kcal/mol)

>  <smiles>  (47) 
CN1CCN(C(=O)c2ccc(CNS(=O)(=O)c3ccc(O)c(O)c3)cc2)CC1

>  <score_type>  (47) 
oracle

>  <origin>  (47) 
adgpu

>  <m_score__min__energy>  (47) 
-13.42

>  <m_primary>  (47) 
energy

$$$$
47:0
     RDKit          3D

 40 42  0  0  0  0  0  0  0  0999 V2000
   -1.9240   25.6860  -28.5230 O   0  0  0  0  0  0  0  0  0  0  0  0
   -2.4250   24.8640  -29.3330 C   0  0  0  0  0  0  0  0  0  0  0  0
   -1.8470   23.5610  -29.4970 N   0  0  0  0  0  0  0  0  0  0  0  0
   -1.8550   22.4950  -28.5370 C   0  0  0  0  0  0  0  0  0  0  0  0
   -2.8020   21.4570  -28.5730 C   0  0  0  0  0  0  0  0  0  0  0  0
   -2.7460   20.4300  -27.6290 C   0  0  0  0  0  0  0  0  0  0  0  0
   -1.7360   20.4400  -26.6650 C   0  0  0  0  0  0  0  0  0  0  0  0
   -0.8130   21.4380  -26.6580 N   0  0  0  0  0  0  0  0  0  0  0  0
   -0.8470   22.4490  -27.5680 C   0  0  0  0  0  0  0  0  0  0  0  0
   -3.5080   25.2870  -30.1680 N   0  0  0  0  0  0  0  0  0  0  0  0
   -4.6530   24.5030  -30.5290 C   0  0  0  0  0  0  0  0  0  0  0  0
   -5.9640   24.9890  -30.3790 C   0  0  0  0  0  0  0  0  0  0  0  0
   -7.0530   24.2050  -30.7710 C   0  0  0  0  0  0  0  0  0  0  0  0
   -6.8440   22.9400  -31.3250 C   0  0  0  0  0  0  0  0  0  0  0  0
   -5.5420   22.4530  -31.4960 C   0  0  0  0  0  0  0  0  0  0  0  0
   -5.2820   20.8760  -32.2330 S   0  0  0  0  0  0  0  0  0  0  0  0
   -4.5200   20.0020  -31.2760 O   0  0  0  0  0  0  0  0  0  0  0  0
   -4.4690   21.0310  -33.4900 O   0  0  0  0  0  0  0  0  0  0  0  0
   -6.8260   20.1420  -32.5870 N   0  0  0  0  0  0  0  0  0  0  0  0
   -6.6680   18.7540  -33.0190 C   0  0  0  0  0  0  0  0  0  0  0  0
   -7.9590   18.0380  -32.6510 C   0  0  0  0  0  0  0  0  0  0  0  0
   -8.6120   18.9050  -31.5860 C   0  0  0  0  0  0  0  0  0  0  0  0
   -7.6730   20.0860  -31.3950 C   0  0  0  0  0  0  0  0  0  0  0  0
   -4.4500   23.2440  -31.1090 C   0  0  0  0  0  0  0  0  0  0  0  0
   -3.5864   21.4539  -29.3442 H   0  0  0  0  0  0  0  0  0  0  0  0
   -3.4906   19.6205  -27.6445 H   0  0  0  0  0  0  0  0  0  0  0  0
   -1.6872   19.6404  -25.9112 H   0  0  0  0  0  0  0  0  0  0  0  0
   -0.0775   23.2346  -27.5416 H   0  0  0  0  0  0  0  0  0  0  0  0
   -6.1330   25.9886  -29.9521 H   0  0  0  0  0  0  0  0  0  0  0  0
   -8.0772   24.5853  -30.6428 H   0  0  0  0  0  0  0  0  0  0  0  0
   -7.7041   22.3247  -31.6278 H   0  0  0  0  0  0  0  0  0  0  0  0
   -6.5057   18.7104  -34.1061 H   0  0  0  0  0  0  0  0  0  0  0  0
   -5.7997   18.2829  -32.5351 H   0  0  0  0  0  0  0  0  0  0  0  0
   -8.6141   17.9495  -33.5302 H   0  0  0  0  0  0  0  0  0  0  0  0
   -7.7713   17.0165  -32.2885 H   0  0  0  0  0  0  0  0  0  0  0  0
   -9.6005   19.2499  -31.9234 H   0  0  0  0  0  0  0  0  0  0  0  0
   -8.7696   18.3519  -30.6483 H   0  0  0  0  0  0  0  0  0  0  0  0
   -8.2497   21.0174  -31.2948 H   0  0  0  0  0  0  0  0  0  0  0  0
   -7.0686   19.9696  -30.4833 H   0  0  0  0  0  0  0  0  0  0  0  0
   -3.4260   22.8727  -31.2622 H   0  0  0  0  0  0  0  0  0  0  0  0
  1  2  2  0
  2  3  1  0
  3  4  1  0
  4  5  2  0
  5  6  1  0
  6  7  2  0
  7  8  1  0
  8  9  2  0
  2 10  1  0
 10 11  1  0
 11 12  2  0
 12 13  1  0
 13 14  2  0
 14 15  1  0
 15 16  1  0
 16 17  2  0
 16 18  2  0
 16 19  1  0
 19 20  1  0
 20 21  1  0
 21 22  1  0
 22 23  1  0
 15 24  2  0
  9  4  1  0
 24 11  1  0
 23 19  1  0
  5 25  1  0
  6 26  1  0
  7 27  1  0
  9 28  1  0
 12 29  1  0
 13 30  1  0
 14 31  1  0
 20 32  1  0
 20 33  1  0
 21 34  1  0
 21 35  1  0
 22 36  1  0
 22 37  1  0
 23 38  1  0
 23 39  1  0
 24 40  1  0
M  CHG  2   3  -1  10  -1
M  END
>  <UniqueID>  (48) 
45

>  <SMILES>  (48) 
O=C([N-]c1cccnc1)[N-]c1cccc(S(=O)(=O)N2CCCC2)c1

>  <Energy>  (48) 
49.26874357533606

>  <Genealogy>  (48) 
O=C([N-]c1cccnc1)[N-]c1cccc(S(=O)(=O)N2CCCC2)c1 (protonated)
O=C([N-]c1cccnc1)[N-]c1cccc(S(=O)(=O)N2CCCC2)c1 (3D coordinates assigned)
O=C([N-]c1cccnc1)[N-]c1cccc(S(=O)(=O)N2CCCC2)c1 (nonaromatic ring conformer: 49.26874357533606 kcal/mol)

>  <smiles>  (48) 
O=C(Nc1cccnc1)Nc1cccc(S(=O)(=O)N2CCCC2)c1

>  <score_type>  (48) 
oracle

>  <origin>  (48) 
adgpu

>  <m_score__min__energy>  (48) 
-11.630000000000001

>  <m_primary>  (48) 
energy

$$$$
