0:0
     RDKit          3D

 70 73  0  0  0  0  0  0  0  0999 V2000
   -3.6200   14.5170  -34.6090 C   0  0  0  0  0  0  0  0  0  0  0  0
   -3.5000   15.8000  -35.4280 C   0  0  0  0  0  0  0  0  0  0  0  0
   -3.4230   16.9760  -34.5490 N   0  0  0  0  0  0  0  0  0  0  0  0
   -2.2180   17.7590  -34.4550 C   0  0  0  0  0  0  0  0  0  0  0  0
   -1.3170   17.6210  -35.3270 O   0  0  0  0  0  0  0  0  0  0  0  0
   -2.0090   18.7210  -33.3510 C   0  0  0  0  0  0  0  0  0  0  0  0
   -1.0650   18.4590  -32.3450 C   0  0  0  0  0  0  0  0  0  0  0  0
   -0.8350   19.3910  -31.3300 C   0  0  0  0  0  0  0  0  0  0  0  0
   -1.5620   20.5880  -31.2850 C   0  0  0  0  0  0  0  0  0  0  0  0
   -1.2410   21.5650  -30.2800 N   0  0  0  0  0  0  0  0  0  0  0  0
   -2.0410   21.8300  -29.1140 C   0  0  0  0  0  0  0  0  0  0  0  0
   -3.0290   21.0990  -28.8350 O   0  0  0  0  0  0  0  0  0  0  0  0
   -1.7310   22.9810  -28.2440 C   0  0  0  0  0  0  0  0  0  0  0  0
   -0.7710   22.8220  -27.2300 C   0  0  0  0  0  0  0  0  0  0  0  0
   -0.4840   23.8730  -26.3540 C   0  0  0  0  0  0  0  0  0  0  0  0
   -1.1410   25.1010  -26.4880 C   0  0  0  0  0  0  0  0  0  0  0  0
   -0.7800   26.4310  -25.3920 S   0  0  0  0  0  0  0  0  0  0  0  0
   -0.4460   27.9000  -26.3370 C   0  0  0  0  0  0  0  0  0  0  0  0
    0.4220   26.0950  -24.5520 O   0  0  0  0  0  0  0  0  0  0  0  0
   -1.9540   26.6680  -24.4820 O   0  0  0  0  0  0  0  0  0  0  0  0
   -2.0730   25.2780  -27.5160 C   0  0  0  0  0  0  0  0  0  0  0  0
   -2.3700   24.2310  -28.3970 C   0  0  0  0  0  0  0  0  0  0  0  0
   -3.4910   24.5500  -29.7180 Cl  0  0  0  0  0  0  0  0  0  0  0  0
   -2.5230   20.8430  -32.2820 C   0  0  0  0  0  0  0  0  0  0  0  0
   -2.7530   19.9090  -33.2990 C   0  0  0  0  0  0  0  0  0  0  0  0
   -4.6350   17.4840  -33.9750 C   0  0  0  0  0  0  0  0  0  0  0  0
   -5.0900   17.0070  -32.7370 C   0  0  0  0  0  0  0  0  0  0  0  0
   -6.2230   17.5680  -32.1410 C   0  0  0  0  0  0  0  0  0  0  0  0
   -6.9230   18.5990  -32.7890 C   0  0  0  0  0  0  0  0  0  0  0  0
   -8.2900   19.3920  -32.0100 S   0  0  0  0  0  0  0  0  0  0  0  0
   -9.3950   19.5080  -33.0220 O   0  0  0  0  0  0  0  0  0  0  0  0
   -8.7630   18.5600  -30.8510 O   0  0  0  0  0  0  0  0  0  0  0  0
   -7.8310   20.9840  -31.4560 N   0  0  0  0  0  0  0  0  0  0  0  0
   -8.5100   22.0240  -32.2490 C   0  0  0  0  0  0  0  0  0  0  0  0
   -8.3180   23.4020  -31.5860 C   0  0  0  0  0  0  0  0  0  0  0  0
   -7.0560   23.4580  -30.7060 C   0  0  0  0  0  0  0  0  0  0  0  0
   -5.9270   22.6180  -31.3110 C   0  0  0  0  0  0  0  0  0  0  0  0
   -6.3640   21.1490  -31.5260 C   0  0  0  0  0  0  0  0  0  0  0  0
   -6.4810   19.0570  -34.0390 C   0  0  0  0  0  0  0  0  0  0  0  0
   -5.3400   18.5030  -34.6270 C   0  0  0  0  0  0  0  0  0  0  0  0
   -3.5970   14.7628  -33.5371 H   0  0  0  0  0  0  0  0  0  0  0  0
   -4.5690   14.0156  -34.8500 H   0  0  0  0  0  0  0  0  0  0  0  0
   -2.7805   13.8483  -34.8500 H   0  0  0  0  0  0  0  0  0  0  0  0
   -2.5903   15.7505  -36.0444 H   0  0  0  0  0  0  0  0  0  0  0  0
   -4.3908   15.8951  -36.0664 H   0  0  0  0  0  0  0  0  0  0  0  0
   -0.5028   17.5136  -32.3562 H   0  0  0  0  0  0  0  0  0  0  0  0
   -0.0772   19.1835  -30.5601 H   0  0  0  0  0  0  0  0  0  0  0  0
   -0.3660   22.1220  -30.4180 H   0  0  0  0  0  0  0  0  0  0  0  0
   -0.2415   21.8636  -27.1248 H   0  0  0  0  0  0  0  0  0  0  0  0
    0.2609   23.7341  -25.5566 H   0  0  0  0  0  0  0  0  0  0  0  0
   -0.2550   28.7403  -25.6533 H   0  0  0  0  0  0  0  0  0  0  0  0
    0.4376   27.7351  -26.9711 H   0  0  0  0  0  0  0  0  0  0  0  0
   -1.3140   28.1333  -26.9711 H   0  0  0  0  0  0  0  0  0  0  0  0
   -2.5772   26.2486  -27.6333 H   0  0  0  0  0  0  0  0  0  0  0  0
   -3.0963   21.7816  -32.2616 H   0  0  0  0  0  0  0  0  0  0  0  0
   -3.5209   20.1077  -34.0611 H   0  0  0  0  0  0  0  0  0  0  0  0
   -4.5537   16.1891  -32.2337 H   0  0  0  0  0  0  0  0  0  0  0  0
   -6.5671   17.2014  -31.1626 H   0  0  0  0  0  0  0  0  0  0  0  0
   -8.0840   22.0451  -33.2629 H   0  0  0  0  0  0  0  0  0  0  0  0
   -9.5846   21.7947  -32.3004 H   0  0  0  0  0  0  0  0  0  0  0  0
   -8.2335   24.1647  -32.3741 H   0  0  0  0  0  0  0  0  0  0  0  0
   -9.1876   23.5871  -30.9383 H   0  0  0  0  0  0  0  0  0  0  0  0
   -6.7219   24.5027  -30.6223 H   0  0  0  0  0  0  0  0  0  0  0  0
   -7.3023   23.0515  -29.7140 H   0  0  0  0  0  0  0  0  0  0  0  0
   -5.6399   23.0508  -32.2807 H   0  0  0  0  0  0  0  0  0  0  0  0
   -5.0784   22.6262  -30.6112 H   0  0  0  0  0  0  0  0  0  0  0  0
   -6.0177   20.8183  -32.5163 H   0  0  0  0  0  0  0  0  0  0  0  0
   -5.9187   20.5445  -30.7221 H   0  0  0  0  0  0  0  0  0  0  0  0
   -7.0336   19.8541  -34.5579 H   0  0  0  0  0  0  0  0  0  0  0  0
   -4.9949   18.8689  -35.6053 H   0  0  0  0  0  0  0  0  0  0  0  0
  1  2  1  0
  2  3  1  0
  3  4  1  0
  4  5  2  0
  4  6  1  0
  6  7  2  0
  7  8  1  0
  8  9  2  0
  9 10  1  0
 10 11  1  0
 11 12  2  0
 11 13  1  0
 13 14  2  0
 14 15  1  0
 15 16  2  0
 16 17  1  0
 17 18  1  0
 17 19  2  0
 17 20  2  0
 16 21  1  0
 21 22  2  0
 22 23  1  0
  9 24  1  0
 24 25  2  0
  3 26  1  0
 26 27  2  0
 27 28  1  0
 28 29  2  0
 29 30  1  0
 30 31  2  0
 30 32  2  0
 30 33  1  0
 33 34  1  0
 34 35  1  0
 35 36  1  0
 36 37  1  0
 37 38  1  0
 29 39  1  0
 39 40  2  0
 25  6  1  0
 40 26  1  0
 22 13  1  0
 38 33  1  0
  1 41  1  0
  1 42  1  0
  1 43  1  0
  2 44  1  0
  2 45  1  0
  7 46  1  0
  8 47  1  0
 10 48  1  0
 14 49  1  0
 15 50  1  0
 18 51  1  0
 18 52  1  0
 18 53  1  0
 21 54  1  0
 24 55  1  0
 25 56  1  0
 27 57  1  0
 28 58  1  0
 34 59  1  0
 34 60  1  0
 35 61  1  0
 35 62  1  0
 36 63  1  0
 36 64  1  0
 37 65  1  0
 37 66  1  0
 38 67  1  0
 38 68  1  0
 39 69  1  0
 40 70  1  0
M  END
>  <UniqueID>  (1) 
1

>  <SMILES>  (1) 
CCN(C(=O)c1ccc(NC(=O)c2ccc(S(C)(=O)=O)cc2Cl)cc1)c1ccc(S(=O)(=O)N2CCCCC2)cc1

>  <Energy>  (1) 
93.75798046295513

>  <Genealogy>  (1) 
CCN(C(=O)c1ccc(NC(=O)c2ccc(S(C)(=O)=O)cc2Cl)cc1)c1ccc(S(=O)(=O)N2CCCCC2)cc1 (3D coordinates assigned)
CCN(C(=O)c1ccc(NC(=O)c2ccc(S(C)(=O)=O)cc2Cl)cc1)c1ccc(S(=O)(=O)N2CCCCC2)cc1 (nonaromatic ring conformer: 93.75798046295513 kcal/mol)

>  <smiles>  (1) 
CCN(C(=O)c1ccc(NC(=O)c2ccc(S(C)(=O)=O)cc2Cl)cc1)c1ccc(S(=O)(=O)N2CCCCC2)cc1

>  <score_type>  (1) 
oracle

>  <origin>  (1) 
adgpu

>  <m_score__min__energy>  (1) 
-10.51

>  <m_primary>  (1) 
energy

$$$$
1:0
     RDKit          3D

 62 65  0  0  0  0  0  0  0  0999 V2000
   -9.0910   21.7610  -31.4630 C   0  0  0  0  0  0  0  0  0  0  0  0
   -8.5770   23.0820  -31.3260 O   0  0  0  0  0  0  0  0  0  0  0  0
   -7.2230   23.3880  -31.1270 C   0  0  0  0  0  0  0  0  0  0  0  0
   -6.8940   24.3560  -30.1720 C   0  0  0  0  0  0  0  0  0  0  0  0
   -5.5590   24.6950  -29.9320 C   0  0  0  0  0  0  0  0  0  0  0  0
   -4.5270   24.0460  -30.6350 C   0  0  0  0  0  0  0  0  0  0  0  0
   -3.1410   24.3550  -30.4320 N   0  0  0  0  0  0  0  0  0  0  0  0
   -2.4550   24.5610  -29.1860 C   0  0  0  0  0  0  0  0  0  0  0  0
   -1.9800   25.6910  -28.8970 O   0  0  0  0  0  0  0  0  0  0  0  0
   -2.3740   23.4500  -28.1600 C   0  0  0  0  0  0  0  0  0  0  0  0
   -3.2980   22.2720  -28.5420 C   0  0  0  0  0  0  0  0  0  0  0  0
   -2.6360   21.2600  -29.5020 C   0  0  0  0  0  0  0  0  0  0  0  0
   -1.4140   21.8230  -30.1020 N   0  0  0  0  0  0  0  0  0  0  0  0
   -0.7940   20.7500  -31.3330 S   0  0  0  0  0  0  0  0  0  0  0  0
    0.0860   19.7080  -30.6980 O   0  0  0  0  0  0  0  0  0  0  0  0
    0.0470   21.5400  -32.2990 O   0  0  0  0  0  0  0  0  0  0  0  0
   -2.0970   19.9540  -32.2170 C   0  0  0  0  0  0  0  0  0  0  0  0
   -3.2590   20.6610  -32.5540 C   0  0  0  0  0  0  0  0  0  0  0  0
   -4.2880   20.0290  -33.2580 C   0  0  0  0  0  0  0  0  0  0  0  0
   -4.1640   18.6830  -33.6310 C   0  0  0  0  0  0  0  0  0  0  0  0
   -5.4650   17.9080  -34.5330 S   0  0  0  0  0  0  0  0  0  0  0  0
   -6.1100   18.9000  -35.4620 O   0  0  0  0  0  0  0  0  0  0  0  0
   -4.8780   16.7920  -35.3500 O   0  0  0  0  0  0  0  0  0  0  0  0
   -6.6510   17.2680  -33.4150 N   0  0  0  0  0  0  0  0  0  0  0  0
   -6.0150   16.9100  -32.1420 C   0  0  0  0  0  0  0  0  0  0  0  0
   -6.1180   18.1080  -31.2080 C   0  0  0  0  0  0  0  0  0  0  0  0
   -7.1920   18.9980  -31.8070 C   0  0  0  0  0  0  0  0  0  0  0  0
   -7.6460   18.2920  -33.0790 C   0  0  0  0  0  0  0  0  0  0  0  0
   -2.9990   17.9770  -33.2990 C   0  0  0  0  0  0  0  0  0  0  0  0
   -1.9720   18.6090  -32.5940 C   0  0  0  0  0  0  0  0  0  0  0  0
   -0.3930   22.0570  -29.0630 C   0  0  0  0  0  0  0  0  0  0  0  0
   -0.9300   22.9550  -27.9200 C   0  0  0  0  0  0  0  0  0  0  0  0
   -4.8570   23.0960  -31.6070 C   0  0  0  0  0  0  0  0  0  0  0  0
   -6.1930   22.7630  -31.8510 C   0  0  0  0  0  0  0  0  0  0  0  0
   -9.2595   21.3279  -30.4660 H   0  0  0  0  0  0  0  0  0  0  0  0
  -10.0423   21.7930  -32.0144 H   0  0  0  0  0  0  0  0  0  0  0  0
   -8.3682   21.1417  -32.0144 H   0  0  0  0  0  0  0  0  0  0  0  0
   -7.6933   24.8551  -29.6045 H   0  0  0  0  0  0  0  0  0  0  0  0
   -5.3147   25.4711  -29.1917 H   0  0  0  0  0  0  0  0  0  0  0  0
   -2.7234   23.8810  -27.2102 H   0  0  0  0  0  0  0  0  0  0  0  0
   -3.5865   21.7426  -27.6220 H   0  0  0  0  0  0  0  0  0  0  0  0
   -4.1663   22.6972  -29.0666 H   0  0  0  0  0  0  0  0  0  0  0  0
   -2.3753   20.3501  -28.9416 H   0  0  0  0  0  0  0  0  0  0  0  0
   -3.3464   21.0256  -30.3084 H   0  0  0  0  0  0  0  0  0  0  0  0
   -3.3617   21.7170  -32.2635 H   0  0  0  0  0  0  0  0  0  0  0  0
   -5.1977   20.5892  -33.5202 H   0  0  0  0  0  0  0  0  0  0  0  0
   -6.5304   16.0456  -31.6979 H   0  0  0  0  0  0  0  0  0  0  0  0
   -4.9603   16.6435  -32.3048 H   0  0  0  0  0  0  0  0  0  0  0  0
   -6.4069   17.7838  -30.1973 H   0  0  0  0  0  0  0  0  0  0  0  0
   -5.1573   18.6352  -31.1130 H   0  0  0  0  0  0  0  0  0  0  0  0
   -8.0338   19.1081  -31.1075 H   0  0  0  0  0  0  0  0  0  0  0  0
   -6.8132   20.0094  -32.0156 H   0  0  0  0  0  0  0  0  0  0  0  0
   -8.6253   17.8194  -32.9132 H   0  0  0  0  0  0  0  0  0  0  0  0
   -7.7396   19.0155  -33.9023 H   0  0  0  0  0  0  0  0  0  0  0  0
   -2.8935   16.9227  -33.5945 H   0  0  0  0  0  0  0  0  0  0  0  0
   -1.0615   18.0494  -32.3335 H   0  0  0  0  0  0  0  0  0  0  0  0
   -0.0863   21.0887  -28.6408 H   0  0  0  0  0  0  0  0  0  0  0  0
    0.4589   22.5721  -29.5308 H   0  0  0  0  0  0  0  0  0  0  0  0
   -0.9096   22.3781  -26.9836 H   0  0  0  0  0  0  0  0  0  0  0  0
   -0.2840   23.8441  -27.8727 H   0  0  0  0  0  0  0  0  0  0  0  0
   -4.0588   22.6066  -32.1844 H   0  0  0  0  0  0  0  0  0  0  0  0
   -6.4390   22.0086  -32.6129 H   0  0  0  0  0  0  0  0  0  0  0  0
  1  2  1  0
  2  3  1  0
  3  4  2  0
  4  5  1  0
  5  6  2  0
  6  7  1  0
  7  8  1  0
  8  9  2  0
  8 10  1  0
 10 11  1  0
 11 12  1  0
 12 13  1  0
 13 14  1  0
 14 15  2  0
 14 16  2  0
 14 17  1  0
 17 18  2  0
 18 19  1  0
 19 20  2  0
 20 21  1  0
 21 22  2  0
 21 23  2  0
 21 24  1  0
 24 25  1  0
 25 26  1  0
 26 27  1  0
 27 28  1  0
 20 29  1  0
 29 30  2  0
 13 31  1  0
 31 32  1  0
  6 33  1  0
 33 34  2  0
 34  3  1  0
 32 10  1  0
 30 17  1  0
 28 24  1  0
  1 35  1  0
  1 36  1  0
  1 37  1  0
  4 38  1  0
  5 39  1  0
 10 40  1  0
 11 41  1  0
 11 42  1  0
 12 43  1  0
 12 44  1  0
 18 45  1  0
 19 46  1  0
 25 47  1  0
 25 48  1  0
 26 49  1  0
 26 50  1  0
 27 51  1  0
 27 52  1  0
 28 53  1  0
 28 54  1  0
 29 55  1  0
 30 56  1  0
 31 57  1  0
 31 58  1  0
 32 59  1  0
 32 60  1  0
 33 61  1  0
 34 62  1  0
M  CHG  1   7  -1
M  END
>  <UniqueID>  (2) 
2

>  <SMILES>  (2) 
COc1ccc([N-]C(=O)C2CCN(S(=O)(=O)c3ccc(S(=O)(=O)N4CCCC4)cc3)CC2)cc1

>  <Energy>  (2) 
72.33626001871072

>  <Genealogy>  (2) 
COc1ccc([N-]C(=O)C2CCN(S(=O)(=O)c3ccc(S(=O)(=O)N4CCCC4)cc3)CC2)cc1 (protonated)
COc1ccc([N-]C(=O)C2CCN(S(=O)(=O)c3ccc(S(=O)(=O)N4CCCC4)cc3)CC2)cc1 (3D coordinates assigned)
COc1ccc([N-]C(=O)C2CCN(S(=O)(=O)c3ccc(S(=O)(=O)N4CCCC4)cc3)CC2)cc1 (nonaromatic ring conformer: 72.33626001871072 kcal/mol)

>  <smiles>  (2) 
COc1ccc(NC(=O)C2CCN(S(=O)(=O)c3ccc(S(=O)(=O)N4CCCC4)cc3)CC2)cc1

>  <score_type>  (2) 
oracle

>  <origin>  (2) 
adgpu

>  <m_score__min__energy>  (2) 
-11.539999999999999

>  <m_primary>  (2) 
energy

$$$$
2:0
     RDKit          3D

 53 55  0  0  0  0  0  0  0  0999 V2000
   -8.4680   20.5330  -32.4360 C   0  0  0  0  0  0  0  0  0  0  0  0
   -7.6390   21.6470  -31.8660 C   0  0  0  0  0  0  0  0  0  0  0  0
   -7.6950   21.9430  -30.4950 C   0  0  0  0  0  0  0  0  0  0  0  0
   -6.9510   23.0040  -29.9730 C   0  0  0  0  0  0  0  0  0  0  0  0
   -6.1560   23.7920  -30.8170 C   0  0  0  0  0  0  0  0  0  0  0  0
   -5.2190   25.1360  -30.1690 S   0  0  0  0  0  0  0  0  0  0  0  0
   -5.6510   26.4240  -30.8120 O   0  0  0  0  0  0  0  0  0  0  0  0
   -5.4540   25.2260  -28.6880 O   0  0  0  0  0  0  0  0  0  0  0  0
   -3.5250   24.8750  -30.4650 N   0  0  0  0  0  0  0  0  0  0  0  0
   -2.8840   24.2050  -29.3310 C   0  0  0  0  0  0  0  0  0  0  0  0
   -1.8080   23.2260  -29.8100 C   0  0  0  0  0  0  0  0  0  0  0  0
   -2.5190   21.7860  -30.6080 S   0  0  0  0  0  0  0  0  0  0  0  0
   -2.7350   20.7140  -29.5780 O   0  0  0  0  0  0  0  0  0  0  0  0
   -3.8490   22.1600  -31.2020 O   0  0  0  0  0  0  0  0  0  0  0  0
   -1.4560   21.1530  -31.8510 N   0  0  0  0  0  0  0  0  0  0  0  0
   -1.8740   21.5500  -33.2100 C   0  0  0  0  0  0  0  0  0  0  0  0
   -3.1760   20.8560  -33.6380 C   0  0  0  0  0  0  0  0  0  0  0  0
   -3.1840   19.4540  -33.2060 N   0  0  0  0  0  0  0  0  0  0  0  0
   -4.3870   18.6730  -33.3220 C   0  0  0  0  0  0  0  0  0  0  0  0
   -4.5890   17.8510  -34.4450 C   0  0  0  0  0  0  0  0  0  0  0  0
   -5.7540   17.0920  -34.5650 C   0  0  0  0  0  0  0  0  0  0  0  0
   -6.7320   17.1460  -33.5710 C   0  0  0  0  0  0  0  0  0  0  0  0
   -6.5470   17.9630  -32.4540 C   0  0  0  0  0  0  0  0  0  0  0  0
   -5.3820   18.7320  -32.3240 C   0  0  0  0  0  0  0  0  0  0  0  0
   -5.2160   19.5660  -31.2190 O   0  0  0  0  0  0  0  0  0  0  0  0
   -1.9270   18.8350  -32.7780 C   0  0  0  0  0  0  0  0  0  0  0  0
   -1.2460   19.6910  -31.6930 C   0  0  0  0  0  0  0  0  0  0  0  0
   -6.1080   23.5060  -32.1870 C   0  0  0  0  0  0  0  0  0  0  0  0
   -6.8520   22.4440  -32.7120 C   0  0  0  0  0  0  0  0  0  0  0  0
   -8.9056   19.9449  -31.6158 H   0  0  0  0  0  0  0  0  0  0  0  0
   -9.2735   20.9550  -33.0549 H   0  0  0  0  0  0  0  0  0  0  0  0
   -7.8324   19.8827  -33.0549 H   0  0  0  0  0  0  0  0  0  0  0  0
   -8.3271   21.3372  -29.8291 H   0  0  0  0  0  0  0  0  0  0  0  0
   -6.9891   23.2220  -28.8955 H   0  0  0  0  0  0  0  0  0  0  0  0
   -2.4189   24.9616  -28.6819 H   0  0  0  0  0  0  0  0  0  0  0  0
   -3.6498   23.6416  -28.7777 H   0  0  0  0  0  0  0  0  0  0  0  0
   -1.1520   23.7418  -30.5267 H   0  0  0  0  0  0  0  0  0  0  0  0
   -1.2437   22.8835  -28.9301 H   0  0  0  0  0  0  0  0  0  0  0  0
   -2.0289   22.6389  -33.2299 H   0  0  0  0  0  0  0  0  0  0  0  0
   -1.0819   21.2476  -33.9108 H   0  0  0  0  0  0  0  0  0  0  0  0
   -4.0301   21.3788  -33.1827 H   0  0  0  0  0  0  0  0  0  0  0  0
   -3.2490   20.8879  -34.7351 H   0  0  0  0  0  0  0  0  0  0  0  0
   -3.8238   17.8060  -35.2340 H   0  0  0  0  0  0  0  0  0  0  0  0
   -5.9017   16.4494  -35.4455 H   0  0  0  0  0  0  0  0  0  0  0  0
   -7.6483   16.5451  -33.6675 H   0  0  0  0  0  0  0  0  0  0  0  0
   -7.3194   18.0035  -31.6718 H   0  0  0  0  0  0  0  0  0  0  0  0
   -4.3430   20.0500  -31.0470 H   0  0  0  0  0  0  0  0  0  0  0  0
   -2.1362   17.8345  -32.3714 H   0  0  0  0  0  0  0  0  0  0  0  0
   -1.2546   18.7589  -33.6452 H   0  0  0  0  0  0  0  0  0  0  0  0
   -1.6456   19.3888  -30.7137 H   0  0  0  0  0  0  0  0  0  0  0  0
   -0.1640   19.5151  -31.7840 H   0  0  0  0  0  0  0  0  0  0  0  0
   -5.4828   24.1188  -32.8530 H   0  0  0  0  0  0  0  0  0  0  0  0
   -6.8202   22.2329  -33.7911 H   0  0  0  0  0  0  0  0  0  0  0  0
  1  2  1  0
  2  3  2  0
  3  4  1  0
  4  5  2  0
  5  6  1  0
  6  7  2  0
  6  8  2  0
  6  9  1  0
  9 10  1  0
 10 11  1  0
 11 12  1  0
 12 13  2  0
 12 14  2  0
 12 15  1  0
 15 16  1  0
 16 17  1  0
 17 18  1  0
 18 19  1  0
 19 20  2  0
 20 21  1  0
 21 22  2  0
 22 23  1  0
 23 24  2  0
 24 25  1  0
 18 26  1  0
 26 27  1  0
  5 28  1  0
 28 29  2  0
 29  2  1  0
 27 15  1  0
 24 19  1  0
  1 30  1  0
  1 31  1  0
  1 32  1  0
  3 33  1  0
  4 34  1  0
 10 35  1  0
 10 36  1  0
 11 37  1  0
 11 38  1  0
 16 39  1  0
 16 40  1  0
 17 41  1  0
 17 42  1  0
 20 43  1  0
 21 44  1  0
 22 45  1  0
 23 46  1  0
 25 47  1  0
 26 48  1  0
 26 49  1  0
 27 50  1  0
 27 51  1  0
 28 52  1  0
 29 53  1  0
M  CHG  1   9  -1
M  END
>  <UniqueID>  (3) 
3

>  <SMILES>  (3) 
Cc1ccc(S(=O)(=O)[N-]CCS(=O)(=O)N2CCN(c3ccccc3O)CC2)cc1

>  <Energy>  (3) 
59.100919531124276

>  <Genealogy>  (3) 
Cc1ccc(S(=O)(=O)[N-]CCS(=O)(=O)N2CCN(c3ccccc3O)CC2)cc1 (protonated)
Cc1ccc(S(=O)(=O)[N-]CCS(=O)(=O)N2CCN(c3ccccc3O)CC2)cc1 (3D coordinates assigned)
Cc1ccc(S(=O)(=O)[N-]CCS(=O)(=O)N2CCN(c3ccccc3O)CC2)cc1 (nonaromatic ring conformer: 59.100919531124276 kcal/mol)

>  <smiles>  (3) 
Cc1ccc(S(=O)(=O)NCCS(=O)(=O)N2CCN(c3ccccc3O)CC2)cc1

>  <score_type>  (3) 
oracle

>  <origin>  (3) 
adgpu

>  <m_score__min__energy>  (3) 
-10.550000000000001

>  <m_primary>  (3) 
energy

$$$$
3:0
     RDKit          3D

 44 47  0  0  0  0  0  0  0  0999 V2000
    0.7190   24.0960  -28.8630 O   0  0  0  0  0  0  0  0  0  0  0  0
   -0.5130   24.1210  -29.1250 C   0  0  0  0  0  0  0  0  0  0  0  0
   -1.1330   22.9940  -29.5680 N   0  0  0  0  0  0  0  0  0  0  0  0
   -2.4620   22.9890  -29.8540 C   0  0  0  0  0  0  0  0  0  0  0  0
   -3.0860   21.8270  -30.3180 C   0  0  0  0  0  0  0  0  0  0  0  0
   -4.4540   21.8400  -30.6120 C   0  0  0  0  0  0  0  0  0  0  0  0
   -5.2050   23.0150  -30.4390 C   0  0  0  0  0  0  0  0  0  0  0  0
   -6.9210   23.0420  -30.8440 S   0  0  0  0  0  0  0  0  0  0  0  0
   -7.6960   22.3660  -29.7490 O   0  0  0  0  0  0  0  0  0  0  0  0
   -7.3860   24.4660  -30.9490 O   0  0  0  0  0  0  0  0  0  0  0  0
   -7.2350   22.2270  -32.3410 N   0  0  0  0  0  0  0  0  0  0  0  0
   -7.3460   20.8040  -32.4410 C   0  0  0  0  0  0  0  0  0  0  0  0
   -8.4210   20.1320  -31.8400 C   0  0  0  0  0  0  0  0  0  0  0  0
   -8.5250   18.7460  -31.9410 C   0  0  0  0  0  0  0  0  0  0  0  0
   -7.5720   18.0220  -32.6550 C   0  0  0  0  0  0  0  0  0  0  0  0
   -6.5020   18.6770  -33.2840 C   0  0  0  0  0  0  0  0  0  0  0  0
   -5.3270   17.7180  -34.1960 S   0  0  0  0  0  0  0  0  0  0  0  0
   -5.5240   17.9070  -35.6750 O   0  0  0  0  0  0  0  0  0  0  0  0
   -5.5300   16.2630  -33.8750 O   0  0  0  0  0  0  0  0  0  0  0  0
   -3.6940   18.2320  -33.7810 C   0  0  0  0  0  0  0  0  0  0  0  0
   -2.5970   17.8210  -34.5530 C   0  0  0  0  0  0  0  0  0  0  0  0
   -1.3070   18.2390  -34.2120 C   0  0  0  0  0  0  0  0  0  0  0  0
   -1.1070   19.0680  -33.1040 C   0  0  0  0  0  0  0  0  0  0  0  0
   -2.1980   19.4810  -32.3340 C   0  0  0  0  0  0  0  0  0  0  0  0
   -3.4890   19.0660  -32.6730 C   0  0  0  0  0  0  0  0  0  0  0  0
   -6.3970   20.0860  -33.1870 C   0  0  0  0  0  0  0  0  0  0  0  0
   -5.3680   20.7990  -33.8090 O   0  0  0  0  0  0  0  0  0  0  0  0
   -4.5780   24.1820  -29.9760 C   0  0  0  0  0  0  0  0  0  0  0  0
   -3.2100   24.1720  -29.6860 C   0  0  0  0  0  0  0  0  0  0  0  0
   -2.5850   25.2980  -29.2500 N   0  0  0  0  0  0  0  0  0  0  0  0
   -1.2550   25.3000  -28.9660 C   0  0  0  0  0  0  0  0  0  0  0  0
   -0.7040   26.3600  -28.5660 O   0  0  0  0  0  0  0  0  0  0  0  0
   -2.5025   20.9041  -30.4517 H   0  0  0  0  0  0  0  0  0  0  0  0
   -4.9437   20.9264  -30.9802 H   0  0  0  0  0  0  0  0  0  0  0  0
   -9.1837   20.7006  -31.2877 H   0  0  0  0  0  0  0  0  0  0  0  0
   -9.3616   18.2220  -31.4558 H   0  0  0  0  0  0  0  0  0  0  0  0
   -7.6592   16.9278  -32.7262 H   0  0  0  0  0  0  0  0  0  0  0  0
   -2.7517   17.1702  -35.4262 H   0  0  0  0  0  0  0  0  0  0  0  0
   -0.4474   17.9148  -34.8169 H   0  0  0  0  0  0  0  0  0  0  0  0
   -0.0910   19.3952  -32.8382 H   0  0  0  0  0  0  0  0  0  0  0  0
   -2.0407   20.1323  -31.4616 H   0  0  0  0  0  0  0  0  0  0  0  0
   -4.3470   19.3949  -32.0683 H   0  0  0  0  0  0  0  0  0  0  0  0
   -5.2930   21.8070  -33.7860 H   0  0  0  0  0  0  0  0  0  0  0  0
   -5.1623   25.1042  -29.8413 H   0  0  0  0  0  0  0  0  0  0  0  0
  1  2  2  0
  2  3  1  0
  3  4  1  0
  4  5  2  0
  5  6  1  0
  6  7  2  0
  7  8  1  0
  8  9  2  0
  8 10  2  0
  8 11  1  0
 11 12  1  0
 12 13  2  0
 13 14  1  0
 14 15  2  0
 15 16  1  0
 16 17  1  0
 17 18  2  0
 17 19  2  0
 17 20  1  0
 20 21  2  0
 21 22  1  0
 22 23  2  0
 23 24  1  0
 24 25  2  0
 16 26  2  0
 26 27  1  0
  7 28  1  0
 28 29  2  0
 29 30  1  0
 30 31  1  0
 31 32  2  0
 31  2  1  0
 29  4  1  0
 26 12  1  0
 25 20  1  0
  5 33  1  0
  6 34  1  0
 13 35  1  0
 14 36  1  0
 15 37  1  0
 21 38  1  0
 22 39  1  0
 23 40  1  0
 24 41  1  0
 25 42  1  0
 27 43  1  0
 28 44  1  0
M  CHG  3   3  -1  11  -1  30  -1
M  END
>  <UniqueID>  (4) 
4

>  <SMILES>  (4) 
O=c1[n-]c2ccc(S(=O)(=O)[N-]c3cccc(S(=O)(=O)c4ccccc4)c3O)cc2[n-]c1=O

>  <Energy>  (4) 
66.29557846204274

>  <Genealogy>  (4) 
O=c1[n-]c2ccc(S(=O)(=O)[N-]c3cccc(S(=O)(=O)c4ccccc4)c3O)cc2[n-]c1=O (protonated)
O=c1[n-]c2ccc(S(=O)(=O)[N-]c3cccc(S(=O)(=O)c4ccccc4)c3O)cc2[n-]c1=O (3D coordinates assigned)
O=c1[n-]c2ccc(S(=O)(=O)[N-]c3cccc(S(=O)(=O)c4ccccc4)c3O)cc2[n-]c1=O (optimized conformer: 66.29557846204274 kcal/mol)

>  <smiles>  (4) 
O=c1[nH]c2ccc(S(=O)(=O)Nc3cccc(S(=O)(=O)c4ccccc4)c3O)cc2[nH]c1=O

>  <score_type>  (4) 
oracle

>  <origin>  (4) 
adgpu

>  <m_score__min__energy>  (4) 
-12.69

>  <m_primary>  (4) 
energy

$$$$
4:0
     RDKit          3D

 48 52  0  0  0  0  0  0  0  0999 V2000
   -3.0000   25.2990  -29.7180 O   0  0  0  0  0  0  0  0  0  0  0  0
   -3.9110   24.5520  -30.4570 C   0  0  0  0  0  0  0  0  0  0  0  0
   -5.2520   24.9330  -30.5000 C   0  0  0  0  0  0  0  0  0  0  0  0
   -6.1660   24.1890  -31.2480 C   0  0  0  0  0  0  0  0  0  0  0  0
   -5.7450   23.0550  -31.9600 C   0  0  0  0  0  0  0  0  0  0  0  0
   -6.6620   22.3530  -32.7420 O   0  0  0  0  0  0  0  0  0  0  0  0
   -4.3930   22.6490  -31.8980 C   0  0  0  0  0  0  0  0  0  0  0  0
   -3.9020   21.4540  -32.6220 C   0  0  0  0  0  0  0  0  0  0  0  0
   -2.6540   21.4430  -33.2610 C   0  0  0  0  0  0  0  0  0  0  0  0
   -2.2490   20.2840  -33.9370 C   0  0  0  0  0  0  0  0  0  0  0  0
   -0.9800   20.2200  -34.6160 N   0  0  0  0  0  0  0  0  0  0  0  0
   -0.1030   21.4000  -34.6820 C   0  0  0  0  0  0  0  0  0  0  0  0
    0.8020   21.3660  -35.9380 C   0  0  0  0  0  0  0  0  0  0  0  0
    0.7270   20.1530  -36.6660 O   0  0  0  0  0  0  0  0  0  0  0  0
    0.8480   19.0550  -35.7880 C   0  0  0  0  0  0  0  0  0  0  0  0
   -0.4450   18.9050  -34.9880 C   0  0  0  0  0  0  0  0  0  0  0  0
   -3.0950   19.2200  -33.9910 N   0  0  0  0  0  0  0  0  0  0  0  0
   -4.3120   19.2440  -33.3860 C   0  0  0  0  0  0  0  0  0  0  0  0
   -5.1970   18.0680  -33.4720 C   0  0  0  0  0  0  0  0  0  0  0  0
   -6.5440   18.0380  -33.1140 C   0  0  0  0  0  0  0  0  0  0  0  0
   -7.0630   16.8070  -33.3130 N   0  0  0  0  0  0  0  0  0  0  0  0
   -6.0590   16.0530  -33.7930 C   0  0  0  0  0  0  0  0  0  0  0  0
   -6.1190   14.7060  -34.1460 C   0  0  0  0  0  0  0  0  0  0  0  0
   -4.9470   14.0990  -34.6290 C   0  0  0  0  0  0  0  0  0  0  0  0
   -3.7540   14.8430  -34.7460 C   0  0  0  0  0  0  0  0  0  0  0  0
   -3.7210   16.2010  -34.3830 C   0  0  0  0  0  0  0  0  0  0  0  0
   -4.9010   16.7830  -33.9060 C   0  0  0  0  0  0  0  0  0  0  0  0
   -4.7000   20.3570  -32.7120 N   0  0  0  0  0  0  0  0  0  0  0  0
   -3.4810   23.4200  -31.1550 C   0  0  0  0  0  0  0  0  0  0  0  0
   -5.5895   25.8202  -29.9442 H   0  0  0  0  0  0  0  0  0  0  0  0
   -7.2226   24.4932  -31.2797 H   0  0  0  0  0  0  0  0  0  0  0  0
   -6.3750   21.5890  -33.3420 H   0  0  0  0  0  0  0  0  0  0  0  0
   -2.0034   22.3295  -33.2322 H   0  0  0  0  0  0  0  0  0  0  0  0
   -0.7254   22.3064  -34.7146 H   0  0  0  0  0  0  0  0  0  0  0  0
    0.5429   21.3997  -33.7916 H   0  0  0  0  0  0  0  0  0  0  0  0
    0.5019   22.1887  -36.6036 H   0  0  0  0  0  0  0  0  0  0  0  0
    1.8398   21.4644  -35.5869 H   0  0  0  0  0  0  0  0  0  0  0  0
    1.0297   18.1384  -36.3684 H   0  0  0  0  0  0  0  0  0  0  0  0
    1.6900   19.2233  -35.1004 H   0  0  0  0  0  0  0  0  0  0  0  0
   -1.1883   18.3725  -35.5995 H   0  0  0  0  0  0  0  0  0  0  0  0
   -0.2295   18.3382  -34.0702 H   0  0  0  0  0  0  0  0  0  0  0  0
   -7.1068   18.8985  -32.7232 H   0  0  0  0  0  0  0  0  0  0  0  0
   -8.0450   16.5060  -33.1280 H   0  0  0  0  0  0  0  0  0  0  0  0
   -7.0546   14.1357  -34.0496 H   0  0  0  0  0  0  0  0  0  0  0  0
   -4.9600   13.0376  -34.9175 H   0  0  0  0  0  0  0  0  0  0  0  0
   -2.8426   14.3569  -35.1241 H   0  0  0  0  0  0  0  0  0  0  0  0
   -2.7952   16.7885  -34.4713 H   0  0  0  0  0  0  0  0  0  0  0  0
   -2.4205   23.1297  -31.1230 H   0  0  0  0  0  0  0  0  0  0  0  0
  1  2  1  0
  2  3  2  0
  3  4  1  0
  4  5  2  0
  5  6  1  0
  5  7  1  0
  7  8  1  0
  8  9  2  0
  9 10  1  0
 10 11  1  0
 11 12  1  0
 12 13  1  0
 13 14  1  0
 14 15  1  0
 15 16  1  0
 10 17  2  0
 17 18  1  0
 18 19  1  0
 19 20  2  0
 20 21  1  0
 21 22  1  0
 22 23  2  0
 23 24  1  0
 24 25  2  0
 25 26  1  0
 26 27  2  0
 18 28  2  0
  7 29  2  0
 29  2  1  0
 28  8  1  0
 16 11  1  0
 27 19  1  0
 27 22  1  0
  3 30  1  0
  4 31  1  0
  6 32  1  0
  9 33  1  0
 12 34  1  0
 12 35  1  0
 13 36  1  0
 13 37  1  0
 15 38  1  0
 15 39  1  0
 16 40  1  0
 16 41  1  0
 20 42  1  0
 21 43  1  0
 23 44  1  0
 24 45  1  0
 25 46  1  0
 26 47  1  0
 29 48  1  0
M  CHG  1   1  -1
M  END
>  <UniqueID>  (5) 
5

>  <SMILES>  (5) 
[O-]c1ccc(O)c(-c2cc(N3CCOCC3)nc(-c3c[nH]c4ccccc34)n2)c1

>  <Energy>  (5) 
102.65222613661533

>  <Genealogy>  (5) 
[O-]c1ccc(O)c(-c2cc(N3CCOCC3)nc(-c3c[nH]c4ccccc34)n2)c1 (protonated)
[O-]c1ccc(O)c(-c2cc(N3CCOCC3)nc(-c3c[nH]c4ccccc34)n2)c1 (3D coordinates assigned)
[O-]c1ccc(O)c(-c2cc(N3CCOCC3)nc(-c3c[nH]c4ccccc34)n2)c1 (nonaromatic ring conformer: 102.65222613661533 kcal/mol)

>  <smiles>  (5) 
Oc1ccc(O)c(-c2cc(N3CCOCC3)nc(-c3c[nH]c4ccccc34)n2)c1

>  <score_type>  (5) 
oracle

>  <origin>  (5) 
adgpu

>  <m_score__min__energy>  (5) 
-10.609999999999999

>  <m_primary>  (5) 
energy

$$$$
5:0
     RDKit          3D

 22 23  0  0  0  0  0  0  0  0999 V2000
   -6.4750   17.7390  -35.3450 H   0  0  0  0  0  0  0  0  0  0  0  0
   -6.0500   18.6170  -34.9690 N   0  0  0  0  0  0  0  0  0  0  0  0
   -6.4700   19.1550  -33.8700 C   0  0  0  0  0  0  0  0  0  0  0  0
   -7.4850   18.5770  -33.1730 N   0  0  0  0  0  0  0  0  0  0  0  0
   -7.9380   19.1200  -32.0160 C   0  0  0  0  0  0  0  0  0  0  0  0
   -8.8810   18.5660  -31.3920 O   0  0  0  0  0  0  0  0  0  0  0  0
   -7.3610   20.2900  -31.5240 C   0  0  0  0  0  0  0  0  0  0  0  0
   -7.7192   20.7394  -30.5861 H   0  0  0  0  0  0  0  0  0  0  0  0
   -6.3150   20.8840  -32.2470 C   0  0  0  0  0  0  0  0  0  0  0  0
   -5.6790   22.1350  -31.7610 C   0  0  0  0  0  0  0  0  0  0  0  0
   -4.3290   22.1400  -31.3680 C   0  0  0  0  0  0  0  0  0  0  0  0
   -3.7413   21.2117  -31.4211 H   0  0  0  0  0  0  0  0  0  0  0  0
   -3.7280   23.3170  -30.9100 C   0  0  0  0  0  0  0  0  0  0  0  0
   -2.6708   23.3115  -30.6061 H   0  0  0  0  0  0  0  0  0  0  0  0
   -4.4680   24.4990  -30.8380 C   0  0  0  0  0  0  0  0  0  0  0  0
   -3.8690   25.6670  -30.3820 O   0  0  0  0  0  0  0  0  0  0  0  0
   -5.8110   24.5070  -31.2260 C   0  0  0  0  0  0  0  0  0  0  0  0
   -6.3933   25.4386  -31.1700 H   0  0  0  0  0  0  0  0  0  0  0  0
   -6.4150   23.3330  -31.6850 C   0  0  0  0  0  0  0  0  0  0  0  0
   -7.4721   23.3451  -31.9888 H   0  0  0  0  0  0  0  0  0  0  0  0
   -5.8930   20.3000  -33.4070 N   0  0  0  0  0  0  0  0  0  0  0  0
   -5.1000   20.7190  -33.9460 H   0  0  0  0  0  0  0  0  0  0  0  0
  1  2  1  0
  2  3  2  0
  3  4  1  0
  4  5  1  0
  5  6  2  0
  5  7  1  0
  7  8  1  0
  7  9  2  0
  9 10  1  0
 10 11  2  0
 11 12  1  0
 11 13  1  0
 13 14  1  0
 13 15  2  0
 15 16  1  0
 15 17  1  0
 17 18  1  0
 17 19  2  0
 19 20  1  0
  9 21  1  0
 21 22  1  0
 21  3  1  0
 19 10  1  0
M  CHG  2   4  -1  16  -1
M  END
>  <UniqueID>  (6) 
6

>  <SMILES>  (6) 
[H]/N=c1\[n-]c(=O)cc(-c2ccc([O-])cc2)[nH]1

>  <Energy>  (6) 
28.54319694070601

>  <Genealogy>  (6) 
N=c1[n-]c(=O)cc(-c2ccc([O-])cc2)[nH]1 (protonated)
[H]/N=c1\[n-]c(=O)cc(-c2ccc([O-])cc2)[nH]1 (cis-trans isomerization)
[H]/N=c1\[n-]c(=O)cc(-c2ccc([O-])cc2)[nH]1 (3D coordinates assigned)
[H]/N=c1\[n-]c(=O)cc(-c2ccc([O-])cc2)[nH]1 (optimized conformer: 28.54319694070601 kcal/mol)

>  <smiles>  (6) 
N=c1[nH]c(-c2ccc(O)cc2)cc(=O)[nH]1

>  <score_type>  (6) 
oracle

>  <origin>  (6) 
adgpu

>  <m_score__min__energy>  (6) 
-9.1699999999999999

>  <m_primary>  (6) 
energy

$$$$
6:0
     RDKit          3D

 49 52  0  0  1  0  0  0  0  0999 V2000
   -3.3690   20.1220  -33.7460 N   0  0  0  0  0  0  0  0  0  0  0  0
   -4.1380   20.7680  -33.2060 C   0  0  0  0  0  0  0  0  0  0  0  0
   -5.1330   21.5920  -32.5350 C   0  0  0  0  0  0  0  0  0  0  0  0
   -4.7170   22.6480  -31.7170 C   0  0  0  0  0  0  0  0  0  0  0  0
   -5.6580   23.4500  -31.0820 C   0  0  0  0  0  0  0  0  0  0  0  0
   -5.2380   24.7720  -30.0560 S   0  0  0  0  0  0  0  0  0  0  0  0
   -4.2890   25.6710  -30.8390 O   0  0  0  0  0  0  0  0  0  0  0  0
   -6.4620   25.6450  -29.8250 O   0  0  0  0  0  0  0  0  0  0  0  0
   -4.5770   24.3240  -28.5520 N   0  0  0  0  0  0  0  0  0  0  0  0
   -3.3140   24.1930  -28.3760 C   0  0  0  0  0  0  0  0  0  0  0  0
   -2.8690   23.8290  -27.1360 C   0  0  0  0  0  0  0  0  0  0  0  0
   -1.4900   23.6930  -26.9700 C   0  0  0  0  0  0  0  0  0  0  0  0
   -0.6170   23.9030  -27.9630 N   0  0  0  0  0  0  0  0  0  0  0  0
   -1.0960   24.2580  -29.1630 C   0  0  0  0  0  0  0  0  0  0  0  0
   -2.4290   24.4030  -29.3770 N   0  0  0  0  0  0  0  0  0  0  0  0
   -7.0050   23.1790  -31.2790 C   0  0  0  0  0  0  0  0  0  0  0  0
   -7.4480   22.1460  -32.0790 C   0  0  0  0  0  0  0  0  0  0  0  0
   -6.4960   21.3480  -32.7110 C   0  0  0  0  0  0  0  0  0  0  0  0
   -6.9580   20.3300  -33.5000 O   0  0  0  0  0  0  0  0  0  0  0  0
   -6.5920   19.0120  -33.3020 C   0  0  0  0  0  0  0  0  0  0  0  0
   -6.6810   18.3560  -32.0950 C   0  0  0  0  0  0  0  0  0  0  0  0
   -6.2970   17.0690  -32.0000 N   0  0  0  0  0  0  0  0  0  0  0  0
   -5.8210   16.3850  -33.0600 C   0  0  0  0  0  0  0  0  0  0  0  0
   -5.4580   15.0740  -32.8550 O   0  0  0  0  0  0  0  0  0  0  0  0
   -4.1390   14.6460  -33.0590 C   0  0  0  0  0  0  0  0  0  0  0  0
   -3.1300   15.7420  -33.0490 C   0  0  0  0  0  0  0  0  0  0  0  0
   -1.8280   15.0070  -32.8110 C   0  0  0  0  0  0  0  0  0  0  0  0
   -2.1720   13.6640  -32.2150 C   0  0  0  0  0  0  0  0  0  0  0  0
   -3.6620   13.7260  -31.9410 C   0  0  0  0  0  0  0  0  0  0  0  0
   -5.7340   17.0220  -34.2390 N   0  0  0  0  0  0  0  0  0  0  0  0
   -6.1010   18.3240  -34.4180 C   0  0  0  0  0  0  0  0  0  0  0  0
   -3.6438   22.8438  -31.5762 H   0  0  0  0  0  0  0  0  0  0  0  0
   -3.5674   23.6510  -26.3050 H   0  0  0  0  0  0  0  0  0  0  0  0
   -1.1043   23.4011  -25.9821 H   0  0  0  0  0  0  0  0  0  0  0  0
    0.3930   23.7760  -27.7430 H   0  0  0  0  0  0  0  0  0  0  0  0
   -0.3949   24.4356  -29.9918 H   0  0  0  0  0  0  0  0  0  0  0  0
   -7.7497   23.8139  -30.7767 H   0  0  0  0  0  0  0  0  0  0  0  0
   -8.5232   21.9573  -32.2144 H   0  0  0  0  0  0  0  0  0  0  0  0
   -7.0654   18.8827  -31.2091 H   0  0  0  0  0  0  0  0  0  0  0  0
   -4.1937   14.1594  -34.0440 H   0  0  0  0  0  0  0  0  0  0  0  0
   -3.1136   16.2726  -34.0124 H   0  0  0  0  0  0  0  0  0  0  0  0
   -3.3362   16.5130  -32.2920 H   0  0  0  0  0  0  0  0  0  0  0  0
   -1.2936   14.8705  -33.7627 H   0  0  0  0  0  0  0  0  0  0  0  0
   -1.1772   15.5783  -32.1328 H   0  0  0  0  0  0  0  0  0  0  0  0
   -1.9428   12.8558  -32.9251 H   0  0  0  0  0  0  0  0  0  0  0  0
   -1.5927   13.4560  -31.3033 H   0  0  0  0  0  0  0  0  0  0  0  0
   -4.1257   12.7312  -32.0140 H   0  0  0  0  0  0  0  0  0  0  0  0
   -3.9178   14.0781  -30.9308 H   0  0  0  0  0  0  0  0  0  0  0  0
   -6.0146   18.8132  -35.3994 H   0  0  0  0  0  0  0  0  0  0  0  0
  1  2  3  0
  2  3  1  0
  3  4  2  0
  4  5  1  0
  5  6  1  0
  6  7  2  0
  6  8  2  0
  6  9  1  0
  9 10  2  0
 10 11  1  0
 11 12  2  0
 12 13  1  0
 13 14  1  0
 14 15  2  0
  5 16  2  0
 16 17  1  0
 17 18  2  0
 18 19  1  0
 19 20  1  0
 20 21  2  0
 21 22  1  0
 22 23  2  0
 23 24  1  0
 24 25  1  0
 25 26  1  0
 26 27  1  0
 27 28  1  0
 28 29  1  0
 23 30  1  0
 30 31  2  0
 18  3  1  0
 31 20  1  0
 15 10  1  0
 29 25  1  0
  4 32  1  0
 11 33  1  0
 12 34  1  0
 13 35  1  0
 14 36  1  0
 16 37  1  0
 17 38  1  0
 21 39  1  0
 25 40  1  0
 26 41  1  0
 26 42  1  0
 27 43  1  0
 27 44  1  0
 28 45  1  0
 28 46  1  0
 29 47  1  0
 29 48  1  0
 31 49  1  0
M  END
>  <smiles>  (7) 
N#Cc1cc(S(=O)(=O)N=c2cc[nH]cn2)ccc1Oc1cnc(OC2CCCC2)nc1

>  <score_type>  (7) 
oracle

>  <origin>  (7) 
adgpu

>  <m_score__min__energy>  (7) 
-9.5399999999999991

>  <m_primary>  (7) 
energy

$$$$
7:0
     RDKit          3D

 50 53  0  0  0  0  0  0  0  0999 V2000
    0.3580   18.4540  -30.2340 C   0  0  0  0  0  0  0  0  0  0  0  0
   -0.3420   19.2580  -29.2360 N   0  0  0  0  0  0  0  0  0  0  0  0
   -0.7420   18.8900  -27.9930 C   0  0  0  0  0  0  0  0  0  0  0  0
   -0.5320   17.7470  -27.5020 O   0  0  0  0  0  0  0  0  0  0  0  0
   -1.3960   19.8780  -27.3330 N   0  0  0  0  0  0  0  0  0  0  0  0
   -1.9530   19.8460  -25.9840 C   0  0  0  0  0  0  0  0  0  0  0  0
   -1.4080   20.9070  -28.2050 C   0  0  0  0  0  0  0  0  0  0  0  0
   -1.9480   22.1820  -28.0440 C   0  0  0  0  0  0  0  0  0  0  0  0
   -1.8220   23.0880  -29.1170 C   0  0  0  0  0  0  0  0  0  0  0  0
   -2.4260   24.7340  -28.9730 S   0  0  0  0  0  0  0  0  0  0  0  0
   -1.2980   25.7260  -28.9810 O   0  0  0  0  0  0  0  0  0  0  0  0
   -3.1830   24.8630  -27.6820 O   0  0  0  0  0  0  0  0  0  0  0  0
   -3.4930   25.0680  -30.2990 N   0  0  0  0  0  0  0  0  0  0  0  0
   -4.5030   24.1660  -30.7720 C   0  0  0  0  0  0  0  0  0  0  0  0
   -5.8370   24.4140  -30.4320 C   0  0  0  0  0  0  0  0  0  0  0  0
   -6.8450   23.5390  -30.8430 C   0  0  0  0  0  0  0  0  0  0  0  0
   -6.5290   22.4150  -31.6080 C   0  0  0  0  0  0  0  0  0  0  0  0
   -5.1970   22.1560  -31.9720 C   0  0  0  0  0  0  0  0  0  0  0  0
   -4.8530   20.9790  -32.8060 C   0  0  0  0  0  0  0  0  0  0  0  0
   -3.6440   20.6740  -32.9740 O   0  0  0  0  0  0  0  0  0  0  0  0
   -5.8550   20.2060  -33.4770 N   0  0  0  0  0  0  0  0  0  0  0  0
   -5.9140   18.7730  -33.5330 C   0  0  0  0  0  0  0  0  0  0  0  0
   -7.0750   18.1320  -33.0810 C   0  0  0  0  0  0  0  0  0  0  0  0
   -7.1720   16.7380  -33.1110 C   0  0  0  0  0  0  0  0  0  0  0  0
   -6.1170   15.9750  -33.6130 C   0  0  0  0  0  0  0  0  0  0  0  0
   -4.9670   16.6040  -34.0990 C   0  0  0  0  0  0  0  0  0  0  0  0
   -4.8620   18.0020  -34.0740 C   0  0  0  0  0  0  0  0  0  0  0  0
   -3.7310   18.6210  -34.6030 O   0  0  0  0  0  0  0  0  0  0  0  0
   -4.1890   23.0450  -31.5600 C   0  0  0  0  0  0  0  0  0  0  0  0
   -1.1710   22.6900  -30.3110 C   0  0  0  0  0  0  0  0  0  0  0  0
   -0.6400   21.3960  -30.4420 C   0  0  0  0  0  0  0  0  0  0  0  0
   -0.7750   20.5280  -29.3590 C   0  0  0  0  0  0  0  0  0  0  0  0
    0.9992   17.7176  -29.7275 H   0  0  0  0  0  0  0  0  0  0  0  0
   -0.3763   17.9296  -30.8631 H   0  0  0  0  0  0  0  0  0  0  0  0
    0.9784   19.1092  -30.8631 H   0  0  0  0  0  0  0  0  0  0  0  0
   -1.1361   19.8929  -25.2488 H   0  0  0  0  0  0  0  0  0  0  0  0
   -2.6228   20.7071  -25.8433 H   0  0  0  0  0  0  0  0  0  0  0  0
   -2.5198   18.9138  -25.8433 H   0  0  0  0  0  0  0  0  0  0  0  0
   -2.4551   22.4714  -27.1117 H   0  0  0  0  0  0  0  0  0  0  0  0
   -6.0936   25.3032  -29.8375 H   0  0  0  0  0  0  0  0  0  0  0  0
   -7.8904   23.7361  -30.5632 H   0  0  0  0  0  0  0  0  0  0  0  0
   -7.3269   21.7285  -31.9275 H   0  0  0  0  0  0  0  0  0  0  0  0
   -7.9159   18.7300  -32.6999 H   0  0  0  0  0  0  0  0  0  0  0  0
   -8.0805   16.2421  -32.7387 H   0  0  0  0  0  0  0  0  0  0  0  0
   -6.1903   14.8775  -33.6263 H   0  0  0  0  0  0  0  0  0  0  0  0
   -4.1412   15.9998  -34.5026 H   0  0  0  0  0  0  0  0  0  0  0  0
   -3.5430   19.6020  -34.4430 H   0  0  0  0  0  0  0  0  0  0  0  0
   -3.1457   22.8619  -31.8567 H   0  0  0  0  0  0  0  0  0  0  0  0
   -1.0804   23.4021  -31.1445 H   0  0  0  0  0  0  0  0  0  0  0  0
   -0.1354   21.0786  -31.3665 H   0  0  0  0  0  0  0  0  0  0  0  0
  1  2  1  0
  2  3  1  0
  3  4  2  0
  3  5  1  0
  5  6  1  0
  5  7  1  0
  7  8  2  0
  8  9  1  0
  9 10  1  0
 10 11  2  0
 10 12  2  0
 10 13  1  0
 13 14  1  0
 14 15  2  0
 15 16  1  0
 16 17  2  0
 17 18  1  0
 18 19  1  0
 19 20  2  0
 19 21  1  0
 21 22  1  0
 22 23  2  0
 23 24  1  0
 24 25  2  0
 25 26  1  0
 26 27  2  0
 27 28  1  0
 18 29  2  0
  9 30  2  0
 30 31  1  0
 31 32  2  0
 32  2  1  0
 32  7  1  0
 29 14  1  0
 27 22  1  0
  1 33  1  0
  1 34  1  0
  1 35  1  0
  6 36  1  0
  6 37  1  0
  6 38  1  0
  8 39  1  0
 15 40  1  0
 16 41  1  0
 17 42  1  0
 23 43  1  0
 24 44  1  0
 25 45  1  0
 26 46  1  0
 28 47  1  0
 29 48  1  0
 30 49  1  0
 31 50  1  0
M  CHG  2  13  -1  21  -1
M  END
>  <UniqueID>  (8) 
7

>  <SMILES>  (8) 
Cn1c(=O)n(C)c2cc(S(=O)(=O)[N-]c3cccc(C(=O)[N-]c4ccccc4O)c3)ccc21

>  <Energy>  (8) 
104.11628741520418

>  <Genealogy>  (8) 
Cn1c(=O)n(C)c2cc(S(=O)(=O)[N-]c3cccc(C(=O)[N-]c4ccccc4O)c3)ccc21 (protonated)
Cn1c(=O)n(C)c2cc(S(=O)(=O)[N-]c3cccc(C(=O)[N-]c4ccccc4O)c3)ccc21 (3D coordinates assigned)
Cn1c(=O)n(C)c2cc(S(=O)(=O)[N-]c3cccc(C(=O)[N-]c4ccccc4O)c3)ccc21 (optimized conformer: 104.11628741520418 kcal/mol)

>  <smiles>  (8) 
Cn1c(=O)n(C)c2cc(S(=O)(=O)Nc3cccc(C(=O)Nc4ccccc4O)c3)ccc21

>  <score_type>  (8) 
oracle

>  <origin>  (8) 
adgpu

>  <m_score__min__energy>  (8) 
-11.66

>  <m_primary>  (8) 
energy

$$$$
8:0
     RDKit          3D

 51 55  0  0  0  0  0  0  0  0999 V2000
   -1.4430   25.5250  -29.3270 O   0  0  0  0  0  0  0  0  0  0  0  0
   -2.5330   24.9070  -29.2010 C   0  0  0  0  0  0  0  0  0  0  0  0
   -2.7960   24.1410  -27.9240 C   0  0  0  0  0  0  0  0  0  0  0  0
   -2.2190   22.6980  -27.9230 C   0  0  1  0  0  0  0  0  0  0  0  0
   -3.3440   21.6410  -28.1210 C   0  0  0  0  0  0  0  0  0  0  0  0
   -2.7400   20.2210  -28.1660 C   0  0  2  0  0  0  0  0  0  0  0  0
   -2.0030   19.9350  -26.8390 C   0  0  0  0  0  0  0  0  0  0  0  0
   -0.8680   20.9640  -26.6440 C   0  0  1  0  0  0  0  0  0  0  0  0
    0.1270   20.8600  -27.8190 C   0  0  0  0  0  0  0  0  0  0  0  0
   -0.6090   21.1470  -29.1450 C   0  0  1  0  0  0  0  0  0  0  0  0
   -1.7440   20.1190  -29.3410 C   0  0  0  0  0  0  0  0  0  0  0  0
   -1.2090   22.5690  -29.1020 C   0  0  0  0  0  0  0  0  0  0  0  0
   -1.4650   22.3880  -26.5970 C   0  0  0  0  0  0  0  0  0  0  0  0
   -3.5240   25.0410  -30.2280 N   0  0  0  0  0  0  0  0  0  0  0  0
   -4.4870   24.0490  -30.5990 C   0  0  0  0  0  0  0  0  0  0  0  0
   -5.7640   24.0190  -30.0150 C   0  0  0  0  0  0  0  0  0  0  0  0
   -6.6740   23.0170  -30.3640 C   0  0  0  0  0  0  0  0  0  0  0  0
   -6.3120   22.0210  -31.2850 C   0  0  0  0  0  0  0  0  0  0  0  0
   -7.2460   20.9800  -31.6360 N   0  0  0  0  0  0  0  0  0  0  0  0
   -8.5330   21.2980  -31.9870 C   0  0  0  0  0  0  0  0  0  0  0  0
   -8.9230   22.4980  -31.9920 O   0  0  0  0  0  0  0  0  0  0  0  0
   -9.4370   20.2910  -32.3300 C   0  0  0  0  0  0  0  0  0  0  0  0
   -9.0070   18.9690  -32.3030 C   0  0  0  0  0  0  0  0  0  0  0  0
   -7.7300   18.6820  -31.9500 N   0  0  0  0  0  0  0  0  0  0  0  0
   -6.8520   19.6650  -31.6200 C   0  0  0  0  0  0  0  0  0  0  0  0
   -5.6690   19.3500  -31.3140 O   0  0  0  0  0  0  0  0  0  0  0  0
   -5.0260   22.0390  -31.8470 C   0  0  0  0  0  0  0  0  0  0  0  0
   -4.1170   23.0400  -31.4950 C   0  0  0  0  0  0  0  0  0  0  0  0
   -2.3433   24.6952  -27.0886 H   0  0  0  0  0  0  0  0  0  0  0  0
   -3.8878   24.0476  -27.8277 H   0  0  0  0  0  0  0  0  0  0  0  0
   -3.8694   21.8424  -29.0662 H   0  0  0  0  0  0  0  0  0  0  0  0
   -4.0484   21.7047  -27.2785 H   0  0  0  0  0  0  0  0  0  0  0  0
   -3.5451   19.4847  -28.3060 H   0  0  0  0  0  0  0  0  0  0  0  0
   -1.5770   18.9213  -26.8681 H   0  0  0  0  0  0  0  0  0  0  0  0
   -2.7135   20.0122  -26.0028 H   0  0  0  0  0  0  0  0  0  0  0  0
   -0.3430   20.7568  -25.6998 H   0  0  0  0  0  0  0  0  0  0  0  0
    0.5542   19.8468  -27.8489 H   0  0  0  0  0  0  0  0  0  0  0  0
    0.9339   21.5949  -27.6816 H   0  0  0  0  0  0  0  0  0  0  0  0
    0.1023   21.0709  -29.9806 H   0  0  0  0  0  0  0  0  0  0  0  0
   -1.3186   19.1051  -29.3740 H   0  0  0  0  0  0  0  0  0  0  0  0
   -2.2685   20.3278  -30.2851 H   0  0  0  0  0  0  0  0  0  0  0  0
   -1.7303   22.7710  -30.0493 H   0  0  0  0  0  0  0  0  0  0  0  0
   -0.3955   23.2948  -28.9554 H   0  0  0  0  0  0  0  0  0  0  0  0
   -2.1678   22.4598  -25.7539 H   0  0  0  0  0  0  0  0  0  0  0  0
   -0.6497   23.1153  -26.4689 H   0  0  0  0  0  0  0  0  0  0  0  0
   -6.0490   24.7866  -29.2805 H   0  0  0  0  0  0  0  0  0  0  0  0
   -7.6782   23.0088  -29.9151 H   0  0  0  0  0  0  0  0  0  0  0  0
  -10.4698   20.5387  -32.6162 H   0  0  0  0  0  0  0  0  0  0  0  0
   -9.7014   18.1579  -32.5675 H   0  0  0  0  0  0  0  0  0  0  0  0
   -4.7325   21.2616  -32.5678 H   0  0  0  0  0  0  0  0  0  0  0  0
   -3.1045   23.0348  -31.9248 H   0  0  0  0  0  0  0  0  0  0  0  0
  1  2  2  0
  2  3  1  0
  4  3  1  1
  4  5  1  0
  5  6  1  0
  6  7  1  0
  7  8  1  0
  8  9  1  0
  9 10  1  0
 10 11  1  0
 10 12  1  0
  8 13  1  0
  2 14  1  0
 14 15  1  0
 15 16  2  0
 16 17  1  0
 17 18  2  0
 18 19  1  0
 19 20  1  0
 20 21  2  0
 20 22  1  0
 22 23  2  0
 23 24  1  0
 24 25  1  0
 25 26  2  0
 18 27  1  0
 27 28  2  0
 12  4  1  0
 28 15  1  0
 13  4  1  0
 25 19  1  0
 11  6  1  0
  3 29  1  0
  3 30  1  0
  5 31  1  0
  5 32  1  0
  6 33  1  6
  7 34  1  0
  7 35  1  0
  8 36  1  1
  9 37  1  0
  9 38  1  0
 10 39  1  6
 11 40  1  0
 11 41  1  0
 12 42  1  0
 12 43  1  0
 13 44  1  0
 13 45  1  0
 16 46  1  0
 17 47  1  0
 22 48  1  0
 23 49  1  0
 27 50  1  0
 28 51  1  0
M  CHG  2  14  -1  24  -1
M  END
>  <UniqueID>  (9) 
8

>  <SMILES>  (9) 
O=C(CC12CC3CC(CC(C3)C1)C2)[N-]c1ccc(-n2c(=O)cc[n-]c2=O)cc1

>  <Energy>  (9) 
68.05320607773962

>  <Genealogy>  (9) 
O=C(CC12CC3CC(CC(C3)C1)C2)[N-]c1ccc(-n2c(=O)cc[n-]c2=O)cc1 (protonated)
O=C(CC12CC3CC(CC(C3)C1)C2)[N-]c1ccc(-n2c(=O)cc[n-]c2=O)cc1 (3D coordinates assigned)
O=C(CC12CC3CC(CC(C3)C1)C2)[N-]c1ccc(-n2c(=O)cc[n-]c2=O)cc1 (nonaromatic ring conformer: 68.05320607773962 kcal/mol)

>  <smiles>  (9) 
O=C(CC12CC3CC(CC(C3)C1)C2)Nc1ccc(-n2c(=O)cc[nH]c2=O)cc1

>  <score_type>  (9) 
oracle

>  <origin>  (9) 
adgpu

>  <m_score__min__energy>  (9) 
-11.24

>  <m_primary>  (9) 
energy

$$$$
9:0
     RDKit          3D

 47 49  0  0  0  0  0  0  0  0999 V2000
   -3.7990   24.2140  -27.0860 C   0  0  0  0  0  0  0  0  0  0  0  0
   -4.2410   22.5780  -27.7460 S   0  0  0  0  0  0  0  0  0  0  0  0
   -2.5570   21.9470  -27.6760 C   0  0  0  0  0  0  0  0  0  0  0  0
   -2.2830   20.9600  -26.7800 N   0  0  0  0  0  0  0  0  0  0  0  0
   -1.0460   20.4130  -26.6610 C   0  0  0  0  0  0  0  0  0  0  0  0
   -0.0040   20.8650  -27.4660 C   0  0  0  0  0  0  0  0  0  0  0  0
   -0.2460   21.8780  -28.3940 C   0  0  0  0  0  0  0  0  0  0  0  0
   -1.5310   22.4310  -28.5220 C   0  0  0  0  0  0  0  0  0  0  0  0
   -1.7720   23.4870  -29.5330 C   0  0  0  0  0  0  0  0  0  0  0  0
   -1.2550   24.6250  -29.3730 O   0  0  0  0  0  0  0  0  0  0  0  0
   -2.5080   23.2370  -30.7400 N   0  0  0  0  0  0  0  0  0  0  0  0
   -3.9330   23.2870  -30.9260 C   0  0  0  0  0  0  0  0  0  0  0  0
   -4.6750   22.1320  -31.2370 C   0  0  0  0  0  0  0  0  0  0  0  0
   -6.0650   22.1960  -31.3970 C   0  0  0  0  0  0  0  0  0  0  0  0
   -6.9780   20.7430  -31.8130 S   0  0  0  0  0  0  0  0  0  0  0  0
   -7.6140   20.9300  -33.1620 O   0  0  0  0  0  0  0  0  0  0  0  0
   -8.0770   20.5440  -30.8060 O   0  0  0  0  0  0  0  0  0  0  0  0
   -5.9570   19.3230  -31.8380 N   0  0  0  0  0  0  0  0  0  0  0  0
   -6.7340   18.0810  -31.5990 C   0  0  0  0  0  0  0  0  0  0  0  0
   -6.9750   17.2670  -32.8780 C   0  0  0  0  0  0  0  0  0  0  0  0
   -5.6450   16.8760  -33.5460 C   0  0  0  0  0  0  0  0  0  0  0  0
   -4.5350   17.9200  -33.3200 C   0  0  0  0  0  0  0  0  0  0  0  0
   -5.1280   19.3090  -33.0630 C   0  0  0  0  0  0  0  0  0  0  0  0
   -6.7230   23.4190  -31.2270 C   0  0  0  0  0  0  0  0  0  0  0  0
   -5.9990   24.5650  -30.8910 C   0  0  0  0  0  0  0  0  0  0  0  0
   -4.6110   24.5060  -30.7360 C   0  0  0  0  0  0  0  0  0  0  0  0
   -3.9240   25.6730  -30.3980 O   0  0  0  0  0  0  0  0  0  0  0  0
   -3.8081   24.1805  -25.9865 H   0  0  0  0  0  0  0  0  0  0  0  0
   -2.7937   24.4913  -27.4361 H   0  0  0  0  0  0  0  0  0  0  0  0
   -4.5279   24.9598  -27.4361 H   0  0  0  0  0  0  0  0  0  0  0  0
   -0.8671   19.6124  -25.9282 H   0  0  0  0  0  0  0  0  0  0  0  0
    1.0008   20.4274  -27.3712 H   0  0  0  0  0  0  0  0  0  0  0  0
    0.5736   22.2457  -29.0288 H   0  0  0  0  0  0  0  0  0  0  0  0
   -4.1576   21.1686  -31.3557 H   0  0  0  0  0  0  0  0  0  0  0  0
   -6.1812   17.4542  -30.8838 H   0  0  0  0  0  0  0  0  0  0  0  0
   -7.7184   18.3794  -31.2093 H   0  0  0  0  0  0  0  0  0  0  0  0
   -7.5308   16.3528  -32.6224 H   0  0  0  0  0  0  0  0  0  0  0  0
   -7.5505   17.8858  -33.5822 H   0  0  0  0  0  0  0  0  0  0  0  0
   -5.3123   15.9134  -33.1303 H   0  0  0  0  0  0  0  0  0  0  0  0
   -5.8243   16.8119  -34.6294 H   0  0  0  0  0  0  0  0  0  0  0  0
   -3.9318   17.6204  -32.4503 H   0  0  0  0  0  0  0  0  0  0  0  0
   -3.9115   17.9684  -34.2249 H   0  0  0  0  0  0  0  0  0  0  0  0
   -4.3077   20.0329  -32.9485 H   0  0  0  0  0  0  0  0  0  0  0  0
   -5.7675   19.5762  -33.9172 H   0  0  0  0  0  0  0  0  0  0  0  0
   -7.8135   23.4780  -31.3584 H   0  0  0  0  0  0  0  0  0  0  0  0
   -6.5246   25.5206  -30.7473 H   0  0  0  0  0  0  0  0  0  0  0  0
   -3.0860   25.6650  -29.8300 H   0  0  0  0  0  0  0  0  0  0  0  0
  1  2  1  0
  2  3  1  0
  3  4  2  0
  4  5  1  0
  5  6  2  0
  6  7  1  0
  7  8  2  0
  8  9  1  0
  9 10  2  0
  9 11  1  0
 11 12  1  0
 12 13  2  0
 13 14  1  0
 14 15  1  0
 15 16  2  0
 15 17  2  0
 15 18  1  0
 18 19  1  0
 19 20  1  0
 20 21  1  0
 21 22  1  0
 22 23  1  0
 14 24  2  0
 24 25  1  0
 25 26  2  0
 26 27  1  0
  8  3  1  0
 26 12  1  0
 23 18  1  0
  1 28  1  0
  1 29  1  0
  1 30  1  0
  5 31  1  0
  6 32  1  0
  7 33  1  0
 13 34  1  0
 19 35  1  0
 19 36  1  0
 20 37  1  0
 20 38  1  0
 21 39  1  0
 21 40  1  0
 22 41  1  0
 22 42  1  0
 23 43  1  0
 23 44  1  0
 24 45  1  0
 25 46  1  0
 27 47  1  0
M  CHG  1  11  -1
M  END
>  <UniqueID>  (10) 
9

>  <SMILES>  (10) 
CSc1ncccc1C(=O)[N-]c1cc(S(=O)(=O)N2CCCCC2)ccc1O

>  <Energy>  (10) 
56.53100668469565

>  <Genealogy>  (10) 
CSc1ncccc1C(=O)[N-]c1cc(S(=O)(=O)N2CCCCC2)ccc1O (protonated)
CSc1ncccc1C(=O)[N-]c1cc(S(=O)(=O)N2CCCCC2)ccc1O (3D coordinates assigned)
CSc1ncccc1C(=O)[N-]c1cc(S(=O)(=O)N2CCCCC2)ccc1O (nonaromatic ring conformer: 56.53100668469565 kcal/mol)

>  <smiles>  (10) 
CSc1ncccc1C(=O)Nc1cc(S(=O)(=O)N2CCCCC2)ccc1O

>  <score_type>  (10) 
oracle

>  <origin>  (10) 
adgpu

>  <m_score__min__energy>  (10) 
-10.82

>  <m_primary>  (10) 
energy

$$$$
10:0
     RDKit          3D

 47 50  0  0  0  0  0  0  0  0999 V2000
   -2.3980   16.7690  -34.5080 C   0  0  0  0  0  0  0  0  0  0  0  0
   -3.2300   17.8700  -33.9900 N   0  0  0  0  0  0  0  0  0  0  0  0
   -4.5360   17.6290  -33.6310 C   0  0  0  0  0  0  0  0  0  0  0  0
   -5.0400   16.4760  -33.7230 O   0  0  0  0  0  0  0  0  0  0  0  0
   -5.2970   18.6960  -33.1740 C   0  0  0  0  0  0  0  0  0  0  0  0
   -4.7690   19.9440  -33.1150 C   0  0  0  0  0  0  0  0  0  0  0  0
   -5.6930   20.8440  -32.7130 N   0  0  0  0  0  0  0  0  0  0  0  0
   -6.7910   20.0640  -32.5350 C   0  0  0  0  0  0  0  0  0  0  0  0
   -6.5800   18.7540  -32.7860 N   0  0  0  0  0  0  0  0  0  0  0  0
   -7.6150   17.7240  -32.7400 C   0  0  0  0  0  0  0  0  0  0  0  0
   -8.7490   18.1730  -31.8050 C   0  0  0  0  0  0  0  0  0  0  0  0
   -9.2130   19.6060  -32.1300 C   0  0  0  0  0  0  0  0  0  0  0  0
   -8.0850   20.5540  -32.1530 N   0  0  0  0  0  0  0  0  0  0  0  0
   -8.3240   21.9900  -31.9500 C   0  0  0  0  0  0  0  0  0  0  0  0
   -8.0040   22.4280  -30.5130 C   0  0  0  0  0  0  0  0  0  0  0  0
   -6.7050   23.1860  -30.4350 C   0  0  0  0  0  0  0  0  0  0  0  0
   -5.4960   22.4990  -30.2420 C   0  0  0  0  0  0  0  0  0  0  0  0
   -4.2980   23.2070  -30.1140 C   0  0  0  0  0  0  0  0  0  0  0  0
   -4.2950   24.6040  -30.1700 C   0  0  0  0  0  0  0  0  0  0  0  0
   -3.0950   25.2930  -30.0380 O   0  0  0  0  0  0  0  0  0  0  0  0
   -5.5010   25.3010  -30.3540 C   0  0  0  0  0  0  0  0  0  0  0  0
   -5.5290   26.6940  -30.4060 O   0  0  0  0  0  0  0  0  0  0  0  0
   -6.6990   24.5900  -30.4860 C   0  0  0  0  0  0  0  0  0  0  0  0
   -3.4840   20.2040  -33.4790 N   0  0  0  0  0  0  0  0  0  0  0  0
   -2.9650   21.5780  -33.4600 C   0  0  0  0  0  0  0  0  0  0  0  0
   -2.7180   19.1570  -33.9440 C   0  0  0  0  0  0  0  0  0  0  0  0
   -1.5380   19.3780  -34.3400 O   0  0  0  0  0  0  0  0  0  0  0  0
   -1.9713   16.2044  -33.6659 H   0  0  0  0  0  0  0  0  0  0  0  0
   -3.0175   16.0990  -35.1223 H   0  0  0  0  0  0  0  0  0  0  0  0
   -1.5843   17.1820  -35.1223 H   0  0  0  0  0  0  0  0  0  0  0  0
   -8.0166   17.5633  -33.7514 H   0  0  0  0  0  0  0  0  0  0  0  0
   -7.1805   16.7865  -32.3627 H   0  0  0  0  0  0  0  0  0  0  0  0
   -9.6007   17.4864  -31.9203 H   0  0  0  0  0  0  0  0  0  0  0  0
   -8.3717   18.1577  -30.7718 H   0  0  0  0  0  0  0  0  0  0  0  0
   -9.6998   19.6076  -33.1164 H   0  0  0  0  0  0  0  0  0  0  0  0
   -9.9126   19.9257  -31.3436 H   0  0  0  0  0  0  0  0  0  0  0  0
   -7.6875   22.5578  -32.6446 H   0  0  0  0  0  0  0  0  0  0  0  0
   -9.3900   22.1872  -32.1364 H   0  0  0  0  0  0  0  0  0  0  0  0
   -8.8159   23.0747  -30.1488 H   0  0  0  0  0  0  0  0  0  0  0  0
   -7.9099   21.5241  -29.8932 H   0  0  0  0  0  0  0  0  0  0  0  0
   -5.4917   21.4002  -30.1914 H   0  0  0  0  0  0  0  0  0  0  0  0
   -3.3532   22.6628  -29.9685 H   0  0  0  0  0  0  0  0  0  0  0  0
   -4.9580   27.2660  -29.7950 H   0  0  0  0  0  0  0  0  0  0  0  0
   -7.6436   25.1347  -30.6309 H   0  0  0  0  0  0  0  0  0  0  0  0
   -2.8402   21.9084  -32.4183 H   0  0  0  0  0  0  0  0  0  0  0  0
   -1.9929   21.6099  -33.9738 H   0  0  0  0  0  0  0  0  0  0  0  0
   -3.6733   22.2446  -33.9738 H   0  0  0  0  0  0  0  0  0  0  0  0
  1  2  1  0
  2  3  1  0
  3  4  2  0
  3  5  1  0
  5  6  2  0
  6  7  1  0
  7  8  2  0
  8  9  1  0
  9 10  1  0
 10 11  1  0
 11 12  1  0
 12 13  1  0
 13 14  1  0
 14 15  1  0
 15 16  1  0
 16 17  2  0
 17 18  1  0
 18 19  2  0
 19 20  1  0
 19 21  1  0
 21 22  1  0
 21 23  2  0
  6 24  1  0
 24 25  1  0
 24 26  1  0
 26 27  2  0
 26  2  1  0
  9  5  1  0
 23 16  1  0
 13  8  1  0
  1 28  1  0
  1 29  1  0
  1 30  1  0
 10 31  1  0
 10 32  1  0
 11 33  1  0
 11 34  1  0
 12 35  1  0
 12 36  1  0
 14 37  1  0
 14 38  1  0
 15 39  1  0
 15 40  1  0
 17 41  1  0
 18 42  1  0
 22 43  1  0
 23 44  1  0
 25 45  1  0
 25 46  1  0
 25 47  1  0
M  CHG  1  20  -1
M  END
>  <UniqueID>  (11) 
10

>  <SMILES>  (11) 
Cn1c(=O)c2c(nc3n2CCCN3CCc2ccc([O-])c(O)c2)n(C)c1=O

>  <Energy>  (11) 
90.91546058600414

>  <Genealogy>  (11) 
Cn1c(=O)c2c(nc3n2CCCN3CCc2ccc([O-])c(O)c2)n(C)c1=O (protonated)
Cn1c(=O)c2c(nc3n2CCCN3CCc2ccc([O-])c(O)c2)n(C)c1=O (3D coordinates assigned)
Cn1c(=O)c2c(nc3n2CCCN3CCc2ccc([O-])c(O)c2)n(C)c1=O (nonaromatic ring conformer: 90.91546058600414 kcal/mol)

>  <smiles>  (11) 
Cn1c(=O)c2c(nc3n2CCCN3CCc2ccc(O)c(O)c2)n(C)c1=O

>  <score_type>  (11) 
oracle

>  <origin>  (11) 
adgpu

>  <m_score__min__energy>  (11) 
-11.81

>  <m_primary>  (11) 
energy

$$$$
11:0
     RDKit          3D

 47 49  0  0  0  0  0  0  0  0999 V2000
    1.2240   24.8050  -27.4120 C   0  0  0  0  0  0  0  0  0  0  0  0
   -0.1060   24.4490  -28.0080 C   0  0  0  0  0  0  0  0  0  0  0  0
   -1.2710   25.0870  -27.5670 C   0  0  0  0  0  0  0  0  0  0  0  0
   -2.5120   24.7360  -28.0990 C   0  0  0  0  0  0  0  0  0  0  0  0
   -2.6170   23.7200  -29.0640 C   0  0  0  0  0  0  0  0  0  0  0  0
   -3.8990   23.3810  -29.6230 N   0  0  0  0  0  0  0  0  0  0  0  0
   -4.6420   24.2500  -30.4910 C   0  0  0  0  0  0  0  0  0  0  0  0
   -4.1610   25.3620  -30.8470 O   0  0  0  0  0  0  0  0  0  0  0  0
   -6.0320   23.8610  -30.8990 C   0  0  0  0  0  0  0  0  0  0  0  0
   -6.8000   22.6940  -29.7170 S   0  0  0  0  0  0  0  0  0  0  0  0
   -7.6320   21.7470  -30.9980 C   0  0  0  0  0  0  0  0  0  0  0  0
   -8.9900   21.7330  -31.0090 N   0  0  0  0  0  0  0  0  0  0  0  0
   -9.6800   21.0600  -31.9640 C   0  0  0  0  0  0  0  0  0  0  0  0
   -9.0150   20.3850  -32.9350 N   0  0  0  0  0  0  0  0  0  0  0  0
   -7.6580   20.3630  -32.9640 C   0  0  0  0  0  0  0  0  0  0  0  0
   -6.9190   21.0400  -31.9870 C   0  0  0  0  0  0  0  0  0  0  0  0
   -5.1510   20.9560  -32.0040 S   0  0  0  0  0  0  0  0  0  0  0  0
   -4.6170   22.1670  -32.7180 O   0  0  0  0  0  0  0  0  0  0  0  0
   -4.6150   20.9620  -30.6000 O   0  0  0  0  0  0  0  0  0  0  0  0
   -4.6090   19.4810  -32.8000 C   0  0  0  0  0  0  0  0  0  0  0  0
   -3.4500   19.5010  -33.5890 C   0  0  0  0  0  0  0  0  0  0  0  0
   -3.0070   18.3320  -34.2150 C   0  0  0  0  0  0  0  0  0  0  0  0
   -3.7240   17.1420  -34.0660 C   0  0  0  0  0  0  0  0  0  0  0  0
   -4.8850   17.1190  -33.2900 C   0  0  0  0  0  0  0  0  0  0  0  0
   -5.3300   18.2860  -32.6590 C   0  0  0  0  0  0  0  0  0  0  0  0
   -1.4440   23.0640  -29.5060 C   0  0  0  0  0  0  0  0  0  0  0  0
   -1.5000   21.9960  -30.5660 C   0  0  0  0  0  0  0  0  0  0  0  0
   -0.1980   23.4360  -28.9730 C   0  0  0  0  0  0  0  0  0  0  0  0
    1.1511   24.7855  -26.3146 H   0  0  0  0  0  0  0  0  0  0  0  0
    1.9803   24.0777  -27.7422 H   0  0  0  0  0  0  0  0  0  0  0  0
    1.5158   25.8129  -27.7422 H   0  0  0  0  0  0  0  0  0  0  0  0
   -1.2078   25.8696  -26.7966 H   0  0  0  0  0  0  0  0  0  0  0  0
   -3.4176   25.2600  -27.7595 H   0  0  0  0  0  0  0  0  0  0  0  0
   -4.3770   22.5150  -29.2840 H   0  0  0  0  0  0  0  0  0  0  0  0
   -6.6517   24.7682  -30.9541 H   0  0  0  0  0  0  0  0  0  0  0  0
   -5.9686   23.3588  -31.8756 H   0  0  0  0  0  0  0  0  0  0  0  0
  -10.7799   21.0617  -31.9509 H   0  0  0  0  0  0  0  0  0  0  0  0
   -7.1365   19.8103  -33.7594 H   0  0  0  0  0  0  0  0  0  0  0  0
   -2.8883   20.4382  -33.7157 H   0  0  0  0  0  0  0  0  0  0  0  0
   -2.0924   18.3491  -34.8259 H   0  0  0  0  0  0  0  0  0  0  0  0
   -3.3741   16.2234  -34.5598 H   0  0  0  0  0  0  0  0  0  0  0  0
   -5.4503   16.1824  -33.1747 H   0  0  0  0  0  0  0  0  0  0  0  0
   -6.2467   18.2663  -32.0514 H   0  0  0  0  0  0  0  0  0  0  0  0
   -1.5519   21.0069  -30.0875 H   0  0  0  0  0  0  0  0  0  0  0  0
   -2.3914   22.1475  -31.1924 H   0  0  0  0  0  0  0  0  0  0  0  0
   -0.5976   22.0534  -31.1924 H   0  0  0  0  0  0  0  0  0  0  0  0
    0.7147   22.9271  -29.3165 H   0  0  0  0  0  0  0  0  0  0  0  0
  1  2  1  0
  2  3  2  0
  3  4  1  0
  4  5  2  0
  5  6  1  0
  6  7  1  0
  7  8  2  0
  7  9  1  0
  9 10  1  0
 10 11  1  0
 11 12  2  0
 12 13  1  0
 13 14  2  0
 14 15  1  0
 15 16  2  0
 16 17  1  0
 17 18  2  0
 17 19  2  0
 17 20  1  0
 20 21  2  0
 21 22  1  0
 22 23  2  0
 23 24  1  0
 24 25  2  0
  5 26  1  0
 26 27  1  0
 26 28  2  0
 28  2  1  0
 16 11  1  0
 25 20  1  0
  1 29  1  0
  1 30  1  0
  1 31  1  0
  3 32  1  0
  4 33  1  0
  6 34  1  0
  9 35  1  0
  9 36  1  0
 13 37  1  0
 15 38  1  0
 21 39  1  0
 22 40  1  0
 23 41  1  0
 24 42  1  0
 25 43  1  0
 27 44  1  0
 27 45  1  0
 27 46  1  0
 28 47  1  0
M  END
>  <UniqueID>  (12) 
11

>  <SMILES>  (12) 
Cc1ccc(NC(=O)CSc2ncncc2S(=O)(=O)c2ccccc2)c(C)c1

>  <Energy>  (12) 
49.844604819958164

>  <Genealogy>  (12) 
Cc1ccc(NC(=O)CSc2ncncc2S(=O)(=O)c2ccccc2)c(C)c1 (3D coordinates assigned)
Cc1ccc(NC(=O)CSc2ncncc2S(=O)(=O)c2ccccc2)c(C)c1 (optimized conformer: 49.844604819958164 kcal/mol)

>  <smiles>  (12) 
Cc1ccc(NC(=O)CSc2ncncc2S(=O)(=O)c2ccccc2)c(C)c1

>  <score_type>  (12) 
oracle

>  <origin>  (12) 
adgpu

>  <m_score__min__energy>  (12) 
-10.02

>  <m_primary>  (12) 
energy

$$$$
12:0
     RDKit          3D

 44 46  0  0  0  0  0  0  0  0999 V2000
   -0.5370   20.2460  -32.4530 C   0  0  0  0  0  0  0  0  0  0  0  0
   -1.8880   20.8580  -32.2280 C   0  0  0  0  0  0  0  0  0  0  0  0
   -2.7060   21.1740  -33.3180 C   0  0  0  0  0  0  0  0  0  0  0  0
   -3.9510   21.7730  -33.1130 C   0  0  0  0  0  0  0  0  0  0  0  0
   -4.4070   22.0480  -31.8160 C   0  0  0  0  0  0  0  0  0  0  0  0
   -6.0600   22.7460  -31.6160 S   0  0  0  0  0  0  0  0  0  0  0  0
   -6.9180   21.1710  -31.8350 C   0  0  0  0  0  0  0  0  0  0  0  0
   -6.1410   20.0050  -31.9090 C   0  0  0  0  0  0  0  0  0  0  0  0
   -6.7460   18.7550  -32.0510 C   0  0  0  0  0  0  0  0  0  0  0  0
   -8.1360   18.6580  -32.1310 C   0  0  0  0  0  0  0  0  0  0  0  0
   -8.9220   19.8110  -32.0910 C   0  0  0  0  0  0  0  0  0  0  0  0
   -8.3250   21.0790  -31.9660 C   0  0  0  0  0  0  0  0  0  0  0  0
   -9.2060   22.2940  -31.9330 C   0  0  0  0  0  0  0  0  0  0  0  0
   -3.5580   21.7990  -30.7100 C   0  0  0  0  0  0  0  0  0  0  0  0
   -3.8880   22.2770  -29.3150 C   0  0  0  0  0  0  0  0  0  0  0  0
   -2.9340   21.7240  -28.3420 N   0  0  0  0  0  0  0  0  0  0  0  0
   -1.8710   22.4780  -27.9280 C   0  0  0  0  0  0  0  0  0  0  0  0
   -0.9790   21.9630  -26.9860 C   0  0  0  0  0  0  0  0  0  0  0  0
   -1.1700   20.7120  -26.4940 N   0  0  0  0  0  0  0  0  0  0  0  0
   -2.2220   19.9510  -26.8960 C   0  0  0  0  0  0  0  0  0  0  0  0
   -2.3800   18.5610  -26.3630 C   0  0  0  0  0  0  0  0  0  0  0  0
   -3.1140   20.4630  -27.8450 C   0  0  0  0  0  0  0  0  0  0  0  0
   -2.3050   21.2000  -30.9330 C   0  0  0  0  0  0  0  0  0  0  0  0
   -0.0651   20.0322  -31.4826 H   0  0  0  0  0  0  0  0  0  0  0  0
   -0.6482   19.3104  -33.0207 H   0  0  0  0  0  0  0  0  0  0  0  0
    0.0930   20.9466  -33.0207 H   0  0  0  0  0  0  0  0  0  0  0  0
   -2.3674   20.9499  -34.3403 H   0  0  0  0  0  0  0  0  0  0  0  0
   -4.5799   22.0315  -33.9776 H   0  0  0  0  0  0  0  0  0  0  0  0
   -5.0447   20.0766  -31.8546 H   0  0  0  0  0  0  0  0  0  0  0  0
   -6.1274   17.8467  -32.0998 H   0  0  0  0  0  0  0  0  0  0  0  0
   -8.6130   17.6713  -32.2257 H   0  0  0  0  0  0  0  0  0  0  0  0
  -10.0168   19.7276  -32.1577 H   0  0  0  0  0  0  0  0  0  0  0  0
   -9.4078   22.5723  -30.8881 H   0  0  0  0  0  0  0  0  0  0  0  0
   -8.7008   23.1272  -32.4434 H   0  0  0  0  0  0  0  0  0  0  0  0
  -10.1550   22.0728  -32.4434 H   0  0  0  0  0  0  0  0  0  0  0  0
   -3.8375   23.3755  -29.2873 H   0  0  0  0  0  0  0  0  0  0  0  0
   -4.9008   21.9373  -29.0528 H   0  0  0  0  0  0  0  0  0  0  0  0
   -1.7192   23.4880  -28.3364 H   0  0  0  0  0  0  0  0  0  0  0  0
   -0.1259   22.5674  -26.6441 H   0  0  0  0  0  0  0  0  0  0  0  0
   -2.3770   18.5874  -25.2633 H   0  0  0  0  0  0  0  0  0  0  0  0
   -3.3319   18.1386  -26.7170 H   0  0  0  0  0  0  0  0  0  0  0  0
   -1.5472   17.9357  -26.7170 H   0  0  0  0  0  0  0  0  0  0  0  0
   -3.9600   19.8510  -28.1911 H   0  0  0  0  0  0  0  0  0  0  0  0
   -1.6421   20.9967  -30.0790 H   0  0  0  0  0  0  0  0  0  0  0  0
  1  2  1  0
  2  3  2  0
  3  4  1  0
  4  5  2  0
  5  6  1  0
  6  7  1  0
  7  8  2  0
  8  9  1  0
  9 10  2  0
 10 11  1  0
 11 12  2  0
 12 13  1  0
  5 14  1  0
 14 15  1  0
 15 16  1  0
 16 17  2  0
 17 18  1  0
 18 19  2  0
 19 20  1  0
 20 21  1  0
 20 22  2  0
 14 23  2  0
 23  2  1  0
 12  7  1  0
 22 16  1  0
  1 24  1  0
  1 25  1  0
  1 26  1  0
  3 27  1  0
  4 28  1  0
  8 29  1  0
  9 30  1  0
 10 31  1  0
 11 32  1  0
 13 33  1  0
 13 34  1  0
 13 35  1  0
 15 36  1  0
 15 37  1  0
 17 38  1  0
 18 39  1  0
 21 40  1  0
 21 41  1  0
 21 42  1  0
 22 43  1  0
 23 44  1  0
M  CHG  1  16   1
M  END
>  <UniqueID>  (13) 
12

>  <SMILES>  (13) 
Cc1ccc(Sc2ccccc2C)c(C[n+]2ccnc(C)c2)c1

>  <Energy>  (13) 
44.57651170529073

>  <Genealogy>  (13) 
Cc1ccc(Sc2ccccc2C)c(C[n+]2ccnc(C)c2)c1 (3D coordinates assigned)
Cc1ccc(Sc2ccccc2C)c(C[n+]2ccnc(C)c2)c1 (optimized conformer: 44.57651170529073 kcal/mol)

>  <smiles>  (13) 
Cc1ccc(Sc2ccccc2C)c(C[n+]2ccnc(C)c2)c1

>  <score_type>  (13) 
oracle

>  <origin>  (13) 
adgpu

>  <m_score__min__energy>  (13) 
-7.7400000000000002

>  <m_primary>  (13) 
energy

$$$$
13:0
     RDKit          3D

 53 57  0  0  0  0  0  0  0  0999 V2000
   -4.6740   26.0320  -30.7890 O   0  0  0  0  0  0  0  0  0  0  0  0
   -5.1600   24.6530  -30.4460 S   0  0  0  0  0  0  0  0  0  0  0  0
   -6.4780   24.7800  -29.7300 O   0  0  0  0  0  0  0  0  0  0  0  0
   -5.3500   23.7460  -31.9170 N   0  0  0  0  0  0  0  0  0  0  0  0
   -6.0770   22.5120  -31.9920 C   0  0  0  0  0  0  0  0  0  0  0  0
   -5.4270   21.3060  -32.3200 C   0  0  0  0  0  0  0  0  0  0  0  0
   -6.1990   20.1640  -32.5110 C   0  0  0  0  0  0  0  0  0  0  0  0
   -7.5720   20.1770  -32.3520 C   0  0  0  0  0  0  0  0  0  0  0  0
   -8.2350   21.3440  -31.9690 C   0  0  0  0  0  0  0  0  0  0  0  0
   -7.4800   22.5220  -31.7840 C   0  0  0  0  0  0  0  0  0  0  0  0
   -8.1200   23.7090  -31.4260 O   0  0  0  0  0  0  0  0  0  0  0  0
   -8.1800   18.8480  -32.7010 C   0  0  0  0  0  0  0  0  0  0  0  0
   -6.9480   18.0820  -33.1040 C   0  0  0  0  0  0  0  0  0  0  0  0
   -6.8750   16.7820  -33.6050 C   0  0  0  0  0  0  0  0  0  0  0  0
   -5.6100   16.2660  -33.9730 C   0  0  0  0  0  0  0  0  0  0  0  0
   -4.4480   17.0550  -33.8370 C   0  0  0  0  0  0  0  0  0  0  0  0
   -4.5420   18.3670  -33.3370 C   0  0  0  0  0  0  0  0  0  0  0  0
   -5.8050   18.8530  -32.9790 C   0  0  0  0  0  0  0  0  0  0  0  0
   -3.9720   23.8570  -29.4070 C   0  0  0  0  0  0  0  0  0  0  0  0
   -4.2100   22.5690  -28.9040 C   0  0  0  0  0  0  0  0  0  0  0  0
   -3.2840   21.9690  -28.0420 C   0  0  0  0  0  0  0  0  0  0  0  0
   -2.1260   22.6570  -27.6630 C   0  0  0  0  0  0  0  0  0  0  0  0
   -1.8840   23.9470  -28.1540 C   0  0  0  0  0  0  0  0  0  0  0  0
   -0.4590   24.8560  -27.6350 S   0  0  0  0  0  0  0  0  0  0  0  0
   -0.5500   26.2610  -28.1660 O   0  0  0  0  0  0  0  0  0  0  0  0
    0.7670   24.2160  -28.2300 O   0  0  0  0  0  0  0  0  0  0  0  0
   -0.3060   24.9160  -25.8890 N   0  0  0  0  0  0  0  0  0  0  0  0
    0.6230   25.9760  -25.4760 C   0  0  0  0  0  0  0  0  0  0  0  0
   -0.1940   27.2000  -25.0800 C   0  0  0  0  0  0  0  0  0  0  0  0
   -1.6150   26.7050  -24.8920 C   0  0  0  0  0  0  0  0  0  0  0  0
   -1.5930   25.2240  -25.2460 C   0  0  0  0  0  0  0  0  0  0  0  0
   -2.8010   24.5330  -29.0370 C   0  0  0  0  0  0  0  0  0  0  0  0
   -4.3325   21.2678  -32.4230 H   0  0  0  0  0  0  0  0  0  0  0  0
   -9.3241   21.3456  -31.8144 H   0  0  0  0  0  0  0  0  0  0  0  0
   -7.5960   24.5540  -31.2140 H   0  0  0  0  0  0  0  0  0  0  0  0
   -8.6786   18.3891  -31.8345 H   0  0  0  0  0  0  0  0  0  0  0  0
   -8.9660   18.8904  -33.4693 H   0  0  0  0  0  0  0  0  0  0  0  0
   -7.7829   16.1703  -33.7118 H   0  0  0  0  0  0  0  0  0  0  0  0
   -5.5318   15.2423  -34.3680 H   0  0  0  0  0  0  0  0  0  0  0  0
   -3.4682   16.6442  -34.1220 H   0  0  0  0  0  0  0  0  0  0  0  0
   -3.6453   18.9951  -33.2301 H   0  0  0  0  0  0  0  0  0  0  0  0
   -5.1258   22.0296  -29.1874 H   0  0  0  0  0  0  0  0  0  0  0  0
   -3.4675   20.9534  -27.6615 H   0  0  0  0  0  0  0  0  0  0  0  0
   -1.4052   22.1849  -26.9792 H   0  0  0  0  0  0  0  0  0  0  0  0
    1.2202   25.6338  -24.6180 H   0  0  0  0  0  0  0  0  0  0  0  0
    1.3045   26.2261  -26.3024 H   0  0  0  0  0  0  0  0  0  0  0  0
    0.1892   27.6294  -24.1426 H   0  0  0  0  0  0  0  0  0  0  0  0
   -0.1379   27.9889  -25.8445 H   0  0  0  0  0  0  0  0  0  0  0  0
   -1.9334   26.8440  -23.8483 H   0  0  0  0  0  0  0  0  0  0  0  0
   -2.3226   27.2605  -25.5251 H   0  0  0  0  0  0  0  0  0  0  0  0
   -1.7043   24.6224  -24.3318 H   0  0  0  0  0  0  0  0  0  0  0  0
   -2.4216   24.9879  -25.9298 H   0  0  0  0  0  0  0  0  0  0  0  0
   -2.5996   25.5348  -29.4444 H   0  0  0  0  0  0  0  0  0  0  0  0
  1  2  2  0
  2  3  2  0
  2  4  1  0
  4  5  1  0
  5  6  2  0
  6  7  1  0
  7  8  2  0
  8  9  1  0
  9 10  2  0
 10 11  1  0
  8 12  1  0
 12 13  1  0
 13 14  2  0
 14 15  1  0
 15 16  2  0
 16 17  1  0
 17 18  2  0
  2 19  1  0
 19 20  2  0
 20 21  1  0
 21 22  2  0
 22 23  1  0
 23 24  1  0
 24 25  2  0
 24 26  2  0
 24 27  1  0
 27 28  1  0
 28 29  1  0
 29 30  1  0
 30 31  1  0
 23 32  2  0
 10  5  1  0
 18 13  1  0
 32 19  1  0
 18  7  1  0
 31 27  1  0
  6 33  1  0
  9 34  1  0
 11 35  1  0
 12 36  1  0
 12 37  1  0
 14 38  1  0
 15 39  1  0
 16 40  1  0
 17 41  1  0
 20 42  1  0
 21 43  1  0
 22 44  1  0
 28 45  1  0
 28 46  1  0
 29 47  1  0
 29 48  1  0
 30 49  1  0
 30 50  1  0
 31 51  1  0
 31 52  1  0
 32 53  1  0
M  CHG  1   4  -1
M  END
>  <UniqueID>  (14) 
13

>  <SMILES>  (14) 
O=S(=O)([N-]c1cc2c(cc1O)Cc1ccccc1-2)c1cccc(S(=O)(=O)N2CCCC2)c1

>  <Energy>  (14) 
84.0089286940477

>  <Genealogy>  (14) 
O=S(=O)([N-]c1cc2c(cc1O)Cc1ccccc1-2)c1cccc(S(=O)(=O)N2CCCC2)c1 (protonated)
O=S(=O)([N-]c1cc2c(cc1O)Cc1ccccc1-2)c1cccc(S(=O)(=O)N2CCCC2)c1 (3D coordinates assigned)
O=S(=O)([N-]c1cc2c(cc1O)Cc1ccccc1-2)c1cccc(S(=O)(=O)N2CCCC2)c1 (nonaromatic ring conformer: 84.0089286940477 kcal/mol)

>  <smiles>  (14) 
O=S(=O)(Nc1cc2c(cc1O)Cc1ccccc1-2)c1cccc(S(=O)(=O)N2CCCC2)c1

>  <score_type>  (14) 
oracle

>  <origin>  (14) 
adgpu

>  <m_score__min__energy>  (14) 
-12.4

>  <m_primary>  (14) 
energy

$$$$
14:0
     RDKit          3D

 47 49  0  0  0  0  0  0  0  0999 V2000
    1.6500   21.2570  -36.6080 O   0  0  0  0  0  0  0  0  0  0  0  0
    1.1090   21.8100  -35.6100 C   0  0  0  0  0  0  0  0  0  0  0  0
    1.3190   23.1660  -35.3930 O   0  0  0  0  0  0  0  0  0  0  0  0
    0.2750   21.0240  -34.6700 C   0  0  0  0  0  0  0  0  0  0  0  0
    0.6920   19.7510  -34.2440 C   0  0  0  0  0  0  0  0  0  0  0  0
   -0.0840   19.0180  -33.3440 C   0  0  0  0  0  0  0  0  0  0  0  0
   -1.2840   19.5420  -32.8530 C   0  0  0  0  0  0  0  0  0  0  0  0
   -2.0180   18.7990  -31.9310 O   0  0  0  0  0  0  0  0  0  0  0  0
   -1.7300   20.7980  -33.2950 C   0  0  0  0  0  0  0  0  0  0  0  0
   -2.9530   21.3440  -32.7900 N   0  0  0  0  0  0  0  0  0  0  0  0
   -3.0800   22.0920  -31.2270 S   0  0  0  0  0  0  0  0  0  0  0  0
   -1.9220   23.0410  -31.0340 O   0  0  0  0  0  0  0  0  0  0  0  0
   -3.0050   21.0220  -30.1670 O   0  0  0  0  0  0  0  0  0  0  0  0
   -4.6070   22.9670  -31.0510 C   0  0  0  0  0  0  0  0  0  0  0  0
   -5.8120   22.2910  -31.2940 C   0  0  0  0  0  0  0  0  0  0  0  0
   -7.0400   22.9510  -31.1550 C   0  0  0  0  0  0  0  0  0  0  0  0
   -8.5500   22.0930  -31.4810 S   0  0  0  0  0  0  0  0  0  0  0  0
   -9.2600   21.8210  -30.1840 O   0  0  0  0  0  0  0  0  0  0  0  0
   -9.4430   22.9600  -32.3250 O   0  0  0  0  0  0  0  0  0  0  0  0
   -8.2550   20.5770  -32.3000 N   0  0  0  0  0  0  0  0  0  0  0  0
   -7.1130   20.6820  -33.2510 C   0  0  0  0  0  0  0  0  0  0  0  0
   -6.0310   19.6100  -33.0460 C   0  0  0  0  0  0  0  0  0  0  0  0
   -6.6550   18.2110  -32.9640 C   0  0  0  0  0  0  0  0  0  0  0  0
   -7.8760   18.1540  -32.0220 C   0  0  0  0  0  0  0  0  0  0  0  0
   -8.1280   19.4880  -31.3130 C   0  0  0  0  0  0  0  0  0  0  0  0
   -7.0600   24.2990  -30.7740 C   0  0  0  0  0  0  0  0  0  0  0  0
   -5.8650   24.9820  -30.5470 C   0  0  0  0  0  0  0  0  0  0  0  0
   -4.6410   24.3270  -30.6870 C   0  0  0  0  0  0  0  0  0  0  0  0
   -3.4670   25.0390  -30.4730 O   0  0  0  0  0  0  0  0  0  0  0  0
   -0.9410   21.5400  -34.1870 C   0  0  0  0  0  0  0  0  0  0  0  0
    1.6353   19.3298  -34.6219 H   0  0  0  0  0  0  0  0  0  0  0  0
    0.2507   18.0218  -33.0190 H   0  0  0  0  0  0  0  0  0  0  0  0
   -2.6880   19.2270  -31.3020 H   0  0  0  0  0  0  0  0  0  0  0  0
   -5.7925   21.2335  -31.5963 H   0  0  0  0  0  0  0  0  0  0  0  0
   -7.5048   20.5873  -34.2745 H   0  0  0  0  0  0  0  0  0  0  0  0
   -6.6354   21.6562  -33.0700 H   0  0  0  0  0  0  0  0  0  0  0  0
   -5.3279   19.6417  -33.8913 H   0  0  0  0  0  0  0  0  0  0  0  0
   -5.5061   19.8166  -32.1017 H   0  0  0  0  0  0  0  0  0  0  0  0
   -6.9749   17.9094  -33.9723 H   0  0  0  0  0  0  0  0  0  0  0  0
   -5.8915   17.5316  -32.5573 H   0  0  0  0  0  0  0  0  0  0  0  0
   -8.7666   17.8941  -32.6131 H   0  0  0  0  0  0  0  0  0  0  0  0
   -7.6699   17.3974  -31.2506 H   0  0  0  0  0  0  0  0  0  0  0  0
   -9.0571   19.4182  -30.7282 H   0  0  0  0  0  0  0  0  0  0  0  0
   -7.2792   19.7054  -30.6479 H   0  0  0  0  0  0  0  0  0  0  0  0
   -8.0210   24.8205  -30.6535 H   0  0  0  0  0  0  0  0  0  0  0  0
   -5.8878   26.0426  -30.2561 H   0  0  0  0  0  0  0  0  0  0  0  0
   -1.2770   22.5357  -34.5120 H   0  0  0  0  0  0  0  0  0  0  0  0
  1  2  2  0
  2  3  1  0
  2  4  1  0
  4  5  2  0
  5  6  1  0
  6  7  2  0
  7  8  1  0
  7  9  1  0
  9 10  1  0
 10 11  1  0
 11 12  2  0
 11 13  2  0
 11 14  1  0
 14 15  2  0
 15 16  1  0
 16 17  1  0
 17 18  2  0
 17 19  2  0
 17 20  1  0
 20 21  1  0
 21 22  1  0
 22 23  1  0
 23 24  1  0
 24 25  1  0
 16 26  2  0
 26 27  1  0
 27 28  2  0
 28 29  1  0
  9 30  2  0
 30  4  1  0
 28 14  1  0
 25 20  1  0
  5 31  1  0
  6 32  1  0
  8 33  1  0
 15 34  1  0
 21 35  1  0
 21 36  1  0
 22 37  1  0
 22 38  1  0
 23 39  1  0
 23 40  1  0
 24 41  1  0
 24 42  1  0
 25 43  1  0
 25 44  1  0
 26 45  1  0
 27 46  1  0
 30 47  1  0
M  CHG  3   3  -1  10  -1  29  -1
M  END
>  <UniqueID>  (15) 
14

>  <SMILES>  (15) 
O=C([O-])c1ccc(O)c([N-]S(=O)(=O)c2cc(S(=O)(=O)N3CCCCC3)ccc2[O-])c1

>  <Energy>  (15) 
59.12967356304212

>  <Genealogy>  (15) 
O=C([O-])c1ccc(O)c([N-]S(=O)(=O)c2cc(S(=O)(=O)N3CCCCC3)ccc2[O-])c1 (protonated)
O=C([O-])c1ccc(O)c([N-]S(=O)(=O)c2cc(S(=O)(=O)N3CCCCC3)ccc2[O-])c1 (3D coordinates assigned)
O=C([O-])c1ccc(O)c([N-]S(=O)(=O)c2cc(S(=O)(=O)N3CCCCC3)ccc2[O-])c1 (nonaromatic ring conformer: 59.12967356304212 kcal/mol)

>  <smiles>  (15) 
O=C(O)c1ccc(O)c(NS(=O)(=O)c2cc(S(=O)(=O)N3CCCCC3)ccc2O)c1

>  <score_type>  (15) 
oracle

>  <origin>  (15) 
adgpu

>  <m_score__min__energy>  (15) 
-13.51

>  <m_primary>  (15) 
energy

$$$$
15:0
     RDKit          3D

 39 41  0  0  0  0  0  0  0  0999 V2000
   -6.9940   23.6930  -32.7140 O   0  0  0  0  0  0  0  0  0  0  0  0
   -6.6560   22.4190  -31.9910 S   0  0  0  0  0  0  0  0  0  0  0  0
   -7.1570   22.5070  -30.5750 O   0  0  0  0  0  0  0  0  0  0  0  0
   -4.9060   22.2160  -31.9940 C   0  0  0  0  0  0  0  0  0  0  0  0
   -4.2720   21.5440  -33.0440 C   0  0  0  0  0  0  0  0  0  0  0  0
   -2.8840   21.3840  -33.0380 C   0  0  0  0  0  0  0  0  0  0  0  0
   -2.1150   21.8910  -31.9850 C   0  0  0  0  0  0  0  0  0  0  0  0
   -0.7380   21.6640  -31.9960 O   0  0  0  0  0  0  0  0  0  0  0  0
   -2.7470   22.5890  -30.9310 C   0  0  0  0  0  0  0  0  0  0  0  0
   -1.9870   23.1710  -29.8610 N   0  0  0  0  0  0  0  0  0  0  0  0
   -2.1360   24.4030  -29.3400 C   0  0  0  0  0  0  0  0  0  0  0  0
   -3.1270   25.2980  -29.7280 O   0  0  0  0  0  0  0  0  0  0  0  0
   -1.1810   24.6530  -28.3760 C   0  0  0  0  0  0  0  0  0  0  0  0
   -0.3940   23.5150  -28.3120 C   0  0  0  0  0  0  0  0  0  0  0  0
   -0.9140   22.6380  -29.2430 C   0  0  0  0  0  0  0  0  0  0  0  0
   -0.3930   21.3810  -29.5300 O   0  0  0  0  0  0  0  0  0  0  0  0
   -4.1430   22.7310  -30.9390 C   0  0  0  0  0  0  0  0  0  0  0  0
   -7.4100   21.0610  -32.7910 N   0  0  0  0  0  0  0  0  0  0  0  0
   -6.5950   19.8290  -32.6380 C   0  0  0  0  0  0  0  0  0  0  0  0
   -7.1570   18.8620  -31.5860 C   0  0  0  0  0  0  0  0  0  0  0  0
   -8.5970   18.4420  -31.9290 C   0  0  0  0  0  0  0  0  0  0  0  0
   -9.3790   19.5450  -32.6650 C   0  0  0  0  0  0  0  0  0  0  0  0
   -8.8140   20.9320  -32.3400 C   0  0  0  0  0  0  0  0  0  0  0  0
   -4.8674   21.1406  -33.8763 H   0  0  0  0  0  0  0  0  0  0  0  0
   -2.3920   20.8553  -33.8677 H   0  0  0  0  0  0  0  0  0  0  0  0
   -0.2070   21.4850  -31.1530 H   0  0  0  0  0  0  0  0  0  0  0  0
   -1.0676   25.5701  -27.7793 H   0  0  0  0  0  0  0  0  0  0  0  0
    0.4701   23.3445  -27.6530 H   0  0  0  0  0  0  0  0  0  0  0  0
   -4.6425   23.2517  -30.1087 H   0  0  0  0  0  0  0  0  0  0  0  0
   -6.5597   19.3100  -33.6072 H   0  0  0  0  0  0  0  0  0  0  0  0
   -5.5949   20.1372  -32.2992 H   0  0  0  0  0  0  0  0  0  0  0  0
   -6.5213   17.9651  -31.5471 H   0  0  0  0  0  0  0  0  0  0  0  0
   -7.1660   19.3736  -30.6122 H   0  0  0  0  0  0  0  0  0  0  0  0
   -8.5597   17.5493  -32.5707 H   0  0  0  0  0  0  0  0  0  0  0  0
   -9.1187   18.2410  -30.9817 H   0  0  0  0  0  0  0  0  0  0  0  0
   -9.3082   19.3732  -33.7492 H   0  0  0  0  0  0  0  0  0  0  0  0
  -10.4279   19.5089  -32.3356 H   0  0  0  0  0  0  0  0  0  0  0  0
   -9.4242   21.6948  -32.8458 H   0  0  0  0  0  0  0  0  0  0  0  0
   -8.8420   21.0710  -31.2492 H   0  0  0  0  0  0  0  0  0  0  0  0
  1  2  2  0
  2  3  2  0
  2  4  1  0
  4  5  2  0
  5  6  1  0
  6  7  2  0
  7  8  1  0
  7  9  1  0
  9 10  1  0
 10 11  1  0
 11 12  1  0
 11 13  2  0
 13 14  1  0
 14 15  2  0
 15 16  1  0
  9 17  2  0
  2 18  1  0
 18 19  1  0
 19 20  1  0
 20 21  1  0
 21 22  1  0
 22 23  1  0
 17  4  1  0
 23 18  1  0
 15 10  1  0
  5 24  1  0
  6 25  1  0
  8 26  1  0
 13 27  1  0
 14 28  1  0
 17 29  1  0
 19 30  1  0
 19 31  1  0
 20 32  1  0
 20 33  1  0
 21 34  1  0
 21 35  1  0
 22 36  1  0
 22 37  1  0
 23 38  1  0
 23 39  1  0
M  CHG  2  12  -1  16  -1
M  END
>  <UniqueID>  (16) 
15

>  <SMILES>  (16) 
O=S(=O)(c1ccc(O)c(-n2c([O-])ccc2[O-])c1)N1CCCCC1

>  <Energy>  (16) 
80.42813124790628

>  <Genealogy>  (16) 
O=S(=O)(c1ccc(O)c(-n2c([O-])ccc2[O-])c1)N1CCCCC1 (protonated)
O=S(=O)(c1ccc(O)c(-n2c([O-])ccc2[O-])c1)N1CCCCC1 (3D coordinates assigned)
O=S(=O)(c1ccc(O)c(-n2c([O-])ccc2[O-])c1)N1CCCCC1 (nonaromatic ring conformer: 80.42813124790628 kcal/mol)

>  <smiles>  (16) 
O=S(=O)(c1ccc(O)c(-n2c(O)ccc2O)c1)N1CCCCC1

>  <score_type>  (16) 
oracle

>  <origin>  (16) 
adgpu

>  <m_score__min__energy>  (16) 
-11.73

>  <m_primary>  (16) 
energy

$$$$
16:0
     RDKit          3D

 54 56  0  0  0  0  0  0  0  0999 V2000
   -1.6480   21.1640  -26.9260 C   0  0  0  0  0  0  0  0  0  0  0  0
   -2.3600   21.6230  -28.2050 C   0  0  0  0  0  0  0  0  0  0  0  0
   -1.6270   22.8330  -28.8290 C   0  0  0  0  0  0  0  0  0  0  0  0
   -2.5910   23.6790  -29.6640 C   0  0  0  0  0  0  0  0  0  0  0  0
   -3.6560   24.2720  -28.8250 N   0  0  0  0  0  0  0  0  0  0  0  0
   -5.0020   24.7840  -29.8190 S   0  0  0  0  0  0  0  0  0  0  0  0
   -4.5040   25.6750  -30.9230 O   0  0  0  0  0  0  0  0  0  0  0  0
   -5.9640   25.5790  -28.9780 O   0  0  0  0  0  0  0  0  0  0  0  0
   -5.8460   23.4030  -30.5200 C   0  0  0  0  0  0  0  0  0  0  0  0
   -5.2150   22.6060  -31.4850 C   0  0  0  0  0  0  0  0  0  0  0  0
   -5.8540   21.4680  -31.9860 C   0  0  0  0  0  0  0  0  0  0  0  0
   -7.1340   21.1230  -31.5350 C   0  0  0  0  0  0  0  0  0  0  0  0
   -7.8840   19.6380  -32.1100 S   0  0  0  0  0  0  0  0  0  0  0  0
   -8.9330   19.9890  -33.1280 O   0  0  0  0  0  0  0  0  0  0  0  0
   -8.5400   18.9110  -30.9680 O   0  0  0  0  0  0  0  0  0  0  0  0
   -6.6610   18.6290  -32.8380 N   0  0  0  0  0  0  0  0  0  0  0  0
   -7.1630   17.2550  -32.9880 C   0  0  0  0  0  0  0  0  0  0  0  0
   -6.0120   16.3080  -33.3780 C   0  0  0  0  0  0  0  0  0  0  0  0
   -4.8930   17.0120  -34.1850 C   0  0  0  0  0  0  0  0  0  0  0  0
   -3.7390   17.4730  -33.2790 C   0  0  0  0  0  0  0  0  0  0  0  0
   -5.4630   18.1850  -35.0060 C   0  0  0  0  0  0  0  0  0  0  0  0
   -6.2540   19.1940  -34.1420 C   0  0  0  0  0  0  0  0  0  0  0  0
   -7.7750   21.9310  -30.5860 C   0  0  0  0  0  0  0  0  0  0  0  0
   -7.1360   23.0670  -30.0850 C   0  0  0  0  0  0  0  0  0  0  0  0
   -4.1040   23.4180  -27.6970 C   0  0  0  0  0  0  0  0  0  0  0  0
   -3.8570   21.9190  -27.9430 C   0  0  0  0  0  0  0  0  0  0  0  0
   -2.2045   21.5228  -26.0476 H   0  0  0  0  0  0  0  0  0  0  0  0
   -1.6011   20.0652  -26.9066 H   0  0  0  0  0  0  0  0  0  0  0  0
   -0.6278   21.5749  -26.9066 H   0  0  0  0  0  0  0  0  0  0  0  0
   -2.3251   20.8011  -28.9353 H   0  0  0  0  0  0  0  0  0  0  0  0
   -1.2059   23.4539  -28.0246 H   0  0  0  0  0  0  0  0  0  0  0  0
   -0.8254   22.4610  -29.4840 H   0  0  0  0  0  0  0  0  0  0  0  0
   -2.0270   24.4882  -30.1509 H   0  0  0  0  0  0  0  0  0  0  0  0
   -3.0638   23.0266  -30.4129 H   0  0  0  0  0  0  0  0  0  0  0  0
   -4.2132   22.8770  -31.8495 H   0  0  0  0  0  0  0  0  0  0  0  0
   -5.3498   20.8417  -32.7367 H   0  0  0  0  0  0  0  0  0  0  0  0
   -7.6007   16.9220  -32.0354 H   0  0  0  0  0  0  0  0  0  0  0  0
   -7.9271   17.2362  -33.7791 H   0  0  0  0  0  0  0  0  0  0  0  0
   -5.5728   15.8936  -32.4586 H   0  0  0  0  0  0  0  0  0  0  0  0
   -6.4365   15.5234  -34.0216 H   0  0  0  0  0  0  0  0  0  0  0  0
   -4.4771   16.2745  -34.8872 H   0  0  0  0  0  0  0  0  0  0  0  0
   -4.0312   17.3563  -32.2250 H   0  0  0  0  0  0  0  0  0  0  0  0
   -2.8470   16.8622  -33.4820 H   0  0  0  0  0  0  0  0  0  0  0  0
   -3.5134   18.5303  -33.4820 H   0  0  0  0  0  0  0  0  0  0  0  0
   -4.6282   18.7144  -35.4885 H   0  0  0  0  0  0  0  0  0  0  0  0
   -6.1609   17.7635  -35.7444 H   0  0  0  0  0  0  0  0  0  0  0  0
   -5.6214   20.0757  -33.9620 H   0  0  0  0  0  0  0  0  0  0  0  0
   -7.1698   19.4573  -34.6916 H   0  0  0  0  0  0  0  0  0  0  0  0
   -8.7842   21.6696  -30.2349 H   0  0  0  0  0  0  0  0  0  0  0  0
   -7.6470   23.7013  -29.3457 H   0  0  0  0  0  0  0  0  0  0  0  0
   -3.5580   23.7192  -26.7909 H   0  0  0  0  0  0  0  0  0  0  0  0
   -5.1895   23.5592  -27.5881 H   0  0  0  0  0  0  0  0  0  0  0  0
   -4.1830   21.3536  -27.0575 H   0  0  0  0  0  0  0  0  0  0  0  0
   -4.4280   21.6181  -28.8337 H   0  0  0  0  0  0  0  0  0  0  0  0
  1  2  1  0
  2  3  1  0
  3  4  1  0
  4  5  1  0
  5  6  1  0
  6  7  2  0
  6  8  2  0
  6  9  1  0
  9 10  2  0
 10 11  1  0
 11 12  2  0
 12 13  1  0
 13 14  2  0
 13 15  2  0
 13 16  1  0
 16 17  1  0
 17 18  1  0
 18 19  1  0
 19 20  1  0
 19 21  1  0
 21 22  1  0
 12 23  1  0
 23 24  2  0
  5 25  1  0
 25 26  1  0
 26  2  1  0
 24  9  1  0
 22 16  1  0
  1 27  1  0
  1 28  1  0
  1 29  1  0
  2 30  1  0
  3 31  1  0
  3 32  1  0
  4 33  1  0
  4 34  1  0
 10 35  1  0
 11 36  1  0
 17 37  1  0
 17 38  1  0
 18 39  1  0
 18 40  1  0
 19 41  1  0
 20 42  1  0
 20 43  1  0
 20 44  1  0
 21 45  1  0
 21 46  1  0
 22 47  1  0
 22 48  1  0
 23 49  1  0
 24 50  1  0
 25 51  1  0
 25 52  1  0
 26 53  1  0
 26 54  1  0
M  END
>  <UniqueID>  (17) 
16

>  <SMILES>  (17) 
CC1CCN(S(=O)(=O)c2ccc(S(=O)(=O)N3CCC(C)CC3)cc2)CC1

>  <Energy>  (17) 
59.047337122919394

>  <Genealogy>  (17) 
CC1CCN(S(=O)(=O)c2ccc(S(=O)(=O)N3CCC(C)CC3)cc2)CC1 (3D coordinates assigned)
CC1CCN(S(=O)(=O)c2ccc(S(=O)(=O)N3CCC(C)CC3)cc2)CC1 (nonaromatic ring conformer: 59.047337122919394 kcal/mol)

>  <smiles>  (17) 
CC1CCN(S(=O)(=O)c2ccc(S(=O)(=O)N3CCC(C)CC3)cc2)CC1

>  <score_type>  (17) 
oracle

>  <origin>  (17) 
adgpu

>  <m_score__min__energy>  (17) 
-10.73

>  <m_primary>  (17) 
energy

$$$$
17:0
     RDKit          3D

 38 40  0  0  0  0  0  0  0  0999 V2000
   -5.3960   23.5420  -32.6020 O   0  0  0  0  0  0  0  0  0  0  0  0
   -6.2890   23.0530  -31.8620 C   0  0  0  0  0  0  0  0  0  0  0  0
   -7.1490   22.1350  -32.3710 N   0  0  0  0  0  0  0  0  0  0  0  0
   -8.1280   21.5860  -31.6050 C   0  0  0  0  0  0  0  0  0  0  0  0
   -9.2760   20.4200  -32.3390 S   0  0  0  0  0  0  0  0  0  0  0  0
   -8.4010   18.9370  -31.7240 C   0  0  0  0  0  0  0  0  0  0  0  0
   -7.2100   18.6140  -32.5850 C   0  0  0  0  0  0  0  0  0  0  0  0
   -7.1950   17.4400  -33.3570 C   0  0  0  0  0  0  0  0  0  0  0  0
   -6.0690   17.1140  -34.1190 C   0  0  0  0  0  0  0  0  0  0  0  0
   -4.9490   17.9490  -34.1080 C   0  0  0  0  0  0  0  0  0  0  0  0
   -4.9530   19.1150  -33.3370 C   0  0  0  0  0  0  0  0  0  0  0  0
   -3.5370   20.1520  -33.3030 Cl  0  0  0  0  0  0  0  0  0  0  0  0
   -6.0810   19.4500  -32.5810 C   0  0  0  0  0  0  0  0  0  0  0  0
   -8.2470   21.9410  -30.2980 N   0  0  0  0  0  0  0  0  0  0  0  0
   -7.4090   22.8580  -29.7470 C   0  0  0  0  0  0  0  0  0  0  0  0
   -6.4060   23.4490  -30.5220 C   0  0  0  0  0  0  0  0  0  0  0  0
   -5.3110   24.6400  -29.8200 S   0  0  0  0  0  0  0  0  0  0  0  0
   -6.0730   25.6170  -28.9680 O   0  0  0  0  0  0  0  0  0  0  0  0
   -4.6340   25.4070  -30.9230 O   0  0  0  0  0  0  0  0  0  0  0  0
   -4.1210   23.8130  -28.8230 C   0  0  0  0  0  0  0  0  0  0  0  0
   -3.8870   22.4430  -29.0110 C   0  0  0  0  0  0  0  0  0  0  0  0
   -2.9310   21.7810  -28.2350 C   0  0  0  0  0  0  0  0  0  0  0  0
   -2.2020   22.4830  -27.2700 C   0  0  0  0  0  0  0  0  0  0  0  0
   -2.4280   23.8500  -27.0830 C   0  0  0  0  0  0  0  0  0  0  0  0
   -3.3830   24.5150  -27.8580 C   0  0  0  0  0  0  0  0  0  0  0  0
   -8.0604   19.1221  -30.6946 H   0  0  0  0  0  0  0  0  0  0  0  0
   -9.0953   18.0843  -31.7544 H   0  0  0  0  0  0  0  0  0  0  0  0
   -8.0716   16.7756  -33.3618 H   0  0  0  0  0  0  0  0  0  0  0  0
   -6.0650   16.1982  -34.7284 H   0  0  0  0  0  0  0  0  0  0  0  0
   -4.0635   17.6888  -34.7064 H   0  0  0  0  0  0  0  0  0  0  0  0
   -6.0842   20.3718  -31.9808 H   0  0  0  0  0  0  0  0  0  0  0  0
   -9.0000   21.5170  -29.7100 H   0  0  0  0  0  0  0  0  0  0  0  0
   -7.5199   23.1362  -28.6885 H   0  0  0  0  0  0  0  0  0  0  0  0
   -4.4570   21.8881  -29.7708 H   0  0  0  0  0  0  0  0  0  0  0  0
   -2.7519   20.7059  -28.3838 H   0  0  0  0  0  0  0  0  0  0  0  0
   -1.4516   21.9603  -26.6587 H   0  0  0  0  0  0  0  0  0  0  0  0
   -1.8537   24.4031  -26.3252 H   0  0  0  0  0  0  0  0  0  0  0  0
   -3.5562   25.5913  -27.7108 H   0  0  0  0  0  0  0  0  0  0  0  0
  1  2  2  0
  2  3  1  0
  3  4  2  0
  4  5  1  0
  5  6  1  0
  6  7  1  0
  7  8  2  0
  8  9  1  0
  9 10  2  0
 10 11  1  0
 11 12  1  0
 11 13  2  0
  4 14  1  0
 14 15  1  0
 15 16  2  0
 16 17  1  0
 17 18  2  0
 17 19  2  0
 17 20  1  0
 20 21  2  0
 21 22  1  0
 22 23  2  0
 23 24  1  0
 24 25  2  0
 16  2  1  0
 25 20  1  0
 13  7  1  0
  6 26  1  0
  6 27  1  0
  8 28  1  0
  9 29  1  0
 10 30  1  0
 13 31  1  0
 14 32  1  0
 15 33  1  0
 21 34  1  0
 22 35  1  0
 23 36  1  0
 24 37  1  0
 25 38  1  0
M  END
>  <UniqueID>  (18) 
17

>  <SMILES>  (18) 
O=c1nc(SCc2cccc(Cl)c2)[nH]cc1S(=O)(=O)c1ccccc1

>  <Energy>  (18) 
38.441871136657696

>  <Genealogy>  (18) 
O=c1nc(SCc2cccc(Cl)c2)[nH]cc1S(=O)(=O)c1ccccc1 (3D coordinates assigned)
O=c1nc(SCc2cccc(Cl)c2)[nH]cc1S(=O)(=O)c1ccccc1 (optimized conformer: 38.441871136657696 kcal/mol)

>  <smiles>  (18) 
O=c1nc(SCc2cccc(Cl)c2)[nH]cc1S(=O)(=O)c1ccccc1

>  <score_type>  (18) 
oracle

>  <origin>  (18) 
adgpu

>  <m_score__min__energy>  (18) 
-9.9399999999999995

>  <m_primary>  (18) 
energy

$$$$
18:0
     RDKit          3D

 61 64  0  0  0  0  0  0  0  0999 V2000
   -6.8870   25.0040  -30.4670 N   0  0  0  0  0  0  0  0  0  0  0  0
   -7.2110   23.3270  -30.7470 S   0  0  0  0  0  0  0  0  0  0  0  0
   -8.3540   23.2140  -31.7140 O   0  0  0  0  0  0  0  0  0  0  0  0
   -7.5980   22.7080  -29.4340 O   0  0  0  0  0  0  0  0  0  0  0  0
   -5.7730   22.5350  -31.4230 C   0  0  0  0  0  0  0  0  0  0  0  0
   -5.9750   21.3890  -32.2100 C   0  0  0  0  0  0  0  0  0  0  0  0
   -4.8970   20.7040  -32.7900 C   0  0  0  0  0  0  0  0  0  0  0  0
   -5.1240   19.5250  -33.5850 N   0  0  0  0  0  0  0  0  0  0  0  0
   -3.9800   18.6850  -33.9780 C   0  0  0  0  0  0  0  0  0  0  0  0
   -4.4350   17.3700  -34.6270 C   0  0  0  0  0  0  0  0  0  0  0  0
   -5.5650   16.7960  -33.8820 N   0  0  0  0  0  0  0  0  0  0  0  0
   -5.6990   15.3670  -33.7910 C   0  0  0  0  0  0  0  0  0  0  0  0
   -6.8510   14.7380  -34.2930 C   0  0  0  0  0  0  0  0  0  0  0  0
   -6.9960   13.3510  -34.1990 C   0  0  0  0  0  0  0  0  0  0  0  0
   -5.9920   12.5810  -33.6050 C   0  0  0  0  0  0  0  0  0  0  0  0
   -4.8390   13.1970  -33.1100 C   0  0  0  0  0  0  0  0  0  0  0  0
   -4.6860   14.5850  -33.2030 C   0  0  0  0  0  0  0  0  0  0  0  0
   -3.5210   15.1750  -32.7290 O   0  0  0  0  0  0  0  0  0  0  0  0
   -6.6900   17.6470  -33.4630 C   0  0  0  0  0  0  0  0  0  0  0  0
   -6.4870   19.0940  -33.9180 C   0  0  0  0  0  0  0  0  0  0  0  0
   -3.5960   21.1650  -32.5620 C   0  0  0  0  0  0  0  0  0  0  0  0
   -3.3740   22.2890  -31.7690 C   0  0  0  0  0  0  0  0  0  0  0  0
   -4.4450   22.9830  -31.1820 C   0  0  0  0  0  0  0  0  0  0  0  0
   -4.0640   24.3690  -30.1410 S   0  0  0  0  0  0  0  0  0  0  0  0
   -4.8990   24.2950  -28.8960 O   0  0  0  0  0  0  0  0  0  0  0  0
   -4.4010   25.6540  -30.8480 O   0  0  0  0  0  0  0  0  0  0  0  0
   -2.3750   24.3620  -29.7090 N   0  0  0  0  0  0  0  0  0  0  0  0
   -2.1600   23.9530  -28.3150 C   0  0  0  0  0  0  0  0  0  0  0  0
   -0.6500   24.0010  -27.9560 C   0  0  0  0  0  0  0  0  0  0  0  0
   -0.2810   22.9660  -26.8880 C   0  0  0  0  0  0  0  0  0  0  0  0
   -0.5580   21.5310  -27.3760 C   0  0  0  0  0  0  0  0  0  0  0  0
   -1.7480   21.4350  -28.3520 C   0  0  0  0  0  0  0  0  0  0  0  0
   -2.7730   22.5470  -28.1070 C   0  0  0  0  0  0  0  0  0  0  0  0
   -6.1630   25.0550  -29.7150 H   0  0  0  0  0  0  0  0  0  0  0  0
   -6.4450   25.3790  -31.3360 H   0  0  0  0  0  0  0  0  0  0  0  0
   -6.9987   21.0216  -32.3747 H   0  0  0  0  0  0  0  0  0  0  0  0
   -3.3602   19.2411  -34.6967 H   0  0  0  0  0  0  0  0  0  0  0  0
   -3.4086   18.4390  -33.0708 H   0  0  0  0  0  0  0  0  0  0  0  0
   -4.7462   17.5659  -35.6637 H   0  0  0  0  0  0  0  0  0  0  0  0
   -3.5982   16.6562  -34.6126 H   0  0  0  0  0  0  0  0  0  0  0  0
   -7.6428   15.3403  -34.7624 H   0  0  0  0  0  0  0  0  0  0  0  0
   -7.9009   12.8651  -34.5928 H   0  0  0  0  0  0  0  0  0  0  0  0
   -6.1093   11.4900  -33.5271 H   0  0  0  0  0  0  0  0  0  0  0  0
   -4.0490   12.5885  -32.6456 H   0  0  0  0  0  0  0  0  0  0  0  0
   -7.6187   17.2582  -33.9061 H   0  0  0  0  0  0  0  0  0  0  0  0
   -6.7489   17.6316  -32.3647 H   0  0  0  0  0  0  0  0  0  0  0  0
   -6.6373   19.1609  -35.0056 H   0  0  0  0  0  0  0  0  0  0  0  0
   -7.2123   19.7442  -33.4070 H   0  0  0  0  0  0  0  0  0  0  0  0
   -2.7425   20.6366  -33.0118 H   0  0  0  0  0  0  0  0  0  0  0  0
   -2.3446   22.6381  -31.6001 H   0  0  0  0  0  0  0  0  0  0  0  0
   -2.6630   24.6536  -27.6323 H   0  0  0  0  0  0  0  0  0  0  0  0
   -0.0625   23.7995  -28.8639 H   0  0  0  0  0  0  0  0  0  0  0  0
   -0.4282   24.9999  -27.5523 H   0  0  0  0  0  0  0  0  0  0  0  0
    0.7886   23.0629  -26.6502 H   0  0  0  0  0  0  0  0  0  0  0  0
   -0.8977   23.1535  -25.9966 H   0  0  0  0  0  0  0  0  0  0  0  0
    0.3419   21.1562  -27.8855 H   0  0  0  0  0  0  0  0  0  0  0  0
   -0.8149   20.9309  -26.4907 H   0  0  0  0  0  0  0  0  0  0  0  0
   -1.3716   21.5178  -29.3823 H   0  0  0  0  0  0  0  0  0  0  0  0
   -2.2464   20.4677  -28.1909 H   0  0  0  0  0  0  0  0  0  0  0  0
   -3.6120   22.4178  -28.8066 H   0  0  0  0  0  0  0  0  0  0  0  0
   -3.1123   22.4740  -27.0632 H   0  0  0  0  0  0  0  0  0  0  0  0
  1  2  1  0
  2  3  2  0
  2  4  2  0
  2  5  1  0
  5  6  2  0
  6  7  1  0
  7  8  1  0
  8  9  1  0
  9 10  1  0
 10 11  1  0
 11 12  1  0
 12 13  2  0
 13 14  1  0
 14 15  2  0
 15 16  1  0
 16 17  2  0
 17 18  1  0
 11 19  1  0
 19 20  1  0
  7 21  2  0
 21 22  1  0
 22 23  2  0
 23 24  1  0
 24 25  2  0
 24 26  2  0
 24 27  1  0
 27 28  1  0
 28 29  1  0
 29 30  1  0
 30 31  1  0
 31 32  1  0
 32 33  1  0
 23  5  1  0
 33 28  1  0
 20  8  1  0
 17 12  1  0
  1 34  1  0
  1 35  1  0
  6 36  1  0
  9 37  1  0
  9 38  1  0
 10 39  1  0
 10 40  1  0
 13 41  1  0
 14 42  1  0
 15 43  1  0
 16 44  1  0
 19 45  1  0
 19 46  1  0
 20 47  1  0
 20 48  1  0
 21 49  1  0
 22 50  1  0
 28 51  1  0
 29 52  1  0
 29 53  1  0
 30 54  1  0
 30 55  1  0
 31 56  1  0
 31 57  1  0
 32 58  1  0
 32 59  1  0
 33 60  1  0
 33 61  1  0
M  CHG  2  18  -1  27  -1
M  END
>  <UniqueID>  (19) 
18

>  <SMILES>  (19) 
NS(=O)(=O)c1cc(N2CCN(c3ccccc3[O-])CC2)ccc1S(=O)(=O)[N-]C1CCCCC1

>  <Energy>  (19) 
75.92458413308913

>  <Genealogy>  (19) 
NS(=O)(=O)c1cc(N2CCN(c3ccccc3[O-])CC2)ccc1S(=O)(=O)[N-]C1CCCCC1 (protonated)
NS(=O)(=O)c1cc(N2CCN(c3ccccc3[O-])CC2)ccc1S(=O)(=O)[N-]C1CCCCC1 (3D coordinates assigned)
NS(=O)(=O)c1cc(N2CCN(c3ccccc3[O-])CC2)ccc1S(=O)(=O)[N-]C1CCCCC1 (nonaromatic ring conformer: 75.92458413308913 kcal/mol)

>  <smiles>  (19) 
NS(=O)(=O)c1cc(N2CCN(c3ccccc3O)CC2)ccc1S(=O)(=O)NC1CCCCC1

>  <score_type>  (19) 
oracle

>  <origin>  (19) 
adgpu

>  <m_score__min__energy>  (19) 
-11.84

>  <m_primary>  (19) 
energy

$$$$
19:0
     RDKit          3D

 60 63  0  0  0  0  0  0  0  0999 V2000
   -3.0930   19.3030  -27.0760 C   0  0  0  0  0  0  0  0  0  0  0  0
   -1.6810   19.1980  -27.2070 O   0  0  0  0  0  0  0  0  0  0  0  0
   -0.9920   19.6270  -28.3460 C   0  0  0  0  0  0  0  0  0  0  0  0
   -0.4580   18.7790  -29.1140 O   0  0  0  0  0  0  0  0  0  0  0  0
   -0.9520   21.0770  -28.6720 C   0  0  0  0  0  0  0  0  0  0  0  0
   -0.8200   22.0470  -27.7290 C   0  0  0  0  0  0  0  0  0  0  0  0
   -0.9240   21.7280  -26.2530 C   0  0  0  0  0  0  0  0  0  0  0  0
   -0.5880   23.4570  -28.1660 C   0  0  0  0  0  0  0  0  0  0  0  0
   -0.3860   24.5620  -27.2070 C   0  0  0  0  0  0  0  0  0  0  0  0
    0.8560   25.2100  -27.1100 C   0  0  0  0  0  0  0  0  0  0  0  0
    1.0310   26.2680  -26.2140 C   0  0  0  0  0  0  0  0  0  0  0  0
   -0.0390   26.7040  -25.4190 C   0  0  0  0  0  0  0  0  0  0  0  0
    0.1750   28.0260  -24.2770 S   0  0  0  0  0  0  0  0  0  0  0  0
    0.1130   27.4080  -22.6650 N   0  0  0  0  0  0  0  0  0  0  0  0
    1.5000   28.6990  -24.5050 O   0  0  0  0  0  0  0  0  0  0  0  0
   -0.9200   29.0370  -24.4720 O   0  0  0  0  0  0  0  0  0  0  0  0
   -1.2830   26.0700  -25.5270 C   0  0  0  0  0  0  0  0  0  0  0  0
   -1.4580   25.0090  -26.4210 C   0  0  0  0  0  0  0  0  0  0  0  0
   -0.5050   23.7330  -29.4300 N   0  0  0  0  0  0  0  0  0  0  0  0
   -0.6510   22.7700  -30.4070 O   0  0  0  0  0  0  0  0  0  0  0  0
   -1.1490   21.4620  -30.1270 C   0  0  2  0  0  0  0  0  0  0  0  0
   -2.6130   21.3930  -30.5050 C   0  0  0  0  0  0  0  0  0  0  0  0
   -3.5200   22.3360  -29.9970 C   0  0  0  0  0  0  0  0  0  0  0  0
   -4.8700   22.2860  -30.3510 C   0  0  0  0  0  0  0  0  0  0  0  0
   -5.3440   21.2880  -31.2210 C   0  0  0  0  0  0  0  0  0  0  0  0
   -6.7390   21.2410  -31.5950 N   0  0  0  0  0  0  0  0  0  0  0  0
   -7.4700   22.4840  -31.8920 C   0  0  0  0  0  0  0  0  0  0  0  0
   -8.9610   22.3220  -31.5810 C   0  0  0  0  0  0  0  0  0  0  0  0
   -9.5910   21.1390  -32.3400 C   0  0  0  0  0  0  0  0  0  0  0  0
   -8.5890   20.0260  -32.6980 C   0  0  0  0  0  0  0  0  0  0  0  0
   -7.4320   19.9460  -31.6990 C   0  0  0  0  0  0  0  0  0  0  0  0
   -4.4360   20.3410  -31.7250 C   0  0  0  0  0  0  0  0  0  0  0  0
   -3.0860   20.3920  -31.3690 C   0  0  0  0  0  0  0  0  0  0  0  0
   -3.3618   19.3230  -26.0095 H   0  0  0  0  0  0  0  0  0  0  0  0
   -3.4381   20.2293  -27.5586 H   0  0  0  0  0  0  0  0  0  0  0  0
   -3.5713   18.4379  -27.5586 H   0  0  0  0  0  0  0  0  0  0  0  0
   -0.6357   22.6122  -25.6656 H   0  0  0  0  0  0  0  0  0  0  0  0
   -1.9598   21.4484  -26.0104 H   0  0  0  0  0  0  0  0  0  0  0  0
   -0.2520   20.8916  -26.0104 H   0  0  0  0  0  0  0  0  0  0  0  0
    1.6949   24.8833  -27.7421 H   0  0  0  0  0  0  0  0  0  0  0  0
    2.0112   26.7605  -26.1320 H   0  0  0  0  0  0  0  0  0  0  0  0
    0.1920   28.2260  -22.0210 H   0  0  0  0  0  0  0  0  0  0  0  0
    0.9730   26.8300  -22.5260 H   0  0  0  0  0  0  0  0  0  0  0  0
   -2.1258   26.4079  -24.9062 H   0  0  0  0  0  0  0  0  0  0  0  0
   -2.4409   24.5228  -26.5081 H   0  0  0  0  0  0  0  0  0  0  0  0
   -0.5769   20.7393  -30.7273 H   0  0  0  0  0  0  0  0  0  0  0  0
   -3.1643   23.1214  -29.3139 H   0  0  0  0  0  0  0  0  0  0  0  0
   -5.5682   23.0333  -29.9460 H   0  0  0  0  0  0  0  0  0  0  0  0
   -7.0596   23.2997  -31.2786 H   0  0  0  0  0  0  0  0  0  0  0  0
   -7.3546   22.7156  -32.9611 H   0  0  0  0  0  0  0  0  0  0  0  0
   -9.0808   22.1533  -30.5006 H   0  0  0  0  0  0  0  0  0  0  0  0
   -9.4738   23.2402  -31.9033 H   0  0  0  0  0  0  0  0  0  0  0  0
  -10.3816   20.7046  -31.7105 H   0  0  0  0  0  0  0  0  0  0  0  0
   -9.9796   21.5375  -33.2888 H   0  0  0  0  0  0  0  0  0  0  0  0
   -9.1183   19.0617  -32.7050 H   0  0  0  0  0  0  0  0  0  0  0  0
   -8.1660   20.2578  -33.6866 H   0  0  0  0  0  0  0  0  0  0  0  0
   -7.8276   19.6685  -30.7108 H   0  0  0  0  0  0  0  0  0  0  0  0
   -6.7146   19.1900  -32.0509 H   0  0  0  0  0  0  0  0  0  0  0  0
   -4.7912   19.5531  -32.4054 H   0  0  0  0  0  0  0  0  0  0  0  0
   -2.3878   19.6419  -31.7688 H   0  0  0  0  0  0  0  0  0  0  0  0
  1  2  1  0
  2  3  1  0
  3  4  2  0
  3  5  1  0
  5  6  2  0
  6  7  1  0
  6  8  1  0
  8  9  1  0
  9 10  2  0
 10 11  1  0
 11 12  2  0
 12 13  1  0
 13 14  1  0
 13 15  2  0
 13 16  2  0
 12 17  1  0
 17 18  2  0
  8 19  2  0
 19 20  1  0
 20 21  1  0
 21 22  1  0
 22 23  2  0
 23 24  1  0
 24 25  2  0
 25 26  1  0
 26 27  1  0
 27 28  1  0
 28 29  1  0
 29 30  1  0
 30 31  1  0
 25 32  1  0
 32 33  2  0
 21  5  1  0
 33 22  1  0
 18  9  1  0
 31 26  1  0
  1 34  1  0
  1 35  1  0
  1 36  1  0
  7 37  1  0
  7 38  1  0
  7 39  1  0
 10 40  1  0
 11 41  1  0
 14 42  1  0
 14 43  1  0
 17 44  1  0
 18 45  1  0
 21 46  1  6
 23 47  1  0
 24 48  1  0
 27 49  1  0
 27 50  1  0
 28 51  1  0
 28 52  1  0
 29 53  1  0
 29 54  1  0
 30 55  1  0
 30 56  1  0
 31 57  1  0
 31 58  1  0
 32 59  1  0
 33 60  1  0
M  END
>  <UniqueID>  (20) 
19

>  <SMILES>  (20) 
COC(=O)C1=C(C)C(c2ccc(S(N)(=O)=O)cc2)=NO[C@@H]1c1ccc(N2CCCCC2)cc1

>  <Energy>  (20) 
76.82107856374768

>  <Genealogy>  (20) 
COC(=O)C1=C(C)C(c2ccc(S(N)(=O)=O)cc2)=NO[C@@H]1c1ccc(N2CCCCC2)cc1 (chirality)
COC(=O)C1=C(C)C(c2ccc(S(N)(=O)=O)cc2)=NO[C@@H]1c1ccc(N2CCCCC2)cc1 (3D coordinates assigned)
COC(=O)C1=C(C)C(c2ccc(S(N)(=O)=O)cc2)=NO[C@@H]1c1ccc(N2CCCCC2)cc1 (nonaromatic ring conformer: 76.82107856374768 kcal/mol)

>  <smiles>  (20) 
COC(=O)C1=C(C)C(c2ccc(S(N)(=O)=O)cc2)=NOC1c1ccc(N2CCCCC2)cc1

>  <score_type>  (20) 
oracle

>  <origin>  (20) 
adgpu

>  <m_score__min__energy>  (20) 
-8.9399999999999995

>  <m_primary>  (20) 
energy

$$$$
20:0
     RDKit          3D

 40 42  0  0  1  0  0  0  0  0999 V2000
   -6.5850   19.8070  -33.4720 C   0  0  0  0  0  0  0  0  0  0  0  0
   -7.5580   20.7400  -32.7740 C   0  0  0  0  0  0  0  0  0  0  0  0
   -6.7890   21.8230  -32.1900 N   0  0  0  0  0  0  0  0  0  0  0  0
   -7.2920   22.3890  -30.9840 C   0  0  0  0  0  0  0  0  0  0  0  0
   -8.3730   21.9220  -30.4890 O   0  0  0  0  0  0  0  0  0  0  0  0
   -6.6430   23.4820  -30.2660 C   0  0  1  0  0  0  0  0  0  0  0  0
   -5.5310   23.0790  -29.5230 O   0  0  0  0  0  0  0  0  0  0  0  0
   -5.2290   24.3380  -28.9510 C   0  0  1  0  0  0  0  0  0  0  0  0
   -4.0270   24.3310  -28.1730 N   0  0  0  0  0  0  0  0  0  0  0  0
   -3.7780   24.7840  -26.9290 C   0  0  0  0  0  0  0  0  0  0  0  0
   -2.5000   24.5560  -26.6260 N   0  0  0  0  0  0  0  0  0  0  0  0
   -1.8860   23.9490  -27.6670 C   0  0  0  0  0  0  0  0  0  0  0  0
   -0.6000   23.4960  -27.8910 C   0  0  0  0  0  0  0  0  0  0  0  0
    0.3150   23.6250  -26.9800 N   0  0  0  0  0  0  0  0  0  0  0  0
   -0.2880   22.9210  -29.0530 N   0  0  0  0  0  0  0  0  0  0  0  0
   -1.2330   22.7800  -30.0140 C   0  0  0  0  0  0  0  0  0  0  0  0
   -0.8990   22.2140  -31.1390 N   0  0  0  0  0  0  0  0  0  0  0  0
   -2.5050   23.2240  -29.7980 N   0  0  0  0  0  0  0  0  0  0  0  0
   -2.8570   23.8110  -28.6360 C   0  0  0  0  0  0  0  0  0  0  0  0
   -5.1440   25.2690  -30.1500 C   0  0  1  0  0  0  0  0  0  0  0  0
   -3.8600   25.3600  -30.6740 O   0  0  0  0  0  0  0  0  0  0  0  0
   -6.0950   24.5740  -31.1080 C   0  0  1  0  0  0  0  0  0  0  0  0
   -5.3510   24.1550  -32.1910 O   0  0  0  0  0  0  0  0  0  0  0  0
   -6.0058   19.2516  -32.7196 H   0  0  0  0  0  0  0  0  0  0  0  0
   -7.1437   19.0984  -34.1011 H   0  0  0  0  0  0  0  0  0  0  0  0
   -5.9005   20.3949  -34.1011 H   0  0  0  0  0  0  0  0  0  0  0  0
   -8.2787   21.1420  -33.5013 H   0  0  0  0  0  0  0  0  0  0  0  0
   -8.1172   20.2009  -31.9951 H   0  0  0  0  0  0  0  0  0  0  0  0
   -5.9160   22.1860  -32.6060 H   0  0  0  0  0  0  0  0  0  0  0  0
   -7.4843   23.8336  -29.6506 H   0  0  0  0  0  0  0  0  0  0  0  0
   -5.9922   24.6536  -28.2244 H   0  0  0  0  0  0  0  0  0  0  0  0
   -4.5131   25.2659  -26.2677 H   0  0  0  0  0  0  0  0  0  0  0  0
    0.1140   24.0650  -26.0660 H   0  0  0  0  0  0  0  0  0  0  0  0
    0.6890   22.5760  -29.2280 H   0  0  0  0  0  0  0  0  0  0  0  0
   -1.5980   22.0970  -31.8800 H   0  0  0  0  0  0  0  0  0  0  0  0
   -3.2270   23.1210  -30.5190 H   0  0  0  0  0  0  0  0  0  0  0  0
   -5.3956   26.3152  -29.9215 H   0  0  0  0  0  0  0  0  0  0  0  0
   -3.8210   25.6710  -31.6010 H   0  0  0  0  0  0  0  0  0  0  0  0
   -6.9142   25.1726  -31.5329 H   0  0  0  0  0  0  0  0  0  0  0  0
   -4.5440   23.6870  -31.8630 H   0  0  0  0  0  0  0  0  0  0  0  0
  1  2  1  0
  2  3  1  0
  3  4  1  0
  4  5  2  0
  4  6  1  0
  6  7  1  0
  7  8  1  0
  8  9  1  0
  9 10  1  0
 10 11  2  0
 11 12  1  0
 12 13  1  0
 13 14  2  3
 13 15  1  0
 15 16  1  0
 16 17  2  3
 16 18  1  0
 18 19  1  0
  8 20  1  0
 20 21  1  0
 20 22  1  0
 22 23  1  0
 22  6  1  0
 19  9  1  0
 19 12  2  0
  1 24  1  0
  1 25  1  0
  1 26  1  0
  2 27  1  0
  2 28  1  0
  3 29  1  0
  6 30  1  1
  8 31  1  1
 10 32  1  0
 14 33  1  0
 15 34  1  0
 17 35  1  0
 18 36  1  0
 20 37  1  1
 21 38  1  0
 22 39  1  6
 23 40  1  0
M  END
>  <smiles>  (21) 
CCNC(=O)C1OC(n2cnc3c(=N)[nH]c(=N)[nH]c32)C(O)C1O

>  <score_type>  (21) 
oracle

>  <origin>  (21) 
adgpu

>  <m_score__min__energy>  (21) 
-8.2599999999999998

>  <m_primary>  (21) 
energy

$$$$
21:0
     RDKit          3D

 44 46  0  0  0  0  0  0  0  0999 V2000
   -3.0570   23.9940  -27.4620 C   0  0  0  0  0  0  0  0  0  0  0  0
   -4.1570   22.5830  -27.8140 S   0  0  0  0  0  0  0  0  0  0  0  0
   -2.8190   21.4020  -28.0530 C   0  0  0  0  0  0  0  0  0  0  0  0
   -2.7130   20.3190  -27.1680 C   0  0  0  0  0  0  0  0  0  0  0  0
   -1.7270   19.3470  -27.3520 C   0  0  0  0  0  0  0  0  0  0  0  0
   -0.8590   19.4310  -28.4400 C   0  0  0  0  0  0  0  0  0  0  0  0
   -0.9750   20.4880  -29.3470 C   0  0  0  0  0  0  0  0  0  0  0  0
   -1.9340   21.4890  -29.1540 C   0  0  0  0  0  0  0  0  0  0  0  0
   -2.0650   22.5070  -30.1580 N   0  0  0  0  0  0  0  0  0  0  0  0
   -3.0450   22.5450  -31.2030 C   0  0  0  0  0  0  0  0  0  0  0  0
   -2.7160   22.1360  -32.3480 O   0  0  0  0  0  0  0  0  0  0  0  0
   -4.4030   23.1050  -30.9920 C   0  0  0  0  0  0  0  0  0  0  0  0
   -5.5350   22.2830  -31.1320 C   0  0  0  0  0  0  0  0  0  0  0  0
   -6.8230   22.8020  -30.9510 C   0  0  0  0  0  0  0  0  0  0  0  0
   -8.2290   21.7600  -31.1480 S   0  0  0  0  0  0  0  0  0  0  0  0
   -9.0910   21.8520  -29.9190 O   0  0  0  0  0  0  0  0  0  0  0  0
   -9.0350   22.2230  -32.3310 O   0  0  0  0  0  0  0  0  0  0  0  0
   -7.7040   20.1100  -31.3670 N   0  0  0  0  0  0  0  0  0  0  0  0
   -6.9390   19.9540  -32.6050 C   0  0  0  0  0  0  0  0  0  0  0  0
   -7.1110   18.5080  -33.0380 C   0  0  0  0  0  0  0  0  0  0  0  0
   -8.3660   18.0220  -32.3300 C   0  0  0  0  0  0  0  0  0  0  0  0
   -8.8430   19.2030  -31.4980 C   0  0  0  0  0  0  0  0  0  0  0  0
   -6.9850   24.1430  -30.5880 C   0  0  0  0  0  0  0  0  0  0  0  0
   -5.8680   24.9650  -30.4220 C   0  0  0  0  0  0  0  0  0  0  0  0
   -4.5800   24.4550  -30.6230 C   0  0  0  0  0  0  0  0  0  0  0  0
   -3.4900   25.3040  -30.4730 O   0  0  0  0  0  0  0  0  0  0  0  0
   -2.9589   24.1198  -26.3736 H   0  0  0  0  0  0  0  0  0  0  0  0
   -2.0659   23.8045  -27.9000 H   0  0  0  0  0  0  0  0  0  0  0  0
   -3.4826   24.9089  -27.9000 H   0  0  0  0  0  0  0  0  0  0  0  0
   -3.4117   20.2345  -26.3226 H   0  0  0  0  0  0  0  0  0  0  0  0
   -1.6352   18.5150  -26.6384 H   0  0  0  0  0  0  0  0  0  0  0  0
   -0.0827   18.6651  -28.5845 H   0  0  0  0  0  0  0  0  0  0  0  0
   -0.3070   20.5336  -30.2198 H   0  0  0  0  0  0  0  0  0  0  0  0
   -5.4075   21.2205  -31.3865 H   0  0  0  0  0  0  0  0  0  0  0  0
   -7.3272   20.6316  -33.3797 H   0  0  0  0  0  0  0  0  0  0  0  0
   -5.8780   20.2000  -32.4511 H   0  0  0  0  0  0  0  0  0  0  0  0
   -7.2356   18.4450  -34.1291 H   0  0  0  0  0  0  0  0  0  0  0  0
   -6.2333   17.8966  -32.7814 H   0  0  0  0  0  0  0  0  0  0  0  0
   -9.1336   17.7323  -33.0627 H   0  0  0  0  0  0  0  0  0  0  0  0
   -8.1681   17.1366  -31.7080 H   0  0  0  0  0  0  0  0  0  0  0  0
   -9.6767   19.7116  -32.0042 H   0  0  0  0  0  0  0  0  0  0  0  0
   -9.2027   18.8736  -30.5121 H   0  0  0  0  0  0  0  0  0  0  0  0
   -7.9946   24.5513  -30.4329 H   0  0  0  0  0  0  0  0  0  0  0  0
   -6.0010   26.0177  -30.1321 H   0  0  0  0  0  0  0  0  0  0  0  0
  1  2  1  0
  2  3  1  0
  3  4  2  0
  4  5  1  0
  5  6  2  0
  6  7  1  0
  7  8  2  0
  8  9  1  0
  9 10  1  0
 10 11  2  0
 10 12  1  0
 12 13  2  0
 13 14  1  0
 14 15  1  0
 15 16  2  0
 15 17  2  0
 15 18  1  0
 18 19  1  0
 19 20  1  0
 20 21  1  0
 21 22  1  0
 14 23  2  0
 23 24  1  0
 24 25  2  0
 25 26  1  0
  8  3  1  0
 25 12  1  0
 22 18  1  0
  1 27  1  0
  1 28  1  0
  1 29  1  0
  4 30  1  0
  5 31  1  0
  6 32  1  0
  7 33  1  0
 13 34  1  0
 19 35  1  0
 19 36  1  0
 20 37  1  0
 20 38  1  0
 21 39  1  0
 21 40  1  0
 22 41  1  0
 22 42  1  0
 23 43  1  0
 24 44  1  0
M  CHG  2   9  -1  26  -1
M  END
>  <UniqueID>  (22) 
20

>  <SMILES>  (22) 
CSc1ccccc1[N-]C(=O)c1cc(S(=O)(=O)N2CCCC2)ccc1[O-]

>  <Energy>  (22) 
53.09845097742799

>  <Genealogy>  (22) 
CSc1ccccc1[N-]C(=O)c1cc(S(=O)(=O)N2CCCC2)ccc1[O-] (protonated)
CSc1ccccc1[N-]C(=O)c1cc(S(=O)(=O)N2CCCC2)ccc1[O-] (3D coordinates assigned)
CSc1ccccc1[N-]C(=O)c1cc(S(=O)(=O)N2CCCC2)ccc1[O-] (nonaromatic ring conformer: 53.09845097742799 kcal/mol)

>  <smiles>  (22) 
CSc1ccccc1NC(=O)c1cc(S(=O)(=O)N2CCCC2)ccc1O

>  <score_type>  (22) 
oracle

>  <origin>  (22) 
adgpu

>  <m_score__min__energy>  (22) 
-12.869999999999999

>  <m_primary>  (22) 
energy

$$$$
22:0
     RDKit          3D

 56 59  0  0  0  0  0  0  0  0999 V2000
   -5.5140   14.1430  -33.8440 C   0  0  0  0  0  0  0  0  0  0  0  0
   -6.2090   15.4660  -33.9700 C   0  0  0  0  0  0  0  0  0  0  0  0
   -7.3200   15.5050  -34.5660 O   0  0  0  0  0  0  0  0  0  0  0  0
   -5.6260   16.7150  -33.4130 C   0  0  0  0  0  0  0  0  0  0  0  0
   -6.2460   17.4130  -32.3600 C   0  0  0  0  0  0  0  0  0  0  0  0
   -5.6740   18.5820  -31.8560 C   0  0  0  0  0  0  0  0  0  0  0  0
   -4.4760   19.0520  -32.3980 C   0  0  0  0  0  0  0  0  0  0  0  0
   -3.9280   20.1210  -31.9080 N   0  0  0  0  0  0  0  0  0  0  0  0
   -2.4350   20.7950  -32.4830 S   0  0  0  0  0  0  0  0  0  0  0  0
   -2.2380   20.3620  -33.9090 O   0  0  0  0  0  0  0  0  0  0  0  0
   -2.5150   22.2950  -32.4390 O   0  0  0  0  0  0  0  0  0  0  0  0
   -1.0730   20.2590  -31.4880 C   0  0  0  0  0  0  0  0  0  0  0  0
   -0.1800   19.3150  -32.0130 C   0  0  0  0  0  0  0  0  0  0  0  0
    0.8580   18.8130  -31.2290 C   0  0  0  0  0  0  0  0  0  0  0  0
    0.9960   19.2570  -29.9160 C   0  0  0  0  0  0  0  0  0  0  0  0
    0.1350   20.1810  -29.4180 N   0  0  0  0  0  0  0  0  0  0  0  0
   -0.8810   20.7030  -30.1570 C   0  0  0  0  0  0  0  0  0  0  0  0
   -1.7340   21.6910  -29.5570 N   0  0  0  0  0  0  0  0  0  0  0  0
   -2.8710   21.2760  -28.7280 C   0  0  0  0  0  0  0  0  0  0  0  0
   -4.1010   22.1100  -29.0940 C   0  0  0  0  0  0  0  0  0  0  0  0
   -3.8660   23.5580  -28.8940 N   0  0  0  0  0  0  0  0  0  0  0  0
   -4.9890   24.4840  -29.8600 S   0  0  0  0  0  0  0  0  0  0  0  0
   -5.8130   25.3710  -28.9690 O   0  0  0  0  0  0  0  0  0  0  0  0
   -4.2370   25.3490  -30.8350 O   0  0  0  0  0  0  0  0  0  0  0  0
   -6.0690   23.3990  -30.7330 C   0  0  0  0  0  0  0  0  0  0  0  0
   -7.2940   23.0280  -30.1610 C   0  0  0  0  0  0  0  0  0  0  0  0
   -8.1490   22.1510  -30.8370 C   0  0  0  0  0  0  0  0  0  0  0  0
   -7.7810   21.6380  -32.0850 C   0  0  0  0  0  0  0  0  0  0  0  0
   -6.5570   22.0000  -32.6550 C   0  0  0  0  0  0  0  0  0  0  0  0
   -5.7020   22.8760  -31.9820 C   0  0  0  0  0  0  0  0  0  0  0  0
   -2.4700   24.0040  -29.1300 C   0  0  0  0  0  0  0  0  0  0  0  0
   -1.6810   23.0680  -30.0580 C   0  0  0  0  0  0  0  0  0  0  0  0
   -3.8890   18.3710  -33.4210 N   0  0  0  0  0  0  0  0  0  0  0  0
   -4.4270   17.2330  -33.9330 C   0  0  0  0  0  0  0  0  0  0  0  0
   -5.3846   13.8967  -32.7798 H   0  0  0  0  0  0  0  0  0  0  0  0
   -6.1189   13.3633  -34.3299 H   0  0  0  0  0  0  0  0  0  0  0  0
   -4.5287   14.1987  -34.3299 H   0  0  0  0  0  0  0  0  0  0  0  0
   -7.1863   17.0353  -31.9320 H   0  0  0  0  0  0  0  0  0  0  0  0
   -6.1637   19.1295  -31.0372 H   0  0  0  0  0  0  0  0  0  0  0  0
   -0.2987   18.9680  -33.0500 H   0  0  0  0  0  0  0  0  0  0  0  0
    1.5603   18.0744  -31.6429 H   0  0  0  0  0  0  0  0  0  0  0  0
    1.8025   18.8590  -29.2827 H   0  0  0  0  0  0  0  0  0  0  0  0
   -3.0842   20.2114  -28.9045 H   0  0  0  0  0  0  0  0  0  0  0  0
   -2.6263   21.4300  -27.6667 H   0  0  0  0  0  0  0  0  0  0  0  0
   -4.3492   21.9327  -30.1509 H   0  0  0  0  0  0  0  0  0  0  0  0
   -4.9278   21.8048  -28.4358 H   0  0  0  0  0  0  0  0  0  0  0  0
   -7.5837   23.4276  -29.1779 H   0  0  0  0  0  0  0  0  0  0  0  0
   -9.1110   21.8648  -30.3868 H   0  0  0  0  0  0  0  0  0  0  0  0
   -8.4542   20.9502  -32.6176 H   0  0  0  0  0  0  0  0  0  0  0  0
   -6.2666   21.5943  -33.6353 H   0  0  0  0  0  0  0  0  0  0  0  0
   -4.7385   23.1565  -32.4325 H   0  0  0  0  0  0  0  0  0  0  0  0
   -2.4956   25.0055  -29.5842 H   0  0  0  0  0  0  0  0  0  0  0  0
   -1.9590   24.0032  -28.1559 H   0  0  0  0  0  0  0  0  0  0  0  0
   -2.1182   23.1042  -31.0668 H   0  0  0  0  0  0  0  0  0  0  0  0
   -0.6318   23.3969  -30.0898 H   0  0  0  0  0  0  0  0  0  0  0  0
   -3.9208   16.7136  -34.7600 H   0  0  0  0  0  0  0  0  0  0  0  0
  1  2  1  0
  2  3  2  0
  2  4  1  0
  4  5  1  0
  5  6  2  0
  6  7  1  0
  7  8  2  3
  8  9  1  0
  9 10  2  0
  9 11  2  0
  9 12  1  0
 12 13  2  0
 13 14  1  0
 14 15  2  0
 15 16  1  0
 16 17  2  0
 17 18  1  0
 18 19  1  0
 19 20  1  0
 20 21  1  0
 21 22  1  0
 22 23  2  0
 22 24  2  0
 22 25  1  0
 25 26  2  0
 26 27  1  0
 27 28  2  0
 28 29  1  0
 29 30  2  0
 21 31  1  0
 31 32  1  0
  7 33  1  0
 33 34  1  0
 34  4  2  0
 17 12  1  0
 32 18  1  0
 30 25  1  0
  1 35  1  0
  1 36  1  0
  1 37  1  0
  5 38  1  0
  6 39  1  0
 13 40  1  0
 14 41  1  0
 15 42  1  0
 19 43  1  0
 19 44  1  0
 20 45  1  0
 20 46  1  0
 26 47  1  0
 27 48  1  0
 28 49  1  0
 29 50  1  0
 30 51  1  0
 31 52  1  0
 31 53  1  0
 32 54  1  0
 32 55  1  0
 34 56  1  0
M  CHG  1  33  -1
M  END
>  <UniqueID>  (23) 
21

>  <SMILES>  (23) 
CC(=O)c1ccc(=NS(=O)(=O)c2cccnc2N2CCN(S(=O)(=O)c3ccccc3)CC2)[n-]c1

>  <Energy>  (23) 
73.02082003719983

>  <Genealogy>  (23) 
CC(=O)c1ccc(=NS(=O)(=O)c2cccnc2N2CCN(S(=O)(=O)c3ccccc3)CC2)[n-]c1 (protonated)
CC(=O)c1ccc(=NS(=O)(=O)c2cccnc2N2CCN(S(=O)(=O)c3ccccc3)CC2)[n-]c1 (3D coordinates assigned)
CC(=O)c1ccc(=NS(=O)(=O)c2cccnc2N2CCN(S(=O)(=O)c3ccccc3)CC2)[n-]c1 (nonaromatic ring conformer: 73.02082003719983 kcal/mol)

>  <smiles>  (23) 
CC(=O)c1ccc(=NS(=O)(=O)c2cccnc2N2CCN(S(=O)(=O)c3ccccc3)CC2)[nH]c1

>  <score_type>  (23) 
oracle

>  <origin>  (23) 
adgpu

>  <m_score__min__energy>  (23) 
-11.56

>  <m_primary>  (23) 
energy

$$$$
23:0
     RDKit          3D

 46 49  0  0  0  0  0  0  0  0999 V2000
   -8.7113   20.6237  -32.7907 H   0  0  0  0  0  0  0  0  0  0  0  0
   -7.6310   20.4990  -32.6250 C   0  0  0  0  0  0  0  0  0  0  0  0
   -6.9620   21.5230  -32.0730 C   0  0  0  0  0  0  0  0  0  0  0  0
   -5.5600   21.5560  -31.6350 C   0  0  0  0  0  0  0  0  0  0  0  0
   -4.7390   20.6010  -31.6500 O   0  0  0  0  0  0  0  0  0  0  0  0
   -5.3050   22.8660  -31.0850 C   0  0  0  0  0  0  0  0  0  0  0  0
   -4.1250   23.3820  -30.5490 C   0  0  0  0  0  0  0  0  0  0  0  0
   -3.2101   22.7727  -30.5073 H   0  0  0  0  0  0  0  0  0  0  0  0
   -4.1360   24.7000  -30.0640 C   0  0  0  0  0  0  0  0  0  0  0  0
   -3.2189   25.1348  -29.6399 H   0  0  0  0  0  0  0  0  0  0  0  0
   -5.3160   25.4680  -30.1180 C   0  0  0  0  0  0  0  0  0  0  0  0
   -5.3160   26.4991  -29.7349 H   0  0  0  0  0  0  0  0  0  0  0  0
   -6.4930   24.9230  -30.6590 C   0  0  0  0  0  0  0  0  0  0  0  0
   -7.4177   25.5172  -30.7021 H   0  0  0  0  0  0  0  0  0  0  0  0
   -6.4660   23.6120  -31.1410 C   0  0  0  0  0  0  0  0  0  0  0  0
   -7.6060   22.8450  -31.7390 C   0  0  0  0  0  0  0  0  0  0  0  0
   -7.9896   23.3411  -32.6427 H   0  0  0  0  0  0  0  0  0  0  0  0
   -8.4757   22.7557  -31.0715 H   0  0  0  0  0  0  0  0  0  0  0  0
   -7.0190   19.2180  -33.0250 C   0  0  0  0  0  0  0  0  0  0  0  0
   -7.4280   18.0350  -32.3960 C   0  0  0  0  0  0  0  0  0  0  0  0
   -8.1737   18.0736  -31.5882 H   0  0  0  0  0  0  0  0  0  0  0  0
   -6.8920   16.8050  -32.7910 C   0  0  0  0  0  0  0  0  0  0  0  0
   -7.2032   15.8840  -32.2764 H   0  0  0  0  0  0  0  0  0  0  0  0
   -5.9600   16.7360  -33.8390 C   0  0  0  0  0  0  0  0  0  0  0  0
   -5.3940   15.4710  -34.2340 N   0  0  0  0  0  0  0  0  0  0  0  0
   -3.9570   15.3600  -34.5110 C   0  0  0  0  0  0  0  0  0  0  0  0
   -3.3998   15.9558  -33.7730 H   0  0  0  0  0  0  0  0  0  0  0  0
   -3.7627   15.7330  -35.5274 H   0  0  0  0  0  0  0  0  0  0  0  0
   -3.4990   13.8940  -34.4260 C   0  0  0  0  0  0  0  0  0  0  0  0
   -2.4141   13.8702  -34.2456 H   0  0  0  0  0  0  0  0  0  0  0  0
   -3.7539   13.4015  -35.3760 H   0  0  0  0  0  0  0  0  0  0  0  0
   -4.1810   13.1660  -33.3350 N   0  0  0  0  0  0  0  0  0  0  0  0
   -3.7730   13.6600  -32.0090 C   0  0  0  0  0  0  0  0  0  0  0  0
   -4.2661   13.0630  -31.2277 H   0  0  0  0  0  0  0  0  0  0  0  0
   -2.6816   13.5710  -31.9044 H   0  0  0  0  0  0  0  0  0  0  0  0
   -4.0666   14.7149  -31.9044 H   0  0  0  0  0  0  0  0  0  0  0  0
   -5.6610   13.1360  -33.4820 C   0  0  0  0  0  0  0  0  0  0  0  0
   -6.1100   13.2165  -32.4811 H   0  0  0  0  0  0  0  0  0  0  0  0
   -5.9126   12.1898  -33.9834 H   0  0  0  0  0  0  0  0  0  0  0  0
   -6.2250   14.2700  -34.3590 C   0  0  0  0  0  0  0  0  0  0  0  0
   -7.2503   14.5029  -34.0358 H   0  0  0  0  0  0  0  0  0  0  0  0
   -6.2260   13.9433  -35.4094 H   0  0  0  0  0  0  0  0  0  0  0  0
   -5.5680   17.9220  -34.4830 C   0  0  0  0  0  0  0  0  0  0  0  0
   -4.8348   17.8832  -35.3021 H   0  0  0  0  0  0  0  0  0  0  0  0
   -6.1050   19.1510  -34.0880 C   0  0  0  0  0  0  0  0  0  0  0  0
   -5.8093   20.0710  -34.6135 H   0  0  0  0  0  0  0  0  0  0  0  0
  1  2  1  0
  2  3  2  0
  3  4  1  0
  4  5  2  0
  4  6  1  0
  6  7  2  0
  7  8  1  0
  7  9  1  0
  9 10  1  0
  9 11  2  0
 11 12  1  0
 11 13  1  0
 13 14  1  0
 13 15  2  0
 15 16  1  0
 16 17  1  0
 16 18  1  0
  2 19  1  0
 19 20  2  0
 20 21  1  0
 20 22  1  0
 22 23  1  0
 22 24  2  0
 24 25  1  0
 25 26  1  0
 26 27  1  0
 26 28  1  0
 26 29  1  0
 29 30  1  0
 29 31  1  0
 29 32  1  0
 32 33  1  0
 33 34  1  0
 33 35  1  0
 33 36  1  0
 32 37  1  0
 37 38  1  0
 37 39  1  0
 37 40  1  0
 40 41  1  0
 40 42  1  0
 24 43  1  0
 43 44  1  0
 43 45  2  0
 45 46  1  0
 16  3  1  0
 45 19  1  0
 15  6  1  0
 40 25  1  0
M  END
>  <UniqueID>  (24) 
22

>  <SMILES>  (24) 
CN1CCN(c2ccc(/C=C3/Cc4ccccc4C3=O)cc2)CC1

>  <Energy>  (24) 
85.96228095449855

>  <Genealogy>  (24) 
CN1CCN(c2ccc(/C=C3/Cc4ccccc4C3=O)cc2)CC1 (cis-trans isomerization)
CN1CCN(c2ccc(/C=C3/Cc4ccccc4C3=O)cc2)CC1 (3D coordinates assigned)
CN1CCN(c2ccc(/C=C3/Cc4ccccc4C3=O)cc2)CC1 (nonaromatic ring conformer: 85.96228095449855 kcal/mol)

>  <smiles>  (24) 
CN1CCN(c2ccc(C=C3Cc4ccccc4C3=O)cc2)CC1

>  <score_type>  (24) 
oracle

>  <origin>  (24) 
adgpu

>  <m_score__min__energy>  (24) 
-8.5700000000000003

>  <m_primary>  (24) 
energy

$$$$
24:0
     RDKit          3D

 53 55  0  0  0  0  0  0  0  0999 V2000
    0.7390   22.5910  -27.0240 C   0  0  0  0  0  0  0  0  0  0  0  0
   -0.7010   22.6350  -27.4640 C   0  0  0  0  0  0  0  0  0  0  0  0
   -1.1320   23.7080  -28.2650 C   0  0  0  0  0  0  0  0  0  0  0  0
   -2.4620   23.8090  -28.6830 C   0  0  0  0  0  0  0  0  0  0  0  0
   -2.8290   24.9020  -29.5400 N   0  0  0  0  0  0  0  0  0  0  0  0
   -3.9140   24.9460  -30.4790 C   0  0  0  0  0  0  0  0  0  0  0  0
   -4.6060   25.9890  -30.6130 O   0  0  0  0  0  0  0  0  0  0  0  0
   -4.2340   23.7960  -31.2700 N   0  0  0  0  0  0  0  0  0  0  0  0
   -5.5440   23.2300  -31.4290 C   0  0  0  0  0  0  0  0  0  0  0  0
   -6.6940   23.9730  -31.1390 C   0  0  0  0  0  0  0  0  0  0  0  0
   -7.9550   23.3920  -31.2530 C   0  0  0  0  0  0  0  0  0  0  0  0
   -8.0960   22.0510  -31.6500 C   0  0  0  0  0  0  0  0  0  0  0  0
   -9.4860   21.4790  -31.7400 C   0  0  0  0  0  0  0  0  0  0  0  0
   -6.9380   21.2950  -31.9740 C   0  0  0  0  0  0  0  0  0  0  0  0
   -7.0520   19.6000  -32.5110 S   0  0  0  0  0  0  0  0  0  0  0  0
   -6.7230   18.6650  -31.3800 O   0  0  0  0  0  0  0  0  0  0  0  0
   -8.4560   19.2860  -32.9600 O   0  0  0  0  0  0  0  0  0  0  0  0
   -5.8820   19.3410  -33.8470 C   0  0  0  0  0  0  0  0  0  0  0  0
   -4.8020   18.3100  -33.5530 C   0  0  0  0  0  0  0  0  0  0  0  0
   -5.9450   17.9700  -34.5010 C   0  0  0  0  0  0  0  0  0  0  0  0
   -5.6660   21.8900  -31.8210 C   0  0  0  0  0  0  0  0  0  0  0  0
   -4.5080   21.1580  -32.0590 O   0  0  0  0  0  0  0  0  0  0  0  0
   -3.3760   22.8070  -28.3180 C   0  0  0  0  0  0  0  0  0  0  0  0
   -2.9610   21.7330  -27.5290 C   0  0  0  0  0  0  0  0  0  0  0  0
   -1.6300   21.6280  -27.0930 C   0  0  0  0  0  0  0  0  0  0  0  0
   -1.2420   20.4110  -26.2770 C   0  0  0  0  0  0  0  0  0  0  0  0
   -1.8290   19.1850  -26.8630 N   0  0  0  0  0  0  0  0  0  0  0  0
   -0.7890   18.1760  -27.1250 C   0  0  0  0  0  0  0  0  0  0  0  0
   -2.8410   18.6250  -25.9500 C   0  0  0  0  0  0  0  0  0  0  0  0
    0.7867   22.5895  -25.9250 H   0  0  0  0  0  0  0  0  0  0  0  0
    1.2135   21.6779  -27.4128 H   0  0  0  0  0  0  0  0  0  0  0  0
    1.2683   23.4734  -27.4128 H   0  0  0  0  0  0  0  0  0  0  0  0
   -0.4101   24.4808  -28.5676 H   0  0  0  0  0  0  0  0  0  0  0  0
   -6.6017   25.0215  -30.8193 H   0  0  0  0  0  0  0  0  0  0  0  0
   -8.8510   23.9898  -31.0297 H   0  0  0  0  0  0  0  0  0  0  0  0
   -9.8818   21.3161  -30.7267 H   0  0  0  0  0  0  0  0  0  0  0  0
  -10.1376   22.1821  -32.2795 H   0  0  0  0  0  0  0  0  0  0  0  0
   -9.4540   20.5209  -32.2795 H   0  0  0  0  0  0  0  0  0  0  0  0
   -5.8938   20.3780  -34.2137 H   0  0  0  0  0  0  0  0  0  0  0  0
   -3.7845   18.4515  -33.9463 H   0  0  0  0  0  0  0  0  0  0  0  0
   -4.3861   17.8568  -32.6411 H   0  0  0  0  0  0  0  0  0  0  0  0
   -5.7529   17.8655  -35.5790 H   0  0  0  0  0  0  0  0  0  0  0  0
   -6.6967   17.1689  -34.5573 H   0  0  0  0  0  0  0  0  0  0  0  0
   -4.4214   22.8688  -28.6547 H   0  0  0  0  0  0  0  0  0  0  0  0
   -3.6872   20.9573  -27.2444 H   0  0  0  0  0  0  0  0  0  0  0  0
   -0.1460   20.3176  -26.2651 H   0  0  0  0  0  0  0  0  0  0  0  0
   -1.6234   20.5333  -25.2525 H   0  0  0  0  0  0  0  0  0  0  0  0
   -0.3976   17.7963  -26.1697 H   0  0  0  0  0  0  0  0  0  0  0  0
   -1.2217   17.3444  -27.7005 H   0  0  0  0  0  0  0  0  0  0  0  0
    0.0292   18.6336  -27.7005 H   0  0  0  0  0  0  0  0  0  0  0  0
   -2.5306   18.7968  -24.9088 H   0  0  0  0  0  0  0  0  0  0  0  0
   -3.8088   19.1159  -26.1298 H   0  0  0  0  0  0  0  0  0  0  0  0
   -2.9391   17.5442  -26.1298 H   0  0  0  0  0  0  0  0  0  0  0  0
  1  2  1  0
  2  3  2  0
  3  4  1  0
  4  5  1  0
  5  6  1  0
  6  7  2  0
  6  8  1  0
  8  9  1  0
  9 10  2  0
 10 11  1  0
 11 12  2  0
 12 13  1  0
 12 14  1  0
 14 15  1  0
 15 16  2  0
 15 17  2  0
 15 18  1  0
 18 19  1  0
 19 20  1  0
 14 21  2  0
 21 22  1  0
  4 23  2  0
 23 24  1  0
 24 25  2  0
 25 26  1  0
 26 27  1  0
 27 28  1  0
 27 29  1  0
 25  2  1  0
 21  9  1  0
 20 18  1  0
  1 30  1  0
  1 31  1  0
  1 32  1  0
  3 33  1  0
 10 34  1  0
 11 35  1  0
 13 36  1  0
 13 37  1  0
 13 38  1  0
 18 39  1  0
 19 40  1  0
 19 41  1  0
 20 42  1  0
 20 43  1  0
 23 44  1  0
 24 45  1  0
 26 46  1  0
 26 47  1  0
 28 48  1  0
 28 49  1  0
 28 50  1  0
 29 51  1  0
 29 52  1  0
 29 53  1  0
M  CHG  3   5  -1   8  -1  22  -1
M  END
>  <UniqueID>  (25) 
23

>  <SMILES>  (25) 
Cc1cc([N-]C(=O)[N-]c2ccc(C)c(S(=O)(=O)C3CC3)c2[O-])ccc1CN(C)C

>  <Energy>  (25) 
328.3690631662112

>  <Genealogy>  (25) 
Cc1cc([N-]C(=O)[N-]c2ccc(C)c(S(=O)(=O)C3CC3)c2[O-])ccc1CN(C)C (protonated)
Cc1cc([N-]C(=O)[N-]c2ccc(C)c(S(=O)(=O)C3CC3)c2[O-])ccc1CN(C)C (3D coordinates assigned)
Cc1cc([N-]C(=O)[N-]c2ccc(C)c(S(=O)(=O)C3CC3)c2[O-])ccc1CN(C)C (nonaromatic ring conformer: 328.3690631662112 kcal/mol)

>  <smiles>  (25) 
Cc1cc(NC(=O)Nc2ccc(C)c(S(=O)(=O)C3CC3)c2O)ccc1CN(C)C

>  <score_type>  (25) 
oracle

>  <origin>  (25) 
adgpu

>  <m_score__min__energy>  (25) 
-15.57

>  <m_primary>  (25) 
energy

$$$$
25:0
     RDKit          3D

 64 67  0  0  0  0  0  0  0  0999 V2000
   -6.9740   17.4910  -32.5240 C   0  0  0  0  0  0  0  0  0  0  0  0
   -6.9230   18.9550  -32.4220 N   0  0  0  0  0  0  0  0  0  0  0  0
   -8.2450   19.5270  -32.7080 C   0  0  0  0  0  0  0  0  0  0  0  0
   -5.7430   19.5850  -33.5460 S   0  0  0  0  0  0  0  0  0  0  0  0
   -5.7120   21.0830  -33.4390 O   0  0  0  0  0  0  0  0  0  0  0  0
   -6.1460   19.2260  -34.9480 O   0  0  0  0  0  0  0  0  0  0  0  0
   -4.1310   18.9390  -33.2210 C   0  0  0  0  0  0  0  0  0  0  0  0
   -3.7570   17.6780  -33.7060 C   0  0  0  0  0  0  0  0  0  0  0  0
   -2.4670   17.1890  -33.4770 C   0  0  0  0  0  0  0  0  0  0  0  0
   -1.5350   17.9530  -32.7580 C   0  0  0  0  0  0  0  0  0  0  0  0
   -0.1830   17.4840  -32.5950 N   0  0  0  0  0  0  0  0  0  0  0  0
    0.3150   17.1300  -31.2610 C   0  0  0  0  0  0  0  0  0  0  0  0
    1.3560   16.0140  -31.3980 C   0  0  0  0  0  0  0  0  0  0  0  0
    2.3750   16.3880  -32.3160 O   0  0  0  0  0  0  0  0  0  0  0  0
    1.8250   16.5380  -33.6170 C   0  0  0  0  0  0  0  0  0  0  0  0
    0.8120   17.6890  -33.6530 C   0  0  0  0  0  0  0  0  0  0  0  0
   -1.9140   19.2140  -32.2590 C   0  0  0  0  0  0  0  0  0  0  0  0
   -0.9820   19.9850  -31.4900 N   0  0  0  0  0  0  0  0  0  0  0  0
   -1.2020   20.3830  -30.1320 C   0  0  0  0  0  0  0  0  0  0  0  0
   -1.3110   19.5110  -29.2280 O   0  0  0  0  0  0  0  0  0  0  0  0
   -1.4120   21.8080  -29.8100 C   0  0  0  0  0  0  0  0  0  0  0  0
   -0.3350   22.6080  -29.3900 C   0  0  0  0  0  0  0  0  0  0  0  0
   -0.5340   23.9620  -29.1020 C   0  0  0  0  0  0  0  0  0  0  0  0
   -1.8000   24.5370  -29.2530 C   0  0  0  0  0  0  0  0  0  0  0  0
   -1.9660   25.8850  -28.9620 O   0  0  0  0  0  0  0  0  0  0  0  0
   -2.8820   23.7530  -29.6970 C   0  0  0  0  0  0  0  0  0  0  0  0
   -4.4780   24.4510  -30.0190 S   0  0  0  0  0  0  0  0  0  0  0  0
   -5.1220   24.8410  -28.7140 O   0  0  0  0  0  0  0  0  0  0  0  0
   -4.3640   25.6750  -30.8940 O   0  0  0  0  0  0  0  0  0  0  0  0
   -5.4570   23.2510  -30.8270 N   0  0  0  0  0  0  0  0  0  0  0  0
   -6.1420   23.8190  -31.9910 C   0  0  0  0  0  0  0  0  0  0  0  0
   -7.4540   23.0630  -32.1490 C   0  0  0  0  0  0  0  0  0  0  0  0
   -7.6470   22.2950  -30.8530 C   0  0  0  0  0  0  0  0  0  0  0  0
   -6.5130   22.7470  -29.9510 C   0  0  0  0  0  0  0  0  0  0  0  0
   -2.6850   22.3870  -29.9460 C   0  0  0  0  0  0  0  0  0  0  0  0
   -3.2100   19.6970  -32.4870 C   0  0  0  0  0  0  0  0  0  0  0  0
   -6.9892   17.0535  -31.5149 H   0  0  0  0  0  0  0  0  0  0  0  0
   -7.8831   17.1927  -33.0668 H   0  0  0  0  0  0  0  0  0  0  0  0
   -6.0879   17.1302  -33.0668 H   0  0  0  0  0  0  0  0  0  0  0  0
   -8.7604   19.7500  -31.7622 H   0  0  0  0  0  0  0  0  0  0  0  0
   -8.1257   20.4540  -33.2880 H   0  0  0  0  0  0  0  0  0  0  0  0
   -8.8390   18.8054  -33.2880 H   0  0  0  0  0  0  0  0  0  0  0  0
   -4.4811   17.0707  -34.2689 H   0  0  0  0  0  0  0  0  0  0  0  0
   -2.1811   16.1994  -33.8629 H   0  0  0  0  0  0  0  0  0  0  0  0
    0.7785   18.0117  -30.7943 H   0  0  0  0  0  0  0  0  0  0  0  0
   -0.5190   16.7855  -30.6319 H   0  0  0  0  0  0  0  0  0  0  0  0
    1.8092   15.8201  -30.4146 H   0  0  0  0  0  0  0  0  0  0  0  0
    0.8567   15.1084  -31.7731 H   0  0  0  0  0  0  0  0  0  0  0  0
    2.6364   16.7498  -34.3289 H   0  0  0  0  0  0  0  0  0  0  0  0
    1.3083   15.6061  -33.8900 H   0  0  0  0  0  0  0  0  0  0  0  0
    1.3330   18.6438  -33.4891 H   0  0  0  0  0  0  0  0  0  0  0  0
    0.3124   17.7133  -34.6327 H   0  0  0  0  0  0  0  0  0  0  0  0
    0.6677   22.1675  -29.2875 H   0  0  0  0  0  0  0  0  0  0  0  0
    0.3090   24.5776  -28.7551 H   0  0  0  0  0  0  0  0  0  0  0  0
   -6.3398   24.8887  -31.8279 H   0  0  0  0  0  0  0  0  0  0  0  0
   -5.5231   23.7239  -32.8954 H   0  0  0  0  0  0  0  0  0  0  0  0
   -8.2852   23.7664  -32.3049 H   0  0  0  0  0  0  0  0  0  0  0  0
   -7.4317   22.3903  -33.0190 H   0  0  0  0  0  0  0  0  0  0  0  0
   -8.6199   22.5386  -30.4013 H   0  0  0  0  0  0  0  0  0  0  0  0
   -7.6361   21.2069  -31.0139 H   0  0  0  0  0  0  0  0  0  0  0  0
   -6.8593   23.5442  -29.2767 H   0  0  0  0  0  0  0  0  0  0  0  0
   -6.1482   21.9177  -29.3271 H   0  0  0  0  0  0  0  0  0  0  0  0
   -3.5369   21.7616  -30.2513 H   0  0  0  0  0  0  0  0  0  0  0  0
   -3.5057   20.6780  -32.0867 H   0  0  0  0  0  0  0  0  0  0  0  0
  1  2  1  0
  2  3  1  0
  2  4  1  0
  4  5  2  0
  4  6  2  0
  4  7  1  0
  7  8  2  0
  8  9  1  0
  9 10  2  0
 10 11  1  0
 11 12  1  0
 12 13  1  0
 13 14  1  0
 14 15  1  0
 15 16  1  0
 10 17  1  0
 17 18  1  0
 18 19  1  0
 19 20  2  0
 19 21  1  0
 21 22  2  0
 22 23  1  0
 23 24  2  0
 24 25  1  0
 24 26  1  0
 26 27  1  0
 27 28  2  0
 27 29  2  0
 27 30  1  0
 30 31  1  0
 31 32  1  0
 32 33  1  0
 33 34  1  0
 26 35  2  0
 17 36  2  0
 36  7  1  0
 16 11  1  0
 35 21  1  0
 34 30  1  0
  1 37  1  0
  1 38  1  0
  1 39  1  0
  3 40  1  0
  3 41  1  0
  3 42  1  0
  8 43  1  0
  9 44  1  0
 12 45  1  0
 12 46  1  0
 13 47  1  0
 13 48  1  0
 15 49  1  0
 15 50  1  0
 16 51  1  0
 16 52  1  0
 22 53  1  0
 23 54  1  0
 31 55  1  0
 31 56  1  0
 32 57  1  0
 32 58  1  0
 33 59  1  0
 33 60  1  0
 34 61  1  0
 34 62  1  0
 35 63  1  0
 36 64  1  0
M  CHG  2  18  -1  25  -1
M  END
>  <UniqueID>  (26) 
24

>  <SMILES>  (26) 
CN(C)S(=O)(=O)c1ccc(N2CCOCC2)c([N-]C(=O)c2ccc([O-])c(S(=O)(=O)N3CCCC3)c2)c1

>  <Energy>  (26) 
76.86012015170375

>  <Genealogy>  (26) 
CN(C)S(=O)(=O)c1ccc(N2CCOCC2)c([N-]C(=O)c2ccc([O-])c(S(=O)(=O)N3CCCC3)c2)c1 (protonated)
CN(C)S(=O)(=O)c1ccc(N2CCOCC2)c([N-]C(=O)c2ccc([O-])c(S(=O)(=O)N3CCCC3)c2)c1 (3D coordinates assigned)
CN(C)S(=O)(=O)c1ccc(N2CCOCC2)c([N-]C(=O)c2ccc([O-])c(S(=O)(=O)N3CCCC3)c2)c1 (nonaromatic ring conformer: 76.86012015170375 kcal/mol)

>  <smiles>  (26) 
CN(C)S(=O)(=O)c1ccc(N2CCOCC2)c(NC(=O)c2ccc(O)c(S(=O)(=O)N3CCCC3)c2)c1

>  <score_type>  (26) 
oracle

>  <origin>  (26) 
adgpu

>  <m_score__min__energy>  (26) 
-12.51

>  <m_primary>  (26) 
energy

$$$$
26:0
     RDKit          3D

 55 59  0  0  0  0  0  0  0  0999 V2000
   -5.3930   24.1900  -31.9720 O   0  0  0  0  0  0  0  0  0  0  0  0
   -4.9040   23.1370  -31.4770 C   0  0  0  0  0  0  0  0  0  0  0  0
   -3.8980   23.2340  -30.3910 C   0  0  0  0  0  0  0  0  0  0  0  0
   -3.3870   22.0570  -29.8160 C   0  0  0  0  0  0  0  0  0  0  0  0
   -2.4360   22.1160  -28.7890 C   0  0  0  0  0  0  0  0  0  0  0  0
   -1.8320   20.6210  -28.0810 S   0  0  0  0  0  0  0  0  0  0  0  0
   -2.9650   19.7920  -27.5420 O   0  0  0  0  0  0  0  0  0  0  0  0
   -0.9170   20.9530  -26.9360 O   0  0  0  0  0  0  0  0  0  0  0  0
   -0.9750   19.7140  -29.3010 N   0  0  0  0  0  0  0  0  0  0  0  0
   -1.1170   20.0840  -30.7110 C   0  0  0  0  0  0  0  0  0  0  0  0
    0.2670   20.3010  -31.3150 C   0  0  0  0  0  0  0  0  0  0  0  0
    1.1080   19.0220  -31.2100 C   0  0  0  0  0  0  0  0  0  0  0  0
    1.0230   18.3710  -29.8460 C   0  0  0  0  0  0  0  0  0  0  0  0
    1.9550   17.3780  -29.5070 C   0  0  0  0  0  0  0  0  0  0  0  0
    1.8520   16.6970  -28.2930 C   0  0  0  0  0  0  0  0  0  0  0  0
    0.8050   16.9840  -27.4170 C   0  0  0  0  0  0  0  0  0  0  0  0
   -0.1320   17.9670  -27.7440 C   0  0  0  0  0  0  0  0  0  0  0  0
   -0.0290   18.6810  -28.9530 C   0  0  0  0  0  0  0  0  0  0  0  0
   -1.9840   23.3590  -28.3320 C   0  0  0  0  0  0  0  0  0  0  0  0
   -2.4770   24.5340  -28.9000 C   0  0  0  0  0  0  0  0  0  0  0  0
   -3.4230   24.4820  -29.9290 C   0  0  0  0  0  0  0  0  0  0  0  0
   -3.8610   25.6730  -30.4950 O   0  0  0  0  0  0  0  0  0  0  0  0
   -5.3120   21.8640  -32.0050 N   0  0  0  0  0  0  0  0  0  0  0  0
   -4.3250   21.1260  -32.8070 C   0  0  0  0  0  0  0  0  0  0  0  0
   -4.7370   19.6660  -32.9920 C   0  0  0  0  0  0  0  0  0  0  0  0
   -6.1360   19.5920  -33.6020 C   0  0  0  0  0  0  0  0  0  0  0  0
   -7.1260   20.3490  -32.7580 C   0  0  0  0  0  0  0  0  0  0  0  0
   -8.4800   19.9780  -32.7740 C   0  0  0  0  0  0  0  0  0  0  0  0
   -9.4120   20.6810  -32.0100 C   0  0  0  0  0  0  0  0  0  0  0  0
   -9.0020   21.7620  -31.2300 C   0  0  0  0  0  0  0  0  0  0  0  0
   -7.6610   22.1550  -31.2210 C   0  0  0  0  0  0  0  0  0  0  0  0
   -6.7080   21.4710  -32.0040 C   0  0  0  0  0  0  0  0  0  0  0  0
   -3.7379   21.0788  -30.1766 H   0  0  0  0  0  0  0  0  0  0  0  0
   -1.6324   19.2773  -31.2528 H   0  0  0  0  0  0  0  0  0  0  0  0
   -1.7049   21.0101  -30.7924 H   0  0  0  0  0  0  0  0  0  0  0  0
    0.1600   20.5775  -32.3743 H   0  0  0  0  0  0  0  0  0  0  0  0
    0.7736   21.1053  -30.7614 H   0  0  0  0  0  0  0  0  0  0  0  0
    0.7516   18.3047  -31.9640 H   0  0  0  0  0  0  0  0  0  0  0  0
    2.1583   19.3032  -31.3765 H   0  0  0  0  0  0  0  0  0  0  0  0
    2.7718   17.1348  -30.2024 H   0  0  0  0  0  0  0  0  0  0  0  0
    2.5973   15.9331  -28.0267 H   0  0  0  0  0  0  0  0  0  0  0  0
    0.7172   16.4355  -26.4675 H   0  0  0  0  0  0  0  0  0  0  0  0
   -0.9577   18.1852  -27.0507 H   0  0  0  0  0  0  0  0  0  0  0  0
   -1.2392   23.4097  -27.5241 H   0  0  0  0  0  0  0  0  0  0  0  0
   -2.1192   25.5084  -28.5360 H   0  0  0  0  0  0  0  0  0  0  0  0
   -4.2390   21.6016  -33.7951 H   0  0  0  0  0  0  0  0  0  0  0  0
   -3.3611   21.1495  -32.2775 H   0  0  0  0  0  0  0  0  0  0  0  0
   -4.0207   19.1672  -33.6614 H   0  0  0  0  0  0  0  0  0  0  0  0
   -4.7427   19.1652  -32.0126 H   0  0  0  0  0  0  0  0  0  0  0  0
   -6.1133   20.0291  -34.6112 H   0  0  0  0  0  0  0  0  0  0  0  0
   -6.4455   18.5375  -33.6493 H   0  0  0  0  0  0  0  0  0  0  0  0
   -8.8076   19.1289  -33.3919 H   0  0  0  0  0  0  0  0  0  0  0  0
  -10.4707   20.3825  -32.0229 H   0  0  0  0  0  0  0  0  0  0  0  0
   -9.7369   22.3073  -30.6196 H   0  0  0  0  0  0  0  0  0  0  0  0
   -7.3460   23.0050  -30.5979 H   0  0  0  0  0  0  0  0  0  0  0  0
  1  2  2  0
  2  3  1  0
  3  4  2  0
  4  5  1  0
  5  6  1  0
  6  7  2  0
  6  8  2  0
  6  9  1  0
  9 10  1  0
 10 11  1  0
 11 12  1  0
 12 13  1  0
 13 14  2  0
 14 15  1  0
 15 16  2  0
 16 17  1  0
 17 18  2  0
  5 19  2  0
 19 20  1  0
 20 21  2  0
 21 22  1  0
  2 23  1  0
 23 24  1  0
 24 25  1  0
 25 26  1  0
 26 27  1  0
 27 28  2  0
 28 29  1  0
 29 30  2  0
 30 31  1  0
 31 32  2  0
 21  3  1  0
 32 23  1  0
 18  9  1  0
 32 27  1  0
 18 13  1  0
  4 33  1  0
 10 34  1  0
 10 35  1  0
 11 36  1  0
 11 37  1  0
 12 38  1  0
 12 39  1  0
 14 40  1  0
 15 41  1  0
 16 42  1  0
 17 43  1  0
 19 44  1  0
 20 45  1  0
 24 46  1  0
 24 47  1  0
 25 48  1  0
 25 49  1  0
 26 50  1  0
 26 51  1  0
 28 52  1  0
 29 53  1  0
 30 54  1  0
 31 55  1  0
M  CHG  1  22  -1
M  END
>  <UniqueID>  (27) 
25

>  <SMILES>  (27) 
O=C(c1cc(S(=O)(=O)N2CCCc3ccccc32)ccc1[O-])N1CCCc2ccccc21

>  <Energy>  (27) 
73.23784557918668

>  <Genealogy>  (27) 
O=C(c1cc(S(=O)(=O)N2CCCc3ccccc32)ccc1[O-])N1CCCc2ccccc21 (protonated)
O=C(c1cc(S(=O)(=O)N2CCCc3ccccc32)ccc1[O-])N1CCCc2ccccc21 (3D coordinates assigned)
O=C(c1cc(S(=O)(=O)N2CCCc3ccccc32)ccc1[O-])N1CCCc2ccccc21 (nonaromatic ring conformer: 73.23784557918668 kcal/mol)

>  <smiles>  (27) 
O=C(c1cc(S(=O)(=O)N2CCCc3ccccc32)ccc1O)N1CCCc2ccccc21

>  <score_type>  (27) 
oracle

>  <origin>  (27) 
adgpu

>  <m_score__min__energy>  (27) 
-13.699999999999999

>  <m_primary>  (27) 
energy

$$$$
27:0
     RDKit          3D

 64 67  0  0  0  0  0  0  0  0999 V2000
   -3.0480   17.7480  -33.9070 C   0  0  0  0  0  0  0  0  0  0  0  0
   -4.3780   18.0060  -34.6040 C   0  0  0  0  0  0  0  0  0  0  0  0
   -5.4840   18.1790  -33.5990 C   0  0  0  0  0  0  0  0  0  0  0  0
   -5.6040   17.2940  -32.5180 C   0  0  0  0  0  0  0  0  0  0  0  0
   -6.6530   17.4330  -31.6050 C   0  0  0  0  0  0  0  0  0  0  0  0
   -7.6000   18.4500  -31.7630 C   0  0  0  0  0  0  0  0  0  0  0  0
   -8.6720   18.5070  -30.8690 O   0  0  0  0  0  0  0  0  0  0  0  0
   -7.4730   19.3620  -32.8380 C   0  0  0  0  0  0  0  0  0  0  0  0
   -8.3820   20.4550  -33.0090 N   0  0  0  0  0  0  0  0  0  0  0  0
   -8.7150   21.3780  -31.9610 C   0  0  0  0  0  0  0  0  0  0  0  0
   -9.8110   21.2530  -31.3400 O   0  0  0  0  0  0  0  0  0  0  0  0
   -7.7750   22.4600  -31.5920 C   0  0  0  0  0  0  0  0  0  0  0  0
   -7.0190   23.1190  -32.5780 C   0  0  0  0  0  0  0  0  0  0  0  0
   -6.1370   24.1460  -32.2300 C   0  0  0  0  0  0  0  0  0  0  0  0
   -5.9700   24.5130  -30.8840 C   0  0  0  0  0  0  0  0  0  0  0  0
   -5.0310   25.6250  -30.4980 C   0  0  0  0  0  0  0  0  0  0  0  0
   -3.6800   25.1110  -30.3270 N   0  0  0  0  0  0  0  0  0  0  0  0
   -3.3370   24.1630  -29.3160 C   0  0  0  0  0  0  0  0  0  0  0  0
   -4.2170   23.3980  -28.8330 O   0  0  0  0  0  0  0  0  0  0  0  0
   -1.9700   24.1340  -28.7770 C   0  0  0  0  0  0  0  0  0  0  0  0
   -1.4170   25.3430  -28.3250 C   0  0  0  0  0  0  0  0  0  0  0  0
   -0.1200   25.3820  -27.8150 C   0  0  0  0  0  0  0  0  0  0  0  0
    0.6400   24.2120  -27.7510 C   0  0  0  0  0  0  0  0  0  0  0  0
    0.0970   23.0010  -28.1820 C   0  0  0  0  0  0  0  0  0  0  0  0
   -1.2070   22.9440  -28.7040 C   0  0  0  0  0  0  0  0  0  0  0  0
   -1.8800   21.3620  -29.1510 S   0  0  0  0  0  0  0  0  0  0  0  0
   -2.9800   21.0380  -28.1790 O   0  0  0  0  0  0  0  0  0  0  0  0
   -0.8220   20.3000  -29.0210 O   0  0  0  0  0  0  0  0  0  0  0  0
   -2.4990   21.3160  -30.8140 C   0  0  0  0  0  0  0  0  0  0  0  0
   -3.8910   21.3390  -31.0110 C   0  0  0  0  0  0  0  0  0  0  0  0
   -4.4310   21.2700  -32.2950 C   0  0  0  0  0  0  0  0  0  0  0  0
   -3.5900   21.1840  -33.4030 C   0  0  0  0  0  0  0  0  0  0  0  0
   -2.2070   21.1670  -33.2310 C   0  0  0  0  0  0  0  0  0  0  0  0
   -1.6450   21.2110  -31.9430 C   0  0  0  0  0  0  0  0  0  0  0  0
   -0.1470   21.1770  -31.8060 C   0  0  0  0  0  0  0  0  0  0  0  0
   -6.7400   23.8750  -29.9010 C   0  0  0  0  0  0  0  0  0  0  0  0
   -7.6300   22.8550  -30.2510 C   0  0  0  0  0  0  0  0  0  0  0  0
   -6.4330   19.1990  -33.7650 C   0  0  0  0  0  0  0  0  0  0  0  0
   -3.1937   17.7763  -32.8171 H   0  0  0  0  0  0  0  0  0  0  0  0
   -2.6661   16.7590  -34.2004 H   0  0  0  0  0  0  0  0  0  0  0  0
   -2.3240   18.5224  -34.2004 H   0  0  0  0  0  0  0  0  0  0  0  0
   -4.2958   18.9200  -35.2105 H   0  0  0  0  0  0  0  0  0  0  0  0
   -4.6144   17.1422  -35.2427 H   0  0  0  0  0  0  0  0  0  0  0  0
   -4.8688   16.4862  -32.3879 H   0  0  0  0  0  0  0  0  0  0  0  0
   -6.7344   16.7378  -30.7564 H   0  0  0  0  0  0  0  0  0  0  0  0
   -9.3580   19.2510  -30.8900 H   0  0  0  0  0  0  0  0  0  0  0  0
   -7.1227   22.8236  -33.6325 H   0  0  0  0  0  0  0  0  0  0  0  0
   -5.5706   24.6697  -33.0141 H   0  0  0  0  0  0  0  0  0  0  0  0
   -5.0305   26.3900  -31.2885 H   0  0  0  0  0  0  0  0  0  0  0  0
   -5.3690   26.0641  -29.5477 H   0  0  0  0  0  0  0  0  0  0  0  0
   -2.0120   26.2669  -28.3737 H   0  0  0  0  0  0  0  0  0  0  0  0
    0.3045   26.3338  -27.4632 H   0  0  0  0  0  0  0  0  0  0  0  0
    1.6678   24.2452  -27.3604 H   0  0  0  0  0  0  0  0  0  0  0  0
    0.6959   22.0809  -28.1125 H   0  0  0  0  0  0  0  0  0  0  0  0
   -4.5619   21.4123  -30.1423 H   0  0  0  0  0  0  0  0  0  0  0  0
   -5.5222   21.2835  -32.4334 H   0  0  0  0  0  0  0  0  0  0  0  0
   -4.0183   21.1295  -34.4147 H   0  0  0  0  0  0  0  0  0  0  0  0
   -1.5490   21.1187  -34.1112 H   0  0  0  0  0  0  0  0  0  0  0  0
    0.1236   21.1709  -30.7398 H   0  0  0  0  0  0  0  0  0  0  0  0
    0.2449   20.2697  -32.2890 H   0  0  0  0  0  0  0  0  0  0  0  0
    0.2856   22.0656  -32.2890 H   0  0  0  0  0  0  0  0  0  0  0  0
   -6.6433   24.1788  -28.8482 H   0  0  0  0  0  0  0  0  0  0  0  0
   -8.2224   22.3569  -29.4693 H   0  0  0  0  0  0  0  0  0  0  0  0
   -6.3609   19.8762  -34.6289 H   0  0  0  0  0  0  0  0  0  0  0  0
  1  2  1  0
  2  3  1  0
  3  4  2  0
  4  5  1  0
  5  6  2  0
  6  7  1  0
  6  8  1  0
  8  9  1  0
  9 10  1  0
 10 11  2  0
 10 12  1  0
 12 13  2  0
 13 14  1  0
 14 15  2  0
 15 16  1  0
 16 17  1  0
 17 18  1  0
 18 19  2  0
 18 20  1  0
 20 21  2  0
 21 22  1  0
 22 23  2  0
 23 24  1  0
 24 25  2  0
 25 26  1  0
 26 27  2  0
 26 28  2  0
 26 29  1  0
 29 30  2  0
 30 31  1  0
 31 32  2  0
 32 33  1  0
 33 34  2  0
 34 35  1  0
 15 36  1  0
 36 37  2  0
  8 38  2  0
 38  3  1  0
 37 12  1  0
 25 20  1  0
 34 29  1  0
  1 39  1  0
  1 40  1  0
  1 41  1  0
  2 42  1  0
  2 43  1  0
  4 44  1  0
  5 45  1  0
  7 46  1  0
 13 47  1  0
 14 48  1  0
 16 49  1  0
 16 50  1  0
 21 51  1  0
 22 52  1  0
 23 53  1  0
 24 54  1  0
 30 55  1  0
 31 56  1  0
 32 57  1  0
 33 58  1  0
 35 59  1  0
 35 60  1  0
 35 61  1  0
 36 62  1  0
 37 63  1  0
 38 64  1  0
M  CHG  2   9  -1  17  -1
M  END
>  <UniqueID>  (28) 
26

>  <SMILES>  (28) 
CCc1ccc(O)c([N-]C(=O)c2ccc(C[N-]C(=O)c3ccccc3S(=O)(=O)c3ccccc3C)cc2)c1

>  <Energy>  (28) 
77.33985732376902

>  <Genealogy>  (28) 
CCc1ccc(O)c([N-]C(=O)c2ccc(C[N-]C(=O)c3ccccc3S(=O)(=O)c3ccccc3C)cc2)c1 (protonated)
CCc1ccc(O)c([N-]C(=O)c2ccc(C[N-]C(=O)c3ccccc3S(=O)(=O)c3ccccc3C)cc2)c1 (3D coordinates assigned)
CCc1ccc(O)c([N-]C(=O)c2ccc(C[N-]C(=O)c3ccccc3S(=O)(=O)c3ccccc3C)cc2)c1 (optimized conformer: 77.33985732376902 kcal/mol)

>  <smiles>  (28) 
CCc1ccc(O)c(NC(=O)c2ccc(CNC(=O)c3ccccc3S(=O)(=O)c3ccccc3C)cc2)c1

>  <score_type>  (28) 
oracle

>  <origin>  (28) 
adgpu

>  <m_score__min__energy>  (28) 
-13.84

>  <m_primary>  (28) 
energy

$$$$
28:0
     RDKit          3D

 60 62  0  0  0  0  0  0  0  0999 V2000
   -4.4580   16.2520  -33.4400 C   0  0  0  0  0  0  0  0  0  0  0  0
   -4.7640   17.6580  -33.1480 N   0  0  0  0  0  0  0  0  0  0  0  0
   -3.7060   18.5280  -33.6740 C   0  0  0  0  0  0  0  0  0  0  0  0
   -6.2970   18.0900  -33.8620 S   0  0  0  0  0  0  0  0  0  0  0  0
   -6.0890   18.4520  -35.3060 O   0  0  0  0  0  0  0  0  0  0  0  0
   -7.2240   16.9070  -33.8100 O   0  0  0  0  0  0  0  0  0  0  0  0
   -7.0460   19.4480  -33.0250 C   0  0  0  0  0  0  0  0  0  0  0  0
   -8.4180   19.4310  -32.7370 C   0  0  0  0  0  0  0  0  0  0  0  0
   -9.0040   20.4960  -32.0510 C   0  0  0  0  0  0  0  0  0  0  0  0
   -8.2270   21.5870  -31.6530 C   0  0  0  0  0  0  0  0  0  0  0  0
   -6.8590   21.6210  -31.9470 C   0  0  0  0  0  0  0  0  0  0  0  0
   -5.8730   22.9880  -31.4350 S   0  0  0  0  0  0  0  0  0  0  0  0
   -6.3450   23.4820  -30.0930 O   0  0  0  0  0  0  0  0  0  0  0  0
   -6.0210   24.1030  -32.4370 O   0  0  0  0  0  0  0  0  0  0  0  0
   -4.2010   22.5410  -31.3220 N   0  0  0  0  0  0  0  0  0  0  0  0
   -3.3850   22.9310  -30.2160 C   0  0  0  0  0  0  0  0  0  0  0  0
   -2.8140   21.9570  -29.3940 C   0  0  0  0  0  0  0  0  0  0  0  0
   -2.0080   22.3040  -28.2880 C   0  0  0  0  0  0  0  0  0  0  0  0
   -1.6920   23.6810  -28.0790 C   0  0  0  0  0  0  0  0  0  0  0  0
   -2.3000   24.6470  -28.9120 C   0  0  0  0  0  0  0  0  0  0  0  0
   -3.1270   24.2810  -29.9720 C   0  0  0  0  0  0  0  0  0  0  0  0
   -3.6880   25.2820  -30.7670 O   0  0  0  0  0  0  0  0  0  0  0  0
   -0.7830   24.1550  -26.9320 C   0  0  0  0  0  0  0  0  0  0  0  0
    0.2590   25.1820  -27.4450 C   0  0  0  0  0  0  0  0  0  0  0  0
   -1.6530   24.8340  -25.8480 C   0  0  0  0  0  0  0  0  0  0  0  0
    0.0150   22.9800  -26.3130 C   0  0  0  0  0  0  0  0  0  0  0  0
   -0.8520   21.7480  -26.0860 C   0  0  0  0  0  0  0  0  0  0  0  0
   -1.4280   21.1870  -27.4090 C   0  0  0  0  0  0  0  0  0  0  0  0
   -0.3260   20.4460  -28.2010 C   0  0  0  0  0  0  0  0  0  0  0  0
   -2.5260   20.1680  -27.0200 C   0  0  0  0  0  0  0  0  0  0  0  0
   -6.2710   20.5470  -32.6290 C   0  0  0  0  0  0  0  0  0  0  0  0
   -4.3377   15.6993  -32.4965 H   0  0  0  0  0  0  0  0  0  0  0  0
   -5.2811   15.8106  -34.0211 H   0  0  0  0  0  0  0  0  0  0  0  0
   -3.5259   16.1926  -34.0211 H   0  0  0  0  0  0  0  0  0  0  0  0
   -3.1545   18.9815  -32.8373 H   0  0  0  0  0  0  0  0  0  0  0  0
   -3.0147   17.9336  -34.2895 H   0  0  0  0  0  0  0  0  0  0  0  0
   -4.1556   19.3211  -34.2895 H   0  0  0  0  0  0  0  0  0  0  0  0
   -9.0342   18.5762  -33.0525 H   0  0  0  0  0  0  0  0  0  0  0  0
  -10.0800   20.4764  -31.8232 H   0  0  0  0  0  0  0  0  0  0  0  0
   -8.6917   22.4214  -31.1072 H   0  0  0  0  0  0  0  0  0  0  0  0
   -2.9965   20.8947  -29.6134 H   0  0  0  0  0  0  0  0  0  0  0  0
   -2.1159   25.7142  -28.7189 H   0  0  0  0  0  0  0  0  0  0  0  0
   -4.2510   25.0760  -31.5820 H   0  0  0  0  0  0  0  0  0  0  0  0
    0.7498   25.6658  -26.5877 H   0  0  0  0  0  0  0  0  0  0  0  0
    1.0137   24.6648  -28.0557 H   0  0  0  0  0  0  0  0  0  0  0  0
   -0.2472   25.9441  -28.0557 H   0  0  0  0  0  0  0  0  0  0  0  0
   -1.2863   24.5478  -24.8512 H   0  0  0  0  0  0  0  0  0  0  0  0
   -1.5931   25.9265  -25.9610 H   0  0  0  0  0  0  0  0  0  0  0  0
   -2.6983   24.5105  -25.9610 H   0  0  0  0  0  0  0  0  0  0  0  0
    0.8371   22.7134  -26.9935 H   0  0  0  0  0  0  0  0  0  0  0  0
    0.3942   23.3095  -25.3344 H   0  0  0  0  0  0  0  0  0  0  0  0
   -0.2415   20.9686  -25.6066 H   0  0  0  0  0  0  0  0  0  0  0  0
   -1.6977   22.0430  -25.4475 H   0  0  0  0  0  0  0  0  0  0  0  0
    0.3762   19.9739  -27.4981 H   0  0  0  0  0  0  0  0  0  0  0  0
   -0.7862   19.6732  -28.8342 H   0  0  0  0  0  0  0  0  0  0  0  0
    0.2161   21.1638  -28.8342 H   0  0  0  0  0  0  0  0  0  0  0  0
   -2.5951   20.1039  -25.9240 H   0  0  0  0  0  0  0  0  0  0  0  0
   -3.4926   20.4962  -27.4297 H   0  0  0  0  0  0  0  0  0  0  0  0
   -2.2707   19.1796  -27.4297 H   0  0  0  0  0  0  0  0  0  0  0  0
   -5.1946   20.5665  -32.8550 H   0  0  0  0  0  0  0  0  0  0  0  0
  1  2  1  0
  2  3  1  0
  2  4  1  0
  4  5  2  0
  4  6  2  0
  4  7  1  0
  7  8  2  0
  8  9  1  0
  9 10  2  0
 10 11  1  0
 11 12  1  0
 12 13  2  0
 12 14  2  0
 12 15  1  0
 15 16  1  0
 16 17  2  0
 17 18  1  0
 18 19  2  0
 19 20  1  0
 20 21  2  0
 21 22  1  0
 19 23  1  0
 23 24  1  0
 23 25  1  0
 23 26  1  0
 26 27  1  0
 27 28  1  0
 28 29  1  0
 28 30  1  0
 11 31  2  0
 31  7  1  0
 21 16  1  0
 28 18  1  0
  1 32  1  0
  1 33  1  0
  1 34  1  0
  3 35  1  0
  3 36  1  0
  3 37  1  0
  8 38  1  0
  9 39  1  0
 10 40  1  0
 17 41  1  0
 20 42  1  0
 22 43  1  0
 24 44  1  0
 24 45  1  0
 24 46  1  0
 25 47  1  0
 25 48  1  0
 25 49  1  0
 26 50  1  0
 26 51  1  0
 27 52  1  0
 27 53  1  0
 29 54  1  0
 29 55  1  0
 29 56  1  0
 30 57  1  0
 30 58  1  0
 30 59  1  0
 31 60  1  0
M  CHG  1  15  -1
M  END
>  <UniqueID>  (29) 
27

>  <SMILES>  (29) 
CN(C)S(=O)(=O)c1cccc(S(=O)(=O)[N-]c2cc3c(cc2O)C(C)(C)CCC3(C)C)c1

>  <Energy>  (29) 
67.20450947835467

>  <Genealogy>  (29) 
CN(C)S(=O)(=O)c1cccc(S(=O)(=O)[N-]c2cc3c(cc2O)C(C)(C)CCC3(C)C)c1 (protonated)
CN(C)S(=O)(=O)c1cccc(S(=O)(=O)[N-]c2cc3c(cc2O)C(C)(C)CCC3(C)C)c1 (3D coordinates assigned)
CN(C)S(=O)(=O)c1cccc(S(=O)(=O)[N-]c2cc3c(cc2O)C(C)(C)CCC3(C)C)c1 (nonaromatic ring conformer: 67.20450947835467 kcal/mol)

>  <smiles>  (29) 
CN(C)S(=O)(=O)c1cccc(S(=O)(=O)Nc2cc3c(cc2O)C(C)(C)CCC3(C)C)c1

>  <score_type>  (29) 
oracle

>  <origin>  (29) 
adgpu

>  <m_score__min__energy>  (29) 
-11.66

>  <m_primary>  (29) 
energy

$$$$
29:0
     RDKit          3D

 49 53  0  0  0  0  0  0  0  0999 V2000
   -0.2380   23.0530  -30.0860 O   0  0  0  0  0  0  0  0  0  0  0  0
   -1.2150   22.6390  -29.4080 C   0  0  0  0  0  0  0  0  0  0  0  0
   -2.4190   23.4200  -29.3950 N   0  0  0  0  0  0  0  0  0  0  0  0
   -3.5430   23.2720  -30.2770 C   0  0  0  0  0  0  0  0  0  0  0  0
   -4.2440   24.4200  -30.6710 C   0  0  0  0  0  0  0  0  0  0  0  0
   -3.8620   25.6700  -30.1980 O   0  0  0  0  0  0  0  0  0  0  0  0
   -5.3200   24.3180  -31.5550 C   0  0  0  0  0  0  0  0  0  0  0  0
   -5.7120   23.0720  -32.0440 C   0  0  0  0  0  0  0  0  0  0  0  0
   -5.0520   21.9060  -31.6290 C   0  0  0  0  0  0  0  0  0  0  0  0
   -5.5840   20.3390  -32.2640 S   0  0  0  0  0  0  0  0  0  0  0  0
   -5.3720   19.2750  -31.2220 O   0  0  0  0  0  0  0  0  0  0  0  0
   -4.7390   19.9870  -33.4560 O   0  0  0  0  0  0  0  0  0  0  0  0
   -7.2640   20.3330  -32.7450 N   0  0  0  0  0  0  0  0  0  0  0  0
   -8.0820   21.2220  -31.9190 C   0  0  0  0  0  0  0  0  0  0  0  0
   -9.5010   20.6670  -31.9580 C   0  0  0  0  0  0  0  0  0  0  0  0
   -9.3690   19.2570  -32.5160 C   0  0  0  0  0  0  0  0  0  0  0  0
   -7.8740   19.0130  -32.6120 C   0  0  0  0  0  0  0  0  0  0  0  0
   -3.9730   22.0060  -30.7290 C   0  0  0  0  0  0  0  0  0  0  0  0
   -3.3480   20.8520  -30.2650 O   0  0  0  0  0  0  0  0  0  0  0  0
   -1.1040   21.3450  -28.6930 C   0  0  0  0  0  0  0  0  0  0  0  0
   -2.0600   20.9680  -27.7170 C   0  0  0  0  0  0  0  0  0  0  0  0
   -1.9280   19.7420  -27.0470 C   0  0  0  0  0  0  0  0  0  0  0  0
   -0.8840   18.9450  -27.3760 N   0  0  0  0  0  0  0  0  0  0  0  0
   -0.5890   17.7640  -26.8740 N   0  0  0  0  0  0  0  0  0  0  0  0
    0.5300   17.3850  -27.5370 C   0  0  0  0  0  0  0  0  0  0  0  0
    1.2170   16.1110  -27.3020 C   0  0  0  0  0  0  0  0  0  0  0  0
    1.3910   15.1000  -28.2260 C   0  0  0  0  0  0  0  0  0  0  0  0
    2.0860   14.1100  -27.5640 C   0  0  0  0  0  0  0  0  0  0  0  0
    2.2920   14.5770  -26.2820 C   0  0  0  0  0  0  0  0  0  0  0  0
    1.7630   15.7730  -26.1570 O   0  0  0  0  0  0  0  0  0  0  0  0
    0.9540   18.2980  -28.4500 N   0  0  0  0  0  0  0  0  0  0  0  0
    0.0240   19.2610  -28.3050 C   0  0  0  0  0  0  0  0  0  0  0  0
   -0.0460   20.4620  -29.0030 C   0  0  0  0  0  0  0  0  0  0  0  0
   -5.8606   25.2238  -31.8669 H   0  0  0  0  0  0  0  0  0  0  0  0
   -6.5443   23.0033  -32.7599 H   0  0  0  0  0  0  0  0  0  0  0  0
   -7.7065   21.2322  -30.8851 H   0  0  0  0  0  0  0  0  0  0  0  0
   -8.0491   22.2553  -32.2947 H   0  0  0  0  0  0  0  0  0  0  0  0
   -9.9322   20.6416  -30.9463 H   0  0  0  0  0  0  0  0  0  0  0  0
  -10.1668   21.2897  -32.5737 H   0  0  0  0  0  0  0  0  0  0  0  0
   -9.8375   18.5275  -31.8390 H   0  0  0  0  0  0  0  0  0  0  0  0
   -9.8695   19.1485  -33.4895 H   0  0  0  0  0  0  0  0  0  0  0  0
   -7.5085   18.5117  -31.7037 H   0  0  0  0  0  0  0  0  0  0  0  0
   -7.6234   18.3632  -33.4634 H   0  0  0  0  0  0  0  0  0  0  0  0
   -2.9035   21.6349  -27.4852 H   0  0  0  0  0  0  0  0  0  0  0  0
   -2.6518   19.4373  -26.2768 H   0  0  0  0  0  0  0  0  0  0  0  0
    1.0474   15.0870  -29.2709 H   0  0  0  0  0  0  0  0  0  0  0  0
    2.4108   13.1428  -27.9751 H   0  0  0  0  0  0  0  0  0  0  0  0
    2.8190   14.0309  -25.4858 H   0  0  0  0  0  0  0  0  0  0  0  0
    0.6986   20.7160  -29.7717 H   0  0  0  0  0  0  0  0  0  0  0  0
  1  2  2  0
  2  3  1  0
  3  4  1  0
  4  5  2  0
  5  6  1  0
  5  7  1  0
  7  8  2  0
  8  9  1  0
  9 10  1  0
 10 11  2  0
 10 12  2  0
 10 13  1  0
 13 14  1  0
 14 15  1  0
 15 16  1  0
 16 17  1  0
  9 18  2  0
 18 19  1  0
  2 20  1  0
 20 21  1  0
 21 22  2  0
 22 23  1  0
 23 24  1  0
 24 25  2  0
 25 26  1  0
 26 27  2  0
 27 28  1  0
 28 29  2  0
 29 30  1  0
 25 31  1  0
 31 32  2  0
 32 33  1  0
 18  4  1  0
 33 20  2  0
 17 13  1  0
 32 23  1  0
 30 26  1  0
  7 34  1  0
  8 35  1  0
 14 36  1  0
 14 37  1  0
 15 38  1  0
 15 39  1  0
 16 40  1  0
 16 41  1  0
 17 42  1  0
 17 43  1  0
 21 44  1  0
 22 45  1  0
 27 46  1  0
 28 47  1  0
 29 48  1  0
 33 49  1  0
M  CHG  3   3  -1   6  -1  19  -1
M  END
>  <UniqueID>  (30) 
28

>  <SMILES>  (30) 
O=C([N-]c1c([O-])ccc(S(=O)(=O)N2CCCC2)c1[O-])c1ccn2nc(-c3ccco3)nc2c1

>  <Energy>  (30) 
128.7136542737359

>  <Genealogy>  (30) 
O=C([N-]c1c([O-])ccc(S(=O)(=O)N2CCCC2)c1[O-])c1ccn2nc(-c3ccco3)nc2c1 (protonated)
O=C([N-]c1c([O-])ccc(S(=O)(=O)N2CCCC2)c1[O-])c1ccn2nc(-c3ccco3)nc2c1 (3D coordinates assigned)
O=C([N-]c1c([O-])ccc(S(=O)(=O)N2CCCC2)c1[O-])c1ccn2nc(-c3ccco3)nc2c1 (nonaromatic ring conformer: 128.7136542737359 kcal/mol)

>  <smiles>  (30) 
O=C(Nc1c(O)ccc(S(=O)(=O)N2CCCC2)c1O)c1ccn2nc(-c3ccco3)nc2c1

>  <score_type>  (30) 
oracle

>  <origin>  (30) 
adgpu

>  <m_score__min__energy>  (30) 
-15.31

>  <m_primary>  (30) 
energy

$$$$
30:0
     RDKit          3D

 35 36  0  0  0  0  0  0  0  0999 V2000
   -1.3340   21.3690  -27.0430 C   0  0  0  0  0  0  0  0  0  0  0  0
   -1.9440   22.3740  -27.9740 C   0  0  0  0  0  0  0  0  0  0  0  0
   -2.1910   23.6810  -27.5380 C   0  0  0  0  0  0  0  0  0  0  0  0
   -2.7210   24.6260  -28.4170 C   0  0  0  0  0  0  0  0  0  0  0  0
   -3.0010   24.2890  -29.7460 C   0  0  0  0  0  0  0  0  0  0  0  0
   -3.5030   25.2900  -30.5780 O   0  0  0  0  0  0  0  0  0  0  0  0
   -2.7570   22.9690  -30.2020 C   0  0  0  0  0  0  0  0  0  0  0  0
   -3.0830   22.5300  -31.6160 C   0  0  0  0  0  0  0  0  0  0  0  0
   -4.4650   22.0180  -31.7200 N   0  0  0  0  0  0  0  0  0  0  0  0
   -4.6850   20.6680  -31.6410 C   0  0  0  0  0  0  0  0  0  0  0  0
   -5.9760   20.1460  -31.7360 C   0  0  0  0  0  0  0  0  0  0  0  0
   -7.0600   21.0100  -31.8870 C   0  0  0  0  0  0  0  0  0  0  0  0
   -8.6950   20.3710  -32.0280 S   0  0  0  0  0  0  0  0  0  0  0  0
   -9.8550   21.5860  -31.4470 C   0  0  0  0  0  0  0  0  0  0  0  0
   -8.9910   20.0400  -33.4630 O   0  0  0  0  0  0  0  0  0  0  0  0
   -8.8240   19.1180  -31.2070 O   0  0  0  0  0  0  0  0  0  0  0  0
   -6.8340   22.3860  -31.9410 C   0  0  0  0  0  0  0  0  0  0  0  0
   -5.5280   22.8800  -31.8420 C   0  0  0  0  0  0  0  0  0  0  0  0
   -5.3500   24.1270  -31.8600 O   0  0  0  0  0  0  0  0  0  0  0  0
   -2.2110   22.0300  -29.3070 C   0  0  0  0  0  0  0  0  0  0  0  0
   -1.5189   21.6737  -26.0023 H   0  0  0  0  0  0  0  0  0  0  0  0
   -1.7856   20.3821  -27.2219 H   0  0  0  0  0  0  0  0  0  0  0  0
   -0.2500   21.3141  -27.2219 H   0  0  0  0  0  0  0  0  0  0  0  0
   -1.9665   23.9640  -26.4990 H   0  0  0  0  0  0  0  0  0  0  0  0
   -2.9210   25.6475  -28.0613 H   0  0  0  0  0  0  0  0  0  0  0  0
   -3.4940   25.2310  -31.5850 H   0  0  0  0  0  0  0  0  0  0  0  0
   -2.9688   23.3899  -32.2924 H   0  0  0  0  0  0  0  0  0  0  0  0
   -2.3932   21.7191  -31.8928 H   0  0  0  0  0  0  0  0  0  0  0  0
   -3.8330   19.9865  -31.5009 H   0  0  0  0  0  0  0  0  0  0  0  0
   -6.1374   19.0588  -31.6920 H   0  0  0  0  0  0  0  0  0  0  0  0
   -9.8602   21.5914  -30.3470 H   0  0  0  0  0  0  0  0  0  0  0  0
   -9.5617   22.5794  -31.8172 H   0  0  0  0  0  0  0  0  0  0  0  0
  -10.8610   21.3390  -31.8172 H   0  0  0  0  0  0  0  0  0  0  0  0
   -7.6790   23.0799  -32.0609 H   0  0  0  0  0  0  0  0  0  0  0  0
   -1.9904   21.0112  -29.6583 H   0  0  0  0  0  0  0  0  0  0  0  0
  1  2  1  0
  2  3  2  0
  3  4  1  0
  4  5  2  0
  5  6  1  0
  5  7  1  0
  7  8  1  0
  8  9  1  0
  9 10  1  0
 10 11  2  0
 11 12  1  0
 12 13  1  0
 13 14  1  0
 13 15  2  0
 13 16  2  0
 12 17  2  0
 17 18  1  0
 18 19  2  0
  7 20  2  0
 20  2  1  0
 18  9  1  0
  1 21  1  0
  1 22  1  0
  1 23  1  0
  3 24  1  0
  4 25  1  0
  6 26  1  0
  8 27  1  0
  8 28  1  0
 10 29  1  0
 11 30  1  0
 14 31  1  0
 14 32  1  0
 14 33  1  0
 17 34  1  0
 20 35  1  0
M  END
>  <UniqueID>  (31) 
29

>  <SMILES>  (31) 
Cc1ccc(O)c(Cn2ccc(S(C)(=O)=O)cc2=O)c1

>  <Energy>  (31) 
36.394383697058664

>  <Genealogy>  (31) 
Cc1ccc(O)c(Cn2ccc(S(C)(=O)=O)cc2=O)c1 (3D coordinates assigned)
Cc1ccc(O)c(Cn2ccc(S(C)(=O)=O)cc2=O)c1 (optimized conformer: 36.394383697058664 kcal/mol)

>  <smiles>  (31) 
Cc1ccc(O)c(Cn2ccc(S(C)(=O)=O)cc2=O)c1

>  <score_type>  (31) 
oracle

>  <origin>  (31) 
adgpu

>  <m_score__min__energy>  (31) 
-8.3399999999999999

>  <m_primary>  (31) 
energy

$$$$
31:0
     RDKit          3D

 47 49  0  0  0  0  0  0  0  0999 V2000
   -2.5420   24.8320  -26.7900 C   0  0  0  0  0  0  0  0  0  0  0  0
   -1.7770   25.1000  -28.0490 C   0  0  0  0  0  0  0  0  0  0  0  0
   -0.5310   25.2610  -27.9830 O   0  0  0  0  0  0  0  0  0  0  0  0
   -2.4270   25.2290  -29.3210 N   0  0  0  0  0  0  0  0  0  0  0  0
   -3.6200   24.5540  -29.7450 C   0  0  0  0  0  0  0  0  0  0  0  0
   -4.6120   25.2880  -30.4090 C   0  0  0  0  0  0  0  0  0  0  0  0
   -5.7560   24.6520  -30.8970 C   0  0  0  0  0  0  0  0  0  0  0  0
   -5.9150   23.2690  -30.7420 C   0  0  0  0  0  0  0  0  0  0  0  0
   -7.2510   22.4270  -31.5260 S   0  0  0  0  0  0  0  0  0  0  0  0
   -8.2890   23.4050  -31.9990 O   0  0  0  0  0  0  0  0  0  0  0  0
   -7.8830   21.4870  -30.5390 O   0  0  0  0  0  0  0  0  0  0  0  0
   -6.6350   21.5250  -32.8720 N   0  0  0  0  0  0  0  0  0  0  0  0
   -5.4960   20.6840  -32.6810 C   0  0  0  0  0  0  0  0  0  0  0  0
   -5.4330   19.3190  -32.9230 C   0  0  0  0  0  0  0  0  0  0  0  0
   -6.6010   18.4020  -33.1170 C   0  0  0  0  0  0  0  0  0  0  0  0
   -4.1320   18.9650  -33.0680 N   0  0  0  0  0  0  0  0  0  0  0  0
   -3.6430   17.6270  -33.4100 C   0  0  0  0  0  0  0  0  0  0  0  0
   -3.3770   20.0570  -32.9610 N   0  0  0  0  0  0  0  0  0  0  0  0
   -1.9740   20.1490  -33.2670 C   0  0  0  0  0  0  0  0  0  0  0  0
   -1.5490   20.3900  -34.5850 C   0  0  0  0  0  0  0  0  0  0  0  0
   -0.1870   20.5330  -34.8700 C   0  0  0  0  0  0  0  0  0  0  0  0
    0.7560   20.4460  -33.8420 C   0  0  0  0  0  0  0  0  0  0  0  0
    0.3390   20.2190  -32.5270 C   0  0  0  0  0  0  0  0  0  0  0  0
   -1.0230   20.0780  -32.2370 C   0  0  0  0  0  0  0  0  0  0  0  0
   -4.1870   21.1080  -32.7260 C   0  0  0  0  0  0  0  0  0  0  0  0
   -3.8040   22.3080  -32.6770 O   0  0  0  0  0  0  0  0  0  0  0  0
   -4.9210   22.5300  -30.0860 C   0  0  0  0  0  0  0  0  0  0  0  0
   -3.7750   23.1650  -29.6000 C   0  0  0  0  0  0  0  0  0  0  0  0
   -1.9064   25.0547  -25.9203 H   0  0  0  0  0  0  0  0  0  0  0  0
   -3.4378   25.4699  -26.7624 H   0  0  0  0  0  0  0  0  0  0  0  0
   -2.8439   23.7746  -26.7624 H   0  0  0  0  0  0  0  0  0  0  0  0
   -4.4890   26.3724  -30.5469 H   0  0  0  0  0  0  0  0  0  0  0  0
   -6.5350   25.2395  -31.4049 H   0  0  0  0  0  0  0  0  0  0  0  0
   -7.3070   21.2750  -33.6310 H   0  0  0  0  0  0  0  0  0  0  0  0
   -6.9926   18.0945  -32.1361 H   0  0  0  0  0  0  0  0  0  0  0  0
   -7.3888   18.9254  -33.6787 H   0  0  0  0  0  0  0  0  0  0  0  0
   -6.2795   17.5125  -33.6787 H   0  0  0  0  0  0  0  0  0  0  0  0
   -3.4375   17.0647  -32.4872 H   0  0  0  0  0  0  0  0  0  0  0  0
   -4.4057   17.0975  -33.9998 H   0  0  0  0  0  0  0  0  0  0  0  0
   -2.7186   17.7141  -33.9998 H   0  0  0  0  0  0  0  0  0  0  0  0
   -2.2896   20.4664  -35.3947 H   0  0  0  0  0  0  0  0  0  0  0  0
    0.1421   20.7141  -35.9039 H   0  0  0  0  0  0  0  0  0  0  0  0
    1.8269   20.5562  -34.0677 H   0  0  0  0  0  0  0  0  0  0  0  0
    1.0824   20.1511  -31.7191 H   0  0  0  0  0  0  0  0  0  0  0  0
   -1.3489   19.9112  -31.1997 H   0  0  0  0  0  0  0  0  0  0  0  0
   -5.0436   21.4450  -29.9531 H   0  0  0  0  0  0  0  0  0  0  0  0
   -2.9913   22.5752  -29.1020 H   0  0  0  0  0  0  0  0  0  0  0  0
  1  2  1  0
  2  3  2  0
  2  4  1  0
  4  5  1  0
  5  6  2  0
  6  7  1  0
  7  8  2  0
  8  9  1  0
  9 10  2  0
  9 11  2  0
  9 12  1  0
 12 13  1  0
 13 14  2  0
 14 15  1  0
 14 16  1  0
 16 17  1  0
 16 18  1  0
 18 19  1  0
 19 20  2  0
 20 21  1  0
 21 22  2  0
 22 23  1  0
 23 24  2  0
 18 25  1  0
 25 26  2  0
  8 27  1  0
 27 28  2  0
 28  5  1  0
 25 13  1  0
 24 19  1  0
  1 29  1  0
  1 30  1  0
  1 31  1  0
  6 32  1  0
  7 33  1  0
 12 34  1  0
 15 35  1  0
 15 36  1  0
 15 37  1  0
 17 38  1  0
 17 39  1  0
 17 40  1  0
 20 41  1  0
 21 42  1  0
 22 43  1  0
 23 44  1  0
 24 45  1  0
 27 46  1  0
 28 47  1  0
M  CHG  1   4  -1
M  END
>  <UniqueID>  (32) 
30

>  <SMILES>  (32) 
CC(=O)[N-]c1ccc(S(=O)(=O)Nc2c(C)n(C)n(-c3ccccc3)c2=O)cc1

>  <Energy>  (32) 
98.09492338198207

>  <Genealogy>  (32) 
CC(=O)[N-]c1ccc(S(=O)(=O)Nc2c(C)n(C)n(-c3ccccc3)c2=O)cc1 (protonated)
CC(=O)[N-]c1ccc(S(=O)(=O)Nc2c(C)n(C)n(-c3ccccc3)c2=O)cc1 (3D coordinates assigned)
CC(=O)[N-]c1ccc(S(=O)(=O)Nc2c(C)n(C)n(-c3ccccc3)c2=O)cc1 (optimized conformer: 98.09492338198207 kcal/mol)

>  <smiles>  (32) 
CC(=O)Nc1ccc(S(=O)(=O)Nc2c(C)n(C)n(-c3ccccc3)c2=O)cc1

>  <score_type>  (32) 
oracle

>  <origin>  (32) 
adgpu

>  <m_score__min__energy>  (32) 
-10.66

>  <m_primary>  (32) 
energy

$$$$
32:0
     RDKit          3D

 56 59  0  0  0  0  0  0  0  0999 V2000
   -5.5290   26.3540  -30.2890 O   0  0  0  0  0  0  0  0  0  0  0  0
   -4.9710   25.2620  -30.5870 C   0  0  0  0  0  0  0  0  0  0  0  0
   -3.5490   25.1250  -30.4620 N   0  0  0  0  0  0  0  0  0  0  0  0
   -2.8470   24.4050  -29.4370 C   0  0  0  0  0  0  0  0  0  0  0  0
   -1.7410   23.6280  -29.8010 C   0  0  0  0  0  0  0  0  0  0  0  0
   -1.0170   22.9270  -28.8310 C   0  0  0  0  0  0  0  0  0  0  0  0
   -1.3870   23.0070  -27.4820 C   0  0  0  0  0  0  0  0  0  0  0  0
   -0.4630   22.1490  -26.2520 S   0  0  0  0  0  0  0  0  0  0  0  0
   -0.7740   22.7200  -24.8950 O   0  0  0  0  0  0  0  0  0  0  0  0
    1.0050   22.3320  -26.5230 O   0  0  0  0  0  0  0  0  0  0  0  0
   -0.8600   20.4510  -26.3120 N   0  0  0  0  0  0  0  0  0  0  0  0
   -0.2440   19.8010  -27.4680 C   0  0  0  0  0  0  0  0  0  0  0  0
   -1.1290   18.6170  -27.8230 C   0  0  0  0  0  0  0  0  0  0  0  0
   -2.4730   18.9100  -27.1760 C   0  0  0  0  0  0  0  0  0  0  0  0
   -2.2990   20.2480  -26.4720 C   0  0  0  0  0  0  0  0  0  0  0  0
   -2.4710   23.8110  -27.1090 C   0  0  0  0  0  0  0  0  0  0  0  0
   -3.1970   24.5110  -28.0800 C   0  0  0  0  0  0  0  0  0  0  0  0
   -5.7930   24.1070  -31.0150 C   0  0  0  0  0  0  0  0  0  0  0  0
   -7.1930   24.1250  -30.8590 C   0  0  0  0  0  0  0  0  0  0  0  0
   -7.9640   23.0330  -31.2620 C   0  0  0  0  0  0  0  0  0  0  0  0
   -7.3540   21.9100  -31.8220 C   0  0  0  0  0  0  0  0  0  0  0  0
   -5.9640   21.8710  -31.9800 C   0  0  0  0  0  0  0  0  0  0  0  0
   -5.2050   20.4460  -32.6850 S   0  0  0  0  0  0  0  0  0  0  0  0
   -4.0610   20.8960  -33.5510 O   0  0  0  0  0  0  0  0  0  0  0  0
   -4.6750   19.5600  -31.5910 O   0  0  0  0  0  0  0  0  0  0  0  0
   -6.3850   19.5780  -33.6450 N   0  0  0  0  0  0  0  0  0  0  0  0
   -7.4160   18.9310  -32.8020 C   0  0  0  0  0  0  0  0  0  0  0  0
   -7.1560   17.4290  -32.5930 C   0  0  0  0  0  0  0  0  0  0  0  0
   -5.7710   17.1700  -32.5630 O   0  0  0  0  0  0  0  0  0  0  0  0
   -5.2080   17.3700  -33.8480 C   0  0  0  0  0  0  0  0  0  0  0  0
   -5.7410   18.6300  -34.5730 C   0  0  0  0  0  0  0  0  0  0  0  0
   -5.1870   22.9690  -31.5820 C   0  0  0  0  0  0  0  0  0  0  0  0
   -1.4392   23.5683  -30.8571 H   0  0  0  0  0  0  0  0  0  0  0  0
   -0.1551   22.3114  -29.1280 H   0  0  0  0  0  0  0  0  0  0  0  0
   -0.1906   20.5021  -28.3139 H   0  0  0  0  0  0  0  0  0  0  0  0
    0.7817   19.4755  -27.2403 H   0  0  0  0  0  0  0  0  0  0  0  0
   -1.2376   18.5311  -28.9142 H   0  0  0  0  0  0  0  0  0  0  0  0
   -0.7028   17.6667  -27.4690 H   0  0  0  0  0  0  0  0  0  0  0  0
   -3.2616   18.9767  -27.9400 H   0  0  0  0  0  0  0  0  0  0  0  0
   -2.7724   18.1155  -26.4767 H   0  0  0  0  0  0  0  0  0  0  0  0
   -2.7311   21.0562  -27.0804 H   0  0  0  0  0  0  0  0  0  0  0  0
   -2.8114   20.2540  -25.4987 H   0  0  0  0  0  0  0  0  0  0  0  0
   -2.7532   23.8929  -26.0490 H   0  0  0  0  0  0  0  0  0  0  0  0
   -4.0438   25.1458  -27.7800 H   0  0  0  0  0  0  0  0  0  0  0  0
   -7.6820   25.0054  -30.4167 H   0  0  0  0  0  0  0  0  0  0  0  0
   -9.0566   23.0581  -31.1375 H   0  0  0  0  0  0  0  0  0  0  0  0
   -7.9668   21.0536  -32.1399 H   0  0  0  0  0  0  0  0  0  0  0  0
   -7.4286   19.4259  -31.8197 H   0  0  0  0  0  0  0  0  0  0  0  0
   -8.3806   19.0319  -33.3211 H   0  0  0  0  0  0  0  0  0  0  0  0
   -7.6047   17.1126  -31.6398 H   0  0  0  0  0  0  0  0  0  0  0  0
   -7.6058   16.8695  -33.4264 H   0  0  0  0  0  0  0  0  0  0  0  0
   -4.1179   17.4680  -33.7379 H   0  0  0  0  0  0  0  0  0  0  0  0
   -5.4921   16.5023  -34.4615 H   0  0  0  0  0  0  0  0  0  0  0  0
   -4.8992   19.1361  -35.0682 H   0  0  0  0  0  0  0  0  0  0  0  0
   -6.4982   18.3046  -35.3015 H   0  0  0  0  0  0  0  0  0  0  0  0
   -4.0953   22.9410  -31.7138 H   0  0  0  0  0  0  0  0  0  0  0  0
  1  2  2  0
  2  3  1  0
  3  4  1  0
  4  5  2  0
  5  6  1  0
  6  7  2  0
  7  8  1  0
  8  9  2  0
  8 10  2  0
  8 11  1  0
 11 12  1  0
 12 13  1  0
 13 14  1  0
 14 15  1  0
  7 16  1  0
 16 17  2  0
  2 18  1  0
 18 19  2  0
 19 20  1  0
 20 21  2  0
 21 22  1  0
 22 23  1  0
 23 24  2  0
 23 25  2  0
 23 26  1  0
 26 27  1  0
 27 28  1  0
 28 29  1  0
 29 30  1  0
 30 31  1  0
 22 32  2  0
 17  4  1  0
 32 18  1  0
 15 11  1  0
 31 26  1  0
  5 33  1  0
  6 34  1  0
 12 35  1  0
 12 36  1  0
 13 37  1  0
 13 38  1  0
 14 39  1  0
 14 40  1  0
 15 41  1  0
 15 42  1  0
 16 43  1  0
 17 44  1  0
 19 45  1  0
 20 46  1  0
 21 47  1  0
 27 48  1  0
 27 49  1  0
 28 50  1  0
 28 51  1  0
 30 52  1  0
 30 53  1  0
 31 54  1  0
 31 55  1  0
 32 56  1  0
M  CHG  1   3  -1
M  END
>  <UniqueID>  (33) 
31

>  <SMILES>  (33) 
O=C([N-]c1ccc(S(=O)(=O)N2CCCC2)cc1)c1cccc(S(=O)(=O)N2CCOCC2)c1

>  <Energy>  (33) 
73.88498224416111

>  <Genealogy>  (33) 
O=C([N-]c1ccc(S(=O)(=O)N2CCCC2)cc1)c1cccc(S(=O)(=O)N2CCOCC2)c1 (protonated)
O=C([N-]c1ccc(S(=O)(=O)N2CCCC2)cc1)c1cccc(S(=O)(=O)N2CCOCC2)c1 (3D coordinates assigned)
O=C([N-]c1ccc(S(=O)(=O)N2CCCC2)cc1)c1cccc(S(=O)(=O)N2CCOCC2)c1 (nonaromatic ring conformer: 73.88498224416111 kcal/mol)

>  <smiles>  (33) 
O=C(Nc1ccc(S(=O)(=O)N2CCCC2)cc1)c1cccc(S(=O)(=O)N2CCOCC2)c1

>  <score_type>  (33) 
oracle

>  <origin>  (33) 
adgpu

>  <m_score__min__energy>  (33) 
-11.94

>  <m_primary>  (33) 
energy

$$$$
33:0
     RDKit          3D

 60 63  0  0  0  0  0  0  0  0999 V2000
   -9.1280   18.3270  -31.8610 C   0  0  0  0  0  0  0  0  0  0  0  0
   -8.0590   19.3700  -32.0050 C   0  0  0  0  0  0  0  0  0  0  0  0
   -8.1420   20.5680  -31.2800 C   0  0  0  0  0  0  0  0  0  0  0  0
   -7.1290   21.5260  -31.3850 C   0  0  0  0  0  0  0  0  0  0  0  0
   -6.0180   21.2920  -32.2050 C   0  0  0  0  0  0  0  0  0  0  0  0
   -4.7550   22.5060  -32.3750 S   0  0  0  0  0  0  0  0  0  0  0  0
   -5.3770   23.8720  -32.3040 O   0  0  0  0  0  0  0  0  0  0  0  0
   -4.0690   22.3690  -33.7070 O   0  0  0  0  0  0  0  0  0  0  0  0
   -3.5700   22.2910  -31.0850 C   0  0  0  0  0  0  0  0  0  0  0  0
   -3.2950   23.3440  -30.2020 C   0  0  0  0  0  0  0  0  0  0  0  0
   -2.3670   23.1800  -29.1660 C   0  0  0  0  0  0  0  0  0  0  0  0
   -2.0490   24.5130  -28.0600 S   0  0  0  0  0  0  0  0  0  0  0  0
   -1.5730   25.9090  -28.9600 N   0  0  0  0  0  0  0  0  0  0  0  0
   -0.9520   24.1240  -27.1090 O   0  0  0  0  0  0  0  0  0  0  0  0
   -3.2850   24.8370  -27.2680 O   0  0  0  0  0  0  0  0  0  0  0  0
   -1.7180   21.9500  -29.0080 C   0  0  0  0  0  0  0  0  0  0  0  0
   -1.9860   20.8960  -29.8830 C   0  0  0  0  0  0  0  0  0  0  0  0
   -2.9040   21.0620  -30.9360 C   0  0  0  0  0  0  0  0  0  0  0  0
   -3.2130   20.0050  -31.8080 O   0  0  0  0  0  0  0  0  0  0  0  0
   -2.3610   19.4770  -32.7870 C   0  0  0  0  0  0  0  0  0  0  0  0
   -1.4830   20.3430  -33.4480 C   0  0  0  0  0  0  0  0  0  0  0  0
   -0.6090   19.8550  -34.4240 C   0  0  0  0  0  0  0  0  0  0  0  0
   -0.5920   18.4880  -34.7350 C   0  0  0  0  0  0  0  0  0  0  0  0
    0.4910   17.8870  -35.9880 S   0  0  0  0  0  0  0  0  0  0  0  0
   -0.1090   16.6410  -36.5750 O   0  0  0  0  0  0  0  0  0  0  0  0
    0.6130   18.9090  -37.0840 O   0  0  0  0  0  0  0  0  0  0  0  0
    2.0650   17.5090  -35.3120 N   0  0  0  0  0  0  0  0  0  0  0  0
    2.3040   16.0530  -35.2570 C   0  0  0  0  0  0  0  0  0  0  0  0
    1.4690   15.3640  -34.1500 C   0  0  0  0  0  0  0  0  0  0  0  0
    0.9800   16.2610  -33.1670 O   0  0  0  0  0  0  0  0  0  0  0  0
    1.9770   17.1920  -32.8160 C   0  0  0  0  0  0  0  0  0  0  0  0
    2.2570   18.1520  -33.9890 C   0  0  0  0  0  0  0  0  0  0  0  0
   -1.4570   17.6140  -34.0620 C   0  0  0  0  0  0  0  0  0  0  0  0
   -2.3320   18.1040  -33.0880 C   0  0  0  0  0  0  0  0  0  0  0  0
   -5.9270   20.0900  -32.9200 C   0  0  0  0  0  0  0  0  0  0  0  0
   -6.9370   19.1290  -32.8140 C   0  0  0  0  0  0  0  0  0  0  0  0
   -9.3180   18.1416  -30.7935 H   0  0  0  0  0  0  0  0  0  0  0  0
  -10.0521   18.6802  -32.3420 H   0  0  0  0  0  0  0  0  0  0  0  0
   -8.7976   17.3945  -32.3420 H   0  0  0  0  0  0  0  0  0  0  0  0
   -9.0071   20.7544  -30.6266 H   0  0  0  0  0  0  0  0  0  0  0  0
   -7.2050   22.4675  -30.8212 H   0  0  0  0  0  0  0  0  0  0  0  0
   -3.8123   24.3071  -30.3236 H   0  0  0  0  0  0  0  0  0  0  0  0
   -1.6180   25.6510  -29.9720 H   0  0  0  0  0  0  0  0  0  0  0  0
   -0.9940   21.8134  -28.1912 H   0  0  0  0  0  0  0  0  0  0  0  0
   -1.4766   19.9304  -29.7485 H   0  0  0  0  0  0  0  0  0  0  0  0
   -1.4804   21.4143  -33.1982 H   0  0  0  0  0  0  0  0  0  0  0  0
    0.0672   20.5455  -34.9494 H   0  0  0  0  0  0  0  0  0  0  0  0
    2.7670   17.9160  -35.9740 H   0  0  0  0  0  0  0  0  0  0  0  0
    2.0354   15.6131  -36.2288 H   0  0  0  0  0  0  0  0  0  0  0  0
    3.3676   15.8942  -35.0256 H   0  0  0  0  0  0  0  0  0  0  0  0
    0.6106   14.8639  -34.6223 H   0  0  0  0  0  0  0  0  0  0  0  0
    2.1356   14.6552  -33.6370 H   0  0  0  0  0  0  0  0  0  0  0  0
    1.6390   17.7733  -31.9454 H   0  0  0  0  0  0  0  0  0  0  0  0
    2.9018   16.6480  -32.5733 H   0  0  0  0  0  0  0  0  0  0  0  0
    1.5736   19.0105  -33.9122 H   0  0  0  0  0  0  0  0  0  0  0  0
    3.3097   18.4634  -33.9201 H   0  0  0  0  0  0  0  0  0  0  0  0
   -1.4473   16.5403  -34.3008 H   0  0  0  0  0  0  0  0  0  0  0  0
   -3.0007   17.4123  -32.5548 H   0  0  0  0  0  0  0  0  0  0  0  0
   -5.0576   19.9019  -33.5671 H   0  0  0  0  0  0  0  0  0  0  0  0
   -6.8524   18.1813  -33.3660 H   0  0  0  0  0  0  0  0  0  0  0  0
  1  2  1  0
  2  3  2  0
  3  4  1  0
  4  5  2  0
  5  6  1  0
  6  7  2  0
  6  8  2  0
  6  9  1  0
  9 10  2  0
 10 11  1  0
 11 12  1  0
 12 13  1  0
 12 14  2  0
 12 15  2  0
 11 16  2  0
 16 17  1  0
 17 18  2  0
 18 19  1  0
 19 20  1  0
 20 21  2  0
 21 22  1  0
 22 23  2  0
 23 24  1  0
 24 25  2  0
 24 26  2  0
 24 27  1  0
 27 28  1  0
 28 29  1  0
 29 30  1  0
 30 31  1  0
 31 32  1  0
 23 33  1  0
 33 34  2  0
  5 35  1  0
 35 36  2  0
 36  2  1  0
 18  9  1  0
 34 20  1  0
 32 27  1  0
  1 37  1  0
  1 38  1  0
  1 39  1  0
  3 40  1  0
  4 41  1  0
 10 42  1  0
 13 43  1  0
 16 44  1  0
 17 45  1  0
 21 46  1  0
 22 47  1  0
 27 48  1  0
 28 49  1  0
 28 50  1  0
 29 51  1  0
 29 52  1  0
 31 53  1  0
 31 54  1  0
 32 55  1  0
 32 56  1  0
 33 57  1  0
 34 58  1  0
 35 59  1  0
 36 60  1  0
M  CHG  2  13  -1  27   1
M  END
>  <UniqueID>  (34) 
32

>  <SMILES>  (34) 
Cc1ccc(S(=O)(=O)c2cc(S([NH-])(=O)=O)ccc2Oc2ccc(S(=O)(=O)[NH+]3CCOCC3)cc2)cc1

>  <Energy>  (34) 
80.30335134453617

>  <Genealogy>  (34) 
Cc1ccc(S(=O)(=O)c2cc(S([NH-])(=O)=O)ccc2Oc2ccc(S(=O)(=O)[NH+]3CCOCC3)cc2)cc1 (protonated)
Cc1ccc(S(=O)(=O)c2cc(S([NH-])(=O)=O)ccc2Oc2ccc(S(=O)(=O)[NH+]3CCOCC3)cc2)cc1 (3D coordinates assigned)
Cc1ccc(S(=O)(=O)c2cc(S([NH-])(=O)=O)ccc2Oc2ccc(S(=O)(=O)[NH+]3CCOCC3)cc2)cc1 (nonaromatic ring conformer: 80.30335134453617 kcal/mol)

>  <smiles>  (34) 
Cc1ccc(S(=O)(=O)c2cc(S(N)(=O)=O)ccc2Oc2ccc(S(=O)(=O)N3CCOCC3)cc2)cc1

>  <score_type>  (34) 
oracle

>  <origin>  (34) 
adgpu

>  <m_score__min__energy>  (34) 
-11.220000000000001

>  <m_primary>  (34) 
energy

$$$$
34:0
     RDKit          3D

 49 51  0  0  0  0  0  0  0  0999 V2000
   -0.2080   27.1460  -22.9770 C   0  0  0  0  0  0  0  0  0  0  0  0
   -0.3350   26.5800  -24.3600 C   0  0  0  0  0  0  0  0  0  0  0  0
   -1.5970   26.4660  -24.9650 C   0  0  0  0  0  0  0  0  0  0  0  0
   -1.7120   25.9730  -26.2670 C   0  0  0  0  0  0  0  0  0  0  0  0
   -0.5670   25.5880  -26.9830 C   0  0  0  0  0  0  0  0  0  0  0  0
   -0.6890   25.0910  -28.3940 C   0  0  0  0  0  0  0  0  0  0  0  0
   -1.9960   25.4540  -28.9240 N   0  0  0  0  0  0  0  0  0  0  0  0
   -3.0240   24.5110  -29.2400 C   0  0  0  0  0  0  0  0  0  0  0  0
   -3.2690   23.5860  -28.4210 O   0  0  0  0  0  0  0  0  0  0  0  0
   -3.7460   24.5890  -30.4820 N   0  0  0  0  0  0  0  0  0  0  0  0
   -4.9650   23.8730  -30.7490 C   0  0  0  0  0  0  0  0  0  0  0  0
   -6.1120   24.5300  -31.2310 C   0  0  0  0  0  0  0  0  0  0  0  0
   -7.2760   23.8070  -31.5070 C   0  0  0  0  0  0  0  0  0  0  0  0
   -7.3060   22.4190  -31.3190 C   0  0  0  0  0  0  0  0  0  0  0  0
   -8.7580   21.4880  -31.6760 S   0  0  0  0  0  0  0  0  0  0  0  0
   -9.7840   22.3600  -32.3460 O   0  0  0  0  0  0  0  0  0  0  0  0
   -9.3280   20.9710  -30.3840 O   0  0  0  0  0  0  0  0  0  0  0  0
   -8.3460   20.1510  -32.7220 N   0  0  0  0  0  0  0  0  0  0  0  0
   -8.4690   18.8580  -32.0110 C   0  0  0  0  0  0  0  0  0  0  0  0
   -7.0980   18.2530  -31.6610 C   0  0  0  0  0  0  0  0  0  0  0  0
   -6.2760   18.0420  -32.8000 O   0  0  0  0  0  0  0  0  0  0  0  0
   -6.4200   19.0360  -33.8080 C   0  0  0  0  0  0  0  0  0  0  0  0
   -7.0090   20.3650  -33.3040 C   0  0  0  0  0  0  0  0  0  0  0  0
   -6.1590   21.7580  -30.8620 C   0  0  0  0  0  0  0  0  0  0  0  0
   -4.9940   22.4800  -30.5860 C   0  0  0  0  0  0  0  0  0  0  0  0
    0.6960   25.7350  -26.3900 C   0  0  0  0  0  0  0  0  0  0  0  0
    0.8110   26.2290  -25.0870 C   0  0  0  0  0  0  0  0  0  0  0  0
   -0.3863   26.3512  -22.2377 H   0  0  0  0  0  0  0  0  0  0  0  0
    0.8041   27.5543  -22.8394 H   0  0  0  0  0  0  0  0  0  0  0  0
   -0.9486   27.9476  -22.8394 H   0  0  0  0  0  0  0  0  0  0  0  0
   -2.4989   26.7662  -24.4114 H   0  0  0  0  0  0  0  0  0  0  0  0
   -2.7043   25.8860  -26.7336 H   0  0  0  0  0  0  0  0  0  0  0  0
    0.0975   25.5473  -29.0130 H   0  0  0  0  0  0  0  0  0  0  0  0
   -0.5778   23.9967  -28.4088 H   0  0  0  0  0  0  0  0  0  0  0  0
   -3.3150   25.1180  -31.2730 H   0  0  0  0  0  0  0  0  0  0  0  0
   -6.0926   25.6181  -31.3914 H   0  0  0  0  0  0  0  0  0  0  0  0
   -8.1719   24.3298  -31.8732 H   0  0  0  0  0  0  0  0  0  0  0  0
   -9.0334   19.0180  -31.0805 H   0  0  0  0  0  0  0  0  0  0  0  0
   -8.9877   18.1541  -32.6785 H   0  0  0  0  0  0  0  0  0  0  0  0
   -6.5776   18.9380  -30.9755 H   0  0  0  0  0  0  0  0  0  0  0  0
   -7.2803   17.2706  -31.2010 H   0  0  0  0  0  0  0  0  0  0  0  0
   -5.4274   19.2391  -34.2364 H   0  0  0  0  0  0  0  0  0  0  0  0
   -7.1297   18.6360  -34.5471 H   0  0  0  0  0  0  0  0  0  0  0  0
   -6.3438   20.7875  -32.5365 H   0  0  0  0  0  0  0  0  0  0  0  0
   -7.0982   21.0586  -34.1531 H   0  0  0  0  0  0  0  0  0  0  0  0
   -6.1748   20.6673  -30.7198 H   0  0  0  0  0  0  0  0  0  0  0  0
   -4.0937   21.9520  -30.2386 H   0  0  0  0  0  0  0  0  0  0  0  0
    1.6002   25.4603  -26.9529 H   0  0  0  0  0  0  0  0  0  0  0  0
    1.8052   26.3427  -24.6303 H   0  0  0  0  0  0  0  0  0  0  0  0
  1  2  1  0
  2  3  2  0
  3  4  1  0
  4  5  2  0
  5  6  1  0
  6  7  1  0
  7  8  1  0
  8  9  2  0
  8 10  1  0
 10 11  1  0
 11 12  2  0
 12 13  1  0
 13 14  2  0
 14 15  1  0
 15 16  2  0
 15 17  2  0
 15 18  1  0
 18 19  1  0
 19 20  1  0
 20 21  1  0
 21 22  1  0
 22 23  1  0
 14 24  1  0
 24 25  2  0
  5 26  1  0
 26 27  2  0
 27  2  1  0
 25 11  1  0
 23 18  1  0
  1 28  1  0
  1 29  1  0
  1 30  1  0
  3 31  1  0
  4 32  1  0
  6 33  1  0
  6 34  1  0
 10 35  1  0
 12 36  1  0
 13 37  1  0
 19 38  1  0
 19 39  1  0
 20 40  1  0
 20 41  1  0
 22 42  1  0
 22 43  1  0
 23 44  1  0
 23 45  1  0
 24 46  1  0
 25 47  1  0
 26 48  1  0
 27 49  1  0
M  CHG  1   7  -1
M  END
>  <UniqueID>  (35) 
33

>  <SMILES>  (35) 
Cc1ccc(C[N-]C(=O)Nc2ccc(S(=O)(=O)N3CCOCC3)cc2)cc1

>  <Energy>  (35) 
62.5287967138689

>  <Genealogy>  (35) 
Cc1ccc(C[N-]C(=O)Nc2ccc(S(=O)(=O)N3CCOCC3)cc2)cc1 (protonated)
Cc1ccc(C[N-]C(=O)Nc2ccc(S(=O)(=O)N3CCOCC3)cc2)cc1 (3D coordinates assigned)
Cc1ccc(C[N-]C(=O)Nc2ccc(S(=O)(=O)N3CCOCC3)cc2)cc1 (nonaromatic ring conformer: 62.5287967138689 kcal/mol)

>  <smiles>  (35) 
Cc1ccc(CNC(=O)Nc2ccc(S(=O)(=O)N3CCOCC3)cc2)cc1

>  <score_type>  (35) 
oracle

>  <origin>  (35) 
adgpu

>  <m_score__min__energy>  (35) 
-10.960000000000001

>  <m_primary>  (35) 
energy

$$$$
35:0
     RDKit          3D

 51 54  0  0  0  0  0  0  0  0999 V2000
   -3.5270   25.5770  -28.9110 H   0  0  0  0  0  0  0  0  0  0  0  0
   -2.8010   24.9350  -29.2990 N   0  0  0  0  0  0  0  0  0  0  0  0
   -3.1200   23.9250  -30.0400 C   0  0  0  0  0  0  0  0  0  0  0  0
   -4.4230   23.6730  -30.3320 N   0  0  0  0  0  0  0  0  0  0  0  0
   -4.7870   22.6160  -31.1070 C   0  0  0  0  0  0  0  0  0  0  0  0
   -6.2260   22.3930  -31.4020 C   0  0  0  0  0  0  0  0  0  0  0  0
   -7.1340   23.4680  -31.4740 C   0  0  0  0  0  0  0  0  0  0  0  0
   -6.7808   24.4946  -31.2970 H   0  0  0  0  0  0  0  0  0  0  0  0
   -8.4810   23.2380  -31.7690 C   0  0  0  0  0  0  0  0  0  0  0  0
   -9.1835   24.0830  -31.8192 H   0  0  0  0  0  0  0  0  0  0  0  0
   -8.9370   21.9390  -32.0000 C   0  0  0  0  0  0  0  0  0  0  0  0
   -9.9989   21.7628  -32.2267 H   0  0  0  0  0  0  0  0  0  0  0  0
   -8.0470   20.8600  -31.9440 C   0  0  0  0  0  0  0  0  0  0  0  0
   -8.6200   19.2190  -32.2540 S   0  0  0  0  0  0  0  0  0  0  0  0
   -9.8740   19.2830  -33.0820 O   0  0  0  0  0  0  0  0  0  0  0  0
   -8.9610   18.5600  -30.9450 O   0  0  0  0  0  0  0  0  0  0  0  0
   -7.4210   18.2630  -33.0890 N   0  0  0  0  0  0  0  0  0  0  0  0
   -7.9330   17.6260  -33.7460 H   0  0  0  0  0  0  0  0  0  0  0  0
   -6.6510   17.4480  -32.1320 C   0  0  0  0  0  0  0  0  0  0  0  0
   -6.1952   18.1056  -31.3771 H   0  0  0  0  0  0  0  0  0  0  0  0
   -7.3262   16.7309  -31.6422 H   0  0  0  0  0  0  0  0  0  0  0  0
   -5.5460   16.6780  -32.8700 C   0  0  0  0  0  0  0  0  0  0  0  0
   -4.9593   16.1009  -32.1401 H   0  0  0  0  0  0  0  0  0  0  0  0
   -6.0143   16.0043  -33.6027 H   0  0  0  0  0  0  0  0  0  0  0  0
   -4.6870   17.5680  -33.5560 O   0  0  0  0  0  0  0  0  0  0  0  0
   -5.4200   18.2880  -34.5290 C   0  0  0  0  0  0  0  0  0  0  0  0
   -4.7361   18.9529  -35.0770 H   0  0  0  0  0  0  0  0  0  0  0  0
   -5.8906   17.5714  -35.2182 H   0  0  0  0  0  0  0  0  0  0  0  0
   -6.5200   19.1310  -33.8680 C   0  0  0  0  0  0  0  0  0  0  0  0
   -6.0584   19.8715  -33.1982 H   0  0  0  0  0  0  0  0  0  0  0  0
   -7.0997   19.6446  -34.6492 H   0  0  0  0  0  0  0  0  0  0  0  0
   -6.6960   21.0890  -31.6450 C   0  0  0  0  0  0  0  0  0  0  0  0
   -5.9969   20.2409  -31.6000 H   0  0  0  0  0  0  0  0  0  0  0  0
   -3.7880   21.7770  -31.6260 C   0  0  0  0  0  0  0  0  0  0  0  0
   -4.0537   20.9258  -32.2701 H   0  0  0  0  0  0  0  0  0  0  0  0
   -2.4430   22.0400  -31.3110 C   0  0  0  0  0  0  0  0  0  0  0  0
   -1.3740   21.2070  -31.8130 N   0  0  0  0  0  0  0  0  0  0  0  0
   -1.1510   21.1200  -33.2620 C   0  0  0  0  0  0  0  0  0  0  0  0
   -1.7960   20.3343  -33.6822 H   0  0  0  0  0  0  0  0  0  0  0  0
   -1.3926   22.0901  -33.7209 H   0  0  0  0  0  0  0  0  0  0  0  0
    0.3140   20.7810  -33.5530 C   0  0  0  0  0  0  0  0  0  0  0  0
    0.4306   20.5783  -34.6279 H   0  0  0  0  0  0  0  0  0  0  0  0
    0.9396   21.6351  -33.2543 H   0  0  0  0  0  0  0  0  0  0  0  0
    0.7210   19.6430  -32.8200 O   0  0  0  0  0  0  0  0  0  0  0  0
    0.7060   19.9410  -31.4380 C   0  0  0  0  0  0  0  0  0  0  0  0
    1.1217   19.0884  -30.8810 H   0  0  0  0  0  0  0  0  0  0  0  0
    1.3111   20.8433  -31.2659 H   0  0  0  0  0  0  0  0  0  0  0  0
   -0.7230   20.2090  -30.9530 C   0  0  0  0  0  0  0  0  0  0  0  0
   -1.2986   19.2721  -30.9842 H   0  0  0  0  0  0  0  0  0  0  0  0
   -0.6854   20.5937  -29.9231 H   0  0  0  0  0  0  0  0  0  0  0  0
   -2.1490   23.1120  -30.5270 N   0  0  0  0  0  0  0  0  0  0  0  0
  1  2  1  0
  2  3  2  0
  3  4  1  0
  4  5  2  0
  5  6  1  0
  6  7  2  0
  7  8  1  0
  7  9  1  0
  9 10  1  0
  9 11  2  0
 11 12  1  0
 11 13  1  0
 13 14  1  0
 14 15  2  0
 14 16  2  0
 14 17  1  0
 17 18  1  0
 17 19  1  0
 19 20  1  0
 19 21  1  0
 19 22  1  0
 22 23  1  0
 22 24  1  0
 22 25  1  0
 25 26  1  0
 26 27  1  0
 26 28  1  0
 26 29  1  0
 29 30  1  0
 29 31  1  0
 13 32  2  0
 32 33  1  0
  5 34  1  0
 34 35  1  0
 34 36  2  0
 36 37  1  0
 37 38  1  0
 38 39  1  0
 38 40  1  0
 38 41  1  0
 41 42  1  0
 41 43  1  0
 41 44  1  0
 44 45  1  0
 45 46  1  0
 45 47  1  0
 45 48  1  0
 48 49  1  0
 48 50  1  0
 36 51  1  0
 51  3  1  0
 32  6  1  0
 48 37  1  0
 29 17  1  0
M  CHG  2  17   1  51  -1
M  END
>  <UniqueID>  (36) 
34

>  <SMILES>  (36) 
[H]/N=c1\nc(-c2cccc(S(=O)(=O)[NH+]3CCOCC3)c2)cc(N2CCOCC2)[n-]1

>  <Energy>  (36) 
61.477409053453464

>  <Genealogy>  (36) 
N=c1nc(-c2cccc(S(=O)(=O)[NH+]3CCOCC3)c2)cc(N2CCOCC2)[n-]1 (protonated)
[H]/N=c1\nc(-c2cccc(S(=O)(=O)[NH+]3CCOCC3)c2)cc(N2CCOCC2)[n-]1 (cis-trans isomerization)
[H]/N=c1\nc(-c2cccc(S(=O)(=O)[NH+]3CCOCC3)c2)cc(N2CCOCC2)[n-]1 (3D coordinates assigned)
[H]/N=c1\nc(-c2cccc(S(=O)(=O)[NH+]3CCOCC3)c2)cc(N2CCOCC2)[n-]1 (nonaromatic ring conformer: 61.477409053453464 kcal/mol)

>  <smiles>  (36) 
N=c1nc(-c2cccc(S(=O)(=O)N3CCOCC3)c2)cc(N2CCOCC2)[nH]1

>  <score_type>  (36) 
oracle

>  <origin>  (36) 
adgpu

>  <m_score__min__energy>  (36) 
-9.7699999999999996

>  <m_primary>  (36) 
energy

$$$$
36:0
     RDKit          3D

 61 65  0  0  0  0  0  0  0  0999 V2000
   -5.3600   26.8470  -30.4570 O   0  0  0  0  0  0  0  0  0  0  0  0
   -4.9820   25.6470  -30.5230 C   0  0  0  0  0  0  0  0  0  0  0  0
   -5.6580   24.6880  -31.4590 C   0  0  0  0  0  0  0  0  0  0  0  0
   -5.5950   23.3250  -30.9120 N   0  0  0  0  0  0  0  0  0  0  0  0
   -7.0520   22.3720  -30.8110 S   0  0  0  0  0  0  0  0  0  0  0  0
   -7.3300   22.0420  -29.3700 O   0  0  0  0  0  0  0  0  0  0  0  0
   -8.2240   23.1340  -31.3690 O   0  0  0  0  0  0  0  0  0  0  0  0
   -6.8640   20.9020  -31.7650 C   0  0  0  0  0  0  0  0  0  0  0  0
   -7.9560   20.0420  -31.9190 C   0  0  0  0  0  0  0  0  0  0  0  0
   -7.8420   18.8990  -32.7130 C   0  0  0  0  0  0  0  0  0  0  0  0
   -6.6400   18.6140  -33.3640 C   0  0  0  0  0  0  0  0  0  0  0  0
   -5.5380   19.4790  -33.2320 C   0  0  0  0  0  0  0  0  0  0  0  0
   -4.2880   19.2010  -33.8860 N   0  0  0  0  0  0  0  0  0  0  0  0
   -3.0110   19.3040  -33.2320 C   0  0  0  0  0  0  0  0  0  0  0  0
   -2.9510   19.2810  -31.9700 O   0  0  0  0  0  0  0  0  0  0  0  0
   -1.7550   19.3830  -34.0180 C   0  0  0  0  0  0  0  0  0  0  0  0
   -1.2240   18.2460  -34.6520 C   0  0  0  0  0  0  0  0  0  0  0  0
   -0.0410   18.3350  -35.3920 C   0  0  0  0  0  0  0  0  0  0  0  0
    0.6220   19.5630  -35.5220 C   0  0  0  0  0  0  0  0  0  0  0  0
    2.1130   19.6730  -36.4600 S   0  0  0  0  0  0  0  0  0  0  0  0
    2.2930   21.0950  -36.9150 O   0  0  0  0  0  0  0  0  0  0  0  0
    1.9850   18.8120  -37.6900 O   0  0  0  0  0  0  0  0  0  0  0  0
    3.5260   19.1720  -35.5520 N   0  0  0  0  0  0  0  0  0  0  0  0
    3.5340   17.7240  -35.2680 C   0  0  0  0  0  0  0  0  0  0  0  0
    2.6770   17.3450  -34.0370 C   0  0  0  0  0  0  0  0  0  0  0  0
    2.2500   18.4630  -33.2830 O   0  0  0  0  0  0  0  0  0  0  0  0
    3.3400   19.3250  -33.0500 C   0  0  0  0  0  0  0  0  0  0  0  0
    3.7700   20.0090  -34.3570 C   0  0  0  0  0  0  0  0  0  0  0  0
    0.0950   20.7000  -34.8980 C   0  0  0  0  0  0  0  0  0  0  0  0
   -1.0860   20.6130  -34.1560 C   0  0  0  0  0  0  0  0  0  0  0  0
   -5.6550   20.6140  -32.4140 C   0  0  0  0  0  0  0  0  0  0  0  0
   -4.3560   22.8710  -30.3300 C   0  0  0  0  0  0  0  0  0  0  0  0
   -3.9760   21.5180  -30.3510 C   0  0  0  0  0  0  0  0  0  0  0  0
   -2.7780   21.1160  -29.7510 C   0  0  0  0  0  0  0  0  0  0  0  0
   -1.9480   22.0590  -29.1350 C   0  0  0  0  0  0  0  0  0  0  0  0
   -2.3070   23.4090  -29.1290 C   0  0  0  0  0  0  0  0  0  0  0  0
   -3.4990   23.8190  -29.7360 C   0  0  0  0  0  0  0  0  0  0  0  0
   -3.8610   25.2050  -29.7520 N   0  0  0  0  0  0  0  0  0  0  0  0
   -6.7105   24.9821  -31.5847 H   0  0  0  0  0  0  0  0  0  0  0  0
   -5.1461   24.7111  -32.4324 H   0  0  0  0  0  0  0  0  0  0  0  0
   -8.9069   20.2665  -31.4135 H   0  0  0  0  0  0  0  0  0  0  0  0
   -8.7012   18.2215  -32.8259 H   0  0  0  0  0  0  0  0  0  0  0  0
   -6.5541   17.7088  -33.9831 H   0  0  0  0  0  0  0  0  0  0  0  0
   -4.3190   18.7750  -34.8390 H   0  0  0  0  0  0  0  0  0  0  0  0
   -1.7427   17.2799  -34.5653 H   0  0  0  0  0  0  0  0  0  0  0  0
    0.3714   17.4367  -35.8746 H   0  0  0  0  0  0  0  0  0  0  0  0
    3.1400   17.1922  -36.1466 H   0  0  0  0  0  0  0  0  0  0  0  0
    4.5728   17.4377  -35.0467 H   0  0  0  0  0  0  0  0  0  0  0  0
    1.7877   16.7998  -34.3860 H   0  0  0  0  0  0  0  0  0  0  0  0
    3.3092   16.7317  -33.3781 H   0  0  0  0  0  0  0  0  0  0  0  0
    3.0455   20.0924  -32.3190 H   0  0  0  0  0  0  0  0  0  0  0  0
    4.1838   18.7365  -32.6606 H   0  0  0  0  0  0  0  0  0  0  0  0
    3.2057   20.9471  -34.4644 H   0  0  0  0  0  0  0  0  0  0  0  0
    4.8536   20.1879  -34.2950 H   0  0  0  0  0  0  0  0  0  0  0  0
    0.6127   21.6660  -34.9922 H   0  0  0  0  0  0  0  0  0  0  0  0
   -1.4960   21.5137  -33.6758 H   0  0  0  0  0  0  0  0  0  0  0  0
   -4.7915   21.2825  -32.2812 H   0  0  0  0  0  0  0  0  0  0  0  0
   -4.6218   20.7739  -30.8401 H   0  0  0  0  0  0  0  0  0  0  0  0
   -2.4876   20.0551  -29.7635 H   0  0  0  0  0  0  0  0  0  0  0  0
   -1.0120   21.7371  -28.6551 H   0  0  0  0  0  0  0  0  0  0  0  0
   -1.6523   24.1499  -28.6469 H   0  0  0  0  0  0  0  0  0  0  0  0
  1  2  2  0
  2  3  1  0
  3  4  1  0
  4  5  1  0
  5  6  2  0
  5  7  2  0
  5  8  1  0
  8  9  2  0
  9 10  1  0
 10 11  2  0
 11 12  1  0
 12 13  1  0
 13 14  1  0
 14 15  2  0
 14 16  1  0
 16 17  2  0
 17 18  1  0
 18 19  2  0
 19 20  1  0
 20 21  2  0
 20 22  2  0
 20 23  1  0
 23 24  1  0
 24 25  1  0
 25 26  1  0
 26 27  1  0
 27 28  1  0
 19 29  1  0
 29 30  2  0
 12 31  2  0
  4 32  1  0
 32 33  2  0
 33 34  1  0
 34 35  2  0
 35 36  1  0
 36 37  2  0
 37 38  1  0
 38  2  1  0
 31  8  1  0
 37 32  1  0
 30 16  1  0
 28 23  1  0
  3 39  1  0
  3 40  1  0
  9 41  1  0
 10 42  1  0
 11 43  1  0
 13 44  1  0
 17 45  1  0
 18 46  1  0
 24 47  1  0
 24 48  1  0
 25 49  1  0
 25 50  1  0
 27 51  1  0
 27 52  1  0
 28 53  1  0
 28 54  1  0
 29 55  1  0
 30 56  1  0
 31 57  1  0
 33 58  1  0
 34 59  1  0
 35 60  1  0
 36 61  1  0
M  CHG  1  38  -1
M  END
>  <UniqueID>  (37) 
35

>  <SMILES>  (37) 
O=C1CN(S(=O)(=O)c2cccc(NC(=O)c3ccc(S(=O)(=O)N4CCOCC4)cc3)c2)c2ccccc2[N-]1

>  <Energy>  (37) 
88.61365255451264

>  <Genealogy>  (37) 
O=C1CN(S(=O)(=O)c2cccc(NC(=O)c3ccc(S(=O)(=O)N4CCOCC4)cc3)c2)c2ccccc2[N-]1 (protonated)
O=C1CN(S(=O)(=O)c2cccc(NC(=O)c3ccc(S(=O)(=O)N4CCOCC4)cc3)c2)c2ccccc2[N-]1 (3D coordinates assigned)
O=C1CN(S(=O)(=O)c2cccc(NC(=O)c3ccc(S(=O)(=O)N4CCOCC4)cc3)c2)c2ccccc2[N-]1 (nonaromatic ring conformer: 88.61365255451264 kcal/mol)

>  <smiles>  (37) 
O=C1CN(S(=O)(=O)c2cccc(NC(=O)c3ccc(S(=O)(=O)N4CCOCC4)cc3)c2)c2ccccc2N1

>  <score_type>  (37) 
oracle

>  <origin>  (37) 
adgpu

>  <m_score__min__energy>  (37) 
-11.289999999999999

>  <m_primary>  (37) 
energy

$$$$
37:0
     RDKit          3D

 61 63  0  0  0  0  0  0  0  0999 V2000
   -0.9880   19.4480  -27.4470 C   0  0  0  0  0  0  0  0  0  0  0  0
   -2.2310   19.8500  -28.2310 C   0  0  0  0  0  0  0  0  0  0  0  0
   -1.9770   21.0840  -28.9930 N   0  0  0  0  0  0  0  0  0  0  0  0
   -1.8390   21.1840  -30.3400 C   0  0  0  0  0  0  0  0  0  0  0  0
   -1.7780   20.0550  -31.2880 C   0  0  0  0  0  0  0  0  0  0  0  0
   -0.8540   19.2060  -31.1720 O   0  0  0  0  0  0  0  0  0  0  0  0
   -2.7730   19.8880  -32.3050 N   0  0  0  0  0  0  0  0  0  0  0  0
   -2.5150   19.1260  -33.5240 C   0  0  0  0  0  0  0  0  0  0  0  0
   -3.6270   18.1400  -33.7560 C   0  0  0  0  0  0  0  0  0  0  0  0
   -3.6040   16.8900  -33.1200 C   0  0  0  0  0  0  0  0  0  0  0  0
   -4.6720   16.0020  -33.2680 C   0  0  0  0  0  0  0  0  0  0  0  0
   -5.7870   16.3600  -34.0390 C   0  0  0  0  0  0  0  0  0  0  0  0
   -6.9240   15.3970  -34.2150 C   0  0  0  0  0  0  0  0  0  0  0  0
   -5.8030   17.6000  -34.6930 C   0  0  0  0  0  0  0  0  0  0  0  0
   -4.7350   18.4890  -34.5440 C   0  0  0  0  0  0  0  0  0  0  0  0
   -1.9580   22.5000  -30.7400 C   0  0  0  0  0  0  0  0  0  0  0  0
   -2.1870   23.2420  -29.6010 C   0  0  0  0  0  0  0  0  0  0  0  0
   -2.6300   24.6490  -29.6120 C   0  0  0  0  0  0  0  0  0  0  0  0
   -1.9820   25.5140  -28.9650 O   0  0  0  0  0  0  0  0  0  0  0  0
   -3.7010   25.0620  -30.4610 N   0  0  0  0  0  0  0  0  0  0  0  0
   -5.0900   24.9620  -30.0340 C   0  0  0  0  0  0  0  0  0  0  0  0
   -5.6930   23.7070  -30.6040 C   0  0  0  0  0  0  0  0  0  0  0  0
   -5.0460   23.0260  -31.6470 C   0  0  0  0  0  0  0  0  0  0  0  0
   -5.6600   21.9350  -32.2660 C   0  0  0  0  0  0  0  0  0  0  0  0
   -6.9310   21.5120  -31.8540 C   0  0  0  0  0  0  0  0  0  0  0  0
   -7.7130   20.1540  -32.6540 S   0  0  0  0  0  0  0  0  0  0  0  0
   -7.3510   18.6510  -31.7750 C   0  0  0  0  0  0  0  0  0  0  0  0
   -7.2140   20.0370  -34.0680 O   0  0  0  0  0  0  0  0  0  0  0  0
   -9.2000   20.3730  -32.6850 O   0  0  0  0  0  0  0  0  0  0  0  0
   -7.5860   22.1980  -30.8220 C   0  0  0  0  0  0  0  0  0  0  0  0
   -6.9720   23.2900  -30.2010 C   0  0  0  0  0  0  0  0  0  0  0  0
   -2.1710   22.3480  -28.5340 C   0  0  0  0  0  0  0  0  0  0  0  0
   -2.4700   22.6960  -27.1000 C   0  0  0  0  0  0  0  0  0  0  0  0
   -1.1966   19.5155  -26.3691 H   0  0  0  0  0  0  0  0  0  0  0  0
   -0.7113   18.4146  -27.7029 H   0  0  0  0  0  0  0  0  0  0  0  0
   -0.1586   20.1237  -27.7029 H   0  0  0  0  0  0  0  0  0  0  0  0
   -2.4979   19.0417  -28.9277 H   0  0  0  0  0  0  0  0  0  0  0  0
   -3.0568   20.0279  -27.5264 H   0  0  0  0  0  0  0  0  0  0  0  0
   -3.7070   20.3420  -32.1840 H   0  0  0  0  0  0  0  0  0  0  0  0
   -2.4543   19.8153  -34.3791 H   0  0  0  0  0  0  0  0  0  0  0  0
   -1.5649   18.5820  -33.4170 H   0  0  0  0  0  0  0  0  0  0  0  0
   -2.7397   16.6074  -32.5010 H   0  0  0  0  0  0  0  0  0  0  0  0
   -4.6382   15.0179  -32.7777 H   0  0  0  0  0  0  0  0  0  0  0  0
   -7.2947   15.0830  -33.2281 H   0  0  0  0  0  0  0  0  0  0  0  0
   -7.7359   15.8863  -34.7730 H   0  0  0  0  0  0  0  0  0  0  0  0
   -6.5750   14.5156  -34.7730 H   0  0  0  0  0  0  0  0  0  0  0  0
   -6.6597   17.8743  -35.3260 H   0  0  0  0  0  0  0  0  0  0  0  0
   -4.7628   19.4670  -35.0467 H   0  0  0  0  0  0  0  0  0  0  0  0
   -1.8843   22.8825  -31.7687 H   0  0  0  0  0  0  0  0  0  0  0  0
   -5.1357   24.9262  -28.9355 H   0  0  0  0  0  0  0  0  0  0  0  0
   -5.6510   25.8377  -30.3924 H   0  0  0  0  0  0  0  0  0  0  0  0
   -4.0497   23.3535  -31.9787 H   0  0  0  0  0  0  0  0  0  0  0  0
   -5.1438   21.4055  -33.0804 H   0  0  0  0  0  0  0  0  0  0  0  0
   -7.3964   18.8395  -30.6922 H   0  0  0  0  0  0  0  0  0  0  0  0
   -8.0895   17.8816  -32.0445 H   0  0  0  0  0  0  0  0  0  0  0  0
   -6.3432   18.3022  -32.0445 H   0  0  0  0  0  0  0  0  0  0  0  0
   -8.5871   21.8760  -30.4993 H   0  0  0  0  0  0  0  0  0  0  0  0
   -7.4931   23.8248  -29.3932 H   0  0  0  0  0  0  0  0  0  0  0  0
   -1.8991   22.0315  -26.4347 H   0  0  0  0  0  0  0  0  0  0  0  0
   -2.1834   23.7407  -26.9088 H   0  0  0  0  0  0  0  0  0  0  0  0
   -3.5459   22.5700  -26.9088 H   0  0  0  0  0  0  0  0  0  0  0  0
  1  2  1  0
  2  3  1  0
  3  4  1  0
  4  5  1  0
  5  6  2  0
  5  7  1  0
  7  8  1  0
  8  9  1  0
  9 10  2  0
 10 11  1  0
 11 12  2  0
 12 13  1  0
 12 14  1  0
 14 15  2  0
  4 16  2  0
 16 17  1  0
 17 18  1  0
 18 19  2  0
 18 20  1  0
 20 21  1  0
 21 22  1  0
 22 23  2  0
 23 24  1  0
 24 25  2  0
 25 26  1  0
 26 27  1  0
 26 28  2  0
 26 29  2  0
 25 30  1  0
 30 31  2  0
 17 32  2  0
 32 33  1  0
 32  3  1  0
 15  9  1  0
 31 22  1  0
  1 34  1  0
  1 35  1  0
  1 36  1  0
  2 37  1  0
  2 38  1  0
  7 39  1  0
  8 40  1  0
  8 41  1  0
 10 42  1  0
 11 43  1  0
 13 44  1  0
 13 45  1  0
 13 46  1  0
 14 47  1  0
 15 48  1  0
 16 49  1  0
 21 50  1  0
 21 51  1  0
 23 52  1  0
 24 53  1  0
 27 54  1  0
 27 55  1  0
 27 56  1  0
 30 57  1  0
 31 58  1  0
 33 59  1  0
 33 60  1  0
 33 61  1  0
M  CHG  1  20  -1
M  END
>  <UniqueID>  (38) 
36

>  <SMILES>  (38) 
CCn1c(C(=O)NCc2ccc(C)cc2)cc(C(=O)[N-]Cc2ccc(S(C)(=O)=O)cc2)c1C

>  <Energy>  (38) 
82.41288204038833

>  <Genealogy>  (38) 
CCn1c(C(=O)NCc2ccc(C)cc2)cc(C(=O)[N-]Cc2ccc(S(C)(=O)=O)cc2)c1C (protonated)
CCn1c(C(=O)NCc2ccc(C)cc2)cc(C(=O)[N-]Cc2ccc(S(C)(=O)=O)cc2)c1C (3D coordinates assigned)
CCn1c(C(=O)NCc2ccc(C)cc2)cc(C(=O)[N-]Cc2ccc(S(C)(=O)=O)cc2)c1C (optimized conformer: 82.41288204038833 kcal/mol)

>  <smiles>  (38) 
CCn1c(C(=O)NCc2ccc(C)cc2)cc(C(=O)NCc2ccc(S(C)(=O)=O)cc2)c1C

>  <score_type>  (38) 
oracle

>  <origin>  (38) 
adgpu

>  <m_score__min__energy>  (38) 
-11.07

>  <m_primary>  (38) 
energy

$$$$
38:0
     RDKit          3D

 40 43  0  0  0  0  0  0  0  0999 V2000
   -2.9460   19.6910  -27.3660 C   0  0  0  0  0  0  0  0  0  0  0  0
   -2.6850   21.1290  -27.7060 C   0  0  0  0  0  0  0  0  0  0  0  0
   -1.6650   21.8330  -27.0560 C   0  0  0  0  0  0  0  0  0  0  0  0
   -1.4420   23.1800  -27.3500 C   0  0  0  0  0  0  0  0  0  0  0  0
   -2.2390   23.8500  -28.2920 C   0  0  0  0  0  0  0  0  0  0  0  0
   -1.9690   25.3060  -28.5700 C   0  0  0  0  0  0  0  0  0  0  0  0
   -3.2980   23.1520  -28.9250 C   0  0  0  0  0  0  0  0  0  0  0  0
   -4.3530   23.9370  -30.1130 S   0  0  0  0  0  0  0  0  0  0  0  0
   -3.7780   25.2750  -30.4850 O   0  0  0  0  0  0  0  0  0  0  0  0
   -5.7270   24.1440  -29.5390 O   0  0  0  0  0  0  0  0  0  0  0  0
   -4.4760   22.9370  -31.5200 N   0  0  0  0  0  0  0  0  0  0  0  0
   -3.4090   22.0360  -31.9740 C   0  0  0  0  0  0  0  0  0  0  0  0
   -4.1220   20.8970  -32.7590 C   0  0  0  0  0  0  0  0  0  0  0  0
   -5.5150   21.3000  -32.7310 N   0  0  0  0  0  0  0  0  0  0  0  0
   -5.6860   22.3910  -32.0000 C   0  0  0  0  0  0  0  0  0  0  0  0
   -6.9040   22.4980  -31.4090 N   0  0  0  0  0  0  0  0  0  0  0  0
   -7.5200   21.3800  -31.8600 C   0  0  0  0  0  0  0  0  0  0  0  0
   -8.7800   20.9050  -31.5010 C   0  0  0  0  0  0  0  0  0  0  0  0
   -9.1480   19.6200  -31.9480 C   0  0  0  0  0  0  0  0  0  0  0  0
   -8.2470   18.8370  -32.7050 C   0  0  0  0  0  0  0  0  0  0  0  0
   -6.9720   19.3340  -33.0360 C   0  0  0  0  0  0  0  0  0  0  0  0
   -6.6620   20.6250  -32.6190 C   0  0  0  0  0  0  0  0  0  0  0  0
   -3.5070   21.7970  -28.6260 C   0  0  0  0  0  0  0  0  0  0  0  0
   -2.9678   19.5708  -26.2728 H   0  0  0  0  0  0  0  0  0  0  0  0
   -3.9145   19.3844  -27.7880 H   0  0  0  0  0  0  0  0  0  0  0  0
   -2.1471   19.0636  -27.7880 H   0  0  0  0  0  0  0  0  0  0  0  0
   -1.0365   21.3235  -26.3107 H   0  0  0  0  0  0  0  0  0  0  0  0
   -0.6332   23.7219  -26.8380 H   0  0  0  0  0  0  0  0  0  0  0  0
   -1.8684   25.8485  -27.6184 H   0  0  0  0  0  0  0  0  0  0  0  0
   -1.0376   25.4025  -29.1473 H   0  0  0  0  0  0  0  0  0  0  0  0
   -2.8038   25.7300  -29.1473 H   0  0  0  0  0  0  0  0  0  0  0  0
   -2.7077   22.5726  -32.6300 H   0  0  0  0  0  0  0  0  0  0  0  0
   -2.8250   21.6417  -31.1293 H   0  0  0  0  0  0  0  0  0  0  0  0
   -3.7492   20.8362  -33.7921 H   0  0  0  0  0  0  0  0  0  0  0  0
   -3.9514   19.9006  -32.3253 H   0  0  0  0  0  0  0  0  0  0  0  0
   -9.4639   21.5122  -30.8897 H   0  0  0  0  0  0  0  0  0  0  0  0
  -10.1449   19.2231  -31.7057 H   0  0  0  0  0  0  0  0  0  0  0  0
   -8.5443   17.8317  -33.0381 H   0  0  0  0  0  0  0  0  0  0  0  0
   -6.2501   18.7264  -33.6014 H   0  0  0  0  0  0  0  0  0  0  0  0
   -4.3254   21.2519  -29.1190 H   0  0  0  0  0  0  0  0  0  0  0  0
  1  2  1  0
  2  3  2  0
  3  4  1  0
  4  5  2  0
  5  6  1  0
  5  7  1  0
  7  8  1  0
  8  9  2  0
  8 10  2  0
  8 11  1  0
 11 12  1  0
 12 13  1  0
 13 14  1  0
 14 15  1  0
 15 16  2  0
 16 17  1  0
 17 18  2  0
 18 19  1  0
 19 20  2  0
 20 21  1  0
 21 22  2  0
  7 23  2  0
 23  2  1  0
 15 11  1  0
 22 17  1  0
 22 14  1  0
  1 24  1  0
  1 25  1  0
  1 26  1  0
  3 27  1  0
  4 28  1  0
  6 29  1  0
  6 30  1  0
  6 31  1  0
 12 32  1  0
 12 33  1  0
 13 34  1  0
 13 35  1  0
 18 36  1  0
 19 37  1  0
 20 38  1  0
 21 39  1  0
 23 40  1  0
M  END
>  <UniqueID>  (39) 
37

>  <SMILES>  (39) 
Cc1ccc(C)c(S(=O)(=O)N2CCn3c2nc2ccccc23)c1

>  <Energy>  (39) 
113.33178213391908

>  <Genealogy>  (39) 
Cc1ccc(C)c(S(=O)(=O)N2CCn3c2nc2ccccc23)c1 (3D coordinates assigned)
Cc1ccc(C)c(S(=O)(=O)N2CCn3c2nc2ccccc23)c1 (nonaromatic ring conformer: 113.33178213391908 kcal/mol)

>  <smiles>  (39) 
Cc1ccc(C)c(S(=O)(=O)N2CCn3c2nc2ccccc23)c1

>  <score_type>  (39) 
oracle

>  <origin>  (39) 
adgpu

>  <m_score__min__energy>  (39) 
-8.8200000000000003

>  <m_primary>  (39) 
energy

$$$$
39:0
     RDKit          3D

 61 64  0  0  0  0  0  0  0  0999 V2000
   -1.2260   26.4810  -28.9750 N   0  0  0  0  0  0  0  0  0  0  0  0
   -1.4770   25.1250  -28.5890 C   0  0  0  0  0  0  0  0  0  0  0  0
   -0.7070   24.5410  -27.5730 C   0  0  0  0  0  0  0  0  0  0  0  0
   -0.9150   23.2140  -27.2030 C   0  0  0  0  0  0  0  0  0  0  0  0
   -1.9050   22.4490  -27.8330 C   0  0  0  0  0  0  0  0  0  0  0  0
   -2.2570   20.8080  -27.2670 S   0  0  0  0  0  0  0  0  0  0  0  0
   -1.6610   20.6150  -25.9010 O   0  0  0  0  0  0  0  0  0  0  0  0
   -3.7450   20.6590  -27.1390 O   0  0  0  0  0  0  0  0  0  0  0  0
   -1.6160   19.5620  -28.3170 N   0  0  0  0  0  0  0  0  0  0  0  0
   -1.0810   20.1290  -29.5740 C   0  0  0  0  0  0  0  0  0  0  0  0
   -0.1890   19.1200  -30.3060 C   0  0  0  0  0  0  0  0  0  0  0  0
    1.0150   18.6980  -29.4500 C   0  0  0  0  0  0  0  0  0  0  0  0
    0.7610   18.8710  -27.9480 C   0  0  0  0  0  0  0  0  0  0  0  0
   -0.7100   18.6300  -27.6050 C   0  0  0  0  0  0  0  0  0  0  0  0
   -2.6680   23.0230  -28.8580 C   0  0  0  0  0  0  0  0  0  0  0  0
   -2.4510   24.3540  -29.2510 C   0  0  0  0  0  0  0  0  0  0  0  0
   -3.2040   24.9240  -30.3300 N   0  0  0  0  0  0  0  0  0  0  0  0
   -4.6310   24.8890  -30.4110 C   0  0  0  0  0  0  0  0  0  0  0  0
   -5.2780   25.8730  -29.9790 O   0  0  0  0  0  0  0  0  0  0  0  0
   -5.3440   23.7640  -31.0720 C   0  0  0  0  0  0  0  0  0  0  0  0
   -6.7350   23.8150  -31.2580 C   0  0  0  0  0  0  0  0  0  0  0  0
   -7.3940   22.7880  -31.9410 C   0  0  0  0  0  0  0  0  0  0  0  0
   -6.6750   21.6940  -32.4340 C   0  0  0  0  0  0  0  0  0  0  0  0
   -5.2910   21.6220  -32.2430 C   0  0  0  0  0  0  0  0  0  0  0  0
   -4.3690   20.2260  -32.8040 S   0  0  0  0  0  0  0  0  0  0  0  0
   -3.5820   19.6560  -31.6580 O   0  0  0  0  0  0  0  0  0  0  0  0
   -3.4030   20.6900  -33.8560 O   0  0  0  0  0  0  0  0  0  0  0  0
   -5.4220   18.9920  -33.4540 N   0  0  0  0  0  0  0  0  0  0  0  0
   -4.6250   17.8940  -34.0240 C   0  0  0  0  0  0  0  0  0  0  0  0
   -5.5540   16.7890  -34.5810 C   0  0  0  0  0  0  0  0  0  0  0  0
   -6.8880   16.9010  -34.1160 O   0  0  0  0  0  0  0  0  0  0  0  0
   -6.8990   17.1050  -32.7230 C   0  0  0  0  0  0  0  0  0  0  0  0
   -6.3260   18.4930  -32.3920 C   0  0  0  0  0  0  0  0  0  0  0  0
   -4.6330   22.6620  -31.5810 C   0  0  0  0  0  0  0  0  0  0  0  0
   -1.2370   26.7580  -29.9810 H   0  0  0  0  0  0  0  0  0  0  0  0
   -1.0980   27.2370  -28.2690 H   0  0  0  0  0  0  0  0  0  0  0  0
    0.0668   25.1348  -27.0645 H   0  0  0  0  0  0  0  0  0  0  0  0
   -0.2980   22.7642  -26.4112 H   0  0  0  0  0  0  0  0  0  0  0  0
   -1.9210   20.4052  -30.2283 H   0  0  0  0  0  0  0  0  0  0  0  0
   -0.4740   21.0120  -29.3254 H   0  0  0  0  0  0  0  0  0  0  0  0
   -0.7847   18.2274  -30.5475 H   0  0  0  0  0  0  0  0  0  0  0  0
    0.1919   19.5996  -31.2197 H   0  0  0  0  0  0  0  0  0  0  0  0
    1.2356   17.6391  -29.6502 H   0  0  0  0  0  0  0  0  0  0  0  0
    1.8604   19.3473  -29.7216 H   0  0  0  0  0  0  0  0  0  0  0  0
    1.3813   18.1512  -27.3938 H   0  0  0  0  0  0  0  0  0  0  0  0
    1.0199   19.9026  -27.6672 H   0  0  0  0  0  0  0  0  0  0  0  0
   -0.9735   17.5991  -27.8839 H   0  0  0  0  0  0  0  0  0  0  0  0
   -0.8349   18.7999  -26.5254 H   0  0  0  0  0  0  0  0  0  0  0  0
   -3.4440   22.4261  -29.3596 H   0  0  0  0  0  0  0  0  0  0  0  0
   -7.3090   24.6669  -30.8645 H   0  0  0  0  0  0  0  0  0  0  0  0
   -8.4824   22.8406  -32.0912 H   0  0  0  0  0  0  0  0  0  0  0  0
   -7.1982   20.8899  -32.9722 H   0  0  0  0  0  0  0  0  0  0  0  0
   -3.9980   18.2856  -34.8386 H   0  0  0  0  0  0  0  0  0  0  0  0
   -3.9915   17.4642  -33.2341 H   0  0  0  0  0  0  0  0  0  0  0  0
   -5.5587   16.8555  -35.6790 H   0  0  0  0  0  0  0  0  0  0  0  0
   -5.1631   15.8226  -34.2300 H   0  0  0  0  0  0  0  0  0  0  0  0
   -7.9329   17.0397  -32.3531 H   0  0  0  0  0  0  0  0  0  0  0  0
   -6.2813   16.3339  -32.2395 H   0  0  0  0  0  0  0  0  0  0  0  0
   -7.1592   19.2014  -32.2740 H   0  0  0  0  0  0  0  0  0  0  0  0
   -5.7415   18.4050  -31.4643 H   0  0  0  0  0  0  0  0  0  0  0  0
   -3.5410   22.6182  -31.4558 H   0  0  0  0  0  0  0  0  0  0  0  0
  1  2  1  0
  2  3  2  0
  3  4  1  0
  4  5  2  0
  5  6  1  0
  6  7  2  0
  6  8  2  0
  6  9  1  0
  9 10  1  0
 10 11  1  0
 11 12  1  0
 12 13  1  0
 13 14  1  0
  5 15  1  0
 15 16  2  0
 16 17  1  0
 17 18  1  0
 18 19  2  0
 18 20  1  0
 20 21  2  0
 21 22  1  0
 22 23  2  0
 23 24  1  0
 24 25  1  0
 25 26  2  0
 25 27  2  0
 25 28  1  0
 28 29  1  0
 29 30  1  0
 30 31  1  0
 31 32  1  0
 32 33  1  0
 24 34  2  0
 16  2  1  0
 34 20  1  0
 14  9  1  0
 33 28  1  0
  1 35  1  0
  1 36  1  0
  3 37  1  0
  4 38  1  0
 10 39  1  0
 10 40  1  0
 11 41  1  0
 11 42  1  0
 12 43  1  0
 12 44  1  0
 13 45  1  0
 13 46  1  0
 14 47  1  0
 14 48  1  0
 15 49  1  0
 21 50  1  0
 22 51  1  0
 23 52  1  0
 29 53  1  0
 29 54  1  0
 30 55  1  0
 30 56  1  0
 32 57  1  0
 32 58  1  0
 33 59  1  0
 33 60  1  0
 34 61  1  0
M  CHG  1  17  -1
M  END
>  <UniqueID>  (40) 
38

>  <SMILES>  (40) 
Nc1ccc(S(=O)(=O)N2CCCCC2)cc1[N-]C(=O)c1cccc(S(=O)(=O)N2CCOCC2)c1

>  <Energy>  (40) 
81.52416201641729

>  <Genealogy>  (40) 
Nc1ccc(S(=O)(=O)N2CCCCC2)cc1[N-]C(=O)c1cccc(S(=O)(=O)N2CCOCC2)c1 (protonated)
Nc1ccc(S(=O)(=O)N2CCCCC2)cc1[N-]C(=O)c1cccc(S(=O)(=O)N2CCOCC2)c1 (3D coordinates assigned)
Nc1ccc(S(=O)(=O)N2CCCCC2)cc1[N-]C(=O)c1cccc(S(=O)(=O)N2CCOCC2)c1 (nonaromatic ring conformer: 81.52416201641729 kcal/mol)

>  <smiles>  (40) 
Nc1ccc(S(=O)(=O)N2CCCCC2)cc1NC(=O)c1cccc(S(=O)(=O)N2CCOCC2)c1

>  <score_type>  (40) 
oracle

>  <origin>  (40) 
adgpu

>  <m_score__min__energy>  (40) 
-12.470000000000001

>  <m_primary>  (40) 
energy

$$$$
40:0
     RDKit          3D

 48 50  0  0  0  0  0  0  0  0999 V2000
   -3.4630   21.3210  -33.4130 N   0  0  0  0  0  0  0  0  0  0  0  0
   -3.5780   21.9090  -32.1170 C   0  0  0  0  0  0  0  0  0  0  0  0
   -3.0490   21.2630  -30.9940 C   0  0  0  0  0  0  0  0  0  0  0  0
   -3.1900   21.8720  -29.7470 C   0  0  0  0  0  0  0  0  0  0  0  0
   -2.7320   21.3180  -28.7130 O   0  0  0  0  0  0  0  0  0  0  0  0
   -3.8290   23.0670  -29.6460 N   0  0  0  0  0  0  0  0  0  0  0  0
   -4.3320   23.6850  -30.7470 C   0  0  0  0  0  0  0  0  0  0  0  0
   -5.1610   25.2630  -30.5830 S   0  0  0  0  0  0  0  0  0  0  0  0
   -6.7270   24.5510  -29.9650 C   0  0  0  0  0  0  0  0  0  0  0  0
   -7.2440   23.4960  -30.8950 C   0  0  0  0  0  0  0  0  0  0  0  0
   -8.2140   23.7630  -31.6530 O   0  0  0  0  0  0  0  0  0  0  0  0
   -6.6010   22.2130  -30.9560 N   0  0  0  0  0  0  0  0  0  0  0  0
   -7.1850   21.0460  -31.5620 C   0  0  0  0  0  0  0  0  0  0  0  0
   -8.5540   20.7520  -31.4220 C   0  0  0  0  0  0  0  0  0  0  0  0
   -9.0890   19.5990  -32.0020 C   0  0  0  0  0  0  0  0  0  0  0  0
   -8.2660   18.7220  -32.7110 C   0  0  0  0  0  0  0  0  0  0  0  0
   -6.8970   18.9890  -32.8350 C   0  0  0  0  0  0  0  0  0  0  0  0
   -5.8380   17.8810  -33.7030 S   0  0  0  0  0  0  0  0  0  0  0  0
   -4.4120   18.2850  -33.4490 O   0  0  0  0  0  0  0  0  0  0  0  0
   -6.1140   17.9590  -35.1780 O   0  0  0  0  0  0  0  0  0  0  0  0
   -6.1160   16.2510  -33.1260 N   0  0  0  0  0  0  0  0  0  0  0  0
   -6.5850   15.3500  -34.2090 C   0  0  0  0  0  0  0  0  0  0  0  0
   -5.6420   14.1680  -34.4940 C   0  0  0  0  0  0  0  0  0  0  0  0
   -4.1930   14.6430  -34.5420 C   0  0  0  0  0  0  0  0  0  0  0  0
   -3.7730   15.3390  -33.2340 C   0  0  0  0  0  0  0  0  0  0  0  0
   -4.9680   15.7410  -32.3490 C   0  0  0  0  0  0  0  0  0  0  0  0
   -6.3610   20.1480  -32.2550 C   0  0  0  0  0  0  0  0  0  0  0  0
   -4.2080   23.1050  -31.9700 N   0  0  0  0  0  0  0  0  0  0  0  0
   -3.7330   20.3260  -33.5780 H   0  0  0  0  0  0  0  0  0  0  0  0
   -3.1070   21.8860  -34.2150 H   0  0  0  0  0  0  0  0  0  0  0  0
   -2.5334   20.2963  -31.0924 H   0  0  0  0  0  0  0  0  0  0  0  0
   -6.5523   24.1034  -28.9755 H   0  0  0  0  0  0  0  0  0  0  0  0
   -7.4745   25.3553  -29.8990 H   0  0  0  0  0  0  0  0  0  0  0  0
   -5.6290   22.1380  -30.5770 H   0  0  0  0  0  0  0  0  0  0  0  0
   -9.2053   21.4324  -30.8538 H   0  0  0  0  0  0  0  0  0  0  0  0
  -10.1624   19.3815  -31.8997 H   0  0  0  0  0  0  0  0  0  0  0  0
   -8.6936   17.8199  -33.1729 H   0  0  0  0  0  0  0  0  0  0  0  0
   -7.5675   14.9469  -33.9221 H   0  0  0  0  0  0  0  0  0  0  0  0
   -6.6256   15.9527  -35.1283 H   0  0  0  0  0  0  0  0  0  0  0  0
   -5.7511   13.4172  -33.6975 H   0  0  0  0  0  0  0  0  0  0  0  0
   -5.9056   13.7280  -35.4671 H   0  0  0  0  0  0  0  0  0  0  0  0
   -3.5393   13.7741  -34.7082 H   0  0  0  0  0  0  0  0  0  0  0  0
   -4.1001   15.3716  -35.3608 H   0  0  0  0  0  0  0  0  0  0  0  0
   -3.1308   14.6521  -32.6632 H   0  0  0  0  0  0  0  0  0  0  0  0
   -3.2459   16.2639  -33.5109 H   0  0  0  0  0  0  0  0  0  0  0  0
   -5.2947   14.8586  -31.7792 H   0  0  0  0  0  0  0  0  0  0  0  0
   -4.6301   16.5538  -31.6894 H   0  0  0  0  0  0  0  0  0  0  0  0
   -5.2843   20.3544  -32.3446 H   0  0  0  0  0  0  0  0  0  0  0  0
  1  2  1  0
  2  3  2  0
  3  4  1  0
  4  5  2  0
  4  6  1  0
  6  7  1  0
  7  8  1  0
  8  9  1  0
  9 10  1  0
 10 11  2  0
 10 12  1  0
 12 13  1  0
 13 14  2  0
 14 15  1  0
 15 16  2  0
 16 17  1  0
 17 18  1  0
 18 19  2  0
 18 20  2  0
 18 21  1  0
 21 22  1  0
 22 23  1  0
 23 24  1  0
 24 25  1  0
 25 26  1  0
 17 27  2  0
  7 28  2  0
 28  2  1  0
 27 13  1  0
 26 21  1  0
  1 29  1  0
  1 30  1  0
  3 31  1  0
  9 32  1  0
  9 33  1  0
 12 34  1  0
 14 35  1  0
 15 36  1  0
 16 37  1  0
 22 38  1  0
 22 39  1  0
 23 40  1  0
 23 41  1  0
 24 42  1  0
 24 43  1  0
 25 44  1  0
 25 45  1  0
 26 46  1  0
 26 47  1  0
 27 48  1  0
M  CHG  1   6  -1
M  END
>  <UniqueID>  (41) 
39

>  <SMILES>  (41) 
Nc1cc(=O)[n-]c(SCC(=O)Nc2cccc(S(=O)(=O)N3CCCCC3)c2)n1

>  <Energy>  (41) 
53.50479671463012

>  <Genealogy>  (41) 
Nc1cc(=O)[n-]c(SCC(=O)Nc2cccc(S(=O)(=O)N3CCCCC3)c2)n1 (protonated)
Nc1cc(=O)[n-]c(SCC(=O)Nc2cccc(S(=O)(=O)N3CCCCC3)c2)n1 (3D coordinates assigned)
Nc1cc(=O)[n-]c(SCC(=O)Nc2cccc(S(=O)(=O)N3CCCCC3)c2)n1 (nonaromatic ring conformer: 53.50479671463012 kcal/mol)

>  <smiles>  (41) 
Nc1cc(=O)[nH]c(SCC(=O)Nc2cccc(S(=O)(=O)N3CCCCC3)c2)n1

>  <score_type>  (41) 
oracle

>  <origin>  (41) 
adgpu

>  <m_score__min__energy>  (41) 
-9.6699999999999999

>  <m_primary>  (41) 
energy

$$$$
41:0
     RDKit          3D

 47 50  0  0  0  0  0  0  0  0999 V2000
   -7.8570   20.0380  -32.6490 C   0  0  0  0  0  0  0  0  0  0  0  0
   -7.1790   21.2150  -32.0090 C   0  0  0  0  0  0  0  0  0  0  0  0
   -5.8870   21.6000  -32.4010 C   0  0  0  0  0  0  0  0  0  0  0  0
   -5.2770   22.7180  -31.8190 C   0  0  0  0  0  0  0  0  0  0  0  0
   -5.9590   23.4720  -30.8510 C   0  0  0  0  0  0  0  0  0  0  0  0
   -5.2180   24.8960  -30.1250 S   0  0  0  0  0  0  0  0  0  0  0  0
   -5.4290   24.9140  -28.6380 O   0  0  0  0  0  0  0  0  0  0  0  0
   -5.8590   26.1270  -30.7010 O   0  0  0  0  0  0  0  0  0  0  0  0
   -3.5210   24.9210  -30.4890 N   0  0  0  0  0  0  0  0  0  0  0  0
   -2.5040   24.1640  -29.8180 C   0  0  0  0  0  0  0  0  0  0  0  0
   -2.4410   22.7520  -29.9050 C   0  0  0  0  0  0  0  0  0  0  0  0
   -1.4350   22.0910  -29.2040 C   0  0  0  0  0  0  0  0  0  0  0  0
   -0.5140   22.7760  -28.4440 C   0  0  0  0  0  0  0  0  0  0  0  0
   -0.5350   24.1640  -28.3540 C   0  0  0  0  0  0  0  0  0  0  0  0
   -1.5440   24.8600  -29.0450 C   0  0  0  0  0  0  0  0  0  0  0  0
   -1.5900   26.2480  -28.9650 O   0  0  0  0  0  0  0  0  0  0  0  0
    0.3770   21.7960  -27.8340 C   0  0  0  0  0  0  0  0  0  0  0  0
    1.3830   22.0650  -27.1260 O   0  0  0  0  0  0  0  0  0  0  0  0
   -0.0200   20.4700  -28.2140 N   0  0  0  0  0  0  0  0  0  0  0  0
    0.6170   19.2280  -27.8650 C   0  0  0  0  0  0  0  0  0  0  0  0
   -0.1530   18.1030  -27.5170 C   0  0  0  0  0  0  0  0  0  0  0  0
    0.4620   16.8930  -27.1910 C   0  0  0  0  0  0  0  0  0  0  0  0
    1.8580   16.7910  -27.2000 C   0  0  0  0  0  0  0  0  0  0  0  0
    2.6490   15.2610  -26.8260 S   0  0  0  0  0  0  0  0  0  0  0  0
    4.1200   15.5600  -25.9670 N   0  0  0  0  0  0  0  0  0  0  0  0
    2.9460   14.5270  -28.1040 O   0  0  0  0  0  0  0  0  0  0  0  0
    1.7530   14.4170  -25.9650 O   0  0  0  0  0  0  0  0  0  0  0  0
    2.6300   17.9070  -27.5520 C   0  0  0  0  0  0  0  0  0  0  0  0
    2.0140   19.1180  -27.8750 C   0  0  0  0  0  0  0  0  0  0  0  0
   -1.1470   20.6670  -29.0750 C   0  0  0  0  0  0  0  0  0  0  0  0
   -1.8260   19.7370  -29.5880 O   0  0  0  0  0  0  0  0  0  0  0  0
   -7.2550   23.0990  -30.4740 C   0  0  0  0  0  0  0  0  0  0  0  0
   -7.8620   21.9790  -31.0500 C   0  0  0  0  0  0  0  0  0  0  0  0
   -8.2432   19.3676  -31.8671 H   0  0  0  0  0  0  0  0  0  0  0  0
   -8.6905   20.3904  -33.2744 H   0  0  0  0  0  0  0  0  0  0  0  0
   -7.1340   19.4938  -33.2744 H   0  0  0  0  0  0  0  0  0  0  0  0
   -5.3519   21.0212  -33.1682 H   0  0  0  0  0  0  0  0  0  0  0  0
   -4.2595   23.0065  -32.1215 H   0  0  0  0  0  0  0  0  0  0  0  0
   -3.1681   22.1913  -30.5108 H   0  0  0  0  0  0  0  0  0  0  0  0
    0.2168   24.7029  -27.7587 H   0  0  0  0  0  0  0  0  0  0  0  0
   -1.2504   18.1777  -27.5017 H   0  0  0  0  0  0  0  0  0  0  0  0
   -0.1511   16.0187  -26.9268 H   0  0  0  0  0  0  0  0  0  0  0  0
    4.8590   15.7510  -26.6810 H   0  0  0  0  0  0  0  0  0  0  0  0
    3.7270   17.8284  -27.5739 H   0  0  0  0  0  0  0  0  0  0  0  0
    2.6292   19.9909  -28.1389 H   0  0  0  0  0  0  0  0  0  0  0  0
   -7.7978   23.6897  -29.7214 H   0  0  0  0  0  0  0  0  0  0  0  0
   -8.8813   21.6948  -30.7497 H   0  0  0  0  0  0  0  0  0  0  0  0
  1  2  1  0
  2  3  2  0
  3  4  1  0
  4  5  2  0
  5  6  1  0
  6  7  2  0
  6  8  2  0
  6  9  1  0
  9 10  1  0
 10 11  2  0
 11 12  1  0
 12 13  2  0
 13 14  1  0
 14 15  2  0
 15 16  1  0
 13 17  1  0
 17 18  2  0
 17 19  1  0
 19 20  1  0
 20 21  2  0
 21 22  1  0
 22 23  2  0
 23 24  1  0
 24 25  1  0
 24 26  2  0
 24 27  2  0
 23 28  1  0
 28 29  2  0
 19 30  1  0
 30 31  2  0
  5 32  1  0
 32 33  2  0
 33  2  1  0
 15 10  1  0
 29 20  1  0
 30 12  1  0
  1 34  1  0
  1 35  1  0
  1 36  1  0
  3 37  1  0
  4 38  1  0
 11 39  1  0
 14 40  1  0
 21 41  1  0
 22 42  1  0
 25 43  1  0
 28 44  1  0
 29 45  1  0
 32 46  1  0
 33 47  1  0
M  CHG  3   9  -1  16  -1  25  -1
M  END
>  <UniqueID>  (42) 
40

>  <SMILES>  (42) 
Cc1ccc(S(=O)(=O)[N-]c2cc3c(cc2[O-])C(=O)N(c2ccc(S([NH-])(=O)=O)cc2)C3=O)cc1

>  <Energy>  (42) 
91.88986931479991

>  <Genealogy>  (42) 
Cc1ccc(S(=O)(=O)[N-]c2cc3c(cc2[O-])C(=O)N(c2ccc(S([NH-])(=O)=O)cc2)C3=O)cc1 (protonated)
Cc1ccc(S(=O)(=O)[N-]c2cc3c(cc2[O-])C(=O)N(c2ccc(S([NH-])(=O)=O)cc2)C3=O)cc1 (3D coordinates assigned)
Cc1ccc(S(=O)(=O)[N-]c2cc3c(cc2[O-])C(=O)N(c2ccc(S([NH-])(=O)=O)cc2)C3=O)cc1 (nonaromatic ring conformer: 91.88986931479991 kcal/mol)

>  <smiles>  (42) 
Cc1ccc(S(=O)(=O)Nc2cc3c(cc2O)C(=O)N(c2ccc(S(N)(=O)=O)cc2)C3=O)cc1

>  <score_type>  (42) 
oracle

>  <origin>  (42) 
adgpu

>  <m_score__min__energy>  (42) 
-13.609999999999999

>  <m_primary>  (42) 
energy

$$$$
42:0
     RDKit          3D

 48 51  0  0  0  0  0  0  0  0999 V2000
   -7.6070   23.6490  -30.4860 O   0  0  0  0  0  0  0  0  0  0  0  0
   -6.5170   23.4690  -31.0950 C   0  0  0  0  0  0  0  0  0  0  0  0
   -6.4800   22.7070  -32.3070 N   0  0  0  0  0  0  0  0  0  0  0  0
   -5.7230   21.5020  -32.4790 C   0  0  0  0  0  0  0  0  0  0  0  0
   -6.4070   20.2800  -32.4860 C   0  0  0  0  0  0  0  0  0  0  0  0
   -5.7180   19.0790  -32.7010 C   0  0  0  0  0  0  0  0  0  0  0  0
   -6.5770   17.5400  -32.7070 S   0  0  0  0  0  0  0  0  0  0  0  0
   -8.0270   17.8060  -32.4110 O   0  0  0  0  0  0  0  0  0  0  0  0
   -6.0300   16.6480  -31.6250 O   0  0  0  0  0  0  0  0  0  0  0  0
   -6.4410   16.7630  -34.2730 N   0  0  0  0  0  0  0  0  0  0  0  0
   -5.0900   16.9050  -34.8450 C   0  0  0  0  0  0  0  0  0  0  0  0
   -4.0530   16.0110  -34.1250 C   0  0  0  0  0  0  0  0  0  0  0  0
   -4.6330   14.9460  -33.3880 O   0  0  0  0  0  0  0  0  0  0  0  0
   -5.6910   14.3660  -34.1170 C   0  0  0  0  0  0  0  0  0  0  0  0
   -6.8750   15.3490  -34.2210 C   0  0  0  0  0  0  0  0  0  0  0  0
   -4.3320   19.1010  -32.8920 C   0  0  0  0  0  0  0  0  0  0  0  0
   -3.6380   20.3120  -32.8510 C   0  0  0  0  0  0  0  0  0  0  0  0
   -4.3160   21.5130  -32.6210 C   0  0  0  0  0  0  0  0  0  0  0  0
   -3.5680   22.6850  -32.5020 O   0  0  0  0  0  0  0  0  0  0  0  0
   -5.2780   24.0290  -30.5440 C   0  0  0  0  0  0  0  0  0  0  0  0
   -4.6150   23.5870  -29.4180 C   0  0  0  0  0  0  0  0  0  0  0  0
   -3.5190   24.4270  -29.3250 C   0  0  0  0  0  0  0  0  0  0  0  0
   -2.4410   24.3880  -28.3080 C   0  0  0  0  0  0  0  0  0  0  0  0
   -2.5020   23.4220  -27.2860 C   0  0  0  0  0  0  0  0  0  0  0  0
   -1.5070   23.3560  -26.3070 C   0  0  0  0  0  0  0  0  0  0  0  0
   -0.4360   24.2490  -26.3370 C   0  0  0  0  0  0  0  0  0  0  0  0
   -0.3520   25.2050  -27.3520 C   0  0  0  0  0  0  0  0  0  0  0  0
   -1.3400   25.2750  -28.3400 C   0  0  0  0  0  0  0  0  0  0  0  0
   -1.2000   26.2130  -29.3570 O   0  0  0  0  0  0  0  0  0  0  0  0
   -3.5370   25.3000  -30.3540 N   0  0  0  0  0  0  0  0  0  0  0  0
   -4.6110   25.0620  -31.0910 N   0  0  0  0  0  0  0  0  0  0  0  0
   -7.4945   20.2628  -32.3213 H   0  0  0  0  0  0  0  0  0  0  0  0
   -5.1239   16.6227  -35.9076 H   0  0  0  0  0  0  0  0  0  0  0  0
   -4.7784   17.9523  -34.7184 H   0  0  0  0  0  0  0  0  0  0  0  0
   -3.3784   15.5832  -34.8813 H   0  0  0  0  0  0  0  0  0  0  0  0
   -3.5227   16.6502  -33.4037 H   0  0  0  0  0  0  0  0  0  0  0  0
   -5.3390   14.1143  -35.1283 H   0  0  0  0  0  0  0  0  0  0  0  0
   -6.0267   13.4570  -33.5963 H   0  0  0  0  0  0  0  0  0  0  0  0
   -7.4422   15.1212  -35.1356 H   0  0  0  0  0  0  0  0  0  0  0  0
   -7.4910   15.2237  -33.3183 H   0  0  0  0  0  0  0  0  0  0  0  0
   -3.7881   18.1625  -33.0748 H   0  0  0  0  0  0  0  0  0  0  0  0
   -2.5483   20.3212  -33.0010 H   0  0  0  0  0  0  0  0  0  0  0  0
   -3.9280   23.5220  -32.0610 H   0  0  0  0  0  0  0  0  0  0  0  0
   -4.8929   22.7591  -28.7492 H   0  0  0  0  0  0  0  0  0  0  0  0
   -3.3415   22.7118  -27.2577 H   0  0  0  0  0  0  0  0  0  0  0  0
   -1.5685   22.5987  -25.5116 H   0  0  0  0  0  0  0  0  0  0  0  0
    0.3425   24.2004  -25.5614 H   0  0  0  0  0  0  0  0  0  0  0  0
    0.4952   25.9063  -27.3746 H   0  0  0  0  0  0  0  0  0  0  0  0
  1  2  2  0
  2  3  1  0
  3  4  1  0
  4  5  2  0
  5  6  1  0
  6  7  1  0
  7  8  2  0
  7  9  2  0
  7 10  1  0
 10 11  1  0
 11 12  1  0
 12 13  1  0
 13 14  1  0
 14 15  1  0
  6 16  2  0
 16 17  1  0
 17 18  2  0
 18 19  1  0
  2 20  1  0
 20 21  1  0
 21 22  2  0
 22 23  1  0
 23 24  2  0
 24 25  1  0
 25 26  2  0
 26 27  1  0
 27 28  2  0
 28 29  1  0
 22 30  1  0
 30 31  1  0
 18  4  1  0
 31 20  2  0
 15 10  1  0
 28 23  1  0
  5 32  1  0
 11 33  1  0
 11 34  1  0
 12 35  1  0
 12 36  1  0
 14 37  1  0
 14 38  1  0
 15 39  1  0
 15 40  1  0
 16 41  1  0
 17 42  1  0
 19 43  1  0
 21 44  1  0
 24 45  1  0
 25 46  1  0
 26 47  1  0
 27 48  1  0
M  CHG  3   3  -1  29  -1  30  -1
M  END
>  <UniqueID>  (43) 
41

>  <SMILES>  (43) 
O=C([N-]c1cc(S(=O)(=O)N2CCOCC2)ccc1O)c1cc(-c2ccccc2[O-])[n-]n1

>  <Energy>  (43) 
101.84613823096133

>  <Genealogy>  (43) 
O=C([N-]c1cc(S(=O)(=O)N2CCOCC2)ccc1O)c1cc(-c2ccccc2[O-])[n-]n1 (protonated)
O=C([N-]c1cc(S(=O)(=O)N2CCOCC2)ccc1O)c1cc(-c2ccccc2[O-])[n-]n1 (3D coordinates assigned)
O=C([N-]c1cc(S(=O)(=O)N2CCOCC2)ccc1O)c1cc(-c2ccccc2[O-])[n-]n1 (nonaromatic ring conformer: 101.84613823096133 kcal/mol)

>  <smiles>  (43) 
O=C(Nc1cc(S(=O)(=O)N2CCOCC2)ccc1O)c1cc(-c2ccccc2O)[nH]n1

>  <score_type>  (43) 
oracle

>  <origin>  (43) 
adgpu

>  <m_score__min__energy>  (43) 
-14.91

>  <m_primary>  (43) 
energy

$$$$
43:0
     RDKit          3D

 65 69  0  0  0  0  0  0  0  0999 V2000
    0.4140   21.2500  -34.2450 C   0  0  0  0  0  0  0  0  0  0  0  0
   -0.2700   19.9150  -34.3770 C   0  0  0  0  0  0  0  0  0  0  0  0
    0.1200   19.0890  -35.4410 C   0  0  0  0  0  0  0  0  0  0  0  0
   -0.4300   17.8220  -35.5990 C   0  0  0  0  0  0  0  0  0  0  0  0
   -1.3470   17.3310  -34.6740 C   0  0  0  0  0  0  0  0  0  0  0  0
   -1.8440   15.9970  -34.8520 N   0  0  0  0  0  0  0  0  0  0  0  0
   -3.1270   15.5370  -34.4190 C   0  0  0  0  0  0  0  0  0  0  0  0
   -3.2180   14.5460  -33.6440 O   0  0  0  0  0  0  0  0  0  0  0  0
   -4.3040   16.1590  -34.9430 N   0  0  0  0  0  0  0  0  0  0  0  0
   -5.1240   17.1180  -34.2580 C   0  0  0  0  0  0  0  0  0  0  0  0
   -6.3070   16.6700  -33.6250 C   0  0  0  0  0  0  0  0  0  0  0  0
   -7.1530   17.5720  -32.9560 C   0  0  0  0  0  0  0  0  0  0  0  0
   -6.8030   18.9250  -32.9530 C   0  0  0  0  0  0  0  0  0  0  0  0
   -5.6650   19.3620  -33.5820 C   0  0  0  0  0  0  0  0  0  0  0  0
   -4.8050   18.4950  -34.2480 C   0  0  0  0  0  0  0  0  0  0  0  0
   -5.5790   20.7230  -33.3970 C   0  0  0  0  0  0  0  0  0  0  0  0
   -6.6960   21.0630  -32.6380 C   0  0  0  0  0  0  0  0  0  0  0  0
   -6.9580   22.4250  -32.1220 C   0  0  0  0  0  0  0  0  0  0  0  0
   -8.0780   22.9660  -32.3260 O   0  0  0  0  0  0  0  0  0  0  0  0
   -5.9760   23.1110  -31.3280 N   0  0  0  0  0  0  0  0  0  0  0  0
   -4.7610   22.4160  -30.8850 C   0  0  0  0  0  0  0  0  0  0  0  0
   -4.4330   22.7370  -29.4150 C   0  0  0  0  0  0  0  0  0  0  0  0
   -4.9660   24.1060  -28.9500 C   0  0  0  0  0  0  0  0  0  0  0  0
   -5.1040   25.1070  -30.1070 C   0  0  1  0  0  0  0  0  0  0  0  0
   -3.8580   25.3350  -30.7130 O   0  0  0  0  0  0  0  0  0  0  0  0
   -6.0990   24.5660  -31.1500 C   0  0  0  0  0  0  0  0  0  0  0  0
   -7.4550   19.9620  -32.3810 N   0  0  0  0  0  0  0  0  0  0  0  0
   -8.6910   19.9010  -31.5990 C   0  0  0  0  0  0  0  0  0  0  0  0
   -1.7960   18.1550  -33.6220 C   0  0  0  0  0  0  0  0  0  0  0  0
   -2.7450   17.6320  -32.7370 O   0  0  0  0  0  0  0  0  0  0  0  0
   -1.2930   19.4800  -33.4890 C   0  0  0  0  0  0  0  0  0  0  0  0
   -1.9750   20.5620  -32.2430 S   0  0  0  0  0  0  0  0  0  0  0  0
   -3.1850   19.9140  -31.6280 O   0  0  0  0  0  0  0  0  0  0  0  0
   -2.4300   21.8730  -32.8230 O   0  0  0  0  0  0  0  0  0  0  0  0
   -0.7380   20.8280  -30.9730 C   0  0  0  0  0  0  0  0  0  0  0  0
   -0.8770   22.1150  -30.1760 C   0  0  0  0  0  0  0  0  0  0  0  0
   -1.2790   20.7870  -29.5530 C   0  0  0  0  0  0  0  0  0  0  0  0
    0.5391   21.4942  -33.1798 H   0  0  0  0  0  0  0  0  0  0  0  0
    1.4006   21.2060  -34.7294 H   0  0  0  0  0  0  0  0  0  0  0  0
   -0.1981   22.0251  -34.7294 H   0  0  0  0  0  0  0  0  0  0  0  0
    0.8709   19.4483  -36.1600 H   0  0  0  0  0  0  0  0  0  0  0  0
   -0.1386   17.2034  -36.4607 H   0  0  0  0  0  0  0  0  0  0  0  0
   -6.5685   15.6020  -33.6566 H   0  0  0  0  0  0  0  0  0  0  0  0
   -8.0647   17.2226  -32.4493 H   0  0  0  0  0  0  0  0  0  0  0  0
   -3.9024   18.8703  -34.7525 H   0  0  0  0  0  0  0  0  0  0  0  0
   -4.7948   21.3985  -33.7694 H   0  0  0  0  0  0  0  0  0  0  0  0
   -4.9112   21.3313  -30.9893 H   0  0  0  0  0  0  0  0  0  0  0  0
   -3.9213   22.7561  -31.5088 H   0  0  0  0  0  0  0  0  0  0  0  0
   -4.8784   21.9565  -28.7806 H   0  0  0  0  0  0  0  0  0  0  0  0
   -3.3369   22.7707  -29.3284 H   0  0  0  0  0  0  0  0  0  0  0  0
   -5.9540   23.9617  -28.4885 H   0  0  0  0  0  0  0  0  0  0  0  0
   -4.2419   24.5209  -28.2334 H   0  0  0  0  0  0  0  0  0  0  0  0
   -5.4789   26.0594  -29.7039 H   0  0  0  0  0  0  0  0  0  0  0  0
   -4.0430   25.6710  -31.6290 H   0  0  0  0  0  0  0  0  0  0  0  0
   -7.1219   24.7977  -30.8183 H   0  0  0  0  0  0  0  0  0  0  0  0
   -5.8743   25.0458  -32.1140 H   0  0  0  0  0  0  0  0  0  0  0  0
   -8.4472   19.9130  -30.5264 H   0  0  0  0  0  0  0  0  0  0  0  0
   -9.3215   20.7691  -31.8415 H   0  0  0  0  0  0  0  0  0  0  0  0
   -9.2330   18.9750  -31.8415 H   0  0  0  0  0  0  0  0  0  0  0  0
   -3.2830   16.7950  -32.9100 H   0  0  0  0  0  0  0  0  0  0  0  0
    0.0857   20.3418  -31.5162 H   0  0  0  0  0  0  0  0  0  0  0  0
    0.0209   22.6406  -29.8190 H   0  0  0  0  0  0  0  0  0  0  0  0
   -1.3774   23.0809  -30.3392 H   0  0  0  0  0  0  0  0  0  0  0  0
   -0.6718   20.3521  -28.7454 H   0  0  0  0  0  0  0  0  0  0  0  0
   -2.1907   20.3944  -29.0789 H   0  0  0  0  0  0  0  0  0  0  0  0
  1  2  1  0
  2  3  2  0
  3  4  1  0
  4  5  2  0
  5  6  1  0
  6  7  1  0
  7  8  2  0
  7  9  1  0
  9 10  1  0
 10 11  2  0
 11 12  1  0
 12 13  2  0
 13 14  1  0
 14 15  2  0
 14 16  1  0
 16 17  2  0
 17 18  1  0
 18 19  2  0
 18 20  1  0
 20 21  1  0
 21 22  1  0
 22 23  1  0
 23 24  1  0
 24 25  1  0
 24 26  1  0
 17 27  1  0
 27 28  1  0
  5 29  1  0
 29 30  1  0
 29 31  2  0
 31 32  1  0
 32 33  2  0
 32 34  2  0
 32 35  1  0
 35 36  1  0
 36 37  1  0
 31  2  1  0
 37 35  1  0
 15 10  1  0
 26 20  1  0
 27 13  1  0
  1 38  1  0
  1 39  1  0
  1 40  1  0
  3 41  1  0
  4 42  1  0
 11 43  1  0
 12 44  1  0
 15 45  1  0
 16 46  1  0
 21 47  1  0
 21 48  1  0
 22 49  1  0
 22 50  1  0
 23 51  1  0
 23 52  1  0
 24 53  1  1
 25 54  1  0
 26 55  1  0
 26 56  1  0
 28 57  1  0
 28 58  1  0
 28 59  1  0
 30 60  1  0
 35 61  1  0
 36 62  1  0
 36 63  1  0
 37 64  1  0
 37 65  1  0
M  CHG  2   6  -1   9  -1
M  END
>  <UniqueID>  (44) 
42

>  <SMILES>  (44) 
Cc1ccc([N-]C(=O)[N-]c2ccc3c(c2)cc(C(=O)N2CCC[C@@H](O)C2)n3C)c(O)c1S(=O)(=O)C1CC1

>  <Energy>  (44) 
387.1906695099334

>  <Genealogy>  (44) 
Cc1ccc([N-]C(=O)[N-]c2ccc3c(c2)cc(C(=O)N2CCCC(O)C2)n3C)c(O)c1S(=O)(=O)C1CC1 (protonated)
Cc1ccc([N-]C(=O)[N-]c2ccc3c(c2)cc(C(=O)N2CCC[C@@H](O)C2)n3C)c(O)c1S(=O)(=O)C1CC1 (chirality)
Cc1ccc([N-]C(=O)[N-]c2ccc3c(c2)cc(C(=O)N2CCC[C@@H](O)C2)n3C)c(O)c1S(=O)(=O)C1CC1 (3D coordinates assigned)
Cc1ccc([N-]C(=O)[N-]c2ccc3c(c2)cc(C(=O)N2CCC[C@@H](O)C2)n3C)c(O)c1S(=O)(=O)C1CC1 (nonaromatic ring conformer: 387.1906695099334 kcal/mol)

>  <smiles>  (44) 
Cc1ccc(NC(=O)Nc2ccc3c(c2)cc(C(=O)N2CCCC(O)C2)n3C)c(O)c1S(=O)(=O)C1CC1

>  <score_type>  (44) 
oracle

>  <origin>  (44) 
adgpu

>  <m_score__min__energy>  (44) 
-14

>  <m_primary>  (44) 
energy

$$$$
44:0
     RDKit          3D

 56 59  0  0  0  0  0  0  0  0999 V2000
   -5.7130   26.3710  -30.4800 O   0  0  0  0  0  0  0  0  0  0  0  0
   -5.1120   25.2740  -30.6290 C   0  0  0  0  0  0  0  0  0  0  0  0
   -3.6910   25.2300  -30.4370 N   0  0  0  0  0  0  0  0  0  0  0  0
   -3.0330   24.4210  -29.4510 C   0  0  0  0  0  0  0  0  0  0  0  0
   -3.6380   24.1490  -28.2130 C   0  0  0  0  0  0  0  0  0  0  0  0
   -2.9430   23.4400  -27.2310 C   0  0  0  0  0  0  0  0  0  0  0  0
   -1.6370   22.9970  -27.4740 C   0  0  0  0  0  0  0  0  0  0  0  0
   -0.7110   22.2290  -26.1850 S   0  0  0  0  0  0  0  0  0  0  0  0
    0.6320   21.8120  -26.7170 O   0  0  0  0  0  0  0  0  0  0  0  0
   -1.4330   20.9930  -25.7260 O   0  0  0  0  0  0  0  0  0  0  0  0
   -0.4780   23.3100  -24.8250 N   0  0  0  0  0  0  0  0  0  0  0  0
   -0.9560   24.6640  -25.1280 C   0  0  0  0  0  0  0  0  0  0  0  0
    0.2420   25.5350  -25.4840 C   0  0  0  0  0  0  0  0  0  0  0  0
    1.4690   24.7120  -25.1490 C   0  0  0  0  0  0  0  0  0  0  0  0
    0.9450   23.4430  -24.4960 C   0  0  0  0  0  0  0  0  0  0  0  0
   -1.0560   23.2140  -28.7330 C   0  0  0  0  0  0  0  0  0  0  0  0
   -1.7570   23.9140  -29.7190 C   0  0  0  0  0  0  0  0  0  0  0  0
   -5.8830   24.0580  -30.9710 C   0  0  0  0  0  0  0  0  0  0  0  0
   -5.6800   23.4150  -32.2030 C   0  0  0  0  0  0  0  0  0  0  0  0
   -6.3440   22.2190  -32.4920 C   0  0  0  0  0  0  0  0  0  0  0  0
   -7.2330   21.6630  -31.5600 C   0  0  0  0  0  0  0  0  0  0  0  0
   -8.0040   20.1090  -31.8620 S   0  0  0  0  0  0  0  0  0  0  0  0
   -8.5780   20.0810  -33.2520 O   0  0  0  0  0  0  0  0  0  0  0  0
   -9.1290   19.9400  -30.8790 O   0  0  0  0  0  0  0  0  0  0  0  0
   -6.8450   18.8120  -31.6490 N   0  0  0  0  0  0  0  0  0  0  0  0
   -5.4720   19.2400  -31.9750 C   0  0  0  0  0  0  0  0  0  0  0  0
   -5.2460   19.3760  -33.4990 C   0  0  0  0  0  0  0  0  0  0  0  0
   -6.2180   18.7020  -34.2790 O   0  0  0  0  0  0  0  0  0  0  0  0
   -6.4970   17.4370  -33.7240 C   0  0  0  0  0  0  0  0  0  0  0  0
   -7.2410   17.5920  -32.3860 C   0  0  0  0  0  0  0  0  0  0  0  0
   -7.4670   22.3220  -30.3480 C   0  0  0  0  0  0  0  0  0  0  0  0
   -6.8000   23.5140  -30.0560 C   0  0  0  0  0  0  0  0  0  0  0  0
   -4.6632   24.4958  -28.0162 H   0  0  0  0  0  0  0  0  0  0  0  0
   -3.4228   23.2289  -26.2639 H   0  0  0  0  0  0  0  0  0  0  0  0
   -1.6540   24.6290  -25.9775 H   0  0  0  0  0  0  0  0  0  0  0  0
   -1.4778   25.0821  -24.2546 H   0  0  0  0  0  0  0  0  0  0  0  0
    0.2291   25.7837  -26.5554 H   0  0  0  0  0  0  0  0  0  0  0  0
    0.2294   26.4848  -24.9292 H   0  0  0  0  0  0  0  0  0  0  0  0
    2.0301   24.4696  -26.0636 H   0  0  0  0  0  0  0  0  0  0  0  0
    2.1558   25.2574  -24.4851 H   0  0  0  0  0  0  0  0  0  0  0  0
    1.4981   22.5723  -24.8781 H   0  0  0  0  0  0  0  0  0  0  0  0
    1.0788   23.4948  -23.4054 H   0  0  0  0  0  0  0  0  0  0  0  0
   -0.0463   22.8322  -28.9443 H   0  0  0  0  0  0  0  0  0  0  0  0
   -1.3036   24.0668  -30.7095 H   0  0  0  0  0  0  0  0  0  0  0  0
   -4.9956   23.8542  -32.9438 H   0  0  0  0  0  0  0  0  0  0  0  0
   -6.1689   21.7127  -33.4527 H   0  0  0  0  0  0  0  0  0  0  0  0
   -5.2833   20.2145  -31.5010 H   0  0  0  0  0  0  0  0  0  0  0  0
   -4.7815   18.4704  -31.5997 H   0  0  0  0  0  0  0  0  0  0  0  0
   -5.2703   20.4443  -33.7602 H   0  0  0  0  0  0  0  0  0  0  0  0
   -4.2741   18.9123  -33.7236 H   0  0  0  0  0  0  0  0  0  0  0  0
   -7.1239   16.8644  -34.4234 H   0  0  0  0  0  0  0  0  0  0  0  0
   -5.5492   16.9076  -33.5466 H   0  0  0  0  0  0  0  0  0  0  0  0
   -8.3214   17.6381  -32.5877 H   0  0  0  0  0  0  0  0  0  0  0  0
   -6.9800   16.7265  -31.7592 H   0  0  0  0  0  0  0  0  0  0  0  0
   -8.1785   21.9000  -29.6229 H   0  0  0  0  0  0  0  0  0  0  0  0
   -6.9938   24.0299  -29.1040 H   0  0  0  0  0  0  0  0  0  0  0  0
  1  2  2  0
  2  3  1  0
  3  4  1  0
  4  5  2  0
  5  6  1  0
  6  7  2  0
  7  8  1  0
  8  9  2  0
  8 10  2  0
  8 11  1  0
 11 12  1  0
 12 13  1  0
 13 14  1  0
 14 15  1  0
  7 16  1  0
 16 17  2  0
  2 18  1  0
 18 19  2  0
 19 20  1  0
 20 21  2  0
 21 22  1  0
 22 23  2  0
 22 24  2  0
 22 25  1  0
 25 26  1  0
 26 27  1  0
 27 28  1  0
 28 29  1  0
 29 30  1  0
 21 31  1  0
 31 32  2  0
 17  4  1  0
 32 18  1  0
 15 11  1  0
 30 25  1  0
  5 33  1  0
  6 34  1  0
 12 35  1  0
 12 36  1  0
 13 37  1  0
 13 38  1  0
 14 39  1  0
 14 40  1  0
 15 41  1  0
 15 42  1  0
 16 43  1  0
 17 44  1  0
 19 45  1  0
 20 46  1  0
 26 47  1  0
 26 48  1  0
 27 49  1  0
 27 50  1  0
 29 51  1  0
 29 52  1  0
 30 53  1  0
 30 54  1  0
 31 55  1  0
 32 56  1  0
M  CHG  1   3  -1
M  END
>  <UniqueID>  (45) 
43

>  <SMILES>  (45) 
O=C([N-]c1ccc(S(=O)(=O)N2CCCC2)cc1)c1ccc(S(=O)(=O)N2CCOCC2)cc1

>  <Energy>  (45) 
72.10798255746704

>  <Genealogy>  (45) 
O=C([N-]c1ccc(S(=O)(=O)N2CCCC2)cc1)c1ccc(S(=O)(=O)N2CCOCC2)cc1 (protonated)
O=C([N-]c1ccc(S(=O)(=O)N2CCCC2)cc1)c1ccc(S(=O)(=O)N2CCOCC2)cc1 (3D coordinates assigned)
O=C([N-]c1ccc(S(=O)(=O)N2CCCC2)cc1)c1ccc(S(=O)(=O)N2CCOCC2)cc1 (nonaromatic ring conformer: 72.10798255746704 kcal/mol)

>  <smiles>  (45) 
O=C(Nc1ccc(S(=O)(=O)N2CCCC2)cc1)c1ccc(S(=O)(=O)N2CCOCC2)cc1

>  <score_type>  (45) 
oracle

>  <origin>  (45) 
adgpu

>  <m_score__min__energy>  (45) 
-12.130000000000001

>  <m_primary>  (45) 
energy

$$$$
45:0
     RDKit          3D

 53 56  0  0  0  0  0  0  0  0999 V2000
   -2.2460   20.2480  -33.8780 C   0  0  0  0  0  0  0  0  0  0  0  0
   -3.2800   20.7440  -32.9540 N   0  0  0  0  0  0  0  0  0  0  0  0
   -2.9930   21.7630  -32.0850 C   0  0  0  0  0  0  0  0  0  0  0  0
   -1.8450   22.2900  -32.0810 O   0  0  0  0  0  0  0  0  0  0  0  0
   -3.9910   22.2440  -31.2240 C   0  0  0  0  0  0  0  0  0  0  0  0
   -3.7610   23.3290  -30.2440 C   0  0  0  0  0  0  0  0  0  0  0  0
   -3.8520   24.5270  -30.6310 O   0  0  0  0  0  0  0  0  0  0  0  0
   -3.5180   23.0430  -28.8570 N   0  0  0  0  0  0  0  0  0  0  0  0
   -2.8930   23.9670  -27.9490 C   0  0  0  0  0  0  0  0  0  0  0  0
   -1.5560   24.3360  -28.1540 C   0  0  0  0  0  0  0  0  0  0  0  0
   -0.9310   25.2460  -27.2960 C   0  0  0  0  0  0  0  0  0  0  0  0
   -1.6380   25.8050  -26.2230 C   0  0  0  0  0  0  0  0  0  0  0  0
   -0.8500   26.9610  -25.1430 S   0  0  0  0  0  0  0  0  0  0  0  0
    0.6080   26.6130  -25.0340 O   0  0  0  0  0  0  0  0  0  0  0  0
   -1.4590   26.8440  -23.7730 O   0  0  0  0  0  0  0  0  0  0  0  0
   -1.0000   28.6140  -25.6920 N   0  0  0  0  0  0  0  0  0  0  0  0
   -0.4910   28.7880  -27.0510 C   0  0  0  0  0  0  0  0  0  0  0  0
   -0.0870   30.2500  -27.1730 C   0  0  0  0  0  0  0  0  0  0  0  0
    0.0830   30.7400  -25.7430 C   0  0  0  0  0  0  0  0  0  0  0  0
   -0.2310   29.5390  -24.8640 C   0  0  0  0  0  0  0  0  0  0  0  0
   -2.9840   25.4630  -26.0330 C   0  0  0  0  0  0  0  0  0  0  0  0
   -3.6090   24.5530  -26.8900 C   0  0  0  0  0  0  0  0  0  0  0  0
   -5.2310   21.7070  -31.3160 N   0  0  0  0  0  0  0  0  0  0  0  0
   -5.5230   20.7310  -32.1770 N   0  0  0  0  0  0  0  0  0  0  0  0
   -6.8740   20.2290  -32.1980 C   0  0  0  0  0  0  0  0  0  0  0  0
   -7.1070   18.8440  -32.1640 C   0  0  0  0  0  0  0  0  0  0  0  0
   -8.4130   18.3450  -32.2080 C   0  0  0  0  0  0  0  0  0  0  0  0
   -9.4950   19.2250  -32.2990 C   0  0  0  0  0  0  0  0  0  0  0  0
   -9.2730   20.6040  -32.3520 C   0  0  0  0  0  0  0  0  0  0  0  0
   -7.9690   21.1050  -32.3060 C   0  0  0  0  0  0  0  0  0  0  0  0
   -4.5570   20.2500  -33.0220 C   0  0  0  0  0  0  0  0  0  0  0  0
   -4.8510   19.3730  -33.8830 O   0  0  0  0  0  0  0  0  0  0  0  0
   -1.4019   19.8431  -33.3005 H   0  0  0  0  0  0  0  0  0  0  0  0
   -2.6704   19.4554  -34.5118 H   0  0  0  0  0  0  0  0  0  0  0  0
   -1.8934   21.0750  -34.5118 H   0  0  0  0  0  0  0  0  0  0  0  0
   -3.9220   22.1640  -28.4620 H   0  0  0  0  0  0  0  0  0  0  0  0
   -0.9943   23.9062  -28.9965 H   0  0  0  0  0  0  0  0  0  0  0  0
    0.1199   25.5242  -27.4639 H   0  0  0  0  0  0  0  0  0  0  0  0
    0.3800   28.1372  -27.2175 H   0  0  0  0  0  0  0  0  0  0  0  0
   -1.2511   28.5199  -27.7995 H   0  0  0  0  0  0  0  0  0  0  0  0
    0.8585   30.3435  -27.7273 H   0  0  0  0  0  0  0  0  0  0  0  0
   -0.8371   30.8384  -27.7217 H   0  0  0  0  0  0  0  0  0  0  0  0
    1.1147   31.0817  -25.5734 H   0  0  0  0  0  0  0  0  0  0  0  0
   -0.5763   31.5922  -25.5217 H   0  0  0  0  0  0  0  0  0  0  0  0
    0.7002   29.0619  -24.5243 H   0  0  0  0  0  0  0  0  0  0  0  0
   -0.7952   29.8365  -23.9678 H   0  0  0  0  0  0  0  0  0  0  0  0
   -3.5513   25.9132  -25.2051 H   0  0  0  0  0  0  0  0  0  0  0  0
   -4.6668   24.2937  -26.7353 H   0  0  0  0  0  0  0  0  0  0  0  0
   -6.2575   18.1479  -32.1024 H   0  0  0  0  0  0  0  0  0  0  0  0
   -8.5885   17.2597  -32.1710 H   0  0  0  0  0  0  0  0  0  0  0  0
  -10.5220   18.8321  -32.3289 H   0  0  0  0  0  0  0  0  0  0  0  0
  -10.1250   21.2953  -32.4300 H   0  0  0  0  0  0  0  0  0  0  0  0
   -7.7982   22.1906  -32.3545 H   0  0  0  0  0  0  0  0  0  0  0  0
  1  2  1  0
  2  3  1  0
  3  4  2  0
  3  5  1  0
  5  6  1  0
  6  7  2  0
  6  8  1  0
  8  9  1  0
  9 10  2  0
 10 11  1  0
 11 12  2  0
 12 13  1  0
 13 14  2  0
 13 15  2  0
 13 16  1  0
 16 17  1  0
 17 18  1  0
 18 19  1  0
 19 20  1  0
 12 21  1  0
 21 22  2  0
  5 23  2  0
 23 24  1  0
 24 25  1  0
 25 26  2  0
 26 27  1  0
 27 28  2  0
 28 29  1  0
 29 30  2  0
 24 31  1  0
 31 32  2  0
 31  2  1  0
 22  9  1  0
 30 25  1  0
 20 16  1  0
  1 33  1  0
  1 34  1  0
  1 35  1  0
  8 36  1  0
 10 37  1  0
 11 38  1  0
 17 39  1  0
 17 40  1  0
 18 41  1  0
 18 42  1  0
 19 43  1  0
 19 44  1  0
 20 45  1  0
 20 46  1  0
 21 47  1  0
 22 48  1  0
 26 49  1  0
 27 50  1  0
 28 51  1  0
 29 52  1  0
 30 53  1  0
M  END
>  <UniqueID>  (46) 
44

>  <SMILES>  (46) 
Cn1c(=O)c(C(=O)Nc2ccc(S(=O)(=O)N3CCCC3)cc2)nn(-c2ccccc2)c1=O

>  <Energy>  (46) 
75.73871472749526

>  <Genealogy>  (46) 
Cn1c(=O)c(C(=O)Nc2ccc(S(=O)(=O)N3CCCC3)cc2)nn(-c2ccccc2)c1=O (3D coordinates assigned)
Cn1c(=O)c(C(=O)Nc2ccc(S(=O)(=O)N3CCCC3)cc2)nn(-c2ccccc2)c1=O (nonaromatic ring conformer: 75.73871472749526 kcal/mol)

>  <smiles>  (46) 
Cn1c(=O)c(C(=O)Nc2ccc(S(=O)(=O)N3CCCC3)cc2)nn(-c2ccccc2)c1=O

>  <score_type>  (46) 
oracle

>  <origin>  (46) 
adgpu

>  <m_score__min__energy>  (46) 
-10.050000000000001

>  <m_primary>  (46) 
energy

$$$$
46:0
     RDKit          3D

 47 50  0  0  1  0  0  0  0  0999 V2000
   -4.2170   19.8920  -33.4400 C   0  0  0  0  0  0  0  0  0  0  0  0
   -5.5380   19.8050  -33.9240 O   0  0  0  0  0  0  0  0  0  0  0  0
   -6.5870   20.1110  -33.0700 C   0  0  0  0  0  0  0  0  0  0  0  0
   -6.7800   21.3950  -32.6090 C   0  0  0  0  0  0  0  0  0  0  0  0
   -7.8220   21.7340  -31.7520 C   0  0  0  0  0  0  0  0  0  0  0  0
   -7.9970   23.0710  -31.2910 N   0  0  0  0  0  0  0  0  0  0  0  0
   -7.0420   23.7000  -30.7110 C   0  0  0  0  0  0  0  0  0  0  0  0
   -5.7930   23.1010  -30.5080 C   0  0  0  0  0  0  0  0  0  0  0  0
   -4.7560   23.7560  -29.8890 C   0  0  0  0  0  0  0  0  0  0  0  0
   -3.4400   23.1880  -29.6520 C   0  0  0  0  0  0  0  0  0  0  0  0
   -3.2630   21.8200  -29.7480 C   0  0  0  0  0  0  0  0  0  0  0  0
   -2.0110   21.2270  -29.5260 C   0  0  0  0  0  0  0  0  0  0  0  0
   -0.9020   21.9720  -29.2050 C   0  0  0  0  0  0  0  0  0  0  0  0
   -1.0730   23.3330  -29.1100 C   0  0  0  0  0  0  0  0  0  0  0  0
    0.0150   24.0720  -28.7940 F   0  0  0  0  0  0  0  0  0  0  0  0
   -2.3230   23.9240  -29.3300 C   0  0  0  0  0  0  0  0  0  0  0  0
   -2.3420   25.2990  -29.1990 O   0  0  0  0  0  0  0  0  0  0  0  0
   -5.0310   25.0220  -29.4910 N   0  0  0  0  0  0  0  0  0  0  0  0
   -6.2550   25.5880  -29.6970 C   0  0  0  0  0  0  0  0  0  0  0  0
   -7.2650   24.9540  -30.2980 N   0  0  0  0  0  0  0  0  0  0  0  0
   -8.6810   20.7260  -31.3640 C   0  0  0  0  0  0  0  0  0  0  0  0
   -8.4870   19.4560  -31.8210 C   0  0  0  0  0  0  0  0  0  0  0  0
   -7.4430   19.1060  -32.6840 C   0  0  0  0  0  0  0  0  0  0  0  0
   -7.3650   17.7970  -33.0650 O   0  0  0  0  0  0  0  0  0  0  0  0
   -6.2510   17.0510  -33.3040 C   0  0  0  0  0  0  0  0  0  0  0  0
   -5.6120   16.9190  -34.5150 C   0  0  0  0  0  0  0  0  0  0  0  0
   -4.4760   16.1180  -34.6180 C   0  0  0  0  0  0  0  0  0  0  0  0
   -3.9810   15.4680  -33.5730 N   0  0  0  0  0  0  0  0  0  0  0  0
   -4.5730   15.5680  -32.3700 C   0  0  0  0  0  0  0  0  0  0  0  0
   -5.6990   16.3510  -32.2310 C   0  0  0  0  0  0  0  0  0  0  0  0
   -4.2287   19.8912  -32.3401 H   0  0  0  0  0  0  0  0  0  0  0  0
   -3.6367   19.0301  -33.8011 H   0  0  0  0  0  0  0  0  0  0  0  0
   -3.7547   20.8225  -33.8011 H   0  0  0  0  0  0  0  0  0  0  0  0
   -6.0830   22.1827  -32.9312 H   0  0  0  0  0  0  0  0  0  0  0  0
   -5.6364   22.0695  -30.8564 H   0  0  0  0  0  0  0  0  0  0  0  0
   -4.1224   21.1829  -30.0040 H   0  0  0  0  0  0  0  0  0  0  0  0
   -1.9145   20.1346  -29.6114 H   0  0  0  0  0  0  0  0  0  0  0  0
    0.0771   21.5015  -29.0321 H   0  0  0  0  0  0  0  0  0  0  0  0
   -2.6610   25.7140  -28.3520 H   0  0  0  0  0  0  0  0  0  0  0  0
   -4.3520   25.6430  -29.0110 H   0  0  0  0  0  0  0  0  0  0  0  0
   -6.4183   26.6191  -29.3504 H   0  0  0  0  0  0  0  0  0  0  0  0
   -9.5201   20.9465  -30.6878 H   0  0  0  0  0  0  0  0  0  0  0  0
   -9.1842   18.6697  -31.4958 H   0  0  0  0  0  0  0  0  0  0  0  0
   -5.9971   17.4450  -35.4010 H   0  0  0  0  0  0  0  0  0  0  0  0
   -3.9760   16.0222  -35.5931 H   0  0  0  0  0  0  0  0  0  0  0  0
   -4.1621   15.0292  -31.5035 H   0  0  0  0  0  0  0  0  0  0  0  0
   -6.1771   16.4262  -31.2432 H   0  0  0  0  0  0  0  0  0  0  0  0
  1  2  1  0
  2  3  1  0
  3  4  2  0
  4  5  1  0
  5  6  1  0
  6  7  2  0
  7  8  1  0
  8  9  2  0
  9 10  1  0
 10 11  2  0
 11 12  1  0
 12 13  2  0
 13 14  1  0
 14 15  1  0
 14 16  2  0
 16 17  1  0
  9 18  1  0
 18 19  1  0
 19 20  2  0
  5 21  2  0
 21 22  1  0
 22 23  2  0
 23 24  1  0
 24 25  1  0
 25 26  2  0
 26 27  1  0
 27 28  2  0
 28 29  1  0
 29 30  2  0
 23  3  1  0
 30 25  1  0
 20  7  1  0
 16 10  1  0
  1 31  1  0
  1 32  1  0
  1 33  1  0
  4 34  1  0
  8 35  1  0
 11 36  1  0
 12 37  1  0
 13 38  1  0
 17 39  1  0
 18 40  1  0
 19 41  1  0
 21 42  1  0
 22 43  1  0
 26 44  1  0
 27 45  1  0
 29 46  1  0
 30 47  1  0
M  END
>  <smiles>  (47) 
COc1cc(N=c2cc(-c3cccc(F)c3O)[nH]cn2)ccc1Oc1ccncc1

>  <score_type>  (47) 
oracle

>  <origin>  (47) 
adgpu

>  <m_score__min__energy>  (47) 
-9.6099999999999994

>  <m_primary>  (47) 
energy

$$$$
47:0
     RDKit          3D

 34 36  0  0  0  0  0  0  0  0999 V2000
   -1.1520   26.3770  -28.9360 N   0  0  0  0  0  0  0  0  0  0  0  0
   -0.9900   25.4800  -27.8270 C   0  0  0  0  0  0  0  0  0  0  0  0
   -0.4150   25.9680  -26.6440 C   0  0  0  0  0  0  0  0  0  0  0  0
   -0.2370   25.1310  -25.5420 C   0  0  0  0  0  0  0  0  0  0  0  0
   -0.6310   23.7970  -25.6080 C   0  0  0  0  0  0  0  0  0  0  0  0
   -1.2050   23.2940  -26.7770 C   0  0  0  0  0  0  0  0  0  0  0  0
   -1.3930   24.1220  -27.8960 C   0  0  0  0  0  0  0  0  0  0  0  0
   -2.1310   23.4420  -29.3520 S   0  0  0  0  0  0  0  0  0  0  0  0
   -2.9290   22.2180  -28.9970 O   0  0  0  0  0  0  0  0  0  0  0  0
   -1.0480   23.0670  -30.3250 O   0  0  0  0  0  0  0  0  0  0  0  0
   -3.1910   24.5970  -30.0940 N   0  0  0  0  0  0  0  0  0  0  0  0
   -4.5340   24.2700  -30.4610 C   0  0  0  0  0  0  0  0  0  0  0  0
   -5.5590   25.1430  -30.0790 C   0  0  0  0  0  0  0  0  0  0  0  0
   -6.8790   24.8900  -30.4490 C   0  0  0  0  0  0  0  0  0  0  0  0
   -7.1950   23.7580  -31.1980 C   0  0  0  0  0  0  0  0  0  0  0  0
   -6.1870   22.8490  -31.5710 C   0  0  0  0  0  0  0  0  0  0  0  0
   -6.4850   21.6870  -32.3100 C   0  0  0  0  0  0  0  0  0  0  0  0
   -7.6670   21.4410  -32.6740 O   0  0  0  0  0  0  0  0  0  0  0  0
   -5.4590   20.7950  -32.6390 C   0  0  0  0  0  0  0  0  0  0  0  0
   -5.7910   19.3330  -33.5590 Cl  0  0  0  0  0  0  0  0  0  0  0  0
   -4.1550   21.0630  -32.2220 C   0  0  0  0  0  0  0  0  0  0  0  0
   -3.8740   22.1860  -31.5110 N   0  0  0  0  0  0  0  0  0  0  0  0
   -4.8430   23.0970  -31.1890 C   0  0  0  0  0  0  0  0  0  0  0  0
   -0.8290   27.3660  -28.9120 H   0  0  0  0  0  0  0  0  0  0  0  0
   -1.6130   26.0500  -29.8140 H   0  0  0  0  0  0  0  0  0  0  0  0
   -0.1015   27.0207  -26.5847 H   0  0  0  0  0  0  0  0  0  0  0  0
    0.2151   25.5253  -24.6200 H   0  0  0  0  0  0  0  0  0  0  0  0
   -0.4898   23.1388  -24.7380 H   0  0  0  0  0  0  0  0  0  0  0  0
   -1.5130   22.2390  -26.8222 H   0  0  0  0  0  0  0  0  0  0  0  0
   -5.3212   26.0358  -29.4821 H   0  0  0  0  0  0  0  0  0  0  0  0
   -7.6750   25.5872  -30.1483 H   0  0  0  0  0  0  0  0  0  0  0  0
   -8.2369   23.5740  -31.4991 H   0  0  0  0  0  0  0  0  0  0  0  0
   -3.3473   20.3590  -32.4710 H   0  0  0  0  0  0  0  0  0  0  0  0
   -2.8860   22.3240  -31.2030 H   0  0  0  0  0  0  0  0  0  0  0  0
  1  2  1  0
  2  3  2  0
  3  4  1  0
  4  5  2  0
  5  6  1  0
  6  7  2  0
  7  8  1  0
  8  9  2  0
  8 10  2  0
  8 11  1  0
 11 12  1  0
 12 13  2  0
 13 14  1  0
 14 15  2  0
 15 16  1  0
 16 17  1  0
 17 18  2  0
 17 19  1  0
 19 20  1  0
 19 21  2  0
 21 22  1  0
 22 23  1  0
  7  2  1  0
 23 12  1  0
 23 16  2  0
  1 24  1  0
  1 25  1  0
  3 26  1  0
  4 27  1  0
  5 28  1  0
  6 29  1  0
 13 30  1  0
 14 31  1  0
 15 32  1  0
 21 33  1  0
 22 34  1  0
M  CHG  1  11  -1
M  END
>  <UniqueID>  (48) 
45

>  <SMILES>  (48) 
Nc1ccccc1S(=O)(=O)[N-]c1cccc2c(=O)c(Cl)c[nH]c12

>  <Energy>  (48) 
54.442707441641886

>  <Genealogy>  (48) 
Nc1ccccc1S(=O)(=O)[N-]c1cccc2c(=O)c(Cl)c[nH]c12 (protonated)
Nc1ccccc1S(=O)(=O)[N-]c1cccc2c(=O)c(Cl)c[nH]c12 (3D coordinates assigned)
Nc1ccccc1S(=O)(=O)[N-]c1cccc2c(=O)c(Cl)c[nH]c12 (optimized conformer: 54.442707441641886 kcal/mol)

>  <smiles>  (48) 
Nc1ccccc1S(=O)(=O)Nc1cccc2c(=O)c(Cl)c[nH]c12

>  <score_type>  (48) 
oracle

>  <origin>  (48) 
adgpu

>  <m_score__min__energy>  (48) 
-10.050000000000001

>  <m_primary>  (48) 
energy

$$$$
48:0
     RDKit          3D

 44 46  0  0  0  0  0  0  0  0999 V2000
   -5.7470   25.8540  -30.7330 O   0  0  0  0  0  0  0  0  0  0  0  0
   -4.9160   24.9180  -30.8740 C   0  0  0  0  0  0  0  0  0  0  0  0
   -3.5630   25.1340  -30.4490 N   0  0  0  0  0  0  0  0  0  0  0  0
   -2.9030   24.4900  -29.3480 C   0  0  0  0  0  0  0  0  0  0  0  0
   -3.3780   23.2760  -28.8160 C   0  0  0  0  0  0  0  0  0  0  0  0
   -2.7150   22.6680  -27.7410 C   0  0  0  0  0  0  0  0  0  0  0  0
   -3.1890   21.4740  -27.1990 O   0  0  0  0  0  0  0  0  0  0  0  0
   -1.5680   23.2600  -27.2070 C   0  0  0  0  0  0  0  0  0  0  0  0
   -1.0760   24.4500  -27.7490 C   0  0  0  0  0  0  0  0  0  0  0  0
   -1.7370   25.0610  -28.8190 C   0  0  0  0  0  0  0  0  0  0  0  0
   -1.2360   26.2460  -29.3490 O   0  0  0  0  0  0  0  0  0  0  0  0
   -5.3720   23.6100  -31.4070 C   0  0  0  0  0  0  0  0  0  0  0  0
   -4.4350   22.7010  -31.9300 C   0  0  0  0  0  0  0  0  0  0  0  0
   -4.8480   21.4630  -32.4420 C   0  0  0  0  0  0  0  0  0  0  0  0
   -3.6590   20.3350  -33.1000 S   0  0  0  0  0  0  0  0  0  0  0  0
   -4.3720   19.1440  -33.6750 O   0  0  0  0  0  0  0  0  0  0  0  0
   -2.9030   21.0080  -34.2130 O   0  0  0  0  0  0  0  0  0  0  0  0
   -2.5310   19.8030  -31.8740 N   0  0  0  0  0  0  0  0  0  0  0  0
   -2.8170   20.4750  -30.5870 C   0  0  0  0  0  0  0  0  0  0  0  0
   -1.6310   20.3670  -29.6250 C   0  0  0  0  0  0  0  0  0  0  0  0
   -0.3860   21.0670  -30.1990 C   0  0  0  0  0  0  0  0  0  0  0  0
   -0.3930   21.1290  -31.7360 C   0  0  0  0  0  0  0  0  0  0  0  0
   -1.1250   19.9190  -32.3360 C   0  0  0  0  0  0  0  0  0  0  0  0
   -6.2060   21.1270  -32.4250 C   0  0  0  0  0  0  0  0  0  0  0  0
   -7.1430   22.0140  -31.8940 C   0  0  0  0  0  0  0  0  0  0  0  0
   -6.7350   23.2520  -31.3870 C   0  0  0  0  0  0  0  0  0  0  0  0
   -7.6940   24.1230  -30.8810 O   0  0  0  0  0  0  0  0  0  0  0  0
   -4.2731   22.8027  -29.2458 H   0  0  0  0  0  0  0  0  0  0  0  0
   -4.1820   21.2860  -27.1200 H   0  0  0  0  0  0  0  0  0  0  0  0
   -1.0512   22.7884  -26.3582 H   0  0  0  0  0  0  0  0  0  0  0  0
   -0.1663   24.9074  -27.3329 H   0  0  0  0  0  0  0  0  0  0  0  0
   -3.3670   22.9641  -31.9374 H   0  0  0  0  0  0  0  0  0  0  0  0
   -3.0279   21.5377  -30.7772 H   0  0  0  0  0  0  0  0  0  0  0  0
   -3.6844   19.9817  -30.1241 H   0  0  0  0  0  0  0  0  0  0  0  0
   -1.8999   20.8395  -28.6688 H   0  0  0  0  0  0  0  0  0  0  0  0
   -1.3964   19.3024  -29.4779 H   0  0  0  0  0  0  0  0  0  0  0  0
   -0.3474   22.0937  -29.8059 H   0  0  0  0  0  0  0  0  0  0  0  0
    0.4936   20.4806  -29.8950 H   0  0  0  0  0  0  0  0  0  0  0  0
   -0.9010   22.0508  -32.0559 H   0  0  0  0  0  0  0  0  0  0  0  0
    0.6483   21.1178  -32.0904 H   0  0  0  0  0  0  0  0  0  0  0  0
   -1.1231   20.0164  -33.4317 H   0  0  0  0  0  0  0  0  0  0  0  0
   -0.5939   19.0152  -32.0027 H   0  0  0  0  0  0  0  0  0  0  0  0
   -6.5363   20.1598  -32.8318 H   0  0  0  0  0  0  0  0  0  0  0  0
   -8.2077   21.7383  -31.8740 H   0  0  0  0  0  0  0  0  0  0  0  0
  1  2  2  0
  2  3  1  0
  3  4  1  0
  4  5  2  0
  5  6  1  0
  6  7  1  0
  6  8  2  0
  8  9  1  0
  9 10  2  0
 10 11  1  0
  2 12  1  0
 12 13  2  0
 13 14  1  0
 14 15  1  0
 15 16  2  0
 15 17  2  0
 15 18  1  0
 18 19  1  0
 19 20  1  0
 20 21  1  0
 21 22  1  0
 22 23  1  0
 14 24  2  0
 24 25  1  0
 25 26  2  0
 26 27  1  0
 10  4  1  0
 26 12  1  0
 23 18  1  0
  5 28  1  0
  7 29  1  0
  8 30  1  0
  9 31  1  0
 13 32  1  0
 19 33  1  0
 19 34  1  0
 20 35  1  0
 20 36  1  0
 21 37  1  0
 21 38  1  0
 22 39  1  0
 22 40  1  0
 23 41  1  0
 23 42  1  0
 24 43  1  0
 25 44  1  0
M  CHG  3   3  -1  11  -1  27  -1
M  END
>  <UniqueID>  (49) 
46

>  <SMILES>  (49) 
O=C([N-]c1cc(O)ccc1[O-])c1cc(S(=O)(=O)N2CCCCC2)ccc1[O-]

>  <Energy>  (49) 
57.1530790692097

>  <Genealogy>  (49) 
O=C([N-]c1cc(O)ccc1[O-])c1cc(S(=O)(=O)N2CCCCC2)ccc1[O-] (protonated)
O=C([N-]c1cc(O)ccc1[O-])c1cc(S(=O)(=O)N2CCCCC2)ccc1[O-] (3D coordinates assigned)
O=C([N-]c1cc(O)ccc1[O-])c1cc(S(=O)(=O)N2CCCCC2)ccc1[O-] (nonaromatic ring conformer: 57.1530790692097 kcal/mol)

>  <smiles>  (49) 
O=C(Nc1cc(O)ccc1O)c1cc(S(=O)(=O)N2CCCCC2)ccc1O

>  <score_type>  (49) 
oracle

>  <origin>  (49) 
adgpu

>  <m_score__min__energy>  (49) 
-15.43

>  <m_primary>  (49) 
energy

$$$$
49:0
     RDKit          3D

 50 53  0  0  0  0  0  0  0  0999 V2000
   -9.5940   21.2650  -31.9730 C   0  0  0  0  0  0  0  0  0  0  0  0
   -9.4080   20.0300  -32.7160 N   0  0  0  0  0  0  0  0  0  0  0  0
   -8.7230   18.8490  -32.2790 C   0  0  0  0  0  0  0  0  0  0  0  0
   -9.2370   18.1720  -31.3530 O   0  0  0  0  0  0  0  0  0  0  0  0
   -7.4860   18.3980  -32.8480 N   0  0  0  0  0  0  0  0  0  0  0  0
   -6.1800   18.3980  -32.2100 C   0  0  0  0  0  0  0  0  0  0  0  0
   -5.2370   19.3150  -32.9840 C   0  0  0  0  0  0  0  0  0  0  0  0
   -5.3030   20.7160  -32.4390 C   0  0  0  0  0  0  0  0  0  0  0  0
   -6.4600   21.1760  -31.7910 C   0  0  0  0  0  0  0  0  0  0  0  0
   -6.4930   22.4560  -31.2300 C   0  0  0  0  0  0  0  0  0  0  0  0
   -5.3640   23.2830  -31.2920 C   0  0  0  0  0  0  0  0  0  0  0  0
   -5.3530   24.8580  -30.5050 S   0  0  0  0  0  0  0  0  0  0  0  0
   -5.9200   25.8760  -31.4520 O   0  0  0  0  0  0  0  0  0  0  0  0
   -6.1900   24.8460  -29.2540 O   0  0  0  0  0  0  0  0  0  0  0  0
   -3.7200   25.2940  -30.1100 N   0  0  0  0  0  0  0  0  0  0  0  0
   -2.8370   24.5050  -29.3010 C   0  0  0  0  0  0  0  0  0  0  0  0
   -3.1900   23.2030  -28.8810 C   0  0  0  0  0  0  0  0  0  0  0  0
   -2.2650   22.4760  -28.1380 C   0  0  0  0  0  0  0  0  0  0  0  0
   -1.0330   22.9910  -27.7930 C   0  0  0  0  0  0  0  0  0  0  0  0
   -0.6710   24.2790  -28.1780 C   0  0  0  0  0  0  0  0  0  0  0  0
   -1.5800   25.0410  -28.9330 C   0  0  0  0  0  0  0  0  0  0  0  0
   -1.2270   26.3280  -29.3280 O   0  0  0  0  0  0  0  0  0  0  0  0
   -0.2220   22.0040  -27.0050 C   0  0  0  0  0  0  0  0  0  0  0  0
   -1.1780   20.8440  -26.9510 C   0  0  0  0  0  0  0  0  0  0  0  0
   -0.9870   19.6060  -26.3340 C   0  0  0  0  0  0  0  0  0  0  0  0
   -2.0200   18.6570  -26.3950 C   0  0  0  0  0  0  0  0  0  0  0  0
   -3.2230   18.9570  -27.0660 C   0  0  0  0  0  0  0  0  0  0  0  0
   -3.3990   20.2070  -27.6830 C   0  0  0  0  0  0  0  0  0  0  0  0
   -2.3580   21.1310  -27.6100 C   0  0  0  0  0  0  0  0  0  0  0  0
   -4.2080   22.8270  -31.9390 C   0  0  0  0  0  0  0  0  0  0  0  0
   -4.1790   21.5540  -32.5140 C   0  0  0  0  0  0  0  0  0  0  0  0
   -9.5620   21.0523  -30.8942 H   0  0  0  0  0  0  0  0  0  0  0  0
   -8.7923   21.9725  -32.2312 H   0  0  0  0  0  0  0  0  0  0  0  0
  -10.5685   21.7050  -32.2312 H   0  0  0  0  0  0  0  0  0  0  0  0
   -6.2769   18.7600  -31.1758 H   0  0  0  0  0  0  0  0  0  0  0  0
   -5.7745   17.3755  -32.2035 H   0  0  0  0  0  0  0  0  0  0  0  0
   -4.2078   18.9381  -32.8912 H   0  0  0  0  0  0  0  0  0  0  0  0
   -5.5406   19.3287  -34.0412 H   0  0  0  0  0  0  0  0  0  0  0  0
   -7.3450   20.5262  -31.7243 H   0  0  0  0  0  0  0  0  0  0  0  0
   -7.4089   22.8152  -30.7380 H   0  0  0  0  0  0  0  0  0  0  0  0
   -4.1710   22.7750  -29.1349 H   0  0  0  0  0  0  0  0  0  0  0  0
    0.3085   24.6931  -27.8966 H   0  0  0  0  0  0  0  0  0  0  0  0
    0.7104   21.7379  -27.5245 H   0  0  0  0  0  0  0  0  0  0  0  0
    0.1135   22.3674  -26.0225 H   0  0  0  0  0  0  0  0  0  0  0  0
   -0.0464   19.3789  -25.8108 H   0  0  0  0  0  0  0  0  0  0  0  0
   -1.8900   17.6748  -25.9170 H   0  0  0  0  0  0  0  0  0  0  0  0
   -4.0281   18.2086  -27.1067 H   0  0  0  0  0  0  0  0  0  0  0  0
   -4.3336   20.4500  -28.2097 H   0  0  0  0  0  0  0  0  0  0  0  0
   -3.3199   23.4737  -31.9945 H   0  0  0  0  0  0  0  0  0  0  0  0
   -3.2708   21.2065  -33.0282 H   0  0  0  0  0  0  0  0  0  0  0  0
  1  2  1  0
  2  3  1  0
  3  4  2  0
  3  5  1  0
  5  6  1  0
  6  7  1  0
  7  8  1  0
  8  9  2  0
  9 10  1  0
 10 11  2  0
 11 12  1  0
 12 13  2  0
 12 14  2  0
 12 15  1  0
 15 16  1  0
 16 17  2  0
 17 18  1  0
 18 19  2  0
 19 20  1  0
 20 21  2  0
 21 22  1  0
 19 23  1  0
 23 24  1  0
 24 25  2  0
 25 26  1  0
 26 27  2  0
 27 28  1  0
 28 29  2  0
 11 30  1  0
 30 31  2  0
 31  8  1  0
 21 16  1  0
 29 24  1  0
 29 18  1  0
  1 32  1  0
  1 33  1  0
  1 34  1  0
  6 35  1  0
  6 36  1  0
  7 37  1  0
  7 38  1  0
  9 39  1  0
 10 40  1  0
 17 41  1  0
 20 42  1  0
 23 43  1  0
 23 44  1  0
 25 45  1  0
 26 46  1  0
 27 47  1  0
 28 48  1  0
 30 49  1  0
 31 50  1  0
M  CHG  4   2  -1   5  -1  15  -1  22  -1
M  END
>  <UniqueID>  (50) 
47

>  <SMILES>  (50) 
C[N-]C(=O)[N-]CCc1ccc(S(=O)(=O)[N-]c2cc3c(cc2[O-])Cc2ccccc2-3)cc1

>  <Energy>  (50) 
77.209236864143

>  <Genealogy>  (50) 
C[N-]C(=O)[N-]CCc1ccc(S(=O)(=O)[N-]c2cc3c(cc2[O-])Cc2ccccc2-3)cc1 (protonated)
C[N-]C(=O)[N-]CCc1ccc(S(=O)(=O)[N-]c2cc3c(cc2[O-])Cc2ccccc2-3)cc1 (3D coordinates assigned)
C[N-]C(=O)[N-]CCc1ccc(S(=O)(=O)[N-]c2cc3c(cc2[O-])Cc2ccccc2-3)cc1 (nonaromatic ring conformer: 77.209236864143 kcal/mol)

>  <smiles>  (50) 
CNC(=O)NCCc1ccc(S(=O)(=O)Nc2cc3c(cc2O)Cc2ccccc2-3)cc1

>  <score_type>  (50) 
oracle

>  <origin>  (50) 
adgpu

>  <m_score__min__energy>  (50) 
-15.289999999999999

>  <m_primary>  (50) 
energy

$$$$
