0:0
     RDKit          3D

 52 54  0  0  0  0  0  0  0  0999 V2000
   -4.7150   18.8670  -33.4900 C   0  0  0  0  0  0  0  0  0  0  0  0
   -4.8230   20.2780  -32.9700 C   0  0  0  0  0  0  0  0  0  0  0  0
   -6.1020   20.8410  -32.8640 C   0  0  0  0  0  0  0  0  0  0  0  0
   -6.2740   22.1330  -32.3830 C   0  0  0  0  0  0  0  0  0  0  0  0
   -5.1740   22.9100  -32.0250 C   0  0  0  0  0  0  0  0  0  0  0  0
   -5.4230   24.2480  -31.5690 N   0  0  0  0  0  0  0  0  0  0  0  0
   -4.9140   24.8560  -30.3740 C   0  0  0  0  0  0  0  0  0  0  0  0
   -5.7270   25.2450  -29.4970 O   0  0  0  0  0  0  0  0  0  0  0  0
   -3.5100   25.0060  -30.1290 N   0  0  0  0  0  0  0  0  0  0  0  0
   -2.7930   24.6060  -28.9510 C   0  0  0  0  0  0  0  0  0  0  0  0
   -3.1650   23.4700  -28.2120 C   0  0  0  0  0  0  0  0  0  0  0  0
   -2.4490   23.1090  -27.0670 C   0  0  0  0  0  0  0  0  0  0  0  0
   -1.3350   23.8560  -26.6710 C   0  0  0  0  0  0  0  0  0  0  0  0
   -0.5990   23.4850  -25.4910 C   0  0  0  0  0  0  0  0  0  0  0  0
   -0.0090   23.1890  -24.5410 N   0  0  0  0  0  0  0  0  0  0  0  0
   -0.9270   24.9560  -27.4350 C   0  0  0  0  0  0  0  0  0  0  0  0
   -1.6490   25.3250  -28.5750 C   0  0  0  0  0  0  0  0  0  0  0  0
   -1.2300   26.4160  -29.3280 O   0  0  0  0  0  0  0  0  0  0  0  0
   -3.8770   22.3470  -32.0650 C   0  0  0  0  0  0  0  0  0  0  0  0
   -2.7680   23.0720  -31.6200 O   0  0  0  0  0  0  0  0  0  0  0  0
   -3.6950   21.0200  -32.5270 C   0  0  0  0  0  0  0  0  0  0  0  0
   -2.0590   20.3010  -32.5300 S   0  0  0  0  0  0  0  0  0  0  0  0
   -1.1900   21.0030  -33.5360 O   0  0  0  0  0  0  0  0  0  0  0  0
   -2.1220   18.8520  -32.9220 O   0  0  0  0  0  0  0  0  0  0  0  0
   -1.3160   20.4400  -30.9010 C   0  0  0  0  0  0  0  0  0  0  0  0
   -0.2250   19.3650  -30.6960 C   0  0  0  0  0  0  0  0  0  0  0  0
   -0.1590   18.8450  -29.2450 C   0  0  0  0  0  0  0  0  0  0  0  0
   -0.4360   19.8980  -28.2460 N   0  0  0  0  0  0  0  0  0  0  0  0
    0.6660   20.8690  -28.1500 C   0  0  0  0  0  0  0  0  0  0  0  0
   -1.7590   20.5560  -28.4180 C   0  0  0  0  0  0  0  0  0  0  0  0
   -2.3850   20.3570  -29.8120 C   0  0  0  0  0  0  0  0  0  0  0  0
   -4.6614   18.1672  -32.6430 H   0  0  0  0  0  0  0  0  0  0  0  0
   -5.5979   18.6336  -34.1032 H   0  0  0  0  0  0  0  0  0  0  0  0
   -3.8069   18.7707  -34.1032 H   0  0  0  0  0  0  0  0  0  0  0  0
   -6.9810   20.2524  -33.1655 H   0  0  0  0  0  0  0  0  0  0  0  0
   -7.2884   22.5467  -32.2838 H   0  0  0  0  0  0  0  0  0  0  0  0
   -4.0230   22.8625  -28.5359 H   0  0  0  0  0  0  0  0  0  0  0  0
   -2.7624   22.2356  -26.4763 H   0  0  0  0  0  0  0  0  0  0  0  0
   -0.0374   25.5310  -27.1384 H   0  0  0  0  0  0  0  0  0  0  0  0
   -2.8340   23.9890  -31.2010 H   0  0  0  0  0  0  0  0  0  0  0  0
   -0.8313   21.4247  -30.8274 H   0  0  0  0  0  0  0  0  0  0  0  0
   -0.4382   18.5169  -31.3633 H   0  0  0  0  0  0  0  0  0  0  0  0
    0.7448   19.8316  -30.9237 H   0  0  0  0  0  0  0  0  0  0  0  0
   -0.9019   18.0427  -29.1251 H   0  0  0  0  0  0  0  0  0  0  0  0
    0.8647   18.4829  -29.0693 H   0  0  0  0  0  0  0  0  0  0  0  0
    0.8898   21.0662  -27.0912 H   0  0  0  0  0  0  0  0  0  0  0  0
    1.5597   20.4594  -28.6435 H   0  0  0  0  0  0  0  0  0  0  0  0
    0.3721   21.8071  -28.6435 H   0  0  0  0  0  0  0  0  0  0  0  0
   -2.4496   20.1442  -27.6674 H   0  0  0  0  0  0  0  0  0  0  0  0
   -1.5937   21.6367  -28.2962 H   0  0  0  0  0  0  0  0  0  0  0  0
   -2.8670   19.3691  -29.8537 H   0  0  0  0  0  0  0  0  0  0  0  0
   -3.1267   21.1511  -29.9832 H   0  0  0  0  0  0  0  0  0  0  0  0
  1  2  1  0
  2  3  2  0
  3  4  1  0
  4  5  2  0
  5  6  1  0
  6  7  1  0
  7  8  2  0
  7  9  1  0
  9 10  1  0
 10 11  2  0
 11 12  1  0
 12 13  2  0
 13 14  1  0
 14 15  3  0
 13 16  1  0
 16 17  2  0
 17 18  1  0
  5 19  1  0
 19 20  1  0
 19 21  2  0
 21 22  1  0
 22 23  2  0
 22 24  2  0
 22 25  1  0
 25 26  1  0
 26 27  1  0
 27 28  1  0
 28 29  1  0
 28 30  1  0
 30 31  1  0
 21  2  1  0
 31 25  1  0
 17 10  1  0
  1 32  1  0
  1 33  1  0
  1 34  1  0
  3 35  1  0
  4 36  1  0
 11 37  1  0
 12 38  1  0
 16 39  1  0
 20 40  1  0
 25 41  1  0
 26 42  1  0
 26 43  1  0
 27 44  1  0
 27 45  1  0
 29 46  1  0
 29 47  1  0
 29 48  1  0
 30 49  1  0
 30 50  1  0
 31 51  1  0
 31 52  1  0
M  CHG  3   6  -1   9  -1  18  -1
M  END
>  <UniqueID>  (1) 
1

>  <SMILES>  (1) 
Cc1ccc([N-]C(=O)[N-]c2ccc(C#N)cc2[O-])c(O)c1S(=O)(=O)C1CCN(C)CC1

>  <Energy>  (1) 
70.01119439218938

>  <Genealogy>  (1) 
Cc1ccc([N-]C(=O)[N-]c2ccc(C#N)cc2[O-])c(O)c1S(=O)(=O)C1CCN(C)CC1 (protonated)
Cc1ccc([N-]C(=O)[N-]c2ccc(C#N)cc2[O-])c(O)c1S(=O)(=O)C1CCN(C)CC1 (3D coordinates assigned)
Cc1ccc([N-]C(=O)[N-]c2ccc(C#N)cc2[O-])c(O)c1S(=O)(=O)C1CCN(C)CC1 (nonaromatic ring conformer: 70.01119439218938 kcal/mol)

>  <smiles>  (1) 
Cc1ccc(NC(=O)Nc2ccc(C#N)cc2O)c(O)c1S(=O)(=O)C1CCN(C)CC1

>  <score_type>  (1) 
oracle

>  <origin>  (1) 
adgpu

>  <m_score__min__energy>  (1) 
-15.210000000000001

>  <m_primary>  (1) 
energy

$$$$
1:0
     RDKit          3D

 52 54  0  0  1  0  0  0  0  0999 V2000
   -8.7240   22.7610  -31.9940 C   0  0  0  0  0  0  0  0  0  0  0  0
   -7.7340   21.7290  -31.9660 N   0  0  0  0  0  0  0  0  0  0  0  0
   -8.0230   20.4490  -32.5400 C   0  0  0  0  0  0  0  0  0  0  0  0
   -9.1550   20.2960  -33.0490 O   0  0  0  0  0  0  0  0  0  0  0  0
   -7.0780   19.3560  -32.5510 C   0  0  0  0  0  0  0  0  0  0  0  0
   -7.3400   18.2770  -31.7320 C   0  0  0  0  0  0  0  0  0  0  0  0
   -6.4840   17.2070  -31.7010 C   0  0  0  0  0  0  0  0  0  0  0  0
   -5.3320   17.1360  -32.4660 C   0  0  0  0  0  0  0  0  0  0  0  0
   -5.0660   18.2100  -33.2850 C   0  0  0  0  0  0  0  0  0  0  0  0
   -3.9440   18.3060  -34.1410 N   0  0  0  0  0  0  0  0  0  0  0  0
   -2.8800   18.8750  -33.6970 C   0  0  0  0  0  0  0  0  0  0  0  0
   -2.7680   19.3990  -32.4270 C   0  0  0  0  0  0  0  0  0  0  0  0
   -1.5640   19.9820  -32.0900 C   0  0  0  0  0  0  0  0  0  0  0  0
   -1.2920   20.5280  -30.8090 N   0  0  0  0  0  0  0  0  0  0  0  0
   -0.0850   20.0140  -30.1400 C   0  0  0  0  0  0  0  0  0  0  0  0
   -2.0940   21.5060  -30.1720 C   0  0  0  0  0  0  0  0  0  0  0  0
   -1.8830   21.9030  -28.8750 C   0  0  0  0  0  0  0  0  0  0  0  0
   -2.6700   22.8570  -28.2350 C   0  0  0  0  0  0  0  0  0  0  0  0
   -3.7100   23.4370  -28.9180 C   0  0  0  0  0  0  0  0  0  0  0  0
   -4.5370   24.4540  -28.2270 C   0  0  0  0  0  0  0  0  0  0  0  0
   -3.9170   23.0350  -30.2180 C   0  0  0  0  0  0  0  0  0  0  0  0
   -5.2690   23.8020  -31.0600 S   0  0  0  0  0  0  0  0  0  0  0  0
   -5.4380   23.1320  -32.6510 N   0  0  0  0  0  0  0  0  0  0  0  0
   -6.5100   23.6330  -30.2660 O   0  0  0  0  0  0  0  0  0  0  0  0
   -5.0220   25.2820  -31.2470 O   0  0  0  0  0  0  0  0  0  0  0  0
   -3.1380   22.0910  -30.8530 C   0  0  0  0  0  0  0  0  0  0  0  0
   -0.5700   20.0150  -32.9950 N   0  0  0  0  0  0  0  0  0  0  0  0
   -0.6580   19.5120  -34.2320 C   0  0  0  0  0  0  0  0  0  0  0  0
   -1.8420   18.9330  -34.5770 N   0  0  0  0  0  0  0  0  0  0  0  0
   -5.9440   19.3050  -33.3150 C   0  0  0  0  0  0  0  0  0  0  0  0
   -8.9918   23.0402  -30.9643 H   0  0  0  0  0  0  0  0  0  0  0  0
   -8.3226   23.6400  -32.5196 H   0  0  0  0  0  0  0  0  0  0  0  0
   -9.6189   22.3965  -32.5196 H   0  0  0  0  0  0  0  0  0  0  0  0
   -6.7940   21.8990  -31.5300 H   0  0  0  0  0  0  0  0  0  0  0  0
   -8.2407   18.2755  -31.1005 H   0  0  0  0  0  0  0  0  0  0  0  0
   -6.7237   16.3640  -31.0363 H   0  0  0  0  0  0  0  0  0  0  0  0
   -4.6624   16.2644  -32.4215 H   0  0  0  0  0  0  0  0  0  0  0  0
   -3.6032   19.3542  -31.7126 H   0  0  0  0  0  0  0  0  0  0  0  0
   -0.2179   20.0706  -29.0495 H   0  0  0  0  0  0  0  0  0  0  0  0
    0.0804   18.9674  -30.4354 H   0  0  0  0  0  0  0  0  0  0  0  0
    0.7842   20.6201  -30.4354 H   0  0  0  0  0  0  0  0  0  0  0  0
   -1.0536   21.4462  -28.3151 H   0  0  0  0  0  0  0  0  0  0  0  0
   -2.4606   23.1427  -27.1936 H   0  0  0  0  0  0  0  0  0  0  0  0
   -4.4365   24.3304  -27.1386 H   0  0  0  0  0  0  0  0  0  0  0  0
   -4.1974   25.4599  -28.5147 H   0  0  0  0  0  0  0  0  0  0  0  0
   -5.5910   24.3266  -28.5147 H   0  0  0  0  0  0  0  0  0  0  0  0
   -4.5760   23.1870  -33.2110 H   0  0  0  0  0  0  0  0  0  0  0  0
   -6.2930   23.4600  -33.1240 H   0  0  0  0  0  0  0  0  0  0  0  0
   -3.3488   21.8077  -31.8948 H   0  0  0  0  0  0  0  0  0  0  0  0
    0.1852   19.5636  -34.9365 H   0  0  0  0  0  0  0  0  0  0  0  0
   -1.9160   18.5440  -35.5220 H   0  0  0  0  0  0  0  0  0  0  0  0
   -5.7119   20.1526  -33.9766 H   0  0  0  0  0  0  0  0  0  0  0  0
  1  2  1  0
  2  3  1  0
  3  4  2  0
  3  5  1  0
  5  6  2  0
  6  7  1  0
  7  8  2  0
  8  9  1  0
  9 10  1  0
 10 11  2  0
 11 12  1  0
 12 13  2  0
 13 14  1  0
 14 15  1  0
 14 16  1  0
 16 17  2  0
 17 18  1  0
 18 19  2  0
 19 20  1  0
 19 21  1  0
 21 22  1  0
 22 23  1  0
 22 24  2  0
 22 25  2  0
 21 26  2  0
 13 27  1  0
 27 28  2  0
 28 29  1  0
  9 30  2  0
 30  5  1  0
 29 11  1  0
 26 16  1  0
  1 31  1  0
  1 32  1  0
  1 33  1  0
  2 34  1  0
  6 35  1  0
  7 36  1  0
  8 37  1  0
 12 38  1  0
 15 39  1  0
 15 40  1  0
 15 41  1  0
 17 42  1  0
 18 43  1  0
 20 44  1  0
 20 45  1  0
 20 46  1  0
 23 47  1  0
 23 48  1  0
 26 49  1  0
 28 50  1  0
 29 51  1  0
 30 52  1  0
M  END
>  <smiles>  (2) 
CNC(=O)c1cccc(N=c2cc(N(C)c3ccc(C)c(S(N)(=O)=O)c3)nc[nH]2)c1

>  <score_type>  (2) 
oracle

>  <origin>  (2) 
adgpu

>  <m_score__min__energy>  (2) 
-10.119999999999999

>  <m_primary>  (2) 
energy

$$$$
2:0
     RDKit          3D

 54 57  0  0  0  0  0  0  0  0999 V2000
    1.0600   25.0180  -27.7720 N   0  0  0  0  0  0  0  0  0  0  0  0
    0.0980   25.4520  -26.8000 C   0  0  0  0  0  0  0  0  0  0  0  0
    0.4820   25.5620  -25.4540 C   0  0  0  0  0  0  0  0  0  0  0  0
   -0.4350   25.9800  -24.4880 C   0  0  0  0  0  0  0  0  0  0  0  0
   -1.7430   26.3020  -24.8570 C   0  0  0  0  0  0  0  0  0  0  0  0
   -2.1380   26.1990  -26.1920 C   0  0  0  0  0  0  0  0  0  0  0  0
   -1.2300   25.7570  -27.1740 C   0  0  0  0  0  0  0  0  0  0  0  0
   -1.6190   25.6720  -28.5550 N   0  0  0  0  0  0  0  0  0  0  0  0
   -1.7120   24.4660  -29.3290 C   0  0  0  0  0  0  0  0  0  0  0  0
   -0.6550   23.8340  -29.6000 O   0  0  0  0  0  0  0  0  0  0  0  0
   -3.0150   23.9230  -29.7700 C   0  0  0  0  0  0  0  0  0  0  0  0
   -3.0690   22.7760  -30.5770 C   0  0  0  0  0  0  0  0  0  0  0  0
   -4.3000   22.2670  -31.0000 C   0  0  0  0  0  0  0  0  0  0  0  0
   -5.4950   22.8810  -30.6010 C   0  0  0  0  0  0  0  0  0  0  0  0
   -7.0520   22.2190  -31.1120 S   0  0  0  0  0  0  0  0  0  0  0  0
   -7.9450   22.0670  -29.9090 O   0  0  0  0  0  0  0  0  0  0  0  0
   -7.7100   23.1880  -32.0590 O   0  0  0  0  0  0  0  0  0  0  0  0
   -6.8780   20.6510  -31.8650 N   0  0  0  0  0  0  0  0  0  0  0  0
   -6.5840   20.7910  -33.3010 C   0  0  0  0  0  0  0  0  0  0  0  0
   -6.1310   19.4360  -33.8580 C   0  0  0  0  0  0  0  0  0  0  0  0
   -6.8700   18.3400  -33.2160 N   0  0  0  0  0  0  0  0  0  0  0  0
   -6.3490   16.9980  -33.2460 C   0  0  0  0  0  0  0  0  0  0  0  0
   -6.8560   16.0550  -34.1590 C   0  0  0  0  0  0  0  0  0  0  0  0
   -6.3330   14.7580  -34.1980 C   0  0  0  0  0  0  0  0  0  0  0  0
   -5.3090   14.3890  -33.3190 C   0  0  0  0  0  0  0  0  0  0  0  0
   -4.7870   13.1390  -33.3710 F   0  0  0  0  0  0  0  0  0  0  0  0
   -4.8130   15.3120  -32.3960 C   0  0  0  0  0  0  0  0  0  0  0  0
   -5.3320   16.6110  -32.3550 C   0  0  0  0  0  0  0  0  0  0  0  0
   -8.1750   18.6230  -32.6050 C   0  0  0  0  0  0  0  0  0  0  0  0
   -8.0750   19.8130  -31.6260 C   0  0  0  0  0  0  0  0  0  0  0  0
   -5.4450   24.0190  -29.7820 C   0  0  0  0  0  0  0  0  0  0  0  0
   -4.2150   24.5390  -29.3710 C   0  0  0  0  0  0  0  0  0  0  0  0
    2.0710   24.8990  -27.5310 H   0  0  0  0  0  0  0  0  0  0  0  0
    0.7690   24.8370  -28.7610 H   0  0  0  0  0  0  0  0  0  0  0  0
    1.5129   25.3170  -25.1585 H   0  0  0  0  0  0  0  0  0  0  0  0
   -0.1270   26.0559  -23.4347 H   0  0  0  0  0  0  0  0  0  0  0  0
   -2.4624   26.6370  -24.0952 H   0  0  0  0  0  0  0  0  0  0  0  0
   -3.1660   26.4650  -26.4792 H   0  0  0  0  0  0  0  0  0  0  0  0
   -2.1373   22.2748  -30.8782 H   0  0  0  0  0  0  0  0  0  0  0  0
   -4.3311   21.3798  -31.6495 H   0  0  0  0  0  0  0  0  0  0  0  0
   -7.4890   21.1226  -33.8311 H   0  0  0  0  0  0  0  0  0  0  0  0
   -5.7860   21.5345  -33.4438 H   0  0  0  0  0  0  0  0  0  0  0  0
   -6.3161   19.4106  -34.9420 H   0  0  0  0  0  0  0  0  0  0  0  0
   -5.0580   19.3087  -33.6522 H   0  0  0  0  0  0  0  0  0  0  0  0
   -7.6674   16.3389  -34.8453 H   0  0  0  0  0  0  0  0  0  0  0  0
   -6.7271   14.0279  -34.9202 H   0  0  0  0  0  0  0  0  0  0  0  0
   -4.0134   15.0177  -31.7003 H   0  0  0  0  0  0  0  0  0  0  0  0
   -4.9425   17.3330  -31.6222 H   0  0  0  0  0  0  0  0  0  0  0  0
   -8.8987   18.8670  -33.3967 H   0  0  0  0  0  0  0  0  0  0  0  0
   -8.5036   17.7338  -32.0471 H   0  0  0  0  0  0  0  0  0  0  0  0
   -8.9718   20.4395  -31.7410 H   0  0  0  0  0  0  0  0  0  0  0  0
   -7.9942   19.4008  -30.6094 H   0  0  0  0  0  0  0  0  0  0  0  0
   -6.3788   24.5043  -29.4618 H   0  0  0  0  0  0  0  0  0  0  0  0
   -4.1849   25.4342  -28.7325 H   0  0  0  0  0  0  0  0  0  0  0  0
  1  2  1  0
  2  3  2  0
  3  4  1  0
  4  5  2  0
  5  6  1  0
  6  7  2  0
  7  8  1  0
  8  9  1  0
  9 10  2  0
  9 11  1  0
 11 12  2  0
 12 13  1  0
 13 14  2  0
 14 15  1  0
 15 16  2  0
 15 17  2  0
 15 18  1  0
 18 19  1  0
 19 20  1  0
 20 21  1  0
 21 22  1  0
 22 23  2  0
 23 24  1  0
 24 25  2  0
 25 26  1  0
 25 27  1  0
 27 28  2  0
 21 29  1  0
 29 30  1  0
 14 31  1  0
 31 32  2  0
  7  2  1  0
 32 11  1  0
 30 18  1  0
 28 22  1  0
  1 33  1  0
  1 34  1  0
  3 35  1  0
  4 36  1  0
  5 37  1  0
  6 38  1  0
 12 39  1  0
 13 40  1  0
 19 41  1  0
 19 42  1  0
 20 43  1  0
 20 44  1  0
 23 45  1  0
 24 46  1  0
 27 47  1  0
 28 48  1  0
 29 49  1  0
 29 50  1  0
 30 51  1  0
 30 52  1  0
 31 53  1  0
 32 54  1  0
M  CHG  1   8  -1
M  END
>  <UniqueID>  (3) 
2

>  <SMILES>  (3) 
Nc1ccccc1[N-]C(=O)c1ccc(S(=O)(=O)N2CCN(c3ccc(F)cc3)CC2)cc1

>  <Energy>  (3) 
73.6214503611067

>  <Genealogy>  (3) 
Nc1ccccc1[N-]C(=O)c1ccc(S(=O)(=O)N2CCN(c3ccc(F)cc3)CC2)cc1 (protonated)
Nc1ccccc1[N-]C(=O)c1ccc(S(=O)(=O)N2CCN(c3ccc(F)cc3)CC2)cc1 (3D coordinates assigned)
Nc1ccccc1[N-]C(=O)c1ccc(S(=O)(=O)N2CCN(c3ccc(F)cc3)CC2)cc1 (nonaromatic ring conformer: 73.6214503611067 kcal/mol)

>  <smiles>  (3) 
Nc1ccccc1NC(=O)c1ccc(S(=O)(=O)N2CCN(c3ccc(F)cc3)CC2)cc1

>  <score_type>  (3) 
oracle

>  <origin>  (3) 
adgpu

>  <m_score__min__energy>  (3) 
-11.99

>  <m_primary>  (3) 
energy

$$$$
3:0
     RDKit          3D

 35 37  0  0  0  0  0  0  0  0999 V2000
   -5.5700   23.4530  -32.3280 C   0  0  0  0  0  0  0  0  0  0  0  0
   -4.7790   22.9400  -31.1960 N   0  0  0  0  0  0  0  0  0  0  0  0
   -4.5500   21.5930  -31.0460 C   0  0  0  0  0  0  0  0  0  0  0  0
   -5.0530   20.5930  -32.0110 C   0  0  0  0  0  0  0  0  0  0  0  0
   -6.2750   19.9570  -31.7460 C   0  0  0  0  0  0  0  0  0  0  0  0
   -6.7930   19.0190  -32.6430 C   0  0  0  0  0  0  0  0  0  0  0  0
   -6.0910   18.7060  -33.8070 C   0  0  0  0  0  0  0  0  0  0  0  0
   -4.8660   19.3200  -34.0740 C   0  0  0  0  0  0  0  0  0  0  0  0
   -4.3320   20.2620  -33.1810 C   0  0  0  0  0  0  0  0  0  0  0  0
   -3.0530   20.8470  -33.4620 N   0  0  0  0  0  0  0  0  0  0  0  0
   -3.8360   21.1450  -29.9820 N   0  0  0  0  0  0  0  0  0  0  0  0
   -3.3260   21.9860  -29.0860 N   0  0  0  0  0  0  0  0  0  0  0  0
   -3.4920   23.3260  -29.2010 C   0  0  0  0  0  0  0  0  0  0  0  0
   -2.8930   24.2170  -28.1770 C   0  0  0  0  0  0  0  0  0  0  0  0
   -3.5670   24.4760  -26.9690 C   0  0  0  0  0  0  0  0  0  0  0  0
   -2.9900   25.2990  -25.9980 C   0  0  0  0  0  0  0  0  0  0  0  0
   -1.7330   25.8660  -26.2180 C   0  0  0  0  0  0  0  0  0  0  0  0
   -1.0110   26.8980  -24.9970 Cl  0  0  0  0  0  0  0  0  0  0  0  0
   -1.0490   25.6060  -27.4080 C   0  0  0  0  0  0  0  0  0  0  0  0
   -1.6200   24.7830  -28.3830 C   0  0  0  0  0  0  0  0  0  0  0  0
   -0.9400   24.5570  -29.5370 F   0  0  0  0  0  0  0  0  0  0  0  0
   -4.2200   23.8170  -30.3000 C   0  0  0  0  0  0  0  0  0  0  0  0
   -4.3370   25.0630  -30.4700 O   0  0  0  0  0  0  0  0  0  0  0  0
   -6.4355   24.0143  -31.9460 H   0  0  0  0  0  0  0  0  0  0  0  0
   -4.9439   24.1174  -32.9416 H   0  0  0  0  0  0  0  0  0  0  0  0
   -5.9213   22.6103  -32.9416 H   0  0  0  0  0  0  0  0  0  0  0  0
   -6.8287   20.1981  -30.8266 H   0  0  0  0  0  0  0  0  0  0  0  0
   -7.7541   18.5276  -32.4312 H   0  0  0  0  0  0  0  0  0  0  0  0
   -6.5037   17.9735  -34.5163 H   0  0  0  0  0  0  0  0  0  0  0  0
   -4.3152   19.0636  -34.9910 H   0  0  0  0  0  0  0  0  0  0  0  0
   -2.9460   21.5400  -34.2360 H   0  0  0  0  0  0  0  0  0  0  0  0
   -2.1960   20.5840  -32.9280 H   0  0  0  0  0  0  0  0  0  0  0  0
   -4.5549   24.0275  -26.7878 H   0  0  0  0  0  0  0  0  0  0  0  0
   -3.5267   25.5004  -25.0592 H   0  0  0  0  0  0  0  0  0  0  0  0
   -0.0574   26.0506  -27.5784 H   0  0  0  0  0  0  0  0  0  0  0  0
  1  2  1  0
  2  3  1  0
  3  4  1  0
  4  5  2  0
  5  6  1  0
  6  7  2  0
  7  8  1  0
  8  9  2  0
  9 10  1  0
  3 11  2  0
 11 12  1  0
 12 13  2  0
 13 14  1  0
 14 15  2  0
 15 16  1  0
 16 17  2  0
 17 18  1  0
 17 19  1  0
 19 20  2  0
 20 21  1  0
 13 22  1  0
 22 23  2  0
 22  2  1  0
  9  4  1  0
 20 14  1  0
  1 24  1  0
  1 25  1  0
  1 26  1  0
  5 27  1  0
  6 28  1  0
  7 29  1  0
  8 30  1  0
 10 31  1  0
 10 32  1  0
 15 33  1  0
 16 34  1  0
 19 35  1  0
M  END
>  <UniqueID>  (4) 
3

>  <SMILES>  (4) 
Cn1c(-c2ccccc2N)nnc(-c2ccc(Cl)cc2F)c1=O

>  <Energy>  (4) 
57.23073329612292

>  <Genealogy>  (4) 
Cn1c(-c2ccccc2N)nnc(-c2ccc(Cl)cc2F)c1=O (3D coordinates assigned)
Cn1c(-c2ccccc2N)nnc(-c2ccc(Cl)cc2F)c1=O (optimized conformer: 57.23073329612292 kcal/mol)

>  <smiles>  (4) 
Cn1c(-c2ccccc2N)nnc(-c2ccc(Cl)cc2F)c1=O

>  <score_type>  (4) 
oracle

>  <origin>  (4) 
adgpu

>  <m_score__min__energy>  (4) 
-7.6600000000000001

>  <m_primary>  (4) 
energy

$$$$
4:0
     RDKit          3D

 50 53  0  0  0  0  0  0  0  0999 V2000
   -5.6580   26.2730  -31.1610 O   0  0  0  0  0  0  0  0  0  0  0  0
   -5.2140   25.0810  -30.3610 S   0  0  0  0  0  0  0  0  0  0  0  0
   -5.7140   25.2340  -28.9520 O   0  0  0  0  0  0  0  0  0  0  0  0
   -3.4860   25.0040  -30.3580 N   0  0  0  0  0  0  0  0  0  0  0  0
   -2.7940   24.1880  -29.4130 C   0  0  0  0  0  0  0  0  0  0  0  0
   -2.8310   24.5200  -28.0540 C   0  0  0  0  0  0  0  0  0  0  0  0
   -2.1580   23.7340  -27.1160 C   0  0  0  0  0  0  0  0  0  0  0  0
   -1.4380   22.6080  -27.5280 C   0  0  0  0  0  0  0  0  0  0  0  0
   -1.3970   22.2600  -28.8850 C   0  0  0  0  0  0  0  0  0  0  0  0
   -0.6940   21.1310  -29.3240 C   0  0  0  0  0  0  0  0  0  0  0  0
   -0.6770   20.8080  -30.6830 C   0  0  0  0  0  0  0  0  0  0  0  0
   -1.3560   21.6230  -31.5910 C   0  0  0  0  0  0  0  0  0  0  0  0
   -2.0290   22.7190  -31.1540 N   0  0  0  0  0  0  0  0  0  0  0  0
   -2.0750   23.0570  -29.8360 C   0  0  0  0  0  0  0  0  0  0  0  0
   -5.8640   23.6170  -31.0900 C   0  0  0  0  0  0  0  0  0  0  0  0
   -7.2470   23.4810  -31.2660 C   0  0  0  0  0  0  0  0  0  0  0  0
   -7.7650   22.3520  -31.9070 C   0  0  0  0  0  0  0  0  0  0  0  0
   -6.9050   21.3540  -32.3700 C   0  0  0  0  0  0  0  0  0  0  0  0
   -5.5200   21.4770  -32.1920 C   0  0  0  0  0  0  0  0  0  0  0  0
   -4.4380   20.2040  -32.7590 S   0  0  0  0  0  0  0  0  0  0  0  0
   -3.5700   19.7570  -31.6150 O   0  0  0  0  0  0  0  0  0  0  0  0
   -3.5420   20.7600  -33.8300 O   0  0  0  0  0  0  0  0  0  0  0  0
   -5.3160   18.8250  -33.3780 N   0  0  0  0  0  0  0  0  0  0  0  0
   -4.3790   17.7950  -33.8640 C   0  0  0  0  0  0  0  0  0  0  0  0
   -5.1220   16.6460  -34.5800 C   0  0  0  0  0  0  0  0  0  0  0  0
   -6.6140   16.5820  -34.2210 C   0  0  0  0  0  0  0  0  0  0  0  0
   -6.8500   16.9260  -32.7490 C   0  0  0  0  0  0  0  0  0  0  0  0
   -6.2160   18.2770  -32.3410 C   0  0  0  0  0  0  0  0  0  0  0  0
   -5.0030   22.6140  -31.5570 C   0  0  0  0  0  0  0  0  0  0  0  0
   -3.3935   25.4053  -27.7226 H   0  0  0  0  0  0  0  0  0  0  0  0
   -2.1943   24.0014  -26.0496 H   0  0  0  0  0  0  0  0  0  0  0  0
   -0.9038   21.9954  -26.7868 H   0  0  0  0  0  0  0  0  0  0  0  0
   -0.1566   20.5002  -28.6005 H   0  0  0  0  0  0  0  0  0  0  0  0
   -0.1332   19.9189  -31.0349 H   0  0  0  0  0  0  0  0  0  0  0  0
   -1.3459   21.3768  -32.6631 H   0  0  0  0  0  0  0  0  0  0  0  0
   -7.9267   24.2642  -30.8991 H   0  0  0  0  0  0  0  0  0  0  0  0
   -8.8513   22.2496  -32.0469 H   0  0  0  0  0  0  0  0  0  0  0  0
   -7.3159   20.4681  -32.8763 H   0  0  0  0  0  0  0  0  0  0  0  0
   -5.8900   19.1780  -34.1810 H   0  0  0  0  0  0  0  0  0  0  0  0
   -3.6731   18.2582  -34.5691 H   0  0  0  0  0  0  0  0  0  0  0  0
   -3.8480   17.3750  -32.9970 H   0  0  0  0  0  0  0  0  0  0  0  0
   -5.0286   16.7911  -35.6664 H   0  0  0  0  0  0  0  0  0  0  0  0
   -4.6632   15.7017  -34.2515 H   0  0  0  0  0  0  0  0  0  0  0  0
   -7.1640   17.2987  -34.8485 H   0  0  0  0  0  0  0  0  0  0  0  0
   -6.9685   15.5558  -34.3975 H   0  0  0  0  0  0  0  0  0  0  0  0
   -7.9340   16.9778  -32.5694 H   0  0  0  0  0  0  0  0  0  0  0  0
   -6.3738   16.1401  -32.1443 H   0  0  0  0  0  0  0  0  0  0  0  0
   -7.0224   19.0021  -32.1569 H   0  0  0  0  0  0  0  0  0  0  0  0
   -5.6120   18.0999  -31.4389 H   0  0  0  0  0  0  0  0  0  0  0  0
   -3.9162   22.7201  -31.4243 H   0  0  0  0  0  0  0  0  0  0  0  0
  1  2  2  0
  2  3  2  0
  2  4  1  0
  4  5  1  0
  5  6  2  0
  6  7  1  0
  7  8  2  0
  8  9  1  0
  9 10  2  0
 10 11  1  0
 11 12  2  0
 12 13  1  0
 13 14  2  0
  2 15  1  0
 15 16  2  0
 16 17  1  0
 17 18  2  0
 18 19  1  0
 19 20  1  0
 20 21  2  0
 20 22  2  0
 20 23  1  0
 23 24  1  0
 24 25  1  0
 25 26  1  0
 26 27  1  0
 27 28  1  0
 19 29  2  0
 14  5  1  0
 29 15  1  0
 14  9  1  0
 28 23  1  0
  6 30  1  0
  7 31  1  0
  8 32  1  0
 10 33  1  0
 11 34  1  0
 12 35  1  0
 16 36  1  0
 17 37  1  0
 18 38  1  0
 23 39  1  0
 24 40  1  0
 24 41  1  0
 25 42  1  0
 25 43  1  0
 26 44  1  0
 26 45  1  0
 27 46  1  0
 27 47  1  0
 28 48  1  0
 28 49  1  0
 29 50  1  0
M  CHG  2   4  -1  23   1
M  END
>  <UniqueID>  (5) 
4

>  <SMILES>  (5) 
O=S(=O)([N-]c1cccc2cccnc12)c1cccc(S(=O)(=O)[NH+]2CCCCC2)c1

>  <Energy>  (5) 
63.492671579268425

>  <Genealogy>  (5) 
O=S(=O)([N-]c1cccc2cccnc12)c1cccc(S(=O)(=O)[NH+]2CCCCC2)c1 (protonated)
O=S(=O)([N-]c1cccc2cccnc12)c1cccc(S(=O)(=O)[NH+]2CCCCC2)c1 (3D coordinates assigned)
O=S(=O)([N-]c1cccc2cccnc12)c1cccc(S(=O)(=O)[NH+]2CCCCC2)c1 (nonaromatic ring conformer: 63.492671579268425 kcal/mol)

>  <smiles>  (5) 
O=S(=O)(Nc1cccc2cccnc12)c1cccc(S(=O)(=O)N2CCCCC2)c1

>  <score_type>  (5) 
oracle

>  <origin>  (5) 
adgpu

>  <m_score__min__energy>  (5) 
-10.75

>  <m_primary>  (5) 
energy

$$$$
5:0
     RDKit          3D

 39 41  0  0  0  0  0  0  0  0999 V2000
   -3.9090   25.4530  -30.8150 O   0  0  0  0  0  0  0  0  0  0  0  0
   -4.7670   24.8400  -30.1240 C   0  0  0  0  0  0  0  0  0  0  0  0
   -6.0660   24.5650  -30.6600 N   0  0  0  0  0  0  0  0  0  0  0  0
   -6.5950   23.2730  -30.9960 C   0  0  0  0  0  0  0  0  0  0  0  0
   -7.9410   22.9340  -30.7670 C   0  0  0  0  0  0  0  0  0  0  0  0
   -8.4220   21.6730  -31.1300 C   0  0  0  0  0  0  0  0  0  0  0  0
   -7.5690   20.7400  -31.7310 C   0  0  0  0  0  0  0  0  0  0  0  0
   -8.1830   19.1620  -32.2120 S   0  0  0  0  0  0  0  0  0  0  0  0
   -9.3800   19.3290  -33.1060 O   0  0  0  0  0  0  0  0  0  0  0  0
   -8.6120   18.3870  -30.9970 O   0  0  0  0  0  0  0  0  0  0  0  0
   -6.9140   18.2880  -33.0630 C   0  0  0  0  0  0  0  0  0  0  0  0
   -6.5750   16.9840  -32.6770 C   0  0  0  0  0  0  0  0  0  0  0  0
   -5.5810   16.2840  -33.3670 C   0  0  0  0  0  0  0  0  0  0  0  0
   -4.9240   16.8820  -34.4470 C   0  0  0  0  0  0  0  0  0  0  0  0
   -5.2660   18.1790  -34.8410 C   0  0  0  0  0  0  0  0  0  0  0  0
   -6.2600   18.8810  -34.1530 C   0  0  0  0  0  0  0  0  0  0  0  0
   -6.2370   21.0860  -31.9910 C   0  0  0  0  0  0  0  0  0  0  0  0
   -5.7570   22.3480  -31.6280 C   0  0  0  0  0  0  0  0  0  0  0  0
   -4.4890   24.4940  -28.7590 N   0  0  0  0  0  0  0  0  0  0  0  0
   -3.1820   24.5440  -28.1610 C   0  0  0  0  0  0  0  0  0  0  0  0
   -3.0040   24.8140  -26.7940 C   0  0  0  0  0  0  0  0  0  0  0  0
   -1.7150   24.8780  -26.2580 C   0  0  0  0  0  0  0  0  0  0  0  0
   -0.6150   24.6860  -27.0940 C   0  0  0  0  0  0  0  0  0  0  0  0
   -0.8010   24.4470  -28.4190 N   0  0  0  0  0  0  0  0  0  0  0  0
   -2.0460   24.3800  -28.9650 C   0  0  0  0  0  0  0  0  0  0  0  0
   -8.6179   23.6647  -30.3002 H   0  0  0  0  0  0  0  0  0  0  0  0
   -9.4743   21.4129  -30.9428 H   0  0  0  0  0  0  0  0  0  0  0  0
   -7.0921   16.5105  -31.8294 H   0  0  0  0  0  0  0  0  0  0  0  0
   -5.3153   15.2616  -33.0601 H   0  0  0  0  0  0  0  0  0  0  0  0
   -4.1385   16.3322  -34.9862 H   0  0  0  0  0  0  0  0  0  0  0  0
   -4.7524   18.6477  -35.6934 H   0  0  0  0  0  0  0  0  0  0  0  0
   -6.5297   19.9002  -34.4670 H   0  0  0  0  0  0  0  0  0  0  0  0
   -5.5676   20.3639  -32.4814 H   0  0  0  0  0  0  0  0  0  0  0  0
   -4.7116   22.6159  -31.8411 H   0  0  0  0  0  0  0  0  0  0  0  0
   -5.3040   24.2630  -28.1480 H   0  0  0  0  0  0  0  0  0  0  0  0
   -3.8783   24.9749  -26.1461 H   0  0  0  0  0  0  0  0  0  0  0  0
   -1.5691   25.0780  -25.1862 H   0  0  0  0  0  0  0  0  0  0  0  0
    0.4035   24.7280  -26.6807 H   0  0  0  0  0  0  0  0  0  0  0  0
   -2.1611   24.1961  -30.0434 H   0  0  0  0  0  0  0  0  0  0  0  0
  1  2  2  0
  2  3  1  0
  3  4  1  0
  4  5  2  0
  5  6  1  0
  6  7  2  0
  7  8  1  0
  8  9  2  0
  8 10  2  0
  8 11  1  0
 11 12  2  0
 12 13  1  0
 13 14  2  0
 14 15  1  0
 15 16  2  0
  7 17  1  0
 17 18  2  0
  2 19  1  0
 19 20  1  0
 20 21  2  0
 21 22  1  0
 22 23  2  0
 23 24  1  0
 24 25  2  0
 18  4  1  0
 25 20  1  0
 16 11  1  0
  5 26  1  0
  6 27  1  0
 12 28  1  0
 13 29  1  0
 14 30  1  0
 15 31  1  0
 16 32  1  0
 17 33  1  0
 18 34  1  0
 19 35  1  0
 21 36  1  0
 22 37  1  0
 23 38  1  0
 25 39  1  0
M  CHG  1   3  -1
M  END
>  <UniqueID>  (6) 
5

>  <SMILES>  (6) 
O=C([N-]c1ccc(S(=O)(=O)c2ccccc2)cc1)Nc1cccnc1

>  <Energy>  (6) 
51.124532415914835

>  <Genealogy>  (6) 
O=C([N-]c1ccc(S(=O)(=O)c2ccccc2)cc1)Nc1cccnc1 (protonated)
O=C([N-]c1ccc(S(=O)(=O)c2ccccc2)cc1)Nc1cccnc1 (3D coordinates assigned)
O=C([N-]c1ccc(S(=O)(=O)c2ccccc2)cc1)Nc1cccnc1 (optimized conformer: 51.124532415914835 kcal/mol)

>  <smiles>  (6) 
O=C(Nc1ccc(S(=O)(=O)c2ccccc2)cc1)Nc1cccnc1

>  <score_type>  (6) 
oracle

>  <origin>  (6) 
adgpu

>  <m_score__min__energy>  (6) 
-10.859999999999999

>  <m_primary>  (6) 
energy

$$$$
6:0
     RDKit          3D

 54 58  0  0  0  0  0  0  0  0999 V2000
    1.4730   16.8630  -32.7780 H   0  0  0  0  0  0  0  0  0  0  0  0
    0.5430   17.0800  -32.4420 O   0  0  0  0  0  0  0  0  0  0  0  0
   -0.5670   17.0420  -33.2860 C   0  0  0  0  0  0  0  0  0  0  0  0
   -1.7910   17.5840  -32.8680 C   0  0  0  0  0  0  0  0  0  0  0  0
   -1.8776   18.0306  -31.8665 H   0  0  0  0  0  0  0  0  0  0  0  0
   -2.9050   17.5600  -33.7190 C   0  0  0  0  0  0  0  0  0  0  0  0
   -4.1410   18.1560  -33.2950 N   0  0  0  0  0  0  0  0  0  0  0  0
   -4.2620   19.4400  -32.6990 C   0  0  0  0  0  0  0  0  0  0  0  0
   -3.3410   20.3000  -32.6650 O   0  0  0  0  0  0  0  0  0  0  0  0
   -5.5410   19.4970  -32.0110 C   0  0  0  0  0  0  0  0  0  0  0  0
   -6.0850   20.4870  -31.2890 C   0  0  0  0  0  0  0  0  0  0  0  0
   -7.0299   20.2810  -30.7648 H   0  0  0  0  0  0  0  0  0  0  0  0
   -5.5000   21.8350  -31.1510 C   0  0  0  0  0  0  0  0  0  0  0  0
   -4.3130   21.9980  -30.4220 C   0  0  0  0  0  0  0  0  0  0  0  0
   -3.8106   21.1197  -29.9905 H   0  0  0  0  0  0  0  0  0  0  0  0
   -3.7650   23.2720  -30.2410 C   0  0  0  0  0  0  0  0  0  0  0  0
   -2.8250   23.3912  -29.6823 H   0  0  0  0  0  0  0  0  0  0  0  0
   -4.4100   24.3940  -30.7690 C   0  0  0  0  0  0  0  0  0  0  0  0
   -3.8640   25.6590  -30.5890 O   0  0  0  0  0  0  0  0  0  0  0  0
   -5.6100   24.2430  -31.4720 C   0  0  0  0  0  0  0  0  0  0  0  0
   -6.1218   25.1263  -31.8818 H   0  0  0  0  0  0  0  0  0  0  0  0
   -6.1590   22.9710  -31.6540 C   0  0  0  0  0  0  0  0  0  0  0  0
   -7.1111   22.8577  -32.1932 H   0  0  0  0  0  0  0  0  0  0  0  0
   -6.1450   18.2170  -32.1790 N   0  0  0  0  0  0  0  0  0  0  0  0
   -7.0880   17.9370  -31.8260 H   0  0  0  0  0  0  0  0  0  0  0  0
   -5.3520   17.4820  -32.9050 C   0  0  0  0  0  0  0  0  0  0  0  0
   -5.7200   16.1190  -33.3550 C   0  0  0  0  0  0  0  0  0  0  0  0
   -4.9160   15.0150  -33.0190 C   0  0  0  0  0  0  0  0  0  0  0  0
   -4.0121   15.1615  -32.4095 H   0  0  0  0  0  0  0  0  0  0  0  0
   -5.2600   13.7320  -33.4560 C   0  0  0  0  0  0  0  0  0  0  0  0
   -4.6250   12.8734  -33.1923 H   0  0  0  0  0  0  0  0  0  0  0  0
   -6.4090   13.5390  -34.2270 C   0  0  0  0  0  0  0  0  0  0  0  0
   -6.6771   12.5294  -34.5716 H   0  0  0  0  0  0  0  0  0  0  0  0
   -7.2170   14.6280  -34.5600 C   0  0  0  0  0  0  0  0  0  0  0  0
   -8.1213   14.4752  -35.1674 H   0  0  0  0  0  0  0  0  0  0  0  0
   -6.8790   15.9120  -34.1230 C   0  0  0  0  0  0  0  0  0  0  0  0
   -7.5235   16.7651  -34.3815 H   0  0  0  0  0  0  0  0  0  0  0  0
   -2.7950   16.9560  -34.9810 C   0  0  0  0  0  0  0  0  0  0  0  0
   -3.6712   16.9104  -35.6444 H   0  0  0  0  0  0  0  0  0  0  0  0
   -1.5790   16.4130  -35.3980 C   0  0  0  0  0  0  0  0  0  0  0  0
   -1.5004   15.9422  -36.3890 H   0  0  0  0  0  0  0  0  0  0  0  0
   -0.4600   16.4650  -34.5610 C   0  0  0  0  0  0  0  0  0  0  0  0
    1.1080   15.8100  -35.1420 S   0  0  0  0  0  0  0  0  0  0  0  0
    1.6830   17.4220  -35.6760 C   0  0  0  0  0  0  0  0  0  0  0  0
    2.7340   18.0540  -34.9980 C   0  0  0  0  0  0  0  0  0  0  0  0
    3.2164   17.5551  -34.1445 H   0  0  0  0  0  0  0  0  0  0  0  0
    3.1700   19.3190  -35.4060 C   0  0  0  0  0  0  0  0  0  0  0  0
    3.9938   19.8150  -34.8719 H   0  0  0  0  0  0  0  0  0  0  0  0
    2.5590   19.9540  -36.4930 C   0  0  0  0  0  0  0  0  0  0  0  0
    2.9003   20.9501  -36.8113 H   0  0  0  0  0  0  0  0  0  0  0  0
    1.5150   19.3220  -37.1740 C   0  0  0  0  0  0  0  0  0  0  0  0
    1.0355   19.8210  -38.0290 H   0  0  0  0  0  0  0  0  0  0  0  0
    1.0790   18.0560  -36.7700 C   0  0  0  0  0  0  0  0  0  0  0  0
    0.2614   17.5576  -37.3114 H   0  0  0  0  0  0  0  0  0  0  0  0
  1  2  1  0
  2  3  1  0
  3  4  2  0
  4  5  1  0
  4  6  1  0
  6  7  1  0
  7  8  1  0
  8  9  2  0
  8 10  1  0
 10 11  2  0
 11 12  1  0
 11 13  1  0
 13 14  2  0
 14 15  1  0
 14 16  1  0
 16 17  1  0
 16 18  2  0
 18 19  1  0
 18 20  1  0
 20 21  1  0
 20 22  2  0
 22 23  1  0
 10 24  1  0
 24 25  1  0
 24 26  2  0
 26 27  1  0
 27 28  2  0
 28 29  1  0
 28 30  1  0
 30 31  1  0
 30 32  2  0
 32 33  1  0
 32 34  1  0
 34 35  1  0
 34 36  2  0
 36 37  1  0
  6 38  2  0
 38 39  1  0
 38 40  1  0
 40 41  1  0
 40 42  2  0
 42 43  1  0
 43 44  1  0
 44 45  2  0
 45 46  1  0
 45 47  1  0
 47 48  1  0
 47 49  2  0
 49 50  1  0
 49 51  1  0
 51 52  1  0
 51 53  2  0
 53 54  1  0
 42  3  1  0
 53 44  1  0
 26  7  1  0
 36 27  1  0
 22 13  1  0
M  CHG  2  19  -1  24   1
M  END
>  <UniqueID>  (7) 
6

>  <SMILES>  (7) 
O=C1/C(=C\c2ccc([O-])cc2)[NH+]=C(c2ccccc2)N1c1ccc(Sc2ccccc2)c(O)c1

>  <Energy>  (7) 
100.08390602228118

>  <Genealogy>  (7) 
O=C1C(=Cc2ccc([O-])cc2)[NH+]=C(c2ccccc2)N1c1ccc(Sc2ccccc2)c(O)c1 (protonated)
O=C1/C(=C\c2ccc([O-])cc2)[NH+]=C(c2ccccc2)N1c1ccc(Sc2ccccc2)c(O)c1 (cis-trans isomerization)
O=C1/C(=C\c2ccc([O-])cc2)[NH+]=C(c2ccccc2)N1c1ccc(Sc2ccccc2)c(O)c1 (3D coordinates assigned)
O=C1/C(=C\c2ccc([O-])cc2)[NH+]=C(c2ccccc2)N1c1ccc(Sc2ccccc2)c(O)c1 (nonaromatic ring conformer: 100.08390602228118 kcal/mol)

>  <smiles>  (7) 
O=C1C(=Cc2ccc(O)cc2)N=C(c2ccccc2)N1c1ccc(Sc2ccccc2)c(O)c1

>  <score_type>  (7) 
oracle

>  <origin>  (7) 
adgpu

>  <m_score__min__energy>  (7) 
-10.470000000000001

>  <m_primary>  (7) 
energy

$$$$
7:0
     RDKit          3D

 58 61  0  0  0  0  0  0  0  0999 V2000
   -0.5040   25.1430  -28.2360 O   0  0  0  0  0  0  0  0  0  0  0  0
   -1.8230   24.4340  -28.3090 S   0  0  0  0  0  0  0  0  0  0  0  0
   -2.6130   24.7990  -27.0870 O   0  0  0  0  0  0  0  0  0  0  0  0
   -2.7070   24.9300  -29.7190 N   0  0  0  0  0  0  0  0  0  0  0  0
   -3.9310   24.3440  -30.1860 C   0  0  0  0  0  0  0  0  0  0  0  0
   -5.1170   25.0780  -30.0610 C   0  0  0  0  0  0  0  0  0  0  0  0
   -6.3310   24.5410  -30.5020 C   0  0  0  0  0  0  0  0  0  0  0  0
   -6.3670   23.2740  -31.0840 C   0  0  0  0  0  0  0  0  0  0  0  0
   -5.1850   22.5380  -31.2310 C   0  0  0  0  0  0  0  0  0  0  0  0
   -5.1940   20.9370  -31.9680 S   0  0  0  0  0  0  0  0  0  0  0  0
   -4.9210   21.0410  -33.4440 O   0  0  0  0  0  0  0  0  0  0  0  0
   -4.1110   20.1120  -31.3320 O   0  0  0  0  0  0  0  0  0  0  0  0
   -6.7470   20.1850  -31.7010 N   0  0  0  0  0  0  0  0  0  0  0  0
   -7.7980   20.9100  -32.4410 C   0  0  0  0  0  0  0  0  0  0  0  0
   -9.0710   20.0530  -32.5830 C   0  0  0  0  0  0  0  0  0  0  0  0
   -9.0950   19.0400  -31.6000 O   0  0  0  0  0  0  0  0  0  0  0  0
   -8.0580   18.1040  -31.8440 C   0  0  0  0  0  0  0  0  0  0  0  0
   -6.6970   18.7790  -32.1200 C   0  0  0  0  0  0  0  0  0  0  0  0
   -3.9710   23.0730  -30.7840 C   0  0  0  0  0  0  0  0  0  0  0  0
   -1.6000   22.6870  -28.3440 C   0  0  0  0  0  0  0  0  0  0  0  0
   -1.7940   21.9160  -27.1880 C   0  0  0  0  0  0  0  0  0  0  0  0
   -1.5570   20.5390  -27.2130 C   0  0  0  0  0  0  0  0  0  0  0  0
   -1.1360   19.9220  -28.3940 C   0  0  0  0  0  0  0  0  0  0  0  0
   -0.9660   20.6780  -29.5650 C   0  0  0  0  0  0  0  0  0  0  0  0
   -0.4890   19.8840  -31.0690 S   0  0  0  0  0  0  0  0  0  0  0  0
   -0.4340   18.3980  -30.8360 O   0  0  0  0  0  0  0  0  0  0  0  0
    0.8940   20.3380  -31.4510 O   0  0  0  0  0  0  0  0  0  0  0  0
   -1.5940   20.2140  -32.3880 N   0  0  0  0  0  0  0  0  0  0  0  0
   -1.3220   21.5020  -33.0570 C   0  0  0  0  0  0  0  0  0  0  0  0
   -0.5320   21.3430  -34.3640 C   0  0  0  0  0  0  0  0  0  0  0  0
    0.2750   20.1870  -34.3180 O   0  0  0  0  0  0  0  0  0  0  0  0
   -0.5370   19.0310  -34.3360 C   0  0  0  0  0  0  0  0  0  0  0  0
   -1.7080   19.0910  -33.3310 C   0  0  0  0  0  0  0  0  0  0  0  0
   -1.1850   22.0640  -29.5310 C   0  0  0  0  0  0  0  0  0  0  0  0
   -5.0938   26.0826  -29.6135 H   0  0  0  0  0  0  0  0  0  0  0  0
   -7.2598   25.1195  -30.3895 H   0  0  0  0  0  0  0  0  0  0  0  0
   -7.3236   22.8532  -31.4274 H   0  0  0  0  0  0  0  0  0  0  0  0
   -8.0462   21.8343  -31.8987 H   0  0  0  0  0  0  0  0  0  0  0  0
   -7.4193   21.1410  -33.4476 H   0  0  0  0  0  0  0  0  0  0  0  0
   -9.9557   20.6956  -32.4628 H   0  0  0  0  0  0  0  0  0  0  0  0
   -9.0763   19.5844  -33.5782 H   0  0  0  0  0  0  0  0  0  0  0  0
   -7.9560   17.4544  -30.9622 H   0  0  0  0  0  0  0  0  0  0  0  0
   -8.3325   17.5315  -32.7423 H   0  0  0  0  0  0  0  0  0  0  0  0
   -5.9094   18.2575  -31.5564 H   0  0  0  0  0  0  0  0  0  0  0  0
   -6.4771   18.7277  -33.1966 H   0  0  0  0  0  0  0  0  0  0  0  0
   -3.0426   22.4948  -30.9016 H   0  0  0  0  0  0  0  0  0  0  0  0
   -2.1338   22.3970  -26.2589 H   0  0  0  0  0  0  0  0  0  0  0  0
   -1.7020   19.9400  -26.3018 H   0  0  0  0  0  0  0  0  0  0  0  0
   -0.9371   18.8402  -28.4064 H   0  0  0  0  0  0  0  0  0  0  0  0
   -2.2819   21.9887  -33.2844 H   0  0  0  0  0  0  0  0  0  0  0  0
   -0.7081   22.1057  -32.3724 H   0  0  0  0  0  0  0  0  0  0  0  0
   -1.2366   21.2590  -35.2045 H   0  0  0  0  0  0  0  0  0  0  0  0
    0.1151   22.2226  -34.4969 H   0  0  0  0  0  0  0  0  0  0  0  0
   -0.9513   18.9111  -35.3479 H   0  0  0  0  0  0  0  0  0  0  0  0
    0.0988   18.1819  -34.0449 H   0  0  0  0  0  0  0  0  0  0  0  0
   -2.6478   19.1979  -33.8926 H   0  0  0  0  0  0  0  0  0  0  0  0
   -1.6870   18.1617  -32.7428 H   0  0  0  0  0  0  0  0  0  0  0  0
   -1.0306   22.6649  -30.4393 H   0  0  0  0  0  0  0  0  0  0  0  0
  1  2  2  0
  2  3  2  0
  2  4  1  0
  4  5  1  0
  5  6  2  0
  6  7  1  0
  7  8  2  0
  8  9  1  0
  9 10  1  0
 10 11  2  0
 10 12  2  0
 10 13  1  0
 13 14  1  0
 14 15  1  0
 15 16  1  0
 16 17  1  0
 17 18  1  0
  9 19  2  0
  2 20  1  0
 20 21  2  0
 21 22  1  0
 22 23  2  0
 23 24  1  0
 24 25  1  0
 25 26  2  0
 25 27  2  0
 25 28  1  0
 28 29  1  0
 29 30  1  0
 30 31  1  0
 31 32  1  0
 32 33  1  0
 24 34  2  0
 19  5  1  0
 34 20  1  0
 18 13  1  0
 33 28  1  0
  6 35  1  0
  7 36  1  0
  8 37  1  0
 14 38  1  0
 14 39  1  0
 15 40  1  0
 15 41  1  0
 17 42  1  0
 17 43  1  0
 18 44  1  0
 18 45  1  0
 19 46  1  0
 21 47  1  0
 22 48  1  0
 23 49  1  0
 29 50  1  0
 29 51  1  0
 30 52  1  0
 30 53  1  0
 32 54  1  0
 32 55  1  0
 33 56  1  0
 33 57  1  0
 34 58  1  0
M  CHG  1   4  -1
M  END
>  <UniqueID>  (8) 
7

>  <SMILES>  (8) 
O=S(=O)([N-]c1cccc(S(=O)(=O)N2CCOCC2)c1)c1cccc(S(=O)(=O)N2CCOCC2)c1

>  <Energy>  (8) 
79.72899287067933

>  <Genealogy>  (8) 
O=S(=O)([N-]c1cccc(S(=O)(=O)N2CCOCC2)c1)c1cccc(S(=O)(=O)N2CCOCC2)c1 (protonated)
O=S(=O)([N-]c1cccc(S(=O)(=O)N2CCOCC2)c1)c1cccc(S(=O)(=O)N2CCOCC2)c1 (3D coordinates assigned)
O=S(=O)([N-]c1cccc(S(=O)(=O)N2CCOCC2)c1)c1cccc(S(=O)(=O)N2CCOCC2)c1 (nonaromatic ring conformer: 79.72899287067933 kcal/mol)

>  <smiles>  (8) 
O=S(=O)(Nc1cccc(S(=O)(=O)N2CCOCC2)c1)c1cccc(S(=O)(=O)N2CCOCC2)c1

>  <score_type>  (8) 
oracle

>  <origin>  (8) 
adgpu

>  <m_score__min__energy>  (8) 
-12.24

>  <m_primary>  (8) 
energy

$$$$
8:0
     RDKit          3D

 65 69  0  0  0  0  0  0  0  0999 V2000
   -6.8810   20.5030  -31.4820 O   0  0  0  0  0  0  0  0  0  0  0  0
   -6.0980   21.4000  -31.8990 C   0  0  0  0  0  0  0  0  0  0  0  0
   -5.3230   21.1840  -33.0910 N   0  0  0  0  0  0  0  0  0  0  0  0
   -5.0420   19.8870  -33.6470 C   0  0  0  0  0  0  0  0  0  0  0  0
   -6.0390   19.1320  -34.2880 C   0  0  0  0  0  0  0  0  0  0  0  0
   -5.7450   17.8650  -34.7940 C   0  0  0  0  0  0  0  0  0  0  0  0
   -4.4580   17.3360  -34.6630 C   0  0  0  0  0  0  0  0  0  0  0  0
   -3.4560   18.0750  -34.0190 C   0  0  0  0  0  0  0  0  0  0  0  0
   -1.8270   17.4150  -33.8580 S   0  0  0  0  0  0  0  0  0  0  0  0
   -1.5220   16.5690  -35.0640 O   0  0  0  0  0  0  0  0  0  0  0  0
   -1.7730   16.5260  -32.6470 O   0  0  0  0  0  0  0  0  0  0  0  0
   -0.6140   18.6670  -33.7020 N   0  0  0  0  0  0  0  0  0  0  0  0
   -0.9210   19.8720  -34.5100 C   0  0  0  0  0  0  0  0  0  0  0  0
   -0.8110   21.1830  -33.7240 C   0  0  0  0  0  0  0  0  0  0  0  0
   -1.6050   21.0720  -32.4270 C   0  0  0  0  0  0  0  0  0  0  0  0
   -1.1000   19.9160  -31.5490 C   0  0  0  0  0  0  0  0  0  0  0  0
   -0.2110   18.9010  -32.2980 C   0  0  0  0  0  0  0  0  0  0  0  0
   -3.7590   19.3390  -33.4940 C   0  0  0  0  0  0  0  0  0  0  0  0
   -6.0380   22.7030  -31.1970 C   0  0  0  0  0  0  0  0  0  0  0  0
   -7.2140   23.3390  -30.7650 C   0  0  0  0  0  0  0  0  0  0  0  0
   -7.1530   24.5910  -30.1480 C   0  0  0  0  0  0  0  0  0  0  0  0
   -5.9210   25.2280  -29.9720 C   0  0  0  0  0  0  0  0  0  0  0  0
   -4.7410   24.6130  -30.4010 C   0  0  0  0  0  0  0  0  0  0  0  0
   -3.4920   25.2960  -30.2140 N   0  0  0  0  0  0  0  0  0  0  0  0
   -2.4410   24.9090  -29.3160 C   0  0  0  0  0  0  0  0  0  0  0  0
   -1.6110   25.7780  -28.9430 O   0  0  0  0  0  0  0  0  0  0  0  0
   -2.2840   23.5210  -28.8410 C   0  0  0  0  0  0  0  0  0  0  0  0
   -3.2030   22.7880  -28.0920 C   0  0  0  0  0  0  0  0  0  0  0  0
   -2.7890   21.5400  -27.7420 N   0  0  0  0  0  0  0  0  0  0  0  0
   -1.5530   21.2720  -28.2170 C   0  0  0  0  0  0  0  0  0  0  0  0
   -0.8730   20.0320  -27.9800 N   0  0  0  0  0  0  0  0  0  0  0  0
   -1.3940   18.9950  -27.1090 C   0  0  0  0  0  0  0  0  0  0  0  0
   -0.4690   17.8000  -27.3010 C   0  0  0  0  0  0  0  0  0  0  0  0
    0.7900   18.3430  -27.9750 C   0  0  0  0  0  0  0  0  0  0  0  0
    0.3930   19.6790  -28.5930 C   0  0  0  0  0  0  0  0  0  0  0  0
   -0.9220   22.5640  -29.0940 S   0  0  0  0  0  0  0  0  0  0  0  0
   -4.8010   23.3280  -30.9680 C   0  0  0  0  0  0  0  0  0  0  0  0
   -5.0380   22.0210  -33.6470 H   0  0  0  0  0  0  0  0  0  0  0  0
   -7.0548   19.5412  -34.3913 H   0  0  0  0  0  0  0  0  0  0  0  0
   -6.5290   17.2806  -35.2977 H   0  0  0  0  0  0  0  0  0  0  0  0
   -4.2310   16.3380  -35.0660 H   0  0  0  0  0  0  0  0  0  0  0  0
   -0.2173   19.9129  -35.3544 H   0  0  0  0  0  0  0  0  0  0  0  0
   -1.9663   19.7809  -34.8401 H   0  0  0  0  0  0  0  0  0  0  0  0
    0.2453   21.3818  -33.4903 H   0  0  0  0  0  0  0  0  0  0  0  0
   -1.2162   22.0066  -34.3302 H   0  0  0  0  0  0  0  0  0  0  0  0
   -1.5072   22.0139  -31.8673 H   0  0  0  0  0  0  0  0  0  0  0  0
   -2.6560   20.8738  -32.6840 H   0  0  0  0  0  0  0  0  0  0  0  0
   -0.5160   20.3413  -30.7195 H   0  0  0  0  0  0  0  0  0  0  0  0
   -1.9885   19.3670  -31.2037 H   0  0  0  0  0  0  0  0  0  0  0  0
    0.8226   19.2773  -32.2933 H   0  0  0  0  0  0  0  0  0  0  0  0
   -0.3151   17.9398  -31.7733 H   0  0  0  0  0  0  0  0  0  0  0  0
   -2.9843   19.9064  -32.9574 H   0  0  0  0  0  0  0  0  0  0  0  0
   -8.1875   22.8488  -30.9133 H   0  0  0  0  0  0  0  0  0  0  0  0
   -8.0765   25.0767  -29.7999 H   0  0  0  0  0  0  0  0  0  0  0  0
   -5.8799   26.2177  -29.4937 H   0  0  0  0  0  0  0  0  0  0  0  0
   -4.1871   23.1877  -27.8059 H   0  0  0  0  0  0  0  0  0  0  0  0
   -1.3780   19.3291  -26.0611 H   0  0  0  0  0  0  0  0  0  0  0  0
   -2.4380   18.7460  -27.3499 H   0  0  0  0  0  0  0  0  0  0  0  0
   -0.2182   17.3512  -26.3285 H   0  0  0  0  0  0  0  0  0  0  0  0
   -0.9449   17.0170  -27.9096 H   0  0  0  0  0  0  0  0  0  0  0  0
    1.5888   18.4876  -27.2327 H   0  0  0  0  0  0  0  0  0  0  0  0
    1.1730   17.6457  -28.7346 H   0  0  0  0  0  0  0  0  0  0  0  0
    1.1523   20.4441  -28.3737 H   0  0  0  0  0  0  0  0  0  0  0  0
    0.3102   19.6122  -29.6878 H   0  0  0  0  0  0  0  0  0  0  0  0
   -3.8699   22.8067  -31.2350 H   0  0  0  0  0  0  0  0  0  0  0  0
  1  2  2  0
  2  3  1  0
  3  4  1  0
  4  5  2  0
  5  6  1  0
  6  7  2  0
  7  8  1  0
  8  9  1  0
  9 10  2  0
  9 11  2  0
  9 12  1  0
 12 13  1  0
 13 14  1  0
 14 15  1  0
 15 16  1  0
 16 17  1  0
  8 18  2  0
  2 19  1  0
 19 20  2  0
 20 21  1  0
 21 22  2  0
 22 23  1  0
 23 24  1  0
 24 25  1  0
 25 26  2  0
 25 27  1  0
 27 28  2  0
 28 29  1  0
 29 30  2  0
 30 31  1  0
 31 32  1  0
 32 33  1  0
 33 34  1  0
 34 35  1  0
 30 36  1  0
 23 37  2  0
 18  4  1  0
 37 19  1  0
 17 12  1  0
 36 27  1  0
 35 31  1  0
  3 38  1  0
  5 39  1  0
  6 40  1  0
  7 41  1  0
 13 42  1  0
 13 43  1  0
 14 44  1  0
 14 45  1  0
 15 46  1  0
 15 47  1  0
 16 48  1  0
 16 49  1  0
 17 50  1  0
 17 51  1  0
 18 52  1  0
 20 53  1  0
 21 54  1  0
 22 55  1  0
 28 56  1  0
 32 57  1  0
 32 58  1  0
 33 59  1  0
 33 60  1  0
 34 61  1  0
 34 62  1  0
 35 63  1  0
 35 64  1  0
 37 65  1  0
M  CHG  1  24  -1
M  END
>  <UniqueID>  (9) 
8

>  <SMILES>  (9) 
O=C(Nc1cccc(S(=O)(=O)N2CCCCC2)c1)c1cccc([N-]C(=O)c2cnc(N3CCCC3)s2)c1

>  <Energy>  (9) 
112.44348051386667

>  <Genealogy>  (9) 
O=C(Nc1cccc(S(=O)(=O)N2CCCCC2)c1)c1cccc([N-]C(=O)c2cnc(N3CCCC3)s2)c1 (protonated)
O=C(Nc1cccc(S(=O)(=O)N2CCCCC2)c1)c1cccc([N-]C(=O)c2cnc(N3CCCC3)s2)c1 (3D coordinates assigned)
O=C(Nc1cccc(S(=O)(=O)N2CCCCC2)c1)c1cccc([N-]C(=O)c2cnc(N3CCCC3)s2)c1 (nonaromatic ring conformer: 112.44348051386667 kcal/mol)

>  <smiles>  (9) 
O=C(Nc1cccc(S(=O)(=O)N2CCCCC2)c1)c1cccc(NC(=O)c2cnc(N3CCCC3)s2)c1

>  <score_type>  (9) 
oracle

>  <origin>  (9) 
adgpu

>  <m_score__min__energy>  (9) 
-12.15

>  <m_primary>  (9) 
energy

$$$$
9:0
     RDKit          3D

 27 28  0  0  0  0  0  0  0  0999 V2000
   -5.7100   24.9460  -28.9980 O   0  0  0  0  0  0  0  0  0  0  0  0
   -5.2310   24.8640  -30.4200 S   0  0  0  0  0  0  0  0  0  0  0  0
   -5.7570   26.0460  -31.1840 O   0  0  0  0  0  0  0  0  0  0  0  0
   -3.4970   24.9060  -30.4370 N   0  0  0  0  0  0  0  0  0  0  0  0
   -2.6460   24.2750  -29.4690 C   0  0  0  0  0  0  0  0  0  0  0  0
   -3.1910   23.2810  -28.6470 C   0  0  0  0  0  0  0  0  0  0  0  0
   -2.3990   22.6480  -27.6840 C   0  0  0  0  0  0  0  0  0  0  0  0
   -1.0570   23.0020  -27.5370 C   0  0  0  0  0  0  0  0  0  0  0  0
   -0.4990   23.9930  -28.3560 C   0  0  0  0  0  0  0  0  0  0  0  0
    0.8400   24.3540  -28.2220 O   0  0  0  0  0  0  0  0  0  0  0  0
   -1.2910   24.6260  -29.3210 C   0  0  0  0  0  0  0  0  0  0  0  0
   -5.8100   23.3880  -31.1850 C   0  0  0  0  0  0  0  0  0  0  0  0
   -4.9160   22.5380  -31.8510 C   0  0  0  0  0  0  0  0  0  0  0  0
   -5.3830   21.3720  -32.4670 C   0  0  0  0  0  0  0  0  0  0  0  0
   -6.7420   21.0500  -32.4190 C   0  0  0  0  0  0  0  0  0  0  0  0
   -7.6380   21.8920  -31.7520 C   0  0  0  0  0  0  0  0  0  0  0  0
   -9.3430   21.4880  -31.6920 Cl  0  0  0  0  0  0  0  0  0  0  0  0
   -7.1730   23.0580  -31.1340 C   0  0  0  0  0  0  0  0  0  0  0  0
   -4.2476   22.9966  -28.7594 H   0  0  0  0  0  0  0  0  0  0  0  0
   -2.8347   21.8692  -27.0408 H   0  0  0  0  0  0  0  0  0  0  0  0
   -0.4369   22.5029  -26.7778 H   0  0  0  0  0  0  0  0  0  0  0  0
    1.1290   25.3250  -28.2240 H   0  0  0  0  0  0  0  0  0  0  0  0
   -0.8525   25.4012  -29.9666 H   0  0  0  0  0  0  0  0  0  0  0  0
   -3.8455   22.7883  -31.8893 H   0  0  0  0  0  0  0  0  0  0  0  0
   -4.6794   20.7076  -32.9900 H   0  0  0  0  0  0  0  0  0  0  0  0
   -7.1074   20.1339  -32.9060 H   0  0  0  0  0  0  0  0  0  0  0  0
   -7.8777   23.7178  -30.6067 H   0  0  0  0  0  0  0  0  0  0  0  0
  1  2  2  0
  2  3  2  0
  2  4  1  0
  4  5  1  0
  5  6  2  0
  6  7  1  0
  7  8  2  0
  8  9  1  0
  9 10  1  0
  9 11  2  0
  2 12  1  0
 12 13  2  0
 13 14  1  0
 14 15  2  0
 15 16  1  0
 16 17  1  0
 16 18  2  0
 11  5  1  0
 18 12  1  0
  6 19  1  0
  7 20  1  0
  8 21  1  0
 10 22  1  0
 11 23  1  0
 13 24  1  0
 14 25  1  0
 15 26  1  0
 18 27  1  0
M  CHG  1   4  -1
M  END
>  <UniqueID>  (10) 
9

>  <SMILES>  (10) 
O=S(=O)([N-]c1cccc(O)c1)c1cccc(Cl)c1

>  <Energy>  (10) 
30.153455055744807

>  <Genealogy>  (10) 
O=S(=O)([N-]c1cccc(O)c1)c1cccc(Cl)c1 (protonated)
O=S(=O)([N-]c1cccc(O)c1)c1cccc(Cl)c1 (3D coordinates assigned)
O=S(=O)([N-]c1cccc(O)c1)c1cccc(Cl)c1 (optimized conformer: 30.153455055744807 kcal/mol)

>  <smiles>  (10) 
O=S(=O)(Nc1cccc(O)c1)c1cccc(Cl)c1

>  <score_type>  (10) 
oracle

>  <origin>  (10) 
adgpu

>  <m_score__min__energy>  (10) 
-8.5999999999999996

>  <m_primary>  (10) 
energy

$$$$
10:0
     RDKit          3D

 47 49  0  0  0  0  0  0  0  0999 V2000
   -9.0130   19.6380  -31.9320 C   0  0  0  0  0  0  0  0  0  0  0  0
   -8.9350   20.9880  -32.3790 O   0  0  0  0  0  0  0  0  0  0  0  0
   -8.0760   21.9540  -31.8330 C   0  0  0  0  0  0  0  0  0  0  0  0
   -8.0610   22.1220  -30.4420 C   0  0  0  0  0  0  0  0  0  0  0  0
   -7.2280   23.0750  -29.8510 C   0  0  0  0  0  0  0  0  0  0  0  0
   -6.3950   23.8720  -30.6480 C   0  0  0  0  0  0  0  0  0  0  0  0
   -5.3170   25.0590  -29.9130 S   0  0  0  0  0  0  0  0  0  0  0  0
   -5.3490   24.9570  -28.4120 O   0  0  0  0  0  0  0  0  0  0  0  0
   -5.7720   26.4310  -30.3230 O   0  0  0  0  0  0  0  0  0  0  0  0
   -3.6920   24.8100  -30.4690 N   0  0  0  0  0  0  0  0  0  0  0  0
   -2.9000   23.6420  -30.2020 C   0  0  0  0  0  0  0  0  0  0  0  0
   -2.2890   23.5120  -28.9390 C   0  0  0  0  0  0  0  0  0  0  0  0
   -2.4660   24.4720  -27.9430 O   0  0  0  0  0  0  0  0  0  0  0  0
   -1.4740   22.4090  -28.6690 C   0  0  0  0  0  0  0  0  0  0  0  0
   -1.2610   21.4330  -29.6420 C   0  0  0  0  0  0  0  0  0  0  0  0
   -1.8800   21.5350  -30.8920 C   0  0  0  0  0  0  0  0  0  0  0  0
   -1.6340   20.2770  -32.1070 S   0  0  0  0  0  0  0  0  0  0  0  0
   -0.6550   19.2480  -31.6150 O   0  0  0  0  0  0  0  0  0  0  0  0
   -1.0780   20.9180  -33.3490 O   0  0  0  0  0  0  0  0  0  0  0  0
   -3.1680   19.4870  -32.4600 C   0  0  0  0  0  0  0  0  0  0  0  0
   -4.3680   20.0670  -32.0320 C   0  0  0  0  0  0  0  0  0  0  0  0
   -5.5900   19.4450  -32.3060 C   0  0  0  0  0  0  0  0  0  0  0  0
   -5.6240   18.2380  -33.0210 C   0  0  0  0  0  0  0  0  0  0  0  0
   -6.9270   17.5390  -33.2790 C   0  0  0  0  0  0  0  0  0  0  0  0
   -4.4170   17.6490  -33.4320 C   0  0  0  0  0  0  0  0  0  0  0  0
   -3.1960   18.2730  -33.1570 C   0  0  0  0  0  0  0  0  0  0  0  0
   -2.7220   22.6270  -31.1650 C   0  0  0  0  0  0  0  0  0  0  0  0
   -3.4020   22.6760  -32.3780 O   0  0  0  0  0  0  0  0  0  0  0  0
   -6.4090   23.7120  -32.0390 C   0  0  0  0  0  0  0  0  0  0  0  0
   -7.2400   22.7560  -32.6310 C   0  0  0  0  0  0  0  0  0  0  0  0
   -9.0143   19.6154  -30.8322 H   0  0  0  0  0  0  0  0  0  0  0  0
   -9.9391   19.1798  -32.3093 H   0  0  0  0  0  0  0  0  0  0  0  0
   -8.1458   19.0762  -32.3093 H   0  0  0  0  0  0  0  0  0  0  0  0
   -8.7105   21.4983  -29.8102 H   0  0  0  0  0  0  0  0  0  0  0  0
   -7.2258   23.2001  -28.7581 H   0  0  0  0  0  0  0  0  0  0  0  0
   -3.2250   25.1430  -27.9640 H   0  0  0  0  0  0  0  0  0  0  0  0
   -0.9975   22.3102  -27.6825 H   0  0  0  0  0  0  0  0  0  0  0  0
   -0.6029   20.5787  -29.4253 H   0  0  0  0  0  0  0  0  0  0  0  0
   -4.3496   21.0168  -31.4774 H   0  0  0  0  0  0  0  0  0  0  0  0
   -6.5281   19.9035  -31.9598 H   0  0  0  0  0  0  0  0  0  0  0  0
   -7.4024   17.2840  -32.3204 H   0  0  0  0  0  0  0  0  0  0  0  0
   -7.5913   18.2018  -33.8529 H   0  0  0  0  0  0  0  0  0  0  0  0
   -6.7422   16.6189  -33.8529 H   0  0  0  0  0  0  0  0  0  0  0  0
   -4.4322   16.6915  -33.9732 H   0  0  0  0  0  0  0  0  0  0  0  0
   -2.2555   17.8090  -33.4890 H   0  0  0  0  0  0  0  0  0  0  0  0
   -5.7632   24.3414  -32.6690 H   0  0  0  0  0  0  0  0  0  0  0  0
   -7.2401   22.6307  -33.7238 H   0  0  0  0  0  0  0  0  0  0  0  0
  1  2  1  0
  2  3  1  0
  3  4  2  0
  4  5  1  0
  5  6  2  0
  6  7  1  0
  7  8  2  0
  7  9  2  0
  7 10  1  0
 10 11  1  0
 11 12  2  0
 12 13  1  0
 12 14  1  0
 14 15  2  0
 15 16  1  0
 16 17  1  0
 17 18  2  0
 17 19  2  0
 17 20  1  0
 20 21  2  0
 21 22  1  0
 22 23  2  0
 23 24  1  0
 23 25  1  0
 25 26  2  0
 16 27  2  0
 27 28  1  0
  6 29  1  0
 29 30  2  0
 30  3  1  0
 27 11  1  0
 26 20  1  0
  1 31  1  0
  1 32  1  0
  1 33  1  0
  4 34  1  0
  5 35  1  0
 13 36  1  0
 14 37  1  0
 15 38  1  0
 21 39  1  0
 22 40  1  0
 24 41  1  0
 24 42  1  0
 24 43  1  0
 25 44  1  0
 26 45  1  0
 29 46  1  0
 30 47  1  0
M  CHG  2  10  -1  28  -1
M  END
>  <UniqueID>  (11) 
10

>  <SMILES>  (11) 
COc1ccc(S(=O)(=O)[N-]c2c(O)ccc(S(=O)(=O)c3ccc(C)cc3)c2[O-])cc1

>  <Energy>  (11) 
57.48232749460872

>  <Genealogy>  (11) 
COc1ccc(S(=O)(=O)[N-]c2c(O)ccc(S(=O)(=O)c3ccc(C)cc3)c2[O-])cc1 (protonated)
COc1ccc(S(=O)(=O)[N-]c2c(O)ccc(S(=O)(=O)c3ccc(C)cc3)c2[O-])cc1 (3D coordinates assigned)
COc1ccc(S(=O)(=O)[N-]c2c(O)ccc(S(=O)(=O)c3ccc(C)cc3)c2[O-])cc1 (optimized conformer: 57.48232749460872 kcal/mol)

>  <smiles>  (11) 
COc1ccc(S(=O)(=O)Nc2c(O)ccc(S(=O)(=O)c3ccc(C)cc3)c2O)cc1

>  <score_type>  (11) 
oracle

>  <origin>  (11) 
adgpu

>  <m_score__min__energy>  (11) 
-12.57

>  <m_primary>  (11) 
energy

$$$$
11:0
     RDKit          3D

 56 59  0  0  0  0  0  0  0  0999 V2000
   -8.1140   19.6940  -32.7740 C   0  0  0  0  0  0  0  0  0  0  0  0
   -7.4910   20.8900  -32.1030 C   0  0  0  0  0  0  0  0  0  0  0  0
   -8.3280   21.8780  -31.5620 C   0  0  0  0  0  0  0  0  0  0  0  0
   -7.7910   23.0180  -30.9580 C   0  0  0  0  0  0  0  0  0  0  0  0
   -6.4060   23.1830  -30.8780 C   0  0  0  0  0  0  0  0  0  0  0  0
   -5.7080   24.6630  -30.2290 S   0  0  0  0  0  0  0  0  0  0  0  0
   -4.6690   25.2220  -31.1630 O   0  0  0  0  0  0  0  0  0  0  0  0
   -6.8020   25.6770  -30.0470 O   0  0  0  0  0  0  0  0  0  0  0  0
   -4.9690   24.3240  -28.6930 N   0  0  0  0  0  0  0  0  0  0  0  0
   -3.7960   23.5020  -28.5390 C   0  0  0  0  0  0  0  0  0  0  0  0
   -3.8810   22.1960  -28.0210 C   0  0  0  0  0  0  0  0  0  0  0  0
   -2.7350   21.3980  -27.8840 C   0  0  0  0  0  0  0  0  0  0  0  0
   -1.4860   21.8870  -28.3370 C   0  0  0  0  0  0  0  0  0  0  0  0
   -1.3990   23.2000  -28.8220 C   0  0  0  0  0  0  0  0  0  0  0  0
   -2.5390   24.0020  -28.9240 C   0  0  0  0  0  0  0  0  0  0  0  0
   -2.4140   25.2990  -29.4120 O   0  0  0  0  0  0  0  0  0  0  0  0
   -0.2290   21.0460  -28.2600 C   0  0  0  0  0  0  0  0  0  0  0  0
   -0.5300   19.5520  -28.0920 C   0  0  0  0  0  0  0  0  0  0  0  0
   -1.5590   19.3370  -26.9810 C   0  0  0  0  0  0  0  0  0  0  0  0
   -2.8940   19.9890  -27.3560 C   0  0  0  0  0  0  0  0  0  0  0  0
   -5.5620   22.1870  -31.3730 C   0  0  0  0  0  0  0  0  0  0  0  0
   -6.0850   21.0360  -31.9820 C   0  0  0  0  0  0  0  0  0  0  0  0
   -4.9490   19.8610  -32.6650 S   0  0  0  0  0  0  0  0  0  0  0  0
   -5.1880   19.7210  -34.1430 O   0  0  0  0  0  0  0  0  0  0  0  0
   -5.1690   18.5150  -32.0270 O   0  0  0  0  0  0  0  0  0  0  0  0
   -3.3110   20.3950  -32.3760 N   0  0  0  0  0  0  0  0  0  0  0  0
   -2.4170   19.2320  -32.2690 C   0  0  0  0  0  0  0  0  0  0  0  0
   -0.9630   19.6990  -32.0390 C   0  0  0  0  0  0  0  0  0  0  0  0
   -0.8090   21.0990  -32.1890 O   0  0  0  0  0  0  0  0  0  0  0  0
   -1.3540   21.5150  -33.4260 C   0  0  0  0  0  0  0  0  0  0  0  0
   -2.8760   21.2780  -33.4730 C   0  0  0  0  0  0  0  0  0  0  0  0
   -8.4791   18.9931  -32.0088 H   0  0  0  0  0  0  0  0  0  0  0  0
   -8.9555   20.0227  -33.4016 H   0  0  0  0  0  0  0  0  0  0  0  0
   -7.3624   19.1928  -33.4016 H   0  0  0  0  0  0  0  0  0  0  0  0
   -9.4197   21.7536  -31.6140 H   0  0  0  0  0  0  0  0  0  0  0  0
   -8.4602   23.7870  -30.5447 H   0  0  0  0  0  0  0  0  0  0  0  0
   -5.4860   24.6540  -27.8470 H   0  0  0  0  0  0  0  0  0  0  0  0
   -4.8599   21.7952  -27.7192 H   0  0  0  0  0  0  0  0  0  0  0  0
   -0.4218   23.6035  -29.1258 H   0  0  0  0  0  0  0  0  0  0  0  0
    0.3472   21.1876  -29.1863 H   0  0  0  0  0  0  0  0  0  0  0  0
    0.3381   21.3736  -27.3762 H   0  0  0  0  0  0  0  0  0  0  0  0
   -0.9284   19.1540  -29.0369 H   0  0  0  0  0  0  0  0  0  0  0  0
    0.3996   19.0287  -27.8235 H   0  0  0  0  0  0  0  0  0  0  0  0
   -1.7118   18.2579  -26.8323 H   0  0  0  0  0  0  0  0  0  0  0  0
   -1.1851   19.7970  -26.0544 H   0  0  0  0  0  0  0  0  0  0  0  0
   -3.3779   19.3766  -28.1311 H   0  0  0  0  0  0  0  0  0  0  0  0
   -3.5011   20.0468  -26.4405 H   0  0  0  0  0  0  0  0  0  0  0  0
   -4.4721   22.3062  -31.2844 H   0  0  0  0  0  0  0  0  0  0  0  0
   -2.7357   18.6048  -31.4233 H   0  0  0  0  0  0  0  0  0  0  0  0
   -2.4656   18.6536  -33.2034 H   0  0  0  0  0  0  0  0  0  0  0  0
   -0.6604   19.4188  -31.0192 H   0  0  0  0  0  0  0  0  0  0  0  0
   -0.3333   19.2120  -32.7981 H   0  0  0  0  0  0  0  0  0  0  0  0
   -1.1536   22.5878  -33.5636 H   0  0  0  0  0  0  0  0  0  0  0  0
   -0.8852   20.9265  -34.2284 H   0  0  0  0  0  0  0  0  0  0  0  0
   -3.3928   22.2448  -33.3821 H   0  0  0  0  0  0  0  0  0  0  0  0
   -3.1243   20.7944  -34.4293 H   0  0  0  0  0  0  0  0  0  0  0  0
  1  2  1  0
  2  3  2  0
  3  4  1  0
  4  5  2  0
  5  6  1  0
  6  7  2  0
  6  8  2  0
  6  9  1  0
  9 10  1  0
 10 11  2  0
 11 12  1  0
 12 13  2  0
 13 14  1  0
 14 15  2  0
 15 16  1  0
 13 17  1  0
 17 18  1  0
 18 19  1  0
 19 20  1  0
  5 21  1  0
 21 22  2  0
 22 23  1  0
 23 24  2  0
 23 25  2  0
 23 26  1  0
 26 27  1  0
 27 28  1  0
 28 29  1  0
 29 30  1  0
 30 31  1  0
 22  2  1  0
 31 26  1  0
 15 10  1  0
 20 12  1  0
  1 32  1  0
  1 33  1  0
  1 34  1  0
  3 35  1  0
  4 36  1  0
  9 37  1  0
 11 38  1  0
 14 39  1  0
 17 40  1  0
 17 41  1  0
 18 42  1  0
 18 43  1  0
 19 44  1  0
 19 45  1  0
 20 46  1  0
 20 47  1  0
 21 48  1  0
 27 49  1  0
 27 50  1  0
 28 51  1  0
 28 52  1  0
 30 53  1  0
 30 54  1  0
 31 55  1  0
 31 56  1  0
M  CHG  1  16  -1
M  END
>  <UniqueID>  (12) 
11

>  <SMILES>  (12) 
Cc1ccc(S(=O)(=O)Nc2cc3c(cc2[O-])CCCC3)cc1S(=O)(=O)N1CCOCC1

>  <Energy>  (12) 
64.65882570201167

>  <Genealogy>  (12) 
Cc1ccc(S(=O)(=O)Nc2cc3c(cc2[O-])CCCC3)cc1S(=O)(=O)N1CCOCC1 (protonated)
Cc1ccc(S(=O)(=O)Nc2cc3c(cc2[O-])CCCC3)cc1S(=O)(=O)N1CCOCC1 (3D coordinates assigned)
Cc1ccc(S(=O)(=O)Nc2cc3c(cc2[O-])CCCC3)cc1S(=O)(=O)N1CCOCC1 (nonaromatic ring conformer: 64.65882570201167 kcal/mol)

>  <smiles>  (12) 
Cc1ccc(S(=O)(=O)Nc2cc3c(cc2O)CCCC3)cc1S(=O)(=O)N1CCOCC1

>  <score_type>  (12) 
oracle

>  <origin>  (12) 
adgpu

>  <m_score__min__energy>  (12) 
-14.6

>  <m_primary>  (12) 
energy

$$$$
12:0
     RDKit          3D

 25 27  0  0  1  0  0  0  0  0999 V2000
   -6.5260   16.4850  -34.1030 F   0  0  0  0  0  0  0  0  0  0  0  0
   -6.6180   17.6970  -33.5100 C   0  0  0  0  0  0  0  0  0  0  0  0
   -6.1090   18.8220  -34.1640 C   0  0  0  0  0  0  0  0  0  0  0  0
   -6.1830   20.0760  -33.5920 C   0  0  0  0  0  0  0  0  0  0  0  0
   -6.7710   20.2330  -32.3490 C   0  0  0  0  0  0  0  0  0  0  0  0
   -6.8800   21.5010  -31.7040 N   0  0  0  0  0  0  0  0  0  0  0  0
   -5.8750   22.2480  -31.4330 C   0  0  0  0  0  0  0  0  0  0  0  0
   -4.6230   21.8320  -31.7700 N   0  0  0  0  0  0  0  0  0  0  0  0
   -3.6170   22.6680  -31.4550 C   0  0  0  0  0  0  0  0  0  0  0  0
   -3.8010   23.8520  -30.8430 N   0  0  0  0  0  0  0  0  0  0  0  0
   -5.0260   24.2820  -30.5020 C   0  0  0  0  0  0  0  0  0  0  0  0
   -5.5450   25.3690  -29.9040 N   0  0  0  0  0  0  0  0  0  0  0  0
   -6.8940   25.2230  -29.8390 C   0  0  0  0  0  0  0  0  0  0  0  0
   -7.2400   24.0440  -30.3930 N   0  0  0  0  0  0  0  0  0  0  0  0
   -6.0960   23.4570  -30.8050 C   0  0  0  0  0  0  0  0  0  0  0  0
   -7.2700   19.0910  -31.7220 C   0  0  0  0  0  0  0  0  0  0  0  0
   -7.2060   17.8450  -32.2720 C   0  0  0  0  0  0  0  0  0  0  0  0
   -5.6408   18.7062  -35.1526 H   0  0  0  0  0  0  0  0  0  0  0  0
   -5.7754   20.9489  -34.1230 H   0  0  0  0  0  0  0  0  0  0  0  0
   -4.4850   20.9180  -32.2420 H   0  0  0  0  0  0  0  0  0  0  0  0
   -2.5903   22.3678  -31.7112 H   0  0  0  0  0  0  0  0  0  0  0  0
   -4.9930   26.1830  -29.5530 H   0  0  0  0  0  0  0  0  0  0  0  0
   -7.5933   25.9517  -29.4032 H   0  0  0  0  0  0  0  0  0  0  0  0
   -7.7391   19.2014  -30.7332 H   0  0  0  0  0  0  0  0  0  0  0  0
   -7.6156   16.9748  -31.7382 H   0  0  0  0  0  0  0  0  0  0  0  0
  1  2  1  0
  2  3  2  0
  3  4  1  0
  4  5  2  0
  5  6  1  0
  6  7  2  0
  7  8  1  0
  8  9  1  0
  9 10  2  0
 10 11  1  0
 11 12  1  0
 12 13  1  0
 13 14  2  0
 14 15  1  0
  5 16  1  0
 16 17  2  0
 17  2  1  0
 15  7  1  0
 15 11  2  0
  3 18  1  0
  4 19  1  0
  8 20  1  0
  9 21  1  0
 12 22  1  0
 13 23  1  0
 16 24  1  0
 17 25  1  0
M  END
>  <smiles>  (13) 
Fc1ccc(N=c2[nH]cnc3[nH]cnc23)cc1

>  <score_type>  (13) 
oracle

>  <origin>  (13) 
adgpu

>  <m_score__min__energy>  (13) 
-6.4000000000000004

>  <m_primary>  (13) 
energy

$$$$
13:0
     RDKit          3D

 48 51  0  0  0  0  0  0  0  0999 V2000
    1.7187   19.6396  -30.9239 H   0  0  0  0  0  0  0  0  0  0  0  0
    0.7210   19.4510  -31.3470 C   0  0  0  0  0  0  0  0  0  0  0  0
    0.5640   18.4800  -32.2880 N   0  0  0  0  0  0  0  0  0  0  0  0
   -0.6600   18.2490  -32.8120 C   0  0  0  0  0  0  0  0  0  0  0  0
   -1.0510   17.0990  -33.9680 S   0  0  0  0  0  0  0  0  0  0  0  0
   -2.6930   17.5120  -34.0030 C   0  0  0  0  0  0  0  0  0  0  0  0
   -3.7260   16.8170  -34.8330 C   0  0  0  0  0  0  0  0  0  0  0  0
   -3.2804   16.5221  -35.7945 H   0  0  0  0  0  0  0  0  0  0  0  0
   -4.0794   15.9269  -34.2919 H   0  0  0  0  0  0  0  0  0  0  0  0
   -4.8660   17.7080  -35.0810 N   0  0  0  0  0  0  0  0  0  0  0  0
   -4.5560   18.6820  -34.8550 H   0  0  0  0  0  0  0  0  0  0  0  0
   -5.9960   17.3850  -34.1960 C   0  0  0  0  0  0  0  0  0  0  0  0
   -6.8217   16.9760  -34.7967 H   0  0  0  0  0  0  0  0  0  0  0  0
   -5.6671   16.6441  -33.4525 H   0  0  0  0  0  0  0  0  0  0  0  0
   -6.4760   18.6390  -33.4680 C   0  0  0  0  0  0  0  0  0  0  0  0
   -7.5703   18.5862  -33.3690 H   0  0  0  0  0  0  0  0  0  0  0  0
   -5.9100   18.7100  -32.2080 F   0  0  0  0  0  0  0  0  0  0  0  0
   -6.1350   19.7680  -34.1900 F   0  0  0  0  0  0  0  0  0  0  0  0
   -2.9400   18.5460  -33.0990 C   0  0  0  0  0  0  0  0  0  0  0  0
   -3.9342   18.9857  -32.9309 H   0  0  0  0  0  0  0  0  0  0  0  0
   -1.7800   18.9630  -32.4280 C   0  0  0  0  0  0  0  0  0  0  0  0
   -1.6780   19.9710  -31.4560 C   0  0  0  0  0  0  0  0  0  0  0  0
   -2.7670   20.6130  -31.1190 N   0  0  0  0  0  0  0  0  0  0  0  0
   -2.9240   21.6530  -30.1490 C   0  0  0  0  0  0  0  0  0  0  0  0
   -3.1620   22.9660  -30.5770 C   0  0  0  0  0  0  0  0  0  0  0  0
   -3.2121   23.1903  -31.6527 H   0  0  0  0  0  0  0  0  0  0  0  0
   -3.3360   23.9920  -29.6440 C   0  0  0  0  0  0  0  0  0  0  0  0
   -3.5410   25.2930  -30.0870 O   0  0  0  0  0  0  0  0  0  0  0  0
   -3.2950   23.7040  -28.2710 C   0  0  0  0  0  0  0  0  0  0  0  0
   -3.5130   25.0060  -27.0520 S   0  0  0  0  0  0  0  0  0  0  0  0
   -1.7480   25.1810  -26.7630 C   0  0  0  0  0  0  0  0  0  0  0  0
   -1.1870   24.6540  -25.5920 C   0  0  0  0  0  0  0  0  0  0  0  0
   -1.8274   24.1398  -24.8603 H   0  0  0  0  0  0  0  0  0  0  0  0
    0.1850   24.7800  -25.3510 C   0  0  0  0  0  0  0  0  0  0  0  0
    0.6212   24.3700  -24.4282 H   0  0  0  0  0  0  0  0  0  0  0  0
    1.0020   25.4270  -26.2830 C   0  0  0  0  0  0  0  0  0  0  0  0
    2.0803   25.5295  -26.0912 H   0  0  0  0  0  0  0  0  0  0  0  0
    0.4490   25.9440  -27.4590 C   0  0  0  0  0  0  0  0  0  0  0  0
    1.0941   26.4491  -28.1930 H   0  0  0  0  0  0  0  0  0  0  0  0
   -0.9240   25.8200  -27.7040 C   0  0  0  0  0  0  0  0  0  0  0  0
   -1.4570   26.3260  -28.8830 O   0  0  0  0  0  0  0  0  0  0  0  0
   -3.0650   22.3900  -27.8420 C   0  0  0  0  0  0  0  0  0  0  0  0
   -3.0195   22.1657  -26.7661 H   0  0  0  0  0  0  0  0  0  0  0  0
   -2.8930   21.3620  -28.7750 C   0  0  0  0  0  0  0  0  0  0  0  0
   -2.6260   19.7210  -28.2080 Cl  0  0  0  0  0  0  0  0  0  0  0  0
   -0.3790   20.2200  -30.9060 C   0  0  0  0  0  0  0  0  0  0  0  0
   -0.1060   21.2370  -29.9180 C   0  0  0  0  0  0  0  0  0  0  0  0
    0.1220   22.0490  -29.1240 N   0  0  0  0  0  0  0  0  0  0  0  0
  1  2  1  0
  2  3  1  0
  3  4  1  0
  4  5  1  0
  5  6  1  0
  6  7  1  0
  7  8  1  0
  7  9  1  0
  7 10  1  0
 10 11  1  0
 10 12  1  0
 12 13  1  0
 12 14  1  0
 12 15  1  0
 15 16  1  0
 15 17  1  0
 15 18  1  0
  6 19  2  0
 19 20  1  0
 19 21  1  0
 21 22  1  0
 22 23  2  0
 23 24  1  0
 24 25  2  0
 25 26  1  0
 25 27  1  0
 27 28  1  0
 27 29  2  0
 29 30  1  0
 30 31  1  0
 31 32  2  0
 32 33  1  0
 32 34  1  0
 34 35  1  0
 34 36  2  0
 36 37  1  0
 36 38  1  0
 38 39  1  0
 38 40  2  0
 40 41  1  0
 29 42  1  0
 42 43  1  0
 42 44  2  0
 44 45  1  0
 22 46  1  0
 46 47  1  0
 47 48  3  0
 46  2  2  0
 21  4  2  0
 44 24  1  0
 40 31  1  0
M  CHG  3   3  -1  28  -1  41  -1
M  END
>  <UniqueID>  (14) 
12

>  <SMILES>  (14) 
N#Cc1c[n-]c2sc(CNCC(F)F)cc2/c1=N/c1cc([O-])c(Sc2ccccc2[O-])cc1Cl

>  <Energy>  (14) 
92.67830165247685

>  <Genealogy>  (14) 
N#Cc1c[n-]c2sc(CNCC(F)F)cc2c1=Nc1cc([O-])c(Sc2ccccc2[O-])cc1Cl (protonated)
N#Cc1c[n-]c2sc(CNCC(F)F)cc2/c1=N/c1cc([O-])c(Sc2ccccc2[O-])cc1Cl (cis-trans isomerization)
N#Cc1c[n-]c2sc(CNCC(F)F)cc2/c1=N/c1cc([O-])c(Sc2ccccc2[O-])cc1Cl (3D coordinates assigned)
N#Cc1c[n-]c2sc(CNCC(F)F)cc2/c1=N/c1cc([O-])c(Sc2ccccc2[O-])cc1Cl (optimized conformer: 92.67830165247685 kcal/mol)

>  <smiles>  (14) 
N#Cc1c[nH]c2sc(CNCC(F)F)cc2c1=Nc1cc(O)c(Sc2ccccc2O)cc1Cl

>  <score_type>  (14) 
oracle

>  <origin>  (14) 
adgpu

>  <m_score__min__energy>  (14) 
-12.48

>  <m_primary>  (14) 
energy

$$$$
14:0
     RDKit          3D

 36 38  0  0  0  0  0  0  0  0999 V2000
   -6.1600   16.5450  -33.4550 C   0  0  0  0  0  0  0  0  0  0  0  0
   -6.7020   17.8690  -32.9850 C   0  0  0  0  0  0  0  0  0  0  0  0
   -7.9390   17.9090  -32.3190 C   0  0  0  0  0  0  0  0  0  0  0  0
   -8.4660   19.1220  -31.8740 C   0  0  0  0  0  0  0  0  0  0  0  0
   -7.7680   20.3140  -32.0840 C   0  0  0  0  0  0  0  0  0  0  0  0
   -8.4720   21.8410  -31.5590 S   0  0  0  0  0  0  0  0  0  0  0  0
   -8.5410   21.9120  -30.0590 O   0  0  0  0  0  0  0  0  0  0  0  0
   -9.8620   21.9520  -32.1180 O   0  0  0  0  0  0  0  0  0  0  0  0
   -7.5130   23.1610  -32.1460 N   0  0  0  0  0  0  0  0  0  0  0  0
   -6.3220   23.6590  -31.5200 C   0  0  0  0  0  0  0  0  0  0  0  0
   -6.3660   24.9100  -30.9000 C   0  0  0  0  0  0  0  0  0  0  0  0
   -5.2250   25.4410  -30.2970 C   0  0  0  0  0  0  0  0  0  0  0  0
   -4.0220   24.7270  -30.3060 C   0  0  0  0  0  0  0  0  0  0  0  0
   -2.9060   25.2930  -29.7000 O   0  0  0  0  0  0  0  0  0  0  0  0
   -3.9570   23.4590  -30.9220 C   0  0  0  0  0  0  0  0  0  0  0  0
   -2.6980   22.6740  -30.9600 C   0  0  0  0  0  0  0  0  0  0  0  0
   -2.2700   21.9510  -32.0120 N   0  0  0  0  0  0  0  0  0  0  0  0
   -1.1260   21.4190  -31.6170 N   0  0  0  0  0  0  0  0  0  0  0  0
   -0.8630   21.7960  -30.3770 N   0  0  0  0  0  0  0  0  0  0  0  0
   -1.8290   22.5840  -29.9360 N   0  0  0  0  0  0  0  0  0  0  0  0
   -5.1170   22.9330  -31.5190 C   0  0  0  0  0  0  0  0  0  0  0  0
   -6.5290   20.2860  -32.7350 C   0  0  0  0  0  0  0  0  0  0  0  0
   -5.9830   19.0710  -33.1860 C   0  0  0  0  0  0  0  0  0  0  0  0
   -4.6570   19.0790  -33.9010 C   0  0  0  0  0  0  0  0  0  0  0  0
   -5.9054   15.9231  -32.5842 H   0  0  0  0  0  0  0  0  0  0  0  0
   -6.9205   16.0321  -34.0621 H   0  0  0  0  0  0  0  0  0  0  0  0
   -5.2581   16.7127  -34.0621 H   0  0  0  0  0  0  0  0  0  0  0  0
   -8.4963   16.9764  -32.1471 H   0  0  0  0  0  0  0  0  0  0  0  0
   -9.4358   19.1399  -31.3553 H   0  0  0  0  0  0  0  0  0  0  0  0
   -7.3064   25.4804  -30.8870 H   0  0  0  0  0  0  0  0  0  0  0  0
   -5.2718   26.4270  -29.8116 H   0  0  0  0  0  0  0  0  0  0  0  0
   -5.0814   21.9403  -31.9916 H   0  0  0  0  0  0  0  0  0  0  0  0
   -5.9769   21.2238  -32.8954 H   0  0  0  0  0  0  0  0  0  0  0  0
   -3.8421   19.0839  -33.1622 H   0  0  0  0  0  0  0  0  0  0  0  0
   -4.5749   18.1813  -34.5314 H   0  0  0  0  0  0  0  0  0  0  0  0
   -4.5858   19.9776  -34.5314 H   0  0  0  0  0  0  0  0  0  0  0  0
  1  2  1  0
  2  3  2  0
  3  4  1  0
  4  5  2  0
  5  6  1  0
  6  7  2  0
  6  8  2  0
  6  9  1  0
  9 10  1  0
 10 11  2  0
 11 12  1  0
 12 13  2  0
 13 14  1  0
 13 15  1  0
 15 16  1  0
 16 17  1  0
 17 18  2  0
 18 19  1  0
 19 20  1  0
 15 21  2  0
  5 22  1  0
 22 23  2  0
 23 24  1  0
 23  2  1  0
 21 10  1  0
 20 16  2  0
  1 25  1  0
  1 26  1  0
  1 27  1  0
  3 28  1  0
  4 29  1  0
 11 30  1  0
 12 31  1  0
 21 32  1  0
 22 33  1  0
 24 34  1  0
 24 35  1  0
 24 36  1  0
M  CHG  3   9  -1  14  -1  19  -1
M  END
>  <UniqueID>  (15) 
13

>  <SMILES>  (15) 
Cc1ccc(S(=O)(=O)[N-]c2ccc([O-])c(-c3nn[n-]n3)c2)cc1C

>  <Energy>  (15) 
81.28886183868494

>  <Genealogy>  (15) 
Cc1ccc(S(=O)(=O)[N-]c2ccc([O-])c(-c3nn[n-]n3)c2)cc1C (protonated)
Cc1ccc(S(=O)(=O)[N-]c2ccc([O-])c(-c3nn[n-]n3)c2)cc1C (3D coordinates assigned)
Cc1ccc(S(=O)(=O)[N-]c2ccc([O-])c(-c3nn[n-]n3)c2)cc1C (optimized conformer: 81.28886183868494 kcal/mol)

>  <smiles>  (15) 
Cc1ccc(S(=O)(=O)Nc2ccc(O)c(-c3nn[nH]n3)c2)cc1C

>  <score_type>  (15) 
oracle

>  <origin>  (15) 
adgpu

>  <m_score__min__energy>  (15) 
-12.57

>  <m_primary>  (15) 
energy

$$$$
15:0
     RDKit          3D

 33 34  0  0  0  0  0  0  0  0999 V2000
    1.0240   24.5440  -28.9680 H   0  0  0  0  0  0  0  0  0  0  0  0
    0.3500   24.5990  -28.2130 O   0  0  0  0  0  0  0  0  0  0  0  0
   -0.8760   23.9400  -28.2810 C   0  0  0  0  0  0  0  0  0  0  0  0
   -1.1370   22.8320  -27.4660 C   0  0  0  0  0  0  0  0  0  0  0  0
   -0.3669   22.4689  -26.7696 H   0  0  0  0  0  0  0  0  0  0  0  0
   -2.3740   22.1870  -27.5360 C   0  0  0  0  0  0  0  0  0  0  0  0
   -2.5781   21.3195  -26.8912 H   0  0  0  0  0  0  0  0  0  0  0  0
   -3.3530   22.6420  -28.4240 C   0  0  0  0  0  0  0  0  0  0  0  0
   -4.3292   22.1368  -28.4677 H   0  0  0  0  0  0  0  0  0  0  0  0
   -3.0970   23.7410  -29.2610 C   0  0  0  0  0  0  0  0  0  0  0  0
   -4.1510   24.2270  -30.1830 C   0  0  0  0  0  0  0  0  0  0  0  0
   -3.9730   25.3160  -30.7930 O   0  0  0  0  0  0  0  0  0  0  0  0
   -5.4030   23.4840  -30.4410 C   0  0  0  0  0  0  0  0  0  0  0  0
   -6.2814   23.7010  -29.8155 H   0  0  0  0  0  0  0  0  0  0  0  0
   -5.5150   22.5580  -31.4030 C   0  0  0  0  0  0  0  0  0  0  0  0
   -4.6338   22.3323  -32.0215 H   0  0  0  0  0  0  0  0  0  0  0  0
   -6.7730   21.8260  -31.6690 C   0  0  0  0  0  0  0  0  0  0  0  0
   -7.9580   22.3250  -31.1040 C   0  0  0  0  0  0  0  0  0  0  0  0
   -7.9272   23.2370  -30.4898 H   0  0  0  0  0  0  0  0  0  0  0  0
   -9.1740   21.6740  -31.3150 C   0  0  0  0  0  0  0  0  0  0  0  0
  -10.0941   22.0668  -30.8577 H   0  0  0  0  0  0  0  0  0  0  0  0
   -9.2240   20.5260  -32.1050 C   0  0  0  0  0  0  0  0  0  0  0  0
  -10.1820   20.0088  -32.2620 H   0  0  0  0  0  0  0  0  0  0  0  0
   -8.0600   20.0320  -32.6970 C   0  0  0  0  0  0  0  0  0  0  0  0
   -8.1071   19.1272  -33.3208 H   0  0  0  0  0  0  0  0  0  0  0  0
   -6.8250   20.6830  -32.5020 C   0  0  0  0  0  0  0  0  0  0  0  0
   -5.6520   20.2390  -33.1370 O   0  0  0  0  0  0  0  0  0  0  0  0
   -5.5430   19.0320  -33.8840 C   0  0  0  0  0  0  0  0  0  0  0  0
   -5.4660   18.1792  -33.1935 H   0  0  0  0  0  0  0  0  0  0  0  0
   -6.4339   18.9113  -34.5178 H   0  0  0  0  0  0  0  0  0  0  0  0
   -4.6449   19.0729  -34.5178 H   0  0  0  0  0  0  0  0  0  0  0  0
   -1.8550   24.3960  -29.1700 C   0  0  0  0  0  0  0  0  0  0  0  0
   -1.6525   25.2729  -29.8025 H   0  0  0  0  0  0  0  0  0  0  0  0
  1  2  1  0
  2  3  1  0
  3  4  2  0
  4  5  1  0
  4  6  1  0
  6  7  1  0
  6  8  2  0
  8  9  1  0
  8 10  1  0
 10 11  1  0
 11 12  2  0
 11 13  1  0
 13 14  1  0
 13 15  2  0
 15 16  1  0
 15 17  1  0
 17 18  2  0
 18 19  1  0
 18 20  1  0
 20 21  1  0
 20 22  2  0
 22 23  1  0
 22 24  1  0
 24 25  1  0
 24 26  2  0
 26 27  1  0
 27 28  1  0
 28 29  1  0
 28 30  1  0
 28 31  1  0
 10 32  2  0
 32 33  1  0
 32  3  1  0
 26 17  1  0
M  END
>  <UniqueID>  (16) 
14

>  <SMILES>  (16) 
COc1ccccc1/C=C/C(=O)c1cccc(O)c1

>  <Energy>  (16) 
42.035350504686335

>  <Genealogy>  (16) 
COc1ccccc1/C=C/C(=O)c1cccc(O)c1 (cis-trans isomerization)
COc1ccccc1/C=C/C(=O)c1cccc(O)c1 (3D coordinates assigned)
COc1ccccc1/C=C/C(=O)c1cccc(O)c1 (optimized conformer: 42.035350504686335 kcal/mol)

>  <smiles>  (16) 
COc1ccccc1C=CC(=O)c1cccc(O)c1

>  <score_type>  (16) 
oracle

>  <origin>  (16) 
adgpu

>  <m_score__min__energy>  (16) 
-8.0399999999999991

>  <m_primary>  (16) 
energy

$$$$
16:0
     RDKit          3D

 51 54  0  0  0  0  0  0  0  0999 V2000
   -0.1350   20.7500  -35.1220 C   0  0  0  0  0  0  0  0  0  0  0  0
   -0.1730   20.2400  -33.7120 C   0  0  0  0  0  0  0  0  0  0  0  0
   -1.3970   20.0840  -33.0470 C   0  0  0  0  0  0  0  0  0  0  0  0
   -1.4290   19.6390  -31.7240 C   0  0  0  0  0  0  0  0  0  0  0  0
   -0.2340   19.3440  -31.0420 C   0  0  0  0  0  0  0  0  0  0  0  0
   -0.2530   18.8700  -29.6870 N   0  0  0  0  0  0  0  0  0  0  0  0
   -0.4860   19.8840  -28.3010 S   0  0  0  0  0  0  0  0  0  0  0  0
    0.8310   20.2930  -27.7040 O   0  0  0  0  0  0  0  0  0  0  0  0
   -1.2480   19.1050  -27.2680 O   0  0  0  0  0  0  0  0  0  0  0  0
   -1.4210   21.3010  -28.7740 C   0  0  0  0  0  0  0  0  0  0  0  0
   -0.9360   22.1780  -29.7540 C   0  0  0  0  0  0  0  0  0  0  0  0
   -1.6530   23.3310  -30.0820 C   0  0  0  0  0  0  0  0  0  0  0  0
   -2.8550   23.6360  -29.4290 C   0  0  0  0  0  0  0  0  0  0  0  0
   -3.5390   24.8490  -29.7780 N   0  0  0  0  0  0  0  0  0  0  0  0
   -5.2160   24.9710  -30.2060 S   0  0  0  0  0  0  0  0  0  0  0  0
   -6.0090   25.3210  -28.9770 O   0  0  0  0  0  0  0  0  0  0  0  0
   -5.3770   26.0690  -31.2180 O   0  0  0  0  0  0  0  0  0  0  0  0
   -5.7970   23.4650  -30.9140 C   0  0  0  0  0  0  0  0  0  0  0  0
   -7.1060   23.0270  -30.6600 C   0  0  0  0  0  0  0  0  0  0  0  0
   -7.5610   21.8170  -31.1910 C   0  0  0  0  0  0  0  0  0  0  0  0
   -6.7210   21.0430  -31.9980 C   0  0  0  0  0  0  0  0  0  0  0  0
   -7.1650   19.9000  -32.5210 O   0  0  0  0  0  0  0  0  0  0  0  0
   -6.4090   19.1260  -33.2970 C   0  0  0  0  0  0  0  0  0  0  0  0
   -6.8850   18.0590  -33.7660 O   0  0  0  0  0  0  0  0  0  0  0  0
   -5.0880   19.4890  -33.5870 C   0  0  0  0  0  0  0  0  0  0  0  0
   -4.5840   20.6770  -33.0590 C   0  0  0  0  0  0  0  0  0  0  0  0
   -5.4060   21.4770  -32.2580 C   0  0  0  0  0  0  0  0  0  0  0  0
   -4.9470   22.6870  -31.7130 C   0  0  0  0  0  0  0  0  0  0  0  0
   -3.3430   22.7540  -28.4470 C   0  0  0  0  0  0  0  0  0  0  0  0
   -2.6340   21.5910  -28.1300 C   0  0  0  0  0  0  0  0  0  0  0  0
    1.0040   19.5300  -31.6940 C   0  0  0  0  0  0  0  0  0  0  0  0
    2.2940   19.1740  -31.0000 C   0  0  0  0  0  0  0  0  0  0  0  0
    1.0230   19.9780  -33.0260 C   0  0  0  0  0  0  0  0  0  0  0  0
   -0.0533   21.8469  -35.1131 H   0  0  0  0  0  0  0  0  0  0  0  0
    0.7337   20.3218  -35.6435 H   0  0  0  0  0  0  0  0  0  0  0  0
   -1.0576   20.4553  -35.6435 H   0  0  0  0  0  0  0  0  0  0  0  0
   -2.3371   20.3133  -33.5701 H   0  0  0  0  0  0  0  0  0  0  0  0
   -2.3947   19.5182  -31.2114 H   0  0  0  0  0  0  0  0  0  0  0  0
    0.0121   21.9576  -30.2663 H   0  0  0  0  0  0  0  0  0  0  0  0
   -1.2702   24.0067  -30.8610 H   0  0  0  0  0  0  0  0  0  0  0  0
   -7.7772   23.6392  -30.0398 H   0  0  0  0  0  0  0  0  0  0  0  0
   -8.5828   21.4724  -30.9736 H   0  0  0  0  0  0  0  0  0  0  0  0
   -4.4583   18.8475  -34.2209 H   0  0  0  0  0  0  0  0  0  0  0  0
   -3.5487   20.9827  -33.2705 H   0  0  0  0  0  0  0  0  0  0  0  0
   -3.9195   23.0249  -31.9131 H   0  0  0  0  0  0  0  0  0  0  0  0
   -4.2855   22.9802  -27.9269 H   0  0  0  0  0  0  0  0  0  0  0  0
   -3.0293   20.8994  -27.3714 H   0  0  0  0  0  0  0  0  0  0  0  0
    2.1475   19.2144  -29.9105 H   0  0  0  0  0  0  0  0  0  0  0  0
    2.5990   18.1581  -31.2915 H   0  0  0  0  0  0  0  0  0  0  0  0
    3.0768   19.8897  -31.2915 H   0  0  0  0  0  0  0  0  0  0  0  0
    1.9862   20.1249  -33.5366 H   0  0  0  0  0  0  0  0  0  0  0  0
  1  2  1  0
  2  3  2  0
  3  4  1  0
  4  5  2  0
  5  6  1  0
  6  7  1  0
  7  8  2  0
  7  9  2  0
  7 10  1  0
 10 11  2  0
 11 12  1  0
 12 13  2  0
 13 14  1  0
 14 15  1  0
 15 16  2  0
 15 17  2  0
 15 18  1  0
 18 19  2  0
 19 20  1  0
 20 21  2  0
 21 22  1  0
 22 23  1  0
 23 24  2  0
 23 25  1  0
 25 26  2  0
 26 27  1  0
 27 28  2  0
 13 29  1  0
 29 30  2  0
  5 31  1  0
 31 32  1  0
 31 33  2  0
 33  2  1  0
 30 10  1  0
 28 18  1  0
 27 21  1  0
  1 34  1  0
  1 35  1  0
  1 36  1  0
  3 37  1  0
  4 38  1  0
 11 39  1  0
 12 40  1  0
 19 41  1  0
 20 42  1  0
 25 43  1  0
 26 44  1  0
 28 45  1  0
 29 46  1  0
 30 47  1  0
 32 48  1  0
 32 49  1  0
 32 50  1  0
 33 51  1  0
M  CHG  2   6  -1  14  -1
M  END
>  <UniqueID>  (17) 
15

>  <SMILES>  (17) 
Cc1ccc([N-]S(=O)(=O)c2ccc([N-]S(=O)(=O)c3ccc4oc(=O)ccc4c3)cc2)c(C)c1

>  <Energy>  (17) 
68.62088582375907

>  <Genealogy>  (17) 
Cc1ccc([N-]S(=O)(=O)c2ccc([N-]S(=O)(=O)c3ccc4oc(=O)ccc4c3)cc2)c(C)c1 (protonated)
Cc1ccc([N-]S(=O)(=O)c2ccc([N-]S(=O)(=O)c3ccc4oc(=O)ccc4c3)cc2)c(C)c1 (3D coordinates assigned)
Cc1ccc([N-]S(=O)(=O)c2ccc([N-]S(=O)(=O)c3ccc4oc(=O)ccc4c3)cc2)c(C)c1 (optimized conformer: 68.62088582375907 kcal/mol)

>  <smiles>  (17) 
Cc1ccc(NS(=O)(=O)c2ccc(NS(=O)(=O)c3ccc4oc(=O)ccc4c3)cc2)c(C)c1

>  <score_type>  (17) 
oracle

>  <origin>  (17) 
adgpu

>  <m_score__min__energy>  (17) 
-12.73

>  <m_primary>  (17) 
energy

$$$$
17:0
     RDKit          3D

 81 86  0  0  0  0  0  0  0  0999 V2000
   -1.6730   18.3660  -26.7610 C   0  0  0  0  0  0  0  0  0  0  0  0
   -0.8050   18.8170  -27.9290 C   0  0  0  0  0  0  0  0  0  0  0  0
    0.2040   17.8060  -28.2370 N   0  0  0  0  0  0  0  0  0  0  0  0
    0.8900   17.1460  -27.3140 N   0  0  0  0  0  0  0  0  0  0  0  0
    1.7160   16.2890  -27.9540 C   0  0  0  0  0  0  0  0  0  0  0  0
    2.7120   15.4120  -27.2580 C   0  0  0  0  0  0  0  0  0  0  0  0
    3.1350   15.9030  -25.8820 C   0  0  0  0  0  0  0  0  0  0  0  0
    2.1880   14.7220  -26.0070 C   0  0  0  0  0  0  0  0  0  0  0  0
    1.5610   16.4240  -29.3220 C   0  0  0  0  0  0  0  0  0  0  0  0
    2.4400   15.6010  -30.6010 Cl  0  0  0  0  0  0  0  0  0  0  0  0
    0.5950   17.3920  -29.4580 C   0  0  0  0  0  0  0  0  0  0  0  0
    0.0990   17.9080  -30.6930 N   0  0  0  0  0  0  0  0  0  0  0  0
   -0.1190   17.1780  -31.7760 N   0  0  0  0  0  0  0  0  0  0  0  0
   -0.5860   18.0340  -32.7130 C   0  0  0  0  0  0  0  0  0  0  0  0
   -0.9330   17.6000  -34.1090 C   0  0  0  0  0  0  0  0  0  0  0  0
   -2.2900   16.8650  -34.1570 C   0  0  0  0  0  0  0  0  0  0  0  0
   -3.4270   17.8040  -34.5860 C   0  0  0  0  0  0  0  0  0  0  0  0
   -2.6070   16.2500  -32.7880 C   0  0  0  0  0  0  0  0  0  0  0  0
   -0.6450   19.3070  -32.2450 N   0  0  0  0  0  0  0  0  0  0  0  0
   -1.1330   20.5200  -32.9050 C   0  0  0  0  0  0  0  0  0  0  0  0
   -2.6210   20.6540  -32.7290 C   0  0  0  0  0  0  0  0  0  0  0  0
   -3.3010   21.7490  -33.2880 C   0  0  0  0  0  0  0  0  0  0  0  0
   -4.6800   21.8860  -33.1150 C   0  0  0  0  0  0  0  0  0  0  0  0
   -5.3960   20.9350  -32.3760 C   0  0  0  0  0  0  0  0  0  0  0  0
   -6.8510   21.0900  -32.1880 C   0  0  0  0  0  0  0  0  0  0  0  0
   -7.7090   20.1570  -32.7920 C   0  0  0  0  0  0  0  0  0  0  0  0
   -9.0900   20.2540  -32.6250 C   0  0  0  0  0  0  0  0  0  0  0  0
   -9.6300   21.2840  -31.8550 C   0  0  0  0  0  0  0  0  0  0  0  0
   -8.7910   22.2260  -31.2570 C   0  0  0  0  0  0  0  0  0  0  0  0
   -7.3990   22.1490  -31.4230 C   0  0  0  0  0  0  0  0  0  0  0  0
   -6.3790   23.4070  -30.7070 S   0  0  0  0  0  0  0  0  0  0  0  0
   -7.2150   24.2710  -29.8010 O   0  0  0  0  0  0  0  0  0  0  0  0
   -5.7700   24.2420  -31.7980 O   0  0  0  0  0  0  0  0  0  0  0  0
   -5.1140   22.6790  -29.7730 N   0  0  0  0  0  0  0  0  0  0  0  0
   -3.9820   23.2710  -29.5560 C   0  0  0  0  0  0  0  0  0  0  0  0
   -3.6620   24.4670  -29.9980 O   0  0  0  0  0  0  0  0  0  0  0  0
   -2.4670   24.7850  -29.5950 N   0  0  0  0  0  0  0  0  0  0  0  0
   -1.9860   23.7630  -28.8560 C   0  0  0  0  0  0  0  0  0  0  0  0
   -0.6340   23.7430  -28.2190 C   0  0  0  0  0  0  0  0  0  0  0  0
   -2.9320   22.7510  -28.8260 C   0  0  0  0  0  0  0  0  0  0  0  0
   -2.8880   21.4620  -28.0700 C   0  0  0  0  0  0  0  0  0  0  0  0
   -4.7250   19.8310  -31.8350 C   0  0  0  0  0  0  0  0  0  0  0  0
   -3.3450   19.6920  -32.0060 C   0  0  0  0  0  0  0  0  0  0  0  0
   -0.2130   19.1820  -30.9770 C   0  0  0  0  0  0  0  0  0  0  0  0
   -0.0960   20.1390  -30.1650 O   0  0  0  0  0  0  0  0  0  0  0  0
   -1.1764   18.6240  -25.8140 H   0  0  0  0  0  0  0  0  0  0  0  0
   -2.6488   18.8711  -26.8128 H   0  0  0  0  0  0  0  0  0  0  0  0
   -1.8206   17.2772  -26.8128 H   0  0  0  0  0  0  0  0  0  0  0  0
   -1.4408   18.9749  -28.8127 H   0  0  0  0  0  0  0  0  0  0  0  0
   -0.2978   19.7537  -27.6545 H   0  0  0  0  0  0  0  0  0  0  0  0
    3.2382   15.0847  -28.1668 H   0  0  0  0  0  0  0  0  0  0  0  0
    4.1671   15.7458  -25.5355 H   0  0  0  0  0  0  0  0  0  0  0  0
    3.1064   16.8704  -25.3591 H   0  0  0  0  0  0  0  0  0  0  0  0
    2.5345   13.7098  -25.7512 H   0  0  0  0  0  0  0  0  0  0  0  0
    1.1901   14.4802  -25.6124 H   0  0  0  0  0  0  0  0  0  0  0  0
   -0.9854   18.4881  -34.7559 H   0  0  0  0  0  0  0  0  0  0  0  0
   -0.1539   16.9053  -34.4561 H   0  0  0  0  0  0  0  0  0  0  0  0
   -2.2106   16.0650  -34.9078 H   0  0  0  0  0  0  0  0  0  0  0  0
   -3.9218   18.2127  -33.6926 H   0  0  0  0  0  0  0  0  0  0  0  0
   -3.0149   18.6285  -35.1863 H   0  0  0  0  0  0  0  0  0  0  0  0
   -4.1587   17.2434  -35.1863 H   0  0  0  0  0  0  0  0  0  0  0  0
   -2.2587   16.9257  -31.9930 H   0  0  0  0  0  0  0  0  0  0  0  0
   -3.6931   16.1031  -32.6946 H   0  0  0  0  0  0  0  0  0  0  0  0
   -2.0965   15.2801  -32.6946 H   0  0  0  0  0  0  0  0  0  0  0  0
   -0.6360   21.3967  -32.4641 H   0  0  0  0  0  0  0  0  0  0  0  0
   -0.9065   20.4557  -33.9795 H   0  0  0  0  0  0  0  0  0  0  0  0
   -2.7444   22.5023  -33.8649 H   0  0  0  0  0  0  0  0  0  0  0  0
   -5.2058   22.7434  -33.5604 H   0  0  0  0  0  0  0  0  0  0  0  0
   -7.2886   19.3435  -33.4015 H   0  0  0  0  0  0  0  0  0  0  0  0
   -9.7541   19.5175  -33.1010 H   0  0  0  0  0  0  0  0  0  0  0  0
  -10.7193   21.3542  -31.7186 H   0  0  0  0  0  0  0  0  0  0  0  0
   -9.2241   23.0352  -30.6507 H   0  0  0  0  0  0  0  0  0  0  0  0
   -1.9850   25.6860  -29.8090 H   0  0  0  0  0  0  0  0  0  0  0  0
   -0.7443   23.7446  -27.1245 H   0  0  0  0  0  0  0  0  0  0  0  0
   -0.0946   22.8368  -28.5318 H   0  0  0  0  0  0  0  0  0  0  0  0
   -0.0681   24.6329  -28.5318 H   0  0  0  0  0  0  0  0  0  0  0  0
   -2.8951   21.6700  -26.9899 H   0  0  0  0  0  0  0  0  0  0  0  0
   -3.7659   20.8531  -28.3319 H   0  0  0  0  0  0  0  0  0  0  0  0
   -1.9706   20.9144  -28.3319 H   0  0  0  0  0  0  0  0  0  0  0  0
   -5.2866   19.0702  -31.2731 H   0  0  0  0  0  0  0  0  0  0  0  0
   -2.8238   18.8257  -31.5726 H   0  0  0  0  0  0  0  0  0  0  0  0
  1  2  1  0
  2  3  1  0
  3  4  1  0
  4  5  2  0
  5  6  1  0
  6  7  1  0
  7  8  1  0
  5  9  1  0
  9 10  1  0
  9 11  2  0
 11 12  1  0
 12 13  1  0
 13 14  2  0
 14 15  1  0
 15 16  1  0
 16 17  1  0
 16 18  1  0
 14 19  1  0
 19 20  1  0
 20 21  1  0
 21 22  2  0
 22 23  1  0
 23 24  2  0
 24 25  1  0
 25 26  2  0
 26 27  1  0
 27 28  2  0
 28 29  1  0
 29 30  2  0
 30 31  1  0
 31 32  2  0
 31 33  2  0
 31 34  1  0
 34 35  2  3
 35 36  1  0
 36 37  1  0
 37 38  1  0
 38 39  1  0
 38 40  2  0
 40 41  1  0
 24 42  1  0
 42 43  2  0
 19 44  1  0
 44 45  2  0
 11  3  1  0
 44 12  1  0
  8  6  1  0
 43 21  1  0
 30 25  1  0
 40 35  1  0
  1 46  1  0
  1 47  1  0
  1 48  1  0
  2 49  1  0
  2 50  1  0
  6 51  1  0
  7 52  1  0
  7 53  1  0
  8 54  1  0
  8 55  1  0
 15 56  1  0
 15 57  1  0
 16 58  1  0
 17 59  1  0
 17 60  1  0
 17 61  1  0
 18 62  1  0
 18 63  1  0
 18 64  1  0
 20 65  1  0
 20 66  1  0
 22 67  1  0
 23 68  1  0
 26 69  1  0
 27 70  1  0
 28 71  1  0
 29 72  1  0
 37 73  1  0
 39 74  1  0
 39 75  1  0
 39 76  1  0
 41 77  1  0
 41 78  1  0
 41 79  1  0
 42 80  1  0
 43 81  1  0
M  END
>  <UniqueID>  (18) 
16

>  <SMILES>  (18) 
CCn1nc(C2CC2)c(Cl)c1-n1nc(CC(C)C)n(Cc2ccc(-c3ccccc3S(=O)(=O)N=c3o[nH]c(C)c3C)cc2)c1=O

>  <Energy>  (18) 
455.5438551110191

>  <Genealogy>  (18) 
CCn1nc(C2CC2)c(Cl)c1-n1nc(CC(C)C)n(Cc2ccc(-c3ccccc3S(=O)(=O)N=c3o[nH]c(C)c3C)cc2)c1=O (3D coordinates assigned)
CCn1nc(C2CC2)c(Cl)c1-n1nc(CC(C)C)n(Cc2ccc(-c3ccccc3S(=O)(=O)N=c3o[nH]c(C)c3C)cc2)c1=O (nonaromatic ring conformer: 455.5438551110191 kcal/mol)

>  <smiles>  (18) 
CCn1nc(C2CC2)c(Cl)c1-n1nc(CC(C)C)n(Cc2ccc(-c3ccccc3S(=O)(=O)N=c3o[nH]c(C)c3C)cc2)c1=O

>  <score_type>  (18) 
oracle

>  <origin>  (18) 
adgpu

>  <m_score__min__energy>  (18) 
-12.029999999999999

>  <m_primary>  (18) 
energy

$$$$
18:0
     RDKit          3D

 41 43  0  0  0  0  0  0  0  0999 V2000
   -0.1680   25.1190  -27.7380 C   0  0  0  0  0  0  0  0  0  0  0  0
   -1.6030   25.0700  -27.2700 C   0  0  0  0  0  0  0  0  0  0  0  0
   -2.6150   24.4700  -28.0560 C   0  0  0  0  0  0  0  0  0  0  0  0
   -2.3380   23.8460  -29.3980 C   0  0  0  0  0  0  0  0  0  0  0  0
   -3.5760   23.6980  -30.1570 N   0  0  0  0  0  0  0  0  0  0  0  0
   -4.2760   22.5680  -30.3440 C   0  0  0  0  0  0  0  0  0  0  0  0
   -5.3400   22.9040  -31.1600 C   0  0  0  0  0  0  0  0  0  0  0  0
   -6.4180   22.0160  -31.6600 C   0  0  0  0  0  0  0  0  0  0  0  0
   -6.1300   20.9200  -32.4940 C   0  0  0  0  0  0  0  0  0  0  0  0
   -7.1580   20.0920  -32.9560 C   0  0  0  0  0  0  0  0  0  0  0  0
   -8.4860   20.3480  -32.5920 C   0  0  0  0  0  0  0  0  0  0  0  0
   -9.5170   19.5290  -33.0470 O   0  0  0  0  0  0  0  0  0  0  0  0
   -8.7800   21.4340  -31.7640 C   0  0  0  0  0  0  0  0  0  0  0  0
   -7.7550   22.2640  -31.3000 C   0  0  0  0  0  0  0  0  0  0  0  0
   -5.2430   24.2190  -31.4500 N   0  0  0  0  0  0  0  0  0  0  0  0
   -4.1620   24.6740  -30.8320 N   0  0  0  0  0  0  0  0  0  0  0  0
   -3.8850   24.4040  -27.5750 N   0  0  0  0  0  0  0  0  0  0  0  0
   -4.2150   24.9270  -26.3690 C   0  0  0  0  0  0  0  0  0  0  0  0
   -3.2730   25.5470  -25.6190 N   0  0  0  0  0  0  0  0  0  0  0  0
   -1.9850   25.6490  -26.0400 C   0  0  0  0  0  0  0  0  0  0  0  0
   -1.0420   26.3450  -25.2140 N   0  0  0  0  0  0  0  0  0  0  0  0
   -0.4750   25.6660  -24.0510 C   0  0  0  0  0  0  0  0  0  0  0  0
   -0.9560   27.8030  -25.3150 C   0  0  0  0  0  0  0  0  0  0  0  0
    0.5016   25.1419  -26.8656 H   0  0  0  0  0  0  0  0  0  0  0  0
    0.0505   24.2278  -28.3446 H   0  0  0  0  0  0  0  0  0  0  0  0
   -0.0108   26.0230  -28.3446 H   0  0  0  0  0  0  0  0  0  0  0  0
   -1.6434   24.4880  -29.9596 H   0  0  0  0  0  0  0  0  0  0  0  0
   -1.8937   22.8516  -29.2437 H   0  0  0  0  0  0  0  0  0  0  0  0
   -4.0486   21.5742  -29.9309 H   0  0  0  0  0  0  0  0  0  0  0  0
   -5.0894   20.7131  -32.7845 H   0  0  0  0  0  0  0  0  0  0  0  0
   -6.9229   19.2372  -33.6072 H   0  0  0  0  0  0  0  0  0  0  0  0
   -9.5820   19.2490  -34.0190 H   0  0  0  0  0  0  0  0  0  0  0  0
   -9.8220   21.6370  -31.4759 H   0  0  0  0  0  0  0  0  0  0  0  0
   -7.9959   23.1171  -30.6487 H   0  0  0  0  0  0  0  0  0  0  0  0
   -5.2480   24.8479  -25.9993 H   0  0  0  0  0  0  0  0  0  0  0  0
   -0.8618   26.1292  -23.1313 H   0  0  0  0  0  0  0  0  0  0  0  0
   -0.7576   24.6031  -24.0731 H   0  0  0  0  0  0  0  0  0  0  0  0
    0.6212   25.7545  -24.0731 H   0  0  0  0  0  0  0  0  0  0  0  0
   -0.9302   28.2396  -24.3057 H   0  0  0  0  0  0  0  0  0  0  0  0
   -0.0400   28.0796  -25.8576 H   0  0  0  0  0  0  0  0  0  0  0  0
   -1.8332   28.1853  -25.8576 H   0  0  0  0  0  0  0  0  0  0  0  0
  1  2  1  0
  2  3  2  0
  3  4  1  0
  4  5  1  0
  5  6  1  0
  6  7  2  0
  7  8  1  0
  8  9  2  0
  9 10  1  0
 10 11  2  0
 11 12  1  0
 11 13  1  0
 13 14  2  0
  7 15  1  0
 15 16  2  0
  3 17  1  0
 17 18  2  0
 18 19  1  0
 19 20  2  0
 20 21  1  0
 21 22  1  0
 21 23  1  0
 20  2  1  0
 16  5  1  0
 14  8  1  0
  1 24  1  0
  1 25  1  0
  1 26  1  0
  4 27  1  0
  4 28  1  0
  6 29  1  0
  9 30  1  0
 10 31  1  0
 12 32  1  0
 13 33  1  0
 14 34  1  0
 18 35  1  0
 22 36  1  0
 22 37  1  0
 22 38  1  0
 23 39  1  0
 23 40  1  0
 23 41  1  0
M  END
>  <UniqueID>  (19) 
17

>  <SMILES>  (19) 
Cc1c(Cn2cc(-c3ccc(O)cc3)nn2)ncnc1N(C)C

>  <Energy>  (19) 
83.90297086496425

>  <Genealogy>  (19) 
Cc1c(Cn2cc(-c3ccc(O)cc3)nn2)ncnc1N(C)C (3D coordinates assigned)
Cc1c(Cn2cc(-c3ccc(O)cc3)nn2)ncnc1N(C)C (optimized conformer: 83.90297086496425 kcal/mol)

>  <smiles>  (19) 
Cc1c(Cn2cc(-c3ccc(O)cc3)nn2)ncnc1N(C)C

>  <score_type>  (19) 
oracle

>  <origin>  (19) 
adgpu

>  <m_score__min__energy>  (19) 
-8.0199999999999996

>  <m_primary>  (19) 
energy

$$$$
19:0
     RDKit          3D

 56 59  0  0  0  0  0  0  0  0999 V2000
   -3.6050   17.4920  -34.7370 C   0  0  0  0  0  0  0  0  0  0  0  0
   -2.9190   17.3420  -33.4450 N   0  0  0  0  0  0  0  0  0  0  0  0
   -2.7150   18.6570  -32.7840 C   0  0  0  0  0  0  0  0  0  0  0  0
   -1.2920   19.2060  -32.9940 C   0  0  0  0  0  0  0  0  0  0  0  0
   -0.2430   18.2680  -32.5300 N   0  0  0  0  0  0  0  0  0  0  0  0
    0.4290   18.7550  -30.9910 S   0  0  0  0  0  0  0  0  0  0  0  0
    0.3640   17.6010  -30.0290 O   0  0  0  0  0  0  0  0  0  0  0  0
    1.8740   19.1240  -31.1770 O   0  0  0  0  0  0  0  0  0  0  0  0
   -0.4380   20.1320  -30.3060 C   0  0  0  0  0  0  0  0  0  0  0  0
   -0.2570   21.4160  -30.8400 C   0  0  0  0  0  0  0  0  0  0  0  0
   -0.9570   22.5040  -30.3100 C   0  0  0  0  0  0  0  0  0  0  0  0
   -1.8280   22.3280  -29.2270 C   0  0  0  0  0  0  0  0  0  0  0  0
   -2.5460   23.4650  -28.7280 N   0  0  0  0  0  0  0  0  0  0  0  0
   -2.6180   24.7550  -29.3450 C   0  0  0  0  0  0  0  0  0  0  0  0
   -1.8840   25.6810  -28.9100 O   0  0  0  0  0  0  0  0  0  0  0  0
   -3.5170   24.9940  -30.4350 N   0  0  0  0  0  0  0  0  0  0  0  0
   -4.6920   24.2240  -30.7280 C   0  0  0  0  0  0  0  0  0  0  0  0
   -5.9250   24.7050  -30.2850 C   0  0  0  0  0  0  0  0  0  0  0  0
   -7.0930   23.9890  -30.5400 C   0  0  0  0  0  0  0  0  0  0  0  0
   -7.0510   22.7970  -31.2680 C   0  0  0  0  0  0  0  0  0  0  0  0
   -8.5680   21.9370  -31.5060 Cl  0  0  0  0  0  0  0  0  0  0  0  0
   -5.8200   22.3210  -31.7750 C   0  0  0  0  0  0  0  0  0  0  0  0
   -5.7590   20.8190  -32.7270 S   0  0  0  0  0  0  0  0  0  0  0  0
   -4.4740   20.7270  -33.5000 O   0  0  0  0  0  0  0  0  0  0  0  0
   -6.8920   20.8020  -33.7150 O   0  0  0  0  0  0  0  0  0  0  0  0
   -5.8420   19.4270  -31.6020 C   0  0  0  0  0  0  0  0  0  0  0  0
   -5.9580   18.0810  -32.3000 C   0  0  0  0  0  0  0  0  0  0  0  0
   -7.1580   18.6660  -31.5730 C   0  0  0  0  0  0  0  0  0  0  0  0
   -4.6380   23.0450  -31.4990 C   0  0  0  0  0  0  0  0  0  0  0  0
   -3.4170   22.6170  -32.0060 O   0  0  0  0  0  0  0  0  0  0  0  0
   -2.0210   21.0380  -28.7030 C   0  0  0  0  0  0  0  0  0  0  0  0
   -1.3220   19.9500  -29.2350 C   0  0  0  0  0  0  0  0  0  0  0  0
   -0.6780   16.8560  -32.4830 C   0  0  0  0  0  0  0  0  0  0  0  0
   -1.6740   16.5570  -33.6070 C   0  0  0  0  0  0  0  0  0  0  0  0
   -4.6662   17.7240  -34.5639 H   0  0  0  0  0  0  0  0  0  0  0  0
   -3.1391   18.3095  -35.3068 H   0  0  0  0  0  0  0  0  0  0  0  0
   -3.5228   16.5547  -35.3068 H   0  0  0  0  0  0  0  0  0  0  0  0
   -3.4359   19.3766  -33.1993 H   0  0  0  0  0  0  0  0  0  0  0  0
   -2.8633   18.5153  -31.7033 H   0  0  0  0  0  0  0  0  0  0  0  0
   -1.1434   19.3973  -34.0670 H   0  0  0  0  0  0  0  0  0  0  0  0
   -1.2003   20.1273  -32.4000 H   0  0  0  0  0  0  0  0  0  0  0  0
    0.4382   21.5677  -31.6789 H   0  0  0  0  0  0  0  0  0  0  0  0
   -0.8229   23.5048  -30.7463 H   0  0  0  0  0  0  0  0  0  0  0  0
   -5.9751   25.6543  -29.7316 H   0  0  0  0  0  0  0  0  0  0  0  0
   -8.0562   24.3653  -30.1650 H   0  0  0  0  0  0  0  0  0  0  0  0
   -5.1943   19.8673  -30.8296 H   0  0  0  0  0  0  0  0  0  0  0  0
   -5.9523   18.0289  -33.3988 H   0  0  0  0  0  0  0  0  0  0  0  0
   -5.4073   17.1300  -32.2521 H   0  0  0  0  0  0  0  0  0  0  0  0
   -8.0207   19.0372  -32.1457 H   0  0  0  0  0  0  0  0  0  0  0  0
   -7.8353   18.3135  -30.7811 H   0  0  0  0  0  0  0  0  0  0  0  0
   -2.7244   20.8838  -27.8715 H   0  0  0  0  0  0  0  0  0  0  0  0
   -1.4672   18.9458  -28.8101 H   0  0  0  0  0  0  0  0  0  0  0  0
    0.2005   16.2039  -32.5965 H   0  0  0  0  0  0  0  0  0  0  0  0
   -1.1700   16.6702  -31.5168 H   0  0  0  0  0  0  0  0  0  0  0  0
   -1.2124   16.8123  -34.5722 H   0  0  0  0  0  0  0  0  0  0  0  0
   -1.9300   15.4879  -33.5690 H   0  0  0  0  0  0  0  0  0  0  0  0
  1  2  1  0
  2  3  1  0
  3  4  1  0
  4  5  1  0
  5  6  1  0
  6  7  2  0
  6  8  2  0
  6  9  1  0
  9 10  2  0
 10 11  1  0
 11 12  2  0
 12 13  1  0
 13 14  1  0
 14 15  2  0
 14 16  1  0
 16 17  1  0
 17 18  2  0
 18 19  1  0
 19 20  2  0
 20 21  1  0
 20 22  1  0
 22 23  1  0
 23 24  2  0
 23 25  2  0
 23 26  1  0
 26 27  1  0
 27 28  1  0
 22 29  2  0
 29 30  1  0
 12 31  1  0
 31 32  2  0
  5 33  1  0
 33 34  1  0
 34  2  1  0
 32  9  1  0
 29 17  1  0
 28 26  1  0
  1 35  1  0
  1 36  1  0
  1 37  1  0
  3 38  1  0
  3 39  1  0
  4 40  1  0
  4 41  1  0
 10 42  1  0
 11 43  1  0
 18 44  1  0
 19 45  1  0
 26 46  1  0
 27 47  1  0
 27 48  1  0
 28 49  1  0
 28 50  1  0
 31 51  1  0
 32 52  1  0
 33 53  1  0
 33 54  1  0
 34 55  1  0
 34 56  1  0
M  CHG  3  13  -1  16  -1  30  -1
M  END
>  <UniqueID>  (20) 
18

>  <SMILES>  (20) 
CN1CCN(S(=O)(=O)c2ccc([N-]C(=O)[N-]c3ccc(Cl)c(S(=O)(=O)C4CC4)c3[O-])cc2)CC1

>  <Energy>  (20) 
343.5504820825033

>  <Genealogy>  (20) 
CN1CCN(S(=O)(=O)c2ccc([N-]C(=O)[N-]c3ccc(Cl)c(S(=O)(=O)C4CC4)c3[O-])cc2)CC1 (protonated)
CN1CCN(S(=O)(=O)c2ccc([N-]C(=O)[N-]c3ccc(Cl)c(S(=O)(=O)C4CC4)c3[O-])cc2)CC1 (3D coordinates assigned)
CN1CCN(S(=O)(=O)c2ccc([N-]C(=O)[N-]c3ccc(Cl)c(S(=O)(=O)C4CC4)c3[O-])cc2)CC1 (nonaromatic ring conformer: 343.5504820825033 kcal/mol)

>  <smiles>  (20) 
CN1CCN(S(=O)(=O)c2ccc(NC(=O)Nc3ccc(Cl)c(S(=O)(=O)C4CC4)c3O)cc2)CC1

>  <score_type>  (20) 
oracle

>  <origin>  (20) 
adgpu

>  <m_score__min__energy>  (20) 
-17.100000000000001

>  <m_primary>  (20) 
energy

$$$$
20:0
     RDKit          3D

 42 44  0  0  0  0  0  0  0  0999 V2000
   -3.7120   21.1420  -33.3020 O   0  0  0  0  0  0  0  0  0  0  0  0
   -4.1360   21.9580  -32.4390 C   0  0  0  0  0  0  0  0  0  0  0  0
   -3.2190   22.8260  -31.7580 N   0  0  0  0  0  0  0  0  0  0  0  0
   -3.0340   22.9220  -30.3390 C   0  0  0  0  0  0  0  0  0  0  0  0
   -2.7470   21.7900  -29.5540 C   0  0  0  0  0  0  0  0  0  0  0  0
   -2.5780   21.9110  -28.1670 C   0  0  0  0  0  0  0  0  0  0  0  0
   -2.1920   20.4900  -27.1940 S   0  0  0  0  0  0  0  0  0  0  0  0
   -1.6050   20.9330  -25.8820 O   0  0  0  0  0  0  0  0  0  0  0  0
   -3.4560   19.7310  -26.9040 O   0  0  0  0  0  0  0  0  0  0  0  0
   -1.0580   19.4400  -28.0070 N   0  0  0  0  0  0  0  0  0  0  0  0
    0.1710   20.1750  -28.3390 C   0  0  0  0  0  0  0  0  0  0  0  0
    1.1700   19.2210  -29.0060 C   0  0  0  0  0  0  0  0  0  0  0  0
    1.4730   18.1360  -28.1490 O   0  0  0  0  0  0  0  0  0  0  0  0
    0.2950   17.3990  -27.8700 C   0  0  0  0  0  0  0  0  0  0  0  0
   -0.7390   18.2820  -27.1590 C   0  0  0  0  0  0  0  0  0  0  0  0
   -2.7190   23.1660  -27.5600 C   0  0  0  0  0  0  0  0  0  0  0  0
   -3.0330   24.2880  -28.3300 C   0  0  0  0  0  0  0  0  0  0  0  0
   -3.1970   24.1670  -29.7140 C   0  0  0  0  0  0  0  0  0  0  0  0
   -3.5130   25.2920  -30.4670 O   0  0  0  0  0  0  0  0  0  0  0  0
   -5.5890   22.0980  -32.2020 C   0  0  0  0  0  0  0  0  0  0  0  0
   -6.4020   20.9520  -32.3010 C   0  0  0  0  0  0  0  0  0  0  0  0
   -7.7680   21.0230  -32.0220 C   0  0  0  0  0  0  0  0  0  0  0  0
   -8.3430   22.2340  -31.6410 C   0  0  0  0  0  0  0  0  0  0  0  0
   -7.5560   23.3840  -31.5570 C   0  0  0  0  0  0  0  0  0  0  0  0
   -6.1870   23.3360  -31.8520 C   0  0  0  0  0  0  0  0  0  0  0  0
   -5.4700   24.5340  -31.8200 O   0  0  0  0  0  0  0  0  0  0  0  0
   -2.6546   20.8034  -30.0315 H   0  0  0  0  0  0  0  0  0  0  0  0
   -0.0682   20.9974  -29.0293 H   0  0  0  0  0  0  0  0  0  0  0  0
    0.6131   20.5864  -27.4196 H   0  0  0  0  0  0  0  0  0  0  0  0
    0.7327   18.8339  -29.9381 H   0  0  0  0  0  0  0  0  0  0  0  0
    2.0973   19.7726  -29.2203 H   0  0  0  0  0  0  0  0  0  0  0  0
   -0.1327   17.0301  -28.8139 H   0  0  0  0  0  0  0  0  0  0  0  0
    0.5521   16.5550  -27.2131 H   0  0  0  0  0  0  0  0  0  0  0  0
   -1.6536   17.6996  -26.9739 H   0  0  0  0  0  0  0  0  0  0  0  0
   -0.3272   18.6309  -26.2005 H   0  0  0  0  0  0  0  0  0  0  0  0
   -2.5819   23.2678  -26.4733 H   0  0  0  0  0  0  0  0  0  0  0  0
   -3.1516   25.2692  -27.8471 H   0  0  0  0  0  0  0  0  0  0  0  0
   -5.9564   19.9921  -32.6010 H   0  0  0  0  0  0  0  0  0  0  0  0
   -8.3921   20.1208  -32.1031 H   0  0  0  0  0  0  0  0  0  0  0  0
   -9.4166   22.2837  -31.4066 H   0  0  0  0  0  0  0  0  0  0  0  0
   -8.0151   24.3373  -31.2562 H   0  0  0  0  0  0  0  0  0  0  0  0
   -4.4870   24.5890  -31.5920 H   0  0  0  0  0  0  0  0  0  0  0  0
  1  2  2  0
  2  3  1  0
  3  4  1  0
  4  5  2  0
  5  6  1  0
  6  7  1  0
  7  8  2  0
  7  9  2  0
  7 10  1  0
 10 11  1  0
 11 12  1  0
 12 13  1  0
 13 14  1  0
 14 15  1  0
  6 16  2  0
 16 17  1  0
 17 18  2  0
 18 19  1  0
  2 20  1  0
 20 21  2  0
 21 22  1  0
 22 23  2  0
 23 24  1  0
 24 25  2  0
 25 26  1  0
 18  4  1  0
 25 20  1  0
 15 10  1  0
  5 27  1  0
 11 28  1  0
 11 29  1  0
 12 30  1  0
 12 31  1  0
 14 32  1  0
 14 33  1  0
 15 34  1  0
 15 35  1  0
 16 36  1  0
 17 37  1  0
 21 38  1  0
 22 39  1  0
 23 40  1  0
 24 41  1  0
 26 42  1  0
M  CHG  2   3  -1  19  -1
M  END
>  <UniqueID>  (21) 
19

>  <SMILES>  (21) 
O=C([N-]c1cc(S(=O)(=O)N2CCOCC2)ccc1[O-])c1ccccc1O

>  <Energy>  (21) 
52.54011369515514

>  <Genealogy>  (21) 
O=C([N-]c1cc(S(=O)(=O)N2CCOCC2)ccc1[O-])c1ccccc1O (protonated)
O=C([N-]c1cc(S(=O)(=O)N2CCOCC2)ccc1[O-])c1ccccc1O (3D coordinates assigned)
O=C([N-]c1cc(S(=O)(=O)N2CCOCC2)ccc1[O-])c1ccccc1O (nonaromatic ring conformer: 52.54011369515514 kcal/mol)

>  <smiles>  (21) 
O=C(Nc1cc(S(=O)(=O)N2CCOCC2)ccc1O)c1ccccc1O

>  <score_type>  (21) 
oracle

>  <origin>  (21) 
adgpu

>  <m_score__min__energy>  (21) 
-12.69

>  <m_primary>  (21) 
energy

$$$$
21:0
     RDKit          3D

 45 47  0  0  0  0  0  0  0  0999 V2000
   -3.4840   18.7060  -26.1230 C   0  0  0  0  0  0  0  0  0  0  0  0
   -2.0620   18.7240  -26.6850 C   0  0  0  0  0  0  0  0  0  0  0  0
   -1.6830   20.0960  -27.2810 C   0  0  0  0  0  0  0  0  0  0  0  0
   -2.6280   20.5660  -28.4030 C   0  0  0  0  0  0  0  0  0  0  0  0
   -3.0120   22.0550  -28.3400 C   0  0  0  0  0  0  0  0  0  0  0  0
   -2.2180   22.9530  -29.3030 C   0  0  0  0  0  0  0  0  0  0  0  0
   -2.3660   22.5150  -30.6960 N   0  0  0  0  0  0  0  0  0  0  0  0
   -3.4540   22.6110  -31.5140 C   0  0  0  0  0  0  0  0  0  0  0  0
   -4.7030   23.3060  -31.1580 C   0  0  0  0  0  0  0  0  0  0  0  0
   -5.9310   22.6640  -31.3690 C   0  0  0  0  0  0  0  0  0  0  0  0
   -7.1350   23.3040  -31.0340 C   0  0  0  0  0  0  0  0  0  0  0  0
   -8.4430   22.5900  -31.2080 C   0  0  0  0  0  0  0  0  0  0  0  0
   -7.1000   24.5870  -30.4690 C   0  0  0  0  0  0  0  0  0  0  0  0
   -5.8790   25.2400  -30.2800 C   0  0  0  0  0  0  0  0  0  0  0  0
   -4.6810   24.6100  -30.6320 C   0  0  0  0  0  0  0  0  0  0  0  0
   -3.4800   25.2930  -30.4740 O   0  0  0  0  0  0  0  0  0  0  0  0
   -3.3070   21.9490  -32.6950 N   0  0  0  0  0  0  0  0  0  0  0  0
   -2.0660   21.4390  -32.5990 C   0  0  0  0  0  0  0  0  0  0  0  0
   -1.3860   20.6440  -33.5160 C   0  0  0  0  0  0  0  0  0  0  0  0
   -0.0990   20.2040  -33.1550 C   0  0  0  0  0  0  0  0  0  0  0  0
    0.4430   20.5700  -31.9000 C   0  0  0  0  0  0  0  0  0  0  0  0
   -0.2720   21.3520  -31.0360 N   0  0  0  0  0  0  0  0  0  0  0  0
   -1.5070   21.7740  -31.4090 C   0  0  0  0  0  0  0  0  0  0  0  0
   -3.4438   18.7065  -25.0237 H   0  0  0  0  0  0  0  0  0  0  0  0
   -4.0269   19.5973  -26.4705 H   0  0  0  0  0  0  0  0  0  0  0  0
   -4.0042   17.8012  -26.4705 H   0  0  0  0  0  0  0  0  0  0  0  0
   -1.3585   18.4845  -25.8740 H   0  0  0  0  0  0  0  0  0  0  0  0
   -2.0116   17.9809  -27.4945 H   0  0  0  0  0  0  0  0  0  0  0  0
   -1.7038   20.8430  -26.4738 H   0  0  0  0  0  0  0  0  0  0  0  0
   -0.6833   19.9877  -27.7270 H   0  0  0  0  0  0  0  0  0  0  0  0
   -2.1331   20.3805  -29.3677 H   0  0  0  0  0  0  0  0  0  0  0  0
   -3.5625   19.9991  -28.2794 H   0  0  0  0  0  0  0  0  0  0  0  0
   -4.0804   22.1462  -28.5854 H   0  0  0  0  0  0  0  0  0  0  0  0
   -2.7771   22.3987  -27.3218 H   0  0  0  0  0  0  0  0  0  0  0  0
   -2.5853   23.9859  -29.2126 H   0  0  0  0  0  0  0  0  0  0  0  0
   -1.1534   22.8897  -29.0337 H   0  0  0  0  0  0  0  0  0  0  0  0
   -5.9516   21.6521  -31.7999 H   0  0  0  0  0  0  0  0  0  0  0  0
   -8.8682   22.3579  -30.2204 H   0  0  0  0  0  0  0  0  0  0  0  0
   -9.1402   23.2327  -31.7656 H   0  0  0  0  0  0  0  0  0  0  0  0
   -8.2795   21.6560  -31.7656 H   0  0  0  0  0  0  0  0  0  0  0  0
   -8.0372   25.0813  -30.1735 H   0  0  0  0  0  0  0  0  0  0  0  0
   -5.8601   26.2534  -29.8527 H   0  0  0  0  0  0  0  0  0  0  0  0
   -1.8353   20.3709  -34.4822 H   0  0  0  0  0  0  0  0  0  0  0  0
    0.4839   19.5775  -33.8462 H   0  0  0  0  0  0  0  0  0  0  0  0
    1.4477   20.2225  -31.6174 H   0  0  0  0  0  0  0  0  0  0  0  0
  1  2  1  0
  2  3  1  0
  3  4  1  0
  4  5  1  0
  5  6  1  0
  6  7  1  0
  7  8  1  0
  8  9  1  0
  9 10  2  0
 10 11  1  0
 11 12  1  0
 11 13  2  0
 13 14  1  0
 14 15  2  0
 15 16  1  0
  8 17  2  0
 17 18  1  0
 18 19  2  0
 19 20  1  0
 20 21  2  0
 21 22  1  0
 22 23  2  0
 23  7  1  0
 15  9  1  0
 23 18  1  0
  1 24  1  0
  1 25  1  0
  1 26  1  0
  2 27  1  0
  2 28  1  0
  3 29  1  0
  3 30  1  0
  4 31  1  0
  4 32  1  0
  5 33  1  0
  5 34  1  0
  6 35  1  0
  6 36  1  0
 10 37  1  0
 12 38  1  0
 12 39  1  0
 12 40  1  0
 13 41  1  0
 14 42  1  0
 19 43  1  0
 20 44  1  0
 21 45  1  0
M  CHG  1  16  -1
M  END
>  <UniqueID>  (22) 
20

>  <SMILES>  (22) 
CCCCCCn1c(-c2cc(C)ccc2[O-])nc2cccnc21

>  <Energy>  (22) 
84.98285654155643

>  <Genealogy>  (22) 
CCCCCCn1c(-c2cc(C)ccc2[O-])nc2cccnc21 (protonated)
CCCCCCn1c(-c2cc(C)ccc2[O-])nc2cccnc21 (3D coordinates assigned)
CCCCCCn1c(-c2cc(C)ccc2[O-])nc2cccnc21 (optimized conformer: 84.98285654155643 kcal/mol)

>  <smiles>  (22) 
CCCCCCn1c(-c2cc(C)ccc2O)nc2cccnc21

>  <score_type>  (22) 
oracle

>  <origin>  (22) 
adgpu

>  <m_score__min__energy>  (22) 
-10.51

>  <m_primary>  (22) 
energy

$$$$
22:0
     RDKit          3D

 43 45  0  0  0  0  0  0  0  0999 V2000
   -3.9360   25.6300  -30.8440 N   0  0  0  0  0  0  0  0  0  0  0  0
   -5.2580   24.9210  -29.9830 S   0  0  0  0  0  0  0  0  0  0  0  0
   -6.3430   25.9530  -29.8430 O   0  0  0  0  0  0  0  0  0  0  0  0
   -4.8010   24.5030  -28.6140 O   0  0  0  0  0  0  0  0  0  0  0  0
   -5.8700   23.5070  -30.8540 C   0  0  0  0  0  0  0  0  0  0  0  0
   -7.0930   23.6070  -31.5390 C   0  0  0  0  0  0  0  0  0  0  0  0
   -7.6080   22.5100  -32.2320 C   0  0  0  0  0  0  0  0  0  0  0  0
   -6.9200   21.2980  -32.2330 C   0  0  0  0  0  0  0  0  0  0  0  0
   -5.7060   21.1820  -31.5530 C   0  0  0  0  0  0  0  0  0  0  0  0
   -5.1530   22.2860  -30.8830 C   0  0  0  0  0  0  0  0  0  0  0  0
   -3.9140   22.1520  -30.1700 N   0  0  0  0  0  0  0  0  0  0  0  0
   -2.4970   21.3660  -30.7970 S   0  0  0  0  0  0  0  0  0  0  0  0
   -1.7920   22.1950  -31.8320 O   0  0  0  0  0  0  0  0  0  0  0  0
   -2.9550   20.1120  -31.4900 O   0  0  0  0  0  0  0  0  0  0  0  0
   -1.3900   20.9360  -29.4720 C   0  0  0  0  0  0  0  0  0  0  0  0
   -0.7010   19.7160  -29.5930 C   0  0  0  0  0  0  0  0  0  0  0  0
    0.1540   19.2860  -28.5840 C   0  0  0  0  0  0  0  0  0  0  0  0
    0.3170   20.0350  -27.4690 N   0  0  0  0  0  0  0  0  0  0  0  0
   -0.3250   21.2170  -27.3050 C   0  0  0  0  0  0  0  0  0  0  0  0
   -1.1870   21.7190  -28.2970 C   0  0  0  0  0  0  0  0  0  0  0  0
   -1.9870   23.2690  -27.9400 S   0  0  0  0  0  0  0  0  0  0  0  0
   -3.3120   23.0020  -27.2850 O   0  0  0  0  0  0  0  0  0  0  0  0
   -2.2080   24.1140  -29.1590 O   0  0  0  0  0  0  0  0  0  0  0  0
   -0.9790   24.2230  -26.8520 C   0  0  0  0  0  0  0  0  0  0  0  0
   -1.5690   24.8920  -25.7700 C   0  0  0  0  0  0  0  0  0  0  0  0
   -0.7830   25.6620  -24.9060 C   0  0  0  0  0  0  0  0  0  0  0  0
    0.5940   25.7690  -25.1220 C   0  0  0  0  0  0  0  0  0  0  0  0
    1.1870   25.1080  -26.2020 C   0  0  0  0  0  0  0  0  0  0  0  0
    0.4030   24.3370  -27.0660 C   0  0  0  0  0  0  0  0  0  0  0  0
   -3.0580   25.2920  -30.3930 H   0  0  0  0  0  0  0  0  0  0  0  0
   -7.6484   24.5564  -31.5291 H   0  0  0  0  0  0  0  0  0  0  0  0
   -8.5584   22.6024  -32.7781 H   0  0  0  0  0  0  0  0  0  0  0  0
   -7.3338   20.4318  -32.7701 H   0  0  0  0  0  0  0  0  0  0  0  0
   -5.1777   20.2172  -31.5418 H   0  0  0  0  0  0  0  0  0  0  0  0
   -3.7960   22.6530  -29.2620 H   0  0  0  0  0  0  0  0  0  0  0  0
   -0.8393   19.0975  -30.4921 H   0  0  0  0  0  0  0  0  0  0  0  0
    0.6982   18.3362  -28.6924 H   0  0  0  0  0  0  0  0  0  0  0  0
   -0.1696   21.7934  -26.3811 H   0  0  0  0  0  0  0  0  0  0  0  0
   -2.6528   24.8111  -25.6001 H   0  0  0  0  0  0  0  0  0  0  0  0
   -1.2486   26.1833  -24.0566 H   0  0  0  0  0  0  0  0  0  0  0  0
    1.2116   26.3738  -24.4417 H   0  0  0  0  0  0  0  0  0  0  0  0
    2.2703   25.1945  -26.3721 H   0  0  0  0  0  0  0  0  0  0  0  0
    0.8711   23.8185  -27.9157 H   0  0  0  0  0  0  0  0  0  0  0  0
  1  2  1  0
  2  3  2  0
  2  4  2  0
  2  5  1  0
  5  6  2  0
  6  7  1  0
  7  8  2  0
  8  9  1  0
  9 10  2  0
 10 11  1  0
 11 12  1  0
 12 13  2  0
 12 14  2  0
 12 15  1  0
 15 16  2  0
 16 17  1  0
 17 18  2  0
 18 19  1  0
 19 20  2  0
 20 21  1  0
 21 22  2  0
 21 23  2  0
 21 24  1  0
 24 25  2  0
 25 26  1  0
 26 27  2  0
 27 28  1  0
 28 29  2  0
 10  5  1  0
 20 15  1  0
 29 24  1  0
  1 30  1  0
  6 31  1  0
  7 32  1  0
  8 33  1  0
  9 34  1  0
 11 35  1  0
 16 36  1  0
 17 37  1  0
 19 38  1  0
 25 39  1  0
 26 40  1  0
 27 41  1  0
 28 42  1  0
 29 43  1  0
M  CHG  1   1  -1
M  END
>  <UniqueID>  (23) 
21

>  <SMILES>  (23) 
[NH-]S(=O)(=O)c1ccccc1NS(=O)(=O)c1ccncc1S(=O)(=O)c1ccccc1

>  <Energy>  (23) 
62.40069280123241

>  <Genealogy>  (23) 
[NH-]S(=O)(=O)c1ccccc1NS(=O)(=O)c1ccncc1S(=O)(=O)c1ccccc1 (protonated)
[NH-]S(=O)(=O)c1ccccc1NS(=O)(=O)c1ccncc1S(=O)(=O)c1ccccc1 (3D coordinates assigned)
[NH-]S(=O)(=O)c1ccccc1NS(=O)(=O)c1ccncc1S(=O)(=O)c1ccccc1 (optimized conformer: 62.40069280123241 kcal/mol)

>  <smiles>  (23) 
NS(=O)(=O)c1ccccc1NS(=O)(=O)c1ccncc1S(=O)(=O)c1ccccc1

>  <score_type>  (23) 
oracle

>  <origin>  (23) 
adgpu

>  <m_score__min__energy>  (23) 
-11.41

>  <m_primary>  (23) 
energy

$$$$
23:0
     RDKit          3D

 50 52  0  0  0  0  0  0  0  0999 V2000
   -3.8180   25.2980  -30.8450 N   0  0  0  0  0  0  0  0  0  0  0  0
   -4.1470   23.7860  -30.0750 S   0  0  0  0  0  0  0  0  0  0  0  0
   -4.1870   23.9820  -28.5830 O   0  0  0  0  0  0  0  0  0  0  0  0
   -3.0540   22.8070  -30.4040 O   0  0  0  0  0  0  0  0  0  0  0  0
   -5.6920   23.1580  -30.6460 C   0  0  0  0  0  0  0  0  0  0  0  0
   -5.9090   22.9930  -32.0190 C   0  0  0  0  0  0  0  0  0  0  0  0
   -7.1230   22.4770  -32.4860 C   0  0  0  0  0  0  0  0  0  0  0  0
   -8.1410   22.1280  -31.5820 C   0  0  0  0  0  0  0  0  0  0  0  0
   -9.4720   21.6320  -32.0930 C   0  0  0  0  0  0  0  0  0  0  0  0
   -9.3520   20.3010  -32.6870 N   0  0  0  0  0  0  0  0  0  0  0  0
   -8.6880   19.1690  -32.1070 C   0  0  0  0  0  0  0  0  0  0  0  0
   -9.3050   18.4800  -31.2510 O   0  0  0  0  0  0  0  0  0  0  0  0
   -7.3090   18.7850  -32.4630 C   0  0  0  0  0  0  0  0  0  0  0  0
   -6.7680   17.5930  -31.9580 C   0  0  0  0  0  0  0  0  0  0  0  0
   -5.4920   17.1770  -32.3470 C   0  0  0  0  0  0  0  0  0  0  0  0
   -4.7500   17.9360  -33.2690 C   0  0  0  0  0  0  0  0  0  0  0  0
   -3.1670   17.3720  -33.8090 S   0  0  0  0  0  0  0  0  0  0  0  0
   -2.9800   15.9390  -33.3890 O   0  0  0  0  0  0  0  0  0  0  0  0
   -3.1130   17.4230  -35.3120 O   0  0  0  0  0  0  0  0  0  0  0  0
   -1.8670   18.3320  -33.1420 N   0  0  0  0  0  0  0  0  0  0  0  0
   -0.9190   18.7700  -34.1920 C   0  0  0  0  0  0  0  0  0  0  0  0
   -0.3080   20.1460  -33.8970 C   0  0  0  0  0  0  0  0  0  0  0  0
   -1.4180   21.1950  -33.8290 C   0  0  0  0  0  0  0  0  0  0  0  0
   -2.5910   20.7490  -32.9220 C   0  0  0  0  0  0  0  0  0  0  0  0
   -2.3650   19.3900  -32.2310 C   0  0  0  0  0  0  0  0  0  0  0  0
   -5.2930   19.1220  -33.7800 C   0  0  0  0  0  0  0  0  0  0  0  0
   -6.5620   19.5480  -33.3750 C   0  0  0  0  0  0  0  0  0  0  0  0
   -7.9330   22.3240  -30.2050 C   0  0  0  0  0  0  0  0  0  0  0  0
   -6.7110   22.8280  -29.7400 C   0  0  0  0  0  0  0  0  0  0  0  0
   -3.8710   26.0240  -30.0980 H   0  0  0  0  0  0  0  0  0  0  0  0
   -5.1210   23.2704  -32.7346 H   0  0  0  0  0  0  0  0  0  0  0  0
   -7.2814   22.3438  -33.5664 H   0  0  0  0  0  0  0  0  0  0  0  0
  -10.1832   21.5874  -31.2550 H   0  0  0  0  0  0  0  0  0  0  0  0
   -9.8264   22.3270  -32.8685 H   0  0  0  0  0  0  0  0  0  0  0  0
   -7.3512   16.9830  -31.2524 H   0  0  0  0  0  0  0  0  0  0  0  0
   -5.0664   16.2522  -31.9303 H   0  0  0  0  0  0  0  0  0  0  0  0
   -0.1067   18.0317  -34.2638 H   0  0  0  0  0  0  0  0  0  0  0  0
   -1.4792   18.8490  -35.1353 H   0  0  0  0  0  0  0  0  0  0  0  0
    0.2233   20.1121  -32.9344 H   0  0  0  0  0  0  0  0  0  0  0  0
    0.3980   20.4119  -34.6976 H   0  0  0  0  0  0  0  0  0  0  0  0
   -0.9976   22.1299  -33.4300 H   0  0  0  0  0  0  0  0  0  0  0  0
   -1.8126   21.3348  -34.8462 H   0  0  0  0  0  0  0  0  0  0  0  0
   -2.7370   21.5129  -32.1441 H   0  0  0  0  0  0  0  0  0  0  0  0
   -3.4710   20.6341  -33.5719 H   0  0  0  0  0  0  0  0  0  0  0  0
   -1.6292   19.5286  -31.4252 H   0  0  0  0  0  0  0  0  0  0  0  0
   -3.3428   19.0550  -31.8546 H   0  0  0  0  0  0  0  0  0  0  0  0
   -4.7190   19.7206  -34.5026 H   0  0  0  0  0  0  0  0  0  0  0  0
   -6.9772   20.4857  -33.7729 H   0  0  0  0  0  0  0  0  0  0  0  0
   -8.7328   22.0807  -29.4901 H   0  0  0  0  0  0  0  0  0  0  0  0
   -6.5501   22.9654  -28.6605 H   0  0  0  0  0  0  0  0  0  0  0  0
  1  2  1  0
  2  3  2  0
  2  4  2  0
  2  5  1  0
  5  6  2  0
  6  7  1  0
  7  8  2  0
  8  9  1  0
  9 10  1  0
 10 11  1  0
 11 12  2  0
 11 13  1  0
 13 14  2  0
 14 15  1  0
 15 16  2  0
 16 17  1  0
 17 18  2  0
 17 19  2  0
 17 20  1  0
 20 21  1  0
 21 22  1  0
 22 23  1  0
 23 24  1  0
 24 25  1  0
 16 26  1  0
 26 27  2  0
  8 28  1  0
 28 29  2  0
 29  5  1  0
 27 13  1  0
 25 20  1  0
  1 30  1  0
  6 31  1  0
  7 32  1  0
  9 33  1  0
  9 34  1  0
 14 35  1  0
 15 36  1  0
 21 37  1  0
 21 38  1  0
 22 39  1  0
 22 40  1  0
 23 41  1  0
 23 42  1  0
 24 43  1  0
 24 44  1  0
 25 45  1  0
 25 46  1  0
 26 47  1  0
 27 48  1  0
 28 49  1  0
 29 50  1  0
M  CHG  2   1  -1  10  -1
M  END
>  <UniqueID>  (24) 
22

>  <SMILES>  (24) 
[NH-]S(=O)(=O)c1ccc(C[N-]C(=O)c2ccc(S(=O)(=O)N3CCCCC3)cc2)cc1

>  <Energy>  (24) 
57.874415743840636

>  <Genealogy>  (24) 
[NH-]S(=O)(=O)c1ccc(C[N-]C(=O)c2ccc(S(=O)(=O)N3CCCCC3)cc2)cc1 (protonated)
[NH-]S(=O)(=O)c1ccc(C[N-]C(=O)c2ccc(S(=O)(=O)N3CCCCC3)cc2)cc1 (3D coordinates assigned)
[NH-]S(=O)(=O)c1ccc(C[N-]C(=O)c2ccc(S(=O)(=O)N3CCCCC3)cc2)cc1 (nonaromatic ring conformer: 57.874415743840636 kcal/mol)

>  <smiles>  (24) 
NS(=O)(=O)c1ccc(CNC(=O)c2ccc(S(=O)(=O)N3CCCCC3)cc2)cc1

>  <score_type>  (24) 
oracle

>  <origin>  (24) 
adgpu

>  <m_score__min__energy>  (24) 
-12.449999999999999

>  <m_primary>  (24) 
energy

$$$$
24:0
     RDKit          3D

 38 40  0  0  0  0  0  0  0  0999 V2000
   -5.8100   16.4990  -32.1780 C   0  0  0  0  0  0  0  0  0  0  0  0
   -6.6580   17.7040  -32.4880 C   0  0  0  0  0  0  0  0  0  0  0  0
   -7.9500   17.7870  -31.9370 C   0  0  0  0  0  0  0  0  0  0  0  0
   -8.7750   18.8760  -32.2210 C   0  0  0  0  0  0  0  0  0  0  0  0
   -8.3200   19.9010  -33.0490 C   0  0  0  0  0  0  0  0  0  0  0  0
   -7.0350   19.8430  -33.5910 C   0  0  0  0  0  0  0  0  0  0  0  0
   -6.1890   18.7540  -33.3180 C   0  0  0  0  0  0  0  0  0  0  0  0
   -4.8250   18.7470  -33.9020 C   0  0  0  0  0  0  0  0  0  0  0  0
   -4.5100   17.8580  -34.7350 O   0  0  0  0  0  0  0  0  0  0  0  0
   -3.8180   19.6770  -33.4770 N   0  0  0  0  0  0  0  0  0  0  0  0
   -4.0160   20.8020  -32.6090 C   0  0  0  0  0  0  0  0  0  0  0  0
   -4.7290   21.9080  -33.0860 C   0  0  0  0  0  0  0  0  0  0  0  0
   -4.9510   23.0150  -32.2630 C   0  0  0  0  0  0  0  0  0  0  0  0
   -4.4780   23.0200  -30.9440 C   0  0  0  0  0  0  0  0  0  0  0  0
   -4.7690   24.4160  -29.9120 S   0  0  0  0  0  0  0  0  0  0  0  0
   -6.2490   24.5720  -29.7060 O   0  0  0  0  0  0  0  0  0  0  0  0
   -4.2280   25.6660  -30.5480 O   0  0  0  0  0  0  0  0  0  0  0  0
   -4.0000   24.1860  -28.3750 N   0  0  0  0  0  0  0  0  0  0  0  0
   -2.8190   24.6440  -28.1000 C   0  0  0  0  0  0  0  0  0  0  0  0
   -2.0580   25.3460  -28.9700 N   0  0  0  0  0  0  0  0  0  0  0  0
   -0.8660   25.6920  -28.4150 C   0  0  0  0  0  0  0  0  0  0  0  0
   -0.6770   25.2640  -27.1050 C   0  0  0  0  0  0  0  0  0  0  0  0
   -2.0540   24.4240  -26.6230 S   0  0  0  0  0  0  0  0  0  0  0  0
   -3.7830   21.9060  -30.4550 C   0  0  0  0  0  0  0  0  0  0  0  0
   -3.5600   20.7980  -31.2780 C   0  0  0  0  0  0  0  0  0  0  0  0
   -5.7264   16.3802  -31.0876 H   0  0  0  0  0  0  0  0  0  0  0  0
   -6.2766   15.6014  -32.6099 H   0  0  0  0  0  0  0  0  0  0  0  0
   -4.8076   16.6352  -32.6099 H   0  0  0  0  0  0  0  0  0  0  0  0
   -8.3131   16.9860  -31.2762 H   0  0  0  0  0  0  0  0  0  0  0  0
   -9.7861   18.9257  -31.7908 H   0  0  0  0  0  0  0  0  0  0  0  0
   -8.9740   20.7560  -33.2754 H   0  0  0  0  0  0  0  0  0  0  0  0
   -6.6805   20.6583  -34.2388 H   0  0  0  0  0  0  0  0  0  0  0  0
   -5.1170   21.9056  -34.1153 H   0  0  0  0  0  0  0  0  0  0  0  0
   -5.4991   23.8858  -32.6519 H   0  0  0  0  0  0  0  0  0  0  0  0
   -0.1059   26.2688  -28.9624 H   0  0  0  0  0  0  0  0  0  0  0  0
    0.2175   25.4434  -26.4904 H   0  0  0  0  0  0  0  0  0  0  0  0
   -3.4114   21.9032  -29.4197 H   0  0  0  0  0  0  0  0  0  0  0  0
   -3.0265   19.9206  -30.8837 H   0  0  0  0  0  0  0  0  0  0  0  0
  1  2  1  0
  2  3  2  0
  3  4  1  0
  4  5  2  0
  5  6  1  0
  6  7  2  0
  7  8  1  0
  8  9  2  0
  8 10  1  0
 10 11  1  0
 11 12  2  0
 12 13  1  0
 13 14  2  0
 14 15  1  0
 15 16  2  0
 15 17  2  0
 15 18  1  0
 18 19  2  3
 19 20  1  0
 20 21  1  0
 21 22  2  0
 22 23  1  0
 14 24  1  0
 24 25  2  0
  7  2  1  0
 25 11  1  0
 23 19  1  0
  1 26  1  0
  1 27  1  0
  1 28  1  0
  3 29  1  0
  4 30  1  0
  5 31  1  0
  6 32  1  0
 12 33  1  0
 13 34  1  0
 21 35  1  0
 22 36  1  0
 24 37  1  0
 25 38  1  0
M  CHG  2  10  -1  20  -1
M  END
>  <UniqueID>  (25) 
23

>  <SMILES>  (25) 
Cc1ccccc1C(=O)[N-]c1ccc(S(=O)(=O)N=c2[n-]ccs2)cc1

>  <Energy>  (25) 
81.94521061719139

>  <Genealogy>  (25) 
Cc1ccccc1C(=O)[N-]c1ccc(S(=O)(=O)N=c2[n-]ccs2)cc1 (protonated)
Cc1ccccc1C(=O)[N-]c1ccc(S(=O)(=O)N=c2[n-]ccs2)cc1 (3D coordinates assigned)
Cc1ccccc1C(=O)[N-]c1ccc(S(=O)(=O)N=c2[n-]ccs2)cc1 (optimized conformer: 81.94521061719139 kcal/mol)

>  <smiles>  (25) 
Cc1ccccc1C(=O)Nc1ccc(S(=O)(=O)N=c2[nH]ccs2)cc1

>  <score_type>  (25) 
oracle

>  <origin>  (25) 
adgpu

>  <m_score__min__energy>  (25) 
-10.630000000000001

>  <m_primary>  (25) 
energy

$$$$
25:0
     RDKit          3D

 62 65  0  0  0  0  0  0  0  0999 V2000
   -6.7410   24.2120  -30.1230 C   0  0  0  0  0  0  0  0  0  0  0  0
   -6.1060   23.1830  -31.0220 C   0  0  0  0  0  0  0  0  0  0  0  0
   -6.9330   22.2080  -31.6060 C   0  0  0  0  0  0  0  0  0  0  0  0
   -6.4060   21.2530  -32.4880 C   0  0  0  0  0  0  0  0  0  0  0  0
   -7.2960   20.1890  -33.0740 C   0  0  0  0  0  0  0  0  0  0  0  0
   -6.7150   18.8570  -32.8440 N   0  0  0  0  0  0  0  0  0  0  0  0
   -6.7070   18.3480  -31.5740 C   0  0  0  0  0  0  0  0  0  0  0  0
   -6.1220   17.1110  -31.3120 C   0  0  0  0  0  0  0  0  0  0  0  0
   -5.5380   16.4110  -32.3660 C   0  0  0  0  0  0  0  0  0  0  0  0
   -4.9920   15.2960  -32.1630 O   0  0  0  0  0  0  0  0  0  0  0  0
   -5.5570   16.9380  -33.6160 N   0  0  0  0  0  0  0  0  0  0  0  0
   -6.1330   18.1440  -33.8650 C   0  0  0  0  0  0  0  0  0  0  0  0
   -6.1220   18.5940  -35.0430 O   0  0  0  0  0  0  0  0  0  0  0  0
   -5.0370   21.2670  -32.7790 C   0  0  0  0  0  0  0  0  0  0  0  0
   -4.2000   22.2120  -32.1870 C   0  0  0  0  0  0  0  0  0  0  0  0
   -4.7120   23.1560  -31.2820 C   0  0  0  0  0  0  0  0  0  0  0  0
   -3.7530   24.0570  -30.5990 C   0  0  0  0  0  0  0  0  0  0  0  0
   -3.8410   25.2960  -30.7920 O   0  0  0  0  0  0  0  0  0  0  0  0
   -2.7290   23.5660  -29.7200 N   0  0  0  0  0  0  0  0  0  0  0  0
   -1.9560   22.3680  -29.8930 C   0  0  0  0  0  0  0  0  0  0  0  0
   -1.9250   21.4310  -28.8600 C   0  0  0  0  0  0  0  0  0  0  0  0
   -1.2290   20.2220  -29.0140 C   0  0  0  0  0  0  0  0  0  0  0  0
   -1.1980   19.2300  -27.8840 C   0  0  0  0  0  0  0  0  0  0  0  0
   -0.5410   19.9510  -30.2140 C   0  0  0  0  0  0  0  0  0  0  0  0
    0.1600   18.7450  -30.3070 O   0  0  0  0  0  0  0  0  0  0  0  0
   -0.5680   20.9040  -31.2660 C   0  0  0  0  0  0  0  0  0  0  0  0
    0.1470   20.6310  -32.8670 S   0  0  0  0  0  0  0  0  0  0  0  0
    1.3980   19.8230  -32.6670 O   0  0  0  0  0  0  0  0  0  0  0  0
    0.5460   21.9250  -33.5190 O   0  0  0  0  0  0  0  0  0  0  0  0
   -0.9330   19.7250  -33.9020 N   0  0  0  0  0  0  0  0  0  0  0  0
   -0.3490   18.4280  -34.3200 C   0  0  0  0  0  0  0  0  0  0  0  0
   -0.8210   17.2590  -33.4460 C   0  0  0  0  0  0  0  0  0  0  0  0
   -2.3510   17.1010  -33.5160 C   0  0  0  0  0  0  0  0  0  0  0  0
   -3.0720   18.4320  -33.8010 C   0  0  0  0  0  0  0  0  0  0  0  0
   -2.2690   19.6220  -33.2640 C   0  0  0  0  0  0  0  0  0  0  0  0
   -1.2360   22.1190  -31.0690 C   0  0  0  0  0  0  0  0  0  0  0  0
   -6.5706   23.9358  -29.0720 H   0  0  0  0  0  0  0  0  0  0  0  0
   -6.2937   25.1974  -30.3204 H   0  0  0  0  0  0  0  0  0  0  0  0
   -7.8223   24.2540  -30.3204 H   0  0  0  0  0  0  0  0  0  0  0  0
   -8.0069   22.1937  -31.3684 H   0  0  0  0  0  0  0  0  0  0  0  0
   -8.2862   20.2407  -32.5976 H   0  0  0  0  0  0  0  0  0  0  0  0
   -7.3909   20.3570  -34.1569 H   0  0  0  0  0  0  0  0  0  0  0  0
   -7.1658   18.9196  -30.7538 H   0  0  0  0  0  0  0  0  0  0  0  0
   -6.1211   16.6952  -30.2936 H   0  0  0  0  0  0  0  0  0  0  0  0
   -4.6191   20.5283  -33.4787 H   0  0  0  0  0  0  0  0  0  0  0  0
   -3.1275   22.2182  -32.4313 H   0  0  0  0  0  0  0  0  0  0  0  0
   -2.4505   21.6415  -27.9168 H   0  0  0  0  0  0  0  0  0  0  0  0
   -1.2148   19.7670  -26.9241 H   0  0  0  0  0  0  0  0  0  0  0  0
   -2.0760   18.5707  -27.9507 H   0  0  0  0  0  0  0  0  0  0  0  0
   -0.2806   18.6268  -27.9507 H   0  0  0  0  0  0  0  0  0  0  0  0
    0.8380   18.5330  -31.0240 H   0  0  0  0  0  0  0  0  0  0  0  0
   -0.6414   18.2294  -35.3617 H   0  0  0  0  0  0  0  0  0  0  0  0
    0.7431   18.5044  -34.2124 H   0  0  0  0  0  0  0  0  0  0  0  0
   -0.3469   16.3314  -33.7992 H   0  0  0  0  0  0  0  0  0  0  0  0
   -0.5370   17.4638  -32.4032 H   0  0  0  0  0  0  0  0  0  0  0  0
   -2.5952   16.3893  -34.3184 H   0  0  0  0  0  0  0  0  0  0  0  0
   -2.6937   16.7401  -32.5350 H   0  0  0  0  0  0  0  0  0  0  0  0
   -3.1993   18.5458  -34.8877 H   0  0  0  0  0  0  0  0  0  0  0  0
   -4.0492   18.4144  -33.2963 H   0  0  0  0  0  0  0  0  0  0  0  0
   -2.8296   20.5473  -33.4627 H   0  0  0  0  0  0  0  0  0  0  0  0
   -2.1192   19.4713  -32.1847 H   0  0  0  0  0  0  0  0  0  0  0  0
   -1.1947   22.8914  -31.8511 H   0  0  0  0  0  0  0  0  0  0  0  0
  1  2  1  0
  2  3  2  0
  3  4  1  0
  4  5  1  0
  5  6  1  0
  6  7  1  0
  7  8  2  0
  8  9  1  0
  9 10  2  0
  9 11  1  0
 11 12  1  0
 12 13  2  0
  4 14  2  0
 14 15  1  0
 15 16  2  0
 16 17  1  0
 17 18  2  0
 17 19  1  0
 19 20  1  0
 20 21  2  0
 21 22  1  0
 22 23  1  0
 22 24  2  0
 24 25  1  0
 24 26  1  0
 26 27  1  0
 27 28  2  0
 27 29  2  0
 27 30  1  0
 30 31  1  0
 31 32  1  0
 32 33  1  0
 33 34  1  0
 34 35  1  0
 26 36  2  0
 16  2  1  0
 36 20  1  0
 12  6  1  0
 35 30  1  0
  1 37  1  0
  1 38  1  0
  1 39  1  0
  3 40  1  0
  5 41  1  0
  5 42  1  0
  7 43  1  0
  8 44  1  0
 14 45  1  0
 15 46  1  0
 21 47  1  0
 23 48  1  0
 23 49  1  0
 23 50  1  0
 25 51  1  0
 31 52  1  0
 31 53  1  0
 32 54  1  0
 32 55  1  0
 33 56  1  0
 33 57  1  0
 34 58  1  0
 34 59  1  0
 35 60  1  0
 35 61  1  0
 36 62  1  0
M  CHG  2  11  -1  19  -1
M  END
>  <UniqueID>  (26) 
24

>  <SMILES>  (26) 
Cc1cc(Cn2ccc(=O)[n-]c2=O)ccc1C(=O)[N-]c1cc(C)c(O)c(S(=O)(=O)N2CCCCC2)c1

>  <Energy>  (26) 
81.96417022663489

>  <Genealogy>  (26) 
Cc1cc(Cn2ccc(=O)[n-]c2=O)ccc1C(=O)[N-]c1cc(C)c(O)c(S(=O)(=O)N2CCCCC2)c1 (protonated)
Cc1cc(Cn2ccc(=O)[n-]c2=O)ccc1C(=O)[N-]c1cc(C)c(O)c(S(=O)(=O)N2CCCCC2)c1 (3D coordinates assigned)
Cc1cc(Cn2ccc(=O)[n-]c2=O)ccc1C(=O)[N-]c1cc(C)c(O)c(S(=O)(=O)N2CCCCC2)c1 (nonaromatic ring conformer: 81.96417022663489 kcal/mol)

>  <smiles>  (26) 
Cc1cc(Cn2ccc(=O)[nH]c2=O)ccc1C(=O)Nc1cc(C)c(O)c(S(=O)(=O)N2CCCCC2)c1

>  <score_type>  (26) 
oracle

>  <origin>  (26) 
adgpu

>  <m_score__min__energy>  (26) 
-12.539999999999999

>  <m_primary>  (26) 
energy

$$$$
26:0
     RDKit          3D

 79 83  0  0  0  0  0  0  0  0999 V2000
   -3.8340   21.9130  -33.4550 C   0  0  0  0  0  0  0  0  0  0  0  0
   -3.8150   22.3180  -32.0050 C   0  0  0  0  0  0  0  0  0  0  0  0
   -2.7270   21.9540  -31.1950 C   0  0  0  0  0  0  0  0  0  0  0  0
   -2.6950   22.3200  -29.8470 C   0  0  0  0  0  0  0  0  0  0  0  0
   -3.7410   23.0650  -29.2860 C   0  0  0  0  0  0  0  0  0  0  0  0
   -3.7010   23.4320  -27.8240 C   0  0  0  0  0  0  0  0  0  0  0  0
   -2.7490   24.5400  -27.6030 N   0  0  0  0  0  0  0  0  0  0  0  0
   -1.3520   24.0590  -27.6670 C   0  0  0  0  0  0  0  0  0  0  0  0
   -0.3590   25.2310  -27.5120 C   0  0  0  0  0  0  0  0  0  0  0  0
   -1.0500   26.4800  -27.1370 N   0  0  0  0  0  0  0  0  0  0  0  0
   -0.0740   27.5360  -26.8400 C   0  0  0  0  0  0  0  0  0  0  0  0
   -1.9250   26.2460  -25.9730 C   0  0  0  0  0  0  0  0  0  0  0  0
   -3.0030   25.1920  -26.3020 C   0  0  0  0  0  0  0  0  0  0  0  0
   -4.8250   23.4400  -30.0910 C   0  0  0  0  0  0  0  0  0  0  0  0
   -4.8580   23.0950  -31.4500 C   0  0  0  0  0  0  0  0  0  0  0  0
   -5.9880   23.4810  -32.2380 N   0  0  0  0  0  0  0  0  0  0  0  0
   -7.3050   22.9280  -32.1090 C   0  0  0  0  0  0  0  0  0  0  0  0
   -8.2760   23.7200  -31.9600 O   0  0  0  0  0  0  0  0  0  0  0  0
   -7.5750   21.4740  -32.2760 C   0  0  0  0  0  0  0  0  0  0  0  0
   -6.8510   20.7230  -33.2200 C   0  0  0  0  0  0  0  0  0  0  0  0
   -7.0530   19.3460  -33.3610 C   0  0  0  0  0  0  0  0  0  0  0  0
   -6.3290   18.6270  -34.3740 N   0  0  0  0  0  0  0  0  0  0  0  0
   -5.0080   18.0970  -34.1830 C   0  0  0  0  0  0  0  0  0  0  0  0
   -4.7780   16.7270  -34.3770 C   0  0  0  0  0  0  0  0  0  0  0  0
   -3.5000   16.1930  -34.1970 C   0  0  0  0  0  0  0  0  0  0  0  0
   -2.4350   17.0280  -33.8470 C   0  0  0  0  0  0  0  0  0  0  0  0
   -2.6370   18.4100  -33.6820 C   0  0  0  0  0  0  0  0  0  0  0  0
   -1.4990   19.3020  -33.3520 C   0  0  0  0  0  0  0  0  0  0  0  0
   -0.7480   19.0980  -32.1820 C   0  0  0  0  0  0  0  0  0  0  0  0
    0.3110   19.9590  -31.8830 C   0  0  0  0  0  0  0  0  0  0  0  0
    0.6150   20.9830  -32.7240 N   0  0  0  0  0  0  0  0  0  0  0  0
   -0.0870   21.2030  -33.8720 C   0  0  0  0  0  0  0  0  0  0  0  0
    0.2630   22.2800  -34.7470 N   0  0  0  0  0  0  0  0  0  0  0  0
    1.4760   22.1370  -35.9780 S   0  0  0  0  0  0  0  0  0  0  0  0
    3.0780   21.9760  -35.2180 C   0  0  0  0  0  0  0  0  0  0  0  0
    1.1880   20.9440  -36.8450 O   0  0  0  0  0  0  0  0  0  0  0  0
    1.4600   23.3780  -36.8240 O   0  0  0  0  0  0  0  0  0  0  0  0
   -1.1560   20.3650  -34.2030 C   0  0  0  0  0  0  0  0  0  0  0  0
   -3.9300   18.9380  -33.8540 C   0  0  0  0  0  0  0  0  0  0  0  0
   -8.0010   18.7040  -32.5510 C   0  0  0  0  0  0  0  0  0  0  0  0
   -8.7300   19.4290  -31.6100 C   0  0  0  0  0  0  0  0  0  0  0  0
   -8.5420   20.8140  -31.4670 C   0  0  0  0  0  0  0  0  0  0  0  0
   -9.3690   21.5550  -30.4460 C   0  0  0  0  0  0  0  0  0  0  0  0
   -3.8854   20.8167  -33.5288 H   0  0  0  0  0  0  0  0  0  0  0  0
   -4.7124   22.3553  -33.9478 H   0  0  0  0  0  0  0  0  0  0  0  0
   -2.9181   22.2711  -33.9478 H   0  0  0  0  0  0  0  0  0  0  0  0
   -1.8947   21.3771  -31.6246 H   0  0  0  0  0  0  0  0  0  0  0  0
   -1.8416   22.0208  -29.2208 H   0  0  0  0  0  0  0  0  0  0  0  0
   -4.7046   23.7449  -27.5001 H   0  0  0  0  0  0  0  0  0  0  0  0
   -3.3752   22.5569  -27.2426 H   0  0  0  0  0  0  0  0  0  0  0  0
   -1.1831   23.3341  -26.8570 H   0  0  0  0  0  0  0  0  0  0  0  0
   -1.1874   23.5857  -28.6462 H   0  0  0  0  0  0  0  0  0  0  0  0
    0.3724   24.9786  -26.7301 H   0  0  0  0  0  0  0  0  0  0  0  0
    0.1404   25.3901  -28.4791 H   0  0  0  0  0  0  0  0  0  0  0  0
    0.0273   27.6456  -25.7502 H   0  0  0  0  0  0  0  0  0  0  0  0
    0.9005   27.2671  -27.2737 H   0  0  0  0  0  0  0  0  0  0  0  0
   -0.4187   28.4863  -27.2737 H   0  0  0  0  0  0  0  0  0  0  0  0
   -1.3159   25.8880  -25.1299 H   0  0  0  0  0  0  0  0  0  0  0  0
   -2.4236   27.1908  -25.7107 H   0  0  0  0  0  0  0  0  0  0  0  0
   -3.0048   24.4254  -25.5131 H   0  0  0  0  0  0  0  0  0  0  0  0
   -3.9761   25.7019  -26.3576 H   0  0  0  0  0  0  0  0  0  0  0  0
   -5.6576   24.0101  -29.6531 H   0  0  0  0  0  0  0  0  0  0  0  0
   -6.1121   21.2282  -33.8593 H   0  0  0  0  0  0  0  0  0  0  0  0
   -6.8060   18.4480  -35.2870 H   0  0  0  0  0  0  0  0  0  0  0  0
   -5.6088   16.0694  -34.6726 H   0  0  0  0  0  0  0  0  0  0  0  0
   -3.3314   15.1143  -34.3308 H   0  0  0  0  0  0  0  0  0  0  0  0
   -1.4319   16.6012  -33.6996 H   0  0  0  0  0  0  0  0  0  0  0  0
   -0.9923   18.2656  -31.5057 H   0  0  0  0  0  0  0  0  0  0  0  0
    0.8995   19.8081  -30.9660 H   0  0  0  0  0  0  0  0  0  0  0  0
    2.9674   21.9871  -34.1236 H   0  0  0  0  0  0  0  0  0  0  0  0
    3.5384   21.0271  -35.5304 H   0  0  0  0  0  0  0  0  0  0  0  0
    3.7180   22.8144  -35.5304 H   0  0  0  0  0  0  0  0  0  0  0  0
   -1.7267   20.5379  -35.1273 H   0  0  0  0  0  0  0  0  0  0  0  0
   -4.0990   20.0179  -33.7300 H   0  0  0  0  0  0  0  0  0  0  0  0
   -8.1701   17.6224  -32.6589 H   0  0  0  0  0  0  0  0  0  0  0  0
   -9.4610   18.9109  -30.9719 H   0  0  0  0  0  0  0  0  0  0  0  0
   -9.0472   21.2667  -29.4344 H   0  0  0  0  0  0  0  0  0  0  0  0
   -9.2321   22.6382  -30.5795 H   0  0  0  0  0  0  0  0  0  0  0  0
  -10.4308   21.3004  -30.5795 H   0  0  0  0  0  0  0  0  0  0  0  0
  1  2  1  0
  2  3  2  0
  3  4  1  0
  4  5  2  0
  5  6  1  0
  6  7  1  0
  7  8  1  0
  8  9  1  0
  9 10  1  0
 10 11  1  0
 10 12  1  0
 12 13  1  0
  5 14  1  0
 14 15  2  0
 15 16  1  0
 16 17  1  0
 17 18  2  0
 17 19  1  0
 19 20  2  0
 20 21  1  0
 21 22  1  0
 22 23  1  0
 23 24  2  0
 24 25  1  0
 25 26  2  0
 26 27  1  0
 27 28  1  0
 28 29  2  0
 29 30  1  0
 30 31  2  0
 31 32  1  0
 32 33  1  0
 33 34  1  0
 34 35  1  0
 34 36  2  0
 34 37  2  0
 32 38  2  0
 27 39  2  0
 21 40  2  0
 40 41  1  0
 41 42  2  0
 42 43  1  0
 15  2  1  0
 42 19  1  0
 13  7  1  0
 39 23  1  0
 38 28  1  0
  1 44  1  0
  1 45  1  0
  1 46  1  0
  3 47  1  0
  4 48  1  0
  6 49  1  0
  6 50  1  0
  8 51  1  0
  8 52  1  0
  9 53  1  0
  9 54  1  0
 11 55  1  0
 11 56  1  0
 11 57  1  0
 12 58  1  0
 12 59  1  0
 13 60  1  0
 13 61  1  0
 14 62  1  0
 20 63  1  0
 22 64  1  0
 24 65  1  0
 25 66  1  0
 26 67  1  0
 29 68  1  0
 30 69  1  0
 35 70  1  0
 35 71  1  0
 35 72  1  0
 38 73  1  0
 39 74  1  0
 40 75  1  0
 41 76  1  0
 43 77  1  0
 43 78  1  0
 43 79  1  0
M  CHG  2  16  -1  33  -1
M  END
>  <UniqueID>  (27) 
25

>  <SMILES>  (27) 
Cc1ccc(CN2CCN(C)CC2)cc1[N-]C(=O)c1cc(Nc2cccc(-c3ccnc([N-]S(C)(=O)=O)c3)c2)ccc1C

>  <Energy>  (27) 
117.25505740431291

>  <Genealogy>  (27) 
Cc1ccc(CN2CCN(C)CC2)cc1[N-]C(=O)c1cc(Nc2cccc(-c3ccnc([N-]S(C)(=O)=O)c3)c2)ccc1C (protonated)
Cc1ccc(CN2CCN(C)CC2)cc1[N-]C(=O)c1cc(Nc2cccc(-c3ccnc([N-]S(C)(=O)=O)c3)c2)ccc1C (3D coordinates assigned)
Cc1ccc(CN2CCN(C)CC2)cc1[N-]C(=O)c1cc(Nc2cccc(-c3ccnc([N-]S(C)(=O)=O)c3)c2)ccc1C (nonaromatic ring conformer: 117.25505740431291 kcal/mol)

>  <smiles>  (27) 
Cc1ccc(CN2CCN(C)CC2)cc1NC(=O)c1cc(Nc2cccc(-c3ccnc(NS(C)(=O)=O)c3)c2)ccc1C

>  <score_type>  (27) 
oracle

>  <origin>  (27) 
adgpu

>  <m_score__min__energy>  (27) 
-14.65

>  <m_primary>  (27) 
energy

$$$$
27:0
     RDKit          3D

 56 58  0  0  0  0  0  0  0  0999 V2000
   -6.8880   17.6130  -33.0750 C   0  0  0  0  0  0  0  0  0  0  0  0
   -7.6600   18.4260  -32.1990 O   0  0  0  0  0  0  0  0  0  0  0  0
   -7.4900   19.8110  -32.0470 C   0  0  0  0  0  0  0  0  0  0  0  0
   -8.6180   20.6270  -32.1410 C   0  0  0  0  0  0  0  0  0  0  0  0
   -8.5110   22.0080  -31.9790 C   0  0  0  0  0  0  0  0  0  0  0  0
   -7.2600   22.6030  -31.7300 C   0  0  0  0  0  0  0  0  0  0  0  0
   -7.1230   23.9890  -31.5550 O   0  0  0  0  0  0  0  0  0  0  0  0
   -6.8600   24.6250  -30.3080 C   0  0  0  0  0  0  0  0  0  0  0  0
   -6.1090   21.7930  -31.6590 C   0  0  0  0  0  0  0  0  0  0  0  0
   -4.8360   22.3960  -31.3630 N   0  0  0  0  0  0  0  0  0  0  0  0
   -3.5710   21.8640  -31.7860 C   0  0  0  0  0  0  0  0  0  0  0  0
   -3.5020   21.0850  -32.7750 O   0  0  0  0  0  0  0  0  0  0  0  0
   -2.3130   22.2650  -31.0750 C   0  0  0  0  0  0  0  0  0  0  0  0
   -2.6040   22.5620  -29.6730 N   0  0  0  0  0  0  0  0  0  0  0  0
   -2.2040   21.6470  -28.6440 C   0  0  0  0  0  0  0  0  0  0  0  0
   -3.0940   20.6480  -28.2220 C   0  0  0  0  0  0  0  0  0  0  0  0
   -2.7210   19.7470  -27.2230 C   0  0  0  0  0  0  0  0  0  0  0  0
   -1.4580   19.8380  -26.6370 C   0  0  0  0  0  0  0  0  0  0  0  0
   -0.5640   20.8310  -27.0470 C   0  0  0  0  0  0  0  0  0  0  0  0
   -0.9300   21.7460  -28.0540 C   0  0  0  0  0  0  0  0  0  0  0  0
   -0.0640   22.7640  -28.4830 O   0  0  0  0  0  0  0  0  0  0  0  0
    0.9880   23.3100  -27.6950 C   0  0  0  0  0  0  0  0  0  0  0  0
   -3.3510   24.0740  -29.2470 S   0  0  0  0  0  0  0  0  0  0  0  0
   -4.7250   23.8130  -28.6970 O   0  0  0  0  0  0  0  0  0  0  0  0
   -3.4890   24.9410  -30.4680 O   0  0  0  0  0  0  0  0  0  0  0  0
   -2.3750   24.9160  -28.0460 C   0  0  0  0  0  0  0  0  0  0  0  0
   -2.7020   24.8270  -26.6850 C   0  0  0  0  0  0  0  0  0  0  0  0
   -1.9080   25.4640  -25.7260 C   0  0  0  0  0  0  0  0  0  0  0  0
   -0.7890   26.2010  -26.1240 C   0  0  0  0  0  0  0  0  0  0  0  0
   -0.4660   26.3040  -27.4790 C   0  0  0  0  0  0  0  0  0  0  0  0
   -1.2540   25.6630  -28.4390 C   0  0  0  0  0  0  0  0  0  0  0  0
   -6.2360   20.3970  -31.7990 C   0  0  0  0  0  0  0  0  0  0  0  0
   -6.2494   16.9405  -32.4835 H   0  0  0  0  0  0  0  0  0  0  0  0
   -7.5602   17.0165  -33.7094 H   0  0  0  0  0  0  0  0  0  0  0  0
   -6.2576   18.2534  -33.7094 H   0  0  0  0  0  0  0  0  0  0  0  0
   -9.6007   20.1768  -32.3448 H   0  0  0  0  0  0  0  0  0  0  0  0
   -9.4110   22.6369  -32.0463 H   0  0  0  0  0  0  0  0  0  0  0  0
   -7.1393   23.9497  -29.4859 H   0  0  0  0  0  0  0  0  0  0  0  0
   -5.7888   24.8650  -30.2375 H   0  0  0  0  0  0  0  0  0  0  0  0
   -7.4488   25.5515  -30.2375 H   0  0  0  0  0  0  0  0  0  0  0  0
   -4.8240   23.2810  -30.8070 H   0  0  0  0  0  0  0  0  0  0  0  0
   -1.5855   21.4418  -31.1296 H   0  0  0  0  0  0  0  0  0  0  0  0
   -1.8971   23.1628  -31.5556 H   0  0  0  0  0  0  0  0  0  0  0  0
   -4.0911   20.5742  -28.6807 H   0  0  0  0  0  0  0  0  0  0  0  0
   -3.4230   18.9651  -26.8977 H   0  0  0  0  0  0  0  0  0  0  0  0
   -1.1653   19.1267  -25.8506 H   0  0  0  0  0  0  0  0  0  0  0  0
    0.4302   20.8985  -26.5812 H   0  0  0  0  0  0  0  0  0  0  0  0
    0.7494   23.1862  -26.6284 H   0  0  0  0  0  0  0  0  0  0  0  0
    1.9276   22.7857  -27.9238 H   0  0  0  0  0  0  0  0  0  0  0  0
    1.1001   24.3801  -27.9238 H   0  0  0  0  0  0  0  0  0  0  0  0
   -3.5866   24.2538  -26.3706 H   0  0  0  0  0  0  0  0  0  0  0  0
   -2.1640   25.3851  -24.6591 H   0  0  0  0  0  0  0  0  0  0  0  0
   -0.1626   26.7000  -25.3699 H   0  0  0  0  0  0  0  0  0  0  0  0
    0.4104   26.8909  -27.7912 H   0  0  0  0  0  0  0  0  0  0  0  0
   -0.9949   25.7443  -29.5049 H   0  0  0  0  0  0  0  0  0  0  0  0
   -5.3445   19.7584  -31.7134 H   0  0  0  0  0  0  0  0  0  0  0  0
  1  2  1  0
  2  3  1  0
  3  4  2  0
  4  5  1  0
  5  6  2  0
  6  7  1  0
  7  8  1  0
  6  9  1  0
  9 10  1  0
 10 11  1  0
 11 12  2  0
 11 13  1  0
 13 14  1  0
 14 15  1  0
 15 16  2  0
 16 17  1  0
 17 18  2  0
 18 19  1  0
 19 20  2  0
 20 21  1  0
 21 22  1  0
 14 23  1  0
 23 24  2  0
 23 25  2  0
 23 26  1  0
 26 27  2  0
 27 28  1  0
 28 29  2  0
 29 30  1  0
 30 31  2  0
  9 32  2  0
 32  3  1  0
 20 15  1  0
 31 26  1  0
  1 33  1  0
  1 34  1  0
  1 35  1  0
  4 36  1  0
  5 37  1  0
  8 38  1  0
  8 39  1  0
  8 40  1  0
 10 41  1  0
 13 42  1  0
 13 43  1  0
 16 44  1  0
 17 45  1  0
 18 46  1  0
 19 47  1  0
 22 48  1  0
 22 49  1  0
 22 50  1  0
 27 51  1  0
 28 52  1  0
 29 53  1  0
 30 54  1  0
 31 55  1  0
 32 56  1  0
M  END
>  <UniqueID>  (28) 
26

>  <SMILES>  (28) 
COc1ccc(OC)c(NC(=O)CN(c2ccccc2OC)S(=O)(=O)c2ccccc2)c1

>  <Energy>  (28) 
58.40146752927104

>  <Genealogy>  (28) 
COc1ccc(OC)c(NC(=O)CN(c2ccccc2OC)S(=O)(=O)c2ccccc2)c1 (3D coordinates assigned)
COc1ccc(OC)c(NC(=O)CN(c2ccccc2OC)S(=O)(=O)c2ccccc2)c1 (optimized conformer: 58.40146752927104 kcal/mol)

>  <smiles>  (28) 
COc1ccc(OC)c(NC(=O)CN(c2ccccc2OC)S(=O)(=O)c2ccccc2)c1

>  <score_type>  (28) 
oracle

>  <origin>  (28) 
adgpu

>  <m_score__min__energy>  (28) 
-9.0299999999999994

>  <m_primary>  (28) 
energy

$$$$
28:0
     RDKit          3D

 49 52  0  0  0  0  0  0  0  0999 V2000
   -0.5060   24.3560  -24.6520 C   0  0  0  0  0  0  0  0  0  0  0  0
   -0.5060   24.1180  -26.1010 N   0  0  0  0  0  0  0  0  0  0  0  0
   -0.5040   22.6670  -26.3760 C   0  0  0  0  0  0  0  0  0  0  0  0
   -0.5660   22.4060  -27.8820 C   0  0  0  0  0  0  0  0  0  0  0  0
   -1.7110   23.0980  -28.4820 N   0  0  0  0  0  0  0  0  0  0  0  0
   -2.0430   22.8410  -29.8610 C   0  0  0  0  0  0  0  0  0  0  0  0
   -1.1200   22.5730  -30.6770 O   0  0  0  0  0  0  0  0  0  0  0  0
   -3.4460   22.8670  -30.3410 C   0  0  0  0  0  0  0  0  0  0  0  0
   -4.1460   21.6630  -30.5240 C   0  0  0  0  0  0  0  0  0  0  0  0
   -5.4640   21.6730  -30.9820 C   0  0  0  0  0  0  0  0  0  0  0  0
   -6.0970   22.8800  -31.2990 C   0  0  0  0  0  0  0  0  0  0  0  0
   -7.4570   22.8650  -31.7520 N   0  0  0  0  0  0  0  0  0  0  0  0
   -8.1600   21.6660  -32.0980 C   0  0  0  0  0  0  0  0  0  0  0  0
   -7.8410   20.5300  -32.8280 C   0  0  0  0  0  0  0  0  0  0  0  0
   -6.6950   20.0420  -33.5350 N   0  0  0  0  0  0  0  0  0  0  0  0
   -6.1190   18.8820  -33.3860 C   0  0  0  0  0  0  0  0  0  0  0  0
   -5.0760   18.5370  -34.2540 C   0  0  0  0  0  0  0  0  0  0  0  0
   -4.4380   17.3020  -34.1200 C   0  0  0  0  0  0  0  0  0  0  0  0
   -4.8220   16.4390  -33.1410 N   0  0  0  0  0  0  0  0  0  0  0  0
   -5.8170   16.7500  -32.2700 C   0  0  0  0  0  0  0  0  0  0  0  0
   -6.4730   17.9800  -32.3620 C   0  0  0  0  0  0  0  0  0  0  0  0
   -9.0740   19.9910  -32.5210 C   0  0  0  0  0  0  0  0  0  0  0  0
   -9.6520   18.8990  -32.7650 O   0  0  0  0  0  0  0  0  0  0  0  0
   -9.4240   21.1520  -31.8650 C   0  0  0  0  0  0  0  0  0  0  0  0
  -10.4620   21.5580  -31.2790 O   0  0  0  0  0  0  0  0  0  0  0  0
   -5.4050   24.0870  -31.1140 C   0  0  0  0  0  0  0  0  0  0  0  0
   -4.0860   24.0850  -30.6470 C   0  0  0  0  0  0  0  0  0  0  0  0
   -3.4300   25.2970  -30.4720 O   0  0  0  0  0  0  0  0  0  0  0  0
   -2.5130   24.0120  -27.6600 C   0  0  0  0  0  0  0  0  0  0  0  0
   -1.6000   24.8740  -26.7710 C   0  0  0  0  0  0  0  0  0  0  0  0
    0.5311   24.4154  -24.2902 H   0  0  0  0  0  0  0  0  0  0  0  0
   -1.0245   25.3017  -24.4358 H   0  0  0  0  0  0  0  0  0  0  0  0
   -1.0245   23.5292  -24.1446 H   0  0  0  0  0  0  0  0  0  0  0  0
    0.4166   22.2230  -25.9694 H   0  0  0  0  0  0  0  0  0  0  0  0
   -1.3863   22.2140  -25.9003 H   0  0  0  0  0  0  0  0  0  0  0  0
    0.3609   22.7694  -28.3498 H   0  0  0  0  0  0  0  0  0  0  0  0
   -0.6797   21.3247  -28.0488 H   0  0  0  0  0  0  0  0  0  0  0  0
   -3.6515   20.7052  -30.3046 H   0  0  0  0  0  0  0  0  0  0  0  0
   -6.0097   20.7246  -31.0947 H   0  0  0  0  0  0  0  0  0  0  0  0
   -7.9920   23.7610  -31.7330 H   0  0  0  0  0  0  0  0  0  0  0  0
   -4.7595   19.2379  -35.0405 H   0  0  0  0  0  0  0  0  0  0  0  0
   -3.6241   17.0267  -34.8068 H   0  0  0  0  0  0  0  0  0  0  0  0
   -6.1071   16.0310  -31.4897 H   0  0  0  0  0  0  0  0  0  0  0  0
   -7.2604   18.2429  -31.6403 H   0  0  0  0  0  0  0  0  0  0  0  0
   -5.9033   25.0417  -31.3378 H   0  0  0  0  0  0  0  0  0  0  0  0
   -3.1029   24.6677  -28.3173 H   0  0  0  0  0  0  0  0  0  0  0  0
   -3.1819   23.4206  -27.0175 H   0  0  0  0  0  0  0  0  0  0  0  0
   -1.1451   25.6544  -27.3987 H   0  0  0  0  0  0  0  0  0  0  0  0
   -2.2348   25.2842  -25.9717 H   0  0  0  0  0  0  0  0  0  0  0  0
  1  2  1  0
  2  3  1  0
  3  4  1  0
  4  5  1  0
  5  6  1  0
  6  7  2  0
  6  8  1  0
  8  9  2  0
  9 10  1  0
 10 11  2  0
 11 12  1  0
 12 13  1  0
 13 14  2  0
 14 15  1  0
 15 16  2  3
 16 17  1  0
 17 18  2  0
 18 19  1  0
 19 20  1  0
 20 21  2  0
 14 22  1  0
 22 23  2  0
 22 24  1  0
 24 25  2  0
 11 26  1  0
 26 27  2  0
 27 28  1  0
  5 29  1  0
 29 30  1  0
 30  2  1  0
 27  8  1  0
 24 13  1  0
 21 16  1  0
  1 31  1  0
  1 32  1  0
  1 33  1  0
  3 34  1  0
  3 35  1  0
  4 36  1  0
  4 37  1  0
  9 38  1  0
 10 39  1  0
 12 40  1  0
 17 41  1  0
 18 42  1  0
 20 43  1  0
 21 44  1  0
 26 45  1  0
 29 46  1  0
 29 47  1  0
 30 48  1  0
 30 49  1  0
M  CHG  2  19  -1  28  -1
M  END
>  <UniqueID>  (29) 
27

>  <SMILES>  (29) 
CN1CCN(C(=O)c2ccc(Nc3c(N=c4cc[n-]cc4)c(=O)c3=O)cc2[O-])CC1

>  <Energy>  (29) 
67.34036202262364

>  <Genealogy>  (29) 
CN1CCN(C(=O)c2ccc(Nc3c(N=c4cc[n-]cc4)c(=O)c3=O)cc2[O-])CC1 (protonated)
CN1CCN(C(=O)c2ccc(Nc3c(N=c4cc[n-]cc4)c(=O)c3=O)cc2[O-])CC1 (3D coordinates assigned)
CN1CCN(C(=O)c2ccc(Nc3c(N=c4cc[n-]cc4)c(=O)c3=O)cc2[O-])CC1 (nonaromatic ring conformer: 67.34036202262364 kcal/mol)

>  <smiles>  (29) 
CN1CCN(C(=O)c2ccc(Nc3c(N=c4cc[nH]cc4)c(=O)c3=O)cc2O)CC1

>  <score_type>  (29) 
oracle

>  <origin>  (29) 
adgpu

>  <m_score__min__energy>  (29) 
-12.08

>  <m_primary>  (29) 
energy

$$$$
29:0
     RDKit          3D

 54 57  0  0  0  0  0  0  0  0999 V2000
   -0.2680   22.9280  -24.1310 C   0  0  0  0  0  0  0  0  0  0  0  0
   -0.5500   23.8300  -25.1960 O   0  0  0  0  0  0  0  0  0  0  0  0
    0.0630   25.0830  -25.3610 C   0  0  0  0  0  0  0  0  0  0  0  0
    1.2330   25.4380  -24.6590 C   0  0  0  0  0  0  0  0  0  0  0  0
    1.8480   26.6720  -24.8870 C   0  0  0  0  0  0  0  0  0  0  0  0
    1.3120   27.5600  -25.8200 C   0  0  0  0  0  0  0  0  0  0  0  0
    0.1500   27.2240  -26.5170 C   0  0  0  0  0  0  0  0  0  0  0  0
   -0.4940   26.0010  -26.2760 C   0  0  0  0  0  0  0  0  0  0  0  0
   -1.6830   25.6860  -27.0140 N   0  0  0  0  0  0  0  0  0  0  0  0
   -1.6660   24.9280  -28.2350 C   0  0  0  0  0  0  0  0  0  0  0  0
   -0.5690   24.6030  -28.7630 O   0  0  0  0  0  0  0  0  0  0  0  0
   -2.9140   24.5400  -28.9130 C   0  0  0  0  0  0  0  0  0  0  0  0
   -3.4840   25.2980  -29.8330 O   0  0  0  0  0  0  0  0  0  0  0  0
   -4.5720   24.6910  -30.2390 C   0  0  0  0  0  0  0  0  0  0  0  0
   -5.4790   25.1320  -31.1980 C   0  0  0  0  0  0  0  0  0  0  0  0
   -6.5840   24.3100  -31.4850 C   0  0  0  0  0  0  0  0  0  0  0  0
   -6.7590   23.0790  -30.8110 C   0  0  0  0  0  0  0  0  0  0  0  0
   -8.1400   22.0610  -31.2100 S   0  0  0  0  0  0  0  0  0  0  0  0
   -9.0430   21.9250  -30.0140 O   0  0  0  0  0  0  0  0  0  0  0  0
   -8.9130   22.7130  -32.3230 O   0  0  0  0  0  0  0  0  0  0  0  0
   -7.5770   20.4890  -31.7180 N   0  0  0  0  0  0  0  0  0  0  0  0
   -8.7250   19.6020  -31.9720 C   0  0  0  0  0  0  0  0  0  0  0  0
   -8.2460   18.1570  -32.2080 C   0  0  0  0  0  0  0  0  0  0  0  0
   -6.7900   18.0930  -32.6990 C   0  0  0  0  0  0  0  0  0  0  0  0
   -6.4710   19.2720  -33.6220 C   0  0  0  0  0  0  0  0  0  0  0  0
   -6.7410   20.6280  -32.9300 C   0  0  0  0  0  0  0  0  0  0  0  0
   -5.8180   22.6600  -29.8480 C   0  0  0  0  0  0  0  0  0  0  0  0
   -4.7340   23.4980  -29.5870 C   0  0  0  0  0  0  0  0  0  0  0  0
   -3.6600   23.3680  -28.7310 C   0  0  0  0  0  0  0  0  0  0  0  0
   -3.3590   22.1960  -27.8450 C   0  0  0  0  0  0  0  0  0  0  0  0
   -0.4269   23.4361  -23.1684 H   0  0  0  0  0  0  0  0  0  0  0  0
   -0.9369   22.0575  -24.2009 H   0  0  0  0  0  0  0  0  0  0  0  0
    0.7776   22.5935  -24.2009 H   0  0  0  0  0  0  0  0  0  0  0  0
    1.6645   24.7392  -23.9272 H   0  0  0  0  0  0  0  0  0  0  0  0
    2.7566   26.9437  -24.3297 H   0  0  0  0  0  0  0  0  0  0  0  0
    1.8052   28.5254  -26.0065 H   0  0  0  0  0  0  0  0  0  0  0  0
   -0.2632   27.9224  -27.2597 H   0  0  0  0  0  0  0  0  0  0  0  0
   -2.5970   25.9510  -26.5860 H   0  0  0  0  0  0  0  0  0  0  0  0
   -5.3365   26.0924  -31.7150 H   0  0  0  0  0  0  0  0  0  0  0  0
   -7.3182   24.6274  -32.2401 H   0  0  0  0  0  0  0  0  0  0  0  0
   -9.3985   19.6230  -31.1025 H   0  0  0  0  0  0  0  0  0  0  0  0
   -9.2551   19.9530  -32.8697 H   0  0  0  0  0  0  0  0  0  0  0  0
   -8.3244   17.6003  -31.2625 H   0  0  0  0  0  0  0  0  0  0  0  0
   -8.8825   17.7169  -32.9898 H   0  0  0  0  0  0  0  0  0  0  0  0
   -6.1156   18.1232  -31.8305 H   0  0  0  0  0  0  0  0  0  0  0  0
   -6.6504   17.1586  -33.2624 H   0  0  0  0  0  0  0  0  0  0  0  0
   -5.4103   19.2232  -33.9094 H   0  0  0  0  0  0  0  0  0  0  0  0
   -7.1220   19.2020  -34.5059 H   0  0  0  0  0  0  0  0  0  0  0  0
   -5.7779   21.0763  -32.6447 H   0  0  0  0  0  0  0  0  0  0  0  0
   -7.2879   21.2635  -33.6421 H   0  0  0  0  0  0  0  0  0  0  0  0
   -5.9351   21.7025  -29.3193 H   0  0  0  0  0  0  0  0  0  0  0  0
   -3.4378   22.5029  -26.7916 H   0  0  0  0  0  0  0  0  0  0  0  0
   -4.0791   21.3893  -28.0468 H   0  0  0  0  0  0  0  0  0  0  0  0
   -2.3393   21.8362  -28.0468 H   0  0  0  0  0  0  0  0  0  0  0  0
  1  2  1  0
  2  3  1  0
  3  4  2  0
  4  5  1  0
  5  6  2  0
  6  7  1  0
  7  8  2  0
  8  9  1  0
  9 10  1  0
 10 11  2  0
 10 12  1  0
 12 13  1  0
 13 14  1  0
 14 15  2  0
 15 16  1  0
 16 17  2  0
 17 18  1  0
 18 19  2  0
 18 20  2  0
 18 21  1  0
 21 22  1  0
 22 23  1  0
 23 24  1  0
 24 25  1  0
 25 26  1  0
 17 27  1  0
 27 28  2  0
 28 29  1  0
 29 30  1  0
  8  3  1  0
 29 12  2  0
 28 14  1  0
 26 21  1  0
  1 31  1  0
  1 32  1  0
  1 33  1  0
  4 34  1  0
  5 35  1  0
  6 36  1  0
  7 37  1  0
  9 38  1  0
 15 39  1  0
 16 40  1  0
 22 41  1  0
 22 42  1  0
 23 43  1  0
 23 44  1  0
 24 45  1  0
 24 46  1  0
 25 47  1  0
 25 48  1  0
 26 49  1  0
 26 50  1  0
 27 51  1  0
 30 52  1  0
 30 53  1  0
 30 54  1  0
M  END
>  <UniqueID>  (30) 
28

>  <SMILES>  (30) 
COc1ccccc1NC(=O)c1oc2ccc(S(=O)(=O)N3CCCCC3)cc2c1C

>  <Energy>  (30) 
100.55204764030502

>  <Genealogy>  (30) 
COc1ccccc1NC(=O)c1oc2ccc(S(=O)(=O)N3CCCCC3)cc2c1C (3D coordinates assigned)
COc1ccccc1NC(=O)c1oc2ccc(S(=O)(=O)N3CCCCC3)cc2c1C (nonaromatic ring conformer: 100.55204764030502 kcal/mol)

>  <smiles>  (30) 
COc1ccccc1NC(=O)c1oc2ccc(S(=O)(=O)N3CCCCC3)cc2c1C

>  <score_type>  (30) 
oracle

>  <origin>  (30) 
adgpu

>  <m_score__min__energy>  (30) 
-10.73

>  <m_primary>  (30) 
energy

$$$$
30:0
     RDKit          3D

 52 55  0  0  0  0  0  0  0  0999 V2000
   -5.8310   25.4520  -29.8610 C   0  0  0  0  0  0  0  0  0  0  0  0
   -6.4740   24.2830  -30.5460 C   0  0  0  0  0  0  0  0  0  0  0  0
   -6.4450   24.1830  -31.9450 C   0  0  0  0  0  0  0  0  0  0  0  0
   -7.0140   23.0780  -32.5840 C   0  0  0  0  0  0  0  0  0  0  0  0
   -7.6230   22.0580  -31.8350 C   0  0  0  0  0  0  0  0  0  0  0  0
   -8.2210   20.8540  -32.5210 C   0  0  0  0  0  0  0  0  0  0  0  0
   -7.5200   19.6240  -32.1370 N   0  0  0  0  0  0  0  0  0  0  0  0
   -8.1090   18.5490  -31.5730 C   0  0  0  0  0  0  0  0  0  0  0  0
   -7.1720   17.5650  -31.3370 C   0  0  0  0  0  0  0  0  0  0  0  0
   -5.9610   18.0560  -31.7790 C   0  0  0  0  0  0  0  0  0  0  0  0
   -6.2040   19.3270  -32.2720 C   0  0  0  0  0  0  0  0  0  0  0  0
   -5.1650   20.2230  -32.8270 C   0  0  0  0  0  0  0  0  0  0  0  0
   -5.1520   20.4760  -34.0600 O   0  0  0  0  0  0  0  0  0  0  0  0
   -4.1970   20.8540  -31.9700 N   0  0  0  0  0  0  0  0  0  0  0  0
   -3.4370   20.0630  -30.9910 C   0  0  0  0  0  0  0  0  0  0  0  0
   -3.2940   20.8410  -29.6770 C   0  0  0  0  0  0  0  0  0  0  0  0
   -2.9950   22.2610  -29.9160 N   0  0  0  0  0  0  0  0  0  0  0  0
   -3.0370   23.1930  -28.8190 C   0  0  0  0  0  0  0  0  0  0  0  0
   -4.1710   23.2660  -27.9900 C   0  0  0  0  0  0  0  0  0  0  0  0
   -4.2130   24.1770  -26.9300 C   0  0  0  0  0  0  0  0  0  0  0  0
   -3.1300   25.0260  -26.6930 C   0  0  0  0  0  0  0  0  0  0  0  0
   -2.0030   24.9690  -27.5170 C   0  0  0  0  0  0  0  0  0  0  0  0
   -1.9560   24.0590  -28.5760 C   0  0  0  0  0  0  0  0  0  0  0  0
   -2.7200   22.7260  -31.2820 C   0  0  0  0  0  0  0  0  0  0  0  0
   -3.8350   22.2580  -32.2210 C   0  0  0  0  0  0  0  0  0  0  0  0
   -7.6120   22.1400  -30.4330 C   0  0  0  0  0  0  0  0  0  0  0  0
   -7.0430   23.2450  -29.7930 C   0  0  0  0  0  0  0  0  0  0  0  0
   -5.9021   25.3228  -28.7709 H   0  0  0  0  0  0  0  0  0  0  0  0
   -4.7727   25.5125  -30.1548 H   0  0  0  0  0  0  0  0  0  0  0  0
   -6.3466   26.3782  -30.1548 H   0  0  0  0  0  0  0  0  0  0  0  0
   -5.9725   24.9775  -32.5414 H   0  0  0  0  0  0  0  0  0  0  0  0
   -6.9846   23.0067  -33.6813 H   0  0  0  0  0  0  0  0  0  0  0  0
   -9.2800   20.7676  -32.2363 H   0  0  0  0  0  0  0  0  0  0  0  0
   -8.1222   20.9870  -33.6084 H   0  0  0  0  0  0  0  0  0  0  0  0
   -9.1802   18.4691  -31.3360 H   0  0  0  0  0  0  0  0  0  0  0  0
   -7.3549   16.5794  -30.8840 H   0  0  0  0  0  0  0  0  0  0  0  0
   -4.9909   17.5385  -31.7462 H   0  0  0  0  0  0  0  0  0  0  0  0
   -3.9663   19.1182  -30.7980 H   0  0  0  0  0  0  0  0  0  0  0  0
   -2.4355   19.8567  -31.3965 H   0  0  0  0  0  0  0  0  0  0  0  0
   -4.2355   20.7648  -29.1132 H   0  0  0  0  0  0  0  0  0  0  0  0
   -2.4586   20.4052  -29.1094 H   0  0  0  0  0  0  0  0  0  0  0  0
   -5.0289   22.6033  -28.1765 H   0  0  0  0  0  0  0  0  0  0  0  0
   -5.1005   24.2249  -26.2819 H   0  0  0  0  0  0  0  0  0  0  0  0
   -3.1641   25.7402  -25.8570 H   0  0  0  0  0  0  0  0  0  0  0  0
   -1.1522   25.6411  -27.3317 H   0  0  0  0  0  0  0  0  0  0  0  0
   -1.0679   24.0197  -29.2238 H   0  0  0  0  0  0  0  0  0  0  0  0
   -2.6714   23.8249  -31.2913 H   0  0  0  0  0  0  0  0  0  0  0  0
   -1.7597   22.3108  -31.6216 H   0  0  0  0  0  0  0  0  0  0  0  0
   -4.7222   22.8893  -32.0651 H   0  0  0  0  0  0  0  0  0  0  0  0
   -3.4724   22.3413  -33.2562 H   0  0  0  0  0  0  0  0  0  0  0  0
   -8.0539   21.3296  -29.8347 H   0  0  0  0  0  0  0  0  0  0  0  0
   -7.0414   23.3008  -28.6944 H   0  0  0  0  0  0  0  0  0  0  0  0
  1  2  1  0
  2  3  2  0
  3  4  1  0
  4  5  2  0
  5  6  1  0
  6  7  1  0
  7  8  1  0
  8  9  2  0
  9 10  1  0
 10 11  2  0
 11 12  1  0
 12 13  2  0
 12 14  1  0
 14 15  1  0
 15 16  1  0
 16 17  1  0
 17 18  1  0
 18 19  2  0
 19 20  1  0
 20 21  2  0
 21 22  1  0
 22 23  2  0
 17 24  1  0
 24 25  1  0
  5 26  1  0
 26 27  2  0
 27  2  1  0
 11  7  1  0
 25 14  1  0
 23 18  1  0
  1 28  1  0
  1 29  1  0
  1 30  1  0
  3 31  1  0
  4 32  1  0
  6 33  1  0
  6 34  1  0
  8 35  1  0
  9 36  1  0
 10 37  1  0
 15 38  1  0
 15 39  1  0
 16 40  1  0
 16 41  1  0
 19 42  1  0
 20 43  1  0
 21 44  1  0
 22 45  1  0
 23 46  1  0
 24 47  1  0
 24 48  1  0
 25 49  1  0
 25 50  1  0
 26 51  1  0
 27 52  1  0
M  END
>  <UniqueID>  (31) 
29

>  <SMILES>  (31) 
Cc1ccc(Cn2cccc2C(=O)N2CCN(c3ccccc3)CC2)cc1

>  <Energy>  (31) 
88.68795520493902

>  <Genealogy>  (31) 
Cc1ccc(Cn2cccc2C(=O)N2CCN(c3ccccc3)CC2)cc1 (3D coordinates assigned)
Cc1ccc(Cn2cccc2C(=O)N2CCN(c3ccccc3)CC2)cc1 (nonaromatic ring conformer: 88.68795520493902 kcal/mol)

>  <smiles>  (31) 
Cc1ccc(Cn2cccc2C(=O)N2CCN(c3ccccc3)CC2)cc1

>  <score_type>  (31) 
oracle

>  <origin>  (31) 
adgpu

>  <m_score__min__energy>  (31) 
-8.9199999999999999

>  <m_primary>  (31) 
energy

$$$$
31:0
     RDKit          3D

 43 45  0  0  0  0  0  0  0  0999 V2000
   -7.1590   20.3410  -32.7650 C   0  0  0  0  0  0  0  0  0  0  0  0
   -6.9400   21.5230  -31.8840 C   0  0  0  0  0  0  0  0  0  0  0  0
   -7.7370   21.8900  -30.8060 C   0  0  0  0  0  0  0  0  0  0  0  0
   -7.2500   23.0050  -30.1150 C   0  0  0  0  0  0  0  0  0  0  0  0
   -6.0630   23.4930  -30.6450 C   0  0  0  0  0  0  0  0  0  0  0  0
   -5.1890   24.9020  -30.0730 S   0  0  0  0  0  0  0  0  0  0  0  0
   -6.1590   26.0370  -29.8990 O   0  0  0  0  0  0  0  0  0  0  0  0
   -4.1360   25.3040  -31.0680 O   0  0  0  0  0  0  0  0  0  0  0  0
   -4.4340   24.5510  -28.5500 N   0  0  0  0  0  0  0  0  0  0  0  0
   -3.2090   23.8040  -28.4120 C   0  0  0  0  0  0  0  0  0  0  0  0
   -3.2020   22.4930  -27.8950 C   0  0  0  0  0  0  0  0  0  0  0  0
   -2.0030   21.7810  -27.7610 C   0  0  0  0  0  0  0  0  0  0  0  0
   -2.0170   20.1390  -27.1090 S   0  0  0  0  0  0  0  0  0  0  0  0
   -1.2930   20.1230  -25.7910 O   0  0  0  0  0  0  0  0  0  0  0  0
   -3.4380   19.7180  -26.8630 O   0  0  0  0  0  0  0  0  0  0  0  0
   -1.2540   19.0040  -28.1990 N   0  0  0  0  0  0  0  0  0  0  0  0
   -0.2970   18.1520  -27.4670 C   0  0  0  0  0  0  0  0  0  0  0  0
    0.7240   17.5320  -28.4340 C   0  0  0  0  0  0  0  0  0  0  0  0
    1.5010   18.4860  -29.1490 O   0  0  0  0  0  0  0  0  0  0  0  0
    0.8830   19.7600  -29.2620 C   0  0  0  0  0  0  0  0  0  0  0  0
   -0.6510   19.6840  -29.3670 C   0  0  0  0  0  0  0  0  0  0  0  0
   -0.7980   22.3780  -28.1480 C   0  0  0  0  0  0  0  0  0  0  0  0
   -0.7910   23.6710  -28.6700 C   0  0  0  0  0  0  0  0  0  0  0  0
   -1.9880   24.3840  -28.8040 C   0  0  0  0  0  0  0  0  0  0  0  0
   -1.9510   25.6740  -29.3240 O   0  0  0  0  0  0  0  0  0  0  0  0
   -5.6130   22.5570  -31.9650 S   0  0  0  0  0  0  0  0  0  0  0  0
   -7.3246   19.4474  -32.1452 H   0  0  0  0  0  0  0  0  0  0  0  0
   -8.0402   20.5152  -33.4000 H   0  0  0  0  0  0  0  0  0  0  0  0
   -6.2739   20.1880  -33.4000 H   0  0  0  0  0  0  0  0  0  0  0  0
   -8.6576   21.3577  -30.5245 H   0  0  0  0  0  0  0  0  0  0  0  0
   -7.7544   23.4482  -29.2437 H   0  0  0  0  0  0  0  0  0  0  0  0
   -4.9440   24.8640  -27.6960 H   0  0  0  0  0  0  0  0  0  0  0  0
   -4.1496   22.0230  -27.5930 H   0  0  0  0  0  0  0  0  0  0  0  0
    0.2347   18.7627  -26.7224 H   0  0  0  0  0  0  0  0  0  0  0  0
   -0.8512   17.3426  -26.9692 H   0  0  0  0  0  0  0  0  0  0  0  0
    1.4076   16.8954  -27.8531 H   0  0  0  0  0  0  0  0  0  0  0  0
    0.1493   16.9664  -29.1822 H   0  0  0  0  0  0  0  0  0  0  0  0
    1.1434   20.3546  -28.3740 H   0  0  0  0  0  0  0  0  0  0  0  0
    1.2513   20.2202  -30.1907 H   0  0  0  0  0  0  0  0  0  0  0  0
   -1.0536   20.7057  -29.4299 H   0  0  0  0  0  0  0  0  0  0  0  0
   -0.9014   19.1014  -30.2658 H   0  0  0  0  0  0  0  0  0  0  0  0
    0.1470   21.8254  -28.0401 H   0  0  0  0  0  0  0  0  0  0  0  0
    0.1589   24.1325  -28.9777 H   0  0  0  0  0  0  0  0  0  0  0  0
  1  2  1  0
  2  3  2  0
  3  4  1  0
  4  5  2  0
  5  6  1  0
  6  7  2  0
  6  8  2  0
  6  9  1  0
  9 10  1  0
 10 11  2  0
 11 12  1  0
 12 13  1  0
 13 14  2  0
 13 15  2  0
 13 16  1  0
 16 17  1  0
 17 18  1  0
 18 19  1  0
 19 20  1  0
 20 21  1  0
 12 22  2  0
 22 23  1  0
 23 24  2  0
 24 25  1  0
  5 26  1  0
 26  2  1  0
 24 10  1  0
 21 16  1  0
  1 27  1  0
  1 28  1  0
  1 29  1  0
  3 30  1  0
  4 31  1  0
  9 32  1  0
 11 33  1  0
 17 34  1  0
 17 35  1  0
 18 36  1  0
 18 37  1  0
 20 38  1  0
 20 39  1  0
 21 40  1  0
 21 41  1  0
 22 42  1  0
 23 43  1  0
M  CHG  1  25  -1
M  END
>  <UniqueID>  (32) 
30

>  <SMILES>  (32) 
Cc1ccc(S(=O)(=O)Nc2cc(S(=O)(=O)N3CCOCC3)ccc2[O-])s1

>  <Energy>  (32) 
83.02786916858052

>  <Genealogy>  (32) 
Cc1ccc(S(=O)(=O)Nc2cc(S(=O)(=O)N3CCOCC3)ccc2[O-])s1 (protonated)
Cc1ccc(S(=O)(=O)Nc2cc(S(=O)(=O)N3CCOCC3)ccc2[O-])s1 (3D coordinates assigned)
Cc1ccc(S(=O)(=O)Nc2cc(S(=O)(=O)N3CCOCC3)ccc2[O-])s1 (nonaromatic ring conformer: 83.02786916858052 kcal/mol)

>  <smiles>  (32) 
Cc1ccc(S(=O)(=O)Nc2cc(S(=O)(=O)N3CCOCC3)ccc2O)s1

>  <score_type>  (32) 
oracle

>  <origin>  (32) 
adgpu

>  <m_score__min__energy>  (32) 
-12.460000000000001

>  <m_primary>  (32) 
energy

$$$$
32:0
     RDKit          3D

 55 58  0  0  0  0  0  0  0  0999 V2000
   -6.4940   26.0350  -29.3320 N   0  0  0  0  0  0  0  0  0  0  0  0
   -6.5120   25.0320  -29.9090 C   0  0  0  0  0  0  0  0  0  0  0  0
   -6.5360   23.7840  -30.6260 C   0  0  0  0  0  0  0  0  0  0  0  0
   -7.4100   22.7660  -30.2320 C   0  0  0  0  0  0  0  0  0  0  0  0
   -7.4350   21.5540  -30.9290 C   0  0  0  0  0  0  0  0  0  0  0  0
   -6.5860   21.3430  -32.0320 C   0  0  0  0  0  0  0  0  0  0  0  0
   -6.6270   20.0520  -32.7600 C   0  0  0  0  0  0  0  0  0  0  0  0
   -7.4490   18.9650  -32.4940 C   0  0  0  0  0  0  0  0  0  0  0  0
   -7.0990   18.0230  -33.4360 C   0  0  0  0  0  0  0  0  0  0  0  0
   -6.1270   18.5380  -34.2100 N   0  0  0  0  0  0  0  0  0  0  0  0
   -5.4560   17.8600  -35.3180 C   0  0  0  0  0  0  0  0  0  0  0  0
   -4.6830   16.6140  -34.8270 C   0  0  2  0  0  0  0  0  0  0  0  0
   -4.5960   16.5780  -33.2730 C   0  0  0  0  0  0  0  0  0  0  0  0
   -3.1700   16.7580  -32.7190 C   0  0  0  0  0  0  0  0  0  0  0  0
   -2.3990   17.8610  -33.4600 C   0  0  2  0  0  0  0  0  0  0  0  0
   -3.0330   19.1520  -33.1880 N   0  0  0  0  0  0  0  0  0  0  0  0
   -2.3640   20.4180  -33.1160 C   0  0  0  0  0  0  0  0  0  0  0  0
   -2.1230   21.0400  -34.1840 O   0  0  0  0  0  0  0  0  0  0  0  0
   -1.9420   21.0070  -31.8310 C   0  0  0  0  0  0  0  0  0  0  0  0
   -2.6820   22.0650  -31.2800 C   0  0  0  0  0  0  0  0  0  0  0  0
   -2.3010   22.6520  -30.0610 C   0  0  0  0  0  0  0  0  0  0  0  0
   -3.0880   23.8140  -29.5080 C   0  0  0  0  0  0  0  0  0  0  0  0
   -3.4470   24.6980  -30.5120 F   0  0  0  0  0  0  0  0  0  0  0  0
   -4.2330   23.3380  -28.8960 F   0  0  0  0  0  0  0  0  0  0  0  0
   -2.3300   24.5030  -28.5750 F   0  0  0  0  0  0  0  0  0  0  0  0
   -1.1350   22.2000  -29.4220 C   0  0  0  0  0  0  0  0  0  0  0  0
   -0.3900   21.1540  -29.9690 C   0  0  0  0  0  0  0  0  0  0  0  0
   -0.7850   20.5530  -31.1680 C   0  0  0  0  0  0  0  0  0  0  0  0
    0.1740   19.2180  -31.7970 Cl  0  0  0  0  0  0  0  0  0  0  0  0
   -2.3180   17.5880  -34.9880 C   0  0  0  0  0  0  0  0  0  0  0  0
   -3.2870   16.4990  -35.4790 C   0  0  0  0  0  0  0  0  0  0  0  0
   -5.8300   19.7630  -33.8090 N   0  0  0  0  0  0  0  0  0  0  0  0
   -5.7080   22.3750  -32.4190 C   0  0  0  0  0  0  0  0  0  0  0  0
   -5.6860   23.5860  -31.7200 C   0  0  0  0  0  0  0  0  0  0  0  0
   -8.0790   22.9189  -29.3723 H   0  0  0  0  0  0  0  0  0  0  0  0
   -8.1247   20.7577  -30.6124 H   0  0  0  0  0  0  0  0  0  0  0  0
   -8.2109   18.8759  -31.7056 H   0  0  0  0  0  0  0  0  0  0  0  0
   -7.5395   17.0202  -33.5379 H   0  0  0  0  0  0  0  0  0  0  0  0
   -6.2094   17.5469  -36.0558 H   0  0  0  0  0  0  0  0  0  0  0  0
   -4.7372   18.5595  -35.7697 H   0  0  0  0  0  0  0  0  0  0  0  0
   -5.2555   15.7317  -35.1492 H   0  0  0  0  0  0  0  0  0  0  0  0
   -4.9808   15.6070  -32.9278 H   0  0  0  0  0  0  0  0  0  0  0  0
   -5.1900   17.4263  -32.9021 H   0  0  0  0  0  0  0  0  0  0  0  0
   -2.6244   15.8090  -32.8279 H   0  0  0  0  0  0  0  0  0  0  0  0
   -3.2510   17.0518  -31.6621 H   0  0  0  0  0  0  0  0  0  0  0  0
   -1.3630   17.8747  -33.0905 H   0  0  0  0  0  0  0  0  0  0  0  0
   -3.5710   22.4393  -31.8087 H   0  0  0  0  0  0  0  0  0  0  0  0
   -0.8068   22.6731  -28.4847 H   0  0  0  0  0  0  0  0  0  0  0  0
    0.5146   20.7999  -29.4529 H   0  0  0  0  0  0  0  0  0  0  0  0
   -1.2921   17.2732  -35.2296 H   0  0  0  0  0  0  0  0  0  0  0  0
   -2.6038   18.5216  -35.4946 H   0  0  0  0  0  0  0  0  0  0  0  0
   -2.8635   15.5135  -35.2352 H   0  0  0  0  0  0  0  0  0  0  0  0
   -3.4126   16.6269  -36.5643 H   0  0  0  0  0  0  0  0  0  0  0  0
   -5.0354   22.2270  -33.2767 H   0  0  0  0  0  0  0  0  0  0  0  0
   -4.9980   24.3859  -32.0312 H   0  0  0  0  0  0  0  0  0  0  0  0
  1  2  3  0
  2  3  1  0
  3  4  2  0
  4  5  1  0
  5  6  2  0
  6  7  1  0
  7  8  1  0
  8  9  2  0
  9 10  1  0
 10 11  1  0
 11 12  1  0
 12 13  1  0
 13 14  1  0
 14 15  1  0
 15 16  1  0
 16 17  1  0
 17 18  2  0
 17 19  1  0
 19 20  2  0
 20 21  1  0
 21 22  1  0
 22 23  1  0
 22 24  1  0
 22 25  1  0
 21 26  2  0
 26 27  1  0
 27 28  2  0
 28 29  1  0
 15 30  1  0
 30 31  1  0
 10 32  1  0
  6 33  1  0
 33 34  2  0
 34  3  1  0
 32  7  2  0
 31 12  1  0
 28 19  1  0
  4 35  1  0
  5 36  1  0
  8 37  1  0
  9 38  1  0
 11 39  1  0
 11 40  1  0
 12 41  1  6
 13 42  1  0
 13 43  1  0
 14 44  1  0
 14 45  1  0
 15 46  1  1
 20 47  1  0
 26 48  1  0
 27 49  1  0
 30 50  1  0
 30 51  1  0
 31 52  1  0
 31 53  1  0
 33 54  1  0
 34 55  1  0
M  CHG  1  16  -1
M  END
>  <UniqueID>  (33) 
31

>  <SMILES>  (33) 
N#Cc1ccc(-c2ccn(CC3CCC([N-]C(=O)c4cc(C(F)(F)F)ccc4Cl)CC3)n2)cc1

>  <Energy>  (33) 
95.43583914302158

>  <Genealogy>  (33) 
N#Cc1ccc(-c2ccn(CC3CCC([N-]C(=O)c4cc(C(F)(F)F)ccc4Cl)CC3)n2)cc1 (protonated)
N#Cc1ccc(-c2ccn(CC3CCC([N-]C(=O)c4cc(C(F)(F)F)ccc4Cl)CC3)n2)cc1 (3D coordinates assigned)
N#Cc1ccc(-c2ccn(CC3CCC([N-]C(=O)c4cc(C(F)(F)F)ccc4Cl)CC3)n2)cc1 (nonaromatic ring conformer: 95.43583914302158 kcal/mol)

>  <smiles>  (33) 
N#Cc1ccc(-c2ccn(CC3CCC(NC(=O)c4cc(C(F)(F)F)ccc4Cl)CC3)n2)cc1

>  <score_type>  (33) 
oracle

>  <origin>  (33) 
adgpu

>  <m_score__min__energy>  (33) 
-10.76

>  <m_primary>  (33) 
energy

$$$$
33:0
     RDKit          3D

 35 37  0  0  0  0  0  0  0  0999 V2000
   -8.9838   22.8028  -30.5563 H   0  0  0  0  0  0  0  0  0  0  0  0
   -8.0100   22.6360  -31.0400 C   0  0  0  0  0  0  0  0  0  0  0  0
   -7.8770   21.6480  -32.0110 C   0  0  0  0  0  0  0  0  0  0  0  0
   -8.7473   21.0398  -32.2985 H   0  0  0  0  0  0  0  0  0  0  0  0
   -6.6420   21.4280  -32.6200 C   0  0  0  0  0  0  0  0  0  0  0  0
   -6.5451   20.6409  -33.3823 H   0  0  0  0  0  0  0  0  0  0  0  0
   -5.5180   22.2000  -32.2720 C   0  0  0  0  0  0  0  0  0  0  0  0
   -4.1920   21.8710  -32.9260 C   0  0  0  0  0  0  0  0  0  0  0  0
   -3.4441   22.6158  -32.6162 H   0  0  0  0  0  0  0  0  0  0  0  0
   -4.3269   21.8893  -34.0175 H   0  0  0  0  0  0  0  0  0  0  0  0
   -3.7440   20.5820  -32.5500 O   0  0  0  0  0  0  0  0  0  0  0  0
   -2.5400   20.6800  -31.8200 C   0  0  0  0  0  0  0  0  0  0  0  0
   -2.7618   20.6619  -30.7428 H   0  0  0  0  0  0  0  0  0  0  0  0
   -1.8870   19.8320  -32.0742 H   0  0  0  0  0  0  0  0  0  0  0  0
   -2.0328   21.6224  -32.0742 H   0  0  0  0  0  0  0  0  0  0  0  0
   -5.6570   23.2220  -31.2890 C   0  0  0  0  0  0  0  0  0  0  0  0
   -4.5290   24.0890  -30.8650 C   0  0  0  0  0  0  0  0  0  0  0  0
   -4.6740   25.3400  -30.8290 O   0  0  0  0  0  0  0  0  0  0  0  0
   -3.3070   23.4830  -30.4100 N   0  0  0  0  0  0  0  0  0  0  0  0
   -2.3990   23.9970  -29.6310 C   0  0  0  0  0  0  0  0  0  0  0  0
   -1.3150   23.2770  -29.2400 N   0  0  0  0  0  0  0  0  0  0  0  0
   -0.6310   24.1580  -28.4880 C   0  0  0  0  0  0  0  0  0  0  0  0
    0.5810   23.9570  -27.8300 C   0  0  0  0  0  0  0  0  0  0  0  0
    1.0984   22.9872  -27.8729 H   0  0  0  0  0  0  0  0  0  0  0  0
    1.1200   25.0400  -27.1080 C   0  0  0  0  0  0  0  0  0  0  0  0
    2.0734   24.9196  -26.5728 H   0  0  0  0  0  0  0  0  0  0  0  0
    0.4430   26.2810  -27.0670 C   0  0  0  0  0  0  0  0  0  0  0  0
    0.8738   27.1202  -26.5011 H   0  0  0  0  0  0  0  0  0  0  0  0
   -0.7790   26.4490  -27.7460 C   0  0  0  0  0  0  0  0  0  0  0  0
   -1.3158   27.4089  -27.7251 H   0  0  0  0  0  0  0  0  0  0  0  0
   -1.2830   25.3550  -28.4450 C   0  0  0  0  0  0  0  0  0  0  0  0
   -2.4080   25.2770  -29.1660 N   0  0  0  0  0  0  0  0  0  0  0  0
   -3.0840   26.0510  -29.3410 H   0  0  0  0  0  0  0  0  0  0  0  0
   -6.9110   23.4150  -30.6790 C   0  0  0  0  0  0  0  0  0  0  0  0
   -7.0255   24.1905  -29.9074 H   0  0  0  0  0  0  0  0  0  0  0  0
  1  2  1  0
  2  3  2  0
  3  4  1  0
  3  5  1  0
  5  6  1  0
  5  7  2  0
  7  8  1  0
  8  9  1  0
  8 10  1  0
  8 11  1  0
 11 12  1  0
 12 13  1  0
 12 14  1  0
 12 15  1  0
  7 16  1  0
 16 17  1  0
 17 18  2  0
 17 19  1  0
 19 20  2  0
 20 21  1  0
 21 22  1  0
 22 23  2  0
 23 24  1  0
 23 25  1  0
 25 26  1  0
 25 27  2  0
 27 28  1  0
 27 29  1  0
 29 30  1  0
 29 31  2  0
 31 32  1  0
 32 33  1  0
 16 34  2  0
 34 35  1  0
 34  2  1  0
 32 20  1  0
 31 22  1  0
M  CHG  1  21  -1
M  END
>  <UniqueID>  (34) 
32

>  <SMILES>  (34) 
COCc1ccccc1C(=O)/N=c1/[n-]c2ccccc2[nH]1

>  <Energy>  (34) 
85.9887137212877

>  <Genealogy>  (34) 
COCc1ccccc1C(=O)N=c1[n-]c2ccccc2[nH]1 (protonated)
COCc1ccccc1C(=O)/N=c1/[n-]c2ccccc2[nH]1 (cis-trans isomerization)
COCc1ccccc1C(=O)/N=c1/[n-]c2ccccc2[nH]1 (3D coordinates assigned)
COCc1ccccc1C(=O)/N=c1/[n-]c2ccccc2[nH]1 (optimized conformer: 85.9887137212877 kcal/mol)

>  <smiles>  (34) 
COCc1ccccc1C(=O)N=c1[nH]c2ccccc2[nH]1

>  <score_type>  (34) 
oracle

>  <origin>  (34) 
adgpu

>  <m_score__min__energy>  (34) 
-8.7799999999999994

>  <m_primary>  (34) 
energy

$$$$
34:0
     RDKit          3D

 49 52  0  0  0  0  0  0  0  0999 V2000
   -1.3860   21.4380  -26.3190 C   0  0  0  0  0  0  0  0  0  0  0  0
   -1.9710   22.4220  -27.2960 C   0  0  0  0  0  0  0  0  0  0  0  0
   -3.3080   22.2510  -27.6900 C   0  0  0  0  0  0  0  0  0  0  0  0
   -3.8970   23.1110  -28.6120 C   0  0  0  0  0  0  0  0  0  0  0  0
   -3.1670   24.1790  -29.1460 C   0  0  0  0  0  0  0  0  0  0  0  0
   -3.7430   25.0510  -30.1250 N   0  0  0  0  0  0  0  0  0  0  0  0
   -5.4530   25.2070  -30.3480 S   0  0  0  0  0  0  0  0  0  0  0  0
   -5.7320   26.3980  -31.2200 O   0  0  0  0  0  0  0  0  0  0  0  0
   -6.1330   25.4080  -29.0230 O   0  0  0  0  0  0  0  0  0  0  0  0
   -6.0420   23.7560  -31.1560 C   0  0  0  0  0  0  0  0  0  0  0  0
   -7.4070   23.4300  -31.1410 C   0  0  0  0  0  0  0  0  0  0  0  0
   -7.8550   22.2500  -31.7460 C   0  0  0  0  0  0  0  0  0  0  0  0
   -6.9400   21.3960  -32.3680 C   0  0  0  0  0  0  0  0  0  0  0  0
   -5.5730   21.7010  -32.3550 C   0  0  0  0  0  0  0  0  0  0  0  0
   -5.1250   22.8840  -31.7600 C   0  0  0  0  0  0  0  0  0  0  0  0
   -4.6710   20.8100  -32.9440 O   0  0  0  0  0  0  0  0  0  0  0  0
   -5.0690   19.4880  -33.3170 C   0  0  0  0  0  0  0  0  0  0  0  0
   -6.4980   19.4990  -33.8770 C   0  0  0  0  0  0  0  0  0  0  0  0
   -7.3690   20.2290  -33.0080 O   0  0  0  0  0  0  0  0  0  0  0  0
   -1.8410   24.3790  -28.7500 C   0  0  0  0  0  0  0  0  0  0  0  0
   -1.1240   25.4310  -29.3140 O   0  0  0  0  0  0  0  0  0  0  0  0
   -1.2220   23.5050  -27.8300 C   0  0  0  0  0  0  0  0  0  0  0  0
    0.5190   23.7120  -27.5290 S   0  0  0  0  0  0  0  0  0  0  0  0
    1.2040   24.5370  -28.5800 O   0  0  0  0  0  0  0  0  0  0  0  0
    1.1830   22.3650  -27.4960 O   0  0  0  0  0  0  0  0  0  0  0  0
    0.6920   24.4670  -25.9830 N   0  0  0  0  0  0  0  0  0  0  0  0
    0.2760   25.8180  -25.7880 C   0  0  0  0  0  0  0  0  0  0  0  0
    0.9070   26.8600  -26.4800 C   0  0  0  0  0  0  0  0  0  0  0  0
    0.4620   28.1760  -26.3220 C   0  0  0  0  0  0  0  0  0  0  0  0
   -0.6160   28.4540  -25.4760 C   0  0  0  0  0  0  0  0  0  0  0  0
   -1.1840   30.1020  -25.2880 Cl  0  0  0  0  0  0  0  0  0  0  0  0
   -1.2460   27.4140  -24.7830 C   0  0  0  0  0  0  0  0  0  0  0  0
   -0.7950   26.0980  -24.9310 C   0  0  0  0  0  0  0  0  0  0  0  0
   -1.5875   21.7770  -25.2921 H   0  0  0  0  0  0  0  0  0  0  0  0
   -1.8435   20.4499  -26.4754 H   0  0  0  0  0  0  0  0  0  0  0  0
   -0.2994   21.3679  -26.4754 H   0  0  0  0  0  0  0  0  0  0  0  0
   -3.8978   21.4260  -27.2640 H   0  0  0  0  0  0  0  0  0  0  0  0
   -4.9401   22.9508  -28.9222 H   0  0  0  0  0  0  0  0  0  0  0  0
   -8.1266   24.1035  -30.6526 H   0  0  0  0  0  0  0  0  0  0  0  0
   -8.9250   21.9953  -31.7320 H   0  0  0  0  0  0  0  0  0  0  0  0
   -4.0531   23.1308  -31.7656 H   0  0  0  0  0  0  0  0  0  0  0  0
   -4.3812   19.1054  -34.0855 H   0  0  0  0  0  0  0  0  0  0  0  0
   -5.0386   18.8413  -32.4277 H   0  0  0  0  0  0  0  0  0  0  0  0
   -6.4947   19.9739  -34.8692 H   0  0  0  0  0  0  0  0  0  0  0  0
   -6.8585   18.4627  -33.9549 H   0  0  0  0  0  0  0  0  0  0  0  0
    1.7533   26.6426  -27.1482 H   0  0  0  0  0  0  0  0  0  0  0  0
    0.9604   28.9934  -26.8637 H   0  0  0  0  0  0  0  0  0  0  0  0
   -2.0971   27.6317  -24.1210 H   0  0  0  0  0  0  0  0  0  0  0  0
   -1.2817   25.2836  -24.3743 H   0  0  0  0  0  0  0  0  0  0  0  0
  1  2  1  0
  2  3  2  0
  3  4  1  0
  4  5  2  0
  5  6  1  0
  6  7  1  0
  7  8  2  0
  7  9  2  0
  7 10  1  0
 10 11  2  0
 11 12  1  0
 12 13  2  0
 13 14  1  0
 14 15  2  0
 14 16  1  0
 16 17  1  0
 17 18  1  0
 18 19  1  0
  5 20  1  0
 20 21  1  0
 20 22  2  0
 22 23  1  0
 23 24  2  0
 23 25  2  0
 23 26  1  0
 26 27  1  0
 27 28  2  0
 28 29  1  0
 29 30  2  0
 30 31  1  0
 30 32  1  0
 32 33  2  0
 22  2  1  0
 33 27  1  0
 15 10  1  0
 19 13  1  0
  1 34  1  0
  1 35  1  0
  1 36  1  0
  3 37  1  0
  4 38  1  0
 11 39  1  0
 12 40  1  0
 15 41  1  0
 17 42  1  0
 17 43  1  0
 18 44  1  0
 18 45  1  0
 28 46  1  0
 29 47  1  0
 32 48  1  0
 33 49  1  0
M  CHG  3   6  -1  21  -1  26  -1
M  END
>  <UniqueID>  (35) 
33

>  <SMILES>  (35) 
Cc1ccc([N-]S(=O)(=O)c2ccc3c(c2)OCCO3)c([O-])c1S(=O)(=O)[N-]c1ccc(Cl)cc1

>  <Energy>  (35) 
69.03203800296802

>  <Genealogy>  (35) 
Cc1ccc([N-]S(=O)(=O)c2ccc3c(c2)OCCO3)c([O-])c1S(=O)(=O)[N-]c1ccc(Cl)cc1 (protonated)
Cc1ccc([N-]S(=O)(=O)c2ccc3c(c2)OCCO3)c([O-])c1S(=O)(=O)[N-]c1ccc(Cl)cc1 (3D coordinates assigned)
Cc1ccc([N-]S(=O)(=O)c2ccc3c(c2)OCCO3)c([O-])c1S(=O)(=O)[N-]c1ccc(Cl)cc1 (nonaromatic ring conformer: 69.03203800296802 kcal/mol)

>  <smiles>  (35) 
Cc1ccc(NS(=O)(=O)c2ccc3c(c2)OCCO3)c(O)c1S(=O)(=O)Nc1ccc(Cl)cc1

>  <score_type>  (35) 
oracle

>  <origin>  (35) 
adgpu

>  <m_score__min__energy>  (35) 
-14.359999999999999

>  <m_primary>  (35) 
energy

$$$$
35:0
     RDKit          3D

 42 44  0  0  0  0  0  0  0  0999 V2000
   -0.1420   22.7660  -23.7130 N   0  0  0  0  0  0  0  0  0  0  0  0
   -0.4770   23.8440  -24.5990 C   0  0  0  0  0  0  0  0  0  0  0  0
   -0.7330   25.1230  -24.0820 C   0  0  0  0  0  0  0  0  0  0  0  0
   -1.0950   26.1700  -24.9370 C   0  0  0  0  0  0  0  0  0  0  0  0
   -1.2040   25.9470  -26.3120 C   0  0  0  0  0  0  0  0  0  0  0  0
   -0.9430   24.6720  -26.8420 C   0  0  0  0  0  0  0  0  0  0  0  0
   -1.0760   24.3800  -28.5760 S   0  0  0  0  0  0  0  0  0  0  0  0
    0.2280   23.8780  -29.1350 O   0  0  0  0  0  0  0  0  0  0  0  0
   -1.4080   25.6820  -29.2570 O   0  0  0  0  0  0  0  0  0  0  0  0
   -2.3210   23.2250  -28.9360 N   0  0  0  0  0  0  0  0  0  0  0  0
   -3.4730   23.5270  -29.7310 C   0  0  0  0  0  0  0  0  0  0  0  0
   -4.0550   24.8040  -29.7240 C   0  0  0  0  0  0  0  0  0  0  0  0
   -5.1680   25.0740  -30.5230 C   0  0  0  0  0  0  0  0  0  0  0  0
   -5.7220   24.0690  -31.3210 C   0  0  0  0  0  0  0  0  0  0  0  0
   -5.1590   22.7780  -31.3350 C   0  0  0  0  0  0  0  0  0  0  0  0
   -5.7640   21.6930  -32.1500 C   0  0  0  0  0  0  0  0  0  0  0  0
   -6.8990   21.8680  -32.6730 O   0  0  0  0  0  0  0  0  0  0  0  0
   -5.0340   20.4800  -32.4070 N   0  0  0  0  0  0  0  0  0  0  0  0
   -5.6260   19.2690  -32.9170 C   0  0  0  0  0  0  0  0  0  0  0  0
   -6.6500   18.5950  -32.2230 C   0  0  0  0  0  0  0  0  0  0  0  0
   -7.1810   17.4020  -32.7290 C   0  0  0  0  0  0  0  0  0  0  0  0
   -6.6860   16.8640  -33.9220 C   0  0  0  0  0  0  0  0  0  0  0  0
   -7.2130   15.6770  -34.4230 O   0  0  0  0  0  0  0  0  0  0  0  0
   -5.6580   17.5180  -34.6090 C   0  0  0  0  0  0  0  0  0  0  0  0
   -5.1270   18.7110  -34.1070 C   0  0  0  0  0  0  0  0  0  0  0  0
   -4.0120   22.5280  -30.5560 C   0  0  0  0  0  0  0  0  0  0  0  0
   -0.5770   23.6230  -25.9820 C   0  0  0  0  0  0  0  0  0  0  0  0
    0.2610   22.9500  -22.7660 H   0  0  0  0  0  0  0  0  0  0  0  0
   -0.2960   21.7720  -24.0000 H   0  0  0  0  0  0  0  0  0  0  0  0
   -0.6488   25.3034  -23.0002 H   0  0  0  0  0  0  0  0  0  0  0  0
   -1.2941   27.1706  -24.5257 H   0  0  0  0  0  0  0  0  0  0  0  0
   -1.4946   26.7707  -26.9806 H   0  0  0  0  0  0  0  0  0  0  0  0
   -3.6329   25.5951  -29.0868 H   0  0  0  0  0  0  0  0  0  0  0  0
   -5.6103   26.0812  -30.5244 H   0  0  0  0  0  0  0  0  0  0  0  0
   -6.6032   24.2877  -31.9420 H   0  0  0  0  0  0  0  0  0  0  0  0
   -3.9910   20.5180  -32.3380 H   0  0  0  0  0  0  0  0  0  0  0  0
   -7.0345   19.0079  -31.2787 H   0  0  0  0  0  0  0  0  0  0  0  0
   -7.9884   16.8871  -32.1877 H   0  0  0  0  0  0  0  0  0  0  0  0
   -5.2665   17.0937  -35.5453 H   0  0  0  0  0  0  0  0  0  0  0  0
   -4.3129   19.2162  -34.6474 H   0  0  0  0  0  0  0  0  0  0  0  0
   -3.5335   21.5383  -30.5949 H   0  0  0  0  0  0  0  0  0  0  0  0
   -0.3680   22.6246  -26.3938 H   0  0  0  0  0  0  0  0  0  0  0  0
  1  2  1  0
  2  3  2  0
  3  4  1  0
  4  5  2  0
  5  6  1  0
  6  7  1  0
  7  8  2  0
  7  9  2  0
  7 10  1  0
 10 11  1  0
 11 12  2  0
 12 13  1  0
 13 14  2  0
 14 15  1  0
 15 16  1  0
 16 17  2  0
 16 18  1  0
 18 19  1  0
 19 20  2  0
 20 21  1  0
 21 22  2  0
 22 23  1  0
 22 24  1  0
 24 25  2  0
 15 26  2  0
  6 27  2  0
 27  2  1  0
 26 11  1  0
 25 19  1  0
  1 28  1  0
  1 29  1  0
  3 30  1  0
  4 31  1  0
  5 32  1  0
 12 33  1  0
 13 34  1  0
 14 35  1  0
 18 36  1  0
 20 37  1  0
 21 38  1  0
 24 39  1  0
 25 40  1  0
 26 41  1  0
 27 42  1  0
M  CHG  2  10  -1  23  -1
M  END
>  <UniqueID>  (36) 
34

>  <SMILES>  (36) 
Nc1cccc(S(=O)(=O)[N-]c2cccc(C(=O)Nc3ccc([O-])cc3)c2)c1

>  <Energy>  (36) 
57.00989276735376

>  <Genealogy>  (36) 
Nc1cccc(S(=O)(=O)[N-]c2cccc(C(=O)Nc3ccc([O-])cc3)c2)c1 (protonated)
Nc1cccc(S(=O)(=O)[N-]c2cccc(C(=O)Nc3ccc([O-])cc3)c2)c1 (3D coordinates assigned)
Nc1cccc(S(=O)(=O)[N-]c2cccc(C(=O)Nc3ccc([O-])cc3)c2)c1 (optimized conformer: 57.00989276735376 kcal/mol)

>  <smiles>  (36) 
Nc1cccc(S(=O)(=O)Nc2cccc(C(=O)Nc3ccc(O)cc3)c2)c1

>  <score_type>  (36) 
oracle

>  <origin>  (36) 
adgpu

>  <m_score__min__energy>  (36) 
-10.029999999999999

>  <m_primary>  (36) 
energy

$$$$
36:0
     RDKit          3D

 37 39  0  0  0  0  0  0  0  0999 V2000
   -9.1240   18.4280  -31.6070 C   0  0  0  0  0  0  0  0  0  0  0  0
   -8.3170   19.6770  -31.8010 C   0  0  0  0  0  0  0  0  0  0  0  0
   -8.4400   20.7460  -30.8990 C   0  0  0  0  0  0  0  0  0  0  0  0
   -7.6620   21.8950  -31.0590 C   0  0  0  0  0  0  0  0  0  0  0  0
   -6.7490   21.9860  -32.1160 C   0  0  0  0  0  0  0  0  0  0  0  0
   -5.7610   23.4670  -32.3250 S   0  0  0  0  0  0  0  0  0  0  0  0
   -4.2220   22.5960  -32.0050 C   0  0  0  0  0  0  0  0  0  0  0  0
   -3.9650   21.4810  -32.7410 N   0  0  0  0  0  0  0  0  0  0  0  0
   -2.8600   20.7180  -32.5410 C   0  0  0  0  0  0  0  0  0  0  0  0
   -1.9480   21.0610  -31.5460 C   0  0  0  0  0  0  0  0  0  0  0  0
   -2.1760   22.1980  -30.7730 C   0  0  0  0  0  0  0  0  0  0  0  0
   -3.3120   22.9970  -30.9940 C   0  0  0  0  0  0  0  0  0  0  0  0
   -3.5050   24.2120  -30.1690 C   0  0  0  0  0  0  0  0  0  0  0  0
   -3.9090   25.2840  -30.6960 O   0  0  0  0  0  0  0  0  0  0  0  0
   -3.2520   24.1550  -28.7580 N   0  0  0  0  0  0  0  0  0  0  0  0
   -2.0950   24.6550  -28.0730 C   0  0  0  0  0  0  0  0  0  0  0  0
   -2.2550   25.2450  -26.8150 C   0  0  0  0  0  0  0  0  0  0  0  0
   -1.1450   25.7230  -26.1170 C   0  0  0  0  0  0  0  0  0  0  0  0
    0.1250   25.5900  -26.6810 C   0  0  0  0  0  0  0  0  0  0  0  0
    0.2720   24.9890  -27.8910 N   0  0  0  0  0  0  0  0  0  0  0  0
   -0.7950   24.5200  -28.5930 C   0  0  0  0  0  0  0  0  0  0  0  0
   -6.6050   20.9130  -33.0040 C   0  0  0  0  0  0  0  0  0  0  0  0
   -7.3830   19.7610  -32.8460 C   0  0  0  0  0  0  0  0  0  0  0  0
   -9.2485   18.2353  -30.5312 H   0  0  0  0  0  0  0  0  0  0  0  0
  -10.1121   18.5537  -32.0738 H   0  0  0  0  0  0  0  0  0  0  0  0
   -8.6033   17.5788  -32.0738 H   0  0  0  0  0  0  0  0  0  0  0  0
   -9.1518   20.6784  -30.0631 H   0  0  0  0  0  0  0  0  0  0  0  0
   -7.7672   22.7311  -30.3520 H   0  0  0  0  0  0  0  0  0  0  0  0
   -2.6851   19.8290  -33.1648 H   0  0  0  0  0  0  0  0  0  0  0  0
   -1.0565   20.4406  -31.3719 H   0  0  0  0  0  0  0  0  0  0  0  0
   -1.4613   22.4728  -29.9833 H   0  0  0  0  0  0  0  0  0  0  0  0
   -3.2591   25.3326  -26.3743 H   0  0  0  0  0  0  0  0  0  0  0  0
   -1.2695   26.1993  -25.1333 H   0  0  0  0  0  0  0  0  0  0  0  0
    1.0070   25.9718  -26.1459 H   0  0  0  0  0  0  0  0  0  0  0  0
   -0.6409   24.0348  -29.5681 H   0  0  0  0  0  0  0  0  0  0  0  0
   -5.8786   20.9760  -33.8276 H   0  0  0  0  0  0  0  0  0  0  0  0
   -7.2626   18.9183  -33.5427 H   0  0  0  0  0  0  0  0  0  0  0  0
  1  2  1  0
  2  3  2  0
  3  4  1  0
  4  5  2  0
  5  6  1  0
  6  7  1  0
  7  8  2  0
  8  9  1  0
  9 10  2  0
 10 11  1  0
 11 12  2  0
 12 13  1  0
 13 14  2  0
 13 15  1  0
 15 16  1  0
 16 17  2  0
 17 18  1  0
 18 19  2  0
 19 20  1  0
 20 21  2  0
  5 22  1  0
 22 23  2  0
 23  2  1  0
 12  7  1  0
 21 16  1  0
  1 24  1  0
  1 25  1  0
  1 26  1  0
  3 27  1  0
  4 28  1  0
  9 29  1  0
 10 30  1  0
 11 31  1  0
 17 32  1  0
 18 33  1  0
 19 34  1  0
 21 35  1  0
 22 36  1  0
 23 37  1  0
M  CHG  1  15  -1
M  END
>  <UniqueID>  (37) 
35

>  <SMILES>  (37) 
Cc1ccc(Sc2ncccc2C(=O)[N-]c2cccnc2)cc1

>  <Energy>  (37) 
43.8033519097021

>  <Genealogy>  (37) 
Cc1ccc(Sc2ncccc2C(=O)[N-]c2cccnc2)cc1 (protonated)
Cc1ccc(Sc2ncccc2C(=O)[N-]c2cccnc2)cc1 (3D coordinates assigned)
Cc1ccc(Sc2ncccc2C(=O)[N-]c2cccnc2)cc1 (optimized conformer: 43.8033519097021 kcal/mol)

>  <smiles>  (37) 
Cc1ccc(Sc2ncccc2C(=O)Nc2cccnc2)cc1

>  <score_type>  (37) 
oracle

>  <origin>  (37) 
adgpu

>  <m_score__min__energy>  (37) 
-9.5999999999999996

>  <m_primary>  (37) 
energy

$$$$
37:0
     RDKit          3D

 47 50  0  0  0  0  0  0  0  0999 V2000
   -2.5650   24.5130  -28.2010 C   0  0  0  0  0  0  0  0  0  0  0  0
   -3.1130   25.1050  -29.3730 O   0  0  0  0  0  0  0  0  0  0  0  0
   -4.1110   24.5350  -30.1820 C   0  0  0  0  0  0  0  0  0  0  0  0
   -5.4030   25.0860  -30.1400 C   0  0  0  0  0  0  0  0  0  0  0  0
   -6.4420   24.5490  -30.9210 C   0  0  0  0  0  0  0  0  0  0  0  0
   -6.1850   23.4540  -31.7530 C   0  0  0  0  0  0  0  0  0  0  0  0
   -4.9230   22.9540  -31.7850 N   0  0  0  0  0  0  0  0  0  0  0  0
   -4.4190   21.9090  -32.4630 C   0  0  0  0  0  0  0  0  0  0  0  0
   -5.2020   21.0270  -33.2850 N   0  0  0  0  0  0  0  0  0  0  0  0
   -5.6650   19.7350  -32.8550 C   0  0  0  0  0  0  0  0  0  0  0  0
   -4.9720   18.5720  -33.2680 C   0  0  0  0  0  0  0  0  0  0  0  0
   -3.8120   18.6550  -34.2240 C   0  0  0  0  0  0  0  0  0  0  0  0
   -5.3880   17.3150  -32.8030 C   0  0  0  0  0  0  0  0  0  0  0  0
   -6.4730   17.2040  -31.9370 C   0  0  0  0  0  0  0  0  0  0  0  0
   -7.1870   18.3400  -31.5600 C   0  0  0  0  0  0  0  0  0  0  0  0
   -6.8190   19.6060  -32.0390 C   0  0  0  0  0  0  0  0  0  0  0  0
   -7.6730   20.7910  -31.6720 C   0  0  0  0  0  0  0  0  0  0  0  0
   -3.0750   21.7920  -32.1140 C   0  0  0  0  0  0  0  0  0  0  0  0
   -2.0930   20.8160  -32.6170 C   0  0  0  0  0  0  0  0  0  0  0  0
   -1.4390   21.0250  -33.8420 C   0  0  0  0  0  0  0  0  0  0  0  0
   -0.5270   20.0820  -34.3230 C   0  0  0  0  0  0  0  0  0  0  0  0
   -0.2450   18.9360  -33.5740 C   0  0  0  0  0  0  0  0  0  0  0  0
   -0.8680   18.7380  -32.3380 C   0  0  0  0  0  0  0  0  0  0  0  0
   -1.7820   19.6800  -31.8560 C   0  0  0  0  0  0  0  0  0  0  0  0
   -2.7590   22.7500  -31.2110 N   0  0  0  0  0  0  0  0  0  0  0  0
   -3.9100   23.4380  -31.0410 C   0  0  0  0  0  0  0  0  0  0  0  0
   -3.0041   24.9874  -27.3110 H   0  0  0  0  0  0  0  0  0  0  0  0
   -2.7927   23.4369  -28.1930 H   0  0  0  0  0  0  0  0  0  0  0  0
   -1.4745   24.6571  -28.1930 H   0  0  0  0  0  0  0  0  0  0  0  0
   -5.6043   25.9486  -29.4878 H   0  0  0  0  0  0  0  0  0  0  0  0
   -7.4501   24.9870  -30.8780 H   0  0  0  0  0  0  0  0  0  0  0  0
   -6.9840   23.0100  -32.3649 H   0  0  0  0  0  0  0  0  0  0  0  0
   -5.4340   21.3320  -34.2560 H   0  0  0  0  0  0  0  0  0  0  0  0
   -2.8726   18.7222  -33.6557 H   0  0  0  0  0  0  0  0  0  0  0  0
   -3.7938   17.7559  -34.8574 H   0  0  0  0  0  0  0  0  0  0  0  0
   -3.9220   19.5476  -34.8574 H   0  0  0  0  0  0  0  0  0  0  0  0
   -4.8526   16.4097  -33.1252 H   0  0  0  0  0  0  0  0  0  0  0  0
   -6.7672   16.2174  -31.5496 H   0  0  0  0  0  0  0  0  0  0  0  0
   -8.0468   18.2430  -30.8808 H   0  0  0  0  0  0  0  0  0  0  0  0
   -7.7332   20.8745  -30.5768 H   0  0  0  0  0  0  0  0  0  0  0  0
   -7.2262   21.7071  -32.0856 H   0  0  0  0  0  0  0  0  0  0  0  0
   -8.6834   20.6569  -32.0856 H   0  0  0  0  0  0  0  0  0  0  0  0
   -1.6455   21.9346  -34.4251 H   0  0  0  0  0  0  0  0  0  0  0  0
   -0.0307   20.2416  -35.2916 H   0  0  0  0  0  0  0  0  0  0  0  0
    0.4670   18.1900  -33.9569 H   0  0  0  0  0  0  0  0  0  0  0  0
   -0.6389   17.8406  -31.7445 H   0  0  0  0  0  0  0  0  0  0  0  0
   -2.2588   19.5294  -30.8762 H   0  0  0  0  0  0  0  0  0  0  0  0
  1  2  1  0
  2  3  1  0
  3  4  2  0
  4  5  1  0
  5  6  2  0
  6  7  1  0
  7  8  1  0
  8  9  1  0
  9 10  1  0
 10 11  2  0
 11 12  1  0
 11 13  1  0
 13 14  2  0
 14 15  1  0
 15 16  2  0
 16 17  1  0
  8 18  2  0
 18 19  1  0
 19 20  2  0
 20 21  1  0
 21 22  2  0
 22 23  1  0
 23 24  2  0
 18 25  1  0
 25 26  2  0
 26  3  1  0
 26  7  1  0
 16 10  1  0
 24 19  1  0
  1 27  1  0
  1 28  1  0
  1 29  1  0
  4 30  1  0
  5 31  1  0
  6 32  1  0
  9 33  1  0
 12 34  1  0
 12 35  1  0
 12 36  1  0
 13 37  1  0
 14 38  1  0
 15 39  1  0
 17 40  1  0
 17 41  1  0
 17 42  1  0
 20 43  1  0
 21 44  1  0
 22 45  1  0
 23 46  1  0
 24 47  1  0
M  END
>  <UniqueID>  (38) 
36

>  <SMILES>  (38) 
COc1cccn2c(Nc3c(C)cccc3C)c(-c3ccccc3)nc12

>  <Energy>  (38) 
97.54189237139055

>  <Genealogy>  (38) 
COc1cccn2c(Nc3c(C)cccc3C)c(-c3ccccc3)nc12 (3D coordinates assigned)
COc1cccn2c(Nc3c(C)cccc3C)c(-c3ccccc3)nc12 (optimized conformer: 97.54189237139055 kcal/mol)

>  <smiles>  (38) 
COc1cccn2c(Nc3c(C)cccc3C)c(-c3ccccc3)nc12

>  <score_type>  (38) 
oracle

>  <origin>  (38) 
adgpu

>  <m_score__min__energy>  (38) 
-8.5899999999999999

>  <m_primary>  (38) 
energy

$$$$
38:0
     RDKit          3D

 36 38  0  0  0  0  0  0  0  0999 V2000
   -8.4060   21.3370  -30.9080 O   0  0  0  0  0  0  0  0  0  0  0  0
   -7.5220   21.5340  -31.7830 C   0  0  0  0  0  0  0  0  0  0  0  0
   -7.6220   20.8380  -33.0340 N   0  0  0  0  0  0  0  0  0  0  0  0
   -7.1270   19.5220  -33.3250 C   0  0  0  0  0  0  0  0  0  0  0  0
   -7.6510   18.4340  -32.6160 C   0  0  0  0  0  0  0  0  0  0  0  0
   -7.2000   17.1370  -32.8780 C   0  0  0  0  0  0  0  0  0  0  0  0
   -6.2100   16.9180  -33.8400 C   0  0  0  0  0  0  0  0  0  0  0  0
   -5.7710   15.6250  -34.0990 O   0  0  0  0  0  0  0  0  0  0  0  0
   -5.6580   18.0010  -34.5340 C   0  0  0  0  0  0  0  0  0  0  0  0
   -4.6600   17.7790  -35.4830 O   0  0  0  0  0  0  0  0  0  0  0  0
   -6.1080   19.3020  -34.2690 C   0  0  0  0  0  0  0  0  0  0  0  0
   -6.4230   22.4790  -31.4920 C   0  0  0  0  0  0  0  0  0  0  0  0
   -6.7030   23.8530  -31.5100 C   0  0  0  0  0  0  0  0  0  0  0  0
   -5.7210   24.7810  -31.1700 C   0  0  0  0  0  0  0  0  0  0  0  0
   -4.4400   24.3540  -30.8210 C   0  0  0  0  0  0  0  0  0  0  0  0
   -3.4790   25.2990  -30.4760 O   0  0  0  0  0  0  0  0  0  0  0  0
   -4.1240   22.9830  -30.8310 C   0  0  0  0  0  0  0  0  0  0  0  0
   -2.7590   22.5550  -30.4690 C   0  0  0  0  0  0  0  0  0  0  0  0
   -1.9020   22.0180  -31.4420 C   0  0  0  0  0  0  0  0  0  0  0  0
   -0.6090   21.6170  -31.0940 C   0  0  0  0  0  0  0  0  0  0  0  0
   -0.1640   21.7550  -29.7760 C   0  0  0  0  0  0  0  0  0  0  0  0
   -1.0110   22.2950  -28.8030 C   0  0  0  0  0  0  0  0  0  0  0  0
   -0.4020   22.4840  -27.0030 Br  0  0  0  0  0  0  0  0  0  0  0  0
   -2.3060   22.6970  -29.1480 C   0  0  0  0  0  0  0  0  0  0  0  0
   -5.1150   22.0380  -31.1800 C   0  0  0  0  0  0  0  0  0  0  0  0
   -4.6620   20.1630  -31.2730 Br  0  0  0  0  0  0  0  0  0  0  0  0
   -8.4215   18.6008  -31.8489 H   0  0  0  0  0  0  0  0  0  0  0  0
   -7.6255   16.2863  -32.3254 H   0  0  0  0  0  0  0  0  0  0  0  0
   -4.3340   16.8450  -35.7000 H   0  0  0  0  0  0  0  0  0  0  0  0
   -5.6620   20.1547  -34.8019 H   0  0  0  0  0  0  0  0  0  0  0  0
   -7.7068   24.2011  -31.7951 H   0  0  0  0  0  0  0  0  0  0  0  0
   -5.9571   25.8553  -31.1769 H   0  0  0  0  0  0  0  0  0  0  0  0
   -2.2485   21.9125  -32.4806 H   0  0  0  0  0  0  0  0  0  0  0  0
    0.0590   21.1925  -31.8579 H   0  0  0  0  0  0  0  0  0  0  0  0
    0.8537   21.4384  -29.5039 H   0  0  0  0  0  0  0  0  0  0  0  0
   -2.9702   23.1250  -28.3828 H   0  0  0  0  0  0  0  0  0  0  0  0
  1  2  2  0
  2  3  1  0
  3  4  1  0
  4  5  2  0
  5  6  1  0
  6  7  2  0
  7  8  1  0
  7  9  1  0
  9 10  1  0
  9 11  2  0
  2 12  1  0
 12 13  2  0
 13 14  1  0
 14 15  2  0
 15 16  1  0
 15 17  1  0
 17 18  1  0
 18 19  2  0
 19 20  1  0
 20 21  2  0
 21 22  1  0
 22 23  1  0
 22 24  2  0
 17 25  2  0
 25 26  1  0
 11  4  1  0
 25 12  1  0
 24 18  1  0
  5 27  1  0
  6 28  1  0
 10 29  1  0
 11 30  1  0
 13 31  1  0
 14 32  1  0
 19 33  1  0
 20 34  1  0
 21 35  1  0
 24 36  1  0
M  CHG  3   3  -1   8  -1  16  -1
M  END
>  <UniqueID>  (39) 
37

>  <SMILES>  (39) 
O=C([N-]c1ccc([O-])c(O)c1)c1ccc([O-])c(-c2cccc(Br)c2)c1Br

>  <Energy>  (39) 
57.51196545049473

>  <Genealogy>  (39) 
O=C([N-]c1ccc([O-])c(O)c1)c1ccc([O-])c(-c2cccc(Br)c2)c1Br (protonated)
O=C([N-]c1ccc([O-])c(O)c1)c1ccc([O-])c(-c2cccc(Br)c2)c1Br (3D coordinates assigned)
O=C([N-]c1ccc([O-])c(O)c1)c1ccc([O-])c(-c2cccc(Br)c2)c1Br (optimized conformer: 57.51196545049473 kcal/mol)

>  <smiles>  (39) 
O=C(Nc1ccc(O)c(O)c1)c1ccc(O)c(-c2cccc(Br)c2)c1Br

>  <score_type>  (39) 
oracle

>  <origin>  (39) 
adgpu

>  <m_score__min__energy>  (39) 
-11.52

>  <m_primary>  (39) 
energy

$$$$
39:0
     RDKit          3D

 62 65  0  0  0  0  0  0  0  0999 V2000
   -4.2540   24.7650  -26.7140 C   0  0  0  0  0  0  0  0  0  0  0  0
   -3.0140   24.5170  -27.4660 N   0  0  0  0  0  0  0  0  0  0  0  0
   -1.9330   25.4100  -27.0200 C   0  0  0  0  0  0  0  0  0  0  0  0
   -2.6200   23.0900  -27.4790 C   0  0  0  0  0  0  0  0  0  0  0  0
   -1.0970   22.8510  -27.5610 C   0  0  0  0  0  0  0  0  0  0  0  0
   -0.6350   22.8120  -29.0290 C   0  0  0  0  0  0  0  0  0  0  0  0
   -1.5540   23.5200  -29.9390 N   0  0  0  0  0  0  0  0  0  0  0  0
   -2.5020   22.6380  -30.6390 C   0  0  0  0  0  0  0  0  0  0  0  0
   -3.8440   23.2930  -30.8190 C   0  0  0  0  0  0  0  0  0  0  0  0
   -3.9210   24.6250  -30.5120 N   0  0  0  0  0  0  0  0  0  0  0  0
   -5.0890   25.3300  -30.5180 C   0  0  0  0  0  0  0  0  0  0  0  0
   -6.2950   24.6910  -30.8170 C   0  0  0  0  0  0  0  0  0  0  0  0
   -6.2370   23.3380  -31.1290 C   0  0  0  0  0  0  0  0  0  0  0  0
   -7.2440   22.4680  -31.4550 C   0  0  0  0  0  0  0  0  0  0  0  0
   -8.6210   22.6580  -31.5680 C   0  0  0  0  0  0  0  0  0  0  0  0
   -9.4050   21.5540  -31.9400 C   0  0  0  0  0  0  0  0  0  0  0  0
   -8.8040   20.3020  -32.1870 C   0  0  0  0  0  0  0  0  0  0  0  0
   -7.4110   20.1430  -32.0670 C   0  0  0  0  0  0  0  0  0  0  0  0
   -6.6440   21.2540  -31.6940 C   0  0  0  0  0  0  0  0  0  0  0  0
   -5.2920   21.3240  -31.5350 N   0  0  0  0  0  0  0  0  0  0  0  0
   -4.3670   20.2360  -31.8960 C   0  0  0  0  0  0  0  0  0  0  0  0
   -3.5910   20.5630  -33.1830 C   0  0  0  0  0  0  0  0  0  0  0  0
   -3.2080   19.3090  -33.9770 C   0  0  0  0  0  0  0  0  0  0  0  0
   -4.2670   18.2500  -33.8300 C   0  0  0  0  0  0  0  0  0  0  0  0
   -5.5360   18.4300  -34.4030 C   0  0  0  0  0  0  0  0  0  0  0  0
   -6.5070   17.4300  -34.2930 C   0  0  0  0  0  0  0  0  0  0  0  0
   -6.2140   16.2400  -33.6180 C   0  0  0  0  0  0  0  0  0  0  0  0
   -4.9490   16.0490  -33.0580 C   0  0  0  0  0  0  0  0  0  0  0  0
   -3.9750   17.0470  -33.1660 C   0  0  0  0  0  0  0  0  0  0  0  0
   -5.0490   22.6240  -31.1650 C   0  0  0  0  0  0  0  0  0  0  0  0
   -4.0432   24.7228  -25.6352 H   0  0  0  0  0  0  0  0  0  0  0  0
   -4.6468   25.7595  -26.9723 H   0  0  0  0  0  0  0  0  0  0  0  0
   -4.9991   23.9981  -26.9723 H   0  0  0  0  0  0  0  0  0  0  0  0
   -1.9060   25.4323  -25.9206 H   0  0  0  0  0  0  0  0  0  0  0  0
   -0.9704   25.0402  -27.4030 H   0  0  0  0  0  0  0  0  0  0  0  0
   -2.1144   26.4251  -27.4030 H   0  0  0  0  0  0  0  0  0  0  0  0
   -2.9928   22.6215  -26.5562 H   0  0  0  0  0  0  0  0  0  0  0  0
   -3.0566   22.6514  -28.3884 H   0  0  0  0  0  0  0  0  0  0  0  0
   -0.5742   23.6657  -27.0386 H   0  0  0  0  0  0  0  0  0  0  0  0
   -0.8627   21.8855  -27.0888 H   0  0  0  0  0  0  0  0  0  0  0  0
    0.3574   23.2816  -29.0972 H   0  0  0  0  0  0  0  0  0  0  0  0
   -0.6110   21.7570  -29.3395 H   0  0  0  0  0  0  0  0  0  0  0  0
   -2.0980   24.2310  -29.3960 H   0  0  0  0  0  0  0  0  0  0  0  0
   -2.0919   22.3881  -31.6286 H   0  0  0  0  0  0  0  0  0  0  0  0
   -2.6417   21.7330  -30.0295 H   0  0  0  0  0  0  0  0  0  0  0  0
   -5.0812   26.4054  -30.2866 H   0  0  0  0  0  0  0  0  0  0  0  0
   -7.2504   25.2361  -30.8059 H   0  0  0  0  0  0  0  0  0  0  0  0
   -9.0775   23.6395  -31.3723 H   0  0  0  0  0  0  0  0  0  0  0  0
  -10.4947   21.6662  -32.0394 H   0  0  0  0  0  0  0  0  0  0  0  0
   -9.4287   19.4438  -32.4755 H   0  0  0  0  0  0  0  0  0  0  0  0
   -6.9361   19.1700  -32.2614 H   0  0  0  0  0  0  0  0  0  0  0  0
   -3.6509   20.0876  -31.0743 H   0  0  0  0  0  0  0  0  0  0  0  0
   -4.9565   19.3237  -32.0696 H   0  0  0  0  0  0  0  0  0  0  0  0
   -4.2187   21.2044  -33.8191 H   0  0  0  0  0  0  0  0  0  0  0  0
   -2.6590   21.0685  -32.8899 H   0  0  0  0  0  0  0  0  0  0  0  0
   -3.1031   19.5713  -35.0401 H   0  0  0  0  0  0  0  0  0  0  0  0
   -2.2563   18.9178  -33.5880 H   0  0  0  0  0  0  0  0  0  0  0  0
   -5.7673   19.3614  -34.9406 H   0  0  0  0  0  0  0  0  0  0  0  0
   -7.5021   17.5790  -34.7375 H   0  0  0  0  0  0  0  0  0  0  0  0
   -6.9796   15.4553  -33.5285 H   0  0  0  0  0  0  0  0  0  0  0  0
   -4.7181   15.1116  -32.5308 H   0  0  0  0  0  0  0  0  0  0  0  0
   -2.9776   16.8894  -32.7298 H   0  0  0  0  0  0  0  0  0  0  0  0
  1  2  1  0
  2  3  1  0
  2  4  1  0
  4  5  1  0
  5  6  1  0
  6  7  1  0
  7  8  1  0
  8  9  1  0
  9 10  2  0
 10 11  1  0
 11 12  2  0
 12 13  1  0
 13 14  1  0
 14 15  2  0
 15 16  1  0
 16 17  2  0
 17 18  1  0
 18 19  2  0
 19 20  1  0
 20 21  1  0
 21 22  1  0
 22 23  1  0
 23 24  1  0
 24 25  2  0
 25 26  1  0
 26 27  2  0
 27 28  1  0
 28 29  2  0
 20 30  1  0
 30  9  1  0
 30 13  2  0
 19 14  1  0
 29 24  1  0
  1 31  1  0
  1 32  1  0
  1 33  1  0
  3 34  1  0
  3 35  1  0
  3 36  1  0
  4 37  1  0
  4 38  1  0
  5 39  1  0
  5 40  1  0
  6 41  1  0
  6 42  1  0
  7 43  1  0
  8 44  1  0
  8 45  1  0
 11 46  1  0
 12 47  1  0
 15 48  1  0
 16 49  1  0
 17 50  1  0
 18 51  1  0
 21 52  1  0
 21 53  1  0
 22 54  1  0
 22 55  1  0
 23 56  1  0
 23 57  1  0
 25 58  1  0
 26 59  1  0
 27 60  1  0
 28 61  1  0
 29 62  1  0
M  END
>  <UniqueID>  (40) 
38

>  <SMILES>  (40) 
CN(C)CCCNCc1nccc2c3ccccc3n(CCCc3ccccc3)c12

>  <Energy>  (40) 
110.62989484174054

>  <Genealogy>  (40) 
CN(C)CCCNCc1nccc2c3ccccc3n(CCCc3ccccc3)c12 (3D coordinates assigned)
CN(C)CCCNCc1nccc2c3ccccc3n(CCCc3ccccc3)c12 (optimized conformer: 110.62989484174054 kcal/mol)

>  <smiles>  (40) 
CN(C)CCCNCc1nccc2c3ccccc3n(CCCc3ccccc3)c12

>  <score_type>  (40) 
oracle

>  <origin>  (40) 
adgpu

>  <m_score__min__energy>  (40) 
-9.6400000000000006

>  <m_primary>  (40) 
energy

$$$$
40:0
     RDKit          3D

 46 49  0  0  0  0  0  0  0  0999 V2000
    1.6660   24.5570  -28.1310 O   0  0  0  0  0  0  0  0  0  0  0  0
    0.5100   24.0630  -28.0690 C   0  0  0  0  0  0  0  0  0  0  0  0
    0.2660   22.8090  -27.2750 C   0  0  0  0  0  0  0  0  0  0  0  0
   -1.1230   22.6250  -26.9740 O   0  0  0  0  0  0  0  0  0  0  0  0
   -2.1550   23.1400  -27.7650 C   0  0  0  0  0  0  0  0  0  0  0  0
   -3.4640   22.6780  -27.6000 C   0  0  0  0  0  0  0  0  0  0  0  0
   -4.4950   23.2050  -28.3830 C   0  0  0  0  0  0  0  0  0  0  0  0
   -4.2270   24.2050  -29.3290 C   0  0  0  0  0  0  0  0  0  0  0  0
   -5.5490   24.8770  -30.2850 S   0  0  0  0  0  0  0  0  0  0  0  0
   -5.3260   26.3560  -30.4440 O   0  0  0  0  0  0  0  0  0  0  0  0
   -6.8620   24.6650  -29.5870 O   0  0  0  0  0  0  0  0  0  0  0  0
   -5.5840   24.1810  -31.8740 N   0  0  0  0  0  0  0  0  0  0  0  0
   -5.5630   22.7890  -32.2100 C   0  0  0  0  0  0  0  0  0  0  0  0
   -4.3890   22.2550  -32.7430 C   0  0  0  0  0  0  0  0  0  0  0  0
   -4.3120   20.9040  -33.0800 C   0  0  0  0  0  0  0  0  0  0  0  0
   -5.4170   20.0710  -32.8900 C   0  0  0  0  0  0  0  0  0  0  0  0
   -6.6070   20.5860  -32.3480 C   0  0  0  0  0  0  0  0  0  0  0  0
   -8.0110   19.5340  -32.1380 S   0  0  0  0  0  0  0  0  0  0  0  0
   -8.6960   19.8870  -30.8480 O   0  0  0  0  0  0  0  0  0  0  0  0
   -8.9810   19.7810  -33.2610 O   0  0  0  0  0  0  0  0  0  0  0  0
   -7.5930   17.8350  -32.1340 N   0  0  0  0  0  0  0  0  0  0  0  0
   -7.1820   17.3560  -33.4610 C   0  0  0  0  0  0  0  0  0  0  0  0
   -5.7660   16.8130  -33.3410 C   0  0  0  0  0  0  0  0  0  0  0  0
   -5.6140   16.5100  -31.8710 C   0  0  0  0  0  0  0  0  0  0  0  0
   -6.4950   17.5430  -31.2020 C   0  0  0  0  0  0  0  0  0  0  0  0
   -6.6730   21.9450  -32.0100 C   0  0  0  0  0  0  0  0  0  0  0  0
   -2.9130   24.6760  -29.4850 C   0  0  0  0  0  0  0  0  0  0  0  0
   -1.8820   24.1410  -28.7040 C   0  0  0  0  0  0  0  0  0  0  0  0
   -0.5540   24.6530  -28.8170 N   0  0  0  0  0  0  0  0  0  0  0  0
    0.6205   21.9456  -27.8572 H   0  0  0  0  0  0  0  0  0  0  0  0
    0.8106   22.8984  -26.3234 H   0  0  0  0  0  0  0  0  0  0  0  0
   -3.6827   21.8998  -26.8540 H   0  0  0  0  0  0  0  0  0  0  0  0
   -5.5225   22.8332  -28.2564 H   0  0  0  0  0  0  0  0  0  0  0  0
   -3.5161   22.9059  -32.8988 H   0  0  0  0  0  0  0  0  0  0  0  0
   -3.3799   20.4938  -33.4960 H   0  0  0  0  0  0  0  0  0  0  0  0
   -5.3556   19.0079  -33.1656 H   0  0  0  0  0  0  0  0  0  0  0  0
   -7.8611   16.5590  -33.7981 H   0  0  0  0  0  0  0  0  0  0  0  0
   -7.2186   18.1756  -34.1938 H   0  0  0  0  0  0  0  0  0  0  0  0
   -5.6451   15.9002  -33.9428 H   0  0  0  0  0  0  0  0  0  0  0  0
   -5.0086   17.5216  -33.7075 H   0  0  0  0  0  0  0  0  0  0  0  0
   -5.9600   15.4912  -31.6421 H   0  0  0  0  0  0  0  0  0  0  0  0
   -4.5688   16.5549  -31.5311 H   0  0  0  0  0  0  0  0  0  0  0  0
   -6.8957   17.1444  -30.2583 H   0  0  0  0  0  0  0  0  0  0  0  0
   -5.9251   18.4540  -30.9670 H   0  0  0  0  0  0  0  0  0  0  0  0
   -7.6003   22.3562  -31.5846 H   0  0  0  0  0  0  0  0  0  0  0  0
   -2.6944   25.4645  -30.2202 H   0  0  0  0  0  0  0  0  0  0  0  0
  1  2  2  0
  2  3  1  0
  3  4  1  0
  4  5  1  0
  5  6  2  0
  6  7  1  0
  7  8  2  0
  8  9  1  0
  9 10  2  0
  9 11  2  0
  9 12  1  0
 12 13  1  0
 13 14  2  0
 14 15  1  0
 15 16  2  0
 16 17  1  0
 17 18  1  0
 18 19  2  0
 18 20  2  0
 18 21  1  0
 21 22  1  0
 22 23  1  0
 23 24  1  0
 24 25  1  0
 17 26  2  0
  8 27  1  0
 27 28  2  0
 28 29  1  0
 29  2  1  0
 28  5  1  0
 26 13  1  0
 25 21  1  0
  3 30  1  0
  3 31  1  0
  6 32  1  0
  7 33  1  0
 14 34  1  0
 15 35  1  0
 16 36  1  0
 22 37  1  0
 22 38  1  0
 23 39  1  0
 23 40  1  0
 24 41  1  0
 24 42  1  0
 25 43  1  0
 25 44  1  0
 26 45  1  0
 27 46  1  0
M  CHG  2  12  -1  29  -1
M  END
>  <UniqueID>  (41) 
39

>  <SMILES>  (41) 
O=C1COc2ccc(S(=O)(=O)[N-]c3cccc(S(=O)(=O)N4CCCC4)c3)cc2[N-]1

>  <Energy>  (41) 
54.37418587579117

>  <Genealogy>  (41) 
O=C1COc2ccc(S(=O)(=O)[N-]c3cccc(S(=O)(=O)N4CCCC4)c3)cc2[N-]1 (protonated)
O=C1COc2ccc(S(=O)(=O)[N-]c3cccc(S(=O)(=O)N4CCCC4)c3)cc2[N-]1 (3D coordinates assigned)
O=C1COc2ccc(S(=O)(=O)[N-]c3cccc(S(=O)(=O)N4CCCC4)c3)cc2[N-]1 (nonaromatic ring conformer: 54.37418587579117 kcal/mol)

>  <smiles>  (41) 
O=C1COc2ccc(S(=O)(=O)Nc3cccc(S(=O)(=O)N4CCCC4)c3)cc2N1

>  <score_type>  (41) 
oracle

>  <origin>  (41) 
adgpu

>  <m_score__min__energy>  (41) 
-11.76

>  <m_primary>  (41) 
energy

$$$$
41:0
     RDKit          3D

 68 72  0  0  0  0  0  0  0  0999 V2000
   -6.8705   21.4967  -32.1719 H   0  0  0  0  0  0  0  0  0  0  0  0
   -5.8450   21.5810  -31.7830 C   0  0  0  0  0  0  0  0  0  0  0  0
   -5.0490   20.5040  -31.8480 C   0  0  0  0  0  0  0  0  0  0  0  0
   -4.0523   20.5534  -31.3852 H   0  0  0  0  0  0  0  0  0  0  0  0
   -5.4620   19.2500  -32.5200 C   0  0  0  0  0  0  0  0  0  0  0  0
   -6.4990   18.5020  -31.9450 C   0  0  0  0  0  0  0  0  0  0  0  0
   -6.9659   18.8471  -31.0107 H   0  0  0  0  0  0  0  0  0  0  0  0
   -6.9450   17.3240  -32.5460 C   0  0  0  0  0  0  0  0  0  0  0  0
   -7.7602   16.7479  -32.0838 H   0  0  0  0  0  0  0  0  0  0  0  0
   -6.3570   16.8710  -33.7390 C   0  0  0  0  0  0  0  0  0  0  0  0
   -6.7990   15.7160  -34.4020 O   0  0  0  0  0  0  0  0  0  0  0  0
   -6.2420   14.4180  -34.2150 C   0  0  0  0  0  0  0  0  0  0  0  0
   -6.1523   14.2091  -33.1388 H   0  0  0  0  0  0  0  0  0  0  0  0
   -6.8972   13.6672  -34.6809 H   0  0  0  0  0  0  0  0  0  0  0  0
   -5.2465   14.3756  -34.6809 H   0  0  0  0  0  0  0  0  0  0  0  0
   -5.2950   17.5920  -34.2960 C   0  0  0  0  0  0  0  0  0  0  0  0
   -4.8332   17.2420  -35.2310 H   0  0  0  0  0  0  0  0  0  0  0  0
   -4.8090   18.7600  -33.6760 C   0  0  0  0  0  0  0  0  0  0  0  0
   -3.6910   19.4930  -34.2130 N   0  0  0  0  0  0  0  0  0  0  0  0
   -2.5520   19.7920  -33.6590 C   0  0  0  0  0  0  0  0  0  0  0  0
   -2.2840   19.4600  -32.3690 N   0  0  0  0  0  0  0  0  0  0  0  0
   -1.0970   19.7730  -31.7950 C   0  0  0  0  0  0  0  0  0  0  0  0
   -0.8380   19.3940  -30.3690 C   0  0  0  0  0  0  0  0  0  0  0  0
   -1.3316   20.1163  -29.7022 H   0  0  0  0  0  0  0  0  0  0  0  0
   -1.2376   18.3870  -30.1789 H   0  0  0  0  0  0  0  0  0  0  0  0
    0.2454   19.4004  -30.1789 H   0  0  0  0  0  0  0  0  0  0  0  0
   -0.1400   20.4820  -32.5240 C   0  0  0  0  0  0  0  0  0  0  0  0
    0.8299   20.7376  -32.0724 H   0  0  0  0  0  0  0  0  0  0  0  0
   -0.4350   20.8630  -33.8410 C   0  0  0  0  0  0  0  0  0  0  0  0
    0.5020   21.6520  -34.6120 N   0  0  0  0  0  0  0  0  0  0  0  0
    0.1110   22.6490  -35.5990 C   0  0  0  0  0  0  0  0  0  0  0  0
   -0.3900   22.1677  -36.4518 H   0  0  0  0  0  0  0  0  0  0  0  0
   -0.5955   23.3797  -35.1783 H   0  0  0  0  0  0  0  0  0  0  0  0
    1.4050   23.3160  -36.0510 C   0  0  0  0  0  0  0  0  0  0  0  0
    1.4120   23.4349  -37.1445 H   0  0  0  0  0  0  0  0  0  0  0  0
    1.5156   24.3191  -35.6133 H   0  0  0  0  0  0  0  0  0  0  0  0
    2.5310   22.3880  -35.6120 C   0  0  0  0  0  0  0  0  0  0  0  0
    2.8623   21.7626  -36.4541 H   0  0  0  0  0  0  0  0  0  0  0  0
    3.4082   22.9526  -35.2630 H   0  0  0  0  0  0  0  0  0  0  0  0
    1.9470   21.5220  -34.5070 C   0  0  0  0  0  0  0  0  0  0  0  0
    2.2468   20.4728  -34.6458 H   0  0  0  0  0  0  0  0  0  0  0  0
    2.3075   21.8377  -33.5168 H   0  0  0  0  0  0  0  0  0  0  0  0
   -1.6330   20.4910  -34.3810 N   0  0  0  0  0  0  0  0  0  0  0  0
   -1.8660   20.7400  -35.3700 H   0  0  0  0  0  0  0  0  0  0  0  0
   -5.4140   22.8760  -31.2150 C   0  0  0  0  0  0  0  0  0  0  0  0
   -6.2080   24.0320  -31.2990 C   0  0  0  0  0  0  0  0  0  0  0  0
   -7.1878   23.9890  -31.7970 H   0  0  0  0  0  0  0  0  0  0  0  0
   -5.7580   25.2340  -30.7530 C   0  0  0  0  0  0  0  0  0  0  0  0
   -6.3819   26.1369  -30.8273 H   0  0  0  0  0  0  0  0  0  0  0  0
   -4.5180   25.2960  -30.1120 C   0  0  0  0  0  0  0  0  0  0  0  0
   -4.1757   26.2461  -29.6761 H   0  0  0  0  0  0  0  0  0  0  0  0
   -3.7040   24.1520  -30.0200 C   0  0  0  0  0  0  0  0  0  0  0  0
   -2.4340   24.1980  -29.3320 N   0  0  0  0  0  0  0  0  0  0  0  0
   -1.3470   23.3100  -29.7570 C   0  0  0  0  0  0  0  0  0  0  0  0
   -1.7368   22.2877  -29.8707 H   0  0  0  0  0  0  0  0  0  0  0  0
   -0.9458   23.6686  -30.7164 H   0  0  0  0  0  0  0  0  0  0  0  0
   -0.2290   23.3100  -28.7200 C   0  0  0  0  0  0  0  0  0  0  0  0
   -0.5934   22.8527  -27.7883 H   0  0  0  0  0  0  0  0  0  0  0  0
    0.6255   22.7326  -29.1028 H   0  0  0  0  0  0  0  0  0  0  0  0
    0.1770   24.6360  -28.4650 O   0  0  0  0  0  0  0  0  0  0  0  0
   -0.8450   25.3970  -27.8260 C   0  0  0  0  0  0  0  0  0  0  0  0
   -0.6577   25.3661  -26.7425 H   0  0  0  0  0  0  0  0  0  0  0  0
   -0.7828   26.4015  -28.2699 H   0  0  0  0  0  0  0  0  0  0  0  0
   -2.3010   24.9300  -28.0660 C   0  0  0  0  0  0  0  0  0  0  0  0
   -2.6050   24.2710  -27.2394 H   0  0  0  0  0  0  0  0  0  0  0  0
   -2.9436   25.8214  -28.1157 H   0  0  0  0  0  0  0  0  0  0  0  0
   -4.1600   22.9490  -30.5880 C   0  0  0  0  0  0  0  0  0  0  0  0
   -3.5249   22.0522  -30.5403 H   0  0  0  0  0  0  0  0  0  0  0  0
  1  2  1  0
  2  3  2  0
  3  4  1  0
  3  5  1  0
  5  6  2  0
  6  7  1  0
  6  8  1  0
  8  9  1  0
  8 10  2  0
 10 11  1  0
 11 12  1  0
 12 13  1  0
 12 14  1  0
 12 15  1  0
 10 16  1  0
 16 17  1  0
 16 18  2  0
 18 19  1  0
 19 20  2  0
 20 21  1  0
 21 22  2  0
 22 23  1  0
 23 24  1  0
 23 25  1  0
 23 26  1  0
 22 27  1  0
 27 28  1  0
 27 29  2  0
 29 30  1  0
 30 31  1  0
 31 32  1  0
 31 33  1  0
 31 34  1  0
 34 35  1  0
 34 36  1  0
 34 37  1  0
 37 38  1  0
 37 39  1  0
 37 40  1  0
 40 41  1  0
 40 42  1  0
 29 43  1  0
 43 44  1  0
  2 45  1  0
 45 46  2  0
 46 47  1  0
 46 48  1  0
 48 49  1  0
 48 50  2  0
 50 51  1  0
 50 52  1  0
 52 53  1  0
 53 54  1  0
 54 55  1  0
 54 56  1  0
 54 57  1  0
 57 58  1  0
 57 59  1  0
 57 60  1  0
 60 61  1  0
 61 62  1  0
 61 63  1  0
 61 64  1  0
 64 65  1  0
 64 66  1  0
 52 67  2  0
 67 68  1  0
 18  5  1  0
 43 20  1  0
 67 45  1  0
 40 30  1  0
 64 53  1  0
M  END
>  <UniqueID>  (42) 
40

>  <SMILES>  (42) 
COc1ccc(/C=C/c2cccc(N3CCOCC3)c2)c(/N=c2\nc(C)cc(N3CCCC3)[nH]2)c1

>  <Energy>  (42) 
94.63968548121784

>  <Genealogy>  (42) 
COc1ccc(/C=C/c2cccc(N3CCOCC3)c2)c(/N=c2\nc(C)cc(N3CCCC3)[nH]2)c1 (cis-trans isomerization)
COc1ccc(/C=C/c2cccc(N3CCOCC3)c2)c(/N=c2\nc(C)cc(N3CCCC3)[nH]2)c1 (3D coordinates assigned)
COc1ccc(/C=C/c2cccc(N3CCOCC3)c2)c(/N=c2\nc(C)cc(N3CCCC3)[nH]2)c1 (nonaromatic ring conformer: 94.63968548121784 kcal/mol)

>  <smiles>  (42) 
COc1ccc(C=Cc2cccc(N3CCOCC3)c2)c(N=c2nc(C)cc(N3CCCC3)[nH]2)c1

>  <score_type>  (42) 
oracle

>  <origin>  (42) 
adgpu

>  <m_score__min__energy>  (42) 
-10.57

>  <m_primary>  (42) 
energy

$$$$
42:0
     RDKit          3D

 41 43  0  0  0  0  0  0  0  0999 V2000
    2.3326   19.1121  -30.6996 H   0  0  0  0  0  0  0  0  0  0  0  0
    1.5600   19.3060  -29.9410 C   0  0  0  0  0  0  0  0  0  0  0  0
    1.7440   18.8660  -28.6310 C   0  0  0  0  0  0  0  0  0  0  0  0
    2.6588   18.3189  -28.3594 H   0  0  0  0  0  0  0  0  0  0  0  0
    0.7700   19.1180  -27.6630 C   0  0  0  0  0  0  0  0  0  0  0  0
    0.9263   18.7779  -26.6286 H   0  0  0  0  0  0  0  0  0  0  0  0
   -0.4080   19.8030  -28.0020 C   0  0  0  0  0  0  0  0  0  0  0  0
   -1.6270   20.1210  -26.7630 S   0  0  0  0  0  0  0  0  0  0  0  0
   -1.0920   21.1240  -25.7790 O   0  0  0  0  0  0  0  0  0  0  0  0
   -1.9530   18.8400  -26.0480 O   0  0  0  0  0  0  0  0  0  0  0  0
   -3.0720   20.7540  -27.4730 N   0  0  0  0  0  0  0  0  0  0  0  0
   -2.8410   21.7030  -27.8430 H   0  0  0  0  0  0  0  0  0  0  0  0
   -3.2940   20.1560  -28.3000 H   0  0  0  0  0  0  0  0  0  0  0  0
   -0.6090   20.2290  -29.3320 C   0  0  0  0  0  0  0  0  0  0  0  0
   -1.7940   20.9760  -29.6650 N   0  0  0  0  0  0  0  0  0  0  0  0
   -1.9710   22.2570  -29.5330 C   0  0  0  0  0  0  0  0  0  0  0  0
   -0.9640   23.0730  -29.1190 N   0  0  0  0  0  0  0  0  0  0  0  0
   -1.1650   24.4090  -29.0100 C   0  0  0  0  0  0  0  0  0  0  0  0
   -0.1190   25.2260  -28.5710 O   0  0  0  0  0  0  0  0  0  0  0  0
    0.1120   25.5080  -27.1960 C   0  0  0  0  0  0  0  0  0  0  0  0
   -0.4637   24.8052  -26.5758 H   0  0  0  0  0  0  0  0  0  0  0  0
    1.1840   25.3993  -26.9745 H   0  0  0  0  0  0  0  0  0  0  0  0
   -0.2056   26.5376  -26.9745 H   0  0  0  0  0  0  0  0  0  0  0  0
   -2.3770   24.9370  -29.3300 N   0  0  0  0  0  0  0  0  0  0  0  0
   -3.3810   24.1350  -29.7640 C   0  0  0  0  0  0  0  0  0  0  0  0
   -4.5360   24.6620  -30.0480 N   0  0  0  0  0  0  0  0  0  0  0  0
   -5.6910   23.9820  -30.5670 C   0  0  0  0  0  0  0  0  0  0  0  0
   -6.4490   23.1840  -29.6990 C   0  0  0  0  0  0  0  0  0  0  0  0
   -6.1381   23.0714  -28.6499 H   0  0  0  0  0  0  0  0  0  0  0  0
   -7.5970   22.5300  -30.1560 C   0  0  0  0  0  0  0  0  0  0  0  0
   -8.1766   21.8943  -29.4705 H   0  0  0  0  0  0  0  0  0  0  0  0
   -8.0100   22.6830  -31.4850 C   0  0  0  0  0  0  0  0  0  0  0  0
   -9.1930   22.0110  -31.9540 C   0  0  0  0  0  0  0  0  0  0  0  0
  -10.1440   21.4720  -32.3330 N   0  0  0  0  0  0  0  0  0  0  0  0
   -7.2780   23.5040  -32.3500 C   0  0  0  0  0  0  0  0  0  0  0  0
   -7.6063   23.6345  -33.3917 H   0  0  0  0  0  0  0  0  0  0  0  0
   -6.1300   24.1590  -31.8930 C   0  0  0  0  0  0  0  0  0  0  0  0
   -5.5673   24.8157  -32.5728 H   0  0  0  0  0  0  0  0  0  0  0  0
   -3.1740   22.7940  -29.8580 N   0  0  0  0  0  0  0  0  0  0  0  0
    0.3950   19.9930  -30.2910 C   0  0  0  0  0  0  0  0  0  0  0  0
    0.2610   20.3519  -31.3221 H   0  0  0  0  0  0  0  0  0  0  0  0
  1  2  1  0
  2  3  2  0
  3  4  1  0
  3  5  1  0
  5  6  1  0
  5  7  2  0
  7  8  1  0
  8  9  2  0
  8 10  2  0
  8 11  1  0
 11 12  1  0
 11 13  1  0
  7 14  1  0
 14 15  1  0
 15 16  2  3
 16 17  1  0
 17 18  2  0
 18 19  1  0
 19 20  1  0
 20 21  1  0
 20 22  1  0
 20 23  1  0
 18 24  1  0
 24 25  1  0
 25 26  2  0
 26 27  1  0
 27 28  2  0
 28 29  1  0
 28 30  1  0
 30 31  1  0
 30 32  2  0
 32 33  1  0
 33 34  3  0
 32 35  1  0
 35 36  1  0
 35 37  2  0
 37 38  1  0
 25 39  1  0
 14 40  2  0
 40 41  1  0
 40  2  1  0
 39 16  1  0
 37 27  1  0
M  CHG  2  24  -1  39  -1
M  END
>  <UniqueID>  (43) 
41

>  <SMILES>  (43) 
COc1nc(=Nc2ccccc2S(N)(=O)=O)[n-]/c(=N\c2ccc(C#N)cc2)[n-]1

>  <Energy>  (43) 
53.62373044995585

>  <Genealogy>  (43) 
COc1nc(=Nc2ccccc2S(N)(=O)=O)[n-]c(=Nc2ccc(C#N)cc2)[n-]1 (protonated)
COc1nc(=Nc2ccccc2S(N)(=O)=O)[n-]/c(=N\c2ccc(C#N)cc2)[n-]1 (cis-trans isomerization)
COc1nc(=Nc2ccccc2S(N)(=O)=O)[n-]/c(=N\c2ccc(C#N)cc2)[n-]1 (3D coordinates assigned)
COc1nc(=Nc2ccccc2S(N)(=O)=O)[n-]/c(=N\c2ccc(C#N)cc2)[n-]1 (optimized conformer: 53.62373044995585 kcal/mol)

>  <smiles>  (43) 
COc1nc(=Nc2ccccc2S(N)(=O)=O)[nH]c(=Nc2ccc(C#N)cc2)[nH]1

>  <score_type>  (43) 
oracle

>  <origin>  (43) 
adgpu

>  <m_score__min__energy>  (43) 
-10.210000000000001

>  <m_primary>  (43) 
energy

$$$$
43:0
     RDKit          3D

 49 51  0  0  0  0  0  0  0  0999 V2000
   -6.2200   18.4950  -33.7390 C   0  0  0  0  0  0  0  0  0  0  0  0
   -6.9130   19.6490  -33.0930 C   0  0  0  0  0  0  0  0  0  0  0  0
   -8.2460   19.7090  -32.9010 N   0  0  0  0  0  0  0  0  0  0  0  0
   -8.5160   20.8630  -32.3110 N   0  0  0  0  0  0  0  0  0  0  0  0
   -9.8630   21.2700  -31.9280 C   0  0  0  0  0  0  0  0  0  0  0  0
   -7.3720   21.5510  -32.1030 C   0  0  0  0  0  0  0  0  0  0  0  0
   -7.2830   22.9100  -31.4710 C   0  0  0  0  0  0  0  0  0  0  0  0
   -6.3230   20.8100  -32.6200 C   0  0  0  0  0  0  0  0  0  0  0  0
   -4.6010   21.1960  -32.6000 S   0  0  0  0  0  0  0  0  0  0  0  0
   -4.4020   22.6770  -32.7660 O   0  0  0  0  0  0  0  0  0  0  0  0
   -3.9180   20.4940  -33.7400 O   0  0  0  0  0  0  0  0  0  0  0  0
   -3.8750   20.6600  -31.0580 C   0  0  0  0  0  0  0  0  0  0  0  0
   -3.1420   21.7970  -30.4040 C   0  0  0  0  0  0  0  0  0  0  0  0
   -1.7420   21.7720  -30.3020 C   0  0  0  0  0  0  0  0  0  0  0  0
   -1.0650   22.7880  -29.6240 C   0  0  0  0  0  0  0  0  0  0  0  0
   -1.7800   23.8380  -29.0330 C   0  0  0  0  0  0  0  0  0  0  0  0
   -0.9300   25.1260  -28.1830 S   0  0  0  0  0  0  0  0  0  0  0  0
   -1.1840   26.4400  -28.8700 O   0  0  0  0  0  0  0  0  0  0  0  0
    0.5470   24.8470  -28.2160 O   0  0  0  0  0  0  0  0  0  0  0  0
   -1.4760   25.1820  -26.5270 N   0  0  0  0  0  0  0  0  0  0  0  0
   -1.4380   26.5450  -26.0000 C   0  0  0  0  0  0  0  0  0  0  0  0
   -1.2560   26.4230  -24.4950 C   0  0  0  0  0  0  0  0  0  0  0  0
   -0.7050   25.0240  -24.2680 C   0  0  0  0  0  0  0  0  0  0  0  0
   -0.6010   24.4020  -25.6520 C   0  0  0  0  0  0  0  0  0  0  0  0
   -3.1760   23.8730  -29.1420 C   0  0  0  0  0  0  0  0  0  0  0  0
   -3.8550   22.8550  -29.8170 C   0  0  0  0  0  0  0  0  0  0  0  0
   -5.8188   17.8269  -32.9626 H   0  0  0  0  0  0  0  0  0  0  0  0
   -6.9353   17.9416  -34.3651 H   0  0  0  0  0  0  0  0  0  0  0  0
   -5.3953   18.8663  -34.3651 H   0  0  0  0  0  0  0  0  0  0  0  0
   -9.9409   21.2936  -30.8310 H   0  0  0  0  0  0  0  0  0  0  0  0
  -10.0723   22.2715  -32.3320 H   0  0  0  0  0  0  0  0  0  0  0  0
  -10.5918   20.5520  -32.3320 H   0  0  0  0  0  0  0  0  0  0  0  0
   -7.2898   22.8063  -30.3759 H   0  0  0  0  0  0  0  0  0  0  0  0
   -6.3508   23.4010  -31.7870 H   0  0  0  0  0  0  0  0  0  0  0  0
   -8.1432   23.5184  -31.7870 H   0  0  0  0  0  0  0  0  0  0  0  0
   -4.6707   20.3066  -30.3857 H   0  0  0  0  0  0  0  0  0  0  0  0
   -3.1641   19.8455  -31.2611 H   0  0  0  0  0  0  0  0  0  0  0  0
   -1.1751   20.9474  -30.7588 H   0  0  0  0  0  0  0  0  0  0  0  0
    0.0325   22.7638  -29.5538 H   0  0  0  0  0  0  0  0  0  0  0  0
   -0.5961   27.0991  -26.4406 H   0  0  0  0  0  0  0  0  0  0  0  0
   -2.3606   27.0915  -26.2454 H   0  0  0  0  0  0  0  0  0  0  0  0
   -0.5463   27.1802  -24.1304 H   0  0  0  0  0  0  0  0  0  0  0  0
   -2.2001   26.5840  -23.9540 H   0  0  0  0  0  0  0  0  0  0  0  0
    0.2857   25.0729  -23.7925 H   0  0  0  0  0  0  0  0  0  0  0  0
   -1.3502   24.4332  -23.6012 H   0  0  0  0  0  0  0  0  0  0  0  0
    0.4371   24.4499  -26.0127 H   0  0  0  0  0  0  0  0  0  0  0  0
   -0.8987   23.3432  -25.6347 H   0  0  0  0  0  0  0  0  0  0  0  0
   -3.7399   24.7048  -28.6947 H   0  0  0  0  0  0  0  0  0  0  0  0
   -4.9523   22.8825  -29.8888 H   0  0  0  0  0  0  0  0  0  0  0  0
  1  2  1  0
  2  3  2  0
  3  4  1  0
  4  5  1  0
  4  6  1  0
  6  7  1  0
  6  8  2  0
  8  9  1  0
  9 10  2  0
  9 11  2  0
  9 12  1  0
 12 13  1  0
 13 14  2  0
 14 15  1  0
 15 16  2  0
 16 17  1  0
 17 18  2  0
 17 19  2  0
 17 20  1  0
 20 21  1  0
 21 22  1  0
 22 23  1  0
 23 24  1  0
 16 25  1  0
 25 26  2  0
  8  2  1  0
 26 13  1  0
 24 20  1  0
  1 27  1  0
  1 28  1  0
  1 29  1  0
  5 30  1  0
  5 31  1  0
  5 32  1  0
  7 33  1  0
  7 34  1  0
  7 35  1  0
 12 36  1  0
 12 37  1  0
 14 38  1  0
 15 39  1  0
 21 40  1  0
 21 41  1  0
 22 42  1  0
 22 43  1  0
 23 44  1  0
 23 45  1  0
 24 46  1  0
 24 47  1  0
 25 48  1  0
 26 49  1  0
M  END
>  <UniqueID>  (44) 
42

>  <SMILES>  (44) 
Cc1nn(C)c(C)c1S(=O)(=O)Cc1ccc(S(=O)(=O)N2CCCC2)cc1

>  <Energy>  (44) 
72.07109532392981

>  <Genealogy>  (44) 
Cc1nn(C)c(C)c1S(=O)(=O)Cc1ccc(S(=O)(=O)N2CCCC2)cc1 (3D coordinates assigned)
Cc1nn(C)c(C)c1S(=O)(=O)Cc1ccc(S(=O)(=O)N2CCCC2)cc1 (nonaromatic ring conformer: 72.07109532392981 kcal/mol)

>  <smiles>  (44) 
Cc1nn(C)c(C)c1S(=O)(=O)Cc1ccc(S(=O)(=O)N2CCCC2)cc1

>  <score_type>  (44) 
oracle

>  <origin>  (44) 
adgpu

>  <m_score__min__energy>  (44) 
-9.3499999999999996

>  <m_primary>  (44) 
energy

$$$$
44:0
     RDKit          3D

 46 49  0  0  0  0  0  0  0  0999 V2000
   -9.1470   17.8530  -31.7950 O   0  0  0  0  0  0  0  0  0  0  0  0
   -8.2800   18.7170  -32.0920 C   0  0  0  0  0  0  0  0  0  0  0  0
   -8.6940   20.1230  -32.4140 C   0  0  0  0  0  0  0  0  0  0  0  0
   -7.6140   21.0560  -32.0690 N   0  0  0  0  0  0  0  0  0  0  0  0
   -7.9700   22.4840  -31.1360 S   0  0  0  0  0  0  0  0  0  0  0  0
   -8.7440   22.0880  -29.9090 O   0  0  0  0  0  0  0  0  0  0  0  0
   -8.7930   23.4480  -31.9440 O   0  0  0  0  0  0  0  0  0  0  0  0
   -6.4750   23.3020  -30.6900 C   0  0  0  0  0  0  0  0  0  0  0  0
   -6.1630   24.5330  -31.2780 C   0  0  0  0  0  0  0  0  0  0  0  0
   -4.9740   25.1870  -30.9510 C   0  0  0  0  0  0  0  0  0  0  0  0
   -4.0850   24.6160  -30.0340 C   0  0  0  0  0  0  0  0  0  0  0  0
   -2.9180   25.2970  -29.7040 O   0  0  0  0  0  0  0  0  0  0  0  0
   -4.3840   23.3740  -29.4420 C   0  0  0  0  0  0  0  0  0  0  0  0
   -3.4780   22.7640  -28.5070 N   0  0  0  0  0  0  0  0  0  0  0  0
   -3.0620   23.4820  -27.2970 C   0  0  0  0  0  0  0  0  0  0  0  0
   -1.5690   23.2400  -26.9890 C   0  0  0  0  0  0  0  0  0  0  0  0
   -1.0540   21.9350  -27.4520 N   0  0  0  0  0  0  0  0  0  0  0  0
   -2.1060   20.9220  -27.6030 C   0  0  0  0  0  0  0  0  0  0  0  0
   -3.1040   21.3560  -28.6810 C   0  0  0  0  0  0  0  0  0  0  0  0
   -5.5850   22.7260  -29.7740 C   0  0  0  0  0  0  0  0  0  0  0  0
   -6.2600   20.7040  -32.4150 C   0  0  0  0  0  0  0  0  0  0  0  0
   -5.2950   21.6800  -32.7170 C   0  0  0  0  0  0  0  0  0  0  0  0
   -3.9850   21.3010  -33.0260 C   0  0  0  0  0  0  0  0  0  0  0  0
   -3.6290   19.9490  -33.0410 C   0  0  0  0  0  0  0  0  0  0  0  0
   -4.5870   18.9700  -32.7610 C   0  0  0  0  0  0  0  0  0  0  0  0
   -5.9050   19.3420  -32.4610 C   0  0  0  0  0  0  0  0  0  0  0  0
   -6.9010   18.3450  -32.1940 N   0  0  0  0  0  0  0  0  0  0  0  0
   -8.9132   20.2010  -33.4891 H   0  0  0  0  0  0  0  0  0  0  0  0
   -9.5912   20.3777  -31.8309 H   0  0  0  0  0  0  0  0  0  0  0  0
   -6.8573   24.9869  -32.0005 H   0  0  0  0  0  0  0  0  0  0  0  0
   -4.7351   26.1548  -31.4160 H   0  0  0  0  0  0  0  0  0  0  0  0
   -3.2278   24.5594  -27.4444 H   0  0  0  0  0  0  0  0  0  0  0  0
   -3.6569   23.1100  -26.4498 H   0  0  0  0  0  0  0  0  0  0  0  0
   -0.9840   24.0335  -27.4771 H   0  0  0  0  0  0  0  0  0  0  0  0
   -1.4695   23.2460  -25.8935 H   0  0  0  0  0  0  0  0  0  0  0  0
   -0.5850   22.0640  -28.3790 H   0  0  0  0  0  0  0  0  0  0  0  0
   -1.6498   19.9643  -27.8940 H   0  0  0  0  0  0  0  0  0  0  0  0
   -2.6365   20.8085  -26.6461 H   0  0  0  0  0  0  0  0  0  0  0  0
   -2.6447   21.2245  -29.6718 H   0  0  0  0  0  0  0  0  0  0  0  0
   -4.0091   20.7370  -28.5938 H   0  0  0  0  0  0  0  0  0  0  0  0
   -5.8289   21.7584  -29.3111 H   0  0  0  0  0  0  0  0  0  0  0  0
   -5.5709   22.7448  -32.7103 H   0  0  0  0  0  0  0  0  0  0  0  0
   -3.2323   22.0688  -33.2580 H   0  0  0  0  0  0  0  0  0  0  0  0
   -2.5946   19.6554  -33.2732 H   0  0  0  0  0  0  0  0  0  0  0  0
   -4.3063   17.9065  -32.7761 H   0  0  0  0  0  0  0  0  0  0  0  0
   -6.6280   17.3410  -32.0930 H   0  0  0  0  0  0  0  0  0  0  0  0
  1  2  2  0
  2  3  1  0
  3  4  1  0
  4  5  1  0
  5  6  2  0
  5  7  2  0
  5  8  1  0
  8  9  2  0
  9 10  1  0
 10 11  2  0
 11 12  1  0
 11 13  1  0
 13 14  1  0
 14 15  1  0
 15 16  1  0
 16 17  1  0
 17 18  1  0
 18 19  1  0
 13 20  2  0
  4 21  1  0
 21 22  2  0
 22 23  1  0
 23 24  2  0
 24 25  1  0
 25 26  2  0
 26 27  1  0
 27  2  1  0
 20  8  1  0
 26 21  1  0
 19 14  1  0
  3 28  1  0
  3 29  1  0
  9 30  1  0
 10 31  1  0
 15 32  1  0
 15 33  1  0
 16 34  1  0
 16 35  1  0
 17 36  1  0
 18 37  1  0
 18 38  1  0
 19 39  1  0
 19 40  1  0
 20 41  1  0
 22 42  1  0
 23 43  1  0
 24 44  1  0
 25 45  1  0
 27 46  1  0
M  CHG  1  12  -1
M  END
>  <UniqueID>  (45) 
43

>  <SMILES>  (45) 
O=C1CN(S(=O)(=O)c2ccc([O-])c(N3CCNCC3)c2)c2ccccc2N1

>  <Energy>  (45) 
63.68677755416439

>  <Genealogy>  (45) 
O=C1CN(S(=O)(=O)c2ccc([O-])c(N3CCNCC3)c2)c2ccccc2N1 (protonated)
O=C1CN(S(=O)(=O)c2ccc([O-])c(N3CCNCC3)c2)c2ccccc2N1 (3D coordinates assigned)
O=C1CN(S(=O)(=O)c2ccc([O-])c(N3CCNCC3)c2)c2ccccc2N1 (nonaromatic ring conformer: 63.68677755416439 kcal/mol)

>  <smiles>  (45) 
O=C1CN(S(=O)(=O)c2ccc(O)c(N3CCNCC3)c2)c2ccccc2N1

>  <score_type>  (45) 
oracle

>  <origin>  (45) 
adgpu

>  <m_score__min__energy>  (45) 
-12.039999999999999

>  <m_primary>  (45) 
energy

$$$$
45:0
     RDKit          3D

 43 45  0  0  0  0  0  0  0  0999 V2000
   -6.0660   25.3720  -29.5460 O   0  0  0  0  0  0  0  0  0  0  0  0
   -4.8220   24.6100  -29.9140 S   0  0  0  0  0  0  0  0  0  0  0  0
   -3.9630   25.4910  -30.7770 O   0  0  0  0  0  0  0  0  0  0  0  0
   -3.9450   24.2040  -28.4730 N   0  0  0  0  0  0  0  0  0  0  0  0
   -2.6600   23.5650  -28.4280 C   0  0  0  0  0  0  0  0  0  0  0  0
   -2.5090   22.2450  -27.9620 C   0  0  0  0  0  0  0  0  0  0  0  0
   -1.2430   21.6540  -27.9200 C   0  0  0  0  0  0  0  0  0  0  0  0
   -0.1220   22.3650  -28.3410 C   0  0  0  0  0  0  0  0  0  0  0  0
   -0.2610   23.6710  -28.8150 C   0  0  0  0  0  0  0  0  0  0  0  0
   -1.5220   24.2750  -28.8640 C   0  0  0  0  0  0  0  0  0  0  0  0
   -1.6210   25.5800  -29.3410 O   0  0  0  0  0  0  0  0  0  0  0  0
   -5.2130   23.1470  -30.8100 C   0  0  0  0  0  0  0  0  0  0  0  0
   -6.3120   23.1080  -31.6810 C   0  0  0  0  0  0  0  0  0  0  0  0
   -6.6060   21.9400  -32.3870 C   0  0  0  0  0  0  0  0  0  0  0  0
   -5.8010   20.8020  -32.2360 C   0  0  0  0  0  0  0  0  0  0  0  0
   -6.1440   19.3430  -33.1650 S   0  0  0  0  0  0  0  0  0  0  0  0
   -7.2780   18.6030  -32.5110 O   0  0  0  0  0  0  0  0  0  0  0  0
   -6.5610   19.7190  -34.5610 O   0  0  0  0  0  0  0  0  0  0  0  0
   -4.7290   18.3180  -33.2180 N   0  0  0  0  0  0  0  0  0  0  0  0
   -3.5850   19.0750  -33.7590 C   0  0  0  0  0  0  0  0  0  0  0  0
   -2.4490   18.1260  -34.1860 C   0  0  0  0  0  0  0  0  0  0  0  0
   -2.8270   17.0760  -35.0680 O   0  0  0  0  0  0  0  0  0  0  0  0
   -4.2230   16.9940  -35.2860 C   0  0  0  0  0  0  0  0  0  0  0  0
   -5.0080   17.0720  -33.9680 C   0  0  0  0  0  0  0  0  0  0  0  0
   -4.7010   20.8450  -31.3720 C   0  0  0  0  0  0  0  0  0  0  0  0
   -4.4120   22.0090  -30.6580 C   0  0  0  0  0  0  0  0  0  0  0  0
   -3.3904   21.6768  -27.6298 H   0  0  0  0  0  0  0  0  0  0  0  0
   -1.1317   20.6231  -27.5529 H   0  0  0  0  0  0  0  0  0  0  0  0
    0.8730   21.8977  -28.3001 H   0  0  0  0  0  0  0  0  0  0  0  0
    0.6258   24.2280  -29.1517 H   0  0  0  0  0  0  0  0  0  0  0  0
   -2.4920   26.0950  -29.3370 H   0  0  0  0  0  0  0  0  0  0  0  0
   -6.9435   23.9997  -31.8080 H   0  0  0  0  0  0  0  0  0  0  0  0
   -7.4724   21.9124  -33.0642 H   0  0  0  0  0  0  0  0  0  0  0  0
   -3.9177   19.6544  -34.6329 H   0  0  0  0  0  0  0  0  0  0  0  0
   -3.2055   19.7460  -32.9743 H   0  0  0  0  0  0  0  0  0  0  0  0
   -1.6755   18.7270  -34.6865 H   0  0  0  0  0  0  0  0  0  0  0  0
   -2.1025   17.6359  -33.2642 H   0  0  0  0  0  0  0  0  0  0  0  0
   -4.5322   17.8265  -35.9352 H   0  0  0  0  0  0  0  0  0  0  0  0
   -4.4405   16.0248  -35.7585 H   0  0  0  0  0  0  0  0  0  0  0  0
   -6.0836   17.0292  -34.1943 H   0  0  0  0  0  0  0  0  0  0  0  0
   -4.6944   16.2251  -33.3401 H   0  0  0  0  0  0  0  0  0  0  0  0
   -4.0614   19.9577  -31.2551 H   0  0  0  0  0  0  0  0  0  0  0  0
   -3.5515   22.0322  -29.9732 H   0  0  0  0  0  0  0  0  0  0  0  0
  1  2  2  0
  2  3  2  0
  2  4  1  0
  4  5  1  0
  5  6  2  0
  6  7  1  0
  7  8  2  0
  8  9  1  0
  9 10  2  0
 10 11  1  0
  2 12  1  0
 12 13  2  0
 13 14  1  0
 14 15  2  0
 15 16  1  0
 16 17  2  0
 16 18  2  0
 16 19  1  0
 19 20  1  0
 20 21  1  0
 21 22  1  0
 22 23  1  0
 23 24  1  0
 15 25  1  0
 25 26  2  0
 10  5  1  0
 26 12  1  0
 24 19  1  0
  6 27  1  0
  7 28  1  0
  8 29  1  0
  9 30  1  0
 11 31  1  0
 13 32  1  0
 14 33  1  0
 20 34  1  0
 20 35  1  0
 21 36  1  0
 21 37  1  0
 23 38  1  0
 23 39  1  0
 24 40  1  0
 24 41  1  0
 25 42  1  0
 26 43  1  0
M  CHG  1   4  -1
M  END
>  <UniqueID>  (46) 
44

>  <SMILES>  (46) 
O=S(=O)([N-]c1ccccc1O)c1ccc(S(=O)(=O)N2CCOCC2)cc1

>  <Energy>  (46) 
60.62274823359893

>  <Genealogy>  (46) 
O=S(=O)([N-]c1ccccc1O)c1ccc(S(=O)(=O)N2CCOCC2)cc1 (protonated)
O=S(=O)([N-]c1ccccc1O)c1ccc(S(=O)(=O)N2CCOCC2)cc1 (3D coordinates assigned)
O=S(=O)([N-]c1ccccc1O)c1ccc(S(=O)(=O)N2CCOCC2)cc1 (nonaromatic ring conformer: 60.62274823359893 kcal/mol)

>  <smiles>  (46) 
O=S(=O)(Nc1ccccc1O)c1ccc(S(=O)(=O)N2CCOCC2)cc1

>  <score_type>  (46) 
oracle

>  <origin>  (46) 
adgpu

>  <m_score__min__energy>  (46) 
-11.210000000000001

>  <m_primary>  (46) 
energy

$$$$
46:0
     RDKit          3D

 58 61  0  0  0  0  0  0  0  0999 V2000
   -2.3440   19.5080  -26.3210 C   0  0  0  0  0  0  0  0  0  0  0  0
   -1.7060   20.3880  -27.3540 C   0  0  0  0  0  0  0  0  0  0  0  0
   -1.9230   20.1500  -28.7190 C   0  0  0  0  0  0  0  0  0  0  0  0
   -1.3440   20.9840  -29.6870 C   0  0  0  0  0  0  0  0  0  0  0  0
   -1.6010   20.7430  -31.1450 C   0  0  0  0  0  0  0  0  0  0  0  0
   -0.5770   22.0860  -29.2800 C   0  0  0  0  0  0  0  0  0  0  0  0
   -0.3580   22.3330  -27.9170 C   0  0  0  0  0  0  0  0  0  0  0  0
    0.6380   23.6890  -27.3930 S   0  0  0  0  0  0  0  0  0  0  0  0
    1.0870   24.4860  -28.5870 O   0  0  0  0  0  0  0  0  0  0  0  0
    1.8590   23.1450  -26.7040 O   0  0  0  0  0  0  0  0  0  0  0  0
   -0.2430   24.7580  -26.2820 C   0  0  0  0  0  0  0  0  0  0  0  0
    0.3870   25.1170  -25.0790 C   0  0  0  0  0  0  0  0  0  0  0  0
   -0.2160   26.0100  -24.1940 C   0  0  0  0  0  0  0  0  0  0  0  0
   -1.4570   26.5620  -24.4990 C   0  0  0  0  0  0  0  0  0  0  0  0
   -2.1080   26.2100  -25.6810 C   0  0  0  0  0  0  0  0  0  0  0  0
   -1.5260   25.2950  -26.5790 C   0  0  0  0  0  0  0  0  0  0  0  0
   -2.3070   24.9260  -27.7830 C   0  0  0  0  0  0  0  0  0  0  0  0
   -1.9810   25.4070  -28.9030 O   0  0  0  0  0  0  0  0  0  0  0  0
   -3.4370   24.0520  -27.6780 N   0  0  0  0  0  0  0  0  0  0  0  0
   -4.3190   23.6740  -28.7430 C   0  0  0  0  0  0  0  0  0  0  0  0
   -5.3410   24.5550  -29.1180 C   0  0  0  0  0  0  0  0  0  0  0  0
   -6.2030   24.2350  -30.1710 C   0  0  0  0  0  0  0  0  0  0  0  0
   -6.0440   23.0320  -30.8700 C   0  0  0  0  0  0  0  0  0  0  0  0
   -7.1330   22.6210  -32.1900 S   0  0  0  0  0  0  0  0  0  0  0  0
   -8.4900   22.2440  -31.6610 O   0  0  0  0  0  0  0  0  0  0  0  0
   -7.2740   23.8150  -33.0900 O   0  0  0  0  0  0  0  0  0  0  0  0
   -6.4930   21.2930  -33.1110 N   0  0  0  0  0  0  0  0  0  0  0  0
   -6.7660   20.0280  -32.9490 C   0  0  0  0  0  0  0  0  0  0  0  0
   -7.6600   19.5710  -31.9600 C   0  0  0  0  0  0  0  0  0  0  0  0
   -7.9020   18.2030  -31.8300 C   0  0  0  0  0  0  0  0  0  0  0  0
   -7.2630   17.2990  -32.6770 C   0  0  0  0  0  0  0  0  0  0  0  0
   -6.3860   17.7810  -33.6480 C   0  0  0  0  0  0  0  0  0  0  0  0
   -6.1570   19.1170  -33.7650 N   0  0  0  0  0  0  0  0  0  0  0  0
   -5.0050   22.1600  -30.5180 C   0  0  0  0  0  0  0  0  0  0  0  0
   -4.1440   22.4790  -29.4640 C   0  0  0  0  0  0  0  0  0  0  0  0
   -0.9360   21.4920  -26.9580 C   0  0  0  0  0  0  0  0  0  0  0  0
   -2.0806   19.8712  -25.3167 H   0  0  0  0  0  0  0  0  0  0  0  0
   -3.4368   19.5308  -26.4443 H   0  0  0  0  0  0  0  0  0  0  0  0
   -1.9825   18.4764  -26.4443 H   0  0  0  0  0  0  0  0  0  0  0  0
   -2.5515   19.3035  -29.0327 H   0  0  0  0  0  0  0  0  0  0  0  0
   -2.3992   19.9945  -31.2578 H   0  0  0  0  0  0  0  0  0  0  0  0
   -1.9105   21.6840  -31.6232 H   0  0  0  0  0  0  0  0  0  0  0  0
   -0.6818   20.3737  -31.6232 H   0  0  0  0  0  0  0  0  0  0  0  0
   -0.1450   22.7601  -30.0343 H   0  0  0  0  0  0  0  0  0  0  0  0
    1.3692   24.6879  -24.8318 H   0  0  0  0  0  0  0  0  0  0  0  0
    0.2892   26.2784  -23.2544 H   0  0  0  0  0  0  0  0  0  0  0  0
   -1.9250   27.2771  -23.8065 H   0  0  0  0  0  0  0  0  0  0  0  0
   -3.0877   26.6524  -25.9145 H   0  0  0  0  0  0  0  0  0  0  0  0
   -5.4664   25.5061  -28.5798 H   0  0  0  0  0  0  0  0  0  0  0  0
   -7.0083   24.9300  -30.4512 H   0  0  0  0  0  0  0  0  0  0  0  0
   -8.1636   20.2880  -31.2950 H   0  0  0  0  0  0  0  0  0  0  0  0
   -8.5969   17.8380  -31.0593 H   0  0  0  0  0  0  0  0  0  0  0  0
   -7.4482   16.2190  -32.5806 H   0  0  0  0  0  0  0  0  0  0  0  0
   -5.8766   17.0774  -34.3229 H   0  0  0  0  0  0  0  0  0  0  0  0
   -5.4910   19.4460  -34.5000 H   0  0  0  0  0  0  0  0  0  0  0  0
   -4.8664   21.2207  -31.0734 H   0  0  0  0  0  0  0  0  0  0  0  0
   -3.3265   21.7929  -29.1974 H   0  0  0  0  0  0  0  0  0  0  0  0
   -0.7855   21.6981  -25.8880 H   0  0  0  0  0  0  0  0  0  0  0  0
  1  2  1  0
  2  3  2  0
  3  4  1  0
  4  5  1  0
  4  6  2  0
  6  7  1  0
  7  8  1  0
  8  9  2  0
  8 10  2  0
  8 11  1  0
 11 12  2  0
 12 13  1  0
 13 14  2  0
 14 15  1  0
 15 16  2  0
 16 17  1  0
 17 18  2  0
 17 19  1  0
 19 20  1  0
 20 21  2  0
 21 22  1  0
 22 23  2  0
 23 24  1  0
 24 25  2  0
 24 26  2  0
 24 27  1  0
 27 28  2  3
 28 29  1  0
 29 30  2  0
 30 31  1  0
 31 32  2  0
 32 33  1  0
 23 34  1  0
 34 35  2  0
  7 36  2  0
 36  2  1  0
 16 11  1  0
 35 20  1  0
 33 28  1  0
  1 37  1  0
  1 38  1  0
  1 39  1  0
  3 40  1  0
  5 41  1  0
  5 42  1  0
  5 43  1  0
  6 44  1  0
 12 45  1  0
 13 46  1  0
 14 47  1  0
 15 48  1  0
 21 49  1  0
 22 50  1  0
 29 51  1  0
 30 52  1  0
 31 53  1  0
 32 54  1  0
 33 55  1  0
 34 56  1  0
 35 57  1  0
 36 58  1  0
M  CHG  1  19  -1
M  END
>  <UniqueID>  (47) 
45

>  <SMILES>  (47) 
Cc1cc(C)cc(S(=O)(=O)c2ccccc2C(=O)[N-]c2ccc(S(=O)(=O)N=c3cccc[nH]3)cc2)c1

>  <Energy>  (47) 
76.64866291937565

>  <Genealogy>  (47) 
Cc1cc(C)cc(S(=O)(=O)c2ccccc2C(=O)[N-]c2ccc(S(=O)(=O)N=c3cccc[nH]3)cc2)c1 (protonated)
Cc1cc(C)cc(S(=O)(=O)c2ccccc2C(=O)[N-]c2ccc(S(=O)(=O)N=c3cccc[nH]3)cc2)c1 (3D coordinates assigned)
Cc1cc(C)cc(S(=O)(=O)c2ccccc2C(=O)[N-]c2ccc(S(=O)(=O)N=c3cccc[nH]3)cc2)c1 (optimized conformer: 76.64866291937565 kcal/mol)

>  <smiles>  (47) 
Cc1cc(C)cc(S(=O)(=O)c2ccccc2C(=O)Nc2ccc(S(=O)(=O)N=c3cccc[nH]3)cc2)c1

>  <score_type>  (47) 
oracle

>  <origin>  (47) 
adgpu

>  <m_score__min__energy>  (47) 
-12.17

>  <m_primary>  (47) 
energy

$$$$
47:0
     RDKit          3D

 29 30  0  0  0  0  0  0  0  0999 V2000
   -9.0180   21.4590  -31.7450 C   0  0  0  0  0  0  0  0  0  0  0  0
   -7.5680   21.8530  -31.7870 C   0  0  0  0  0  0  0  0  0  0  0  0
   -7.1410   23.0460  -31.1820 C   0  0  0  0  0  0  0  0  0  0  0  0
   -5.7860   23.4070  -31.2040 C   0  0  0  0  0  0  0  0  0  0  0  0
   -5.2590   24.8990  -30.4300 S   0  0  0  0  0  0  0  0  0  0  0  0
   -5.8580   24.9710  -29.0540 O   0  0  0  0  0  0  0  0  0  0  0  0
   -5.7080   26.0950  -31.2240 O   0  0  0  0  0  0  0  0  0  0  0  0
   -3.5310   24.9250  -30.2970 N   0  0  0  0  0  0  0  0  0  0  0  0
   -2.7710   24.3260  -29.2370 C   0  0  0  0  0  0  0  0  0  0  0  0
   -3.1460   23.0990  -28.6540 C   0  0  0  0  0  0  0  0  0  0  0  0
   -2.3850   22.5520  -27.6170 C   0  0  0  0  0  0  0  0  0  0  0  0
   -1.2470   23.2170  -27.1550 C   0  0  0  0  0  0  0  0  0  0  0  0
   -0.8660   24.4310  -27.7300 C   0  0  0  0  0  0  0  0  0  0  0  0
   -1.6240   24.9850  -28.7670 C   0  0  0  0  0  0  0  0  0  0  0  0
   -1.2350   26.1960  -29.3290 O   0  0  0  0  0  0  0  0  0  0  0  0
   -4.8560   22.5770  -31.8410 C   0  0  0  0  0  0  0  0  0  0  0  0
   -5.2750   21.3870  -32.4420 C   0  0  0  0  0  0  0  0  0  0  0  0
   -6.6240   21.0200  -32.4150 C   0  0  0  0  0  0  0  0  0  0  0  0
   -7.0200   19.8280  -33.0120 O   0  0  0  0  0  0  0  0  0  0  0  0
   -9.3437   21.3705  -30.6981 H   0  0  0  0  0  0  0  0  0  0  0  0
   -9.6212   22.2258  -32.2531 H   0  0  0  0  0  0  0  0  0  0  0  0
   -9.1502   20.4924  -32.2531 H   0  0  0  0  0  0  0  0  0  0  0  0
   -7.8735   23.7012  -30.6879 H   0  0  0  0  0  0  0  0  0  0  0  0
   -4.0401   22.5703  -29.0160 H   0  0  0  0  0  0  0  0  0  0  0  0
   -2.6832   21.5952  -27.1635 H   0  0  0  0  0  0  0  0  0  0  0  0
   -0.6508   22.7843  -26.3381 H   0  0  0  0  0  0  0  0  0  0  0  0
    0.0318   24.9527  -27.3669 H   0  0  0  0  0  0  0  0  0  0  0  0
   -3.7939   22.8619  -31.8685 H   0  0  0  0  0  0  0  0  0  0  0  0
   -4.5403   20.7361  -32.9385 H   0  0  0  0  0  0  0  0  0  0  0  0
  1  2  1  0
  2  3  2  0
  3  4  1  0
  4  5  1  0
  5  6  2  0
  5  7  2  0
  5  8  1  0
  8  9  1  0
  9 10  2  0
 10 11  1  0
 11 12  2  0
 12 13  1  0
 13 14  2  0
 14 15  1  0
  4 16  2  0
 16 17  1  0
 17 18  2  0
 18 19  1  0
 18  2  1  0
 14  9  1  0
  1 20  1  0
  1 21  1  0
  1 22  1  0
  3 23  1  0
 10 24  1  0
 11 25  1  0
 12 26  1  0
 13 27  1  0
 16 28  1  0
 17 29  1  0
M  CHG  3   8  -1  15  -1  19  -1
M  END
>  <UniqueID>  (48) 
46

>  <SMILES>  (48) 
Cc1cc(S(=O)(=O)[N-]c2ccccc2[O-])ccc1[O-]

>  <Energy>  (48) 
32.855780382402656

>  <Genealogy>  (48) 
Cc1cc(S(=O)(=O)[N-]c2ccccc2[O-])ccc1[O-] (protonated)
Cc1cc(S(=O)(=O)[N-]c2ccccc2[O-])ccc1[O-] (3D coordinates assigned)
Cc1cc(S(=O)(=O)[N-]c2ccccc2[O-])ccc1[O-] (optimized conformer: 32.855780382402656 kcal/mol)

>  <smiles>  (48) 
Cc1cc(S(=O)(=O)Nc2ccccc2O)ccc1O

>  <score_type>  (48) 
oracle

>  <origin>  (48) 
adgpu

>  <m_score__min__energy>  (48) 
-11.800000000000001

>  <m_primary>  (48) 
energy

$$$$
48:0
     RDKit          3D

 54 57  0  0  0  0  0  0  0  0999 V2000
   -4.6750   24.8870  -30.9110 O   0  0  0  0  0  0  0  0  0  0  0  0
   -5.5560   24.1670  -30.3680 C   0  0  0  0  0  0  0  0  0  0  0  0
   -6.9200   24.0900  -30.9830 C   0  0  0  0  0  0  0  0  0  0  0  0
   -6.8410   23.4870  -32.3890 C   0  0  0  0  0  0  0  0  0  0  0  0
   -6.2130   22.1100  -32.3500 C   0  0  0  0  0  0  0  0  0  0  0  0
   -4.8160   22.0190  -32.4840 C   0  0  0  0  0  0  0  0  0  0  0  0
   -4.1730   20.7820  -32.4660 C   0  0  0  0  0  0  0  0  0  0  0  0
   -4.9100   19.6090  -32.3230 C   0  0  0  0  0  0  0  0  0  0  0  0
   -6.3060   19.6610  -32.2070 C   0  0  0  0  0  0  0  0  0  0  0  0
   -7.0390   18.4710  -32.0780 C   0  0  0  0  0  0  0  0  0  0  0  0
   -8.4290   18.5090  -31.9730 C   0  0  0  0  0  0  0  0  0  0  0  0
   -9.1000   19.7300  -31.9990 C   0  0  0  0  0  0  0  0  0  0  0  0
   -8.3860   20.9250  -32.1250 C   0  0  0  0  0  0  0  0  0  0  0  0
   -6.9770   20.9150  -32.2270 C   0  0  0  0  0  0  0  0  0  0  0  0
   -5.2900   23.4980  -29.1250 N   0  0  0  0  0  0  0  0  0  0  0  0
   -3.9830   23.3670  -28.5430 C   0  0  0  0  0  0  0  0  0  0  0  0
   -3.5330   22.0990  -28.1450 C   0  0  0  0  0  0  0  0  0  0  0  0
   -2.2550   21.9400  -27.6000 C   0  0  0  0  0  0  0  0  0  0  0  0
   -1.4110   23.0430  -27.4600 C   0  0  0  0  0  0  0  0  0  0  0  0
   -1.8390   24.3130  -27.8710 C   0  0  0  0  0  0  0  0  0  0  0  0
   -0.7750   25.7110  -27.7390 S   0  0  0  0  0  0  0  0  0  0  0  0
   -0.8990   26.5740  -28.9650 O   0  0  0  0  0  0  0  0  0  0  0  0
    0.6440   25.2250  -27.6320 O   0  0  0  0  0  0  0  0  0  0  0  0
   -1.1880   26.6390  -26.3190 N   0  0  0  0  0  0  0  0  0  0  0  0
   -0.0740   27.5370  -25.9610 C   0  0  0  0  0  0  0  0  0  0  0  0
   -0.1730   27.9640  -24.4870 C   0  0  0  0  0  0  0  0  0  0  0  0
   -0.1320   26.8810  -23.5640 O   0  0  0  0  0  0  0  0  0  0  0  0
   -0.5040   25.6320  -24.1280 C   0  0  0  0  0  0  0  0  0  0  0  0
   -1.5980   25.7540  -25.2040 C   0  0  0  0  0  0  0  0  0  0  0  0
   -3.1190   24.4700  -28.4190 C   0  0  0  0  0  0  0  0  0  0  0  0
   -7.5655   23.4592  -30.3543 H   0  0  0  0  0  0  0  0  0  0  0  0
   -7.3361   25.1058  -31.0543 H   0  0  0  0  0  0  0  0  0  0  0  0
   -7.8562   23.4085  -32.8051 H   0  0  0  0  0  0  0  0  0  0  0  0
   -6.2184   24.1403  -33.0179 H   0  0  0  0  0  0  0  0  0  0  0  0
   -4.2221   22.9370  -32.6048 H   0  0  0  0  0  0  0  0  0  0  0  0
   -3.0786   20.7323  -32.5652 H   0  0  0  0  0  0  0  0  0  0  0  0
   -4.3944   18.6375  -32.3010 H   0  0  0  0  0  0  0  0  0  0  0  0
   -6.5147   17.5042  -32.0596 H   0  0  0  0  0  0  0  0  0  0  0  0
   -8.9972   17.5728  -31.8694 H   0  0  0  0  0  0  0  0  0  0  0  0
  -10.1969   19.7535  -31.9200 H   0  0  0  0  0  0  0  0  0  0  0  0
   -8.9266   21.8828  -32.1449 H   0  0  0  0  0  0  0  0  0  0  0  0
   -6.1110   23.1600  -28.5720 H   0  0  0  0  0  0  0  0  0  0  0  0
   -4.1897   21.2244  -28.2624 H   0  0  0  0  0  0  0  0  0  0  0  0
   -1.9142   20.9439  -27.2811 H   0  0  0  0  0  0  0  0  0  0  0  0
   -0.4082   22.9154  -27.0263 H   0  0  0  0  0  0  0  0  0  0  0  0
    0.8791   27.0119  -26.1217 H   0  0  0  0  0  0  0  0  0  0  0  0
   -0.1260   28.4352  -26.5939 H   0  0  0  0  0  0  0  0  0  0  0  0
    0.6672   28.6385  -24.2656 H   0  0  0  0  0  0  0  0  0  0  0  0
   -1.1521   28.4498  -24.3626 H   0  0  0  0  0  0  0  0  0  0  0  0
    0.3865   25.1757  -24.5850 H   0  0  0  0  0  0  0  0  0  0  0  0
   -0.9132   25.0150  -23.3145 H   0  0  0  0  0  0  0  0  0  0  0  0
   -1.8127   24.7530  -25.6064 H   0  0  0  0  0  0  0  0  0  0  0  0
   -2.4888   26.1945  -24.7324 H   0  0  0  0  0  0  0  0  0  0  0  0
   -3.4508   25.4636  -28.7548 H   0  0  0  0  0  0  0  0  0  0  0  0
  1  2  2  0
  2  3  1  0
  3  4  1  0
  4  5  1  0
  5  6  2  0
  6  7  1  0
  7  8  2  0
  8  9  1  0
  9 10  2  0
 10 11  1  0
 11 12  2  0
 12 13  1  0
 13 14  2  0
  2 15  1  0
 15 16  1  0
 16 17  2  0
 17 18  1  0
 18 19  2  0
 19 20  1  0
 20 21  1  0
 21 22  2  0
 21 23  2  0
 21 24  1  0
 24 25  1  0
 25 26  1  0
 26 27  1  0
 27 28  1  0
 28 29  1  0
 20 30  2  0
 14  5  1  0
 30 16  1  0
 14  9  1  0
 29 24  1  0
  3 31  1  0
  3 32  1  0
  4 33  1  0
  4 34  1  0
  6 35  1  0
  7 36  1  0
  8 37  1  0
 10 38  1  0
 11 39  1  0
 12 40  1  0
 13 41  1  0
 15 42  1  0
 17 43  1  0
 18 44  1  0
 19 45  1  0
 25 46  1  0
 25 47  1  0
 26 48  1  0
 26 49  1  0
 28 50  1  0
 28 51  1  0
 29 52  1  0
 29 53  1  0
 30 54  1  0
M  END
>  <UniqueID>  (49) 
47

>  <SMILES>  (49) 
O=C(CCc1cccc2ccccc12)Nc1cccc(S(=O)(=O)N2CCOCC2)c1

>  <Energy>  (49) 
74.50526402725501

>  <Genealogy>  (49) 
O=C(CCc1cccc2ccccc12)Nc1cccc(S(=O)(=O)N2CCOCC2)c1 (3D coordinates assigned)
O=C(CCc1cccc2ccccc12)Nc1cccc(S(=O)(=O)N2CCOCC2)c1 (nonaromatic ring conformer: 74.50526402725501 kcal/mol)

>  <smiles>  (49) 
O=C(CCc1cccc2ccccc12)Nc1cccc(S(=O)(=O)N2CCOCC2)c1

>  <score_type>  (49) 
oracle

>  <origin>  (49) 
adgpu

>  <m_score__min__energy>  (49) 
-11.84

>  <m_primary>  (49) 
energy

$$$$
49:0
     RDKit          3D

 73 78  0  0  1  0  0  0  0  0999 V2000
   -2.6620   21.7770  -30.0750 C   0  0  0  0  0  0  0  0  0  0  0  0
   -2.6280   21.6970  -31.4800 O   0  0  0  0  0  0  0  0  0  0  0  0
   -3.5200   20.8720  -32.1270 C   0  0  0  0  0  0  0  0  0  0  0  0
   -4.8460   20.7190  -31.7320 C   0  0  0  0  0  0  0  0  0  0  0  0
   -5.7350   19.9030  -32.3710 C   0  0  0  0  0  0  0  0  0  0  0  0
   -7.0860   19.7360  -31.9850 N   0  0  0  0  0  0  0  0  0  0  0  0
   -7.9310   20.7900  -31.4880 C   0  0  0  0  0  0  0  0  0  0  0  0
   -9.2080   20.7980  -32.3310 C   0  0  0  0  0  0  0  0  0  0  0  0
   -9.7900   19.5630  -32.4500 O   0  0  0  0  0  0  0  0  0  0  0  0
   -9.1470   18.5520  -31.7520 C   0  0  0  0  0  0  0  0  0  0  0  0
   -7.6890   18.4100  -32.0890 C   0  0  0  0  0  0  0  0  0  0  0  0
   -5.2440   19.2020  -33.4760 C   0  0  0  0  0  0  0  0  0  0  0  0
   -3.9340   19.3290  -33.8960 C   0  0  0  0  0  0  0  0  0  0  0  0
   -3.0740   20.1680  -33.2170 C   0  0  0  0  0  0  0  0  0  0  0  0
   -1.7330   20.2520  -33.7060 N   0  0  0  0  0  0  0  0  0  0  0  0
   -0.7300   19.9590  -32.9260 C   0  0  0  0  0  0  0  0  0  0  0  0
    0.5180   20.0390  -33.3870 N   0  0  0  0  0  0  0  0  0  0  0  0
    1.5520   19.7360  -32.5790 C   0  0  0  0  0  0  0  0  0  0  0  0
    2.7840   19.7880  -32.9480 N   0  0  0  0  0  0  0  0  0  0  0  0
    3.0310   20.1940  -34.2930 C   0  0  0  0  0  0  0  0  0  0  0  0
    3.6330   19.4190  -35.2330 C   0  0  0  0  0  0  0  0  0  0  0  0
    3.8110   19.9410  -36.5160 C   0  0  0  0  0  0  0  0  0  0  0  0
    3.3920   21.2190  -36.8470 C   0  0  0  0  0  0  0  0  0  0  0  0
    2.7860   21.9970  -35.8950 C   0  0  0  0  0  0  0  0  0  0  0  0
    2.3090   23.3600  -36.1540 C   0  0  0  0  0  0  0  0  0  0  0  0
    1.1290   23.6020  -36.5370 O   0  0  0  0  0  0  0  0  0  0  0  0
    3.2480   24.4330  -35.9540 N   0  0  0  0  0  0  0  0  0  0  0  0
    4.6070   24.1910  -35.5170 C   0  0  0  0  0  0  0  0  0  0  0  0
    4.8430   24.9340  -34.2240 C   0  0  0  0  0  0  0  0  0  0  0  0
    4.1720   26.2000  -34.1810 N   0  0  0  0  0  0  0  0  0  0  0  0
    5.0280   27.1670  -33.5280 C   0  0  0  0  0  0  0  0  0  0  0  0
    3.8260   26.7170  -35.4860 C   0  0  0  0  0  0  0  0  0  0  0  0
    2.8340   25.8020  -36.1950 C   0  0  0  0  0  0  0  0  0  0  0  0
    2.6080   21.4820  -34.6260 C   0  0  0  0  0  0  0  0  0  0  0  0
    1.3030   19.3460  -31.2800 C   0  0  0  0  0  0  0  0  0  0  0  0
    2.0930   18.9830  -30.2390 N   0  0  0  0  0  0  0  0  0  0  0  0
    1.3360   18.6880  -29.1640 C   0  0  0  0  0  0  0  0  0  0  0  0
    0.0350   18.8680  -29.5340 N   0  0  0  0  0  0  0  0  0  0  0  0
    0.0140   19.2610  -30.7980 C   0  0  0  0  0  0  0  0  0  0  0  0
   -0.9980   19.5780  -31.6520 N   0  0  0  0  0  0  0  0  0  0  0  0
   -2.2660   20.8452  -29.6450 H   0  0  0  0  0  0  0  0  0  0  0  0
   -2.0467   22.6255  -29.7411 H   0  0  0  0  0  0  0  0  0  0  0  0
   -3.6999   21.9229  -29.7411 H   0  0  0  0  0  0  0  0  0  0  0  0
   -5.1968   21.2864  -30.8574 H   0  0  0  0  0  0  0  0  0  0  0  0
   -8.1798   20.6047  -30.4326 H   0  0  0  0  0  0  0  0  0  0  0  0
   -7.4177   21.7605  -31.5565 H   0  0  0  0  0  0  0  0  0  0  0  0
   -9.9315   21.4805  -31.8612 H   0  0  0  0  0  0  0  0  0  0  0  0
   -8.9264   21.1229  -33.3435 H   0  0  0  0  0  0  0  0  0  0  0  0
   -9.2346   18.7642  -30.6762 H   0  0  0  0  0  0  0  0  0  0  0  0
   -9.6337   17.6078  -32.0377 H   0  0  0  0  0  0  0  0  0  0  0  0
   -7.2050   17.7203  -31.3819 H   0  0  0  0  0  0  0  0  0  0  0  0
   -7.5624   18.0041  -33.1035 H   0  0  0  0  0  0  0  0  0  0  0  0
   -5.9194   18.5306  -34.0265 H   0  0  0  0  0  0  0  0  0  0  0  0
   -3.5774   18.7630  -34.7692 H   0  0  0  0  0  0  0  0  0  0  0  0
    0.7010   20.3330  -34.3610 H   0  0  0  0  0  0  0  0  0  0  0  0
    3.9730   18.4018  -34.9885 H   0  0  0  0  0  0  0  0  0  0  0  0
    4.2967   19.3209  -37.2839 H   0  0  0  0  0  0  0  0  0  0  0  0
    3.5443   21.6063  -37.8652 H   0  0  0  0  0  0  0  0  0  0  0  0
    4.7572   23.1132  -35.3565 H   0  0  0  0  0  0  0  0  0  0  0  0
    5.3137   24.5418  -36.2835 H   0  0  0  0  0  0  0  0  0  0  0  0
    4.4788   24.3146  -33.3911 H   0  0  0  0  0  0  0  0  0  0  0  0
    5.9229   25.1284  -34.1458 H   0  0  0  0  0  0  0  0  0  0  0  0
    4.9347   27.0616  -32.4370 H   0  0  0  0  0  0  0  0  0  0  0  0
    6.0725   26.9919  -33.8253 H   0  0  0  0  0  0  0  0  0  0  0  0
    4.7275   28.1825  -33.8253 H   0  0  0  0  0  0  0  0  0  0  0  0
    3.3751   27.7136  -35.3694 H   0  0  0  0  0  0  0  0  0  0  0  0
    4.7420   26.7748  -36.0923 H   0  0  0  0  0  0  0  0  0  0  0  0
    1.8225   25.9637  -35.7942 H   0  0  0  0  0  0  0  0  0  0  0  0
    2.8160   26.0151  -37.2740 H   0  0  0  0  0  0  0  0  0  0  0  0
    2.1210   22.1019  -33.8588 H   0  0  0  0  0  0  0  0  0  0  0  0
    3.1440   18.9470  -30.2950 H   0  0  0  0  0  0  0  0  0  0  0  0
    1.6977   18.3640  -28.1770 H   0  0  0  0  0  0  0  0  0  0  0  0
   -1.9490   19.5060  -31.2710 H   0  0  0  0  0  0  0  0  0  0  0  0
  1  2  1  0
  2  3  1  0
  3  4  2  0
  4  5  1  0
  5  6  1  0
  6  7  1  0
  7  8  1  0
  8  9  1  0
  9 10  1  0
 10 11  1  0
  5 12  2  0
 12 13  1  0
 13 14  2  0
 14 15  1  0
 15 16  2  0
 16 17  1  0
 17 18  1  0
 18 19  2  0
 19 20  1  0
 20 21  2  0
 21 22  1  0
 22 23  2  0
 23 24  1  0
 24 25  1  0
 25 26  2  0
 25 27  1  0
 27 28  1  0
 28 29  1  0
 29 30  1  0
 30 31  1  0
 30 32  1  0
 32 33  1  0
 24 34  2  0
 18 35  1  0
 35 36  1  0
 36 37  1  0
 37 38  2  0
 38 39  1  0
 39 40  1  0
 14  3  1  0
 40 16  1  0
 11  6  1  0
 34 20  1  0
 39 35  2  0
 33 27  1  0
  1 41  1  0
  1 42  1  0
  1 43  1  0
  4 44  1  0
  7 45  1  0
  7 46  1  0
  8 47  1  0
  8 48  1  0
 10 49  1  0
 10 50  1  0
 11 51  1  0
 11 52  1  0
 12 53  1  0
 13 54  1  0
 17 55  1  0
 21 56  1  0
 22 57  1  0
 23 58  1  0
 28 59  1  0
 28 60  1  0
 29 61  1  0
 29 62  1  0
 31 63  1  0
 31 64  1  0
 31 65  1  0
 32 66  1  0
 32 67  1  0
 33 68  1  0
 33 69  1  0
 34 70  1  0
 36 71  1  0
 37 72  1  0
 40 73  1  0
M  END
>  <smiles>  (50) 
COc1cc(N2CCOCC2)ccc1N=c1[nH]c(=Nc2cccc(C(=O)N3CCN(C)CC3)c2)c2[nH]cnc2[nH]1

>  <score_type>  (50) 
oracle

>  <origin>  (50) 
adgpu

>  <m_score__min__energy>  (50) 
-9.4399999999999995

>  <m_primary>  (50) 
energy

$$$$
