0:0
     RDKit          3D

 53 56  0  0  0  0  0  0  0  0999 V2000
    1.5330   27.1630  -36.2480 C   0  0  0  0  0  0  0  0  0  0  0  0
    1.5270   25.6840  -36.0020 C   0  0  0  0  0  0  0  0  0  0  0  0
    2.6960   25.0240  -35.5960 C   0  0  0  0  0  0  0  0  0  0  0  0
    2.6730   23.6510  -35.3410 C   0  0  0  0  0  0  0  0  0  0  0  0
    1.4740   22.9420  -35.4850 C   0  0  0  0  0  0  0  0  0  0  0  0
    1.4660   21.6520  -35.2900 N   0  0  0  0  0  0  0  0  0  0  0  0
    0.3370   20.7660  -35.3850 C   0  0  0  0  0  0  0  0  0  0  0  0
    0.1980   20.0680  -36.4280 O   0  0  0  0  0  0  0  0  0  0  0  0
   -0.6490   20.6210  -34.2970 C   0  0  0  0  0  0  0  0  0  0  0  0
   -1.5860   19.5770  -34.3190 C   0  0  0  0  0  0  0  0  0  0  0  0
   -2.5160   19.4470  -33.2870 C   0  0  0  0  0  0  0  0  0  0  0  0
   -2.5050   20.3450  -32.2150 C   0  0  0  0  0  0  0  0  0  0  0  0
   -1.5530   21.3810  -32.1710 C   0  0  0  0  0  0  0  0  0  0  0  0
   -1.4960   22.3080  -31.1210 O   0  0  0  0  0  0  0  0  0  0  0  0
   -1.8760   22.0690  -29.7900 C   0  0  0  0  0  0  0  0  0  0  0  0
   -1.7540   20.8280  -29.2420 N   0  0  0  0  0  0  0  0  0  0  0  0
   -2.0500   20.5790  -27.9390 C   0  0  0  0  0  0  0  0  0  0  0  0
   -2.4820   21.6130  -27.1110 C   0  0  0  0  0  0  0  0  0  0  0  0
   -2.6150   22.8970  -27.6390 C   0  0  0  0  0  0  0  0  0  0  0  0
   -2.3280   23.1390  -28.9920 C   0  0  0  0  0  0  0  0  0  0  0  0
   -2.4440   24.5110  -29.5290 C   0  0  0  0  0  0  0  0  0  0  0  0
   -1.5960   25.3760  -29.1750 O   0  0  0  0  0  0  0  0  0  0  0  0
   -3.4680   24.8950  -30.4490 N   0  0  0  0  0  0  0  0  0  0  0  0
   -5.1740   24.8210  -30.1300 S   0  0  0  0  0  0  0  0  0  0  0  0
   -5.4110   24.6940  -28.6520 O   0  0  0  0  0  0  0  0  0  0  0  0
   -5.8170   26.0910  -30.6120 O   0  0  0  0  0  0  0  0  0  0  0  0
   -5.8910   23.4510  -30.9720 C   0  0  0  0  0  0  0  0  0  0  0  0
   -5.0850   22.5980  -31.7400 C   0  0  0  0  0  0  0  0  0  0  0  0
   -5.6540   21.5110  -32.4140 C   0  0  0  0  0  0  0  0  0  0  0  0
   -7.0310   21.2770  -32.3280 C   0  0  0  0  0  0  0  0  0  0  0  0
   -7.8390   22.1310  -31.5740 C   0  0  0  0  0  0  0  0  0  0  0  0
   -7.2730   23.2180  -30.9000 C   0  0  0  0  0  0  0  0  0  0  0  0
   -0.6530   21.5310  -33.2300 C   0  0  0  0  0  0  0  0  0  0  0  0
    0.3490   23.6060  -35.8740 N   0  0  0  0  0  0  0  0  0  0  0  0
    0.3450   24.9440  -36.1170 C   0  0  0  0  0  0  0  0  0  0  0  0
    1.5352   27.6948  -35.2851 H   0  0  0  0  0  0  0  0  0  0  0  0
    2.4323   27.4360  -36.8197 H   0  0  0  0  0  0  0  0  0  0  0  0
    0.6360   27.4433  -36.8197 H   0  0  0  0  0  0  0  0  0  0  0  0
    3.6326   25.5887  -35.4782 H   0  0  0  0  0  0  0  0  0  0  0  0
    3.5904   23.1302  -35.0292 H   0  0  0  0  0  0  0  0  0  0  0  0
   -1.5875   18.8589  -35.1522 H   0  0  0  0  0  0  0  0  0  0  0  0
   -3.2592   18.6366  -33.3167 H   0  0  0  0  0  0  0  0  0  0  0  0
   -3.2416   20.2416  -31.4047 H   0  0  0  0  0  0  0  0  0  0  0  0
   -1.9484   19.5599  -27.5377 H   0  0  0  0  0  0  0  0  0  0  0  0
   -2.7153   21.4190  -26.0537 H   0  0  0  0  0  0  0  0  0  0  0  0
   -2.9461   23.7234  -26.9929 H   0  0  0  0  0  0  0  0  0  0  0  0
   -4.0032   22.7836  -31.8129 H   0  0  0  0  0  0  0  0  0  0  0  0
   -5.0186   20.8406  -33.0114 H   0  0  0  0  0  0  0  0  0  0  0  0
   -7.4771   20.4203  -32.8543 H   0  0  0  0  0  0  0  0  0  0  0  0
   -8.9219   21.9485  -31.5102 H   0  0  0  0  0  0  0  0  0  0  0  0
   -7.9129   23.8922  -30.3118 H   0  0  0  0  0  0  0  0  0  0  0  0
    0.0583   22.3701  -33.2264 H   0  0  0  0  0  0  0  0  0  0  0  0
   -0.5904   25.4461  -36.4049 H   0  0  0  0  0  0  0  0  0  0  0  0
  1  2  1  0
  2  3  1  0
  3  4  2  0
  4  5  1  0
  5  6  2  3
  6  7  1  0
  7  8  2  0
  7  9  1  0
  9 10  2  0
 10 11  1  0
 11 12  2  0
 12 13  1  0
 13 14  1  0
 14 15  1  0
 15 16  2  0
 16 17  1  0
 17 18  2  0
 18 19  1  0
 19 20  2  0
 20 21  1  0
 21 22  2  0
 21 23  1  0
 23 24  1  0
 24 25  2  0
 24 26  2  0
 24 27  1  0
 27 28  2  0
 28 29  1  0
 29 30  2  0
 30 31  1  0
 31 32  2  0
 13 33  2  0
  5 34  1  0
 34 35  1  0
 35  2  2  0
 33  9  1  0
 20 15  1  0
 32 27  1  0
  1 36  1  0
  1 37  1  0
  1 38  1  0
  3 39  1  0
  4 40  1  0
 10 41  1  0
 11 42  1  0
 12 43  1  0
 17 44  1  0
 18 45  1  0
 19 46  1  0
 28 47  1  0
 29 48  1  0
 30 49  1  0
 31 50  1  0
 32 51  1  0
 33 52  1  0
 35 53  1  0
M  CHG  2  23  -1  34  -1
M  END
>  <UniqueID>  (1) 
1

>  <SMILES>  (1) 
Cc1ccc(=NC(=O)c2cccc(Oc3ncccc3C(=O)[N-]S(=O)(=O)c3ccccc3)c2)[n-]c1

>  <Energy>  (1) 
76.96244690818841

>  <Genealogy>  (1) 
Cc1ccc(=NC(=O)c2cccc(Oc3ncccc3C(=O)[N-]S(=O)(=O)c3ccccc3)c2)[n-]c1 (protonated)
Cc1ccc(=NC(=O)c2cccc(Oc3ncccc3C(=O)[N-]S(=O)(=O)c3ccccc3)c2)[n-]c1 (3D coordinates assigned)
Cc1ccc(=NC(=O)c2cccc(Oc3ncccc3C(=O)[N-]S(=O)(=O)c3ccccc3)c2)[n-]c1 (optimized conformer: 76.96244690818841 kcal/mol)

>  <smiles>  (1) 
Cc1ccc(=NC(=O)c2cccc(Oc3ncccc3C(=O)NS(=O)(=O)c3ccccc3)c2)[nH]c1

>  <score_type>  (1) 
oracle

>  <origin>  (1) 
adgpu

>  <m_score__min__energy>  (1) 
-12.029999999999999

>  <m_primary>  (1) 
energy

$$$$
1:0
     RDKit          3D

 47 49  0  0  0  0  0  0  0  0999 V2000
   -0.1400   20.6300  -32.4920 N   0  0  0  0  0  0  0  0  0  0  0  0
   -1.4840   20.2040  -32.7510 C   0  0  0  0  0  0  0  0  0  0  0  0
   -1.7590   19.5250  -33.9490 C   0  0  0  0  0  0  0  0  0  0  0  0
   -3.0430   19.0500  -34.2210 C   0  0  0  0  0  0  0  0  0  0  0  0
   -4.0710   19.2370  -33.2930 C   0  0  0  0  0  0  0  0  0  0  0  0
   -5.6940   18.6300  -33.6110 S   0  0  0  0  0  0  0  0  0  0  0  0
   -5.5730   17.2290  -34.1410 O   0  0  0  0  0  0  0  0  0  0  0  0
   -6.3710   19.4840  -34.6460 O   0  0  0  0  0  0  0  0  0  0  0  0
   -6.6400   18.6160  -32.1370 N   0  0  0  0  0  0  0  0  0  0  0  0
   -6.8150   19.9710  -31.5740 C   0  0  0  0  0  0  0  0  0  0  0  0
   -7.8500   20.8160  -32.3400 C   0  0  0  0  0  0  0  0  0  0  0  0
   -9.0670   20.0030  -32.8130 C   0  0  0  0  0  0  0  0  0  0  0  0
   -9.1760   18.6660  -32.0820 C   0  0  0  0  0  0  0  0  0  0  0  0
   -7.8960   17.8380  -32.2880 C   0  0  0  0  0  0  0  0  0  0  0  0
   -3.8090   19.9110  -32.0960 C   0  0  0  0  0  0  0  0  0  0  0  0
   -2.5310   20.4280  -31.8260 C   0  0  0  0  0  0  0  0  0  0  0  0
   -2.2920   21.3620  -30.3400 S   0  0  0  0  0  0  0  0  0  0  0  0
   -3.0280   20.6860  -29.2190 O   0  0  0  0  0  0  0  0  0  0  0  0
   -0.8310   21.4460  -29.9900 O   0  0  0  0  0  0  0  0  0  0  0  0
   -2.9080   22.9760  -30.5240 N   0  0  0  0  0  0  0  0  0  0  0  0
   -4.3020   23.3290  -30.4090 C   0  0  0  0  0  0  0  0  0  0  0  0
   -5.2880   22.3620  -30.1240 C   0  0  0  0  0  0  0  0  0  0  0  0
   -6.6320   22.7300  -30.0120 C   0  0  0  0  0  0  0  0  0  0  0  0
   -7.0110   24.0620  -30.1780 C   0  0  0  0  0  0  0  0  0  0  0  0
   -6.0460   25.0310  -30.4560 C   0  0  0  0  0  0  0  0  0  0  0  0
   -4.6990   24.6720  -30.5730 C   0  0  0  0  0  0  0  0  0  0  0  0
   -3.7580   25.6590  -30.8480 O   0  0  0  0  0  0  0  0  0  0  0  0
    0.2200   20.7830  -31.5260 H   0  0  0  0  0  0  0  0  0  0  0  0
    0.5490   20.7090  -33.2730 H   0  0  0  0  0  0  0  0  0  0  0  0
   -0.9537   19.3657  -34.6812 H   0  0  0  0  0  0  0  0  0  0  0  0
   -3.2461   18.5276  -35.1675 H   0  0  0  0  0  0  0  0  0  0  0  0
   -7.1455   19.8757  -30.5292 H   0  0  0  0  0  0  0  0  0  0  0  0
   -5.8468   20.4868  -31.6550 H   0  0  0  0  0  0  0  0  0  0  0  0
   -8.2031   21.6204  -31.6780 H   0  0  0  0  0  0  0  0  0  0  0  0
   -7.3506   21.2084  -33.2381 H   0  0  0  0  0  0  0  0  0  0  0  0
   -9.9800   20.5870  -32.6249 H   0  0  0  0  0  0  0  0  0  0  0  0
   -8.9435   19.7964  -33.8863 H   0  0  0  0  0  0  0  0  0  0  0  0
   -9.3193   18.8509  -31.0072 H   0  0  0  0  0  0  0  0  0  0  0  0
  -10.0325   18.1065  -32.4861 H   0  0  0  0  0  0  0  0  0  0  0  0
   -7.8888   17.0234  -31.5488 H   0  0  0  0  0  0  0  0  0  0  0  0
   -7.9191   17.4707  -33.3246 H   0  0  0  0  0  0  0  0  0  0  0  0
   -4.6136   20.0379  -31.3567 H   0  0  0  0  0  0  0  0  0  0  0  0
   -2.2010   23.7240  -30.6940 H   0  0  0  0  0  0  0  0  0  0  0  0
   -4.9973   21.3098  -29.9887 H   0  0  0  0  0  0  0  0  0  0  0  0
   -7.3930   21.9667  -29.7923 H   0  0  0  0  0  0  0  0  0  0  0  0
   -8.0694   24.3484  -30.0899 H   0  0  0  0  0  0  0  0  0  0  0  0
   -6.3458   26.0816  -30.5837 H   0  0  0  0  0  0  0  0  0  0  0  0
  1  2  1  0
  2  3  2  0
  3  4  1  0
  4  5  2  0
  5  6  1  0
  6  7  2  0
  6  8  2  0
  6  9  1  0
  9 10  1  0
 10 11  1  0
 11 12  1  0
 12 13  1  0
 13 14  1  0
  5 15  1  0
 15 16  2  0
 16 17  1  0
 17 18  2  0
 17 19  2  0
 17 20  1  0
 20 21  1  0
 21 22  2  0
 22 23  1  0
 23 24  2  0
 24 25  1  0
 25 26  2  0
 26 27  1  0
 16  2  1  0
 26 21  1  0
 14  9  1  0
  1 28  1  0
  1 29  1  0
  3 30  1  0
  4 31  1  0
 10 32  1  0
 10 33  1  0
 11 34  1  0
 11 35  1  0
 12 36  1  0
 12 37  1  0
 13 38  1  0
 13 39  1  0
 14 40  1  0
 14 41  1  0
 15 42  1  0
 20 43  1  0
 22 44  1  0
 23 45  1  0
 24 46  1  0
 25 47  1  0
M  CHG  1  27  -1
M  END
>  <UniqueID>  (2) 
2

>  <SMILES>  (2) 
Nc1ccc(S(=O)(=O)N2CCCCC2)cc1S(=O)(=O)Nc1ccccc1[O-]

>  <Energy>  (2) 
58.361439026770995

>  <Genealogy>  (2) 
Nc1ccc(S(=O)(=O)N2CCCCC2)cc1S(=O)(=O)Nc1ccccc1[O-] (protonated)
Nc1ccc(S(=O)(=O)N2CCCCC2)cc1S(=O)(=O)Nc1ccccc1[O-] (3D coordinates assigned)
Nc1ccc(S(=O)(=O)N2CCCCC2)cc1S(=O)(=O)Nc1ccccc1[O-] (nonaromatic ring conformer: 58.361439026770995 kcal/mol)

>  <smiles>  (2) 
Nc1ccc(S(=O)(=O)N2CCCCC2)cc1S(=O)(=O)Nc1ccccc1O

>  <score_type>  (2) 
oracle

>  <origin>  (2) 
adgpu

>  <m_score__min__energy>  (2) 
-12.69

>  <m_primary>  (2) 
energy

$$$$
2:0
     RDKit          3D

 56 59  0  0  0  0  0  0  0  0999 V2000
   -2.2990   22.7140  -30.7760 O   0  0  0  0  0  0  0  0  0  0  0  0
   -3.2730   22.6230  -31.5730 C   0  0  0  0  0  0  0  0  0  0  0  0
   -3.0940   21.9830  -32.8480 N   0  0  0  0  0  0  0  0  0  0  0  0
   -2.0420   21.0450  -33.1330 C   0  0  0  0  0  0  0  0  0  0  0  0
   -2.3380   19.8710  -33.8430 C   0  0  0  0  0  0  0  0  0  0  0  0
   -1.3360   18.9370  -34.1170 C   0  0  0  0  0  0  0  0  0  0  0  0
   -0.0270   19.1550  -33.6710 C   0  0  0  0  0  0  0  0  0  0  0  0
    1.2540   17.9970  -34.0190 S   0  0  0  0  0  0  0  0  0  0  0  0
    0.6770   16.6140  -34.1620 O   0  0  0  0  0  0  0  0  0  0  0  0
    2.2250   18.0020  -32.8710 O   0  0  0  0  0  0  0  0  0  0  0  0
    2.0760   18.4610  -35.4940 N   0  0  0  0  0  0  0  0  0  0  0  0
    2.8750   19.6730  -35.2790 C   0  0  0  0  0  0  0  0  0  0  0  0
    2.0300   20.8750  -35.6740 C   0  0  0  0  0  0  0  0  0  0  0  0
    0.8740   20.3150  -36.4820 C   0  0  0  0  0  0  0  0  0  0  0  0
    1.1040   18.8120  -36.5350 C   0  0  0  0  0  0  0  0  0  0  0  0
    0.2700   20.3140  -32.9420 C   0  0  0  0  0  0  0  0  0  0  0  0
   -0.7300   21.2500  -32.6670 C   0  0  0  0  0  0  0  0  0  0  0  0
   -4.5690   23.2440  -31.2110 C   0  0  0  0  0  0  0  0  0  0  0  0
   -5.7630   22.5360  -31.4450 C   0  0  0  0  0  0  0  0  0  0  0  0
   -7.0040   23.0900  -31.1000 C   0  0  0  0  0  0  0  0  0  0  0  0
   -8.4950   22.1860  -31.3920 S   0  0  0  0  0  0  0  0  0  0  0  0
   -9.4200   23.0270  -32.2270 O   0  0  0  0  0  0  0  0  0  0  0  0
   -9.1710   21.9200  -30.0760 O   0  0  0  0  0  0  0  0  0  0  0  0
   -8.2200   20.6650  -32.2060 N   0  0  0  0  0  0  0  0  0  0  0  0
   -7.8390   19.6040  -31.2750 C   0  0  0  0  0  0  0  0  0  0  0  0
   -7.0490   18.5870  -32.0840 C   0  0  0  0  0  0  0  0  0  0  0  0
   -6.5810   19.3360  -33.3240 C   0  0  0  0  0  0  0  0  0  0  0  0
   -7.1260   20.7480  -33.1720 C   0  0  0  0  0  0  0  0  0  0  0  0
   -7.0550   24.3730  -30.5420 C   0  0  0  0  0  0  0  0  0  0  0  0
   -5.8800   25.0910  -30.3220 C   0  0  0  0  0  0  0  0  0  0  0  0
   -4.6390   24.5400  -30.6590 C   0  0  0  0  0  0  0  0  0  0  0  0
   -3.4920   25.3020  -30.4650 O   0  0  0  0  0  0  0  0  0  0  0  0
   -3.6970   22.3010  -33.6400 H   0  0  0  0  0  0  0  0  0  0  0  0
   -3.3664   19.6850  -34.1862 H   0  0  0  0  0  0  0  0  0  0  0  0
   -1.5765   18.0265  -34.6855 H   0  0  0  0  0  0  0  0  0  0  0  0
    3.1584   19.7491  -34.2189 H   0  0  0  0  0  0  0  0  0  0  0  0
    3.7917   19.6367  -35.8859 H   0  0  0  0  0  0  0  0  0  0  0  0
    1.6567   21.3928  -34.7781 H   0  0  0  0  0  0  0  0  0  0  0  0
    2.6117   21.6087  -36.2513 H   0  0  0  0  0  0  0  0  0  0  0  0
   -0.0836   20.5400  -35.9896 H   0  0  0  0  0  0  0  0  0  0  0  0
    0.8288   20.7562  -37.4886 H   0  0  0  0  0  0  0  0  0  0  0  0
    0.1565   18.2835  -36.3534 H   0  0  0  0  0  0  0  0  0  0  0  0
    1.4848   18.5202  -37.5249 H   0  0  0  0  0  0  0  0  0  0  0  0
    1.2956   20.4878  -32.5844 H   0  0  0  0  0  0  0  0  0  0  0  0
   -0.4908   22.1513  -32.0836 H   0  0  0  0  0  0  0  0  0  0  0  0
   -5.7220   21.5370  -31.9036 H   0  0  0  0  0  0  0  0  0  0  0  0
   -7.2162   20.0132  -30.4659 H   0  0  0  0  0  0  0  0  0  0  0  0
   -8.7237   19.1440  -30.8105 H   0  0  0  0  0  0  0  0  0  0  0  0
   -6.1871   18.2211  -31.5067 H   0  0  0  0  0  0  0  0  0  0  0  0
   -7.6564   17.7068  -32.3415 H   0  0  0  0  0  0  0  0  0  0  0  0
   -5.4822   19.3507  -33.3730 H   0  0  0  0  0  0  0  0  0  0  0  0
   -6.9354   18.8579  -34.2491 H   0  0  0  0  0  0  0  0  0  0  0  0
   -6.3399   21.4215  -32.7999 H   0  0  0  0  0  0  0  0  0  0  0  0
   -7.4739   21.1477  -34.1360 H   0  0  0  0  0  0  0  0  0  0  0  0
   -8.0259   24.8165  -30.2760 H   0  0  0  0  0  0  0  0  0  0  0  0
   -5.9292   26.0973  -29.8805 H   0  0  0  0  0  0  0  0  0  0  0  0
  1  2  2  0
  2  3  1  0
  3  4  1  0
  4  5  2  0
  5  6  1  0
  6  7  2  0
  7  8  1  0
  8  9  2  0
  8 10  2  0
  8 11  1  0
 11 12  1  0
 12 13  1  0
 13 14  1  0
 14 15  1  0
  7 16  1  0
 16 17  2  0
  2 18  1  0
 18 19  2  0
 19 20  1  0
 20 21  1  0
 21 22  2  0
 21 23  2  0
 21 24  1  0
 24 25  1  0
 25 26  1  0
 26 27  1  0
 27 28  1  0
 20 29  2  0
 29 30  1  0
 30 31  2  0
 31 32  1  0
 17  4  1  0
 31 18  1  0
 15 11  1  0
 28 24  1  0
  3 33  1  0
  5 34  1  0
  6 35  1  0
 12 36  1  0
 12 37  1  0
 13 38  1  0
 13 39  1  0
 14 40  1  0
 14 41  1  0
 15 42  1  0
 15 43  1  0
 16 44  1  0
 17 45  1  0
 19 46  1  0
 25 47  1  0
 25 48  1  0
 26 49  1  0
 26 50  1  0
 27 51  1  0
 27 52  1  0
 28 53  1  0
 28 54  1  0
 29 55  1  0
 30 56  1  0
M  CHG  1  32  -1
M  END
>  <UniqueID>  (3) 
3

>  <SMILES>  (3) 
O=C(Nc1ccc(S(=O)(=O)N2CCCC2)cc1)c1cc(S(=O)(=O)N2CCCC2)ccc1[O-]

>  <Energy>  (3) 
67.47756930280742

>  <Genealogy>  (3) 
O=C(Nc1ccc(S(=O)(=O)N2CCCC2)cc1)c1cc(S(=O)(=O)N2CCCC2)ccc1[O-] (protonated)
O=C(Nc1ccc(S(=O)(=O)N2CCCC2)cc1)c1cc(S(=O)(=O)N2CCCC2)ccc1[O-] (3D coordinates assigned)
O=C(Nc1ccc(S(=O)(=O)N2CCCC2)cc1)c1cc(S(=O)(=O)N2CCCC2)ccc1[O-] (nonaromatic ring conformer: 67.47756930280742 kcal/mol)

>  <smiles>  (3) 
O=C(Nc1ccc(S(=O)(=O)N2CCCC2)cc1)c1cc(S(=O)(=O)N2CCCC2)ccc1O

>  <score_type>  (3) 
oracle

>  <origin>  (3) 
adgpu

>  <m_score__min__energy>  (3) 
-12.33

>  <m_primary>  (3) 
energy

$$$$
3:0
     RDKit          3D

 43 46  0  0  0  0  0  0  0  0999 V2000
   -6.4590   25.6860  -29.6840 C   0  0  0  0  0  0  0  0  0  0  0  0
   -5.3540   24.7710  -30.0920 C   0  0  0  0  0  0  0  0  0  0  0  0
   -5.3460   23.3990  -29.9710 C   0  0  0  0  0  0  0  0  0  0  0  0
   -4.1080   23.0450  -30.4660 C   0  0  0  0  0  0  0  0  0  0  0  0
   -3.5500   21.6520  -30.5360 C   0  0  0  0  0  0  0  0  0  0  0  0
   -2.5640   21.4930  -31.6370 N   0  0  0  0  0  0  0  0  0  0  0  0
   -3.0760   21.9370  -32.9570 C   0  0  0  0  0  0  0  0  0  0  0  0
   -4.2890   21.1090  -33.4030 C   0  0  0  0  0  0  0  0  0  0  0  0
   -4.1230   19.7060  -33.0250 N   0  0  0  0  0  0  0  0  0  0  0  0
   -5.2430   18.8200  -33.1230 C   0  0  0  0  0  0  0  0  0  0  0  0
   -5.0730   17.6070  -33.7140 N   0  0  0  0  0  0  0  0  0  0  0  0
   -6.1020   16.7310  -33.8420 C   0  0  0  0  0  0  0  0  0  0  0  0
   -7.3350   17.0530  -33.3770 N   0  0  0  0  0  0  0  0  0  0  0  0
   -7.5650   18.2490  -32.7750 C   0  0  0  0  0  0  0  0  0  0  0  0
   -8.8450   18.5580  -32.3000 C   0  0  0  0  0  0  0  0  0  0  0  0
   -9.0820   19.7860  -31.6760 C   0  0  0  0  0  0  0  0  0  0  0  0
   -8.0430   20.7080  -31.5210 C   0  0  0  0  0  0  0  0  0  0  0  0
   -6.7600   20.4090  -31.9930 C   0  0  0  0  0  0  0  0  0  0  0  0
   -6.5110   19.1780  -32.6270 C   0  0  0  0  0  0  0  0  0  0  0  0
   -2.8010   19.1770  -32.6860 C   0  0  0  0  0  0  0  0  0  0  0  0
   -2.0480   20.0980  -31.6970 C   0  0  0  0  0  0  0  0  0  0  0  0
   -3.4320   24.1490  -30.8420 N   0  0  0  0  0  0  0  0  0  0  0  0
   -4.2110   25.1640  -30.6040 O   0  0  0  0  0  0  0  0  0  0  0  0
   -6.5121   25.7300  -28.5862 H   0  0  0  0  0  0  0  0  0  0  0  0
   -6.2671   26.6932  -30.0825 H   0  0  0  0  0  0  0  0  0  0  0  0
   -7.4127   25.3096  -30.0825 H   0  0  0  0  0  0  0  0  0  0  0  0
   -6.1360   22.7438  -29.5752 H   0  0  0  0  0  0  0  0  0  0  0  0
   -3.0544   21.4213  -29.5815 H   0  0  0  0  0  0  0  0  0  0  0  0
   -4.3861   20.9644  -30.7316 H   0  0  0  0  0  0  0  0  0  0  0  0
   -1.7470   22.1090  -31.4060 H   0  0  0  0  0  0  0  0  0  0  0  0
   -3.3721   22.9941  -32.8873 H   0  0  0  0  0  0  0  0  0  0  0  0
   -2.2756   21.8000  -33.6991 H   0  0  0  0  0  0  0  0  0  0  0  0
   -5.1949   21.5078  -32.9230 H   0  0  0  0  0  0  0  0  0  0  0  0
   -4.3782   21.1727  -34.4975 H   0  0  0  0  0  0  0  0  0  0  0  0
   -5.9354   15.7566  -34.3245 H   0  0  0  0  0  0  0  0  0  0  0  0
   -9.6647   17.8340  -32.4179 H   0  0  0  0  0  0  0  0  0  0  0  0
  -10.0893   20.0276  -31.3058 H   0  0  0  0  0  0  0  0  0  0  0  0
   -8.2344   21.6717  -31.0264 H   0  0  0  0  0  0  0  0  0  0  0  0
   -5.9452   21.1373  -31.8682 H   0  0  0  0  0  0  0  0  0  0  0  0
   -2.9220   18.1849  -32.2265 H   0  0  0  0  0  0  0  0  0  0  0  0
   -2.2104   19.1155  -33.6120 H   0  0  0  0  0  0  0  0  0  0  0  0
   -2.1264   19.6592  -30.6914 H   0  0  0  0  0  0  0  0  0  0  0  0
   -1.0111   20.1634  -32.0583 H   0  0  0  0  0  0  0  0  0  0  0  0
  1  2  1  0
  2  3  2  0
  3  4  1  0
  4  5  1  0
  5  6  1  0
  6  7  1  0
  7  8  1  0
  8  9  1  0
  9 10  1  0
 10 11  2  0
 11 12  1  0
 12 13  2  0
 13 14  1  0
 14 15  2  0
 15 16  1  0
 16 17  2  0
 17 18  1  0
 18 19  2  0
  9 20  1  0
 20 21  1  0
  4 22  2  0
 22 23  1  0
 23  2  1  0
 21  6  1  0
 19 10  1  0
 19 14  1  0
  1 24  1  0
  1 25  1  0
  1 26  1  0
  3 27  1  0
  5 28  1  0
  5 29  1  0
  6 30  1  0
  7 31  1  0
  7 32  1  0
  8 33  1  0
  8 34  1  0
 12 35  1  0
 15 36  1  0
 16 37  1  0
 17 38  1  0
 18 39  1  0
 20 40  1  0
 20 41  1  0
 21 42  1  0
 21 43  1  0
M  CHG  1   6   1
M  END
>  <UniqueID>  (4) 
4

>  <SMILES>  (4) 
Cc1cc(C[NH+]2CCN(c3ncnc4ccccc34)CC2)no1

>  <Energy>  (4) 
93.99097404488441

>  <Genealogy>  (4) 
Cc1cc(C[NH+]2CCN(c3ncnc4ccccc34)CC2)no1 (protonated)
Cc1cc(C[NH+]2CCN(c3ncnc4ccccc34)CC2)no1 (3D coordinates assigned)
Cc1cc(C[NH+]2CCN(c3ncnc4ccccc34)CC2)no1 (nonaromatic ring conformer: 93.99097404488441 kcal/mol)

>  <smiles>  (4) 
Cc1cc(CN2CCN(c3ncnc4ccccc34)CC2)no1

>  <score_type>  (4) 
oracle

>  <origin>  (4) 
adgpu

>  <m_score__min__energy>  (4) 
-8.1500000000000004

>  <m_primary>  (4) 
energy

$$$$
4:0
     RDKit          3D

 41 43  0  0  0  0  0  0  0  0999 V2000
   -2.3340   19.7200  -27.1000 C   0  0  0  0  0  0  0  0  0  0  0  0
   -1.8990   20.6560  -28.1900 C   0  0  0  0  0  0  0  0  0  0  0  0
   -1.1100   20.1860  -29.2520 C   0  0  0  0  0  0  0  0  0  0  0  0
   -0.7280   21.0520  -30.2790 C   0  0  0  0  0  0  0  0  0  0  0  0
   -1.1410   22.3870  -30.2620 C   0  0  0  0  0  0  0  0  0  0  0  0
   -1.9470   22.8610  -29.2170 C   0  0  0  0  0  0  0  0  0  0  0  0
   -2.4390   24.5520  -29.1620 S   0  0  0  0  0  0  0  0  0  0  0  0
   -3.1020   24.8540  -27.8460 O   0  0  0  0  0  0  0  0  0  0  0  0
   -1.2180   25.4190  -29.2880 O   0  0  0  0  0  0  0  0  0  0  0  0
   -3.5340   24.9180  -30.4610 N   0  0  0  0  0  0  0  0  0  0  0  0
   -4.7970   24.1890  -30.3070 C   0  0  1  0  0  0  0  0  0  0  0  0
   -5.8950   24.8460  -31.1680 C   0  0  0  0  0  0  0  0  0  0  0  0
   -6.4560   23.7140  -31.9310 C   0  0  0  0  0  0  0  0  0  0  0  0
   -7.4760   23.8000  -32.6660 O   0  0  0  0  0  0  0  0  0  0  0  0
   -5.7350   22.5130  -31.7440 N   0  0  0  0  0  0  0  0  0  0  0  0
   -6.0610   21.2470  -32.3340 C   0  0  0  0  0  0  0  0  0  0  0  0
   -5.0750   20.5420  -33.0430 C   0  0  0  0  0  0  0  0  0  0  0  0
   -5.3620   19.2920  -33.5990 C   0  0  0  0  0  0  0  0  0  0  0  0
   -6.6350   18.7380  -33.4550 C   0  0  0  0  0  0  0  0  0  0  0  0
   -7.6280   19.4370  -32.7650 C   0  0  0  0  0  0  0  0  0  0  0  0
   -7.3560   20.6950  -32.2120 C   0  0  0  0  0  0  0  0  0  0  0  0
   -8.3900   21.3800  -31.5750 O   0  0  0  0  0  0  0  0  0  0  0  0
   -4.6570   22.7260  -30.7980 C   0  0  0  0  0  0  0  0  0  0  0  0
   -2.3290   21.9910  -28.1870 C   0  0  0  0  0  0  0  0  0  0  0  0
   -2.1229   20.1743  -26.1207 H   0  0  0  0  0  0  0  0  0  0  0  0
   -3.4134   19.5284  -27.1903 H   0  0  0  0  0  0  0  0  0  0  0  0
   -1.7845   18.7714  -27.1903 H   0  0  0  0  0  0  0  0  0  0  0  0
   -0.7920   19.1332  -29.2752 H   0  0  0  0  0  0  0  0  0  0  0  0
   -0.1005   20.6823  -31.1033 H   0  0  0  0  0  0  0  0  0  0  0  0
   -0.8332   23.0672  -31.0698 H   0  0  0  0  0  0  0  0  0  0  0  0
   -5.0583   24.2119  -29.2387 H   0  0  0  0  0  0  0  0  0  0  0  0
   -6.6639   25.3136  -30.5354 H   0  0  0  0  0  0  0  0  0  0  0  0
   -5.5107   25.6498  -31.8132 H   0  0  0  0  0  0  0  0  0  0  0  0
   -4.0711   20.9758  -33.1615 H   0  0  0  0  0  0  0  0  0  0  0  0
   -4.5837   18.7443  -34.1506 H   0  0  0  0  0  0  0  0  0  0  0  0
   -6.8564   17.7501  -33.8853 H   0  0  0  0  0  0  0  0  0  0  0  0
   -8.6301   18.9968  -32.6551 H   0  0  0  0  0  0  0  0  0  0  0  0
   -8.5040   22.3840  -31.6440 H   0  0  0  0  0  0  0  0  0  0  0  0
   -4.7487   22.0292  -29.9518 H   0  0  0  0  0  0  0  0  0  0  0  0
   -3.6753   22.5507  -31.2622 H   0  0  0  0  0  0  0  0  0  0  0  0
   -2.9698   22.3572  -27.3714 H   0  0  0  0  0  0  0  0  0  0  0  0
  1  2  1  0
  2  3  2  0
  3  4  1  0
  4  5  2  0
  5  6  1  0
  6  7  1  0
  7  8  2  0
  7  9  2  0
  7 10  1  0
 10 11  1  0
 11 12  1  0
 12 13  1  0
 13 14  2  0
 13 15  1  0
 15 16  1  0
 16 17  2  0
 17 18  1  0
 18 19  2  0
 19 20  1  0
 20 21  2  0
 21 22  1  0
 15 23  1  0
  6 24  2  0
 24  2  1  0
 23 11  1  0
 21 16  1  0
  1 25  1  0
  1 26  1  0
  1 27  1  0
  3 28  1  0
  4 29  1  0
  5 30  1  0
 11 31  1  1
 12 32  1  0
 12 33  1  0
 17 34  1  0
 18 35  1  0
 19 36  1  0
 20 37  1  0
 22 38  1  0
 23 39  1  0
 23 40  1  0
 24 41  1  0
M  CHG  1  10  -1
M  END
>  <UniqueID>  (5) 
5

>  <SMILES>  (5) 
Cc1cccc(S(=O)(=O)[N-][C@H]2CC(=O)N(c3ccccc3O)C2)c1

>  <Energy>  (5) 
53.86317518391874

>  <Genealogy>  (5) 
Cc1cccc(S(=O)(=O)[N-]C2CC(=O)N(c3ccccc3O)C2)c1 (protonated)
Cc1cccc(S(=O)(=O)[N-][C@H]2CC(=O)N(c3ccccc3O)C2)c1 (chirality)
Cc1cccc(S(=O)(=O)[N-][C@H]2CC(=O)N(c3ccccc3O)C2)c1 (3D coordinates assigned)
Cc1cccc(S(=O)(=O)[N-][C@H]2CC(=O)N(c3ccccc3O)C2)c1 (nonaromatic ring conformer: 53.86317518391874 kcal/mol)

>  <smiles>  (5) 
Cc1cccc(S(=O)(=O)NC2CC(=O)N(c3ccccc3O)C2)c1

>  <score_type>  (5) 
oracle

>  <origin>  (5) 
adgpu

>  <m_score__min__energy>  (5) 
-9.9100000000000001

>  <m_primary>  (5) 
energy

$$$$
5:0
     RDKit          3D

 49 52  0  0  0  0  0  0  0  0999 V2000
   -9.4980   21.4260  -31.6810 C   0  0  0  0  0  0  0  0  0  0  0  0
   -8.3210   22.7350  -31.2210 S   0  0  0  0  0  0  0  0  0  0  0  0
   -6.9030   21.9080  -31.9580 C   0  0  0  0  0  0  0  0  0  0  0  0
   -7.1100   20.7630  -32.7380 C   0  0  0  0  0  0  0  0  0  0  0  0
   -6.0250   20.0950  -33.3090 C   0  0  0  0  0  0  0  0  0  0  0  0
   -4.7270   20.5650  -33.1010 C   0  0  0  0  0  0  0  0  0  0  0  0
   -4.5100   21.7060  -32.3230 C   0  0  0  0  0  0  0  0  0  0  0  0
   -5.5970   22.3830  -31.7410 C   0  0  0  0  0  0  0  0  0  0  0  0
   -5.4120   23.6190  -31.0370 N   0  0  0  0  0  0  0  0  0  0  0  0
   -4.1630   24.2690  -30.7800 C   0  0  0  0  0  0  0  0  0  0  0  0
   -4.1340   25.4580  -30.3690 O   0  0  0  0  0  0  0  0  0  0  0  0
   -2.9400   23.5800  -31.0460 N   0  0  0  0  0  0  0  0  0  0  0  0
   -2.1380   23.0160  -29.9990 C   0  0  0  0  0  0  0  0  0  0  0  0
   -2.0720   21.6300  -29.8700 C   0  0  0  0  0  0  0  0  0  0  0  0
   -1.3670   21.0580  -28.8170 C   0  0  0  0  0  0  0  0  0  0  0  0
   -0.7040   21.8630  -27.8870 C   0  0  0  0  0  0  0  0  0  0  0  0
   -0.0570   21.2420  -26.8250 O   0  0  0  0  0  0  0  0  0  0  0  0
   -0.7000   23.2710  -28.0290 C   0  0  0  0  0  0  0  0  0  0  0  0
    0.1540   24.2850  -26.8320 S   0  0  0  0  0  0  0  0  0  0  0  0
    1.1320   23.4420  -26.0610 O   0  0  0  0  0  0  0  0  0  0  0  0
    0.9550   25.3470  -27.5280 O   0  0  0  0  0  0  0  0  0  0  0  0
   -1.0440   24.9340  -25.6450 C   0  0  1  0  0  0  0  0  0  0  0  0
   -0.4780   25.2560  -24.2650 C   0  0  0  0  0  0  0  0  0  0  0  0
   -1.1730   26.6020  -23.9930 C   0  0  1  0  0  0  0  0  0  0  0  0
   -0.4170   27.7170  -24.7140 C   0  0  0  0  0  0  0  0  0  0  0  0
   -0.8650   27.4630  -26.1450 C   0  0  0  0  0  0  0  0  0  0  0  0
   -1.7880   26.2460  -25.9580 C   0  0  2  0  0  0  0  0  0  0  0  0
   -2.3690   26.5190  -24.7180 O   0  0  0  0  0  0  0  0  0  0  0  0
   -1.4210   23.8450  -29.1100 C   0  0  0  0  0  0  0  0  0  0  0  0
   -1.4390   25.2200  -29.3500 O   0  0  0  0  0  0  0  0  0  0  0  0
   -9.9105   20.9672  -30.7703 H   0  0  0  0  0  0  0  0  0  0  0  0
  -10.3154   21.8602  -32.2754 H   0  0  0  0  0  0  0  0  0  0  0  0
   -8.9797   20.6592  -32.2754 H   0  0  0  0  0  0  0  0  0  0  0  0
   -8.1314   20.3887  -32.9013 H   0  0  0  0  0  0  0  0  0  0  0  0
   -6.1930   19.1979  -33.9230 H   0  0  0  0  0  0  0  0  0  0  0  0
   -3.8733   20.0364  -33.5502 H   0  0  0  0  0  0  0  0  0  0  0  0
   -3.4860   22.0756  -32.1655 H   0  0  0  0  0  0  0  0  0  0  0  0
   -2.5794   20.9864  -30.6037 H   0  0  0  0  0  0  0  0  0  0  0  0
   -1.3309   19.9633  -28.7152 H   0  0  0  0  0  0  0  0  0  0  0  0
   -1.7213   24.0690  -25.6995 H   0  0  0  0  0  0  0  0  0  0  0  0
   -0.7586   24.4951  -23.5219 H   0  0  0  0  0  0  0  0  0  0  0  0
    0.6203   25.2848  -24.2119 H   0  0  0  0  0  0  0  0  0  0  0  0
   -1.2589   26.7910  -22.9128 H   0  0  0  0  0  0  0  0  0  0  0  0
   -0.7248   28.7124  -24.3612 H   0  0  0  0  0  0  0  0  0  0  0  0
    0.6725   27.7087  -24.5629 H   0  0  0  0  0  0  0  0  0  0  0  0
   -1.4122   28.3247  -26.5550 H   0  0  0  0  0  0  0  0  0  0  0  0
   -0.0400   27.2991  -26.8539 H   0  0  0  0  0  0  0  0  0  0  0  0
   -2.4072   26.1210  -26.8586 H   0  0  0  0  0  0  0  0  0  0  0  0
   -2.0060   25.6680  -30.0480 H   0  0  0  0  0  0  0  0  0  0  0  0
  1  2  1  0
  2  3  1  0
  3  4  2  0
  4  5  1  0
  5  6  2  0
  6  7  1  0
  7  8  2  0
  8  9  1  0
  9 10  1  0
 10 11  2  0
 10 12  1  0
 12 13  1  0
 13 14  2  0
 14 15  1  0
 15 16  2  0
 16 17  1  0
 16 18  1  0
 18 19  1  0
 19 20  2  0
 19 21  2  0
 19 22  1  0
 22 23  1  0
 23 24  1  0
 24 25  1  0
 25 26  1  0
 26 27  1  0
 27 28  1  0
 18 29  2  0
 29 30  1  0
  8  3  1  0
 29 13  1  0
 27 22  1  0
 28 24  1  0
  1 31  1  0
  1 32  1  0
  1 33  1  0
  4 34  1  0
  5 35  1  0
  6 36  1  0
  7 37  1  0
 14 38  1  0
 15 39  1  0
 22 40  1  1
 23 41  1  0
 23 42  1  0
 24 43  1  1
 25 44  1  0
 25 45  1  0
 26 46  1  0
 26 47  1  0
 27 48  1  6
 30 49  1  0
M  CHG  3   9  -1  12  -1  17  -1
M  END
>  <UniqueID>  (6) 
6

>  <SMILES>  (6) 
CSc1ccccc1[N-]C(=O)[N-]c1ccc([O-])c(S(=O)(=O)[C@H]2C[C@H]3CCC2O3)c1O

>  <Energy>  (6) 
85.32491782039402

>  <Genealogy>  (6) 
CSc1ccccc1[N-]C(=O)[N-]c1ccc([O-])c(S(=O)(=O)C2CC3CCC2O3)c1O (protonated)
CSc1ccccc1[N-]C(=O)[N-]c1ccc([O-])c(S(=O)(=O)[C@H]2C[C@H]3CCC2O3)c1O (chirality)
CSc1ccccc1[N-]C(=O)[N-]c1ccc([O-])c(S(=O)(=O)[C@H]2C[C@H]3CCC2O3)c1O (3D coordinates assigned)
CSc1ccccc1[N-]C(=O)[N-]c1ccc([O-])c(S(=O)(=O)[C@H]2C[C@H]3CCC2O3)c1O (nonaromatic ring conformer: 85.32491782039402 kcal/mol)

>  <smiles>  (6) 
CSc1ccccc1NC(=O)Nc1ccc(O)c(S(=O)(=O)C2CC3CCC2O3)c1O

>  <score_type>  (6) 
oracle

>  <origin>  (6) 
adgpu

>  <m_score__min__energy>  (6) 
-13.27

>  <m_primary>  (6) 
energy

$$$$
6:0
     RDKit          3D

 71 75  0  0  0  0  0  0  0  0999 V2000
   -0.6610   18.6190  -27.4980 C   0  0  0  0  0  0  0  0  0  0  0  0
   -1.0410   19.9560  -27.0240 N   0  0  0  0  0  0  0  0  0  0  0  0
   -2.4360   20.2390  -27.3900 C   0  0  0  0  0  0  0  0  0  0  0  0
    0.0080   21.1630  -27.7390 S   0  0  0  0  0  0  0  0  0  0  0  0
    0.1000   20.9210  -29.2230 O   0  0  0  0  0  0  0  0  0  0  0  0
    1.3990   21.0750  -27.1620 O   0  0  0  0  0  0  0  0  0  0  0  0
   -0.6690   22.7790  -27.4630 C   0  0  0  0  0  0  0  0  0  0  0  0
   -1.3650   23.4070  -28.5050 C   0  0  0  0  0  0  0  0  0  0  0  0
   -2.0160   24.6340  -28.2910 C   0  0  0  0  0  0  0  0  0  0  0  0
   -2.7290   25.2970  -29.3420 N   0  0  0  0  0  0  0  0  0  0  0  0
   -4.2320   24.7460  -30.0090 S   0  0  0  0  0  0  0  0  0  0  0  0
   -4.6300   25.6620  -31.1350 O   0  0  0  0  0  0  0  0  0  0  0  0
   -5.3270   24.7770  -28.9760 O   0  0  0  0  0  0  0  0  0  0  0  0
   -4.0150   23.1150  -30.6400 C   0  0  0  0  0  0  0  0  0  0  0  0
   -2.7290   22.6210  -30.8920 C   0  0  0  0  0  0  0  0  0  0  0  0
   -2.5470   21.3650  -31.4860 C   0  0  0  0  0  0  0  0  0  0  0  0
   -1.2090   20.9390  -31.8060 N   0  0  0  0  0  0  0  0  0  0  0  0
   -0.8290   20.4560  -33.0980 C   0  0  0  0  0  0  0  0  0  0  0  0
   -1.0480   19.3040  -33.8370 C   0  0  0  0  0  0  0  0  0  0  0  0
   -1.7030   18.0510  -33.6310 N   0  0  0  0  0  0  0  0  0  0  0  0
   -2.2980   17.2970  -34.7290 C   0  0  0  0  0  0  0  0  0  0  0  0
   -3.7380   16.9970  -34.4160 C   0  0  0  0  0  0  0  0  0  0  0  0
   -4.7640   17.7630  -34.9990 C   0  0  0  0  0  0  0  0  0  0  0  0
   -6.0990   17.5320  -34.6500 C   0  0  0  0  0  0  0  0  0  0  0  0
   -6.4180   16.5450  -33.7120 C   0  0  0  0  0  0  0  0  0  0  0  0
   -5.4040   15.7870  -33.1200 C   0  0  0  0  0  0  0  0  0  0  0  0
   -4.0680   16.0110  -33.4710 C   0  0  0  0  0  0  0  0  0  0  0  0
   -0.3820   19.8750  -34.9100 C   0  0  0  0  0  0  0  0  0  0  0  0
   -0.1100   19.5100  -36.0860 O   0  0  0  0  0  0  0  0  0  0  0  0
   -0.1410   21.0080  -34.1650 C   0  0  0  0  0  0  0  0  0  0  0  0
    0.4280   22.1110  -34.3840 O   0  0  0  0  0  0  0  0  0  0  0  0
   -3.6790   20.5980  -31.8360 C   0  0  0  0  0  0  0  0  0  0  0  0
   -3.5300   19.3830  -32.4940 O   0  0  0  0  0  0  0  0  0  0  0  0
   -4.9720   21.0850  -31.5670 C   0  0  0  0  0  0  0  0  0  0  0  0
   -6.4070   20.1650  -32.0470 S   0  0  0  0  0  0  0  0  0  0  0  0
   -6.2130   18.7180  -31.6820 O   0  0  0  0  0  0  0  0  0  0  0  0
   -6.5690   20.2430  -33.5390 O   0  0  0  0  0  0  0  0  0  0  0  0
   -7.9180   20.7450  -31.2700 C   0  0  0  0  0  0  0  0  0  0  0  0
   -9.1960   20.6710  -32.0930 C   0  0  0  0  0  0  0  0  0  0  0  0
   -8.4930   22.0040  -31.9000 C   0  0  0  0  0  0  0  0  0  0  0  0
   -5.1300   22.3410  -30.9710 C   0  0  0  0  0  0  0  0  0  0  0  0
   -1.9940   25.2130  -27.0160 C   0  0  0  0  0  0  0  0  0  0  0  0
   -1.2800   24.6070  -25.9790 C   0  0  0  0  0  0  0  0  0  0  0  0
   -0.6070   23.3960  -26.1960 C   0  0  0  0  0  0  0  0  0  0  0  0
    0.0940   22.8010  -25.1510 O   0  0  0  0  0  0  0  0  0  0  0  0
   -0.4746   17.9632  -26.6348 H   0  0  0  0  0  0  0  0  0  0  0  0
   -1.4758   18.2006  -28.1071 H   0  0  0  0  0  0  0  0  0  0  0  0
    0.2520   18.6917  -28.1071 H   0  0  0  0  0  0  0  0  0  0  0  0
   -3.0371   20.3610  -26.4769 H   0  0  0  0  0  0  0  0  0  0  0  0
   -2.4789   21.1641  -27.9835 H   0  0  0  0  0  0  0  0  0  0  0  0
   -2.8360   19.4037  -27.9835 H   0  0  0  0  0  0  0  0  0  0  0  0
   -1.4020   22.9357  -29.4982 H   0  0  0  0  0  0  0  0  0  0  0  0
   -1.8514   23.2261  -30.6204 H   0  0  0  0  0  0  0  0  0  0  0  0
   -0.4570   21.1270  -31.1100 H   0  0  0  0  0  0  0  0  0  0  0  0
   -2.0080   17.8300  -32.6540 H   0  0  0  0  0  0  0  0  0  0  0  0
   -2.2407   17.8905  -35.6534 H   0  0  0  0  0  0  0  0  0  0  0  0
   -1.7497   16.3527  -34.8617 H   0  0  0  0  0  0  0  0  0  0  0  0
   -4.5159   18.5456  -35.7311 H   0  0  0  0  0  0  0  0  0  0  0  0
   -6.8989   18.1276  -35.1141 H   0  0  0  0  0  0  0  0  0  0  0  0
   -7.4685   16.3650  -33.4398 H   0  0  0  0  0  0  0  0  0  0  0  0
   -5.6560   15.0146  -32.3784 H   0  0  0  0  0  0  0  0  0  0  0  0
   -3.2720   15.4120  -33.0046 H   0  0  0  0  0  0  0  0  0  0  0  0
   -7.6437   20.4123  -30.2580 H   0  0  0  0  0  0  0  0  0  0  0  0
   -9.1880   20.1826  -33.0786 H   0  0  0  0  0  0  0  0  0  0  0  0
  -10.2148   20.2961  -31.9155 H   0  0  0  0  0  0  0  0  0  0  0  0
   -7.9763   22.4807  -32.7461 H   0  0  0  0  0  0  0  0  0  0  0  0
   -8.7927   22.9937  -31.5250 H   0  0  0  0  0  0  0  0  0  0  0  0
   -6.1403   22.7221  -30.7613 H   0  0  0  0  0  0  0  0  0  0  0  0
   -2.5412   26.1489  -26.8301 H   0  0  0  0  0  0  0  0  0  0  0  0
   -1.2456   25.0822  -24.9875 H   0  0  0  0  0  0  0  0  0  0  0  0
    0.7310   22.0290  -25.3110 H   0  0  0  0  0  0  0  0  0  0  0  0
  1  2  1  0
  2  3  1  0
  2  4  1  0
  4  5  2  0
  4  6  2  0
  4  7  1  0
  7  8  2  0
  8  9  1  0
  9 10  1  0
 10 11  1  0
 11 12  2  0
 11 13  2  0
 11 14  1  0
 14 15  2  0
 15 16  1  0
 16 17  1  0
 17 18  1  0
 18 19  2  0
 19 20  1  0
 20 21  1  0
 21 22  1  0
 22 23  2  0
 23 24  1  0
 24 25  2  0
 25 26  1  0
 26 27  2  0
 19 28  1  0
 28 29  2  0
 28 30  1  0
 30 31  2  0
 16 32  2  0
 32 33  1  0
 32 34  1  0
 34 35  1  0
 35 36  2  0
 35 37  2  0
 35 38  1  0
 38 39  1  0
 39 40  1  0
 34 41  2  0
  9 42  2  0
 42 43  1  0
 43 44  2  0
 44 45  1  0
 44  7  1  0
 41 14  1  0
 30 18  1  0
 40 38  1  0
 27 22  1  0
  1 46  1  0
  1 47  1  0
  1 48  1  0
  3 49  1  0
  3 50  1  0
  3 51  1  0
  8 52  1  0
 15 53  1  0
 17 54  1  0
 20 55  1  0
 21 56  1  0
 21 57  1  0
 23 58  1  0
 24 59  1  0
 25 60  1  0
 26 61  1  0
 27 62  1  0
 38 63  1  0
 39 64  1  0
 39 65  1  0
 40 66  1  0
 40 67  1  0
 41 68  1  0
 42 69  1  0
 43 70  1  0
 45 71  1  0
M  CHG  2  10  -1  33  -1
M  END
>  <UniqueID>  (7) 
7

>  <SMILES>  (7) 
CN(C)S(=O)(=O)c1cc([N-]S(=O)(=O)c2cc(Nc3c(NCc4ccccc4)c(=O)c3=O)c([O-])c(S(=O)(=O)C3CC3)c2)ccc1O

>  <Energy>  (7) 
338.62700781964054

>  <Genealogy>  (7) 
CN(C)S(=O)(=O)c1cc([N-]S(=O)(=O)c2cc(Nc3c(NCc4ccccc4)c(=O)c3=O)c([O-])c(S(=O)(=O)C3CC3)c2)ccc1O (protonated)
CN(C)S(=O)(=O)c1cc([N-]S(=O)(=O)c2cc(Nc3c(NCc4ccccc4)c(=O)c3=O)c([O-])c(S(=O)(=O)C3CC3)c2)ccc1O (3D coordinates assigned)
CN(C)S(=O)(=O)c1cc([N-]S(=O)(=O)c2cc(Nc3c(NCc4ccccc4)c(=O)c3=O)c([O-])c(S(=O)(=O)C3CC3)c2)ccc1O (nonaromatic ring conformer: 338.62700781964054 kcal/mol)

>  <smiles>  (7) 
CN(C)S(=O)(=O)c1cc(NS(=O)(=O)c2cc(Nc3c(NCc4ccccc4)c(=O)c3=O)c(O)c(S(=O)(=O)C3CC3)c2)ccc1O

>  <score_type>  (7) 
oracle

>  <origin>  (7) 
adgpu

>  <m_score__min__energy>  (7) 
-14.5

>  <m_primary>  (7) 
energy

$$$$
7:0
     RDKit          3D

 56 59  0  0  0  0  0  0  0  0999 V2000
   -2.1880   25.6450  -28.4550 O   0  0  0  0  0  0  0  0  0  0  0  0
   -2.6000   24.8280  -29.3210 C   0  0  0  0  0  0  0  0  0  0  0  0
   -3.6010   25.2660  -30.2520 N   0  0  0  0  0  0  0  0  0  0  0  0
   -4.8040   24.5750  -30.6170 C   0  0  0  0  0  0  0  0  0  0  0  0
   -6.0560   24.9280  -30.0860 C   0  0  0  0  0  0  0  0  0  0  0  0
   -7.1900   24.1750  -30.4000 C   0  0  0  0  0  0  0  0  0  0  0  0
   -7.0930   23.0810  -31.2700 C   0  0  0  0  0  0  0  0  0  0  0  0
   -8.5050   22.0680  -31.5890 S   0  0  0  0  0  0  0  0  0  0  0  0
   -9.1120   21.6370  -30.2840 O   0  0  0  0  0  0  0  0  0  0  0  0
   -9.5320   22.8730  -32.3380 O   0  0  0  0  0  0  0  0  0  0  0  0
   -8.0760   20.6480  -32.5190 N   0  0  0  0  0  0  0  0  0  0  0  0
   -6.8860   19.9930  -31.9450 C   0  0  0  0  0  0  0  0  0  0  0  0
   -6.8020   18.5260  -32.3950 C   0  0  0  0  0  0  0  0  0  0  0  0
   -7.9210   17.7360  -32.0050 O   0  0  0  0  0  0  0  0  0  0  0  0
   -9.1020   18.4890  -31.7690 C   0  0  0  0  0  0  0  0  0  0  0  0
   -9.2260   19.7300  -32.6720 C   0  0  0  0  0  0  0  0  0  0  0  0
   -5.8590   22.7800  -31.8620 C   0  0  0  0  0  0  0  0  0  0  0  0
   -4.7220   23.5230  -31.5370 C   0  0  0  0  0  0  0  0  0  0  0  0
   -2.0140   23.4640  -29.3570 C   0  0  0  0  0  0  0  0  0  0  0  0
   -2.8690   22.3590  -29.4960 C   0  0  0  0  0  0  0  0  0  0  0  0
   -2.3480   21.0650  -29.5740 C   0  0  0  0  0  0  0  0  0  0  0  0
   -0.9680   20.8530  -29.5350 C   0  0  0  0  0  0  0  0  0  0  0  0
   -0.4760   19.5120  -29.6410 N   0  0  0  0  0  0  0  0  0  0  0  0
   -0.1860   18.6800  -31.1340 S   0  0  0  0  0  0  0  0  0  0  0  0
    1.1020   19.1260  -31.7660 O   0  0  0  0  0  0  0  0  0  0  0  0
   -0.0780   17.2080  -30.8480 O   0  0  0  0  0  0  0  0  0  0  0  0
   -1.5400   18.9660  -32.2230 C   0  0  0  0  0  0  0  0  0  0  0  0
   -1.9000   20.2770  -32.5700 C   0  0  0  0  0  0  0  0  0  0  0  0
   -2.9940   20.5040  -33.4110 C   0  0  0  0  0  0  0  0  0  0  0  0
   -3.7370   19.4270  -33.9010 C   0  0  0  0  0  0  0  0  0  0  0  0
   -3.3900   18.1210  -33.5510 C   0  0  0  0  0  0  0  0  0  0  0  0
   -2.2960   17.8880  -32.7130 C   0  0  0  0  0  0  0  0  0  0  0  0
   -0.1080   21.9480  -29.3540 C   0  0  0  0  0  0  0  0  0  0  0  0
   -0.6240   23.2470  -29.2380 C   0  0  0  0  0  0  0  0  0  0  0  0
    0.2380   24.3130  -28.9860 O   0  0  0  0  0  0  0  0  0  0  0  0
   -6.1435   25.7999  -29.4211 H   0  0  0  0  0  0  0  0  0  0  0  0
   -8.1632   24.4421  -29.9624 H   0  0  0  0  0  0  0  0  0  0  0  0
   -5.9839   20.5256  -32.2804 H   0  0  0  0  0  0  0  0  0  0  0  0
   -6.9614   20.0222  -30.8480 H   0  0  0  0  0  0  0  0  0  0  0  0
   -6.7288   18.5043  -33.4923 H   0  0  0  0  0  0  0  0  0  0  0  0
   -5.9189   18.0921  -31.9032 H   0  0  0  0  0  0  0  0  0  0  0  0
   -9.9714   17.8393  -31.9478 H   0  0  0  0  0  0  0  0  0  0  0  0
   -9.0572   18.8465  -30.7297 H   0  0  0  0  0  0  0  0  0  0  0  0
   -9.2804   19.4015  -33.7204 H   0  0  0  0  0  0  0  0  0  0  0  0
  -10.1350   20.2742  -32.3761 H   0  0  0  0  0  0  0  0  0  0  0  0
   -5.7856   21.9549  -32.5858 H   0  0  0  0  0  0  0  0  0  0  0  0
   -3.7572   23.2804  -32.0063 H   0  0  0  0  0  0  0  0  0  0  0  0
   -3.9571   22.5132  -29.5438 H   0  0  0  0  0  0  0  0  0  0  0  0
   -3.0297   20.2067  -29.6668 H   0  0  0  0  0  0  0  0  0  0  0  0
   -1.3211   21.1272  -32.1801 H   0  0  0  0  0  0  0  0  0  0  0  0
   -3.2701   21.5323  -33.6872 H   0  0  0  0  0  0  0  0  0  0  0  0
   -4.5963   19.6084  -34.5633 H   0  0  0  0  0  0  0  0  0  0  0  0
   -3.9781   17.2745  -33.9351 H   0  0  0  0  0  0  0  0  0  0  0  0
   -2.0262   16.8581  -32.4364 H   0  0  0  0  0  0  0  0  0  0  0  0
    0.9788   21.7858  -29.3028 H   0  0  0  0  0  0  0  0  0  0  0  0
   -0.0950   25.2700  -28.9500 H   0  0  0  0  0  0  0  0  0  0  0  0
  1  2  2  0
  2  3  1  0
  3  4  1  0
  4  5  2  0
  5  6  1  0
  6  7  2  0
  7  8  1  0
  8  9  2  0
  8 10  2  0
  8 11  1  0
 11 12  1  0
 12 13  1  0
 13 14  1  0
 14 15  1  0
 15 16  1  0
  7 17  1  0
 17 18  2  0
  2 19  1  0
 19 20  2  0
 20 21  1  0
 21 22  2  0
 22 23  1  0
 23 24  1  0
 24 25  2  0
 24 26  2  0
 24 27  1  0
 27 28  2  0
 28 29  1  0
 29 30  2  0
 30 31  1  0
 31 32  2  0
 22 33  1  0
 33 34  2  0
 34 35  1  0
 18  4  1  0
 34 19  1  0
 16 11  1  0
 32 27  1  0
  5 36  1  0
  6 37  1  0
 12 38  1  0
 12 39  1  0
 13 40  1  0
 13 41  1  0
 15 42  1  0
 15 43  1  0
 16 44  1  0
 16 45  1  0
 17 46  1  0
 18 47  1  0
 20 48  1  0
 21 49  1  0
 28 50  1  0
 29 51  1  0
 30 52  1  0
 31 53  1  0
 32 54  1  0
 33 55  1  0
 35 56  1  0
M  CHG  2   3  -1  23  -1
M  END
>  <UniqueID>  (8) 
8

>  <SMILES>  (8) 
O=C([N-]c1ccc(S(=O)(=O)N2CCOCC2)cc1)c1ccc([N-]S(=O)(=O)c2ccccc2)cc1O

>  <Energy>  (8) 
81.92008538175733

>  <Genealogy>  (8) 
O=C([N-]c1ccc(S(=O)(=O)N2CCOCC2)cc1)c1ccc([N-]S(=O)(=O)c2ccccc2)cc1O (protonated)
O=C([N-]c1ccc(S(=O)(=O)N2CCOCC2)cc1)c1ccc([N-]S(=O)(=O)c2ccccc2)cc1O (3D coordinates assigned)
O=C([N-]c1ccc(S(=O)(=O)N2CCOCC2)cc1)c1ccc([N-]S(=O)(=O)c2ccccc2)cc1O (nonaromatic ring conformer: 81.92008538175733 kcal/mol)

>  <smiles>  (8) 
O=C(Nc1ccc(S(=O)(=O)N2CCOCC2)cc1)c1ccc(NS(=O)(=O)c2ccccc2)cc1O

>  <score_type>  (8) 
oracle

>  <origin>  (8) 
adgpu

>  <m_score__min__energy>  (8) 
-11.960000000000001

>  <m_primary>  (8) 
energy

$$$$
8:0
     RDKit          3D

 54 56  0  0  0  0  0  0  0  0999 V2000
   -6.8250   23.6990  -30.7270 C   0  0  0  0  0  0  0  0  0  0  0  0
   -5.8190   24.2120  -31.4390 C   0  0  0  0  0  0  0  0  0  0  0  0
   -5.1760   25.5180  -31.0660 C   0  0  0  0  0  0  0  0  0  0  0  0
   -3.8630   25.2970  -30.4650 N   0  0  0  0  0  0  0  0  0  0  0  0
   -3.6560   24.5590  -29.2520 C   0  0  0  0  0  0  0  0  0  0  0  0
   -4.6540   24.1230  -28.6170 O   0  0  0  0  0  0  0  0  0  0  0  0
   -2.2720   24.2890  -28.7740 C   0  0  0  0  0  0  0  0  0  0  0  0
   -1.7880   24.9950  -27.6530 C   0  0  0  0  0  0  0  0  0  0  0  0
   -0.4770   24.8120  -27.1920 C   0  0  0  0  0  0  0  0  0  0  0  0
    0.0030   25.5430  -25.9720 C   0  0  0  0  0  0  0  0  0  0  0  0
    0.3570   23.8900  -27.8330 C   0  0  0  0  0  0  0  0  0  0  0  0
   -0.1020   23.1820  -28.9420 C   0  0  0  0  0  0  0  0  0  0  0  0
   -1.4060   23.3720  -29.4270 C   0  0  0  0  0  0  0  0  0  0  0  0
   -1.8600   22.5750  -30.5320 N   0  0  0  0  0  0  0  0  0  0  0  0
   -2.9300   21.6230  -30.4070 C   0  0  0  0  0  0  0  0  0  0  0  0
   -3.5270   21.4930  -29.3030 O   0  0  0  0  0  0  0  0  0  0  0  0
   -3.3440   20.7790  -31.5540 C   0  0  0  0  0  0  0  0  0  0  0  0
   -2.6290   20.7930  -32.7650 C   0  0  0  0  0  0  0  0  0  0  0  0
   -3.0250   19.9790  -33.8290 C   0  0  0  0  0  0  0  0  0  0  0  0
   -4.1320   19.1360  -33.6950 C   0  0  0  0  0  0  0  0  0  0  0  0
   -4.8430   19.0930  -32.4880 C   0  0  0  0  0  0  0  0  0  0  0  0
   -6.2180   18.0010  -32.3050 S   0  0  0  0  0  0  0  0  0  0  0  0
   -6.3740   17.6440  -30.8530 O   0  0  0  0  0  0  0  0  0  0  0  0
   -5.9450   16.7320  -33.0650 O   0  0  0  0  0  0  0  0  0  0  0  0
   -7.7090   18.7150  -32.8870 N   0  0  0  0  0  0  0  0  0  0  0  0
   -8.7330   18.7340  -31.8370 C   0  0  0  0  0  0  0  0  0  0  0  0
   -8.7420   20.1160  -31.1970 C   0  0  0  0  0  0  0  0  0  0  0  0
   -7.9580   21.0090  -32.1390 C   0  0  0  0  0  0  0  0  0  0  0  0
   -7.5090   20.1140  -33.2850 C   0  0  0  0  0  0  0  0  0  0  0  0
   -4.4490   19.9170  -31.4250 C   0  0  0  0  0  0  0  0  0  0  0  0
   -7.2764   22.7408  -31.0239 H   0  0  0  0  0  0  0  0  0  0  0  0
   -7.2026   24.2345  -29.8434 H   0  0  0  0  0  0  0  0  0  0  0  0
   -5.4518   23.6654  -32.3201 H   0  0  0  0  0  0  0  0  0  0  0  0
   -5.0598   26.1339  -31.9700 H   0  0  0  0  0  0  0  0  0  0  0  0
   -5.8173   26.0301  -30.3335 H   0  0  0  0  0  0  0  0  0  0  0  0
   -2.4507   25.7013  -27.1316 H   0  0  0  0  0  0  0  0  0  0  0  0
   -0.3424   25.0170  -25.0698 H   0  0  0  0  0  0  0  0  0  0  0  0
    1.1023   25.5809  -25.9761 H   0  0  0  0  0  0  0  0  0  0  0  0
   -0.3992   26.5668  -25.9761 H   0  0  0  0  0  0  0  0  0  0  0  0
    1.3785   23.7233  -27.4605 H   0  0  0  0  0  0  0  0  0  0  0  0
    0.5653   22.4656  -29.4436 H   0  0  0  0  0  0  0  0  0  0  0  0
   -1.4010   22.7260  -31.4570 H   0  0  0  0  0  0  0  0  0  0  0  0
   -1.7527   21.4488  -32.8750 H   0  0  0  0  0  0  0  0  0  0  0  0
   -2.4641   20.0015  -34.7750 H   0  0  0  0  0  0  0  0  0  0  0  0
   -4.4459   18.5046  -34.5393 H   0  0  0  0  0  0  0  0  0  0  0  0
   -9.7190   18.5219  -32.2762 H   0  0  0  0  0  0  0  0  0  0  0  0
   -8.5103   17.9686  -31.0790 H   0  0  0  0  0  0  0  0  0  0  0  0
   -9.7736   20.4827  -31.0904 H   0  0  0  0  0  0  0  0  0  0  0  0
   -8.2997   20.1002  -30.1900 H   0  0  0  0  0  0  0  0  0  0  0  0
   -8.5963   21.8218  -32.5157 H   0  0  0  0  0  0  0  0  0  0  0  0
   -7.1011   21.4770  -31.6324 H   0  0  0  0  0  0  0  0  0  0  0  0
   -8.1050   20.3335  -34.1831 H   0  0  0  0  0  0  0  0  0  0  0  0
   -6.4478   20.2942  -33.5115 H   0  0  0  0  0  0  0  0  0  0  0  0
   -5.0098   19.8897  -30.4791 H   0  0  0  0  0  0  0  0  0  0  0  0
  1  2  2  0
  2  3  1  0
  3  4  1  0
  4  5  1  0
  5  6  2  0
  5  7  1  0
  7  8  2  0
  8  9  1  0
  9 10  1  0
  9 11  2  0
 11 12  1  0
 12 13  2  0
 13 14  1  0
 14 15  1  0
 15 16  2  0
 15 17  1  0
 17 18  2  0
 18 19  1  0
 19 20  2  0
 20 21  1  0
 21 22  1  0
 22 23  2  0
 22 24  2  0
 22 25  1  0
 25 26  1  0
 26 27  1  0
 27 28  1  0
 28 29  1  0
 21 30  2  0
 13  7  1  0
 30 17  1  0
 29 25  1  0
  1 31  1  0
  1 32  1  0
  2 33  1  0
  3 34  1  0
  3 35  1  0
  8 36  1  0
 10 37  1  0
 10 38  1  0
 10 39  1  0
 11 40  1  0
 12 41  1  0
 14 42  1  0
 18 43  1  0
 19 44  1  0
 20 45  1  0
 26 46  1  0
 26 47  1  0
 27 48  1  0
 27 49  1  0
 28 50  1  0
 28 51  1  0
 29 52  1  0
 29 53  1  0
 30 54  1  0
M  CHG  1   4  -1
M  END
>  <UniqueID>  (9) 
9

>  <SMILES>  (9) 
C=CC[N-]C(=O)c1cc(C)ccc1NC(=O)c1cccc(S(=O)(=O)N2CCCC2)c1

>  <Energy>  (9) 
60.16113021684618

>  <Genealogy>  (9) 
C=CC[N-]C(=O)c1cc(C)ccc1NC(=O)c1cccc(S(=O)(=O)N2CCCC2)c1 (protonated)
C=CC[N-]C(=O)c1cc(C)ccc1NC(=O)c1cccc(S(=O)(=O)N2CCCC2)c1 (3D coordinates assigned)
C=CC[N-]C(=O)c1cc(C)ccc1NC(=O)c1cccc(S(=O)(=O)N2CCCC2)c1 (nonaromatic ring conformer: 60.16113021684618 kcal/mol)

>  <smiles>  (9) 
C=CCNC(=O)c1cc(C)ccc1NC(=O)c1cccc(S(=O)(=O)N2CCCC2)c1

>  <score_type>  (9) 
oracle

>  <origin>  (9) 
adgpu

>  <m_score__min__energy>  (9) 
-10.970000000000001

>  <m_primary>  (9) 
energy

$$$$
9:0
     RDKit          3D

 41 42  0  0  0  0  0  0  0  0999 V2000
   -6.8530   19.4330  -33.8210 C   0  0  0  0  0  0  0  0  0  0  0  0
   -7.5680   19.8360  -32.5090 C   0  0  0  0  0  0  0  0  0  0  0  0
   -7.3360   18.7140  -31.4760 C   0  0  0  0  0  0  0  0  0  0  0  0
   -9.0800   19.9450  -32.8190 C   0  0  0  0  0  0  0  0  0  0  0  0
   -7.0630   21.1750  -31.9310 C   0  0  0  0  0  0  0  0  0  0  0  0
   -7.5300   21.7050  -30.7050 C   0  0  0  0  0  0  0  0  0  0  0  0
   -7.0030   22.8930  -30.1880 C   0  0  0  0  0  0  0  0  0  0  0  0
   -6.0030   23.5830  -30.8800 C   0  0  0  0  0  0  0  0  0  0  0  0
   -5.1920   24.9700  -30.1500 S   0  0  0  0  0  0  0  0  0  0  0  0
   -5.7950   26.2350  -30.7000 O   0  0  0  0  0  0  0  0  0  0  0  0
   -5.3700   24.9470  -28.6550 O   0  0  0  0  0  0  0  0  0  0  0  0
   -3.5000   24.9240  -30.5350 N   0  0  0  0  0  0  0  0  0  0  0  0
   -2.5750   24.2010  -29.7190 C   0  0  0  0  0  0  0  0  0  0  0  0
   -2.6260   22.8000  -29.6990 C   0  0  0  0  0  0  0  0  0  0  0  0
   -3.5110   22.1190  -30.5270 O   0  0  0  0  0  0  0  0  0  0  0  0
   -1.8020   22.0820  -28.8270 C   0  0  0  0  0  0  0  0  0  0  0  0
   -0.9330   22.7580  -27.9670 C   0  0  0  0  0  0  0  0  0  0  0  0
   -0.8570   24.1580  -27.9940 C   0  0  0  0  0  0  0  0  0  0  0  0
    0.2080   25.0150  -26.8770 S   0  0  0  0  0  0  0  0  0  0  0  0
   -0.4420   26.3070  -26.4640 O   0  0  0  0  0  0  0  0  0  0  0  0
    0.4660   24.1830  -25.6530 O   0  0  0  0  0  0  0  0  0  0  0  0
    1.6740   25.3370  -27.6350 O   0  0  0  0  0  0  0  0  0  0  0  0
   -1.6660   24.8800  -28.8900 C   0  0  0  0  0  0  0  0  0  0  0  0
   -1.5700   26.2640  -28.9630 O   0  0  0  0  0  0  0  0  0  0  0  0
   -5.5620   23.0990  -32.1140 C   0  0  0  0  0  0  0  0  0  0  0  0
   -6.0890   21.9160  -32.6380 C   0  0  0  0  0  0  0  0  0  0  0  0
   -5.9177   18.9058  -33.5818 H   0  0  0  0  0  0  0  0  0  0  0  0
   -7.5076   18.7710  -34.4069 H   0  0  0  0  0  0  0  0  0  0  0  0
   -6.6256   20.3358  -34.4069 H   0  0  0  0  0  0  0  0  0  0  0  0
   -7.4215   19.1274  -30.4602 H   0  0  0  0  0  0  0  0  0  0  0  0
   -8.0901   17.9254  -31.6156 H   0  0  0  0  0  0  0  0  0  0  0  0
   -6.3310   18.2891  -31.6156 H   0  0  0  0  0  0  0  0  0  0  0  0
   -9.6455   19.9858  -31.8764 H   0  0  0  0  0  0  0  0  0  0  0  0
   -9.2701   20.8592  -33.4005 H   0  0  0  0  0  0  0  0  0  0  0  0
   -9.3993   19.0675  -33.4005 H   0  0  0  0  0  0  0  0  0  0  0  0
   -8.3187   21.1752  -30.1506 H   0  0  0  0  0  0  0  0  0  0  0  0
   -7.3774   23.2867  -29.2315 H   0  0  0  0  0  0  0  0  0  0  0  0
   -1.8380   20.9826  -28.8181 H   0  0  0  0  0  0  0  0  0  0  0  0
   -0.3053   22.1893  -27.2652 H   0  0  0  0  0  0  0  0  0  0  0  0
   -4.7955   23.6525  -32.6763 H   0  0  0  0  0  0  0  0  0  0  0  0
   -5.7402   21.5553  -33.6169 H   0  0  0  0  0  0  0  0  0  0  0  0
  1  2  1  0
  2  3  1  0
  2  4  1  0
  2  5  1  0
  5  6  2  0
  6  7  1  0
  7  8  2  0
  8  9  1  0
  9 10  2  0
  9 11  2  0
  9 12  1  0
 12 13  1  0
 13 14  2  0
 14 15  1  0
 14 16  1  0
 16 17  2  0
 17 18  1  0
 18 19  1  0
 19 20  2  0
 19 21  2  0
 19 22  1  0
 18 23  2  0
 23 24  1  0
  8 25  1  0
 25 26  2  0
 26  5  1  0
 23 13  1  0
  1 27  1  0
  1 28  1  0
  1 29  1  0
  3 30  1  0
  3 31  1  0
  3 32  1  0
  4 33  1  0
  4 34  1  0
  4 35  1  0
  6 36  1  0
  7 37  1  0
 16 38  1  0
 17 39  1  0
 25 40  1  0
 26 41  1  0
M  CHG  4  12  -1  15  -1  22  -1  24  -1
M  END
>  <UniqueID>  (10) 
10

>  <SMILES>  (10) 
CC(C)(C)c1ccc(S(=O)(=O)[N-]c2c([O-])ccc(S(=O)(=O)[O-])c2[O-])cc1

>  <Energy>  (10) 
51.80830111029843

>  <Genealogy>  (10) 
CC(C)(C)c1ccc(S(=O)(=O)[N-]c2c([O-])ccc(S(=O)(=O)[O-])c2[O-])cc1 (protonated)
CC(C)(C)c1ccc(S(=O)(=O)[N-]c2c([O-])ccc(S(=O)(=O)[O-])c2[O-])cc1 (3D coordinates assigned)
CC(C)(C)c1ccc(S(=O)(=O)[N-]c2c([O-])ccc(S(=O)(=O)[O-])c2[O-])cc1 (optimized conformer: 51.80830111029843 kcal/mol)

>  <smiles>  (10) 
CC(C)(C)c1ccc(S(=O)(=O)Nc2c(O)ccc(S(=O)(=O)O)c2O)cc1

>  <score_type>  (10) 
oracle

>  <origin>  (10) 
adgpu

>  <m_score__min__energy>  (10) 
-14.42

>  <m_primary>  (10) 
energy

$$$$
10:0
     RDKit          3D

 34 35  0  0  0  0  0  0  0  0999 V2000
    0.4450   21.7860  -27.5900 C   0  0  0  0  0  0  0  0  0  0  0  0
   -0.9880   21.8440  -28.0490 C   0  0  0  0  0  0  0  0  0  0  0  0
   -1.6200   20.6350  -28.3820 C   0  0  0  0  0  0  0  0  0  0  0  0
   -2.9510   20.6150  -28.7810 C   0  0  0  0  0  0  0  0  0  0  0  0
   -3.6810   21.7970  -28.8380 C   0  0  0  0  0  0  0  0  0  0  0  0
   -3.0800   23.0270  -28.5250 C   0  0  0  0  0  0  0  0  0  0  0  0
   -3.8840   24.2200  -28.5000 N   0  0  0  0  0  0  0  0  0  0  0  0
   -4.8210   24.7530  -29.8590 S   0  0  0  0  0  0  0  0  0  0  0  0
   -5.8110   25.7860  -29.4020 O   0  0  0  0  0  0  0  0  0  0  0  0
   -3.9020   25.3750  -30.8730 O   0  0  0  0  0  0  0  0  0  0  0  0
   -5.6840   23.3940  -30.5700 C   0  0  0  0  0  0  0  0  0  0  0  0
   -5.1140   22.6720  -31.6290 C   0  0  0  0  0  0  0  0  0  0  0  0
   -5.7990   21.5890  -32.1890 C   0  0  0  0  0  0  0  0  0  0  0  0
   -7.0560   21.2240  -31.6960 C   0  0  0  0  0  0  0  0  0  0  0  0
   -7.9900   19.7440  -32.4610 Br  0  0  0  0  0  0  0  0  0  0  0  0
   -7.6290   21.9450  -30.6440 C   0  0  0  0  0  0  0  0  0  0  0  0
   -6.9460   23.0290  -30.0830 C   0  0  0  0  0  0  0  0  0  0  0  0
   -1.7050   23.0670  -28.1740 C   0  0  0  0  0  0  0  0  0  0  0  0
   -0.9080   24.6440  -27.9170 S   0  0  0  0  0  0  0  0  0  0  0  0
   -1.6180   25.8210  -28.9640 N   0  0  0  0  0  0  0  0  0  0  0  0
    0.5600   24.5310  -28.2210 O   0  0  0  0  0  0  0  0  0  0  0  0
   -1.0370   25.1030  -26.4930 O   0  0  0  0  0  0  0  0  0  0  0  0
    0.4781   21.7847  -26.4905 H   0  0  0  0  0  0  0  0  0  0  0  0
    0.9155   20.8681  -27.9721 H   0  0  0  0  0  0  0  0  0  0  0  0
    0.9882   22.6629  -27.9721 H   0  0  0  0  0  0  0  0  0  0  0  0
   -1.0549   19.6929  -28.3264 H   0  0  0  0  0  0  0  0  0  0  0  0
   -3.4282   19.6618  -29.0524 H   0  0  0  0  0  0  0  0  0  0  0  0
   -4.7408   21.7683  -29.1314 H   0  0  0  0  0  0  0  0  0  0  0  0
   -3.9130   24.8090  -27.6390 H   0  0  0  0  0  0  0  0  0  0  0  0
   -4.1264   22.9582  -32.0197 H   0  0  0  0  0  0  0  0  0  0  0  0
   -5.3487   21.0235  -33.0182 H   0  0  0  0  0  0  0  0  0  0  0  0
   -8.6183   21.6593  -30.2570 H   0  0  0  0  0  0  0  0  0  0  0  0
   -7.4007   23.5963  -29.2575 H   0  0  0  0  0  0  0  0  0  0  0  0
   -2.0080   25.3050  -29.7830 H   0  0  0  0  0  0  0  0  0  0  0  0
  1  2  1  0
  2  3  2  0
  3  4  1  0
  4  5  2  0
  5  6  1  0
  6  7  1  0
  7  8  1  0
  8  9  2  0
  8 10  2  0
  8 11  1  0
 11 12  2  0
 12 13  1  0
 13 14  2  0
 14 15  1  0
 14 16  1  0
 16 17  2  0
  6 18  2  0
 18 19  1  0
 19 20  1  0
 19 21  2  0
 19 22  2  0
 18  2  1  0
 17 11  1  0
  1 23  1  0
  1 24  1  0
  1 25  1  0
  3 26  1  0
  4 27  1  0
  5 28  1  0
  7 29  1  0
 12 30  1  0
 13 31  1  0
 16 32  1  0
 17 33  1  0
 20 34  1  0
M  CHG  1  20  -1
M  END
>  <UniqueID>  (11) 
11

>  <SMILES>  (11) 
Cc1cccc(NS(=O)(=O)c2ccc(Br)cc2)c1S([NH-])(=O)=O

>  <Energy>  (11) 
43.619254873777926

>  <Genealogy>  (11) 
Cc1cccc(NS(=O)(=O)c2ccc(Br)cc2)c1S([NH-])(=O)=O (protonated)
Cc1cccc(NS(=O)(=O)c2ccc(Br)cc2)c1S([NH-])(=O)=O (3D coordinates assigned)
Cc1cccc(NS(=O)(=O)c2ccc(Br)cc2)c1S([NH-])(=O)=O (optimized conformer: 43.619254873777926 kcal/mol)

>  <smiles>  (11) 
Cc1cccc(NS(=O)(=O)c2ccc(Br)cc2)c1S(N)(=O)=O

>  <score_type>  (11) 
oracle

>  <origin>  (11) 
adgpu

>  <m_score__min__energy>  (11) 
-11.31

>  <m_primary>  (11) 
energy

$$$$
11:0
     RDKit          3D

 41 43  0  0  0  0  0  0  0  0999 V2000
   -1.6110   25.8150  -28.9730 N   0  0  0  0  0  0  0  0  0  0  0  0
   -0.8340   24.6590  -27.9480 S   0  0  0  0  0  0  0  0  0  0  0  0
    0.5590   24.4120  -28.4590 O   0  0  0  0  0  0  0  0  0  0  0  0
   -0.7670   25.2270  -26.5580 O   0  0  0  0  0  0  0  0  0  0  0  0
   -1.7320   23.1340  -27.9190 C   0  0  0  0  0  0  0  0  0  0  0  0
   -1.0400   21.9360  -27.6800 C   0  0  0  0  0  0  0  0  0  0  0  0
   -1.7110   20.7120  -27.6890 C   0  0  0  0  0  0  0  0  0  0  0  0
   -3.0810   20.6690  -27.9340 C   0  0  0  0  0  0  0  0  0  0  0  0
   -3.7860   21.8500  -28.1700 C   0  0  0  0  0  0  0  0  0  0  0  0
   -3.1260   23.0930  -28.1700 C   0  0  0  0  0  0  0  0  0  0  0  0
   -3.8710   24.3010  -28.4110 N   0  0  0  0  0  0  0  0  0  0  0  0
   -4.7210   24.5880  -29.8950 S   0  0  0  0  0  0  0  0  0  0  0  0
   -5.9870   25.3420  -29.6000 O   0  0  0  0  0  0  0  0  0  0  0  0
   -3.8610   25.4120  -30.8120 O   0  0  0  0  0  0  0  0  0  0  0  0
   -5.0740   23.0530  -30.6830 C   0  0  0  0  0  0  0  0  0  0  0  0
   -4.0750   22.3590  -31.3790 C   0  0  0  0  0  0  0  0  0  0  0  0
   -4.3750   21.1570  -32.0250 C   0  0  0  0  0  0  0  0  0  0  0  0
   -5.6790   20.6310  -31.9870 C   0  0  0  0  0  0  0  0  0  0  0  0
   -6.0000   19.3570  -32.6810 C   0  0  0  0  0  0  0  0  0  0  0  0
   -6.8810   18.4260  -32.0970 C   0  0  0  0  0  0  0  0  0  0  0  0
   -7.1810   17.2280  -32.7530 C   0  0  0  0  0  0  0  0  0  0  0  0
   -6.6070   16.9460  -33.9950 C   0  0  0  0  0  0  0  0  0  0  0  0
   -5.7320   17.8610  -34.5840 C   0  0  0  0  0  0  0  0  0  0  0  0
   -5.4290   19.0600  -33.9340 C   0  0  0  0  0  0  0  0  0  0  0  0
   -6.6750   21.3330  -31.2840 C   0  0  0  0  0  0  0  0  0  0  0  0
   -6.3720   22.5330  -30.6370 C   0  0  0  0  0  0  0  0  0  0  0  0
   -1.9490   25.3010  -29.8170 H   0  0  0  0  0  0  0  0  0  0  0  0
    0.0420   21.9622  -27.4836 H   0  0  0  0  0  0  0  0  0  0  0  0
   -1.1568   19.7803  -27.5023 H   0  0  0  0  0  0  0  0  0  0  0  0
   -3.6080   19.7035  -27.9415 H   0  0  0  0  0  0  0  0  0  0  0  0
   -4.8690   21.8089  -28.3580 H   0  0  0  0  0  0  0  0  0  0  0  0
   -3.8270   25.0900  -27.7320 H   0  0  0  0  0  0  0  0  0  0  0  0
   -3.0520   22.7617  -31.4168 H   0  0  0  0  0  0  0  0  0  0  0  0
   -3.5849   20.6175  -32.5678 H   0  0  0  0  0  0  0  0  0  0  0  0
   -7.3357   18.6426  -31.1191 H   0  0  0  0  0  0  0  0  0  0  0  0
   -7.8702   16.5064  -32.2902 H   0  0  0  0  0  0  0  0  0  0  0  0
   -6.8444   16.0029  -34.5091 H   0  0  0  0  0  0  0  0  0  0  0  0
   -5.2804   17.6373  -35.5617 H   0  0  0  0  0  0  0  0  0  0  0  0
   -4.7398   19.7770  -34.4039 H   0  0  0  0  0  0  0  0  0  0  0  0
   -7.6993   20.9341  -31.2436 H   0  0  0  0  0  0  0  0  0  0  0  0
   -7.1582   23.0723  -30.0882 H   0  0  0  0  0  0  0  0  0  0  0  0
  1  2  1  0
  2  3  2  0
  2  4  2  0
  2  5  1  0
  5  6  2  0
  6  7  1  0
  7  8  2  0
  8  9  1  0
  9 10  2  0
 10 11  1  0
 11 12  1  0
 12 13  2  0
 12 14  2  0
 12 15  1  0
 15 16  2  0
 16 17  1  0
 17 18  2  0
 18 19  1  0
 19 20  2  0
 20 21  1  0
 21 22  2  0
 22 23  1  0
 23 24  2  0
 18 25  1  0
 25 26  2  0
 10  5  1  0
 26 15  1  0
 24 19  1  0
  1 27  1  0
  6 28  1  0
  7 29  1  0
  8 30  1  0
  9 31  1  0
 11 32  1  0
 16 33  1  0
 17 34  1  0
 20 35  1  0
 21 36  1  0
 22 37  1  0
 23 38  1  0
 24 39  1  0
 25 40  1  0
 26 41  1  0
M  CHG  1   1  -1
M  END
>  <UniqueID>  (12) 
12

>  <SMILES>  (12) 
[NH-]S(=O)(=O)c1ccccc1NS(=O)(=O)c1ccc(-c2ccccc2)cc1

>  <Energy>  (12) 
53.81231610320467

>  <Genealogy>  (12) 
[NH-]S(=O)(=O)c1ccccc1NS(=O)(=O)c1ccc(-c2ccccc2)cc1 (protonated)
[NH-]S(=O)(=O)c1ccccc1NS(=O)(=O)c1ccc(-c2ccccc2)cc1 (3D coordinates assigned)
[NH-]S(=O)(=O)c1ccccc1NS(=O)(=O)c1ccc(-c2ccccc2)cc1 (optimized conformer: 53.81231610320467 kcal/mol)

>  <smiles>  (12) 
NS(=O)(=O)c1ccccc1NS(=O)(=O)c1ccc(-c2ccccc2)cc1

>  <score_type>  (12) 
oracle

>  <origin>  (12) 
adgpu

>  <m_score__min__energy>  (12) 
-12.550000000000001

>  <m_primary>  (12) 
energy

$$$$
12:0
     RDKit          3D

 79 85  0  0  0  0  0  0  0  0999 V2000
   -0.5920   17.2414  -33.7403 H   0  0  0  0  0  0  0  0  0  0  0  0
   -0.5330   18.3390  -33.6970 C   0  0  0  0  0  0  0  0  0  0  0  0
   -0.8190   19.0050  -32.5030 C   0  0  0  0  0  0  0  0  0  0  0  0
   -1.1234   18.4319  -31.6148 H   0  0  0  0  0  0  0  0  0  0  0  0
   -0.7190   20.4060  -32.4330 C   0  0  0  0  0  0  0  0  0  0  0  0
   -0.9680   21.1170  -31.2490 O   0  0  0  0  0  0  0  0  0  0  0  0
   -2.1070   21.8910  -30.9760 C   0  0  0  0  0  0  0  0  0  0  0  0
   -2.0390   22.8720  -30.0480 N   0  0  0  0  0  0  0  0  0  0  0  0
   -3.0480   23.7130  -29.6530 C   0  0  0  0  0  0  0  0  0  0  0  0
   -2.7740   24.6260  -28.7620 N   0  0  0  0  0  0  0  0  0  0  0  0
   -1.5030   24.7450  -28.1120 C   0  0  0  0  0  0  0  0  0  0  0  0
   -0.8730   23.6100  -27.5900 C   0  0  0  0  0  0  0  0  0  0  0  0
   -1.3635   22.6280  -27.6612 H   0  0  0  0  0  0  0  0  0  0  0  0
    0.3770   23.7220  -26.9790 C   0  0  0  0  0  0  0  0  0  0  0  0
    0.8664   22.8277  -26.5659 H   0  0  0  0  0  0  0  0  0  0  0  0
    1.0140   24.9730  -26.8890 C   0  0  0  0  0  0  0  0  0  0  0  0
    2.3100   25.0820  -26.2750 N   0  0  0  0  0  0  0  0  0  0  0  0
    2.4030   24.9290  -24.8120 C   0  0  0  0  0  0  0  0  0  0  0  0
    1.8400   25.7473  -24.3393 H   0  0  0  0  0  0  0  0  0  0  0  0
    1.9892   23.9410  -24.5619 H   0  0  0  0  0  0  0  0  0  0  0  0
    3.8500   24.9630  -24.2840 C   0  0  0  0  0  0  0  0  0  0  0  0
    4.1168   26.0025  -24.0428 H   0  0  0  0  0  0  0  0  0  0  0  0
    3.9033   24.3240  -23.3902 H   0  0  0  0  0  0  0  0  0  0  0  0
    4.7660   24.4650  -25.2350 O   0  0  0  0  0  0  0  0  0  0  0  0
    4.7800   25.3290  -26.3500 C   0  0  0  0  0  0  0  0  0  0  0  0
    4.8661   26.3695  -26.0036 H   0  0  0  0  0  0  0  0  0  0  0  0
    5.6376   25.0772  -26.9913 H   0  0  0  0  0  0  0  0  0  0  0  0
    3.4910   25.1680  -27.1510 C   0  0  0  0  0  0  0  0  0  0  0  0
    3.3764   26.0343  -27.8192 H   0  0  0  0  0  0  0  0  0  0  0  0
    3.5598   24.2323  -27.7252 H   0  0  0  0  0  0  0  0  0  0  0  0
    0.3810   26.1070  -27.4170 C   0  0  0  0  0  0  0  0  0  0  0  0
    0.8761   27.0875  -27.3586 H   0  0  0  0  0  0  0  0  0  0  0  0
   -0.8780   25.9970  -28.0180 C   0  0  0  0  0  0  0  0  0  0  0  0
   -1.3774   26.8924  -28.4166 H   0  0  0  0  0  0  0  0  0  0  0  0
   -4.3820   23.6510  -30.1870 C   0  0  0  0  0  0  0  0  0  0  0  0
   -5.3680   24.5670  -29.7460 C   0  0  0  0  0  0  0  0  0  0  0  0
   -5.1087   25.3085  -28.9760 H   0  0  0  0  0  0  0  0  0  0  0  0
   -6.6630   24.5480  -30.2690 C   0  0  0  0  0  0  0  0  0  0  0  0
   -7.4065   25.2775  -29.9155 H   0  0  0  0  0  0  0  0  0  0  0  0
   -7.0180   23.6100  -31.2360 C   0  0  0  0  0  0  0  0  0  0  0  0
   -8.0342   23.6131  -31.6571 H   0  0  0  0  0  0  0  0  0  0  0  0
   -6.0850   22.6650  -31.6720 C   0  0  0  0  0  0  0  0  0  0  0  0
   -6.4790   21.7050  -32.6610 N   0  0  0  0  0  0  0  0  0  0  0  0
   -6.3640   21.9490  -33.6700 H   0  0  0  0  0  0  0  0  0  0  0  0
   -7.0720   20.4510  -32.3160 C   0  0  0  0  0  0  0  0  0  0  0  0
   -7.4960   20.2500  -31.1440 O   0  0  0  0  0  0  0  0  0  0  0  0
   -7.2130   19.4390  -33.3190 N   0  0  0  0  0  0  0  0  0  0  0  0
   -6.1660   18.5360  -33.7090 C   0  0  0  0  0  0  0  0  0  0  0  0
   -4.9280   19.0690  -34.0710 C   0  0  0  0  0  0  0  0  0  0  0  0
   -4.7614   20.1546  -34.0109 H   0  0  0  0  0  0  0  0  0  0  0  0
   -3.9020   18.2340  -34.5080 C   0  0  0  0  0  0  0  0  0  0  0  0
   -2.9387   18.6685  -34.8134 H   0  0  0  0  0  0  0  0  0  0  0  0
   -4.0850   16.8510  -34.5620 C   0  0  0  0  0  0  0  0  0  0  0  0
   -2.7500   15.8810  -35.1810 Cl  0  0  0  0  0  0  0  0  0  0  0  0
   -5.3070   16.2820  -34.1360 C   0  0  0  0  0  0  0  0  0  0  0  0
   -5.5610   14.5270  -34.2030 S   0  0  0  0  0  0  0  0  0  0  0  0
   -4.7700   13.9090  -35.3170 O   0  0  0  0  0  0  0  0  0  0  0  0
   -7.0120   14.2340  -34.4530 O   0  0  0  0  0  0  0  0  0  0  0  0
   -4.9910   13.8040  -32.6680 C   0  0  0  0  0  0  0  0  0  0  0  0
   -5.6238   12.9059  -32.7222 H   0  0  0  0  0  0  0  0  0  0  0  0
   -4.6310   14.8370  -31.6090 C   0  0  0  0  0  0  0  0  0  0  0  0
   -4.7584   15.9089  -31.8207 H   0  0  0  0  0  0  0  0  0  0  0  0
   -4.9188   15.0095  -30.5614 H   0  0  0  0  0  0  0  0  0  0  0  0
   -3.5320   14.0490  -32.3070 C   0  0  0  0  0  0  0  0  0  0  0  0
   -2.8651   14.5513  -33.0232 H   0  0  0  0  0  0  0  0  0  0  0  0
   -2.6966   13.4161  -31.9729 H   0  0  0  0  0  0  0  0  0  0  0  0
   -6.3450   17.1370  -33.7030 C   0  0  0  0  0  0  0  0  0  0  0  0
   -7.5460   16.6050  -33.2450 O   0  0  0  0  0  0  0  0  0  0  0  0
   -4.7700   22.6940  -31.1600 C   0  0  0  0  0  0  0  0  0  0  0  0
   -3.5950   21.6240  -31.7170 S   0  0  0  0  0  0  0  0  0  0  0  0
   -0.4010   21.1270  -33.5940 C   0  0  0  0  0  0  0  0  0  0  0  0
   -0.3677   22.2260  -33.5613 H   0  0  0  0  0  0  0  0  0  0  0  0
   -0.1250   20.4580  -34.7970 C   0  0  0  0  0  0  0  0  0  0  0  0
    0.2520   21.2190  -36.0360 C   0  0  0  0  0  0  0  0  0  0  0  0
    0.7238   22.1713  -35.7521 H   0  0  0  0  0  0  0  0  0  0  0  0
    0.9590   20.6228  -36.6316 H   0  0  0  0  0  0  0  0  0  0  0  0
   -0.6506   21.4202  -36.6316 H   0  0  0  0  0  0  0  0  0  0  0  0
   -0.1730   19.0610  -34.8340 C   0  0  0  0  0  0  0  0  0  0  0  0
    0.0744   18.5292  -35.7646 H   0  0  0  0  0  0  0  0  0  0  0  0
  1  2  1  0
  2  3  2  0
  3  4  1  0
  3  5  1  0
  5  6  1  0
  6  7  1  0
  7  8  2  0
  8  9  1  0
  9 10  2  0
 10 11  1  0
 11 12  2  0
 12 13  1  0
 12 14  1  0
 14 15  1  0
 14 16  2  0
 16 17  1  0
 17 18  1  0
 18 19  1  0
 18 20  1  0
 18 21  1  0
 21 22  1  0
 21 23  1  0
 21 24  1  0
 24 25  1  0
 25 26  1  0
 25 27  1  0
 25 28  1  0
 28 29  1  0
 28 30  1  0
 16 31  1  0
 31 32  1  0
 31 33  2  0
 33 34  1  0
  9 35  1  0
 35 36  2  0
 36 37  1  0
 36 38  1  0
 38 39  1  0
 38 40  2  0
 40 41  1  0
 40 42  1  0
 42 43  1  0
 43 44  1  0
 43 45  1  0
 45 46  2  0
 45 47  1  0
 47 48  1  0
 48 49  2  0
 49 50  1  0
 49 51  1  0
 51 52  1  0
 51 53  2  0
 53 54  1  0
 53 55  1  0
 55 56  1  0
 56 57  2  0
 56 58  2  0
 56 59  1  0
 59 60  1  0
 59 61  1  0
 61 62  1  0
 61 63  1  0
 61 64  1  0
 64 65  1  0
 64 66  1  0
 55 67  2  0
 67 68  1  0
 42 69  2  0
 69 70  1  0
  5 71  2  0
 71 72  1  0
 71 73  1  0
 73 74  1  0
 74 75  1  0
 74 76  1  0
 74 77  1  0
 73 78  2  0
 78 79  1  0
 78  2  1  0
 70  7  1  0
 33 11  1  0
 69 35  1  0
 28 17  1  0
 67 48  1  0
 64 59  1  0
M  CHG  2  47  -1  68  -1
M  END
>  <UniqueID>  (13) 
13

>  <SMILES>  (13) 
Cc1cccc(Oc2n/c(=N\c3ccc(N4CCOCC4)cc3)c3cccc(NC(=O)[N-]c4ccc(Cl)c(S(=O)(=O)C5CC5)c4[O-])c3s2)c1

>  <Energy>  (13) 
395.8613144401593

>  <Genealogy>  (13) 
Cc1cccc(Oc2nc(=Nc3ccc(N4CCOCC4)cc3)c3cccc(NC(=O)[N-]c4ccc(Cl)c(S(=O)(=O)C5CC5)c4[O-])c3s2)c1 (protonated)
Cc1cccc(Oc2n/c(=N\c3ccc(N4CCOCC4)cc3)c3cccc(NC(=O)[N-]c4ccc(Cl)c(S(=O)(=O)C5CC5)c4[O-])c3s2)c1 (cis-trans isomerization)
Cc1cccc(Oc2n/c(=N\c3ccc(N4CCOCC4)cc3)c3cccc(NC(=O)[N-]c4ccc(Cl)c(S(=O)(=O)C5CC5)c4[O-])c3s2)c1 (3D coordinates assigned)
Cc1cccc(Oc2n/c(=N\c3ccc(N4CCOCC4)cc3)c3cccc(NC(=O)[N-]c4ccc(Cl)c(S(=O)(=O)C5CC5)c4[O-])c3s2)c1 (nonaromatic ring conformer: 395.8613144401593 kcal/mol)

>  <smiles>  (13) 
Cc1cccc(Oc2nc(=Nc3ccc(N4CCOCC4)cc3)c3cccc(NC(=O)Nc4ccc(Cl)c(S(=O)(=O)C5CC5)c4O)c3s2)c1

>  <score_type>  (13) 
oracle

>  <origin>  (13) 
adgpu

>  <m_score__min__energy>  (13) 
-14.41

>  <m_primary>  (13) 
energy

$$$$
13:0
     RDKit          3D

 27 28  0  0  0  0  0  0  0  0999 V2000
   -5.7220   25.0380  -29.1550 O   0  0  0  0  0  0  0  0  0  0  0  0
   -4.6880   24.5240  -30.1160 S   0  0  0  0  0  0  0  0  0  0  0  0
   -4.1210   25.6790  -30.8950 O   0  0  0  0  0  0  0  0  0  0  0  0
   -5.4470   23.4250  -31.2230 N   0  0  0  0  0  0  0  0  0  0  0  0
   -4.7990   22.3230  -31.8740 C   0  0  0  0  0  0  0  0  0  0  0  0
   -3.4050   22.2900  -32.0690 C   0  0  0  0  0  0  0  0  0  0  0  0
   -2.8050   21.1930  -32.6950 C   0  0  0  0  0  0  0  0  0  0  0  0
   -1.0670   21.1570  -32.9260 Cl  0  0  0  0  0  0  0  0  0  0  0  0
   -3.5900   20.1240  -33.1360 C   0  0  0  0  0  0  0  0  0  0  0  0
   -4.9740   20.1500  -32.9500 C   0  0  0  0  0  0  0  0  0  0  0  0
   -5.5810   21.2450  -32.3200 C   0  0  0  0  0  0  0  0  0  0  0  0
   -6.9620   21.2690  -32.1330 O   0  0  0  0  0  0  0  0  0  0  0  0
   -3.4170   23.7060  -29.2010 C   0  0  0  0  0  0  0  0  0  0  0  0
   -3.6230   22.3960  -28.7430 C   0  0  0  0  0  0  0  0  0  0  0  0
   -2.6220   21.7310  -28.0300 C   0  0  0  0  0  0  0  0  0  0  0  0
   -2.8860   20.0880  -27.4740 Cl  0  0  0  0  0  0  0  0  0  0  0  0
   -1.4110   22.3750  -27.7590 C   0  0  0  0  0  0  0  0  0  0  0  0
   -1.2000   23.6860  -28.1970 C   0  0  0  0  0  0  0  0  0  0  0  0
    0.3240   24.4810  -27.8370 Cl  0  0  0  0  0  0  0  0  0  0  0  0
   -2.2020   24.3570  -28.9150 C   0  0  0  0  0  0  0  0  0  0  0  0
   -1.9880   25.6650  -29.3370 O   0  0  0  0  0  0  0  0  0  0  0  0
   -2.7847   23.1316  -31.7271 H   0  0  0  0  0  0  0  0  0  0  0  0
   -3.1177   19.2619  -33.6297 H   0  0  0  0  0  0  0  0  0  0  0  0
   -5.5898   19.3081  -33.2992 H   0  0  0  0  0  0  0  0  0  0  0  0
   -7.4210   22.0410  -31.6630 H   0  0  0  0  0  0  0  0  0  0  0  0
   -4.5780   21.8895  -28.9464 H   0  0  0  0  0  0  0  0  0  0  0  0
   -0.6227   21.8493  -27.2002 H   0  0  0  0  0  0  0  0  0  0  0  0
  1  2  2  0
  2  3  2  0
  2  4  1  0
  4  5  1  0
  5  6  2  0
  6  7  1  0
  7  8  1  0
  7  9  2  0
  9 10  1  0
 10 11  2  0
 11 12  1  0
  2 13  1  0
 13 14  2  0
 14 15  1  0
 15 16  1  0
 15 17  2  0
 17 18  1  0
 18 19  1  0
 18 20  2  0
 20 21  1  0
 11  5  1  0
 20 13  1  0
  6 22  1  0
  9 23  1  0
 10 24  1  0
 12 25  1  0
 14 26  1  0
 17 27  1  0
M  CHG  2   4  -1  21  -1
M  END
>  <UniqueID>  (14) 
14

>  <SMILES>  (14) 
O=S(=O)([N-]c1cc(Cl)ccc1O)c1cc(Cl)cc(Cl)c1[O-]

>  <Energy>  (14) 
31.727065512768643

>  <Genealogy>  (14) 
O=S(=O)([N-]c1cc(Cl)ccc1O)c1cc(Cl)cc(Cl)c1[O-] (protonated)
O=S(=O)([N-]c1cc(Cl)ccc1O)c1cc(Cl)cc(Cl)c1[O-] (3D coordinates assigned)
O=S(=O)([N-]c1cc(Cl)ccc1O)c1cc(Cl)cc(Cl)c1[O-] (optimized conformer: 31.727065512768643 kcal/mol)

>  <smiles>  (14) 
O=S(=O)(Nc1cc(Cl)ccc1O)c1cc(Cl)cc(Cl)c1O

>  <score_type>  (14) 
oracle

>  <origin>  (14) 
adgpu

>  <m_score__min__energy>  (14) 
-12.16

>  <m_primary>  (14) 
energy

$$$$
14:0
     RDKit          3D

 36 37  0  0  0  0  0  0  0  0999 V2000
   -6.4380   16.7250  -33.5790 C   0  0  0  0  0  0  0  0  0  0  0  0
   -6.8460   18.1320  -33.6650 N   0  0  0  0  0  0  0  0  0  0  0  0
   -5.7210   18.9590  -34.1180 C   0  0  0  0  0  0  0  0  0  0  0  0
   -7.3990   18.6830  -32.1020 S   0  0  0  0  0  0  0  0  0  0  0  0
   -8.8180   18.2350  -31.8860 O   0  0  0  0  0  0  0  0  0  0  0  0
   -6.5490   18.0660  -31.0250 O   0  0  0  0  0  0  0  0  0  0  0  0
   -7.3210   20.4410  -31.9710 C   0  0  0  0  0  0  0  0  0  0  0  0
   -8.4960   21.2060  -31.9870 C   0  0  0  0  0  0  0  0  0  0  0  0
   -8.4290   22.5980  -31.8820 C   0  0  0  0  0  0  0  0  0  0  0  0
   -7.1900   23.2320  -31.7450 C   0  0  0  0  0  0  0  0  0  0  0  0
   -6.0120   22.4770  -31.6930 C   0  0  0  0  0  0  0  0  0  0  0  0
   -4.7550   23.1530  -31.5520 N   0  0  0  0  0  0  0  0  0  0  0  0
   -3.4850   22.5300  -31.3210 C   0  0  0  0  0  0  0  0  0  0  0  0
   -2.7810   22.2020  -32.3140 O   0  0  0  0  0  0  0  0  0  0  0  0
   -2.9640   22.2790  -29.9290 C   0  0  0  0  0  0  0  0  0  0  0  0
   -2.2630   23.4800  -29.3630 C   0  0  0  0  0  0  0  0  0  0  0  0
   -1.0910   23.4360  -28.7010 N   0  0  0  0  0  0  0  0  0  0  0  0
   -0.8080   24.7360  -28.4730 C   0  0  0  0  0  0  0  0  0  0  0  0
    0.2240   25.1070  -27.8560 O   0  0  0  0  0  0  0  0  0  0  0  0
   -1.7140   25.6060  -28.9660 N   0  0  0  0  0  0  0  0  0  0  0  0
   -2.6240   24.8000  -29.5380 C   0  0  0  0  0  0  0  0  0  0  0  0
   -3.7440   25.2730  -30.2150 O   0  0  0  0  0  0  0  0  0  0  0  0
   -6.0820   21.0810  -31.8410 C   0  0  0  0  0  0  0  0  0  0  0  0
   -6.3530   16.4318  -32.5222 H   0  0  0  0  0  0  0  0  0  0  0  0
   -7.1902   16.0941  -34.0752 H   0  0  0  0  0  0  0  0  0  0  0  0
   -5.4650   16.5944  -34.0752 H   0  0  0  0  0  0  0  0  0  0  0  0
   -5.1821   19.3551  -33.2447 H   0  0  0  0  0  0  0  0  0  0  0  0
   -5.0370   18.3471  -34.7244 H   0  0  0  0  0  0  0  0  0  0  0  0
   -6.1009   19.7944  -34.7244 H   0  0  0  0  0  0  0  0  0  0  0  0
   -9.4728   20.7093  -32.0824 H   0  0  0  0  0  0  0  0  0  0  0  0
   -9.3521   23.1958  -31.9071 H   0  0  0  0  0  0  0  0  0  0  0  0
   -7.1407   24.3288  -31.6778 H   0  0  0  0  0  0  0  0  0  0  0  0
   -3.8099   22.0211  -29.2749 H   0  0  0  0  0  0  0  0  0  0  0  0
   -2.2359   21.4562  -29.9832 H   0  0  0  0  0  0  0  0  0  0  0  0
   -4.3920   24.6450  -30.6750 H   0  0  0  0  0  0  0  0  0  0  0  0
   -5.1566   20.4866  -31.8548 H   0  0  0  0  0  0  0  0  0  0  0  0
  1  2  1  0
  2  3  1  0
  2  4  1  0
  4  5  2  0
  4  6  2  0
  4  7  1  0
  7  8  2  0
  8  9  1  0
  9 10  2  0
 10 11  1  0
 11 12  1  0
 12 13  1  0
 13 14  2  0
 13 15  1  0
 15 16  1  0
 16 17  1  0
 17 18  1  0
 18 19  2  0
 18 20  1  0
 20 21  1  0
 21 22  1  0
 11 23  2  0
 23  7  1  0
 21 16  2  0
  1 24  1  0
  1 25  1  0
  1 26  1  0
  3 27  1  0
  3 28  1  0
  3 29  1  0
  8 30  1  0
  9 31  1  0
 10 32  1  0
 15 33  1  0
 15 34  1  0
 22 35  1  0
 23 36  1  0
M  CHG  3  12  -1  17  -1  20  -1
M  END
>  <UniqueID>  (15) 
15

>  <SMILES>  (15) 
CN(C)S(=O)(=O)c1cccc([N-]C(=O)Cc2[n-]c(=O)[n-]c2O)c1

>  <Energy>  (15) 
65.82799327225786

>  <Genealogy>  (15) 
CN(C)S(=O)(=O)c1cccc([N-]C(=O)Cc2[n-]c(=O)[n-]c2O)c1 (protonated)
CN(C)S(=O)(=O)c1cccc([N-]C(=O)Cc2[n-]c(=O)[n-]c2O)c1 (3D coordinates assigned)
CN(C)S(=O)(=O)c1cccc([N-]C(=O)Cc2[n-]c(=O)[n-]c2O)c1 (optimized conformer: 65.82799327225786 kcal/mol)

>  <smiles>  (15) 
CN(C)S(=O)(=O)c1cccc(NC(=O)Cc2[nH]c(=O)[nH]c2O)c1

>  <score_type>  (15) 
oracle

>  <origin>  (15) 
adgpu

>  <m_score__min__energy>  (15) 
-11.289999999999999

>  <m_primary>  (15) 
energy

$$$$
15:0
     RDKit          3D

 41 43  0  0  0  0  0  0  0  0999 V2000
   -2.3560   25.3070  -28.7920 O   0  0  0  0  0  0  0  0  0  0  0  0
   -2.7030   24.5330  -29.7240 C   0  0  0  0  0  0  0  0  0  0  0  0
   -3.7980   24.9180  -30.5660 N   0  0  0  0  0  0  0  0  0  0  0  0
   -5.0050   24.1700  -30.7720 C   0  0  0  0  0  0  0  0  0  0  0  0
   -5.3660   23.8080  -32.0740 C   0  0  0  0  0  0  0  0  0  0  0  0
   -6.5430   23.0920  -32.3080 C   0  0  0  0  0  0  0  0  0  0  0  0
   -7.3680   22.7180  -31.2380 C   0  0  0  0  0  0  0  0  0  0  0  0
   -8.8690   21.8330  -31.5350 S   0  0  0  0  0  0  0  0  0  0  0  0
   -9.7810   22.6870  -32.3720 O   0  0  0  0  0  0  0  0  0  0  0  0
   -9.5510   21.5710  -30.2220 O   0  0  0  0  0  0  0  0  0  0  0  0
   -8.6050   20.3110  -32.3530 N   0  0  0  0  0  0  0  0  0  0  0  0
   -7.2650   20.2220  -32.9310 C   0  0  0  0  0  0  0  0  0  0  0  0
   -6.9350   18.7400  -33.0240 C   0  0  0  0  0  0  0  0  0  0  0  0
   -7.8840   18.0540  -32.0530 C   0  0  0  0  0  0  0  0  0  0  0  0
   -8.7150   19.1730  -31.4430 C   0  0  0  0  0  0  0  0  0  0  0  0
   -6.9840   23.0390  -29.9290 C   0  0  0  0  0  0  0  0  0  0  0  0
   -5.8090   23.7560  -29.6950 C   0  0  0  0  0  0  0  0  0  0  0  0
   -2.0470   23.2130  -29.8560 C   0  0  0  0  0  0  0  0  0  0  0  0
   -2.7830   22.1390  -30.3880 C   0  0  0  0  0  0  0  0  0  0  0  0
   -2.2090   20.8700  -30.4980 C   0  0  0  0  0  0  0  0  0  0  0  0
   -0.8990   20.6560  -30.0710 C   0  0  0  0  0  0  0  0  0  0  0  0
   -0.1540   21.7120  -29.5420 C   0  0  0  0  0  0  0  0  0  0  0  0
   -0.7100   22.9930  -29.4420 C   0  0  0  0  0  0  0  0  0  0  0  0
    0.0990   24.0230  -28.9570 O   0  0  0  0  0  0  0  0  0  0  0  0
   -4.7196   24.0886  -32.9187 H   0  0  0  0  0  0  0  0  0  0  0  0
   -6.8235   22.8206  -33.3364 H   0  0  0  0  0  0  0  0  0  0  0  0
   -7.2513   20.6783  -33.9318 H   0  0  0  0  0  0  0  0  0  0  0  0
   -6.5281   20.7567  -32.3137 H   0  0  0  0  0  0  0  0  0  0  0  0
   -7.0995   18.3724  -34.0476 H   0  0  0  0  0  0  0  0  0  0  0  0
   -5.8818   18.5389  -32.7782 H   0  0  0  0  0  0  0  0  0  0  0  0
   -8.5304   17.3408  -32.5855 H   0  0  0  0  0  0  0  0  0  0  0  0
   -7.3417   17.4818  -31.2858 H   0  0  0  0  0  0  0  0  0  0  0  0
   -9.7654   18.8599  -31.3505 H   0  0  0  0  0  0  0  0  0  0  0  0
   -8.3574   19.4318  -30.4355 H   0  0  0  0  0  0  0  0  0  0  0  0
   -7.6113   22.7246  -29.0819 H   0  0  0  0  0  0  0  0  0  0  0  0
   -5.5110   23.9980  -28.6642 H   0  0  0  0  0  0  0  0  0  0  0  0
   -3.8193   22.2995  -30.7203 H   0  0  0  0  0  0  0  0  0  0  0  0
   -2.7913   20.0386  -30.9220 H   0  0  0  0  0  0  0  0  0  0  0  0
   -0.4519   19.6542  -30.1509 H   0  0  0  0  0  0  0  0  0  0  0  0
    0.8771   21.5361  -29.2014 H   0  0  0  0  0  0  0  0  0  0  0  0
   -0.2660   24.8310  -28.4680 H   0  0  0  0  0  0  0  0  0  0  0  0
  1  2  2  0
  2  3  1  0
  3  4  1  0
  4  5  2  0
  5  6  1  0
  6  7  2  0
  7  8  1  0
  8  9  2  0
  8 10  2  0
  8 11  1  0
 11 12  1  0
 12 13  1  0
 13 14  1  0
 14 15  1  0
  7 16  1  0
 16 17  2  0
  2 18  1  0
 18 19  2  0
 19 20  1  0
 20 21  2  0
 21 22  1  0
 22 23  2  0
 23 24  1  0
 17  4  1  0
 23 18  1  0
 15 11  1  0
  5 25  1  0
  6 26  1  0
 12 27  1  0
 12 28  1  0
 13 29  1  0
 13 30  1  0
 14 31  1  0
 14 32  1  0
 15 33  1  0
 15 34  1  0
 16 35  1  0
 17 36  1  0
 19 37  1  0
 20 38  1  0
 21 39  1  0
 22 40  1  0
 24 41  1  0
M  CHG  1   3  -1
M  END
>  <UniqueID>  (16) 
16

>  <SMILES>  (16) 
O=C([N-]c1ccc(S(=O)(=O)N2CCCC2)cc1)c1ccccc1O

>  <Energy>  (16) 
52.56335860893568

>  <Genealogy>  (16) 
O=C([N-]c1ccc(S(=O)(=O)N2CCCC2)cc1)c1ccccc1O (protonated)
O=C([N-]c1ccc(S(=O)(=O)N2CCCC2)cc1)c1ccccc1O (3D coordinates assigned)
O=C([N-]c1ccc(S(=O)(=O)N2CCCC2)cc1)c1ccccc1O (nonaromatic ring conformer: 52.56335860893568 kcal/mol)

>  <smiles>  (16) 
O=C(Nc1ccc(S(=O)(=O)N2CCCC2)cc1)c1ccccc1O

>  <score_type>  (16) 
oracle

>  <origin>  (16) 
adgpu

>  <m_score__min__energy>  (16) 
-10.6

>  <m_primary>  (16) 
energy

$$$$
16:0
     RDKit          3D

 57 60  0  0  0  0  0  0  0  0999 V2000
   -4.1600   22.5080  -27.7380 O   0  0  0  0  0  0  0  0  0  0  0  0
   -4.0890   23.5400  -28.4590 C   0  0  0  0  0  0  0  0  0  0  0  0
   -3.0720   24.5200  -28.1930 N   0  0  0  0  0  0  0  0  0  0  0  0
   -2.2560   24.4820  -27.0120 C   0  0  0  0  0  0  0  0  0  0  0  0
   -2.3570   25.5390  -26.0940 C   0  0  0  0  0  0  0  0  0  0  0  0
   -1.5650   25.5600  -24.9450 C   0  0  0  0  0  0  0  0  0  0  0  0
   -0.6730   24.5190  -24.6920 C   0  0  0  0  0  0  0  0  0  0  0  0
   -0.5780   23.4470  -25.5830 C   0  0  0  0  0  0  0  0  0  0  0  0
   -1.3660   23.4090  -26.7460 C   0  0  0  0  0  0  0  0  0  0  0  0
   -1.3140   22.2430  -27.5930 N   0  0  0  0  0  0  0  0  0  0  0  0
   -0.9140   22.3660  -29.0010 C   0  0  0  0  0  0  0  0  0  0  0  0
   -1.7650   21.4500  -29.9150 C   0  0  0  0  0  0  0  0  0  0  0  0
   -2.5370   20.4790  -29.2240 O   0  0  0  0  0  0  0  0  0  0  0  0
   -1.7880   19.9040  -28.1750 C   0  0  0  0  0  0  0  0  0  0  0  0
   -1.6560   20.9240  -27.0460 C   0  0  0  0  0  0  0  0  0  0  0  0
   -5.0170   23.6890  -29.6080 C   0  0  0  0  0  0  0  0  0  0  0  0
   -6.0910   22.7890  -29.7420 C   0  0  0  0  0  0  0  0  0  0  0  0
   -6.9880   22.8960  -30.8120 C   0  0  0  0  0  0  0  0  0  0  0  0
   -8.3090   21.7380  -30.9550 S   0  0  0  0  0  0  0  0  0  0  0  0
   -9.1450   22.0480  -32.1680 O   0  0  0  0  0  0  0  0  0  0  0  0
   -9.1730   21.8440  -29.7280 O   0  0  0  0  0  0  0  0  0  0  0  0
   -7.6540   20.1230  -31.0890 N   0  0  0  0  0  0  0  0  0  0  0  0
   -6.2850   20.1500  -31.6690 C   0  0  0  0  0  0  0  0  0  0  0  0
   -6.2530   19.7520  -33.1530 C   0  0  0  0  0  0  0  0  0  0  0  0
   -6.8300   18.3410  -33.3620 C   0  0  0  0  0  0  0  0  0  0  0  0
   -7.9270   17.9890  -32.3400 C   0  0  0  0  0  0  0  0  0  0  0  0
   -8.6110   19.2530  -31.8060 C   0  0  0  0  0  0  0  0  0  0  0  0
   -6.8190   23.9110  -31.7600 C   0  0  0  0  0  0  0  0  0  0  0  0
   -5.7670   24.8180  -31.6340 C   0  0  0  0  0  0  0  0  0  0  0  0
   -4.8710   24.7210  -30.5630 C   0  0  0  0  0  0  0  0  0  0  0  0
   -3.8620   25.6710  -30.4540 O   0  0  0  0  0  0  0  0  0  0  0  0
   -2.7350   25.1010  -28.9930 H   0  0  0  0  0  0  0  0  0  0  0  0
   -3.0667   26.3581  -26.2818 H   0  0  0  0  0  0  0  0  0  0  0  0
   -1.6447   26.3990  -24.2381 H   0  0  0  0  0  0  0  0  0  0  0  0
   -0.0435   24.5416  -23.7902 H   0  0  0  0  0  0  0  0  0  0  0  0
    0.1209   22.6242  -25.3720 H   0  0  0  0  0  0  0  0  0  0  0  0
   -1.0453   23.4105  -29.3199 H   0  0  0  0  0  0  0  0  0  0  0  0
    0.1387   22.0591  -29.0888 H   0  0  0  0  0  0  0  0  0  0  0  0
   -2.4512   22.0853  -30.4942 H   0  0  0  0  0  0  0  0  0  0  0  0
   -1.0562   20.8937  -30.5460 H   0  0  0  0  0  0  0  0  0  0  0  0
   -2.3024   19.0057  -27.8030 H   0  0  0  0  0  0  0  0  0  0  0  0
   -0.7899   19.6210  -28.5407 H   0  0  0  0  0  0  0  0  0  0  0  0
   -2.6107   20.9917  -26.5038 H   0  0  0  0  0  0  0  0  0  0  0  0
   -0.8579   20.6010  -26.3614 H   0  0  0  0  0  0  0  0  0  0  0  0
   -6.2274   21.9915  -28.9967 H   0  0  0  0  0  0  0  0  0  0  0  0
   -5.8828   21.1691  -31.5708 H   0  0  0  0  0  0  0  0  0  0  0  0
   -5.6800   19.4147  -31.1183 H   0  0  0  0  0  0  0  0  0  0  0  0
   -6.8496   20.4731  -33.7310 H   0  0  0  0  0  0  0  0  0  0  0  0
   -5.2067   19.7548  -33.4924 H   0  0  0  0  0  0  0  0  0  0  0  0
   -7.2595   18.2828  -34.3730 H   0  0  0  0  0  0  0  0  0  0  0  0
   -6.0078   17.6229  -33.2268 H   0  0  0  0  0  0  0  0  0  0  0  0
   -8.6799   17.3515  -32.8266 H   0  0  0  0  0  0  0  0  0  0  0  0
   -7.4606   17.4611  -31.4952 H   0  0  0  0  0  0  0  0  0  0  0  0
   -9.0392   19.8122  -32.6509 H   0  0  0  0  0  0  0  0  0  0  0  0
   -9.3978   18.9487  -31.1001 H   0  0  0  0  0  0  0  0  0  0  0  0
   -7.5170   23.9938  -32.6061 H   0  0  0  0  0  0  0  0  0  0  0  0
   -5.6406   25.6151  -32.3814 H   0  0  0  0  0  0  0  0  0  0  0  0
  1  2  2  0
  2  3  1  0
  3  4  1  0
  4  5  2  0
  5  6  1  0
  6  7  2  0
  7  8  1  0
  8  9  2  0
  9 10  1  0
 10 11  1  0
 11 12  1  0
 12 13  1  0
 13 14  1  0
 14 15  1  0
  2 16  1  0
 16 17  2  0
 17 18  1  0
 18 19  1  0
 19 20  2  0
 19 21  2  0
 19 22  1  0
 22 23  1  0
 23 24  1  0
 24 25  1  0
 25 26  1  0
 26 27  1  0
 18 28  2  0
 28 29  1  0
 29 30  2  0
 30 31  1  0
  9  4  1  0
 15 10  1  0
 30 16  1  0
 27 22  1  0
  3 32  1  0
  5 33  1  0
  6 34  1  0
  7 35  1  0
  8 36  1  0
 11 37  1  0
 11 38  1  0
 12 39  1  0
 12 40  1  0
 14 41  1  0
 14 42  1  0
 15 43  1  0
 15 44  1  0
 17 45  1  0
 23 46  1  0
 23 47  1  0
 24 48  1  0
 24 49  1  0
 25 50  1  0
 25 51  1  0
 26 52  1  0
 26 53  1  0
 27 54  1  0
 27 55  1  0
 28 56  1  0
 29 57  1  0
M  CHG  1  31  -1
M  END
>  <UniqueID>  (17) 
17

>  <SMILES>  (17) 
O=C(Nc1ccccc1N1CCOCC1)c1cc(S(=O)(=O)N2CCCCC2)ccc1[O-]

>  <Energy>  (17) 
84.29028806679808

>  <Genealogy>  (17) 
O=C(Nc1ccccc1N1CCOCC1)c1cc(S(=O)(=O)N2CCCCC2)ccc1[O-] (protonated)
O=C(Nc1ccccc1N1CCOCC1)c1cc(S(=O)(=O)N2CCCCC2)ccc1[O-] (3D coordinates assigned)
O=C(Nc1ccccc1N1CCOCC1)c1cc(S(=O)(=O)N2CCCCC2)ccc1[O-] (nonaromatic ring conformer: 84.29028806679808 kcal/mol)

>  <smiles>  (17) 
O=C(Nc1ccccc1N1CCOCC1)c1cc(S(=O)(=O)N2CCCCC2)ccc1O

>  <score_type>  (17) 
oracle

>  <origin>  (17) 
adgpu

>  <m_score__min__energy>  (17) 
-12.77

>  <m_primary>  (17) 
energy

$$$$
17:0
     RDKit          3D

 42 44  0  0  0  0  0  0  0  0999 V2000
   -3.8470   24.3520  -27.6760 C   0  0  0  0  0  0  0  0  0  0  0  0
   -4.0790   24.1910  -29.1400 C   0  0  0  0  0  0  0  0  0  0  0  0
   -4.2280   22.9960  -29.7410 N   0  0  0  0  0  0  0  0  0  0  0  0
   -4.3310   23.3590  -31.0340 C   0  0  0  0  0  0  0  0  0  0  0  0
   -4.5320   22.1900  -32.3730 S   0  0  0  0  0  0  0  0  0  0  0  0
   -6.3210   22.1380  -32.1700 C   0  0  0  0  0  0  0  0  0  0  0  0
   -7.0000   23.3640  -32.1470 C   0  0  0  0  0  0  0  0  0  0  0  0
   -8.3870   23.4050  -32.0060 C   0  0  0  0  0  0  0  0  0  0  0  0
   -9.1100   22.2210  -31.8860 C   0  0  0  0  0  0  0  0  0  0  0  0
   -8.4500   20.9920  -31.9060 C   0  0  0  0  0  0  0  0  0  0  0  0
   -7.0470   20.9230  -32.0400 C   0  0  0  0  0  0  0  0  0  0  0  0
   -6.3650   19.5580  -32.0740 C   0  0  0  0  0  0  0  0  0  0  0  0
   -7.3830   18.4120  -31.9160 C   0  0  0  0  0  0  0  0  0  0  0  0
   -6.7430   17.0910  -32.3470 C   0  0  0  0  0  0  0  0  0  0  0  0
   -6.4290   17.0890  -33.7920 N   0  0  0  0  0  0  0  0  0  0  0  0
   -5.2450   15.8590  -34.1670 S   0  0  0  0  0  0  0  0  0  0  0  0
   -4.2010   15.4940  -32.7670 C   0  0  0  0  0  0  0  0  0  0  0  0
   -5.9470   14.5980  -34.5900 O   0  0  0  0  0  0  0  0  0  0  0  0
   -4.3830   16.3350  -35.3020 O   0  0  0  0  0  0  0  0  0  0  0  0
   -6.0590   18.4070  -34.3630 C   0  0  0  0  0  0  0  0  0  0  0  0
   -5.4690   19.3850  -33.3300 C   0  0  0  0  0  0  0  0  0  0  0  0
   -4.2400   24.6880  -31.2130 N   0  0  0  0  0  0  0  0  0  0  0  0
   -4.0730   25.2150  -30.0130 N   0  0  0  0  0  0  0  0  0  0  0  0
   -4.6266   23.8110  -27.1196 H   0  0  0  0  0  0  0  0  0  0  0  0
   -2.8596   23.9440  -27.4142 H   0  0  0  0  0  0  0  0  0  0  0  0
   -3.8837   25.4198  -27.4142 H   0  0  0  0  0  0  0  0  0  0  0  0
   -6.4338   24.3024  -32.2410 H   0  0  0  0  0  0  0  0  0  0  0  0
   -8.9098   24.3727  -31.9896 H   0  0  0  0  0  0  0  0  0  0  0  0
  -10.2039   22.2548  -31.7752 H   0  0  0  0  0  0  0  0  0  0  0  0
   -9.0320   20.0629  -31.8160 H   0  0  0  0  0  0  0  0  0  0  0  0
   -5.6918   19.5082  -31.2055 H   0  0  0  0  0  0  0  0  0  0  0  0
   -7.6937   18.3415  -30.8632 H   0  0  0  0  0  0  0  0  0  0  0  0
   -8.2607   18.6147  -32.5473 H   0  0  0  0  0  0  0  0  0  0  0  0
   -5.8131   16.9417  -31.7786 H   0  0  0  0  0  0  0  0  0  0  0  0
   -7.4576   16.2790  -32.1472 H   0  0  0  0  0  0  0  0  0  0  0  0
   -4.7546   15.6876  -31.8364 H   0  0  0  0  0  0  0  0  0  0  0  0
   -3.8988   14.4369  -32.8007 H   0  0  0  0  0  0  0  0  0  0  0  0
   -3.3059   16.1325  -32.8007 H   0  0  0  0  0  0  0  0  0  0  0  0
   -5.3123   18.2454  -35.1544 H   0  0  0  0  0  0  0  0  0  0  0  0
   -6.9840   18.8628  -34.7458 H   0  0  0  0  0  0  0  0  0  0  0  0
   -4.4872   19.0060  -33.0101 H   0  0  0  0  0  0  0  0  0  0  0  0
   -5.3923   20.3687  -33.8162 H   0  0  0  0  0  0  0  0  0  0  0  0
  1  2  1  0
  2  3  2  0
  3  4  1  0
  4  5  1  0
  5  6  1  0
  6  7  2  0
  7  8  1  0
  8  9  2  0
  9 10  1  0
 10 11  2  0
 11 12  1  0
 12 13  1  0
 13 14  1  0
 14 15  1  0
 15 16  1  0
 16 17  1  0
 16 18  2  0
 16 19  2  0
 15 20  1  0
 20 21  1  0
  4 22  2  0
 22 23  1  0
 23  2  1  0
 11  6  1  0
 21 12  1  0
  1 24  1  0
  1 25  1  0
  1 26  1  0
  7 27  1  0
  8 28  1  0
  9 29  1  0
 10 30  1  0
 12 31  1  0
 13 32  1  0
 13 33  1  0
 14 34  1  0
 14 35  1  0
 17 36  1  0
 17 37  1  0
 17 38  1  0
 20 39  1  0
 20 40  1  0
 21 41  1  0
 21 42  1  0
M  CHG  1  23  -1
M  END
>  <UniqueID>  (18) 
18

>  <SMILES>  (18) 
Cc1nc(Sc2ccccc2C2CCN(S(C)(=O)=O)CC2)n[n-]1

>  <Energy>  (18) 
74.19205666091409

>  <Genealogy>  (18) 
Cc1nc(Sc2ccccc2C2CCN(S(C)(=O)=O)CC2)n[n-]1 (protonated)
Cc1nc(Sc2ccccc2C2CCN(S(C)(=O)=O)CC2)n[n-]1 (3D coordinates assigned)
Cc1nc(Sc2ccccc2C2CCN(S(C)(=O)=O)CC2)n[n-]1 (nonaromatic ring conformer: 74.19205666091409 kcal/mol)

>  <smiles>  (18) 
Cc1nc(Sc2ccccc2C2CCN(S(C)(=O)=O)CC2)n[nH]1

>  <score_type>  (18) 
oracle

>  <origin>  (18) 
adgpu

>  <m_score__min__energy>  (18) 
-10.09

>  <m_primary>  (18) 
energy

$$$$
18:0
     RDKit          3D

 67 71  0  0  0  0  0  0  0  0999 V2000
   -5.3720   22.9620  -32.2450 C   0  0  0  0  0  0  0  0  0  0  0  0
   -4.5730   23.6870  -31.2110 C   0  0  0  0  0  0  0  0  0  0  0  0
   -4.7340   24.9870  -30.9110 N   0  0  0  0  0  0  0  0  0  0  0  0
   -3.8820   25.2680  -29.9690 O   0  0  0  0  0  0  0  0  0  0  0  0
   -3.1660   24.2180  -29.6230 C   0  0  0  0  0  0  0  0  0  0  0  0
   -2.1120   24.2760  -28.5730 C   0  0  0  0  0  0  0  0  0  0  0  0
   -0.7370   24.3490  -28.8730 C   0  0  0  0  0  0  0  0  0  0  0  0
    0.2130   24.4020  -27.8490 C   0  0  0  0  0  0  0  0  0  0  0  0
   -0.1890   24.3810  -26.5090 C   0  0  0  0  0  0  0  0  0  0  0  0
    1.0130   24.4720  -25.2190 S   0  0  0  0  0  0  0  0  0  0  0  0
    0.8100   23.3220  -24.2720 O   0  0  0  0  0  0  0  0  0  0  0  0
    2.3870   24.3430  -25.8140 O   0  0  0  0  0  0  0  0  0  0  0  0
    0.9120   25.9810  -24.3340 N   0  0  0  0  0  0  0  0  0  0  0  0
    1.1060   27.1300  -25.2240 C   0  0  0  0  0  0  0  0  0  0  0  0
   -0.2620   27.6610  -25.6210 C   0  0  0  0  0  0  0  0  0  0  0  0
   -1.2350   27.0780  -24.6150 C   0  0  0  0  0  0  0  0  0  0  0  0
   -0.4130   26.1540  -23.7250 C   0  0  0  0  0  0  0  0  0  0  0  0
   -1.5500   24.2850  -26.2000 C   0  0  0  0  0  0  0  0  0  0  0  0
   -2.5020   24.2340  -27.2210 C   0  0  0  0  0  0  0  0  0  0  0  0
   -3.5860   23.1510  -30.4110 C   0  0  0  0  0  0  0  0  0  0  0  0
   -3.1070   21.7690  -30.4540 C   0  0  0  0  0  0  0  0  0  0  0  0
   -3.4820   20.9520  -29.5710 O   0  0  0  0  0  0  0  0  0  0  0  0
   -2.2630   21.3560  -31.5340 N   0  0  0  0  0  0  0  0  0  0  0  0
   -2.5370   20.2990  -32.4640 C   0  0  0  0  0  0  0  0  0  0  0  0
   -1.4600   19.6200  -33.0450 C   0  0  0  0  0  0  0  0  0  0  0  0
   -1.6860   18.5670  -33.9340 C   0  0  0  0  0  0  0  0  0  0  0  0
   -2.9910   18.1700  -34.2330 C   0  0  0  0  0  0  0  0  0  0  0  0
   -4.0790   18.8190  -33.6340 C   0  0  0  0  0  0  0  0  0  0  0  0
   -5.7270   18.2760  -33.9590 S   0  0  0  0  0  0  0  0  0  0  0  0
   -5.7840   16.7750  -33.8650 O   0  0  0  0  0  0  0  0  0  0  0  0
   -6.1080   18.6680  -35.3590 O   0  0  0  0  0  0  0  0  0  0  0  0
   -6.8660   18.9690  -32.8310 N   0  0  0  0  0  0  0  0  0  0  0  0
   -7.2280   20.3390  -33.2500 C   0  0  0  0  0  0  0  0  0  0  0  0
   -8.4380   20.8970  -32.4660 C   0  0  0  0  0  0  0  0  0  0  0  0
   -8.7310   20.0700  -31.2120 C   0  0  0  0  0  0  0  0  0  0  0  0
   -8.9610   18.5910  -31.5670 C   0  0  0  0  0  0  0  0  0  0  0  0
   -8.0650   18.1190  -32.7280 C   0  0  0  0  0  0  0  0  0  0  0  0
   -3.8500   19.8830  -32.7490 C   0  0  0  0  0  0  0  0  0  0  0  0
   -6.0995   22.3019  -31.7500 H   0  0  0  0  0  0  0  0  0  0  0  0
   -5.9059   23.6904  -32.8731 H   0  0  0  0  0  0  0  0  0  0  0  0
   -4.6988   22.3601  -32.8731 H   0  0  0  0  0  0  0  0  0  0  0  0
   -0.4083   24.3644  -29.9226 H   0  0  0  0  0  0  0  0  0  0  0  0
    1.2828   24.4606  -28.0981 H   0  0  0  0  0  0  0  0  0  0  0  0
    1.6723   27.9146  -24.7008 H   0  0  0  0  0  0  0  0  0  0  0  0
    1.6694   26.8262  -26.1186 H   0  0  0  0  0  0  0  0  0  0  0  0
   -0.2751   28.7600  -25.5751 H   0  0  0  0  0  0  0  0  0  0  0  0
   -0.5244   27.3783  -26.6511 H   0  0  0  0  0  0  0  0  0  0  0  0
   -1.6918   27.8795  -24.0158 H   0  0  0  0  0  0  0  0  0  0  0  0
   -2.0534   26.5366  -25.1121 H   0  0  0  0  0  0  0  0  0  0  0  0
   -0.3068   26.5994  -22.7248 H   0  0  0  0  0  0  0  0  0  0  0  0
   -0.9140   25.1796  -23.6273 H   0  0  0  0  0  0  0  0  0  0  0  0
   -1.8718   24.2495  -25.1487 H   0  0  0  0  0  0  0  0  0  0  0  0
   -3.5694   24.1601  -26.9655 H   0  0  0  0  0  0  0  0  0  0  0  0
   -0.4297   19.9174  -32.8000 H   0  0  0  0  0  0  0  0  0  0  0  0
   -0.8344   18.0493  -34.3996 H   0  0  0  0  0  0  0  0  0  0  0  0
   -3.1653   17.3459  -34.9404 H   0  0  0  0  0  0  0  0  0  0  0  0
   -6.3642   20.9991  -33.0824 H   0  0  0  0  0  0  0  0  0  0  0  0
   -7.5072   20.3008  -34.3133 H   0  0  0  0  0  0  0  0  0  0  0  0
   -8.2217   21.9332  -32.1670 H   0  0  0  0  0  0  0  0  0  0  0  0
   -9.3209   20.8513  -33.1205 H   0  0  0  0  0  0  0  0  0  0  0  0
   -7.8764   20.1458  -30.5236 H   0  0  0  0  0  0  0  0  0  0  0  0
   -9.6434   20.4624  -30.7392 H   0  0  0  0  0  0  0  0  0  0  0  0
   -8.7432   17.9770  -30.6806 H   0  0  0  0  0  0  0  0  0  0  0  0
  -10.0081   18.4817  -31.8859 H   0  0  0  0  0  0  0  0  0  0  0  0
   -7.7570   17.0784  -32.5480 H   0  0  0  0  0  0  0  0  0  0  0  0
   -8.6329   18.1885  -33.6675 H   0  0  0  0  0  0  0  0  0  0  0  0
   -4.7012   20.3943  -32.2757 H   0  0  0  0  0  0  0  0  0  0  0  0
  1  2  1  0
  2  3  2  0
  3  4  1  0
  4  5  1  0
  5  6  1  0
  6  7  2  0
  7  8  1  0
  8  9  2  0
  9 10  1  0
 10 11  2  0
 10 12  2  0
 10 13  1  0
 13 14  1  0
 14 15  1  0
 15 16  1  0
 16 17  1  0
  9 18  1  0
 18 19  2  0
  5 20  2  0
 20 21  1  0
 21 22  2  0
 21 23  1  0
 23 24  1  0
 24 25  2  0
 25 26  1  0
 26 27  2  0
 27 28  1  0
 28 29  1  0
 29 30  2  0
 29 31  2  0
 29 32  1  0
 32 33  1  0
 33 34  1  0
 34 35  1  0
 35 36  1  0
 36 37  1  0
 28 38  2  0
 20  2  1  0
 38 24  1  0
 19  6  1  0
 37 32  1  0
 17 13  1  0
  1 39  1  0
  1 40  1  0
  1 41  1  0
  7 42  1  0
  8 43  1  0
 14 44  1  0
 14 45  1  0
 15 46  1  0
 15 47  1  0
 16 48  1  0
 16 49  1  0
 17 50  1  0
 17 51  1  0
 18 52  1  0
 19 53  1  0
 25 54  1  0
 26 55  1  0
 27 56  1  0
 33 57  1  0
 33 58  1  0
 34 59  1  0
 34 60  1  0
 35 61  1  0
 35 62  1  0
 36 63  1  0
 36 64  1  0
 37 65  1  0
 37 66  1  0
 38 67  1  0
M  CHG  1  23  -1
M  END
>  <UniqueID>  (19) 
19

>  <SMILES>  (19) 
Cc1noc(-c2ccc(S(=O)(=O)N3CCCC3)cc2)c1C(=O)[N-]c1cccc(S(=O)(=O)N2CCCCC2)c1

>  <Energy>  (19) 
117.34387995959969

>  <Genealogy>  (19) 
Cc1noc(-c2ccc(S(=O)(=O)N3CCCC3)cc2)c1C(=O)[N-]c1cccc(S(=O)(=O)N2CCCCC2)c1 (protonated)
Cc1noc(-c2ccc(S(=O)(=O)N3CCCC3)cc2)c1C(=O)[N-]c1cccc(S(=O)(=O)N2CCCCC2)c1 (3D coordinates assigned)
Cc1noc(-c2ccc(S(=O)(=O)N3CCCC3)cc2)c1C(=O)[N-]c1cccc(S(=O)(=O)N2CCCCC2)c1 (nonaromatic ring conformer: 117.34387995959969 kcal/mol)

>  <smiles>  (19) 
Cc1noc(-c2ccc(S(=O)(=O)N3CCCC3)cc2)c1C(=O)Nc1cccc(S(=O)(=O)N2CCCCC2)c1

>  <score_type>  (19) 
oracle

>  <origin>  (19) 
adgpu

>  <m_score__min__energy>  (19) 
-12.1

>  <m_primary>  (19) 
energy

$$$$
19:0
     RDKit          3D

 54 57  0  0  0  0  0  0  0  0999 V2000
   -3.3820   18.9000  -26.3290 C   0  0  0  0  0  0  0  0  0  0  0  0
   -2.3830   19.9370  -26.7180 C   0  0  0  0  0  0  0  0  0  0  0  0
   -2.2480   20.5150  -27.9620 C   0  0  0  0  0  0  0  0  0  0  0  0
   -1.2200   21.4170  -27.7820 C   0  0  0  0  0  0  0  0  0  0  0  0
   -0.6450   22.3120  -28.8350 C   0  0  0  0  0  0  0  0  0  0  0  0
   -0.1950   23.5720  -28.2390 N   0  0  0  0  0  0  0  0  0  0  0  0
    1.0670   23.8220  -27.8330 C   0  0  0  0  0  0  0  0  0  0  0  0
    1.1540   25.0980  -27.3160 C   0  0  0  0  0  0  0  0  0  0  0  0
   -0.1080   25.6480  -27.4050 C   0  0  0  0  0  0  0  0  0  0  0  0
   -0.9210   24.6840  -27.9770 C   0  0  0  0  0  0  0  0  0  0  0  0
   -2.3690   24.8520  -28.2360 C   0  0  0  0  0  0  0  0  0  0  0  0
   -3.1630   25.0080  -27.2720 O   0  0  0  0  0  0  0  0  0  0  0  0
   -2.8890   24.9240  -29.5700 N   0  0  0  0  0  0  0  0  0  0  0  0
   -4.0790   24.2770  -30.0430 C   0  0  0  0  0  0  0  0  0  0  0  0
   -4.0400   23.3390  -31.0910 C   0  0  0  0  0  0  0  0  0  0  0  0
   -5.2160   22.7270  -31.5310 C   0  0  0  0  0  0  0  0  0  0  0  0
   -6.4400   23.0300  -30.9200 C   0  0  0  0  0  0  0  0  0  0  0  0
   -7.9350   22.3040  -31.5080 S   0  0  0  0  0  0  0  0  0  0  0  0
   -8.6600   23.3090  -32.3580 O   0  0  0  0  0  0  0  0  0  0  0  0
   -8.8150   21.9400  -30.3440 O   0  0  0  0  0  0  0  0  0  0  0  0
   -7.5730   20.8800  -32.4540 N   0  0  0  0  0  0  0  0  0  0  0  0
   -8.8200   20.1400  -32.7930 C   0  0  0  0  0  0  0  0  0  0  0  0
   -9.0560   18.9220  -31.8880 C   0  0  0  0  0  0  0  0  0  0  0  0
   -7.8870   17.9270  -31.9800 C   0  0  0  0  0  0  0  0  0  0  0  0
   -6.5400   18.6160  -32.2630 C   0  0  0  0  0  0  0  0  0  0  0  0
   -6.5470   20.0640  -31.7590 C   0  0  0  0  0  0  0  0  0  0  0  0
   -6.4770   23.9450  -29.8600 C   0  0  0  0  0  0  0  0  0  0  0  0
   -5.2990   24.5560  -29.4170 C   0  0  0  0  0  0  0  0  0  0  0  0
   -0.7850   21.3660  -26.5080 N   0  0  0  0  0  0  0  0  0  0  0  0
   -1.5080   20.4720  -25.8990 O   0  0  0  0  0  0  0  0  0  0  0  0
   -3.4399   18.8399  -25.2322 H   0  0  0  0  0  0  0  0  0  0  0  0
   -4.3682   19.1708  -26.7340 H   0  0  0  0  0  0  0  0  0  0  0  0
   -3.0746   17.9246  -26.7340 H   0  0  0  0  0  0  0  0  0  0  0  0
   -2.8216   20.3072  -28.8773 H   0  0  0  0  0  0  0  0  0  0  0  0
    0.2100   21.8098  -29.3112 H   0  0  0  0  0  0  0  0  0  0  0  0
   -1.4203   22.5271  -29.5851 H   0  0  0  0  0  0  0  0  0  0  0  0
    1.9043   23.1121  -27.9039 H   0  0  0  0  0  0  0  0  0  0  0  0
    2.0547   25.5828  -26.9114 H   0  0  0  0  0  0  0  0  0  0  0  0
   -0.4097   26.6560  -27.0841 H   0  0  0  0  0  0  0  0  0  0  0  0
   -3.0802   23.0868  -31.5654 H   0  0  0  0  0  0  0  0  0  0  0  0
   -5.1811   22.0048  -32.3599 H   0  0  0  0  0  0  0  0  0  0  0  0
   -7.1530   21.2240  -33.3500 H   0  0  0  0  0  0  0  0  0  0  0  0
   -9.6742   20.8253  -32.6892 H   0  0  0  0  0  0  0  0  0  0  0  0
   -8.7150   19.7704  -33.8237 H   0  0  0  0  0  0  0  0  0  0  0  0
   -9.1565   19.2625  -30.8469 H   0  0  0  0  0  0  0  0  0  0  0  0
   -9.9734   18.4137  -32.2197 H   0  0  0  0  0  0  0  0  0  0  0  0
   -7.8110   17.3845  -31.0261 H   0  0  0  0  0  0  0  0  0  0  0  0
   -8.0950   17.2475  -32.8196 H   0  0  0  0  0  0  0  0  0  0  0  0
   -5.7382   18.0616  -31.7533 H   0  0  0  0  0  0  0  0  0  0  0  0
   -6.3720   18.6241  -33.3501 H   0  0  0  0  0  0  0  0  0  0  0  0
   -6.7609   20.0652  -30.6800 H   0  0  0  0  0  0  0  0  0  0  0  0
   -5.5602   20.5044  -31.9648 H   0  0  0  0  0  0  0  0  0  0  0  0
   -7.4348   24.1838  -29.3746 H   0  0  0  0  0  0  0  0  0  0  0  0
   -5.3320   25.2595  -28.5720 H   0  0  0  0  0  0  0  0  0  0  0  0
  1  2  1  0
  2  3  2  0
  3  4  1  0
  4  5  1  0
  5  6  1  0
  6  7  1  0
  7  8  2  0
  8  9  1  0
  9 10  2  0
 10 11  1  0
 11 12  2  0
 11 13  1  0
 13 14  1  0
 14 15  2  0
 15 16  1  0
 16 17  2  0
 17 18  1  0
 18 19  2  0
 18 20  2  0
 18 21  1  0
 21 22  1  0
 22 23  1  0
 23 24  1  0
 24 25  1  0
 25 26  1  0
 17 27  1  0
 27 28  2  0
  4 29  2  0
 29 30  1  0
 30  2  1  0
 10  6  1  0
 28 14  1  0
 26 21  1  0
  1 31  1  0
  1 32  1  0
  1 33  1  0
  3 34  1  0
  5 35  1  0
  5 36  1  0
  7 37  1  0
  8 38  1  0
  9 39  1  0
 15 40  1  0
 16 41  1  0
 21 42  1  0
 22 43  1  0
 22 44  1  0
 23 45  1  0
 23 46  1  0
 24 47  1  0
 24 48  1  0
 25 49  1  0
 25 50  1  0
 26 51  1  0
 26 52  1  0
 27 53  1  0
 28 54  1  0
M  CHG  2  13  -1  21   1
M  END
>  <UniqueID>  (20) 
20

>  <SMILES>  (20) 
Cc1cc(Cn2cccc2C(=O)[N-]c2ccc(S(=O)(=O)[NH+]3CCCCC3)cc2)no1

>  <Energy>  (20) 
120.8356512680951

>  <Genealogy>  (20) 
Cc1cc(Cn2cccc2C(=O)[N-]c2ccc(S(=O)(=O)[NH+]3CCCCC3)cc2)no1 (protonated)
Cc1cc(Cn2cccc2C(=O)[N-]c2ccc(S(=O)(=O)[NH+]3CCCCC3)cc2)no1 (3D coordinates assigned)
Cc1cc(Cn2cccc2C(=O)[N-]c2ccc(S(=O)(=O)[NH+]3CCCCC3)cc2)no1 (nonaromatic ring conformer: 120.8356512680951 kcal/mol)

>  <smiles>  (20) 
Cc1cc(Cn2cccc2C(=O)Nc2ccc(S(=O)(=O)N3CCCCC3)cc2)no1

>  <score_type>  (20) 
oracle

>  <origin>  (20) 
adgpu

>  <m_score__min__energy>  (20) 
-11.23

>  <m_primary>  (20) 
energy

$$$$
20:0
     RDKit          3D

 39 41  0  0  0  0  0  0  0  0999 V2000
   -3.2520   16.6950  -35.2830 C   0  0  0  0  0  0  0  0  0  0  0  0
   -3.8850   17.8230  -34.5420 C   0  0  0  0  0  0  0  0  0  0  0  0
   -3.2270   18.9290  -34.0390 C   0  0  0  0  0  0  0  0  0  0  0  0
   -4.2170   19.6500  -33.3990 C   0  0  0  0  0  0  0  0  0  0  0  0
   -4.0180   20.9760  -32.7820 C   0  0  0  0  0  0  0  0  0  0  0  0
   -4.0390   22.0010  -33.5160 O   0  0  0  0  0  0  0  0  0  0  0  0
   -3.8540   21.1120  -31.3630 N   0  0  0  0  0  0  0  0  0  0  0  0
   -3.5120   22.3830  -30.7320 C   0  0  0  0  0  0  0  0  0  0  0  0
   -4.7510   23.2160  -30.5240 C   0  0  0  0  0  0  0  0  0  0  0  0
   -5.9980   22.5770  -30.4270 C   0  0  0  0  0  0  0  0  0  0  0  0
   -7.1660   23.3250  -30.2500 C   0  0  0  0  0  0  0  0  0  0  0  0
   -7.0990   24.7160  -30.1690 C   0  0  0  0  0  0  0  0  0  0  0  0
   -5.8650   25.3650  -30.2650 C   0  0  0  0  0  0  0  0  0  0  0  0
   -4.6910   24.6230  -30.4430 C   0  0  0  0  0  0  0  0  0  0  0  0
   -3.4750   25.2920  -30.5380 O   0  0  0  0  0  0  0  0  0  0  0  0
   -5.3860   18.9720  -33.5020 N   0  0  0  0  0  0  0  0  0  0  0  0
   -6.6510   19.2850  -32.8960 C   0  0  0  0  0  0  0  0  0  0  0  0
   -7.1600   20.5950  -32.9230 C   0  0  0  0  0  0  0  0  0  0  0  0
   -8.3840   20.8880  -32.3160 C   0  0  0  0  0  0  0  0  0  0  0  0
   -9.1020   19.8820  -31.6640 C   0  0  0  0  0  0  0  0  0  0  0  0
   -8.5930   18.5810  -31.6120 C   0  0  0  0  0  0  0  0  0  0  0  0
   -7.3680   18.2840  -32.2190 C   0  0  0  0  0  0  0  0  0  0  0  0
   -5.1860   17.8600  -34.1940 N   0  0  0  0  0  0  0  0  0  0  0  0
   -2.8440   15.9680  -34.5654 H   0  0  0  0  0  0  0  0  0  0  0  0
   -4.0057   16.2028  -35.9152 H   0  0  0  0  0  0  0  0  0  0  0  0
   -2.4392   17.0819  -35.9152 H   0  0  0  0  0  0  0  0  0  0  0  0
   -2.1593   19.1785  -34.1277 H   0  0  0  0  0  0  0  0  0  0  0  0
   -4.0150   20.2850  -30.7460 H   0  0  0  0  0  0  0  0  0  0  0  0
   -3.0382   22.1886  -29.7585 H   0  0  0  0  0  0  0  0  0  0  0  0
   -2.8188   22.9315  -31.3866 H   0  0  0  0  0  0  0  0  0  0  0  0
   -6.0562   21.4804  -30.4907 H   0  0  0  0  0  0  0  0  0  0  0  0
   -8.1384   22.8162  -30.1746 H   0  0  0  0  0  0  0  0  0  0  0  0
   -8.0188   25.3029  -30.0294 H   0  0  0  0  0  0  0  0  0  0  0  0
   -5.8159   26.4620  -30.2005 H   0  0  0  0  0  0  0  0  0  0  0  0
   -6.5923   21.3929  -33.4241 H   0  0  0  0  0  0  0  0  0  0  0  0
   -8.7831   21.9124  -32.3515 H   0  0  0  0  0  0  0  0  0  0  0  0
  -10.0679   20.1138  -31.1915 H   0  0  0  0  0  0  0  0  0  0  0  0
   -9.1558   17.7907  -31.0937 H   0  0  0  0  0  0  0  0  0  0  0  0
   -6.9643   17.2621  -32.1660 H   0  0  0  0  0  0  0  0  0  0  0  0
  1  2  1  0
  2  3  1  0
  3  4  2  0
  4  5  1  0
  5  6  2  0
  5  7  1  0
  7  8  1  0
  8  9  1  0
  9 10  2  0
 10 11  1  0
 11 12  2  0
 12 13  1  0
 13 14  2  0
 14 15  1  0
  4 16  1  0
 16 17  1  0
 17 18  2  0
 18 19  1  0
 19 20  2  0
 20 21  1  0
 21 22  2  0
 16 23  1  0
 23  2  2  0
 14  9  1  0
 22 17  1  0
  1 24  1  0
  1 25  1  0
  1 26  1  0
  3 27  1  0
  7 28  1  0
  8 29  1  0
  8 30  1  0
 10 31  1  0
 11 32  1  0
 12 33  1  0
 13 34  1  0
 18 35  1  0
 19 36  1  0
 20 37  1  0
 21 38  1  0
 22 39  1  0
M  CHG  1  15  -1
M  END
>  <UniqueID>  (21) 
21

>  <SMILES>  (21) 
Cc1cc(C(=O)NCc2ccccc2[O-])n(-c2ccccc2)n1

>  <Energy>  (21) 
75.95057461557366

>  <Genealogy>  (21) 
Cc1cc(C(=O)NCc2ccccc2[O-])n(-c2ccccc2)n1 (protonated)
Cc1cc(C(=O)NCc2ccccc2[O-])n(-c2ccccc2)n1 (3D coordinates assigned)
Cc1cc(C(=O)NCc2ccccc2[O-])n(-c2ccccc2)n1 (optimized conformer: 75.95057461557366 kcal/mol)

>  <smiles>  (21) 
Cc1cc(C(=O)NCc2ccccc2O)n(-c2ccccc2)n1

>  <score_type>  (21) 
oracle

>  <origin>  (21) 
adgpu

>  <m_score__min__energy>  (21) 
-11.640000000000001

>  <m_primary>  (21) 
energy

$$$$
21:0
     RDKit          3D

 54 57  0  0  0  0  0  0  0  0999 V2000
   -4.7200   18.5610  -34.1670 C   0  0  0  0  0  0  0  0  0  0  0  0
   -5.5900   19.5210  -33.4620 N   0  0  0  0  0  0  0  0  0  0  0  0
   -5.0800   20.7270  -33.0730 C   0  0  0  0  0  0  0  0  0  0  0  0
   -3.8760   21.0180  -33.3330 O   0  0  0  0  0  0  0  0  0  0  0  0
   -5.8820   21.6380  -32.3760 C   0  0  0  0  0  0  0  0  0  0  0  0
   -5.3660   22.8720  -31.9380 C   0  0  0  0  0  0  0  0  0  0  0  0
   -6.1490   23.7360  -31.1660 C   0  0  0  0  0  0  0  0  0  0  0  0
   -5.3990   25.1340  -30.3900 S   0  0  0  0  0  0  0  0  0  0  0  0
   -5.9020   25.2780  -28.9790 O   0  0  0  0  0  0  0  0  0  0  0  0
   -5.7310   26.3760  -31.1740 O   0  0  0  0  0  0  0  0  0  0  0  0
   -3.6750   24.9270  -30.3480 N   0  0  0  0  0  0  0  0  0  0  0  0
   -3.0190   23.8010  -29.7480 C   0  0  0  0  0  0  0  0  0  0  0  0
   -3.2170   23.5460  -28.3880 C   0  0  0  0  0  0  0  0  0  0  0  0
   -2.4890   22.5420  -27.7440 C   0  0  0  0  0  0  0  0  0  0  0  0
   -1.5630   21.7720  -28.4590 C   0  0  0  0  0  0  0  0  0  0  0  0
   -0.5980   20.5560  -27.6250 S   0  0  0  0  0  0  0  0  0  0  0  0
    0.7860   21.0920  -27.3610 O   0  0  0  0  0  0  0  0  0  0  0  0
   -1.2500   20.2610  -26.3000 O   0  0  0  0  0  0  0  0  0  0  0  0
   -0.5120   19.0880  -28.5780 N   0  0  0  0  0  0  0  0  0  0  0  0
   -0.1230   17.9430  -27.7430 C   0  0  0  0  0  0  0  0  0  0  0  0
    1.3910   17.7920  -27.8380 C   0  0  0  0  0  0  0  0  0  0  0  0
    1.8070   18.6030  -29.0520 C   0  0  0  0  0  0  0  0  0  0  0  0
    0.5180   19.1840  -29.6200 C   0  0  0  0  0  0  0  0  0  0  0  0
   -1.4020   21.9880  -29.8340 C   0  0  0  0  0  0  0  0  0  0  0  0
   -2.1350   22.9880  -30.4780 C   0  0  0  0  0  0  0  0  0  0  0  0
   -7.4830   23.4130  -30.9100 C   0  0  0  0  0  0  0  0  0  0  0  0
   -8.0170   22.2080  -31.3640 C   0  0  0  0  0  0  0  0  0  0  0  0
   -7.2180   21.2810  -32.0750 C   0  0  0  0  0  0  0  0  0  0  0  0
   -7.6940   20.0450  -32.4490 N   0  0  0  0  0  0  0  0  0  0  0  0
   -9.0770   19.6430  -32.1050 C   0  0  0  0  0  0  0  0  0  0  0  0
   -6.8760   19.1710  -33.1270 C   0  0  0  0  0  0  0  0  0  0  0  0
   -7.3070   18.0270  -33.4430 O   0  0  0  0  0  0  0  0  0  0  0  0
   -4.1708   17.9550  -33.4313 H   0  0  0  0  0  0  0  0  0  0  0  0
   -5.3357   17.9029  -34.7977 H   0  0  0  0  0  0  0  0  0  0  0  0
   -4.0046   19.1091  -34.7977 H   0  0  0  0  0  0  0  0  0  0  0  0
   -4.3383   23.1592  -32.2051 H   0  0  0  0  0  0  0  0  0  0  0  0
   -3.9500   24.1390  -27.8215 H   0  0  0  0  0  0  0  0  0  0  0  0
   -2.6439   22.3557  -26.6710 H   0  0  0  0  0  0  0  0  0  0  0  0
   -1.4510   18.9190  -29.0110 H   0  0  0  0  0  0  0  0  0  0  0  0
   -0.4164   18.1244  -26.6985 H   0  0  0  0  0  0  0  0  0  0  0  0
   -0.6236   17.0267  -28.0890 H   0  0  0  0  0  0  0  0  0  0  0  0
    1.8736   18.1841  -26.9306 H   0  0  0  0  0  0  0  0  0  0  0  0
    1.6897   16.7375  -27.9313 H   0  0  0  0  0  0  0  0  0  0  0  0
    2.4943   19.4097  -28.7574 H   0  0  0  0  0  0  0  0  0  0  0  0
    2.3348   17.9842  -29.7926 H   0  0  0  0  0  0  0  0  0  0  0  0
    0.6724   20.2369  -29.8983 H   0  0  0  0  0  0  0  0  0  0  0  0
    0.2093   18.6306  -30.5191 H   0  0  0  0  0  0  0  0  0  0  0  0
   -0.6968   21.3688  -30.4078 H   0  0  0  0  0  0  0  0  0  0  0  0
   -2.0197   23.1397  -31.5614 H   0  0  0  0  0  0  0  0  0  0  0  0
   -8.1166   24.1138  -30.3465 H   0  0  0  0  0  0  0  0  0  0  0  0
   -9.0737   21.9744  -31.1670 H   0  0  0  0  0  0  0  0  0  0  0  0
   -9.1881   19.6107  -31.0111 H   0  0  0  0  0  0  0  0  0  0  0  0
   -9.7858   20.3723  -32.5242 H   0  0  0  0  0  0  0  0  0  0  0  0
   -9.2845   18.6474  -32.5242 H   0  0  0  0  0  0  0  0  0  0  0  0
  1  2  1  0
  2  3  1  0
  3  4  2  0
  3  5  1  0
  5  6  2  0
  6  7  1  0
  7  8  1  0
  8  9  2  0
  8 10  2  0
  8 11  1  0
 11 12  1  0
 12 13  2  0
 13 14  1  0
 14 15  2  0
 15 16  1  0
 16 17  2  0
 16 18  2  0
 16 19  1  0
 19 20  1  0
 20 21  1  0
 21 22  1  0
 22 23  1  0
 15 24  1  0
 24 25  2  0
  7 26  2  0
 26 27  1  0
 27 28  2  0
 28 29  1  0
 29 30  1  0
 29 31  1  0
 31 32  2  0
 31  2  1  0
 28  5  1  0
 25 12  1  0
 23 19  1  0
  1 33  1  0
  1 34  1  0
  1 35  1  0
  6 36  1  0
 13 37  1  0
 14 38  1  0
 19 39  1  0
 20 40  1  0
 20 41  1  0
 21 42  1  0
 21 43  1  0
 22 44  1  0
 22 45  1  0
 23 46  1  0
 23 47  1  0
 24 48  1  0
 25 49  1  0
 26 50  1  0
 27 51  1  0
 30 52  1  0
 30 53  1  0
 30 54  1  0
M  CHG  2  11  -1  19   1
M  END
>  <UniqueID>  (22) 
22

>  <SMILES>  (22) 
Cn1c(=O)c2cc(S(=O)(=O)[N-]c3ccc(S(=O)(=O)[NH+]4CCCC4)cc3)ccc2n(C)c1=O

>  <Energy>  (22) 
78.29268210691684

>  <Genealogy>  (22) 
Cn1c(=O)c2cc(S(=O)(=O)[N-]c3ccc(S(=O)(=O)[NH+]4CCCC4)cc3)ccc2n(C)c1=O (protonated)
Cn1c(=O)c2cc(S(=O)(=O)[N-]c3ccc(S(=O)(=O)[NH+]4CCCC4)cc3)ccc2n(C)c1=O (3D coordinates assigned)
Cn1c(=O)c2cc(S(=O)(=O)[N-]c3ccc(S(=O)(=O)[NH+]4CCCC4)cc3)ccc2n(C)c1=O (nonaromatic ring conformer: 78.29268210691684 kcal/mol)

>  <smiles>  (22) 
Cn1c(=O)c2cc(S(=O)(=O)Nc3ccc(S(=O)(=O)N4CCCC4)cc3)ccc2n(C)c1=O

>  <score_type>  (22) 
oracle

>  <origin>  (22) 
adgpu

>  <m_score__min__energy>  (22) 
-12.48

>  <m_primary>  (22) 
energy

$$$$
22:0
     RDKit          3D

 38 39  0  0  0  0  0  0  0  0999 V2000
   -5.7050   18.1860  -35.0490 C   0  0  0  0  0  0  0  0  0  0  0  0
   -6.2820   18.2880  -33.7090 N   0  0  0  0  0  0  0  0  0  0  0  0
   -6.5700   17.0740  -32.9450 C   0  0  0  0  0  0  0  0  0  0  0  0
   -6.2740   19.5500  -33.0260 C   0  0  0  0  0  0  0  0  0  0  0  0
   -5.0950   20.3110  -33.0160 C   0  0  0  0  0  0  0  0  0  0  0  0
   -5.0290   21.5060  -32.3020 C   0  0  0  0  0  0  0  0  0  0  0  0
   -6.1400   21.9620  -31.5860 C   0  0  0  0  0  0  0  0  0  0  0  0
   -6.0290   23.4620  -30.6680 S   0  0  0  0  0  0  0  0  0  0  0  0
   -5.9230   23.1680  -29.1970 O   0  0  0  0  0  0  0  0  0  0  0  0
   -7.2740   24.2700  -30.9040 O   0  0  0  0  0  0  0  0  0  0  0  0
   -4.6470   24.3760  -31.1960 N   0  0  0  0  0  0  0  0  0  0  0  0
   -3.8620   24.8610  -30.0570 C   0  0  0  0  0  0  0  0  0  0  0  0
   -2.7130   23.9000  -29.7350 C   0  0  0  0  0  0  0  0  0  0  0  0
   -1.6340   24.5830  -28.9500 C   0  0  0  0  0  0  0  0  0  0  0  0
   -0.4540   24.0170  -28.5320 C   0  0  0  0  0  0  0  0  0  0  0  0
    0.2810   24.9550  -27.9120 N   0  0  0  0  0  0  0  0  0  0  0  0
   -0.4800   26.0690  -27.9810 C   0  0  0  0  0  0  0  0  0  0  0  0
   -1.6560   25.8850  -28.6160 N   0  0  0  0  0  0  0  0  0  0  0  0
   -7.3240   21.2120  -31.5930 C   0  0  0  0  0  0  0  0  0  0  0  0
   -7.4120   20.0110  -32.3190 C   0  0  0  0  0  0  0  0  0  0  0  0
   -8.6590   19.2920  -32.3470 N   0  0  0  0  0  0  0  0  0  0  0  0
   -9.5870   19.6500  -33.1020 O   0  0  0  0  0  0  0  0  0  0  0  0
   -8.8970   18.2830  -31.4420 O   0  0  0  0  0  0  0  0  0  0  0  0
   -4.6246   17.9950  -34.9694 H   0  0  0  0  0  0  0  0  0  0  0  0
   -6.1845   17.3587  -35.5927 H   0  0  0  0  0  0  0  0  0  0  0  0
   -5.8718   19.1276  -35.5927 H   0  0  0  0  0  0  0  0  0  0  0  0
   -6.5172   17.2967  -31.8691 H   0  0  0  0  0  0  0  0  0  0  0  0
   -7.5786   16.7136  -33.1957 H   0  0  0  0  0  0  0  0  0  0  0  0
   -5.8308   16.2990  -33.1957 H   0  0  0  0  0  0  0  0  0  0  0  0
   -4.2155   19.9613  -33.5765 H   0  0  0  0  0  0  0  0  0  0  0  0
   -4.0988   22.0931  -32.3017 H   0  0  0  0  0  0  0  0  0  0  0  0
   -3.4466   25.8499  -30.3011 H   0  0  0  0  0  0  0  0  0  0  0  0
   -4.5212   24.9268  -29.1789 H   0  0  0  0  0  0  0  0  0  0  0  0
   -3.1051   23.0573  -29.1467 H   0  0  0  0  0  0  0  0  0  0  0  0
   -2.2811   23.5461  -30.6827 H   0  0  0  0  0  0  0  0  0  0  0  0
   -0.1594   22.9677  -28.6807 H   0  0  0  0  0  0  0  0  0  0  0  0
   -0.1697   27.0362  -27.5587 H   0  0  0  0  0  0  0  0  0  0  0  0
   -8.1954   21.5674  -31.0234 H   0  0  0  0  0  0  0  0  0  0  0  0
  1  2  1  0
  2  3  1  0
  2  4  1  0
  4  5  2  0
  5  6  1  0
  6  7  2  0
  7  8  1  0
  8  9  2  0
  8 10  2  0
  8 11  1  0
 11 12  1  0
 12 13  1  0
 13 14  1  0
 14 15  2  0
 15 16  1  0
 16 17  1  0
 17 18  2  0
  7 19  1  0
 19 20  2  0
 20 21  1  0
 21 22  2  0
 21 23  1  0
 20  4  1  0
 18 14  1  0
  1 24  1  0
  1 25  1  0
  1 26  1  0
  3 27  1  0
  3 28  1  0
  3 29  1  0
  5 30  1  0
  6 31  1  0
 12 32  1  0
 12 33  1  0
 13 34  1  0
 13 35  1  0
 15 36  1  0
 17 37  1  0
 19 38  1  0
M  CHG  4  11  -1  16  -1  21   1  23  -1
M  END
>  <UniqueID>  (23) 
23

>  <SMILES>  (23) 
CN(C)c1ccc(S(=O)(=O)[N-]CCc2c[n-]cn2)cc1[N+](=O)[O-]

>  <Energy>  (23) 
69.54538884647512

>  <Genealogy>  (23) 
CN(C)c1ccc(S(=O)(=O)[N-]CCc2c[n-]cn2)cc1[N+](=O)[O-] (protonated)
CN(C)c1ccc(S(=O)(=O)[N-]CCc2c[n-]cn2)cc1[N+](=O)[O-] (3D coordinates assigned)
CN(C)c1ccc(S(=O)(=O)[N-]CCc2c[n-]cn2)cc1[N+](=O)[O-] (optimized conformer: 69.54538884647512 kcal/mol)

>  <smiles>  (23) 
CN(C)c1ccc(S(=O)(=O)NCCc2c[nH]cn2)cc1[N+](=O)[O-]

>  <score_type>  (23) 
oracle

>  <origin>  (23) 
adgpu

>  <m_score__min__energy>  (23) 
-9.9199999999999999

>  <m_primary>  (23) 
energy

$$$$
23:0
     RDKit          3D

 88 93  0  0  0  0  0  0  0  0999 V2000
    3.8960   15.8910  -36.4910 C   0  0  0  0  0  0  0  0  0  0  0  0
    3.0170   17.1100  -36.4350 C   0  0  0  0  0  0  0  0  0  0  0  0
    3.3120   18.2050  -37.2650 C   0  0  0  0  0  0  0  0  0  0  0  0
    2.5280   19.3570  -37.2250 C   0  0  0  0  0  0  0  0  0  0  0  0
    1.4370   19.4400  -36.3460 C   0  0  0  0  0  0  0  0  0  0  0  0
    0.5770   20.5890  -36.3090 N   0  0  0  0  0  0  0  0  0  0  0  0
    0.5460   21.6010  -35.2920 C   0  0  0  0  0  0  0  0  0  0  0  0
    1.1060   22.7140  -35.4880 O   0  0  0  0  0  0  0  0  0  0  0  0
   -0.1200   21.3270  -33.9990 C   0  0  0  0  0  0  0  0  0  0  0  0
   -1.4990   21.5530  -33.8440 C   0  0  0  0  0  0  0  0  0  0  0  0
   -2.1390   21.2370  -32.6430 C   0  0  0  0  0  0  0  0  0  0  0  0
   -1.4180   20.6740  -31.5760 C   0  0  0  0  0  0  0  0  0  0  0  0
   -2.1270   20.2450  -30.3050 C   0  0  0  0  0  0  0  0  0  0  0  0
   -2.6160   21.3780  -29.4810 N   0  0  0  0  0  0  0  0  0  0  0  0
   -2.9150   21.0320  -28.0710 C   0  0  0  0  0  0  0  0  0  0  0  0
   -1.8320   21.5540  -27.1170 C   0  0  0  0  0  0  0  0  0  0  0  0
   -1.7140   23.0310  -27.1810 N   0  0  0  0  0  0  0  0  0  0  0  0
   -0.3660   23.4530  -26.7640 C   0  0  0  0  0  0  0  0  0  0  0  0
   -2.0760   23.6060  -28.5000 C   0  0  0  0  0  0  0  0  0  0  0  0
   -1.8290   22.6200  -29.6530 C   0  0  0  0  0  0  0  0  0  0  0  0
   -0.0290   20.5180  -31.7050 C   0  0  0  0  0  0  0  0  0  0  0  0
    0.6120   20.8230  -32.9090 C   0  0  0  0  0  0  0  0  0  0  0  0
    1.1200   18.3420  -35.5400 C   0  0  0  0  0  0  0  0  0  0  0  0
    1.8980   17.1700  -35.5700 C   0  0  0  0  0  0  0  0  0  0  0  0
    1.5410   16.0360  -34.7520 N   0  0  0  0  0  0  0  0  0  0  0  0
    0.3690   15.1960  -35.0040 C   0  0  0  0  0  0  0  0  0  0  0  0
   -0.9090   15.9680  -34.8290 C   0  0  0  0  0  0  0  0  0  0  0  0
   -1.9820   15.9010  -35.7130 C   0  0  0  0  0  0  0  0  0  0  0  0
   -2.9470   16.7210  -35.1730 C   0  0  0  0  0  0  0  0  0  0  0  0
   -4.2310   17.0100  -35.6240 C   0  0  0  0  0  0  0  0  0  0  0  0
   -5.0190   17.8830  -34.8550 C   0  0  0  0  0  0  0  0  0  0  0  0
   -4.5240   18.4340  -33.6410 C   0  0  0  0  0  0  0  0  0  0  0  0
   -5.3500   19.3530  -32.8150 C   0  0  0  0  0  0  0  0  0  0  0  0
   -6.0510   18.8700  -31.8850 O   0  0  0  0  0  0  0  0  0  0  0  0
   -5.3540   20.7740  -33.0510 N   0  0  0  0  0  0  0  0  0  0  0  0
   -6.1150   21.7110  -32.2710 C   0  0  0  0  0  0  0  0  0  0  0  0
   -7.5200   21.6760  -32.2510 C   0  0  0  0  0  0  0  0  0  0  0  0
   -8.2360   22.6220  -31.5140 C   0  0  0  0  0  0  0  0  0  0  0  0
   -7.5600   23.6140  -30.8000 C   0  0  0  0  0  0  0  0  0  0  0  0
   -6.1600   23.6670  -30.8210 C   0  0  0  0  0  0  0  0  0  0  0  0
   -5.3010   24.9210  -29.9320 S   0  0  0  0  0  0  0  0  0  0  0  0
   -3.8370   25.3180  -30.7590 N   0  0  0  0  0  0  0  0  0  0  0  0
   -6.1610   26.1490  -29.8260 O   0  0  0  0  0  0  0  0  0  0  0  0
   -4.9800   24.4370  -28.5460 O   0  0  0  0  0  0  0  0  0  0  0  0
   -5.4440   22.7260  -31.5720 C   0  0  0  0  0  0  0  0  0  0  0  0
   -3.2050   18.1220  -33.2260 C   0  0  0  0  0  0  0  0  0  0  0  0
   -2.4400   17.2620  -34.0200 C   0  0  0  0  0  0  0  0  0  0  0  0
   -1.1780   16.8270  -33.8090 N   0  0  0  0  0  0  0  0  0  0  0  0
   -0.3130   17.1480  -32.6730 C   0  0  0  0  0  0  0  0  0  0  0  0
    4.1329   15.5625  -35.4683 H   0  0  0  0  0  0  0  0  0  0  0  0
    3.3705   15.0841  -37.0228 H   0  0  0  0  0  0  0  0  0  0  0  0
    4.8275   16.1348  -37.0228 H   0  0  0  0  0  0  0  0  0  0  0  0
    4.1692   18.1526  -37.9524 H   0  0  0  0  0  0  0  0  0  0  0  0
    2.7654   20.2044  -37.8850 H   0  0  0  0  0  0  0  0  0  0  0  0
   -2.0785   21.9819  -34.6748 H   0  0  0  0  0  0  0  0  0  0  0  0
   -3.2161   21.4304  -32.5316 H   0  0  0  0  0  0  0  0  0  0  0  0
   -2.9890   19.6205  -30.5825 H   0  0  0  0  0  0  0  0  0  0  0  0
   -1.3911   19.6997  -29.6958 H   0  0  0  0  0  0  0  0  0  0  0  0
   -3.8811   21.4776  -27.7917 H   0  0  0  0  0  0  0  0  0  0  0  0
   -2.9475   19.9358  -27.9862 H   0  0  0  0  0  0  0  0  0  0  0  0
   -2.0905   21.2607  -26.0888 H   0  0  0  0  0  0  0  0  0  0  0  0
   -0.8682   21.1184  -27.4192 H   0  0  0  0  0  0  0  0  0  0  0  0
   -0.3106   23.4703  -25.6655 H   0  0  0  0  0  0  0  0  0  0  0  0
    0.3780   22.7448  -27.1575 H   0  0  0  0  0  0  0  0  0  0  0  0
   -0.1586   24.4591  -27.1575 H   0  0  0  0  0  0  0  0  0  0  0  0
   -3.1422   23.8761  -28.4877 H   0  0  0  0  0  0  0  0  0  0  0  0
   -1.4405   24.4878  -28.6689 H   0  0  0  0  0  0  0  0  0  0  0  0
   -2.1179   23.0981  -30.6006 H   0  0  0  0  0  0  0  0  0  0  0  0
   -0.7614   22.3549  -29.6584 H   0  0  0  0  0  0  0  0  0  0  0  0
    0.5602   20.1525  -30.8510 H   0  0  0  0  0  0  0  0  0  0  0  0
    1.6968   20.6677  -33.0047 H   0  0  0  0  0  0  0  0  0  0  0  0
    0.2480   18.3955  -34.8715 H   0  0  0  0  0  0  0  0  0  0  0  0
    2.0170   15.9130  -33.8290 H   0  0  0  0  0  0  0  0  0  0  0  0
    0.4178   14.8140  -36.0344 H   0  0  0  0  0  0  0  0  0  0  0  0
    0.3748   14.3685  -34.2793 H   0  0  0  0  0  0  0  0  0  0  0  0
   -2.0454   15.3179  -36.6436 H   0  0  0  0  0  0  0  0  0  0  0  0
   -4.6176   16.5685  -36.5544 H   0  0  0  0  0  0  0  0  0  0  0  0
   -6.0317   18.1436  -35.1964 H   0  0  0  0  0  0  0  0  0  0  0  0
   -4.7290   21.1770  -33.7820 H   0  0  0  0  0  0  0  0  0  0  0  0
   -8.0573   20.9012  -32.8175 H   0  0  0  0  0  0  0  0  0  0  0  0
   -9.3353   22.5857  -31.4958 H   0  0  0  0  0  0  0  0  0  0  0  0
   -8.1283   24.3557  -30.2196 H   0  0  0  0  0  0  0  0  0  0  0  0
   -3.9800   26.2530  -31.2030 H   0  0  0  0  0  0  0  0  0  0  0  0
   -4.3463   22.7832  -31.6142 H   0  0  0  0  0  0  0  0  0  0  0  0
   -2.7921   18.5472  -32.2993 H   0  0  0  0  0  0  0  0  0  0  0  0
   -0.8510   16.9483  -31.7346 H   0  0  0  0  0  0  0  0  0  0  0  0
    0.5936   16.5264  -32.7153 H   0  0  0  0  0  0  0  0  0  0  0  0
   -0.0314   18.2105  -32.7153 H   0  0  0  0  0  0  0  0  0  0  0  0
  1  2  1  0
  2  3  2  0
  3  4  1  0
  4  5  2  0
  5  6  1  0
  6  7  1  0
  7  8  2  0
  7  9  1  0
  9 10  2  0
 10 11  1  0
 11 12  2  0
 12 13  1  0
 13 14  1  0
 14 15  1  0
 15 16  1  0
 16 17  1  0
 17 18  1  0
 17 19  1  0
 19 20  1  0
 12 21  1  0
 21 22  2  0
  5 23  1  0
 23 24  2  0
 24 25  1  0
 25 26  1  0
 26 27  1  0
 27 28  2  0
 28 29  1  0
 29 30  2  0
 30 31  1  0
 31 32  2  0
 32 33  1  0
 33 34  2  0
 33 35  1  0
 35 36  1  0
 36 37  2  0
 37 38  1  0
 38 39  2  0
 39 40  1  0
 40 41  1  0
 41 42  1  0
 41 43  2  0
 41 44  2  0
 40 45  2  0
 32 46  1  0
 46 47  2  0
 47 48  1  0
 48 49  1  0
 24  2  1  0
 48 27  1  0
 22  9  1  0
 47 29  1  0
 20 14  1  0
 45 36  1  0
  1 50  1  0
  1 51  1  0
  1 52  1  0
  3 53  1  0
  4 54  1  0
 10 55  1  0
 11 56  1  0
 13 57  1  0
 13 58  1  0
 15 59  1  0
 15 60  1  0
 16 61  1  0
 16 62  1  0
 18 63  1  0
 18 64  1  0
 18 65  1  0
 19 66  1  0
 19 67  1  0
 20 68  1  0
 20 69  1  0
 21 70  1  0
 22 71  1  0
 23 72  1  0
 25 73  1  0
 26 74  1  0
 26 75  1  0
 28 76  1  0
 30 77  1  0
 31 78  1  0
 35 79  1  0
 37 80  1  0
 38 81  1  0
 39 82  1  0
 42 83  1  0
 45 84  1  0
 46 85  1  0
 49 86  1  0
 49 87  1  0
 49 88  1  0
M  CHG  2   6  -1  42  -1
M  END
>  <UniqueID>  (24) 
24

>  <SMILES>  (24) 
Cc1ccc([N-]C(=O)c2ccc(CN3CCN(C)CC3)cc2)cc1NCc1cc2ccc(C(=O)Nc3cccc(S([NH-])(=O)=O)c3)cc2n1C

>  <Energy>  (24) 
155.68253924498092

>  <Genealogy>  (24) 
Cc1ccc([N-]C(=O)c2ccc(CN3CCN(C)CC3)cc2)cc1NCc1cc2ccc(C(=O)Nc3cccc(S([NH-])(=O)=O)c3)cc2n1C (protonated)
Cc1ccc([N-]C(=O)c2ccc(CN3CCN(C)CC3)cc2)cc1NCc1cc2ccc(C(=O)Nc3cccc(S([NH-])(=O)=O)c3)cc2n1C (3D coordinates assigned)
Cc1ccc([N-]C(=O)c2ccc(CN3CCN(C)CC3)cc2)cc1NCc1cc2ccc(C(=O)Nc3cccc(S([NH-])(=O)=O)c3)cc2n1C (nonaromatic ring conformer: 155.68253924498092 kcal/mol)

>  <smiles>  (24) 
Cc1ccc(NC(=O)c2ccc(CN3CCN(C)CC3)cc2)cc1NCc1cc2ccc(C(=O)Nc3cccc(S(N)(=O)=O)c3)cc2n1C

>  <score_type>  (24) 
oracle

>  <origin>  (24) 
adgpu

>  <m_score__min__energy>  (24) 
-12.98

>  <m_primary>  (24) 
energy

$$$$
24:0
     RDKit          3D

 68 72  0  0  0  0  0  0  0  0999 V2000
   -9.6510   21.5620  -30.4810 C   0  0  0  0  0  0  0  0  0  0  0  0
   -8.8600   21.9330  -31.7470 C   0  0  0  0  0  0  0  0  0  0  0  0
   -9.3450   23.3070  -32.2510 C   0  0  0  0  0  0  0  0  0  0  0  0
   -7.3590   21.9780  -31.4020 C   0  0  0  0  0  0  0  0  0  0  0  0
   -9.1250   20.9150  -32.7250 O   0  0  0  0  0  0  0  0  0  0  0  0
   -8.7720   19.5570  -32.6330 C   0  0  0  0  0  0  0  0  0  0  0  0
   -9.6380   18.6880  -32.3400 O   0  0  0  0  0  0  0  0  0  0  0  0
   -7.4060   19.1610  -32.8680 N   0  0  0  0  0  0  0  0  0  0  0  0
   -6.4790   20.0630  -33.5650 C   0  0  0  0  0  0  0  0  0  0  0  0
   -5.1270   20.0780  -32.8530 C   0  0  0  0  0  0  0  0  0  0  0  0
   -4.6810   18.7020  -32.6140 N   0  0  0  0  0  0  0  0  0  0  0  0
   -3.4820   18.1900  -33.2280 C   0  0  0  0  0  0  0  0  0  0  0  0
   -3.4930   17.0430  -33.7500 O   0  0  0  0  0  0  0  0  0  0  0  0
   -2.2360   18.9840  -33.2770 C   0  0  0  0  0  0  0  0  0  0  0  0
   -1.3970   19.0930  -32.1580 C   0  0  0  0  0  0  0  0  0  0  0  0
   -0.2430   19.8890  -32.2290 C   0  0  0  0  0  0  0  0  0  0  0  0
    0.6630   20.0210  -31.0390 C   0  0  0  0  0  0  0  0  0  0  0  0
    0.6330   18.4730  -30.0680 S   0  0  0  0  0  0  0  0  0  0  0  0
   -0.5030   19.0930  -28.8280 C   0  0  0  0  0  0  0  0  0  0  0  0
   -0.7540   18.3540  -27.6700 C   0  0  0  0  0  0  0  0  0  0  0  0
   -1.6730   18.8580  -26.7510 C   0  0  0  0  0  0  0  0  0  0  0  0
   -2.3070   20.0320  -27.0010 N   0  0  0  0  0  0  0  0  0  0  0  0
   -2.0570   20.7430  -28.1360 C   0  0  0  0  0  0  0  0  0  0  0  0
   -2.7610   22.0180  -28.4030 C   0  0  0  0  0  0  0  0  0  0  0  0
   -2.9870   22.9380  -27.3510 C   0  0  0  0  0  0  0  0  0  0  0  0
   -3.6670   24.1520  -27.5830 C   0  0  0  0  0  0  0  0  0  0  0  0
   -4.1100   24.4850  -28.8730 C   0  0  0  0  0  0  0  0  0  0  0  0
   -3.8610   23.5790  -29.9020 C   0  0  0  0  0  0  0  0  0  0  0  0
   -4.1710   23.7310  -31.2020 N   0  0  0  0  0  0  0  0  0  0  0  0
   -3.7150   22.6230  -31.8250 C   0  0  0  0  0  0  0  0  0  0  0  0
   -3.1140   21.7600  -30.9150 C   0  0  0  0  0  0  0  0  0  0  0  0
   -3.2180   22.3850  -29.6830 C   0  0  0  0  0  0  0  0  0  0  0  0
   -1.1470   20.2700  -29.0320 N   0  0  0  0  0  0  0  0  0  0  0  0
    0.0710   20.5310  -33.4360 C   0  0  0  0  0  0  0  0  0  0  0  0
   -0.7710   20.3750  -34.5360 C   0  0  0  0  0  0  0  0  0  0  0  0
   -1.8960   19.6190  -34.4340 N   0  0  0  0  0  0  0  0  0  0  0  0
   -5.5990   17.8060  -31.9020 C   0  0  0  0  0  0  0  0  0  0  0  0
   -6.9560   17.7850  -32.6100 C   0  0  0  0  0  0  0  0  0  0  0  0
   -9.0668   21.8360  -29.5902 H   0  0  0  0  0  0  0  0  0  0  0  0
  -10.6073   22.1055  -30.4737 H   0  0  0  0  0  0  0  0  0  0  0  0
   -9.8446   20.4792  -30.4737 H   0  0  0  0  0  0  0  0  0  0  0  0
   -9.5732   23.9534  -31.3907 H   0  0  0  0  0  0  0  0  0  0  0  0
   -8.5570   23.7729  -32.8609 H   0  0  0  0  0  0  0  0  0  0  0  0
  -10.2509   23.1750  -32.8609 H   0  0  0  0  0  0  0  0  0  0  0  0
   -7.2339   21.9818  -30.3091 H   0  0  0  0  0  0  0  0  0  0  0  0
   -6.8588   21.0944  -31.8253 H   0  0  0  0  0  0  0  0  0  0  0  0
   -6.9127   22.8899  -31.8253 H   0  0  0  0  0  0  0  0  0  0  0  0
   -6.3417   19.7153  -34.5995 H   0  0  0  0  0  0  0  0  0  0  0  0
   -6.8976   21.0802  -33.5648 H   0  0  0  0  0  0  0  0  0  0  0  0
   -4.3886   20.5982  -33.4807 H   0  0  0  0  0  0  0  0  0  0  0  0
   -5.2270   20.6016  -31.8908 H   0  0  0  0  0  0  0  0  0  0  0  0
   -1.6423   18.5572  -31.2292 H   0  0  0  0  0  0  0  0  0  0  0  0
    1.6897   20.2183  -31.3811 H   0  0  0  0  0  0  0  0  0  0  0  0
    0.3176   20.8535  -30.4085 H   0  0  0  0  0  0  0  0  0  0  0  0
   -0.2398   17.3988  -27.4877 H   0  0  0  0  0  0  0  0  0  0  0  0
   -1.8843   18.3048  -25.8240 H   0  0  0  0  0  0  0  0  0  0  0  0
   -2.6273   22.7029  -26.3384 H   0  0  0  0  0  0  0  0  0  0  0  0
   -3.8515   24.8428  -26.7471 H   0  0  0  0  0  0  0  0  0  0  0  0
   -4.6370   25.4312  -29.0653 H   0  0  0  0  0  0  0  0  0  0  0  0
   -4.6480   24.5450  -31.6470 H   0  0  0  0  0  0  0  0  0  0  0  0
   -3.8064   22.4297  -32.9040 H   0  0  0  0  0  0  0  0  0  0  0  0
   -2.6524   20.7847  -31.1288 H   0  0  0  0  0  0  0  0  0  0  0  0
    0.9749   21.1529  -33.5140 H   0  0  0  0  0  0  0  0  0  0  0  0
   -0.5243   20.8652  -35.4893 H   0  0  0  0  0  0  0  0  0  0  0  0
   -5.1790   16.7894  -31.8872 H   0  0  0  0  0  0  0  0  0  0  0  0
   -5.7325   18.1668  -30.8715 H   0  0  0  0  0  0  0  0  0  0  0  0
   -6.8612   17.2470  -33.5647 H   0  0  0  0  0  0  0  0  0  0  0  0
   -7.6916   17.2771  -31.9690 H   0  0  0  0  0  0  0  0  0  0  0  0
  1  2  1  0
  2  3  1  0
  2  4  1  0
  2  5  1  0
  5  6  1  0
  6  7  2  0
  6  8  1  0
  8  9  1  0
  9 10  1  0
 10 11  1  0
 11 12  1  0
 12 13  2  0
 12 14  1  0
 14 15  2  0
 15 16  1  0
 16 17  1  0
 17 18  1  0
 18 19  1  0
 19 20  2  0
 20 21  1  0
 21 22  2  0
 22 23  1  0
 23 24  1  0
 24 25  2  0
 25 26  1  0
 26 27  2  0
 27 28  1  0
 28 29  1  0
 29 30  1  0
 30 31  2  0
 31 32  1  0
 23 33  2  0
 16 34  2  0
 34 35  1  0
 35 36  2  0
 11 37  1  0
 37 38  1  0
 38  8  1  0
 36 14  1  0
 33 19  1  0
 32 24  1  0
 32 28  2  0
  1 39  1  0
  1 40  1  0
  1 41  1  0
  3 42  1  0
  3 43  1  0
  3 44  1  0
  4 45  1  0
  4 46  1  0
  4 47  1  0
  9 48  1  0
  9 49  1  0
 10 50  1  0
 10 51  1  0
 15 52  1  0
 17 53  1  0
 17 54  1  0
 20 55  1  0
 21 56  1  0
 25 57  1  0
 26 58  1  0
 27 59  1  0
 29 60  1  0
 30 61  1  0
 31 62  1  0
 34 63  1  0
 35 64  1  0
 37 65  1  0
 37 66  1  0
 38 67  1  0
 38 68  1  0
M  END
>  <UniqueID>  (25) 
25

>  <SMILES>  (25) 
CC(C)(C)OC(=O)N1CCN(C(=O)c2cc(CSc3ccnc(-c4cccc5[nH]ccc45)n3)ccn2)CC1

>  <Energy>  (25) 
106.32955610906987

>  <Genealogy>  (25) 
CC(C)(C)OC(=O)N1CCN(C(=O)c2cc(CSc3ccnc(-c4cccc5[nH]ccc45)n3)ccn2)CC1 (3D coordinates assigned)
CC(C)(C)OC(=O)N1CCN(C(=O)c2cc(CSc3ccnc(-c4cccc5[nH]ccc45)n3)ccn2)CC1 (nonaromatic ring conformer: 106.32955610906987 kcal/mol)

>  <smiles>  (25) 
CC(C)(C)OC(=O)N1CCN(C(=O)c2cc(CSc3ccnc(-c4cccc5[nH]ccc45)n3)ccn2)CC1

>  <score_type>  (25) 
oracle

>  <origin>  (25) 
adgpu

>  <m_score__min__energy>  (25) 
-10.619999999999999

>  <m_primary>  (25) 
energy

$$$$
25:0
     RDKit          3D

 47 50  0  0  0  0  0  0  0  0999 V2000
   -7.6650   24.3940  -30.8390 O   0  0  0  0  0  0  0  0  0  0  0  0
   -6.6380   23.8300  -31.3000 C   0  0  0  0  0  0  0  0  0  0  0  0
   -6.7730   22.9550  -32.4270 N   0  0  0  0  0  0  0  0  0  0  0  0
   -7.3180   21.6290  -32.3860 C   0  0  0  0  0  0  0  0  0  0  0  0
   -8.5420   21.3630  -31.7480 C   0  0  0  0  0  0  0  0  0  0  0  0
   -9.0420   20.0600  -31.7070 C   0  0  0  0  0  0  0  0  0  0  0  0
   -8.3290   19.0160  -32.3000 C   0  0  0  0  0  0  0  0  0  0  0  0
   -7.1130   19.2730  -32.9490 C   0  0  0  0  0  0  0  0  0  0  0  0
   -6.1840   17.9460  -33.6490 S   0  0  0  0  0  0  0  0  0  0  0  0
   -6.9590   16.6660  -33.4980 O   0  0  0  0  0  0  0  0  0  0  0  0
   -5.9930   18.1980  -35.1190 O   0  0  0  0  0  0  0  0  0  0  0  0
   -4.6220   17.7620  -32.8780 N   0  0  0  0  0  0  0  0  0  0  0  0
   -3.7360   16.8950  -33.6640 C   0  0  0  0  0  0  0  0  0  0  0  0
   -2.7590   17.7690  -34.4400 C   0  0  0  0  0  0  0  0  0  0  0  0
   -2.9700   19.1810  -33.9320 C   0  0  0  0  0  0  0  0  0  0  0  0
   -3.9340   19.0530  -32.7650 C   0  0  0  0  0  0  0  0  0  0  0  0
   -6.6250   20.5850  -33.0080 C   0  0  0  0  0  0  0  0  0  0  0  0
   -5.3230   24.1320  -30.7020 C   0  0  0  0  0  0  0  0  0  0  0  0
   -4.5980   23.3210  -29.8540 C   0  0  0  0  0  0  0  0  0  0  0  0
   -3.4450   24.0370  -29.6080 C   0  0  0  0  0  0  0  0  0  0  0  0
   -2.3570   23.6340  -28.6900 C   0  0  0  0  0  0  0  0  0  0  0  0
   -2.4180   22.3630  -28.0870 C   0  0  0  0  0  0  0  0  0  0  0  0
   -1.4410   21.9600  -27.1750 C   0  0  0  0  0  0  0  0  0  0  0  0
   -0.3930   22.8200  -26.8470 C   0  0  0  0  0  0  0  0  0  0  0  0
   -0.3110   24.0800  -27.4430 C   0  0  0  0  0  0  0  0  0  0  0  0
   -1.2720   24.4900  -28.3770 C   0  0  0  0  0  0  0  0  0  0  0  0
   -1.0940   25.7330  -28.9890 O   0  0  0  0  0  0  0  0  0  0  0  0
   -3.4920   25.2080  -30.2740 N   0  0  0  0  0  0  0  0  0  0  0  0
   -4.6310   25.2620  -30.9490 N   0  0  0  0  0  0  0  0  0  0  0  0
   -9.1069   22.1828  -31.2802 H   0  0  0  0  0  0  0  0  0  0  0  0
   -9.9999   19.8554  -31.2064 H   0  0  0  0  0  0  0  0  0  0  0  0
   -8.7223   17.9896  -32.2579 H   0  0  0  0  0  0  0  0  0  0  0  0
   -3.1799   16.2263  -32.9905 H   0  0  0  0  0  0  0  0  0  0  0  0
   -4.3300   16.2866  -34.3619 H   0  0  0  0  0  0  0  0  0  0  0  0
   -1.7244   17.4457  -34.2525 H   0  0  0  0  0  0  0  0  0  0  0  0
   -2.9298   17.7005  -35.5245 H   0  0  0  0  0  0  0  0  0  0  0  0
   -2.0166   19.6155  -33.5971 H   0  0  0  0  0  0  0  0  0  0  0  0
   -3.3654   19.8422  -34.7171 H   0  0  0  0  0  0  0  0  0  0  0  0
   -3.3785   19.0971  -31.8166 H   0  0  0  0  0  0  0  0  0  0  0  0
   -4.6642   19.8755  -32.7834 H   0  0  0  0  0  0  0  0  0  0  0  0
   -5.6898   20.7958  -33.5475 H   0  0  0  0  0  0  0  0  0  0  0  0
   -4.8755   22.3308  -29.4636 H   0  0  0  0  0  0  0  0  0  0  0  0
   -3.2439   21.6808  -28.3371 H   0  0  0  0  0  0  0  0  0  0  0  0
   -1.4977   20.9627  -26.7143 H   0  0  0  0  0  0  0  0  0  0  0  0
    0.3690   22.5055  -26.1187 H   0  0  0  0  0  0  0  0  0  0  0  0
    0.5147   24.7564  -27.1772 H   0  0  0  0  0  0  0  0  0  0  0  0
   -1.6480   26.0510  -29.7730 H   0  0  0  0  0  0  0  0  0  0  0  0
  1  2  2  0
  2  3  1  0
  3  4  1  0
  4  5  2  0
  5  6  1  0
  6  7  2  0
  7  8  1  0
  8  9  1  0
  9 10  2  0
  9 11  2  0
  9 12  1  0
 12 13  1  0
 13 14  1  0
 14 15  1  0
 15 16  1  0
  8 17  2  0
  2 18  1  0
 18 19  1  0
 19 20  2  0
 20 21  1  0
 21 22  2  0
 22 23  1  0
 23 24  2  0
 24 25  1  0
 25 26  2  0
 26 27  1  0
 20 28  1  0
 28 29  1  0
 17  4  1  0
 29 18  2  0
 16 12  1  0
 26 21  1  0
  5 30  1  0
  6 31  1  0
  7 32  1  0
 13 33  1  0
 13 34  1  0
 14 35  1  0
 14 36  1  0
 15 37  1  0
 15 38  1  0
 16 39  1  0
 16 40  1  0
 17 41  1  0
 19 42  1  0
 22 43  1  0
 23 44  1  0
 24 45  1  0
 25 46  1  0
 27 47  1  0
M  CHG  2   3  -1  28  -1
M  END
>  <UniqueID>  (26) 
26

>  <SMILES>  (26) 
O=C([N-]c1cccc(S(=O)(=O)N2CCCC2)c1)c1cc(-c2ccccc2O)[n-]n1

>  <Energy>  (26) 
88.35740082272935

>  <Genealogy>  (26) 
O=C([N-]c1cccc(S(=O)(=O)N2CCCC2)c1)c1cc(-c2ccccc2O)[n-]n1 (protonated)
O=C([N-]c1cccc(S(=O)(=O)N2CCCC2)c1)c1cc(-c2ccccc2O)[n-]n1 (3D coordinates assigned)
O=C([N-]c1cccc(S(=O)(=O)N2CCCC2)c1)c1cc(-c2ccccc2O)[n-]n1 (nonaromatic ring conformer: 88.35740082272935 kcal/mol)

>  <smiles>  (26) 
O=C(Nc1cccc(S(=O)(=O)N2CCCC2)c1)c1cc(-c2ccccc2O)[nH]n1

>  <score_type>  (26) 
oracle

>  <origin>  (26) 
adgpu

>  <m_score__min__energy>  (26) 
-13.02

>  <m_primary>  (26) 
energy

$$$$
26:0
     RDKit          3D

 59 63  0  0  0  0  0  0  0  0999 V2000
   -3.5308   16.3768  -34.7767 H   0  0  0  0  0  0  0  0  0  0  0  0
   -3.7150   17.3970  -34.4090 C   0  0  0  0  0  0  0  0  0  0  0  0
   -5.0230   17.8260  -34.1740 C   0  0  0  0  0  0  0  0  0  0  0  0
   -5.8647   17.1381  -34.3424 H   0  0  0  0  0  0  0  0  0  0  0  0
   -5.2670   19.1370  -33.7220 C   0  0  0  0  0  0  0  0  0  0  0  0
   -6.5940   19.6130  -33.4340 N   0  0  0  0  0  0  0  0  0  0  0  0
   -6.9180   20.6990  -32.7920 C   0  0  0  0  0  0  0  0  0  0  0  0
   -5.9660   21.4920  -32.2260 N   0  0  0  0  0  0  0  0  0  0  0  0
   -6.2880   22.6220  -31.5410 C   0  0  0  0  0  0  0  0  0  0  0  0
   -5.2020   23.4250  -30.9490 C   0  0  0  0  0  0  0  0  0  0  0  0
   -5.0530   24.7430  -31.1860 N   0  0  0  0  0  0  0  0  0  0  0  0
   -3.9860   25.1460  -30.5120 N   0  0  0  0  0  0  0  0  0  0  0  0
   -3.4570   24.1410  -29.8360 N   0  0  0  0  0  0  0  0  0  0  0  0
   -2.2830   24.2720  -29.0230 C   0  0  0  0  0  0  0  0  0  0  0  0
   -1.0720   23.6890  -29.4200 C   0  0  0  0  0  0  0  0  0  0  0  0
   -1.0142   23.1409  -30.3719 H   0  0  0  0  0  0  0  0  0  0  0  0
    0.0620   23.8010  -28.6120 C   0  0  0  0  0  0  0  0  0  0  0  0
    1.0108   23.3488  -28.9366 H   0  0  0  0  0  0  0  0  0  0  0  0
   -0.0010   24.4870  -27.3880 C   0  0  0  0  0  0  0  0  0  0  0  0
    1.2270   24.5960  -26.5260 C   0  0  0  0  0  0  0  0  0  0  0  0
    0.9344   24.5700  -25.4660 H   0  0  0  0  0  0  0  0  0  0  0  0
    1.9017   23.7542  -26.7409 H   0  0  0  0  0  0  0  0  0  0  0  0
    1.7429   25.5435  -26.7409 H   0  0  0  0  0  0  0  0  0  0  0  0
   -1.2270   25.0450  -26.9730 C   0  0  0  0  0  0  0  0  0  0  0  0
   -1.3800   25.8870  -25.4350 Cl  0  0  0  0  0  0  0  0  0  0  0  0
   -2.3590   24.9290  -27.7890 C   0  0  0  0  0  0  0  0  0  0  0  0
   -3.3163   25.3578  -27.4576 H   0  0  0  0  0  0  0  0  0  0  0  0
   -4.1970   23.0370  -30.0730 C   0  0  0  0  0  0  0  0  0  0  0  0
   -3.9010   21.6530  -29.5680 C   0  0  0  0  0  0  0  0  0  0  0  0
   -3.9017   21.6561  -28.4680 H   0  0  0  0  0  0  0  0  0  0  0  0
   -4.6706   20.9570  -29.9332 H   0  0  0  0  0  0  0  0  0  0  0  0
   -2.9140   21.3327  -29.9332 H   0  0  0  0  0  0  0  0  0  0  0  0
   -7.6390   22.9540  -31.3770 C   0  0  0  0  0  0  0  0  0  0  0  0
   -7.9320   23.8481  -30.8071 H   0  0  0  0  0  0  0  0  0  0  0  0
   -8.6050   22.1280  -31.9510 C   0  0  0  0  0  0  0  0  0  0  0  0
   -9.6718   22.3721  -31.8398 H   0  0  0  0  0  0  0  0  0  0  0  0
   -8.2320   21.0230  -32.6470 N   0  0  0  0  0  0  0  0  0  0  0  0
   -8.9720   20.4130  -33.0650 H   0  0  0  0  0  0  0  0  0  0  0  0
   -4.1820   19.9840  -33.4620 C   0  0  0  0  0  0  0  0  0  0  0  0
   -4.3626   20.9973  -33.0739 H   0  0  0  0  0  0  0  0  0  0  0  0
   -2.8670   19.5520  -33.6920 C   0  0  0  0  0  0  0  0  0  0  0  0
   -1.5080   20.6270  -33.3560 S   0  0  0  0  0  0  0  0  0  0  0  0
   -0.9160   21.0960  -34.6570 O   0  0  0  0  0  0  0  0  0  0  0  0
   -2.0060   21.8360  -32.6130 O   0  0  0  0  0  0  0  0  0  0  0  0
   -0.2680   19.8390  -32.4010 N   0  0  0  0  0  0  0  0  0  0  0  0
   -0.8440   18.8280  -31.5040 C   0  0  0  0  0  0  0  0  0  0  0  0
   -1.8881   18.6323  -31.7896 H   0  0  0  0  0  0  0  0  0  0  0  0
   -0.2704   17.8923  -31.5782 H   0  0  0  0  0  0  0  0  0  0  0  0
   -0.7940   19.3540  -30.0740 C   0  0  0  0  0  0  0  0  0  0  0  0
   -1.8080   19.4103  -29.6513 H   0  0  0  0  0  0  0  0  0  0  0  0
   -0.2059   18.6928  -29.4205 H   0  0  0  0  0  0  0  0  0  0  0  0
   -0.1830   20.7350  -30.1620 C   0  0  0  0  0  0  0  0  0  0  0  0
   -0.9563   21.5083  -30.0433 H   0  0  0  0  0  0  0  0  0  0  0  0
    0.5605   20.9093  -29.3703 H   0  0  0  0  0  0  0  0  0  0  0  0
    0.4320   20.8040  -31.5470 C   0  0  0  0  0  0  0  0  0  0  0  0
    0.3164   21.8182  -31.9569 H   0  0  0  0  0  0  0  0  0  0  0  0
    1.5051   20.5667  -31.5014 H   0  0  0  0  0  0  0  0  0  0  0  0
   -2.6400   18.2580  -34.1790 C   0  0  0  0  0  0  0  0  0  0  0  0
   -1.6129   17.9197  -34.3806 H   0  0  0  0  0  0  0  0  0  0  0  0
  1  2  1  0
  2  3  2  0
  3  4  1  0
  3  5  1  0
  5  6  1  0
  6  7  2  0
  7  8  1  0
  8  9  2  0
  9 10  1  0
 10 11  1  0
 11 12  2  0
 12 13  1  0
 13 14  1  0
 14 15  2  0
 15 16  1  0
 15 17  1  0
 17 18  1  0
 17 19  2  0
 19 20  1  0
 20 21  1  0
 20 22  1  0
 20 23  1  0
 19 24  1  0
 24 25  1  0
 24 26  2  0
 26 27  1  0
 13 28  1  0
 28 29  1  0
 29 30  1  0
 29 31  1  0
 29 32  1  0
  9 33  1  0
 33 34  1  0
 33 35  2  0
 35 36  1  0
 35 37  1  0
 37 38  1  0
  5 39  2  0
 39 40  1  0
 39 41  1  0
 41 42  1  0
 42 43  2  0
 42 44  2  0
 42 45  1  0
 45 46  1  0
 46 47  1  0
 46 48  1  0
 46 49  1  0
 49 50  1  0
 49 51  1  0
 49 52  1  0
 52 53  1  0
 52 54  1  0
 52 55  1  0
 55 56  1  0
 55 57  1  0
 41 58  2  0
 58 59  1  0
 58  2  1  0
 37  7  1  0
 55 45  1  0
 28 10  2  0
 26 14  1  0
M  END
>  <UniqueID>  (27) 
27

>  <SMILES>  (27) 
Cc1ccc(-n2nnc(-c3cc[nH]/c(=N/c4cccc(S(=O)(=O)N5CCCC5)c4)n3)c2C)cc1Cl

>  <Energy>  (27) 
116.45107750000972

>  <Genealogy>  (27) 
Cc1ccc(-n2nnc(-c3cc[nH]/c(=N/c4cccc(S(=O)(=O)N5CCCC5)c4)n3)c2C)cc1Cl (cis-trans isomerization)
Cc1ccc(-n2nnc(-c3cc[nH]/c(=N/c4cccc(S(=O)(=O)N5CCCC5)c4)n3)c2C)cc1Cl (3D coordinates assigned)
Cc1ccc(-n2nnc(-c3cc[nH]/c(=N/c4cccc(S(=O)(=O)N5CCCC5)c4)n3)c2C)cc1Cl (nonaromatic ring conformer: 116.45107750000972 kcal/mol)

>  <smiles>  (27) 
Cc1ccc(-n2nnc(-c3cc[nH]c(=Nc4cccc(S(=O)(=O)N5CCCC5)c4)n3)c2C)cc1Cl

>  <score_type>  (27) 
oracle

>  <origin>  (27) 
adgpu

>  <m_score__min__energy>  (27) 
-11.19

>  <m_primary>  (27) 
energy

$$$$
27:0
     RDKit          3D

 39 42  0  0  0  0  0  0  0  0999 V2000
   -1.1900   17.8160  -26.6940 O   0  0  0  0  0  0  0  0  0  0  0  0
   -1.2430   18.9280  -27.2830 C   0  0  0  0  0  0  0  0  0  0  0  0
   -0.5050   19.2100  -28.3870 N   0  0  0  0  0  0  0  0  0  0  0  0
   -0.8920   20.4710  -28.6520 C   0  0  0  0  0  0  0  0  0  0  0  0
   -0.4790   21.2900  -29.7000 C   0  0  0  0  0  0  0  0  0  0  0  0
   -1.0390   22.5770  -29.7810 C   0  0  0  0  0  0  0  0  0  0  0  0
   -1.9880   23.0140  -28.8250 C   0  0  0  0  0  0  0  0  0  0  0  0
   -2.6870   24.6230  -28.9680 S   0  0  0  0  0  0  0  0  0  0  0  0
   -1.5760   25.6360  -28.9670 O   0  0  0  0  0  0  0  0  0  0  0  0
   -3.6100   24.9130  -27.8160 O   0  0  0  0  0  0  0  0  0  0  0  0
   -3.5720   24.7500  -30.4540 N   0  0  0  0  0  0  0  0  0  0  0  0
   -4.8100   24.0830  -30.7430 C   0  0  0  0  0  0  0  0  0  0  0  0
   -4.8740   22.9800  -31.6120 C   0  0  0  0  0  0  0  0  0  0  0  0
   -6.1010   22.3520  -31.8740 C   0  0  0  0  0  0  0  0  0  0  0  0
   -7.2760   22.8230  -31.2660 C   0  0  0  0  0  0  0  0  0  0  0  0
   -7.2170   23.9440  -30.4250 C   0  0  0  0  0  0  0  0  0  0  0  0
   -5.9900   24.5670  -30.1580 C   0  0  0  0  0  0  0  0  0  0  0  0
   -5.9400   25.6810  -29.3190 O   0  0  0  0  0  0  0  0  0  0  0  0
   -8.6120   22.2080  -31.6110 C   0  0  0  0  0  0  0  0  0  0  0  0
   -8.5560   20.7150  -32.0270 C   0  0  0  0  0  0  0  0  0  0  0  0
   -7.1420   20.1410  -32.2320 C   0  0  0  0  0  0  0  0  0  0  0  0
   -6.1820   21.1790  -32.8090 C   0  0  0  0  0  0  0  0  0  0  0  0
   -2.3820   22.1520  -27.7760 C   0  0  0  0  0  0  0  0  0  0  0  0
   -1.8100   20.8850  -27.7340 C   0  0  0  0  0  0  0  0  0  0  0  0
   -2.0250   19.9170  -26.8850 O   0  0  0  0  0  0  0  0  0  0  0  0
    0.2589   20.9423  -30.4380 H   0  0  0  0  0  0  0  0  0  0  0  0
   -0.7368   23.2517  -30.5956 H   0  0  0  0  0  0  0  0  0  0  0  0
   -3.9561   22.6068  -32.0897 H   0  0  0  0  0  0  0  0  0  0  0  0
   -8.1393   24.3367  -29.9722 H   0  0  0  0  0  0  0  0  0  0  0  0
   -5.0600   26.0420  -28.9680 H   0  0  0  0  0  0  0  0  0  0  0  0
   -9.2649   22.2929  -30.7298 H   0  0  0  0  0  0  0  0  0  0  0  0
   -8.9879   22.7581  -32.4863 H   0  0  0  0  0  0  0  0  0  0  0  0
   -9.0517   20.1248  -31.2422 H   0  0  0  0  0  0  0  0  0  0  0  0
   -9.0539   20.6534  -33.0060 H   0  0  0  0  0  0  0  0  0  0  0  0
   -6.7535   19.7985  -31.2616 H   0  0  0  0  0  0  0  0  0  0  0  0
   -7.2133   19.3088  -32.9478 H   0  0  0  0  0  0  0  0  0  0  0  0
   -5.1837   20.7320  -32.9255 H   0  0  0  0  0  0  0  0  0  0  0  0
   -6.5474   21.5142  -33.7909 H   0  0  0  0  0  0  0  0  0  0  0  0
   -3.1145   22.4719  -27.0203 H   0  0  0  0  0  0  0  0  0  0  0  0
  1  2  2  0
  2  3  1  0
  3  4  1  0
  4  5  2  0
  5  6  1  0
  6  7  2  0
  7  8  1  0
  8  9  2  0
  8 10  2  0
  8 11  1  0
 11 12  1  0
 12 13  2  0
 13 14  1  0
 14 15  2  0
 15 16  1  0
 16 17  2  0
 17 18  1  0
 15 19  1  0
 19 20  1  0
 20 21  1  0
 21 22  1  0
  7 23  1  0
 23 24  2  0
 24 25  1  0
 25  2  1  0
 24  4  1  0
 17 12  1  0
 22 14  1  0
  5 26  1  0
  6 27  1  0
 13 28  1  0
 16 29  1  0
 18 30  1  0
 19 31  1  0
 19 32  1  0
 20 33  1  0
 20 34  1  0
 21 35  1  0
 21 36  1  0
 22 37  1  0
 22 38  1  0
 23 39  1  0
M  CHG  2   3  -1  11  -1
M  END
>  <UniqueID>  (28) 
28

>  <SMILES>  (28) 
O=c1[n-]c2ccc(S(=O)(=O)[N-]c3cc4c(cc3O)CCCC4)cc2o1

>  <Energy>  (28) 
87.67413211917507

>  <Genealogy>  (28) 
O=c1[n-]c2ccc(S(=O)(=O)[N-]c3cc4c(cc3O)CCCC4)cc2o1 (protonated)
O=c1[n-]c2ccc(S(=O)(=O)[N-]c3cc4c(cc3O)CCCC4)cc2o1 (3D coordinates assigned)
O=c1[n-]c2ccc(S(=O)(=O)[N-]c3cc4c(cc3O)CCCC4)cc2o1 (nonaromatic ring conformer: 87.67413211917507 kcal/mol)

>  <smiles>  (28) 
O=c1[nH]c2ccc(S(=O)(=O)Nc3cc4c(cc3O)CCCC4)cc2o1

>  <score_type>  (28) 
oracle

>  <origin>  (28) 
adgpu

>  <m_score__min__energy>  (28) 
-11.27

>  <m_primary>  (28) 
energy

$$$$
28:0
     RDKit          3D

 50 52  0  0  0  0  0  0  0  0999 V2000
   -7.1980   24.8780  -29.6720 O   0  0  0  0  0  0  0  0  0  0  0  0
   -6.2030   24.7400  -30.4340 C   0  0  0  0  0  0  0  0  0  0  0  0
   -5.2030   25.8510  -30.5440 C   0  0  0  0  0  0  0  0  0  0  0  0
   -3.8760   25.3250  -30.5760 O   0  0  0  0  0  0  0  0  0  0  0  0
   -3.4300   24.2090  -29.8490 C   0  0  0  0  0  0  0  0  0  0  0  0
   -2.8510   23.0800  -30.4640 C   0  0  0  0  0  0  0  0  0  0  0  0
   -2.4160   22.0020  -29.6880 C   0  0  0  0  0  0  0  0  0  0  0  0
   -2.5590   22.0340  -28.2980 C   0  0  0  0  0  0  0  0  0  0  0  0
   -3.1390   23.1460  -27.6820 C   0  0  0  0  0  0  0  0  0  0  0  0
   -3.5740   24.2270  -28.4550 C   0  0  0  0  0  0  0  0  0  0  0  0
   -6.0070   23.5200  -31.1630 N   0  0  0  0  0  0  0  0  0  0  0  0
   -7.0640   22.6010  -31.4910 C   0  0  0  0  0  0  0  0  0  0  0  0
   -8.3690   23.0430  -31.7690 C   0  0  0  0  0  0  0  0  0  0  0  0
   -9.3360   22.1500  -32.1030 N   0  0  0  0  0  0  0  0  0  0  0  0
   -9.0810   20.8180  -32.1980 C   0  0  0  0  0  0  0  0  0  0  0  0
   -7.7870   20.3310  -31.9720 C   0  0  0  0  0  0  0  0  0  0  0  0
   -7.4430   18.6050  -32.1310 S   0  0  0  0  0  0  0  0  0  0  0  0
   -8.7160   17.8480  -31.8830 O   0  0  0  0  0  0  0  0  0  0  0  0
   -6.4560   18.2050  -31.0690 O   0  0  0  0  0  0  0  0  0  0  0  0
   -6.8340   18.1600  -33.7150 N   0  0  0  0  0  0  0  0  0  0  0  0
   -6.4970   16.7350  -33.8950 C   0  0  0  0  0  0  0  0  0  0  0  0
   -5.0720   16.3830  -33.4370 C   0  0  0  0  0  0  0  0  0  0  0  0
   -3.9770   17.2320  -34.1000 C   0  0  0  0  0  0  0  0  0  0  0  0
   -3.6410   18.5520  -33.3850 C   0  0  0  0  0  0  0  0  0  0  0  0
   -4.7590   19.6020  -33.4600 C   0  0  0  0  0  0  0  0  0  0  0  0
   -5.9350   19.1440  -34.3450 C   0  0  0  0  0  0  0  0  0  0  0  0
   -6.7820   21.2340  -31.6050 C   0  0  0  0  0  0  0  0  0  0  0  0
   -5.3907   26.4174  -31.4681 H   0  0  0  0  0  0  0  0  0  0  0  0
   -5.3045   26.5102  -29.6693 H   0  0  0  0  0  0  0  0  0  0  0  0
   -2.7413   23.0475  -31.5580 H   0  0  0  0  0  0  0  0  0  0  0  0
   -1.9599   21.1261  -30.1725 H   0  0  0  0  0  0  0  0  0  0  0  0
   -2.2152   21.1845  -27.6895 H   0  0  0  0  0  0  0  0  0  0  0  0
   -3.2535   23.1711  -26.5883 H   0  0  0  0  0  0  0  0  0  0  0  0
   -4.0329   25.0984  -27.9651 H   0  0  0  0  0  0  0  0  0  0  0  0
   -5.0340   23.2740  -31.4540 H   0  0  0  0  0  0  0  0  0  0  0  0
   -8.6077   24.1155  -31.7158 H   0  0  0  0  0  0  0  0  0  0  0  0
   -9.8928   20.1209  -32.4530 H   0  0  0  0  0  0  0  0  0  0  0  0
   -7.2095   16.1318  -33.3131 H   0  0  0  0  0  0  0  0  0  0  0  0
   -6.5545   16.5208  -34.9724 H   0  0  0  0  0  0  0  0  0  0  0  0
   -5.0121   16.5294  -32.3484 H   0  0  0  0  0  0  0  0  0  0  0  0
   -4.8901   15.3395  -33.7337 H   0  0  0  0  0  0  0  0  0  0  0  0
   -3.0593   16.6272  -34.1446 H   0  0  0  0  0  0  0  0  0  0  0  0
   -4.3694   17.5142  -35.0881 H   0  0  0  0  0  0  0  0  0  0  0  0
   -3.4433   18.3315  -32.3256 H   0  0  0  0  0  0  0  0  0  0  0  0
   -2.7666   18.9793  -33.8976 H   0  0  0  0  0  0  0  0  0  0  0  0
   -5.1344   19.7918  -32.4436 H   0  0  0  0  0  0  0  0  0  0  0  0
   -4.3353   20.5124  -33.9090 H   0  0  0  0  0  0  0  0  0  0  0  0
   -6.5296   20.0306  -34.6103 H   0  0  0  0  0  0  0  0  0  0  0  0
   -5.4902   18.6438  -35.2179 H   0  0  0  0  0  0  0  0  0  0  0  0
   -5.7644   20.8674  -31.4049 H   0  0  0  0  0  0  0  0  0  0  0  0
  1  2  2  0
  2  3  1  0
  3  4  1  0
  4  5  1  0
  5  6  2  0
  6  7  1  0
  7  8  2  0
  8  9  1  0
  9 10  2  0
  2 11  1  0
 11 12  1  0
 12 13  2  0
 13 14  1  0
 14 15  2  0
 15 16  1  0
 16 17  1  0
 17 18  2  0
 17 19  2  0
 17 20  1  0
 20 21  1  0
 21 22  1  0
 22 23  1  0
 23 24  1  0
 24 25  1  0
 25 26  1  0
 16 27  2  0
 10  5  1  0
 27 12  1  0
 26 20  1  0
  3 28  1  0
  3 29  1  0
  6 30  1  0
  7 31  1  0
  8 32  1  0
  9 33  1  0
 10 34  1  0
 11 35  1  0
 13 36  1  0
 15 37  1  0
 21 38  1  0
 21 39  1  0
 22 40  1  0
 22 41  1  0
 23 42  1  0
 23 43  1  0
 24 44  1  0
 24 45  1  0
 25 46  1  0
 25 47  1  0
 26 48  1  0
 26 49  1  0
 27 50  1  0
M  END
>  <UniqueID>  (29) 
29

>  <SMILES>  (29) 
O=C(COc1ccccc1)Nc1cncc(S(=O)(=O)N2CCCCCC2)c1

>  <Energy>  (29) 
64.29007574100058

>  <Genealogy>  (29) 
O=C(COc1ccccc1)Nc1cncc(S(=O)(=O)N2CCCCCC2)c1 (3D coordinates assigned)
O=C(COc1ccccc1)Nc1cncc(S(=O)(=O)N2CCCCCC2)c1 (nonaromatic ring conformer: 64.29007574100058 kcal/mol)

>  <smiles>  (29) 
O=C(COc1ccccc1)Nc1cncc(S(=O)(=O)N2CCCCCC2)c1

>  <score_type>  (29) 
oracle

>  <origin>  (29) 
adgpu

>  <m_score__min__energy>  (29) 
-7.6399999999999997

>  <m_primary>  (29) 
energy

$$$$
29:0
     RDKit          3D

 42 44  0  0  0  0  0  0  0  0999 V2000
   -0.5880   23.2930  -27.2130 C   0  0  0  0  0  0  0  0  0  0  0  0
   -0.7440   23.1290  -28.6930 C   0  0  0  0  0  0  0  0  0  0  0  0
    0.2020   22.6140  -29.3480 O   0  0  0  0  0  0  0  0  0  0  0  0
   -1.9720   23.5720  -29.4010 C   0  0  0  0  0  0  0  0  0  0  0  0
   -2.3940   24.9140  -29.3590 C   0  0  0  0  0  0  0  0  0  0  0  0
   -1.6540   25.8730  -28.6760 O   0  0  0  0  0  0  0  0  0  0  0  0
   -3.4940   25.2950  -29.9940 O   0  0  0  0  0  0  0  0  0  0  0  0
   -4.2550   24.4640  -30.6950 C   0  0  0  0  0  0  0  0  0  0  0  0
   -5.2600   24.9240  -31.2990 O   0  0  0  0  0  0  0  0  0  0  0  0
   -3.9260   23.0980  -30.7830 C   0  0  0  0  0  0  0  0  0  0  0  0
   -4.7480   22.1650  -31.6000 C   0  0  0  0  0  0  0  0  0  0  0  0
   -4.1710   21.3290  -32.3440 O   0  0  0  0  0  0  0  0  0  0  0  0
   -6.1810   22.2300  -31.6330 N   0  0  0  0  0  0  0  0  0  0  0  0
   -7.0950   21.1440  -31.8500 C   0  0  0  0  0  0  0  0  0  0  0  0
   -8.4630   21.4250  -31.9610 C   0  0  0  0  0  0  0  0  0  0  0  0
   -9.3800   20.3950  -32.1920 C   0  0  0  0  0  0  0  0  0  0  0  0
   -8.9330   19.0770  -32.3280 C   0  0  0  0  0  0  0  0  0  0  0  0
   -7.5680   18.7910  -32.2410 C   0  0  0  0  0  0  0  0  0  0  0  0
   -6.6510   19.8200  -32.0100 C   0  0  0  0  0  0  0  0  0  0  0  0
   -2.7580   22.6530  -30.1250 C   0  0  0  0  0  0  0  0  0  0  0  0
   -2.3850   21.2670  -30.1670 N   0  0  0  0  0  0  0  0  0  0  0  0
   -2.1240   20.4930  -28.9830 C   0  0  0  0  0  0  0  0  0  0  0  0
   -3.1090   20.4270  -27.9840 C   0  0  0  0  0  0  0  0  0  0  0  0
   -2.8840   19.7010  -26.8130 C   0  0  0  0  0  0  0  0  0  0  0  0
   -1.6780   19.0210  -26.6310 C   0  0  0  0  0  0  0  0  0  0  0  0
   -0.6990   19.0580  -27.6260 C   0  0  0  0  0  0  0  0  0  0  0  0
   -0.9180   19.7810  -28.8090 C   0  0  0  0  0  0  0  0  0  0  0  0
    0.0530   19.7740  -29.8090 O   0  0  0  0  0  0  0  0  0  0  0  0
   -1.2564   22.5904  -26.6938 H   0  0  0  0  0  0  0  0  0  0  0  0
    0.4542   23.0855  -26.9289 H   0  0  0  0  0  0  0  0  0  0  0  0
   -0.8473   24.3236  -26.9289 H   0  0  0  0  0  0  0  0  0  0  0  0
   -8.8178   22.4619  -31.8659 H   0  0  0  0  0  0  0  0  0  0  0  0
  -10.4538   20.6217  -32.2668 H   0  0  0  0  0  0  0  0  0  0  0  0
   -9.6553   18.2661  -32.5033 H   0  0  0  0  0  0  0  0  0  0  0  0
   -7.2150   17.7554  -32.3544 H   0  0  0  0  0  0  0  0  0  0  0  0
   -5.5763   19.5926  -31.9531 H   0  0  0  0  0  0  0  0  0  0  0  0
   -2.5350   20.7650  -31.0720 H   0  0  0  0  0  0  0  0  0  0  0  0
   -4.0655   20.9516  -28.1254 H   0  0  0  0  0  0  0  0  0  0  0  0
   -3.6581   19.6646  -26.0323 H   0  0  0  0  0  0  0  0  0  0  0  0
   -1.4993   18.4563  -25.7041 H   0  0  0  0  0  0  0  0  0  0  0  0
    0.2484   18.5179  -27.4820 H   0  0  0  0  0  0  0  0  0  0  0  0
    0.5010   20.6270  -30.1230 H   0  0  0  0  0  0  0  0  0  0  0  0
  1  2  1  0
  2  3  2  0
  2  4  1  0
  4  5  2  0
  5  6  1  0
  5  7  1  0
  7  8  1  0
  8  9  2  0
  8 10  1  0
 10 11  1  0
 11 12  2  0
 11 13  1  0
 13 14  1  0
 14 15  2  0
 15 16  1  0
 16 17  2  0
 17 18  1  0
 18 19  2  0
 10 20  2  0
 20 21  1  0
 21 22  1  0
 22 23  2  0
 23 24  1  0
 24 25  2  0
 25 26  1  0
 26 27  2  0
 27 28  1  0
 20  4  1  0
 27 22  1  0
 19 14  1  0
  1 29  1  0
  1 30  1  0
  1 31  1  0
 15 32  1  0
 16 33  1  0
 17 34  1  0
 18 35  1  0
 19 36  1  0
 21 37  1  0
 23 38  1  0
 24 39  1  0
 25 40  1  0
 26 41  1  0
 28 42  1  0
M  CHG  2   6  -1  13  -1
M  END
>  <UniqueID>  (30) 
30

>  <SMILES>  (30) 
CC(=O)c1c([O-])oc(=O)c(C(=O)[N-]c2ccccc2)c1Nc1ccccc1O

>  <Energy>  (30) 
69.00346293045435

>  <Genealogy>  (30) 
CC(=O)c1c([O-])oc(=O)c(C(=O)[N-]c2ccccc2)c1Nc1ccccc1O (protonated)
CC(=O)c1c([O-])oc(=O)c(C(=O)[N-]c2ccccc2)c1Nc1ccccc1O (3D coordinates assigned)
CC(=O)c1c([O-])oc(=O)c(C(=O)[N-]c2ccccc2)c1Nc1ccccc1O (optimized conformer: 69.00346293045435 kcal/mol)

>  <smiles>  (30) 
CC(=O)c1c(O)oc(=O)c(C(=O)Nc2ccccc2)c1Nc1ccccc1O

>  <score_type>  (30) 
oracle

>  <origin>  (30) 
adgpu

>  <m_score__min__energy>  (30) 
-10.68

>  <m_primary>  (30) 
energy

$$$$
30:0
     RDKit          3D

 41 44  0  0  0  0  0  0  0  0999 V2000
   -4.7980   21.3560  -33.1300 C   0  0  0  0  0  0  0  0  0  0  0  0
   -6.0270   21.6240  -32.3030 C   0  0  0  0  0  0  0  0  0  0  0  0
   -6.2170   22.8340  -31.5740 C   0  0  0  0  0  0  0  0  0  0  0  0
   -5.2650   23.9030  -31.6190 N   0  0  0  0  0  0  0  0  0  0  0  0
   -3.9280   23.8000  -31.1210 C   0  0  0  0  0  0  0  0  0  0  0  0
   -3.1830   22.8780  -31.5470 O   0  0  0  0  0  0  0  0  0  0  0  0
   -3.4400   24.7450  -30.1610 N   0  0  0  0  0  0  0  0  0  0  0  0
   -2.7210   24.4210  -28.9650 C   0  0  0  0  0  0  0  0  0  0  0  0
   -3.0560   23.2470  -28.2870 C   0  0  0  0  0  0  0  0  0  0  0  0
   -2.3720   22.8800  -27.1310 C   0  0  0  0  0  0  0  0  0  0  0  0
   -1.3370   23.6770  -26.6340 C   0  0  0  0  0  0  0  0  0  0  0  0
   -0.5030   23.1140  -25.1900 Cl  0  0  0  0  0  0  0  0  0  0  0  0
   -0.9730   24.8670  -27.3090 C   0  0  0  0  0  0  0  0  0  0  0  0
    0.3540   25.8860  -26.7130 S   0  0  0  0  0  0  0  0  0  0  0  0
    1.6770   25.2160  -26.9630 O   0  0  0  0  0  0  0  0  0  0  0  0
    0.3650   27.2010  -27.4420 O   0  0  0  0  0  0  0  0  0  0  0  0
    0.1540   26.1120  -24.9470 C   0  0  0  0  0  0  0  0  0  0  0  0
   -1.2490   26.4610  -24.4770 C   0  0  0  0  0  0  0  0  0  0  0  0
   -0.1770   27.5370  -24.5390 C   0  0  0  0  0  0  0  0  0  0  0  0
   -1.6480   25.2090  -28.5020 C   0  0  0  0  0  0  0  0  0  0  0  0
   -1.2270   26.3010  -29.2530 O   0  0  0  0  0  0  0  0  0  0  0  0
   -7.3590   22.9910  -30.7490 C   0  0  0  0  0  0  0  0  0  0  0  0
   -8.3450   21.9930  -30.6840 C   0  0  0  0  0  0  0  0  0  0  0  0
   -8.1570   20.8460  -31.4450 C   0  0  0  0  0  0  0  0  0  0  0  0
   -8.9680   19.7800  -31.5360 N   0  0  0  0  0  0  0  0  0  0  0  0
   -8.3910   18.9170  -32.3670 N   0  0  0  0  0  0  0  0  0  0  0  0
   -7.2170   19.4310  -32.8010 C   0  0  0  0  0  0  0  0  0  0  0  0
   -7.0480   20.6690  -32.2220 C   0  0  0  0  0  0  0  0  0  0  0  0
   -3.9420   21.1693  -32.4649 H   0  0  0  0  0  0  0  0  0  0  0  0
   -4.9683   20.4739  -33.7647 H   0  0  0  0  0  0  0  0  0  0  0  0
   -4.5856   22.2289  -33.7647 H   0  0  0  0  0  0  0  0  0  0  0  0
   -3.8657   22.6078  -28.6688 H   0  0  0  0  0  0  0  0  0  0  0  0
   -2.6486   21.9547  -26.6043 H   0  0  0  0  0  0  0  0  0  0  0  0
    0.8988   25.3582  -24.6518 H   0  0  0  0  0  0  0  0  0  0  0  0
   -2.0826   26.4729  -25.1946 H   0  0  0  0  0  0  0  0  0  0  0  0
   -1.9257   26.0807  -23.6976 H   0  0  0  0  0  0  0  0  0  0  0  0
   -0.2351   28.3279  -25.3013 H   0  0  0  0  0  0  0  0  0  0  0  0
    0.2432   28.2583  -23.8226 H   0  0  0  0  0  0  0  0  0  0  0  0
   -7.4745   23.9073  -30.1514 H   0  0  0  0  0  0  0  0  0  0  0  0
   -9.2366   22.1154  -30.0515 H   0  0  0  0  0  0  0  0  0  0  0  0
   -6.5179   18.9438  -33.4966 H   0  0  0  0  0  0  0  0  0  0  0  0
  1  2  1  0
  2  3  2  0
  3  4  1  0
  4  5  1  0
  5  6  2  0
  5  7  1  0
  7  8  1  0
  8  9  2  0
  9 10  1  0
 10 11  2  0
 11 12  1  0
 11 13  1  0
 13 14  1  0
 14 15  2  0
 14 16  2  0
 14 17  1  0
 17 18  1  0
 18 19  1  0
 13 20  2  0
 20 21  1  0
  3 22  1  0
 22 23  2  0
 23 24  1  0
 24 25  1  0
 25 26  1  0
 26 27  2  0
 27 28  1  0
 28  2  1  0
 20  8  1  0
 28 24  2  0
 19 17  1  0
  1 29  1  0
  1 30  1  0
  1 31  1  0
  9 32  1  0
 10 33  1  0
 17 34  1  0
 18 35  1  0
 18 36  1  0
 19 37  1  0
 19 38  1  0
 22 39  1  0
 23 40  1  0
 27 41  1  0
M  CHG  4   4  -1   7  -1  21  -1  25  -1
M  END
>  <UniqueID>  (31) 
31

>  <SMILES>  (31) 
Cc1c([N-]C(=O)[N-]c2ccc(Cl)c(S(=O)(=O)C3CC3)c2[O-])ccc2[n-]ncc12

>  <Energy>  (31) 
360.3495519308936

>  <Genealogy>  (31) 
Cc1c([N-]C(=O)[N-]c2ccc(Cl)c(S(=O)(=O)C3CC3)c2[O-])ccc2[n-]ncc12 (protonated)
Cc1c([N-]C(=O)[N-]c2ccc(Cl)c(S(=O)(=O)C3CC3)c2[O-])ccc2[n-]ncc12 (3D coordinates assigned)
Cc1c([N-]C(=O)[N-]c2ccc(Cl)c(S(=O)(=O)C3CC3)c2[O-])ccc2[n-]ncc12 (nonaromatic ring conformer: 360.3495519308936 kcal/mol)

>  <smiles>  (31) 
Cc1c(NC(=O)Nc2ccc(Cl)c(S(=O)(=O)C3CC3)c2O)ccc2[nH]ncc12

>  <score_type>  (31) 
oracle

>  <origin>  (31) 
adgpu

>  <m_score__min__energy>  (31) 
-15.19

>  <m_primary>  (31) 
energy

$$$$
31:0
     RDKit          3D

 59 62  0  0  0  0  0  0  0  0999 V2000
   -1.6240   26.1400  -28.1650 O   0  0  0  0  0  0  0  0  0  0  0  0
   -2.1650   25.0460  -28.4790 C   0  0  0  0  0  0  0  0  0  0  0  0
   -2.2530   23.9520  -27.4520 C   0  0  0  0  0  0  0  0  0  0  0  0
   -0.9510   23.2950  -27.2980 N   0  0  0  0  0  0  0  0  0  0  0  0
   -0.8360   21.8660  -27.3700 C   0  0  0  0  0  0  0  0  0  0  0  0
    0.1920   21.2760  -28.1220 C   0  0  0  0  0  0  0  0  0  0  0  0
    0.3080   19.8840  -28.1870 C   0  0  0  0  0  0  0  0  0  0  0  0
   -0.6000   19.0720  -27.4990 C   0  0  0  0  0  0  0  0  0  0  0  0
   -0.4770   17.6890  -27.5560 O   0  0  0  0  0  0  0  0  0  0  0  0
   -1.6310   19.6530  -26.7540 C   0  0  0  0  0  0  0  0  0  0  0  0
   -1.7500   21.0450  -26.6870 C   0  0  0  0  0  0  0  0  0  0  0  0
    0.4560   24.2590  -26.9460 S   0  0  0  0  0  0  0  0  0  0  0  0
    0.9640   24.8920  -28.2110 O   0  0  0  0  0  0  0  0  0  0  0  0
    1.5440   23.3940  -26.3720 O   0  0  0  0  0  0  0  0  0  0  0  0
    0.0390   25.4940  -25.7640 C   0  0  0  0  0  0  0  0  0  0  0  0
    0.1940   26.8550  -26.0680 C   0  0  0  0  0  0  0  0  0  0  0  0
   -0.1580   27.8280  -25.1280 C   0  0  0  0  0  0  0  0  0  0  0  0
   -0.6640   27.4470  -23.8810 C   0  0  0  0  0  0  0  0  0  0  0  0
   -0.8380   26.0930  -23.5810 C   0  0  0  0  0  0  0  0  0  0  0  0
   -0.4890   25.1180  -24.5210 C   0  0  0  0  0  0  0  0  0  0  0  0
   -2.7360   24.9070  -29.7850 N   0  0  0  0  0  0  0  0  0  0  0  0
   -3.9740   24.2590  -30.1120 C   0  0  0  0  0  0  0  0  0  0  0  0
   -4.0930   22.8580  -30.1250 C   0  0  0  0  0  0  0  0  0  0  0  0
   -5.2980   22.2580  -30.4990 C   0  0  0  0  0  0  0  0  0  0  0  0
   -6.3920   23.0450  -30.8850 C   0  0  0  0  0  0  0  0  0  0  0  0
   -7.9060   22.2840  -31.3740 S   0  0  0  0  0  0  0  0  0  0  0  0
   -8.4980   21.5620  -30.1950 O   0  0  0  0  0  0  0  0  0  0  0  0
   -8.8750   23.3590  -31.7840 O   0  0  0  0  0  0  0  0  0  0  0  0
   -7.7040   21.1690  -32.7110 N   0  0  0  0  0  0  0  0  0  0  0  0
   -6.3200   20.6680  -32.8300 C   0  0  0  0  0  0  0  0  0  0  0  0
   -6.1380   19.2630  -32.2310 C   0  0  0  0  0  0  0  0  0  0  0  0
   -7.0750   19.0370  -31.2050 O   0  0  0  0  0  0  0  0  0  0  0  0
   -8.3720   18.9360  -31.7580 C   0  0  0  0  0  0  0  0  0  0  0  0
   -8.7170   20.0980  -32.7170 C   0  0  0  0  0  0  0  0  0  0  0  0
   -6.2640   24.4410  -30.9010 C   0  0  0  0  0  0  0  0  0  0  0  0
   -5.0610   25.0430  -30.5170 C   0  0  0  0  0  0  0  0  0  0  0  0
   -2.5586   24.3832  -26.4873 H   0  0  0  0  0  0  0  0  0  0  0  0
   -2.9930   23.2084  -27.7827 H   0  0  0  0  0  0  0  0  0  0  0  0
    0.9093   21.9113  -28.6624 H   0  0  0  0  0  0  0  0  0  0  0  0
    1.1141   19.4270  -28.7797 H   0  0  0  0  0  0  0  0  0  0  0  0
   -2.3497   19.0142  -26.2197 H   0  0  0  0  0  0  0  0  0  0  0  0
   -2.5610   21.4985  -26.0983 H   0  0  0  0  0  0  0  0  0  0  0  0
    0.5931   27.1568  -27.0476 H   0  0  0  0  0  0  0  0  0  0  0  0
   -0.0369   28.8943  -25.3693 H   0  0  0  0  0  0  0  0  0  0  0  0
   -0.9251   28.2132  -23.1361 H   0  0  0  0  0  0  0  0  0  0  0  0
   -1.2494   25.7942  -22.6056 H   0  0  0  0  0  0  0  0  0  0  0  0
   -0.6292   24.0530  -24.2843 H   0  0  0  0  0  0  0  0  0  0  0  0
   -3.2344   22.2323  -29.8397 H   0  0  0  0  0  0  0  0  0  0  0  0
   -5.3888   21.1618  -30.4905 H   0  0  0  0  0  0  0  0  0  0  0  0
   -6.0500   20.6328  -33.8958 H   0  0  0  0  0  0  0  0  0  0  0  0
   -5.6712   21.3539  -32.2656 H   0  0  0  0  0  0  0  0  0  0  0  0
   -6.2795   18.5117  -33.0219 H   0  0  0  0  0  0  0  0  0  0  0  0
   -5.1249   19.1855  -31.8096 H   0  0  0  0  0  0  0  0  0  0  0  0
   -8.4418   17.9902  -32.3154 H   0  0  0  0  0  0  0  0  0  0  0  0
   -9.0874   18.9774  -30.9234 H   0  0  0  0  0  0  0  0  0  0  0  0
   -8.7979   19.6975  -33.7383 H   0  0  0  0  0  0  0  0  0  0  0  0
   -9.6643   20.5387  -32.3730 H   0  0  0  0  0  0  0  0  0  0  0  0
   -7.1128   25.0654  -31.2167 H   0  0  0  0  0  0  0  0  0  0  0  0
   -4.9685   26.1390  -30.5334 H   0  0  0  0  0  0  0  0  0  0  0  0
  1  2  2  0
  2  3  1  0
  3  4  1  0
  4  5  1  0
  5  6  2  0
  6  7  1  0
  7  8  2  0
  8  9  1  0
  8 10  1  0
 10 11  2  0
  4 12  1  0
 12 13  2  0
 12 14  2  0
 12 15  1  0
 15 16  2  0
 16 17  1  0
 17 18  2  0
 18 19  1  0
 19 20  2  0
  2 21  1  0
 21 22  1  0
 22 23  2  0
 23 24  1  0
 24 25  2  0
 25 26  1  0
 26 27  2  0
 26 28  2  0
 26 29  1  0
 29 30  1  0
 30 31  1  0
 31 32  1  0
 32 33  1  0
 33 34  1  0
 25 35  1  0
 35 36  2  0
 11  5  1  0
 20 15  1  0
 36 22  1  0
 34 29  1  0
  3 37  1  0
  3 38  1  0
  6 39  1  0
  7 40  1  0
 10 41  1  0
 11 42  1  0
 16 43  1  0
 17 44  1  0
 18 45  1  0
 19 46  1  0
 20 47  1  0
 23 48  1  0
 24 49  1  0
 30 50  1  0
 30 51  1  0
 31 52  1  0
 31 53  1  0
 33 54  1  0
 33 55  1  0
 34 56  1  0
 34 57  1  0
 35 58  1  0
 36 59  1  0
M  CHG  2   9  -1  21  -1
M  END
>  <UniqueID>  (32) 
32

>  <SMILES>  (32) 
O=C(CN(c1ccc([O-])cc1)S(=O)(=O)c1ccccc1)[N-]c1ccc(S(=O)(=O)N2CCOCC2)cc1

>  <Energy>  (32) 
78.43950204036146

>  <Genealogy>  (32) 
O=C(CN(c1ccc([O-])cc1)S(=O)(=O)c1ccccc1)[N-]c1ccc(S(=O)(=O)N2CCOCC2)cc1 (protonated)
O=C(CN(c1ccc([O-])cc1)S(=O)(=O)c1ccccc1)[N-]c1ccc(S(=O)(=O)N2CCOCC2)cc1 (3D coordinates assigned)
O=C(CN(c1ccc([O-])cc1)S(=O)(=O)c1ccccc1)[N-]c1ccc(S(=O)(=O)N2CCOCC2)cc1 (nonaromatic ring conformer: 78.43950204036146 kcal/mol)

>  <smiles>  (32) 
O=C(CN(c1ccc(O)cc1)S(=O)(=O)c1ccccc1)Nc1ccc(S(=O)(=O)N2CCOCC2)cc1

>  <score_type>  (32) 
oracle

>  <origin>  (32) 
adgpu

>  <m_score__min__energy>  (32) 
-12.369999999999999

>  <m_primary>  (32) 
energy

$$$$
32:0
     RDKit          3D

 78 82  0  0  0  0  0  0  0  0999 V2000
   -9.3040   22.6220  -31.5610 C   0  0  0  0  0  0  0  0  0  0  0  0
   -8.6620   21.3200  -31.9650 C   0  0  0  0  0  0  0  0  0  0  0  0
   -9.4860   20.2580  -32.3700 C   0  0  0  0  0  0  0  0  0  0  0  0
   -8.9390   19.0200  -32.7090 C   0  0  0  0  0  0  0  0  0  0  0  0
   -7.5530   18.8200  -32.6560 C   0  0  0  0  0  0  0  0  0  0  0  0
   -6.9680   17.5500  -32.9900 N   0  0  0  0  0  0  0  0  0  0  0  0
   -6.0150   17.3710  -34.0490 C   0  0  0  0  0  0  0  0  0  0  0  0
   -5.8160   18.2970  -34.8830 O   0  0  0  0  0  0  0  0  0  0  0  0
   -5.3280   16.0720  -34.2280 C   0  0  0  0  0  0  0  0  0  0  0  0
   -6.0180   14.8760  -34.0020 C   0  0  0  0  0  0  0  0  0  0  0  0
   -5.3640   13.6520  -34.1170 C   0  0  0  0  0  0  0  0  0  0  0  0
   -4.0070   13.5860  -34.4810 C   0  0  0  0  0  0  0  0  0  0  0  0
   -3.3560   12.2190  -34.5600 C   0  0  0  0  0  0  0  0  0  0  0  0
   -2.7930   11.8210  -33.2530 N   0  0  0  0  0  0  0  0  0  0  0  0
   -1.3150   11.7420  -33.3290 C   0  0  0  0  0  0  0  0  0  0  0  0
   -0.6840   11.7450  -31.9300 C   0  0  0  0  0  0  0  0  0  0  0  0
   -1.0080   12.9750  -31.1680 N   0  0  0  0  0  0  0  0  0  0  0  0
    0.1340   13.9030  -31.1380 C   0  0  0  0  0  0  0  0  0  0  0  0
   -2.2230   13.6710  -31.6490 C   0  0  0  0  0  0  0  0  0  0  0  0
   -3.2820   12.6710  -32.1350 C   0  0  0  0  0  0  0  0  0  0  0  0
   -3.2980   14.7940  -34.7470 C   0  0  0  0  0  0  0  0  0  0  0  0
   -1.8290   14.7970  -35.1420 C   0  0  0  0  0  0  0  0  0  0  0  0
   -1.5270   15.9650  -35.8150 F   0  0  0  0  0  0  0  0  0  0  0  0
   -1.0310   14.6950  -34.0190 F   0  0  0  0  0  0  0  0  0  0  0  0
   -1.5160   13.7350  -35.9720 F   0  0  0  0  0  0  0  0  0  0  0  0
   -3.9770   16.0240  -34.6050 C   0  0  0  0  0  0  0  0  0  0  0  0
   -6.7190   19.8890  -32.3060 C   0  0  0  0  0  0  0  0  0  0  0  0
   -7.2540   21.1420  -31.9610 C   0  0  0  0  0  0  0  0  0  0  0  0
   -6.3210   22.2270  -31.5750 C   0  0  0  0  0  0  0  0  0  0  0  0
   -6.6090   23.5540  -31.9200 C   0  0  0  0  0  0  0  0  0  0  0  0
   -5.7280   24.5680  -31.5470 C   0  0  0  0  0  0  0  0  0  0  0  0
   -4.5960   24.2680  -30.8570 N   0  0  0  0  0  0  0  0  0  0  0  0
   -4.2820   22.9920  -30.4930 C   0  0  0  0  0  0  0  0  0  0  0  0
   -3.0490   22.7330  -29.7820 N   0  0  0  0  0  0  0  0  0  0  0  0
   -1.9700   21.9510  -30.3990 C   0  0  0  0  0  0  0  0  0  0  0  0
   -1.6490   20.7150  -29.5380 C   0  0  0  0  0  0  0  0  0  0  0  0
   -1.7760   20.9500  -28.0750 N   0  0  0  0  0  0  0  0  0  0  0  0
   -2.9490   20.2600  -27.5110 C   0  0  0  0  0  0  0  0  0  0  0  0
   -1.7470   22.3810  -27.7020 C   0  0  0  0  0  0  0  0  0  0  0  0
   -2.8720   23.1720  -28.3920 C   0  0  0  0  0  0  0  0  0  0  0  0
   -5.1580   21.9480  -30.8410 C   0  0  0  0  0  0  0  0  0  0  0  0
   -9.3373   22.6894  -30.4636 H   0  0  0  0  0  0  0  0  0  0  0  0
   -8.7162   23.4607  -31.9623 H   0  0  0  0  0  0  0  0  0  0  0  0
  -10.3272   22.6663  -31.9623 H   0  0  0  0  0  0  0  0  0  0  0  0
  -10.5752   20.4035  -32.4206 H   0  0  0  0  0  0  0  0  0  0  0  0
   -9.5991   18.1967  -33.0195 H   0  0  0  0  0  0  0  0  0  0  0  0
   -7.4030   16.6940  -32.5840 H   0  0  0  0  0  0  0  0  0  0  0  0
   -7.0839   14.9028  -33.7317 H   0  0  0  0  0  0  0  0  0  0  0  0
   -5.9174   12.7220  -33.9200 H   0  0  0  0  0  0  0  0  0  0  0  0
   -4.1102   11.4792  -34.8665 H   0  0  0  0  0  0  0  0  0  0  0  0
   -2.5376   12.2639  -35.2936 H   0  0  0  0  0  0  0  0  0  0  0  0
   -1.0319   10.8143  -33.8478 H   0  0  0  0  0  0  0  0  0  0  0  0
   -0.9479   12.6220  -33.8775 H   0  0  0  0  0  0  0  0  0  0  0  0
   -1.0582   10.8743  -31.3715 H   0  0  0  0  0  0  0  0  0  0  0  0
    0.4082   11.7044  -32.0539 H   0  0  0  0  0  0  0  0  0  0  0  0
    0.4021   14.1209  -30.0937 H   0  0  0  0  0  0  0  0  0  0  0  0
    0.9931   13.4438  -31.6490 H   0  0  0  0  0  0  0  0  0  0  0  0
   -0.1397   14.8379  -31.6490 H   0  0  0  0  0  0  0  0  0  0  0  0
   -2.6440   14.2674  -30.8261 H   0  0  0  0  0  0  0  0  0  0  0  0
   -1.9420   14.3175  -32.4934 H   0  0  0  0  0  0  0  0  0  0  0  0
   -3.5643   12.0200  -31.2945 H   0  0  0  0  0  0  0  0  0  0  0  0
   -4.1414   13.2487  -32.5060 H   0  0  0  0  0  0  0  0  0  0  0  0
   -3.4363   16.9632  -34.7936 H   0  0  0  0  0  0  0  0  0  0  0  0
   -5.6284   19.7459  -32.3010 H   0  0  0  0  0  0  0  0  0  0  0  0
   -7.5240   23.7941  -32.4813 H   0  0  0  0  0  0  0  0  0  0  0  0
   -5.9493   25.6125  -31.8115 H   0  0  0  0  0  0  0  0  0  0  0  0
   -2.2855   21.6239  -31.4007 H   0  0  0  0  0  0  0  0  0  0  0  0
   -1.0700   22.5789  -30.4748 H   0  0  0  0  0  0  0  0  0  0  0  0
   -2.3403   19.9073  -29.8203 H   0  0  0  0  0  0  0  0  0  0  0  0
   -0.5970   20.4569  -29.7297 H   0  0  0  0  0  0  0  0  0  0  0  0
   -2.8987   20.2896  -26.4125 H   0  0  0  0  0  0  0  0  0  0  0  0
   -3.8675   20.7617  -27.8497 H   0  0  0  0  0  0  0  0  0  0  0  0
   -2.9567   19.2135  -27.8497 H   0  0  0  0  0  0  0  0  0  0  0  0
   -1.8670   22.4678  -26.6120 H   0  0  0  0  0  0  0  0  0  0  0  0
   -0.7836   22.8006  -28.0272 H   0  0  0  0  0  0  0  0  0  0  0  0
   -3.8118   23.0140  -27.8426 H   0  0  0  0  0  0  0  0  0  0  0  0
   -2.6004   24.2379  -28.3934 H   0  0  0  0  0  0  0  0  0  0  0  0
   -4.9319   20.9149  -30.5384 H   0  0  0  0  0  0  0  0  0  0  0  0
  1  2  1  0
  2  3  2  0
  3  4  1  0
  4  5  2  0
  5  6  1  0
  6  7  1  0
  7  8  2  0
  7  9  1  0
  9 10  2  0
 10 11  1  0
 11 12  2  0
 12 13  1  0
 13 14  1  0
 14 15  1  0
 15 16  1  0
 16 17  1  0
 17 18  1  0
 17 19  1  0
 19 20  1  0
 12 21  1  0
 21 22  1  0
 22 23  1  0
 22 24  1  0
 22 25  1  0
 21 26  2  0
  5 27  1  0
 27 28  2  0
 28 29  1  0
 29 30  2  0
 30 31  1  0
 31 32  2  0
 32 33  1  0
 33 34  1  0
 34 35  1  0
 35 36  1  0
 36 37  1  0
 37 38  1  0
 37 39  1  0
 39 40  1  0
 33 41  2  0
 28  2  1  0
 41 29  1  0
 26  9  1  0
 40 34  1  0
 20 14  1  0
  1 42  1  0
  1 43  1  0
  1 44  1  0
  3 45  1  0
  4 46  1  0
  6 47  1  0
 10 48  1  0
 11 49  1  0
 13 50  1  0
 13 51  1  0
 15 52  1  0
 15 53  1  0
 16 54  1  0
 16 55  1  0
 18 56  1  0
 18 57  1  0
 18 58  1  0
 19 59  1  0
 19 60  1  0
 20 61  1  0
 20 62  1  0
 26 63  1  0
 27 64  1  0
 30 65  1  0
 31 66  1  0
 35 67  1  0
 35 68  1  0
 36 69  1  0
 36 70  1  0
 38 71  1  0
 38 72  1  0
 38 73  1  0
 39 74  1  0
 39 75  1  0
 40 76  1  0
 40 77  1  0
 41 78  1  0
M  END
>  <UniqueID>  (33) 
33

>  <SMILES>  (33) 
Cc1ccc(NC(=O)c2ccc(CN3CCN(C)CC3)c(C(F)(F)F)c2)cc1-c1ccnc(N2CCN(C)CC2)c1

>  <Energy>  (33) 
121.49776414450997

>  <Genealogy>  (33) 
Cc1ccc(NC(=O)c2ccc(CN3CCN(C)CC3)c(C(F)(F)F)c2)cc1-c1ccnc(N2CCN(C)CC2)c1 (3D coordinates assigned)
Cc1ccc(NC(=O)c2ccc(CN3CCN(C)CC3)c(C(F)(F)F)c2)cc1-c1ccnc(N2CCN(C)CC2)c1 (nonaromatic ring conformer: 121.49776414450997 kcal/mol)

>  <smiles>  (33) 
Cc1ccc(NC(=O)c2ccc(CN3CCN(C)CC3)c(C(F)(F)F)c2)cc1-c1ccnc(N2CCN(C)CC2)c1

>  <score_type>  (33) 
oracle

>  <origin>  (33) 
adgpu

>  <m_score__min__energy>  (33) 
-10.380000000000001

>  <m_primary>  (33) 
energy

$$$$
33:0
     RDKit          3D

 37 39  0  0  0  0  0  0  0  0999 V2000
   -2.4520   24.9470  -29.5990 O   0  0  0  0  0  0  0  0  0  0  0  0
   -3.5630   24.8250  -30.1810 C   0  0  0  0  0  0  0  0  0  0  0  0
   -4.3010   25.9670  -30.4700 O   0  0  0  0  0  0  0  0  0  0  0  0
   -4.0740   23.4880  -30.5530 C   0  0  0  0  0  0  0  0  0  0  0  0
   -3.1930   22.3980  -30.6690 C   0  0  0  0  0  0  0  0  0  0  0  0
   -3.6750   21.1350  -31.0220 C   0  0  0  0  0  0  0  0  0  0  0  0
   -5.0370   20.9430  -31.2600 C   0  0  0  0  0  0  0  0  0  0  0  0
   -5.9290   22.0170  -31.1440 C   0  0  0  0  0  0  0  0  0  0  0  0
   -7.6490   21.7870  -31.4420 S   0  0  0  0  0  0  0  0  0  0  0  0
   -8.3790   21.8390  -30.1300 O   0  0  0  0  0  0  0  0  0  0  0  0
   -8.1720   22.8670  -32.3470 O   0  0  0  0  0  0  0  0  0  0  0  0
   -7.9060   20.2500  -32.1970 N   0  0  0  0  0  0  0  0  0  0  0  0
   -8.3930   19.0780  -31.5530 C   0  0  0  0  0  0  0  0  0  0  0  0
   -9.0920   19.1000  -30.5070 O   0  0  0  0  0  0  0  0  0  0  0  0
   -7.9730   17.8660  -32.1840 N   0  0  0  0  0  0  0  0  0  0  0  0
   -7.2310   18.2320  -33.1820 C   0  0  0  0  0  0  0  0  0  0  0  0
   -6.5080   17.2650  -34.0650 C   0  0  0  0  0  0  0  0  0  0  0  0
   -5.0260   17.3590  -33.8290 C   0  0  0  0  0  0  0  0  0  0  0  0
   -4.3250   18.5300  -34.1670 C   0  0  0  0  0  0  0  0  0  0  0  0
   -2.9540   18.6280  -33.9130 C   0  0  0  0  0  0  0  0  0  0  0  0
   -2.2740   17.5640  -33.3130 C   0  0  0  0  0  0  0  0  0  0  0  0
   -2.9670   16.4010  -32.9630 C   0  0  0  0  0  0  0  0  0  0  0  0
   -4.3380   16.2990  -33.2160 C   0  0  0  0  0  0  0  0  0  0  0  0
   -7.1100   19.6850  -33.2240 C   0  0  0  0  0  0  0  0  0  0  0  0
   -6.3880   20.3490  -34.0150 O   0  0  0  0  0  0  0  0  0  0  0  0
   -5.4460   23.2860  -30.7960 C   0  0  0  0  0  0  0  0  0  0  0  0
   -2.1186   22.5405  -30.4808 H   0  0  0  0  0  0  0  0  0  0  0  0
   -2.9784   20.2885  -31.1127 H   0  0  0  0  0  0  0  0  0  0  0  0
   -5.4105   19.9467  -31.5391 H   0  0  0  0  0  0  0  0  0  0  0  0
   -6.8481   16.2432  -33.8409 H   0  0  0  0  0  0  0  0  0  0  0  0
   -6.7215   17.5082  -35.1163 H   0  0  0  0  0  0  0  0  0  0  0  0
   -4.8575   19.3722  -34.6331 H   0  0  0  0  0  0  0  0  0  0  0  0
   -2.4092   19.5439  -34.1857 H   0  0  0  0  0  0  0  0  0  0  0  0
   -1.1945   17.6417  -33.1164 H   0  0  0  0  0  0  0  0  0  0  0  0
   -2.4325   15.5652  -32.4879 H   0  0  0  0  0  0  0  0  0  0  0  0
   -4.8804   15.3846  -32.9338 H   0  0  0  0  0  0  0  0  0  0  0  0
   -6.1449   24.1313  -30.7120 H   0  0  0  0  0  0  0  0  0  0  0  0
  1  2  2  0
  2  3  1  0
  2  4  1  0
  4  5  2  0
  5  6  1  0
  6  7  2  0
  7  8  1  0
  8  9  1  0
  9 10  2  0
  9 11  2  0
  9 12  1  0
 12 13  1  0
 13 14  2  0
 13 15  1  0
 15 16  2  0
 16 17  1  0
 17 18  1  0
 18 19  2  0
 19 20  1  0
 20 21  2  0
 21 22  1  0
 22 23  2  0
 16 24  1  0
 24 25  2  0
  8 26  2  0
 26  4  1  0
 24 12  1  0
 23 18  1  0
  5 27  1  0
  6 28  1  0
  7 29  1  0
 17 30  1  0
 17 31  1  0
 19 32  1  0
 20 33  1  0
 21 34  1  0
 22 35  1  0
 23 36  1  0
 26 37  1  0
M  CHG  1   3  -1
M  END
>  <UniqueID>  (34) 
34

>  <SMILES>  (34) 
O=C([O-])c1cccc(S(=O)(=O)N2C(=O)N=C(Cc3ccccc3)C2=O)c1

>  <Energy>  (34) 
70.11142417151416

>  <Genealogy>  (34) 
O=C([O-])c1cccc(S(=O)(=O)N2C(=O)N=C(Cc3ccccc3)C2=O)c1 (protonated)
O=C([O-])c1cccc(S(=O)(=O)N2C(=O)N=C(Cc3ccccc3)C2=O)c1 (3D coordinates assigned)
O=C([O-])c1cccc(S(=O)(=O)N2C(=O)N=C(Cc3ccccc3)C2=O)c1 (nonaromatic ring conformer: 70.11142417151416 kcal/mol)

>  <smiles>  (34) 
O=C(O)c1cccc(S(=O)(=O)N2C(=O)N=C(Cc3ccccc3)C2=O)c1

>  <score_type>  (34) 
oracle

>  <origin>  (34) 
adgpu

>  <m_score__min__energy>  (34) 
-10.59

>  <m_primary>  (34) 
energy

$$$$
34:0
     RDKit          3D

 51 54  0  0  0  0  0  0  0  0999 V2000
   -4.8870   19.3960  -34.1450 O   0  0  0  0  0  0  0  0  0  0  0  0
   -4.9170   18.2880  -33.5430 C   0  0  0  0  0  0  0  0  0  0  0  0
   -3.8780   17.3600  -33.7380 C   0  0  0  0  0  0  0  0  0  0  0  0
   -2.7670   17.6830  -34.5980 N   0  0  0  0  0  0  0  0  0  0  0  0
   -1.3600   18.5470  -34.0630 S   0  0  0  0  0  0  0  0  0  0  0  0
   -0.6770   19.1670  -35.2500 O   0  0  0  0  0  0  0  0  0  0  0  0
   -0.4130   17.5850  -33.4020 O   0  0  0  0  0  0  0  0  0  0  0  0
   -1.8310   19.8280  -32.9510 C   0  0  0  0  0  0  0  0  0  0  0  0
   -2.5820   20.9140  -33.4190 C   0  0  0  0  0  0  0  0  0  0  0  0
   -2.9780   21.9260  -32.5400 C   0  0  0  0  0  0  0  0  0  0  0  0
   -2.6170   21.8680  -31.1860 C   0  0  0  0  0  0  0  0  0  0  0  0
   -3.1260   23.1420  -30.0730 S   0  0  0  0  0  0  0  0  0  0  0  0
   -3.6150   22.5130  -28.7990 O   0  0  0  0  0  0  0  0  0  0  0  0
   -1.9390   24.0020  -29.7390 O   0  0  0  0  0  0  0  0  0  0  0  0
   -4.3920   24.1520  -30.7300 N   0  0  0  0  0  0  0  0  0  0  0  0
   -5.4310   23.3690  -31.3950 C   0  0  0  0  0  0  0  0  0  0  0  0
   -6.6960   24.2120  -31.3510 C   0  0  0  0  0  0  0  0  0  0  0  0
   -6.4710   25.2160  -30.2310 C   0  0  0  0  0  0  0  0  0  0  0  0
   -5.0810   24.9160  -29.6920 C   0  0  0  0  0  0  0  0  0  0  0  0
   -1.8680   20.7780  -30.7190 C   0  0  0  0  0  0  0  0  0  0  0  0
   -1.4730   19.7650  -31.5970 C   0  0  0  0  0  0  0  0  0  0  0  0
   -3.9640   16.1200  -33.0910 C   0  0  0  0  0  0  0  0  0  0  0  0
   -5.0560   15.8470  -32.2780 C   0  0  0  0  0  0  0  0  0  0  0  0
   -6.0210   16.7830  -32.1130 N   0  0  0  0  0  0  0  0  0  0  0  0
   -5.9650   17.9780  -32.7110 N   0  0  0  0  0  0  0  0  0  0  0  0
   -7.0370   18.9060  -32.4650 C   0  0  0  0  0  0  0  0  0  0  0  0
   -8.3760   18.5390  -32.6910 C   0  0  0  0  0  0  0  0  0  0  0  0
   -9.4070   19.4580  -32.4720 C   0  0  0  0  0  0  0  0  0  0  0  0
   -9.1110   20.7520  -32.0370 C   0  0  0  0  0  0  0  0  0  0  0  0
   -7.7820   21.1310  -31.8240 C   0  0  0  0  0  0  0  0  0  0  0  0
   -6.7480   20.2160  -32.0420 C   0  0  0  0  0  0  0  0  0  0  0  0
   -2.8330   17.4870  -35.6220 H   0  0  0  0  0  0  0  0  0  0  0  0
   -2.8609   20.9705  -34.4815 H   0  0  0  0  0  0  0  0  0  0  0  0
   -3.5753   22.7716  -32.9118 H   0  0  0  0  0  0  0  0  0  0  0  0
   -5.1455   23.1651  -32.4375 H   0  0  0  0  0  0  0  0  0  0  0  0
   -5.5799   22.3991  -30.8979 H   0  0  0  0  0  0  0  0  0  0  0  0
   -6.8466   24.7310  -32.3091 H   0  0  0  0  0  0  0  0  0  0  0  0
   -7.5920   23.5980  -31.1772 H   0  0  0  0  0  0  0  0  0  0  0  0
   -6.5192   26.2437  -30.6202 H   0  0  0  0  0  0  0  0  0  0  0  0
   -7.2395   25.1342  -29.4482 H   0  0  0  0  0  0  0  0  0  0  0  0
   -4.5417   25.8528  -29.4879 H   0  0  0  0  0  0  0  0  0  0  0  0
   -5.1321   24.3517  -28.7491 H   0  0  0  0  0  0  0  0  0  0  0  0
   -1.5901   20.7202  -29.6563 H   0  0  0  0  0  0  0  0  0  0  0  0
   -0.8800   18.9165  -31.2249 H   0  0  0  0  0  0  0  0  0  0  0  0
   -3.1723   15.3684  -33.2262 H   0  0  0  0  0  0  0  0  0  0  0  0
   -5.1370   14.8747  -31.7701 H   0  0  0  0  0  0  0  0  0  0  0  0
   -8.6133   17.5238  -33.0418 H   0  0  0  0  0  0  0  0  0  0  0  0
  -10.4525   19.1615  -32.6425 H   0  0  0  0  0  0  0  0  0  0  0  0
   -9.9233   21.4728  -31.8620 H   0  0  0  0  0  0  0  0  0  0  0  0
   -7.5498   22.1511  -31.4842 H   0  0  0  0  0  0  0  0  0  0  0  0
   -5.7035   20.5218  -31.8820 H   0  0  0  0  0  0  0  0  0  0  0  0
  1  2  2  0
  2  3  1  0
  3  4  1  0
  4  5  1  0
  5  6  2  0
  5  7  2  0
  5  8  1  0
  8  9  2  0
  9 10  1  0
 10 11  2  0
 11 12  1  0
 12 13  2  0
 12 14  2  0
 12 15  1  0
 15 16  1  0
 16 17  1  0
 17 18  1  0
 18 19  1  0
 11 20  1  0
 20 21  2  0
  3 22  2  0
 22 23  1  0
 23 24  2  0
 24 25  1  0
 25 26  1  0
 26 27  2  0
 27 28  1  0
 28 29  2  0
 29 30  1  0
 30 31  2  0
 25  2  1  0
 31 26  1  0
 21  8  1  0
 19 15  1  0
  4 32  1  0
  9 33  1  0
 10 34  1  0
 16 35  1  0
 16 36  1  0
 17 37  1  0
 17 38  1  0
 18 39  1  0
 18 40  1  0
 19 41  1  0
 19 42  1  0
 20 43  1  0
 21 44  1  0
 22 45  1  0
 23 46  1  0
 27 47  1  0
 28 48  1  0
 29 49  1  0
 30 50  1  0
 31 51  1  0
M  END
>  <UniqueID>  (35) 
35

>  <SMILES>  (35) 
O=c1c(NS(=O)(=O)c2ccc(S(=O)(=O)N3CCCC3)cc2)ccnn1-c1ccccc1

>  <Energy>  (35) 
67.09771731668503

>  <Genealogy>  (35) 
O=c1c(NS(=O)(=O)c2ccc(S(=O)(=O)N3CCCC3)cc2)ccnn1-c1ccccc1 (3D coordinates assigned)
O=c1c(NS(=O)(=O)c2ccc(S(=O)(=O)N3CCCC3)cc2)ccnn1-c1ccccc1 (nonaromatic ring conformer: 67.09771731668503 kcal/mol)

>  <smiles>  (35) 
O=c1c(NS(=O)(=O)c2ccc(S(=O)(=O)N3CCCC3)cc2)ccnn1-c1ccccc1

>  <score_type>  (35) 
oracle

>  <origin>  (35) 
adgpu

>  <m_score__min__energy>  (35) 
-11.369999999999999

>  <m_primary>  (35) 
energy

$$$$
35:0
     RDKit          3D

 58 60  0  0  0  0  0  0  0  0999 V2000
   -9.1680   22.5030  -31.8930 C   0  0  0  0  0  0  0  0  0  0  0  0
   -7.7120   22.0450  -31.9770 C   0  0  0  0  0  0  0  0  0  0  0  0
   -7.4910   20.6730  -31.3260 C   0  0  0  0  0  0  0  0  0  0  0  0
   -6.8720   19.6870  -32.2850 C   0  0  0  0  0  0  0  0  0  0  0  0
   -6.7230   20.0130  -33.6410 C   0  0  0  0  0  0  0  0  0  0  0  0
   -6.1160   19.1140  -34.5190 C   0  0  0  0  0  0  0  0  0  0  0  0
   -5.6390   17.8840  -34.0560 C   0  0  0  0  0  0  0  0  0  0  0  0
   -5.0170   17.0210  -34.9670 O   0  0  0  0  0  0  0  0  0  0  0  0
   -3.7270   16.4940  -34.8030 C   0  0  0  0  0  0  0  0  0  0  0  0
   -3.5080   15.1420  -34.4800 C   0  0  0  0  0  0  0  0  0  0  0  0
   -2.2060   14.6570  -34.3310 C   0  0  0  0  0  0  0  0  0  0  0  0
   -1.1160   15.5170  -34.4850 C   0  0  0  0  0  0  0  0  0  0  0  0
   -1.3240   16.8750  -34.7710 C   0  0  0  0  0  0  0  0  0  0  0  0
   -0.1870   17.7900  -34.9590 C   0  0  0  0  0  0  0  0  0  0  0  0
    0.2470   18.6710  -34.0460 C   0  0  0  0  0  0  0  0  0  0  0  0
   -0.4910   18.9530  -32.4650 S   0  0  0  0  0  0  0  0  0  0  0  0
    0.0960   20.1690  -31.8020 O   0  0  0  0  0  0  0  0  0  0  0  0
   -0.1810   17.7580  -31.6090 O   0  0  0  0  0  0  0  0  0  0  0  0
   -2.2180   19.1300  -32.5560 N   0  0  0  0  0  0  0  0  0  0  0  0
   -2.8950   20.3220  -32.1500 C   0  0  0  0  0  0  0  0  0  0  0  0
   -2.7910   20.7600  -30.8210 C   0  0  0  0  0  0  0  0  0  0  0  0
   -3.4340   21.9320  -30.4120 C   0  0  0  0  0  0  0  0  0  0  0  0
   -4.2000   22.6710  -31.3240 C   0  0  0  0  0  0  0  0  0  0  0  0
   -5.0230   24.1370  -30.8060 S   0  0  0  0  0  0  0  0  0  0  0  0
   -3.8650   25.3520  -30.3950 N   0  0  0  0  0  0  0  0  0  0  0  0
   -5.8860   24.6570  -31.9220 O   0  0  0  0  0  0  0  0  0  0  0  0
   -5.8790   23.8320  -29.6100 O   0  0  0  0  0  0  0  0  0  0  0  0
   -4.3380   22.2130  -32.6420 C   0  0  0  0  0  0  0  0  0  0  0  0
   -3.6980   21.0410  -33.0500 C   0  0  0  0  0  0  0  0  0  0  0  0
   -2.6300   17.3520  -34.9440 C   0  0  0  0  0  0  0  0  0  0  0  0
   -5.8170   17.5270  -32.7010 C   0  0  0  0  0  0  0  0  0  0  0  0
   -5.3670   16.1890  -32.1790 C   0  0  0  0  0  0  0  0  0  0  0  0
   -6.4120   18.4450  -31.8210 C   0  0  0  0  0  0  0  0  0  0  0  0
   -9.4629   22.5958  -30.8373 H   0  0  0  0  0  0  0  0  0  0  0  0
   -9.2749   23.4782  -32.3906 H   0  0  0  0  0  0  0  0  0  0  0  0
   -9.8139   21.7647  -32.3906 H   0  0  0  0  0  0  0  0  0  0  0  0
   -7.4215   21.9842  -33.0362 H   0  0  0  0  0  0  0  0  0  0  0  0
   -7.0984   22.7773  -31.4318 H   0  0  0  0  0  0  0  0  0  0  0  0
   -6.8232   20.7939  -30.4603 H   0  0  0  0  0  0  0  0  0  0  0  0
   -8.4716   20.2799  -31.0195 H   0  0  0  0  0  0  0  0  0  0  0  0
   -7.0863   20.9819  -34.0142 H   0  0  0  0  0  0  0  0  0  0  0  0
   -6.0121   19.3749  -35.5826 H   0  0  0  0  0  0  0  0  0  0  0  0
   -4.3643   14.4649  -34.3444 H   0  0  0  0  0  0  0  0  0  0  0  0
   -2.0391   13.5963  -34.0921 H   0  0  0  0  0  0  0  0  0  0  0  0
   -0.0920   15.1287  -34.3818 H   0  0  0  0  0  0  0  0  0  0  0  0
    0.3466   17.7482  -35.9200 H   0  0  0  0  0  0  0  0  0  0  0  0
    1.1353   19.2672  -34.3021 H   0  0  0  0  0  0  0  0  0  0  0  0
   -2.7700   18.2420  -32.5930 H   0  0  0  0  0  0  0  0  0  0  0  0
   -2.2007   20.1784  -30.0976 H   0  0  0  0  0  0  0  0  0  0  0  0
   -3.3385   22.2753  -29.3713 H   0  0  0  0  0  0  0  0  0  0  0  0
   -3.2210   25.4520  -31.2120 H   0  0  0  0  0  0  0  0  0  0  0  0
   -4.9528   22.7791  -33.3573 H   0  0  0  0  0  0  0  0  0  0  0  0
   -3.8234   20.6793  -34.0812 H   0  0  0  0  0  0  0  0  0  0  0  0
   -2.7948   18.4107  -35.1930 H   0  0  0  0  0  0  0  0  0  0  0  0
   -5.3720   16.2040  -31.0791 H   0  0  0  0  0  0  0  0  0  0  0  0
   -6.0513   15.4063  -32.5382 H   0  0  0  0  0  0  0  0  0  0  0  0
   -4.3488   15.9789  -32.5382 H   0  0  0  0  0  0  0  0  0  0  0  0
   -6.5187   18.1881  -30.7568 H   0  0  0  0  0  0  0  0  0  0  0  0
  1  2  1  0
  2  3  1  0
  3  4  1  0
  4  5  2  0
  5  6  1  0
  6  7  2  0
  7  8  1  0
  8  9  1  0
  9 10  2  0
 10 11  1  0
 11 12  2  0
 12 13  1  0
 13 14  1  0
 14 15  2  3
 15 16  1  0
 16 17  2  0
 16 18  2  0
 16 19  1  0
 19 20  1  0
 20 21  2  0
 21 22  1  0
 22 23  2  0
 23 24  1  0
 24 25  1  0
 24 26  2  0
 24 27  2  0
 23 28  1  0
 28 29  2  0
 13 30  2  0
  7 31  1  0
 31 32  1  0
 31 33  2  0
 33  4  1  0
 30  9  1  0
 29 20  1  0
  1 34  1  0
  1 35  1  0
  1 36  1  0
  2 37  1  0
  2 38  1  0
  3 39  1  0
  3 40  1  0
  5 41  1  0
  6 42  1  0
 10 43  1  0
 11 44  1  0
 12 45  1  0
 14 46  1  0
 15 47  1  0
 19 48  1  0
 21 49  1  0
 22 50  1  0
 25 51  1  0
 28 52  1  0
 29 53  1  0
 30 54  1  0
 32 55  1  0
 32 56  1  0
 32 57  1  0
 33 58  1  0
M  CHG  1  25  -1
M  END
>  <UniqueID>  (36) 
36

>  <SMILES>  (36) 
CCCc1ccc(Oc2cccc(C=CS(=O)(=O)Nc3ccc(S([NH-])(=O)=O)cc3)c2)c(C)c1

>  <Energy>  (36) 
76.53523687916227

>  <Genealogy>  (36) 
CCCc1ccc(Oc2cccc(C=CS(=O)(=O)Nc3ccc(S([NH-])(=O)=O)cc3)c2)c(C)c1 (protonated)
CCCc1ccc(Oc2cccc(C=CS(=O)(=O)Nc3ccc(S([NH-])(=O)=O)cc3)c2)c(C)c1 (3D coordinates assigned)
CCCc1ccc(Oc2cccc(C=CS(=O)(=O)Nc3ccc(S([NH-])(=O)=O)cc3)c2)c(C)c1 (optimized conformer: 76.53523687916227 kcal/mol)

>  <smiles>  (36) 
CCCc1ccc(Oc2cccc(C=CS(=O)(=O)Nc3ccc(S(N)(=O)=O)cc3)c2)c(C)c1

>  <score_type>  (36) 
oracle

>  <origin>  (36) 
adgpu

>  <m_score__min__energy>  (36) 
-11.93

>  <m_primary>  (36) 
energy

$$$$
36:0
     RDKit          3D

 78 82  0  0  0  0  0  0  0  0999 V2000
   -3.4640   21.6750  -33.4700 C   0  0  0  0  0  0  0  0  0  0  0  0
   -3.0410   21.3620  -32.0580 C   0  0  0  0  0  0  0  0  0  0  0  0
   -1.7770   20.7940  -31.8260 C   0  0  0  0  0  0  0  0  0  0  0  0
   -1.3570   20.5050  -30.5250 C   0  0  0  0  0  0  0  0  0  0  0  0
   -2.1920   20.7800  -29.4440 C   0  0  0  0  0  0  0  0  0  0  0  0
   -3.4590   21.3280  -29.6570 C   0  0  0  0  0  0  0  0  0  0  0  0
   -3.9000   21.6070  -30.9600 C   0  0  0  0  0  0  0  0  0  0  0  0
   -5.2730   22.1290  -31.1500 C   0  0  0  0  0  0  0  0  0  0  0  0
   -6.3010   21.2140  -31.4330 C   0  0  0  0  0  0  0  0  0  0  0  0
   -7.6270   21.6450  -31.5680 C   0  0  0  0  0  0  0  0  0  0  0  0
   -8.7330   20.6610  -31.8410 C   0  0  0  0  0  0  0  0  0  0  0  0
   -8.4350   19.8660  -33.0330 N   0  0  0  0  0  0  0  0  0  0  0  0
   -7.2740   19.0240  -33.1540 C   0  0  0  0  0  0  0  0  0  0  0  0
   -6.3210   19.3090  -34.1450 C   0  0  0  0  0  0  0  0  0  0  0  0
   -5.1600   18.5390  -34.2580 C   0  0  0  0  0  0  0  0  0  0  0  0
   -4.9300   17.4740  -33.3790 C   0  0  0  0  0  0  0  0  0  0  0  0
   -3.4350   16.5440  -33.4900 S   0  0  0  0  0  0  0  0  0  0  0  0
   -3.2840   16.0210  -34.8940 O   0  0  0  0  0  0  0  0  0  0  0  0
   -3.5400   15.3650  -32.5580 O   0  0  0  0  0  0  0  0  0  0  0  0
   -2.0700   17.5510  -33.0390 N   0  0  0  0  0  0  0  0  0  0  0  0
   -1.6810   18.4770  -34.1300 C   0  0  0  0  0  0  0  0  0  0  0  0
   -0.5170   17.9340  -34.9850 C   0  0  0  0  0  0  0  0  0  0  0  0
   -0.5500   16.5240  -35.0320 O   0  0  0  0  0  0  0  0  0  0  0  0
   -0.2480   15.9820  -33.7570 C   0  0  0  0  0  0  0  0  0  0  0  0
   -0.9230   16.7370  -32.5850 C   0  0  0  0  0  0  0  0  0  0  0  0
   -5.8860   17.1690  -32.4020 C   0  0  0  0  0  0  0  0  0  0  0  0
   -7.0530   17.9320  -32.2920 C   0  0  0  0  0  0  0  0  0  0  0  0
   -7.9300   23.0010  -31.3910 C   0  0  0  0  0  0  0  0  0  0  0  0
   -6.9180   23.9220  -31.1180 C   0  0  0  0  0  0  0  0  0  0  0  0
   -5.5790   23.5090  -31.0110 C   0  0  0  0  0  0  0  0  0  0  0  0
   -4.5350   24.5360  -30.7700 C   0  0  0  0  0  0  0  0  0  0  0  0
   -4.8160   25.7610  -30.8520 O   0  0  0  0  0  0  0  0  0  0  0  0
   -3.2030   24.1250  -30.4300 N   0  0  0  0  0  0  0  0  0  0  0  0
   -2.4320   24.5660  -29.2650 C   0  0  0  0  0  0  0  0  0  0  0  0
   -3.1270   24.1920  -27.9320 C   0  0  0  0  0  0  0  0  0  0  0  0
   -2.3130   23.1930  -27.0920 C   0  0  0  0  0  0  0  0  0  0  0  0
   -0.9120   23.6270  -26.8650 N   0  0  0  0  0  0  0  0  0  0  0  0
   -0.7880   24.4100  -25.6240 C   0  0  0  0  0  0  0  0  0  0  0  0
   -0.2790   24.3390  -28.0060 C   0  0  0  0  0  0  0  0  0  0  0  0
   -0.9810   24.0630  -29.3400 C   0  0  0  0  0  0  0  0  0  0  0  0
   -4.3481   22.3292  -33.4514 H   0  0  0  0  0  0  0  0  0  0  0  0
   -2.6421   22.1841  -33.9947 H   0  0  0  0  0  0  0  0  0  0  0  0
   -3.7106   20.7402  -33.9947 H   0  0  0  0  0  0  0  0  0  0  0  0
   -1.1129   20.5751  -32.6751 H   0  0  0  0  0  0  0  0  0  0  0  0
   -0.3658   20.0598  -30.3540 H   0  0  0  0  0  0  0  0  0  0  0  0
   -1.8525   20.5650  -28.4200 H   0  0  0  0  0  0  0  0  0  0  0  0
   -4.1142   21.5419  -28.7997 H   0  0  0  0  0  0  0  0  0  0  0  0
   -6.0618   20.1467  -31.5499 H   0  0  0  0  0  0  0  0  0  0  0  0
   -8.8404   19.9894  -30.9765 H   0  0  0  0  0  0  0  0  0  0  0  0
   -9.6670   21.2167  -32.0107 H   0  0  0  0  0  0  0  0  0  0  0  0
   -9.0710   19.9450  -33.8580 H   0  0  0  0  0  0  0  0  0  0  0  0
   -6.4896   20.1458  -34.8387 H   0  0  0  0  0  0  0  0  0  0  0  0
   -4.4235   18.7710  -35.0414 H   0  0  0  0  0  0  0  0  0  0  0  0
   -2.3900   18.1260  -32.2230 H   0  0  0  0  0  0  0  0  0  0  0  0
   -2.5519   18.6377  -34.7825 H   0  0  0  0  0  0  0  0  0  0  0  0
   -1.3426   19.4147  -33.6651 H   0  0  0  0  0  0  0  0  0  0  0  0
   -0.6031   18.3318  -36.0070 H   0  0  0  0  0  0  0  0  0  0  0  0
    0.4337   18.2512  -34.5316 H   0  0  0  0  0  0  0  0  0  0  0  0
   -0.5848   14.9351  -33.7358 H   0  0  0  0  0  0  0  0  0  0  0  0
    0.8390   16.0755  -33.6167 H   0  0  0  0  0  0  0  0  0  0  0  0
   -1.2784   16.0027  -31.8472 H   0  0  0  0  0  0  0  0  0  0  0  0
   -0.1781   17.4155  -32.1437 H   0  0  0  0  0  0  0  0  0  0  0  0
   -5.7181   16.3246  -31.7173 H   0  0  0  0  0  0  0  0  0  0  0  0
   -7.8025   17.6779  -31.5280 H   0  0  0  0  0  0  0  0  0  0  0  0
   -8.9729   23.3422  -31.4677 H   0  0  0  0  0  0  0  0  0  0  0  0
   -7.1713   24.9841  -30.9849 H   0  0  0  0  0  0  0  0  0  0  0  0
   -2.3925   25.6651  -29.2858 H   0  0  0  0  0  0  0  0  0  0  0  0
   -3.2725   25.1093  -27.3427 H   0  0  0  0  0  0  0  0  0  0  0  0
   -4.0836   23.7101  -28.1824 H   0  0  0  0  0  0  0  0  0  0  0  0
   -2.8051   23.0745  -26.1154 H   0  0  0  0  0  0  0  0  0  0  0  0
   -2.2761   22.2474  -27.6528 H   0  0  0  0  0  0  0  0  0  0  0  0
   -0.8938   23.7417  -24.7567 H   0  0  0  0  0  0  0  0  0  0  0  0
    0.1983   24.8961  -25.5942 H   0  0  0  0  0  0  0  0  0  0  0  0
   -1.5759   25.1771  -25.5942 H   0  0  0  0  0  0  0  0  0  0  0  0
   -0.3128   25.4205  -27.8080 H   0  0  0  0  0  0  0  0  0  0  0  0
    0.7546   23.9728  -28.0932 H   0  0  0  0  0  0  0  0  0  0  0  0
   -0.4517   24.5876  -30.1491 H   0  0  0  0  0  0  0  0  0  0  0  0
   -0.9761   22.9817  -29.5419 H   0  0  0  0  0  0  0  0  0  0  0  0
  1  2  1  0
  2  3  2  0
  3  4  1  0
  4  5  2  0
  5  6  1  0
  6  7  2  0
  7  8  1  0
  8  9  2  0
  9 10  1  0
 10 11  1  0
 11 12  1  0
 12 13  1  0
 13 14  2  0
 14 15  1  0
 15 16  2  0
 16 17  1  0
 17 18  2  0
 17 19  2  0
 17 20  1  0
 20 21  1  0
 21 22  1  0
 22 23  1  0
 23 24  1  0
 24 25  1  0
 16 26  1  0
 26 27  2  0
 10 28  2  0
 28 29  1  0
 29 30  2  0
 30 31  1  0
 31 32  2  0
 31 33  1  0
 33 34  1  0
 34 35  1  0
 35 36  1  0
 36 37  1  0
 37 38  1  0
 37 39  1  0
 39 40  1  0
  7  2  1  0
 30  8  1  0
 40 34  1  0
 27 13  1  0
 25 20  1  0
  1 41  1  0
  1 42  1  0
  1 43  1  0
  3 44  1  0
  4 45  1  0
  5 46  1  0
  6 47  1  0
  9 48  1  0
 11 49  1  0
 11 50  1  0
 12 51  1  0
 14 52  1  0
 15 53  1  0
 20 54  1  0
 21 55  1  0
 21 56  1  0
 22 57  1  0
 22 58  1  0
 24 59  1  0
 24 60  1  0
 25 61  1  0
 25 62  1  0
 26 63  1  0
 27 64  1  0
 28 65  1  0
 29 66  1  0
 34 67  1  0
 35 68  1  0
 35 69  1  0
 36 70  1  0
 36 71  1  0
 38 72  1  0
 38 73  1  0
 38 74  1  0
 39 75  1  0
 39 76  1  0
 40 77  1  0
 40 78  1  0
M  CHG  2  20   1  33  -1
M  END
>  <UniqueID>  (37) 
37

>  <SMILES>  (37) 
Cc1ccccc1-c1cc(CNc2ccc(S(=O)(=O)[NH+]3CCOCC3)cc2)ccc1C(=O)[N-]C1CCN(C)CC1

>  <Energy>  (37) 
110.91627447843942

>  <Genealogy>  (37) 
Cc1ccccc1-c1cc(CNc2ccc(S(=O)(=O)[NH+]3CCOCC3)cc2)ccc1C(=O)[N-]C1CCN(C)CC1 (protonated)
Cc1ccccc1-c1cc(CNc2ccc(S(=O)(=O)[NH+]3CCOCC3)cc2)ccc1C(=O)[N-]C1CCN(C)CC1 (3D coordinates assigned)
Cc1ccccc1-c1cc(CNc2ccc(S(=O)(=O)[NH+]3CCOCC3)cc2)ccc1C(=O)[N-]C1CCN(C)CC1 (nonaromatic ring conformer: 110.91627447843942 kcal/mol)

>  <smiles>  (37) 
Cc1ccccc1-c1cc(CNc2ccc(S(=O)(=O)N3CCOCC3)cc2)ccc1C(=O)NC1CCN(C)CC1

>  <score_type>  (37) 
oracle

>  <origin>  (37) 
adgpu

>  <m_score__min__energy>  (37) 
-12.16

>  <m_primary>  (37) 
energy

$$$$
37:0
     RDKit          3D

 35 36  0  0  0  0  0  0  0  0999 V2000
   -1.6509   18.9034  -29.6507 H   0  0  0  0  0  0  0  0  0  0  0  0
   -1.5820   19.9850  -29.8390 C   0  0  0  0  0  0  0  0  0  0  0  0
   -1.9860   20.8150  -28.8580 C   0  0  0  0  0  0  0  0  0  0  0  0
   -2.5770   20.2430  -27.6730 C   0  0  0  0  0  0  0  0  0  0  0  0
   -3.0500   19.7840  -26.7220 N   0  0  0  0  0  0  0  0  0  0  0  0
   -1.8020   22.2870  -28.9040 C   0  0  0  0  0  0  0  0  0  0  0  0
   -0.6760   22.8740  -28.3040 C   0  0  0  0  0  0  0  0  0  0  0  0
    0.0661   22.2402  -27.7965 H   0  0  0  0  0  0  0  0  0  0  0  0
   -0.4930   24.2590  -28.3480 C   0  0  0  0  0  0  0  0  0  0  0  0
    0.3865   24.7123  -27.8673 H   0  0  0  0  0  0  0  0  0  0  0  0
   -1.4260   25.0690  -29.0020 C   0  0  0  0  0  0  0  0  0  0  0  0
   -1.2400   26.4460  -29.0400 O   0  0  0  0  0  0  0  0  0  0  0  0
   -2.5420   24.4920  -29.6190 C   0  0  0  0  0  0  0  0  0  0  0  0
   -3.4690   25.2930  -30.2760 O   0  0  0  0  0  0  0  0  0  0  0  0
   -2.7270   23.1060  -29.5760 C   0  0  0  0  0  0  0  0  0  0  0  0
   -3.6000   22.6547  -30.0701 H   0  0  0  0  0  0  0  0  0  0  0  0
   -1.0520   20.4190  -31.1520 C   0  0  0  0  0  0  0  0  0  0  0  0
    0.2910   20.1700  -31.4620 C   0  0  0  0  0  0  0  0  0  0  0  0
    0.9374   19.6698  -30.7258 H   0  0  0  0  0  0  0  0  0  0  0  0
    0.8160   20.5520  -32.6990 C   0  0  0  0  0  0  0  0  0  0  0  0
    1.8767   20.3626  -32.9205 H   0  0  0  0  0  0  0  0  0  0  0  0
    0.0040   21.1770  -33.6670 C   0  0  0  0  0  0  0  0  0  0  0  0
    0.5500   21.5780  -34.9520 N   0  0  0  0  0  0  0  0  0  0  0  0
   -0.0950   21.1550  -36.2020 C   0  0  0  0  0  0  0  0  0  0  0  0
   -0.9940   20.5654  -35.9694 H   0  0  0  0  0  0  0  0  0  0  0  0
   -0.3795   22.0425  -36.7863 H   0  0  0  0  0  0  0  0  0  0  0  0
    0.6055   20.5404  -36.7863 H   0  0  0  0  0  0  0  0  0  0  0  0
    1.7590   22.4090  -35.0240 C   0  0  0  0  0  0  0  0  0  0  0  0
    2.1027   22.6452  -34.0061 H   0  0  0  0  0  0  0  0  0  0  0  0
    2.5486   21.8619  -35.5599 H   0  0  0  0  0  0  0  0  0  0  0  0
    1.5311   23.3422  -35.5599 H   0  0  0  0  0  0  0  0  0  0  0  0
   -1.3550   21.3940  -33.3580 C   0  0  0  0  0  0  0  0  0  0  0  0
   -2.0115   21.8714  -34.1003 H   0  0  0  0  0  0  0  0  0  0  0  0
   -1.8770   21.0100  -32.1210 C   0  0  0  0  0  0  0  0  0  0  0  0
   -2.9432   21.1721  -31.9046 H   0  0  0  0  0  0  0  0  0  0  0  0
  1  2  1  0
  2  3  2  0
  3  4  1  0
  4  5  3  0
  3  6  1  0
  6  7  2  0
  7  8  1  0
  7  9  1  0
  9 10  1  0
  9 11  2  0
 11 12  1  0
 11 13  1  0
 13 14  1  0
 13 15  2  0
 15 16  1  0
  2 17  1  0
 17 18  2  0
 18 19  1  0
 18 20  1  0
 20 21  1  0
 20 22  2  0
 22 23  1  0
 23 24  1  0
 24 25  1  0
 24 26  1  0
 24 27  1  0
 23 28  1  0
 28 29  1  0
 28 30  1  0
 28 31  1  0
 22 32  1  0
 32 33  1  0
 32 34  2  0
 34 35  1  0
 15  6  1  0
 34 17  1  0
M  CHG  2  12  -1  14  -1
M  END
>  <UniqueID>  (38) 
38

>  <SMILES>  (38) 
CN(C)c1ccc(/C=C(/C#N)c2ccc([O-])c([O-])c2)cc1

>  <Energy>  (38) 
46.85397493311538

>  <Genealogy>  (38) 
CN(C)c1ccc(C=C(C#N)c2ccc([O-])c([O-])c2)cc1 (protonated)
CN(C)c1ccc(/C=C(/C#N)c2ccc([O-])c([O-])c2)cc1 (cis-trans isomerization)
CN(C)c1ccc(/C=C(/C#N)c2ccc([O-])c([O-])c2)cc1 (3D coordinates assigned)
CN(C)c1ccc(/C=C(/C#N)c2ccc([O-])c([O-])c2)cc1 (optimized conformer: 46.85397493311538 kcal/mol)

>  <smiles>  (38) 
CN(C)c1ccc(C=C(C#N)c2ccc(O)c(O)c2)cc1

>  <score_type>  (38) 
oracle

>  <origin>  (38) 
adgpu

>  <m_score__min__energy>  (38) 
-12.550000000000001

>  <m_primary>  (38) 
energy

$$$$
38:0
     RDKit          3D

 53 56  0  0  0  0  0  0  0  0999 V2000
   -6.0190   25.3530  -29.7410 C   0  0  0  0  0  0  0  0  0  0  0  0
   -4.8600   24.8990  -30.5740 C   0  0  0  0  0  0  0  0  0  0  0  0
   -5.0830   24.1890  -31.5900 O   0  0  0  0  0  0  0  0  0  0  0  0
   -3.5090   25.2830  -30.2870 N   0  0  0  0  0  0  0  0  0  0  0  0
   -2.7230   24.8990  -29.1150 C   0  0  0  0  0  0  0  0  0  0  0  0
   -2.4160   23.3930  -29.0910 C   0  0  0  0  0  0  0  0  0  0  0  0
   -1.6850   22.8890  -30.3470 C   0  0  0  0  0  0  0  0  0  0  0  0
   -1.0020   21.5690  -30.1170 C   0  0  0  0  0  0  0  0  0  0  0  0
   -0.5760   21.1870  -28.8830 N   0  0  0  0  0  0  0  0  0  0  0  0
   -0.1100   19.9440  -29.0910 C   0  0  0  0  0  0  0  0  0  0  0  0
    0.4380   19.0760  -28.1500 C   0  0  0  0  0  0  0  0  0  0  0  0
    0.8500   17.8050  -28.5930 C   0  0  0  0  0  0  0  0  0  0  0  0
    0.7010   17.4370  -29.9490 C   0  0  0  0  0  0  0  0  0  0  0  0
    0.1410   18.3370  -30.8740 C   0  0  0  0  0  0  0  0  0  0  0  0
   -0.2530   19.5910  -30.4010 C   0  0  0  0  0  0  0  0  0  0  0  0
   -0.8160   20.6120  -31.0710 N   0  0  0  0  0  0  0  0  0  0  0  0
   -1.0930   20.6820  -32.5100 C   0  0  0  0  0  0  0  0  0  0  0  0
   -2.5400   20.3630  -32.7850 C   0  0  0  0  0  0  0  0  0  0  0  0
   -3.5290   21.3410  -32.6210 C   0  0  0  0  0  0  0  0  0  0  0  0
   -4.8700   21.0390  -32.8680 C   0  0  0  0  0  0  0  0  0  0  0  0
   -5.2580   19.7650  -33.3380 C   0  0  0  0  0  0  0  0  0  0  0  0
   -6.6730   19.4410  -33.5050 N   0  0  2  0  0  0  0  0  0  0  0  0
   -7.6210   20.4650  -32.9930 C   0  0  0  0  0  0  0  0  0  0  0  0
   -8.8690   19.7740  -32.5130 C   0  0  0  0  0  0  0  0  0  0  0  0
   -9.9470   20.3930  -32.3200 O   0  0  0  0  0  0  0  0  0  0  0  0
   -8.7490   18.3940  -32.2220 N   0  0  0  0  0  0  0  0  0  0  0  0
   -7.1560   17.9890  -32.6740 S   0  0  0  0  0  0  0  0  0  0  0  0
   -7.1470   16.8060  -33.6010 O   0  0  0  0  0  0  0  0  0  0  0  0
   -6.3170   17.7300  -31.4530 O   0  0  0  0  0  0  0  0  0  0  0  0
   -4.2550   18.7700  -33.4310 C   0  0  0  0  0  0  0  0  0  0  0  0
   -2.9150   19.0750  -33.1840 C   0  0  0  0  0  0  0  0  0  0  0  0
   -5.7657   25.2538  -28.6752 H   0  0  0  0  0  0  0  0  0  0  0  0
   -6.2437   26.4056  -29.9680 H   0  0  0  0  0  0  0  0  0  0  0  0
   -6.8988   24.7331  -29.9680 H   0  0  0  0  0  0  0  0  0  0  0  0
   -1.7734   25.4541  -29.1277 H   0  0  0  0  0  0  0  0  0  0  0  0
   -3.3139   25.1379  -28.2185 H   0  0  0  0  0  0  0  0  0  0  0  0
   -1.7860   23.1813  -28.2145 H   0  0  0  0  0  0  0  0  0  0  0  0
   -3.3825   22.8693  -29.0507 H   0  0  0  0  0  0  0  0  0  0  0  0
   -2.4171   22.7720  -31.1596 H   0  0  0  0  0  0  0  0  0  0  0  0
   -0.9124   23.6277  -30.6066 H   0  0  0  0  0  0  0  0  0  0  0  0
    0.5453   19.3734  -27.0964 H   0  0  0  0  0  0  0  0  0  0  0  0
    1.2908   17.0937  -27.8790 H   0  0  0  0  0  0  0  0  0  0  0  0
    1.0249   16.4404  -30.2836 H   0  0  0  0  0  0  0  0  0  0  0  0
    0.0178   18.0630  -31.9322 H   0  0  0  0  0  0  0  0  0  0  0  0
   -0.8707   21.6965  -32.8725 H   0  0  0  0  0  0  0  0  0  0  0  0
   -0.4615   19.9467  -33.0301 H   0  0  0  0  0  0  0  0  0  0  0  0
   -3.2478   22.3534  -32.2956 H   0  0  0  0  0  0  0  0  0  0  0  0
   -5.6377   21.8072  -32.6933 H   0  0  0  0  0  0  0  0  0  0  0  0
   -6.8550   19.3000  -34.5260 H   0  0  0  0  0  0  0  0  0  0  0  0
   -7.1581   21.0133  -32.1593 H   0  0  0  0  0  0  0  0  0  0  0  0
   -7.8720   21.1756  -33.7942 H   0  0  0  0  0  0  0  0  0  0  0  0
   -4.5356   17.7414  -33.7019 H   0  0  0  0  0  0  0  0  0  0  0  0
   -2.1475   18.2962  -33.3040 H   0  0  0  0  0  0  0  0  0  0  0  0
  1  2  1  0
  2  3  2  0
  2  4  1  0
  4  5  1  0
  5  6  1  0
  6  7  1  0
  7  8  1  0
  8  9  2  0
  9 10  1  0
 10 11  2  0
 11 12  1  0
 12 13  2  0
 13 14  1  0
 14 15  2  0
 15 16  1  0
 16 17  1  0
 17 18  1  0
 18 19  2  0
 19 20  1  0
 20 21  2  0
 21 22  1  0
 22 23  1  0
 23 24  1  0
 24 25  2  0
 24 26  1  0
 26 27  1  0
 27 28  2  0
 27 29  2  0
 21 30  1  0
 30 31  2  0
 16  8  1  0
 31 18  1  0
 15 10  1  0
 27 22  1  0
  1 32  1  0
  1 33  1  0
  1 34  1  0
  5 35  1  0
  5 36  1  0
  6 37  1  0
  6 38  1  0
  7 39  1  0
  7 40  1  0
 11 41  1  0
 12 42  1  0
 13 43  1  0
 14 44  1  0
 17 45  1  0
 17 46  1  0
 19 47  1  0
 20 48  1  0
 22 49  1  6
 23 50  1  0
 23 51  1  0
 30 52  1  0
 31 53  1  0
M  CHG  3   4  -1  22   1  26  -1
M  END
>  <UniqueID>  (39) 
39

>  <SMILES>  (39) 
CC(=O)[N-]CCCc1nc2ccccc2n1Cc1ccc([N@@H+]2CC(=O)[N-]S2(=O)=O)cc1

>  <Energy>  (39) 
105.76089144411381

>  <Genealogy>  (39) 
CC(=O)[N-]CCCc1nc2ccccc2n1Cc1ccc([NH+]2CC(=O)[N-]S2(=O)=O)cc1 (protonated)
CC(=O)[N-]CCCc1nc2ccccc2n1Cc1ccc([N@@H+]2CC(=O)[N-]S2(=O)=O)cc1 (chirality)
CC(=O)[N-]CCCc1nc2ccccc2n1Cc1ccc([N@@H+]2CC(=O)[N-]S2(=O)=O)cc1 (3D coordinates assigned)
CC(=O)[N-]CCCc1nc2ccccc2n1Cc1ccc([N@@H+]2CC(=O)[N-]S2(=O)=O)cc1 (nonaromatic ring conformer: 105.76089144411381 kcal/mol)

>  <smiles>  (39) 
CC(=O)NCCCc1nc2ccccc2n1Cc1ccc(N2CC(=O)NS2(=O)=O)cc1

>  <score_type>  (39) 
oracle

>  <origin>  (39) 
adgpu

>  <m_score__min__energy>  (39) 
-11.67

>  <m_primary>  (39) 
energy

$$$$
39:0
     RDKit          3D

 21 21  0  0  0  0  0  0  0  0999 V2000
   -3.8610   25.3850  -30.7580 O   0  0  0  0  0  0  0  0  0  0  0  0
   -4.7940   24.5010  -30.1960 C   0  0  0  0  0  0  0  0  0  0  0  0
   -5.9460   24.2300  -31.1710 C   0  0  0  0  0  0  0  0  0  0  0  0
   -6.5410   22.8160  -31.0520 C   0  0  0  0  0  0  0  0  0  0  0  0
   -7.3120   22.3890  -32.3070 C   0  0  0  0  0  0  0  0  0  0  0  0
   -6.8560   21.0720  -32.7490 N   0  0  0  0  0  0  0  0  0  0  0  0
   -5.7700   20.8420  -33.4650 N   0  0  0  0  0  0  0  0  0  0  0  0
   -5.6980   19.5540  -33.7660 N   0  0  0  0  0  0  0  0  0  0  0  0
   -6.7480   18.9210  -33.2560 N   0  0  0  0  0  0  0  0  0  0  0  0
   -7.4620   19.8770  -32.6310 C   0  0  0  0  0  0  0  0  0  0  0  0
   -8.8850   19.6040  -31.8660 S   0  0  0  0  0  0  0  0  0  0  0  0
   -4.2340   25.6800  -31.6300 H   0  0  0  0  0  0  0  0  0  0  0  0
   -4.2925   23.5513  -29.9579 H   0  0  0  0  0  0  0  0  0  0  0  0
   -5.2054   24.9571  -29.2835 H   0  0  0  0  0  0  0  0  0  0  0  0
   -6.7451   24.9601  -30.9751 H   0  0  0  0  0  0  0  0  0  0  0  0
   -5.5336   24.3195  -32.1868 H   0  0  0  0  0  0  0  0  0  0  0  0
   -5.7209   22.1025  -30.8834 H   0  0  0  0  0  0  0  0  0  0  0  0
   -7.2523   22.8252  -30.2130 H   0  0  0  0  0  0  0  0  0  0  0  0
   -8.3867   22.3442  -32.0769 H   0  0  0  0  0  0  0  0  0  0  0  0
   -7.1326   23.1212  -33.1080 H   0  0  0  0  0  0  0  0  0  0  0  0
   -5.0780   21.5630  -33.7650 H   0  0  0  0  0  0  0  0  0  0  0  0
  1  2  1  0
  2  3  1  0
  3  4  1  0
  4  5  1  0
  5  6  1  0
  6  7  1  0
  7  8  1  0
  8  9  2  0
  9 10  1  0
 10 11  2  0
 10  6  1  0
  1 12  1  0
  2 13  1  0
  2 14  1  0
  3 15  1  0
  3 16  1  0
  4 17  1  0
  4 18  1  0
  5 19  1  0
  5 20  1  0
  7 21  1  0
M  END
>  <UniqueID>  (40) 
40

>  <SMILES>  (40) 
OCCCCn1[nH]nnc1=S

>  <Energy>  (40) 
54.44606546728457

>  <Genealogy>  (40) 
OCCCCn1[nH]nnc1=S (3D coordinates assigned)
OCCCCn1[nH]nnc1=S (optimized conformer: 54.44606546728457 kcal/mol)

>  <smiles>  (40) 
OCCCCn1[nH]nnc1=S

>  <score_type>  (40) 
oracle

>  <origin>  (40) 
adgpu

>  <m_score__min__energy>  (40) 
-5.8799999999999999

>  <m_primary>  (40) 
energy

$$$$
40:0
     RDKit          3D

 57 59  0  0  0  0  0  0  0  0999 V2000
   -9.1160   18.6720  -31.2330 C   0  0  0  0  0  0  0  0  0  0  0  0
   -7.7020   18.8040  -31.8040 C   0  0  0  0  0  0  0  0  0  0  0  0
   -7.2130   17.4570  -32.3330 C   0  0  0  0  0  0  0  0  0  0  0  0
   -7.6820   20.0180  -33.1740 S   0  0  0  0  0  0  0  0  0  0  0  0
   -6.9100   21.3480  -32.2340 C   0  0  0  0  0  0  0  0  0  0  0  0
   -7.7260   22.1450  -31.4240 C   0  0  0  0  0  0  0  0  0  0  0  0
   -7.1820   23.2010  -30.6910 C   0  0  0  0  0  0  0  0  0  0  0  0
   -5.8140   23.4870  -30.7780 C   0  0  0  0  0  0  0  0  0  0  0  0
   -5.1560   24.8640  -29.8980 S   0  0  0  0  0  0  0  0  0  0  0  0
   -6.2780   25.7440  -29.4120 O   0  0  0  0  0  0  0  0  0  0  0  0
   -4.2820   25.6620  -30.8250 O   0  0  0  0  0  0  0  0  0  0  0  0
   -4.2090   24.2910  -28.5470 N   0  0  0  0  0  0  0  0  0  0  0  0
   -2.7820   24.5480  -28.7440 C   0  0  0  0  0  0  0  0  0  0  0  0
   -2.0290   23.4510  -27.9980 C   0  0  0  0  0  0  0  0  0  0  0  0
   -3.0700   22.3930  -27.6680 C   0  0  0  0  0  0  0  0  0  0  0  0
   -4.3230   22.8410  -28.3970 C   0  0  0  0  0  0  0  0  0  0  0  0
   -4.9890   22.6930  -31.5850 C   0  0  0  0  0  0  0  0  0  0  0  0
   -5.5210   21.6120  -32.3090 C   0  0  0  0  0  0  0  0  0  0  0  0
   -4.6110   20.7810  -33.1320 C   0  0  0  0  0  0  0  0  0  0  0  0
   -3.7220   21.3450  -33.8280 O   0  0  0  0  0  0  0  0  0  0  0  0
   -4.7510   19.3380  -33.1700 N   0  0  0  0  0  0  0  0  0  0  0  0
   -3.4870   18.6660  -32.7640 C   0  0  0  0  0  0  0  0  0  0  0  0
   -2.6690   18.1760  -33.9740 C   0  0  0  0  0  0  0  0  0  0  0  0
   -3.4370   17.2400  -34.8330 N   0  0  0  0  0  0  0  0  0  0  0  0
   -3.1110   15.8390  -34.5270 C   0  0  0  0  0  0  0  0  0  0  0  0
   -4.9040   17.4500  -34.7780 C   0  0  0  0  0  0  0  0  0  0  0  0
   -5.2480   18.9160  -34.5030 C   0  0  0  0  0  0  0  0  0  0  0  0
   -9.0695   18.6763  -30.1340 H   0  0  0  0  0  0  0  0  0  0  0  0
   -9.7308   19.5167  -31.5773 H   0  0  0  0  0  0  0  0  0  0  0  0
   -9.5639   17.7281  -31.5773 H   0  0  0  0  0  0  0  0  0  0  0  0
   -7.0383   19.1454  -30.9960 H   0  0  0  0  0  0  0  0  0  0  0  0
   -6.9731   16.7961  -31.4871 H   0  0  0  0  0  0  0  0  0  0  0  0
   -8.0011   16.9960  -32.9464 H   0  0  0  0  0  0  0  0  0  0  0  0
   -6.3127   17.6089  -32.9464 H   0  0  0  0  0  0  0  0  0  0  0  0
   -8.8047   21.9379  -31.3643 H   0  0  0  0  0  0  0  0  0  0  0  0
   -7.8296   23.8101  -30.0433 H   0  0  0  0  0  0  0  0  0  0  0  0
   -2.5357   24.5148  -29.8156 H   0  0  0  0  0  0  0  0  0  0  0  0
   -2.5047   25.5434  -28.3668 H   0  0  0  0  0  0  0  0  0  0  0  0
   -1.2385   23.0267  -28.6345 H   0  0  0  0  0  0  0  0  0  0  0  0
   -1.5393   23.8371  -27.0918 H   0  0  0  0  0  0  0  0  0  0  0  0
   -2.7455   21.4050  -28.0266 H   0  0  0  0  0  0  0  0  0  0  0  0
   -3.2329   22.2946  -26.5846 H   0  0  0  0  0  0  0  0  0  0  0  0
   -4.3834   22.3588  -29.3838 H   0  0  0  0  0  0  0  0  0  0  0  0
   -5.2313   22.5649  -27.8414 H   0  0  0  0  0  0  0  0  0  0  0  0
   -3.9143   22.9177  -31.6528 H   0  0  0  0  0  0  0  0  0  0  0  0
   -5.4840   19.0530  -32.4750 H   0  0  0  0  0  0  0  0  0  0  0  0
   -2.8765   19.3785  -32.1898 H   0  0  0  0  0  0  0  0  0  0  0  0
   -3.7533   17.7861  -32.1600 H   0  0  0  0  0  0  0  0  0  0  0  0
   -2.3731   19.0472  -34.5769 H   0  0  0  0  0  0  0  0  0  0  0  0
   -1.7912   17.6359  -33.5896 H   0  0  0  0  0  0  0  0  0  0  0  0
   -3.0786   15.6999  -33.4363 H   0  0  0  0  0  0  0  0  0  0  0  0
   -3.8800   15.1810  -34.9579 H   0  0  0  0  0  0  0  0  0  0  0  0
   -2.1305   15.5882  -34.9579 H   0  0  0  0  0  0  0  0  0  0  0  0
   -5.3444   17.1536  -35.7414 H   0  0  0  0  0  0  0  0  0  0  0  0
   -5.3109   16.8392  -33.9586 H   0  0  0  0  0  0  0  0  0  0  0  0
   -4.7832   19.5456  -35.2760 H   0  0  0  0  0  0  0  0  0  0  0  0
   -6.3421   19.0284  -34.5207 H   0  0  0  0  0  0  0  0  0  0  0  0
  1  2  1  0
  2  3  1  0
  2  4  1  0
  4  5  1  0
  5  6  2  0
  6  7  1  0
  7  8  2  0
  8  9  1  0
  9 10  2  0
  9 11  2  0
  9 12  1  0
 12 13  1  0
 13 14  1  0
 14 15  1  0
 15 16  1  0
  8 17  1  0
 17 18  2  0
 18 19  1  0
 19 20  2  0
 19 21  1  0
 21 22  1  0
 22 23  1  0
 23 24  1  0
 24 25  1  0
 24 26  1  0
 26 27  1  0
 18  5  1  0
 27 21  1  0
 16 12  1  0
  1 28  1  0
  1 29  1  0
  1 30  1  0
  2 31  1  0
  3 32  1  0
  3 33  1  0
  3 34  1  0
  6 35  1  0
  7 36  1  0
 13 37  1  0
 13 38  1  0
 14 39  1  0
 14 40  1  0
 15 41  1  0
 15 42  1  0
 16 43  1  0
 16 44  1  0
 17 45  1  0
 21 46  1  0
 22 47  1  0
 22 48  1  0
 23 49  1  0
 23 50  1  0
 25 51  1  0
 25 52  1  0
 25 53  1  0
 26 54  1  0
 26 55  1  0
 27 56  1  0
 27 57  1  0
M  CHG  1  21   1
M  END
>  <UniqueID>  (41) 
41

>  <SMILES>  (41) 
CC(C)Sc1ccc(S(=O)(=O)N2CCCC2)cc1C(=O)[NH+]1CCN(C)CC1

>  <Energy>  (41) 
67.11378682843436

>  <Genealogy>  (41) 
CC(C)Sc1ccc(S(=O)(=O)N2CCCC2)cc1C(=O)[NH+]1CCN(C)CC1 (protonated)
CC(C)Sc1ccc(S(=O)(=O)N2CCCC2)cc1C(=O)[NH+]1CCN(C)CC1 (3D coordinates assigned)
CC(C)Sc1ccc(S(=O)(=O)N2CCCC2)cc1C(=O)[NH+]1CCN(C)CC1 (nonaromatic ring conformer: 67.11378682843436 kcal/mol)

>  <smiles>  (41) 
CC(C)Sc1ccc(S(=O)(=O)N2CCCC2)cc1C(=O)N1CCN(C)CC1

>  <score_type>  (41) 
oracle

>  <origin>  (41) 
adgpu

>  <m_score__min__energy>  (41) 
-9.0899999999999999

>  <m_primary>  (41) 
energy

$$$$
41:0
     RDKit          3D

 57 60  0  0  0  0  0  0  0  0999 V2000
   -4.2080   25.6760  -30.8320 O   0  0  0  0  0  0  0  0  0  0  0  0
   -4.3340   24.5680  -30.2420 C   0  0  0  0  0  0  0  0  0  0  0  0
   -5.6450   24.0630  -29.9510 N   0  0  0  0  0  0  0  0  0  0  0  0
   -6.6680   23.8930  -30.9730 C   0  0  0  0  0  0  0  0  0  0  0  0
   -6.5680   22.5250  -31.5900 C   0  0  0  0  0  0  0  0  0  0  0  0
   -7.6150   21.6020  -31.4600 C   0  0  0  0  0  0  0  0  0  0  0  0
   -7.5240   20.3480  -32.0710 C   0  0  0  0  0  0  0  0  0  0  0  0
   -6.3940   20.0310  -32.8280 C   0  0  0  0  0  0  0  0  0  0  0  0
   -6.2450   18.4800  -33.6470 S   0  0  0  0  0  0  0  0  0  0  0  0
   -6.0940   18.7120  -35.1230 O   0  0  0  0  0  0  0  0  0  0  0  0
   -7.5110   17.7050  -33.4260 O   0  0  0  0  0  0  0  0  0  0  0  0
   -4.9130   17.5220  -33.0420 N   0  0  0  0  0  0  0  0  0  0  0  0
   -5.3690   16.4080  -32.1940 C   0  0  0  0  0  0  0  0  0  0  0  0
   -4.7550   15.1280  -32.7170 C   0  0  0  0  0  0  0  0  0  0  0  0
   -4.3450   15.4510  -34.1320 C   0  0  0  0  0  0  0  0  0  0  0  0
   -4.1120   16.9490  -34.1280 C   0  0  0  0  0  0  0  0  0  0  0  0
   -5.3920   20.9390  -32.9430 N   0  0  0  0  0  0  0  0  0  0  0  0
   -5.4500   22.1610  -32.3500 C   0  0  0  0  0  0  0  0  0  0  0  0
   -3.1320   23.8000  -29.8460 C   0  0  0  0  0  0  0  0  0  0  0  0
   -2.8450   22.5630  -30.4500 C   0  0  0  0  0  0  0  0  0  0  0  0
   -1.7280   21.8270  -30.0490 C   0  0  0  0  0  0  0  0  0  0  0  0
   -0.8980   22.3030  -29.0310 C   0  0  0  0  0  0  0  0  0  0  0  0
   -1.1810   23.5220  -28.4080 C   0  0  0  0  0  0  0  0  0  0  0  0
   -0.1730   24.0990  -27.0760 S   0  0  0  0  0  0  0  0  0  0  0  0
    0.8540   23.0530  -26.7410 O   0  0  0  0  0  0  0  0  0  0  0  0
    0.5580   25.3410  -27.5100 O   0  0  0  0  0  0  0  0  0  0  0  0
   -1.1180   24.4490  -25.6460 N   0  0  0  0  0  0  0  0  0  0  0  0
   -0.2580   24.7800  -24.5030 C   0  0  0  0  0  0  0  0  0  0  0  0
   -0.2020   26.2930  -24.3690 C   0  0  0  0  0  0  0  0  0  0  0  0
   -1.2910   26.8320  -25.2740 C   0  0  0  0  0  0  0  0  0  0  0  0
   -1.9850   25.6110  -25.8550 C   0  0  0  0  0  0  0  0  0  0  0  0
   -2.2820   24.2770  -28.8330 C   0  0  0  0  0  0  0  0  0  0  0  0
   -7.6612   24.0129  -30.5156 H   0  0  0  0  0  0  0  0  0  0  0  0
   -6.5198   24.6505  -31.7568 H   0  0  0  0  0  0  0  0  0  0  0  0
   -8.5095   21.8649  -30.8763 H   0  0  0  0  0  0  0  0  0  0  0  0
   -8.3369   19.6159  -31.9563 H   0  0  0  0  0  0  0  0  0  0  0  0
   -5.0487   16.5764  -31.1552 H   0  0  0  0  0  0  0  0  0  0  0  0
   -6.4665   16.3386  -32.2188 H   0  0  0  0  0  0  0  0  0  0  0  0
   -3.8796   14.8432  -32.1148 H   0  0  0  0  0  0  0  0  0  0  0  0
   -5.4548   14.2806  -32.6693 H   0  0  0  0  0  0  0  0  0  0  0  0
   -3.4230   14.9150  -34.4015 H   0  0  0  0  0  0  0  0  0  0  0  0
   -5.1054   15.1483  -34.8669 H   0  0  0  0  0  0  0  0  0  0  0  0
   -3.0460   17.1618  -33.9597 H   0  0  0  0  0  0  0  0  0  0  0  0
   -4.4037   17.3868  -35.0941 H   0  0  0  0  0  0  0  0  0  0  0  0
   -4.6147   22.8670  -32.4679 H   0  0  0  0  0  0  0  0  0  0  0  0
   -3.5027   22.1737  -31.2412 H   0  0  0  0  0  0  0  0  0  0  0  0
   -1.5006   20.8678  -30.5371 H   0  0  0  0  0  0  0  0  0  0  0  0
   -0.0204   21.7177  -28.7192 H   0  0  0  0  0  0  0  0  0  0  0  0
   -0.6747   24.3406  -23.5847 H   0  0  0  0  0  0  0  0  0  0  0  0
    0.7530   24.3762  -24.6605 H   0  0  0  0  0  0  0  0  0  0  0  0
   -0.3882   26.5917  -23.3268 H   0  0  0  0  0  0  0  0  0  0  0  0
    0.7864   26.6864  -24.6489 H   0  0  0  0  0  0  0  0  0  0  0  0
   -2.0035   27.4397  -24.6968 H   0  0  0  0  0  0  0  0  0  0  0  0
   -0.8799   27.4790  -26.0629 H   0  0  0  0  0  0  0  0  0  0  0  0
   -2.9480   25.4532  -25.3472 H   0  0  0  0  0  0  0  0  0  0  0  0
   -2.1734   25.7562  -26.9290 H   0  0  0  0  0  0  0  0  0  0  0  0
   -2.4835   25.2537  -28.3689 H   0  0  0  0  0  0  0  0  0  0  0  0
  1  2  2  0
  2  3  1  0
  3  4  1  0
  4  5  1  0
  5  6  2  0
  6  7  1  0
  7  8  2  0
  8  9  1  0
  9 10  2  0
  9 11  2  0
  9 12  1  0
 12 13  1  0
 13 14  1  0
 14 15  1  0
 15 16  1  0
  8 17  1  0
 17 18  2  0
  2 19  1  0
 19 20  2  0
 20 21  1  0
 21 22  2  0
 22 23  1  0
 23 24  1  0
 24 25  2  0
 24 26  2  0
 24 27  1  0
 27 28  1  0
 28 29  1  0
 29 30  1  0
 30 31  1  0
 23 32  2  0
 18  5  1  0
 32 19  1  0
 16 12  1  0
 31 27  1  0
  4 33  1  0
  4 34  1  0
  6 35  1  0
  7 36  1  0
 13 37  1  0
 13 38  1  0
 14 39  1  0
 14 40  1  0
 15 41  1  0
 15 42  1  0
 16 43  1  0
 16 44  1  0
 18 45  1  0
 20 46  1  0
 21 47  1  0
 22 48  1  0
 28 49  1  0
 28 50  1  0
 29 51  1  0
 29 52  1  0
 30 53  1  0
 30 54  1  0
 31 55  1  0
 31 56  1  0
 32 57  1  0
M  CHG  1   3  -1
M  END
>  <UniqueID>  (42) 
42

>  <SMILES>  (42) 
O=C([N-]Cc1ccc(S(=O)(=O)N2CCCC2)nc1)c1cccc(S(=O)(=O)N2CCCC2)c1

>  <Energy>  (42) 
60.19524157741943

>  <Genealogy>  (42) 
O=C([N-]Cc1ccc(S(=O)(=O)N2CCCC2)nc1)c1cccc(S(=O)(=O)N2CCCC2)c1 (protonated)
O=C([N-]Cc1ccc(S(=O)(=O)N2CCCC2)nc1)c1cccc(S(=O)(=O)N2CCCC2)c1 (3D coordinates assigned)
O=C([N-]Cc1ccc(S(=O)(=O)N2CCCC2)nc1)c1cccc(S(=O)(=O)N2CCCC2)c1 (nonaromatic ring conformer: 60.19524157741943 kcal/mol)

>  <smiles>  (42) 
O=C(NCc1ccc(S(=O)(=O)N2CCCC2)nc1)c1cccc(S(=O)(=O)N2CCCC2)c1

>  <score_type>  (42) 
oracle

>  <origin>  (42) 
adgpu

>  <m_score__min__energy>  (42) 
-12.1

>  <m_primary>  (42) 
energy

$$$$
42:0
     RDKit          3D

 45 47  0  0  0  0  0  0  0  0999 V2000
   -3.6620   23.1420  -31.2790 O   0  0  0  0  0  0  0  0  0  0  0  0
   -3.3070   23.9530  -30.3810 C   0  0  0  0  0  0  0  0  0  0  0  0
   -3.8580   25.2770  -30.3660 N   0  0  0  0  0  0  0  0  0  0  0  0
   -5.2010   25.6050  -30.8350 C   0  0  0  0  0  0  0  0  0  0  0  0
   -6.2660   24.8680  -30.0150 C   0  0  0  0  0  0  0  0  0  0  0  0
   -6.7490   23.6190  -30.7060 C   0  0  0  0  0  0  0  0  0  0  0  0
   -6.4030   23.3730  -32.0440 C   0  0  0  0  0  0  0  0  0  0  0  0
   -6.8950   22.2420  -32.7030 C   0  0  0  0  0  0  0  0  0  0  0  0
   -7.7410   21.3500  -32.0330 C   0  0  0  0  0  0  0  0  0  0  0  0
   -8.2420   20.2230  -32.6820 O   0  0  0  0  0  0  0  0  0  0  0  0
   -8.0900   21.5910  -30.7010 C   0  0  0  0  0  0  0  0  0  0  0  0
   -7.5970   22.7200  -30.0390 C   0  0  0  0  0  0  0  0  0  0  0  0
   -2.3220   23.5460  -29.3450 C   0  0  0  0  0  0  0  0  0  0  0  0
   -2.3660   22.2460  -28.8200 C   0  0  0  0  0  0  0  0  0  0  0  0
   -1.4570   21.8500  -27.8480 C   0  0  0  0  0  0  0  0  0  0  0  0
   -0.4990   22.7510  -27.3940 C   0  0  0  0  0  0  0  0  0  0  0  0
   -0.4440   24.0240  -27.8910 N   0  0  0  0  0  0  0  0  0  0  0  0
    0.6020   24.9380  -27.3950 C   0  0  0  0  0  0  0  0  0  0  0  0
    0.1000   25.7250  -26.2070 C   0  0  0  0  0  0  0  0  0  0  0  0
   -0.2200   25.0600  -25.0120 C   0  0  0  0  0  0  0  0  0  0  0  0
   -0.7130   25.7720  -23.9150 C   0  0  0  0  0  0  0  0  0  0  0  0
   -0.8930   27.1530  -24.0010 C   0  0  0  0  0  0  0  0  0  0  0  0
   -0.5780   27.8300  -25.1830 C   0  0  0  0  0  0  0  0  0  0  0  0
   -0.8110   29.5690  -25.2680 Cl  0  0  0  0  0  0  0  0  0  0  0  0
   -0.0820   27.1210  -26.2880 C   0  0  0  0  0  0  0  0  0  0  0  0
    0.2340   27.8060  -27.4570 O   0  0  0  0  0  0  0  0  0  0  0  0
   -1.3390   24.4370  -28.8500 C   0  0  0  0  0  0  0  0  0  0  0  0
   -1.2930   25.6210  -29.2830 O   0  0  0  0  0  0  0  0  0  0  0  0
   -5.3603   26.6892  -30.7394 H   0  0  0  0  0  0  0  0  0  0  0  0
   -5.2905   25.2928  -31.8860 H   0  0  0  0  0  0  0  0  0  0  0  0
   -5.8353   24.5909  -29.0415 H   0  0  0  0  0  0  0  0  0  0  0  0
   -7.1265   25.5422  -29.8931 H   0  0  0  0  0  0  0  0  0  0  0  0
   -5.7421   24.0728  -32.5763 H   0  0  0  0  0  0  0  0  0  0  0  0
   -6.6167   22.0527  -33.7502 H   0  0  0  0  0  0  0  0  0  0  0  0
   -8.2080   20.1340  -33.6910 H   0  0  0  0  0  0  0  0  0  0  0  0
   -8.7539   20.8911  -30.1724 H   0  0  0  0  0  0  0  0  0  0  0  0
   -7.8748   22.9047  -28.9908 H   0  0  0  0  0  0  0  0  0  0  0  0
   -3.1251   21.5361  -29.1804 H   0  0  0  0  0  0  0  0  0  0  0  0
   -1.4941   20.8295  -27.4391 H   0  0  0  0  0  0  0  0  0  0  0  0
    0.2228   22.4357  -26.6261 H   0  0  0  0  0  0  0  0  0  0  0  0
    1.4822   24.3509  -27.0940 H   0  0  0  0  0  0  0  0  0  0  0  0
    0.8698   25.6401  -28.1983 H   0  0  0  0  0  0  0  0  0  0  0  0
   -0.0816   23.9712  -24.9390 H   0  0  0  0  0  0  0  0  0  0  0  0
   -0.9594   25.2430  -22.9826 H   0  0  0  0  0  0  0  0  0  0  0  0
   -1.2836   27.7103  -23.1368 H   0  0  0  0  0  0  0  0  0  0  0  0
  1  2  2  0
  2  3  1  0
  3  4  1  0
  4  5  1  0
  5  6  1  0
  6  7  2  0
  7  8  1  0
  8  9  2  0
  9 10  1  0
  9 11  1  0
 11 12  2  0
  2 13  1  0
 13 14  2  0
 14 15  1  0
 15 16  2  0
 16 17  1  0
 17 18  1  0
 18 19  1  0
 19 20  2  0
 20 21  1  0
 21 22  2  0
 22 23  1  0
 23 24  1  0
 23 25  2  0
 25 26  1  0
 17 27  1  0
 27 28  2  0
 12  6  1  0
 27 13  1  0
 25 19  1  0
  4 29  1  0
  4 30  1  0
  5 31  1  0
  5 32  1  0
  7 33  1  0
  8 34  1  0
 10 35  1  0
 11 36  1  0
 12 37  1  0
 14 38  1  0
 15 39  1  0
 16 40  1  0
 18 41  1  0
 18 42  1  0
 20 43  1  0
 21 44  1  0
 22 45  1  0
M  CHG  2   3  -1  26  -1
M  END
>  <UniqueID>  (43) 
43

>  <SMILES>  (43) 
O=C([N-]CCc1ccc(O)cc1)c1cccn(Cc2cccc(Cl)c2[O-])c1=O

>  <Energy>  (43) 
48.51592512173781

>  <Genealogy>  (43) 
O=C([N-]CCc1ccc(O)cc1)c1cccn(Cc2cccc(Cl)c2[O-])c1=O (protonated)
O=C([N-]CCc1ccc(O)cc1)c1cccn(Cc2cccc(Cl)c2[O-])c1=O (3D coordinates assigned)
O=C([N-]CCc1ccc(O)cc1)c1cccn(Cc2cccc(Cl)c2[O-])c1=O (optimized conformer: 48.51592512173781 kcal/mol)

>  <smiles>  (43) 
O=C(NCCc1ccc(O)cc1)c1cccn(Cc2cccc(Cl)c2O)c1=O

>  <score_type>  (43) 
oracle

>  <origin>  (43) 
adgpu

>  <m_score__min__energy>  (43) 
-11.23

>  <m_primary>  (43) 
energy

$$$$
43:0
     RDKit          3D

 31 32  0  0  0  0  0  0  0  0999 V2000
   -8.0810   18.7960  -32.3590 C   0  0  0  0  0  0  0  0  0  0  0  0
   -8.1020   20.2880  -32.2200 C   0  0  0  0  0  0  0  0  0  0  0  0
   -9.2880   20.9640  -31.9640 C   0  0  0  0  0  0  0  0  0  0  0  0
   -9.3110   22.3210  -31.8370 C   0  0  0  0  0  0  0  0  0  0  0  0
   -8.1270   23.0150  -31.9680 C   0  0  0  0  0  0  0  0  0  0  0  0
   -6.9200   22.3650  -32.2240 C   0  0  0  0  0  0  0  0  0  0  0  0
   -5.7220   23.2110  -32.3430 C   0  0  0  0  0  0  0  0  0  0  0  0
   -5.7130   24.4920  -31.0460 S   0  0  0  0  0  0  0  0  0  0  0  0
   -4.2930   24.1640  -30.0090 C   0  0  0  0  0  0  0  0  0  0  0  0
   -4.4080   23.1430  -29.1320 N   0  0  0  0  0  0  0  0  0  0  0  0
   -3.4330   22.7830  -28.2980 C   0  0  0  0  0  0  0  0  0  0  0  0
   -3.6230   21.7950  -27.4890 N   0  0  0  0  0  0  0  0  0  0  0  0
   -2.2530   23.4970  -28.3420 C   0  0  0  0  0  0  0  0  0  0  0  0
   -2.1410   24.5430  -29.2440 C   0  0  0  0  0  0  0  0  0  0  0  0
   -0.9250   25.2580  -29.2700 N   0  0  0  0  0  0  0  0  0  0  0  0
   -3.1570   24.8810  -30.0790 N   0  0  0  0  0  0  0  0  0  0  0  0
   -6.9170   20.9920  -32.3500 C   0  0  0  0  0  0  0  0  0  0  0  0
   -8.0745   18.3348  -31.3604 H   0  0  0  0  0  0  0  0  0  0  0  0
   -8.9746   18.4664  -32.9093 H   0  0  0  0  0  0  0  0  0  0  0  0
   -7.1785   18.4917  -32.9093 H   0  0  0  0  0  0  0  0  0  0  0  0
  -10.2239   20.3951  -31.8621 H   0  0  0  0  0  0  0  0  0  0  0  0
  -10.2536   22.8507  -31.6344 H   0  0  0  0  0  0  0  0  0  0  0  0
   -8.1345   24.1104  -31.8680 H   0  0  0  0  0  0  0  0  0  0  0  0
   -4.8243   22.5839  -32.2386 H   0  0  0  0  0  0  0  0  0  0  0  0
   -5.7296   23.7018  -33.3274 H   0  0  0  0  0  0  0  0  0  0  0  0
   -2.9450   21.4340  -26.8060 H   0  0  0  0  0  0  0  0  0  0  0  0
   -1.4174   23.2408  -27.6740 H   0  0  0  0  0  0  0  0  0  0  0  0
   -0.6310   25.8220  -28.4260 H   0  0  0  0  0  0  0  0  0  0  0  0
   -0.2640   25.2840  -30.0730 H   0  0  0  0  0  0  0  0  0  0  0  0
   -3.0850   25.6670  -30.7630 H   0  0  0  0  0  0  0  0  0  0  0  0
   -5.9769   20.4581  -32.5530 H   0  0  0  0  0  0  0  0  0  0  0  0
  1  2  1  0
  2  3  2  0
  3  4  1  0
  4  5  2  0
  5  6  1  0
  6  7  1  0
  7  8  1  0
  8  9  1  0
  9 10  2  0
 10 11  1  0
 11 12  2  3
 11 13  1  0
 13 14  2  0
 14 15  1  0
 14 16  1  0
  6 17  2  0
 17  2  1  0
 16  9  1  0
  1 18  1  0
  1 19  1  0
  1 20  1  0
  3 21  1  0
  4 22  1  0
  5 23  1  0
  7 24  1  0
  7 25  1  0
 12 26  1  0
 13 27  1  0
 15 28  1  0
 15 29  1  0
 16 30  1  0
 17 31  1  0
M  END
>  <smiles>  (44) 
Cc1cccc(CSc2nc(=N)cc(N)[nH]2)c1

>  <score_type>  (44) 
oracle

>  <origin>  (44) 
adgpu

>  <m_score__min__energy>  (44) 
-7.2199999999999998

>  <m_primary>  (44) 
energy

$$$$
44:0
     RDKit          3D

 28 29  0  0  0  0  0  0  0  0999 V2000
   -0.1280   23.9320  -28.2410 H   0  0  0  0  0  0  0  0  0  0  0  0
   -0.6150   23.1030  -28.5580 O   0  0  0  0  0  0  0  0  0  0  0  0
   -1.7830   23.1730  -29.3160 C   0  0  0  0  0  0  0  0  0  0  0  0
   -2.4200   21.9870  -29.6980 C   0  0  0  0  0  0  0  0  0  0  0  0
   -1.9941   21.0184  -29.3973 H   0  0  0  0  0  0  0  0  0  0  0  0
   -3.6000   22.0220  -30.4630 C   0  0  0  0  0  0  0  0  0  0  0  0
   -4.2880   20.7840  -30.8750 C   0  0  0  0  0  0  0  0  0  0  0  0
   -4.0972   19.8508  -30.3248 H   0  0  0  0  0  0  0  0  0  0  0  0
   -5.1150   20.7770  -31.8760 N   0  0  0  0  0  0  0  0  0  0  0  0
   -5.8040   19.6060  -32.3360 C   0  0  0  0  0  0  0  0  0  0  0  0
   -7.0690   19.3320  -31.7970 C   0  0  0  0  0  0  0  0  0  0  0  0
   -7.5165   20.0286  -31.0728 H   0  0  0  0  0  0  0  0  0  0  0  0
   -7.7650   18.1810  -32.1730 C   0  0  0  0  0  0  0  0  0  0  0  0
   -8.7531   17.9704  -31.7378 H   0  0  0  0  0  0  0  0  0  0  0  0
   -7.2100   17.2980  -33.0990 C   0  0  0  0  0  0  0  0  0  0  0  0
   -7.7523   16.3831  -33.3797 H   0  0  0  0  0  0  0  0  0  0  0  0
   -5.9660   17.5750  -33.6700 C   0  0  0  0  0  0  0  0  0  0  0  0
   -5.5355   16.8779  -34.4040 H   0  0  0  0  0  0  0  0  0  0  0  0
   -5.2600   18.7360  -33.3150 C   0  0  0  0  0  0  0  0  0  0  0  0
   -4.0390   19.0430  -34.0000 N   0  0  0  0  0  0  0  0  0  0  0  0
   -3.5310   19.9340  -33.8010 H   0  0  0  0  0  0  0  0  0  0  0  0
   -3.5690   18.3530  -34.6240 H   0  0  0  0  0  0  0  0  0  0  0  0
   -4.1320   23.2650  -30.8400 C   0  0  0  0  0  0  0  0  0  0  0  0
   -5.0543   23.3047  -31.4381 H   0  0  0  0  0  0  0  0  0  0  0  0
   -3.5000   24.4520  -30.4620 C   0  0  0  0  0  0  0  0  0  0  0  0
   -4.0400   25.6750  -30.8430 O   0  0  0  0  0  0  0  0  0  0  0  0
   -2.3250   24.4100  -29.7000 C   0  0  0  0  0  0  0  0  0  0  0  0
   -1.7020   25.5970  -29.3290 O   0  0  0  0  0  0  0  0  0  0  0  0
  1  2  1  0
  2  3  1  0
  3  4  2  0
  4  5  1  0
  4  6  1  0
  6  7  1  0
  7  8  1  0
  7  9  2  0
  9 10  1  0
 10 11  2  0
 11 12  1  0
 11 13  1  0
 13 14  1  0
 13 15  2  0
 15 16  1  0
 15 17  1  0
 17 18  1  0
 17 19  2  0
 19 20  1  0
 20 21  1  0
 20 22  1  0
  6 23  2  0
 23 24  1  0
 23 25  1  0
 25 26  1  0
 25 27  2  0
 27 28  1  0
 27  3  1  0
 19 10  1  0
M  CHG  2  26  -1  28  -1
M  END
>  <UniqueID>  (45) 
44

>  <SMILES>  (45) 
Nc1ccccc1/N=C/c1cc([O-])c([O-])c(O)c1

>  <Energy>  (45) 
35.82363770364283

>  <Genealogy>  (45) 
Nc1ccccc1N=Cc1cc([O-])c([O-])c(O)c1 (protonated)
Nc1ccccc1/N=C/c1cc([O-])c([O-])c(O)c1 (cis-trans isomerization)
Nc1ccccc1/N=C/c1cc([O-])c([O-])c(O)c1 (3D coordinates assigned)
Nc1ccccc1/N=C/c1cc([O-])c([O-])c(O)c1 (optimized conformer: 35.82363770364283 kcal/mol)

>  <smiles>  (45) 
Nc1ccccc1N=Cc1cc(O)c(O)c(O)c1

>  <score_type>  (45) 
oracle

>  <origin>  (45) 
adgpu

>  <m_score__min__energy>  (45) 
-10.81

>  <m_primary>  (45) 
energy

$$$$
45:0
     RDKit          3D

 55 59  0  0  0  0  0  0  0  0999 V2000
   -0.0240   20.4150  -29.2090 C   0  0  0  0  0  0  0  0  0  0  0  0
   -1.2120   21.2980  -29.4050 C   0  0  0  0  0  0  0  0  0  0  0  0
   -2.4890   20.8500  -29.7320 C   0  0  0  0  0  0  0  0  0  0  0  0
   -3.2510   21.9940  -29.8100 C   0  0  0  0  0  0  0  0  0  0  0  0
   -4.6120   22.1520  -30.0530 C   0  0  0  0  0  0  0  0  0  0  0  0
   -5.1440   23.4570  -30.0090 C   0  0  0  0  0  0  0  0  0  0  0  0
   -6.8680   23.7110  -30.2510 S   0  0  0  0  0  0  0  0  0  0  0  0
   -7.6280   22.7980  -29.3370 O   0  0  0  0  0  0  0  0  0  0  0  0
   -7.2160   25.1250  -29.8950 O   0  0  0  0  0  0  0  0  0  0  0  0
   -7.3340   23.3480  -31.9530 C   0  0  2  0  0  0  0  0  0  0  0  0
   -8.7040   22.6630  -32.0550 C   0  0  0  0  0  0  0  0  0  0  0  0
   -8.4330   21.1730  -32.3240 C   0  0  2  0  0  0  0  0  0  0  0  0
   -8.7050   20.3080  -31.0810 C   0  0  0  0  0  0  0  0  0  0  0  0
   -7.0300   21.1030  -32.7320 N   0  0  0  0  0  0  0  0  0  0  0  0
   -6.4450   20.0120  -33.4710 C   0  0  0  0  0  0  0  0  0  0  0  0
   -6.8490   19.7710  -34.6460 O   0  0  0  0  0  0  0  0  0  0  0  0
   -5.3780   19.1240  -32.8730 C   0  0  0  0  0  0  0  0  0  0  0  0
   -3.9250   19.5340  -32.9750 C   0  0  0  0  0  0  0  0  0  0  0  0
   -3.5770   20.8890  -33.1100 C   0  0  0  0  0  0  0  0  0  0  0  0
   -2.2260   21.2460  -33.1600 C   0  0  0  0  0  0  0  0  0  0  0  0
   -1.2360   20.2580  -33.0600 C   0  0  0  0  0  0  0  0  0  0  0  0
    0.4630   20.6920  -33.1190 Cl  0  0  0  0  0  0  0  0  0  0  0  0
   -1.6180   18.9260  -32.9160 C   0  0  0  0  0  0  0  0  0  0  0  0
   -2.9360   18.5940  -32.8830 N   0  0  0  0  0  0  0  0  0  0  0  0
   -5.7290   17.6410  -32.7680 C   0  0  0  0  0  0  0  0  0  0  0  0
   -5.7310   18.5040  -31.5210 C   0  0  0  0  0  0  0  0  0  0  0  0
   -6.3450   22.3870  -32.6150 C   0  0  0  0  0  0  0  0  0  0  0  0
   -4.2930   24.5620  -29.7480 C   0  0  0  0  0  0  0  0  0  0  0  0
   -2.9180   24.3660  -29.5190 C   0  0  0  0  0  0  0  0  0  0  0  0
   -2.4310   23.0620  -29.5520 C   0  0  0  0  0  0  0  0  0  0  0  0
   -1.1760   22.6500  -29.3050 N   0  0  0  0  0  0  0  0  0  0  0  0
    0.1585   20.2794  -28.1328 H   0  0  0  0  0  0  0  0  0  0  0  0
   -0.2134   19.4367  -29.6749 H   0  0  0  0  0  0  0  0  0  0  0  0
    0.8581   20.8784  -29.6749 H   0  0  0  0  0  0  0  0  0  0  0  0
   -2.8165   19.8122  -29.8924 H   0  0  0  0  0  0  0  0  0  0  0  0
   -5.2531   21.2855  -30.2726 H   0  0  0  0  0  0  0  0  0  0  0  0
   -7.3483   24.3277  -32.4530 H   0  0  0  0  0  0  0  0  0  0  0  0
   -9.2594   22.7835  -31.1132 H   0  0  0  0  0  0  0  0  0  0  0  0
   -9.3099   23.1068  -32.8587 H   0  0  0  0  0  0  0  0  0  0  0  0
   -9.1026   20.7768  -33.1016 H   0  0  0  0  0  0  0  0  0  0  0  0
   -8.5185   20.9011  -30.1736 H   0  0  0  0  0  0  0  0  0  0  0  0
   -9.7523   19.9716  -31.0904 H   0  0  0  0  0  0  0  0  0  0  0  0
   -8.0387   19.4328  -31.0904 H   0  0  0  0  0  0  0  0  0  0  0  0
   -4.3588   21.6601  -33.1756 H   0  0  0  0  0  0  0  0  0  0  0  0
   -1.9399   22.3016  -33.2777 H   0  0  0  0  0  0  0  0  0  0  0  0
   -0.8519   18.1415  -32.8288 H   0  0  0  0  0  0  0  0  0  0  0  0
   -6.6788   17.2708  -33.1812 H   0  0  0  0  0  0  0  0  0  0  0  0
   -5.2343   16.7036  -33.0623 H   0  0  0  0  0  0  0  0  0  0  0  0
   -6.6822   18.7593  -31.0311 H   0  0  0  0  0  0  0  0  0  0  0  0
   -5.2385   18.4506  -30.5389 H   0  0  0  0  0  0  0  0  0  0  0  0
   -5.4436   22.2816  -31.9934 H   0  0  0  0  0  0  0  0  0  0  0  0
   -6.0270   22.7595  -33.6000 H   0  0  0  0  0  0  0  0  0  0  0  0
   -4.7108   25.5793  -29.7244 H   0  0  0  0  0  0  0  0  0  0  0  0
   -2.2492   25.2164  -29.3202 H   0  0  0  0  0  0  0  0  0  0  0  0
   -0.3550   23.2410  -29.0570 H   0  0  0  0  0  0  0  0  0  0  0  0
  1  2  1  0
  2  3  2  0
  3  4  1  0
  4  5  2  0
  5  6  1  0
  6  7  1  0
  7  8  2  0
  7  9  2  0
  7 10  1  0
 10 11  1  0
 11 12  1  0
 12 13  1  0
 12 14  1  0
 14 15  1  0
 15 16  2  0
 15 17  1  0
 17 18  1  0
 18 19  2  0
 19 20  1  0
 20 21  2  0
 21 22  1  0
 21 23  1  0
 23 24  2  0
 17 25  1  0
 25 26  1  0
 14 27  1  0
  6 28  2  0
 28 29  1  0
 29 30  2  0
 30 31  1  0
 31  2  1  0
 30  4  1  0
 27 10  1  0
 26 17  1  0
 24 18  1  0
  1 32  1  0
  1 33  1  0
  1 34  1  0
  3 35  1  0
  5 36  1  0
 10 37  1  6
 11 38  1  0
 11 39  1  0
 12 40  1  6
 13 41  1  0
 13 42  1  0
 13 43  1  0
 19 44  1  0
 20 45  1  0
 23 46  1  0
 25 47  1  0
 25 48  1  0
 26 49  1  0
 26 50  1  0
 27 51  1  0
 27 52  1  0
 28 53  1  0
 29 54  1  0
 31 55  1  0
M  END
>  <UniqueID>  (46) 
45

>  <SMILES>  (46) 
Cc1cc2cc(S(=O)(=O)[C@@H]3C[C@H](C)N(C(=O)C4(c5ccc(Cl)cn5)CC4)C3)ccc2[nH]1

>  <Energy>  (46) 
356.4728958214639

>  <Genealogy>  (46) 
Cc1cc2cc(S(=O)(=O)[C@@H]3C[C@H](C)N(C(=O)C4(c5ccc(Cl)cn5)CC4)C3)ccc2[nH]1 (chirality)
Cc1cc2cc(S(=O)(=O)[C@@H]3C[C@H](C)N(C(=O)C4(c5ccc(Cl)cn5)CC4)C3)ccc2[nH]1 (3D coordinates assigned)
Cc1cc2cc(S(=O)(=O)[C@@H]3C[C@H](C)N(C(=O)C4(c5ccc(Cl)cn5)CC4)C3)ccc2[nH]1 (nonaromatic ring conformer: 356.4728958214639 kcal/mol)

>  <smiles>  (46) 
Cc1cc2cc(S(=O)(=O)C3CC(C)N(C(=O)C4(c5ccc(Cl)cn5)CC4)C3)ccc2[nH]1

>  <score_type>  (46) 
oracle

>  <origin>  (46) 
adgpu

>  <m_score__min__energy>  (46) 
-11.619999999999999

>  <m_primary>  (46) 
energy

$$$$
46:0
     RDKit          3D

 62 66  0  0  0  0  0  0  0  0999 V2000
   -4.1310   23.9550  -28.3720 O   0  0  0  0  0  0  0  0  0  0  0  0
   -4.0630   23.8030  -29.8660 S   0  0  0  0  0  0  0  0  0  0  0  0
   -3.5470   25.0850  -30.4560 O   0  0  0  0  0  0  0  0  0  0  0  0
   -5.6650   23.4800  -30.5220 C   0  0  0  0  0  0  0  0  0  0  0  0
   -6.0360   23.9840  -31.7780 C   0  0  0  0  0  0  0  0  0  0  0  0
   -7.3030   23.7060  -32.3000 C   0  0  0  0  0  0  0  0  0  0  0  0
   -8.2080   22.9310  -31.5700 C   0  0  0  0  0  0  0  0  0  0  0  0
   -7.8470   22.4340  -30.3140 C   0  0  0  0  0  0  0  0  0  0  0  0
   -6.5810   22.7100  -29.7900 C   0  0  0  0  0  0  0  0  0  0  0  0
   -2.9480   22.4960  -30.2650 C   0  0  0  0  0  0  0  0  0  0  0  0
   -3.3170   21.6030  -31.2190 N   0  0  0  0  0  0  0  0  0  0  0  0
   -2.5180   20.5730  -31.5980 C   0  0  0  0  0  0  0  0  0  0  0  0
   -3.0990   19.4620  -32.8330 S   0  0  0  0  0  0  0  0  0  0  0  0
   -2.7010   19.9720  -34.1890 O   0  0  0  0  0  0  0  0  0  0  0  0
   -2.4660   18.1150  -32.6230 O   0  0  0  0  0  0  0  0  0  0  0  0
   -4.8530   19.3400  -32.7660 C   0  0  0  0  0  0  0  0  0  0  0  0
   -5.4580   18.1510  -32.3320 C   0  0  0  0  0  0  0  0  0  0  0  0
   -6.8510   18.0420  -32.3040 C   0  0  0  0  0  0  0  0  0  0  0  0
   -7.6480   19.1230  -32.7030 C   0  0  0  0  0  0  0  0  0  0  0  0
   -9.3950   18.9810  -32.6740 Cl  0  0  0  0  0  0  0  0  0  0  0  0
   -7.0480   20.3140  -33.1250 C   0  0  0  0  0  0  0  0  0  0  0  0
   -5.6540   20.4250  -33.1530 C   0  0  0  0  0  0  0  0  0  0  0  0
   -1.2630   20.4260  -30.9790 C   0  0  0  0  0  0  0  0  0  0  0  0
   -0.3700   19.3590  -31.3200 N   0  0  0  0  0  0  0  0  0  0  0  0
    0.3500   19.3990  -32.5960 C   0  0  0  0  0  0  0  0  0  0  0  0
    1.8770   19.3160  -32.3740 C   0  0  0  0  0  0  0  0  0  0  0  0
    2.2440   18.9960  -31.0400 O   0  0  0  0  0  0  0  0  0  0  0  0
    1.4660   17.9200  -30.5610 C   0  0  0  0  0  0  0  0  0  0  0  0
    0.0440   18.4090  -30.2840 C   0  0  0  0  0  0  0  0  0  0  0  0
   -0.8890   21.3200  -30.0270 N   0  0  0  0  0  0  0  0  0  0  0  0
   -1.6930   22.3460  -29.6430 C   0  0  0  0  0  0  0  0  0  0  0  0
   -1.2300   23.2450  -28.6240 N   0  0  0  0  0  0  0  0  0  0  0  0
   -0.8470   24.6200  -28.9690 C   0  0  0  0  0  0  0  0  0  0  0  0
   -1.3300   25.6380  -27.9070 C   0  0  0  0  0  0  0  0  0  0  0  0
   -1.8780   25.0480  -26.7400 O   0  0  0  0  0  0  0  0  0  0  0  0
   -1.0610   23.9890  -26.2940 C   0  0  0  0  0  0  0  0  0  0  0  0
   -1.2450   22.7970  -27.2300 C   0  0  0  0  0  0  0  0  0  0  0  0
   -5.3284   24.5992  -32.3532 H   0  0  0  0  0  0  0  0  0  0  0  0
   -7.5879   24.0982  -33.2874 H   0  0  0  0  0  0  0  0  0  0  0  0
   -9.2037   22.7121  -31.9832 H   0  0  0  0  0  0  0  0  0  0  0  0
   -8.5597   21.8255  -29.7380 H   0  0  0  0  0  0  0  0  0  0  0  0
   -6.3017   22.3218  -28.7994 H   0  0  0  0  0  0  0  0  0  0  0  0
   -4.8346   17.3027  -32.0131 H   0  0  0  0  0  0  0  0  0  0  0  0
   -7.3222   17.1064  -31.9683 H   0  0  0  0  0  0  0  0  0  0  0  0
   -7.6732   21.1643  -33.4352 H   0  0  0  0  0  0  0  0  0  0  0  0
   -5.1847   21.3649  -33.4791 H   0  0  0  0  0  0  0  0  0  0  0  0
    0.0301   18.5487  -33.2162 H   0  0  0  0  0  0  0  0  0  0  0  0
    0.1204   20.3505  -33.0979 H   0  0  0  0  0  0  0  0  0  0  0  0
    2.2832   18.5414  -33.0411 H   0  0  0  0  0  0  0  0  0  0  0  0
    2.2876   20.3135  -32.5896 H   0  0  0  0  0  0  0  0  0  0  0  0
    1.4392   17.1209  -31.3165 H   0  0  0  0  0  0  0  0  0  0  0  0
    1.9088   17.5294  -29.6329 H   0  0  0  0  0  0  0  0  0  0  0  0
   -0.6428   17.5498  -30.2822 H   0  0  0  0  0  0  0  0  0  0  0  0
    0.0185   18.9090  -29.3046 H   0  0  0  0  0  0  0  0  0  0  0  0
    0.2491   24.6760  -29.0425 H   0  0  0  0  0  0  0  0  0  0  0  0
   -1.3225   24.8759  -29.9273 H   0  0  0  0  0  0  0  0  0  0  0  0
   -0.4718   26.2583  -27.6090 H   0  0  0  0  0  0  0  0  0  0  0  0
   -2.1373   26.2212  -28.3740 H   0  0  0  0  0  0  0  0  0  0  0  0
   -0.0077   24.3061  -26.3021 H   0  0  0  0  0  0  0  0  0  0  0  0
   -1.3428   23.7060  -25.2690 H   0  0  0  0  0  0  0  0  0  0  0  0
   -0.4272   22.0789  -27.0698 H   0  0  0  0  0  0  0  0  0  0  0  0
   -2.2115   22.3172  -27.0163 H   0  0  0  0  0  0  0  0  0  0  0  0
  1  2  2  0
  2  3  2  0
  2  4  1  0
  4  5  2  0
  5  6  1  0
  6  7  2  0
  7  8  1  0
  8  9  2  0
  2 10  1  0
 10 11  2  0
 11 12  1  0
 12 13  1  0
 13 14  2  0
 13 15  2  0
 13 16  1  0
 16 17  2  0
 17 18  1  0
 18 19  2  0
 19 20  1  0
 19 21  1  0
 21 22  2  0
 12 23  2  0
 23 24  1  0
 24 25  1  0
 25 26  1  0
 26 27  1  0
 27 28  1  0
 28 29  1  0
 23 30  1  0
 30 31  2  0
 31 32  1  0
 32 33  1  0
 33 34  1  0
 34 35  1  0
 35 36  1  0
 36 37  1  0
  9  4  1  0
 31 10  1  0
 37 32  1  0
 22 16  1  0
 29 24  1  0
  5 38  1  0
  6 39  1  0
  7 40  1  0
  8 41  1  0
  9 42  1  0
 17 43  1  0
 18 44  1  0
 21 45  1  0
 22 46  1  0
 25 47  1  0
 25 48  1  0
 26 49  1  0
 26 50  1  0
 28 51  1  0
 28 52  1  0
 29 53  1  0
 29 54  1  0
 33 55  1  0
 33 56  1  0
 34 57  1  0
 34 58  1  0
 36 59  1  0
 36 60  1  0
 37 61  1  0
 37 62  1  0
M  END
>  <UniqueID>  (47) 
46

>  <SMILES>  (47) 
O=S(=O)(c1ccccc1)c1nc(S(=O)(=O)c2ccc(Cl)cc2)c(N2CCOCC2)nc1N1CCOCC1

>  <Energy>  (47) 
94.74093517454797

>  <Genealogy>  (47) 
O=S(=O)(c1ccccc1)c1nc(S(=O)(=O)c2ccc(Cl)cc2)c(N2CCOCC2)nc1N1CCOCC1 (3D coordinates assigned)
O=S(=O)(c1ccccc1)c1nc(S(=O)(=O)c2ccc(Cl)cc2)c(N2CCOCC2)nc1N1CCOCC1 (nonaromatic ring conformer: 94.74093517454797 kcal/mol)

>  <smiles>  (47) 
O=S(=O)(c1ccccc1)c1nc(S(=O)(=O)c2ccc(Cl)cc2)c(N2CCOCC2)nc1N1CCOCC1

>  <score_type>  (47) 
oracle

>  <origin>  (47) 
adgpu

>  <m_score__min__energy>  (47) 
-10.609999999999999

>  <m_primary>  (47) 
energy

$$$$
47:0
     RDKit          3D

 53 56  0  0  0  0  0  0  0  0999 V2000
   -8.6870   23.3900  -31.8510 O   0  0  0  0  0  0  0  0  0  0  0  0
   -7.5850   22.3970  -31.6080 S   0  0  0  0  0  0  0  0  0  0  0  0
   -8.0530   21.4070  -30.5790 O   0  0  0  0  0  0  0  0  0  0  0  0
   -7.2410   21.5560  -33.0850 N   0  0  0  0  0  0  0  0  0  0  0  0
   -6.9020   20.1660  -33.1240 C   0  0  0  0  0  0  0  0  0  0  0  0
   -5.6510   19.7560  -33.6050 C   0  0  0  0  0  0  0  0  0  0  0  0
   -5.3210   18.3960  -33.6800 C   0  0  0  0  0  0  0  0  0  0  0  0
   -6.2640   17.4270  -33.2580 C   0  0  0  0  0  0  0  0  0  0  0  0
   -7.4900   17.8460  -32.7210 C   0  0  0  0  0  0  0  0  0  0  0  0
   -7.8160   19.2050  -32.6530 C   0  0  0  0  0  0  0  0  0  0  0  0
   -9.0540   19.5760  -32.1280 O   0  0  0  0  0  0  0  0  0  0  0  0
   -5.9350   15.9510  -33.2660 C   0  0  0  0  0  0  0  0  0  0  0  0
   -4.7920   15.6110  -34.2270 C   0  0  0  0  0  0  0  0  0  0  0  0
   -3.6100   16.5560  -34.0050 C   0  0  0  0  0  0  0  0  0  0  0  0
   -4.0100   18.0010  -34.3200 C   0  0  0  0  0  0  0  0  0  0  0  0
   -6.1600   23.2330  -30.9970 C   0  0  0  0  0  0  0  0  0  0  0  0
   -6.2050   24.6120  -30.7550 C   0  0  0  0  0  0  0  0  0  0  0  0
   -5.0580   25.2870  -30.3350 C   0  0  0  0  0  0  0  0  0  0  0  0
   -3.8560   24.5950  -30.1540 C   0  0  0  0  0  0  0  0  0  0  0  0
   -2.7350   25.2940  -29.7250 O   0  0  0  0  0  0  0  0  0  0  0  0
   -3.7990   23.2110  -30.4050 C   0  0  0  0  0  0  0  0  0  0  0  0
   -2.3110   22.2830  -30.1800 S   0  0  0  0  0  0  0  0  0  0  0  0
   -2.5840   21.0130  -29.4210 O   0  0  0  0  0  0  0  0  0  0  0  0
   -1.3470   23.1140  -29.3790 O   0  0  0  0  0  0  0  0  0  0  0  0
   -1.6110   21.9140  -31.7370 N   0  0  0  0  0  0  0  0  0  0  0  0
   -2.6750   21.5690  -32.6990 C   0  0  0  0  0  0  0  0  0  0  0  0
   -2.0920   20.7860  -33.8860 C   0  0  0  0  0  0  0  0  0  0  0  0
   -1.4650   19.5610  -33.5250 O   0  0  0  0  0  0  0  0  0  0  0  0
   -1.0500   19.5080  -32.1670 C   0  0  0  0  0  0  0  0  0  0  0  0
   -0.5700   20.8670  -31.6240 C   0  0  0  0  0  0  0  0  0  0  0  0
   -4.9570   22.5370  -30.8160 C   0  0  0  0  0  0  0  0  0  0  0  0
   -4.9191   20.5111  -33.9277 H   0  0  0  0  0  0  0  0  0  0  0  0
   -8.2042   17.0969  -32.3486 H   0  0  0  0  0  0  0  0  0  0  0  0
   -9.2980   20.5410  -31.9450 H   0  0  0  0  0  0  0  0  0  0  0  0
   -5.6430   15.6490  -32.2494 H   0  0  0  0  0  0  0  0  0  0  0  0
   -6.8304   15.4104  -33.6065 H   0  0  0  0  0  0  0  0  0  0  0  0
   -4.4661   14.5753  -34.0506 H   0  0  0  0  0  0  0  0  0  0  0  0
   -5.1497   15.7237  -35.2611 H   0  0  0  0  0  0  0  0  0  0  0  0
   -3.2868   16.4907  -32.9556 H   0  0  0  0  0  0  0  0  0  0  0  0
   -2.7887   16.2608  -34.6745 H   0  0  0  0  0  0  0  0  0  0  0  0
   -3.2214   18.6730  -33.9504 H   0  0  0  0  0  0  0  0  0  0  0  0
   -4.1349   18.0811  -35.4099 H   0  0  0  0  0  0  0  0  0  0  0  0
   -7.1460   25.1638  -30.8963 H   0  0  0  0  0  0  0  0  0  0  0  0
   -5.0995   26.3697  -30.1452 H   0  0  0  0  0  0  0  0  0  0  0  0
   -3.4329   20.9515  -32.1948 H   0  0  0  0  0  0  0  0  0  0  0  0
   -3.1313   22.4971  -33.0738 H   0  0  0  0  0  0  0  0  0  0  0  0
   -2.9100   20.5616  -34.5864 H   0  0  0  0  0  0  0  0  0  0  0  0
   -1.3120   21.4212  -34.3312 H   0  0  0  0  0  0  0  0  0  0  0  0
   -1.8986   19.1675  -31.5555 H   0  0  0  0  0  0  0  0  0  0  0  0
   -0.1969   18.8157  -32.1135 H   0  0  0  0  0  0  0  0  0  0  0  0
   -0.2994   20.7494  -30.5643 H   0  0  0  0  0  0  0  0  0  0  0  0
    0.2947   21.1844  -32.2253 H   0  0  0  0  0  0  0  0  0  0  0  0
   -4.9214   21.4528  -30.9980 H   0  0  0  0  0  0  0  0  0  0  0  0
  1  2  2  0
  2  3  2  0
  2  4  1  0
  4  5  1  0
  5  6  2  0
  6  7  1  0
  7  8  2  0
  8  9  1  0
  9 10  2  0
 10 11  1  0
  8 12  1  0
 12 13  1  0
 13 14  1  0
 14 15  1  0
  2 16  1  0
 16 17  2  0
 17 18  1  0
 18 19  2  0
 19 20  1  0
 19 21  1  0
 21 22  1  0
 22 23  2  0
 22 24  2  0
 22 25  1  0
 25 26  1  0
 26 27  1  0
 27 28  1  0
 28 29  1  0
 29 30  1  0
 21 31  2  0
 10  5  1  0
 31 16  1  0
 15  7  1  0
 30 25  1  0
  6 32  1  0
  9 33  1  0
 11 34  1  0
 12 35  1  0
 12 36  1  0
 13 37  1  0
 13 38  1  0
 14 39  1  0
 14 40  1  0
 15 41  1  0
 15 42  1  0
 17 43  1  0
 18 44  1  0
 26 45  1  0
 26 46  1  0
 27 47  1  0
 27 48  1  0
 29 49  1  0
 29 50  1  0
 30 51  1  0
 30 52  1  0
 31 53  1  0
M  CHG  2   4  -1  20  -1
M  END
>  <UniqueID>  (48) 
47

>  <SMILES>  (48) 
O=S(=O)([N-]c1cc2c(cc1O)CCCC2)c1ccc([O-])c(S(=O)(=O)N2CCOCC2)c1

>  <Energy>  (48) 
75.95749135182506

>  <Genealogy>  (48) 
O=S(=O)([N-]c1cc2c(cc1O)CCCC2)c1ccc([O-])c(S(=O)(=O)N2CCOCC2)c1 (protonated)
O=S(=O)([N-]c1cc2c(cc1O)CCCC2)c1ccc([O-])c(S(=O)(=O)N2CCOCC2)c1 (3D coordinates assigned)
O=S(=O)([N-]c1cc2c(cc1O)CCCC2)c1ccc([O-])c(S(=O)(=O)N2CCOCC2)c1 (nonaromatic ring conformer: 75.95749135182506 kcal/mol)

>  <smiles>  (48) 
O=S(=O)(Nc1cc2c(cc1O)CCCC2)c1ccc(O)c(S(=O)(=O)N2CCOCC2)c1

>  <score_type>  (48) 
oracle

>  <origin>  (48) 
adgpu

>  <m_score__min__energy>  (48) 
-12.4

>  <m_primary>  (48) 
energy

$$$$
