0:0
     RDKit          3D

 59 63  0  0  0  0  0  0  0  0999 V2000
   -0.2820   20.4640  -32.4900 C   0  0  0  0  0  0  0  0  0  0  0  0
   -1.5930   19.9150  -32.9710 C   0  0  0  0  0  0  0  0  0  0  0  0
   -2.7040   20.7590  -33.1200 C   0  0  0  0  0  0  0  0  0  0  0  0
   -3.9360   20.2380  -33.5290 C   0  0  0  0  0  0  0  0  0  0  0  0
   -4.0730   18.8650  -33.7780 C   0  0  0  0  0  0  0  0  0  0  0  0
   -5.6140   18.1960  -34.3120 S   0  0  0  0  0  0  0  0  0  0  0  0
   -6.4070   19.2920  -34.9700 O   0  0  0  0  0  0  0  0  0  0  0  0
   -5.3700   17.1080  -35.3200 O   0  0  0  0  0  0  0  0  0  0  0  0
   -6.4830   17.5650  -32.9270 N   0  0  0  0  0  0  0  0  0  0  0  0
   -5.6730   17.6630  -31.6920 C   0  0  0  0  0  0  0  0  0  0  0  0
   -5.4900   19.1190  -31.2260 C   0  0  0  0  0  0  0  0  0  0  0  0
   -6.7150   19.8950  -31.4450 N   0  0  0  0  0  0  0  0  0  0  0  0
   -6.6590   21.3290  -31.5810 C   0  0  0  0  0  0  0  0  0  0  0  0
   -7.6680   22.0420  -32.2730 C   0  0  0  0  0  0  0  0  0  0  0  0
   -7.5940   23.4470  -32.4190 C   0  0  0  0  0  0  0  0  0  0  0  0
   -6.5130   24.1650  -31.8820 C   0  0  0  0  0  0  0  0  0  0  0  0
   -5.5320   23.4410  -31.2120 C   0  0  0  0  0  0  0  0  0  0  0  0
   -4.3710   23.8080  -30.5830 C   0  0  0  0  0  0  0  0  0  0  0  0
   -3.9120   24.9790  -30.4930 O   0  0  0  0  0  0  0  0  0  0  0  0
   -3.7750   22.6980  -30.0880 N   0  0  0  0  0  0  0  0  0  0  0  0
   -2.5480   22.6360  -29.3380 C   0  0  0  0  0  0  0  0  0  0  0  0
   -1.4450   21.9470  -29.8730 C   0  0  0  0  0  0  0  0  0  0  0  0
   -0.2340   21.8990  -29.1800 C   0  0  0  0  0  0  0  0  0  0  0  0
   -0.1070   22.5400  -27.9490 C   0  0  0  0  0  0  0  0  0  0  0  0
   -1.1910   23.2270  -27.4010 C   0  0  0  0  0  0  0  0  0  0  0  0
   -2.4230   23.2730  -28.0780 C   0  0  0  0  0  0  0  0  0  0  0  0
   -3.5770   24.0070  -27.4490 C   0  0  0  0  0  0  0  0  0  0  0  0
   -4.5230   21.6350  -30.3740 N   0  0  0  0  0  0  0  0  0  0  0  0
   -5.5920   22.0780  -31.0660 C   0  0  0  0  0  0  0  0  0  0  0  0
   -7.9710   19.1650  -31.6320 C   0  0  0  0  0  0  0  0  0  0  0  0
   -7.8360   18.1820  -32.8080 C   0  0  0  0  0  0  0  0  0  0  0  0
   -2.9670   18.0200  -33.6170 C   0  0  0  0  0  0  0  0  0  0  0  0
   -1.7360   18.5390  -33.2090 C   0  0  0  0  0  0  0  0  0  0  0  0
   -0.2683   20.4697  -31.3901 H   0  0  0  0  0  0  0  0  0  0  0  0
    0.5386   19.8339  -32.8636 H   0  0  0  0  0  0  0  0  0  0  0  0
   -0.1552   21.4908  -32.8636 H   0  0  0  0  0  0  0  0  0  0  0  0
   -2.6057   21.8351  -32.9143 H   0  0  0  0  0  0  0  0  0  0  0  0
   -4.7997   20.9073  -33.6556 H   0  0  0  0  0  0  0  0  0  0  0  0
   -6.6170   16.5450  -33.1180 H   0  0  0  0  0  0  0  0  0  0  0  0
   -6.1754   17.0968  -30.8938 H   0  0  0  0  0  0  0  0  0  0  0  0
   -4.6762   17.2522  -31.9104 H   0  0  0  0  0  0  0  0  0  0  0  0
   -5.2457   19.1262  -30.1535 H   0  0  0  0  0  0  0  0  0  0  0  0
   -4.6755   19.5752  -31.8079 H   0  0  0  0  0  0  0  0  0  0  0  0
   -8.5207   21.4959  -32.7027 H   0  0  0  0  0  0  0  0  0  0  0  0
   -8.3900   23.9819  -32.9578 H   0  0  0  0  0  0  0  0  0  0  0  0
   -6.4446   25.2578  -31.9871 H   0  0  0  0  0  0  0  0  0  0  0  0
   -1.5371   21.4416  -30.8457 H   0  0  0  0  0  0  0  0  0  0  0  0
    0.6214   21.3543  -29.6063 H   0  0  0  0  0  0  0  0  0  0  0  0
    0.8501   22.5043  -27.4080 H   0  0  0  0  0  0  0  0  0  0  0  0
   -1.0811   23.7364  -26.4323 H   0  0  0  0  0  0  0  0  0  0  0  0
   -3.4924   23.9532  -26.3536 H   0  0  0  0  0  0  0  0  0  0  0  0
   -3.5589   25.0599  -27.7669 H   0  0  0  0  0  0  0  0  0  0  0  0
   -4.5229   23.5442  -27.7669 H   0  0  0  0  0  0  0  0  0  0  0  0
   -8.2078   18.6059  -30.7148 H   0  0  0  0  0  0  0  0  0  0  0  0
   -8.7769   19.8813  -31.8497 H   0  0  0  0  0  0  0  0  0  0  0  0
   -8.5733   17.3769  -32.6730 H   0  0  0  0  0  0  0  0  0  0  0  0
   -8.0059   18.7597  -33.7285 H   0  0  0  0  0  0  0  0  0  0  0  0
   -3.0686   16.9424  -33.8129 H   0  0  0  0  0  0  0  0  0  0  0  0
   -0.8756   17.8671  -33.0737 H   0  0  0  0  0  0  0  0  0  0  0  0
  1  2  1  0
  2  3  2  0
  3  4  1  0
  4  5  2  0
  5  6  1  0
  6  7  2  0
  6  8  2  0
  6  9  1  0
  9 10  1  0
 10 11  1  0
 11 12  1  0
 12 13  1  0
 13 14  2  0
 14 15  1  0
 15 16  2  0
 16 17  1  0
 17 18  1  0
 18 19  2  0
 18 20  1  0
 20 21  1  0
 21 22  2  0
 22 23  1  0
 23 24  2  0
 24 25  1  0
 25 26  2  0
 26 27  1  0
 20 28  1  0
 28 29  1  0
 12 30  1  0
 30 31  1  0
  5 32  1  0
 32 33  2  0
 33  2  1  0
 31  9  1  0
 29 13  1  0
 29 17  2  0
 26 21  1  0
  1 34  1  0
  1 35  1  0
  1 36  1  0
  3 37  1  0
  4 38  1  0
  9 39  1  0
 10 40  1  0
 10 41  1  0
 11 42  1  0
 11 43  1  0
 14 44  1  0
 15 45  1  0
 16 46  1  0
 22 47  1  0
 23 48  1  0
 24 49  1  0
 25 50  1  0
 27 51  1  0
 27 52  1  0
 27 53  1  0
 30 54  1  0
 30 55  1  0
 31 56  1  0
 31 57  1  0
 32 58  1  0
 33 59  1  0
M  CHG  2   9   1  28  -1
M  END
>  <UniqueID>  (1) 
1

>  <SMILES>  (1) 
Cc1ccc(S(=O)(=O)[NH+]2CCN(c3cccc4c(=O)n(-c5ccccc5C)[n-]c34)CC2)cc1

>  <Energy>  (1) 
119.61188248642272

>  <Genealogy>  (1) 
Cc1ccc(S(=O)(=O)[NH+]2CCN(c3cccc4c(=O)n(-c5ccccc5C)[n-]c34)CC2)cc1 (protonated)
Cc1ccc(S(=O)(=O)[NH+]2CCN(c3cccc4c(=O)n(-c5ccccc5C)[n-]c34)CC2)cc1 (3D coordinates assigned)
Cc1ccc(S(=O)(=O)[NH+]2CCN(c3cccc4c(=O)n(-c5ccccc5C)[n-]c34)CC2)cc1 (nonaromatic ring conformer: 119.61188248642272 kcal/mol)

>  <smiles>  (1) 
Cc1ccc(S(=O)(=O)N2CCN(c3cccc4c(=O)n(-c5ccccc5C)[nH]c34)CC2)cc1

>  <score_type>  (1) 
oracle

>  <origin>  (1) 
adgpu

>  <m_score__min__energy>  (1) 
-9.9399999999999995

>  <m_primary>  (1) 
energy

$$$$
1:0
     RDKit          3D

 59 62  0  0  0  0  0  0  0  0999 V2000
   -2.4730   15.8210  -34.5970 C   0  0  0  0  0  0  0  0  0  0  0  0
   -1.0120   15.4620  -34.8240 C   0  0  0  0  0  0  0  0  0  0  0  0
   -0.1940   16.6130  -34.6070 O   0  0  0  0  0  0  0  0  0  0  0  0
   -0.5310   17.6740  -33.7600 C   0  0  0  0  0  0  0  0  0  0  0  0
   -1.2100   18.8210  -34.2170 C   0  0  0  0  0  0  0  0  0  0  0  0
   -1.5180   19.8560  -33.3240 C   0  0  0  0  0  0  0  0  0  0  0  0
   -1.1870   19.7480  -31.9670 C   0  0  0  0  0  0  0  0  0  0  0  0
   -1.6190   21.0390  -30.8590 S   0  0  0  0  0  0  0  0  0  0  0  0
   -0.3790   21.7340  -30.3620 O   0  0  0  0  0  0  0  0  0  0  0  0
   -2.3870   20.4950  -29.6900 O   0  0  0  0  0  0  0  0  0  0  0  0
   -2.5960   22.1780  -31.7310 N   0  0  0  0  0  0  0  0  0  0  0  0
   -4.0240   22.0650  -31.8100 C   0  0  0  0  0  0  0  0  0  0  0  0
   -4.6030   21.1350  -32.6960 C   0  0  0  0  0  0  0  0  0  0  0  0
   -6.0060   21.0340  -32.7170 C   0  0  0  0  0  0  0  0  0  0  0  0
   -6.7880   21.7500  -31.8530 C   0  0  0  0  0  0  0  0  0  0  0  0
   -6.2470   22.7040  -30.9900 C   0  0  0  0  0  0  0  0  0  0  0  0
   -4.8410   22.8690  -30.9750 C   0  0  0  0  0  0  0  0  0  0  0  0
   -4.1180   24.0150  -29.8310 S   0  0  0  0  0  0  0  0  0  0  0  0
   -3.8680   25.3070  -30.5610 O   0  0  0  0  0  0  0  0  0  0  0  0
   -5.1200   24.2980  -28.7490 O   0  0  0  0  0  0  0  0  0  0  0  0
   -2.6280   23.4560  -29.0650 N   0  0  0  0  0  0  0  0  0  0  0  0
   -2.8620   23.0430  -27.6780 C   0  0  0  0  0  0  0  0  0  0  0  0
   -2.7200   24.2930  -26.8130 C   0  0  0  0  0  0  0  0  0  0  0  0
   -1.8700   25.2460  -27.6410 C   0  0  0  0  0  0  0  0  0  0  0  0
   -1.6020   24.5050  -28.9460 C   0  0  0  0  0  0  0  0  0  0  0  0
   -8.0340   21.2380  -31.8380 N   0  0  0  0  0  0  0  0  0  0  0  0
   -9.0910   21.4770  -30.8570 C   0  0  0  0  0  0  0  0  0  0  0  0
   -7.9680   20.2110  -32.7220 C   0  0  0  0  0  0  0  0  0  0  0  0
   -8.9360   19.4320  -32.9550 O   0  0  0  0  0  0  0  0  0  0  0  0
   -6.7710   20.1080  -33.3380 N   0  0  0  0  0  0  0  0  0  0  0  0
   -6.3420   19.0250  -34.2230 C   0  0  0  0  0  0  0  0  0  0  0  0
   -0.5120   18.6060  -31.5140 C   0  0  0  0  0  0  0  0  0  0  0  0
   -0.1880   17.5810  -32.4070 C   0  0  0  0  0  0  0  0  0  0  0  0
   -2.6748   15.8706  -33.5168 H   0  0  0  0  0  0  0  0  0  0  0  0
   -2.6859   16.7982  -35.0550 H   0  0  0  0  0  0  0  0  0  0  0  0
   -3.1145   15.0538  -35.0550 H   0  0  0  0  0  0  0  0  0  0  0  0
   -0.7177   14.6669  -34.1232 H   0  0  0  0  0  0  0  0  0  0  0  0
   -0.8796   15.1107  -35.8580 H   0  0  0  0  0  0  0  0  0  0  0  0
   -1.4984   18.9040  -35.2753 H   0  0  0  0  0  0  0  0  0  0  0  0
   -2.0240   20.7609  -33.6916 H   0  0  0  0  0  0  0  0  0  0  0  0
   -3.9785   20.5085  -33.3498 H   0  0  0  0  0  0  0  0  0  0  0  0
   -6.8946   23.3105  -30.3399 H   0  0  0  0  0  0  0  0  0  0  0  0
   -2.2500   22.6530  -29.6260 H   0  0  0  0  0  0  0  0  0  0  0  0
   -3.8736   22.6238  -27.5737 H   0  0  0  0  0  0  0  0  0  0  0  0
   -2.1437   22.2684  -27.3714 H   0  0  0  0  0  0  0  0  0  0  0  0
   -3.7060   24.7343  -26.6054 H   0  0  0  0  0  0  0  0  0  0  0  0
   -2.2638   24.0721  -25.8368 H   0  0  0  0  0  0  0  0  0  0  0  0
   -2.4147   26.1822  -27.8330 H   0  0  0  0  0  0  0  0  0  0  0  0
   -0.9389   25.5230  -27.1250 H   0  0  0  0  0  0  0  0  0  0  0  0
   -1.6720   25.1998  -29.7959 H   0  0  0  0  0  0  0  0  0  0  0  0
   -0.5924   24.0682  -28.9487 H   0  0  0  0  0  0  0  0  0  0  0  0
   -8.6773   21.3835  -29.8421 H   0  0  0  0  0  0  0  0  0  0  0  0
   -9.4975   22.4897  -30.9954 H   0  0  0  0  0  0  0  0  0  0  0  0
   -9.8937   20.7377  -30.9954 H   0  0  0  0  0  0  0  0  0  0  0  0
   -6.0034   18.1703  -33.6190 H   0  0  0  0  0  0  0  0  0  0  0  0
   -7.1850   18.7144  -34.8577 H   0  0  0  0  0  0  0  0  0  0  0  0
   -5.5150   19.3760  -34.8577 H   0  0  0  0  0  0  0  0  0  0  0  0
   -0.2366   18.5164  -30.4528 H   0  0  0  0  0  0  0  0  0  0  0  0
    0.3434   16.6899  -32.0414 H   0  0  0  0  0  0  0  0  0  0  0  0
  1  2  1  0
  2  3  1  0
  3  4  1  0
  4  5  2  0
  5  6  1  0
  6  7  2  0
  7  8  1  0
  8  9  2  0
  8 10  2  0
  8 11  1  0
 11 12  1  0
 12 13  2  0
 13 14  1  0
 14 15  2  0
 15 16  1  0
 16 17  2  0
 17 18  1  0
 18 19  2  0
 18 20  2  0
 18 21  1  0
 21 22  1  0
 22 23  1  0
 23 24  1  0
 24 25  1  0
 15 26  1  0
 26 27  1  0
 26 28  1  0
 28 29  2  0
 28 30  1  0
 30 31  1  0
  7 32  1  0
 32 33  2  0
 33  4  1  0
 17 12  1  0
 25 21  1  0
 30 14  1  0
  1 34  1  0
  1 35  1  0
  1 36  1  0
  2 37  1  0
  2 38  1  0
  5 39  1  0
  6 40  1  0
 13 41  1  0
 16 42  1  0
 21 43  1  0
 22 44  1  0
 22 45  1  0
 23 46  1  0
 23 47  1  0
 24 48  1  0
 24 49  1  0
 25 50  1  0
 25 51  1  0
 27 52  1  0
 27 53  1  0
 27 54  1  0
 31 55  1  0
 31 56  1  0
 31 57  1  0
 32 58  1  0
 33 59  1  0
M  CHG  2  11  -1  21   1
M  END
>  <UniqueID>  (2) 
2

>  <SMILES>  (2) 
CCOc1ccc(S(=O)(=O)[N-]c2cc3c(cc2S(=O)(=O)[NH+]2CCCC2)n(C)c(=O)n3C)cc1

>  <Energy>  (2) 
117.70641444989064

>  <Genealogy>  (2) 
CCOc1ccc(S(=O)(=O)[N-]c2cc3c(cc2S(=O)(=O)[NH+]2CCCC2)n(C)c(=O)n3C)cc1 (protonated)
CCOc1ccc(S(=O)(=O)[N-]c2cc3c(cc2S(=O)(=O)[NH+]2CCCC2)n(C)c(=O)n3C)cc1 (3D coordinates assigned)
CCOc1ccc(S(=O)(=O)[N-]c2cc3c(cc2S(=O)(=O)[NH+]2CCCC2)n(C)c(=O)n3C)cc1 (nonaromatic ring conformer: 117.70641444989064 kcal/mol)

>  <smiles>  (2) 
CCOc1ccc(S(=O)(=O)Nc2cc3c(cc2S(=O)(=O)N2CCCC2)n(C)c(=O)n3C)cc1

>  <score_type>  (2) 
oracle

>  <origin>  (2) 
adgpu

>  <m_score__min__energy>  (2) 
-10.08

>  <m_primary>  (2) 
energy

$$$$
2:0
     RDKit          3D

 51 53  0  0  1  0  0  0  0  0999 V2000
   -6.4460   26.0340  -29.4500 C   0  0  0  0  0  0  0  0  0  0  0  0
   -5.8740   24.4650  -30.0470 S   0  0  0  0  0  0  0  0  0  0  0  0
   -7.0480   23.6040  -30.4170 O   0  0  0  0  0  0  0  0  0  0  0  0
   -4.9720   24.6790  -31.2280 O   0  0  0  0  0  0  0  0  0  0  0  0
   -4.9950   23.6110  -28.8380 N   0  0  0  0  0  0  0  0  0  0  0  0
   -3.8030   22.8890  -29.0700 C   0  0  0  0  0  0  0  0  0  0  0  0
   -2.8440   22.7590  -28.0810 C   0  0  0  0  0  0  0  0  0  0  0  0
   -1.7220   22.0140  -28.3000 C   0  0  0  0  0  0  0  0  0  0  0  0
   -1.5140   21.3780  -29.5020 C   0  0  0  0  0  0  0  0  0  0  0  0
   -2.4260   21.4820  -30.4940 C   0  0  0  0  0  0  0  0  0  0  0  0
   -2.1960   20.7830  -31.7880 C   0  0  0  0  0  0  0  0  0  0  0  0
   -3.0020   19.8050  -32.0610 N   0  0  0  0  0  0  0  0  0  0  0  0
   -2.9140   19.1290  -33.2920 C   0  0  0  0  0  0  0  0  0  0  0  0
   -3.7690   18.3010  -33.3770 N   0  0  0  0  0  0  0  0  0  0  0  0
   -4.8040   17.5290  -33.1040 C   0  0  0  0  0  0  0  0  0  0  0  0
   -6.0220   18.3860  -32.8040 C   0  0  0  0  0  0  0  0  0  0  0  0
   -7.2230   17.7980  -32.4390 C   0  0  0  0  0  0  0  0  0  0  0  0
   -8.3450   18.5500  -32.1810 C   0  0  0  0  0  0  0  0  0  0  0  0
   -8.3100   19.9400  -32.2780 C   0  0  0  0  0  0  0  0  0  0  0  0
   -7.1070   20.5310  -32.6430 C   0  0  0  0  0  0  0  0  0  0  0  0
   -7.1060   22.0090  -32.7110 C   0  0  0  0  0  0  0  0  0  0  0  0
   -5.7900   22.5690  -32.5380 N   0  0  0  0  0  0  0  0  0  0  0  0
   -6.0010   19.7480  -32.8960 C   0  0  0  0  0  0  0  0  0  0  0  0
   -1.9470   19.5240  -34.2080 C   0  0  0  0  0  0  0  0  0  0  0  0
   -1.1180   20.5720  -33.8500 C   0  0  0  0  0  0  0  0  0  0  0  0
   -0.0300   21.0550  -34.7700 C   0  0  0  0  0  0  0  0  0  0  0  0
   -0.1110   20.2800  -35.9180 F   0  0  0  0  0  0  0  0  0  0  0  0
   -0.2970   22.4030  -35.0100 F   0  0  0  0  0  0  0  0  0  0  0  0
    1.2090   20.9570  -34.2120 F   0  0  0  0  0  0  0  0  0  0  0  0
   -1.2600   21.1790  -32.6530 N   0  0  0  0  0  0  0  0  0  0  0  0
   -3.5580   22.2320  -30.2740 C   0  0  0  0  0  0  0  0  0  0  0  0
   -6.4447   26.0304  -28.3500 H   0  0  0  0  0  0  0  0  0  0  0  0
   -5.7802   26.8300  -29.8149 H   0  0  0  0  0  0  0  0  0  0  0  0
   -7.4679   26.2148  -29.8149 H   0  0  0  0  0  0  0  0  0  0  0  0
   -5.3470   23.6110  -27.8240 H   0  0  0  0  0  0  0  0  0  0  0  0
   -2.9871   23.2595  -27.1120 H   0  0  0  0  0  0  0  0  0  0  0  0
   -0.9710   21.9204  -27.5018 H   0  0  0  0  0  0  0  0  0  0  0  0
   -0.6020   20.7826  -29.6563 H   0  0  0  0  0  0  0  0  0  0  0  0
   -5.0161   16.8835  -33.9691 H   0  0  0  0  0  0  0  0  0  0  0  0
   -4.5720   16.9085  -32.2258 H   0  0  0  0  0  0  0  0  0  0  0  0
   -7.2800   16.7028  -32.3536 H   0  0  0  0  0  0  0  0  0  0  0  0
   -9.2813   18.0486  -31.8947 H   0  0  0  0  0  0  0  0  0  0  0  0
   -9.2036   20.5477  -32.0727 H   0  0  0  0  0  0  0  0  0  0  0  0
   -7.4940   22.3171  -33.6931 H   0  0  0  0  0  0  0  0  0  0  0  0
   -7.7378   22.3814  -31.8912 H   0  0  0  0  0  0  0  0  0  0  0  0
   -5.4890   22.5980  -31.5300 H   0  0  0  0  0  0  0  0  0  0  0  0
   -5.6710   23.4790  -33.0130 H   0  0  0  0  0  0  0  0  0  0  0  0
   -5.0613   20.2417  -33.1844 H   0  0  0  0  0  0  0  0  0  0  0  0
   -1.8444   19.0222  -35.1815 H   0  0  0  0  0  0  0  0  0  0  0  0
   -0.6010   21.9540  -32.4490 H   0  0  0  0  0  0  0  0  0  0  0  0
   -4.3001   22.3165  -31.0816 H   0  0  0  0  0  0  0  0  0  0  0  0
  1  2  1  0
  2  3  2  0
  2  4  2  0
  2  5  1  0
  5  6  1  0
  6  7  2  0
  7  8  1  0
  8  9  2  0
  9 10  1  0
 10 11  1  0
 11 12  2  0
 12 13  1  0
 13 14  2  0
 14 15  1  0
 15 16  1  0
 16 17  2  0
 17 18  1  0
 18 19  2  0
 19 20  1  0
 20 21  1  0
 21 22  1  0
 20 23  2  0
 13 24  1  0
 24 25  2  0
 25 26  1  0
 26 27  1  0
 26 28  1  0
 26 29  1  0
 25 30  1  0
 10 31  2  0
 31  6  1  0
 30 11  1  0
 23 16  1  0
  1 32  1  0
  1 33  1  0
  1 34  1  0
  5 35  1  0
  7 36  1  0
  8 37  1  0
  9 38  1  0
 15 39  1  0
 15 40  1  0
 17 41  1  0
 18 42  1  0
 19 43  1  0
 21 44  1  0
 21 45  1  0
 22 46  1  0
 22 47  1  0
 23 48  1  0
 24 49  1  0
 30 50  1  0
 31 51  1  0
M  END
>  <smiles>  (3) 
CS(=O)(=O)Nc1cccc(-c2nc(=NCc3cccc(CN)c3)cc(C(F)(F)F)[nH]2)c1

>  <score_type>  (3) 
oracle

>  <origin>  (3) 
adgpu

>  <m_score__min__energy>  (3) 
-9.7200000000000006

>  <m_primary>  (3) 
energy

$$$$
3:0
     RDKit          3D

 41 44  0  0  0  0  0  0  0  0999 V2000
   -5.7720   26.1120  -31.2290 O   0  0  0  0  0  0  0  0  0  0  0  0
   -5.2670   24.9520  -30.4190 S   0  0  0  0  0  0  0  0  0  0  0  0
   -5.7560   25.0900  -29.0040 O   0  0  0  0  0  0  0  0  0  0  0  0
   -3.5320   24.9720  -30.4180 N   0  0  0  0  0  0  0  0  0  0  0  0
   -2.6950   24.1910  -29.5540 C   0  0  0  0  0  0  0  0  0  0  0  0
   -2.9930   22.8520  -29.2410 C   0  0  0  0  0  0  0  0  0  0  0  0
   -2.1460   22.1080  -28.4080 C   0  0  0  0  0  0  0  0  0  0  0  0
   -0.9710   22.6990  -27.8990 C   0  0  0  0  0  0  0  0  0  0  0  0
   -0.6910   24.0420  -28.1900 C   0  0  0  0  0  0  0  0  0  0  0  0
   -1.5430   24.7800  -29.0160 C   0  0  0  0  0  0  0  0  0  0  0  0
   -1.2370   26.1060  -29.3020 O   0  0  0  0  0  0  0  0  0  0  0  0
   -0.0660   21.9360  -26.9600 C   0  0  0  0  0  0  0  0  0  0  0  0
   -0.2270   20.4810  -27.0900 N   0  0  0  0  0  0  0  0  0  0  0  0
   -1.6390   20.1010  -26.9740 C   0  0  0  0  0  0  0  0  0  0  0  0
   -2.4550   20.6570  -28.1470 C   0  0  0  0  0  0  0  0  0  0  0  0
   -5.8560   23.4560  -31.1360 C   0  0  0  0  0  0  0  0  0  0  0  0
   -4.9950   22.6490  -31.8900 C   0  0  0  0  0  0  0  0  0  0  0  0
   -5.4660   21.4740  -32.4820 C   0  0  0  0  0  0  0  0  0  0  0  0
   -6.8060   21.0930  -32.3260 C   0  0  0  0  0  0  0  0  0  0  0  0
   -7.2910   19.9180  -32.9220 C   0  0  0  0  0  0  0  0  0  0  0  0
   -8.6300   19.5510  -32.7590 C   0  0  0  0  0  0  0  0  0  0  0  0
   -9.4920   20.3510  -32.0030 C   0  0  0  0  0  0  0  0  0  0  0  0
   -9.0210   21.5230  -31.4050 C   0  0  0  0  0  0  0  0  0  0  0  0
   -7.6790   21.9030  -31.5600 C   0  0  0  0  0  0  0  0  0  0  0  0
   -7.1950   23.0780  -30.9660 C   0  0  0  0  0  0  0  0  0  0  0  0
   -3.8992   22.3846  -29.6539 H   0  0  0  0  0  0  0  0  0  0  0  0
    0.2053   24.5177  -27.7652 H   0  0  0  0  0  0  0  0  0  0  0  0
    0.9785   22.1978  -27.1846 H   0  0  0  0  0  0  0  0  0  0  0  0
   -0.3373   22.2141  -25.9309 H   0  0  0  0  0  0  0  0  0  0  0  0
    0.1330   20.1810  -28.0280 H   0  0  0  0  0  0  0  0  0  0  0  0
   -1.7172   19.0038  -26.9693 H   0  0  0  0  0  0  0  0  0  0  0  0
   -2.0392   20.5195  -26.0387 H   0  0  0  0  0  0  0  0  0  0  0  0
   -2.2206   20.0753  -29.0507 H   0  0  0  0  0  0  0  0  0  0  0  0
   -3.5213   20.5764  -27.8892 H   0  0  0  0  0  0  0  0  0  0  0  0
   -3.9423   22.9416  -32.0170 H   0  0  0  0  0  0  0  0  0  0  0  0
   -4.7828   20.8458  -33.0725 H   0  0  0  0  0  0  0  0  0  0  0  0
   -6.6166   19.2855  -33.5179 H   0  0  0  0  0  0  0  0  0  0  0  0
   -9.0067   18.6296  -33.2272 H   0  0  0  0  0  0  0  0  0  0  0  0
  -10.5446   20.0569  -31.8784 H   0  0  0  0  0  0  0  0  0  0  0  0
   -9.7036   22.1490  -30.8116 H   0  0  0  0  0  0  0  0  0  0  0  0
   -7.8691   23.7054  -30.3643 H   0  0  0  0  0  0  0  0  0  0  0  0
  1  2  2  0
  2  3  2  0
  2  4  1  0
  4  5  1  0
  5  6  2  0
  6  7  1  0
  7  8  2  0
  8  9  1  0
  9 10  2  0
 10 11  1  0
  8 12  1  0
 12 13  1  0
 13 14  1  0
 14 15  1  0
  2 16  1  0
 16 17  2  0
 17 18  1  0
 18 19  2  0
 19 20  1  0
 20 21  2  0
 21 22  1  0
 22 23  2  0
 23 24  1  0
 24 25  2  0
 10  5  1  0
 25 16  1  0
 15  7  1  0
 24 19  1  0
  6 26  1  0
  9 27  1  0
 12 28  1  0
 12 29  1  0
 13 30  1  0
 14 31  1  0
 14 32  1  0
 15 33  1  0
 15 34  1  0
 17 35  1  0
 18 36  1  0
 20 37  1  0
 21 38  1  0
 22 39  1  0
 23 40  1  0
 25 41  1  0
M  CHG  2   4  -1  11  -1
M  END
>  <UniqueID>  (4) 
3

>  <SMILES>  (4) 
O=S(=O)([N-]c1cc2c(cc1[O-])CNCC2)c1ccc2ccccc2c1

>  <Energy>  (4) 
52.59960406254875

>  <Genealogy>  (4) 
O=S(=O)([N-]c1cc2c(cc1[O-])CNCC2)c1ccc2ccccc2c1 (protonated)
O=S(=O)([N-]c1cc2c(cc1[O-])CNCC2)c1ccc2ccccc2c1 (3D coordinates assigned)
O=S(=O)([N-]c1cc2c(cc1[O-])CNCC2)c1ccc2ccccc2c1 (nonaromatic ring conformer: 52.59960406254875 kcal/mol)

>  <smiles>  (4) 
O=S(=O)(Nc1cc2c(cc1O)CNCC2)c1ccc2ccccc2c1

>  <score_type>  (4) 
oracle

>  <origin>  (4) 
adgpu

>  <m_score__min__energy>  (4) 
-14.720000000000001

>  <m_primary>  (4) 
energy

$$$$
4:0
     RDKit          3D

 62 67  0  0  0  0  0  0  0  0999 V2000
    2.3560   22.1540  -35.3760 C   0  0  0  0  0  0  0  0  0  0  0  0
    1.0150   22.3520  -34.9330 O   0  0  0  0  0  0  0  0  0  0  0  0
    0.2640   21.3940  -34.2360 C   0  0  0  0  0  0  0  0  0  0  0  0
    0.6110   20.9660  -32.9230 C   0  0  0  0  0  0  0  0  0  0  0  0
   -0.1590   19.9930  -32.2570 C   0  0  0  0  0  0  0  0  0  0  0  0
   -1.2710   19.4840  -32.9180 C   0  0  0  0  0  0  0  0  0  0  0  0
   -2.1940   18.5420  -32.5310 C   0  0  0  0  0  0  0  0  0  0  0  0
   -3.0530   18.4450  -33.6190 C   0  0  0  0  0  0  0  0  0  0  0  0
   -4.4770   17.3650  -33.7120 S   0  0  0  0  0  0  0  0  0  0  0  0
   -5.5650   18.5830  -32.9750 C   0  0  0  0  0  0  0  0  0  0  0  0
   -6.9380   18.3350  -32.8700 C   0  0  0  0  0  0  0  0  0  0  0  0
   -7.7630   19.2750  -32.3360 N   0  0  0  0  0  0  0  0  0  0  0  0
   -7.2910   20.4700  -31.8860 C   0  0  0  0  0  0  0  0  0  0  0  0
   -8.1700   21.4150  -31.3480 C   0  0  0  0  0  0  0  0  0  0  0  0
   -7.6810   22.6390  -30.8800 C   0  0  0  0  0  0  0  0  0  0  0  0
   -6.3090   22.9230  -30.9360 C   0  0  0  0  0  0  0  0  0  0  0  0
   -5.6890   24.4330  -30.2740 S   0  0  0  0  0  0  0  0  0  0  0  0
   -4.6190   24.9720  -31.1820 O   0  0  0  0  0  0  0  0  0  0  0  0
   -6.7850   25.4570  -30.1790 O   0  0  0  0  0  0  0  0  0  0  0  0
   -5.0040   24.1320  -28.7080 N   0  0  0  0  0  0  0  0  0  0  0  0
   -3.7660   23.4240  -28.5510 C   0  0  0  0  0  0  0  0  0  0  0  0
   -3.7390   22.1420  -27.9820 C   0  0  0  0  0  0  0  0  0  0  0  0
   -2.5300   21.4460  -27.8410 C   0  0  0  0  0  0  0  0  0  0  0  0
   -1.3340   22.0260  -28.3050 C   0  0  0  0  0  0  0  0  0  0  0  0
   -1.3580   23.3200  -28.8440 C   0  0  0  0  0  0  0  0  0  0  0  0
   -2.5620   24.0170  -28.9670 C   0  0  0  0  0  0  0  0  0  0  0  0
   -2.5540   25.2940  -29.5210 O   0  0  0  0  0  0  0  0  0  0  0  0
   -0.0070   21.3230  -28.1330 C   0  0  0  0  0  0  0  0  0  0  0  0
   -0.1440   19.8660  -27.9380 N   0  0  0  0  0  0  0  0  0  0  0  0
   -0.4030   19.1620  -29.2060 C   0  0  0  0  0  0  0  0  0  0  0  0
   -1.1460   19.5540  -26.8980 C   0  0  0  0  0  0  0  0  0  0  0  0
   -2.5500   20.0510  -27.2720 C   0  0  0  0  0  0  0  0  0  0  0  0
   -5.4250   21.9770  -31.4750 C   0  0  0  0  0  0  0  0  0  0  0  0
   -5.9110   20.7550  -31.9600 C   0  0  0  0  0  0  0  0  0  0  0  0
   -5.0510   19.8000  -32.5170 C   0  0  0  0  0  0  0  0  0  0  0  0
   -2.6840   19.2590  -34.5900 O   0  0  0  0  0  0  0  0  0  0  0  0
   -1.6140   19.8910  -34.1800 C   0  0  0  0  0  0  0  0  0  0  0  0
   -0.8670   20.8430  -34.8680 C   0  0  0  0  0  0  0  0  0  0  0  0
    3.0195   22.0560  -34.5041 H   0  0  0  0  0  0  0  0  0  0  0  0
    2.4102   21.2381  -35.9828 H   0  0  0  0  0  0  0  0  0  0  0  0
    2.6726   23.0151  -35.9828 H   0  0  0  0  0  0  0  0  0  0  0  0
    1.4898   21.4000  -32.4236 H   0  0  0  0  0  0  0  0  0  0  0  0
    0.1103   19.6475  -31.2480 H   0  0  0  0  0  0  0  0  0  0  0  0
   -2.2417   17.9919  -31.5796 H   0  0  0  0  0  0  0  0  0  0  0  0
   -7.3510   17.3775  -33.2202 H   0  0  0  0  0  0  0  0  0  0  0  0
   -9.2465   21.1957  -31.2928 H   0  0  0  0  0  0  0  0  0  0  0  0
   -8.3769   23.3833  -30.4655 H   0  0  0  0  0  0  0  0  0  0  0  0
   -5.3600   24.7160  -27.9180 H   0  0  0  0  0  0  0  0  0  0  0  0
   -4.6767   21.6777  -27.6427 H   0  0  0  0  0  0  0  0  0  0  0  0
   -0.4198   23.7907  -29.1731 H   0  0  0  0  0  0  0  0  0  0  0  0
    0.6020   21.5001  -29.0318 H   0  0  0  0  0  0  0  0  0  0  0  0
    0.4657   21.7319  -27.2278 H   0  0  0  0  0  0  0  0  0  0  0  0
   -0.7756   18.1491  -28.9935 H   0  0  0  0  0  0  0  0  0  0  0  0
   -1.1563   19.7157  -29.7856 H   0  0  0  0  0  0  0  0  0  0  0  0
    0.5295   19.0955  -29.7856 H   0  0  0  0  0  0  0  0  0  0  0  0
   -1.1826   18.4635  -26.7582 H   0  0  0  0  0  0  0  0  0  0  0  0
   -0.8426   20.0682  -25.9741 H   0  0  0  0  0  0  0  0  0  0  0  0
   -2.9785   19.3694  -28.0215 H   0  0  0  0  0  0  0  0  0  0  0  0
   -3.1557   20.0707  -26.3540 H   0  0  0  0  0  0  0  0  0  0  0  0
   -4.3476   22.1946  -31.5172 H   0  0  0  0  0  0  0  0  0  0  0  0
   -3.9734   20.0070  -32.5940 H   0  0  0  0  0  0  0  0  0  0  0  0
   -1.1538   21.1576  -35.8823 H   0  0  0  0  0  0  0  0  0  0  0  0
  1  2  1  0
  2  3  1  0
  3  4  2  0
  4  5  1  0
  5  6  2  0
  6  7  1  0
  7  8  2  0
  8  9  1  0
  9 10  1  0
 10 11  2  0
 11 12  1  0
 12 13  2  0
 13 14  1  0
 14 15  2  0
 15 16  1  0
 16 17  1  0
 17 18  2  0
 17 19  2  0
 17 20  1  0
 20 21  1  0
 21 22  2  0
 22 23  1  0
 23 24  2  0
 24 25  1  0
 25 26  2  0
 26 27  1  0
 24 28  1  0
 28 29  1  0
 29 30  1  0
 29 31  1  0
 31 32  1  0
 16 33  2  0
 33 34  1  0
 34 35  2  0
  8 36  1  0
 36 37  1  0
 37 38  2  0
 38  3  1  0
 37  6  1  0
 35 10  1  0
 34 13  1  0
 26 21  1  0
 32 23  1  0
  1 39  1  0
  1 40  1  0
  1 41  1  0
  4 42  1  0
  5 43  1  0
  7 44  1  0
 11 45  1  0
 14 46  1  0
 15 47  1  0
 20 48  1  0
 22 49  1  0
 25 50  1  0
 28 51  1  0
 28 52  1  0
 30 53  1  0
 30 54  1  0
 30 55  1  0
 31 56  1  0
 31 57  1  0
 32 58  1  0
 32 59  1  0
 33 60  1  0
 35 61  1  0
 38 62  1  0
M  CHG  1  27  -1
M  END
>  <UniqueID>  (5) 
4

>  <SMILES>  (5) 
COc1ccc2cc(Sc3cnc4ccc(S(=O)(=O)Nc5cc6c(cc5[O-])CN(C)CC6)cc4c3)oc2c1

>  <Energy>  (5) 
111.12066006559762

>  <Genealogy>  (5) 
COc1ccc2cc(Sc3cnc4ccc(S(=O)(=O)Nc5cc6c(cc5[O-])CN(C)CC6)cc4c3)oc2c1 (protonated)
COc1ccc2cc(Sc3cnc4ccc(S(=O)(=O)Nc5cc6c(cc5[O-])CN(C)CC6)cc4c3)oc2c1 (3D coordinates assigned)
COc1ccc2cc(Sc3cnc4ccc(S(=O)(=O)Nc5cc6c(cc5[O-])CN(C)CC6)cc4c3)oc2c1 (nonaromatic ring conformer: 111.12066006559762 kcal/mol)

>  <smiles>  (5) 
COc1ccc2cc(Sc3cnc4ccc(S(=O)(=O)Nc5cc6c(cc5O)CN(C)CC6)cc4c3)oc2c1

>  <score_type>  (5) 
oracle

>  <origin>  (5) 
adgpu

>  <m_score__min__energy>  (5) 
-15.75

>  <m_primary>  (5) 
energy

$$$$
5:0
     RDKit          3D

 71 75  0  0  0  0  0  0  0  0999 V2000
    0.9950   16.0510  -32.4170 O   0  0  0  0  0  0  0  0  0  0  0  0
    0.1690   16.8490  -31.8920 C   0  0  0  0  0  0  0  0  0  0  0  0
   -0.9160   17.3700  -32.6700 N   0  0  0  0  0  0  0  0  0  0  0  0
   -2.1660   16.7120  -32.9190 C   0  0  0  0  0  0  0  0  0  0  0  0
   -2.2260   15.3160  -32.8140 C   0  0  0  0  0  0  0  0  0  0  0  0
   -3.4250   14.6400  -33.0510 C   0  0  0  0  0  0  0  0  0  0  0  0
   -4.5710   15.3530  -33.4100 C   0  0  0  0  0  0  0  0  0  0  0  0
   -4.5220   16.7480  -33.5470 C   0  0  0  0  0  0  0  0  0  0  0  0
   -5.9730   17.6480  -34.0030 S   0  0  0  0  0  0  0  0  0  0  0  0
   -7.1100   16.6860  -34.2110 O   0  0  0  0  0  0  0  0  0  0  0  0
   -5.7270   18.3620  -35.3030 O   0  0  0  0  0  0  0  0  0  0  0  0
   -6.4180   18.8090  -32.7730 N   0  0  0  0  0  0  0  0  0  0  0  0
   -7.2060   18.1780  -31.6830 C   0  0  0  0  0  0  0  0  0  0  0  0
   -8.7000   18.5250  -31.7400 C   0  0  0  0  0  0  0  0  0  0  0  0
   -8.9180   20.0480  -31.6740 C   0  0  0  0  0  0  0  0  0  0  0  0
   -7.7840   20.8420  -32.3480 C   0  0  0  0  0  0  0  0  0  0  0  0
   -7.0560   19.9900  -33.3940 C   0  0  0  0  0  0  0  0  0  0  0  0
   -3.3150   17.4240  -33.3110 C   0  0  0  0  0  0  0  0  0  0  0  0
    0.3580   17.2920  -30.4910 C   0  0  0  0  0  0  0  0  0  0  0  0
    0.6640   16.3590  -29.4830 C   0  0  0  0  0  0  0  0  0  0  0  0
    0.8740   16.7820  -28.1690 C   0  0  0  0  0  0  0  0  0  0  0  0
    0.7670   18.1360  -27.8410 C   0  0  0  0  0  0  0  0  0  0  0  0
    0.4340   19.0800  -28.8220 C   0  0  0  0  0  0  0  0  0  0  0  0
    0.3330   20.4680  -28.4610 N   0  0  0  0  0  0  0  0  0  0  0  0
   -0.5300   20.9610  -27.4210 C   0  0  0  0  0  0  0  0  0  0  0  0
   -0.9990   20.1620  -26.5660 O   0  0  0  0  0  0  0  0  0  0  0  0
   -0.8400   22.4060  -27.3110 C   0  0  0  0  0  0  0  0  0  0  0  0
   -0.5550   23.1020  -26.1210 C   0  0  0  0  0  0  0  0  0  0  0  0
   -0.8760   24.4550  -25.9980 C   0  0  0  0  0  0  0  0  0  0  0  0
   -1.4820   25.1320  -27.0580 C   0  0  0  0  0  0  0  0  0  0  0  0
   -1.7520   24.4630  -28.2600 C   0  0  0  0  0  0  0  0  0  0  0  0
   -2.4190   25.1250  -29.3410 N   0  0  0  0  0  0  0  0  0  0  0  0
   -3.8790   24.5490  -30.0820 S   0  0  0  0  0  0  0  0  0  0  0  0
   -4.4580   25.6450  -30.9300 O   0  0  0  0  0  0  0  0  0  0  0  0
   -4.8710   24.2040  -29.0050 O   0  0  0  0  0  0  0  0  0  0  0  0
   -3.6070   23.1300  -31.0920 C   0  0  0  0  0  0  0  0  0  0  0  0
   -2.3630   22.4790  -31.0840 C   0  0  0  0  0  0  0  0  0  0  0  0
   -2.1520   21.3560  -31.8930 C   0  0  0  0  0  0  0  0  0  0  0  0
   -3.1790   20.8780  -32.7120 C   0  0  0  0  0  0  0  0  0  0  0  0
   -4.4220   21.5200  -32.7200 C   0  0  0  0  0  0  0  0  0  0  0  0
   -4.6370   22.6420  -31.9100 C   0  0  0  0  0  0  0  0  0  0  0  0
   -1.4550   23.0980  -28.3730 C   0  0  0  0  0  0  0  0  0  0  0  0
    0.2520   18.6540  -30.1510 C   0  0  0  0  0  0  0  0  0  0  0  0
   -1.3231   14.7490  -32.5432 H   0  0  0  0  0  0  0  0  0  0  0  0
   -3.4667   13.5450  -32.9548 H   0  0  0  0  0  0  0  0  0  0  0  0
   -5.5160   14.8182  -33.5860 H   0  0  0  0  0  0  0  0  0  0  0  0
   -7.0973   17.0861  -31.7596 H   0  0  0  0  0  0  0  0  0  0  0  0
   -6.8159   18.5655  -30.7303 H   0  0  0  0  0  0  0  0  0  0  0  0
   -9.1222   18.1420  -32.6808 H   0  0  0  0  0  0  0  0  0  0  0  0
   -9.1994   18.0627  -30.8758 H   0  0  0  0  0  0  0  0  0  0  0  0
   -9.8649   20.2899  -32.1789 H   0  0  0  0  0  0  0  0  0  0  0  0
   -8.9375   20.3344  -30.6121 H   0  0  0  0  0  0  0  0  0  0  0  0
   -8.2103   21.7282  -32.8408 H   0  0  0  0  0  0  0  0  0  0  0  0
   -7.0596   21.1386  -31.5752 H   0  0  0  0  0  0  0  0  0  0  0  0
   -7.7814   19.6507  -34.1481 H   0  0  0  0  0  0  0  0  0  0  0  0
   -6.2715   20.6051  -33.8590 H   0  0  0  0  0  0  0  0  0  0  0  0
   -3.2667   18.5161  -33.4330 H   0  0  0  0  0  0  0  0  0  0  0  0
    0.7382   15.2901  -29.7317 H   0  0  0  0  0  0  0  0  0  0  0  0
    1.1244   16.0471  -27.3897 H   0  0  0  0  0  0  0  0  0  0  0  0
    0.9453   18.4632  -26.8060 H   0  0  0  0  0  0  0  0  0  0  0  0
    1.0230   21.1310  -28.8810 H   0  0  0  0  0  0  0  0  0  0  0  0
   -0.0759   22.5760  -25.2821 H   0  0  0  0  0  0  0  0  0  0  0  0
   -0.6508   24.9893  -25.0632 H   0  0  0  0  0  0  0  0  0  0  0  0
   -1.7485   26.1937  -26.9497 H   0  0  0  0  0  0  0  0  0  0  0  0
   -1.5524   22.8521  -30.4407 H   0  0  0  0  0  0  0  0  0  0  0  0
   -1.1760   20.8487  -31.8841 H   0  0  0  0  0  0  0  0  0  0  0  0
   -3.0100   19.9978  -33.3497 H   0  0  0  0  0  0  0  0  0  0  0  0
   -5.2311   21.1432  -33.3630 H   0  0  0  0  0  0  0  0  0  0  0  0
   -5.6166   23.1423  -31.9152 H   0  0  0  0  0  0  0  0  0  0  0  0
   -1.7046   22.5615  -29.3003 H   0  0  0  0  0  0  0  0  0  0  0  0
    0.0244   19.3936  -30.9328 H   0  0  0  0  0  0  0  0  0  0  0  0
  1  2  2  0
  2  3  1  0
  3  4  1  0
  4  5  2  0
  5  6  1  0
  6  7  2  0
  7  8  1  0
  8  9  1  0
  9 10  2  0
  9 11  2  0
  9 12  1  0
 12 13  1  0
 13 14  1  0
 14 15  1  0
 15 16  1  0
 16 17  1  0
  8 18  2  0
  2 19  1  0
 19 20  2  0
 20 21  1  0
 21 22  2  0
 22 23  1  0
 23 24  1  0
 24 25  1  0
 25 26  2  0
 25 27  1  0
 27 28  2  0
 28 29  1  0
 29 30  2  0
 30 31  1  0
 31 32  1  0
 32 33  1  0
 33 34  2  0
 33 35  2  0
 33 36  1  0
 36 37  2  0
 37 38  1  0
 38 39  2  0
 39 40  1  0
 40 41  2  0
 31 42  2  0
 23 43  2  0
 18  4  1  0
 43 19  1  0
 17 12  1  0
 42 27  1  0
 41 36  1  0
  5 44  1  0
  6 45  1  0
  7 46  1  0
 13 47  1  0
 13 48  1  0
 14 49  1  0
 14 50  1  0
 15 51  1  0
 15 52  1  0
 16 53  1  0
 16 54  1  0
 17 55  1  0
 17 56  1  0
 18 57  1  0
 20 58  1  0
 21 59  1  0
 22 60  1  0
 24 61  1  0
 28 62  1  0
 29 63  1  0
 30 64  1  0
 37 65  1  0
 38 66  1  0
 39 67  1  0
 40 68  1  0
 41 69  1  0
 42 70  1  0
 43 71  1  0
M  CHG  2   3  -1  32  -1
M  END
>  <UniqueID>  (6) 
5

>  <SMILES>  (6) 
O=C([N-]c1cccc(S(=O)(=O)N2CCCCC2)c1)c1cccc(NC(=O)c2cccc([N-]S(=O)(=O)c3ccccc3)c2)c1

>  <Energy>  (6) 
99.62912864635973

>  <Genealogy>  (6) 
O=C([N-]c1cccc(S(=O)(=O)N2CCCCC2)c1)c1cccc(NC(=O)c2cccc([N-]S(=O)(=O)c3ccccc3)c2)c1 (protonated)
O=C([N-]c1cccc(S(=O)(=O)N2CCCCC2)c1)c1cccc(NC(=O)c2cccc([N-]S(=O)(=O)c3ccccc3)c2)c1 (3D coordinates assigned)
O=C([N-]c1cccc(S(=O)(=O)N2CCCCC2)c1)c1cccc(NC(=O)c2cccc([N-]S(=O)(=O)c3ccccc3)c2)c1 (nonaromatic ring conformer: 99.62912864635973 kcal/mol)

>  <smiles>  (6) 
O=C(Nc1cccc(S(=O)(=O)N2CCCCC2)c1)c1cccc(NC(=O)c2cccc(NS(=O)(=O)c3ccccc3)c2)c1

>  <score_type>  (6) 
oracle

>  <origin>  (6) 
adgpu

>  <m_score__min__energy>  (6) 
-14.699999999999999

>  <m_primary>  (6) 
energy

$$$$
6:0
     RDKit          3D

 60 63  0  0  0  0  0  0  0  0999 V2000
   -5.7490   26.4020  -29.8380 O   0  0  0  0  0  0  0  0  0  0  0  0
   -5.2700   25.3750  -30.3880 C   0  0  0  0  0  0  0  0  0  0  0  0
   -3.8500   25.2660  -30.5440 N   0  0  0  0  0  0  0  0  0  0  0  0
   -2.9820   24.5440  -29.6190 C   0  0  0  0  0  0  0  0  0  0  0  0
   -3.5480   23.1510  -29.3370 C   0  0  0  0  0  0  0  0  0  0  0  0
   -3.4450   22.2620  -30.5500 C   0  0  0  0  0  0  0  0  0  0  0  0
   -4.5220   21.4380  -30.9230 C   0  0  0  0  0  0  0  0  0  0  0  0
   -4.4300   20.6320  -32.0610 C   0  0  0  0  0  0  0  0  0  0  0  0
   -3.2690   20.6480  -32.8400 C   0  0  0  0  0  0  0  0  0  0  0  0
   -2.1980   21.4730  -32.4830 C   0  0  0  0  0  0  0  0  0  0  0  0
   -2.2850   22.2800  -31.3440 C   0  0  0  0  0  0  0  0  0  0  0  0
   -6.1830   24.3300  -30.8790 C   0  0  0  0  0  0  0  0  0  0  0  0
   -7.0350   23.6520  -29.9940 C   0  0  0  0  0  0  0  0  0  0  0  0
   -7.8920   22.6530  -30.4640 C   0  0  0  0  0  0  0  0  0  0  0  0
   -7.9010   22.3140  -31.8250 C   0  0  0  0  0  0  0  0  0  0  0  0
   -8.7590   21.1760  -32.3200 C   0  0  0  0  0  0  0  0  0  0  0  0
   -8.6760   19.7060  -31.2250 S   0  0  0  0  0  0  0  0  0  0  0  0
   -7.4280   18.8380  -32.1770 C   0  0  0  0  0  0  0  0  0  0  0  0
   -7.0160   19.3220  -33.4220 C   0  0  0  0  0  0  0  0  0  0  0  0
   -5.9760   18.6780  -34.0930 C   0  0  0  0  0  0  0  0  0  0  0  0
   -5.3710   17.5500  -33.5260 C   0  0  0  0  0  0  0  0  0  0  0  0
   -3.9790   16.7910  -34.2890 S   0  0  0  0  0  0  0  0  0  0  0  0
   -3.9880   17.0730  -35.7670 O   0  0  0  0  0  0  0  0  0  0  0  0
   -4.0500   15.3030  -34.0820 O   0  0  0  0  0  0  0  0  0  0  0  0
   -2.5270   17.4190  -33.5540 N   0  0  0  0  0  0  0  0  0  0  0  0
   -1.6520   16.3540  -33.0550 C   0  0  0  0  0  0  0  0  0  0  0  0
   -0.2160   16.8610  -33.1750 C   0  0  0  0  0  0  0  0  0  0  0  0
   -0.3020   18.1460  -33.9860 C   0  0  0  0  0  0  0  0  0  0  0  0
   -1.7240   18.1800  -34.5110 C   0  0  0  0  0  0  0  0  0  0  0  0
   -5.8300   17.0840  -32.2900 C   0  0  0  0  0  0  0  0  0  0  0  0
   -6.8350   17.7350  -31.6470 N   0  0  0  0  0  0  0  0  0  0  0  0
   -7.0630   23.0080  -32.7140 C   0  0  0  0  0  0  0  0  0  0  0  0
   -6.2200   24.0180  -32.2450 C   0  0  0  0  0  0  0  0  0  0  0  0
   -1.9805   24.4456  -30.0631 H   0  0  0  0  0  0  0  0  0  0  0  0
   -2.9220   25.1038  -28.6740 H   0  0  0  0  0  0  0  0  0  0  0  0
   -2.9835   22.6956  -28.5100 H   0  0  0  0  0  0  0  0  0  0  0  0
   -4.6105   23.2551  -29.0721 H   0  0  0  0  0  0  0  0  0  0  0  0
   -5.4399   21.4279  -30.3169 H   0  0  0  0  0  0  0  0  0  0  0  0
   -5.2724   19.9839  -32.3444 H   0  0  0  0  0  0  0  0  0  0  0  0
   -3.1981   20.0112  -33.7342 H   0  0  0  0  0  0  0  0  0  0  0  0
   -1.2864   21.4873  -33.0984 H   0  0  0  0  0  0  0  0  0  0  0  0
   -1.4425   22.9313  -31.0684 H   0  0  0  0  0  0  0  0  0  0  0  0
   -7.0284   23.9082  -28.9243 H   0  0  0  0  0  0  0  0  0  0  0  0
   -8.5615   22.1310  -29.7644 H   0  0  0  0  0  0  0  0  0  0  0  0
   -9.8031   21.5183  -32.3726 H   0  0  0  0  0  0  0  0  0  0  0  0
   -8.3810   20.8779  -33.3091 H   0  0  0  0  0  0  0  0  0  0  0  0
   -7.5060   20.2003  -33.8675 H   0  0  0  0  0  0  0  0  0  0  0  0
   -5.6317   19.0563  -35.0668 H   0  0  0  0  0  0  0  0  0  0  0  0
   -2.8000   18.0460  -32.7600 H   0  0  0  0  0  0  0  0  0  0  0  0
   -1.8878   16.1333  -32.0035 H   0  0  0  0  0  0  0  0  0  0  0  0
   -1.7908   15.4291  -33.6340 H   0  0  0  0  0  0  0  0  0  0  0  0
    0.2043   17.0631  -32.1788 H   0  0  0  0  0  0  0  0  0  0  0  0
    0.4386   16.1193  -33.6559 H   0  0  0  0  0  0  0  0  0  0  0  0
   -0.1036   19.0202  -33.3486 H   0  0  0  0  0  0  0  0  0  0  0  0
    0.4403   18.1747  -34.7973 H   0  0  0  0  0  0  0  0  0  0  0  0
   -2.0840   19.2176  -34.5717 H   0  0  0  0  0  0  0  0  0  0  0  0
   -1.7899   17.7515  -35.5220 H   0  0  0  0  0  0  0  0  0  0  0  0
   -5.3771   16.1895  -31.8376 H   0  0  0  0  0  0  0  0  0  0  0  0
   -7.0709   22.7547  -33.7844 H   0  0  0  0  0  0  0  0  0  0  0  0
   -5.5825   24.5709  -32.9506 H   0  0  0  0  0  0  0  0  0  0  0  0
  1  2  2  0
  2  3  1  0
  3  4  1  0
  4  5  1  0
  5  6  1  0
  6  7  2  0
  7  8  1  0
  8  9  2  0
  9 10  1  0
 10 11  2  0
  2 12  1  0
 12 13  2  0
 13 14  1  0
 14 15  2  0
 15 16  1  0
 16 17  1  0
 17 18  1  0
 18 19  2  0
 19 20  1  0
 20 21  2  0
 21 22  1  0
 22 23  2  0
 22 24  2  0
 22 25  1  0
 25 26  1  0
 26 27  1  0
 27 28  1  0
 28 29  1  0
 21 30  1  0
 30 31  2  0
 15 32  1  0
 32 33  2  0
 11  6  1  0
 33 12  1  0
 31 18  1  0
 29 25  1  0
  4 34  1  0
  4 35  1  0
  5 36  1  0
  5 37  1  0
  7 38  1  0
  8 39  1  0
  9 40  1  0
 10 41  1  0
 11 42  1  0
 13 43  1  0
 14 44  1  0
 16 45  1  0
 16 46  1  0
 19 47  1  0
 20 48  1  0
 25 49  1  0
 26 50  1  0
 26 51  1  0
 27 52  1  0
 27 53  1  0
 28 54  1  0
 28 55  1  0
 29 56  1  0
 29 57  1  0
 30 58  1  0
 32 59  1  0
 33 60  1  0
M  CHG  2   3  -1  25   1
M  END
>  <UniqueID>  (7) 
6

>  <SMILES>  (7) 
O=C([N-]CCc1ccccc1)c1ccc(CSc2ccc(S(=O)(=O)[NH+]3CCCC3)cn2)cc1

>  <Energy>  (7) 
58.341819631271846

>  <Genealogy>  (7) 
O=C([N-]CCc1ccccc1)c1ccc(CSc2ccc(S(=O)(=O)[NH+]3CCCC3)cn2)cc1 (protonated)
O=C([N-]CCc1ccccc1)c1ccc(CSc2ccc(S(=O)(=O)[NH+]3CCCC3)cn2)cc1 (3D coordinates assigned)
O=C([N-]CCc1ccccc1)c1ccc(CSc2ccc(S(=O)(=O)[NH+]3CCCC3)cn2)cc1 (nonaromatic ring conformer: 58.341819631271846 kcal/mol)

>  <smiles>  (7) 
O=C(NCCc1ccccc1)c1ccc(CSc2ccc(S(=O)(=O)N3CCCC3)cn2)cc1

>  <score_type>  (7) 
oracle

>  <origin>  (7) 
adgpu

>  <m_score__min__energy>  (7) 
-11.49

>  <m_primary>  (7) 
energy

$$$$
7:0
     RDKit          3D

 52 55  0  0  0  0  0  0  0  0999 V2000
   -4.9290   12.8850  -31.2410 C   0  0  0  0  0  0  0  0  0  0  0  0
   -4.6460   14.2790  -31.3130 O   0  0  0  0  0  0  0  0  0  0  0  0
   -4.5160   15.0060  -32.5080 C   0  0  0  0  0  0  0  0  0  0  0  0
   -5.3520   16.0990  -32.8090 C   0  0  0  0  0  0  0  0  0  0  0  0
   -5.1980   16.8080  -34.0110 C   0  0  0  0  0  0  0  0  0  0  0  0
   -6.1230   17.9470  -34.3500 C   0  0  0  0  0  0  0  0  0  0  0  0
   -5.7660   19.1430  -33.5670 N   0  0  0  0  0  0  0  0  0  0  0  0
   -4.4520   19.5120  -33.4850 C   0  0  0  0  0  0  0  0  0  0  0  0
   -4.0880   20.6270  -32.8030 N   0  0  0  0  0  0  0  0  0  0  0  0
   -5.0080   21.4100  -32.1900 C   0  0  0  0  0  0  0  0  0  0  0  0
   -4.6020   22.5570  -31.4990 C   0  0  0  0  0  0  0  0  0  0  0  0
   -5.5520   23.3750  -30.8730 C   0  0  0  0  0  0  0  0  0  0  0  0
   -5.0520   24.8330  -30.0220 S   0  0  0  0  0  0  0  0  0  0  0  0
   -4.2120   25.6700  -30.9450 O   0  0  0  0  0  0  0  0  0  0  0  0
   -6.2480   25.6330  -29.5870 O   0  0  0  0  0  0  0  0  0  0  0  0
   -4.1140   24.4100  -28.6260 N   0  0  0  0  0  0  0  0  0  0  0  0
   -3.2410   23.2770  -28.5300 C   0  0  0  0  0  0  0  0  0  0  0  0
   -1.9730   23.3580  -29.1190 C   0  0  0  0  0  0  0  0  0  0  0  0
   -1.0910   22.2740  -29.0570 C   0  0  0  0  0  0  0  0  0  0  0  0
   -1.4730   21.0880  -28.4120 C   0  0  0  0  0  0  0  0  0  0  0  0
   -0.5150   19.9380  -28.3120 C   0  0  0  0  0  0  0  0  0  0  0  0
   -2.7340   21.0120  -27.8030 C   0  0  0  0  0  0  0  0  0  0  0  0
   -3.6160   22.0950  -27.8650 C   0  0  0  0  0  0  0  0  0  0  0  0
   -6.9100   23.0350  -30.9350 C   0  0  0  0  0  0  0  0  0  0  0  0
   -7.3210   21.8900  -31.6230 C   0  0  0  0  0  0  0  0  0  0  0  0
   -6.3730   21.0690  -32.2580 C   0  0  0  0  0  0  0  0  0  0  0  0
   -6.7340   19.9100  -32.9680 C   0  0  0  0  0  0  0  0  0  0  0  0
   -7.9500   19.5790  -33.0500 O   0  0  0  0  0  0  0  0  0  0  0  0
   -4.2090   16.4100  -34.9210 C   0  0  0  0  0  0  0  0  0  0  0  0
   -3.3750   15.3300  -34.6280 C   0  0  0  0  0  0  0  0  0  0  0  0
   -3.5220   14.6270  -33.4280 C   0  0  0  0  0  0  0  0  0  0  0  0
   -2.6720   13.5520  -33.1700 O   0  0  0  0  0  0  0  0  0  0  0  0
   -4.9914   12.5775  -30.1867 H   0  0  0  0  0  0  0  0  0  0  0  0
   -5.8873   12.6791  -31.7403 H   0  0  0  0  0  0  0  0  0  0  0  0
   -4.1269   12.3217  -31.7403 H   0  0  0  0  0  0  0  0  0  0  0  0
   -6.1331   16.4000  -32.0954 H   0  0  0  0  0  0  0  0  0  0  0  0
   -6.0389   18.1765  -35.4225 H   0  0  0  0  0  0  0  0  0  0  0  0
   -7.1556   17.6548  -34.1082 H   0  0  0  0  0  0  0  0  0  0  0  0
   -3.6824   18.8989  -33.9768 H   0  0  0  0  0  0  0  0  0  0  0  0
   -3.5345   22.8172  -31.4471 H   0  0  0  0  0  0  0  0  0  0  0  0
   -1.6683   24.2809  -29.6342 H   0  0  0  0  0  0  0  0  0  0  0  0
   -0.0942   22.3517  -29.5157 H   0  0  0  0  0  0  0  0  0  0  0  0
   -0.3251   19.7100  -27.2528 H   0  0  0  0  0  0  0  0  0  0  0  0
   -0.9488   19.0555  -28.8049 H   0  0  0  0  0  0  0  0  0  0  0  0
    0.4314   20.2052  -28.8049 H   0  0  0  0  0  0  0  0  0  0  0  0
   -3.0309   20.0948  -27.2734 H   0  0  0  0  0  0  0  0  0  0  0  0
   -4.6066   22.0228  -27.3922 H   0  0  0  0  0  0  0  0  0  0  0  0
   -7.6567   23.6728  -30.4394 H   0  0  0  0  0  0  0  0  0  0  0  0
   -8.3890   21.6306  -31.6677 H   0  0  0  0  0  0  0  0  0  0  0  0
   -4.0896   16.9516  -35.8709 H   0  0  0  0  0  0  0  0  0  0  0  0
   -2.5971   15.0298  -35.3455 H   0  0  0  0  0  0  0  0  0  0  0  0
   -2.6770   13.0600  -32.2850 H   0  0  0  0  0  0  0  0  0  0  0  0
  1  2  1  0
  2  3  1  0
  3  4  2  0
  4  5  1  0
  5  6  1  0
  6  7  1  0
  7  8  1  0
  8  9  2  0
  9 10  1  0
 10 11  2  0
 11 12  1  0
 12 13  1  0
 13 14  2  0
 13 15  2  0
 13 16  1  0
 16 17  1  0
 17 18  2  0
 18 19  1  0
 19 20  2  0
 20 21  1  0
 20 22  1  0
 22 23  2  0
 12 24  2  0
 24 25  1  0
 25 26  2  0
 26 27  1  0
 27 28  2  0
  5 29  2  0
 29 30  1  0
 30 31  2  0
 31 32  1  0
 31  3  1  0
 27  7  1  0
 26 10  1  0
 23 17  1  0
  1 33  1  0
  1 34  1  0
  1 35  1  0
  4 36  1  0
  6 37  1  0
  6 38  1  0
  8 39  1  0
 11 40  1  0
 18 41  1  0
 19 42  1  0
 21 43  1  0
 21 44  1  0
 21 45  1  0
 22 46  1  0
 23 47  1  0
 24 48  1  0
 25 49  1  0
 29 50  1  0
 30 51  1  0
 32 52  1  0
M  CHG  1  16  -1
M  END
>  <UniqueID>  (8) 
7

>  <SMILES>  (8) 
COc1cc(Cn2cnc3cc(S(=O)(=O)[N-]c4ccc(C)cc4)ccc3c2=O)ccc1O

>  <Energy>  (8) 
63.635012920799326

>  <Genealogy>  (8) 
COc1cc(Cn2cnc3cc(S(=O)(=O)[N-]c4ccc(C)cc4)ccc3c2=O)ccc1O (protonated)
COc1cc(Cn2cnc3cc(S(=O)(=O)[N-]c4ccc(C)cc4)ccc3c2=O)ccc1O (3D coordinates assigned)
COc1cc(Cn2cnc3cc(S(=O)(=O)[N-]c4ccc(C)cc4)ccc3c2=O)ccc1O (optimized conformer: 63.635012920799326 kcal/mol)

>  <smiles>  (8) 
COc1cc(Cn2cnc3cc(S(=O)(=O)Nc4ccc(C)cc4)ccc3c2=O)ccc1O

>  <score_type>  (8) 
oracle

>  <origin>  (8) 
adgpu

>  <m_score__min__energy>  (8) 
-10.34

>  <m_primary>  (8) 
energy

$$$$
8:0
     RDKit          3D

 46 48  0  0  0  0  0  0  0  0999 V2000
    1.9440   21.3980  -36.3450 C   0  0  0  0  0  0  0  0  0  0  0  0
    1.0630   22.0830  -35.3450 C   0  0  0  0  0  0  0  0  0  0  0  0
    0.5480   23.1920  -35.6450 O   0  0  0  0  0  0  0  0  0  0  0  0
    0.8210   21.5350  -34.0430 N   0  0  0  0  0  0  0  0  0  0  0  0
   -0.4150   20.9860  -33.5660 C   0  0  0  0  0  0  0  0  0  0  0  0
   -1.1000   19.9860  -34.2770 C   0  0  0  0  0  0  0  0  0  0  0  0
   -2.3170   19.4930  -33.8010 C   0  0  0  0  0  0  0  0  0  0  0  0
   -2.8620   19.9960  -32.6170 C   0  0  0  0  0  0  0  0  0  0  0  0
   -2.1870   20.9980  -31.8990 C   0  0  0  0  0  0  0  0  0  0  0  0
   -2.7190   21.5380  -30.6810 N   0  0  0  0  0  0  0  0  0  0  0  0
   -3.1070   22.9020  -30.4600 C   0  0  0  0  0  0  0  0  0  0  0  0
   -2.2310   23.7220  -30.0790 O   0  0  0  0  0  0  0  0  0  0  0  0
   -4.5150   23.3510  -30.6060 C   0  0  0  0  0  0  0  0  0  0  0  0
   -5.5430   22.4000  -30.7470 C   0  0  0  0  0  0  0  0  0  0  0  0
   -6.8760   22.8030  -30.8970 C   0  0  0  0  0  0  0  0  0  0  0  0
   -8.1480   21.5970  -31.1200 S   0  0  0  0  0  0  0  0  0  0  0  0
   -8.9480   21.9510  -32.3430 O   0  0  0  0  0  0  0  0  0  0  0  0
   -9.0720   21.6350  -29.9350 O   0  0  0  0  0  0  0  0  0  0  0  0
   -7.5220   19.9750  -31.3010 N   0  0  0  0  0  0  0  0  0  0  0  0
   -8.5770   19.0070  -31.5900 C   0  0  0  0  0  0  0  0  0  0  0  0
   -7.9080   17.8490  -32.3150 C   0  0  0  0  0  0  0  0  0  0  0  0
   -6.6070   18.4190  -32.8640 C   0  0  0  0  0  0  0  0  0  0  0  0
   -6.5800   19.8710  -32.4130 C   0  0  0  0  0  0  0  0  0  0  0  0
   -7.1880   24.1680  -30.9000 C   0  0  0  0  0  0  0  0  0  0  0  0
   -6.1790   25.1200  -30.7420 C   0  0  0  0  0  0  0  0  0  0  0  0
   -4.8470   24.7210  -30.5960 C   0  0  0  0  0  0  0  0  0  0  0  0
   -3.8620   25.6920  -30.4610 O   0  0  0  0  0  0  0  0  0  0  0  0
   -0.9830   21.5100  -32.3980 C   0  0  0  0  0  0  0  0  0  0  0  0
    2.7060   20.8056  -35.8173 H   0  0  0  0  0  0  0  0  0  0  0  0
    1.3351   20.7338  -36.9759 H   0  0  0  0  0  0  0  0  0  0  0  0
    2.4377   22.1518  -36.9759 H   0  0  0  0  0  0  0  0  0  0  0  0
   -0.6762   19.5901  -35.2117 H   0  0  0  0  0  0  0  0  0  0  0  0
   -2.8473   18.7074  -34.3592 H   0  0  0  0  0  0  0  0  0  0  0  0
   -3.8216   19.6069  -32.2459 H   0  0  0  0  0  0  0  0  0  0  0  0
   -5.2967   21.3280  -30.7393 H   0  0  0  0  0  0  0  0  0  0  0  0
   -9.0378   18.6556  -30.6550 H   0  0  0  0  0  0  0  0  0  0  0  0
   -9.3735   19.4550  -32.2023 H   0  0  0  0  0  0  0  0  0  0  0  0
   -7.7033   17.0237  -31.6171 H   0  0  0  0  0  0  0  0  0  0  0  0
   -8.5460   17.4398  -33.1122 H   0  0  0  0  0  0  0  0  0  0  0  0
   -5.7445   17.8728  -32.4546 H   0  0  0  0  0  0  0  0  0  0  0  0
   -6.5512   18.3297  -33.9589 H   0  0  0  0  0  0  0  0  0  0  0  0
   -5.5682   20.1477  -32.0817 H   0  0  0  0  0  0  0  0  0  0  0  0
   -6.8559   20.5489  -33.2342 H   0  0  0  0  0  0  0  0  0  0  0  0
   -8.2316   24.4914  -31.0273 H   0  0  0  0  0  0  0  0  0  0  0  0
   -6.4335   26.1901  -30.7323 H   0  0  0  0  0  0  0  0  0  0  0  0
   -0.4787   22.3313  -31.8678 H   0  0  0  0  0  0  0  0  0  0  0  0
  1  2  1  0
  2  3  2  0
  2  4  1  0
  4  5  1  0
  5  6  2  0
  6  7  1  0
  7  8  2  0
  8  9  1  0
  9 10  1  0
 10 11  1  0
 11 12  2  0
 11 13  1  0
 13 14  2  0
 14 15  1  0
 15 16  1  0
 16 17  2  0
 16 18  2  0
 16 19  1  0
 19 20  1  0
 20 21  1  0
 21 22  1  0
 22 23  1  0
 15 24  2  0
 24 25  1  0
 25 26  2  0
 26 27  1  0
  9 28  2  0
 28  5  1  0
 26 13  1  0
 23 19  1  0
  1 29  1  0
  1 30  1  0
  1 31  1  0
  6 32  1  0
  7 33  1  0
  8 34  1  0
 14 35  1  0
 20 36  1  0
 20 37  1  0
 21 38  1  0
 21 39  1  0
 22 40  1  0
 22 41  1  0
 23 42  1  0
 23 43  1  0
 24 44  1  0
 25 45  1  0
 28 46  1  0
M  CHG  3   4  -1  10  -1  27  -1
M  END
>  <UniqueID>  (9) 
8

>  <SMILES>  (9) 
CC(=O)[N-]c1cccc([N-]C(=O)c2cc(S(=O)(=O)N3CCCC3)ccc2[O-])c1

>  <Energy>  (9) 
58.761966680650566

>  <Genealogy>  (9) 
CC(=O)[N-]c1cccc([N-]C(=O)c2cc(S(=O)(=O)N3CCCC3)ccc2[O-])c1 (protonated)
CC(=O)[N-]c1cccc([N-]C(=O)c2cc(S(=O)(=O)N3CCCC3)ccc2[O-])c1 (3D coordinates assigned)
CC(=O)[N-]c1cccc([N-]C(=O)c2cc(S(=O)(=O)N3CCCC3)ccc2[O-])c1 (nonaromatic ring conformer: 58.761966680650566 kcal/mol)

>  <smiles>  (9) 
CC(=O)Nc1cccc(NC(=O)c2cc(S(=O)(=O)N3CCCC3)ccc2O)c1

>  <score_type>  (9) 
oracle

>  <origin>  (9) 
adgpu

>  <m_score__min__energy>  (9) 
-13.82

>  <m_primary>  (9) 
energy

$$$$
9:0
     RDKit          3D

 51 54  0  0  0  0  0  0  0  0999 V2000
   -3.1260   21.1720  -29.9500 O   0  0  0  0  0  0  0  0  0  0  0  0
   -2.5820   21.7350  -30.9390 C   0  0  0  0  0  0  0  0  0  0  0  0
   -1.1840   21.3630  -31.3220 C   0  0  0  0  0  0  0  0  0  0  0  0
   -1.1670   20.6920  -32.6970 C   0  0  0  0  0  0  0  0  0  0  0  0
   -2.3520   19.8570  -32.8670 N   0  0  0  0  0  0  0  0  0  0  0  0
   -3.5660   20.2330  -33.5250 C   0  0  0  0  0  0  0  0  0  0  0  0
   -3.8770   21.4180  -33.8150 O   0  0  0  0  0  0  0  0  0  0  0  0
   -4.3570   19.0460  -33.8310 C   0  0  0  0  0  0  0  0  0  0  0  0
   -5.5990   18.9150  -34.4500 C   0  0  0  0  0  0  0  0  0  0  0  0
   -6.1140   17.6180  -34.6260 C   0  0  0  0  0  0  0  0  0  0  0  0
   -5.3820   16.4920  -34.1900 C   0  0  0  0  0  0  0  0  0  0  0  0
   -4.1300   16.6510  -33.5710 C   0  0  0  0  0  0  0  0  0  0  0  0
   -3.6430   17.9460  -33.4040 C   0  0  0  0  0  0  0  0  0  0  0  0
   -2.3960   18.4280  -32.8220 C   0  0  0  0  0  0  0  0  0  0  0  0
   -1.4730   17.7050  -32.3610 O   0  0  0  0  0  0  0  0  0  0  0  0
   -3.2920   22.7310  -31.6920 N   0  0  0  0  0  0  0  0  0  0  0  0
   -4.5490   23.2820  -31.2760 C   0  0  0  0  0  0  0  0  0  0  0  0
   -5.7290   22.5690  -31.5380 C   0  0  0  0  0  0  0  0  0  0  0  0
   -6.9740   23.0870  -31.1560 C   0  0  0  0  0  0  0  0  0  0  0  0
   -8.4490   22.1690  -31.4420 S   0  0  0  0  0  0  0  0  0  0  0  0
   -9.3800   22.9610  -32.3200 O   0  0  0  0  0  0  0  0  0  0  0  0
   -9.1330   21.9130  -30.1280 O   0  0  0  0  0  0  0  0  0  0  0  0
   -8.0420   20.6480  -32.1940 N   0  0  0  0  0  0  0  0  0  0  0  0
   -9.2180   19.7900  -32.3270 C   0  0  0  0  0  0  0  0  0  0  0  0
   -8.7100   18.3570  -32.3300 C   0  0  0  0  0  0  0  0  0  0  0  0
   -7.3260   18.4200  -31.7020 C   0  0  0  0  0  0  0  0  0  0  0  0
   -7.0940   19.8880  -31.3810 C   0  0  0  0  0  0  0  0  0  0  0  0
   -7.0390   24.3290  -30.5110 C   0  0  0  0  0  0  0  0  0  0  0  0
   -5.8730   25.0570  -30.2700 C   0  0  0  0  0  0  0  0  0  0  0  0
   -4.6300   24.5470  -30.6610 C   0  0  0  0  0  0  0  0  0  0  0  0
   -3.4880   25.3150  -30.4590 O   0  0  0  0  0  0  0  0  0  0  0  0
   -0.5635   22.2707  -31.3542 H   0  0  0  0  0  0  0  0  0  0  0  0
   -0.7859   20.6586  -30.5768 H   0  0  0  0  0  0  0  0  0  0  0  0
   -1.1531   21.4660  -33.4785 H   0  0  0  0  0  0  0  0  0  0  0  0
   -0.2697   20.0607  -32.7764 H   0  0  0  0  0  0  0  0  0  0  0  0
   -6.1590   19.7985  -34.7903 H   0  0  0  0  0  0  0  0  0  0  0  0
   -7.0938   17.4799  -35.1066 H   0  0  0  0  0  0  0  0  0  0  0  0
   -5.7946   15.4828  -34.3358 H   0  0  0  0  0  0  0  0  0  0  0  0
   -3.5522   15.7797  -33.2288 H   0  0  0  0  0  0  0  0  0  0  0  0
   -2.9420   22.9680  -32.6480 H   0  0  0  0  0  0  0  0  0  0  0  0
   -5.6763   21.5955  -32.0474 H   0  0  0  0  0  0  0  0  0  0  0  0
   -9.9018   19.9488  -31.4801 H   0  0  0  0  0  0  0  0  0  0  0  0
   -9.7731   20.0168  -33.2492 H   0  0  0  0  0  0  0  0  0  0  0  0
   -9.3737   17.7118  -31.7357 H   0  0  0  0  0  0  0  0  0  0  0  0
   -8.6806   17.9346  -33.3452 H   0  0  0  0  0  0  0  0  0  0  0  0
   -7.2923   17.8154  -30.7837 H   0  0  0  0  0  0  0  0  0  0  0  0
   -6.5529   18.0217  -32.3756 H   0  0  0  0  0  0  0  0  0  0  0  0
   -7.2744   20.0760  -30.3123 H   0  0  0  0  0  0  0  0  0  0  0  0
   -6.0573   20.1831  -31.6005 H   0  0  0  0  0  0  0  0  0  0  0  0
   -8.0122   24.7316  -30.1935 H   0  0  0  0  0  0  0  0  0  0  0  0
   -5.9313   26.0355  -29.7708 H   0  0  0  0  0  0  0  0  0  0  0  0
  1  2  2  0
  2  3  1  0
  3  4  1  0
  4  5  1  0
  5  6  1  0
  6  7  2  0
  6  8  1  0
  8  9  2  0
  9 10  1  0
 10 11  2  0
 11 12  1  0
 12 13  2  0
 13 14  1  0
 14 15  2  0
  2 16  1  0
 16 17  1  0
 17 18  2  0
 18 19  1  0
 19 20  1  0
 20 21  2  0
 20 22  2  0
 20 23  1  0
 23 24  1  0
 24 25  1  0
 25 26  1  0
 26 27  1  0
 19 28  2  0
 28 29  1  0
 29 30  2  0
 30 31  1  0
 14  5  1  0
 30 17  1  0
 13  8  1  0
 27 23  1  0
  3 32  1  0
  3 33  1  0
  4 34  1  0
  4 35  1  0
  9 36  1  0
 10 37  1  0
 11 38  1  0
 12 39  1  0
 16 40  1  0
 18 41  1  0
 24 42  1  0
 24 43  1  0
 25 44  1  0
 25 45  1  0
 26 46  1  0
 26 47  1  0
 27 48  1  0
 27 49  1  0
 28 50  1  0
 29 51  1  0
M  CHG  1  31  -1
M  END
>  <UniqueID>  (10) 
9

>  <SMILES>  (10) 
O=C(CCN1C(=O)c2ccccc2C1=O)Nc1cc(S(=O)(=O)N2CCCC2)ccc1[O-]

>  <Energy>  (10) 
86.98817954569286

>  <Genealogy>  (10) 
O=C(CCN1C(=O)c2ccccc2C1=O)Nc1cc(S(=O)(=O)N2CCCC2)ccc1[O-] (protonated)
O=C(CCN1C(=O)c2ccccc2C1=O)Nc1cc(S(=O)(=O)N2CCCC2)ccc1[O-] (3D coordinates assigned)
O=C(CCN1C(=O)c2ccccc2C1=O)Nc1cc(S(=O)(=O)N2CCCC2)ccc1[O-] (nonaromatic ring conformer: 86.98817954569286 kcal/mol)

>  <smiles>  (10) 
O=C(CCN1C(=O)c2ccccc2C1=O)Nc1cc(S(=O)(=O)N2CCCC2)ccc1O

>  <score_type>  (10) 
oracle

>  <origin>  (10) 
adgpu

>  <m_score__min__energy>  (10) 
-13.369999999999999

>  <m_primary>  (10) 
energy

$$$$
10:0
     RDKit          3D

 49 52  0  0  0  0  0  0  0  0999 V2000
    3.1530   22.2980  -36.8570 O   0  0  0  0  0  0  0  0  0  0  0  0
    2.0150   22.5840  -36.3980 C   0  0  0  0  0  0  0  0  0  0  0  0
    1.3640   23.7190  -36.8700 O   0  0  0  0  0  0  0  0  0  0  0  0
    1.3800   21.7260  -35.3720 C   0  0  0  0  0  0  0  0  0  0  0  0
    2.1690   20.9180  -34.5380 C   0  0  0  0  0  0  0  0  0  0  0  0
    1.5720   20.0960  -33.5790 C   0  0  0  0  0  0  0  0  0  0  0  0
    0.1830   20.0800  -33.4340 C   0  0  0  0  0  0  0  0  0  0  0  0
   -0.6230   20.9020  -34.2410 C   0  0  0  0  0  0  0  0  0  0  0  0
   -2.0570   20.8900  -34.1270 N   0  0  0  0  0  0  0  0  0  0  0  0
   -2.7700   20.5700  -32.9210 C   0  0  0  0  0  0  0  0  0  0  0  0
   -2.1530   20.4530  -31.8290 O   0  0  0  0  0  0  0  0  0  0  0  0
   -4.2380   20.3710  -32.9620 C   0  0  0  0  0  0  0  0  0  0  0  0
   -4.7280   19.2160  -33.5930 C   0  0  0  0  0  0  0  0  0  0  0  0
   -6.0980   18.9530  -33.6080 C   0  0  0  0  0  0  0  0  0  0  0  0
   -6.5360   17.9120  -34.1650 O   0  0  0  0  0  0  0  0  0  0  0  0
   -6.9640   19.8150  -33.0190 N   0  0  0  0  0  0  0  0  0  0  0  0
   -6.5420   20.9550  -32.4120 C   0  0  0  0  0  0  0  0  0  0  0  0
   -7.4820   21.8130  -31.8330 C   0  0  0  0  0  0  0  0  0  0  0  0
   -7.0730   23.0030  -31.2300 C   0  0  0  0  0  0  0  0  0  0  0  0
   -5.7180   23.3540  -31.2140 C   0  0  0  0  0  0  0  0  0  0  0  0
   -5.1900   24.8490  -30.4460 S   0  0  0  0  0  0  0  0  0  0  0  0
   -5.7050   24.9240  -29.0350 O   0  0  0  0  0  0  0  0  0  0  0  0
   -5.7370   26.0170  -31.2180 O   0  0  0  0  0  0  0  0  0  0  0  0
   -3.4540   24.9270  -30.4470 N   0  0  0  0  0  0  0  0  0  0  0  0
   -2.9440   24.5990  -29.1180 C   0  0  0  0  0  0  0  0  0  0  0  0
   -2.3830   23.2060  -29.1320 C   0  0  0  0  0  0  0  0  0  0  0  0
   -1.0930   22.9590  -29.6310 C   0  0  0  0  0  0  0  0  0  0  0  0
   -0.5900   21.6550  -29.6220 C   0  0  0  0  0  0  0  0  0  0  0  0
   -1.3400   20.6380  -29.1220 N   0  0  0  0  0  0  0  0  0  0  0  0
   -2.5850   20.8500  -28.6180 C   0  0  0  0  0  0  0  0  0  0  0  0
   -3.1290   22.1390  -28.6110 C   0  0  0  0  0  0  0  0  0  0  0  0
   -4.7670   22.4970  -31.7870 C   0  0  0  0  0  0  0  0  0  0  0  0
   -5.1610   21.2760  -32.3750 C   0  0  0  0  0  0  0  0  0  0  0  0
   -0.0180   21.7060  -35.2190 C   0  0  0  0  0  0  0  0  0  0  0  0
    3.2641   20.9322  -34.6403 H   0  0  0  0  0  0  0  0  0  0  0  0
    2.1978   19.4595  -32.9362 H   0  0  0  0  0  0  0  0  0  0  0  0
   -0.2822   19.4217  -32.6855 H   0  0  0  0  0  0  0  0  0  0  0  0
   -2.6140   21.2430  -34.9400 H   0  0  0  0  0  0  0  0  0  0  0  0
   -4.0298   18.5169  -34.0766 H   0  0  0  0  0  0  0  0  0  0  0  0
   -8.5495   21.5485  -31.8530 H   0  0  0  0  0  0  0  0  0  0  0  0
   -7.8172   23.6670  -30.7660 H   0  0  0  0  0  0  0  0  0  0  0  0
   -2.1525   25.3112  -28.8420 H   0  0  0  0  0  0  0  0  0  0  0  0
   -3.7611   24.6600  -28.3841 H   0  0  0  0  0  0  0  0  0  0  0  0
   -0.4837   23.7854  -30.0257 H   0  0  0  0  0  0  0  0  0  0  0  0
    0.4149   21.4515  -30.0204 H   0  0  0  0  0  0  0  0  0  0  0  0
   -3.1653   20.0068  -28.2152 H   0  0  0  0  0  0  0  0  0  0  0  0
   -4.1342   22.3141  -28.2000 H   0  0  0  0  0  0  0  0  0  0  0  0
   -3.7039   22.7792  -31.7780 H   0  0  0  0  0  0  0  0  0  0  0  0
   -0.6450   22.3285  -35.8743 H   0  0  0  0  0  0  0  0  0  0  0  0
  1  2  2  0
  2  3  1  0
  2  4  1  0
  4  5  2  0
  5  6  1  0
  6  7  2  0
  7  8  1  0
  8  9  1  0
  9 10  1  0
 10 11  2  0
 10 12  1  0
 12 13  2  0
 13 14  1  0
 14 15  2  0
 14 16  1  0
 16 17  1  0
 17 18  2  0
 18 19  1  0
 19 20  2  0
 20 21  1  0
 21 22  2  0
 21 23  2  0
 21 24  1  0
 24 25  1  0
 25 26  1  0
 26 27  2  0
 27 28  1  0
 28 29  2  0
 29 30  1  0
 30 31  2  0
 20 32  1  0
 32 33  2  0
  8 34  2  0
 34  4  1  0
 33 12  1  0
 33 17  1  0
 31 26  1  0
  5 35  1  0
  6 36  1  0
  7 37  1  0
  9 38  1  0
 13 39  1  0
 18 40  1  0
 19 41  1  0
 25 42  1  0
 25 43  1  0
 27 44  1  0
 28 45  1  0
 30 46  1  0
 31 47  1  0
 32 48  1  0
 34 49  1  0
M  CHG  3   3  -1  16  -1  24  -1
M  END
>  <UniqueID>  (11) 
10

>  <SMILES>  (11) 
O=C([O-])c1cccc(NC(=O)c2cc(=O)[n-]c3ccc(S(=O)(=O)[N-]Cc4ccncc4)cc23)c1

>  <Energy>  (11) 
67.05720459637352

>  <Genealogy>  (11) 
O=C([O-])c1cccc(NC(=O)c2cc(=O)[n-]c3ccc(S(=O)(=O)[N-]Cc4ccncc4)cc23)c1 (protonated)
O=C([O-])c1cccc(NC(=O)c2cc(=O)[n-]c3ccc(S(=O)(=O)[N-]Cc4ccncc4)cc23)c1 (3D coordinates assigned)
O=C([O-])c1cccc(NC(=O)c2cc(=O)[n-]c3ccc(S(=O)(=O)[N-]Cc4ccncc4)cc23)c1 (optimized conformer: 67.05720459637352 kcal/mol)

>  <smiles>  (11) 
O=C(O)c1cccc(NC(=O)c2cc(=O)[nH]c3ccc(S(=O)(=O)NCc4ccncc4)cc23)c1

>  <score_type>  (11) 
oracle

>  <origin>  (11) 
adgpu

>  <m_score__min__energy>  (11) 
-12.970000000000001

>  <m_primary>  (11) 
energy

$$$$
11:0
     RDKit          3D

 52 54  0  0  0  0  0  0  0  0999 V2000
   -1.7570   26.7770  -25.8120 N   0  0  0  0  0  0  0  0  0  0  0  0
   -1.2370   25.4440  -25.7420 C   0  0  0  0  0  0  0  0  0  0  0  0
   -0.8730   24.9360  -24.4840 C   0  0  0  0  0  0  0  0  0  0  0  0
   -0.4380   23.6160  -24.3510 C   0  0  0  0  0  0  0  0  0  0  0  0
   -0.3510   22.7910  -25.4740 C   0  0  0  0  0  0  0  0  0  0  0  0
   -0.6840   23.2860  -26.7350 C   0  0  0  0  0  0  0  0  0  0  0  0
   -1.1200   24.6180  -26.8950 C   0  0  0  0  0  0  0  0  0  0  0  0
   -1.3840   25.1030  -28.2770 C   0  0  0  0  0  0  0  0  0  0  0  0
   -1.6040   26.3230  -28.5040 O   0  0  0  0  0  0  0  0  0  0  0  0
   -1.3200   24.1820  -29.3710 N   0  0  0  0  0  0  0  0  0  0  0  0
   -2.7260   23.4400  -30.0590 S   0  0  0  0  0  0  0  0  0  0  0  0
   -3.5830   24.5040  -30.6850 O   0  0  0  0  0  0  0  0  0  0  0  0
   -3.5230   22.7380  -28.9910 O   0  0  0  0  0  0  0  0  0  0  0  0
   -2.2110   22.2460  -31.2660 C   0  0  0  0  0  0  0  0  0  0  0  0
   -1.0100   21.5570  -31.0490 C   0  0  0  0  0  0  0  0  0  0  0  0
   -0.5700   20.5890  -31.9550 C   0  0  0  0  0  0  0  0  0  0  0  0
    0.9420   19.7470  -31.6410 Cl  0  0  0  0  0  0  0  0  0  0  0  0
   -1.3210   20.2930  -33.1020 C   0  0  0  0  0  0  0  0  0  0  0  0
   -0.8400   19.3140  -33.9910 O   0  0  0  0  0  0  0  0  0  0  0  0
    0.2290   19.4910  -34.9250 C   0  0  0  0  0  0  0  0  0  0  0  0
    0.2650   20.9000  -35.4260 C   0  0  0  0  0  0  0  0  0  0  0  0
   -0.0580   21.1640  -36.6160 O   0  0  0  0  0  0  0  0  0  0  0  0
    0.6240   21.9330  -34.5680 O   0  0  0  0  0  0  0  0  0  0  0  0
   -2.5350   20.9770  -33.3140 C   0  0  0  0  0  0  0  0  0  0  0  0
   -2.9820   21.9600  -32.4110 C   0  0  0  0  0  0  0  0  0  0  0  0
   -4.1530   22.6900  -32.6730 O   0  0  0  0  0  0  0  0  0  0  0  0
   -5.4410   22.3030  -32.2880 C   0  0  0  0  0  0  0  0  0  0  0  0
   -6.2460   23.2160  -31.6030 C   0  0  0  0  0  0  0  0  0  0  0  0
   -7.5530   22.8790  -31.2580 C   0  0  0  0  0  0  0  0  0  0  0  0
   -8.0810   21.6130  -31.5740 C   0  0  0  0  0  0  0  0  0  0  0  0
   -9.4600   21.3370  -31.2850 N   0  0  0  0  0  0  0  0  0  0  0  0
   -9.9140   21.5480  -30.1390 O   0  0  0  0  0  0  0  0  0  0  0  0
  -10.3510   21.1300  -32.3160 O   0  0  0  0  0  0  0  0  0  0  0  0
   -7.2370   20.6420  -32.1870 C   0  0  0  0  0  0  0  0  0  0  0  0
   -7.7060   19.2270  -32.4740 C   0  0  0  0  0  0  0  0  0  0  0  0
   -7.8010   18.5260  -31.2850 F   0  0  0  0  0  0  0  0  0  0  0  0
   -6.8230   18.5830  -33.3240 F   0  0  0  0  0  0  0  0  0  0  0  0
   -8.9470   19.2240  -33.0860 F   0  0  0  0  0  0  0  0  0  0  0  0
   -5.9290   21.0170  -32.5630 C   0  0  0  0  0  0  0  0  0  0  0  0
   -2.3040   27.1750  -25.0150 H   0  0  0  0  0  0  0  0  0  0  0  0
   -1.7600   27.3210  -26.7030 H   0  0  0  0  0  0  0  0  0  0  0  0
   -0.9311   25.5833  -23.5966 H   0  0  0  0  0  0  0  0  0  0  0  0
   -0.1634   23.2254  -23.3600 H   0  0  0  0  0  0  0  0  0  0  0  0
   -0.0190   21.7481  -25.3642 H   0  0  0  0  0  0  0  0  0  0  0  0
   -0.6057   22.6302  -27.6146 H   0  0  0  0  0  0  0  0  0  0  0  0
   -0.4077   21.7807  -30.1562 H   0  0  0  0  0  0  0  0  0  0  0  0
    1.1834   19.2593  -34.4297 H   0  0  0  0  0  0  0  0  0  0  0  0
    0.0685   18.8160  -35.7786 H   0  0  0  0  0  0  0  0  0  0  0  0
   -3.1429   20.7388  -34.1993 H   0  0  0  0  0  0  0  0  0  0  0  0
   -5.8464   24.2051  -31.3348 H   0  0  0  0  0  0  0  0  0  0  0  0
   -8.1811   23.6125  -30.7313 H   0  0  0  0  0  0  0  0  0  0  0  0
   -5.2836   20.2907  -33.0787 H   0  0  0  0  0  0  0  0  0  0  0  0
  1  2  1  0
  2  3  2  0
  3  4  1  0
  4  5  2  0
  5  6  1  0
  6  7  2  0
  7  8  1  0
  8  9  2  0
  8 10  1  0
 10 11  1  0
 11 12  2  0
 11 13  2  0
 11 14  1  0
 14 15  2  0
 15 16  1  0
 16 17  1  0
 16 18  2  0
 18 19  1  0
 19 20  1  0
 20 21  1  0
 21 22  2  0
 21 23  1  0
 18 24  1  0
 24 25  2  0
 25 26  1  0
 26 27  1  0
 27 28  2  0
 28 29  1  0
 29 30  2  0
 30 31  1  0
 31 32  2  0
 31 33  1  0
 30 34  1  0
 34 35  1  0
 35 36  1  0
 35 37  1  0
 35 38  1  0
 34 39  2  0
  7  2  1  0
 25 14  1  0
 39 27  1  0
  1 40  1  0
  1 41  1  0
  3 42  1  0
  4 43  1  0
  5 44  1  0
  6 45  1  0
 15 46  1  0
 20 47  1  0
 20 48  1  0
 24 49  1  0
 28 50  1  0
 29 51  1  0
 39 52  1  0
M  CHG  4  10  -1  23  -1  31   1  33  -1
M  END
>  <UniqueID>  (12) 
11

>  <SMILES>  (12) 
Nc1ccccc1C(=O)[N-]S(=O)(=O)c1cc(Cl)c(OCC(=O)[O-])cc1Oc1ccc([N+](=O)[O-])c(C(F)(F)F)c1

>  <Energy>  (12) 
78.3786084277569

>  <Genealogy>  (12) 
Nc1ccccc1C(=O)[N-]S(=O)(=O)c1cc(Cl)c(OCC(=O)[O-])cc1Oc1ccc([N+](=O)[O-])c(C(F)(F)F)c1 (protonated)
Nc1ccccc1C(=O)[N-]S(=O)(=O)c1cc(Cl)c(OCC(=O)[O-])cc1Oc1ccc([N+](=O)[O-])c(C(F)(F)F)c1 (3D coordinates assigned)
Nc1ccccc1C(=O)[N-]S(=O)(=O)c1cc(Cl)c(OCC(=O)[O-])cc1Oc1ccc([N+](=O)[O-])c(C(F)(F)F)c1 (optimized conformer: 78.3786084277569 kcal/mol)

>  <smiles>  (12) 
Nc1ccccc1C(=O)NS(=O)(=O)c1cc(Cl)c(OCC(=O)O)cc1Oc1ccc([N+](=O)[O-])c(C(F)(F)F)c1

>  <score_type>  (12) 
oracle

>  <origin>  (12) 
adgpu

>  <m_score__min__energy>  (12) 
-11.199999999999999

>  <m_primary>  (12) 
energy

$$$$
12:0
     RDKit          3D

 49 52  0  0  0  0  0  0  0  0999 V2000
   -0.1013   28.4566  -26.0565 H   0  0  0  0  0  0  0  0  0  0  0  0
   -0.4320   27.4520  -26.3590 C   0  0  0  0  0  0  0  0  0  0  0  0
    0.0950   26.8040  -27.4300 N   0  0  0  0  0  0  0  0  0  0  0  0
   -0.4720   25.5910  -27.6030 C   0  0  0  0  0  0  0  0  0  0  0  0
   -0.1110   24.7900  -28.5600 N   0  0  0  0  0  0  0  0  0  0  0  0
   -0.8010   23.2190  -28.8320 S   0  0  0  0  0  0  0  0  0  0  0  0
   -0.2060   22.6340  -30.0810 O   0  0  0  0  0  0  0  0  0  0  0  0
   -0.4710   22.3230  -27.6710 O   0  0  0  0  0  0  0  0  0  0  0  0
   -2.5450   23.3450  -29.0330 C   0  0  0  0  0  0  0  0  0  0  0  0
   -3.3610   22.2310  -28.8100 C   0  0  0  0  0  0  0  0  0  0  0  0
   -2.9169   21.2873  -28.4604 H   0  0  0  0  0  0  0  0  0  0  0  0
   -4.7390   22.3130  -29.0300 C   0  0  0  0  0  0  0  0  0  0  0  0
   -5.3699   21.4262  -28.8704 H   0  0  0  0  0  0  0  0  0  0  0  0
   -5.3270   23.5200  -29.4540 C   0  0  0  0  0  0  0  0  0  0  0  0
   -6.7380   23.5780  -29.7630 N   0  0  0  0  0  0  0  0  0  0  0  0
   -7.1750   24.3860  -29.2590 H   0  0  0  0  0  0  0  0  0  0  0  0
   -7.1990   22.7240  -29.3690 H   0  0  0  0  0  0  0  0  0  0  0  0
   -7.0810   23.6760  -31.2050 C   0  0  2  0  0  0  0  0  0  0  0  0
   -7.2975   24.7468  -31.3334 H   0  0  0  0  0  0  0  0  0  0  0  0
   -8.3670   22.9270  -31.6040 C   0  0  0  0  0  0  0  0  0  0  0  0
   -9.0796   22.9926  -30.7686 H   0  0  0  0  0  0  0  0  0  0  0  0
   -8.7449   23.4058  -32.5194 H   0  0  0  0  0  0  0  0  0  0  0  0
   -8.1490   21.4710  -31.9290 C   0  0  0  0  0  0  0  0  0  0  0  0
   -9.2500   20.6030  -31.8750 C   0  0  0  0  0  0  0  0  0  0  0  0
  -10.2234   20.9773  -31.5251 H   0  0  0  0  0  0  0  0  0  0  0  0
   -9.1200   19.2710  -32.2610 C   0  0  0  0  0  0  0  0  0  0  0  0
   -9.9860   18.5955  -32.2009 H   0  0  0  0  0  0  0  0  0  0  0  0
   -7.8960   18.7920  -32.7230 C   0  0  0  0  0  0  0  0  0  0  0  0
   -7.8058   17.7437  -33.0439 H   0  0  0  0  0  0  0  0  0  0  0  0
   -6.7750   19.6390  -32.7820 C   0  0  0  0  0  0  0  0  0  0  0  0
   -5.5240   19.1750  -33.2240 O   0  0  0  0  0  0  0  0  0  0  0  0
   -5.3250   18.3140  -34.3410 C   0  0  0  0  0  0  0  0  0  0  0  0
   -5.0906   17.2999  -33.9851 H   0  0  0  0  0  0  0  0  0  0  0  0
   -6.2404   18.2863  -34.9503 H   0  0  0  0  0  0  0  0  0  0  0  0
   -4.4903   18.6908  -34.9503 H   0  0  0  0  0  0  0  0  0  0  0  0
   -6.9030   20.9900  -32.3920 C   0  0  0  0  0  0  0  0  0  0  0  0
   -5.6670   21.8650  -32.4120 C   0  0  0  0  0  0  0  0  0  0  0  0
   -4.9801   21.5001  -31.6341 H   0  0  0  0  0  0  0  0  0  0  0  0
   -5.2596   21.7912  -33.4311 H   0  0  0  0  0  0  0  0  0  0  0  0
   -5.9150   23.3610  -32.1620 C   0  0  0  0  0  0  0  0  0  0  0  0
   -4.9974   23.7926  -31.7357 H   0  0  0  0  0  0  0  0  0  0  0  0
   -6.1898   23.7942  -33.1350 H   0  0  0  0  0  0  0  0  0  0  0  0
   -4.4930   24.6270  -29.6990 C   0  0  0  0  0  0  0  0  0  0  0  0
   -4.9298   25.5673  -30.0664 H   0  0  0  0  0  0  0  0  0  0  0  0
   -3.1150   24.5430  -29.4800 C   0  0  0  0  0  0  0  0  0  0  0  0
   -2.4767   25.4207  -29.6594 H   0  0  0  0  0  0  0  0  0  0  0  0
   -1.6480   25.2750  -26.4400 S   0  0  0  0  0  0  0  0  0  0  0  0
   -1.4200   26.7540  -25.6720 C   0  0  0  0  0  0  0  0  0  0  0  0
   -1.9589   27.1080  -24.7808 H   0  0  0  0  0  0  0  0  0  0  0  0
  1  2  1  0
  2  3  1  0
  3  4  1  0
  4  5  2  0
  5  6  1  0
  6  7  2  0
  6  8  2  0
  6  9  1  0
  9 10  2  0
 10 11  1  0
 10 12  1  0
 12 13  1  0
 12 14  2  0
 14 15  1  0
 15 16  1  0
 15 17  1  0
 15 18  1  0
 18 19  1  1
 18 20  1  0
 20 21  1  0
 20 22  1  0
 20 23  1  0
 23 24  2  0
 24 25  1  0
 24 26  1  0
 26 27  1  0
 26 28  2  0
 28 29  1  0
 28 30  1  0
 30 31  1  0
 31 32  1  0
 32 33  1  0
 32 34  1  0
 32 35  1  0
 30 36  2  0
 36 37  1  0
 37 38  1  0
 37 39  1  0
 37 40  1  0
 40 41  1  0
 40 42  1  0
 14 43  1  0
 43 44  1  0
 43 45  2  0
 45 46  1  0
  4 47  1  0
 47 48  1  0
 48 49  1  0
 48  2  2  0
 45  9  1  0
 40 18  1  0
 36 23  1  0
M  CHG  2   3  -1  15   1
M  END
>  <UniqueID>  (13) 
12

>  <SMILES>  (13) 
COc1cccc2c1CC[C@H]([NH2+]c1ccc(S(=O)(=O)/N=c3/[n-]ccs3)cc1)C2

>  <Energy>  (13) 
91.87905888218091

>  <Genealogy>  (13) 
COc1cccc2c1CCC([NH2+]c1ccc(S(=O)(=O)N=c3[n-]ccs3)cc1)C2 (protonated)
COc1cccc2c1CC[C@H]([NH2+]c1ccc(S(=O)(=O)N=c3[n-]ccs3)cc1)C2 (chirality)
COc1cccc2c1CC[C@H]([NH2+]c1ccc(S(=O)(=O)/N=c3/[n-]ccs3)cc1)C2 (cis-trans isomerization)
COc1cccc2c1CC[C@H]([NH2+]c1ccc(S(=O)(=O)/N=c3/[n-]ccs3)cc1)C2 (3D coordinates assigned)
COc1cccc2c1CC[C@H]([NH2+]c1ccc(S(=O)(=O)/N=c3/[n-]ccs3)cc1)C2 (nonaromatic ring conformer: 91.87905888218091 kcal/mol)

>  <smiles>  (13) 
COc1cccc2c1CCC(Nc1ccc(S(=O)(=O)N=c3[nH]ccs3)cc1)C2

>  <score_type>  (13) 
oracle

>  <origin>  (13) 
adgpu

>  <m_score__min__energy>  (13) 
-9.9100000000000001

>  <m_primary>  (13) 
energy

$$$$
13:0
     RDKit          3D

 32 34  0  0  0  0  0  0  0  0999 V2000
   -2.4560   19.2850  -26.4010 C   0  0  0  0  0  0  0  0  0  0  0  0
   -1.3780   19.9380  -27.0230 O   0  0  0  0  0  0  0  0  0  0  0  0
   -1.2450   21.5490  -26.4290 S   0  0  0  0  0  0  0  0  0  0  0  0
    0.2470   21.8430  -26.3280 O   0  0  0  0  0  0  0  0  0  0  0  0
   -1.8980   22.6680  -27.6590 C   0  0  0  0  0  0  0  0  0  0  0  0
   -1.3270   23.9310  -27.8640 C   0  0  0  0  0  0  0  0  0  0  0  0
   -1.8600   24.7930  -28.8240 C   0  0  0  0  0  0  0  0  0  0  0  0
   -2.9690   24.4050  -29.5830 C   0  0  0  0  0  0  0  0  0  0  0  0
   -3.5040   25.2930  -30.5090 O   0  0  0  0  0  0  0  0  0  0  0  0
   -3.5480   23.1380  -29.3870 C   0  0  0  0  0  0  0  0  0  0  0  0
   -4.6820   22.7230  -30.1670 N   0  0  0  0  0  0  0  0  0  0  0  0
   -4.8300   21.4970  -30.8910 C   0  0  0  0  0  0  0  0  0  0  0  0
   -3.9180   20.6410  -31.0370 O   0  0  0  0  0  0  0  0  0  0  0  0
   -6.2030   21.3600  -31.3640 C   0  0  0  0  0  0  0  0  0  0  0  0
   -6.8140   20.3490  -32.1050 C   0  0  0  0  0  0  0  0  0  0  0  0
   -8.1800   20.4850  -32.4070 C   0  0  0  0  0  0  0  0  0  0  0  0
   -8.9020   21.6140  -31.9610 C   0  0  0  0  0  0  0  0  0  0  0  0
   -8.2650   22.6180  -31.2100 C   0  0  0  0  0  0  0  0  0  0  0  0
   -6.9090   22.4610  -30.9260 C   0  0  0  0  0  0  0  0  0  0  0  0
   -5.9880   23.3070  -30.1760 C   0  0  0  0  0  0  0  0  0  0  0  0
   -6.2820   24.4050  -29.6320 O   0  0  0  0  0  0  0  0  0  0  0  0
   -3.0110   22.2790  -28.4140 C   0  0  0  0  0  0  0  0  0  0  0  0
   -2.3447   19.3524  -25.3087 H   0  0  0  0  0  0  0  0  0  0  0  0
   -3.3989   19.7639  -26.7037 H   0  0  0  0  0  0  0  0  0  0  0  0
   -2.4682   18.2275  -26.7037 H   0  0  0  0  0  0  0  0  0  0  0  0
   -0.4573   24.2438  -27.2675 H   0  0  0  0  0  0  0  0  0  0  0  0
   -1.4058   25.7819  -28.9843 H   0  0  0  0  0  0  0  0  0  0  0  0
   -6.2439   19.4711  -32.4431 H   0  0  0  0  0  0  0  0  0  0  0  0
   -8.6899   19.7072  -32.9944 H   0  0  0  0  0  0  0  0  0  0  0  0
   -9.9709   21.7087  -32.2029 H   0  0  0  0  0  0  0  0  0  0  0  0
   -8.8196   23.5001  -30.8574 H   0  0  0  0  0  0  0  0  0  0  0  0
   -3.4684   21.2932  -28.2439 H   0  0  0  0  0  0  0  0  0  0  0  0
  1  2  1  0
  3  2  1  6
  3  4  2  0
  3  5  1  0
  5  6  2  0
  6  7  1  0
  7  8  2  0
  8  9  1  0
  8 10  1  0
 10 11  1  0
 11 12  1  0
 12 13  2  0
 12 14  1  0
 14 15  2  0
 15 16  1  0
 16 17  2  0
 17 18  1  0
 18 19  2  0
 19 20  1  0
 20 21  2  0
 10 22  2  0
 22  5  1  0
 20 11  1  0
 19 14  1  0
  1 23  1  0
  1 24  1  0
  1 25  1  0
  6 26  1  0
  7 27  1  0
 15 28  1  0
 16 29  1  0
 17 30  1  0
 18 31  1  0
 22 32  1  0
M  CHG  1   9  -1
M  END
>  <UniqueID>  (14) 
13

>  <SMILES>  (14) 
CO[S@@](=O)c1ccc([O-])c(N2C(=O)c3ccccc3C2=O)c1

>  <Energy>  (14) 
76.81969239100336

>  <Genealogy>  (14) 
COS(=O)c1ccc([O-])c(N2C(=O)c3ccccc3C2=O)c1 (protonated)
CO[S@@](=O)c1ccc([O-])c(N2C(=O)c3ccccc3C2=O)c1 (chirality)
CO[S@@](=O)c1ccc([O-])c(N2C(=O)c3ccccc3C2=O)c1 (3D coordinates assigned)
CO[S@@](=O)c1ccc([O-])c(N2C(=O)c3ccccc3C2=O)c1 (nonaromatic ring conformer: 76.81969239100336 kcal/mol)

>  <smiles>  (14) 
COS(=O)c1ccc(O)c(N2C(=O)c3ccccc3C2=O)c1

>  <score_type>  (14) 
oracle

>  <origin>  (14) 
adgpu

>  <m_score__min__energy>  (14) 
-10.49

>  <m_primary>  (14) 
energy

$$$$
14:0
     RDKit          3D

 55 58  0  0  0  0  0  0  0  0999 V2000
   -0.7470   20.8570  -32.8410 C   0  0  0  0  0  0  0  0  0  0  0  0
   -0.5140   20.4480  -31.4450 N   0  0  0  0  0  0  0  0  0  0  0  0
   -1.6440   19.6840  -30.8790 C   0  0  0  0  0  0  0  0  0  0  0  0
   -2.9230   20.5270  -30.7610 C   0  0  0  0  0  0  0  0  0  0  0  0
   -2.6520   21.9100  -30.2270 C   0  0  0  0  0  0  0  0  0  0  0  0
   -3.7340   22.7100  -29.8320 C   0  0  0  0  0  0  0  0  0  0  0  0
   -3.5350   24.0370  -29.4130 C   0  0  0  0  0  0  0  0  0  0  0  0
   -4.6470   24.8760  -29.0510 N   0  0  0  0  0  0  0  0  0  0  0  0
   -6.0340   25.0960  -30.0710 S   0  0  0  0  0  0  0  0  0  0  0  0
   -5.6690   25.9820  -31.2280 O   0  0  0  0  0  0  0  0  0  0  0  0
   -7.1300   25.7530  -29.2790 O   0  0  0  0  0  0  0  0  0  0  0  0
   -6.5620   23.5360  -30.6970 C   0  0  0  0  0  0  0  0  0  0  0  0
   -7.4620   22.7610  -29.9540 C   0  0  0  0  0  0  0  0  0  0  0  0
   -7.9360   21.5490  -30.4650 C   0  0  0  0  0  0  0  0  0  0  0  0
   -7.5120   21.1010  -31.7250 C   0  0  0  0  0  0  0  0  0  0  0  0
   -8.1250   19.5820  -32.3820 S   0  0  0  0  0  0  0  0  0  0  0  0
   -8.4450   18.6450  -31.2510 O   0  0  0  0  0  0  0  0  0  0  0  0
   -9.3980   19.8520  -33.1360 O   0  0  0  0  0  0  0  0  0  0  0  0
   -6.9720   18.8240  -33.4540 N   0  0  0  0  0  0  0  0  0  0  0  0
   -5.5990   19.1660  -33.0610 C   0  0  0  0  0  0  0  0  0  0  0  0
   -4.5990   18.5240  -34.0470 C   0  0  0  0  0  0  0  0  0  0  0  0
   -5.2240   17.6070  -34.9280 O   0  0  0  0  0  0  0  0  0  0  0  0
   -5.9850   16.6700  -34.1890 C   0  0  0  0  0  0  0  0  0  0  0  0
   -7.1530   17.3620  -33.4560 C   0  0  0  0  0  0  0  0  0  0  0  0
   -6.6080   21.8750  -32.4650 C   0  0  0  0  0  0  0  0  0  0  0  0
   -6.1320   23.0850  -31.9520 C   0  0  0  0  0  0  0  0  0  0  0  0
   -2.2250   24.5450  -29.3540 C   0  0  0  0  0  0  0  0  0  0  0  0
   -1.9910   25.8450  -28.9230 O   0  0  0  0  0  0  0  0  0  0  0  0
   -1.1430   23.7490  -29.7430 C   0  0  0  0  0  0  0  0  0  0  0  0
   -1.3490   22.4430  -30.2080 C   0  0  0  0  0  0  0  0  0  0  0  0
   -0.1560   21.5940  -30.5840 C   0  0  0  0  0  0  0  0  0  0  0  0
   -1.2914   21.8127  -32.8571 H   0  0  0  0  0  0  0  0  0  0  0  0
    0.2186   20.9764  -33.3541 H   0  0  0  0  0  0  0  0  0  0  0  0
   -1.3422   20.0873  -33.3541 H   0  0  0  0  0  0  0  0  0  0  0  0
   -1.8486   18.8217  -31.5306 H   0  0  0  0  0  0  0  0  0  0  0  0
   -1.3584   19.3659  -29.8655 H   0  0  0  0  0  0  0  0  0  0  0  0
   -3.3804   20.6164  -31.7574 H   0  0  0  0  0  0  0  0  0  0  0  0
   -3.5950   20.0198  -30.0531 H   0  0  0  0  0  0  0  0  0  0  0  0
   -4.7520   22.2936  -29.8503 H   0  0  0  0  0  0  0  0  0  0  0  0
   -4.5720   25.5000  -28.2170 H   0  0  0  0  0  0  0  0  0  0  0  0
   -7.7969   23.1073  -28.9651 H   0  0  0  0  0  0  0  0  0  0  0  0
   -8.6433   20.9451  -29.8775 H   0  0  0  0  0  0  0  0  0  0  0  0
   -5.4762   20.2590  -33.0758 H   0  0  0  0  0  0  0  0  0  0  0  0
   -5.4053   18.7857  -32.0472 H   0  0  0  0  0  0  0  0  0  0  0  0
   -4.1281   19.3206  -34.6417 H   0  0  0  0  0  0  0  0  0  0  0  0
   -3.8549   17.9689  -33.4569 H   0  0  0  0  0  0  0  0  0  0  0  0
   -6.3899   15.9130  -34.8767 H   0  0  0  0  0  0  0  0  0  0  0  0
   -5.3307   16.1996  -33.4402 H   0  0  0  0  0  0  0  0  0  0  0  0
   -8.0961   17.1154  -33.9656 H   0  0  0  0  0  0  0  0  0  0  0  0
   -7.1780   17.0069  -32.4152 H   0  0  0  0  0  0  0  0  0  0  0  0
   -6.2717   21.5290  -33.4535 H   0  0  0  0  0  0  0  0  0  0  0  0
   -5.4178   23.6849  -32.5352 H   0  0  0  0  0  0  0  0  0  0  0  0
   -0.1210   24.1515  -29.6835 H   0  0  0  0  0  0  0  0  0  0  0  0
    0.5678   22.2242  -31.1216 H   0  0  0  0  0  0  0  0  0  0  0  0
    0.2666   21.1880  -29.6531 H   0  0  0  0  0  0  0  0  0  0  0  0
  1  2  1  0
  2  3  1  0
  3  4  1  0
  4  5  1  0
  5  6  2  0
  6  7  1  0
  7  8  1  0
  8  9  1  0
  9 10  2  0
  9 11  2  0
  9 12  1  0
 12 13  2  0
 13 14  1  0
 14 15  2  0
 15 16  1  0
 16 17  2  0
 16 18  2  0
 16 19  1  0
 19 20  1  0
 20 21  1  0
 21 22  1  0
 22 23  1  0
 23 24  1  0
 15 25  1  0
 25 26  2  0
  7 27  2  0
 27 28  1  0
 27 29  1  0
 29 30  2  0
 30 31  1  0
 31  2  1  0
 30  5  1  0
 26 12  1  0
 24 19  1  0
  1 32  1  0
  1 33  1  0
  1 34  1  0
  3 35  1  0
  3 36  1  0
  4 37  1  0
  4 38  1  0
  6 39  1  0
  8 40  1  0
 13 41  1  0
 14 42  1  0
 20 43  1  0
 20 44  1  0
 21 45  1  0
 21 46  1  0
 23 47  1  0
 23 48  1  0
 24 49  1  0
 24 50  1  0
 25 51  1  0
 26 52  1  0
 29 53  1  0
 31 54  1  0
 31 55  1  0
M  CHG  1  28  -1
M  END
>  <UniqueID>  (15) 
14

>  <SMILES>  (15) 
CN1CCc2cc(NS(=O)(=O)c3ccc(S(=O)(=O)N4CCOCC4)cc3)c([O-])cc2C1

>  <Energy>  (15) 
72.30410458999002

>  <Genealogy>  (15) 
CN1CCc2cc(NS(=O)(=O)c3ccc(S(=O)(=O)N4CCOCC4)cc3)c([O-])cc2C1 (protonated)
CN1CCc2cc(NS(=O)(=O)c3ccc(S(=O)(=O)N4CCOCC4)cc3)c([O-])cc2C1 (3D coordinates assigned)
CN1CCc2cc(NS(=O)(=O)c3ccc(S(=O)(=O)N4CCOCC4)cc3)c([O-])cc2C1 (nonaromatic ring conformer: 72.30410458999002 kcal/mol)

>  <smiles>  (15) 
CN1CCc2cc(NS(=O)(=O)c3ccc(S(=O)(=O)N4CCOCC4)cc3)c(O)cc2C1

>  <score_type>  (15) 
oracle

>  <origin>  (15) 
adgpu

>  <m_score__min__energy>  (15) 
-15.119999999999999

>  <m_primary>  (15) 
energy

$$$$
15:0
     RDKit          3D

 58 61  0  0  1  0  0  0  0  0999 V2000
   -8.8740   21.1870  -30.9840 C   0  0  0  0  0  0  0  0  0  0  0  0
   -8.5620   21.1130  -32.3700 O   0  0  0  0  0  0  0  0  0  0  0  0
   -7.2860   20.7080  -32.7330 C   0  0  0  0  0  0  0  0  0  0  0  0
   -7.0380   19.4430  -33.1830 C   0  0  0  0  0  0  0  0  0  0  0  0
   -5.7480   19.0420  -33.5460 C   0  0  0  0  0  0  0  0  0  0  0  0
   -5.6190   17.6710  -34.0080 C   0  0  0  0  0  0  0  0  0  0  0  0
   -5.4940   17.3930  -35.2190 O   0  0  0  0  0  0  0  0  0  0  0  0
   -5.6300   16.5870  -33.0850 N   0  0  0  0  0  0  0  0  0  0  0  0
   -5.5020   15.2140  -33.5310 C   0  0  0  0  0  0  0  0  0  0  0  0
   -5.7690   16.7950  -31.6560 C   0  0  0  0  0  0  0  0  0  0  0  0
   -4.6940   19.9260  -33.4570 C   0  0  0  0  0  0  0  0  0  0  0  0
   -4.9400   21.2260  -32.9980 C   0  0  0  0  0  0  0  0  0  0  0  0
   -6.2120   21.6020  -32.6450 C   0  0  0  0  0  0  0  0  0  0  0  0
   -6.5520   22.9070  -32.1700 N   0  0  0  0  0  0  0  0  0  0  0  0
   -5.9180   23.4780  -31.1980 C   0  0  0  0  0  0  0  0  0  0  0  0
   -6.2390   24.7430  -30.7280 C   0  0  0  0  0  0  0  0  0  0  0  0
   -5.5240   25.2930  -29.6860 C   0  0  0  0  0  0  0  0  0  0  0  0
   -4.5120   24.6000  -29.1240 N   0  0  0  0  0  0  0  0  0  0  0  0
   -4.2190   23.3840  -29.5930 C   0  0  0  0  0  0  0  0  0  0  0  0
   -3.1590   22.5680  -29.0530 N   0  0  0  0  0  0  0  0  0  0  0  0
   -1.9550   23.2640  -28.7440 C   0  0  0  0  0  0  0  0  0  0  0  0
   -0.7320   22.7680  -28.3080 C   0  0  0  0  0  0  0  0  0  0  0  0
   -0.1480   21.4950  -28.0240 N   0  0  0  0  0  0  0  0  0  0  0  0
   -0.6050   20.4160  -28.8640 C   0  0  0  0  0  0  0  0  0  0  0  0
   -1.4530   20.7370  -29.7340 O   0  0  0  0  0  0  0  0  0  0  0  0
   -0.1100   19.0550  -28.7070 C   0  0  0  0  0  0  0  0  0  0  0  0
   -0.1670   18.3660  -27.5030 C   0  0  0  0  0  0  0  0  0  0  0  0
    0.3400   17.0680  -27.4560 C   0  0  0  0  0  0  0  0  0  0  0  0
    0.8880   16.4810  -28.5850 C   0  0  0  0  0  0  0  0  0  0  0  0
    0.9510   17.1650  -29.8060 C   0  0  0  0  0  0  0  0  0  0  0  0
    0.4420   18.4570  -29.8330 C   0  0  0  0  0  0  0  0  0  0  0  0
   -0.2460   24.0550  -28.2640 C   0  0  0  0  0  0  0  0  0  0  0  0
    0.8600   24.6210  -27.9570 O   0  0  0  0  0  0  0  0  0  0  0  0
   -1.4710   24.5540  -28.7020 C   0  0  0  0  0  0  0  0  0  0  0  0
   -1.9890   25.6690  -28.9680 O   0  0  0  0  0  0  0  0  0  0  0  0
   -4.8990   22.8010  -30.6210 N   0  0  0  0  0  0  0  0  0  0  0  0
   -7.9713   20.9729  -30.3930 H   0  0  0  0  0  0  0  0  0  0  0  0
   -9.2387   22.1966  -30.7436 H   0  0  0  0  0  0  0  0  0  0  0  0
   -9.6533   20.4488  -30.7436 H   0  0  0  0  0  0  0  0  0  0  0  0
   -7.8683   18.7257  -33.2616 H   0  0  0  0  0  0  0  0  0  0  0  0
   -5.4400   14.5489  -32.6571 H   0  0  0  0  0  0  0  0  0  0  0  0
   -6.3787   14.9421  -34.1372 H   0  0  0  0  0  0  0  0  0  0  0  0
   -4.5902   15.1089  -34.1372 H   0  0  0  0  0  0  0  0  0  0  0  0
   -5.2365   15.9982  -31.1160 H   0  0  0  0  0  0  0  0  0  0  0  0
   -5.3412   17.7713  -31.3842 H   0  0  0  0  0  0  0  0  0  0  0  0
   -6.8347   16.7732  -31.3842 H   0  0  0  0  0  0  0  0  0  0  0  0
   -3.6777   19.6158  -33.7415 H   0  0  0  0  0  0  0  0  0  0  0  0
   -4.1127   21.9468  -32.9203 H   0  0  0  0  0  0  0  0  0  0  0  0
   -7.0643   25.3072  -31.1870 H   0  0  0  0  0  0  0  0  0  0  0  0
   -5.7782   26.2961  -29.3129 H   0  0  0  0  0  0  0  0  0  0  0  0
   -3.9450   24.9970  -28.3200 H   0  0  0  0  0  0  0  0  0  0  0  0
   -3.2850   21.5530  -28.9050 H   0  0  0  0  0  0  0  0  0  0  0  0
    0.5550   21.3440  -27.2750 H   0  0  0  0  0  0  0  0  0  0  0  0
   -0.6020   18.8332  -26.6072 H   0  0  0  0  0  0  0  0  0  0  0  0
    0.3045   16.5039  -26.5123 H   0  0  0  0  0  0  0  0  0  0  0  0
    1.2820   15.4560  -28.5213 H   0  0  0  0  0  0  0  0  0  0  0  0
    1.3844   16.6995  -30.7035 H   0  0  0  0  0  0  0  0  0  0  0  0
    0.4770   19.0242  -30.7748 H   0  0  0  0  0  0  0  0  0  0  0  0
  1  2  1  0
  2  3  1  0
  3  4  2  0
  4  5  1  0
  5  6  1  0
  6  7  2  0
  6  8  1  0
  8  9  1  0
  8 10  1  0
  5 11  2  0
 11 12  1  0
 12 13  2  0
 13 14  1  0
 14 15  2  0
 15 16  1  0
 16 17  2  0
 17 18  1  0
 18 19  1  0
 19 20  1  0
 20 21  1  0
 21 22  2  0
 22 23  1  0
 23 24  1  0
 24 25  2  0
 24 26  1  0
 26 27  2  0
 27 28  1  0
 28 29  2  0
 29 30  1  0
 30 31  2  0
 22 32  1  0
 32 33  2  0
 32 34  1  0
 34 35  2  0
 19 36  2  0
 13  3  1  0
 36 15  1  0
 34 21  1  0
 31 26  1  0
  1 37  1  0
  1 38  1  0
  1 39  1  0
  4 40  1  0
  9 41  1  0
  9 42  1  0
  9 43  1  0
 10 44  1  0
 10 45  1  0
 10 46  1  0
 11 47  1  0
 12 48  1  0
 16 49  1  0
 17 50  1  0
 18 51  1  0
 20 52  1  0
 23 53  1  0
 27 54  1  0
 28 55  1  0
 29 56  1  0
 30 57  1  0
 31 58  1  0
M  END
>  <smiles>  (16) 
COc1cc(C(=O)N(C)C)ccc1N=c1cc[nH]c(Nc2c(NC(=O)c3ccccc3)c(=O)c2=O)n1

>  <score_type>  (16) 
oracle

>  <origin>  (16) 
adgpu

>  <m_score__min__energy>  (16) 
-10.449999999999999

>  <m_primary>  (16) 
energy

$$$$
16:0
     RDKit          3D

 54 57  0  0  0  0  0  0  0  0999 V2000
    0.2410   21.1960  -36.4650 C   0  0  0  0  0  0  0  0  0  0  0  0
    0.2660   20.0800  -35.4660 C   0  0  0  0  0  0  0  0  0  0  0  0
    0.7020   18.9570  -35.8420 O   0  0  0  0  0  0  0  0  0  0  0  0
   -0.1880   20.2600  -34.1050 N   0  0  0  0  0  0  0  0  0  0  0  0
   -0.8060   21.5300  -33.6750 C   0  0  0  0  0  0  0  0  0  0  0  0
   -1.8670   21.2820  -32.5970 C   0  0  0  0  0  0  0  0  0  0  0  0
   -1.3070   20.4220  -31.5510 N   0  0  0  0  0  0  0  0  0  0  0  0
   -0.8720   20.9780  -30.2940 C   0  0  0  0  0  0  0  0  0  0  0  0
    0.2530   20.6420  -29.8230 O   0  0  0  0  0  0  0  0  0  0  0  0
   -1.7180   21.9320  -29.5360 C   0  0  0  0  0  0  0  0  0  0  0  0
   -1.9070   21.7860  -28.1490 C   0  0  0  0  0  0  0  0  0  0  0  0
   -2.7110   22.6860  -27.4430 C   0  0  0  0  0  0  0  0  0  0  0  0
   -3.3240   23.7540  -28.1080 C   0  0  0  0  0  0  0  0  0  0  0  0
   -4.1100   24.6670  -27.4030 O   0  0  0  0  0  0  0  0  0  0  0  0
   -3.1240   23.9210  -29.4860 C   0  0  0  0  0  0  0  0  0  0  0  0
   -3.6860   25.0490  -30.1530 N   0  0  0  0  0  0  0  0  0  0  0  0
   -5.4030   25.1620  -30.3520 S   0  0  0  0  0  0  0  0  0  0  0  0
   -5.7310   26.3600  -31.1980 O   0  0  0  0  0  0  0  0  0  0  0  0
   -6.0700   25.3100  -29.0100 O   0  0  0  0  0  0  0  0  0  0  0  0
   -5.9670   23.7010  -31.1570 C   0  0  0  0  0  0  0  0  0  0  0  0
   -5.0660   22.8910  -31.8620 C   0  0  0  0  0  0  0  0  0  0  0  0
   -5.4920   21.6870  -32.4280 C   0  0  0  0  0  0  0  0  0  0  0  0
   -6.8240   21.2730  -32.2830 C   0  0  0  0  0  0  0  0  0  0  0  0
   -7.2600   20.0570  -32.8310 C   0  0  0  0  0  0  0  0  0  0  0  0
   -8.5900   19.6530  -32.6750 C   0  0  0  0  0  0  0  0  0  0  0  0
   -9.4910   20.4570  -31.9720 C   0  0  0  0  0  0  0  0  0  0  0  0
   -9.0690   21.6670  -31.4170 C   0  0  0  0  0  0  0  0  0  0  0  0
   -7.7380   22.0850  -31.5670 C   0  0  0  0  0  0  0  0  0  0  0  0
   -7.3000   23.2960  -31.0110 C   0  0  0  0  0  0  0  0  0  0  0  0
   -2.3180   23.0190  -30.1940 C   0  0  0  0  0  0  0  0  0  0  0  0
   -0.8070   19.1200  -31.9970 C   0  0  0  0  0  0  0  0  0  0  0  0
    0.2760   19.3260  -33.0620 C   0  0  0  0  0  0  0  0  0  0  0  0
    0.2194   22.1606  -35.9367 H   0  0  0  0  0  0  0  0  0  0  0  0
    1.1405   21.1436  -37.0959 H   0  0  0  0  0  0  0  0  0  0  0  0
   -0.6553   21.1033  -37.0959 H   0  0  0  0  0  0  0  0  0  0  0  0
   -0.0263   22.1908  -33.2682 H   0  0  0  0  0  0  0  0  0  0  0  0
   -1.2900   21.9986  -34.5446 H   0  0  0  0  0  0  0  0  0  0  0  0
   -2.1744   22.2422  -32.1570 H   0  0  0  0  0  0  0  0  0  0  0  0
   -2.7410   20.7897  -33.0483 H   0  0  0  0  0  0  0  0  0  0  0  0
   -1.4182   20.9571  -27.6161 H   0  0  0  0  0  0  0  0  0  0  0  0
   -2.8622   22.5542  -26.3614 H   0  0  0  0  0  0  0  0  0  0  0  0
   -4.5860   25.4320  -27.8700 H   0  0  0  0  0  0  0  0  0  0  0  0
   -4.0174   23.2053  -31.9702 H   0  0  0  0  0  0  0  0  0  0  0  0
   -4.7811   21.0623  -32.9887 H   0  0  0  0  0  0  0  0  0  0  0  0
   -6.5543   19.4201  -33.3845 H   0  0  0  0  0  0  0  0  0  0  0  0
   -8.9277   18.6994  -33.1071 H   0  0  0  0  0  0  0  0  0  0  0  0
  -10.5365   20.1357  -31.8553 H   0  0  0  0  0  0  0  0  0  0  0  0
   -9.7817   22.2938  -30.8610 H   0  0  0  0  0  0  0  0  0  0  0  0
   -8.0071   23.9311  -30.4573 H   0  0  0  0  0  0  0  0  0  0  0  0
   -2.1540   23.1630  -31.2721 H   0  0  0  0  0  0  0  0  0  0  0  0
   -0.3803   18.5780  -31.1402 H   0  0  0  0  0  0  0  0  0  0  0  0
   -1.6353   18.5360  -32.4246 H   0  0  0  0  0  0  0  0  0  0  0  0
    1.1779   19.7370  -32.5848 H   0  0  0  0  0  0  0  0  0  0  0  0
    0.4997   18.3562  -33.5305 H   0  0  0  0  0  0  0  0  0  0  0  0
  1  2  1  0
  2  3  2  0
  2  4  1  0
  4  5  1  0
  5  6  1  0
  6  7  1  0
  7  8  1  0
  8  9  2  0
  8 10  1  0
 10 11  2  0
 11 12  1  0
 12 13  2  0
 13 14  1  0
 13 15  1  0
 15 16  1  0
 16 17  1  0
 17 18  2  0
 17 19  2  0
 17 20  1  0
 20 21  2  0
 21 22  1  0
 22 23  2  0
 23 24  1  0
 24 25  2  0
 25 26  1  0
 26 27  2  0
 27 28  1  0
 28 29  2  0
 15 30  2  0
  7 31  1  0
 31 32  1  0
 32  4  1  0
 30 10  1  0
 29 20  1  0
 28 23  1  0
  1 33  1  0
  1 34  1  0
  1 35  1  0
  5 36  1  0
  5 37  1  0
  6 38  1  0
  6 39  1  0
 11 40  1  0
 12 41  1  0
 14 42  1  0
 21 43  1  0
 22 44  1  0
 24 45  1  0
 25 46  1  0
 26 47  1  0
 27 48  1  0
 29 49  1  0
 30 50  1  0
 31 51  1  0
 31 52  1  0
 32 53  1  0
 32 54  1  0
M  CHG  1  16  -1
M  END
>  <UniqueID>  (17) 
15

>  <SMILES>  (17) 
CC(=O)N1CCN(C(=O)c2ccc(O)c([N-]S(=O)(=O)c3ccc4ccccc4c3)c2)CC1

>  <Energy>  (17) 
72.85266139006353

>  <Genealogy>  (17) 
CC(=O)N1CCN(C(=O)c2ccc(O)c([N-]S(=O)(=O)c3ccc4ccccc4c3)c2)CC1 (protonated)
CC(=O)N1CCN(C(=O)c2ccc(O)c([N-]S(=O)(=O)c3ccc4ccccc4c3)c2)CC1 (3D coordinates assigned)
CC(=O)N1CCN(C(=O)c2ccc(O)c([N-]S(=O)(=O)c3ccc4ccccc4c3)c2)CC1 (nonaromatic ring conformer: 72.85266139006353 kcal/mol)

>  <smiles>  (17) 
CC(=O)N1CCN(C(=O)c2ccc(O)c(NS(=O)(=O)c3ccc4ccccc4c3)c2)CC1

>  <score_type>  (17) 
oracle

>  <origin>  (17) 
adgpu

>  <m_score__min__energy>  (17) 
-12.5

>  <m_primary>  (17) 
energy

$$$$
17:0
     RDKit          3D

 62 66  0  0  0  0  0  0  0  0999 V2000
   -4.7738   24.0174  -27.7861 H   0  0  0  0  0  0  0  0  0  0  0  0
   -3.8750   23.6930  -28.3310 C   0  0  0  0  0  0  0  0  0  0  0  0
   -3.4220   24.5300  -29.4630 C   0  0  0  0  0  0  0  0  0  0  0  0
   -2.4270   25.2830  -29.3260 O   0  0  0  0  0  0  0  0  0  0  0  0
   -4.1010   24.5260  -30.7220 N   0  0  0  0  0  0  0  0  0  0  0  0
   -5.0060   23.5150  -31.1760 C   0  0  0  0  0  0  0  0  0  0  0  0
   -6.1480   23.8950  -31.8860 C   0  0  0  0  0  0  0  0  0  0  0  0
   -6.3416   24.9598  -32.0828 H   0  0  0  0  0  0  0  0  0  0  0  0
   -7.0450   22.9280  -32.3470 C   0  0  0  0  0  0  0  0  0  0  0  0
   -7.9499   23.2371  -32.8906 H   0  0  0  0  0  0  0  0  0  0  0  0
   -6.7990   21.5650  -32.1210 C   0  0  0  0  0  0  0  0  0  0  0  0
   -5.6090   21.1730  -31.4710 C   0  0  0  0  0  0  0  0  0  0  0  0
   -4.7290   22.1520  -30.9860 C   0  0  0  0  0  0  0  0  0  0  0  0
   -3.8155   21.8495  -30.4531 H   0  0  0  0  0  0  0  0  0  0  0  0
   -5.3080   19.7170  -31.2120 C   0  0  0  0  0  0  0  0  0  0  0  0
   -4.2304   19.5512  -31.3579 H   0  0  0  0  0  0  0  0  0  0  0  0
   -5.6238   19.4956  -30.1818 H   0  0  0  0  0  0  0  0  0  0  0  0
   -6.0490   18.8030  -32.1050 N   0  0  2  0  0  0  0  0  0  0  0  0
   -5.9720   17.8400  -31.7000 H   0  0  0  0  0  0  0  0  0  0  0  0
   -5.3270   18.7240  -33.7010 S   0  0  0  0  0  0  0  0  0  0  0  0
   -5.4470   17.3310  -34.2540 O   0  0  0  0  0  0  0  0  0  0  0  0
   -6.0150   19.6740  -34.6450 O   0  0  0  0  0  0  0  0  0  0  0  0
   -3.6160   19.1390  -33.5980 C   0  0  0  0  0  0  0  0  0  0  0  0
   -2.6560   18.1630  -33.2940 C   0  0  0  0  0  0  0  0  0  0  0  0
   -2.9654   17.1196  -33.1339 H   0  0  0  0  0  0  0  0  0  0  0  0
   -1.3060   18.5140  -33.1940 C   0  0  0  0  0  0  0  0  0  0  0  0
   -0.5551   17.7442  -32.9626 H   0  0  0  0  0  0  0  0  0  0  0  0
   -0.9060   19.8460  -33.3880 C   0  0  0  0  0  0  0  0  0  0  0  0
    0.4350   20.2330  -33.2920 O   0  0  0  0  0  0  0  0  0  0  0  0
    1.2740   20.4750  -34.3860 C   0  0  0  0  0  0  0  0  0  0  0  0
    2.2200   19.5050  -34.7640 C   0  0  0  0  0  0  0  0  0  0  0  0
    2.2959   18.5666  -34.1951 H   0  0  0  0  0  0  0  0  0  0  0  0
    3.0750   19.7260  -35.8700 C   0  0  0  0  0  0  0  0  0  0  0  0
    3.8201   18.9651  -36.1454 H   0  0  0  0  0  0  0  0  0  0  0  0
    2.9780   20.9120  -36.6190 C   0  0  0  0  0  0  0  0  0  0  0  0
    3.6385   21.0970  -37.4789 H   0  0  0  0  0  0  0  0  0  0  0  0
    2.0190   21.8430  -36.2360 C   0  0  0  0  0  0  0  0  0  0  0  0
    1.7390   23.0140  -36.8270 N   0  0  0  0  0  0  0  0  0  0  0  0
    0.7160   23.4780  -36.0630 C   0  0  0  0  0  0  0  0  0  0  0  0
    0.1550   24.5810  -36.2900 O   0  0  0  0  0  0  0  0  0  0  0  0
    0.3430   22.6690  -35.0380 N   0  0  0  0  0  0  0  0  0  0  0  0
    1.1960   21.6390  -35.1670 C   0  0  0  0  0  0  0  0  0  0  0  0
   -1.8610   20.8100  -33.7220 C   0  0  0  0  0  0  0  0  0  0  0  0
   -1.5491   21.8480  -33.9100 H   0  0  0  0  0  0  0  0  0  0  0  0
   -3.2090   20.4610  -33.8180 C   0  0  0  0  0  0  0  0  0  0  0  0
   -3.9561   21.2287  -34.0679 H   0  0  0  0  0  0  0  0  0  0  0  0
   -7.4880   19.1350  -32.1490 C   0  0  0  0  0  0  0  0  0  0  0  0
   -7.9960   18.4108  -32.8028 H   0  0  0  0  0  0  0  0  0  0  0  0
   -7.8696   19.0917  -31.1182 H   0  0  0  0  0  0  0  0  0  0  0  0
   -7.7560   20.5490  -32.6820 C   0  0  0  0  0  0  0  0  0  0  0  0
   -7.6572   20.5380  -33.7775 H   0  0  0  0  0  0  0  0  0  0  0  0
   -8.7710   20.8374  -32.3713 H   0  0  0  0  0  0  0  0  0  0  0  0
   -3.2720   22.5680  -27.9190 C   0  0  0  0  0  0  0  0  0  0  0  0
   -3.7772   21.9714  -27.1451 H   0  0  0  0  0  0  0  0  0  0  0  0
   -1.9820   22.0750  -28.4290 C   0  0  0  0  0  0  0  0  0  0  0  0
   -1.0691   22.2229  -27.8334 H   0  0  0  0  0  0  0  0  0  0  0  0
   -1.9080   21.4490  -29.6090 C   0  0  0  0  0  0  0  0  0  0  0  0
   -2.8185   21.3262  -30.2139 H   0  0  0  0  0  0  0  0  0  0  0  0
   -0.6100   20.9140  -30.1190 C   0  0  0  0  0  0  0  0  0  0  0  0
    0.0360   20.6477  -29.2694 H   0  0  0  0  0  0  0  0  0  0  0  0
   -0.7973   20.0198  -30.7316 H   0  0  0  0  0  0  0  0  0  0  0  0
   -0.1128   21.6805  -30.7316 H   0  0  0  0  0  0  0  0  0  0  0  0
  1  2  1  0
  2  3  1  0
  3  4  2  0
  3  5  1  0
  5  6  1  0
  6  7  2  0
  7  8  1  0
  7  9  1  0
  9 10  1  0
  9 11  2  0
 11 12  1  0
 12 13  2  0
 13 14  1  0
 12 15  1  0
 15 16  1  0
 15 17  1  0
 15 18  1  0
 18 19  1  1
 18 20  1  0
 20 21  2  0
 20 22  2  0
 20 23  1  0
 23 24  2  0
 24 25  1  0
 24 26  1  0
 26 27  1  0
 26 28  2  0
 28 29  1  0
 29 30  1  0
 30 31  2  0
 31 32  1  0
 31 33  1  0
 33 34  1  0
 33 35  2  0
 35 36  1  0
 35 37  1  0
 37 38  1  0
 38 39  1  0
 39 40  2  0
 39 41  1  0
 41 42  1  0
 28 43  1  0
 43 44  1  0
 43 45  2  0
 45 46  1  0
 18 47  1  0
 47 48  1  0
 47 49  1  0
 47 50  1  0
 50 51  1  0
 50 52  1  0
  2 53  2  0
 53 54  1  0
 53 55  1  0
 55 56  1  0
 55 57  2  0
 57 58  1  0
 57 59  1  0
 59 60  1  0
 59 61  1  0
 59 62  1  0
 13  6  1  0
 45 23  1  0
 50 11  1  0
 42 30  1  0
 42 37  2  0
M  CHG  4   5  -1  18   1  38  -1  41  -1
M  END
>  <UniqueID>  (18) 
16

>  <SMILES>  (18) 
C/C=C/C=C\C(=O)[N-]c1ccc2c(c1)C[N@H+](S(=O)(=O)c1ccc(Oc3cccc4[n-]c(=O)[n-]c34)cc1)CC2

>  <Energy>  (18) 
119.96190866463597

>  <Genealogy>  (18) 
CC=CC=CC(=O)[N-]c1ccc2c(c1)C[NH+](S(=O)(=O)c1ccc(Oc3cccc4[n-]c(=O)[n-]c34)cc1)CC2 (protonated)
CC=CC=CC(=O)[N-]c1ccc2c(c1)C[N@H+](S(=O)(=O)c1ccc(Oc3cccc4[n-]c(=O)[n-]c34)cc1)CC2 (chirality)
C/C=C/C=C\C(=O)[N-]c1ccc2c(c1)C[N@H+](S(=O)(=O)c1ccc(Oc3cccc4[n-]c(=O)[n-]c34)cc1)CC2 (cis-trans isomerization)
C/C=C/C=C\C(=O)[N-]c1ccc2c(c1)C[N@H+](S(=O)(=O)c1ccc(Oc3cccc4[n-]c(=O)[n-]c34)cc1)CC2 (3D coordinates assigned)
C/C=C/C=C\C(=O)[N-]c1ccc2c(c1)C[N@H+](S(=O)(=O)c1ccc(Oc3cccc4[n-]c(=O)[n-]c34)cc1)CC2 (nonaromatic ring conformer: 119.96190866463597 kcal/mol)

>  <smiles>  (18) 
CC=CC=CC(=O)Nc1ccc2c(c1)CN(S(=O)(=O)c1ccc(Oc3cccc4[nH]c(=O)[nH]c34)cc1)CC2

>  <score_type>  (18) 
oracle

>  <origin>  (18) 
adgpu

>  <m_score__min__energy>  (18) 
-13.68

>  <m_primary>  (18) 
energy

$$$$
18:0
     RDKit          3D

 45 48  0  0  0  0  0  0  0  0999 V2000
   -4.1890   25.6740  -30.8370 O   0  0  0  0  0  0  0  0  0  0  0  0
   -3.6170   24.8770  -30.0460 C   0  0  0  0  0  0  0  0  0  0  0  0
   -2.5420   25.2400  -29.3010 N   0  0  0  0  0  0  0  0  0  0  0  0
   -2.2740   24.1100  -28.6310 C   0  0  0  0  0  0  0  0  0  0  0  0
   -1.2540   23.8900  -27.7080 C   0  0  0  0  0  0  0  0  0  0  0  0
   -1.1610   22.6100  -27.1300 C   0  0  0  0  0  0  0  0  0  0  0  0
   -2.0830   21.5930  -27.4820 C   0  0  0  0  0  0  0  0  0  0  0  0
   -1.9800   19.9970  -26.7440 S   0  0  0  0  0  0  0  0  0  0  0  0
   -3.3010   19.2840  -26.8200 O   0  0  0  0  0  0  0  0  0  0  0  0
   -1.5980   20.1590  -25.3000 O   0  0  0  0  0  0  0  0  0  0  0  0
   -0.7720   19.0530  -27.5550 N   0  0  0  0  0  0  0  0  0  0  0  0
   -0.3190   19.3160  -28.8950 C   0  0  0  0  0  0  0  0  0  0  0  0
    1.0080   19.0680  -29.2930 C   0  0  0  0  0  0  0  0  0  0  0  0
    1.4150   19.3360  -30.6020 C   0  0  0  0  0  0  0  0  0  0  0  0
    0.5080   19.8570  -31.5270 C   0  0  0  0  0  0  0  0  0  0  0  0
   -0.8140   20.1120  -31.1460 C   0  0  0  0  0  0  0  0  0  0  0  0
   -1.9440   20.8040  -32.3080 S   0  0  0  0  0  0  0  0  0  0  0  0
   -2.0850   22.2750  -32.0290 O   0  0  0  0  0  0  0  0  0  0  0  0
   -1.4110   20.6310  -33.7040 O   0  0  0  0  0  0  0  0  0  0  0  0
   -3.5010   20.0270  -32.1600 N   0  0  0  0  0  0  0  0  0  0  0  0
   -3.9150   19.4800  -33.4660 C   0  0  0  0  0  0  0  0  0  0  0  0
   -5.4350   19.2430  -33.4960 C   0  0  0  0  0  0  0  0  0  0  0  0
   -6.2150   20.4100  -33.2700 O   0  0  0  0  0  0  0  0  0  0  0  0
   -5.5070   21.4570  -32.6230 C   0  0  0  0  0  0  0  0  0  0  0  0
   -4.5030   20.9460  -31.5750 C   0  0  0  0  0  0  0  0  0  0  0  0
   -1.2210   19.8470  -29.8310 C   0  0  0  0  0  0  0  0  0  0  0  0
   -3.1000   21.8570  -28.4220 C   0  0  0  0  0  0  0  0  0  0  0  0
   -3.1580   23.1330  -28.9740 C   0  0  0  0  0  0  0  0  0  0  0  0
   -4.0320   23.5950  -29.8810 N   0  0  0  0  0  0  0  0  0  0  0  0
   -0.5463   24.6884  -27.4404 H   0  0  0  0  0  0  0  0  0  0  0  0
   -0.3666   22.3974  -26.3995 H   0  0  0  0  0  0  0  0  0  0  0  0
   -0.2870   18.3210  -26.9900 H   0  0  0  0  0  0  0  0  0  0  0  0
    1.7289   18.6607  -28.5689 H   0  0  0  0  0  0  0  0  0  0  0  0
    2.4533   19.1360  -30.9051 H   0  0  0  0  0  0  0  0  0  0  0  0
    0.8332   20.0672  -32.5566 H   0  0  0  0  0  0  0  0  0  0  0  0
   -3.6445   20.1929  -34.2588 H   0  0  0  0  0  0  0  0  0  0  0  0
   -3.4029   18.5199  -33.6270 H   0  0  0  0  0  0  0  0  0  0  0  0
   -5.7007   18.8372  -34.4833 H   0  0  0  0  0  0  0  0  0  0  0  0
   -5.6613   18.5493  -32.6728 H   0  0  0  0  0  0  0  0  0  0  0  0
   -4.9578   22.0311  -33.3838 H   0  0  0  0  0  0  0  0  0  0  0  0
   -6.2466   22.0770  -32.0951 H   0  0  0  0  0  0  0  0  0  0  0  0
   -3.9791   21.8083  -31.1367 H   0  0  0  0  0  0  0  0  0  0  0  0
   -5.0665   20.3888  -30.8121 H   0  0  0  0  0  0  0  0  0  0  0  0
   -2.2577   20.0572  -29.5293 H   0  0  0  0  0  0  0  0  0  0  0  0
   -3.8237   21.0801  -28.7095 H   0  0  0  0  0  0  0  0  0  0  0  0
  1  2  2  0
  2  3  1  0
  3  4  1  0
  4  5  2  0
  5  6  1  0
  6  7  2  0
  7  8  1  0
  8  9  2  0
  8 10  2  0
  8 11  1  0
 11 12  1  0
 12 13  2  0
 13 14  1  0
 14 15  2  0
 15 16  1  0
 16 17  1  0
 17 18  2  0
 17 19  2  0
 17 20  1  0
 20 21  1  0
 21 22  1  0
 22 23  1  0
 23 24  1  0
 24 25  1  0
 16 26  2  0
  7 27  1  0
 27 28  2  0
 28 29  1  0
 29  2  1  0
 28  4  1  0
 26 12  1  0
 25 20  1  0
  5 30  1  0
  6 31  1  0
 11 32  1  0
 13 33  1  0
 14 34  1  0
 15 35  1  0
 21 36  1  0
 21 37  1  0
 22 38  1  0
 22 39  1  0
 24 40  1  0
 24 41  1  0
 25 42  1  0
 25 43  1  0
 26 44  1  0
 27 45  1  0
M  CHG  2   3  -1  29  -1
M  END
>  <UniqueID>  (19) 
17

>  <SMILES>  (19) 
O=c1[n-]c2ccc(S(=O)(=O)Nc3cccc(S(=O)(=O)N4CCOCC4)c3)cc2[n-]1

>  <Energy>  (19) 
98.49577442671561

>  <Genealogy>  (19) 
O=c1[n-]c2ccc(S(=O)(=O)Nc3cccc(S(=O)(=O)N4CCOCC4)c3)cc2[n-]1 (protonated)
O=c1[n-]c2ccc(S(=O)(=O)Nc3cccc(S(=O)(=O)N4CCOCC4)c3)cc2[n-]1 (3D coordinates assigned)
O=c1[n-]c2ccc(S(=O)(=O)Nc3cccc(S(=O)(=O)N4CCOCC4)c3)cc2[n-]1 (nonaromatic ring conformer: 98.49577442671561 kcal/mol)

>  <smiles>  (19) 
O=c1[nH]c2ccc(S(=O)(=O)Nc3cccc(S(=O)(=O)N4CCOCC4)c3)cc2[nH]1

>  <score_type>  (19) 
oracle

>  <origin>  (19) 
adgpu

>  <m_score__min__energy>  (19) 
-12.24

>  <m_primary>  (19) 
energy

$$$$
19:0
     RDKit          3D

 40 42  0  0  0  0  0  0  0  0999 V2000
   -5.1180   16.2880  -32.3930 C   0  0  0  0  0  0  0  0  0  0  0  0
   -5.8260   16.2150  -33.7360 C   0  0  0  0  0  0  0  0  0  0  0  0
   -7.1380   16.7570  -33.6120 O   0  0  0  0  0  0  0  0  0  0  0  0
   -7.4240   18.0290  -33.0950 C   0  0  0  0  0  0  0  0  0  0  0  0
   -8.4340   18.1450  -32.1320 C   0  0  0  0  0  0  0  0  0  0  0  0
   -8.7550   19.3910  -31.5860 C   0  0  0  0  0  0  0  0  0  0  0  0
   -8.0740   20.5400  -32.0050 C   0  0  0  0  0  0  0  0  0  0  0  0
   -8.4630   22.1040  -31.2990 S   0  0  0  0  0  0  0  0  0  0  0  0
   -9.4370   21.9200  -30.1690 O   0  0  0  0  0  0  0  0  0  0  0  0
   -9.0930   23.0000  -32.3280 O   0  0  0  0  0  0  0  0  0  0  0  0
   -6.9970   22.8460  -30.6950 C   0  0  0  0  0  0  0  0  0  0  0  0
   -6.4230   22.5070  -29.5160 N   0  0  0  0  0  0  0  0  0  0  0  0
   -5.2910   23.2270  -29.3080 C   0  0  0  0  0  0  0  0  0  0  0  0
   -4.4840   23.1170  -28.1770 C   0  0  0  0  0  0  0  0  0  0  0  0
   -3.3390   23.9270  -28.0830 C   0  0  0  0  0  0  0  0  0  0  0  0
   -2.9980   24.8210  -29.1210 C   0  0  0  0  0  0  0  0  0  0  0  0
   -1.8350   25.6470  -28.9670 N   0  0  0  0  0  0  0  0  0  0  0  0
   -0.8810   25.5910  -27.8970 C   0  0  0  0  0  0  0  0  0  0  0  0
   -1.1740   26.1510  -26.5390 C   0  0  0  0  0  0  0  0  0  0  0  0
    0.2520   25.0890  -28.1190 O   0  0  0  0  0  0  0  0  0  0  0  0
   -3.8420   24.9370  -30.2470 C   0  0  0  0  0  0  0  0  0  0  0  0
   -4.9680   24.1230  -30.3140 C   0  0  0  0  0  0  0  0  0  0  0  0
   -6.1300   24.0400  -31.5240 S   0  0  0  0  0  0  0  0  0  0  0  0
   -7.0580   20.4310  -32.9630 C   0  0  0  0  0  0  0  0  0  0  0  0
   -6.7350   19.1860  -33.5090 C   0  0  0  0  0  0  0  0  0  0  0  0
   -5.8587   16.2116  -31.5834 H   0  0  0  0  0  0  0  0  0  0  0  0
   -4.3993   15.4592  -32.3118 H   0  0  0  0  0  0  0  0  0  0  0  0
   -4.5836   17.2460  -32.3118 H   0  0  0  0  0  0  0  0  0  0  0  0
   -5.2595   16.7931  -34.4809 H   0  0  0  0  0  0  0  0  0  0  0  0
   -5.8921   15.1655  -34.0588 H   0  0  0  0  0  0  0  0  0  0  0  0
   -8.9792   17.2482  -31.8025 H   0  0  0  0  0  0  0  0  0  0  0  0
   -9.5452   19.4689  -30.8247 H   0  0  0  0  0  0  0  0  0  0  0  0
   -4.7382   22.4100  -27.3735 H   0  0  0  0  0  0  0  0  0  0  0  0
   -2.7007   23.8635  -27.1894 H   0  0  0  0  0  0  0  0  0  0  0  0
   -0.8098   25.4550  -25.7690 H   0  0  0  0  0  0  0  0  0  0  0  0
   -0.6679   27.1210  -26.4254 H   0  0  0  0  0  0  0  0  0  0  0  0
   -2.2595   26.2883  -26.4254 H   0  0  0  0  0  0  0  0  0  0  0  0
   -3.6149   25.6528  -31.0507 H   0  0  0  0  0  0  0  0  0  0  0  0
   -6.5120   21.3293  -33.2869 H   0  0  0  0  0  0  0  0  0  0  0  0
   -5.9397   19.1090  -34.2650 H   0  0  0  0  0  0  0  0  0  0  0  0
  1  2  1  0
  2  3  1  0
  3  4  1  0
  4  5  2  0
  5  6  1  0
  6  7  2  0
  7  8  1  0
  8  9  2  0
  8 10  2  0
  8 11  1  0
 11 12  2  0
 12 13  1  0
 13 14  2  0
 14 15  1  0
 15 16  2  0
 16 17  1  0
 17 18  1  0
 18 19  1  0
 18 20  2  0
 16 21  1  0
 21 22  2  0
 22 23  1  0
  7 24  1  0
 24 25  2  0
 25  4  1  0
 23 11  1  0
 22 13  1  0
  1 26  1  0
  1 27  1  0
  1 28  1  0
  2 29  1  0
  2 30  1  0
  5 31  1  0
  6 32  1  0
 14 33  1  0
 15 34  1  0
 19 35  1  0
 19 36  1  0
 19 37  1  0
 21 38  1  0
 24 39  1  0
 25 40  1  0
M  CHG  1  17  -1
M  END
>  <UniqueID>  (20) 
18

>  <SMILES>  (20) 
CCOc1ccc(S(=O)(=O)c2nc3ccc([N-]C(C)=O)cc3s2)cc1

>  <Energy>  (20) 
78.07679778661813

>  <Genealogy>  (20) 
CCOc1ccc(S(=O)(=O)c2nc3ccc([N-]C(C)=O)cc3s2)cc1 (protonated)
CCOc1ccc(S(=O)(=O)c2nc3ccc([N-]C(C)=O)cc3s2)cc1 (3D coordinates assigned)
CCOc1ccc(S(=O)(=O)c2nc3ccc([N-]C(C)=O)cc3s2)cc1 (optimized conformer: 78.07679778661813 kcal/mol)

>  <smiles>  (20) 
CCOc1ccc(S(=O)(=O)c2nc3ccc(NC(C)=O)cc3s2)cc1

>  <score_type>  (20) 
oracle

>  <origin>  (20) 
adgpu

>  <m_score__min__energy>  (20) 
-10.48

>  <m_primary>  (20) 
energy

$$$$
20:0
     RDKit          3D

 40 42  0  0  0  0  0  0  0  0999 V2000
   -3.7930   18.5250  -32.9470 O   0  0  0  0  0  0  0  0  0  0  0  0
   -3.3500   19.7060  -32.9850 C   0  0  0  0  0  0  0  0  0  0  0  0
   -4.1840   20.7610  -33.4840 N   0  0  0  0  0  0  0  0  0  0  0  0
   -5.1750   21.4800  -32.7380 C   0  0  0  0  0  0  0  0  0  0  0  0
   -6.5210   21.0700  -32.7020 C   0  0  0  0  0  0  0  0  0  0  0  0
   -7.4640   21.8180  -31.9920 C   0  0  0  0  0  0  0  0  0  0  0  0
   -7.0780   22.9810  -31.3200 C   0  0  0  0  0  0  0  0  0  0  0  0
   -5.7420   23.4030  -31.3580 C   0  0  0  0  0  0  0  0  0  0  0  0
   -5.2280   24.8470  -30.4920 S   0  0  0  0  0  0  0  0  0  0  0  0
   -5.7660   26.0550  -31.2050 O   0  0  0  0  0  0  0  0  0  0  0  0
   -5.7490   24.8470  -29.0820 O   0  0  0  0  0  0  0  0  0  0  0  0
   -3.4960   24.9260  -30.4660 N   0  0  0  0  0  0  0  0  0  0  0  0
   -2.6460   24.1680  -29.5940 C   0  0  0  0  0  0  0  0  0  0  0  0
   -2.9040   22.8180  -29.2890 C   0  0  0  0  0  0  0  0  0  0  0  0
   -2.0480   22.1110  -28.4380 C   0  0  0  0  0  0  0  0  0  0  0  0
   -0.9310   22.7410  -27.8850 C   0  0  0  0  0  0  0  0  0  0  0  0
   -0.6680   24.0810  -28.1810 C   0  0  0  0  0  0  0  0  0  0  0  0
   -1.5180   24.7920  -29.0340 C   0  0  0  0  0  0  0  0  0  0  0  0
   -1.2380   26.1230  -29.3260 O   0  0  0  0  0  0  0  0  0  0  0  0
   -4.8000   22.6570  -32.0770 C   0  0  0  0  0  0  0  0  0  0  0  0
   -1.9960   20.0020  -32.4460 C   0  0  0  0  0  0  0  0  0  0  0  0
   -1.5520   19.3330  -31.2870 C   0  0  0  0  0  0  0  0  0  0  0  0
   -0.2870   19.5900  -30.7540 C   0  0  0  0  0  0  0  0  0  0  0  0
    0.5570   20.5130  -31.3690 C   0  0  0  0  0  0  0  0  0  0  0  0
    0.1400   21.1820  -32.5200 C   0  0  0  0  0  0  0  0  0  0  0  0
   -1.1290   20.9340  -33.0670 C   0  0  0  0  0  0  0  0  0  0  0  0
   -1.5130   21.6050  -34.2270 O   0  0  0  0  0  0  0  0  0  0  0  0
   -6.8314   20.1586  -33.2340 H   0  0  0  0  0  0  0  0  0  0  0  0
   -8.5136   21.4903  -31.9619 H   0  0  0  0  0  0  0  0  0  0  0  0
   -7.8233   23.5657  -30.7608 H   0  0  0  0  0  0  0  0  0  0  0  0
   -3.7825   22.3170  -29.7217 H   0  0  0  0  0  0  0  0  0  0  0  0
   -2.2552   21.0564  -28.2038 H   0  0  0  0  0  0  0  0  0  0  0  0
   -0.2587   22.1827  -27.2169 H   0  0  0  0  0  0  0  0  0  0  0  0
    0.2098   24.5778  -27.7420 H   0  0  0  0  0  0  0  0  0  0  0  0
   -3.7554   22.9984  -32.1233 H   0  0  0  0  0  0  0  0  0  0  0  0
   -2.2097   18.6001  -30.7969 H   0  0  0  0  0  0  0  0  0  0  0  0
    0.0439   19.0629  -29.8470 H   0  0  0  0  0  0  0  0  0  0  0  0
    1.5525   20.7141  -30.9466 H   0  0  0  0  0  0  0  0  0  0  0  0
    0.8101   21.9088  -33.0023 H   0  0  0  0  0  0  0  0  0  0  0  0
   -2.4840   21.6660  -34.5120 H   0  0  0  0  0  0  0  0  0  0  0  0
  1  2  2  0
  2  3  1  0
  3  4  1  0
  4  5  2  0
  5  6  1  0
  6  7  2  0
  7  8  1  0
  8  9  1  0
  9 10  2  0
  9 11  2  0
  9 12  1  0
 12 13  1  0
 13 14  2  0
 14 15  1  0
 15 16  2  0
 16 17  1  0
 17 18  2  0
 18 19  1  0
  8 20  2  0
  2 21  1  0
 21 22  2  0
 22 23  1  0
 23 24  2  0
 24 25  1  0
 25 26  2  0
 26 27  1  0
 20  4  1  0
 26 21  1  0
 18 13  1  0
  5 28  1  0
  6 29  1  0
  7 30  1  0
 14 31  1  0
 15 32  1  0
 16 33  1  0
 17 34  1  0
 20 35  1  0
 22 36  1  0
 23 37  1  0
 24 38  1  0
 25 39  1  0
 27 40  1  0
M  CHG  3   3  -1  12  -1  19  -1
M  END
>  <UniqueID>  (21) 
19

>  <SMILES>  (21) 
O=C([N-]c1cccc(S(=O)(=O)[N-]c2ccccc2[O-])c1)c1ccccc1O

>  <Energy>  (21) 
52.60341610145851

>  <Genealogy>  (21) 
O=C([N-]c1cccc(S(=O)(=O)[N-]c2ccccc2[O-])c1)c1ccccc1O (protonated)
O=C([N-]c1cccc(S(=O)(=O)[N-]c2ccccc2[O-])c1)c1ccccc1O (3D coordinates assigned)
O=C([N-]c1cccc(S(=O)(=O)[N-]c2ccccc2[O-])c1)c1ccccc1O (optimized conformer: 52.60341610145851 kcal/mol)

>  <smiles>  (21) 
O=C(Nc1cccc(S(=O)(=O)Nc2ccccc2O)c1)c1ccccc1O

>  <score_type>  (21) 
oracle

>  <origin>  (21) 
adgpu

>  <m_score__min__energy>  (21) 
-13.49

>  <m_primary>  (21) 
energy

$$$$
21:0
     RDKit          3D

 60 63  0  0  0  0  0  0  0  0999 V2000
   -5.7360   26.3100  -30.4070 O   0  0  0  0  0  0  0  0  0  0  0  0
   -5.1390   25.2130  -30.5700 C   0  0  0  0  0  0  0  0  0  0  0  0
   -3.7300   25.1400  -30.3180 N   0  0  0  0  0  0  0  0  0  0  0  0
   -3.0860   24.0100  -29.7120 C   0  0  0  0  0  0  0  0  0  0  0  0
   -2.4750   23.0550  -30.5330 C   0  0  0  0  0  0  0  0  0  0  0  0
   -1.8830   21.9110  -29.9760 C   0  0  0  0  0  0  0  0  0  0  0  0
   -1.1970   20.6650  -31.0220 S   0  0  0  0  0  0  0  0  0  0  0  0
   -0.9040   19.4420  -30.2000 O   0  0  0  0  0  0  0  0  0  0  0  0
    0.1070   21.1680  -31.5740 O   0  0  0  0  0  0  0  0  0  0  0  0
   -2.2480   20.2440  -32.3630 N   0  0  0  0  0  0  0  0  0  0  0  0
   -2.1360   21.1590  -33.5160 C   0  0  0  0  0  0  0  0  0  0  0  0
   -0.9480   20.8400  -34.4450 C   0  0  0  0  0  0  0  0  0  0  0  0
   -0.6120   19.3440  -34.5260 C   0  0  0  0  0  0  0  0  0  0  0  0
   -1.8030   18.4810  -34.1260 C   0  0  0  0  0  0  0  0  0  0  0  0
   -2.2420   18.7970  -32.6860 C   0  0  0  0  0  0  0  0  0  0  0  0
   -1.8370   21.7670  -28.5850 C   0  0  0  0  0  0  0  0  0  0  0  0
   -2.4270   22.7250  -27.7580 C   0  0  0  0  0  0  0  0  0  0  0  0
   -3.0540   23.8480  -28.3130 C   0  0  0  0  0  0  0  0  0  0  0  0
   -3.6240   24.8100  -27.4800 O   0  0  0  0  0  0  0  0  0  0  0  0
   -5.8920   24.0280  -31.0240 C   0  0  0  0  0  0  0  0  0  0  0  0
   -5.3450   23.1730  -31.9950 C   0  0  0  0  0  0  0  0  0  0  0  0
   -6.0150   22.0060  -32.3630 C   0  0  0  0  0  0  0  0  0  0  0  0
   -7.2290   21.6680  -31.7560 C   0  0  0  0  0  0  0  0  0  0  0  0
   -7.9630   20.1110  -32.1190 S   0  0  0  0  0  0  0  0  0  0  0  0
   -8.9870   20.2980  -33.2030 O   0  0  0  0  0  0  0  0  0  0  0  0
   -8.6380   19.5570  -30.8950 O   0  0  0  0  0  0  0  0  0  0  0  0
   -6.7170   19.0140  -32.6590 N   0  0  0  0  0  0  0  0  0  0  0  0
   -6.3320   19.3260  -34.0460 C   0  0  0  0  0  0  0  0  0  0  0  0
   -5.4220   18.2220  -34.6230 C   0  0  0  0  0  0  0  0  0  0  0  0
   -4.9850   17.3380  -33.6090 O   0  0  0  0  0  0  0  0  0  0  0  0
   -6.0970   16.6540  -33.0610 C   0  0  0  0  0  0  0  0  0  0  0  0
   -7.1880   17.6240  -32.5590 C   0  0  0  0  0  0  0  0  0  0  0  0
   -7.8020   22.5390  -30.8190 C   0  0  0  0  0  0  0  0  0  0  0  0
   -7.1430   23.7210  -30.4650 C   0  0  0  0  0  0  0  0  0  0  0  0
   -2.4588   23.2023  -31.6230 H   0  0  0  0  0  0  0  0  0  0  0  0
   -3.0638   21.0934  -34.1032 H   0  0  0  0  0  0  0  0  0  0  0  0
   -1.9668   22.1678  -33.1115 H   0  0  0  0  0  0  0  0  0  0  0  0
   -1.1928   21.1962  -35.4565 H   0  0  0  0  0  0  0  0  0  0  0  0
   -0.0662   21.3451  -34.0240 H   0  0  0  0  0  0  0  0  0  0  0  0
   -0.3232   19.0980  -35.5585 H   0  0  0  0  0  0  0  0  0  0  0  0
    0.2132   19.1376  -33.8286 H   0  0  0  0  0  0  0  0  0  0  0  0
   -2.6402   18.6805  -34.8111 H   0  0  0  0  0  0  0  0  0  0  0  0
   -1.5086   17.4226  -34.1825 H   0  0  0  0  0  0  0  0  0  0  0  0
   -3.2596   18.4056  -32.5405 H   0  0  0  0  0  0  0  0  0  0  0  0
   -1.5076   18.3240  -32.0175 H   0  0  0  0  0  0  0  0  0  0  0  0
   -1.3339   20.8954  -28.1410 H   0  0  0  0  0  0  0  0  0  0  0  0
   -2.3993   22.5973  -26.6658 H   0  0  0  0  0  0  0  0  0  0  0  0
   -4.2240   25.5400  -27.8460 H   0  0  0  0  0  0  0  0  0  0  0  0
   -4.3840   23.4248  -32.4674 H   0  0  0  0  0  0  0  0  0  0  0  0
   -5.5866   21.3487  -33.1340 H   0  0  0  0  0  0  0  0  0  0  0  0
   -7.2392   19.4048  -34.6631 H   0  0  0  0  0  0  0  0  0  0  0  0
   -5.7803   20.2776  -34.0534 H   0  0  0  0  0  0  0  0  0  0  0  0
   -5.9835   17.6524  -35.3782 H   0  0  0  0  0  0  0  0  0  0  0  0
   -4.5392   18.6985  -35.0741 H   0  0  0  0  0  0  0  0  0  0  0  0
   -6.5300   16.0039  -33.8355 H   0  0  0  0  0  0  0  0  0  0  0  0
   -5.7428   16.0687  -32.1996 H   0  0  0  0  0  0  0  0  0  0  0  0
   -8.0929   17.5020  -33.1724 H   0  0  0  0  0  0  0  0  0  0  0  0
   -7.4141   17.3964  -31.5068 H   0  0  0  0  0  0  0  0  0  0  0  0
   -8.7715   22.2926  -30.3613 H   0  0  0  0  0  0  0  0  0  0  0  0
   -7.6065   24.4126  -29.7460 H   0  0  0  0  0  0  0  0  0  0  0  0
  1  2  2  0
  2  3  1  0
  3  4  1  0
  4  5  2  0
  5  6  1  0
  6  7  1  0
  7  8  2  0
  7  9  2  0
  7 10  1  0
 10 11  1  0
 11 12  1  0
 12 13  1  0
 13 14  1  0
 14 15  1  0
  6 16  2  0
 16 17  1  0
 17 18  2  0
 18 19  1  0
  2 20  1  0
 20 21  2  0
 21 22  1  0
 22 23  2  0
 23 24  1  0
 24 25  2  0
 24 26  2  0
 24 27  1  0
 27 28  1  0
 28 29  1  0
 29 30  1  0
 30 31  1  0
 31 32  1  0
 23 33  1  0
 33 34  2  0
 18  4  1  0
 34 20  1  0
 15 10  1  0
 32 27  1  0
  5 35  1  0
 11 36  1  0
 11 37  1  0
 12 38  1  0
 12 39  1  0
 13 40  1  0
 13 41  1  0
 14 42  1  0
 14 43  1  0
 15 44  1  0
 15 45  1  0
 16 46  1  0
 17 47  1  0
 19 48  1  0
 21 49  1  0
 22 50  1  0
 28 51  1  0
 28 52  1  0
 29 53  1  0
 29 54  1  0
 31 55  1  0
 31 56  1  0
 32 57  1  0
 32 58  1  0
 33 59  1  0
 34 60  1  0
M  CHG  1   3  -1
M  END
>  <UniqueID>  (22) 
20

>  <SMILES>  (22) 
O=C([N-]c1cc(S(=O)(=O)N2CCCCC2)ccc1O)c1ccc(S(=O)(=O)N2CCOCC2)cc1

>  <Energy>  (22) 
80.96491823484902

>  <Genealogy>  (22) 
O=C([N-]c1cc(S(=O)(=O)N2CCCCC2)ccc1O)c1ccc(S(=O)(=O)N2CCOCC2)cc1 (protonated)
O=C([N-]c1cc(S(=O)(=O)N2CCCCC2)ccc1O)c1ccc(S(=O)(=O)N2CCOCC2)cc1 (3D coordinates assigned)
O=C([N-]c1cc(S(=O)(=O)N2CCCCC2)ccc1O)c1ccc(S(=O)(=O)N2CCOCC2)cc1 (nonaromatic ring conformer: 80.96491823484902 kcal/mol)

>  <smiles>  (22) 
O=C(Nc1cc(S(=O)(=O)N2CCCCC2)ccc1O)c1ccc(S(=O)(=O)N2CCOCC2)cc1

>  <score_type>  (22) 
oracle

>  <origin>  (22) 
adgpu

>  <m_score__min__energy>  (22) 
-11.890000000000001

>  <m_primary>  (22) 
energy

$$$$
22:0
     RDKit          3D

 43 45  0  0  0  0  0  0  0  0999 V2000
   -4.5230   22.6730  -32.9270 N   0  0  0  0  0  0  0  0  0  0  0  0
   -5.2970   22.9380  -31.9050 C   0  0  0  0  0  0  0  0  0  0  0  0
   -4.8730   23.8080  -30.9010 C   0  0  0  0  0  0  0  0  0  0  0  0
   -5.7490   24.0360  -29.8520 C   0  0  0  0  0  0  0  0  0  0  0  0
   -5.3090   24.9280  -28.8280 N   0  0  0  0  0  0  0  0  0  0  0  0
   -6.9630   23.4620  -29.7750 N   0  0  0  0  0  0  0  0  0  0  0  0
   -7.3460   22.6290  -30.7540 C   0  0  0  0  0  0  0  0  0  0  0  0
   -8.9660   21.8830  -30.6160 S   0  0  0  0  0  0  0  0  0  0  0  0
   -9.4220   20.9960  -32.1080 C   0  0  0  0  0  0  0  0  0  0  0  0
   -8.4260   19.9710  -32.5180 C   0  0  0  0  0  0  0  0  0  0  0  0
   -8.5330   18.7030  -31.9640 C   0  0  0  0  0  0  0  0  0  0  0  0
   -7.6320   17.7040  -32.3090 C   0  0  0  0  0  0  0  0  0  0  0  0
   -6.6100   17.9720  -33.2180 C   0  0  0  0  0  0  0  0  0  0  0  0
   -5.5250   16.6600  -33.5940 S   0  0  0  0  0  0  0  0  0  0  0  0
   -4.8100   16.1800  -32.3540 O   0  0  0  0  0  0  0  0  0  0  0  0
   -6.2530   15.4730  -34.1440 O   0  0  0  0  0  0  0  0  0  0  0  0
   -4.3120   17.1530  -34.7250 N   0  0  0  0  0  0  0  0  0  0  0  0
   -3.3160   16.0870  -34.8720 C   0  0  0  0  0  0  0  0  0  0  0  0
   -2.3320   16.2660  -33.7560 C   0  0  0  0  0  0  0  0  0  0  0  0
   -2.5480   17.6540  -33.1980 C   0  0  0  0  0  0  0  0  0  0  0  0
   -3.5370   18.2490  -34.1810 C   0  0  0  0  0  0  0  0  0  0  0  0
   -6.5000   19.2310  -33.7710 C   0  0  0  0  0  0  0  0  0  0  0  0
   -7.4090   20.2340  -33.4200 C   0  0  0  0  0  0  0  0  0  0  0  0
   -6.5170   22.3900  -31.7810 N   0  0  0  0  0  0  0  0  0  0  0  0
   -4.8340   22.0280  -33.6740 H   0  0  0  0  0  0  0  0  0  0  0  0
   -3.8861   24.2922  -30.9401 H   0  0  0  0  0  0  0  0  0  0  0  0
   -5.7720   24.8430  -27.8820 H   0  0  0  0  0  0  0  0  0  0  0  0
   -4.5640   25.6420  -28.9780 H   0  0  0  0  0  0  0  0  0  0  0  0
   -7.5630   23.6860  -28.9530 H   0  0  0  0  0  0  0  0  0  0  0  0
  -10.3856   20.4948  -31.9340 H   0  0  0  0  0  0  0  0  0  0  0  0
   -9.4766   21.7362  -32.9199 H   0  0  0  0  0  0  0  0  0  0  0  0
   -9.3379   18.4875  -31.2459 H   0  0  0  0  0  0  0  0  0  0  0  0
   -7.7249   16.7018  -31.8651 H   0  0  0  0  0  0  0  0  0  0  0  0
   -3.8000   15.1020  -34.7974 H   0  0  0  0  0  0  0  0  0  0  0  0
   -2.8193   16.1396  -35.8521 H   0  0  0  0  0  0  0  0  0  0  0  0
   -2.5062   15.5126  -32.9737 H   0  0  0  0  0  0  0  0  0  0  0  0
   -1.3004   16.1433  -34.1175 H   0  0  0  0  0  0  0  0  0  0  0  0
   -2.9706   17.6138  -32.1832 H   0  0  0  0  0  0  0  0  0  0  0  0
   -1.6208   18.2376  -33.0994 H   0  0  0  0  0  0  0  0  0  0  0  0
   -4.1996   18.9597  -33.6654 H   0  0  0  0  0  0  0  0  0  0  0  0
   -3.0133   18.7921  -34.9815 H   0  0  0  0  0  0  0  0  0  0  0  0
   -5.6955   19.4464  -34.4896 H   0  0  0  0  0  0  0  0  0  0  0  0
   -7.3156   21.2367  -33.8626 H   0  0  0  0  0  0  0  0  0  0  0  0
  1  2  2  3
  2  3  1  0
  3  4  2  0
  4  5  1  0
  4  6  1  0
  6  7  1  0
  7  8  1  0
  8  9  1  0
  9 10  1  0
 10 11  2  0
 11 12  1  0
 12 13  2  0
 13 14  1  0
 14 15  2  0
 14 16  2  0
 14 17  1  0
 17 18  1  0
 18 19  1  0
 19 20  1  0
 20 21  1  0
 13 22  1  0
 22 23  2  0
  7 24  2  0
 24  2  1  0
 23 10  1  0
 21 17  1  0
  1 25  1  0
  3 26  1  0
  5 27  1  0
  5 28  1  0
  6 29  1  0
  9 30  1  0
  9 31  1  0
 11 32  1  0
 12 33  1  0
 18 34  1  0
 18 35  1  0
 19 36  1  0
 19 37  1  0
 20 38  1  0
 20 39  1  0
 21 40  1  0
 21 41  1  0
 22 42  1  0
 23 43  1  0
M  END
>  <smiles>  (23) 
N=c1cc(N)[nH]c(SCc2ccc(S(=O)(=O)N3CCCC3)cc2)n1

>  <score_type>  (23) 
oracle

>  <origin>  (23) 
adgpu

>  <m_score__min__energy>  (23) 
-9.6899999999999995

>  <m_primary>  (23) 
energy

$$$$
23:0
     RDKit          3D

 32 34  0  0  0  0  0  0  0  0999 V2000
   -9.5420   18.3680  -31.9450 O   0  0  0  0  0  0  0  0  0  0  0  0
   -8.6280   19.2090  -32.1530 C   0  0  0  0  0  0  0  0  0  0  0  0
   -7.3680   18.7850  -32.5790 C   0  0  0  0  0  0  0  0  0  0  0  0
   -6.3710   19.7480  -32.8010 C   0  0  0  0  0  0  0  0  0  0  0  0
   -5.0110   19.3760  -33.2710 C   0  0  0  0  0  0  0  0  0  0  0  0
   -4.6960   18.0530  -33.6350 C   0  0  0  0  0  0  0  0  0  0  0  0
   -3.4090   17.7240  -34.0670 C   0  0  0  0  0  0  0  0  0  0  0  0
   -2.4160   18.7040  -34.1370 C   0  0  0  0  0  0  0  0  0  0  0  0
   -1.1410   18.3590  -34.5690 O   0  0  0  0  0  0  0  0  0  0  0  0
   -2.7110   20.0260  -33.7670 C   0  0  0  0  0  0  0  0  0  0  0  0
   -1.7390   21.0250  -33.8230 O   0  0  0  0  0  0  0  0  0  0  0  0
   -4.0010   20.3540  -33.3330 C   0  0  0  0  0  0  0  0  0  0  0  0
   -6.6700   21.0620  -32.6050 N   0  0  0  0  0  0  0  0  0  0  0  0
   -7.9030   21.4550  -32.1920 C   0  0  0  0  0  0  0  0  0  0  0  0
   -8.2540   23.1930  -31.9670 S   0  0  0  0  0  0  0  0  0  0  0  0
   -6.7810   23.4440  -30.9770 C   0  0  0  0  0  0  0  0  0  0  0  0
   -6.5150   22.6030  -29.8900 C   0  0  0  0  0  0  0  0  0  0  0  0
   -5.3620   22.7940  -29.1220 C   0  0  0  0  0  0  0  0  0  0  0  0
   -4.4750   23.8290  -29.4380 C   0  0  0  0  0  0  0  0  0  0  0  0
   -4.7400   24.6730  -30.5220 C   0  0  0  0  0  0  0  0  0  0  0  0
   -3.8580   25.7000  -30.8350 O   0  0  0  0  0  0  0  0  0  0  0  0
   -5.8930   24.4810  -31.2910 C   0  0  0  0  0  0  0  0  0  0  0  0
   -8.8720   20.5310  -31.9670 N   0  0  0  0  0  0  0  0  0  0  0  0
   -7.1603   17.7165  -32.7377 H   0  0  0  0  0  0  0  0  0  0  0  0
   -5.4691   17.2725  -33.5788 H   0  0  0  0  0  0  0  0  0  0  0  0
   -3.1762   16.6878  -34.3536 H   0  0  0  0  0  0  0  0  0  0  0  0
   -0.8240   20.8610  -34.2240 H   0  0  0  0  0  0  0  0  0  0  0  0
   -4.2279   21.3888  -33.0369 H   0  0  0  0  0  0  0  0  0  0  0  0
   -7.2136   21.7911  -29.6397 H   0  0  0  0  0  0  0  0  0  0  0  0
   -5.1525   22.1308  -28.2698 H   0  0  0  0  0  0  0  0  0  0  0  0
   -3.5683   23.9793  -28.8335 H   0  0  0  0  0  0  0  0  0  0  0  0
   -6.1024   25.1448  -32.1428 H   0  0  0  0  0  0  0  0  0  0  0  0
  1  2  2  0
  2  3  1  0
  3  4  2  0
  4  5  1  0
  5  6  2  0
  6  7  1  0
  7  8  2  0
  8  9  1  0
  8 10  1  0
 10 11  1  0
 10 12  2  0
  4 13  1  0
 13 14  2  0
 14 15  1  0
 15 16  1  0
 16 17  2  0
 17 18  1  0
 18 19  2  0
 19 20  1  0
 20 21  1  0
 20 22  2  0
 14 23  1  0
 23  2  1  0
 12  5  1  0
 22 16  1  0
  3 24  1  0
  6 25  1  0
  7 26  1  0
 11 27  1  0
 12 28  1  0
 17 29  1  0
 18 30  1  0
 19 31  1  0
 22 32  1  0
M  CHG  3   9  -1  21  -1  23  -1
M  END
>  <UniqueID>  (24) 
21

>  <SMILES>  (24) 
O=c1cc(-c2ccc([O-])c(O)c2)nc(Sc2cccc([O-])c2)[n-]1

>  <Energy>  (24) 
35.832886763354615

>  <Genealogy>  (24) 
O=c1cc(-c2ccc([O-])c(O)c2)nc(Sc2cccc([O-])c2)[n-]1 (protonated)
O=c1cc(-c2ccc([O-])c(O)c2)nc(Sc2cccc([O-])c2)[n-]1 (3D coordinates assigned)
O=c1cc(-c2ccc([O-])c(O)c2)nc(Sc2cccc([O-])c2)[n-]1 (optimized conformer: 35.832886763354615 kcal/mol)

>  <smiles>  (24) 
O=c1cc(-c2ccc(O)c(O)c2)nc(Sc2cccc(O)c2)[nH]1

>  <score_type>  (24) 
oracle

>  <origin>  (24) 
adgpu

>  <m_score__min__energy>  (24) 
-11.289999999999999

>  <m_primary>  (24) 
energy

$$$$
24:0
     RDKit          3D

 41 43  0  0  0  0  0  0  0  0999 V2000
   -3.9600   25.6780  -30.8530 O   0  0  0  0  0  0  0  0  0  0  0  0
   -4.2640   24.5140  -30.4790 C   0  0  0  0  0  0  0  0  0  0  0  0
   -5.4110   23.8620  -31.0410 N   0  0  0  0  0  0  0  0  0  0  0  0
   -5.4160   22.6440  -31.8020 C   0  0  0  0  0  0  0  0  0  0  0  0
   -6.5770   21.8620  -31.8070 C   0  0  0  0  0  0  0  0  0  0  0  0
   -6.6190   20.6600  -32.5190 C   0  0  0  0  0  0  0  0  0  0  0  0
   -5.4900   20.2200  -33.2240 C   0  0  0  0  0  0  0  0  0  0  0  0
   -5.5190   18.6980  -34.1120 S   0  0  0  0  0  0  0  0  0  0  0  0
   -6.1140   18.9140  -35.4760 O   0  0  0  0  0  0  0  0  0  0  0  0
   -4.1040   18.2180  -34.2770 O   0  0  0  0  0  0  0  0  0  0  0  0
   -6.4560   17.5250  -33.2100 N   0  0  0  0  0  0  0  0  0  0  0  0
   -6.9250   16.4150  -34.0680 C   0  0  0  0  0  0  0  0  0  0  0  0
   -6.0520   15.1530  -33.9410 C   0  0  0  0  0  0  0  0  0  0  0  0
   -4.7120   15.5090  -33.6870 O   0  0  0  0  0  0  0  0  0  0  0  0
   -4.5900   16.0620  -32.3870 C   0  0  0  0  0  0  0  0  0  0  0  0
   -5.7270   17.0460  -32.0220 C   0  0  0  0  0  0  0  0  0  0  0  0
   -4.3170   20.9820  -33.1970 C   0  0  0  0  0  0  0  0  0  0  0  0
   -4.2750   22.1860  -32.4850 C   0  0  0  0  0  0  0  0  0  0  0  0
   -3.4680   23.8550  -29.4080 C   0  0  0  0  0  0  0  0  0  0  0  0
   -3.8990   22.6160  -28.8890 C   0  0  0  0  0  0  0  0  0  0  0  0
   -3.1700   21.9690  -27.8890 C   0  0  0  0  0  0  0  0  0  0  0  0
   -2.0030   22.5440  -27.3880 C   0  0  0  0  0  0  0  0  0  0  0  0
   -1.5620   23.7720  -27.8840 C   0  0  0  0  0  0  0  0  0  0  0  0
   -2.2850   24.4310  -28.8860 C   0  0  0  0  0  0  0  0  0  0  0  0
   -1.8150   25.6580  -29.3410 O   0  0  0  0  0  0  0  0  0  0  0  0
   -7.4627   22.1959  -31.2465 H   0  0  0  0  0  0  0  0  0  0  0  0
   -7.5397   20.0581  -32.5262 H   0  0  0  0  0  0  0  0  0  0  0  0
   -7.9556   16.1598  -33.7805 H   0  0  0  0  0  0  0  0  0  0  0  0
   -6.8652   16.7555  -35.1123 H   0  0  0  0  0  0  0  0  0  0  0  0
   -6.4266   14.5345  -33.1121 H   0  0  0  0  0  0  0  0  0  0  0  0
   -6.0998   14.5883  -34.8838 H   0  0  0  0  0  0  0  0  0  0  0  0
   -4.5951   15.2389  -31.6573 H   0  0  0  0  0  0  0  0  0  0  0  0
   -3.6505   16.6337  -32.3670 H   0  0  0  0  0  0  0  0  0  0  0  0
   -6.4361   16.5349  -31.3542 H   0  0  0  0  0  0  0  0  0  0  0  0
   -5.2715   17.9193  -31.5323 H   0  0  0  0  0  0  0  0  0  0  0  0
   -3.4245   20.6335  -33.7374 H   0  0  0  0  0  0  0  0  0  0  0  0
   -3.3469   22.7759  -32.4594 H   0  0  0  0  0  0  0  0  0  0  0  0
   -4.8194   22.1545  -29.2763 H   0  0  0  0  0  0  0  0  0  0  0  0
   -3.5177   21.0025  -27.4953 H   0  0  0  0  0  0  0  0  0  0  0  0
   -1.4299   22.0302  -26.6021 H   0  0  0  0  0  0  0  0  0  0  0  0
   -0.6418   24.2244  -27.4857 H   0  0  0  0  0  0  0  0  0  0  0  0
  1  2  2  0
  2  3  1  0
  3  4  1  0
  4  5  2  0
  5  6  1  0
  6  7  2  0
  7  8  1  0
  8  9  2  0
  8 10  2  0
  8 11  1  0
 11 12  1  0
 12 13  1  0
 13 14  1  0
 14 15  1  0
 15 16  1  0
  7 17  1  0
 17 18  2  0
  2 19  1  0
 19 20  2  0
 20 21  1  0
 21 22  2  0
 22 23  1  0
 23 24  2  0
 24 25  1  0
 18  4  1  0
 24 19  1  0
 16 11  1  0
  5 26  1  0
  6 27  1  0
 12 28  1  0
 12 29  1  0
 13 30  1  0
 13 31  1  0
 15 32  1  0
 15 33  1  0
 16 34  1  0
 16 35  1  0
 17 36  1  0
 18 37  1  0
 20 38  1  0
 21 39  1  0
 22 40  1  0
 23 41  1  0
M  CHG  2   3  -1  25  -1
M  END
>  <UniqueID>  (25) 
22

>  <SMILES>  (25) 
O=C([N-]c1ccc(S(=O)(=O)N2CCOCC2)cc1)c1ccccc1[O-]

>  <Energy>  (25) 
60.07456204602679

>  <Genealogy>  (25) 
O=C([N-]c1ccc(S(=O)(=O)N2CCOCC2)cc1)c1ccccc1[O-] (protonated)
O=C([N-]c1ccc(S(=O)(=O)N2CCOCC2)cc1)c1ccccc1[O-] (3D coordinates assigned)
O=C([N-]c1ccc(S(=O)(=O)N2CCOCC2)cc1)c1ccccc1[O-] (nonaromatic ring conformer: 60.07456204602679 kcal/mol)

>  <smiles>  (25) 
O=C(Nc1ccc(S(=O)(=O)N2CCOCC2)cc1)c1ccccc1O

>  <score_type>  (25) 
oracle

>  <origin>  (25) 
adgpu

>  <m_score__min__energy>  (25) 
-12.59

>  <m_primary>  (25) 
energy

$$$$
25:0
     RDKit          3D

 40 42  0  0  0  0  0  0  0  0999 V2000
   -2.0571   17.2645  -26.3701 H   0  0  0  0  0  0  0  0  0  0  0  0
   -1.7330   18.2370  -26.7690 C   0  0  0  0  0  0  0  0  0  0  0  0
   -2.5030   19.3790  -26.5350 C   0  0  0  0  0  0  0  0  0  0  0  0
   -3.4317   19.3048  -25.9502 H   0  0  0  0  0  0  0  0  0  0  0  0
   -2.0950   20.6160  -27.0430 C   0  0  0  0  0  0  0  0  0  0  0  0
   -2.7017   21.5138  -26.8533 H   0  0  0  0  0  0  0  0  0  0  0  0
   -0.9110   20.7160  -27.7960 C   0  0  0  0  0  0  0  0  0  0  0  0
   -0.4430   22.0550  -28.3040 C   0  0  0  0  0  0  0  0  0  0  0  0
   -0.4563   22.0427  -29.4039 H   0  0  0  0  0  0  0  0  0  0  0  0
    0.5738   22.2284  -27.9220 H   0  0  0  0  0  0  0  0  0  0  0  0
   -1.3380   23.1980  -27.8100 C   0  0  0  0  0  0  0  0  0  0  0  0
   -0.7047   24.0551  -27.5374 H   0  0  0  0  0  0  0  0  0  0  0  0
   -1.9073   22.8381  -26.9403 H   0  0  0  0  0  0  0  0  0  0  0  0
   -2.3150   23.6300  -28.8650 C   0  0  0  0  0  0  0  0  0  0  0  0
   -3.4860   22.6450  -29.5640 S   0  0  0  0  0  0  0  0  0  0  0  0
   -4.1450   23.9120  -30.4700 C   0  0  0  0  0  0  0  0  0  0  0  0
   -5.1250   23.8190  -31.3210 N   0  0  0  0  0  0  0  0  0  0  0  0
   -5.9180   22.6510  -31.5830 C   0  0  0  0  0  0  0  0  0  0  0  0
   -5.4290   21.5840  -32.3590 C   0  0  0  0  0  0  0  0  0  0  0  0
   -4.4271   21.6481  -32.8086 H   0  0  0  0  0  0  0  0  0  0  0  0
   -6.2100   20.4440  -32.5610 C   0  0  0  0  0  0  0  0  0  0  0  0
   -5.8298   19.6235  -33.1874 H   0  0  0  0  0  0  0  0  0  0  0  0
   -7.4760   20.3410  -31.9690 C   0  0  0  0  0  0  0  0  0  0  0  0
   -8.4670   18.9110  -32.2390 S   0  0  0  0  0  0  0  0  0  0  0  0
   -7.6840   17.8880  -33.0150 O   0  0  0  0  0  0  0  0  0  0  0  0
   -8.8640   18.3100  -30.9190 O   0  0  0  0  0  0  0  0  0  0  0  0
   -9.8850   19.3450  -33.1250 N   0  0  0  0  0  0  0  0  0  0  0  0
  -10.5130   18.5100  -33.1230 H   0  0  0  0  0  0  0  0  0  0  0  0
   -9.5910   19.4970  -34.1160 H   0  0  0  0  0  0  0  0  0  0  0  0
   -7.9540   21.3910  -31.1740 C   0  0  0  0  0  0  0  0  0  0  0  0
   -8.9473   21.3171  -30.7073 H   0  0  0  0  0  0  0  0  0  0  0  0
   -7.1720   22.5330  -30.9720 C   0  0  0  0  0  0  0  0  0  0  0  0
   -7.5448   23.3437  -30.3288 H   0  0  0  0  0  0  0  0  0  0  0  0
   -3.4890   25.0740  -30.2590 N   0  0  0  0  0  0  0  0  0  0  0  0
   -2.4820   24.9220  -29.3600 C   0  0  0  0  0  0  0  0  0  0  0  0
   -1.6890   25.9910  -28.9680 O   0  0  0  0  0  0  0  0  0  0  0  0
   -0.1380   19.5650  -28.0190 C   0  0  0  0  0  0  0  0  0  0  0  0
    0.7957   19.6350  -28.5963 H   0  0  0  0  0  0  0  0  0  0  0  0
   -0.5520   18.3290  -27.5090 C   0  0  0  0  0  0  0  0  0  0  0  0
    0.0535   17.4289  -27.6912 H   0  0  0  0  0  0  0  0  0  0  0  0
  1  2  1  0
  2  3  2  0
  3  4  1  0
  3  5  1  0
  5  6  1  0
  5  7  2  0
  7  8  1  0
  8  9  1  0
  8 10  1  0
  8 11  1  0
 11 12  1  0
 11 13  1  0
 11 14  1  0
 14 15  1  0
 15 16  1  0
 16 17  2  0
 17 18  1  0
 18 19  2  0
 19 20  1  0
 19 21  1  0
 21 22  1  0
 21 23  2  0
 23 24  1  0
 24 25  2  0
 24 26  2  0
 24 27  1  0
 27 28  1  0
 27 29  1  0
 23 30  1  0
 30 31  1  0
 30 32  2  0
 32 33  1  0
 16 34  1  0
 34 35  1  0
 35 36  1  0
  7 37  1  0
 37 38  1  0
 37 39  2  0
 39 40  1  0
 39  2  1  0
 35 14  2  0
 32 18  1  0
M  CHG  2  34  -1  36  -1
M  END
>  <UniqueID>  (26) 
23

>  <SMILES>  (26) 
NS(=O)(=O)c1ccc(/N=c2/[n-]c([O-])c(CCc3ccccc3)s2)cc1

>  <Energy>  (26) 
74.3784804342645

>  <Genealogy>  (26) 
NS(=O)(=O)c1ccc(N=c2[n-]c([O-])c(CCc3ccccc3)s2)cc1 (protonated)
NS(=O)(=O)c1ccc(/N=c2/[n-]c([O-])c(CCc3ccccc3)s2)cc1 (cis-trans isomerization)
NS(=O)(=O)c1ccc(/N=c2/[n-]c([O-])c(CCc3ccccc3)s2)cc1 (3D coordinates assigned)
NS(=O)(=O)c1ccc(/N=c2/[n-]c([O-])c(CCc3ccccc3)s2)cc1 (optimized conformer: 74.3784804342645 kcal/mol)

>  <smiles>  (26) 
NS(=O)(=O)c1ccc(N=c2[nH]c(O)c(CCc3ccccc3)s2)cc1

>  <score_type>  (26) 
oracle

>  <origin>  (26) 
adgpu

>  <m_score__min__energy>  (26) 
-13.58

>  <m_primary>  (26) 
energy

$$$$
26:0
     RDKit          3D

 72 77  0  0  0  0  0  0  0  0999 V2000
   -8.5130   19.1430  -33.4950 H   0  0  0  0  0  0  0  0  0  0  0  0
   -7.7810   19.0060  -32.8070 O   0  0  0  0  0  0  0  0  0  0  0  0
   -6.4500   19.2490  -33.1310 C   0  0  0  0  0  0  0  0  0  0  0  0
   -5.5830   18.2630  -33.4650 N   0  0  0  0  0  0  0  0  0  0  0  0
   -4.4060   18.9000  -33.6200 C   0  0  0  0  0  0  0  0  0  0  0  0
   -3.1840   18.3160  -33.9450 C   0  0  0  0  0  0  0  0  0  0  0  0
   -3.1057   17.2348  -34.1315 H   0  0  0  0  0  0  0  0  0  0  0  0
   -2.0530   19.1480  -34.0280 C   0  0  0  0  0  0  0  0  0  0  0  0
   -1.0773   18.7161  -34.2953 H   0  0  0  0  0  0  0  0  0  0  0  0
   -2.1590   20.5400  -33.7700 C   0  0  0  0  0  0  0  0  0  0  0  0
   -1.0100   21.3980  -33.8640 N   0  0  0  0  0  0  0  0  0  0  0  0
   -0.9320   22.1820  -33.1760 H   0  0  0  0  0  0  0  0  0  0  0  0
    0.0540   21.2250  -34.8170 C   0  0  0  0  0  0  0  0  0  0  0  0
    0.5230   19.9460  -35.1640 C   0  0  0  0  0  0  0  0  0  0  0  0
    0.0637   19.0535  -34.7141 H   0  0  0  0  0  0  0  0  0  0  0  0
    1.5690   19.8040  -36.0770 C   0  0  0  0  0  0  0  0  0  0  0  0
    1.9160   18.7990  -36.3590 H   0  0  0  0  0  0  0  0  0  0  0  0
    2.1780   20.9310  -36.6350 C   0  0  0  0  0  0  0  0  0  0  0  0
    3.1820   20.7590  -37.5820 O   0  0  0  0  0  0  0  0  0  0  0  0
    1.7570   22.2210  -36.2510 C   0  0  0  0  0  0  0  0  0  0  0  0
    2.3730   23.4070  -36.7740 N   0  0  0  0  0  0  0  0  0  0  0  0
    2.4880   24.6630  -36.0920 C   0  0  0  0  0  0  0  0  0  0  0  0
    3.5740   24.9400  -35.5190 O   0  0  0  0  0  0  0  0  0  0  0  0
    1.3840   25.6520  -36.0770 C   0  0  0  0  0  0  0  0  0  0  0  0
    1.5110   26.8620  -35.3700 C   0  0  0  0  0  0  0  0  0  0  0  0
    2.4394   27.0793  -34.8215 H   0  0  0  0  0  0  0  0  0  0  0  0
    0.4650   27.7900  -35.3600 C   0  0  0  0  0  0  0  0  0  0  0  0
    0.5757   28.7367  -34.8109 H   0  0  0  0  0  0  0  0  0  0  0  0
   -0.7210   27.5160  -36.0470 C   0  0  0  0  0  0  0  0  0  0  0  0
   -2.0340   28.6780  -36.0290 Cl  0  0  0  0  0  0  0  0  0  0  0  0
   -0.8630   26.3090  -36.7410 C   0  0  0  0  0  0  0  0  0  0  0  0
   -1.7980   26.0912  -37.2780 H   0  0  0  0  0  0  0  0  0  0  0  0
    0.1820   25.3790  -36.7530 C   0  0  0  0  0  0  0  0  0  0  0  0
    0.0625   24.4289  -37.2943 H   0  0  0  0  0  0  0  0  0  0  0  0
    0.6850   22.3560  -35.3590 C   0  0  0  0  0  0  0  0  0  0  0  0
    0.3335   23.3603  -35.0800 H   0  0  0  0  0  0  0  0  0  0  0  0
   -3.4180   21.1010  -33.4680 C   0  0  0  0  0  0  0  0  0  0  0  0
   -3.5288   22.1820  -33.2973 H   0  0  0  0  0  0  0  0  0  0  0  0
   -4.5170   20.2480  -33.3920 C   0  0  0  0  0  0  0  0  0  0  0  0
   -5.8380   20.5000  -33.1010 C   0  0  0  0  0  0  0  0  0  0  0  0
   -6.4140   21.7930  -32.6800 C   0  0  0  0  0  0  0  0  0  0  0  0
   -7.4028   22.0691  -33.0750 H   0  0  0  0  0  0  0  0  0  0  0  0
   -5.8080   22.6530  -31.8460 C   0  0  0  0  0  0  0  0  0  0  0  0
   -4.6180   22.4490  -31.1610 C   0  0  0  0  0  0  0  0  0  0  0  0
   -3.9831   21.5513  -31.1944 H   0  0  0  0  0  0  0  0  0  0  0  0
   -4.3900   23.5980  -30.4290 C   0  0  0  0  0  0  0  0  0  0  0  0
   -3.2220   23.8280  -29.5560 C   0  0  0  0  0  0  0  0  0  0  0  0
   -2.7170   24.9830  -29.5220 O   0  0  0  0  0  0  0  0  0  0  0  0
   -2.6810   22.7820  -28.7190 N   0  0  0  0  0  0  0  0  0  0  0  0
   -1.2480   22.7780  -28.3890 C   0  0  0  0  0  0  0  0  0  0  0  0
   -0.7007   22.2185  -29.1619 H   0  0  0  0  0  0  0  0  0  0  0  0
   -0.8911   23.8176  -28.3469 H   0  0  0  0  0  0  0  0  0  0  0  0
   -1.0090   22.1170  -27.0230 C   0  0  0  0  0  0  0  0  0  0  0  0
    0.0757   22.0425  -26.8563 H   0  0  0  0  0  0  0  0  0  0  0  0
   -1.5027   22.7448  -26.2666 H   0  0  0  0  0  0  0  0  0  0  0  0
   -1.5970   20.7560  -26.9170 N   0  0  0  0  0  0  0  0  0  0  0  0
   -0.5740   19.7160  -27.1080 C   0  0  0  0  0  0  0  0  0  0  0  0
   -0.2246   19.3608  -26.1273 H   0  0  0  0  0  0  0  0  0  0  0  0
   -1.0066   18.8750  -27.6698 H   0  0  0  0  0  0  0  0  0  0  0  0
    0.2740   20.1346  -27.6698 H   0  0  0  0  0  0  0  0  0  0  0  0
   -2.7590   20.5090  -27.8050 C   0  0  0  0  0  0  0  0  0  0  0  0
   -2.3946   20.1019  -28.7597 H   0  0  0  0  0  0  0  0  0  0  0  0
   -3.4277   19.7996  -27.2955 H   0  0  0  0  0  0  0  0  0  0  0  0
   -3.5560   21.7860  -28.0860 C   0  0  0  0  0  0  0  0  0  0  0  0
   -4.3942   21.5540  -28.7595 H   0  0  0  0  0  0  0  0  0  0  0  0
   -3.9457   22.1898  -27.1399 H   0  0  0  0  0  0  0  0  0  0  0  0
   -5.4710   24.4390  -30.6660 C   0  0  0  0  0  0  0  0  0  0  0  0
   -5.6920   25.6300  -30.1050 C   0  0  0  0  0  0  0  0  0  0  0  0
   -4.9565   26.0533  -29.4051 H   0  0  0  0  0  0  0  0  0  0  0  0
   -6.6096   26.1881  -30.3426 H   0  0  0  0  0  0  0  0  0  0  0  0
   -6.3260   23.8590  -31.5310 N   0  0  0  0  0  0  0  0  0  0  0  0
   -7.2260   24.2590  -31.8800 H   0  0  0  0  0  0  0  0  0  0  0  0
  1  2  1  0
  2  3  1  0
  3  4  1  0
  4  5  1  0
  5  6  2  0
  6  7  1  0
  6  8  1  0
  8  9  1  0
  8 10  2  0
 10 11  1  0
 11 12  1  0
 11 13  1  0
 13 14  2  0
 14 15  1  0
 14 16  1  0
 16 17  1  0
 16 18  2  0
 18 19  1  0
 18 20  1  0
 20 21  1  0
 21 22  1  0
 22 23  2  0
 22 24  1  0
 24 25  2  0
 25 26  1  0
 25 27  1  0
 27 28  1  0
 27 29  2  0
 29 30  1  0
 29 31  1  0
 31 32  1  0
 31 33  2  0
 33 34  1  0
 20 35  2  0
 35 36  1  0
 10 37  1  0
 37 38  1  0
 37 39  2  0
 39 40  1  0
 40 41  1  0
 41 42  1  0
 41 43  2  0
 43 44  1  0
 44 45  1  0
 44 46  2  0
 46 47  1  0
 47 48  2  0
 47 49  1  0
 49 50  1  0
 50 51  1  0
 50 52  1  0
 50 53  1  0
 53 54  1  0
 53 55  1  0
 53 56  1  0
 56 57  1  0
 57 58  1  0
 57 59  1  0
 57 60  1  0
 56 61  1  0
 61 62  1  0
 61 63  1  0
 61 64  1  0
 64 65  1  0
 64 66  1  0
 46 67  1  0
 67 68  2  0
 68 69  1  0
 68 70  1  0
 67 71  1  0
 71 72  1  0
 40  3  2  0
 71 43  1  0
 39  5  1  0
 64 49  1  0
 35 13  1  0
 33 24  1  0
M  CHG  3   4  -1  19  -1  21  -1
M  END
>  <UniqueID>  (27) 
24

>  <SMILES>  (27) 
C=c1[nH]/c(=C/c2c(O)[n-]c3ccc(Nc4ccc([O-])c([N-]C(=O)c5ccc(Cl)cc5)c4)cc23)cc1C(=O)N1CCN(C)CC1

>  <Energy>  (27) 
170.1029118063554

>  <Genealogy>  (27) 
C=c1[nH]c(=Cc2c(O)[n-]c3ccc(Nc4ccc([O-])c([N-]C(=O)c5ccc(Cl)cc5)c4)cc23)cc1C(=O)N1CCN(C)CC1 (protonated)
C=c1[nH]/c(=C/c2c(O)[n-]c3ccc(Nc4ccc([O-])c([N-]C(=O)c5ccc(Cl)cc5)c4)cc23)cc1C(=O)N1CCN(C)CC1 (cis-trans isomerization)
C=c1[nH]/c(=C/c2c(O)[n-]c3ccc(Nc4ccc([O-])c([N-]C(=O)c5ccc(Cl)cc5)c4)cc23)cc1C(=O)N1CCN(C)CC1 (3D coordinates assigned)
C=c1[nH]/c(=C/c2c(O)[n-]c3ccc(Nc4ccc([O-])c([N-]C(=O)c5ccc(Cl)cc5)c4)cc23)cc1C(=O)N1CCN(C)CC1 (nonaromatic ring conformer: 170.1029118063554 kcal/mol)

>  <smiles>  (27) 
C=c1[nH]c(=Cc2c(O)[nH]c3ccc(Nc4ccc(O)c(NC(=O)c5ccc(Cl)cc5)c4)cc23)cc1C(=O)N1CCN(C)CC1

>  <score_type>  (27) 
oracle

>  <origin>  (27) 
adgpu

>  <m_score__min__energy>  (27) 
-17.620000000000001

>  <m_primary>  (27) 
energy

$$$$
27:0
     RDKit          3D

 47 50  0  0  0  0  0  0  0  0999 V2000
   -5.5370   18.6160  -34.5830 C   0  0  0  0  0  0  0  0  0  0  0  0
   -6.3080   19.5680  -33.7600 N   0  0  0  0  0  0  0  0  0  0  0  0
   -7.0930   18.8380  -32.7430 C   0  0  0  0  0  0  0  0  0  0  0  0
   -8.0640   19.8010  -32.0460 C   0  0  0  0  0  0  0  0  0  0  0  0
   -7.3720   21.0620  -31.5940 C   0  0  0  0  0  0  0  0  0  0  0  0
   -8.0030   21.8980  -30.6620 C   0  0  0  0  0  0  0  0  0  0  0  0
   -7.3920   23.0840  -30.2520 C   0  0  0  0  0  0  0  0  0  0  0  0
   -6.1510   23.4630  -30.7820 C   0  0  0  0  0  0  0  0  0  0  0  0
   -5.3640   24.9190  -30.1870 S   0  0  0  0  0  0  0  0  0  0  0  0
   -6.4160   25.9590  -29.9050 O   0  0  0  0  0  0  0  0  0  0  0  0
   -4.4110   25.4780  -31.2060 O   0  0  0  0  0  0  0  0  0  0  0  0
   -4.5210   24.5490  -28.7160 N   0  0  0  0  0  0  0  0  0  0  0  0
   -3.3670   23.6990  -28.6050 C   0  0  0  0  0  0  0  0  0  0  0  0
   -3.4660   22.3580  -28.1940 C   0  0  0  0  0  0  0  0  0  0  0  0
   -2.3200   21.5510  -28.0940 C   0  0  0  0  0  0  0  0  0  0  0  0
   -1.0610   22.0780  -28.4460 C   0  0  0  0  0  0  0  0  0  0  0  0
   -0.9620   23.4220  -28.8460 C   0  0  0  0  0  0  0  0  0  0  0  0
   -2.1060   24.2230  -28.9330 C   0  0  0  0  0  0  0  0  0  0  0  0
   -1.9840   25.5510  -29.3370 O   0  0  0  0  0  0  0  0  0  0  0  0
    0.1960   21.2460  -28.2970 C   0  0  0  0  0  0  0  0  0  0  0  0
   -0.0880   19.8020  -28.3110 N   0  0  0  0  0  0  0  0  0  0  0  0
   -1.1210   19.4700  -27.3180 C   0  0  0  0  0  0  0  0  0  0  0  0
   -2.4700   20.0980  -27.7030 C   0  0  0  0  0  0  0  0  0  0  0  0
   -5.5280   22.6440  -31.7340 C   0  0  0  0  0  0  0  0  0  0  0  0
   -6.1340   21.4490  -32.1540 C   0  0  0  0  0  0  0  0  0  0  0  0
   -5.3920   20.5290  -33.1030 C   0  0  0  0  0  0  0  0  0  0  0  0
   -4.9815   17.9300  -33.9266 H   0  0  0  0  0  0  0  0  0  0  0  0
   -6.2254   18.0389  -35.2179 H   0  0  0  0  0  0  0  0  0  0  0  0
   -4.8295   19.1695  -35.2179 H   0  0  0  0  0  0  0  0  0  0  0  0
   -7.6634   18.0334  -33.2302 H   0  0  0  0  0  0  0  0  0  0  0  0
   -6.4093   18.4079  -31.9963 H   0  0  0  0  0  0  0  0  0  0  0  0
   -8.8672   20.0676  -32.7487 H   0  0  0  0  0  0  0  0  0  0  0  0
   -8.4690   19.2952  -31.1571 H   0  0  0  0  0  0  0  0  0  0  0  0
   -8.9845   21.6178  -30.2519 H   0  0  0  0  0  0  0  0  0  0  0  0
   -7.8875   23.7253  -29.5082 H   0  0  0  0  0  0  0  0  0  0  0  0
   -4.4516   21.9359  -27.9480 H   0  0  0  0  0  0  0  0  0  0  0  0
    0.0221   23.8472  -29.0924 H   0  0  0  0  0  0  0  0  0  0  0  0
    0.8770   21.4811  -29.1282 H   0  0  0  0  0  0  0  0  0  0  0  0
    0.6501   21.4914  -27.3256 H   0  0  0  0  0  0  0  0  0  0  0  0
   -0.4300   19.5400  -29.2680 H   0  0  0  0  0  0  0  0  0  0  0  0
   -1.2336   18.3770  -27.2664 H   0  0  0  0  0  0  0  0  0  0  0  0
   -0.8121   19.8696  -26.3408 H   0  0  0  0  0  0  0  0  0  0  0  0
   -2.8923   19.5420  -28.5530 H   0  0  0  0  0  0  0  0  0  0  0  0
   -3.1345   20.0455  -26.8280 H   0  0  0  0  0  0  0  0  0  0  0  0
   -4.5561   22.9400  -32.1556 H   0  0  0  0  0  0  0  0  0  0  0  0
   -4.8981   21.1365  -33.8757 H   0  0  0  0  0  0  0  0  0  0  0  0
   -4.6542   19.9574  -32.5209 H   0  0  0  0  0  0  0  0  0  0  0  0
  1  2  1  0
  2  3  1  0
  3  4  1  0
  4  5  1  0
  5  6  2  0
  6  7  1  0
  7  8  2  0
  8  9  1  0
  9 10  2  0
  9 11  2  0
  9 12  1  0
 12 13  1  0
 13 14  2  0
 14 15  1  0
 15 16  2  0
 16 17  1  0
 17 18  2  0
 18 19  1  0
 16 20  1  0
 20 21  1  0
 21 22  1  0
 22 23  1  0
  8 24  1  0
 24 25  2  0
 25 26  1  0
 26  2  1  0
 25  5  1  0
 18 13  1  0
 23 15  1  0
  1 27  1  0
  1 28  1  0
  1 29  1  0
  3 30  1  0
  3 31  1  0
  4 32  1  0
  4 33  1  0
  6 34  1  0
  7 35  1  0
 14 36  1  0
 17 37  1  0
 20 38  1  0
 20 39  1  0
 21 40  1  0
 22 41  1  0
 22 42  1  0
 23 43  1  0
 23 44  1  0
 24 45  1  0
 26 46  1  0
 26 47  1  0
M  CHG  2  12  -1  19  -1
M  END
>  <UniqueID>  (28) 
25

>  <SMILES>  (28) 
CN1CCc2ccc(S(=O)(=O)[N-]c3cc4c(cc3[O-])CNCC4)cc2C1

>  <Energy>  (28) 
57.54502802802489

>  <Genealogy>  (28) 
CN1CCc2ccc(S(=O)(=O)[N-]c3cc4c(cc3[O-])CNCC4)cc2C1 (protonated)
CN1CCc2ccc(S(=O)(=O)[N-]c3cc4c(cc3[O-])CNCC4)cc2C1 (3D coordinates assigned)
CN1CCc2ccc(S(=O)(=O)[N-]c3cc4c(cc3[O-])CNCC4)cc2C1 (nonaromatic ring conformer: 57.54502802802489 kcal/mol)

>  <smiles>  (28) 
CN1CCc2ccc(S(=O)(=O)Nc3cc4c(cc3O)CNCC4)cc2C1

>  <score_type>  (28) 
oracle

>  <origin>  (28) 
adgpu

>  <m_score__min__energy>  (28) 
-14.68

>  <m_primary>  (28) 
energy

$$$$
28:0
     RDKit          3D

 46 48  0  0  0  0  0  0  0  0999 V2000
   -5.9390   18.7650  -34.4010 C   0  0  0  0  0  0  0  0  0  0  0  0
   -6.6660   18.7220  -33.0930 C   0  0  0  0  0  0  0  0  0  0  0  0
   -6.4920   17.7360  -32.3270 O   0  0  0  0  0  0  0  0  0  0  0  0
   -7.5070   19.8120  -32.6710 N   0  0  0  0  0  0  0  0  0  0  0  0
   -8.9530   19.5450  -32.6130 C   0  0  0  0  0  0  0  0  0  0  0  0
   -9.7680   20.8090  -32.3290 C   0  0  0  0  0  0  0  0  0  0  0  0
   -9.2060   21.5420  -31.1120 C   0  0  0  0  0  0  0  0  0  0  0  0
   -7.7610   21.8870  -31.3400 C   0  0  0  0  0  0  0  0  0  0  0  0
   -7.2180   23.0450  -30.7650 C   0  0  0  0  0  0  0  0  0  0  0  0
   -5.8810   23.3890  -30.9940 C   0  0  0  0  0  0  0  0  0  0  0  0
   -5.2090   24.8370  -30.2450 S   0  0  0  0  0  0  0  0  0  0  0  0
   -6.1270   25.9970  -30.5120 O   0  0  0  0  0  0  0  0  0  0  0  0
   -3.8640   25.1500  -30.8380 O   0  0  0  0  0  0  0  0  0  0  0  0
   -5.0540   24.6120  -28.5290 N   0  0  0  0  0  0  0  0  0  0  0  0
   -4.3460   23.3610  -28.2560 C   0  0  0  0  0  0  0  0  0  0  0  0
   -2.8670   23.5890  -28.3440 C   0  0  0  0  0  0  0  0  0  0  0  0
   -2.0290   22.6280  -28.9260 C   0  0  0  0  0  0  0  0  0  0  0  0
   -0.6610   22.8840  -29.0270 C   0  0  0  0  0  0  0  0  0  0  0  0
   -0.1420   24.0920  -28.5570 C   0  0  0  0  0  0  0  0  0  0  0  0
   -1.0080   25.0350  -27.9870 C   0  0  0  0  0  0  0  0  0  0  0  0
   -0.4820   26.3460  -27.4960 C   0  0  0  0  0  0  0  0  0  0  0  0
   -2.3400   24.7650  -27.9040 N   0  0  0  0  0  0  0  0  0  0  0  0
   -5.0830   22.5680  -31.7970 C   0  0  0  0  0  0  0  0  0  0  0  0
   -5.6120   21.4030  -32.3590 C   0  0  0  0  0  0  0  0  0  0  0  0
   -6.9460   21.0270  -32.1080 C   0  0  0  0  0  0  0  0  0  0  0  0
   -4.8564   18.8290  -34.2169 H   0  0  0  0  0  0  0  0  0  0  0  0
   -6.1602   17.8522  -34.9736 H   0  0  0  0  0  0  0  0  0  0  0  0
   -6.2662   19.6454  -34.9736 H   0  0  0  0  0  0  0  0  0  0  0  0
   -9.2742   19.1269  -33.5784 H   0  0  0  0  0  0  0  0  0  0  0  0
   -9.1311   18.8385  -31.7889 H   0  0  0  0  0  0  0  0  0  0  0  0
   -9.7238   21.4733  -33.2047 H   0  0  0  0  0  0  0  0  0  0  0  0
  -10.8103   20.5233  -32.1239 H   0  0  0  0  0  0  0  0  0  0  0  0
   -9.7792   22.4662  -30.9469 H   0  0  0  0  0  0  0  0  0  0  0  0
   -9.2861   20.8899  -30.2297 H   0  0  0  0  0  0  0  0  0  0  0  0
   -7.8467   23.6867  -30.1302 H   0  0  0  0  0  0  0  0  0  0  0  0
   -6.0250   24.5290  -28.1470 H   0  0  0  0  0  0  0  0  0  0  0  0
   -4.6023   23.0085  -27.2460 H   0  0  0  0  0  0  0  0  0  0  0  0
   -4.6431   22.6046  -28.9973 H   0  0  0  0  0  0  0  0  0  0  0  0
   -2.4457   21.6810  -29.2996 H   0  0  0  0  0  0  0  0  0  0  0  0
    0.0077   22.1350  -29.4763 H   0  0  0  0  0  0  0  0  0  0  0  0
    0.9352   24.3013  -28.6333 H   0  0  0  0  0  0  0  0  0  0  0  0
   -0.4798   26.3514  -26.3960 H   0  0  0  0  0  0  0  0  0  0  0  0
    0.5439   26.4910  -27.8654 H   0  0  0  0  0  0  0  0  0  0  0  0
   -1.1232   27.1599  -27.8654 H   0  0  0  0  0  0  0  0  0  0  0  0
   -4.0344   22.8404  -31.9871 H   0  0  0  0  0  0  0  0  0  0  0  0
   -4.9806   20.7737  -33.0035 H   0  0  0  0  0  0  0  0  0  0  0  0
  1  2  1  0
  2  3  2  0
  2  4  1  0
  4  5  1  0
  5  6  1  0
  6  7  1  0
  7  8  1  0
  8  9  2  0
  9 10  1  0
 10 11  1  0
 11 12  2  0
 11 13  2  0
 11 14  1  0
 14 15  1  0
 15 16  1  0
 16 17  2  0
 17 18  1  0
 18 19  2  0
 19 20  1  0
 20 21  1  0
 20 22  2  0
 10 23  2  0
 23 24  1  0
 24 25  2  0
 25  4  1  0
 25  8  1  0
 22 16  1  0
  1 26  1  0
  1 27  1  0
  1 28  1  0
  5 29  1  0
  5 30  1  0
  6 31  1  0
  6 32  1  0
  7 33  1  0
  7 34  1  0
  9 35  1  0
 14 36  1  0
 15 37  1  0
 15 38  1  0
 17 39  1  0
 18 40  1  0
 19 41  1  0
 21 42  1  0
 21 43  1  0
 21 44  1  0
 23 45  1  0
 24 46  1  0
M  END
>  <UniqueID>  (29) 
26

>  <SMILES>  (29) 
CC(=O)N1CCCc2cc(S(=O)(=O)NCc3cccc(C)n3)ccc21

>  <Energy>  (29) 
48.63588730114409

>  <Genealogy>  (29) 
CC(=O)N1CCCc2cc(S(=O)(=O)NCc3cccc(C)n3)ccc21 (3D coordinates assigned)
CC(=O)N1CCCc2cc(S(=O)(=O)NCc3cccc(C)n3)ccc21 (nonaromatic ring conformer: 48.63588730114409 kcal/mol)

>  <smiles>  (29) 
CC(=O)N1CCCc2cc(S(=O)(=O)NCc3cccc(C)n3)ccc21

>  <score_type>  (29) 
oracle

>  <origin>  (29) 
adgpu

>  <m_score__min__energy>  (29) 
-10.470000000000001

>  <m_primary>  (29) 
energy

$$$$
29:0
     RDKit          3D

 44 46  0  0  0  0  0  0  0  0999 V2000
   -2.1020   25.0080  -29.2920 N   0  0  0  0  0  0  0  0  0  0  0  0
   -0.8980   24.2540  -28.3090 S   0  0  0  0  0  0  0  0  0  0  0  0
   -0.8530   24.9450  -26.9750 O   0  0  0  0  0  0  0  0  0  0  0  0
    0.4500   24.3860  -28.9610 O   0  0  0  0  0  0  0  0  0  0  0  0
   -1.2940   22.5430  -28.1000 C   0  0  0  0  0  0  0  0  0  0  0  0
   -1.7090   22.0900  -26.8370 C   0  0  0  0  0  0  0  0  0  0  0  0
   -1.9930   20.7400  -26.6250 C   0  0  0  0  0  0  0  0  0  0  0  0
   -1.8700   19.8270  -27.6710 C   0  0  0  0  0  0  0  0  0  0  0  0
   -1.4660   20.2630  -28.9340 C   0  0  0  0  0  0  0  0  0  0  0  0
   -1.1710   21.6190  -29.1660 C   0  0  0  0  0  0  0  0  0  0  0  0
   -0.7650   22.0510  -30.4770 N   0  0  0  0  0  0  0  0  0  0  0  0
   -1.2320   21.2110  -31.9200 S   0  0  0  0  0  0  0  0  0  0  0  0
   -0.7210   19.8000  -31.8650 O   0  0  0  0  0  0  0  0  0  0  0  0
   -0.6330   21.9060  -33.1110 O   0  0  0  0  0  0  0  0  0  0  0  0
   -2.9890   21.1700  -32.0380 C   0  0  0  0  0  0  0  0  0  0  0  0
   -3.6070   20.1950  -32.8300 C   0  0  0  0  0  0  0  0  0  0  0  0
   -5.0000   20.1280  -32.9060 C   0  0  0  0  0  0  0  0  0  0  0  0
   -5.7960   21.0430  -32.1940 C   0  0  0  0  0  0  0  0  0  0  0  0
   -7.2340   20.9730  -32.2600 N   0  0  0  0  0  0  0  0  0  0  0  0
   -8.0400   22.1460  -31.9070 C   0  0  0  0  0  0  0  0  0  0  0  0
   -9.4090   21.6930  -31.3890 C   0  0  0  0  0  0  0  0  0  0  0  0
  -10.0260   20.8090  -32.3070 O   0  0  0  0  0  0  0  0  0  0  0  0
   -9.2700   19.6170  -32.4080 C   0  0  0  0  0  0  0  0  0  0  0  0
   -7.8890   19.8970  -33.0090 C   0  0  0  0  0  0  0  0  0  0  0  0
   -5.1710   22.0200  -31.4040 C   0  0  0  0  0  0  0  0  0  0  0  0
   -3.7770   22.0840  -31.3260 C   0  0  0  0  0  0  0  0  0  0  0  0
   -1.6000   25.6310  -29.9650 H   0  0  0  0  0  0  0  0  0  0  0  0
   -1.8111   22.8054  -26.0077 H   0  0  0  0  0  0  0  0  0  0  0  0
   -2.3144   20.3960  -25.6308 H   0  0  0  0  0  0  0  0  0  0  0  0
   -2.0913   18.7629  -27.5012 H   0  0  0  0  0  0  0  0  0  0  0  0
   -1.3773   19.5385  -29.7569 H   0  0  0  0  0  0  0  0  0  0  0  0
   -0.0790   22.8290  -30.5840 H   0  0  0  0  0  0  0  0  0  0  0  0
   -2.9927   19.4784  -33.3950 H   0  0  0  0  0  0  0  0  0  0  0  0
   -5.4772   19.3551  -33.5263 H   0  0  0  0  0  0  0  0  0  0  0  0
   -7.5248   22.7219  -31.1241 H   0  0  0  0  0  0  0  0  0  0  0  0
   -8.1772   22.7761  -32.7981 H   0  0  0  0  0  0  0  0  0  0  0  0
   -9.2780   21.1788  -30.4255 H   0  0  0  0  0  0  0  0  0  0  0  0
  -10.0503   22.5782  -31.2662 H   0  0  0  0  0  0  0  0  0  0  0  0
   -9.1454   19.1831  -31.4049 H   0  0  0  0  0  0  0  0  0  0  0  0
   -9.8046   18.9155  -33.0654 H   0  0  0  0  0  0  0  0  0  0  0  0
   -7.2746   18.9863  -32.9537 H   0  0  0  0  0  0  0  0  0  0  0  0
   -8.0036   20.2016  -34.0597 H   0  0  0  0  0  0  0  0  0  0  0  0
   -5.7828   22.7409  -30.8419 H   0  0  0  0  0  0  0  0  0  0  0  0
   -3.2972   22.8540  -30.7040 H   0  0  0  0  0  0  0  0  0  0  0  0
  1  2  1  0
  2  3  2  0
  2  4  2  0
  2  5  1  0
  5  6  2  0
  6  7  1  0
  7  8  2  0
  8  9  1  0
  9 10  2  0
 10 11  1  0
 11 12  1  0
 12 13  2  0
 12 14  2  0
 12 15  1  0
 15 16  2  0
 16 17  1  0
 17 18  2  0
 18 19  1  0
 19 20  1  0
 20 21  1  0
 21 22  1  0
 22 23  1  0
 23 24  1  0
 18 25  1  0
 25 26  2  0
 10  5  1  0
 26 15  1  0
 24 19  1  0
  1 27  1  0
  6 28  1  0
  7 29  1  0
  8 30  1  0
  9 31  1  0
 11 32  1  0
 16 33  1  0
 17 34  1  0
 20 35  1  0
 20 36  1  0
 21 37  1  0
 21 38  1  0
 23 39  1  0
 23 40  1  0
 24 41  1  0
 24 42  1  0
 25 43  1  0
 26 44  1  0
M  CHG  1   1  -1
M  END
>  <UniqueID>  (30) 
27

>  <SMILES>  (30) 
[NH-]S(=O)(=O)c1ccccc1NS(=O)(=O)c1ccc(N2CCOCC2)cc1

>  <Energy>  (30) 
55.19611230421356

>  <Genealogy>  (30) 
[NH-]S(=O)(=O)c1ccccc1NS(=O)(=O)c1ccc(N2CCOCC2)cc1 (protonated)
[NH-]S(=O)(=O)c1ccccc1NS(=O)(=O)c1ccc(N2CCOCC2)cc1 (3D coordinates assigned)
[NH-]S(=O)(=O)c1ccccc1NS(=O)(=O)c1ccc(N2CCOCC2)cc1 (nonaromatic ring conformer: 55.19611230421356 kcal/mol)

>  <smiles>  (30) 
NS(=O)(=O)c1ccccc1NS(=O)(=O)c1ccc(N2CCOCC2)cc1

>  <score_type>  (30) 
oracle

>  <origin>  (30) 
adgpu

>  <m_score__min__energy>  (30) 
-11.880000000000001

>  <m_primary>  (30) 
energy

$$$$
30:0
     RDKit          3D

 54 57  0  0  0  0  0  0  0  0999 V2000
   -0.5980   21.4550  -33.9780 O   0  0  0  0  0  0  0  0  0  0  0  0
    0.5050   20.9260  -34.2820 C   0  0  0  0  0  0  0  0  0  0  0  0
    1.3520   20.3150  -33.2070 C   0  0  0  0  0  0  0  0  0  0  0  0
    0.6150   19.2770  -32.4820 N   0  0  0  0  0  0  0  0  0  0  0  0
    0.5720   17.9000  -32.9970 C   0  0  0  0  0  0  0  0  0  0  0  0
   -0.8380   17.5200  -33.3700 C   0  0  0  0  0  0  0  0  0  0  0  0
   -1.4800   16.4530  -32.7210 C   0  0  0  0  0  0  0  0  0  0  0  0
   -2.8110   16.1490  -33.0080 C   0  0  0  0  0  0  0  0  0  0  0  0
   -3.5170   16.9090  -33.9440 C   0  0  0  0  0  0  0  0  0  0  0  0
   -2.8860   17.9690  -34.5980 C   0  0  0  0  0  0  0  0  0  0  0  0
   -1.5520   18.2780  -34.3100 C   0  0  0  0  0  0  0  0  0  0  0  0
    0.0350   19.5900  -31.2030 C   0  0  0  0  0  0  0  0  0  0  0  0
    0.8280   19.5350  -30.0490 C   0  0  0  0  0  0  0  0  0  0  0  0
    0.2790   19.8360  -28.7990 C   0  0  0  0  0  0  0  0  0  0  0  0
   -1.0740   20.1730  -28.6830 C   0  0  0  0  0  0  0  0  0  0  0  0
   -1.6060   20.4820  -27.3850 N   0  0  0  0  0  0  0  0  0  0  0  0
   -2.2250   21.5720  -27.0170 C   0  0  0  0  0  0  0  0  0  0  0  0
   -2.6250   22.6550  -27.9380 C   0  0  0  0  0  0  0  0  0  0  0  0
   -3.7660   22.4820  -28.7410 C   0  0  0  0  0  0  0  0  0  0  0  0
   -4.1750   23.4920  -29.6140 C   0  0  0  0  0  0  0  0  0  0  0  0
   -3.4370   24.6750  -29.7110 C   0  0  0  0  0  0  0  0  0  0  0  0
   -3.8510   25.6790  -30.5810 O   0  0  0  0  0  0  0  0  0  0  0  0
   -2.2800   24.8430  -28.9350 C   0  0  0  0  0  0  0  0  0  0  0  0
   -1.5400   26.0160  -29.0280 O   0  0  0  0  0  0  0  0  0  0  0  0
   -1.8660   23.8320  -28.0620 C   0  0  0  0  0  0  0  0  0  0  0  0
   -1.8620   20.2670  -29.8440 C   0  0  0  0  0  0  0  0  0  0  0  0
   -1.3160   19.9610  -31.0960 C   0  0  0  0  0  0  0  0  0  0  0  0
   -2.1250   20.0200  -32.2250 O   0  0  0  0  0  0  0  0  0  0  0  0
    1.0060   20.9850  -35.6250 N   0  0  0  0  0  0  0  0  0  0  0  0
    1.9370   21.9410  -36.1570 C   0  0  0  0  0  0  0  0  0  0  0  0
    3.1180   21.4700  -36.7390 C   0  0  0  0  0  0  0  0  0  0  0  0
    4.0290   22.3420  -37.2480 N   0  0  0  0  0  0  0  0  0  0  0  0
    3.8050   23.6790  -37.2150 C   0  0  0  0  0  0  0  0  0  0  0  0
    4.6660   24.4720  -37.6790 O   0  0  0  0  0  0  0  0  0  0  0  0
    2.6470   24.1630  -36.6930 N   0  0  0  0  0  0  0  0  0  0  0  0
    1.7040   23.3300  -36.1780 C   0  0  0  0  0  0  0  0  0  0  0  0
    0.6210   23.8170  -35.7600 O   0  0  0  0  0  0  0  0  0  0  0  0
    2.2463   19.8674  -33.6650 H   0  0  0  0  0  0  0  0  0  0  0  0
    1.6364   21.1039  -32.4951 H   0  0  0  0  0  0  0  0  0  0  0  0
    1.2143   17.8261  -33.8869 H   0  0  0  0  0  0  0  0  0  0  0  0
    0.9296   17.2157  -32.2135 H   0  0  0  0  0  0  0  0  0  0  0  0
   -0.9298   15.8528  -31.9814 H   0  0  0  0  0  0  0  0  0  0  0  0
   -3.3053   15.3098  -32.4967 H   0  0  0  0  0  0  0  0  0  0  0  0
   -4.5683   16.6726  -34.1653 H   0  0  0  0  0  0  0  0  0  0  0  0
   -3.4387   18.5624  -35.3412 H   0  0  0  0  0  0  0  0  0  0  0  0
   -1.0613   19.1185  -34.8226 H   0  0  0  0  0  0  0  0  0  0  0  0
    1.8885   19.2534  -30.1271 H   0  0  0  0  0  0  0  0  0  0  0  0
    0.9144   19.8077  -27.9015 H   0  0  0  0  0  0  0  0  0  0  0  0
   -2.4642   21.6911  -25.9500 H   0  0  0  0  0  0  0  0  0  0  0  0
   -4.3399   21.5455  -28.6811 H   0  0  0  0  0  0  0  0  0  0  0  0
   -5.0789   23.3565  -30.2260 H   0  0  0  0  0  0  0  0  0  0  0  0
   -0.9461   23.9577  -27.4721 H   0  0  0  0  0  0  0  0  0  0  0  0
   -2.9130   20.5827  -29.7678 H   0  0  0  0  0  0  0  0  0  0  0  0
    3.3112   20.3881  -36.7854 H   0  0  0  0  0  0  0  0  0  0  0  0
  1  2  2  0
  2  3  1  0
  3  4  1  0
  4  5  1  0
  5  6  1  0
  6  7  2  0
  7  8  1  0
  8  9  2  0
  9 10  1  0
 10 11  2  0
  4 12  1  0
 12 13  2  0
 13 14  1  0
 14 15  2  0
 15 16  1  0
 16 17  2  3
 17 18  1  0
 18 19  2  0
 19 20  1  0
 20 21  2  0
 21 22  1  0
 21 23  1  0
 23 24  1  0
 23 25  2  0
 15 26  1  0
 26 27  2  0
 27 28  1  0
  2 29  1  0
 29 30  1  0
 30 31  2  0
 31 32  1  0
 32 33  1  0
 33 34  2  0
 33 35  1  0
 35 36  1  0
 36 37  2  0
 11  6  1  0
 27 12  1  0
 36 30  1  0
 25 18  1  0
  3 38  1  0
  3 39  1  0
  5 40  1  0
  5 41  1  0
  7 42  1  0
  8 43  1  0
  9 44  1  0
 10 45  1  0
 11 46  1  0
 13 47  1  0
 14 48  1  0
 17 49  1  0
 19 50  1  0
 20 51  1  0
 25 52  1  0
 26 53  1  0
 31 54  1  0
M  CHG  6  22  -1  24  -1  28  -1  29  -1  32  -1  35  -1
M  END
>  <UniqueID>  (31) 
28

>  <SMILES>  (31) 
O=C(CN(Cc1ccccc1)c1ccc(N=Cc2ccc([O-])c([O-])c2)cc1[O-])[N-]c1c[n-]c(=O)[n-]c1=O

>  <Energy>  (31) 
79.3726284214889

>  <Genealogy>  (31) 
O=C(CN(Cc1ccccc1)c1ccc(N=Cc2ccc([O-])c([O-])c2)cc1[O-])[N-]c1c[n-]c(=O)[n-]c1=O (protonated)
O=C(CN(Cc1ccccc1)c1ccc(N=Cc2ccc([O-])c([O-])c2)cc1[O-])[N-]c1c[n-]c(=O)[n-]c1=O (3D coordinates assigned)
O=C(CN(Cc1ccccc1)c1ccc(N=Cc2ccc([O-])c([O-])c2)cc1[O-])[N-]c1c[n-]c(=O)[n-]c1=O (optimized conformer: 79.3726284214889 kcal/mol)

>  <smiles>  (31) 
O=C(CN(Cc1ccccc1)c1ccc(N=Cc2ccc(O)c(O)c2)cc1O)Nc1c[nH]c(=O)[nH]c1=O

>  <score_type>  (31) 
oracle

>  <origin>  (31) 
adgpu

>  <m_score__min__energy>  (31) 
-16.800000000000001

>  <m_primary>  (31) 
energy

$$$$
31:0
     RDKit          3D

 48 51  0  0  0  0  0  0  0  0999 V2000
   -9.4500   20.9240  -32.5450 O   0  0  0  0  0  0  0  0  0  0  0  0
   -8.3810   20.8350  -31.8830 C   0  0  0  0  0  0  0  0  0  0  0  0
   -7.9050   19.5520  -31.4530 N   0  0  0  0  0  0  0  0  0  0  0  0
   -6.9510   18.7170  -32.1270 C   0  0  0  0  0  0  0  0  0  0  0  0
   -6.3830   17.5920  -31.4990 C   0  0  0  0  0  0  0  0  0  0  0  0
   -5.4710   16.7860  -32.1850 C   0  0  0  0  0  0  0  0  0  0  0  0
   -5.1260   17.0840  -33.5050 C   0  0  0  0  0  0  0  0  0  0  0  0
   -5.7020   18.1820  -34.1450 C   0  0  0  0  0  0  0  0  0  0  0  0
   -6.6190   18.9960  -33.4690 C   0  0  0  0  0  0  0  0  0  0  0  0
   -7.1850   20.0770  -34.1470 O   0  0  0  0  0  0  0  0  0  0  0  0
   -7.6530   22.0630  -31.4890 C   0  0  0  0  0  0  0  0  0  0  0  0
   -7.2800   23.0140  -32.4560 C   0  0  0  0  0  0  0  0  0  0  0  0
   -6.5360   24.1400  -32.0940 C   0  0  0  0  0  0  0  0  0  0  0  0
   -6.1470   24.3340  -30.7600 C   0  0  0  0  0  0  0  0  0  0  0  0
   -5.2550   25.4880  -30.3840 C   0  0  0  0  0  0  0  0  0  0  0  0
   -3.8630   25.2340  -30.7680 N   0  0  0  0  0  0  0  0  0  0  0  0
   -2.9480   24.5370  -29.4600 S   0  0  0  0  0  0  0  0  0  0  0  0
   -3.8840   24.2110  -28.3310 O   0  0  0  0  0  0  0  0  0  0  0  0
   -1.9330   25.5280  -28.9620 O   0  0  0  0  0  0  0  0  0  0  0  0
   -2.1880   23.0320  -30.0080 C   0  0  0  0  0  0  0  0  0  0  0  0
   -1.0930   22.5460  -29.2790 C   0  0  0  0  0  0  0  0  0  0  0  0
   -0.5000   21.3260  -29.6090 C   0  0  0  0  0  0  0  0  0  0  0  0
   -0.9920   20.5700  -30.6740 C   0  0  0  0  0  0  0  0  0  0  0  0
   -2.0780   21.0400  -31.4230 C   0  0  0  0  0  0  0  0  0  0  0  0
   -2.5960   20.2880  -32.4860 C   0  0  0  0  0  0  0  0  0  0  0  0
   -3.6820   20.7740  -33.2140 C   0  0  0  0  0  0  0  0  0  0  0  0
   -4.2440   22.0040  -32.8720 C   0  0  0  0  0  0  0  0  0  0  0  0
   -3.7370   22.7200  -31.8340 N   0  0  0  0  0  0  0  0  0  0  0  0
   -2.6770   22.2820  -31.1000 C   0  0  0  0  0  0  0  0  0  0  0  0
   -6.5600   23.4140  -29.7850 C   0  0  0  0  0  0  0  0  0  0  0  0
   -7.3010   22.2860  -30.1460 C   0  0  0  0  0  0  0  0  0  0  0  0
   -6.6588   17.3464  -30.4628 H   0  0  0  0  0  0  0  0  0  0  0  0
   -5.0237   15.9147  -31.6842 H   0  0  0  0  0  0  0  0  0  0  0  0
   -4.4005   16.4535  -34.0399 H   0  0  0  0  0  0  0  0  0  0  0  0
   -5.4340   18.4096  -35.1873 H   0  0  0  0  0  0  0  0  0  0  0  0
   -8.1830   20.2410  -34.1660 H   0  0  0  0  0  0  0  0  0  0  0  0
   -7.5764   22.8701  -33.5055 H   0  0  0  0  0  0  0  0  0  0  0  0
   -6.2538   24.8783  -32.8590 H   0  0  0  0  0  0  0  0  0  0  0  0
   -5.6080   26.3952  -30.8963 H   0  0  0  0  0  0  0  0  0  0  0  0
   -5.2956   25.6161  -29.2922 H   0  0  0  0  0  0  0  0  0  0  0  0
   -0.6967   23.1329  -28.4373 H   0  0  0  0  0  0  0  0  0  0  0  0
    0.3585   20.9591  -29.0273 H   0  0  0  0  0  0  0  0  0  0  0  0
   -0.5269   19.6053  -30.9250 H   0  0  0  0  0  0  0  0  0  0  0  0
   -2.1476   19.3176  -32.7454 H   0  0  0  0  0  0  0  0  0  0  0  0
   -4.0924   20.1914  -34.0519 H   0  0  0  0  0  0  0  0  0  0  0  0
   -5.0988   22.3951  -33.4433 H   0  0  0  0  0  0  0  0  0  0  0  0
   -6.2988   23.5817  -28.7297 H   0  0  0  0  0  0  0  0  0  0  0  0
   -7.6115   21.5668  -29.3737 H   0  0  0  0  0  0  0  0  0  0  0  0
  1  2  2  0
  2  3  1  0
  3  4  1  0
  4  5  2  0
  5  6  1  0
  6  7  2  0
  7  8  1  0
  8  9  2  0
  9 10  1  0
  2 11  1  0
 11 12  2  0
 12 13  1  0
 13 14  2  0
 14 15  1  0
 15 16  1  0
 16 17  1  0
 17 18  2  0
 17 19  2  0
 17 20  1  0
 20 21  2  0
 21 22  1  0
 22 23  2  0
 23 24  1  0
 24 25  2  0
 25 26  1  0
 26 27  2  0
 27 28  1  0
 28 29  2  0
 14 30  1  0
 30 31  2  0
  9  4  1  0
 31 11  1  0
 29 20  1  0
 29 24  1  0
  5 32  1  0
  6 33  1  0
  7 34  1  0
  8 35  1  0
 10 36  1  0
 12 37  1  0
 13 38  1  0
 15 39  1  0
 15 40  1  0
 21 41  1  0
 22 42  1  0
 23 43  1  0
 25 44  1  0
 26 45  1  0
 27 46  1  0
 30 47  1  0
 31 48  1  0
M  CHG  2   3  -1  16  -1
M  END
>  <UniqueID>  (32) 
29

>  <SMILES>  (32) 
O=C([N-]c1ccccc1O)c1ccc(C[N-]S(=O)(=O)c2cccc3cccnc23)cc1

>  <Energy>  (32) 
55.64828809179638

>  <Genealogy>  (32) 
O=C([N-]c1ccccc1O)c1ccc(C[N-]S(=O)(=O)c2cccc3cccnc23)cc1 (protonated)
O=C([N-]c1ccccc1O)c1ccc(C[N-]S(=O)(=O)c2cccc3cccnc23)cc1 (3D coordinates assigned)
O=C([N-]c1ccccc1O)c1ccc(C[N-]S(=O)(=O)c2cccc3cccnc23)cc1 (optimized conformer: 55.64828809179638 kcal/mol)

>  <smiles>  (32) 
O=C(Nc1ccccc1O)c1ccc(CNS(=O)(=O)c2cccc3cccnc23)cc1

>  <score_type>  (32) 
oracle

>  <origin>  (32) 
adgpu

>  <m_score__min__energy>  (32) 
-12.779999999999999

>  <m_primary>  (32) 
energy

$$$$
32:0
     RDKit          3D

 58 61  0  0  0  0  0  0  0  0999 V2000
   -4.0760   24.2160  -30.8810 O   0  0  0  0  0  0  0  0  0  0  0  0
   -3.1020   23.4170  -30.8180 C   0  0  0  0  0  0  0  0  0  0  0  0
   -2.7150   22.6770  -31.9830 N   0  0  0  0  0  0  0  0  0  0  0  0
   -3.1150   21.3360  -32.2970 C   0  0  0  0  0  0  0  0  0  0  0  0
   -2.1240   20.3750  -32.5320 C   0  0  0  0  0  0  0  0  0  0  0  0
   -2.4760   19.0470  -32.7880 C   0  0  0  0  0  0  0  0  0  0  0  0
   -3.8200   18.6650  -32.7840 C   0  0  0  0  0  0  0  0  0  0  0  0
   -4.8210   19.6090  -32.5160 C   0  0  0  0  0  0  0  0  0  0  0  0
   -6.5180   19.1180  -32.4660 S   0  0  0  0  0  0  0  0  0  0  0  0
   -6.8030   18.2280  -33.6430 O   0  0  0  0  0  0  0  0  0  0  0  0
   -6.7600   18.3220  -31.2130 O   0  0  0  0  0  0  0  0  0  0  0  0
   -7.6180   20.4760  -32.4970 N   0  0  0  0  0  0  0  0  0  0  0  0
   -9.0140   20.0520  -32.5860 C   0  0  0  0  0  0  0  0  0  0  0  0
   -9.8480   21.1490  -31.9360 C   0  0  0  0  0  0  0  0  0  0  0  0
   -8.8580   22.0010  -31.1530 C   0  0  0  0  0  0  0  0  0  0  0  0
   -7.5290   21.2820  -31.2820 C   0  0  0  0  0  0  0  0  0  0  0  0
   -4.4650   20.9470  -32.2840 C   0  0  0  0  0  0  0  0  0  0  0  0
   -2.3410   23.2550  -29.5540 C   0  0  0  0  0  0  0  0  0  0  0  0
   -2.1490   21.9650  -29.0250 C   0  0  0  0  0  0  0  0  0  0  0  0
   -1.4800   21.7770  -27.8090 C   0  0  0  0  0  0  0  0  0  0  0  0
   -1.3320   20.1630  -27.1180 S   0  0  0  0  0  0  0  0  0  0  0  0
   -1.6240   20.2240  -25.6450 O   0  0  0  0  0  0  0  0  0  0  0  0
   -2.3550   19.2710  -27.7650 O   0  0  0  0  0  0  0  0  0  0  0  0
    0.2710   19.5250  -27.4220 N   0  0  0  0  0  0  0  0  0  0  0  0
    0.2750   18.0860  -27.7530 C   0  0  0  0  0  0  0  0  0  0  0  0
   -0.1650   17.8050  -29.1940 C   0  0  0  0  0  0  0  0  0  0  0  0
    0.6880   18.6000  -30.1800 C   0  0  0  0  0  0  0  0  0  0  0  0
    0.6520   20.0900  -29.8460 C   0  0  0  0  0  0  0  0  0  0  0  0
    1.0420   20.3420  -28.3800 C   0  0  0  0  0  0  0  0  0  0  0  0
   -0.9870   22.8850  -27.1130 C   0  0  0  0  0  0  0  0  0  0  0  0
   -1.1550   24.1700  -27.6310 C   0  0  0  0  0  0  0  0  0  0  0  0
   -1.8290   24.3630  -28.8420 C   0  0  0  0  0  0  0  0  0  0  0  0
   -1.9780   25.6600  -29.3220 O   0  0  0  0  0  0  0  0  0  0  0  0
   -1.0635   20.6667  -32.5150 H   0  0  0  0  0  0  0  0  0  0  0  0
   -1.6938   18.3013  -32.9930 H   0  0  0  0  0  0  0  0  0  0  0  0
   -4.0935   17.6200  -32.9919 H   0  0  0  0  0  0  0  0  0  0  0  0
   -9.3059   19.9278  -33.6393 H   0  0  0  0  0  0  0  0  0  0  0  0
   -9.1671   19.0871  -32.0805 H   0  0  0  0  0  0  0  0  0  0  0  0
  -10.3533   21.7538  -32.7034 H   0  0  0  0  0  0  0  0  0  0  0  0
  -10.6335   20.7347  -31.2868 H   0  0  0  0  0  0  0  0  0  0  0  0
   -8.7937   23.0115  -31.5829 H   0  0  0  0  0  0  0  0  0  0  0  0
   -9.1602   22.1230  -30.1024 H   0  0  0  0  0  0  0  0  0  0  0  0
   -6.7084   22.0097  -31.3664 H   0  0  0  0  0  0  0  0  0  0  0  0
   -7.3242   20.6569  -30.4004 H   0  0  0  0  0  0  0  0  0  0  0  0
   -5.2477   21.6954  -32.0909 H   0  0  0  0  0  0  0  0  0  0  0  0
   -2.5299   21.0916  -29.5746 H   0  0  0  0  0  0  0  0  0  0  0  0
    1.2945   17.6968  -27.6150 H   0  0  0  0  0  0  0  0  0  0  0  0
   -0.4455   17.5913  -27.0851 H   0  0  0  0  0  0  0  0  0  0  0  0
   -0.0534   16.7309  -29.4033 H   0  0  0  0  0  0  0  0  0  0  0  0
   -1.2163   18.1075  -29.3097 H   0  0  0  0  0  0  0  0  0  0  0  0
    1.7272   18.2433  -30.1278 H   0  0  0  0  0  0  0  0  0  0  0  0
    0.2851   18.4549  -31.1932 H   0  0  0  0  0  0  0  0  0  0  0  0
    1.3577   20.6215  -30.5013 H   0  0  0  0  0  0  0  0  0  0  0  0
   -0.3735   20.4566  -30.0011 H   0  0  0  0  0  0  0  0  0  0  0  0
    2.1100   20.1085  -28.2577 H   0  0  0  0  0  0  0  0  0  0  0  0
    0.8206   21.3969  -28.1606 H   0  0  0  0  0  0  0  0  0  0  0  0
   -0.4655   22.7435  -26.1549 H   0  0  0  0  0  0  0  0  0  0  0  0
   -0.7551   25.0365  -27.0839 H   0  0  0  0  0  0  0  0  0  0  0  0
  1  2  2  0
  2  3  1  0
  3  4  1  0
  4  5  2  0
  5  6  1  0
  6  7  2  0
  7  8  1  0
  8  9  1  0
  9 10  2  0
  9 11  2  0
  9 12  1  0
 12 13  1  0
 13 14  1  0
 14 15  1  0
 15 16  1  0
  8 17  2  0
  2 18  1  0
 18 19  2  0
 19 20  1  0
 20 21  1  0
 21 22  2  0
 21 23  2  0
 21 24  1  0
 24 25  1  0
 25 26  1  0
 26 27  1  0
 27 28  1  0
 28 29  1  0
 20 30  2  0
 30 31  1  0
 31 32  2  0
 32 33  1  0
 17  4  1  0
 32 18  1  0
 16 12  1  0
 29 24  1  0
  5 34  1  0
  6 35  1  0
  7 36  1  0
 13 37  1  0
 13 38  1  0
 14 39  1  0
 14 40  1  0
 15 41  1  0
 15 42  1  0
 16 43  1  0
 16 44  1  0
 17 45  1  0
 19 46  1  0
 25 47  1  0
 25 48  1  0
 26 49  1  0
 26 50  1  0
 27 51  1  0
 27 52  1  0
 28 53  1  0
 28 54  1  0
 29 55  1  0
 29 56  1  0
 30 57  1  0
 31 58  1  0
M  CHG  2   3  -1  33  -1
M  END
>  <UniqueID>  (33) 
30

>  <SMILES>  (33) 
O=C([N-]c1cccc(S(=O)(=O)N2CCCC2)c1)c1cc(S(=O)(=O)N2CCCCC2)ccc1[O-]

>  <Energy>  (33) 
66.5607890980836

>  <Genealogy>  (33) 
O=C([N-]c1cccc(S(=O)(=O)N2CCCC2)c1)c1cc(S(=O)(=O)N2CCCCC2)ccc1[O-] (protonated)
O=C([N-]c1cccc(S(=O)(=O)N2CCCC2)c1)c1cc(S(=O)(=O)N2CCCCC2)ccc1[O-] (3D coordinates assigned)
O=C([N-]c1cccc(S(=O)(=O)N2CCCC2)c1)c1cc(S(=O)(=O)N2CCCCC2)ccc1[O-] (nonaromatic ring conformer: 66.5607890980836 kcal/mol)

>  <smiles>  (33) 
O=C(Nc1cccc(S(=O)(=O)N2CCCC2)c1)c1cc(S(=O)(=O)N2CCCCC2)ccc1O

>  <score_type>  (33) 
oracle

>  <origin>  (33) 
adgpu

>  <m_score__min__energy>  (33) 
-15.029999999999999

>  <m_primary>  (33) 
energy

$$$$
33:0
     RDKit          3D

 50 52  0  0  0  0  0  0  0  0999 V2000
   -9.8330   21.2190  -31.9390 C   0  0  0  0  0  0  0  0  0  0  0  0
   -8.6760   22.0520  -31.4710 C   0  0  0  0  0  0  0  0  0  0  0  0
   -8.1880   21.9120  -30.1630 C   0  0  0  0  0  0  0  0  0  0  0  0
   -7.1030   22.6800  -29.7290 C   0  0  0  0  0  0  0  0  0  0  0  0
   -6.4850   23.5850  -30.6000 C   0  0  0  0  0  0  0  0  0  0  0  0
   -5.1490   24.5780  -30.0180 S   0  0  0  0  0  0  0  0  0  0  0  0
   -5.7580   25.5810  -29.0780 O   0  0  0  0  0  0  0  0  0  0  0  0
   -4.4930   25.3170  -31.1510 O   0  0  0  0  0  0  0  0  0  0  0  0
   -3.9290   23.5880  -29.1780 C   0  0  0  0  0  0  0  0  0  0  0  0
   -3.1210   22.6580  -29.8850 C   0  0  0  0  0  0  0  0  0  0  0  0
   -2.9760   22.6760  -31.3170 N   0  0  0  0  0  0  0  0  0  0  0  0
   -2.9660   21.4710  -32.1530 C   0  0  0  0  0  0  0  0  0  0  0  0
   -4.1050   21.4400  -33.1910 C   0  0  0  0  0  0  0  0  0  0  0  0
   -5.0670   20.2950  -32.9810 C   0  0  0  0  0  0  0  0  0  0  0  0
   -5.8160   20.2080  -31.7940 C   0  0  0  0  0  0  0  0  0  0  0  0
   -6.7210   19.1600  -31.6060 C   0  0  0  0  0  0  0  0  0  0  0  0
   -6.8700   18.1790  -32.5900 C   0  0  0  0  0  0  0  0  0  0  0  0
   -6.1130   18.2430  -33.7620 C   0  0  0  0  0  0  0  0  0  0  0  0
   -5.2100   19.2930  -33.9560 C   0  0  0  0  0  0  0  0  0  0  0  0
   -2.4070   21.6880  -29.1740 C   0  0  0  0  0  0  0  0  0  0  0  0
   -2.4100   21.6960  -27.7810 C   0  0  0  0  0  0  0  0  0  0  0  0
   -1.5950   20.7050  -27.0130 C   0  0  0  0  0  0  0  0  0  0  0  0
   -3.0860   22.6680  -27.1210 N   0  0  0  0  0  0  0  0  0  0  0  0
   -3.8280   23.6100  -27.7630 C   0  0  0  0  0  0  0  0  0  0  0  0
   -4.4420   24.6340  -26.9750 N   0  0  0  0  0  0  0  0  0  0  0  0
   -6.9600   23.7160  -31.9140 C   0  0  0  0  0  0  0  0  0  0  0  0
   -8.0430   22.9450  -32.3500 C   0  0  0  0  0  0  0  0  0  0  0  0
  -10.3782   20.8265  -31.0680 H   0  0  0  0  0  0  0  0  0  0  0  0
  -10.5092   21.8388  -32.5460 H   0  0  0  0  0  0  0  0  0  0  0  0
   -9.4597   20.3811  -32.5460 H   0  0  0  0  0  0  0  0  0  0  0  0
   -8.6610   21.1949  -29.4759 H   0  0  0  0  0  0  0  0  0  0  0  0
   -6.7335   22.5725  -28.6985 H   0  0  0  0  0  0  0  0  0  0  0  0
   -3.1840   23.5790  -31.8030 H   0  0  0  0  0  0  0  0  0  0  0  0
   -2.0055   21.4245  -32.6871 H   0  0  0  0  0  0  0  0  0  0  0  0
   -3.1106   20.6094  -31.4846 H   0  0  0  0  0  0  0  0  0  0  0  0
   -4.6650   22.3844  -33.1245 H   0  0  0  0  0  0  0  0  0  0  0  0
   -3.6436   21.3035  -34.1802 H   0  0  0  0  0  0  0  0  0  0  0  0
   -5.6889   20.9687  -31.0096 H   0  0  0  0  0  0  0  0  0  0  0  0
   -7.3166   19.1072  -30.6827 H   0  0  0  0  0  0  0  0  0  0  0  0
   -7.5841   17.3556  -32.4414 H   0  0  0  0  0  0  0  0  0  0  0  0
   -6.2272   17.4668  -34.5331 H   0  0  0  0  0  0  0  0  0  0  0  0
   -4.6087   19.3349  -34.8762 H   0  0  0  0  0  0  0  0  0  0  0  0
   -1.8412   20.9163  -29.7166 H   0  0  0  0  0  0  0  0  0  0  0  0
   -1.7335   20.8734  -25.9348 H   0  0  0  0  0  0  0  0  0  0  0  0
   -1.9197   19.6858  -27.2696 H   0  0  0  0  0  0  0  0  0  0  0  0
   -0.5323   20.8268  -27.2696 H   0  0  0  0  0  0  0  0  0  0  0  0
   -4.6210   25.5880  -27.3600 H   0  0  0  0  0  0  0  0  0  0  0  0
   -4.4950   24.5210  -25.9390 H   0  0  0  0  0  0  0  0  0  0  0  0
   -6.4797   24.4265  -32.6028 H   0  0  0  0  0  0  0  0  0  0  0  0
   -8.4001   23.0390  -33.3862 H   0  0  0  0  0  0  0  0  0  0  0  0
  1  2  1  0
  2  3  2  0
  3  4  1  0
  4  5  2  0
  5  6  1  0
  6  7  2  0
  6  8  2  0
  6  9  1  0
  9 10  1  0
 10 11  1  0
 11 12  1  0
 12 13  1  0
 13 14  1  0
 14 15  2  0
 15 16  1  0
 16 17  2  0
 17 18  1  0
 18 19  2  0
 10 20  2  0
 20 21  1  0
 21 22  1  0
 21 23  2  0
 23 24  1  0
 24 25  1  0
  5 26  1  0
 26 27  2  0
 27  2  1  0
 24  9  2  0
 19 14  1  0
  1 28  1  0
  1 29  1  0
  1 30  1  0
  3 31  1  0
  4 32  1  0
 11 33  1  0
 12 34  1  0
 12 35  1  0
 13 36  1  0
 13 37  1  0
 15 38  1  0
 16 39  1  0
 17 40  1  0
 18 41  1  0
 19 42  1  0
 20 43  1  0
 22 44  1  0
 22 45  1  0
 22 46  1  0
 25 47  1  0
 25 48  1  0
 26 49  1  0
 27 50  1  0
M  END
>  <UniqueID>  (34) 
31

>  <SMILES>  (34) 
Cc1ccc(S(=O)(=O)c2c(NCCc3ccccc3)cc(C)nc2N)cc1

>  <Energy>  (34) 
58.93697900088485

>  <Genealogy>  (34) 
Cc1ccc(S(=O)(=O)c2c(NCCc3ccccc3)cc(C)nc2N)cc1 (3D coordinates assigned)
Cc1ccc(S(=O)(=O)c2c(NCCc3ccccc3)cc(C)nc2N)cc1 (optimized conformer: 58.93697900088485 kcal/mol)

>  <smiles>  (34) 
Cc1ccc(S(=O)(=O)c2c(NCCc3ccccc3)cc(C)nc2N)cc1

>  <score_type>  (34) 
oracle

>  <origin>  (34) 
adgpu

>  <m_score__min__energy>  (34) 
-9.3499999999999996

>  <m_primary>  (34) 
energy

$$$$
34:0
     RDKit          3D

 48 51  0  0  1  0  0  0  0  0999 V2000
   -8.2520   20.0330  -33.4780 N   0  0  0  0  0  0  0  0  0  0  0  0
   -8.6030   20.9230  -32.0500 S   0  0  0  0  0  0  0  0  0  0  0  0
   -9.8720   21.6950  -32.2660 O   0  0  0  0  0  0  0  0  0  0  0  0
   -8.8060   19.8900  -30.9530 O   0  0  0  0  0  0  0  0  0  0  0  0
   -7.2640   21.9700  -31.6390 C   0  0  0  0  0  0  0  0  0  0  0  0
   -7.3480   22.8230  -30.5400 C   0  0  0  0  0  0  0  0  0  0  0  0
   -6.2540   23.6370  -30.2540 C   0  0  0  0  0  0  0  0  0  0  0  0
   -5.1140   23.6170  -31.0170 C   0  0  0  0  0  0  0  0  0  0  0  0
   -4.0210   24.4690  -30.6830 N   0  0  0  0  0  0  0  0  0  0  0  0
   -3.2050   24.0520  -29.7750 C   0  0  0  0  0  0  0  0  0  0  0  0
   -2.1350   24.7630  -29.3720 N   0  0  0  0  0  0  0  0  0  0  0  0
   -1.2720   24.3540  -28.4300 C   0  0  0  0  0  0  0  0  0  0  0  0
   -0.3310   25.0790  -28.0940 N   0  0  0  0  0  0  0  0  0  0  0  0
    0.7100   24.9790  -27.1840 C   0  0  0  0  0  0  0  0  0  0  0  0
    0.5180   25.6630  -25.8770 C   0  0  0  0  0  0  0  0  0  0  0  0
   -0.7600   25.9230  -25.3580 C   0  0  0  0  0  0  0  0  0  0  0  0
   -0.9220   26.5600  -24.1320 C   0  0  0  0  0  0  0  0  0  0  0  0
    0.1440   26.9620  -23.3700 C   0  0  0  0  0  0  0  0  0  0  0  0
    1.4050   26.7150  -23.8610 C   0  0  0  0  0  0  0  0  0  0  0  0
    1.5580   26.0860  -25.0740 C   0  0  0  0  0  0  0  0  0  0  0  0
   -1.4540   23.1380  -27.8170 C   0  0  0  0  0  0  0  0  0  0  0  0
   -0.5730   22.7250  -26.8730 C   0  0  0  0  0  0  0  0  0  0  0  0
   -0.8330   21.4590  -26.2910 C   0  0  0  0  0  0  0  0  0  0  0  0
   -1.9230   20.7710  -26.7180 C   0  0  0  0  0  0  0  0  0  0  0  0
   -2.8080   21.2030  -27.6810 C   0  0  0  0  0  0  0  0  0  0  0  0
   -2.5590   22.4220  -28.2420 C   0  0  0  0  0  0  0  0  0  0  0  0
   -3.4050   22.8600  -29.1870 N   0  0  0  0  0  0  0  0  0  0  0  0
   -5.0220   22.7630  -32.1200 C   0  0  0  0  0  0  0  0  0  0  0  0
   -6.1100   21.9650  -32.3930 C   0  0  0  0  0  0  0  0  0  0  0  0
   -9.0040   20.0890  -34.1930 H   0  0  0  0  0  0  0  0  0  0  0  0
   -7.9960   19.0620  -33.2200 H   0  0  0  0  0  0  0  0  0  0  0  0
   -8.2531   22.8528  -29.9156 H   0  0  0  0  0  0  0  0  0  0  0  0
   -6.3059   24.3162  -29.3903 H   0  0  0  0  0  0  0  0  0  0  0  0
   -2.0000   25.6860  -29.8440 H   0  0  0  0  0  0  0  0  0  0  0  0
    0.8746   23.9105  -26.9809 H   0  0  0  0  0  0  0  0  0  0  0  0
    1.5606   25.4908  -27.6578 H   0  0  0  0  0  0  0  0  0  0  0  0
   -1.6484   25.6179  -25.9304 H   0  0  0  0  0  0  0  0  0  0  0  0
   -1.9406   26.7475  -23.7614 H   0  0  0  0  0  0  0  0  0  0  0  0
   -0.0033   27.4634  -22.4021 H   0  0  0  0  0  0  0  0  0  0  0  0
    2.2901   27.0204  -23.2837 H   0  0  0  0  0  0  0  0  0  0  0  0
    2.5832   25.9069  -25.4303 H   0  0  0  0  0  0  0  0  0  0  0  0
    0.2922   23.3361  -26.5763 H   0  0  0  0  0  0  0  0  0  0  0  0
   -0.1709   21.0458  -25.5158 H   0  0  0  0  0  0  0  0  0  0  0  0
   -2.1145   19.7903  -26.2581 H   0  0  0  0  0  0  0  0  0  0  0  0
   -3.6735   20.5950  -27.9832 H   0  0  0  0  0  0  0  0  0  0  0  0
   -4.2220   22.2820  -29.4700 H   0  0  0  0  0  0  0  0  0  0  0  0
   -4.1170   22.7300  -32.7444 H   0  0  0  0  0  0  0  0  0  0  0  0
   -6.0557   21.2879  -33.2582 H   0  0  0  0  0  0  0  0  0  0  0  0
  1  2  1  0
  2  3  2  0
  2  4  2  0
  2  5  1  0
  5  6  2  0
  6  7  1  0
  7  8  2  0
  8  9  1  0
  9 10  2  0
 10 11  1  0
 11 12  1  0
 12 13  2  0
 13 14  1  0
 14 15  1  0
 15 16  2  0
 16 17  1  0
 17 18  2  0
 18 19  1  0
 19 20  2  0
 12 21  1  0
 21 22  2  0
 22 23  1  0
 23 24  2  0
 24 25  1  0
 25 26  2  0
 26 27  1  0
  8 28  1  0
 28 29  2  0
 29  5  1  0
 27 10  1  0
 20 15  1  0
 26 21  1  0
  1 30  1  0
  1 31  1  0
  6 32  1  0
  7 33  1  0
 11 34  1  0
 14 35  1  0
 14 36  1  0
 16 37  1  0
 17 38  1  0
 18 39  1  0
 19 40  1  0
 20 41  1  0
 22 42  1  0
 23 43  1  0
 24 44  1  0
 25 45  1  0
 27 46  1  0
 28 47  1  0
 29 48  1  0
M  END
>  <smiles>  (35) 
NS(=O)(=O)c1ccc(N=c2[nH]c(=NCc3ccccc3)c3ccccc3[nH]2)cc1

>  <score_type>  (35) 
oracle

>  <origin>  (35) 
adgpu

>  <m_score__min__energy>  (35) 
-10.66

>  <m_primary>  (35) 
energy

$$$$
35:0
     RDKit          3D

 37 39  0  0  0  0  0  0  0  0999 V2000
   -4.4480   22.0050  -32.7960 C   0  0  0  0  0  0  0  0  0  0  0  0
   -5.1150   20.6600  -32.9110 C   0  0  0  0  0  0  0  0  0  0  0  0
   -4.3880   19.5910  -33.4660 C   0  0  0  0  0  0  0  0  0  0  0  0
   -4.9710   18.3290  -33.5950 C   0  0  0  0  0  0  0  0  0  0  0  0
   -6.2870   18.1160  -33.1720 C   0  0  0  0  0  0  0  0  0  0  0  0
   -7.0200   19.1680  -32.6210 C   0  0  0  0  0  0  0  0  0  0  0  0
   -6.4410   20.4370  -32.4580 C   0  0  0  0  0  0  0  0  0  0  0  0
   -7.4160   21.7270  -31.7290 S   0  0  0  0  0  0  0  0  0  0  0  0
   -8.7370   21.1510  -31.3020 O   0  0  0  0  0  0  0  0  0  0  0  0
   -7.6590   22.8290  -32.7230 O   0  0  0  0  0  0  0  0  0  0  0  0
   -6.6210   22.3870  -30.3280 N   0  0  0  0  0  0  0  0  0  0  0  0
   -5.7850   23.5360  -30.6840 C   0  0  0  0  0  0  0  0  0  0  0  0
   -4.5050   23.5310  -29.8900 C   0  0  0  0  0  0  0  0  0  0  0  0
   -4.2090   22.4520  -29.0390 C   0  0  0  0  0  0  0  0  0  0  0  0
   -3.0220   22.4380  -28.3010 C   0  0  0  0  0  0  0  0  0  0  0  0
   -2.1220   23.5020  -28.4030 C   0  0  0  0  0  0  0  0  0  0  0  0
   -2.4070   24.5830  -29.2410 C   0  0  0  0  0  0  0  0  0  0  0  0
   -1.5080   25.6400  -29.3340 O   0  0  0  0  0  0  0  0  0  0  0  0
   -3.5960   24.6040  -29.9830 C   0  0  0  0  0  0  0  0  0  0  0  0
   -3.8700   25.6890  -30.8100 O   0  0  0  0  0  0  0  0  0  0  0  0
   -6.8740   16.8540  -33.3260 O   0  0  0  0  0  0  0  0  0  0  0  0
   -6.1170   15.6630  -33.5680 C   0  0  0  0  0  0  0  0  0  0  0  0
   -4.8330   15.9580  -34.2920 C   0  0  0  0  0  0  0  0  0  0  0  0
   -4.2330   15.0420  -34.9140 O   0  0  0  0  0  0  0  0  0  0  0  0
   -4.2510   17.2590  -34.2080 N   0  0  0  0  0  0  0  0  0  0  0  0
   -4.3208   22.2616  -31.7339 H   0  0  0  0  0  0  0  0  0  0  0  0
   -3.4633   21.9690  -33.2850 H   0  0  0  0  0  0  0  0  0  0  0  0
   -5.0726   22.7670  -33.2850 H   0  0  0  0  0  0  0  0  0  0  0  0
   -3.3524   19.7507  -33.8008 H   0  0  0  0  0  0  0  0  0  0  0  0
   -8.0622   19.0015  -32.3111 H   0  0  0  0  0  0  0  0  0  0  0  0
   -5.5446   23.4889  -31.7564 H   0  0  0  0  0  0  0  0  0  0  0  0
   -6.3381   24.4592  -30.4564 H   0  0  0  0  0  0  0  0  0  0  0  0
   -4.9158   21.6135  -28.9533 H   0  0  0  0  0  0  0  0  0  0  0  0
   -2.7962   21.5887  -27.6394 H   0  0  0  0  0  0  0  0  0  0  0  0
   -1.1877   23.4885  -27.8226 H   0  0  0  0  0  0  0  0  0  0  0  0
   -5.8818   15.1881  -32.6041 H   0  0  0  0  0  0  0  0  0  0  0  0
   -6.7211   14.9950  -34.1995 H   0  0  0  0  0  0  0  0  0  0  0  0
  1  2  1  0
  2  3  2  0
  3  4  1  0
  4  5  2  0
  5  6  1  0
  6  7  2  0
  7  8  1  0
  8  9  2  0
  8 10  2  0
  8 11  1  0
 11 12  1  0
 12 13  1  0
 13 14  2  0
 14 15  1  0
 15 16  2  0
 16 17  1  0
 17 18  1  0
 17 19  2  0
 19 20  1  0
  5 21  1  0
 21 22  1  0
 22 23  1  0
 23 24  2  0
 23 25  1  0
  7  2  1  0
 19 13  1  0
 25  4  1  0
  1 26  1  0
  1 27  1  0
  1 28  1  0
  3 29  1  0
  6 30  1  0
 12 31  1  0
 12 32  1  0
 14 33  1  0
 15 34  1  0
 16 35  1  0
 22 36  1  0
 22 37  1  0
M  CHG  4  11  -1  18  -1  20  -1  25  -1
M  END
>  <UniqueID>  (36) 
32

>  <SMILES>  (36) 
Cc1cc2c(cc1S(=O)(=O)[N-]Cc1cccc([O-])c1[O-])OCC(=O)[N-]2

>  <Energy>  (36) 
42.889580909676205

>  <Genealogy>  (36) 
Cc1cc2c(cc1S(=O)(=O)[N-]Cc1cccc([O-])c1[O-])OCC(=O)[N-]2 (protonated)
Cc1cc2c(cc1S(=O)(=O)[N-]Cc1cccc([O-])c1[O-])OCC(=O)[N-]2 (3D coordinates assigned)
Cc1cc2c(cc1S(=O)(=O)[N-]Cc1cccc([O-])c1[O-])OCC(=O)[N-]2 (nonaromatic ring conformer: 42.889580909676205 kcal/mol)

>  <smiles>  (36) 
Cc1cc2c(cc1S(=O)(=O)NCc1cccc(O)c1O)OCC(=O)N2

>  <score_type>  (36) 
oracle

>  <origin>  (36) 
adgpu

>  <m_score__min__energy>  (36) 
-14.880000000000001

>  <m_primary>  (36) 
energy

$$$$
36:0
     RDKit          3D

 39 42  0  0  0  0  0  0  0  0999 V2000
   -9.7848   19.4247  -32.9806 H   0  0  0  0  0  0  0  0  0  0  0  0
   -9.1100   20.1600  -32.5180 C   0  0  0  0  0  0  0  0  0  0  0  0
   -9.5820   21.5660  -31.7220 S   0  0  0  0  0  0  0  0  0  0  0  0
   -8.0060   22.0250  -31.3870 C   0  0  0  0  0  0  0  0  0  0  0  0
   -7.6950   23.0900  -30.7080 N   0  0  0  0  0  0  0  0  0  0  0  0
   -6.3700   23.5590  -30.4080 C   0  0  0  0  0  0  0  0  0  0  0  0
   -6.0360   24.8930  -30.7460 C   0  0  0  0  0  0  0  0  0  0  0  0
   -6.7944   25.5416  -31.2087 H   0  0  0  0  0  0  0  0  0  0  0  0
   -4.7470   25.4000  -30.4980 C   0  0  0  0  0  0  0  0  0  0  0  0
   -4.4856   26.4398  -30.7441 H   0  0  0  0  0  0  0  0  0  0  0  0
   -3.8160   24.5370  -29.9300 C   0  0  0  0  0  0  0  0  0  0  0  0
   -4.1150   23.2460  -29.6230 C   0  0  0  0  0  0  0  0  0  0  0  0
   -3.0420   22.6250  -29.1010 N   0  0  0  0  0  0  0  0  0  0  0  0
   -2.0950   23.6010  -29.1190 C   0  0  0  0  0  0  0  0  0  0  0  0
   -0.7180   23.4070  -28.5780 C   0  0  0  0  0  0  0  0  0  0  0  0
   -0.7520   23.4118  -27.4785 H   0  0  0  0  0  0  0  0  0  0  0  0
   -0.3188   22.4437  -28.9283 H   0  0  0  0  0  0  0  0  0  0  0  0
   -0.0682   24.2225  -28.9283 H   0  0  0  0  0  0  0  0  0  0  0  0
   -2.5400   24.7840  -29.6110 N   0  0  0  0  0  0  0  0  0  0  0  0
   -2.0100   25.6790  -29.7150 H   0  0  0  0  0  0  0  0  0  0  0  0
   -5.3800   22.7100  -29.8530 C   0  0  0  0  0  0  0  0  0  0  0  0
   -5.6037   21.6604  -29.6114 H   0  0  0  0  0  0  0  0  0  0  0  0
   -7.1110   21.1280  -31.8500 N   0  0  0  0  0  0  0  0  0  0  0  0
   -7.7120   20.0860  -32.4910 C   0  0  0  0  0  0  0  0  0  0  0  0
   -6.9120   18.9820  -33.0850 C   0  0  0  0  0  0  0  0  0  0  0  0
   -7.1430   17.6540  -32.6780 C   0  0  0  0  0  0  0  0  0  0  0  0
   -7.9156   17.4433  -31.9239 H   0  0  0  0  0  0  0  0  0  0  0  0
   -6.4020   16.6000  -33.2210 C   0  0  0  0  0  0  0  0  0  0  0  0
   -6.5959   15.5682  -32.8926 H   0  0  0  0  0  0  0  0  0  0  0  0
   -5.4100   16.8530  -34.1850 C   0  0  0  0  0  0  0  0  0  0  0  0
   -4.6410   15.8300  -34.7590 O   0  0  0  0  0  0  0  0  0  0  0  0
   -3.3020   15.9910  -35.2160 C   0  0  0  0  0  0  0  0  0  0  0  0
   -2.6268   16.0722  -34.3514 H   0  0  0  0  0  0  0  0  0  0  0  0
   -3.0152   15.1209  -35.8248 H   0  0  0  0  0  0  0  0  0  0  0  0
   -3.2297   16.9043  -35.8248 H   0  0  0  0  0  0  0  0  0  0  0  0
   -5.1730   18.1690  -34.5890 C   0  0  0  0  0  0  0  0  0  0  0  0
   -4.3970   18.3762  -35.3406 H   0  0  0  0  0  0  0  0  0  0  0  0
   -5.9120   19.2260  -34.0480 C   0  0  0  0  0  0  0  0  0  0  0  0
   -5.7112   20.2563  -34.3767 H   0  0  0  0  0  0  0  0  0  0  0  0
  1  2  1  0
  2  3  1  0
  3  4  1  0
  4  5  2  0
  5  6  1  0
  6  7  2  0
  7  8  1  0
  7  9  1  0
  9 10  1  0
  9 11  2  0
 11 12  1  0
 12 13  1  0
 13 14  2  0
 14 15  1  0
 15 16  1  0
 15 17  1  0
 15 18  1  0
 14 19  1  0
 19 20  1  0
 12 21  2  0
 21 22  1  0
  4 23  1  0
 23 24  1  0
 24 25  1  0
 25 26  2  0
 26 27  1  0
 26 28  1  0
 28 29  1  0
 28 30  2  0
 30 31  1  0
 31 32  1  0
 32 33  1  0
 32 34  1  0
 32 35  1  0
 30 36  1  0
 36 37  1  0
 36 38  2  0
 38 39  1  0
 24  2  2  0
 38 25  1  0
 21  6  1  0
 19 11  1  0
M  CHG  1  23  -1
M  END
>  <UniqueID>  (37) 
33

>  <SMILES>  (37) 
COc1ccc(-c2cs/c(=N/c3ccc4[nH]c(C)nc4c3)[n-]2)cc1

>  <Energy>  (37) 
115.10849487893158

>  <Genealogy>  (37) 
COc1ccc(-c2csc(=Nc3ccc4[nH]c(C)nc4c3)[n-]2)cc1 (protonated)
COc1ccc(-c2cs/c(=N/c3ccc4[nH]c(C)nc4c3)[n-]2)cc1 (cis-trans isomerization)
COc1ccc(-c2cs/c(=N/c3ccc4[nH]c(C)nc4c3)[n-]2)cc1 (3D coordinates assigned)
COc1ccc(-c2cs/c(=N/c3ccc4[nH]c(C)nc4c3)[n-]2)cc1 (optimized conformer: 115.10849487893158 kcal/mol)

>  <smiles>  (37) 
COc1ccc(-c2csc(=Nc3ccc4[nH]c(C)nc4c3)[nH]2)cc1

>  <score_type>  (37) 
oracle

>  <origin>  (37) 
adgpu

>  <m_score__min__energy>  (37) 
-9

>  <m_primary>  (37) 
energy

$$$$
37:0
     RDKit          3D

 77 81  0  0  0  0  0  0  0  0999 V2000
    0.0543   16.6472  -27.3611 H   0  0  0  0  0  0  0  0  0  0  0  0
    0.2550   17.4700  -28.0630 C   0  0  0  0  0  0  0  0  0  0  0  0
    0.8660   17.2180  -29.2460 N   0  0  0  0  0  0  0  0  0  0  0  0
    1.1210   18.2130  -30.1350 C   0  0  0  0  0  0  0  0  0  0  0  0
    1.7350   17.9240  -31.2450 N   0  0  0  0  0  0  0  0  0  0  0  0
    2.0700   18.8020  -32.3340 C   0  0  0  0  0  0  0  0  0  0  0  0
    3.4010   19.1020  -32.6830 C   0  0  0  0  0  0  0  0  0  0  0  0
    4.2308   18.6321  -32.1347 H   0  0  0  0  0  0  0  0  0  0  0  0
    3.6710   19.9950  -33.7240 C   0  0  0  0  0  0  0  0  0  0  0  0
    4.7126   20.2112  -34.0040 H   0  0  0  0  0  0  0  0  0  0  0  0
    2.6250   20.6130  -34.4090 C   0  0  0  0  0  0  0  0  0  0  0  0
    2.8432   21.3033  -35.2372 H   0  0  0  0  0  0  0  0  0  0  0  0
    1.2960   20.3560  -34.0440 C   0  0  0  0  0  0  0  0  0  0  0  0
   -0.0290   21.1570  -34.8990 S   0  0  0  0  0  0  0  0  0  0  0  0
   -0.1000   20.6170  -36.3020 O   0  0  0  0  0  0  0  0  0  0  0  0
    0.2640   22.6310  -34.9840 O   0  0  0  0  0  0  0  0  0  0  0  0
   -1.5760   20.9270  -34.1170 N   0  0  0  0  0  0  0  0  0  0  0  0
   -2.2750   21.5530  -34.5840 H   0  0  0  0  0  0  0  0  0  0  0  0
   -2.0430   19.5420  -34.2080 C   0  0  0  0  0  0  0  0  0  0  0  0
   -2.5796   19.3835  -35.1551 H   0  0  0  0  0  0  0  0  0  0  0  0
   -1.2001   18.8357  -34.1817 H   0  0  0  0  0  0  0  0  0  0  0  0
   -2.9820   19.3230  -33.0280 C   0  0  0  0  0  0  0  0  0  0  0  0
   -4.0307   19.3874  -33.3537 H   0  0  0  0  0  0  0  0  0  0  0  0
   -2.8477   18.3284  -32.5777 H   0  0  0  0  0  0  0  0  0  0  0  0
   -2.6610   20.4380  -32.0430 C   0  0  0  0  0  0  0  0  0  0  0  0
   -3.5440   21.0734  -31.8803 H   0  0  0  0  0  0  0  0  0  0  0  0
   -2.3659   20.0422  -31.0600 H   0  0  0  0  0  0  0  0  0  0  0  0
   -1.5400   21.2400  -32.6890 C   0  0  0  0  0  0  0  0  0  0  0  0
   -1.7032   22.3164  -32.5316 H   0  0  0  0  0  0  0  0  0  0  0  0
   -0.5641   20.9850  -32.2501 H   0  0  0  0  0  0  0  0  0  0  0  0
    1.0260   19.4510  -33.0080 C   0  0  0  0  0  0  0  0  0  0  0  0
   -0.0163   19.2479  -32.7208 H   0  0  0  0  0  0  0  0  0  0  0  0
    0.7680   19.4910  -29.8260 N   0  0  0  0  0  0  0  0  0  0  0  0
    0.1420   19.8030  -28.6550 C   0  0  0  0  0  0  0  0  0  0  0  0
   -0.2020   21.1810  -28.3680 N   0  0  0  0  0  0  0  0  0  0  0  0
   -1.5570   21.6580  -28.4820 C   0  0  0  0  0  0  0  0  0  0  0  0
   -2.4780   21.4340  -27.4480 C   0  0  0  0  0  0  0  0  0  0  0  0
   -2.1749   20.8624  -26.5584 H   0  0  0  0  0  0  0  0  0  0  0  0
   -3.7780   21.9340  -27.5440 C   0  0  0  0  0  0  0  0  0  0  0  0
   -4.4944   21.7584  -26.7279 H   0  0  0  0  0  0  0  0  0  0  0  0
   -4.1730   22.6580  -28.6750 C   0  0  0  0  0  0  0  0  0  0  0  0
   -5.1978   23.0516  -28.7447 H   0  0  0  0  0  0  0  0  0  0  0  0
   -3.2620   22.8830  -29.7220 C   0  0  0  0  0  0  0  0  0  0  0  0
   -3.6090   23.6650  -30.8750 N   0  0  0  0  0  0  0  0  0  0  0  0
   -4.9160   24.1800  -31.1400 C   0  0  0  0  0  0  0  0  0  0  0  0
   -5.0750   25.4320  -31.1730 O   0  0  0  0  0  0  0  0  0  0  0  0
   -6.0640   23.2780  -31.4130 C   0  0  0  0  0  0  0  0  0  0  0  0
   -7.3770   23.7650  -31.3100 C   0  0  0  0  0  0  0  0  0  0  0  0
   -7.5512   24.8081  -31.0072 H   0  0  0  0  0  0  0  0  0  0  0  0
   -8.4600   22.9350  -31.5890 C   0  0  0  0  0  0  0  0  0  0  0  0
   -9.4846   23.3276  -31.5115 H   0  0  0  0  0  0  0  0  0  0  0  0
   -8.2520   21.6090  -31.9660 C   0  0  0  0  0  0  0  0  0  0  0  0
   -9.1183   20.9682  -32.1872 H   0  0  0  0  0  0  0  0  0  0  0  0
   -6.9500   21.0740  -32.0690 C   0  0  0  0  0  0  0  0  0  0  0  0
   -6.7640   19.6030  -32.5020 C   0  0  0  0  0  0  0  0  0  0  0  0
   -8.0830   18.7920  -32.4910 C   0  0  0  0  0  0  0  0  0  0  0  0
   -8.3891   18.6038  -31.4513 H   0  0  0  0  0  0  0  0  0  0  0  0
   -8.8689   19.3631  -33.0069 H   0  0  0  0  0  0  0  0  0  0  0  0
   -7.9281   17.8329  -33.0069 H   0  0  0  0  0  0  0  0  0  0  0  0
   -5.7750   18.9080  -31.5430 C   0  0  0  0  0  0  0  0  0  0  0  0
   -6.0674   19.1135  -30.5027 H   0  0  0  0  0  0  0  0  0  0  0  0
   -5.7927   17.8227  -31.7213 H   0  0  0  0  0  0  0  0  0  0  0  0
   -4.7599   19.2924  -31.7213 H   0  0  0  0  0  0  0  0  0  0  0  0
   -6.2010   19.5530  -33.9420 C   0  0  0  0  0  0  0  0  0  0  0  0
   -5.1060   19.4557  -33.9044 H   0  0  0  0  0  0  0  0  0  0  0  0
   -6.6278   18.6892  -34.4728 H   0  0  0  0  0  0  0  0  0  0  0  0
   -6.4689   20.4785  -34.4728 H   0  0  0  0  0  0  0  0  0  0  0  0
   -5.8590   21.9360  -31.7900 C   0  0  0  0  0  0  0  0  0  0  0  0
   -4.8323   21.5492  -31.8695 H   0  0  0  0  0  0  0  0  0  0  0  0
   -1.9630   22.3660  -29.6250 C   0  0  0  0  0  0  0  0  0  0  0  0
   -1.2541   22.5163  -30.4526 H   0  0  0  0  0  0  0  0  0  0  0  0
    0.8270   22.0880  -27.8480 C   0  0  0  0  0  0  0  0  0  0  0  0
    0.8084   22.0716  -26.7483 H   0  0  0  0  0  0  0  0  0  0  0  0
    1.8160   21.7625  -28.2029 H   0  0  0  0  0  0  0  0  0  0  0  0
    0.6282   23.1100  -28.2029 H   0  0  0  0  0  0  0  0  0  0  0  0
   -0.1190   18.7720  -27.7360 C   0  0  0  0  0  0  0  0  0  0  0  0
   -0.6097   18.9890  -26.7758 H   0  0  0  0  0  0  0  0  0  0  0  0
  1  2  1  0
  2  3  1  0
  3  4  1  0
  4  5  2  0
  5  6  1  0
  6  7  2  0
  7  8  1  0
  7  9  1  0
  9 10  1  0
  9 11  2  0
 11 12  1  0
 11 13  1  0
 13 14  1  0
 14 15  2  0
 14 16  2  0
 14 17  1  0
 17 18  1  0
 17 19  1  0
 19 20  1  0
 19 21  1  0
 19 22  1  0
 22 23  1  0
 22 24  1  0
 22 25  1  0
 25 26  1  0
 25 27  1  0
 25 28  1  0
 28 29  1  0
 28 30  1  0
 13 31  2  0
 31 32  1  0
  4 33  1  0
 33 34  2  0
 34 35  1  0
 35 36  1  0
 36 37  2  0
 37 38  1  0
 37 39  1  0
 39 40  1  0
 39 41  2  0
 41 42  1  0
 41 43  1  0
 43 44  1  0
 44 45  1  0
 45 46  2  0
 45 47  1  0
 47 48  2  0
 48 49  1  0
 48 50  1  0
 50 51  1  0
 50 52  2  0
 52 53  1  0
 52 54  1  0
 54 55  1  0
 55 56  1  0
 56 57  1  0
 56 58  1  0
 56 59  1  0
 55 60  1  0
 60 61  1  0
 60 62  1  0
 60 63  1  0
 55 64  1  0
 64 65  1  0
 64 66  1  0
 64 67  1  0
 54 68  2  0
 68 69  1  0
 43 70  2  0
 70 71  1  0
 35 72  1  0
 72 73  1  0
 72 74  1  0
 72 75  1  0
 34 76  1  0
 76 77  1  0
 76  2  2  0
 31  6  1  0
 70 36  1  0
 28 17  1  0
 68 47  1  0
M  CHG  3   3  -1  17   1  44  -1
M  END
>  <UniqueID>  (38) 
34

>  <SMILES>  (38) 
CN(c1cccc([N-]C(=O)c2cccc(C(C)(C)C)c2)c1)c1cc[n-]/c(=N/c2cccc(S(=O)(=O)[NH+]3CCCC3)c2)n1

>  <Energy>  (38) 
107.51941741497629

>  <Genealogy>  (38) 
CN(c1cccc([N-]C(=O)c2cccc(C(C)(C)C)c2)c1)c1cc[n-]c(=Nc2cccc(S(=O)(=O)[NH+]3CCCC3)c2)n1 (protonated)
CN(c1cccc([N-]C(=O)c2cccc(C(C)(C)C)c2)c1)c1cc[n-]/c(=N/c2cccc(S(=O)(=O)[NH+]3CCCC3)c2)n1 (cis-trans isomerization)
CN(c1cccc([N-]C(=O)c2cccc(C(C)(C)C)c2)c1)c1cc[n-]/c(=N/c2cccc(S(=O)(=O)[NH+]3CCCC3)c2)n1 (3D coordinates assigned)
CN(c1cccc([N-]C(=O)c2cccc(C(C)(C)C)c2)c1)c1cc[n-]/c(=N/c2cccc(S(=O)(=O)[NH+]3CCCC3)c2)n1 (nonaromatic ring conformer: 107.51941741497629 kcal/mol)

>  <smiles>  (38) 
CN(c1cccc(NC(=O)c2cccc(C(C)(C)C)c2)c1)c1cc[nH]c(=Nc2cccc(S(=O)(=O)N3CCCC3)c2)n1

>  <score_type>  (38) 
oracle

>  <origin>  (38) 
adgpu

>  <m_score__min__energy>  (38) 
-13.51

>  <m_primary>  (38) 
energy

$$$$
38:0
     RDKit          3D

 48 51  0  0  0  0  0  0  0  0999 V2000
   -5.4769   24.9413  -32.8007 H   0  0  0  0  0  0  0  0  0  0  0  0
   -5.8050   24.0600  -32.2300 C   0  0  0  0  0  0  0  0  0  0  0  0
   -6.9610   23.5370  -32.5280 N   0  0  0  0  0  0  0  0  0  0  0  0
   -7.5000   22.2940  -32.0520 C   0  0  0  0  0  0  0  0  0  0  0  0
   -8.6470   22.3100  -31.2490 C   0  0  0  0  0  0  0  0  0  0  0  0
   -9.1126   23.2688  -30.9771 H   0  0  0  0  0  0  0  0  0  0  0  0
   -9.2020   21.1120  -30.7920 C   0  0  0  0  0  0  0  0  0  0  0  0
  -10.0917   21.1311  -30.1454 H   0  0  0  0  0  0  0  0  0  0  0  0
   -8.6300   19.8900  -31.1540 C   0  0  0  0  0  0  0  0  0  0  0  0
   -9.0624   18.9499  -30.7810 H   0  0  0  0  0  0  0  0  0  0  0  0
   -7.5070   19.8590  -31.9910 C   0  0  0  0  0  0  0  0  0  0  0  0
   -6.7950   18.3150  -32.4520 S   0  0  0  0  0  0  0  0  0  0  0  0
   -7.9010   17.3060  -32.5860 O   0  0  0  0  0  0  0  0  0  0  0  0
   -5.8360   17.8570  -31.3880 O   0  0  0  0  0  0  0  0  0  0  0  0
   -5.9540   18.4790  -33.9800 N   0  0  0  0  0  0  0  0  0  0  0  0
   -4.6680   19.1550  -33.7900 C   0  0  0  0  0  0  0  0  0  0  0  0
   -4.4355   19.7677  -34.6734 H   0  0  0  0  0  0  0  0  0  0  0  0
   -4.7106   19.8110  -32.9080 H   0  0  0  0  0  0  0  0  0  0  0  0
   -3.5940   18.0920  -33.6030 C   0  0  0  0  0  0  0  0  0  0  0  0
   -2.7089   18.3291  -34.2115 H   0  0  0  0  0  0  0  0  0  0  0  0
   -3.2583   18.0318  -32.5572 H   0  0  0  0  0  0  0  0  0  0  0  0
   -4.2230   16.7910  -34.0670 C   0  0  0  0  0  0  0  0  0  0  0  0
   -3.6455   16.3598  -34.8980 H   0  0  0  0  0  0  0  0  0  0  0  0
   -4.2420   16.0383  -33.2651 H   0  0  0  0  0  0  0  0  0  0  0  0
   -5.6260   17.1590  -34.5290 C   0  0  0  0  0  0  0  0  0  0  0  0
   -5.6599   17.1932  -35.6279 H   0  0  0  0  0  0  0  0  0  0  0  0
   -6.3515   16.4096  -34.1797 H   0  0  0  0  0  0  0  0  0  0  0  0
   -6.9520   21.0620  -32.4500 C   0  0  0  0  0  0  0  0  0  0  0  0
   -6.0836   21.0417  -33.1248 H   0  0  0  0  0  0  0  0  0  0  0  0
   -4.9060   23.5460  -31.1750 C   0  0  0  0  0  0  0  0  0  0  0  0
   -4.8110   22.2480  -30.6960 C   0  0  0  0  0  0  0  0  0  0  0  0
   -5.3563   21.3648  -31.0602 H   0  0  0  0  0  0  0  0  0  0  0  0
   -3.8910   22.2930  -29.6680 C   0  0  0  0  0  0  0  0  0  0  0  0
   -3.5170   21.1970  -28.8980 O   0  0  0  0  0  0  0  0  0  0  0  0
   -3.4280   23.5470  -29.4790 N   0  0  0  0  0  0  0  0  0  0  0  0
   -2.4670   23.9780  -28.4990 C   0  0  0  0  0  0  0  0  0  0  0  0
   -2.8840   24.3410  -27.2070 C   0  0  0  0  0  0  0  0  0  0  0  0
   -3.9508   24.2934  -26.9430 H   0  0  0  0  0  0  0  0  0  0  0  0
   -1.9510   24.7620  -26.2560 C   0  0  0  0  0  0  0  0  0  0  0  0
   -2.2860   25.0426  -25.2465 H   0  0  0  0  0  0  0  0  0  0  0  0
   -0.5920   24.8280  -26.5830 C   0  0  0  0  0  0  0  0  0  0  0  0
    0.5670   25.3620  -25.3740 Cl  0  0  0  0  0  0  0  0  0  0  0  0
   -0.1680   24.4670  -27.8680 C   0  0  0  0  0  0  0  0  0  0  0  0
    1.1800   24.5310  -28.2070 O   0  0  0  0  0  0  0  0  0  0  0  0
   -1.1000   24.0430  -28.8210 C   0  0  0  0  0  0  0  0  0  0  0  0
   -0.7614   23.7588  -29.8282 H   0  0  0  0  0  0  0  0  0  0  0  0
   -4.0610   24.3120  -30.3930 C   0  0  0  0  0  0  0  0  0  0  0  0
   -3.8620   25.6810  -30.5410 O   0  0  0  0  0  0  0  0  0  0  0  0
  1  2  1  0
  2  3  2  0
  3  4  1  0
  4  5  2  0
  5  6  1  0
  5  7  1  0
  7  8  1  0
  7  9  2  0
  9 10  1  0
  9 11  1  0
 11 12  1  0
 12 13  2  0
 12 14  2  0
 12 15  1  0
 15 16  1  0
 16 17  1  0
 16 18  1  0
 16 19  1  0
 19 20  1  0
 19 21  1  0
 19 22  1  0
 22 23  1  0
 22 24  1  0
 22 25  1  0
 25 26  1  0
 25 27  1  0
 11 28  2  0
 28 29  1  0
  2 30  1  0
 30 31  1  0
 31 32  1  0
 31 33  2  0
 33 34  1  0
 33 35  1  0
 35 36  1  0
 36 37  2  0
 37 38  1  0
 37 39  1  0
 39 40  1  0
 39 41  2  0
 41 42  1  0
 41 43  1  0
 43 44  1  0
 43 45  2  0
 45 46  1  0
 35 47  1  0
 47 48  1  0
 28  4  1  0
 47 30  2  0
 25 15  1  0
 45 36  1  0
M  CHG  3  34  -1  44  -1  48  -1
M  END
>  <UniqueID>  (39) 
35

>  <SMILES>  (39) 
O=S(=O)(c1cccc(/N=C\c2cc([O-])n(-c3ccc(Cl)c([O-])c3)c2[O-])c1)N1CCCC1

>  <Energy>  (39) 
96.11727483334919

>  <Genealogy>  (39) 
O=S(=O)(c1cccc(N=Cc2cc([O-])n(-c3ccc(Cl)c([O-])c3)c2[O-])c1)N1CCCC1 (protonated)
O=S(=O)(c1cccc(/N=C\c2cc([O-])n(-c3ccc(Cl)c([O-])c3)c2[O-])c1)N1CCCC1 (cis-trans isomerization)
O=S(=O)(c1cccc(/N=C\c2cc([O-])n(-c3ccc(Cl)c([O-])c3)c2[O-])c1)N1CCCC1 (3D coordinates assigned)
O=S(=O)(c1cccc(/N=C\c2cc([O-])n(-c3ccc(Cl)c([O-])c3)c2[O-])c1)N1CCCC1 (nonaromatic ring conformer: 96.11727483334919 kcal/mol)

>  <smiles>  (39) 
O=S(=O)(c1cccc(N=Cc2cc(O)n(-c3ccc(Cl)c(O)c3)c2O)c1)N1CCCC1

>  <score_type>  (39) 
oracle

>  <origin>  (39) 
adgpu

>  <m_score__min__energy>  (39) 
-14.01

>  <m_primary>  (39) 
energy

$$$$
39:0
     RDKit          3D

 51 54  0  0  0  0  0  0  0  0999 V2000
   -9.6450   22.1710  -32.2690 O   0  0  0  0  0  0  0  0  0  0  0  0
   -8.2570   21.9720  -31.7290 S   0  0  0  0  0  0  0  0  0  0  0  0
   -8.2820   22.1540  -30.2360 O   0  0  0  0  0  0  0  0  0  0  0  0
   -7.1960   23.1540  -32.4260 N   0  0  0  0  0  0  0  0  0  0  0  0
   -6.0680   23.7230  -31.7350 C   0  0  0  0  0  0  0  0  0  0  0  0
   -6.1080   25.0190  -31.1880 C   0  0  0  0  0  0  0  0  0  0  0  0
   -4.9990   25.5360  -30.5150 C   0  0  0  0  0  0  0  0  0  0  0  0
   -3.8340   24.7750  -30.3840 C   0  0  0  0  0  0  0  0  0  0  0  0
   -2.7530   25.2990  -29.6850 O   0  0  0  0  0  0  0  0  0  0  0  0
   -3.7730   23.4860  -30.9390 C   0  0  0  0  0  0  0  0  0  0  0  0
   -2.5810   22.6900  -30.8240 N   0  0  0  0  0  0  0  0  0  0  0  0
   -1.8830   22.5850  -29.5380 C   0  0  0  0  0  0  0  0  0  0  0  0
   -1.6910   21.1070  -29.1390 C   0  0  0  0  0  0  0  0  0  0  0  0
   -1.6340   20.1760  -30.2850 N   0  0  0  0  0  0  0  0  0  0  0  0
   -1.1330   20.8150  -31.5090 C   0  0  0  0  0  0  0  0  0  0  0  0
   -2.0990   21.9140  -31.9710 C   0  0  0  0  0  0  0  0  0  0  0  0
   -4.8910   22.9690  -31.6120 C   0  0  0  0  0  0  0  0  0  0  0  0
   -7.7120   20.3520  -32.1520 C   0  0  0  0  0  0  0  0  0  0  0  0
   -8.4130   19.2290  -31.7040 C   0  0  0  0  0  0  0  0  0  0  0  0
   -7.9720   17.9470  -32.0350 C   0  0  0  0  0  0  0  0  0  0  0  0
   -6.8280   17.7670  -32.8270 C   0  0  0  0  0  0  0  0  0  0  0  0
   -6.1030   18.9020  -33.2660 C   0  0  0  0  0  0  0  0  0  0  0  0
   -6.5680   20.1860  -32.9400 C   0  0  0  0  0  0  0  0  0  0  0  0
   -4.9040   18.7690  -34.1750 C   0  0  0  0  0  0  0  0  0  0  0  0
   -4.2720   17.3760  -34.1120 C   0  0  0  0  0  0  0  0  0  0  0  0
   -5.3480   16.2990  -34.2650 C   0  0  0  0  0  0  0  0  0  0  0  0
   -6.3410   16.3640  -33.1000 C   0  0  0  0  0  0  0  0  0  0  0  0
   -7.3360   23.3770  -33.4370 H   0  0  0  0  0  0  0  0  0  0  0  0
   -7.0180   25.6283  -31.2912 H   0  0  0  0  0  0  0  0  0  0  0  0
   -5.0426   26.5478  -30.0856 H   0  0  0  0  0  0  0  0  0  0  0  0
   -0.8978   23.0670  -29.6218 H   0  0  0  0  0  0  0  0  0  0  0  0
   -2.4881   23.0832  -28.7662 H   0  0  0  0  0  0  0  0  0  0  0  0
   -0.7498   21.0204  -28.5763 H   0  0  0  0  0  0  0  0  0  0  0  0
   -2.5701   20.8225  -28.5422 H   0  0  0  0  0  0  0  0  0  0  0  0
   -2.5990   19.8100  -30.4730 H   0  0  0  0  0  0  0  0  0  0  0  0
   -0.1470   21.2596  -31.3086 H   0  0  0  0  0  0  0  0  0  0  0  0
   -1.0507   20.0556  -32.3006 H   0  0  0  0  0  0  0  0  0  0  0  0
   -1.5766   22.5854  -32.6684 H   0  0  0  0  0  0  0  0  0  0  0  0
   -2.9597   21.4443  -32.4696 H   0  0  0  0  0  0  0  0  0  0  0  0
   -4.8439   21.9604  -32.0484 H   0  0  0  0  0  0  0  0  0  0  0  0
   -9.3156   19.3561  -31.0883 H   0  0  0  0  0  0  0  0  0  0  0  0
   -8.5266   17.0693  -31.6715 H   0  0  0  0  0  0  0  0  0  0  0  0
   -6.0273   21.0705  -33.3079 H   0  0  0  0  0  0  0  0  0  0  0  0
   -5.2221   18.9656  -35.2095 H   0  0  0  0  0  0  0  0  0  0  0  0
   -4.1482   19.4944  -33.8395 H   0  0  0  0  0  0  0  0  0  0  0  0
   -3.5374   17.2734  -34.9243 H   0  0  0  0  0  0  0  0  0  0  0  0
   -3.7758   17.2512  -33.1382 H   0  0  0  0  0  0  0  0  0  0  0  0
   -5.8878   16.4581  -35.2102 H   0  0  0  0  0  0  0  0  0  0  0  0
   -4.8649   15.3108  -34.2662 H   0  0  0  0  0  0  0  0  0  0  0  0
   -7.2079   15.7312  -33.3408 H   0  0  0  0  0  0  0  0  0  0  0  0
   -5.8186   16.0123  -32.1981 H   0  0  0  0  0  0  0  0  0  0  0  0
  1  2  2  0
  2  3  2  0
  2  4  1  0
  4  5  1  0
  5  6  2  0
  6  7  1  0
  7  8  2  0
  8  9  1  0
  8 10  1  0
 10 11  1  0
 11 12  1  0
 12 13  1  0
 13 14  1  0
 14 15  1  0
 15 16  1  0
 10 17  2  0
  2 18  1  0
 18 19  2  0
 19 20  1  0
 20 21  2  0
 21 22  1  0
 22 23  2  0
 22 24  1  0
 24 25  1  0
 25 26  1  0
 26 27  1  0
 17  5  1  0
 23 18  1  0
 16 11  1  0
 27 21  1  0
  4 28  1  0
  6 29  1  0
  7 30  1  0
 12 31  1  0
 12 32  1  0
 13 33  1  0
 13 34  1  0
 14 35  1  0
 15 36  1  0
 15 37  1  0
 16 38  1  0
 16 39  1  0
 17 40  1  0
 19 41  1  0
 20 42  1  0
 23 43  1  0
 24 44  1  0
 24 45  1  0
 25 46  1  0
 25 47  1  0
 26 48  1  0
 26 49  1  0
 27 50  1  0
 27 51  1  0
M  CHG  1   9  -1
M  END
>  <UniqueID>  (40) 
36

>  <SMILES>  (40) 
O=S(=O)(Nc1ccc([O-])c(N2CCNCC2)c1)c1ccc2c(c1)CCCC2

>  <Energy>  (40) 
64.37242099431802

>  <Genealogy>  (40) 
O=S(=O)(Nc1ccc([O-])c(N2CCNCC2)c1)c1ccc2c(c1)CCCC2 (protonated)
O=S(=O)(Nc1ccc([O-])c(N2CCNCC2)c1)c1ccc2c(c1)CCCC2 (3D coordinates assigned)
O=S(=O)(Nc1ccc([O-])c(N2CCNCC2)c1)c1ccc2c(c1)CCCC2 (nonaromatic ring conformer: 64.37242099431802 kcal/mol)

>  <smiles>  (40) 
O=S(=O)(Nc1ccc(O)c(N2CCNCC2)c1)c1ccc2c(c1)CCCC2

>  <score_type>  (40) 
oracle

>  <origin>  (40) 
adgpu

>  <m_score__min__energy>  (40) 
-13.050000000000001

>  <m_primary>  (40) 
energy

$$$$
40:0
     RDKit          3D

 43 46  0  0  0  0  0  0  0  0999 V2000
   -6.3020   18.4070  -32.6100 C   0  0  0  0  0  0  0  0  0  0  0  0
   -7.0270   19.6640  -32.4620 N   0  0  0  0  0  0  0  0  0  0  0  0
   -8.4370   19.7910  -32.2660 C   0  0  0  0  0  0  0  0  0  0  0  0
   -9.2710   18.8760  -32.5010 O   0  0  0  0  0  0  0  0  0  0  0  0
   -8.7530   21.1050  -31.7290 C   0  0  0  0  0  0  0  0  0  0  0  0
   -9.8920   21.5580  -31.4410 O   0  0  0  0  0  0  0  0  0  0  0  0
   -7.4740   21.7750  -31.5650 C   0  0  0  0  0  0  0  0  0  0  0  0
   -7.1750   23.0290  -31.0380 C   0  0  0  0  0  0  0  0  0  0  0  0
   -5.8200   23.4030  -30.9400 C   0  0  0  0  0  0  0  0  0  0  0  0
   -5.3710   24.9470  -30.2240 S   0  0  0  0  0  0  0  0  0  0  0  0
   -4.4210   25.6510  -31.1530 O   0  0  0  0  0  0  0  0  0  0  0  0
   -6.5800   25.8150  -30.0140 O   0  0  0  0  0  0  0  0  0  0  0  0
   -4.5910   24.6780  -28.6970 N   0  0  0  0  0  0  0  0  0  0  0  0
   -3.4490   23.8150  -28.5400 C   0  0  0  0  0  0  0  0  0  0  0  0
   -3.5930   22.5030  -28.0540 C   0  0  0  0  0  0  0  0  0  0  0  0
   -2.4810   21.6570  -27.9300 C   0  0  0  0  0  0  0  0  0  0  0  0
   -1.2060   22.1210  -28.3090 C   0  0  0  0  0  0  0  0  0  0  0  0
   -1.0570   23.4410  -28.7540 C   0  0  0  0  0  0  0  0  0  0  0  0
   -2.1660   24.2820  -28.8740 C   0  0  0  0  0  0  0  0  0  0  0  0
   -1.9870   25.5790  -29.3400 O   0  0  0  0  0  0  0  0  0  0  0  0
    0.0140   21.2460  -28.1420 C   0  0  0  0  0  0  0  0  0  0  0  0
   -0.3240   19.8170  -28.0950 N   0  0  0  0  0  0  0  0  0  0  0  0
   -1.3630   19.5630  -27.0890 C   0  0  0  0  0  0  0  0  0  0  0  0
   -2.6850   20.2310  -27.4850 C   0  0  0  0  0  0  0  0  0  0  0  0
   -4.8090   22.5150  -31.3690 C   0  0  0  0  0  0  0  0  0  0  0  0
   -5.1360   21.2530  -31.8920 C   0  0  0  0  0  0  0  0  0  0  0  0
   -6.4850   20.9020  -31.9840 C   0  0  0  0  0  0  0  0  0  0  0  0
   -6.0672   17.9999  -31.6155 H   0  0  0  0  0  0  0  0  0  0  0  0
   -6.9240   17.6879  -33.1631 H   0  0  0  0  0  0  0  0  0  0  0  0
   -5.3680   18.5853  -33.1631 H   0  0  0  0  0  0  0  0  0  0  0  0
   -7.9744   23.7085  -30.7075 H   0  0  0  0  0  0  0  0  0  0  0  0
   -4.8900   25.2870  -27.9030 H   0  0  0  0  0  0  0  0  0  0  0  0
   -4.5896   22.1359  -27.7677 H   0  0  0  0  0  0  0  0  0  0  0  0
   -0.0566   23.8191  -29.0115 H   0  0  0  0  0  0  0  0  0  0  0  0
    0.6928   21.4208  -28.9897 H   0  0  0  0  0  0  0  0  0  0  0  0
    0.4879   21.5103  -27.1851 H   0  0  0  0  0  0  0  0  0  0  0  0
   -0.6780   19.5200  -29.0360 H   0  0  0  0  0  0  0  0  0  0  0  0
   -1.5205   18.4779  -27.0003 H   0  0  0  0  0  0  0  0  0  0  0  0
   -1.0314   19.9836  -26.1282 H   0  0  0  0  0  0  0  0  0  0  0  0
   -3.1382   19.6620  -28.3101 H   0  0  0  0  0  0  0  0  0  0  0  0
   -3.3416   20.2390  -26.6025 H   0  0  0  0  0  0  0  0  0  0  0  0
   -3.7535   22.8151  -31.2927 H   0  0  0  0  0  0  0  0  0  0  0  0
   -4.3492   20.5582  -32.2210 H   0  0  0  0  0  0  0  0  0  0  0  0
  1  2  1  0
  2  3  1  0
  3  4  2  0
  3  5  1  0
  5  6  2  0
  5  7  1  0
  7  8  2  0
  8  9  1  0
  9 10  1  0
 10 11  2  0
 10 12  2  0
 10 13  1  0
 13 14  1  0
 14 15  2  0
 15 16  1  0
 16 17  2  0
 17 18  1  0
 18 19  2  0
 19 20  1  0
 17 21  1  0
 21 22  1  0
 22 23  1  0
 23 24  1  0
  9 25  2  0
 25 26  1  0
 26 27  2  0
 27  2  1  0
 27  7  1  0
 19 14  1  0
 24 16  1  0
  1 28  1  0
  1 29  1  0
  1 30  1  0
  8 31  1  0
 13 32  1  0
 15 33  1  0
 18 34  1  0
 21 35  1  0
 21 36  1  0
 22 37  1  0
 23 38  1  0
 23 39  1  0
 24 40  1  0
 24 41  1  0
 25 42  1  0
 26 43  1  0
M  CHG  1  20  -1
M  END
>  <UniqueID>  (41) 
37

>  <SMILES>  (41) 
CN1C(=O)C(=O)c2cc(S(=O)(=O)Nc3cc4c(cc3[O-])CNCC4)ccc21

>  <Energy>  (41) 
82.49029860675833

>  <Genealogy>  (41) 
CN1C(=O)C(=O)c2cc(S(=O)(=O)Nc3cc4c(cc3[O-])CNCC4)ccc21 (protonated)
CN1C(=O)C(=O)c2cc(S(=O)(=O)Nc3cc4c(cc3[O-])CNCC4)ccc21 (3D coordinates assigned)
CN1C(=O)C(=O)c2cc(S(=O)(=O)Nc3cc4c(cc3[O-])CNCC4)ccc21 (nonaromatic ring conformer: 82.49029860675833 kcal/mol)

>  <smiles>  (41) 
CN1C(=O)C(=O)c2cc(S(=O)(=O)Nc3cc4c(cc3O)CNCC4)ccc21

>  <score_type>  (41) 
oracle

>  <origin>  (41) 
adgpu

>  <m_score__min__energy>  (41) 
-13.99

>  <m_primary>  (41) 
energy

$$$$
41:0
     RDKit          3D

 46 49  0  0  0  0  0  0  0  0999 V2000
   -7.6020   25.2970  -30.1120 O   0  0  0  0  0  0  0  0  0  0  0  0
   -6.8960   24.2750  -29.9120 C   0  0  0  0  0  0  0  0  0  0  0  0
   -7.5510   23.0130  -29.7090 N   0  0  0  0  0  0  0  0  0  0  0  0
   -7.8780   22.0530  -30.7240 C   0  0  0  0  0  0  0  0  0  0  0  0
   -9.2120   21.9220  -31.1280 C   0  0  0  0  0  0  0  0  0  0  0  0
   -9.5630   20.9920  -32.1100 C   0  0  0  0  0  0  0  0  0  0  0  0
   -8.5830   20.1900  -32.7000 C   0  0  0  0  0  0  0  0  0  0  0  0
   -7.2410   20.3250  -32.3170 C   0  0  0  0  0  0  0  0  0  0  0  0
   -5.9900   19.3310  -33.0550 S   0  0  0  0  0  0  0  0  0  0  0  0
   -6.1280   19.3560  -34.5520 O   0  0  0  0  0  0  0  0  0  0  0  0
   -6.1530   17.9130  -32.5800 O   0  0  0  0  0  0  0  0  0  0  0  0
   -4.4230   19.9310  -32.5760 N   0  0  0  0  0  0  0  0  0  0  0  0
   -4.2460   21.3280  -32.9720 C   0  0  0  0  0  0  0  0  0  0  0  0
   -2.7510   21.5410  -33.1520 C   0  0  0  0  0  0  0  0  0  0  0  0
   -2.1630   20.1490  -33.3270 C   0  0  0  0  0  0  0  0  0  0  0  0
   -3.3460   19.1970  -33.2390 C   0  0  0  0  0  0  0  0  0  0  0  0
   -6.8880   21.2740  -31.3490 C   0  0  0  0  0  0  0  0  0  0  0  0
   -5.4300   24.4210  -29.8400 C   0  0  0  0  0  0  0  0  0  0  0  0
   -4.6160   24.0970  -28.7730 C   0  0  0  0  0  0  0  0  0  0  0  0
   -3.3440   24.4190  -29.2080 C   0  0  0  0  0  0  0  0  0  0  0  0
   -2.0780   24.2290  -28.4540 C   0  0  0  0  0  0  0  0  0  0  0  0
   -1.8640   23.0460  -27.7180 C   0  0  0  0  0  0  0  0  0  0  0  0
   -0.6710   22.8490  -27.0190 C   0  0  0  0  0  0  0  0  0  0  0  0
    0.3240   23.8260  -27.0400 C   0  0  0  0  0  0  0  0  0  0  0  0
    0.1290   25.0030  -27.7650 C   0  0  0  0  0  0  0  0  0  0  0  0
   -1.0620   25.2110  -28.4700 C   0  0  0  0  0  0  0  0  0  0  0  0
   -1.2230   26.4020  -29.1720 O   0  0  0  0  0  0  0  0  0  0  0  0
   -3.4170   24.9250  -30.4550 N   0  0  0  0  0  0  0  0  0  0  0  0
   -4.6840   24.9300  -30.8370 N   0  0  0  0  0  0  0  0  0  0  0  0
   -9.9873   22.5540  -30.6703 H   0  0  0  0  0  0  0  0  0  0  0  0
  -10.6138   20.8911  -32.4193 H   0  0  0  0  0  0  0  0  0  0  0  0
   -8.8644   19.4520  -33.4656 H   0  0  0  0  0  0  0  0  0  0  0  0
   -4.7741   21.5248  -33.9166 H   0  0  0  0  0  0  0  0  0  0  0  0
   -4.6561   22.0110  -32.2135 H   0  0  0  0  0  0  0  0  0  0  0  0
   -2.5544   22.1566  -34.0422 H   0  0  0  0  0  0  0  0  0  0  0  0
   -2.3067   22.0680  -32.2948 H   0  0  0  0  0  0  0  0  0  0  0  0
   -1.6693   20.0600  -34.3060 H   0  0  0  0  0  0  0  0  0  0  0  0
   -1.4019   19.9275  -32.5643 H   0  0  0  0  0  0  0  0  0  0  0  0
   -3.6610   18.8885  -34.2468 H   0  0  0  0  0  0  0  0  0  0  0  0
   -3.0828   18.2870  -32.6799 H   0  0  0  0  0  0  0  0  0  0  0  0
   -5.8311   21.4106  -31.0764 H   0  0  0  0  0  0  0  0  0  0  0  0
   -4.9119   23.6785  -27.7997 H   0  0  0  0  0  0  0  0  0  0  0  0
   -2.6439   22.2707  -27.6940 H   0  0  0  0  0  0  0  0  0  0  0  0
   -0.5157   21.9204  -26.4502 H   0  0  0  0  0  0  0  0  0  0  0  0
    1.2613   23.6694  -26.4860 H   0  0  0  0  0  0  0  0  0  0  0  0
    0.9160   25.7714  -27.7822 H   0  0  0  0  0  0  0  0  0  0  0  0
  1  2  2  0
  2  3  1  0
  3  4  1  0
  4  5  2  0
  5  6  1  0
  6  7  2  0
  7  8  1  0
  8  9  1  0
  9 10  2  0
  9 11  2  0
  9 12  1  0
 12 13  1  0
 13 14  1  0
 14 15  1  0
 15 16  1  0
  8 17  2  0
  2 18  1  0
 18 19  1  0
 19 20  2  0
 20 21  1  0
 21 22  2  0
 22 23  1  0
 23 24  2  0
 24 25  1  0
 25 26  2  0
 26 27  1  0
 20 28  1  0
 28 29  1  0
 17  4  1  0
 29 18  2  0
 16 12  1  0
 26 21  1  0
  5 30  1  0
  6 31  1  0
  7 32  1  0
 13 33  1  0
 13 34  1  0
 14 35  1  0
 14 36  1  0
 15 37  1  0
 15 38  1  0
 16 39  1  0
 16 40  1  0
 17 41  1  0
 19 42  1  0
 22 43  1  0
 23 44  1  0
 24 45  1  0
 25 46  1  0
M  CHG  3   3  -1  27  -1  28  -1
M  END
>  <UniqueID>  (42) 
38

>  <SMILES>  (42) 
O=C([N-]c1cccc(S(=O)(=O)N2CCCC2)c1)c1cc(-c2ccccc2[O-])[n-]n1

>  <Energy>  (42) 
86.47530340495672

>  <Genealogy>  (42) 
O=C([N-]c1cccc(S(=O)(=O)N2CCCC2)c1)c1cc(-c2ccccc2[O-])[n-]n1 (protonated)
O=C([N-]c1cccc(S(=O)(=O)N2CCCC2)c1)c1cc(-c2ccccc2[O-])[n-]n1 (3D coordinates assigned)
O=C([N-]c1cccc(S(=O)(=O)N2CCCC2)c1)c1cc(-c2ccccc2[O-])[n-]n1 (nonaromatic ring conformer: 86.47530340495672 kcal/mol)

>  <smiles>  (42) 
O=C(Nc1cccc(S(=O)(=O)N2CCCC2)c1)c1cc(-c2ccccc2O)[nH]n1

>  <score_type>  (42) 
oracle

>  <origin>  (42) 
adgpu

>  <m_score__min__energy>  (42) 
-15.279999999999999

>  <m_primary>  (42) 
energy

$$$$
42:0
     RDKit          3D

 49 52  0  0  0  0  0  0  0  0999 V2000
   -6.5090   18.7540  -33.4130 C   0  0  0  0  0  0  0  0  0  0  0  0
   -7.2280   19.9460  -32.9780 N   0  0  0  0  0  0  0  0  0  0  0  0
   -8.5800   19.9810  -32.5150 C   0  0  0  0  0  0  0  0  0  0  0  0
   -9.4150   19.0550  -32.6900 O   0  0  0  0  0  0  0  0  0  0  0  0
   -8.8280   21.2180  -31.7890 C   0  0  0  0  0  0  0  0  0  0  0  0
   -9.9040   21.5790  -31.2460 O   0  0  0  0  0  0  0  0  0  0  0  0
   -7.5610   21.9290  -31.7890 C   0  0  0  0  0  0  0  0  0  0  0  0
   -7.2040   23.1310  -31.1830 C   0  0  0  0  0  0  0  0  0  0  0  0
   -5.8630   23.5510  -31.2780 C   0  0  0  0  0  0  0  0  0  0  0  0
   -5.3130   24.9950  -30.4320 S   0  0  0  0  0  0  0  0  0  0  0  0
   -5.7340   26.2090  -31.2100 O   0  0  0  0  0  0  0  0  0  0  0  0
   -5.9010   25.0700  -29.0500 O   0  0  0  0  0  0  0  0  0  0  0  0
   -3.5840   24.9440  -30.3320 N   0  0  0  0  0  0  0  0  0  0  0  0
   -2.8920   24.0480  -29.4550 C   0  0  0  0  0  0  0  0  0  0  0  0
   -1.7080   23.4050  -29.8530 C   0  0  0  0  0  0  0  0  0  0  0  0
   -0.9900   22.6280  -28.9420 C   0  0  0  0  0  0  0  0  0  0  0  0
   -1.4350   22.4990  -27.6220 C   0  0  0  0  0  0  0  0  0  0  0  0
   -0.4500   21.6460  -26.4360 S   0  0  0  0  0  0  0  0  0  0  0  0
    0.4270   20.6520  -27.1460 O   0  0  0  0  0  0  0  0  0  0  0  0
   -1.3550   20.8800  -25.5110 O   0  0  0  0  0  0  0  0  0  0  0  0
    0.5400   22.7400  -25.4900 N   0  0  0  0  0  0  0  0  0  0  0  0
    1.1580   23.8040  -26.3040 C   0  0  0  0  0  0  0  0  0  0  0  0
    0.2210   25.0100  -26.5480 C   0  0  0  0  0  0  0  0  0  0  0  0
   -0.9840   24.9380  -25.8110 O   0  0  0  0  0  0  0  0  0  0  0  0
   -0.6940   24.6760  -24.4590 C   0  0  0  0  0  0  0  0  0  0  0  0
   -0.1560   23.2440  -24.2880 C   0  0  0  0  0  0  0  0  0  0  0  0
   -2.6460   23.0940  -27.2400 C   0  0  0  0  0  0  0  0  0  0  0  0
   -3.3760   23.8550  -28.1570 C   0  0  0  0  0  0  0  0  0  0  0  0
   -4.9210   22.7560  -31.9700 C   0  0  0  0  0  0  0  0  0  0  0  0
   -5.3060   21.5460  -32.5720 C   0  0  0  0  0  0  0  0  0  0  0  0
   -6.6420   21.1520  -32.4720 C   0  0  0  0  0  0  0  0  0  0  0  0
   -6.1685   18.1895  -32.5325 H   0  0  0  0  0  0  0  0  0  0  0  0
   -7.1772   18.1229  -34.0173 H   0  0  0  0  0  0  0  0  0  0  0  0
   -5.6390   19.0506  -34.0173 H   0  0  0  0  0  0  0  0  0  0  0  0
   -7.9488   23.7357  -30.6450 H   0  0  0  0  0  0  0  0  0  0  0  0
   -1.3455   23.5141  -30.8858 H   0  0  0  0  0  0  0  0  0  0  0  0
   -0.0712   22.1155  -29.2632 H   0  0  0  0  0  0  0  0  0  0  0  0
    2.0594   24.1617  -25.7849 H   0  0  0  0  0  0  0  0  0  0  0  0
    1.3910   23.3684  -27.2869 H   0  0  0  0  0  0  0  0  0  0  0  0
    0.7523   25.9292  -26.2603 H   0  0  0  0  0  0  0  0  0  0  0  0
   -0.0476   25.0044  -27.6147 H   0  0  0  0  0  0  0  0  0  0  0  0
    0.0637   25.3913  -24.1066 H   0  0  0  0  0  0  0  0  0  0  0  0
   -1.6181   24.7802  -23.8714 H   0  0  0  0  0  0  0  0  0  0  0  0
    0.5497   23.2334  -23.4443 H   0  0  0  0  0  0  0  0  0  0  0  0
   -1.0204   22.5875  -24.1095 H   0  0  0  0  0  0  0  0  0  0  0  0
   -3.0226   22.9613  -26.2150 H   0  0  0  0  0  0  0  0  0  0  0  0
   -4.3345   24.3037  -27.8570 H   0  0  0  0  0  0  0  0  0  0  0  0
   -3.8746   23.0883  -32.0380 H   0  0  0  0  0  0  0  0  0  0  0  0
   -4.5735   20.9249  -33.1084 H   0  0  0  0  0  0  0  0  0  0  0  0
  1  2  1  0
  2  3  1  0
  3  4  2  0
  3  5  1  0
  5  6  2  0
  5  7  1  0
  7  8  2  0
  8  9  1  0
  9 10  1  0
 10 11  2  0
 10 12  2  0
 10 13  1  0
 13 14  1  0
 14 15  2  0
 15 16  1  0
 16 17  2  0
 17 18  1  0
 18 19  2  0
 18 20  2  0
 18 21  1  0
 21 22  1  0
 22 23  1  0
 23 24  1  0
 24 25  1  0
 25 26  1  0
 17 27  1  0
 27 28  2  0
  9 29  2  0
 29 30  1  0
 30 31  2  0
 31  2  1  0
 31  7  1  0
 28 14  1  0
 26 21  1  0
  1 32  1  0
  1 33  1  0
  1 34  1  0
  8 35  1  0
 15 36  1  0
 16 37  1  0
 22 38  1  0
 22 39  1  0
 23 40  1  0
 23 41  1  0
 25 42  1  0
 25 43  1  0
 26 44  1  0
 26 45  1  0
 27 46  1  0
 28 47  1  0
 29 48  1  0
 30 49  1  0
M  CHG  1  13  -1
M  END
>  <UniqueID>  (43) 
39

>  <SMILES>  (43) 
CN1C(=O)C(=O)c2cc(S(=O)(=O)[N-]c3ccc(S(=O)(=O)N4CCOCC4)cc3)ccc21

>  <Energy>  (43) 
94.68076034373347

>  <Genealogy>  (43) 
CN1C(=O)C(=O)c2cc(S(=O)(=O)[N-]c3ccc(S(=O)(=O)N4CCOCC4)cc3)ccc21 (protonated)
CN1C(=O)C(=O)c2cc(S(=O)(=O)[N-]c3ccc(S(=O)(=O)N4CCOCC4)cc3)ccc21 (3D coordinates assigned)
CN1C(=O)C(=O)c2cc(S(=O)(=O)[N-]c3ccc(S(=O)(=O)N4CCOCC4)cc3)ccc21 (nonaromatic ring conformer: 94.68076034373347 kcal/mol)

>  <smiles>  (43) 
CN1C(=O)C(=O)c2cc(S(=O)(=O)Nc3ccc(S(=O)(=O)N4CCOCC4)cc3)ccc21

>  <score_type>  (43) 
oracle

>  <origin>  (43) 
adgpu

>  <m_score__min__energy>  (43) 
-11.83

>  <m_primary>  (43) 
energy

$$$$
43:0
     RDKit          3D

 45 47  0  0  0  0  0  0  0  0999 V2000
   -9.0880   19.7390  -31.2770 C   0  0  0  0  0  0  0  0  0  0  0  0
   -8.1150   20.8630  -31.5240 C   0  0  0  0  0  0  0  0  0  0  0  0
   -8.3470   22.0840  -30.8670 C   0  0  0  0  0  0  0  0  0  0  0  0
   -7.4650   23.1500  -31.0080 C   0  0  0  0  0  0  0  0  0  0  0  0
   -6.3110   23.0130  -31.7850 C   0  0  0  0  0  0  0  0  0  0  0  0
   -5.3730   24.0920  -31.9130 N   0  0  0  0  0  0  0  0  0  0  0  0
   -5.0660   25.0530  -30.8920 C   0  0  0  0  0  0  0  0  0  0  0  0
   -6.0040   25.7100  -30.3700 O   0  0  0  0  0  0  0  0  0  0  0  0
   -3.7210   25.2910  -30.4550 N   0  0  0  0  0  0  0  0  0  0  0  0
   -3.0550   24.6040  -29.3860 C   0  0  0  0  0  0  0  0  0  0  0  0
   -3.6610   23.4660  -28.8360 C   0  0  0  0  0  0  0  0  0  0  0  0
   -3.0260   22.7450  -27.8220 C   0  0  0  0  0  0  0  0  0  0  0  0
   -1.7870   23.1690  -27.3350 C   0  0  0  0  0  0  0  0  0  0  0  0
   -1.1900   24.3230  -27.8490 C   0  0  0  0  0  0  0  0  0  0  0  0
   -1.8240   25.0520  -28.8620 C   0  0  0  0  0  0  0  0  0  0  0  0
   -1.2340   26.2230  -29.3230 O   0  0  0  0  0  0  0  0  0  0  0  0
   -6.0690   21.8120  -32.4620 C   0  0  0  0  0  0  0  0  0  0  0  0
   -4.9170   21.7080  -33.2350 O   0  0  0  0  0  0  0  0  0  0  0  0
   -6.9610   20.7220  -32.3480 C   0  0  0  0  0  0  0  0  0  0  0  0
   -6.6000   19.2150  -33.2420 S   0  0  0  0  0  0  0  0  0  0  0  0
   -7.7620   18.2690  -33.0980 O   0  0  0  0  0  0  0  0  0  0  0  0
   -6.4480   19.4870  -34.7100 O   0  0  0  0  0  0  0  0  0  0  0  0
   -5.1400   18.4330  -32.6670 N   0  0  0  0  0  0  0  0  0  0  0  0
   -5.2240   16.9700  -32.8310 C   0  0  0  0  0  0  0  0  0  0  0  0
   -3.8250   16.3380  -32.7470 C   0  0  0  0  0  0  0  0  0  0  0  0
   -2.9200   16.8020  -33.7430 O   0  0  0  0  0  0  0  0  0  0  0  0
   -3.2630   18.0710  -34.2840 C   0  0  0  0  0  0  0  0  0  0  0  0
   -3.9120   19.0120  -33.2530 C   0  0  0  0  0  0  0  0  0  0  0  0
   -9.2135   19.5940  -30.1938 H   0  0  0  0  0  0  0  0  0  0  0  0
  -10.0594   19.9891  -31.7284 H   0  0  0  0  0  0  0  0  0  0  0  0
   -8.7013   18.8134  -31.7284 H   0  0  0  0  0  0  0  0  0  0  0  0
   -9.2384   22.1978  -30.2327 H   0  0  0  0  0  0  0  0  0  0  0  0
   -7.6765   24.1055  -30.5057 H   0  0  0  0  0  0  0  0  0  0  0  0
   -4.6439   23.1383  -29.2056 H   0  0  0  0  0  0  0  0  0  0  0  0
   -3.5012   21.8439  -27.4071 H   0  0  0  0  0  0  0  0  0  0  0  0
   -1.2809   22.5936  -26.5459 H   0  0  0  0  0  0  0  0  0  0  0  0
   -0.2191   24.6596  -27.4565 H   0  0  0  0  0  0  0  0  0  0  0  0
   -5.8584   16.5523  -32.0353 H   0  0  0  0  0  0  0  0  0  0  0  0
   -5.6568   16.7467  -33.8173 H   0  0  0  0  0  0  0  0  0  0  0  0
   -3.4000   16.5684  -31.7589 H   0  0  0  0  0  0  0  0  0  0  0  0
   -3.9530   15.2579  -32.9112 H   0  0  0  0  0  0  0  0  0  0  0  0
   -2.3481   18.5477  -34.6657 H   0  0  0  0  0  0  0  0  0  0  0  0
   -4.0013   17.8989  -35.0811 H   0  0  0  0  0  0  0  0  0  0  0  0
   -3.1905   19.2050  -32.4454 H   0  0  0  0  0  0  0  0  0  0  0  0
   -4.1897   19.9419  -33.7708 H   0  0  0  0  0  0  0  0  0  0  0  0
  1  2  1  0
  2  3  2  0
  3  4  1  0
  4  5  2  0
  5  6  1  0
  6  7  1  0
  7  8  2  0
  7  9  1  0
  9 10  1  0
 10 11  2  0
 11 12  1  0
 12 13  2  0
 13 14  1  0
 14 15  2  0
 15 16  1  0
  5 17  1  0
 17 18  1  0
 17 19  2  0
 19 20  1  0
 20 21  2  0
 20 22  2  0
 20 23  1  0
 23 24  1  0
 24 25  1  0
 25 26  1  0
 26 27  1  0
 27 28  1  0
 19  2  1  0
 28 23  1  0
 15 10  1  0
  1 29  1  0
  1 30  1  0
  1 31  1  0
  3 32  1  0
  4 33  1  0
 11 34  1  0
 12 35  1  0
 13 36  1  0
 14 37  1  0
 24 38  1  0
 24 39  1  0
 25 40  1  0
 25 41  1  0
 27 42  1  0
 27 43  1  0
 28 44  1  0
 28 45  1  0
M  CHG  4   6  -1   9  -1  16  -1  18  -1
M  END
>  <UniqueID>  (44) 
40

>  <SMILES>  (44) 
Cc1ccc([N-]C(=O)[N-]c2ccccc2[O-])c([O-])c1S(=O)(=O)N1CCOCC1

>  <Energy>  (44) 
72.89307224800297

>  <Genealogy>  (44) 
Cc1ccc([N-]C(=O)[N-]c2ccccc2[O-])c([O-])c1S(=O)(=O)N1CCOCC1 (protonated)
Cc1ccc([N-]C(=O)[N-]c2ccccc2[O-])c([O-])c1S(=O)(=O)N1CCOCC1 (3D coordinates assigned)
Cc1ccc([N-]C(=O)[N-]c2ccccc2[O-])c([O-])c1S(=O)(=O)N1CCOCC1 (nonaromatic ring conformer: 72.89307224800297 kcal/mol)

>  <smiles>  (44) 
Cc1ccc(NC(=O)Nc2ccccc2O)c(O)c1S(=O)(=O)N1CCOCC1

>  <score_type>  (44) 
oracle

>  <origin>  (44) 
adgpu

>  <m_score__min__energy>  (44) 
-14.970000000000001

>  <m_primary>  (44) 
energy

$$$$
44:0
     RDKit          3D

 53 55  0  0  0  0  0  0  0  0999 V2000
   -5.6190   25.0350  -28.9650 O   0  0  0  0  0  0  0  0  0  0  0  0
   -5.2120   24.8630  -30.4010 S   0  0  0  0  0  0  0  0  0  0  0  0
   -5.6820   26.0640  -31.1750 O   0  0  0  0  0  0  0  0  0  0  0  0
   -3.4780   24.7470  -30.4910 N   0  0  0  0  0  0  0  0  0  0  0  0
   -2.8760   24.5640  -29.1660 C   0  0  0  0  0  0  0  0  0  0  0  0
   -3.2870   23.2230  -28.5310 C   0  0  0  0  0  0  0  0  0  0  0  0
   -2.2020   22.2160  -28.5880 N   0  0  0  0  0  0  0  0  0  0  0  0
   -2.7540   20.8450  -28.7700 C   0  0  0  0  0  0  0  0  0  0  0  0
   -2.9280   20.1020  -27.4390 C   0  0  0  0  0  0  0  0  0  0  0  0
   -1.5820   19.9320  -26.7160 C   0  0  0  0  0  0  0  0  0  0  0  0
   -0.5660   21.0200  -27.0990 C   0  0  0  0  0  0  0  0  0  0  0  0
   -1.2770   22.3380  -27.4270 C   0  0  0  0  0  0  0  0  0  0  0  0
   -5.9580   23.4000  -31.0340 C   0  0  0  0  0  0  0  0  0  0  0  0
   -5.2930   22.1690  -30.9530 C   0  0  0  0  0  0  0  0  0  0  0  0
   -5.9280   20.9990  -31.3770 C   0  0  0  0  0  0  0  0  0  0  0  0
   -7.2380   21.0450  -31.8730 C   0  0  0  0  0  0  0  0  0  0  0  0
   -8.0610   19.5590  -32.3540 S   0  0  0  0  0  0  0  0  0  0  0  0
   -9.3550   19.9090  -33.0350 O   0  0  0  0  0  0  0  0  0  0  0  0
   -8.3840   18.7510  -31.1280 O   0  0  0  0  0  0  0  0  0  0  0  0
   -7.0780   18.6010  -33.4390 N   0  0  0  0  0  0  0  0  0  0  0  0
   -6.1260   19.4400  -34.2010 C   0  0  0  0  0  0  0  0  0  0  0  0
   -4.6800   19.2730  -33.7000 C   0  0  0  0  0  0  0  0  0  0  0  0
   -4.2180   17.9330  -33.7760 O   0  0  0  0  0  0  0  0  0  0  0  0
   -5.2230   16.9630  -33.5000 C   0  0  0  0  0  0  0  0  0  0  0  0
   -6.4230   17.5030  -32.7050 C   0  0  0  0  0  0  0  0  0  0  0  0
   -7.8970   22.2800  -31.9680 C   0  0  0  0  0  0  0  0  0  0  0  0
   -7.2600   23.4510  -31.5490 C   0  0  0  0  0  0  0  0  0  0  0  0
   -1.7809   24.5897  -29.2660 H   0  0  0  0  0  0  0  0  0  0  0  0
   -3.2329   25.3746  -28.5136 H   0  0  0  0  0  0  0  0  0  0  0  0
   -3.5524   23.3973  -27.4778 H   0  0  0  0  0  0  0  0  0  0  0  0
   -4.1410   22.8291  -29.1016 H   0  0  0  0  0  0  0  0  0  0  0  0
   -3.7347   20.9217  -29.2624 H   0  0  0  0  0  0  0  0  0  0  0  0
   -2.0391   20.2745  -29.3811 H   0  0  0  0  0  0  0  0  0  0  0  0
   -3.6112   20.6752  -26.7950 H   0  0  0  0  0  0  0  0  0  0  0  0
   -3.3386   19.1034  -27.6491 H   0  0  0  0  0  0  0  0  0  0  0  0
   -1.7562   19.9784  -25.6309 H   0  0  0  0  0  0  0  0  0  0  0  0
   -1.1613   18.9613  -27.0172 H   0  0  0  0  0  0  0  0  0  0  0  0
    0.1234   21.1820  -26.2573 H   0  0  0  0  0  0  0  0  0  0  0  0
   -0.0121   20.6873  -27.9892 H   0  0  0  0  0  0  0  0  0  0  0  0
   -1.8560   22.6545  -26.5469 H   0  0  0  0  0  0  0  0  0  0  0  0
   -0.5054   23.0760  -27.6917 H   0  0  0  0  0  0  0  0  0  0  0  0
   -4.2687   22.1239  -30.5546 H   0  0  0  0  0  0  0  0  0  0  0  0
   -5.3973   20.0371  -31.3213 H   0  0  0  0  0  0  0  0  0  0  0  0
   -6.1696   19.1523  -35.2618 H   0  0  0  0  0  0  0  0  0  0  0  0
   -6.4141   20.4924  -34.0616 H   0  0  0  0  0  0  0  0  0  0  0  0
   -4.0214   19.9061  -34.3127 H   0  0  0  0  0  0  0  0  0  0  0  0
   -4.6629   19.5673  -32.6403 H   0  0  0  0  0  0  0  0  0  0  0  0
   -5.5936   16.5690  -34.4578 H   0  0  0  0  0  0  0  0  0  0  0  0
   -4.7520   16.1913  -32.8735 H   0  0  0  0  0  0  0  0  0  0  0  0
   -7.1476   16.6905  -32.5471 H   0  0  0  0  0  0  0  0  0  0  0  0
   -6.0652   17.8859  -31.7379 H   0  0  0  0  0  0  0  0  0  0  0  0
   -8.9184   22.3266  -32.3736 H   0  0  0  0  0  0  0  0  0  0  0  0
   -7.7825   24.4161  -31.6237 H   0  0  0  0  0  0  0  0  0  0  0  0
  1  2  2  0
  2  3  2  0
  2  4  1  0
  4  5  1  0
  5  6  1  0
  6  7  1  0
  7  8  1  0
  8  9  1  0
  9 10  1  0
 10 11  1  0
 11 12  1  0
  2 13  1  0
 13 14  2  0
 14 15  1  0
 15 16  2  0
 16 17  1  0
 17 18  2  0
 17 19  2  0
 17 20  1  0
 20 21  1  0
 21 22  1  0
 22 23  1  0
 23 24  1  0
 24 25  1  0
 16 26  1  0
 26 27  2  0
 12  7  1  0
 27 13  1  0
 25 20  1  0
  5 28  1  0
  5 29  1  0
  6 30  1  0
  6 31  1  0
  8 32  1  0
  8 33  1  0
  9 34  1  0
  9 35  1  0
 10 36  1  0
 10 37  1  0
 11 38  1  0
 11 39  1  0
 12 40  1  0
 12 41  1  0
 14 42  1  0
 15 43  1  0
 21 44  1  0
 21 45  1  0
 22 46  1  0
 22 47  1  0
 24 48  1  0
 24 49  1  0
 25 50  1  0
 25 51  1  0
 26 52  1  0
 27 53  1  0
M  CHG  1   4  -1
M  END
>  <UniqueID>  (45) 
41

>  <SMILES>  (45) 
O=S(=O)([N-]CCN1CCCCC1)c1ccc(S(=O)(=O)N2CCOCC2)cc1

>  <Energy>  (45) 
66.86012725765228

>  <Genealogy>  (45) 
O=S(=O)([N-]CCN1CCCCC1)c1ccc(S(=O)(=O)N2CCOCC2)cc1 (protonated)
O=S(=O)([N-]CCN1CCCCC1)c1ccc(S(=O)(=O)N2CCOCC2)cc1 (3D coordinates assigned)
O=S(=O)([N-]CCN1CCCCC1)c1ccc(S(=O)(=O)N2CCOCC2)cc1 (nonaromatic ring conformer: 66.86012725765228 kcal/mol)

>  <smiles>  (45) 
O=S(=O)(NCCN1CCCCC1)c1ccc(S(=O)(=O)N2CCOCC2)cc1

>  <score_type>  (45) 
oracle

>  <origin>  (45) 
adgpu

>  <m_score__min__energy>  (45) 
-10.949999999999999

>  <m_primary>  (45) 
energy

$$$$
45:0
     RDKit          3D

 45 48  0  0  0  0  0  0  0  0999 V2000
   -0.3990   20.0540  -33.9820 C   0  0  0  0  0  0  0  0  0  0  0  0
   -1.6850   19.2760  -33.9920 C   0  0  0  0  0  0  0  0  0  0  0  0
   -1.9030   18.0300  -34.5620 C   0  0  0  0  0  0  0  0  0  0  0  0
   -0.9720   17.2200  -35.3680 C   0  0  0  0  0  0  0  0  0  0  0  0
   -1.3400   15.9340  -35.8680 N   0  0  0  0  0  0  0  0  0  0  0  0
    0.1920   17.6530  -35.5810 O   0  0  0  0  0  0  0  0  0  0  0  0
   -3.1410   17.6020  -34.2400 N   0  0  0  0  0  0  0  0  0  0  0  0
   -3.6720   18.6050  -33.5080 C   0  0  0  0  0  0  0  0  0  0  0  0
   -5.0540   18.5480  -32.9830 C   0  0  0  0  0  0  0  0  0  0  0  0
   -5.4490   17.5350  -32.0740 C   0  0  0  0  0  0  0  0  0  0  0  0
   -6.7620   17.4960  -31.5770 C   0  0  0  0  0  0  0  0  0  0  0  0
   -7.6570   18.4820  -31.9900 C   0  0  0  0  0  0  0  0  0  0  0  0
   -7.2760   19.4700  -32.8470 C   0  0  0  0  0  0  0  0  0  0  0  0
   -5.9830   19.5410  -33.3610 C   0  0  0  0  0  0  0  0  0  0  0  0
   -8.3140   20.3370  -33.1090 O   0  0  0  0  0  0  0  0  0  0  0  0
   -9.4840   19.9340  -32.3960 C   0  0  0  0  0  0  0  0  0  0  0  0
   -9.0830   18.6620  -31.6080 C   0  0  0  0  0  0  0  0  0  0  0  0
   -2.8110   19.6410  -33.3410 N   0  0  0  0  0  0  0  0  0  0  0  0
   -2.9930   20.8120  -32.5270 C   0  0  0  0  0  0  0  0  0  0  0  0
   -4.0590   21.6880  -32.7770 C   0  0  0  0  0  0  0  0  0  0  0  0
   -4.2430   22.8210  -31.9790 C   0  0  0  0  0  0  0  0  0  0  0  0
   -3.3640   23.0870  -30.9200 C   0  0  0  0  0  0  0  0  0  0  0  0
   -3.5910   24.5210  -29.9230 S   0  0  0  0  0  0  0  0  0  0  0  0
   -2.0610   25.0600  -29.3310 N   0  0  0  0  0  0  0  0  0  0  0  0
   -4.4900   24.1980  -28.7630 O   0  0  0  0  0  0  0  0  0  0  0  0
   -4.2300   25.6110  -30.7370 O   0  0  0  0  0  0  0  0  0  0  0  0
   -2.2930   22.2190  -30.6750 C   0  0  0  0  0  0  0  0  0  0  0  0
   -2.1080   21.0870  -31.4730 C   0  0  0  0  0  0  0  0  0  0  0  0
   -0.0912   20.2402  -32.9425 H   0  0  0  0  0  0  0  0  0  0  0  0
    0.3826   19.4771  -34.4981 H   0  0  0  0  0  0  0  0  0  0  0  0
   -0.5472   21.0140  -34.4981 H   0  0  0  0  0  0  0  0  0  0  0  0
   -0.6840   15.4070  -36.4870 H   0  0  0  0  0  0  0  0  0  0  0  0
   -2.2070   15.4530  -35.5430 H   0  0  0  0  0  0  0  0  0  0  0  0
   -4.7218   16.7736  -31.7554 H   0  0  0  0  0  0  0  0  0  0  0  0
   -7.0767   16.7065  -30.8787 H   0  0  0  0  0  0  0  0  0  0  0  0
   -5.6930   20.3519  -34.0453 H   0  0  0  0  0  0  0  0  0  0  0  0
   -9.8033   20.7278  -31.7046 H   0  0  0  0  0  0  0  0  0  0  0  0
  -10.3253   19.7389  -33.0773 H   0  0  0  0  0  0  0  0  0  0  0  0
   -9.1875   18.8166  -30.5240 H   0  0  0  0  0  0  0  0  0  0  0  0
   -9.7115   17.7886  -31.8365 H   0  0  0  0  0  0  0  0  0  0  0  0
   -4.7537   21.4827  -33.6048 H   0  0  0  0  0  0  0  0  0  0  0  0
   -5.0797   23.5055  -32.1826 H   0  0  0  0  0  0  0  0  0  0  0  0
   -1.6240   25.6300  -30.0910 H   0  0  0  0  0  0  0  0  0  0  0  0
   -1.5948   22.4290  -29.8514 H   0  0  0  0  0  0  0  0  0  0  0  0
   -1.2652   20.4086  -31.2743 H   0  0  0  0  0  0  0  0  0  0  0  0
  1  2  1  0
  2  3  2  0
  3  4  1  0
  4  5  1  0
  4  6  2  0
  3  7  1  0
  7  8  2  0
  8  9  1  0
  9 10  2  0
 10 11  1  0
 11 12  2  0
 12 13  1  0
 13 14  2  0
 13 15  1  0
 15 16  1  0
 16 17  1  0
  8 18  1  0
 18 19  1  0
 19 20  2  0
 20 21  1  0
 21 22  2  0
 22 23  1  0
 23 24  1  0
 23 25  2  0
 23 26  2  0
 22 27  1  0
 27 28  2  0
 18  2  1  0
 28 19  1  0
 14  9  1  0
 17 12  1  0
  1 29  1  0
  1 30  1  0
  1 31  1  0
  5 32  1  0
  5 33  1  0
 10 34  1  0
 11 35  1  0
 14 36  1  0
 16 37  1  0
 16 38  1  0
 17 39  1  0
 17 40  1  0
 20 41  1  0
 21 42  1  0
 24 43  1  0
 27 44  1  0
 28 45  1  0
M  CHG  1  24  -1
M  END
>  <UniqueID>  (46) 
42

>  <SMILES>  (46) 
Cc1c(C(N)=O)nc(-c2ccc3c(c2)OCC3)n1-c1ccc(S([NH-])(=O)=O)cc1

>  <Energy>  (46) 
104.32518541679379

>  <Genealogy>  (46) 
Cc1c(C(N)=O)nc(-c2ccc3c(c2)OCC3)n1-c1ccc(S([NH-])(=O)=O)cc1 (protonated)
Cc1c(C(N)=O)nc(-c2ccc3c(c2)OCC3)n1-c1ccc(S([NH-])(=O)=O)cc1 (3D coordinates assigned)
Cc1c(C(N)=O)nc(-c2ccc3c(c2)OCC3)n1-c1ccc(S([NH-])(=O)=O)cc1 (nonaromatic ring conformer: 104.32518541679379 kcal/mol)

>  <smiles>  (46) 
Cc1c(C(N)=O)nc(-c2ccc3c(c2)OCC3)n1-c1ccc(S(N)(=O)=O)cc1

>  <score_type>  (46) 
oracle

>  <origin>  (46) 
adgpu

>  <m_score__min__energy>  (46) 
-11.17

>  <m_primary>  (46) 
energy

$$$$
46:0
     RDKit          3D

 53 57  0  0  0  0  0  0  0  0999 V2000
   -5.7120   25.1460  -31.5690 O   0  0  0  0  0  0  0  0  0  0  0  0
   -6.2270   23.9890  -30.7610 S   0  0  0  0  0  0  0  0  0  0  0  0
   -7.6870   24.2120  -30.4760 O   0  0  0  0  0  0  0  0  0  0  0  0
   -5.3560   23.9010  -29.2630 N   0  0  0  0  0  0  0  0  0  0  0  0
   -4.0320   23.3470  -29.1510 C   0  0  0  0  0  0  0  0  0  0  0  0
   -3.8150   22.1070  -28.5110 C   0  0  0  0  0  0  0  0  0  0  0  0
   -2.5200   21.6020  -28.4500 C   0  0  0  0  0  0  0  0  0  0  0  0
   -1.4440   22.2880  -28.9730 C   0  0  0  0  0  0  0  0  0  0  0  0
   -1.6220   23.5240  -29.5880 C   0  0  0  0  0  0  0  0  0  0  0  0
   -2.9210   24.0570  -29.6760 C   0  0  0  0  0  0  0  0  0  0  0  0
   -3.1010   25.2910  -30.2890 O   0  0  0  0  0  0  0  0  0  0  0  0
   -0.1580   21.5400  -28.7650 C   0  0  0  0  0  0  0  0  0  0  0  0
   -0.6630   20.3230  -28.0430 C   0  0  0  0  0  0  0  0  0  0  0  0
    0.0780   19.2390  -27.5740 C   0  0  0  0  0  0  0  0  0  0  0  0
   -0.5970   18.1900  -26.9260 C   0  0  0  0  0  0  0  0  0  0  0  0
   -1.9950   18.2420  -26.7570 C   0  0  0  0  0  0  0  0  0  0  0  0
   -2.7270   19.3420  -27.2330 C   0  0  0  0  0  0  0  0  0  0  0  0
   -2.0320   20.3700  -27.8680 C   0  0  0  0  0  0  0  0  0  0  0  0
   -5.9820   22.5040  -31.6780 C   0  0  0  0  0  0  0  0  0  0  0  0
   -7.0850   21.8400  -32.2270 C   0  0  0  0  0  0  0  0  0  0  0  0
   -6.9010   20.6890  -32.9980 C   0  0  0  0  0  0  0  0  0  0  0  0
   -5.6090   20.1970  -33.2350 C   0  0  0  0  0  0  0  0  0  0  0  0
   -5.3730   18.7460  -34.2140 S   0  0  0  0  0  0  0  0  0  0  0  0
   -6.0480   18.9340  -35.5450 O   0  0  0  0  0  0  0  0  0  0  0  0
   -3.9020   18.5560  -34.4650 O   0  0  0  0  0  0  0  0  0  0  0  0
   -6.0240   17.3170  -33.4430 N   0  0  0  0  0  0  0  0  0  0  0  0
   -7.4390   17.5000  -33.1010 C   0  0  0  0  0  0  0  0  0  0  0  0
   -7.5230   17.9240  -31.6430 C   0  0  0  0  0  0  0  0  0  0  0  0
   -6.1970   17.5230  -31.0270 C   0  0  0  0  0  0  0  0  0  0  0  0
   -5.3320   17.0280  -32.1790 C   0  0  0  0  0  0  0  0  0  0  0  0
   -4.5040   20.8690  -32.6930 C   0  0  0  0  0  0  0  0  0  0  0  0
   -4.6900   22.0110  -31.9100 C   0  0  0  0  0  0  0  0  0  0  0  0
   -5.7740   24.4000  -28.4480 H   0  0  0  0  0  0  0  0  0  0  0  0
   -4.6545   21.5505  -28.0688 H   0  0  0  0  0  0  0  0  0  0  0  0
   -0.7622   24.0742  -29.9979 H   0  0  0  0  0  0  0  0  0  0  0  0
    0.3179   21.2767  -29.7211 H   0  0  0  0  0  0  0  0  0  0  0  0
    0.6181   22.1035  -28.2264 H   0  0  0  0  0  0  0  0  0  0  0  0
    1.1692   19.2054  -27.7084 H   0  0  0  0  0  0  0  0  0  0  0  0
   -0.0316   17.3249  -26.5493 H   0  0  0  0  0  0  0  0  0  0  0  0
   -2.5158   17.4166  -26.2495 H   0  0  0  0  0  0  0  0  0  0  0  0
   -3.8188   19.3910  -27.1082 H   0  0  0  0  0  0  0  0  0  0  0  0
   -8.1001   22.2254  -32.0510 H   0  0  0  0  0  0  0  0  0  0  0  0
   -7.7723   20.1671  -33.4204 H   0  0  0  0  0  0  0  0  0  0  0  0
   -7.8795   18.2784  -33.7414 H   0  0  0  0  0  0  0  0  0  0  0  0
   -7.9926   16.5624  -33.2571 H   0  0  0  0  0  0  0  0  0  0  0  0
   -7.6689   19.0116  -31.5668 H   0  0  0  0  0  0  0  0  0  0  0  0
   -8.3718   17.4497  -31.1285 H   0  0  0  0  0  0  0  0  0  0  0  0
   -5.7249   18.3884  -30.5389 H   0  0  0  0  0  0  0  0  0  0  0  0
   -6.3278   16.7468  -30.2587 H   0  0  0  0  0  0  0  0  0  0  0  0
   -4.3609   17.5444  -32.1617 H   0  0  0  0  0  0  0  0  0  0  0  0
   -5.1617   15.9455  -32.0828 H   0  0  0  0  0  0  0  0  0  0  0  0
   -3.4872   20.4957  -32.8850 H   0  0  0  0  0  0  0  0  0  0  0  0
   -3.8205   22.5248  -31.4743 H   0  0  0  0  0  0  0  0  0  0  0  0
  1  2  2  0
  2  3  2  0
  2  4  1  0
  4  5  1  0
  5  6  2  0
  6  7  1  0
  7  8  2  0
  8  9  1  0
  9 10  2  0
 10 11  1  0
  8 12  1  0
 12 13  1  0
 13 14  2  0
 14 15  1  0
 15 16  2  0
 16 17  1  0
 17 18  2  0
  2 19  1  0
 19 20  2  0
 20 21  1  0
 21 22  2  0
 22 23  1  0
 23 24  2  0
 23 25  2  0
 23 26  1  0
 26 27  1  0
 27 28  1  0
 28 29  1  0
 29 30  1  0
 22 31  1  0
 31 32  2  0
 10  5  1  0
 18 13  1  0
 32 19  1  0
 18  7  1  0
 30 26  1  0
  4 33  1  0
  6 34  1  0
  9 35  1  0
 12 36  1  0
 12 37  1  0
 14 38  1  0
 15 39  1  0
 16 40  1  0
 17 41  1  0
 20 42  1  0
 21 43  1  0
 27 44  1  0
 27 45  1  0
 28 46  1  0
 28 47  1  0
 29 48  1  0
 29 49  1  0
 30 50  1  0
 30 51  1  0
 31 52  1  0
 32 53  1  0
M  CHG  1  11  -1
M  END
>  <UniqueID>  (47) 
43

>  <SMILES>  (47) 
O=S(=O)(Nc1cc2c(cc1[O-])Cc1ccccc1-2)c1ccc(S(=O)(=O)N2CCCC2)cc1

>  <Energy>  (47) 
83.19330502275132

>  <Genealogy>  (47) 
O=S(=O)(Nc1cc2c(cc1[O-])Cc1ccccc1-2)c1ccc(S(=O)(=O)N2CCCC2)cc1 (protonated)
O=S(=O)(Nc1cc2c(cc1[O-])Cc1ccccc1-2)c1ccc(S(=O)(=O)N2CCCC2)cc1 (3D coordinates assigned)
O=S(=O)(Nc1cc2c(cc1[O-])Cc1ccccc1-2)c1ccc(S(=O)(=O)N2CCCC2)cc1 (nonaromatic ring conformer: 83.19330502275132 kcal/mol)

>  <smiles>  (47) 
O=S(=O)(Nc1cc2c(cc1O)Cc1ccccc1-2)c1ccc(S(=O)(=O)N2CCCC2)cc1

>  <score_type>  (47) 
oracle

>  <origin>  (47) 
adgpu

>  <m_score__min__energy>  (47) 
-15.09

>  <m_primary>  (47) 
energy

$$$$
47:0
     RDKit          3D

 55 57  0  0  0  0  0  0  0  0999 V2000
   -0.0060   23.0980  -28.1540 C   0  0  0  0  0  0  0  0  0  0  0  0
   -1.1820   22.8940  -27.2470 C   0  0  0  0  0  0  0  0  0  0  0  0
   -0.9670   22.7610  -26.0110 O   0  0  0  0  0  0  0  0  0  0  0  0
   -2.5360   22.8570  -27.7530 N   0  0  0  0  0  0  0  0  0  0  0  0
   -3.2790   24.1190  -27.9250 C   0  0  0  0  0  0  0  0  0  0  0  0
   -2.7070   24.9330  -29.0450 C   0  0  0  0  0  0  0  0  0  0  0  0
   -1.5790   25.4800  -28.9180 O   0  0  0  0  0  0  0  0  0  0  0  0
   -3.4990   25.1630  -30.2150 N   0  0  0  0  0  0  0  0  0  0  0  0
   -4.6390   24.3930  -30.6150 C   0  0  0  0  0  0  0  0  0  0  0  0
   -4.4830   23.1180  -31.1880 C   0  0  0  0  0  0  0  0  0  0  0  0
   -5.6030   22.3290  -31.4800 C   0  0  0  0  0  0  0  0  0  0  0  0
   -5.3800   20.7100  -32.1410 S   0  0  0  0  0  0  0  0  0  0  0  0
   -3.9640   20.2780  -31.8800 O   0  0  0  0  0  0  0  0  0  0  0  0
   -5.6230   20.7210  -33.6260 O   0  0  0  0  0  0  0  0  0  0  0  0
   -6.4870   19.5920  -31.3770 N   0  0  0  0  0  0  0  0  0  0  0  0
   -7.8680   19.8620  -31.8220 C   0  0  0  0  0  0  0  0  0  0  0  0
   -8.7560   18.6220  -31.6260 C   0  0  0  0  0  0  0  0  0  0  0  0
   -8.3200   17.4760  -32.3460 O   0  0  0  0  0  0  0  0  0  0  0  0
   -6.9370   17.4930  -32.6710 C   0  0  0  0  0  0  0  0  0  0  0  0
   -6.0690   18.1910  -31.6060 C   0  0  0  0  0  0  0  0  0  0  0  0
   -6.8880   22.8210  -31.2150 C   0  0  0  0  0  0  0  0  0  0  0  0
   -7.0500   24.0890  -30.6470 C   0  0  0  0  0  0  0  0  0  0  0  0
   -5.9340   24.8710  -30.3320 C   0  0  0  0  0  0  0  0  0  0  0  0
   -6.1340   26.1210  -29.7420 O   0  0  0  0  0  0  0  0  0  0  0  0
   -3.1340   21.6080  -28.2570 C   0  0  0  0  0  0  0  0  0  0  0  0
   -2.3150   20.4250  -27.8470 C   0  0  0  0  0  0  0  0  0  0  0  0
   -2.6170   19.5440  -26.8150 C   0  0  0  0  0  0  0  0  0  0  0  0
   -1.7000   18.4920  -26.7050 C   0  0  0  0  0  0  0  0  0  0  0  0
   -0.6820   18.5530  -27.6480 C   0  0  0  0  0  0  0  0  0  0  0  0
    0.4100   17.5520  -27.8100 C   0  0  0  0  0  0  0  0  0  0  0  0
   -0.9240   19.8960  -28.6330 S   0  0  0  0  0  0  0  0  0  0  0  0
    0.8999   23.2551  -27.5501 H   0  0  0  0  0  0  0  0  0  0  0  0
    0.1260   22.2093  -28.7887 H   0  0  0  0  0  0  0  0  0  0  0  0
   -0.1810   23.9792  -28.7887 H   0  0  0  0  0  0  0  0  0  0  0  0
   -4.3311   23.8889  -28.1490 H   0  0  0  0  0  0  0  0  0  0  0  0
   -3.2002   24.7005  -26.9946 H   0  0  0  0  0  0  0  0  0  0  0  0
   -3.4746   22.7378  -31.4083 H   0  0  0  0  0  0  0  0  0  0  0  0
   -8.2794   20.6968  -31.2355 H   0  0  0  0  0  0  0  0  0  0  0  0
   -7.8505   20.1182  -32.8916 H   0  0  0  0  0  0  0  0  0  0  0  0
   -8.7693   18.3725  -30.5548 H   0  0  0  0  0  0  0  0  0  0  0  0
   -9.7521   18.8806  -32.0144 H   0  0  0  0  0  0  0  0  0  0  0  0
   -6.5907   16.4544  -32.7778 H   0  0  0  0  0  0  0  0  0  0  0  0
   -6.8288   18.0641  -33.6049 H   0  0  0  0  0  0  0  0  0  0  0  0
   -6.1543   17.6364  -30.6599 H   0  0  0  0  0  0  0  0  0  0  0  0
   -5.0310   18.2027  -31.9700 H   0  0  0  0  0  0  0  0  0  0  0  0
   -7.7705   22.2093  -31.4539 H   0  0  0  0  0  0  0  0  0  0  0  0
   -8.0611   24.4734  -30.4469 H   0  0  0  0  0  0  0  0  0  0  0  0
   -5.4240   26.5760  -29.1820 H   0  0  0  0  0  0  0  0  0  0  0  0
   -4.1495   21.5032  -27.8475 H   0  0  0  0  0  0  0  0  0  0  0  0
   -3.1673   21.6507  -29.3557 H   0  0  0  0  0  0  0  0  0  0  0  0
   -3.4874   19.6615  -26.1527 H   0  0  0  0  0  0  0  0  0  0  0  0
   -1.7778   17.6974  -25.9483 H   0  0  0  0  0  0  0  0  0  0  0  0
    0.7618   17.2295  -26.8189 H   0  0  0  0  0  0  0  0  0  0  0  0
    0.0302   16.6817  -28.3653 H   0  0  0  0  0  0  0  0  0  0  0  0
    1.2440   18.0059  -28.3653 H   0  0  0  0  0  0  0  0  0  0  0  0
  1  2  1  0
  2  3  2  0
  2  4  1  0
  4  5  1  0
  5  6  1  0
  6  7  2  0
  6  8  1  0
  8  9  1  0
  9 10  2  0
 10 11  1  0
 11 12  1  0
 12 13  2  0
 12 14  2  0
 12 15  1  0
 15 16  1  0
 16 17  1  0
 17 18  1  0
 18 19  1  0
 19 20  1  0
 11 21  2  0
 21 22  1  0
 22 23  2  0
 23 24  1  0
  4 25  1  0
 25 26  1  0
 26 27  2  0
 27 28  1  0
 28 29  2  0
 29 30  1  0
 29 31  1  0
 23  9  1  0
 31 26  1  0
 20 15  1  0
  1 32  1  0
  1 33  1  0
  1 34  1  0
  5 35  1  0
  5 36  1  0
 10 37  1  0
 16 38  1  0
 16 39  1  0
 17 40  1  0
 17 41  1  0
 19 42  1  0
 19 43  1  0
 20 44  1  0
 20 45  1  0
 21 46  1  0
 22 47  1  0
 24 48  1  0
 25 49  1  0
 25 50  1  0
 27 51  1  0
 28 52  1  0
 30 53  1  0
 30 54  1  0
 30 55  1  0
M  CHG  1   8  -1
M  END
>  <UniqueID>  (48) 
44

>  <SMILES>  (48) 
CC(=O)N(CC(=O)[N-]c1cc(S(=O)(=O)N2CCOCC2)ccc1O)Cc1ccc(C)s1

>  <Energy>  (48) 
93.54951663059049

>  <Genealogy>  (48) 
CC(=O)N(CC(=O)[N-]c1cc(S(=O)(=O)N2CCOCC2)ccc1O)Cc1ccc(C)s1 (protonated)
CC(=O)N(CC(=O)[N-]c1cc(S(=O)(=O)N2CCOCC2)ccc1O)Cc1ccc(C)s1 (3D coordinates assigned)
CC(=O)N(CC(=O)[N-]c1cc(S(=O)(=O)N2CCOCC2)ccc1O)Cc1ccc(C)s1 (nonaromatic ring conformer: 93.54951663059049 kcal/mol)

>  <smiles>  (48) 
CC(=O)N(CC(=O)Nc1cc(S(=O)(=O)N2CCOCC2)ccc1O)Cc1ccc(C)s1

>  <score_type>  (48) 
oracle

>  <origin>  (48) 
adgpu

>  <m_score__min__energy>  (48) 
-11.42

>  <m_primary>  (48) 
energy

$$$$
48:0
     RDKit          3D

 59 62  0  0  0  0  0  0  0  0999 V2000
   -1.3070   23.1180  -27.3870 O   0  0  0  0  0  0  0  0  0  0  0  0
   -1.1760   23.6080  -28.8080 S   0  0  0  0  0  0  0  0  0  0  0  0
    0.1040   24.3910  -28.9350 O   0  0  0  0  0  0  0  0  0  0  0  0
   -2.5120   24.6260  -29.2730 N   0  0  0  0  0  0  0  0  0  0  0  0
   -3.7470   24.2530  -28.5880 C   0  0  0  0  0  0  0  0  0  0  0  0
   -4.8390   23.9360  -29.5870 C   0  0  0  0  0  0  0  0  0  0  0  0
   -5.7790   22.9300  -29.3020 C   0  0  0  0  0  0  0  0  0  0  0  0
   -6.7920   22.6230  -30.2160 C   0  0  0  0  0  0  0  0  0  0  0  0
   -6.8790   23.3240  -31.4200 C   0  0  0  0  0  0  0  0  0  0  0  0
   -5.9640   24.3450  -31.7080 C   0  0  0  0  0  0  0  0  0  0  0  0
   -4.9460   24.6580  -30.7950 C   0  0  0  0  0  0  0  0  0  0  0  0
   -4.0440   25.6810  -31.0810 O   0  0  0  0  0  0  0  0  0  0  0  0
   -1.1540   22.2210  -29.8890 C   0  0  0  0  0  0  0  0  0  0  0  0
   -0.1360   21.2660  -29.8090 C   0  0  0  0  0  0  0  0  0  0  0  0
   -0.0880   20.2130  -30.7240 C   0  0  0  0  0  0  0  0  0  0  0  0
   -1.0510   20.1070  -31.7370 C   0  0  0  0  0  0  0  0  0  0  0  0
   -0.9200   19.0640  -32.7160 N   0  0  0  0  0  0  0  0  0  0  0  0
   -1.6660   17.8150  -32.5750 C   0  0  0  0  0  0  0  0  0  0  0  0
   -2.2410   17.4240  -33.9440 C   0  0  0  0  0  0  0  0  0  0  0  0
   -1.2980   17.3730  -35.0100 O   0  0  0  0  0  0  0  0  0  0  0  0
   -0.0430   17.9770  -34.7290 C   0  0  0  0  0  0  0  0  0  0  0  0
   -0.1570   19.2890  -33.9430 C   0  0  0  0  0  0  0  0  0  0  0  0
   -2.0940   21.0550  -31.8080 C   0  0  0  0  0  0  0  0  0  0  0  0
   -3.3540   20.9610  -33.0470 S   0  0  0  0  0  0  0  0  0  0  0  0
   -4.0810   22.2770  -33.1210 O   0  0  0  0  0  0  0  0  0  0  0  0
   -2.7260   20.6960  -34.3900 O   0  0  0  0  0  0  0  0  0  0  0  0
   -4.4650   19.6780  -32.6390 N   0  0  0  0  0  0  0  0  0  0  0  0
   -5.5700   20.2130  -31.8270 C   0  0  0  0  0  0  0  0  0  0  0  0
   -6.6600   19.1430  -31.6140 C   0  0  0  0  0  0  0  0  0  0  0  0
   -6.2550   17.8870  -32.1190 O   0  0  0  0  0  0  0  0  0  0  0  0
   -6.0360   17.9780  -33.5150 C   0  0  0  0  0  0  0  0  0  0  0  0
   -4.9870   19.0550  -33.8640 C   0  0  0  0  0  0  0  0  0  0  0  0
   -2.1300   22.1090  -30.8830 C   0  0  0  0  0  0  0  0  0  0  0  0
   -3.5601   23.3665  -27.9641 H   0  0  0  0  0  0  0  0  0  0  0  0
   -4.0737   25.0976  -27.9636 H   0  0  0  0  0  0  0  0  0  0  0  0
   -5.7171   22.3795  -28.3517 H   0  0  0  0  0  0  0  0  0  0  0  0
   -7.5192   21.8302  -29.9865 H   0  0  0  0  0  0  0  0  0  0  0  0
   -7.6681   23.0741  -32.1445 H   0  0  0  0  0  0  0  0  0  0  0  0
   -6.0440   24.9028  -32.6527 H   0  0  0  0  0  0  0  0  0  0  0  0
   -3.0980   25.6720  -30.7230 H   0  0  0  0  0  0  0  0  0  0  0  0
    0.6293   21.3447  -29.0228 H   0  0  0  0  0  0  0  0  0  0  0  0
    0.7113   19.4609  -30.6496 H   0  0  0  0  0  0  0  0  0  0  0  0
   -0.9939   17.0216  -32.2162 H   0  0  0  0  0  0  0  0  0  0  0  0
   -2.4833   17.9479  -31.8508 H   0  0  0  0  0  0  0  0  0  0  0  0
   -2.6991   16.4285  -33.8481 H   0  0  0  0  0  0  0  0  0  0  0  0
   -2.9568   18.2159  -34.2098 H   0  0  0  0  0  0  0  0  0  0  0  0
    0.5596   17.2698  -34.1402 H   0  0  0  0  0  0  0  0  0  0  0  0
    0.4230   18.2187  -35.6956 H   0  0  0  0  0  0  0  0  0  0  0  0
    0.8498   19.6501  -33.6864 H   0  0  0  0  0  0  0  0  0  0  0  0
   -0.6726   20.0396  -34.5600 H   0  0  0  0  0  0  0  0  0  0  0  0
   -5.1787   20.5291  -30.8488 H   0  0  0  0  0  0  0  0  0  0  0  0
   -6.0144   21.0690  -32.3560 H   0  0  0  0  0  0  0  0  0  0  0  0
   -6.8621   19.0474  -30.5370 H   0  0  0  0  0  0  0  0  0  0  0  0
   -7.5648   19.4581  -32.1544 H   0  0  0  0  0  0  0  0  0  0  0  0
   -5.6819   17.0040  -33.8837 H   0  0  0  0  0  0  0  0  0  0  0  0
   -6.9863   18.2607  -33.9914 H   0  0  0  0  0  0  0  0  0  0  0  0
   -4.1574   18.5878  -34.4149 H   0  0  0  0  0  0  0  0  0  0  0  0
   -5.4632   19.8295  -34.4832 H   0  0  0  0  0  0  0  0  0  0  0  0
   -2.9356   22.8558  -30.9407 H   0  0  0  0  0  0  0  0  0  0  0  0
  1  2  2  0
  2  3  2  0
  2  4  1  0
  4  5  1  0
  5  6  1  0
  6  7  2  0
  7  8  1  0
  8  9  2  0
  9 10  1  0
 10 11  2  0
 11 12  1  0
  2 13  1  0
 13 14  2  0
 14 15  1  0
 15 16  2  0
 16 17  1  0
 17 18  1  0
 18 19  1  0
 19 20  1  0
 20 21  1  0
 21 22  1  0
 16 23  1  0
 23 24  1  0
 24 25  2  0
 24 26  2  0
 24 27  1  0
 27 28  1  0
 28 29  1  0
 29 30  1  0
 30 31  1  0
 31 32  1  0
 23 33  2  0
 11  6  1  0
 33 13  1  0
 22 17  1  0
 32 27  1  0
  5 34  1  0
  5 35  1  0
  7 36  1  0
  8 37  1  0
  9 38  1  0
 10 39  1  0
 12 40  1  0
 14 41  1  0
 15 42  1  0
 18 43  1  0
 18 44  1  0
 19 45  1  0
 19 46  1  0
 21 47  1  0
 21 48  1  0
 22 49  1  0
 22 50  1  0
 28 51  1  0
 28 52  1  0
 29 53  1  0
 29 54  1  0
 31 55  1  0
 31 56  1  0
 32 57  1  0
 32 58  1  0
 33 59  1  0
M  CHG  1   4  -1
M  END
>  <UniqueID>  (49) 
45

>  <SMILES>  (49) 
O=S(=O)([N-]Cc1ccccc1O)c1ccc(N2CCOCC2)c(S(=O)(=O)N2CCOCC2)c1

>  <Energy>  (49) 
79.60256989065599

>  <Genealogy>  (49) 
O=S(=O)([N-]Cc1ccccc1O)c1ccc(N2CCOCC2)c(S(=O)(=O)N2CCOCC2)c1 (protonated)
O=S(=O)([N-]Cc1ccccc1O)c1ccc(N2CCOCC2)c(S(=O)(=O)N2CCOCC2)c1 (3D coordinates assigned)
O=S(=O)([N-]Cc1ccccc1O)c1ccc(N2CCOCC2)c(S(=O)(=O)N2CCOCC2)c1 (nonaromatic ring conformer: 79.60256989065599 kcal/mol)

>  <smiles>  (49) 
O=S(=O)(NCc1ccccc1O)c1ccc(N2CCOCC2)c(S(=O)(=O)N2CCOCC2)c1

>  <score_type>  (49) 
oracle

>  <origin>  (49) 
adgpu

>  <m_score__min__energy>  (49) 
-11.199999999999999

>  <m_primary>  (49) 
energy

$$$$
