0:0
     RDKit          3D

 30 31  0  0  0  0  0  0  0  0999 V2000
   -7.5060   18.5370  -31.6320 C   0  0  0  0  0  0  0  0  0  0  0  0
   -7.5330   20.2610  -32.0800 S   0  0  0  0  0  0  0  0  0  0  0  0
   -7.6450   20.4160  -33.5710 O   0  0  0  0  0  0  0  0  0  0  0  0
   -8.7280   20.9040  -31.4380 O   0  0  0  0  0  0  0  0  0  0  0  0
   -6.1010   21.0560  -31.5010 N   0  0  0  0  0  0  0  0  0  0  0  0
   -4.8940   20.9830  -31.9890 C   0  0  0  0  0  0  0  0  0  0  0  0
   -4.5890   20.1830  -33.1080 C   0  0  0  0  0  0  0  0  0  0  0  0
   -3.2740   20.0980  -33.5640 C   0  0  0  0  0  0  0  0  0  0  0  0
   -2.2870   20.7790  -32.9320 N   0  0  0  0  0  0  0  0  0  0  0  0
   -2.5410   21.5670  -31.8560 C   0  0  0  0  0  0  0  0  0  0  0  0
   -3.8480   21.7110  -31.3680 C   0  0  0  0  0  0  0  0  0  0  0  0
   -4.0660   22.5670  -30.2290 N   0  0  0  0  0  0  0  0  0  0  0  0
   -3.0190   23.1500  -29.4350 C   0  0  0  0  0  0  0  0  0  0  0  0
   -2.2760   22.3800  -28.5140 C   0  0  0  0  0  0  0  0  0  0  0  0
   -2.6680   20.5330  -28.1800 Br  0  0  0  0  0  0  0  0  0  0  0  0
   -1.2500   22.9780  -27.7740 C   0  0  0  0  0  0  0  0  0  0  0  0
   -0.9670   24.3370  -27.9300 C   0  0  0  0  0  0  0  0  0  0  0  0
   -1.7140   25.1100  -28.8210 C   0  0  0  0  0  0  0  0  0  0  0  0
   -1.4330   26.4640  -28.9630 O   0  0  0  0  0  0  0  0  0  0  0  0
   -2.7410   24.5220  -29.5690 C   0  0  0  0  0  0  0  0  0  0  0  0
   -3.4770   25.2990  -30.4580 O   0  0  0  0  0  0  0  0  0  0  0  0
   -7.5045   18.4429  -30.5360 H   0  0  0  0  0  0  0  0  0  0  0  0
   -8.3964   18.0377  -32.0417 H   0  0  0  0  0  0  0  0  0  0  0  0
   -6.6004   18.0658  -32.0417 H   0  0  0  0  0  0  0  0  0  0  0  0
   -5.3870   19.6263  -33.6211 H   0  0  0  0  0  0  0  0  0  0  0  0
   -3.0368   19.4761  -34.4397 H   0  0  0  0  0  0  0  0  0  0  0  0
   -1.7137   22.0977  -31.3621 H   0  0  0  0  0  0  0  0  0  0  0  0
   -5.0510   22.8020  -29.9710 H   0  0  0  0  0  0  0  0  0  0  0  0
   -0.6632   22.3748  -27.0657 H   0  0  0  0  0  0  0  0  0  0  0  0
   -0.1544   24.7989  -27.3500 H   0  0  0  0  0  0  0  0  0  0  0  0
  1  2  1  0
  2  3  2  0
  2  4  2  0
  2  5  1  0
  5  6  2  3
  6  7  1  0
  7  8  2  0
  8  9  1  0
  9 10  1  0
 10 11  2  0
 11 12  1  0
 12 13  1  0
 13 14  2  0
 14 15  1  0
 14 16  1  0
 16 17  2  0
 17 18  1  0
 18 19  1  0
 18 20  2  0
 20 21  1  0
 11  6  1  0
 20 13  1  0
  1 22  1  0
  1 23  1  0
  1 24  1  0
  7 25  1  0
  8 26  1  0
 10 27  1  0
 12 28  1  0
 16 29  1  0
 17 30  1  0
M  CHG  3   9  -1  19  -1  21  -1
M  END
>  <UniqueID>  (1) 
1

>  <SMILES>  (1) 
CS(=O)(=O)N=c1cc[n-]cc1Nc1c(Br)ccc([O-])c1[O-]

>  <Energy>  (1) 
42.92201438548249

>  <Genealogy>  (1) 
CS(=O)(=O)N=c1cc[n-]cc1Nc1c(Br)ccc([O-])c1[O-] (protonated)
CS(=O)(=O)N=c1cc[n-]cc1Nc1c(Br)ccc([O-])c1[O-] (3D coordinates assigned)
CS(=O)(=O)N=c1cc[n-]cc1Nc1c(Br)ccc([O-])c1[O-] (optimized conformer: 42.92201438548249 kcal/mol)

>  <smiles>  (1) 
CS(=O)(=O)N=c1cc[nH]cc1Nc1c(Br)ccc(O)c1O

>  <score_type>  (1) 
oracle

>  <origin>  (1) 
adgpu

>  <m_score__min__energy>  (1) 
-13.289999999999999

>  <m_primary>  (1) 
energy

$$$$
1:0
     RDKit          3D

 55 58  0  0  0  0  0  0  0  0999 V2000
   -3.6960   20.4700  -32.0690 C   0  0  0  0  0  0  0  0  0  0  0  0
   -2.3060   20.6120  -32.6010 C   0  0  0  0  0  0  0  0  0  0  0  0
   -2.0250   21.1810  -33.7900 N   0  0  0  0  0  0  0  0  0  0  0  0
   -0.7060   21.2140  -33.9150 N   0  0  0  0  0  0  0  0  0  0  0  0
   -0.0120   21.8290  -35.0380 C   0  0  0  0  0  0  0  0  0  0  0  0
   -0.1180   20.7000  -32.8180 C   0  0  0  0  0  0  0  0  0  0  0  0
   -1.1140   20.2730  -31.9730 C   0  0  0  0  0  0  0  0  0  0  0  0
   -0.9100   19.7620  -30.6520 N   0  0  0  0  0  0  0  0  0  0  0  0
   -1.3730   20.3780  -29.4450 C   0  0  0  0  0  0  0  0  0  0  0  0
   -1.6750   19.6620  -28.4510 O   0  0  0  0  0  0  0  0  0  0  0  0
   -1.4490   21.8540  -29.3440 C   0  0  0  0  0  0  0  0  0  0  0  0
   -0.3860   22.5880  -28.7870 C   0  0  0  0  0  0  0  0  0  0  0  0
   -0.4640   23.9780  -28.6810 C   0  0  0  0  0  0  0  0  0  0  0  0
   -1.5970   24.6580  -29.1320 C   0  0  0  0  0  0  0  0  0  0  0  0
   -1.6740   26.0370  -28.9690 O   0  0  0  0  0  0  0  0  0  0  0  0
   -2.6580   23.9410  -29.7190 C   0  0  0  0  0  0  0  0  0  0  0  0
   -3.8160   24.5800  -30.1840 O   0  0  0  0  0  0  0  0  0  0  0  0
   -4.9970   23.9310  -30.5710 C   0  0  0  0  0  0  0  0  0  0  0  0
   -5.8250   23.3940  -29.5790 C   0  0  0  0  0  0  0  0  0  0  0  0
   -7.0050   22.7310  -29.9240 C   0  0  0  0  0  0  0  0  0  0  0  0
   -7.3630   22.5830  -31.2690 C   0  0  0  0  0  0  0  0  0  0  0  0
   -8.8680   21.7680  -31.6920 S   0  0  0  0  0  0  0  0  0  0  0  0
   -9.5070   21.2080  -30.4520 O   0  0  0  0  0  0  0  0  0  0  0  0
   -9.8040   22.7830  -32.2880 O   0  0  0  0  0  0  0  0  0  0  0  0
   -8.5700   20.5000  -32.8640 N   0  0  0  0  0  0  0  0  0  0  0  0
   -7.1550   20.0850  -32.8780 C   0  0  0  0  0  0  0  0  0  0  0  0
   -6.7810   19.2350  -31.6410 C   0  0  0  0  0  0  0  0  0  0  0  0
   -7.9010   18.6780  -30.9740 O   0  0  0  0  0  0  0  0  0  0  0  0
   -8.8340   18.1880  -31.9110 C   0  0  0  0  0  0  0  0  0  0  0  0
   -9.4860   19.3540  -32.6760 C   0  0  0  0  0  0  0  0  0  0  0  0
   -6.5310   23.1070  -32.2690 C   0  0  0  0  0  0  0  0  0  0  0  0
   -5.3520   23.7720  -31.9230 C   0  0  0  0  0  0  0  0  0  0  0  0
   -2.5860   22.5460  -29.8030 C   0  0  0  0  0  0  0  0  0  0  0  0
   -3.6698   20.4727  -30.9693 H   0  0  0  0  0  0  0  0  0  0  0  0
   -4.3117   21.3099  -32.4231 H   0  0  0  0  0  0  0  0  0  0  0  0
   -4.1292   19.5229  -32.4231 H   0  0  0  0  0  0  0  0  0  0  0  0
    0.7612   22.5142  -34.6604 H   0  0  0  0  0  0  0  0  0  0  0  0
    0.4591   21.0465  -35.6509 H   0  0  0  0  0  0  0  0  0  0  0  0
   -0.7322   22.3908  -35.6509 H   0  0  0  0  0  0  0  0  0  0  0  0
    0.9641   20.6339  -32.6319 H   0  0  0  0  0  0  0  0  0  0  0  0
    0.5132   22.0630  -28.4324 H   0  0  0  0  0  0  0  0  0  0  0  0
    0.3719   24.5406  -28.2397 H   0  0  0  0  0  0  0  0  0  0  0  0
   -5.5447   23.4947  -28.5201 H   0  0  0  0  0  0  0  0  0  0  0  0
   -7.6553   22.3237  -29.1358 H   0  0  0  0  0  0  0  0  0  0  0  0
   -6.9695   19.4908  -33.7849 H   0  0  0  0  0  0  0  0  0  0  0  0
   -6.5370   20.9948  -32.8608 H   0  0  0  0  0  0  0  0  0  0  0  0
   -6.1276   18.4130  -31.9688 H   0  0  0  0  0  0  0  0  0  0  0  0
   -6.2826   19.9073  -30.9271 H   0  0  0  0  0  0  0  0  0  0  0  0
   -8.3190   17.5285  -32.6250 H   0  0  0  0  0  0  0  0  0  0  0  0
   -9.6164   17.6282  -31.3776 H   0  0  0  0  0  0  0  0  0  0  0  0
   -9.8031   18.9917  -33.6650 H   0  0  0  0  0  0  0  0  0  0  0  0
  -10.3390   19.7067  -32.0776 H   0  0  0  0  0  0  0  0  0  0  0  0
   -6.8072   22.9942  -33.3278 H   0  0  0  0  0  0  0  0  0  0  0  0
   -4.6982   24.1732  -32.7114 H   0  0  0  0  0  0  0  0  0  0  0  0
   -3.4278   21.9833  -30.2328 H   0  0  0  0  0  0  0  0  0  0  0  0
  1  2  1  0
  2  3  2  0
  3  4  1  0
  4  5  1  0
  4  6  1  0
  6  7  2  0
  7  8  1  0
  8  9  1  0
  9 10  2  0
  9 11  1  0
 11 12  2  0
 12 13  1  0
 13 14  2  0
 14 15  1  0
 14 16  1  0
 16 17  1  0
 17 18  1  0
 18 19  2  0
 19 20  1  0
 20 21  2  0
 21 22  1  0
 22 23  2  0
 22 24  2  0
 22 25  1  0
 25 26  1  0
 26 27  1  0
 27 28  1  0
 28 29  1  0
 29 30  1  0
 21 31  1  0
 31 32  2  0
 16 33  2  0
  7  2  1  0
 33 11  1  0
 32 18  1  0
 30 25  1  0
  1 34  1  0
  1 35  1  0
  1 36  1  0
  5 37  1  0
  5 38  1  0
  5 39  1  0
  6 40  1  0
 12 41  1  0
 13 42  1  0
 19 43  1  0
 20 44  1  0
 26 45  1  0
 26 46  1  0
 27 47  1  0
 27 48  1  0
 29 49  1  0
 29 50  1  0
 30 51  1  0
 30 52  1  0
 31 53  1  0
 32 54  1  0
 33 55  1  0
M  CHG  2   8  -1  15  -1
M  END
>  <UniqueID>  (2) 
2

>  <SMILES>  (2) 
Cc1nn(C)cc1[N-]C(=O)c1ccc([O-])c(Oc2ccc(S(=O)(=O)N3CCOCC3)cc2)c1

>  <Energy>  (2) 
111.34928738883676

>  <Genealogy>  (2) 
Cc1nn(C)cc1[N-]C(=O)c1ccc([O-])c(Oc2ccc(S(=O)(=O)N3CCOCC3)cc2)c1 (protonated)
Cc1nn(C)cc1[N-]C(=O)c1ccc([O-])c(Oc2ccc(S(=O)(=O)N3CCOCC3)cc2)c1 (3D coordinates assigned)
Cc1nn(C)cc1[N-]C(=O)c1ccc([O-])c(Oc2ccc(S(=O)(=O)N3CCOCC3)cc2)c1 (nonaromatic ring conformer: 111.34928738883676 kcal/mol)

>  <smiles>  (2) 
Cc1nn(C)cc1NC(=O)c1ccc(O)c(Oc2ccc(S(=O)(=O)N3CCOCC3)cc2)c1

>  <score_type>  (2) 
oracle

>  <origin>  (2) 
adgpu

>  <m_score__min__energy>  (2) 
-13.01

>  <m_primary>  (2) 
energy

$$$$
2:0
     RDKit          3D

 48 50  0  0  0  0  0  0  0  0999 V2000
   -7.7360   18.0070  -32.6990 C   0  0  0  0  0  0  0  0  0  0  0  0
   -7.6370   19.4400  -32.2670 C   0  0  0  0  0  0  0  0  0  0  0  0
   -6.4620   20.1710  -32.5040 C   0  0  0  0  0  0  0  0  0  0  0  0
   -6.3570   21.4950  -32.0690 C   0  0  0  0  0  0  0  0  0  0  0  0
   -7.4200   22.0980  -31.3890 C   0  0  0  0  0  0  0  0  0  0  0  0
   -7.2820   23.7980  -30.8270 S   0  0  0  0  0  0  0  0  0  0  0  0
   -5.7620   24.1540  -31.7730 C   0  0  0  0  0  0  0  0  0  0  0  0
   -4.6370   24.4810  -30.8470 C   0  0  0  0  0  0  0  0  0  0  0  0
   -4.2380   25.6730  -30.7420 O   0  0  0  0  0  0  0  0  0  0  0  0
   -3.9670   23.4210  -30.1550 N   0  0  0  0  0  0  0  0  0  0  0  0
   -2.9160   22.5900  -30.6690 C   0  0  0  0  0  0  0  0  0  0  0  0
   -3.1750   21.6480  -31.6820 C   0  0  0  0  0  0  0  0  0  0  0  0
   -2.1410   20.8750  -32.2130 C   0  0  0  0  0  0  0  0  0  0  0  0
   -0.8360   21.0460  -31.7570 C   0  0  0  0  0  0  0  0  0  0  0  0
   -0.5600   21.9910  -30.7680 C   0  0  0  0  0  0  0  0  0  0  0  0
   -1.5890   22.7660  -30.2100 C   0  0  0  0  0  0  0  0  0  0  0  0
   -1.1810   23.9300  -28.9320 S   0  0  0  0  0  0  0  0  0  0  0  0
    0.3040   24.1690  -28.9520 O   0  0  0  0  0  0  0  0  0  0  0  0
   -1.8560   25.2470  -29.1960 O   0  0  0  0  0  0  0  0  0  0  0  0
   -1.6480   23.3550  -27.3460 N   0  0  0  0  0  0  0  0  0  0  0  0
   -0.4570   23.0350  -26.5350 C   0  0  0  0  0  0  0  0  0  0  0  0
   -0.8140   22.0570  -25.4050 C   0  0  0  0  0  0  0  0  0  0  0  0
   -1.3220   20.8100  -25.8650 O   0  0  0  0  0  0  0  0  0  0  0  0
   -1.9450   20.8790  -27.1400 C   0  0  0  0  0  0  0  0  0  0  0  0
   -2.6130   22.2390  -27.4240 C   0  0  0  0  0  0  0  0  0  0  0  0
   -8.5840   21.3650  -31.1260 C   0  0  0  0  0  0  0  0  0  0  0  0
   -8.6910   20.0400  -31.5600 C   0  0  0  0  0  0  0  0  0  0  0  0
   -7.7808   17.3587  -31.8115 H   0  0  0  0  0  0  0  0  0  0  0  0
   -8.6459   17.8676  -33.3012 H   0  0  0  0  0  0  0  0  0  0  0  0
   -6.8539   17.7438  -33.3012 H   0  0  0  0  0  0  0  0  0  0  0  0
   -5.6210   19.6999  -33.0340 H   0  0  0  0  0  0  0  0  0  0  0  0
   -5.4358   22.0643  -32.2620 H   0  0  0  0  0  0  0  0  0  0  0  0
   -5.4932   23.2717  -32.3725 H   0  0  0  0  0  0  0  0  0  0  0  0
   -5.9449   25.0165  -32.4307 H   0  0  0  0  0  0  0  0  0  0  0  0
   -4.2006   21.5198  -32.0584 H   0  0  0  0  0  0  0  0  0  0  0  0
   -2.3571   20.1297  -32.9927 H   0  0  0  0  0  0  0  0  0  0  0  0
   -0.0226   20.4359  -32.1767 H   0  0  0  0  0  0  0  0  0  0  0  0
    0.4748   22.1301  -30.4219 H   0  0  0  0  0  0  0  0  0  0  0  0
    0.3067   22.5770  -27.1807 H   0  0  0  0  0  0  0  0  0  0  0  0
   -0.0735   23.9646  -26.0892 H   0  0  0  0  0  0  0  0  0  0  0  0
    0.0929   21.8650  -24.8128 H   0  0  0  0  0  0  0  0  0  0  0  0
   -1.6113   22.5291  -24.8121 H   0  0  0  0  0  0  0  0  0  0  0  0
   -1.1816   20.6981  -27.9110 H   0  0  0  0  0  0  0  0  0  0  0  0
   -2.7396   20.1185  -27.1539 H   0  0  0  0  0  0  0  0  0  0  0  0
   -3.0497   22.2166  -28.4334 H   0  0  0  0  0  0  0  0  0  0  0  0
   -3.3870   22.4042  -26.6600 H   0  0  0  0  0  0  0  0  0  0  0  0
   -9.4151   21.8321  -30.5773 H   0  0  0  0  0  0  0  0  0  0  0  0
   -9.6046   19.4656  -31.3466 H   0  0  0  0  0  0  0  0  0  0  0  0
  1  2  1  0
  2  3  2  0
  3  4  1  0
  4  5  2  0
  5  6  1  0
  6  7  1  0
  7  8  1  0
  8  9  2  0
  8 10  1  0
 10 11  1  0
 11 12  2  0
 12 13  1  0
 13 14  2  0
 14 15  1  0
 15 16  2  0
 16 17  1  0
 17 18  2  0
 17 19  2  0
 17 20  1  0
 20 21  1  0
 21 22  1  0
 22 23  1  0
 23 24  1  0
 24 25  1  0
  5 26  1  0
 26 27  2  0
 27  2  1  0
 16 11  1  0
 25 20  1  0
  1 28  1  0
  1 29  1  0
  1 30  1  0
  3 31  1  0
  4 32  1  0
  7 33  1  0
  7 34  1  0
 12 35  1  0
 13 36  1  0
 14 37  1  0
 15 38  1  0
 21 39  1  0
 21 40  1  0
 22 41  1  0
 22 42  1  0
 24 43  1  0
 24 44  1  0
 25 45  1  0
 25 46  1  0
 26 47  1  0
 27 48  1  0
M  CHG  1  10  -1
M  END
>  <UniqueID>  (3) 
3

>  <SMILES>  (3) 
Cc1ccc(SCC(=O)[N-]c2ccccc2S(=O)(=O)N2CCOCC2)cc1

>  <Energy>  (3) 
58.184532987344774

>  <Genealogy>  (3) 
Cc1ccc(SCC(=O)[N-]c2ccccc2S(=O)(=O)N2CCOCC2)cc1 (protonated)
Cc1ccc(SCC(=O)[N-]c2ccccc2S(=O)(=O)N2CCOCC2)cc1 (3D coordinates assigned)
Cc1ccc(SCC(=O)[N-]c2ccccc2S(=O)(=O)N2CCOCC2)cc1 (nonaromatic ring conformer: 58.184532987344774 kcal/mol)

>  <smiles>  (3) 
Cc1ccc(SCC(=O)Nc2ccccc2S(=O)(=O)N2CCOCC2)cc1

>  <score_type>  (3) 
oracle

>  <origin>  (3) 
adgpu

>  <m_score__min__energy>  (3) 
-11.449999999999999

>  <m_primary>  (3) 
energy

$$$$
3:0
     RDKit          3D

 46 49  0  0  0  0  0  0  0  0999 V2000
   -3.0400   19.2150  -26.6160 C   0  0  0  0  0  0  0  0  0  0  0  0
   -1.6000   20.2520  -26.4570 S   0  0  0  0  0  0  0  0  0  0  0  0
   -0.4490   19.5670  -27.1370 O   0  0  0  0  0  0  0  0  0  0  0  0
   -1.2930   20.4160  -24.9960 O   0  0  0  0  0  0  0  0  0  0  0  0
   -1.8410   21.8450  -27.1840 C   0  0  0  0  0  0  0  0  0  0  0  0
   -1.3910   23.0170  -26.5430 C   0  0  0  0  0  0  0  0  0  0  0  0
   -1.5870   24.2760  -27.1400 C   0  0  0  0  0  0  0  0  0  0  0  0
   -2.2340   24.3780  -28.3780 C   0  0  0  0  0  0  0  0  0  0  0  0
   -2.6790   23.2070  -28.9970 C   0  0  0  0  0  0  0  0  0  0  0  0
   -2.4850   21.9780  -28.4240 C   0  0  0  0  0  0  0  0  0  0  0  0
   -3.0480   20.9100  -29.3010 C   0  0  0  0  0  0  0  0  0  0  0  0
   -3.6230   21.6980  -30.5110 C   0  0  2  0  0  0  0  0  0  0  0  0
   -2.9990   21.2590  -31.7700 C   0  0  0  0  0  0  0  0  0  0  0  0
   -2.5110   20.9090  -32.7580 N   0  0  0  0  0  0  0  0  0  0  0  0
   -3.3340   23.1130  -30.2520 N   0  0  0  0  0  0  0  0  0  0  0  0
   -4.0990   24.1830  -30.8290 C   0  0  0  0  0  0  0  0  0  0  0  0
   -3.8780   25.3710  -30.4760 O   0  0  0  0  0  0  0  0  0  0  0  0
   -5.1540   23.9180  -31.7590 N   0  0  0  0  0  0  0  0  0  0  0  0
   -6.1550   22.9010  -31.6120 C   0  0  0  0  0  0  0  0  0  0  0  0
   -7.1020   22.9460  -30.5770 C   0  0  0  0  0  0  0  0  0  0  0  0
   -8.0710   21.9470  -30.4700 C   0  0  0  0  0  0  0  0  0  0  0  0
   -8.0950   20.8800  -31.3720 C   0  0  0  0  0  0  0  0  0  0  0  0
   -9.1150   19.9350  -31.2520 O   0  0  0  0  0  0  0  0  0  0  0  0
   -7.1030   20.7870  -32.3760 C   0  0  0  0  0  0  0  0  0  0  0  0
   -7.0970   19.6510  -33.3680 C   0  0  0  0  0  0  0  0  0  0  0  0
   -5.7220   19.1950  -33.8480 C   0  0  0  0  0  0  0  0  0  0  0  0
   -6.4900   18.3530  -32.8490 C   0  0  0  0  0  0  0  0  0  0  0  0
   -6.1540   21.8180  -32.4970 C   0  0  0  0  0  0  0  0  0  0  0  0
   -3.4115   18.9475  -25.6158 H   0  0  0  0  0  0  0  0  0  0  0  0
   -3.8237   19.7575  -27.1652 H   0  0  0  0  0  0  0  0  0  0  0  0
   -2.7739   18.2998  -27.1652 H   0  0  0  0  0  0  0  0  0  0  0  0
   -0.8833   22.9469  -25.5697 H   0  0  0  0  0  0  0  0  0  0  0  0
   -1.2305   25.1842  -26.6321 H   0  0  0  0  0  0  0  0  0  0  0  0
   -2.3884   25.3583  -28.8525 H   0  0  0  0  0  0  0  0  0  0  0  0
   -2.2617   20.2120  -29.6244 H   0  0  0  0  0  0  0  0  0  0  0  0
   -3.8045   20.2938  -28.7931 H   0  0  0  0  0  0  0  0  0  0  0  0
   -4.7037   21.5244  -30.6199 H   0  0  0  0  0  0  0  0  0  0  0  0
   -7.0805   23.7701  -29.8488 H   0  0  0  0  0  0  0  0  0  0  0  0
   -8.8225   22.0001  -29.6685 H   0  0  0  0  0  0  0  0  0  0  0  0
   -9.0120   19.0760  -30.7250 H   0  0  0  0  0  0  0  0  0  0  0  0
   -8.0359   19.9389  -33.8636 H   0  0  0  0  0  0  0  0  0  0  0  0
   -5.5904   18.8392  -34.8805 H   0  0  0  0  0  0  0  0  0  0  0  0
   -4.7194   19.6466  -33.8753 H   0  0  0  0  0  0  0  0  0  0  0  0
   -6.9148   17.3863  -33.1572 H   0  0  0  0  0  0  0  0  0  0  0  0
   -6.2737   17.9414  -31.8521 H   0  0  0  0  0  0  0  0  0  0  0  0
   -5.4014   21.7720  -33.2979 H   0  0  0  0  0  0  0  0  0  0  0  0
  1  2  1  0
  2  3  2  0
  2  4  2  0
  2  5  1  0
  5  6  2  0
  6  7  1  0
  7  8  2  0
  8  9  1  0
  9 10  2  0
 10 11  1  0
 11 12  1  0
 12 13  1  0
 13 14  3  0
 12 15  1  0
 15 16  1  0
 16 17  2  0
 16 18  1  0
 18 19  1  0
 19 20  2  0
 20 21  1  0
 21 22  2  0
 22 23  1  0
 22 24  1  0
 24 25  1  0
 25 26  1  0
 26 27  1  0
 24 28  2  0
 10  5  1  0
 28 19  1  0
 15  9  1  0
 27 25  1  0
  1 29  1  0
  1 30  1  0
  1 31  1  0
  6 32  1  0
  7 33  1  0
  8 34  1  0
 11 35  1  0
 11 36  1  0
 12 37  1  6
 20 38  1  0
 21 39  1  0
 23 40  1  0
 25 41  1  0
 26 42  1  0
 26 43  1  0
 27 44  1  0
 27 45  1  0
 28 46  1  0
M  CHG  1  18  -1
M  END
>  <UniqueID>  (4) 
4

>  <SMILES>  (4) 
CS(=O)(=O)c1cccc2c1C[C@H](C#N)N2C(=O)[N-]c1ccc(O)c(C2CC2)c1

>  <Energy>  (4) 
333.6940891466581

>  <Genealogy>  (4) 
CS(=O)(=O)c1cccc2c1CC(C#N)N2C(=O)[N-]c1ccc(O)c(C2CC2)c1 (protonated)
CS(=O)(=O)c1cccc2c1C[C@H](C#N)N2C(=O)[N-]c1ccc(O)c(C2CC2)c1 (chirality)
CS(=O)(=O)c1cccc2c1C[C@H](C#N)N2C(=O)[N-]c1ccc(O)c(C2CC2)c1 (3D coordinates assigned)
CS(=O)(=O)c1cccc2c1C[C@H](C#N)N2C(=O)[N-]c1ccc(O)c(C2CC2)c1 (nonaromatic ring conformer: 333.6940891466581 kcal/mol)

>  <smiles>  (4) 
CS(=O)(=O)c1cccc2c1CC(C#N)N2C(=O)Nc1ccc(O)c(C2CC2)c1

>  <score_type>  (4) 
oracle

>  <origin>  (4) 
adgpu

>  <m_score__min__energy>  (4) 
-10.32

>  <m_primary>  (4) 
energy

$$$$
4:0
     RDKit          3D

 46 47  0  0  0  0  0  0  0  0999 V2000
   -3.8400   24.2360  -27.2190 C   0  0  0  0  0  0  0  0  0  0  0  0
   -3.0750   23.8640  -28.2440 C   0  0  0  0  0  0  0  0  0  0  0  0
   -2.6640   24.7980  -29.3050 C   0  0  0  0  0  0  0  0  0  0  0  0
   -1.5860   25.4450  -29.2110 O   0  0  0  0  0  0  0  0  0  0  0  0
   -3.4930   24.9420  -30.4610 N   0  0  0  0  0  0  0  0  0  0  0  0
   -4.6690   24.1530  -30.7020 C   0  0  0  0  0  0  0  0  0  0  0  0
   -5.9410   24.6480  -30.3550 C   0  0  0  0  0  0  0  0  0  0  0  0
   -6.1160   25.9910  -29.6930 C   0  0  0  0  0  0  0  0  0  0  0  0
   -7.0750   23.8780  -30.6240 C   0  0  0  0  0  0  0  0  0  0  0  0
   -6.9750   22.6150  -31.2200 C   0  0  0  0  0  0  0  0  0  0  0  0
   -8.2500   21.8380  -31.4280 C   0  0  0  0  0  0  0  0  0  0  0  0
   -5.7020   22.1160  -31.6060 C   0  0  0  0  0  0  0  0  0  0  0  0
   -5.5520   20.5740  -32.5020 S   0  0  0  0  0  0  0  0  0  0  0  0
   -5.2850   19.4470  -31.5440 O   0  0  0  0  0  0  0  0  0  0  0  0
   -4.4060   20.6130  -33.4740 O   0  0  0  0  0  0  0  0  0  0  0  0
   -7.0380   20.2830  -33.3540 N   0  0  0  0  0  0  0  0  0  0  0  0
   -7.5310   18.9410  -33.0450 C   0  0  0  0  0  0  0  0  0  0  0  0
   -6.5190   17.9180  -33.4820 C   0  0  0  0  0  0  0  0  0  0  0  0
   -6.3060   16.7590  -32.7170 C   0  0  0  0  0  0  0  0  0  0  0  0
   -5.3410   15.8260  -33.1080 C   0  0  0  0  0  0  0  0  0  0  0  0
   -4.5760   16.0490  -34.2560 C   0  0  0  0  0  0  0  0  0  0  0  0
   -4.7710   17.2080  -35.0130 C   0  0  0  0  0  0  0  0  0  0  0  0
   -5.7360   18.1430  -34.6250 C   0  0  0  0  0  0  0  0  0  0  0  0
   -4.5370   22.8580  -31.2540 C   0  0  0  0  0  0  0  0  0  0  0  0
   -3.1490   22.3090  -31.5050 C   0  0  0  0  0  0  0  0  0  0  0  0
   -4.1224   23.5030  -26.4490 H   0  0  0  0  0  0  0  0  0  0  0  0
   -4.1894   25.2762  -27.1426 H   0  0  0  0  0  0  0  0  0  0  0  0
   -2.7374   22.8186  -28.2998 H   0  0  0  0  0  0  0  0  0  0  0  0
   -6.0997   25.8660  -28.6002 H   0  0  0  0  0  0  0  0  0  0  0  0
   -5.2974   26.6595  -29.9979 H   0  0  0  0  0  0  0  0  0  0  0  0
   -7.0786   26.4274  -29.9979 H   0  0  0  0  0  0  0  0  0  0  0  0
   -8.0679   24.2724  -30.3620 H   0  0  0  0  0  0  0  0  0  0  0  0
   -8.6823   21.5746  -30.4514 H   0  0  0  0  0  0  0  0  0  0  0  0
   -8.9664   22.4532  -31.9922 H   0  0  0  0  0  0  0  0  0  0  0  0
   -8.0316   20.9193  -31.9922 H   0  0  0  0  0  0  0  0  0  0  0  0
   -6.8130   20.3210  -34.3760 H   0  0  0  0  0  0  0  0  0  0  0  0
   -7.6963   18.8524  -31.9611 H   0  0  0  0  0  0  0  0  0  0  0  0
   -8.4779   18.7684  -33.5776 H   0  0  0  0  0  0  0  0  0  0  0  0
   -6.9002   16.5851  -31.8078 H   0  0  0  0  0  0  0  0  0  0  0  0
   -5.1837   14.9154  -32.5113 H   0  0  0  0  0  0  0  0  0  0  0  0
   -3.8198   15.3120  -34.5642 H   0  0  0  0  0  0  0  0  0  0  0  0
   -4.1653   17.3846  -35.9141 H   0  0  0  0  0  0  0  0  0  0  0  0
   -5.8819   19.0581  -35.2178 H   0  0  0  0  0  0  0  0  0  0  0  0
   -2.6528   22.1128  -30.5431 H   0  0  0  0  0  0  0  0  0  0  0  0
   -3.2231   21.3724  -32.0772 H   0  0  0  0  0  0  0  0  0  0  0  0
   -2.5624   23.0428  -32.0772 H   0  0  0  0  0  0  0  0  0  0  0  0
  1  2  2  0
  2  3  1  0
  3  4  2  0
  3  5  1  0
  5  6  1  0
  6  7  2  0
  7  8  1  0
  7  9  1  0
  9 10  2  0
 10 11  1  0
 10 12  1  0
 12 13  1  0
 13 14  2  0
 13 15  2  0
 13 16  1  0
 16 17  1  0
 17 18  1  0
 18 19  2  0
 19 20  1  0
 20 21  2  0
 21 22  1  0
 22 23  2  0
 12 24  2  0
 24 25  1  0
 24  6  1  0
 23 18  1  0
  1 26  1  0
  1 27  1  0
  2 28  1  0
  8 29  1  0
  8 30  1  0
  8 31  1  0
  9 32  1  0
 11 33  1  0
 11 34  1  0
 11 35  1  0
 16 36  1  0
 17 37  1  0
 17 38  1  0
 19 39  1  0
 20 40  1  0
 21 41  1  0
 22 42  1  0
 23 43  1  0
 25 44  1  0
 25 45  1  0
 25 46  1  0
M  CHG  1   5  -1
M  END
>  <UniqueID>  (5) 
5

>  <SMILES>  (5) 
C=CC(=O)[N-]c1c(C)cc(C)c(S(=O)(=O)NCc2ccccc2)c1C

>  <Energy>  (5) 
55.743256197357304

>  <Genealogy>  (5) 
C=CC(=O)[N-]c1c(C)cc(C)c(S(=O)(=O)NCc2ccccc2)c1C (protonated)
C=CC(=O)[N-]c1c(C)cc(C)c(S(=O)(=O)NCc2ccccc2)c1C (3D coordinates assigned)
C=CC(=O)[N-]c1c(C)cc(C)c(S(=O)(=O)NCc2ccccc2)c1C (optimized conformer: 55.743256197357304 kcal/mol)

>  <smiles>  (5) 
C=CC(=O)Nc1c(C)cc(C)c(S(=O)(=O)NCc2ccccc2)c1C

>  <score_type>  (5) 
oracle

>  <origin>  (5) 
adgpu

>  <m_score__min__energy>  (5) 
-11.08

>  <m_primary>  (5) 
energy

$$$$
5:0
     RDKit          3D

 52 54  0  0  0  0  0  0  0  0999 V2000
   -3.3890   18.8890  -26.3740 C   0  0  0  0  0  0  0  0  0  0  0  0
   -2.1490   19.7010  -26.5890 C   0  0  0  0  0  0  0  0  0  0  0  0
   -1.6300   20.2790  -25.5940 O   0  0  0  0  0  0  0  0  0  0  0  0
   -1.5220   19.8310  -27.9270 C   0  0  0  0  0  0  0  0  0  0  0  0
   -0.2550   19.2760  -28.1950 C   0  0  0  0  0  0  0  0  0  0  0  0
    0.3240   19.4190  -29.4590 C   0  0  0  0  0  0  0  0  0  0  0  0
   -0.3440   20.1240  -30.4660 C   0  0  0  0  0  0  0  0  0  0  0  0
   -1.6140   20.6660  -30.2250 C   0  0  0  0  0  0  0  0  0  0  0  0
   -2.4980   21.5000  -31.5030 S   0  0  0  0  0  0  0  0  0  0  0  0
   -3.6290   20.6490  -32.0170 O   0  0  0  0  0  0  0  0  0  0  0  0
   -1.5590   21.7700  -32.6440 O   0  0  0  0  0  0  0  0  0  0  0  0
   -3.1090   23.0120  -30.9060 N   0  0  0  0  0  0  0  0  0  0  0  0
   -4.4980   23.3530  -30.7800 C   0  0  0  0  0  0  0  0  0  0  0  0
   -5.5090   22.3860  -30.8780 C   0  0  0  0  0  0  0  0  0  0  0  0
   -6.8590   22.7400  -30.7330 C   0  0  0  0  0  0  0  0  0  0  0  0
   -7.9130   21.7080  -30.8600 C   0  0  0  0  0  0  0  0  0  0  0  0
   -8.9460   21.7880  -30.1380 O   0  0  0  0  0  0  0  0  0  0  0  0
   -7.7650   20.5990  -31.7710 N   0  0  0  0  0  0  0  0  0  0  0  0
   -7.1980   20.7980  -33.1120 C   0  0  0  0  0  0  0  0  0  0  0  0
   -6.2320   19.6580  -33.4410 C   0  0  0  0  0  0  0  0  0  0  0  0
   -6.8230   18.3390  -33.1480 N   0  0  0  0  0  0  0  0  0  0  0  0
   -6.1370   17.1340  -33.5620 C   0  0  0  0  0  0  0  0  0  0  0  0
   -4.7400   17.1730  -34.1140 C   0  0  0  0  0  0  0  0  0  0  0  0
   -6.6970   16.0120  -33.4380 O   0  0  0  0  0  0  0  0  0  0  0  0
   -8.1660   18.2640  -32.5450 C   0  0  0  0  0  0  0  0  0  0  0  0
   -8.3240   19.2910  -31.4100 C   0  0  0  0  0  0  0  0  0  0  0  0
   -7.1970   24.0710  -30.4610 C   0  0  0  0  0  0  0  0  0  0  0  0
   -6.1990   25.0440  -30.3910 C   0  0  0  0  0  0  0  0  0  0  0  0
   -4.8560   24.6890  -30.5580 C   0  0  0  0  0  0  0  0  0  0  0  0
   -3.8750   25.6670  -30.4880 O   0  0  0  0  0  0  0  0  0  0  0  0
   -2.1970   20.5200  -28.9620 C   0  0  0  0  0  0  0  0  0  0  0  0
   -3.5680   18.7718  -25.2950 H   0  0  0  0  0  0  0  0  0  0  0  0
   -4.2469   19.4008  -26.8345 H   0  0  0  0  0  0  0  0  0  0  0  0
   -3.2628   17.8981  -26.8345 H   0  0  0  0  0  0  0  0  0  0  0  0
    0.2808   18.7278  -27.4060 H   0  0  0  0  0  0  0  0  0  0  0  0
    1.3096   18.9751  -29.6630 H   0  0  0  0  0  0  0  0  0  0  0  0
    0.1292   20.2534  -31.4505 H   0  0  0  0  0  0  0  0  0  0  0  0
   -5.2403   21.3369  -31.0709 H   0  0  0  0  0  0  0  0  0  0  0  0
   -8.0105   20.8135  -33.8533 H   0  0  0  0  0  0  0  0  0  0  0  0
   -6.6540   21.7537  -33.1380 H   0  0  0  0  0  0  0  0  0  0  0  0
   -5.9769   19.7045  -34.5100 H   0  0  0  0  0  0  0  0  0  0  0  0
   -5.3352   19.7779  -32.8155 H   0  0  0  0  0  0  0  0  0  0  0  0
   -4.0183   17.1931  -33.2841 H   0  0  0  0  0  0  0  0  0  0  0  0
   -4.5645   16.2794  -34.7310 H   0  0  0  0  0  0  0  0  0  0  0  0
   -4.6146   18.0750  -34.7310 H   0  0  0  0  0  0  0  0  0  0  0  0
   -8.9194   18.4672  -33.3203 H   0  0  0  0  0  0  0  0  0  0  0  0
   -8.3038   17.2566  -32.1252 H   0  0  0  0  0  0  0  0  0  0  0  0
   -9.3943   19.4115  -31.1865 H   0  0  0  0  0  0  0  0  0  0  0  0
   -7.7745   18.9165  -30.5338 H   0  0  0  0  0  0  0  0  0  0  0  0
   -8.2492   24.3499  -30.3025 H   0  0  0  0  0  0  0  0  0  0  0  0
   -6.4692   26.0937  -30.2039 H   0  0  0  0  0  0  0  0  0  0  0  0
   -3.1929   20.9463  -28.7710 H   0  0  0  0  0  0  0  0  0  0  0  0
  1  2  1  0
  2  3  2  0
  2  4  1  0
  4  5  2  0
  5  6  1  0
  6  7  2  0
  7  8  1  0
  8  9  1  0
  9 10  2  0
  9 11  2  0
  9 12  1  0
 12 13  1  0
 13 14  2  0
 14 15  1  0
 15 16  1  0
 16 17  2  0
 16 18  1  0
 18 19  1  0
 19 20  1  0
 20 21  1  0
 21 22  1  0
 22 23  1  0
 22 24  2  0
 21 25  1  0
 25 26  1  0
 15 27  2  0
 27 28  1  0
 28 29  2  0
 29 30  1  0
  8 31  2  0
 31  4  1  0
 29 13  1  0
 26 18  1  0
  1 32  1  0
  1 33  1  0
  1 34  1  0
  5 35  1  0
  6 36  1  0
  7 37  1  0
 14 38  1  0
 19 39  1  0
 19 40  1  0
 20 41  1  0
 20 42  1  0
 23 43  1  0
 23 44  1  0
 23 45  1  0
 25 46  1  0
 25 47  1  0
 26 48  1  0
 26 49  1  0
 27 50  1  0
 28 51  1  0
 31 52  1  0
M  CHG  2  12  -1  30  -1
M  END
>  <UniqueID>  (6) 
6

>  <SMILES>  (6) 
CC(=O)c1cccc(S(=O)(=O)[N-]c2cc(C(=O)N3CCN(C(C)=O)CC3)ccc2[O-])c1

>  <Energy>  (6) 
61.33795876170141

>  <Genealogy>  (6) 
CC(=O)c1cccc(S(=O)(=O)[N-]c2cc(C(=O)N3CCN(C(C)=O)CC3)ccc2[O-])c1 (protonated)
CC(=O)c1cccc(S(=O)(=O)[N-]c2cc(C(=O)N3CCN(C(C)=O)CC3)ccc2[O-])c1 (3D coordinates assigned)
CC(=O)c1cccc(S(=O)(=O)[N-]c2cc(C(=O)N3CCN(C(C)=O)CC3)ccc2[O-])c1 (nonaromatic ring conformer: 61.33795876170141 kcal/mol)

>  <smiles>  (6) 
CC(=O)c1cccc(S(=O)(=O)Nc2cc(C(=O)N3CCN(C(C)=O)CC3)ccc2O)c1

>  <score_type>  (6) 
oracle

>  <origin>  (6) 
adgpu

>  <m_score__min__energy>  (6) 
-14.6

>  <m_primary>  (6) 
energy

$$$$
6:0
     RDKit          3D

 52 55  0  0  0  0  0  0  0  0999 V2000
   -4.5390   13.2940  -31.3920 C   0  0  0  0  0  0  0  0  0  0  0  0
   -4.6170   14.7070  -31.2370 O   0  0  0  0  0  0  0  0  0  0  0  0
   -5.2470   15.5720  -32.1460 C   0  0  0  0  0  0  0  0  0  0  0  0
   -5.3830   15.1510  -33.4740 C   0  0  0  0  0  0  0  0  0  0  0  0
   -6.0040   15.9720  -34.4170 C   0  0  0  0  0  0  0  0  0  0  0  0
   -6.4920   17.2250  -34.0430 C   0  0  0  0  0  0  0  0  0  0  0  0
   -6.3540   17.6760  -32.7180 C   0  0  0  0  0  0  0  0  0  0  0  0
   -6.8760   19.0030  -32.3160 C   0  0  0  0  0  0  0  0  0  0  0  0
   -8.0540   19.1020  -31.8770 O   0  0  0  0  0  0  0  0  0  0  0  0
   -6.0740   20.1890  -32.4450 N   0  0  0  0  0  0  0  0  0  0  0  0
   -4.6760   20.0480  -32.8950 C   0  0  0  0  0  0  0  0  0  0  0  0
   -3.9570   21.4020  -33.0390 C   0  0  0  0  0  0  0  0  0  0  0  0
   -4.3370   22.3360  -31.9220 C   0  0  0  0  0  0  0  0  0  0  0  0
   -3.3890   23.1690  -31.3160 C   0  0  0  0  0  0  0  0  0  0  0  0
   -3.7770   24.0790  -30.3210 C   0  0  0  0  0  0  0  0  0  0  0  0
   -2.8080   24.9270  -29.6980 N   0  0  0  0  0  0  0  0  0  0  0  0
   -2.1500   24.6100  -28.1270 S   0  0  0  0  0  0  0  0  0  0  0  0
   -3.1070   25.1210  -27.0850 O   0  0  0  0  0  0  0  0  0  0  0  0
   -0.8480   25.3450  -27.9780 O   0  0  0  0  0  0  0  0  0  0  0  0
   -1.8910   22.8870  -27.8660 C   0  0  0  0  0  0  0  0  0  0  0  0
   -2.9830   22.0070  -27.8420 C   0  0  0  0  0  0  0  0  0  0  0  0
   -2.7810   20.6440  -27.6040 C   0  0  0  0  0  0  0  0  0  0  0  0
   -1.4900   20.1540  -27.3880 C   0  0  0  0  0  0  0  0  0  0  0  0
   -0.3990   21.0280  -27.4070 C   0  0  0  0  0  0  0  0  0  0  0  0
   -0.5970   22.3930  -27.6420 C   0  0  0  0  0  0  0  0  0  0  0  0
   -5.1220   24.1270  -29.9080 C   0  0  0  0  0  0  0  0  0  0  0  0
   -5.5430   24.9980  -28.9030 O   0  0  0  0  0  0  0  0  0  0  0  0
   -6.0690   23.2970  -30.5190 C   0  0  0  0  0  0  0  0  0  0  0  0
   -5.6800   22.4050  -31.5270 C   0  0  0  0  0  0  0  0  0  0  0  0
   -6.6740   21.5140  -32.2150 C   0  0  0  0  0  0  0  0  0  0  0  0
   -5.7400   16.8360  -31.7700 C   0  0  0  0  0  0  0  0  0  0  0  0
   -4.5127   12.8173  -30.4010 H   0  0  0  0  0  0  0  0  0  0  0  0
   -5.4188   12.9369  -31.9474 H   0  0  0  0  0  0  0  0  0  0  0  0
   -3.6252   13.0359  -31.9474 H   0  0  0  0  0  0  0  0  0  0  0  0
   -4.9978   14.1661  -33.7768 H   0  0  0  0  0  0  0  0  0  0  0  0
   -6.1090   15.6305  -35.4574 H   0  0  0  0  0  0  0  0  0  0  0  0
   -6.9875   17.8636  -34.7890 H   0  0  0  0  0  0  0  0  0  0  0  0
   -4.1304   19.4364  -32.1613 H   0  0  0  0  0  0  0  0  0  0  0  0
   -4.6934   19.5746  -33.8878 H   0  0  0  0  0  0  0  0  0  0  0  0
   -2.8698   21.2363  -33.0151 H   0  0  0  0  0  0  0  0  0  0  0  0
   -4.2565   21.8579  -33.9942 H   0  0  0  0  0  0  0  0  0  0  0  0
   -2.3340   23.1098  -31.6216 H   0  0  0  0  0  0  0  0  0  0  0  0
   -4.0003   22.3899  -28.0107 H   0  0  0  0  0  0  0  0  0  0  0  0
   -3.6394   19.9564  -27.5867 H   0  0  0  0  0  0  0  0  0  0  0  0
   -1.3324   19.0812  -27.2031 H   0  0  0  0  0  0  0  0  0  0  0  0
    0.6169   20.6419  -27.2369 H   0  0  0  0  0  0  0  0  0  0  0  0
    0.2625   23.0794  -27.6511 H   0  0  0  0  0  0  0  0  0  0  0  0
   -4.8910   25.4710  -28.2890 H   0  0  0  0  0  0  0  0  0  0  0  0
   -7.1226   23.3452  -30.2066 H   0  0  0  0  0  0  0  0  0  0  0  0
   -7.5679   21.4063  -31.5830 H   0  0  0  0  0  0  0  0  0  0  0  0
   -6.9567   21.9593  -33.1803 H   0  0  0  0  0  0  0  0  0  0  0  0
   -5.6445   17.1700  -30.7263 H   0  0  0  0  0  0  0  0  0  0  0  0
  1  2  1  0
  2  3  1  0
  3  4  2  0
  4  5  1  0
  5  6  2  0
  6  7  1  0
  7  8  1  0
  8  9  2  0
  8 10  1  0
 10 11  1  0
 11 12  1  0
 12 13  1  0
 13 14  2  0
 14 15  1  0
 15 16  1  0
 16 17  1  0
 17 18  2  0
 17 19  2  0
 17 20  1  0
 20 21  2  0
 21 22  1  0
 22 23  2  0
 23 24  1  0
 24 25  2  0
 15 26  2  0
 26 27  1  0
 26 28  1  0
 28 29  2  0
 29 30  1  0
  7 31  2  0
 31  3  1  0
 30 10  1  0
 29 13  1  0
 25 20  1  0
  1 32  1  0
  1 33  1  0
  1 34  1  0
  4 35  1  0
  5 36  1  0
  6 37  1  0
 11 38  1  0
 11 39  1  0
 12 40  1  0
 12 41  1  0
 14 42  1  0
 21 43  1  0
 22 44  1  0
 23 45  1  0
 24 46  1  0
 25 47  1  0
 27 48  1  0
 28 49  1  0
 30 50  1  0
 30 51  1  0
 31 52  1  0
M  CHG  1  16  -1
M  END
>  <UniqueID>  (7) 
7

>  <SMILES>  (7) 
COc1cccc(C(=O)N2CCc3cc([N-]S(=O)(=O)c4ccccc4)c(O)cc3C2)c1

>  <Energy>  (7) 
71.47025263210851

>  <Genealogy>  (7) 
COc1cccc(C(=O)N2CCc3cc([N-]S(=O)(=O)c4ccccc4)c(O)cc3C2)c1 (protonated)
COc1cccc(C(=O)N2CCc3cc([N-]S(=O)(=O)c4ccccc4)c(O)cc3C2)c1 (3D coordinates assigned)
COc1cccc(C(=O)N2CCc3cc([N-]S(=O)(=O)c4ccccc4)c(O)cc3C2)c1 (nonaromatic ring conformer: 71.47025263210851 kcal/mol)

>  <smiles>  (7) 
COc1cccc(C(=O)N2CCc3cc(NS(=O)(=O)c4ccccc4)c(O)cc3C2)c1

>  <score_type>  (7) 
oracle

>  <origin>  (7) 
adgpu

>  <m_score__min__energy>  (7) 
-11.06

>  <m_primary>  (7) 
energy

$$$$
7:0
     RDKit          3D

 32 33  0  0  0  0  0  0  0  0999 V2000
   -4.0090   25.6180  -30.5970 O   0  0  0  0  0  0  0  0  0  0  0  0
   -3.8880   24.3670  -30.4800 C   0  0  0  0  0  0  0  0  0  0  0  0
   -4.6010   23.5030  -31.3730 N   0  0  0  0  0  0  0  0  0  0  0  0
   -5.9350   23.7870  -31.8960 C   0  0  0  0  0  0  0  0  0  0  0  0
   -7.0150   23.1250  -31.0320 C   0  0  0  0  0  0  0  0  0  0  0  0
   -7.5170   21.8410  -31.6420 C   0  0  0  0  0  0  0  0  0  0  0  0
   -8.6830   21.2300  -31.1520 C   0  0  0  0  0  0  0  0  0  0  0  0
   -9.1190   20.0140  -31.6870 C   0  0  0  0  0  0  0  0  0  0  0  0
   -8.3950   19.4000  -32.7130 C   0  0  0  0  0  0  0  0  0  0  0  0
   -7.2300   20.0010  -33.2070 C   0  0  0  0  0  0  0  0  0  0  0  0
   -6.4980   19.3960  -34.2270 O   0  0  0  0  0  0  0  0  0  0  0  0
   -6.7920   21.2160  -32.6710 C   0  0  0  0  0  0  0  0  0  0  0  0
   -3.0130   23.7910  -29.4260 C   0  0  0  0  0  0  0  0  0  0  0  0
   -3.2620   22.4900  -28.9480 C   0  0  0  0  0  0  0  0  0  0  0  0
   -2.4490   21.9230  -27.9610 C   0  0  0  0  0  0  0  0  0  0  0  0
   -2.7090   20.6390  -27.4990 O   0  0  0  0  0  0  0  0  0  0  0  0
   -1.3750   22.6460  -27.4400 C   0  0  0  0  0  0  0  0  0  0  0  0
   -1.1110   23.9350  -27.9040 C   0  0  0  0  0  0  0  0  0  0  0  0
   -1.9180   24.5110  -28.8920 C   0  0  0  0  0  0  0  0  0  0  0  0
   -1.6130   25.7950  -29.3340 O   0  0  0  0  0  0  0  0  0  0  0  0
   -6.0953   24.8752  -31.9014 H   0  0  0  0  0  0  0  0  0  0  0  0
   -6.0053   23.3827  -32.9166 H   0  0  0  0  0  0  0  0  0  0  0  0
   -6.5918   22.9057  -30.0406 H   0  0  0  0  0  0  0  0  0  0  0  0
   -7.8639   23.8204  -30.9569 H   0  0  0  0  0  0  0  0  0  0  0  0
   -9.2552   21.7099  -30.3444 H   0  0  0  0  0  0  0  0  0  0  0  0
  -10.0330   19.5399  -31.3000 H   0  0  0  0  0  0  0  0  0  0  0  0
   -8.7404   18.4438  -33.1330 H   0  0  0  0  0  0  0  0  0  0  0  0
   -6.8840   19.2730  -35.1550 H   0  0  0  0  0  0  0  0  0  0  0  0
   -5.8749   21.6852  -33.0569 H   0  0  0  0  0  0  0  0  0  0  0  0
   -4.1054   21.9131  -29.3554 H   0  0  0  0  0  0  0  0  0  0  0  0
   -0.7366   22.1995  -26.6634 H   0  0  0  0  0  0  0  0  0  0  0  0
   -0.2637   24.5019  -27.4910 H   0  0  0  0  0  0  0  0  0  0  0  0
  1  2  2  0
  2  3  1  0
  3  4  1  0
  4  5  1  0
  5  6  1  0
  6  7  2  0
  7  8  1  0
  8  9  2  0
  9 10  1  0
 10 11  1  0
 10 12  2  0
  2 13  1  0
 13 14  2  0
 14 15  1  0
 15 16  1  0
 15 17  2  0
 17 18  1  0
 18 19  2  0
 19 20  1  0
 12  6  1  0
 19 13  1  0
  4 21  1  0
  4 22  1  0
  5 23  1  0
  5 24  1  0
  7 25  1  0
  8 26  1  0
  9 27  1  0
 11 28  1  0
 12 29  1  0
 14 30  1  0
 17 31  1  0
 18 32  1  0
M  CHG  3   3  -1  16  -1  20  -1
M  END
>  <UniqueID>  (8) 
8

>  <SMILES>  (8) 
O=C([N-]CCc1cccc(O)c1)c1cc([O-])ccc1[O-]

>  <Energy>  (8) 
30.45283102478881

>  <Genealogy>  (8) 
O=C([N-]CCc1cccc(O)c1)c1cc([O-])ccc1[O-] (protonated)
O=C([N-]CCc1cccc(O)c1)c1cc([O-])ccc1[O-] (3D coordinates assigned)
O=C([N-]CCc1cccc(O)c1)c1cc([O-])ccc1[O-] (optimized conformer: 30.45283102478881 kcal/mol)

>  <smiles>  (8) 
O=C(NCCc1cccc(O)c1)c1cc(O)ccc1O

>  <score_type>  (8) 
oracle

>  <origin>  (8) 
adgpu

>  <m_score__min__energy>  (8) 
-11.26

>  <m_primary>  (8) 
energy

$$$$
8:0
     RDKit          3D

 29 31  0  0  0  0  0  0  0  0999 V2000
   -3.8660   26.5460  -30.2950 H   0  0  0  0  0  0  0  0  0  0  0  0
   -4.1320   25.6820  -30.7510 O   0  0  0  0  0  0  0  0  0  0  0  0
   -3.5040   24.4740  -30.4480 C   0  0  0  0  0  0  0  0  0  0  0  0
   -3.9410   23.2790  -31.0350 C   0  0  0  0  0  0  0  0  0  0  0  0
   -4.7853   23.2931  -31.7400 H   0  0  0  0  0  0  0  0  0  0  0  0
   -3.3060   22.0600  -30.7280 C   0  0  0  0  0  0  0  0  0  0  0  0
   -3.7460   20.7880  -31.3350 C   0  0  0  0  0  0  0  0  0  0  0  0
   -3.6415   19.8514  -30.7677 H   0  0  0  0  0  0  0  0  0  0  0  0
   -4.2540   20.7600  -32.5280 N   0  0  0  0  0  0  0  0  0  0  0  0
   -4.6970   19.5790  -33.1520 N   0  0  0  0  0  0  0  0  0  0  0  0
   -5.9390   19.0580  -33.0930 C   0  0  0  0  0  0  0  0  0  0  0  0
   -7.1310   19.7030  -32.5140 C   0  0  0  0  0  0  0  0  0  0  0  0
   -7.3000   21.0070  -32.4980 O   0  0  0  0  0  0  0  0  0  0  0  0
   -8.4440   21.2800  -31.9150 C   0  0  0  0  0  0  0  0  0  0  0  0
   -8.8520   22.2899  -31.7612 H   0  0  0  0  0  0  0  0  0  0  0  0
   -9.0560   20.1080  -31.5250 C   0  0  0  0  0  0  0  0  0  0  0  0
  -10.0234   20.0077  -31.0111 H   0  0  0  0  0  0  0  0  0  0  0  0
   -8.2130   19.0870  -31.9080 C   0  0  0  0  0  0  0  0  0  0  0  0
   -8.3676   18.0077  -31.7626 H   0  0  0  0  0  0  0  0  0  0  0  0
   -5.9700   17.8230  -33.6350 N   0  0  0  0  0  0  0  0  0  0  0  0
   -4.7350   17.5320  -34.0230 N   0  0  0  0  0  0  0  0  0  0  0  0
   -3.9680   18.5970  -33.7240 C   0  0  0  0  0  0  0  0  0  0  0  0
   -2.3370   18.5820  -33.8700 S   0  0  0  0  0  0  0  0  0  0  0  0
   -2.2300   22.0580  -29.8270 C   0  0  0  0  0  0  0  0  0  0  0  0
   -1.7259   21.1121  -29.5798 H   0  0  0  0  0  0  0  0  0  0  0  0
   -1.7950   23.2500  -29.2420 C   0  0  0  0  0  0  0  0  0  0  0  0
   -0.9509   23.2385  -28.5368 H   0  0  0  0  0  0  0  0  0  0  0  0
   -2.4290   24.4570  -29.5500 C   0  0  0  0  0  0  0  0  0  0  0  0
   -1.9890   25.6380  -28.9640 O   0  0  0  0  0  0  0  0  0  0  0  0
  1  2  1  0
  2  3  1  0
  3  4  2  0
  4  5  1  0
  4  6  1  0
  6  7  1  0
  7  8  1  0
  7  9  2  0
  9 10  1  0
 10 11  1  0
 11 12  1  0
 12 13  1  0
 13 14  1  0
 14 15  1  0
 14 16  2  0
 16 17  1  0
 16 18  1  0
 18 19  1  0
 11 20  2  0
 20 21  1  0
 21 22  1  0
 22 23  2  0
  6 24  2  0
 24 25  1  0
 24 26  1  0
 26 27  1  0
 26 28  2  0
 28 29  1  0
 28  3  1  0
 22 10  1  0
 18 12  2  0
M  CHG  2  21  -1  29  -1
M  END
>  <UniqueID>  (9) 
9

>  <SMILES>  (9) 
[O-]c1ccc(/C=N/n2c(-c3ccco3)n[n-]c2=S)cc1O

>  <Energy>  (9) 
99.90304676096589

>  <Genealogy>  (9) 
[O-]c1ccc(C=Nn2c(-c3ccco3)n[n-]c2=S)cc1O (protonated)
[O-]c1ccc(/C=N/n2c(-c3ccco3)n[n-]c2=S)cc1O (cis-trans isomerization)
[O-]c1ccc(/C=N/n2c(-c3ccco3)n[n-]c2=S)cc1O (3D coordinates assigned)
[O-]c1ccc(/C=N/n2c(-c3ccco3)n[n-]c2=S)cc1O (optimized conformer: 99.90304676096589 kcal/mol)

>  <smiles>  (9) 
Oc1ccc(C=Nn2c(-c3ccco3)n[nH]c2=S)cc1O

>  <score_type>  (9) 
oracle

>  <origin>  (9) 
adgpu

>  <m_score__min__energy>  (9) 
-10.44

>  <m_primary>  (9) 
energy

$$$$
9:0
     RDKit          3D

 59 63  0  0  0  0  0  0  0  0999 V2000
   -8.7250   22.1440  -31.4110 C   0  0  0  0  0  0  0  0  0  0  0  0
   -7.3370   22.4570  -30.9220 C   0  0  0  0  0  0  0  0  0  0  0  0
   -7.1600   23.5160  -30.0160 C   0  0  0  0  0  0  0  0  0  0  0  0
   -5.8820   23.8670  -29.5730 C   0  0  0  0  0  0  0  0  0  0  0  0
   -4.7670   23.1420  -30.0040 C   0  0  0  0  0  0  0  0  0  0  0  0
   -3.4130   23.5450  -29.5970 C   0  0  0  0  0  0  0  0  0  0  0  0
   -3.0750   24.8590  -29.6860 N   0  0  0  0  0  0  0  0  0  0  0  0
   -1.8730   25.3030  -29.3190 N   0  0  0  0  0  0  0  0  0  0  0  0
   -0.9180   24.4650  -28.8370 C   0  0  0  0  0  0  0  0  0  0  0  0
    0.2050   24.9370  -28.5080 O   0  0  0  0  0  0  0  0  0  0  0  0
   -1.1970   23.0930  -28.7050 C   0  0  0  0  0  0  0  0  0  0  0  0
   -0.2430   22.1910  -28.1970 C   0  0  0  0  0  0  0  0  0  0  0  0
   -0.5570   20.8350  -28.0500 C   0  0  0  0  0  0  0  0  0  0  0  0
   -1.8260   20.3700  -28.3910 C   0  0  0  0  0  0  0  0  0  0  0  0
   -2.7820   21.2520  -28.9090 C   0  0  0  0  0  0  0  0  0  0  0  0
   -2.4760   22.6190  -29.0800 C   0  0  0  0  0  0  0  0  0  0  0  0
   -4.9330   22.0630  -30.8760 C   0  0  0  0  0  0  0  0  0  0  0  0
   -6.2020   21.7430  -31.3850 C   0  0  0  0  0  0  0  0  0  0  0  0
   -6.3140   20.4740  -32.6200 S   0  0  0  0  0  0  0  0  0  0  0  0
   -6.3820   19.1370  -31.9310 O   0  0  0  0  0  0  0  0  0  0  0  0
   -7.5390   20.6540  -33.4740 O   0  0  0  0  0  0  0  0  0  0  0  0
   -4.9200   20.5070  -33.6580 N   0  0  0  0  0  0  0  0  0  0  0  0
   -3.6890   19.8140  -33.3720 C   0  0  0  0  0  0  0  0  0  0  0  0
   -3.5920   18.4110  -33.4490 C   0  0  0  0  0  0  0  0  0  0  0  0
   -2.3710   17.7750  -33.2120 C   0  0  0  0  0  0  0  0  0  0  0  0
   -1.2400   18.5260  -32.8870 C   0  0  0  0  0  0  0  0  0  0  0  0
   -1.3250   19.9200  -32.7840 C   0  0  0  0  0  0  0  0  0  0  0  0
    0.0980   20.8660  -32.3420 S   0  0  0  0  0  0  0  0  0  0  0  0
   -0.3140   21.9850  -31.4250 O   0  0  0  0  0  0  0  0  0  0  0  0
    1.0610   19.9860  -31.5930 O   0  0  0  0  0  0  0  0  0  0  0  0
    0.8970   21.5410  -33.7480 N   0  0  0  0  0  0  0  0  0  0  0  0
    1.8710   20.5950  -34.3090 C   0  0  0  0  0  0  0  0  0  0  0  0
    1.2370   19.8990  -35.5090 C   0  0  0  0  0  0  0  0  0  0  0  0
   -0.0350   20.6660  -35.8090 C   0  0  0  0  0  0  0  0  0  0  0  0
   -0.0680   21.8210  -34.8180 C   0  0  0  0  0  0  0  0  0  0  0  0
   -2.5490   20.5580  -33.0320 C   0  0  0  0  0  0  0  0  0  0  0  0
   -9.3921   21.9936  -30.5494 H   0  0  0  0  0  0  0  0  0  0  0  0
   -9.0964   22.9809  -32.0206 H   0  0  0  0  0  0  0  0  0  0  0  0
   -8.7013   21.2286  -32.0206 H   0  0  0  0  0  0  0  0  0  0  0  0
   -8.0353   24.0739  -29.6520 H   0  0  0  0  0  0  0  0  0  0  0  0
   -5.7531   24.7149  -28.8842 H   0  0  0  0  0  0  0  0  0  0  0  0
    0.7559   22.5543  -27.9137 H   0  0  0  0  0  0  0  0  0  0  0  0
    0.1990   20.1350  -27.6647 H   0  0  0  0  0  0  0  0  0  0  0  0
   -2.0769   19.3079  -28.2529 H   0  0  0  0  0  0  0  0  0  0  0  0
   -3.7786   20.8768  -29.1846 H   0  0  0  0  0  0  0  0  0  0  0  0
   -4.0612   21.4584  -31.1666 H   0  0  0  0  0  0  0  0  0  0  0  0
   -5.0280   20.9860  -34.5800 H   0  0  0  0  0  0  0  0  0  0  0  0
   -4.4816   17.8134  -33.6969 H   0  0  0  0  0  0  0  0  0  0  0  0
   -2.3006   16.6795  -33.2817 H   0  0  0  0  0  0  0  0  0  0  0  0
   -0.2787   18.0210  -32.7112 H   0  0  0  0  0  0  0  0  0  0  0  0
    2.7728   21.1376  -34.6290 H   0  0  0  0  0  0  0  0  0  0  0  0
    2.1537   19.8515  -33.5492 H   0  0  0  0  0  0  0  0  0  0  0  0
    1.9165   19.9317  -36.3734 H   0  0  0  0  0  0  0  0  0  0  0  0
    1.0298   18.8394  -35.2986 H   0  0  0  0  0  0  0  0  0  0  0  0
   -0.0179   21.0472  -36.8407 H   0  0  0  0  0  0  0  0  0  0  0  0
   -0.9248   20.0263  -35.7141 H   0  0  0  0  0  0  0  0  0  0  0  0
    0.2044   22.7565  -35.3285 H   0  0  0  0  0  0  0  0  0  0  0  0
   -1.0785   21.9290  -34.3969 H   0  0  0  0  0  0  0  0  0  0  0  0
   -2.6161   21.6535  -32.9592 H   0  0  0  0  0  0  0  0  0  0  0  0
  1  2  1  0
  2  3  2  0
  3  4  1  0
  4  5  2  0
  5  6  1  0
  6  7  2  0
  7  8  1  0
  8  9  1  0
  9 10  2  0
  9 11  1  0
 11 12  2  0
 12 13  1  0
 13 14  2  0
 14 15  1  0
 15 16  2  0
  5 17  1  0
 17 18  2  0
 18 19  1  0
 19 20  2  0
 19 21  2  0
 19 22  1  0
 22 23  1  0
 23 24  2  0
 24 25  1  0
 25 26  2  0
 26 27  1  0
 27 28  1  0
 28 29  2  0
 28 30  2  0
 28 31  1  0
 31 32  1  0
 32 33  1  0
 33 34  1  0
 34 35  1  0
 27 36  2  0
 18  2  1  0
 36 23  1  0
 16  6  1  0
 35 31  1  0
 16 11  1  0
  1 37  1  0
  1 38  1  0
  1 39  1  0
  3 40  1  0
  4 41  1  0
 12 42  1  0
 13 43  1  0
 14 44  1  0
 15 45  1  0
 17 46  1  0
 22 47  1  0
 24 48  1  0
 25 49  1  0
 26 50  1  0
 32 51  1  0
 32 52  1  0
 33 53  1  0
 33 54  1  0
 34 55  1  0
 34 56  1  0
 35 57  1  0
 35 58  1  0
 36 59  1  0
M  CHG  1   8  -1
M  END
>  <UniqueID>  (10) 
10

>  <SMILES>  (10) 
Cc1ccc(-c2n[n-]c(=O)c3ccccc23)cc1S(=O)(=O)Nc1cccc(S(=O)(=O)N2CCCC2)c1

>  <Energy>  (10) 
81.55823123039673

>  <Genealogy>  (10) 
Cc1ccc(-c2n[n-]c(=O)c3ccccc23)cc1S(=O)(=O)Nc1cccc(S(=O)(=O)N2CCCC2)c1 (protonated)
Cc1ccc(-c2n[n-]c(=O)c3ccccc23)cc1S(=O)(=O)Nc1cccc(S(=O)(=O)N2CCCC2)c1 (3D coordinates assigned)
Cc1ccc(-c2n[n-]c(=O)c3ccccc23)cc1S(=O)(=O)Nc1cccc(S(=O)(=O)N2CCCC2)c1 (nonaromatic ring conformer: 81.55823123039673 kcal/mol)

>  <smiles>  (10) 
Cc1ccc(-c2n[nH]c(=O)c3ccccc23)cc1S(=O)(=O)Nc1cccc(S(=O)(=O)N2CCCC2)c1

>  <score_type>  (10) 
oracle

>  <origin>  (10) 
adgpu

>  <m_score__min__energy>  (10) 
-13.06

>  <m_primary>  (10) 
energy

$$$$
10:0
     RDKit          3D

 55 58  0  0  0  0  0  0  0  0999 V2000
   -6.9570   16.9140  -33.1980 C   0  0  0  0  0  0  0  0  0  0  0  0
   -6.0010   18.0760  -33.2700 C   0  0  0  0  0  0  0  0  0  0  0  0
   -4.7040   17.8240  -33.7420 C   0  0  0  0  0  0  0  0  0  0  0  0
   -3.7710   18.8500  -33.8470 C   0  0  0  0  0  0  0  0  0  0  0  0
   -4.1140   20.1550  -33.5050 C   0  0  0  0  0  0  0  0  0  0  0  0
   -3.1150   21.1770  -33.6350 N   0  0  0  0  0  0  0  0  0  0  0  0
   -2.5400   21.9020  -32.5430 C   0  0  0  0  0  0  0  0  0  0  0  0
   -1.2980   21.8350  -32.3470 O   0  0  0  0  0  0  0  0  0  0  0  0
   -3.3690   22.7010  -31.6910 N   0  0  0  0  0  0  0  0  0  0  0  0
   -3.1870   22.8870  -30.2840 C   0  0  0  0  0  0  0  0  0  0  0  0
   -2.8680   21.7730  -29.5000 C   0  0  0  0  0  0  0  0  0  0  0  0
   -2.6460   21.9070  -28.1240 C   0  0  0  0  0  0  0  0  0  0  0  0
   -2.2650   20.4880  -27.1410 S   0  0  0  0  0  0  0  0  0  0  0  0
   -1.5460   20.9320  -25.8980 O   0  0  0  0  0  0  0  0  0  0  0  0
   -3.5470   19.8240  -26.7250 O   0  0  0  0  0  0  0  0  0  0  0  0
   -1.2670   19.3270  -27.9840 N   0  0  0  0  0  0  0  0  0  0  0  0
   -0.7880   18.2670  -27.1000 C   0  0  0  0  0  0  0  0  0  0  0  0
    0.4810   17.7260  -27.7340 C   0  0  0  0  0  0  0  0  0  0  0  0
    0.9870   18.8440  -28.6330 C   0  0  0  0  0  0  0  0  0  0  0  0
   -0.0670   19.9400  -28.5500 C   0  0  0  0  0  0  0  0  0  0  0  0
   -2.7470   23.1720  -27.5300 C   0  0  0  0  0  0  0  0  0  0  0  0
   -3.0430   24.2930  -28.3090 C   0  0  0  0  0  0  0  0  0  0  0  0
   -3.2510   24.1610  -29.6860 C   0  0  0  0  0  0  0  0  0  0  0  0
   -3.4850   25.2980  -30.4500 O   0  0  0  0  0  0  0  0  0  0  0  0
   -5.4310   20.4490  -33.0990 C   0  0  0  0  0  0  0  0  0  0  0  0
   -5.7980   21.7910  -32.9630 O   0  0  0  0  0  0  0  0  0  0  0  0
   -6.3620   19.3990  -32.8830 C   0  0  0  0  0  0  0  0  0  0  0  0
   -7.9220   19.7660  -32.0930 S   0  0  0  0  0  0  0  0  0  0  0  0
   -8.3680   18.6570  -31.1840 O   0  0  0  0  0  0  0  0  0  0  0  0
   -8.9690   19.9710  -33.1520 O   0  0  0  0  0  0  0  0  0  0  0  0
   -7.7260   21.2280  -31.0650 C   0  0  0  0  0  0  0  0  0  0  0  0
   -9.0380   21.7680  -30.5160 C   0  0  0  0  0  0  0  0  0  0  0  0
   -8.3080   22.5240  -31.6120 C   0  0  0  0  0  0  0  0  0  0  0  0
   -7.1582   16.6694  -32.1446 H   0  0  0  0  0  0  0  0  0  0  0  0
   -7.8990   17.1827  -33.6984 H   0  0  0  0  0  0  0  0  0  0  0  0
   -6.5119   16.0414  -33.6984 H   0  0  0  0  0  0  0  0  0  0  0  0
   -4.4214   16.8015  -34.0328 H   0  0  0  0  0  0  0  0  0  0  0  0
   -2.7541   18.6285  -34.2031 H   0  0  0  0  0  0  0  0  0  0  0  0
   -2.7908   20.7813  -29.9696 H   0  0  0  0  0  0  0  0  0  0  0  0
   -0.5717   18.6729  -26.1008 H   0  0  0  0  0  0  0  0  0  0  0  0
   -1.5428   17.4763  -26.9776 H   0  0  0  0  0  0  0  0  0  0  0  0
    1.2259   17.4857  -26.9611 H   0  0  0  0  0  0  0  0  0  0  0  0
    0.2962   16.7988  -28.2962 H   0  0  0  0  0  0  0  0  0  0  0  0
    1.9580   19.2162  -28.2744 H   0  0  0  0  0  0  0  0  0  0  0  0
    1.1382   18.5001  -29.6669 H   0  0  0  0  0  0  0  0  0  0  0  0
    0.2844   20.7554  -27.9007 H   0  0  0  0  0  0  0  0  0  0  0  0
   -0.2719   20.3678  -29.5425 H   0  0  0  0  0  0  0  0  0  0  0  0
   -2.5927   23.2827  -26.4465 H   0  0  0  0  0  0  0  0  0  0  0  0
   -3.1129   25.2843  -27.8374 H   0  0  0  0  0  0  0  0  0  0  0  0
   -5.1410   22.5590  -32.9920 H   0  0  0  0  0  0  0  0  0  0  0  0
   -6.7467   20.9436  -30.6525 H   0  0  0  0  0  0  0  0  0  0  0  0
   -9.9823   21.2504  -30.7404 H   0  0  0  0  0  0  0  0  0  0  0  0
   -9.4152   22.0230  -29.5146 H   0  0  0  0  0  0  0  0  0  0  0  0
   -8.7234   22.5537  -32.6301 H   0  0  0  0  0  0  0  0  0  0  0  0
   -7.9376   23.5527  -31.7330 H   0  0  0  0  0  0  0  0  0  0  0  0
  1  2  1  0
  2  3  2  0
  3  4  1  0
  4  5  2  0
  5  6  1  0
  6  7  1  0
  7  8  2  0
  7  9  1  0
  9 10  1  0
 10 11  2  0
 11 12  1  0
 12 13  1  0
 13 14  2  0
 13 15  2  0
 13 16  1  0
 16 17  1  0
 17 18  1  0
 18 19  1  0
 19 20  1  0
 12 21  2  0
 21 22  1  0
 22 23  2  0
 23 24  1  0
  5 25  1  0
 25 26  1  0
 25 27  2  0
 27 28  1  0
 28 29  2  0
 28 30  2  0
 28 31  1  0
 31 32  1  0
 32 33  1  0
 27  2  1  0
 33 31  1  0
 23 10  1  0
 20 16  1  0
  1 34  1  0
  1 35  1  0
  1 36  1  0
  3 37  1  0
  4 38  1  0
 11 39  1  0
 17 40  1  0
 17 41  1  0
 18 42  1  0
 18 43  1  0
 19 44  1  0
 19 45  1  0
 20 46  1  0
 20 47  1  0
 21 48  1  0
 22 49  1  0
 26 50  1  0
 31 51  1  0
 32 52  1  0
 32 53  1  0
 33 54  1  0
 33 55  1  0
M  CHG  3   6  -1   9  -1  24  -1
M  END
>  <UniqueID>  (11) 
11

>  <SMILES>  (11) 
Cc1ccc([N-]C(=O)[N-]c2cc(S(=O)(=O)N3CCCC3)ccc2[O-])c(O)c1S(=O)(=O)C1CC1

>  <Energy>  (11) 
336.1409588568608

>  <Genealogy>  (11) 
Cc1ccc([N-]C(=O)[N-]c2cc(S(=O)(=O)N3CCCC3)ccc2[O-])c(O)c1S(=O)(=O)C1CC1 (protonated)
Cc1ccc([N-]C(=O)[N-]c2cc(S(=O)(=O)N3CCCC3)ccc2[O-])c(O)c1S(=O)(=O)C1CC1 (3D coordinates assigned)
Cc1ccc([N-]C(=O)[N-]c2cc(S(=O)(=O)N3CCCC3)ccc2[O-])c(O)c1S(=O)(=O)C1CC1 (nonaromatic ring conformer: 336.1409588568608 kcal/mol)

>  <smiles>  (11) 
Cc1ccc(NC(=O)Nc2cc(S(=O)(=O)N3CCCC3)ccc2O)c(O)c1S(=O)(=O)C1CC1

>  <score_type>  (11) 
oracle

>  <origin>  (11) 
adgpu

>  <m_score__min__energy>  (11) 
-14.81

>  <m_primary>  (11) 
energy

$$$$
11:0
     RDKit          3D

 33 35  0  0  0  0  0  0  0  0999 V2000
   -6.1100   25.6390  -29.3450 C   0  0  0  0  0  0  0  0  0  0  0  0
   -6.1810   24.4690  -30.2730 C   0  0  0  0  0  0  0  0  0  0  0  0
   -5.0170   23.9320  -30.8320 C   0  0  0  0  0  0  0  0  0  0  0  0
   -5.1340   22.8560  -31.7190 C   0  0  0  0  0  0  0  0  0  0  0  0
   -3.9200   22.2680  -32.3630 C   0  0  0  0  0  0  0  0  0  0  0  0
   -6.3670   22.3810  -32.0410 N   0  0  0  0  0  0  0  0  0  0  0  0
   -7.4880   22.9190  -31.4940 C   0  0  0  0  0  0  0  0  0  0  0  0
   -9.1030   22.3070  -31.9700 S   0  0  0  0  0  0  0  0  0  0  0  0
   -8.9110   20.6970  -31.1280 C   0  0  0  0  0  0  0  0  0  0  0  0
   -7.9800   19.8070  -31.8910 C   0  0  0  0  0  0  0  0  0  0  0  0
   -7.7880   18.4980  -31.5790 N   0  0  0  0  0  0  0  0  0  0  0  0
   -6.9860   18.0730  -32.5730 C   0  0  0  0  0  0  0  0  0  0  0  0
   -6.4860   16.7880  -32.7740 C   0  0  0  0  0  0  0  0  0  0  0  0
   -5.6920   16.5680  -33.9170 C   0  0  0  0  0  0  0  0  0  0  0  0
   -5.4290   17.6230  -34.8210 C   0  0  0  0  0  0  0  0  0  0  0  0
   -5.9540   18.9080  -34.5880 C   0  0  0  0  0  0  0  0  0  0  0  0
   -6.7260   19.0890  -33.4430 C   0  0  0  0  0  0  0  0  0  0  0  0
   -7.3470   20.1980  -33.0260 N   0  0  0  0  0  0  0  0  0  0  0  0
   -7.3900   23.9510  -30.6150 N   0  0  0  0  0  0  0  0  0  0  0  0
   -6.1316   25.2834  -28.3043 H   0  0  0  0  0  0  0  0  0  0  0  0
   -5.1766   26.1928  -29.5240 H   0  0  0  0  0  0  0  0  0  0  0  0
   -6.9696   26.3016  -29.5240 H   0  0  0  0  0  0  0  0  0  0  0  0
   -4.0300   24.3468  -30.5797 H   0  0  0  0  0  0  0  0  0  0  0  0
   -3.2201   21.9290  -31.5851 H   0  0  0  0  0  0  0  0  0  0  0  0
   -4.2148   21.4128  -32.9889 H   0  0  0  0  0  0  0  0  0  0  0  0
   -3.4318   23.0295  -32.9889 H   0  0  0  0  0  0  0  0  0  0  0  0
   -8.5053   20.8635  -30.1192 H   0  0  0  0  0  0  0  0  0  0  0  0
   -9.8955   20.2100  -31.0686 H   0  0  0  0  0  0  0  0  0  0  0  0
   -6.7033   15.9747  -32.0659 H   0  0  0  0  0  0  0  0  0  0  0  0
   -5.2738   15.5686  -34.1074 H   0  0  0  0  0  0  0  0  0  0  0  0
   -4.8104   17.4384  -35.7117 H   0  0  0  0  0  0  0  0  0  0  0  0
   -5.7618   19.7379  -35.2839 H   0  0  0  0  0  0  0  0  0  0  0  0
   -7.3720   21.1330  -33.4900 H   0  0  0  0  0  0  0  0  0  0  0  0
  1  2  1  0
  2  3  2  0
  3  4  1  0
  4  5  1  0
  4  6  2  0
  6  7  1  0
  7  8  1  0
  8  9  1  0
  9 10  1  0
 10 11  2  0
 11 12  1  0
 12 13  2  0
 13 14  1  0
 14 15  2  0
 15 16  1  0
 16 17  2  0
 17 18  1  0
  7 19  2  0
 19  2  1  0
 18 10  1  0
 17 12  1  0
  1 20  1  0
  1 21  1  0
  1 22  1  0
  3 23  1  0
  5 24  1  0
  5 25  1  0
  5 26  1  0
  9 27  1  0
  9 28  1  0
 13 29  1  0
 14 30  1  0
 15 31  1  0
 16 32  1  0
 18 33  1  0
M  END
>  <UniqueID>  (12) 
12

>  <SMILES>  (12) 
Cc1cc(C)nc(SCc2nc3ccccc3[nH]2)n1

>  <Energy>  (12) 
63.3193729400426

>  <Genealogy>  (12) 
Cc1cc(C)nc(SCc2nc3ccccc3[nH]2)n1 (3D coordinates assigned)
Cc1cc(C)nc(SCc2nc3ccccc3[nH]2)n1 (optimized conformer: 63.3193729400426 kcal/mol)

>  <smiles>  (12) 
Cc1cc(C)nc(SCc2nc3ccccc3[nH]2)n1

>  <score_type>  (12) 
oracle

>  <origin>  (12) 
adgpu

>  <m_score__min__energy>  (12) 
-7.2400000000000002

>  <m_primary>  (12) 
energy

$$$$
12:0
     RDKit          3D

 63 66  0  0  0  0  0  0  0  0999 V2000
   -6.1520   25.3980  -29.7200 C   0  0  0  0  0  0  0  0  0  0  0  0
   -5.1930   24.7170  -30.6950 C   0  0  0  0  0  0  0  0  0  0  0  0
   -3.8630   25.3230  -30.5980 N   0  0  0  0  0  0  0  0  0  0  0  0
   -2.8350   24.4060  -29.5360 S   0  0  0  0  0  0  0  0  0  0  0  0
   -3.6290   23.9120  -28.3580 O   0  0  0  0  0  0  0  0  0  0  0  0
   -1.7250   25.2910  -29.0430 O   0  0  0  0  0  0  0  0  0  0  0  0
   -2.1370   23.0480  -30.4180 C   0  0  0  0  0  0  0  0  0  0  0  0
   -0.8060   22.6930  -30.1910 C   0  0  0  0  0  0  0  0  0  0  0  0
   -0.2450   21.6100  -30.8660 C   0  0  0  0  0  0  0  0  0  0  0  0
   -1.0020   20.8630  -31.7770 C   0  0  0  0  0  0  0  0  0  0  0  0
   -0.1870   19.4560  -32.5540 S   0  0  0  0  0  0  0  0  0  0  0  0
    0.8600   20.4490  -33.6200 C   0  0  0  0  0  0  0  0  0  0  0  0
    2.1840   20.0730  -33.8690 C   0  0  0  0  0  0  0  0  0  0  0  0
    2.9770   20.8330  -34.7330 C   0  0  0  0  0  0  0  0  0  0  0  0
    2.4510   21.9630  -35.3790 C   0  0  0  0  0  0  0  0  0  0  0  0
    3.3130   22.7160  -36.3200 C   0  0  0  0  0  0  0  0  0  0  0  0
    4.0970   22.0750  -37.0720 O   0  0  0  0  0  0  0  0  0  0  0  0
    3.2810   24.1540  -36.3880 N   0  0  0  0  0  0  0  0  0  0  0  0
    3.1920   24.9480  -35.1490 C   0  0  0  0  0  0  0  0  0  0  0  0
    3.2410   26.4480  -35.4510 C   0  0  0  0  0  0  0  0  0  0  0  0
    2.3660   26.7390  -36.5950 N   0  0  0  0  0  0  0  0  0  0  0  0
    1.2990   27.7130  -36.5430 C   0  0  0  0  0  0  0  0  0  0  0  0
    0.5270   27.9070  -35.3820 C   0  0  0  0  0  0  0  0  0  0  0  0
   -0.5120   28.8420  -35.3950 C   0  0  0  0  0  0  0  0  0  0  0  0
   -0.7870   29.5650  -36.5580 C   0  0  0  0  0  0  0  0  0  0  0  0
   -0.0220   29.3350  -37.6980 C   0  0  0  0  0  0  0  0  0  0  0  0
    0.9920   28.4280  -37.6650 N   0  0  0  0  0  0  0  0  0  0  0  0
    2.5980   26.0130  -37.8570 C   0  0  0  0  0  0  0  0  0  0  0  0
    3.5520   24.8250  -37.6690 C   0  0  0  0  0  0  0  0  0  0  0  0
    1.0940   22.3030  -35.1750 C   0  0  0  0  0  0  0  0  0  0  0  0
    0.2960   23.5790  -36.0940 Cl  0  0  0  0  0  0  0  0  0  0  0  0
    0.3150   21.5500  -34.2900 C   0  0  0  0  0  0  0  0  0  0  0  0
   -2.3590   21.2020  -32.0010 C   0  0  0  0  0  0  0  0  0  0  0  0
   -3.3900   20.3160  -33.1370 S   0  0  0  0  0  0  0  0  0  0  0  0
   -4.8520   21.1860  -33.4560 N   0  0  0  0  0  0  0  0  0  0  0  0
   -3.7140   18.9680  -32.5610 O   0  0  0  0  0  0  0  0  0  0  0  0
   -2.6620   20.1240  -34.4400 O   0  0  0  0  0  0  0  0  0  0  0  0
   -2.9090   22.3040  -31.3190 C   0  0  0  0  0  0  0  0  0  0  0  0
   -5.8425   25.1782  -28.6876 H   0  0  0  0  0  0  0  0  0  0  0  0
   -6.1320   26.4853  -29.8852 H   0  0  0  0  0  0  0  0  0  0  0  0
   -7.1720   25.0208  -29.8852 H   0  0  0  0  0  0  0  0  0  0  0  0
   -5.1241   23.6469  -30.4500 H   0  0  0  0  0  0  0  0  0  0  0  0
   -5.5721   24.8424  -31.7200 H   0  0  0  0  0  0  0  0  0  0  0  0
   -0.1985   23.2693  -29.4777 H   0  0  0  0  0  0  0  0  0  0  0  0
    0.8049   21.3389  -30.6808 H   0  0  0  0  0  0  0  0  0  0  0  0
    2.6015   19.1782  -33.3842 H   0  0  0  0  0  0  0  0  0  0  0  0
    4.0235   20.5430  -34.9086 H   0  0  0  0  0  0  0  0  0  0  0  0
    2.2451   24.7147  -34.6400 H   0  0  0  0  0  0  0  0  0  0  0  0
    4.0486   24.6925  -34.5080 H   0  0  0  0  0  0  0  0  0  0  0  0
    2.8966   27.0119  -34.5715 H   0  0  0  0  0  0  0  0  0  0  0  0
    4.2732   26.7434  -35.6905 H   0  0  0  0  0  0  0  0  0  0  0  0
    0.7397   27.3273  -34.4716 H   0  0  0  0  0  0  0  0  0  0  0  0
   -1.1133   29.0084  -34.4890 H   0  0  0  0  0  0  0  0  0  0  0  0
   -1.5985   30.3074  -36.5729 H   0  0  0  0  0  0  0  0  0  0  0  0
   -0.2371   29.8863  -38.6253 H   0  0  0  0  0  0  0  0  0  0  0  0
    1.6347   25.6389  -38.2340 H   0  0  0  0  0  0  0  0  0  0  0  0
    3.0602   26.7108  -38.5708 H   0  0  0  0  0  0  0  0  0  0  0  0
    3.4077   24.1093  -38.4918 H   0  0  0  0  0  0  0  0  0  0  0  0
    4.5885   25.1933  -37.6692 H   0  0  0  0  0  0  0  0  0  0  0  0
   -0.7360   21.8260  -34.1192 H   0  0  0  0  0  0  0  0  0  0  0  0
   -5.3450   20.6820  -34.2270 H   0  0  0  0  0  0  0  0  0  0  0  0
   -4.5860   22.1250  -33.8250 H   0  0  0  0  0  0  0  0  0  0  0  0
   -3.9579   22.5841  -31.4960 H   0  0  0  0  0  0  0  0  0  0  0  0
  1  2  1  0
  2  3  1  0
  3  4  1  0
  4  5  2  0
  4  6  2  0
  4  7  1  0
  7  8  2  0
  8  9  1  0
  9 10  2  0
 10 11  1  0
 11 12  1  0
 12 13  2  0
 13 14  1  0
 14 15  2  0
 15 16  1  0
 16 17  2  0
 16 18  1  0
 18 19  1  0
 19 20  1  0
 20 21  1  0
 21 22  1  0
 22 23  2  0
 23 24  1  0
 24 25  2  0
 25 26  1  0
 26 27  2  0
 21 28  1  0
 28 29  1  0
 15 30  1  0
 30 31  1  0
 30 32  2  0
 10 33  1  0
 33 34  1  0
 34 35  1  0
 34 36  2  0
 34 37  2  0
 33 38  2  0
 38  7  1  0
 32 12  1  0
 29 18  1  0
 27 22  1  0
  1 39  1  0
  1 40  1  0
  1 41  1  0
  2 42  1  0
  2 43  1  0
  8 44  1  0
  9 45  1  0
 13 46  1  0
 14 47  1  0
 19 48  1  0
 19 49  1  0
 20 50  1  0
 20 51  1  0
 23 52  1  0
 24 53  1  0
 25 54  1  0
 26 55  1  0
 28 56  1  0
 28 57  1  0
 29 58  1  0
 29 59  1  0
 32 60  1  0
 35 61  1  0
 35 62  1  0
 38 63  1  0
M  CHG  1   3  -1
M  END
>  <UniqueID>  (13) 
13

>  <SMILES>  (13) 
CC[N-]S(=O)(=O)c1ccc(Sc2ccc(C(=O)N3CCN(c4ccccn4)CC3)c(Cl)c2)c(S(N)(=O)=O)c1

>  <Energy>  (13) 
72.62889532283067

>  <Genealogy>  (13) 
CC[N-]S(=O)(=O)c1ccc(Sc2ccc(C(=O)N3CCN(c4ccccn4)CC3)c(Cl)c2)c(S(N)(=O)=O)c1 (protonated)
CC[N-]S(=O)(=O)c1ccc(Sc2ccc(C(=O)N3CCN(c4ccccn4)CC3)c(Cl)c2)c(S(N)(=O)=O)c1 (3D coordinates assigned)
CC[N-]S(=O)(=O)c1ccc(Sc2ccc(C(=O)N3CCN(c4ccccn4)CC3)c(Cl)c2)c(S(N)(=O)=O)c1 (nonaromatic ring conformer: 72.62889532283067 kcal/mol)

>  <smiles>  (13) 
CCNS(=O)(=O)c1ccc(Sc2ccc(C(=O)N3CCN(c4ccccn4)CC3)c(Cl)c2)c(S(N)(=O)=O)c1

>  <score_type>  (13) 
oracle

>  <origin>  (13) 
adgpu

>  <m_score__min__energy>  (13) 
-11.09

>  <m_primary>  (13) 
energy

$$$$
13:0
     RDKit          3D

 42 43  0  0  0  0  0  0  0  0999 V2000
   -2.2720   24.9170  -28.6670 C   0  0  0  0  0  0  0  0  0  0  0  0
   -3.1680   25.2510  -29.7210 O   0  0  0  0  0  0  0  0  0  0  0  0
   -4.3160   24.5140  -30.0590 C   0  0  0  0  0  0  0  0  0  0  0  0
   -5.6050   24.9500  -29.6960 C   0  0  0  0  0  0  0  0  0  0  0  0
   -6.7310   24.2030  -30.0440 C   0  0  0  0  0  0  0  0  0  0  0  0
   -6.5880   23.0080  -30.7530 C   0  0  0  0  0  0  0  0  0  0  0  0
   -7.9980   22.0480  -31.1930 S   0  0  0  0  0  0  0  0  0  0  0  0
   -8.9270   21.9240  -30.0160 O   0  0  0  0  0  0  0  0  0  0  0  0
   -8.7190   22.7450  -32.3130 O   0  0  0  0  0  0  0  0  0  0  0  0
   -7.4930   20.4590  -31.7140 N   0  0  0  0  0  0  0  0  0  0  0  0
   -8.6200   19.5090  -31.5920 C   0  0  0  0  0  0  0  0  0  0  0  0
   -8.3560   18.1790  -32.3330 C   0  0  0  0  0  0  0  0  0  0  0  0
   -6.8720   18.0020  -32.6640 C   0  0  0  0  0  0  0  0  0  0  0  0
   -6.3500   19.1830  -33.4990 C   0  0  0  0  0  0  0  0  0  0  0  0
   -7.0040   20.5200  -33.1010 C   0  0  0  0  0  0  0  0  0  0  0  0
   -5.3120   22.5690  -31.1220 C   0  0  0  0  0  0  0  0  0  0  0  0
   -4.1660   23.3130  -30.7840 C   0  0  0  0  0  0  0  0  0  0  0  0
   -2.8460   22.8590  -31.1460 N   0  0  0  0  0  0  0  0  0  0  0  0
   -2.5270   21.6020  -32.3010 S   0  0  0  0  0  0  0  0  0  0  0  0
   -3.0280   20.0220  -31.6490 C   0  0  0  0  0  0  0  0  0  0  0  0
   -3.3230   21.8750  -33.5470 O   0  0  0  0  0  0  0  0  0  0  0  0
   -1.0670   21.5850  -32.6540 O   0  0  0  0  0  0  0  0  0  0  0  0
   -2.7609   25.0992  -27.6986 H   0  0  0  0  0  0  0  0  0  0  0  0
   -1.9950   23.8552  -28.7439 H   0  0  0  0  0  0  0  0  0  0  0  0
   -1.3676   25.5384  -28.7439 H   0  0  0  0  0  0  0  0  0  0  0  0
   -5.7252   25.8875  -29.1333 H   0  0  0  0  0  0  0  0  0  0  0  0
   -7.7333   24.5559  -29.7594 H   0  0  0  0  0  0  0  0  0  0  0  0
   -8.7848   19.2923  -30.5262 H   0  0  0  0  0  0  0  0  0  0  0  0
   -9.5031   19.9775  -32.0509 H   0  0  0  0  0  0  0  0  0  0  0  0
   -8.6812   17.3443  -31.6946 H   0  0  0  0  0  0  0  0  0  0  0  0
   -8.9193   18.1944  -33.2777 H   0  0  0  0  0  0  0  0  0  0  0  0
   -6.2989   17.9426  -31.7270 H   0  0  0  0  0  0  0  0  0  0  0  0
   -6.7507   17.0782  -33.2486 H   0  0  0  0  0  0  0  0  0  0  0  0
   -5.2627   19.2648  -33.3536 H   0  0  0  0  0  0  0  0  0  0  0  0
   -6.6031   18.9867  -34.5513 H   0  0  0  0  0  0  0  0  0  0  0  0
   -6.2615   21.3269  -33.1884 H   0  0  0  0  0  0  0  0  0  0  0  0
   -7.8544   20.7147  -33.7710 H   0  0  0  0  0  0  0  0  0  0  0  0
   -5.2028   21.6297  -31.6839 H   0  0  0  0  0  0  0  0  0  0  0  0
   -2.0110   23.3530  -30.7640 H   0  0  0  0  0  0  0  0  0  0  0  0
   -3.0164   20.0586  -30.5497 H   0  0  0  0  0  0  0  0  0  0  0  0
   -4.0446   19.7873  -31.9973 H   0  0  0  0  0  0  0  0  0  0  0  0
   -2.3324   19.2443  -31.9973 H   0  0  0  0  0  0  0  0  0  0  0  0
  1  2  1  0
  2  3  1  0
  3  4  2  0
  4  5  1  0
  5  6  2  0
  6  7  1  0
  7  8  2  0
  7  9  2  0
  7 10  1  0
 10 11  1  0
 11 12  1  0
 12 13  1  0
 13 14  1  0
 14 15  1  0
  6 16  1  0
 16 17  2  0
 17 18  1  0
 18 19  1  0
 19 20  1  0
 19 21  2  0
 19 22  2  0
 17  3  1  0
 15 10  1  0
  1 23  1  0
  1 24  1  0
  1 25  1  0
  4 26  1  0
  5 27  1  0
 11 28  1  0
 11 29  1  0
 12 30  1  0
 12 31  1  0
 13 32  1  0
 13 33  1  0
 14 34  1  0
 14 35  1  0
 15 36  1  0
 15 37  1  0
 16 38  1  0
 18 39  1  0
 20 40  1  0
 20 41  1  0
 20 42  1  0
M  END
>  <UniqueID>  (14) 
14

>  <SMILES>  (14) 
COc1ccc(S(=O)(=O)N2CCCCC2)cc1NS(C)(=O)=O

>  <Energy>  (14) 
41.91446827951487

>  <Genealogy>  (14) 
COc1ccc(S(=O)(=O)N2CCCCC2)cc1NS(C)(=O)=O (3D coordinates assigned)
COc1ccc(S(=O)(=O)N2CCCCC2)cc1NS(C)(=O)=O (nonaromatic ring conformer: 41.91446827951487 kcal/mol)

>  <smiles>  (14) 
COc1ccc(S(=O)(=O)N2CCCCC2)cc1NS(C)(=O)=O

>  <score_type>  (14) 
oracle

>  <origin>  (14) 
adgpu

>  <m_score__min__energy>  (14) 
-8.3399999999999999

>  <m_primary>  (14) 
energy

$$$$
14:0
     RDKit          3D

 40 42  0  0  0  0  0  0  0  0999 V2000
   -0.4760   21.1720  -35.7740 O   0  0  0  0  0  0  0  0  0  0  0  0
    0.2390   21.4770  -34.7850 C   0  0  0  0  0  0  0  0  0  0  0  0
    1.2610   22.4050  -34.9590 O   0  0  0  0  0  0  0  0  0  0  0  0
    0.0170   20.8250  -33.4710 C   0  0  0  0  0  0  0  0  0  0  0  0
    1.1180   20.2570  -32.8000 C   0  0  0  0  0  0  0  0  0  0  0  0
    0.9650   19.6830  -31.5370 C   0  0  0  0  0  0  0  0  0  0  0  0
   -0.2880   19.6620  -30.9260 C   0  0  0  0  0  0  0  0  0  0  0  0
   -1.3930   20.2050  -31.5800 C   0  0  0  0  0  0  0  0  0  0  0  0
   -1.2580   20.7910  -32.8530 C   0  0  0  0  0  0  0  0  0  0  0  0
   -2.4290   21.2600  -33.5440 N   0  0  0  0  0  0  0  0  0  0  0  0
   -3.6640   21.5900  -32.8860 C   0  0  0  0  0  0  0  0  0  0  0  0
   -3.6980   22.6760  -31.9990 C   0  0  0  0  0  0  0  0  0  0  0  0
   -4.8890   23.0320  -31.3520 C   0  0  0  0  0  0  0  0  0  0  0  0
   -4.9270   24.4240  -30.2760 S   0  0  0  0  0  0  0  0  0  0  0  0
   -6.3580   24.7890  -30.0020 O   0  0  0  0  0  0  0  0  0  0  0  0
   -4.2320   25.5980  -30.9060 O   0  0  0  0  0  0  0  0  0  0  0  0
   -4.1430   24.0420  -28.7760 N   0  0  0  0  0  0  0  0  0  0  0  0
   -2.8140   23.5170  -28.6460 C   0  0  0  0  0  0  0  0  0  0  0  0
   -2.5720   22.1920  -28.2380 C   0  0  0  0  0  0  0  0  0  0  0  0
   -1.2610   21.7210  -28.1140 C   0  0  0  0  0  0  0  0  0  0  0  0
   -0.1840   22.5630  -28.4000 C   0  0  0  0  0  0  0  0  0  0  0  0
   -0.4160   23.8780  -28.8100 C   0  0  0  0  0  0  0  0  0  0  0  0
   -1.7250   24.3550  -28.9320 C   0  0  0  0  0  0  0  0  0  0  0  0
   -1.9410   25.6680  -29.3390 O   0  0  0  0  0  0  0  0  0  0  0  0
   -6.0480   22.2780  -31.5710 C   0  0  0  0  0  0  0  0  0  0  0  0
   -6.0170   21.1770  -32.4290 C   0  0  0  0  0  0  0  0  0  0  0  0
   -4.8320   20.8240  -33.0820 C   0  0  0  0  0  0  0  0  0  0  0  0
   -4.8180   19.7000  -33.9010 O   0  0  0  0  0  0  0  0  0  0  0  0
    2.1092   20.2660  -33.2768 H   0  0  0  0  0  0  0  0  0  0  0  0
    1.8341   19.2466  -31.0230 H   0  0  0  0  0  0  0  0  0  0  0  0
   -0.4048   19.2166  -29.9270 H   0  0  0  0  0  0  0  0  0  0  0  0
   -2.3806   20.1753  -31.0964 H   0  0  0  0  0  0  0  0  0  0  0  0
   -2.4290   21.2090  -34.5890 H   0  0  0  0  0  0  0  0  0  0  0  0
   -2.7813   23.2536  -31.8095 H   0  0  0  0  0  0  0  0  0  0  0  0
   -3.4173   21.5242  -28.0158 H   0  0  0  0  0  0  0  0  0  0  0  0
   -1.0778   20.6857  -27.7907 H   0  0  0  0  0  0  0  0  0  0  0  0
    0.8465   22.1908  -28.3024 H   0  0  0  0  0  0  0  0  0  0  0  0
    0.4327   24.5398  -29.0374 H   0  0  0  0  0  0  0  0  0  0  0  0
   -6.9855   22.5537  -31.0658 H   0  0  0  0  0  0  0  0  0  0  0  0
   -6.9292   20.5844  -32.5921 H   0  0  0  0  0  0  0  0  0  0  0  0
  1  2  2  0
  2  3  1  0
  2  4  1  0
  4  5  2  0
  5  6  1  0
  6  7  2  0
  7  8  1  0
  8  9  2  0
  9 10  1  0
 10 11  1  0
 11 12  2  0
 12 13  1  0
 13 14  1  0
 14 15  2  0
 14 16  2  0
 14 17  1  0
 17 18  1  0
 18 19  2  0
 19 20  1  0
 20 21  2  0
 21 22  1  0
 22 23  2  0
 23 24  1  0
 13 25  2  0
 25 26  1  0
 26 27  2  0
 27 28  1  0
  9  4  1  0
 27 11  1  0
 23 18  1  0
  5 29  1  0
  6 30  1  0
  7 31  1  0
  8 32  1  0
 10 33  1  0
 12 34  1  0
 19 35  1  0
 20 36  1  0
 21 37  1  0
 22 38  1  0
 25 39  1  0
 26 40  1  0
M  CHG  4   3  -1  17  -1  24  -1  28  -1
M  END
>  <UniqueID>  (15) 
15

>  <SMILES>  (15) 
O=C([O-])c1ccccc1Nc1cc(S(=O)(=O)[N-]c2ccccc2[O-])ccc1[O-]

>  <Energy>  (15) 
57.17591760956491

>  <Genealogy>  (15) 
O=C([O-])c1ccccc1Nc1cc(S(=O)(=O)[N-]c2ccccc2[O-])ccc1[O-] (protonated)
O=C([O-])c1ccccc1Nc1cc(S(=O)(=O)[N-]c2ccccc2[O-])ccc1[O-] (3D coordinates assigned)
O=C([O-])c1ccccc1Nc1cc(S(=O)(=O)[N-]c2ccccc2[O-])ccc1[O-] (optimized conformer: 57.17591760956491 kcal/mol)

>  <smiles>  (15) 
O=C(O)c1ccccc1Nc1cc(S(=O)(=O)Nc2ccccc2O)ccc1O

>  <score_type>  (15) 
oracle

>  <origin>  (15) 
adgpu

>  <m_score__min__energy>  (15) 
-13.59

>  <m_primary>  (15) 
energy

$$$$
15:0
     RDKit          3D

 40 42  0  0  0  0  0  0  0  0999 V2000
   -3.4870   24.9130  -31.2530 H   0  0  0  0  0  0  0  0  0  0  0  0
   -3.1200   24.9140  -30.3100 O   0  0  0  0  0  0  0  0  0  0  0  0
   -3.0860   23.7730  -29.5060 C   0  0  0  0  0  0  0  0  0  0  0  0
   -3.7740   23.8010  -28.2860 C   0  0  0  0  0  0  0  0  0  0  0  0
   -4.3064   24.7138  -27.9804 H   0  0  0  0  0  0  0  0  0  0  0  0
   -3.7890   22.6790  -27.4550 C   0  0  0  0  0  0  0  0  0  0  0  0
   -4.3393   22.7071  -26.5030 H   0  0  0  0  0  0  0  0  0  0  0  0
   -3.1060   21.5220  -27.8320 C   0  0  0  0  0  0  0  0  0  0  0  0
   -3.1165   20.6395  -27.1755 H   0  0  0  0  0  0  0  0  0  0  0  0
   -2.4090   21.4830  -29.0420 C   0  0  0  0  0  0  0  0  0  0  0  0
   -1.8611   20.5727  -29.3267 H   0  0  0  0  0  0  0  0  0  0  0  0
   -2.4020   22.5990  -29.9000 C   0  0  0  0  0  0  0  0  0  0  0  0
   -1.6390   22.5540  -31.1700 C   0  0  0  0  0  0  0  0  0  0  0  0
   -0.6543   23.0433  -31.1999 H   0  0  0  0  0  0  0  0  0  0  0  0
   -2.0660   21.9690  -32.2530 N   0  0  0  0  0  0  0  0  0  0  0  0
   -3.3700   21.4060  -32.4540 C   0  0  0  0  0  0  0  0  0  0  0  0
   -3.7150   20.1960  -33.0430 C   0  0  0  0  0  0  0  0  0  0  0  0
   -2.7730   19.1570  -33.5790 C   0  0  0  0  0  0  0  0  0  0  0  0
   -2.2943   18.6290  -32.7411 H   0  0  0  0  0  0  0  0  0  0  0  0
   -3.3327   18.4371  -34.1943 H   0  0  0  0  0  0  0  0  0  0  0  0
   -2.0019   19.6437  -34.1943 H   0  0  0  0  0  0  0  0  0  0  0  0
   -5.0690   20.0910  -33.0340 N   0  0  0  0  0  0  0  0  0  0  0  0
   -5.8490   18.9850  -33.5950 C   0  0  0  0  0  0  0  0  0  0  0  0
   -6.2731   18.3837  -32.7774 H   0  0  0  0  0  0  0  0  0  0  0  0
   -6.6638   19.3881  -34.2144 H   0  0  0  0  0  0  0  0  0  0  0  0
   -5.1958   18.3528  -34.2144 H   0  0  0  0  0  0  0  0  0  0  0  0
   -5.5810   21.1810  -32.4610 N   0  0  0  0  0  0  0  0  0  0  0  0
   -6.9800   21.4780  -32.3080 C   0  0  0  0  0  0  0  0  0  0  0  0
   -7.9050   20.4400  -32.1070 C   0  0  0  0  0  0  0  0  0  0  0  0
   -7.5607   19.3955  -32.0864 H   0  0  0  0  0  0  0  0  0  0  0  0
   -9.2620   20.7300  -31.9330 C   0  0  0  0  0  0  0  0  0  0  0  0
   -9.9834   19.9135  -31.7818 H   0  0  0  0  0  0  0  0  0  0  0  0
   -9.7020   22.0550  -31.9510 C   0  0  0  0  0  0  0  0  0  0  0  0
  -10.7701   22.2806  -31.8162 H   0  0  0  0  0  0  0  0  0  0  0  0
   -8.7880   23.0950  -32.1400 C   0  0  0  0  0  0  0  0  0  0  0  0
   -9.1365   24.1383  -32.1520 H   0  0  0  0  0  0  0  0  0  0  0  0
   -7.4290   22.8090  -32.3140 C   0  0  0  0  0  0  0  0  0  0  0  0
   -6.7100   23.6293  -32.4559 H   0  0  0  0  0  0  0  0  0  0  0  0
   -4.5620   21.9800  -32.0840 C   0  0  0  0  0  0  0  0  0  0  0  0
   -4.6970   23.0990  -31.5220 O   0  0  0  0  0  0  0  0  0  0  0  0
  1  2  1  0
  2  3  1  0
  3  4  2  0
  4  5  1  0
  4  6  1  0
  6  7  1  0
  6  8  2  0
  8  9  1  0
  8 10  1  0
 10 11  1  0
 10 12  2  0
 12 13  1  0
 13 14  1  0
 13 15  2  0
 15 16  1  0
 16 17  2  0
 17 18  1  0
 18 19  1  0
 18 20  1  0
 18 21  1  0
 17 22  1  0
 22 23  1  0
 23 24  1  0
 23 25  1  0
 23 26  1  0
 22 27  1  0
 27 28  1  0
 28 29  2  0
 29 30  1  0
 29 31  1  0
 31 32  1  0
 31 33  2  0
 33 34  1  0
 33 35  1  0
 35 36  1  0
 35 37  2  0
 37 38  1  0
 27 39  1  0
 39 40  2  0
 12  3  1  0
 39 16  1  0
 37 28  1  0
M  END
>  <UniqueID>  (16) 
16

>  <SMILES>  (16) 
Cc1c(/N=C\c2ccccc2O)c(=O)n(-c2ccccc2)n1C

>  <Energy>  (16) 
95.85144870645094

>  <Genealogy>  (16) 
Cc1c(/N=C\c2ccccc2O)c(=O)n(-c2ccccc2)n1C (cis-trans isomerization)
Cc1c(/N=C\c2ccccc2O)c(=O)n(-c2ccccc2)n1C (3D coordinates assigned)
Cc1c(/N=C\c2ccccc2O)c(=O)n(-c2ccccc2)n1C (optimized conformer: 95.85144870645094 kcal/mol)

>  <smiles>  (16) 
Cc1c(N=Cc2ccccc2O)c(=O)n(-c2ccccc2)n1C

>  <score_type>  (16) 
oracle

>  <origin>  (16) 
adgpu

>  <m_score__min__energy>  (16) 
-9.2100000000000009

>  <m_primary>  (16) 
energy

$$$$
16:0
     RDKit          3D

 52 55  0  0  0  0  0  0  0  0999 V2000
    0.7100   19.9070  -35.1450 C   0  0  0  0  0  0  0  0  0  0  0  0
   -0.1570   20.4810  -34.0010 C   0  0  0  0  0  0  0  0  0  0  0  0
    0.6300   20.4020  -32.6860 C   0  0  0  0  0  0  0  0  0  0  0  0
   -0.4020   21.8410  -34.2750 O   0  0  0  0  0  0  0  0  0  0  0  0
   -1.4840   19.7330  -33.8220 C   0  0  0  0  0  0  0  0  0  0  0  0
   -1.5370   18.4120  -33.3260 C   0  0  0  0  0  0  0  0  0  0  0  0
   -2.7630   17.7810  -33.1070 C   0  0  0  0  0  0  0  0  0  0  0  0
   -3.9610   18.4530  -33.3690 C   0  0  0  0  0  0  0  0  0  0  0  0
   -5.5060   17.6720  -33.0490 S   0  0  0  0  0  0  0  0  0  0  0  0
   -5.3470   16.6290  -31.9790 O   0  0  0  0  0  0  0  0  0  0  0  0
   -5.9990   16.9970  -34.2990 O   0  0  0  0  0  0  0  0  0  0  0  0
   -6.6510   18.8960  -32.5170 C   0  0  0  0  0  0  0  0  0  0  0  0
   -8.0350   18.6080  -32.4440 C   0  0  0  0  0  0  0  0  0  0  0  0
   -8.9520   19.6050  -32.0630 C   0  0  0  0  0  0  0  0  0  0  0  0
   -8.4540   20.8720  -31.7730 C   0  0  0  0  0  0  0  0  0  0  0  0
   -9.1070   22.0310  -31.4080 C   0  0  0  0  0  0  0  0  0  0  0  0
   -8.1100   22.9910  -31.2770 C   0  0  0  0  0  0  0  0  0  0  0  0
   -6.8990   22.4510  -31.5460 N   0  0  0  0  0  0  0  0  0  0  0  0
   -5.3810   23.2890  -31.5480 S   0  0  0  0  0  0  0  0  0  0  0  0
   -4.6600   23.0400  -32.8420 O   0  0  0  0  0  0  0  0  0  0  0  0
   -5.6390   24.7630  -31.4070 O   0  0  0  0  0  0  0  0  0  0  0  0
   -4.3850   22.7030  -30.2190 C   0  0  0  0  0  0  0  0  0  0  0  0
   -4.6320   23.1520  -28.9150 C   0  0  0  0  0  0  0  0  0  0  0  0
   -3.8420   22.6990  -27.8550 C   0  0  0  0  0  0  0  0  0  0  0  0
   -2.8040   21.7940  -28.0920 C   0  0  0  0  0  0  0  0  0  0  0  0
   -2.5470   21.3490  -29.3940 C   0  0  0  0  0  0  0  0  0  0  0  0
   -1.2300   20.2300  -29.6930 Cl  0  0  0  0  0  0  0  0  0  0  0  0
   -3.3360   21.8020  -30.4560 C   0  0  0  0  0  0  0  0  0  0  0  0
   -7.1150   21.1580  -31.8450 C   0  0  0  0  0  0  0  0  0  0  0  0
   -6.1810   20.1880  -32.2110 C   0  0  0  0  0  0  0  0  0  0  0  0
   -3.9240   19.7730  -33.8310 C   0  0  0  0  0  0  0  0  0  0  0  0
   -2.7000   20.4090  -34.0480 C   0  0  0  0  0  0  0  0  0  0  0  0
    1.5556   19.3472  -34.7188 H   0  0  0  0  0  0  0  0  0  0  0  0
    0.0999   19.2338  -35.7651 H   0  0  0  0  0  0  0  0  0  0  0  0
    1.0915   20.7316  -35.7651 H   0  0  0  0  0  0  0  0  0  0  0  0
   -0.0662   20.4719  -31.8372 H   0  0  0  0  0  0  0  0  0  0  0  0
    1.1705   19.4451  -32.6391 H   0  0  0  0  0  0  0  0  0  0  0  0
    1.3499   21.2324  -32.6391 H   0  0  0  0  0  0  0  0  0  0  0  0
   -1.1070   21.8870  -34.9750 H   0  0  0  0  0  0  0  0  0  0  0  0
   -0.6021   17.8742  -33.1098 H   0  0  0  0  0  0  0  0  0  0  0  0
   -2.7867   16.7493  -32.7262 H   0  0  0  0  0  0  0  0  0  0  0  0
   -8.3962   17.5978  -32.6868 H   0  0  0  0  0  0  0  0  0  0  0  0
  -10.0287   19.3898  -31.9964 H   0  0  0  0  0  0  0  0  0  0  0  0
  -10.1876   22.1668  -31.2534 H   0  0  0  0  0  0  0  0  0  0  0  0
   -8.2813   24.0403  -30.9948 H   0  0  0  0  0  0  0  0  0  0  0  0
   -5.4497   23.8628  -28.7251 H   0  0  0  0  0  0  0  0  0  0  0  0
   -4.0375   23.0553  -26.8328 H   0  0  0  0  0  0  0  0  0  0  0  0
   -2.1888   21.4313  -27.2553 H   0  0  0  0  0  0  0  0  0  0  0  0
   -3.1338   21.4513  -31.4788 H   0  0  0  0  0  0  0  0  0  0  0  0
   -5.1081   20.4257  -32.2592 H   0  0  0  0  0  0  0  0  0  0  0  0
   -4.8632   20.3122  -34.0241 H   0  0  0  0  0  0  0  0  0  0  0  0
   -2.6845   21.4511  -34.3999 H   0  0  0  0  0  0  0  0  0  0  0  0
  1  2  1  0
  2  3  1  0
  2  4  1  0
  2  5  1  0
  5  6  2  0
  6  7  1  0
  7  8  2  0
  8  9  1  0
  9 10  2  0
  9 11  2  0
  9 12  1  0
 12 13  2  0
 13 14  1  0
 14 15  2  0
 15 16  1  0
 16 17  2  0
 17 18  1  0
 18 19  1  0
 19 20  2  0
 19 21  2  0
 19 22  1  0
 22 23  2  0
 23 24  1  0
 24 25  2  0
 25 26  1  0
 26 27  1  0
 26 28  2  0
 18 29  1  0
 29 30  2  0
  8 31  1  0
 31 32  2  0
 32  5  1  0
 30 12  1  0
 29 15  1  0
 28 22  1  0
  1 33  1  0
  1 34  1  0
  1 35  1  0
  3 36  1  0
  3 37  1  0
  3 38  1  0
  4 39  1  0
  6 40  1  0
  7 41  1  0
 13 42  1  0
 14 43  1  0
 16 44  1  0
 17 45  1  0
 23 46  1  0
 24 47  1  0
 25 48  1  0
 28 49  1  0
 30 50  1  0
 31 51  1  0
 32 52  1  0
M  END
>  <UniqueID>  (17) 
17

>  <SMILES>  (17) 
CC(C)(O)c1ccc(S(=O)(=O)c2ccc3ccn(S(=O)(=O)c4cccc(Cl)c4)c3c2)cc1

>  <Energy>  (17) 
89.04064906649172

>  <Genealogy>  (17) 
CC(C)(O)c1ccc(S(=O)(=O)c2ccc3ccn(S(=O)(=O)c4cccc(Cl)c4)c3c2)cc1 (3D coordinates assigned)
CC(C)(O)c1ccc(S(=O)(=O)c2ccc3ccn(S(=O)(=O)c4cccc(Cl)c4)c3c2)cc1 (optimized conformer: 89.04064906649172 kcal/mol)

>  <smiles>  (17) 
CC(C)(O)c1ccc(S(=O)(=O)c2ccc3ccn(S(=O)(=O)c4cccc(Cl)c4)c3c2)cc1

>  <score_type>  (17) 
oracle

>  <origin>  (17) 
adgpu

>  <m_score__min__energy>  (17) 
-11.66

>  <m_primary>  (17) 
energy

$$$$
17:0
     RDKit          3D

 58 61  0  0  0  0  0  0  0  0999 V2000
   -6.0830   16.3720  -33.9270 C   0  0  0  0  0  0  0  0  0  0  0  0
   -4.7580   16.9230  -33.6390 N   0  0  0  0  0  0  0  0  0  0  0  0
   -4.5030   18.1550  -34.3990 C   0  0  0  0  0  0  0  0  0  0  0  0
   -4.9020   19.3950  -33.6340 C   0  0  0  0  0  0  0  0  0  0  0  0
   -6.2570   19.6830  -33.4100 C   0  0  0  0  0  0  0  0  0  0  0  0
   -6.6330   20.8450  -32.7290 C   0  0  0  0  0  0  0  0  0  0  0  0
   -5.6540   21.7320  -32.2520 C   0  0  0  0  0  0  0  0  0  0  0  0
   -6.0360   22.9650  -31.5400 C   0  0  0  0  0  0  0  0  0  0  0  0
   -5.3650   23.9840  -30.8750 C   0  0  0  0  0  0  0  0  0  0  0  0
   -3.9900   24.2680  -30.5890 N   0  0  0  0  0  0  0  0  0  0  0  0
   -3.2690   23.6740  -29.4980 C   0  0  0  0  0  0  0  0  0  0  0  0
   -3.5670   22.3720  -29.0620 C   0  0  0  0  0  0  0  0  0  0  0  0
   -2.8360   21.7900  -28.0260 C   0  0  0  0  0  0  0  0  0  0  0  0
   -1.7820   22.4880  -27.4370 C   0  0  0  0  0  0  0  0  0  0  0  0
   -1.4450   23.7770  -27.8780 C   0  0  0  0  0  0  0  0  0  0  0  0
   -0.2970   24.5170  -27.2430 C   0  0  0  0  0  0  0  0  0  0  0  0
   -0.4820   24.5710  -25.7750 N   0  0  0  0  0  0  0  0  0  0  0  0
    0.7110   25.0950  -25.0650 C   0  0  0  0  0  0  0  0  0  0  0  0
    0.6620   26.6220  -24.8440 C   0  0  0  0  0  0  0  0  0  0  0  0
   -0.2000   27.2550  -25.8540 N   0  0  0  0  0  0  0  0  0  0  0  0
   -0.1080   28.7200  -25.7690 C   0  0  0  0  0  0  0  0  0  0  0  0
   -1.6020   26.8140  -25.7000 C   0  0  0  0  0  0  0  0  0  0  0  0
   -1.7050   25.3030  -25.3890 C   0  0  0  0  0  0  0  0  0  0  0  0
   -2.2000   24.3710  -28.9070 C   0  0  0  0  0  0  0  0  0  0  0  0
   -1.8900   25.6570  -29.3430 O   0  0  0  0  0  0  0  0  0  0  0  0
   -6.5770   24.5990  -30.6100 C   0  0  0  0  0  0  0  0  0  0  0  0
   -6.9340   25.6620  -30.0400 O   0  0  0  0  0  0  0  0  0  0  0  0
   -7.2430   23.5600  -31.2230 C   0  0  0  0  0  0  0  0  0  0  0  0
   -8.4550   23.2810  -31.4270 O   0  0  0  0  0  0  0  0  0  0  0  0
   -4.3000   21.4360  -32.4620 C   0  0  0  0  0  0  0  0  0  0  0  0
   -3.9260   20.2820  -33.1560 C   0  0  0  0  0  0  0  0  0  0  0  0
   -6.6034   16.1556  -32.9823 H   0  0  0  0  0  0  0  0  0  0  0  0
   -6.6656   17.1024  -34.5076 H   0  0  0  0  0  0  0  0  0  0  0  0
   -5.9759   15.4438  -34.5076 H   0  0  0  0  0  0  0  0  0  0  0  0
   -4.6950   17.1220  -32.6140 H   0  0  0  0  0  0  0  0  0  0  0  0
   -3.4290   18.2122  -34.6296 H   0  0  0  0  0  0  0  0  0  0  0  0
   -5.1098   18.1160  -35.3156 H   0  0  0  0  0  0  0  0  0  0  0  0
   -7.0295   18.9892  -33.7730 H   0  0  0  0  0  0  0  0  0  0  0  0
   -7.6984   21.0650  -32.5664 H   0  0  0  0  0  0  0  0  0  0  0  0
   -3.4790   24.9290  -31.2150 H   0  0  0  0  0  0  0  0  0  0  0  0
   -4.3815   21.8082  -29.5403 H   0  0  0  0  0  0  0  0  0  0  0  0
   -3.0912   20.7798  -27.6734 H   0  0  0  0  0  0  0  0  0  0  0  0
   -1.2100   22.0243  -26.6198 H   0  0  0  0  0  0  0  0  0  0  0  0
    0.6443   23.9963  -27.4730 H   0  0  0  0  0  0  0  0  0  0  0  0
   -0.2623   25.5417  -27.6414 H   0  0  0  0  0  0  0  0  0  0  0  0
    0.7796   24.6014  -24.0844 H   0  0  0  0  0  0  0  0  0  0  0  0
    1.5872   24.8828  -25.6952 H   0  0  0  0  0  0  0  0  0  0  0  0
    0.2606   26.8312  -23.8414 H   0  0  0  0  0  0  0  0  0  0  0  0
    1.6795   27.0302  -24.9344 H   0  0  0  0  0  0  0  0  0  0  0  0
   -0.0888   29.0255  -24.7124 H   0  0  0  0  0  0  0  0  0  0  0  0
    0.8132   29.0590  -26.2655 H   0  0  0  0  0  0  0  0  0  0  0  0
   -0.9796   29.1715  -26.2655 H   0  0  0  0  0  0  0  0  0  0  0  0
   -2.0629   27.3781  -24.8758 H   0  0  0  0  0  0  0  0  0  0  0  0
   -2.1224   27.0006  -26.6510 H   0  0  0  0  0  0  0  0  0  0  0  0
   -1.8696   25.1737  -24.3091 H   0  0  0  0  0  0  0  0  0  0  0  0
   -2.5427   24.8937  -25.9727 H   0  0  0  0  0  0  0  0  0  0  0  0
   -3.5263   22.1170  -32.0778 H   0  0  0  0  0  0  0  0  0  0  0  0
   -2.8608   20.0682  -33.3283 H   0  0  0  0  0  0  0  0  0  0  0  0
  1  2  1  0
  2  3  1  0
  3  4  1  0
  4  5  2  0
  5  6  1  0
  6  7  2  0
  7  8  1  0
  8  9  2  0
  9 10  1  0
 10 11  1  0
 11 12  2  0
 12 13  1  0
 13 14  2  0
 14 15  1  0
 15 16  1  0
 16 17  1  0
 17 18  1  0
 18 19  1  0
 19 20  1  0
 20 21  1  0
 20 22  1  0
 22 23  1  0
 15 24  2  0
 24 25  1  0
  9 26  1  0
 26 27  2  0
 26 28  1  0
 28 29  2  0
  7 30  1  0
 30 31  2  0
 31  4  1  0
 28  8  1  0
 24 11  1  0
 23 17  1  0
  1 32  1  0
  1 33  1  0
  1 34  1  0
  2 35  1  0
  3 36  1  0
  3 37  1  0
  5 38  1  0
  6 39  1  0
 10 40  1  0
 12 41  1  0
 13 42  1  0
 14 43  1  0
 16 44  1  0
 16 45  1  0
 18 46  1  0
 18 47  1  0
 19 48  1  0
 19 49  1  0
 21 50  1  0
 21 51  1  0
 21 52  1  0
 22 53  1  0
 22 54  1  0
 23 55  1  0
 23 56  1  0
 30 57  1  0
 31 58  1  0
M  CHG  1  25  -1
M  END
>  <UniqueID>  (18) 
18

>  <SMILES>  (18) 
CNCc1ccc(-c2c(Nc3cccc(CN4CCN(C)CC4)c3[O-])c(=O)c2=O)cc1

>  <Energy>  (18) 
67.95930610565915

>  <Genealogy>  (18) 
CNCc1ccc(-c2c(Nc3cccc(CN4CCN(C)CC4)c3[O-])c(=O)c2=O)cc1 (protonated)
CNCc1ccc(-c2c(Nc3cccc(CN4CCN(C)CC4)c3[O-])c(=O)c2=O)cc1 (3D coordinates assigned)
CNCc1ccc(-c2c(Nc3cccc(CN4CCN(C)CC4)c3[O-])c(=O)c2=O)cc1 (nonaromatic ring conformer: 67.95930610565915 kcal/mol)

>  <smiles>  (18) 
CNCc1ccc(-c2c(Nc3cccc(CN4CCN(C)CC4)c3O)c(=O)c2=O)cc1

>  <score_type>  (18) 
oracle

>  <origin>  (18) 
adgpu

>  <m_score__min__energy>  (18) 
-12.119999999999999

>  <m_primary>  (18) 
energy

$$$$
18:0
     RDKit          3D

 49 51  0  0  0  0  0  0  0  0999 V2000
   -1.0820   22.0300  -26.2370 C   0  0  0  0  0  0  0  0  0  0  0  0
   -1.6740   22.8840  -27.3280 C   0  0  0  0  0  0  0  0  0  0  0  0
   -2.8840   22.4790  -27.9100 C   0  0  0  0  0  0  0  0  0  0  0  0
   -3.4780   23.2330  -28.9170 C   0  0  0  0  0  0  0  0  0  0  0  0
   -2.8710   24.4070  -29.3790 C   0  0  0  0  0  0  0  0  0  0  0  0
   -3.4950   25.2130  -30.3910 N   0  0  0  0  0  0  0  0  0  0  0  0
   -4.8920   25.2410  -30.7030 C   0  0  0  0  0  0  0  0  0  0  0  0
   -5.6610   25.9380  -29.9910 O   0  0  0  0  0  0  0  0  0  0  0  0
   -5.3880   24.5790  -31.8740 N   0  0  0  0  0  0  0  0  0  0  0  0
   -6.0650   23.3160  -31.9210 C   0  0  0  0  0  0  0  0  0  0  0  0
   -5.3800   22.1090  -32.1380 C   0  0  0  0  0  0  0  0  0  0  0  0
   -6.0820   20.9000  -32.1990 C   0  0  0  0  0  0  0  0  0  0  0  0
   -7.4810   20.8770  -32.0600 C   0  0  0  0  0  0  0  0  0  0  0  0
   -8.2220   19.5960  -32.1240 C   0  0  0  0  0  0  0  0  0  0  0  0
   -9.4800   19.5190  -32.7930 N   0  0  0  0  0  0  0  0  0  0  0  0
   -7.7470   18.5580  -31.5890 O   0  0  0  0  0  0  0  0  0  0  0  0
   -8.1630   22.0910  -31.8670 C   0  0  0  0  0  0  0  0  0  0  0  0
   -7.4600   23.2980  -31.8070 C   0  0  0  0  0  0  0  0  0  0  0  0
   -1.6630   24.8400  -28.7960 C   0  0  0  0  0  0  0  0  0  0  0  0
   -1.0800   26.0380  -29.2130 O   0  0  0  0  0  0  0  0  0  0  0  0
   -1.0380   24.0670  -27.7900 C   0  0  0  0  0  0  0  0  0  0  0  0
    0.5040   24.6020  -27.0730 S   0  0  0  0  0  0  0  0  0  0  0  0
    1.5260   24.8990  -28.1360 O   0  0  0  0  0  0  0  0  0  0  0  0
    1.0510   23.5040  -26.2050 O   0  0  0  0  0  0  0  0  0  0  0  0
    0.2370   26.0340  -26.1060 N   0  0  0  0  0  0  0  0  0  0  0  0
    0.5700   25.7570  -24.6960 C   0  0  0  0  0  0  0  0  0  0  0  0
   -0.1120   26.7760  -23.7700 C   0  0  0  0  0  0  0  0  0  0  0  0
   -1.5310   26.7880  -23.8580 O   0  0  0  0  0  0  0  0  0  0  0  0
   -2.0340   26.2500  -25.0730 C   0  0  0  0  0  0  0  0  0  0  0  0
   -1.1370   26.5520  -26.2860 C   0  0  0  0  0  0  0  0  0  0  0  0
   -1.3658   22.4394  -25.2562 H   0  0  0  0  0  0  0  0  0  0  0  0
   -1.4621   21.0019  -26.3291 H   0  0  0  0  0  0  0  0  0  0  0  0
    0.0141   22.0253  -26.3291 H   0  0  0  0  0  0  0  0  0  0  0  0
   -3.3694   21.5537  -27.5660 H   0  0  0  0  0  0  0  0  0  0  0  0
   -4.4325   22.9041  -29.3538 H   0  0  0  0  0  0  0  0  0  0  0  0
   -4.2869   22.1142  -32.2605 H   0  0  0  0  0  0  0  0  0  0  0  0
   -5.5344   19.9592  -32.3571 H   0  0  0  0  0  0  0  0  0  0  0  0
   -9.5320   19.3910  -33.8280 H   0  0  0  0  0  0  0  0  0  0  0  0
   -9.2580   22.0913  -31.7624 H   0  0  0  0  0  0  0  0  0  0  0  0
   -8.0079   24.2418  -31.6690 H   0  0  0  0  0  0  0  0  0  0  0  0
   -1.2330   26.4350  -30.1320 H   0  0  0  0  0  0  0  0  0  0  0  0
    0.2267   24.7450  -24.4354 H   0  0  0  0  0  0  0  0  0  0  0  0
    1.6597   25.8336  -24.5669 H   0  0  0  0  0  0  0  0  0  0  0  0
    0.1669   26.5395  -22.7326 H   0  0  0  0  0  0  0  0  0  0  0  0
    0.2320   27.7710  -24.0887 H   0  0  0  0  0  0  0  0  0  0  0  0
   -2.1187   25.1587  -24.9637 H   0  0  0  0  0  0  0  0  0  0  0  0
   -3.0091   26.7229  -25.2613 H   0  0  0  0  0  0  0  0  0  0  0  0
   -1.5782   26.0841  -27.1784 H   0  0  0  0  0  0  0  0  0  0  0  0
   -1.0748   27.6446  -26.3971 H   0  0  0  0  0  0  0  0  0  0  0  0
  1  2  1  0
  2  3  2  0
  3  4  1  0
  4  5  2  0
  5  6  1  0
  6  7  1  0
  7  8  2  0
  7  9  1  0
  9 10  1  0
 10 11  2  0
 11 12  1  0
 12 13  2  0
 13 14  1  0
 14 15  1  0
 14 16  2  0
 13 17  1  0
 17 18  2  0
  5 19  1  0
 19 20  1  0
 19 21  2  0
 21 22  1  0
 22 23  2  0
 22 24  2  0
 22 25  1  0
 25 26  1  0
 26 27  1  0
 27 28  1  0
 28 29  1  0
 29 30  1  0
 21  2  1  0
 30 25  1  0
 18 10  1  0
  1 31  1  0
  1 32  1  0
  1 33  1  0
  3 34  1  0
  4 35  1  0
 11 36  1  0
 12 37  1  0
 15 38  1  0
 17 39  1  0
 18 40  1  0
 20 41  1  0
 26 42  1  0
 26 43  1  0
 27 44  1  0
 27 45  1  0
 29 46  1  0
 29 47  1  0
 30 48  1  0
 30 49  1  0
M  CHG  3   6  -1   9  -1  15  -1
M  END
>  <UniqueID>  (19) 
19

>  <SMILES>  (19) 
Cc1ccc([N-]C(=O)[N-]c2ccc(C([NH-])=O)cc2)c(O)c1S(=O)(=O)N1CCOCC1

>  <Energy>  (19) 
73.25601051143232

>  <Genealogy>  (19) 
Cc1ccc([N-]C(=O)[N-]c2ccc(C([NH-])=O)cc2)c(O)c1S(=O)(=O)N1CCOCC1 (protonated)
Cc1ccc([N-]C(=O)[N-]c2ccc(C([NH-])=O)cc2)c(O)c1S(=O)(=O)N1CCOCC1 (3D coordinates assigned)
Cc1ccc([N-]C(=O)[N-]c2ccc(C([NH-])=O)cc2)c(O)c1S(=O)(=O)N1CCOCC1 (nonaromatic ring conformer: 73.25601051143232 kcal/mol)

>  <smiles>  (19) 
Cc1ccc(NC(=O)Nc2ccc(C(N)=O)cc2)c(O)c1S(=O)(=O)N1CCOCC1

>  <score_type>  (19) 
oracle

>  <origin>  (19) 
adgpu

>  <m_score__min__energy>  (19) 
-12.98

>  <m_primary>  (19) 
energy

$$$$
19:0
     RDKit          3D

 42 44  0  0  0  0  0  0  0  0999 V2000
   -3.0120   21.2440  -27.8470 C   0  0  0  0  0  0  0  0  0  0  0  0
   -2.6960   22.6080  -28.3710 C   0  0  0  0  0  0  0  0  0  0  0  0
   -1.4950   23.2380  -28.0290 C   0  0  0  0  0  0  0  0  0  0  0  0
   -1.2480   24.5170  -28.5320 C   0  0  0  0  0  0  0  0  0  0  0  0
   -0.1760   25.1130  -28.2480 O   0  0  0  0  0  0  0  0  0  0  0  0
   -2.1660   25.1190  -29.3300 N   0  0  0  0  0  0  0  0  0  0  0  0
   -3.3270   24.4930  -29.6550 C   0  0  0  0  0  0  0  0  0  0  0  0
   -4.5070   25.3030  -30.7310 S   0  0  0  0  0  0  0  0  0  0  0  0
   -5.9780   24.6690  -29.8510 C   0  0  0  0  0  0  0  0  0  0  0  0
   -6.4690   23.3890  -30.4720 C   0  0  0  0  0  0  0  0  0  0  0  0
   -7.6140   22.7490  -29.9710 C   0  0  0  0  0  0  0  0  0  0  0  0
   -8.0470   21.5410  -30.5260 C   0  0  0  0  0  0  0  0  0  0  0  0
   -7.3450   20.9620  -31.5930 C   0  0  0  0  0  0  0  0  0  0  0  0
   -7.8880   19.4300  -32.2870 S   0  0  0  0  0  0  0  0  0  0  0  0
   -8.5910   18.6330  -31.2240 O   0  0  0  0  0  0  0  0  0  0  0  0
   -8.8750   19.7140  -33.3850 O   0  0  0  0  0  0  0  0  0  0  0  0
   -6.5750   18.4760  -32.9370 N   0  0  0  0  0  0  0  0  0  0  0  0
   -6.9680   17.0890  -33.1750 C   0  0  0  0  0  0  0  0  0  0  0  0
   -6.0470   16.5630  -34.2650 C   0  0  0  0  0  0  0  0  0  0  0  0
   -5.4860   17.8010  -34.9520 C   0  0  0  0  0  0  0  0  0  0  0  0
   -6.1170   18.9810  -34.2300 C   0  0  0  0  0  0  0  0  0  0  0  0
   -6.1950   21.5940  -32.0860 C   0  0  0  0  0  0  0  0  0  0  0  0
   -5.7610   22.8010  -31.5310 C   0  0  0  0  0  0  0  0  0  0  0  0
   -3.5880   23.2500  -29.1720 N   0  0  0  0  0  0  0  0  0  0  0  0
   -3.0075   21.2636  -26.7472 H   0  0  0  0  0  0  0  0  0  0  0  0
   -4.0055   20.9351  -28.2041 H   0  0  0  0  0  0  0  0  0  0  0  0
   -2.2556   20.5297  -28.2041 H   0  0  0  0  0  0  0  0  0  0  0  0
   -0.7621   22.7376  -27.3790 H   0  0  0  0  0  0  0  0  0  0  0  0
   -5.7147   24.4807  -28.7997 H   0  0  0  0  0  0  0  0  0  0  0  0
   -6.7780   25.4208  -29.9196 H   0  0  0  0  0  0  0  0  0  0  0  0
   -8.1730   23.2002  -29.1379 H   0  0  0  0  0  0  0  0  0  0  0  0
   -8.9417   21.0429  -30.1242 H   0  0  0  0  0  0  0  0  0  0  0  0
   -6.8474   16.4963  -32.2562 H   0  0  0  0  0  0  0  0  0  0  0  0
   -8.0235   17.0197  -33.4769 H   0  0  0  0  0  0  0  0  0  0  0  0
   -5.2347   15.9645  -33.8269 H   0  0  0  0  0  0  0  0  0  0  0  0
   -6.5801   15.9093  -34.9710 H   0  0  0  0  0  0  0  0  0  0  0  0
   -4.3906   17.8317  -34.8563 H   0  0  0  0  0  0  0  0  0  0  0  0
   -5.7118   17.8105  -36.0285 H   0  0  0  0  0  0  0  0  0  0  0  0
   -5.3747   19.7797  -34.0853 H   0  0  0  0  0  0  0  0  0  0  0  0
   -6.9497   19.4050  -34.8104 H   0  0  0  0  0  0  0  0  0  0  0  0
   -5.6316   21.1379  -32.9134 H   0  0  0  0  0  0  0  0  0  0  0  0
   -4.8598   23.2925  -31.9264 H   0  0  0  0  0  0  0  0  0  0  0  0
  1  2  1  0
  2  3  2  0
  3  4  1  0
  4  5  2  0
  4  6  1  0
  6  7  1  0
  7  8  1  0
  8  9  1  0
  9 10  1  0
 10 11  2  0
 11 12  1  0
 12 13  2  0
 13 14  1  0
 14 15  2  0
 14 16  2  0
 14 17  1  0
 17 18  1  0
 18 19  1  0
 19 20  1  0
 20 21  1  0
 13 22  1  0
 22 23  2  0
  7 24  2  0
 24  2  1  0
 23 10  1  0
 21 17  1  0
  1 25  1  0
  1 26  1  0
  1 27  1  0
  3 28  1  0
  9 29  1  0
  9 30  1  0
 11 31  1  0
 12 32  1  0
 18 33  1  0
 18 34  1  0
 19 35  1  0
 19 36  1  0
 20 37  1  0
 20 38  1  0
 21 39  1  0
 21 40  1  0
 22 41  1  0
 23 42  1  0
M  CHG  1   6  -1
M  END
>  <UniqueID>  (20) 
20

>  <SMILES>  (20) 
Cc1cc(=O)[n-]c(SCc2ccc(S(=O)(=O)N3CCCC3)cc2)n1

>  <Energy>  (20) 
38.851810777315514

>  <Genealogy>  (20) 
Cc1cc(=O)[n-]c(SCc2ccc(S(=O)(=O)N3CCCC3)cc2)n1 (protonated)
Cc1cc(=O)[n-]c(SCc2ccc(S(=O)(=O)N3CCCC3)cc2)n1 (3D coordinates assigned)
Cc1cc(=O)[n-]c(SCc2ccc(S(=O)(=O)N3CCCC3)cc2)n1 (nonaromatic ring conformer: 38.851810777315514 kcal/mol)

>  <smiles>  (20) 
Cc1cc(=O)[nH]c(SCc2ccc(S(=O)(=O)N3CCCC3)cc2)n1

>  <score_type>  (20) 
oracle

>  <origin>  (20) 
adgpu

>  <m_score__min__energy>  (20) 
-10.18

>  <m_primary>  (20) 
energy

$$$$
20:0
     RDKit          3D

 63 66  0  0  0  0  0  0  0  0999 V2000
    0.5620   21.5660  -33.4500 O   0  0  0  0  0  0  0  0  0  0  0  0
    0.1470   21.0890  -34.5410 C   0  0  0  0  0  0  0  0  0  0  0  0
    0.5080   21.7170  -35.7830 N   0  0  0  0  0  0  0  0  0  0  0  0
    1.0300   23.0520  -35.8800 C   0  0  0  0  0  0  0  0  0  0  0  0
    2.4000   23.3170  -35.6970 C   0  0  0  0  0  0  0  0  0  0  0  0
    2.8770   24.6300  -35.7550 C   0  0  0  0  0  0  0  0  0  0  0  0
    1.9950   25.6950  -35.9840 C   0  0  0  0  0  0  0  0  0  0  0  0
    2.6000   27.3540  -36.0540 S   0  0  0  0  0  0  0  0  0  0  0  0
    3.4630   27.5190  -37.2740 O   0  0  0  0  0  0  0  0  0  0  0  0
    3.4520   27.6200  -34.8440 O   0  0  0  0  0  0  0  0  0  0  0  0
    1.2890   28.5110  -36.1090 N   0  0  0  0  0  0  0  0  0  0  0  0
    0.4330   28.2570  -37.2860 C   0  0  0  0  0  0  0  0  0  0  0  0
   -0.9030   28.9970  -37.1720 C   0  0  0  0  0  0  0  0  0  0  0  0
   -1.7060   28.5200  -35.9460 C   0  0  0  0  0  0  0  0  0  0  0  0
   -0.8140   27.8990  -34.8570 C   0  0  0  0  0  0  0  0  0  0  0  0
    0.5630   28.5790  -34.8140 C   0  0  0  0  0  0  0  0  0  0  0  0
    0.6280   25.4350  -36.1460 C   0  0  0  0  0  0  0  0  0  0  0  0
    0.1510   24.1220  -36.0950 C   0  0  0  0  0  0  0  0  0  0  0  0
   -0.6500   19.8420  -34.5350 C   0  0  0  0  0  0  0  0  0  0  0  0
   -0.1030   18.6510  -35.0420 C   0  0  0  0  0  0  0  0  0  0  0  0
   -0.8610   17.4800  -35.0690 C   0  0  0  0  0  0  0  0  0  0  0  0
   -2.1740   17.4810  -34.5910 C   0  0  0  0  0  0  0  0  0  0  0  0
   -2.8900   16.3290  -34.6220 F   0  0  0  0  0  0  0  0  0  0  0  0
   -2.7360   18.6620  -34.0760 C   0  0  0  0  0  0  0  0  0  0  0  0
   -4.3910   18.6530  -33.4530 S   0  0  0  0  0  0  0  0  0  0  0  0
   -5.3600   18.8380  -34.5860 O   0  0  0  0  0  0  0  0  0  0  0  0
   -4.6490   17.3250  -32.7970 O   0  0  0  0  0  0  0  0  0  0  0  0
   -4.6470   19.9080  -32.2760 N   0  0  0  0  0  0  0  0  0  0  0  0
   -4.8650   21.1980  -32.9340 C   0  0  0  0  0  0  0  0  0  0  0  0
   -4.1010   22.2980  -32.1950 C   0  0  0  0  0  0  0  0  0  0  0  0
   -5.0270   23.2170  -31.4440 C   0  0  0  0  0  0  0  0  0  0  0  0
   -6.3900   22.9040  -31.3050 C   0  0  0  0  0  0  0  0  0  0  0  0
   -7.2210   23.7700  -30.5900 C   0  0  0  0  0  0  0  0  0  0  0  0
   -6.6880   24.9310  -30.0170 C   0  0  0  0  0  0  0  0  0  0  0  0
   -5.3280   25.2050  -30.1670 C   0  0  0  0  0  0  0  0  0  0  0  0
   -4.5330   24.3530  -30.8700 N   0  0  0  0  0  0  0  0  0  0  0  0
   -1.9610   19.8310  -34.0250 C   0  0  0  0  0  0  0  0  0  0  0  0
    0.5160   21.1270  -36.6450 H   0  0  0  0  0  0  0  0  0  0  0  0
    3.0980   22.4882  -35.5077 H   0  0  0  0  0  0  0  0  0  0  0  0
    3.9505   24.8283  -35.6202 H   0  0  0  0  0  0  0  0  0  0  0  0
    0.9566   28.5999  -38.1906 H   0  0  0  0  0  0  0  0  0  0  0  0
    0.2286   27.1775  -37.3404 H   0  0  0  0  0  0  0  0  0  0  0  0
   -0.7080   30.0752  -37.0749 H   0  0  0  0  0  0  0  0  0  0  0  0
   -1.4936   28.7875  -38.0761 H   0  0  0  0  0  0  0  0  0  0  0  0
   -2.2375   29.3819  -35.5164 H   0  0  0  0  0  0  0  0  0  0  0  0
   -2.4035   27.7413  -36.2881 H   0  0  0  0  0  0  0  0  0  0  0  0
   -1.3044   28.0190  -33.8797 H   0  0  0  0  0  0  0  0  0  0  0  0
   -0.6699   26.8336  -35.0897 H   0  0  0  0  0  0  0  0  0  0  0  0
    0.4226   29.6368  -34.5468 H   0  0  0  0  0  0  0  0  0  0  0  0
    1.1700   28.0425  -34.0698 H   0  0  0  0  0  0  0  0  0  0  0  0
   -0.0722   26.2666  -36.3139 H   0  0  0  0  0  0  0  0  0  0  0  0
   -0.9238   23.9270  -36.2248 H   0  0  0  0  0  0  0  0  0  0  0  0
    0.9299   18.6419  -35.4202 H   0  0  0  0  0  0  0  0  0  0  0  0
   -0.4235   16.5529  -35.4679 H   0  0  0  0  0  0  0  0  0  0  0  0
   -4.5083   21.1418  -33.9731 H   0  0  0  0  0  0  0  0  0  0  0  0
   -5.9395   21.4332  -32.9206 H   0  0  0  0  0  0  0  0  0  0  0  0
   -3.4072   21.8308  -31.4806 H   0  0  0  0  0  0  0  0  0  0  0  0
   -3.5581   22.8965  -32.9414 H   0  0  0  0  0  0  0  0  0  0  0  0
   -6.7982   21.9868  -31.7545 H   0  0  0  0  0  0  0  0  0  0  0  0
   -8.2909   23.5404  -30.4775 H   0  0  0  0  0  0  0  0  0  0  0  0
   -7.3348   25.6202  -29.4543 H   0  0  0  0  0  0  0  0  0  0  0  0
   -4.8977   26.1114  -29.7162 H   0  0  0  0  0  0  0  0  0  0  0  0
   -2.3821   20.7459  -33.5827 H   0  0  0  0  0  0  0  0  0  0  0  0
  1  2  2  0
  2  3  1  0
  3  4  1  0
  4  5  2  0
  5  6  1  0
  6  7  2  0
  7  8  1  0
  8  9  2  0
  8 10  2  0
  8 11  1  0
 11 12  1  0
 12 13  1  0
 13 14  1  0
 14 15  1  0
 15 16  1  0
  7 17  1  0
 17 18  2  0
  2 19  1  0
 19 20  2  0
 20 21  1  0
 21 22  2  0
 22 23  1  0
 22 24  1  0
 24 25  1  0
 25 26  2  0
 25 27  2  0
 25 28  1  0
 28 29  1  0
 29 30  1  0
 30 31  1  0
 31 32  2  0
 32 33  1  0
 33 34  2  0
 34 35  1  0
 35 36  2  0
 24 37  2  0
 18  4  1  0
 37 19  1  0
 16 11  1  0
 36 31  1  0
  3 38  1  0
  5 39  1  0
  6 40  1  0
 12 41  1  0
 12 42  1  0
 13 43  1  0
 13 44  1  0
 14 45  1  0
 14 46  1  0
 15 47  1  0
 15 48  1  0
 16 49  1  0
 16 50  1  0
 17 51  1  0
 18 52  1  0
 20 53  1  0
 21 54  1  0
 29 55  1  0
 29 56  1  0
 30 57  1  0
 30 58  1  0
 32 59  1  0
 33 60  1  0
 34 61  1  0
 35 62  1  0
 37 63  1  0
M  CHG  1  28  -1
M  END
>  <UniqueID>  (21) 
21

>  <SMILES>  (21) 
O=C(Nc1ccc(S(=O)(=O)N2CCCCC2)cc1)c1ccc(F)c(S(=O)(=O)[N-]CCc2ccccn2)c1

>  <Energy>  (21) 
71.76900770350687

>  <Genealogy>  (21) 
O=C(Nc1ccc(S(=O)(=O)N2CCCCC2)cc1)c1ccc(F)c(S(=O)(=O)[N-]CCc2ccccn2)c1 (protonated)
O=C(Nc1ccc(S(=O)(=O)N2CCCCC2)cc1)c1ccc(F)c(S(=O)(=O)[N-]CCc2ccccn2)c1 (3D coordinates assigned)
O=C(Nc1ccc(S(=O)(=O)N2CCCCC2)cc1)c1ccc(F)c(S(=O)(=O)[N-]CCc2ccccn2)c1 (nonaromatic ring conformer: 71.76900770350687 kcal/mol)

>  <smiles>  (21) 
O=C(Nc1ccc(S(=O)(=O)N2CCCCC2)cc1)c1ccc(F)c(S(=O)(=O)NCCc2ccccn2)c1

>  <score_type>  (21) 
oracle

>  <origin>  (21) 
adgpu

>  <m_score__min__energy>  (21) 
-10.91

>  <m_primary>  (21) 
energy

$$$$
21:0
     RDKit          3D

 59 62  0  0  0  0  0  0  0  0999 V2000
   -4.8860   26.1200  -30.2420 O   0  0  0  0  0  0  0  0  0  0  0  0
   -4.6260   24.9230  -30.5360 C   0  0  0  0  0  0  0  0  0  0  0  0
   -3.2560   24.4950  -30.5680 N   0  0  0  0  0  0  0  0  0  0  0  0
   -2.5340   24.0600  -29.4080 C   0  0  0  0  0  0  0  0  0  0  0  0
   -2.8190   22.8020  -28.8640 C   0  0  0  0  0  0  0  0  0  0  0  0
   -2.0500   22.2970  -27.8070 C   0  0  0  0  0  0  0  0  0  0  0  0
   -2.3290   20.6520  -27.2490 S   0  0  0  0  0  0  0  0  0  0  0  0
   -1.6690   20.4440  -25.9140 O   0  0  0  0  0  0  0  0  0  0  0  0
   -3.8110   20.4540  -27.0900 O   0  0  0  0  0  0  0  0  0  0  0  0
   -1.7070   19.5230  -28.4370 N   0  0  0  0  0  0  0  0  0  0  0  0
   -0.6460   18.6460  -27.8990 C   0  0  0  0  0  0  0  0  0  0  0  0
    0.7260   19.3350  -27.8230 C   0  0  0  0  0  0  0  0  0  0  0  0
    1.1100   19.9430  -29.1720 C   0  0  0  0  0  0  0  0  0  0  0  0
    0.0130   20.8840  -29.6720 C   0  0  0  0  0  0  0  0  0  0  0  0
   -1.3430   20.1620  -29.7210 C   0  0  0  0  0  0  0  0  0  0  0  0
   -1.0260   23.0800  -27.2570 C   0  0  0  0  0  0  0  0  0  0  0  0
   -0.7700   24.3560  -27.7650 C   0  0  0  0  0  0  0  0  0  0  0  0
   -1.5130   24.8470  -28.8430 C   0  0  0  0  0  0  0  0  0  0  0  0
   -1.2380   26.1160  -29.3390 O   0  0  0  0  0  0  0  0  0  0  0  0
   -5.7310   23.9810  -30.8220 C   0  0  0  0  0  0  0  0  0  0  0  0
   -6.2420   23.1540  -29.8050 C   0  0  0  0  0  0  0  0  0  0  0  0
   -7.2050   22.1860  -30.0990 C   0  0  0  0  0  0  0  0  0  0  0  0
   -7.6710   22.0320  -31.4120 C   0  0  0  0  0  0  0  0  0  0  0  0
   -8.7660   20.7050  -31.8070 S   0  0  0  0  0  0  0  0  0  0  0  0
   -9.1210   19.9690  -30.5440 O   0  0  0  0  0  0  0  0  0  0  0  0
  -10.0360   21.2690  -32.3860 O   0  0  0  0  0  0  0  0  0  0  0  0
   -8.0540   19.5870  -32.9550 N   0  0  0  0  0  0  0  0  0  0  0  0
   -8.0400   18.1890  -32.4650 C   0  0  0  0  0  0  0  0  0  0  0  0
   -6.6610   17.7480  -31.9410 C   0  0  0  0  0  0  0  0  0  0  0  0
   -5.9450   18.8570  -31.4450 O   0  0  0  0  0  0  0  0  0  0  0  0
   -5.5660   19.6950  -32.5190 C   0  0  0  0  0  0  0  0  0  0  0  0
   -6.7460   20.0520  -33.4580 C   0  0  0  0  0  0  0  0  0  0  0  0
   -7.2090   22.8950  -32.4170 C   0  0  0  0  0  0  0  0  0  0  0  0
   -6.2480   23.8700  -32.1230 C   0  0  0  0  0  0  0  0  0  0  0  0
   -3.6510   22.2068  -29.2684 H   0  0  0  0  0  0  0  0  0  0  0  0
   -0.9347   18.3284  -26.8862 H   0  0  0  0  0  0  0  0  0  0  0  0
   -0.5465   17.7927  -28.5860 H   0  0  0  0  0  0  0  0  0  0  0  0
    0.6862   20.1332  -27.0671 H   0  0  0  0  0  0  0  0  0  0  0  0
    1.4809   18.5828  -27.5503 H   0  0  0  0  0  0  0  0  0  0  0  0
    2.0471   20.5080  -29.0599 H   0  0  0  0  0  0  0  0  0  0  0  0
    1.2395   19.1307  -29.9023 H   0  0  0  0  0  0  0  0  0  0  0  0
   -0.0612   21.7454  -28.9919 H   0  0  0  0  0  0  0  0  0  0  0  0
    0.2713   21.2196  -30.6872 H   0  0  0  0  0  0  0  0  0  0  0  0
   -2.1209   20.8953  -29.9801 H   0  0  0  0  0  0  0  0  0  0  0  0
   -1.2626   19.3637  -30.4735 H   0  0  0  0  0  0  0  0  0  0  0  0
   -0.4230   22.6893  -26.4241 H   0  0  0  0  0  0  0  0  0  0  0  0
    0.0190   24.9767  -27.3153 H   0  0  0  0  0  0  0  0  0  0  0  0
   -5.8811   23.2704  -28.7724 H   0  0  0  0  0  0  0  0  0  0  0  0
   -7.5987   21.5429  -29.2981 H   0  0  0  0  0  0  0  0  0  0  0  0
   -8.7711   18.0967  -31.6483 H   0  0  0  0  0  0  0  0  0  0  0  0
   -8.2909   17.5397  -33.3167 H   0  0  0  0  0  0  0  0  0  0  0  0
   -6.7982   17.0145  -31.1329 H   0  0  0  0  0  0  0  0  0  0  0  0
   -6.0927   17.2978  -32.7682 H   0  0  0  0  0  0  0  0  0  0  0  0
   -5.1526   20.6272  -32.1065 H   0  0  0  0  0  0  0  0  0  0  0  0
   -4.8252   19.1452  -33.1181 H   0  0  0  0  0  0  0  0  0  0  0  0
   -6.7840   21.1456  -33.5707 H   0  0  0  0  0  0  0  0  0  0  0  0
   -6.5656   19.5426  -34.4161 H   0  0  0  0  0  0  0  0  0  0  0  0
   -7.6033   22.8053  -33.4400 H   0  0  0  0  0  0  0  0  0  0  0  0
   -5.8972   24.5505  -32.9128 H   0  0  0  0  0  0  0  0  0  0  0  0
  1  2  2  0
  2  3  1  0
  3  4  1  0
  4  5  2  0
  5  6  1  0
  6  7  1  0
  7  8  2  0
  7  9  2  0
  7 10  1  0
 10 11  1  0
 11 12  1  0
 12 13  1  0
 13 14  1  0
 14 15  1  0
  6 16  2  0
 16 17  1  0
 17 18  2  0
 18 19  1  0
  2 20  1  0
 20 21  2  0
 21 22  1  0
 22 23  2  0
 23 24  1  0
 24 25  2  0
 24 26  2  0
 24 27  1  0
 27 28  1  0
 28 29  1  0
 29 30  1  0
 30 31  1  0
 31 32  1  0
 23 33  1  0
 33 34  2  0
 18  4  1  0
 34 20  1  0
 15 10  1  0
 32 27  1  0
  5 35  1  0
 11 36  1  0
 11 37  1  0
 12 38  1  0
 12 39  1  0
 13 40  1  0
 13 41  1  0
 14 42  1  0
 14 43  1  0
 15 44  1  0
 15 45  1  0
 16 46  1  0
 17 47  1  0
 21 48  1  0
 22 49  1  0
 28 50  1  0
 28 51  1  0
 29 52  1  0
 29 53  1  0
 31 54  1  0
 31 55  1  0
 32 56  1  0
 32 57  1  0
 33 58  1  0
 34 59  1  0
M  CHG  2   3  -1  19  -1
M  END
>  <UniqueID>  (22) 
22

>  <SMILES>  (22) 
O=C([N-]c1cc(S(=O)(=O)N2CCCCC2)ccc1[O-])c1ccc(S(=O)(=O)N2CCOCC2)cc1

>  <Energy>  (22) 
77.48513936520477

>  <Genealogy>  (22) 
O=C([N-]c1cc(S(=O)(=O)N2CCCCC2)ccc1[O-])c1ccc(S(=O)(=O)N2CCOCC2)cc1 (protonated)
O=C([N-]c1cc(S(=O)(=O)N2CCCCC2)ccc1[O-])c1ccc(S(=O)(=O)N2CCOCC2)cc1 (3D coordinates assigned)
O=C([N-]c1cc(S(=O)(=O)N2CCCCC2)ccc1[O-])c1ccc(S(=O)(=O)N2CCOCC2)cc1 (nonaromatic ring conformer: 77.48513936520477 kcal/mol)

>  <smiles>  (22) 
O=C(Nc1cc(S(=O)(=O)N2CCCCC2)ccc1O)c1ccc(S(=O)(=O)N2CCOCC2)cc1

>  <score_type>  (22) 
oracle

>  <origin>  (22) 
adgpu

>  <m_score__min__energy>  (22) 
-15.02

>  <m_primary>  (22) 
energy

$$$$
22:0
     RDKit          3D

 52 55  0  0  0  0  0  0  0  0999 V2000
   -8.2609   17.3850  -32.6575 H   0  0  0  0  0  0  0  0  0  0  0  0
   -7.4170   18.0750  -32.8050 C   0  0  0  0  0  0  0  0  0  0  0  0
   -7.4380   19.3410  -32.2120 C   0  0  0  0  0  0  0  0  0  0  0  0
   -8.3004   19.6485  -31.6023 H   0  0  0  0  0  0  0  0  0  0  0  0
   -6.3620   20.2170  -32.3940 C   0  0  0  0  0  0  0  0  0  0  0  0
   -6.3844   21.2153  -31.9326 H   0  0  0  0  0  0  0  0  0  0  0  0
   -5.2540   19.8270  -33.1630 C   0  0  0  0  0  0  0  0  0  0  0  0
   -4.1160   20.7780  -33.3900 C   0  0  0  0  0  0  0  0  0  0  0  0
   -4.0058   20.9680  -34.4678 H   0  0  0  0  0  0  0  0  0  0  0  0
   -3.1862   20.3387  -32.9994 H   0  0  0  0  0  0  0  0  0  0  0  0
   -4.3900   22.0350  -32.6990 N   0  0  0  0  0  0  0  0  0  0  0  0
   -3.6980   22.4750  -31.6920 C   0  0  0  0  0  0  0  0  0  0  0  0
   -2.6430   21.7680  -31.2050 N   0  0  0  0  0  0  0  0  0  0  0  0
   -1.9040   22.2220  -30.1590 C   0  0  0  0  0  0  0  0  0  0  0  0
   -0.7860   21.4430  -29.7160 N   0  0  0  0  0  0  0  0  0  0  0  0
   -0.0010   21.9560  -29.2530 H   0  0  0  0  0  0  0  0  0  0  0  0
   -0.9110   20.0090  -29.4340 C   0  0  0  0  0  0  0  0  0  0  0  0
   -1.8171   19.6025  -29.9070 H   0  0  0  0  0  0  0  0  0  0  0  0
    0.2890   19.2420  -30.0440 C   0  0  0  0  0  0  0  0  0  0  0  0
   -0.0652   18.2715  -30.4218 H   0  0  0  0  0  0  0  0  0  0  0  0
    0.7076   19.8566  -30.8546 H   0  0  0  0  0  0  0  0  0  0  0  0
    1.3990   18.9970  -29.0150 C   0  0  0  0  0  0  0  0  0  0  0  0
    2.2254   18.4590  -29.5025 H   0  0  0  0  0  0  0  0  0  0  0  0
    1.7362   19.9721  -28.6336 H   0  0  0  0  0  0  0  0  0  0  0  0
    0.8920   18.1610  -27.8220 C   0  0  0  0  0  0  0  0  0  0  0  0
    1.0368   17.0961  -28.0566 H   0  0  0  0  0  0  0  0  0  0  0  0
    1.4672   18.4759  -26.9389 H   0  0  0  0  0  0  0  0  0  0  0  0
   -0.5980   18.3910  -27.4980 C   0  0  0  0  0  0  0  0  0  0  0  0
   -1.1999   17.6467  -28.0401 H   0  0  0  0  0  0  0  0  0  0  0  0
   -0.7325   18.2900  -26.4109 H   0  0  0  0  0  0  0  0  0  0  0  0
   -1.0560   19.7940  -27.9080 C   0  0  0  0  0  0  0  0  0  0  0  0
   -2.1116   19.9229  -27.6266 H   0  0  0  0  0  0  0  0  0  0  0  0
   -0.4230   20.5307  -27.3917 H   0  0  0  0  0  0  0  0  0  0  0  0
   -2.2550   23.4390  -29.5360 C   0  0  0  0  0  0  0  0  0  0  0  0
   -1.5390   23.9310  -28.3340 C   0  0  0  0  0  0  0  0  0  0  0  0
   -1.3410   23.0720  -27.2410 C   0  0  0  0  0  0  0  0  0  0  0  0
   -1.6923   22.0309  -27.2939 H   0  0  0  0  0  0  0  0  0  0  0  0
   -0.7000   23.5310  -26.0850 C   0  0  0  0  0  0  0  0  0  0  0  0
   -0.4810   22.4410  -24.7260 Cl  0  0  0  0  0  0  0  0  0  0  0  0
   -0.2430   24.8540  -26.0190 C   0  0  0  0  0  0  0  0  0  0  0  0
    0.3910   25.3220  -24.8740 O   0  0  0  0  0  0  0  0  0  0  0  0
   -0.4260   25.7110  -27.1080 C   0  0  0  0  0  0  0  0  0  0  0  0
   -0.0650   26.7487  -27.0548 H   0  0  0  0  0  0  0  0  0  0  0  0
   -1.0660   25.2550  -28.2650 C   0  0  0  0  0  0  0  0  0  0  0  0
   -1.2220   26.1210  -29.3430 O   0  0  0  0  0  0  0  0  0  0  0  0
   -3.3440   24.1540  -30.0620 C   0  0  0  0  0  0  0  0  0  0  0  0
   -3.7040   25.2490  -29.5500 O   0  0  0  0  0  0  0  0  0  0  0  0
   -4.0350   23.6600  -31.1220 N   0  0  0  0  0  0  0  0  0  0  0  0
   -5.2480   18.5590  -33.7690 C   0  0  0  0  0  0  0  0  0  0  0  0
   -4.3938   18.2519  -34.3903 H   0  0  0  0  0  0  0  0  0  0  0  0
   -6.3260   17.6860  -33.5840 C   0  0  0  0  0  0  0  0  0  0  0  0
   -6.3136   16.6913  -34.0534 H   0  0  0  0  0  0  0  0  0  0  0  0
  1  2  1  0
  2  3  2  0
  3  4  1  0
  3  5  1  0
  5  6  1  0
  5  7  2  0
  7  8  1  0
  8  9  1  0
  8 10  1  0
  8 11  1  0
 11 12  2  0
 12 13  1  0
 13 14  1  0
 14 15  1  0
 15 16  1  0
 15 17  1  0
 17 18  1  0
 17 19  1  0
 19 20  1  0
 19 21  1  0
 19 22  1  0
 22 23  1  0
 22 24  1  0
 22 25  1  0
 25 26  1  0
 25 27  1  0
 25 28  1  0
 28 29  1  0
 28 30  1  0
 28 31  1  0
 31 32  1  0
 31 33  1  0
 14 34  2  0
 34 35  1  0
 35 36  2  0
 36 37  1  0
 36 38  1  0
 38 39  1  0
 38 40  2  0
 40 41  1  0
 40 42  1  0
 42 43  1  0
 42 44  2  0
 44 45  1  0
 34 46  1  0
 46 47  2  0
 46 48  1  0
  7 49  1  0
 49 50  1  0
 49 51  2  0
 51 52  1  0
 51  2  1  0
 48 12  1  0
 31 17  1  0
 44 35  1  0
M  CHG  4  13  -1  41  -1  45  -1  48  -1
M  END
>  <UniqueID>  (23) 
23

>  <SMILES>  (23) 
O=c1[n-]/c(=N/Cc2ccccc2)[n-]c(NC2CCCCC2)c1-c1cc(Cl)c([O-])cc1[O-]

>  <Energy>  (23) 
67.74132212152045

>  <Genealogy>  (23) 
O=c1[n-]c(=NCc2ccccc2)[n-]c(NC2CCCCC2)c1-c1cc(Cl)c([O-])cc1[O-] (protonated)
O=c1[n-]/c(=N/Cc2ccccc2)[n-]c(NC2CCCCC2)c1-c1cc(Cl)c([O-])cc1[O-] (cis-trans isomerization)
O=c1[n-]/c(=N/Cc2ccccc2)[n-]c(NC2CCCCC2)c1-c1cc(Cl)c([O-])cc1[O-] (3D coordinates assigned)
O=c1[n-]/c(=N/Cc2ccccc2)[n-]c(NC2CCCCC2)c1-c1cc(Cl)c([O-])cc1[O-] (nonaromatic ring conformer: 67.74132212152045 kcal/mol)

>  <smiles>  (23) 
O=c1[nH]c(=NCc2ccccc2)[nH]c(NC2CCCCC2)c1-c1cc(Cl)c(O)cc1O

>  <score_type>  (23) 
oracle

>  <origin>  (23) 
adgpu

>  <m_score__min__energy>  (23) 
-13.94

>  <m_primary>  (23) 
energy

$$$$
23:0
     RDKit          3D

 52 55  0  0  0  0  0  0  0  0999 V2000
   -3.8600   25.6600  -30.8210 O   0  0  0  0  0  0  0  0  0  0  0  0
   -4.8160   24.5490  -30.4980 S   0  0  0  0  0  0  0  0  0  0  0  0
   -5.9870   25.1360  -29.7540 O   0  0  0  0  0  0  0  0  0  0  0  0
   -5.3450   23.8140  -31.9820 N   0  0  0  0  0  0  0  0  0  0  0  0
   -6.2680   22.7190  -32.0800 C   0  0  0  0  0  0  0  0  0  0  0  0
   -5.8730   21.4580  -32.5710 C   0  0  0  0  0  0  0  0  0  0  0  0
   -6.8020   20.4120  -32.6520 C   0  0  0  0  0  0  0  0  0  0  0  0
   -8.1310   20.6180  -32.2660 C   0  0  0  0  0  0  0  0  0  0  0  0
   -8.5280   21.8740  -31.7870 C   0  0  0  0  0  0  0  0  0  0  0  0
   -7.5960   22.9170  -31.6800 C   0  0  0  0  0  0  0  0  0  0  0  0
   -7.9890   24.1620  -31.1920 O   0  0  0  0  0  0  0  0  0  0  0  0
   -9.1240   19.5010  -32.4540 C   0  0  0  0  0  0  0  0  0  0  0  0
   -8.5420   18.1310  -32.0370 C   0  0  0  0  0  0  0  0  0  0  0  0
   -7.0180   17.9600  -32.2840 C   0  0  0  0  0  0  0  0  0  0  0  0
   -6.4040   19.0530  -33.1720 C   0  0  0  0  0  0  0  0  0  0  0  0
   -3.9790   23.3450  -29.5190 C   0  0  0  0  0  0  0  0  0  0  0  0
   -3.6950   22.0860  -30.0660 C   0  0  0  0  0  0  0  0  0  0  0  0
   -3.0670   21.1070  -29.2910 C   0  0  0  0  0  0  0  0  0  0  0  0
   -2.7180   21.3750  -27.9600 C   0  0  0  0  0  0  0  0  0  0  0  0
   -1.9450   20.1280  -26.9760 S   0  0  0  0  0  0  0  0  0  0  0  0
   -1.1880   20.7900  -25.8580 O   0  0  0  0  0  0  0  0  0  0  0  0
   -3.0070   19.2590  -26.3660 O   0  0  0  0  0  0  0  0  0  0  0  0
   -0.8500   19.1200  -27.8910 N   0  0  0  0  0  0  0  0  0  0  0  0
    0.4060   19.8070  -28.2010 C   0  0  0  0  0  0  0  0  0  0  0  0
    1.4780   18.7220  -28.3190 C   0  0  0  0  0  0  0  0  0  0  0  0
    0.8550   17.4640  -27.7360 C   0  0  0  0  0  0  0  0  0  0  0  0
   -0.4740   17.9120  -27.1560 C   0  0  0  0  0  0  0  0  0  0  0  0
   -3.0150   22.6300  -27.4090 C   0  0  0  0  0  0  0  0  0  0  0  0
   -3.6360   23.6140  -28.1860 C   0  0  0  0  0  0  0  0  0  0  0  0
   -4.8334   21.2948  -32.8912 H   0  0  0  0  0  0  0  0  0  0  0  0
   -9.5747   22.0426  -31.4938 H   0  0  0  0  0  0  0  0  0  0  0  0
   -7.3150   24.8880  -30.9920 H   0  0  0  0  0  0  0  0  0  0  0  0
  -10.0135   19.7100  -31.8415 H   0  0  0  0  0  0  0  0  0  0  0  0
   -9.3791   19.4501  -33.5228 H   0  0  0  0  0  0  0  0  0  0  0  0
   -8.7306   17.9936  -30.9620 H   0  0  0  0  0  0  0  0  0  0  0  0
   -9.0408   17.3811  -32.6685 H   0  0  0  0  0  0  0  0  0  0  0  0
   -6.5056   17.9762  -31.3108 H   0  0  0  0  0  0  0  0  0  0  0  0
   -6.8861   17.0059  -32.8153 H   0  0  0  0  0  0  0  0  0  0  0  0
   -5.3078   18.9626  -33.1582 H   0  0  0  0  0  0  0  0  0  0  0  0
   -6.7709   18.9348  -34.2023 H   0  0  0  0  0  0  0  0  0  0  0  0
   -3.9674   21.8677  -31.1091 H   0  0  0  0  0  0  0  0  0  0  0  0
   -2.8456   20.1218  -29.7274 H   0  0  0  0  0  0  0  0  0  0  0  0
    0.3147   20.3556  -29.1501 H   0  0  0  0  0  0  0  0  0  0  0  0
    0.6634   20.5366  -27.4191 H   0  0  0  0  0  0  0  0  0  0  0  0
    1.7485   18.5630  -29.3733 H   0  0  0  0  0  0  0  0  0  0  0  0
    2.3998   19.0023  -27.7883 H   0  0  0  0  0  0  0  0  0  0  0  0
    0.6988   16.7106  -28.5222 H   0  0  0  0  0  0  0  0  0  0  0  0
    1.5002   16.9992  -26.9760 H   0  0  0  0  0  0  0  0  0  0  0  0
   -1.2342   17.1290  -27.2938 H   0  0  0  0  0  0  0  0  0  0  0  0
   -0.3966   18.1060  -26.0760 H   0  0  0  0  0  0  0  0  0  0  0  0
   -2.7584   22.8418  -26.3605 H   0  0  0  0  0  0  0  0  0  0  0  0
   -3.8555   24.6001  -27.7507 H   0  0  0  0  0  0  0  0  0  0  0  0
  1  2  2  0
  2  3  2  0
  2  4  1  0
  4  5  1  0
  5  6  2  0
  6  7  1  0
  7  8  2  0
  8  9  1  0
  9 10  2  0
 10 11  1  0
  8 12  1  0
 12 13  1  0
 13 14  1  0
 14 15  1  0
  2 16  1  0
 16 17  2  0
 17 18  1  0
 18 19  2  0
 19 20  1  0
 20 21  2  0
 20 22  2  0
 20 23  1  0
 23 24  1  0
 24 25  1  0
 25 26  1  0
 26 27  1  0
 19 28  1  0
 28 29  2  0
 10  5  1  0
 29 16  1  0
 15  7  1  0
 27 23  1  0
  6 30  1  0
  9 31  1  0
 11 32  1  0
 12 33  1  0
 12 34  1  0
 13 35  1  0
 13 36  1  0
 14 37  1  0
 14 38  1  0
 15 39  1  0
 15 40  1  0
 17 41  1  0
 18 42  1  0
 24 43  1  0
 24 44  1  0
 25 45  1  0
 25 46  1  0
 26 47  1  0
 26 48  1  0
 27 49  1  0
 27 50  1  0
 28 51  1  0
 29 52  1  0
M  CHG  1   4  -1
M  END
>  <UniqueID>  (24) 
24

>  <SMILES>  (24) 
O=S(=O)([N-]c1cc2c(cc1O)CCCC2)c1ccc(S(=O)(=O)N2CCCC2)cc1

>  <Energy>  (24) 
63.74281689161895

>  <Genealogy>  (24) 
O=S(=O)([N-]c1cc2c(cc1O)CCCC2)c1ccc(S(=O)(=O)N2CCCC2)cc1 (protonated)
O=S(=O)([N-]c1cc2c(cc1O)CCCC2)c1ccc(S(=O)(=O)N2CCCC2)cc1 (3D coordinates assigned)
O=S(=O)([N-]c1cc2c(cc1O)CCCC2)c1ccc(S(=O)(=O)N2CCCC2)cc1 (nonaromatic ring conformer: 63.74281689161895 kcal/mol)

>  <smiles>  (24) 
O=S(=O)(Nc1cc2c(cc1O)CCCC2)c1ccc(S(=O)(=O)N2CCCC2)cc1

>  <score_type>  (24) 
oracle

>  <origin>  (24) 
adgpu

>  <m_score__min__energy>  (24) 
-13.199999999999999

>  <m_primary>  (24) 
energy

$$$$
24:0
     RDKit          3D

 52 55  0  0  0  0  0  0  0  0999 V2000
   -4.6460   25.2730  -31.1730 O   0  0  0  0  0  0  0  0  0  0  0  0
   -5.6750   24.7020  -30.2370 S   0  0  0  0  0  0  0  0  0  0  0  0
   -6.8120   25.6750  -30.1080 O   0  0  0  0  0  0  0  0  0  0  0  0
   -4.9500   24.4530  -28.6800 N   0  0  0  0  0  0  0  0  0  0  0  0
   -3.8160   23.5920  -28.4610 C   0  0  0  0  0  0  0  0  0  0  0  0
   -3.9690   22.3130  -27.8950 C   0  0  0  0  0  0  0  0  0  0  0  0
   -2.8570   21.4950  -27.6620 C   0  0  0  0  0  0  0  0  0  0  0  0
   -1.5720   21.9380  -28.0300 C   0  0  0  0  0  0  0  0  0  0  0  0
   -1.4160   23.2090  -28.5940 C   0  0  0  0  0  0  0  0  0  0  0  0
   -2.5260   24.0300  -28.8140 C   0  0  0  0  0  0  0  0  0  0  0  0
   -2.3370   25.2890  -29.3750 O   0  0  0  0  0  0  0  0  0  0  0  0
   -0.3610   21.0840  -27.7470 C   0  0  0  0  0  0  0  0  0  0  0  0
   -0.7210   19.5940  -27.6710 C   0  0  0  0  0  0  0  0  0  0  0  0
   -1.8810   19.3730  -26.6970 C   0  0  0  0  0  0  0  0  0  0  0  0
   -3.0280   20.1930  -27.0800 N   0  0  0  0  0  0  0  0  0  0  0  0
   -6.3040   23.1770  -30.8550 C   0  0  0  0  0  0  0  0  0  0  0  0
   -5.4740   22.0490  -30.8960 C   0  0  0  0  0  0  0  0  0  0  0  0
   -5.9550   20.8420  -31.4120 C   0  0  0  0  0  0  0  0  0  0  0  0
   -7.2700   20.7490  -31.8850 C   0  0  0  0  0  0  0  0  0  0  0  0
   -7.8810   19.2210  -32.5250 S   0  0  0  0  0  0  0  0  0  0  0  0
   -7.9560   18.2130  -31.4120 O   0  0  0  0  0  0  0  0  0  0  0  0
   -9.2710   19.4280  -33.0600 O   0  0  0  0  0  0  0  0  0  0  0  0
   -6.8550   18.5970  -33.7970 N   0  0  0  0  0  0  0  0  0  0  0  0
   -5.5520   19.2880  -33.7940 C   0  0  0  0  0  0  0  0  0  0  0  0
   -4.4900   18.4450  -34.5190 C   0  0  0  0  0  0  0  0  0  0  0  0
   -4.2670   17.1670  -33.9360 O   0  0  0  0  0  0  0  0  0  0  0  0
   -5.3640   16.6860  -33.1720 C   0  0  0  0  0  0  0  0  0  0  0  0
   -6.7310   17.1250  -33.7280 C   0  0  0  0  0  0  0  0  0  0  0  0
   -8.0990   21.8800  -31.8450 C   0  0  0  0  0  0  0  0  0  0  0  0
   -7.6190   23.0870  -31.3290 C   0  0  0  0  0  0  0  0  0  0  0  0
   -5.4460   24.8690  -27.8610 H   0  0  0  0  0  0  0  0  0  0  0  0
   -4.9742   21.9515  -27.6325 H   0  0  0  0  0  0  0  0  0  0  0  0
   -0.4116   23.5652  -28.8666 H   0  0  0  0  0  0  0  0  0  0  0  0
    0.3751   21.2321  -28.5508 H   0  0  0  0  0  0  0  0  0  0  0  0
    0.0515   21.3867  -26.7732 H   0  0  0  0  0  0  0  0  0  0  0  0
   -1.0150   19.2410  -28.6705 H   0  0  0  0  0  0  0  0  0  0  0  0
    0.1556   19.0334  -27.3141 H   0  0  0  0  0  0  0  0  0  0  0  0
   -2.1716   18.3122  -26.7135 H   0  0  0  0  0  0  0  0  0  0  0  0
   -1.5582   19.6596  -25.6852 H   0  0  0  0  0  0  0  0  0  0  0  0
   -3.9880   19.8490  -26.8460 H   0  0  0  0  0  0  0  0  0  0  0  0
   -4.4417   22.1132  -30.5214 H   0  0  0  0  0  0  0  0  0  0  0  0
   -5.2974   19.9609  -31.4467 H   0  0  0  0  0  0  0  0  0  0  0  0
   -5.6554   20.2565  -34.3051 H   0  0  0  0  0  0  0  0  0  0  0  0
   -5.2336   19.4394  -32.7520 H   0  0  0  0  0  0  0  0  0  0  0  0
   -4.8163   18.2982  -35.5592 H   0  0  0  0  0  0  0  0  0  0  0  0
   -3.5416   18.9974  -34.4457 H   0  0  0  0  0  0  0  0  0  0  0  0
   -5.3276   15.5866  -33.1622 H   0  0  0  0  0  0  0  0  0  0  0  0
   -5.2703   17.1123  -32.1623 H   0  0  0  0  0  0  0  0  0  0  0  0
   -6.8524   16.7107  -34.7397 H   0  0  0  0  0  0  0  0  0  0  0  0
   -7.5102   16.7502  -33.0480 H   0  0  0  0  0  0  0  0  0  0  0  0
   -9.1307   21.8167  -32.2212 H   0  0  0  0  0  0  0  0  0  0  0  0
   -8.2758   23.9688  -31.2950 H   0  0  0  0  0  0  0  0  0  0  0  0
  1  2  2  0
  2  3  2  0
  2  4  1  0
  4  5  1  0
  5  6  2  0
  6  7  1  0
  7  8  2  0
  8  9  1  0
  9 10  2  0
 10 11  1  0
  8 12  1  0
 12 13  1  0
 13 14  1  0
 14 15  1  0
  2 16  1  0
 16 17  2  0
 17 18  1  0
 18 19  2  0
 19 20  1  0
 20 21  2  0
 20 22  2  0
 20 23  1  0
 23 24  1  0
 24 25  1  0
 25 26  1  0
 26 27  1  0
 27 28  1  0
 19 29  1  0
 29 30  2  0
 10  5  1  0
 30 16  1  0
 15  7  1  0
 28 23  1  0
  4 31  1  0
  6 32  1  0
  9 33  1  0
 12 34  1  0
 12 35  1  0
 13 36  1  0
 13 37  1  0
 14 38  1  0
 14 39  1  0
 15 40  1  0
 17 41  1  0
 18 42  1  0
 24 43  1  0
 24 44  1  0
 25 45  1  0
 25 46  1  0
 27 47  1  0
 27 48  1  0
 28 49  1  0
 28 50  1  0
 29 51  1  0
 30 52  1  0
M  CHG  1  11  -1
M  END
>  <UniqueID>  (25) 
25

>  <SMILES>  (25) 
O=S(=O)(Nc1cc2c(cc1[O-])CCCN2)c1ccc(S(=O)(=O)N2CCOCC2)cc1

>  <Energy>  (25) 
67.77344901705541

>  <Genealogy>  (25) 
O=S(=O)(Nc1cc2c(cc1[O-])CCCN2)c1ccc(S(=O)(=O)N2CCOCC2)cc1 (protonated)
O=S(=O)(Nc1cc2c(cc1[O-])CCCN2)c1ccc(S(=O)(=O)N2CCOCC2)cc1 (3D coordinates assigned)
O=S(=O)(Nc1cc2c(cc1[O-])CCCN2)c1ccc(S(=O)(=O)N2CCOCC2)cc1 (nonaromatic ring conformer: 67.77344901705541 kcal/mol)

>  <smiles>  (25) 
O=S(=O)(Nc1cc2c(cc1O)CCCN2)c1ccc(S(=O)(=O)N2CCOCC2)cc1

>  <score_type>  (25) 
oracle

>  <origin>  (25) 
adgpu

>  <m_score__min__energy>  (25) 
-14.470000000000001

>  <m_primary>  (25) 
energy

$$$$
25:0
     RDKit          3D

 53 56  0  0  0  0  0  0  0  0999 V2000
   -2.1960   19.1390  -26.9040 C   0  0  0  0  0  0  0  0  0  0  0  0
   -2.7170   20.8660  -27.1540 S   0  0  0  0  0  0  0  0  0  0  0  0
   -1.8240   21.0330  -28.7060 C   0  0  0  0  0  0  0  0  0  0  0  0
   -1.2330   19.8990  -29.2790 C   0  0  0  0  0  0  0  0  0  0  0  0
   -0.5340   20.0020  -30.4820 C   0  0  0  0  0  0  0  0  0  0  0  0
   -0.4110   21.2410  -31.1140 C   0  0  0  0  0  0  0  0  0  0  0  0
   -0.9900   22.3800  -30.5450 C   0  0  0  0  0  0  0  0  0  0  0  0
   -1.7210   22.2820  -29.3480 C   0  0  0  0  0  0  0  0  0  0  0  0
   -2.3140   23.4380  -28.7370 N   0  0  0  0  0  0  0  0  0  0  0  0
   -2.4680   24.7280  -29.3390 C   0  0  0  0  0  0  0  0  0  0  0  0
   -1.6920   25.6590  -28.9940 O   0  0  0  0  0  0  0  0  0  0  0  0
   -3.4900   24.9590  -30.3190 N   0  0  0  0  0  0  0  0  0  0  0  0
   -4.7090   24.2200  -30.4680 C   0  0  0  0  0  0  0  0  0  0  0  0
   -5.9270   24.9030  -30.3470 C   0  0  0  0  0  0  0  0  0  0  0  0
   -7.1390   24.2260  -30.5140 C   0  0  0  0  0  0  0  0  0  0  0  0
   -7.1400   22.8600  -30.8330 C   0  0  0  0  0  0  0  0  0  0  0  0
   -5.9300   22.1740  -30.9810 C   0  0  0  0  0  0  0  0  0  0  0  0
   -4.7160   22.8490  -30.7920 C   0  0  0  0  0  0  0  0  0  0  0  0
   -5.9740   20.6890  -31.2460 C   0  0  0  0  0  0  0  0  0  0  0  0
   -7.0610   20.2820  -32.1860 N   0  0  0  0  0  0  0  0  0  0  0  0
   -6.5340   19.9220  -33.5220 C   0  0  0  0  0  0  0  0  0  0  0  0
   -5.0620   19.6070  -33.4430 C   0  0  0  0  0  0  0  0  0  0  0  0
   -4.6200   18.2910  -33.2120 C   0  0  0  0  0  0  0  0  0  0  0  0
   -3.2520   18.0090  -33.1540 C   0  0  0  0  0  0  0  0  0  0  0  0
   -2.3150   19.0340  -33.3230 C   0  0  0  0  0  0  0  0  0  0  0  0
   -2.7460   20.3490  -33.5580 C   0  0  0  0  0  0  0  0  0  0  0  0
   -1.8220   21.3800  -33.7250 O   0  0  0  0  0  0  0  0  0  0  0  0
   -4.1160   20.6320  -33.6210 C   0  0  0  0  0  0  0  0  0  0  0  0
   -8.2100   21.2230  -32.3090 C   0  0  0  0  0  0  0  0  0  0  0  0
   -8.4070   22.0990  -31.0660 C   0  0  0  0  0  0  0  0  0  0  0  0
   -2.1322   18.9276  -25.8264 H   0  0  0  0  0  0  0  0  0  0  0  0
   -2.9304   18.4637  -27.3673 H   0  0  0  0  0  0  0  0  0  0  0  0
   -1.2107   18.9825  -27.3673 H   0  0  0  0  0  0  0  0  0  0  0  0
   -1.3206   18.9235  -28.7782 H   0  0  0  0  0  0  0  0  0  0  0  0
   -0.0798   19.1072  -30.9326 H   0  0  0  0  0  0  0  0  0  0  0  0
    0.1424   21.3215  -32.0613 H   0  0  0  0  0  0  0  0  0  0  0  0
   -0.8729   23.3572  -31.0364 H   0  0  0  0  0  0  0  0  0  0  0  0
   -5.9294   25.9791  -30.1191 H   0  0  0  0  0  0  0  0  0  0  0  0
   -8.0910   24.7642  -30.3953 H   0  0  0  0  0  0  0  0  0  0  0  0
   -3.7651   22.3060  -30.8971 H   0  0  0  0  0  0  0  0  0  0  0  0
   -5.0090   20.3838  -31.6769 H   0  0  0  0  0  0  0  0  0  0  0  0
   -6.1772   20.1953  -30.2843 H   0  0  0  0  0  0  0  0  0  0  0  0
   -7.0731   19.0399  -33.8978 H   0  0  0  0  0  0  0  0  0  0  0  0
   -6.6789   20.7741  -34.2024 H   0  0  0  0  0  0  0  0  0  0  0  0
   -5.3530   17.4820  -33.0767 H   0  0  0  0  0  0  0  0  0  0  0  0
   -2.9114   16.9785  -32.9750 H   0  0  0  0  0  0  0  0  0  0  0  0
   -1.2394   18.8092  -33.2717 H   0  0  0  0  0  0  0  0  0  0  0  0
   -1.9010   22.0420  -34.4890 H   0  0  0  0  0  0  0  0  0  0  0  0
   -4.4539   21.6615  -33.8107 H   0  0  0  0  0  0  0  0  0  0  0  0
   -8.0343   21.8785  -33.1747 H   0  0  0  0  0  0  0  0  0  0  0  0
   -9.1193   20.6158  -32.4293 H   0  0  0  0  0  0  0  0  0  0  0  0
   -9.2387   22.7998  -31.2308 H   0  0  0  0  0  0  0  0  0  0  0  0
   -8.6450   21.4751  -30.1919 H   0  0  0  0  0  0  0  0  0  0  0  0
  1  2  1  0
  2  3  1  0
  3  4  2  0
  4  5  1  0
  5  6  2  0
  6  7  1  0
  7  8  2  0
  8  9  1  0
  9 10  1  0
 10 11  2  0
 10 12  1  0
 12 13  1  0
 13 14  2  0
 14 15  1  0
 15 16  2  0
 16 17  1  0
 17 18  2  0
 17 19  1  0
 19 20  1  0
 20 21  1  0
 21 22  1  0
 22 23  2  0
 23 24  1  0
 24 25  2  0
 25 26  1  0
 26 27  1  0
 26 28  2  0
 20 29  1  0
 29 30  1  0
  8  3  1  0
 18 13  1  0
 28 22  1  0
 30 16  1  0
  1 31  1  0
  1 32  1  0
  1 33  1  0
  4 34  1  0
  5 35  1  0
  6 36  1  0
  7 37  1  0
 14 38  1  0
 15 39  1  0
 18 40  1  0
 19 41  1  0
 19 42  1  0
 21 43  1  0
 21 44  1  0
 23 45  1  0
 24 46  1  0
 25 47  1  0
 27 48  1  0
 28 49  1  0
 29 50  1  0
 29 51  1  0
 30 52  1  0
 30 53  1  0
M  CHG  2   9  -1  12  -1
M  END
>  <UniqueID>  (26) 
26

>  <SMILES>  (26) 
CSc1ccccc1[N-]C(=O)[N-]c1ccc2c(c1)CN(Cc1cccc(O)c1)CC2

>  <Energy>  (26) 
70.95408971291407

>  <Genealogy>  (26) 
CSc1ccccc1[N-]C(=O)[N-]c1ccc2c(c1)CN(Cc1cccc(O)c1)CC2 (protonated)
CSc1ccccc1[N-]C(=O)[N-]c1ccc2c(c1)CN(Cc1cccc(O)c1)CC2 (3D coordinates assigned)
CSc1ccccc1[N-]C(=O)[N-]c1ccc2c(c1)CN(Cc1cccc(O)c1)CC2 (nonaromatic ring conformer: 70.95408971291407 kcal/mol)

>  <smiles>  (26) 
CSc1ccccc1NC(=O)Nc1ccc2c(c1)CN(Cc1cccc(O)c1)CC2

>  <score_type>  (26) 
oracle

>  <origin>  (26) 
adgpu

>  <m_score__min__energy>  (26) 
-12.23

>  <m_primary>  (26) 
energy

$$$$
26:0
     RDKit          3D

 34 36  0  0  0  0  0  0  0  0999 V2000
   -8.5660   18.6660  -31.9990 C   0  0  0  0  0  0  0  0  0  0  0  0
   -8.6210   20.1550  -32.1040 C   0  0  0  0  0  0  0  0  0  0  0  0
   -9.7620   20.8580  -32.2570 N   0  0  0  0  0  0  0  0  0  0  0  0
   -9.4350   22.1440  -32.2200 N   0  0  0  0  0  0  0  0  0  0  0  0
   -8.1030   22.1940  -32.0300 C   0  0  0  0  0  0  0  0  0  0  0  0
   -7.5630   20.9730  -31.9700 N   0  0  0  0  0  0  0  0  0  0  0  0
   -6.1670   20.6640  -31.6790 C   0  0  0  0  0  0  0  0  0  0  0  0
   -5.2990   21.9440  -31.6820 C   0  0  0  0  0  0  0  0  0  0  0  0
   -6.0110   23.1550  -31.2060 N   0  0  0  0  0  0  0  0  0  0  0  0
   -6.0210   23.3710  -29.7410 C   0  0  0  0  0  0  0  0  0  0  0  0
   -4.6430   23.5110  -29.1250 C   0  0  0  0  0  0  0  0  0  0  0  0
   -4.2350   22.6180  -28.1200 C   0  0  0  0  0  0  0  0  0  0  0  0
   -2.9640   22.7210  -27.5520 C   0  0  0  0  0  0  0  0  0  0  0  0
   -2.0930   23.7280  -27.9640 C   0  0  0  0  0  0  0  0  0  0  0  0
   -2.4930   24.6470  -28.9380 C   0  0  0  0  0  0  0  0  0  0  0  0
   -1.6150   25.6520  -29.3270 O   0  0  0  0  0  0  0  0  0  0  0  0
   -3.7700   24.5500  -29.5190 C   0  0  0  0  0  0  0  0  0  0  0  0
   -4.1730   25.4690  -30.4900 O   0  0  0  0  0  0  0  0  0  0  0  0
   -7.2870   23.4350  -31.9020 C   0  0  0  0  0  0  0  0  0  0  0  0
   -8.5552   18.3733  -30.9387 H   0  0  0  0  0  0  0  0  0  0  0  0
   -9.4487   18.2309  -32.4905 H   0  0  0  0  0  0  0  0  0  0  0  0
   -7.6536   18.2972  -32.4905 H   0  0  0  0  0  0  0  0  0  0  0  0
   -6.1034   20.1895  -30.6886 H   0  0  0  0  0  0  0  0  0  0  0  0
   -5.7903   19.9857  -32.4587 H   0  0  0  0  0  0  0  0  0  0  0  0
   -4.4299   21.7745  -31.0294 H   0  0  0  0  0  0  0  0  0  0  0  0
   -5.0125   22.1326  -32.7271 H   0  0  0  0  0  0  0  0  0  0  0  0
   -6.5877   24.2902  -29.5315 H   0  0  0  0  0  0  0  0  0  0  0  0
   -6.4789   22.4771  -29.2924 H   0  0  0  0  0  0  0  0  0  0  0  0
   -4.9230   21.8309  -27.7778 H   0  0  0  0  0  0  0  0  0  0  0  0
   -2.6493   22.0059  -26.7777 H   0  0  0  0  0  0  0  0  0  0  0  0
   -1.0885   23.7996  -27.5216 H   0  0  0  0  0  0  0  0  0  0  0  0
   -3.8680   26.4340  -30.4810 H   0  0  0  0  0  0  0  0  0  0  0  0
   -7.8545   24.1823  -31.3280 H   0  0  0  0  0  0  0  0  0  0  0  0
   -7.0632   23.8156  -32.9095 H   0  0  0  0  0  0  0  0  0  0  0  0
  1  2  1  0
  2  3  2  0
  3  4  1  0
  4  5  2  0
  5  6  1  0
  6  7  1  0
  7  8  1  0
  8  9  1  0
  9 10  1  0
 10 11  1  0
 11 12  2  0
 12 13  1  0
 13 14  2  0
 14 15  1  0
 15 16  1  0
 15 17  2  0
 17 18  1  0
  9 19  1  0
  6  2  1  0
 17 11  1  0
 19  5  1  0
  1 20  1  0
  1 21  1  0
  1 22  1  0
  7 23  1  0
  7 24  1  0
  8 25  1  0
  8 26  1  0
 10 27  1  0
 10 28  1  0
 12 29  1  0
 13 30  1  0
 14 31  1  0
 18 32  1  0
 19 33  1  0
 19 34  1  0
M  CHG  1  16  -1
M  END
>  <UniqueID>  (27) 
27

>  <SMILES>  (27) 
Cc1nnc2n1CCN(Cc1cccc([O-])c1O)C2

>  <Energy>  (27) 
79.34175251624286

>  <Genealogy>  (27) 
Cc1nnc2n1CCN(Cc1cccc([O-])c1O)C2 (protonated)
Cc1nnc2n1CCN(Cc1cccc([O-])c1O)C2 (3D coordinates assigned)
Cc1nnc2n1CCN(Cc1cccc([O-])c1O)C2 (nonaromatic ring conformer: 79.34175251624286 kcal/mol)

>  <smiles>  (27) 
Cc1nnc2n1CCN(Cc1cccc(O)c1O)C2

>  <score_type>  (27) 
oracle

>  <origin>  (27) 
adgpu

>  <m_score__min__energy>  (27) 
-11.81

>  <m_primary>  (27) 
energy

$$$$
27:0
     RDKit          3D

 55 57  0  0  0  0  0  0  0  0999 V2000
    1.3950   16.4510  -27.4730 C   0  0  0  0  0  0  0  0  0  0  0  0
    0.6790   16.6520  -28.8040 C   0  0  0  0  0  0  0  0  0  0  0  0
    1.5750   17.1780  -29.7800 O   0  0  0  0  0  0  0  0  0  0  0  0
    1.1680   17.9910  -30.8440 C   0  0  0  0  0  0  0  0  0  0  0  0
    1.6190   17.7870  -32.0040 O   0  0  0  0  0  0  0  0  0  0  0  0
    0.2290   19.1080  -30.6030 C   0  0  0  0  0  0  0  0  0  0  0  0
    0.2620   20.0090  -29.5450 C   0  0  0  0  0  0  0  0  0  0  0  0
    1.2690   20.0460  -28.4360 C   0  0  0  0  0  0  0  0  0  0  0  0
   -0.7860   20.8510  -29.6150 N   0  0  0  0  0  0  0  0  0  0  0  0
   -1.5020   20.5110  -30.7050 C   0  0  0  0  0  0  0  0  0  0  0  0
   -2.7740   21.1740  -31.0710 C   0  0  0  0  0  0  0  0  0  0  0  0
   -3.5740   20.6060  -31.8620 O   0  0  0  0  0  0  0  0  0  0  0  0
   -3.0940   22.4660  -30.5320 N   0  0  0  0  0  0  0  0  0  0  0  0
   -4.3960   23.0620  -30.6450 C   0  0  0  0  0  0  0  0  0  0  0  0
   -5.5090   22.2380  -30.8710 C   0  0  0  0  0  0  0  0  0  0  0  0
   -6.7910   22.7900  -30.9890 C   0  0  0  0  0  0  0  0  0  0  0  0
   -8.1920   21.7470  -31.2240 S   0  0  0  0  0  0  0  0  0  0  0  0
   -8.9940   21.7160  -29.9520 O   0  0  0  0  0  0  0  0  0  0  0  0
   -9.0590   22.3000  -32.3210 O   0  0  0  0  0  0  0  0  0  0  0  0
   -7.6650   20.1320  -31.6250 N   0  0  0  0  0  0  0  0  0  0  0  0
   -6.8640   20.1540  -32.8620 C   0  0  0  0  0  0  0  0  0  0  0  0
   -6.6490   18.7280  -33.4070 C   0  0  0  0  0  0  0  0  0  0  0  0
   -6.9820   17.7600  -32.4330 O   0  0  0  0  0  0  0  0  0  0  0  0
   -8.3700   17.8240  -32.1500 C   0  0  0  0  0  0  0  0  0  0  0  0
   -8.8310   19.2510  -31.7890 C   0  0  0  0  0  0  0  0  0  0  0  0
   -6.9610   24.1750  -30.8840 C   0  0  0  0  0  0  0  0  0  0  0  0
   -5.8560   25.0050  -30.6880 C   0  0  0  0  0  0  0  0  0  0  0  0
   -4.5730   24.4580  -30.5810 C   0  0  0  0  0  0  0  0  0  0  0  0
   -3.4820   25.3090  -30.4390 O   0  0  0  0  0  0  0  0  0  0  0  0
   -0.8910   19.4450  -31.3600 C   0  0  0  0  0  0  0  0  0  0  0  0
   -1.3470   18.7830  -32.6290 C   0  0  0  0  0  0  0  0  0  0  0  0
    0.6955   16.6474  -26.6471 H   0  0  0  0  0  0  0  0  0  0  0  0
    1.7603   15.4156  -27.4058 H   0  0  0  0  0  0  0  0  0  0  0  0
    2.2458   17.1450  -27.4058 H   0  0  0  0  0  0  0  0  0  0  0  0
    0.2892   15.6850  -29.1547 H   0  0  0  0  0  0  0  0  0  0  0  0
   -0.1465   17.3644  -28.6592 H   0  0  0  0  0  0  0  0  0  0  0  0
    0.7484   20.0269  -27.4672 H   0  0  0  0  0  0  0  0  0  0  0  0
    1.9319   19.1716  -28.5133 H   0  0  0  0  0  0  0  0  0  0  0  0
    1.8660   20.9667  -28.5133 H   0  0  0  0  0  0  0  0  0  0  0  0
   -1.0180   21.5980  -28.9240 H   0  0  0  0  0  0  0  0  0  0  0  0
   -2.3080   23.0700  -30.2020 H   0  0  0  0  0  0  0  0  0  0  0  0
   -5.3737   21.1497  -30.9562 H   0  0  0  0  0  0  0  0  0  0  0  0
   -7.3895   20.7533  -33.6201 H   0  0  0  0  0  0  0  0  0  0  0  0
   -5.8817   20.5941  -32.6354 H   0  0  0  0  0  0  0  0  0  0  0  0
   -7.2848   18.5813  -34.2925 H   0  0  0  0  0  0  0  0  0  0  0  0
   -5.5879   18.6094  -33.6717 H   0  0  0  0  0  0  0  0  0  0  0  0
   -8.9272   17.4863  -33.0363 H   0  0  0  0  0  0  0  0  0  0  0  0
   -8.5654   17.1784  -31.2811 H   0  0  0  0  0  0  0  0  0  0  0  0
   -9.4715   19.6410  -32.5938 H   0  0  0  0  0  0  0  0  0  0  0  0
   -9.3943   19.2195  -30.8447 H   0  0  0  0  0  0  0  0  0  0  0  0
   -7.9684   24.6109  -30.9561 H   0  0  0  0  0  0  0  0  0  0  0  0
   -5.9947   26.0939  -30.6174 H   0  0  0  0  0  0  0  0  0  0  0  0
   -1.9553   17.8999  -32.3838 H   0  0  0  0  0  0  0  0  0  0  0  0
   -1.9495   19.4917  -33.2162 H   0  0  0  0  0  0  0  0  0  0  0  0
   -0.4702   18.4727  -33.2162 H   0  0  0  0  0  0  0  0  0  0  0  0
  1  2  1  0
  2  3  1  0
  3  4  1  0
  4  5  2  0
  4  6  1  0
  6  7  2  0
  7  8  1  0
  7  9  1  0
  9 10  1  0
 10 11  1  0
 11 12  2  0
 11 13  1  0
 13 14  1  0
 14 15  2  0
 15 16  1  0
 16 17  1  0
 17 18  2  0
 17 19  2  0
 17 20  1  0
 20 21  1  0
 21 22  1  0
 22 23  1  0
 23 24  1  0
 24 25  1  0
 16 26  2  0
 26 27  1  0
 27 28  2  0
 28 29  1  0
 10 30  2  0
 30 31  1  0
 30  6  1  0
 28 14  1  0
 25 20  1  0
  1 32  1  0
  1 33  1  0
  1 34  1  0
  2 35  1  0
  2 36  1  0
  8 37  1  0
  8 38  1  0
  8 39  1  0
  9 40  1  0
 13 41  1  0
 15 42  1  0
 21 43  1  0
 21 44  1  0
 22 45  1  0
 22 46  1  0
 24 47  1  0
 24 48  1  0
 25 49  1  0
 25 50  1  0
 26 51  1  0
 27 52  1  0
 31 53  1  0
 31 54  1  0
 31 55  1  0
M  CHG  1  29  -1
M  END
>  <UniqueID>  (28) 
28

>  <SMILES>  (28) 
CCOC(=O)c1c(C)[nH]c(C(=O)Nc2cc(S(=O)(=O)N3CCOCC3)ccc2[O-])c1C

>  <Energy>  (28) 
91.24352858281871

>  <Genealogy>  (28) 
CCOC(=O)c1c(C)[nH]c(C(=O)Nc2cc(S(=O)(=O)N3CCOCC3)ccc2[O-])c1C (protonated)
CCOC(=O)c1c(C)[nH]c(C(=O)Nc2cc(S(=O)(=O)N3CCOCC3)ccc2[O-])c1C (3D coordinates assigned)
CCOC(=O)c1c(C)[nH]c(C(=O)Nc2cc(S(=O)(=O)N3CCOCC3)ccc2[O-])c1C (nonaromatic ring conformer: 91.24352858281871 kcal/mol)

>  <smiles>  (28) 
CCOC(=O)c1c(C)[nH]c(C(=O)Nc2cc(S(=O)(=O)N3CCOCC3)ccc2O)c1C

>  <score_type>  (28) 
oracle

>  <origin>  (28) 
adgpu

>  <m_score__min__energy>  (28) 
-12.029999999999999

>  <m_primary>  (28) 
energy

$$$$
28:0
     RDKit          3D

 41 43  0  0  0  0  0  0  0  0999 V2000
   -3.0840   19.7310  -27.0690 C   0  0  0  0  0  0  0  0  0  0  0  0
   -2.2980   20.4210  -28.0360 O   0  0  0  0  0  0  0  0  0  0  0  0
   -2.6730   21.6270  -28.6460 C   0  0  0  0  0  0  0  0  0  0  0  0
   -3.4060   22.5520  -27.8950 C   0  0  0  0  0  0  0  0  0  0  0  0
   -3.8040   23.7690  -28.4560 C   0  0  0  0  0  0  0  0  0  0  0  0
   -3.4740   24.0780  -29.7890 C   0  0  0  0  0  0  0  0  0  0  0  0
   -3.8570   25.2800  -30.4060 O   0  0  0  0  0  0  0  0  0  0  0  0
   -5.1830   25.6080  -30.8190 C   0  0  0  0  0  0  0  0  0  0  0  0
   -5.9200   24.3830  -31.2590 C   0  0  0  0  0  0  0  0  0  0  0  0
   -7.2370   24.1820  -31.0180 N   0  0  0  0  0  0  0  0  0  0  0  0
   -7.4690   22.9850  -31.5890 C   0  0  0  0  0  0  0  0  0  0  0  0
   -8.7510   22.3340  -31.5980 C   0  0  0  0  0  0  0  0  0  0  0  0
   -9.7820   21.8090  -31.6070 N   0  0  0  0  0  0  0  0  0  0  0  0
   -6.3030   22.5160  -32.1470 C   0  0  0  0  0  0  0  0  0  0  0  0
   -6.1290   21.2800  -32.8500 N   0  0  0  0  0  0  0  0  0  0  0  0
   -6.5180   20.0110  -32.2980 C   0  0  0  0  0  0  0  0  0  0  0  0
   -7.2340   19.9690  -31.2610 O   0  0  0  0  0  0  0  0  0  0  0  0
   -6.1230   18.7430  -32.9550 C   0  0  0  0  0  0  0  0  0  0  0  0
   -5.7830   18.7450  -34.3200 C   0  0  0  0  0  0  0  0  0  0  0  0
   -5.4060   17.5600  -34.9580 C   0  0  0  0  0  0  0  0  0  0  0  0
   -5.3720   16.3610  -34.2440 C   0  0  0  0  0  0  0  0  0  0  0  0
   -5.7240   16.3420  -32.8930 C   0  0  0  0  0  0  0  0  0  0  0  0
   -6.1020   17.5230  -32.2460 C   0  0  0  0  0  0  0  0  0  0  0  0
   -6.4930   17.4600  -30.9480 F   0  0  0  0  0  0  0  0  0  0  0  0
   -5.3630   23.4010  -31.9360 O   0  0  0  0  0  0  0  0  0  0  0  0
   -2.7370   23.1540  -30.5390 C   0  0  0  0  0  0  0  0  0  0  0  0
   -2.3380   21.9370  -29.9780 C   0  0  0  0  0  0  0  0  0  0  0  0
   -2.7572   20.0179  -26.0586 H   0  0  0  0  0  0  0  0  0  0  0  0
   -4.1434   19.9961  -27.2008 H   0  0  0  0  0  0  0  0  0  0  0  0
   -2.9584   18.6462  -27.2008 H   0  0  0  0  0  0  0  0  0  0  0  0
   -3.6717   22.3195  -26.8532 H   0  0  0  0  0  0  0  0  0  0  0  0
   -4.3776   24.4883  -27.8531 H   0  0  0  0  0  0  0  0  0  0  0  0
   -5.7196   26.0687  -29.9765 H   0  0  0  0  0  0  0  0  0  0  0  0
   -5.1259   26.3084  -31.6653 H   0  0  0  0  0  0  0  0  0  0  0  0
   -5.7490   21.3130  -33.8220 H   0  0  0  0  0  0  0  0  0  0  0  0
   -5.8141   19.6858  -34.8892 H   0  0  0  0  0  0  0  0  0  0  0  0
   -5.1357   17.5722  -36.0242 H   0  0  0  0  0  0  0  0  0  0  0  0
   -5.0677   15.4307  -34.7460 H   0  0  0  0  0  0  0  0  0  0  0  0
   -5.7039   15.3942  -32.3351 H   0  0  0  0  0  0  0  0  0  0  0  0
   -2.4691   23.3876  -31.5800 H   0  0  0  0  0  0  0  0  0  0  0  0
   -1.7605   21.2194  -30.5792 H   0  0  0  0  0  0  0  0  0  0  0  0
  1  2  1  0
  2  3  1  0
  3  4  2  0
  4  5  1  0
  5  6  2  0
  6  7  1  0
  7  8  1  0
  8  9  1  0
  9 10  2  0
 10 11  1  0
 11 12  1  0
 12 13  3  0
 11 14  2  0
 14 15  1  0
 15 16  1  0
 16 17  2  0
 16 18  1  0
 18 19  2  0
 19 20  1  0
 20 21  2  0
 21 22  1  0
 22 23  2  0
 23 24  1  0
 14 25  1  0
  6 26  1  0
 26 27  2  0
 27  3  1  0
 25  9  1  0
 23 18  1  0
  1 28  1  0
  1 29  1  0
  1 30  1  0
  4 31  1  0
  5 32  1  0
  8 33  1  0
  8 34  1  0
 15 35  1  0
 19 36  1  0
 20 37  1  0
 21 38  1  0
 22 39  1  0
 26 40  1  0
 27 41  1  0
M  END
>  <UniqueID>  (29) 
29

>  <SMILES>  (29) 
COc1ccc(OCc2nc(C#N)c(NC(=O)c3ccccc3F)o2)cc1

>  <Energy>  (29) 
75.41227485667739

>  <Genealogy>  (29) 
COc1ccc(OCc2nc(C#N)c(NC(=O)c3ccccc3F)o2)cc1 (3D coordinates assigned)
COc1ccc(OCc2nc(C#N)c(NC(=O)c3ccccc3F)o2)cc1 (optimized conformer: 75.41227485667739 kcal/mol)

>  <smiles>  (29) 
COc1ccc(OCc2nc(C#N)c(NC(=O)c3ccccc3F)o2)cc1

>  <score_type>  (29) 
oracle

>  <origin>  (29) 
adgpu

>  <m_score__min__energy>  (29) 
-8.6300000000000008

>  <m_primary>  (29) 
energy

$$$$
29:0
     RDKit          3D

 40 42  0  0  0  0  0  0  0  0999 V2000
   -8.5350   23.3750  -32.0080 C   0  0  0  0  0  0  0  0  0  0  0  0
   -7.8340   22.2510  -31.3120 C   0  0  0  0  0  0  0  0  0  0  0  0
   -7.9360   22.1450  -30.0600 O   0  0  0  0  0  0  0  0  0  0  0  0
   -6.9810   21.3020  -32.0530 C   0  0  0  0  0  0  0  0  0  0  0  0
   -7.6070   20.2180  -32.6940 C   0  0  0  0  0  0  0  0  0  0  0  0
   -6.8500   19.2580  -33.3660 C   0  0  0  0  0  0  0  0  0  0  0  0
   -5.4610   19.3680  -33.4110 C   0  0  0  0  0  0  0  0  0  0  0  0
   -4.8260   20.4490  -32.7980 C   0  0  0  0  0  0  0  0  0  0  0  0
   -5.5710   21.4360  -32.1320 C   0  0  0  0  0  0  0  0  0  0  0  0
   -4.7130   22.8390  -31.4790 S   0  0  0  0  0  0  0  0  0  0  0  0
   -3.2890   22.8510  -31.9640 O   0  0  0  0  0  0  0  0  0  0  0  0
   -5.3940   24.1050  -31.9140 O   0  0  0  0  0  0  0  0  0  0  0  0
   -4.7060   22.7740  -29.7480 N   0  0  0  0  0  0  0  0  0  0  0  0
   -3.6040   23.2810  -28.9950 C   0  0  0  0  0  0  0  0  0  0  0  0
   -3.1220   22.5420  -27.9090 C   0  0  0  0  0  0  0  0  0  0  0  0
   -2.0300   23.0030  -27.1690 C   0  0  0  0  0  0  0  0  0  0  0  0
   -1.4260   24.2320  -27.4960 C   0  0  0  0  0  0  0  0  0  0  0  0
   -1.9080   24.9700  -28.5870 C   0  0  0  0  0  0  0  0  0  0  0  0
   -3.0000   24.5080  -29.3310 C   0  0  0  0  0  0  0  0  0  0  0  0
   -3.4700   25.2860  -30.3890 O   0  0  0  0  0  0  0  0  0  0  0  0
   -0.2310   24.7180  -26.7160 C   0  0  0  0  0  0  0  0  0  0  0  0
   -0.1750   24.0910  -25.3160 C   0  0  0  0  0  0  0  0  0  0  0  0
   -0.3430   22.5730  -25.4110 C   0  0  0  0  0  0  0  0  0  0  0  0
   -1.5580   22.2500  -26.0880 O   0  0  0  0  0  0  0  0  0  0  0  0
   -8.9620   24.0597  -31.2605 H   0  0  0  0  0  0  0  0  0  0  0  0
   -7.8171   23.9211  -32.6376 H   0  0  0  0  0  0  0  0  0  0  0  0
   -9.3412   22.9705  -32.6376 H   0  0  0  0  0  0  0  0  0  0  0  0
   -8.7028   20.1263  -32.6653 H   0  0  0  0  0  0  0  0  0  0  0  0
   -7.3501   18.4126  -33.8613 H   0  0  0  0  0  0  0  0  0  0  0  0
   -4.8653   18.6025  -33.9298 H   0  0  0  0  0  0  0  0  0  0  0  0
   -3.7296   20.5290  -32.8369 H   0  0  0  0  0  0  0  0  0  0  0  0
   -3.6056   21.5924  -27.6361 H   0  0  0  0  0  0  0  0  0  0  0  0
   -1.4241   25.9193  -28.8601 H   0  0  0  0  0  0  0  0  0  0  0  0
   -3.5460   24.9290  -31.3330 H   0  0  0  0  0  0  0  0  0  0  0  0
    0.6849   24.4508  -27.2634 H   0  0  0  0  0  0  0  0  0  0  0  0
   -0.3166   25.8086  -26.6006 H   0  0  0  0  0  0  0  0  0  0  0  0
    0.7960   24.3211  -24.8532 H   0  0  0  0  0  0  0  0  0  0  0  0
   -0.9897   24.5052  -24.7038 H   0  0  0  0  0  0  0  0  0  0  0  0
    0.5060   22.1481  -25.9666 H   0  0  0  0  0  0  0  0  0  0  0  0
   -0.3770   22.1526  -24.3951 H   0  0  0  0  0  0  0  0  0  0  0  0
  1  2  1  0
  2  3  2  0
  2  4  1  0
  4  5  2  0
  5  6  1  0
  6  7  2  0
  7  8  1  0
  8  9  2  0
  9 10  1  0
 10 11  2  0
 10 12  2  0
 10 13  1  0
 13 14  1  0
 14 15  2  0
 15 16  1  0
 16 17  2  0
 17 18  1  0
 18 19  2  0
 19 20  1  0
 17 21  1  0
 21 22  1  0
 22 23  1  0
 23 24  1  0
  9  4  1  0
 19 14  1  0
 24 16  1  0
  1 25  1  0
  1 26  1  0
  1 27  1  0
  5 28  1  0
  6 29  1  0
  7 30  1  0
  8 31  1  0
 15 32  1  0
 18 33  1  0
 20 34  1  0
 21 35  1  0
 21 36  1  0
 22 37  1  0
 22 38  1  0
 23 39  1  0
 23 40  1  0
M  CHG  1  13  -1
M  END
>  <UniqueID>  (30) 
30

>  <SMILES>  (30) 
CC(=O)c1ccccc1S(=O)(=O)[N-]c1cc2c(cc1O)CCCO2

>  <Energy>  (30) 
58.03799193534865

>  <Genealogy>  (30) 
CC(=O)c1ccccc1S(=O)(=O)[N-]c1cc2c(cc1O)CCCO2 (protonated)
CC(=O)c1ccccc1S(=O)(=O)[N-]c1cc2c(cc1O)CCCO2 (3D coordinates assigned)
CC(=O)c1ccccc1S(=O)(=O)[N-]c1cc2c(cc1O)CCCO2 (nonaromatic ring conformer: 58.03799193534865 kcal/mol)

>  <smiles>  (30) 
CC(=O)c1ccccc1S(=O)(=O)Nc1cc2c(cc1O)CCCO2

>  <score_type>  (30) 
oracle

>  <origin>  (30) 
adgpu

>  <m_score__min__energy>  (30) 
-9.9299999999999997

>  <m_primary>  (30) 
energy

$$$$
30:0
     RDKit          3D

 54 57  0  0  0  0  0  0  0  0999 V2000
   -5.8160   25.1200  -29.0050 O   0  0  0  0  0  0  0  0  0  0  0  0
   -5.4490   24.8580  -30.4380 S   0  0  0  0  0  0  0  0  0  0  0  0
   -5.7610   26.0960  -31.2310 O   0  0  0  0  0  0  0  0  0  0  0  0
   -3.7530   24.5220  -30.5990 N   0  0  0  0  0  0  0  0  0  0  0  0
   -2.9500   23.7390  -29.7020 C   0  0  0  0  0  0  0  0  0  0  0  0
   -3.2500   22.3960  -29.4100 C   0  0  0  0  0  0  0  0  0  0  0  0
   -2.4500   21.6610  -28.5240 C   0  0  0  0  0  0  0  0  0  0  0  0
   -1.3560   22.2800  -27.8920 C   0  0  0  0  0  0  0  0  0  0  0  0
   -1.0530   23.6170  -28.1880 C   0  0  0  0  0  0  0  0  0  0  0  0
   -1.8510   24.3430  -29.0760 C   0  0  0  0  0  0  0  0  0  0  0  0
   -1.5430   25.6740  -29.3410 O   0  0  0  0  0  0  0  0  0  0  0  0
   -0.4740   21.4940  -26.9520 C   0  0  0  0  0  0  0  0  0  0  0  0
   -1.2380   20.3330  -26.3050 C   0  0  0  0  0  0  0  0  0  0  0  0
   -1.9170   19.4710  -27.3720 C   0  0  0  0  0  0  0  0  0  0  0  0
   -2.7710   20.2920  -28.2280 N   0  0  0  0  0  0  0  0  0  0  0  0
   -6.3730   23.5010  -31.0800 C   0  0  0  0  0  0  0  0  0  0  0  0
   -7.7480   23.6200  -31.3160 C   0  0  0  0  0  0  0  0  0  0  0  0
   -8.4490   22.5740  -31.9240 C   0  0  0  0  0  0  0  0  0  0  0  0
   -7.7790   21.4070  -32.3190 C   0  0  0  0  0  0  0  0  0  0  0  0
   -8.4740   20.3890  -32.9700 O   0  0  0  0  0  0  0  0  0  0  0  0
   -6.4020   21.2780  -32.0690 C   0  0  0  0  0  0  0  0  0  0  0  0
   -5.5050   19.8780  -32.6610 S   0  0  0  0  0  0  0  0  0  0  0  0
   -4.6140   19.3670  -31.5630 O   0  0  0  0  0  0  0  0  0  0  0  0
   -4.6460   20.2830  -33.8260 O   0  0  0  0  0  0  0  0  0  0  0  0
   -6.6390   18.6360  -33.1450 N   0  0  0  0  0  0  0  0  0  0  0  0
   -6.1240   17.8120  -34.2700 C   0  0  0  0  0  0  0  0  0  0  0  0
   -5.9820   16.3190  -33.9390 C   0  0  0  0  0  0  0  0  0  0  0  0
   -5.3130   16.1490  -32.5800 C   0  0  0  0  0  0  0  0  0  0  0  0
   -6.1140   16.8380  -31.4600 C   0  0  0  0  0  0  0  0  0  0  0  0
   -7.1340   17.8670  -31.9860 C   0  0  0  0  0  0  0  0  0  0  0  0
   -5.7130   22.3200  -31.4370 C   0  0  0  0  0  0  0  0  0  0  0  0
   -4.1211   21.9177  -29.8816 H   0  0  0  0  0  0  0  0  0  0  0  0
   -0.1818   24.0970  -27.7182 H   0  0  0  0  0  0  0  0  0  0  0  0
    0.3795   21.0901  -27.5162 H   0  0  0  0  0  0  0  0  0  0  0  0
   -0.1311   22.1692  -26.1542 H   0  0  0  0  0  0  0  0  0  0  0  0
   -0.5335   19.7113  -25.7331 H   0  0  0  0  0  0  0  0  0  0  0  0
   -2.0104   20.7453  -25.6392 H   0  0  0  0  0  0  0  0  0  0  0  0
   -1.1465   18.9854  -27.9888 H   0  0  0  0  0  0  0  0  0  0  0  0
   -2.5383   18.7125  -26.8733 H   0  0  0  0  0  0  0  0  0  0  0  0
   -3.5860   19.8370  -28.6980 H   0  0  0  0  0  0  0  0  0  0  0  0
   -8.2778   24.5382  -31.0225 H   0  0  0  0  0  0  0  0  0  0  0  0
   -9.5319   22.6670  -32.0934 H   0  0  0  0  0  0  0  0  0  0  0  0
   -8.1470   19.9990  -33.8470 H   0  0  0  0  0  0  0  0  0  0  0  0
   -6.8169   17.9135  -35.1182 H   0  0  0  0  0  0  0  0  0  0  0  0
   -5.1145   18.1837  -34.4997 H   0  0  0  0  0  0  0  0  0  0  0  0
   -6.9788   15.8545  -33.9152 H   0  0  0  0  0  0  0  0  0  0  0  0
   -5.3638   15.8350  -34.7095 H   0  0  0  0  0  0  0  0  0  0  0  0
   -5.2344   15.0755  -32.3533 H   0  0  0  0  0  0  0  0  0  0  0  0
   -4.3183   16.6162  -32.6270 H   0  0  0  0  0  0  0  0  0  0  0  0
   -6.6563   16.0669  -30.8932 H   0  0  0  0  0  0  0  0  0  0  0  0
   -5.3942   17.3836  -30.8322 H   0  0  0  0  0  0  0  0  0  0  0  0
   -8.0474   17.3322  -32.2855 H   0  0  0  0  0  0  0  0  0  0  0  0
   -7.3230   18.5846  -31.1740 H   0  0  0  0  0  0  0  0  0  0  0  0
   -4.6406   22.2090  -31.2186 H   0  0  0  0  0  0  0  0  0  0  0  0
  1  2  2  0
  2  3  2  0
  2  4  1  0
  4  5  1  0
  5  6  2  0
  6  7  1  0
  7  8  2  0
  8  9  1  0
  9 10  2  0
 10 11  1  0
  8 12  1  0
 12 13  1  0
 13 14  1  0
 14 15  1  0
  2 16  1  0
 16 17  2  0
 17 18  1  0
 18 19  2  0
 19 20  1  0
 19 21  1  0
 21 22  1  0
 22 23  2  0
 22 24  2  0
 22 25  1  0
 25 26  1  0
 26 27  1  0
 27 28  1  0
 28 29  1  0
 29 30  1  0
 21 31  2  0
 10  5  1  0
 31 16  1  0
 15  7  1  0
 30 25  1  0
  6 32  1  0
  9 33  1  0
 12 34  1  0
 12 35  1  0
 13 36  1  0
 13 37  1  0
 14 38  1  0
 14 39  1  0
 15 40  1  0
 17 41  1  0
 18 42  1  0
 20 43  1  0
 26 44  1  0
 26 45  1  0
 27 46  1  0
 27 47  1  0
 28 48  1  0
 28 49  1  0
 29 50  1  0
 29 51  1  0
 30 52  1  0
 30 53  1  0
 31 54  1  0
M  CHG  2   4  -1  11  -1
M  END
>  <UniqueID>  (31) 
31

>  <SMILES>  (31) 
O=S(=O)([N-]c1cc2c(cc1[O-])CCCN2)c1ccc(O)c(S(=O)(=O)N2CCCCC2)c1

>  <Energy>  (31) 
63.690969800978564

>  <Genealogy>  (31) 
O=S(=O)([N-]c1cc2c(cc1[O-])CCCN2)c1ccc(O)c(S(=O)(=O)N2CCCCC2)c1 (protonated)
O=S(=O)([N-]c1cc2c(cc1[O-])CCCN2)c1ccc(O)c(S(=O)(=O)N2CCCCC2)c1 (3D coordinates assigned)
O=S(=O)([N-]c1cc2c(cc1[O-])CCCN2)c1ccc(O)c(S(=O)(=O)N2CCCCC2)c1 (nonaromatic ring conformer: 63.690969800978564 kcal/mol)

>  <smiles>  (31) 
O=S(=O)(Nc1cc2c(cc1O)CCCN2)c1ccc(O)c(S(=O)(=O)N2CCCCC2)c1

>  <score_type>  (31) 
oracle

>  <origin>  (31) 
adgpu

>  <m_score__min__energy>  (31) 
-14.76

>  <m_primary>  (31) 
energy

$$$$
31:0
     RDKit          3D

 77 82  0  0  0  0  0  0  0  0999 V2000
   -4.3350   16.4640  -34.7340 C   0  0  0  0  0  0  0  0  0  0  0  0
   -3.4820   17.2980  -33.8830 N   0  0  0  0  0  0  0  0  0  0  0  0
   -4.2690   18.0760  -32.9070 C   0  0  0  0  0  0  0  0  0  0  0  0
   -5.0630   19.1780  -33.6460 C   0  0  0  0  0  0  0  0  0  0  0  0
   -6.4900   18.7200  -33.9800 C   0  0  0  0  0  0  0  0  0  0  0  0
   -7.2720   18.3420  -32.7760 N   0  0  0  0  0  0  0  0  0  0  0  0
   -8.3540   19.6270  -32.3000 S   0  0  0  0  0  0  0  0  0  0  0  0
   -9.1860   20.0620  -33.4730 O   0  0  0  0  0  0  0  0  0  0  0  0
   -9.2730   19.1470  -31.2100 O   0  0  0  0  0  0  0  0  0  0  0  0
   -7.4180   21.0080  -31.7400 C   0  0  0  0  0  0  0  0  0  0  0  0
   -6.3230   21.4810  -32.4770 C   0  0  0  0  0  0  0  0  0  0  0  0
   -5.5500   22.5360  -31.9860 C   0  0  0  0  0  0  0  0  0  0  0  0
   -5.8670   23.1300  -30.7560 C   0  0  0  0  0  0  0  0  0  0  0  0
   -4.8060   24.3540  -30.0670 S   0  0  0  0  0  0  0  0  0  0  0  0
   -5.5590   25.1450  -29.0360 O   0  0  0  0  0  0  0  0  0  0  0  0
   -4.3320   25.2960  -31.1370 O   0  0  0  0  0  0  0  0  0  0  0  0
   -3.4440   23.5940  -29.3150 N   0  0  0  0  0  0  0  0  0  0  0  0
   -2.7370   22.5400  -29.9690 C   0  0  0  0  0  0  0  0  0  0  0  0
   -2.6380   22.5450  -31.3630 C   0  0  0  0  0  0  0  0  0  0  0  0
   -1.9710   21.5110  -32.0340 C   0  0  0  0  0  0  0  0  0  0  0  0
   -1.3520   20.4810  -31.2890 C   0  0  0  0  0  0  0  0  0  0  0  0
   -1.5000   20.4540  -29.8940 C   0  0  0  0  0  0  0  0  0  0  0  0
   -2.1550   21.5020  -29.2230 C   0  0  0  0  0  0  0  0  0  0  0  0
   -2.2370   21.5460  -27.8210 O   0  0  0  0  0  0  0  0  0  0  0  0
   -2.0240   20.4320  -26.9610 C   0  0  0  0  0  0  0  0  0  0  0  0
   -0.6750   19.4060  -32.0540 C   0  0  0  0  0  0  0  0  0  0  0  0
   -0.9080   19.2390  -33.3950 C   0  0  0  0  0  0  0  0  0  0  0  0
   -0.2330   18.0780  -33.7380 C   0  0  0  0  0  0  0  0  0  0  0  0
   -0.1960   17.4030  -35.0450 C   0  0  0  0  0  0  0  0  0  0  0  0
   -1.3840   16.8890  -35.6390 N   0  0  0  0  0  0  0  0  0  0  0  0
    0.9060   17.2650  -35.6430 O   0  0  0  0  0  0  0  0  0  0  0  0
    0.4170   17.6120  -32.6490 N   0  0  0  0  0  0  0  0  0  0  0  0
    0.1560   18.4220  -31.6310 N   0  0  0  0  0  0  0  0  0  0  0  0
    0.8030   18.2820  -30.3580 C   0  0  0  0  0  0  0  0  0  0  0  0
    0.2800   17.4170  -29.3830 C   0  0  0  0  0  0  0  0  0  0  0  0
    0.9100   17.2960  -28.1390 C   0  0  0  0  0  0  0  0  0  0  0  0
    2.0520   18.0510  -27.8560 C   0  0  0  0  0  0  0  0  0  0  0  0
    2.6610   17.9350  -26.6520 F   0  0  0  0  0  0  0  0  0  0  0  0
    2.5630   18.9320  -28.8170 C   0  0  0  0  0  0  0  0  0  0  0  0
    1.9360   19.0550  -30.0610 C   0  0  0  0  0  0  0  0  0  0  0  0
   -1.8120   20.1390  -34.1850 C   0  0  0  0  0  0  0  0  0  0  0  0
   -1.8510   21.5470  -33.5510 C   0  0  0  0  0  0  0  0  0  0  0  0
   -6.9750   22.6730  -30.0330 C   0  0  0  0  0  0  0  0  0  0  0  0
   -7.7490   21.6190  -30.5240 C   0  0  0  0  0  0  0  0  0  0  0  0
   -6.4510   17.9250  -31.6160 C   0  0  0  0  0  0  0  0  0  0  0  0
   -5.1970   17.1670  -32.0590 C   0  0  0  0  0  0  0  0  0  0  0  0
   -4.9791   15.8343  -34.1026 H   0  0  0  0  0  0  0  0  0  0  0  0
   -4.9610   17.1080  -35.3691 H   0  0  0  0  0  0  0  0  0  0  0  0
   -3.7052   15.8236  -35.3691 H   0  0  0  0  0  0  0  0  0  0  0  0
   -2.9290   17.9440  -34.4930 H   0  0  0  0  0  0  0  0  0  0  0  0
   -3.5774   18.5550  -32.1982 H   0  0  0  0  0  0  0  0  0  0  0  0
   -5.1155   20.0706  -33.0052 H   0  0  0  0  0  0  0  0  0  0  0  0
   -4.5440   19.4014  -34.5898 H   0  0  0  0  0  0  0  0  0  0  0  0
   -7.0112   19.5415  -34.4934 H   0  0  0  0  0  0  0  0  0  0  0  0
   -6.4095   17.8258  -34.6155 H   0  0  0  0  0  0  0  0  0  0  0  0
   -6.0721   21.0204  -33.4439 H   0  0  0  0  0  0  0  0  0  0  0  0
   -4.6900   22.9019  -32.5661 H   0  0  0  0  0  0  0  0  0  0  0  0
   -3.0875   23.3676  -31.9386 H   0  0  0  0  0  0  0  0  0  0  0  0
   -1.1000   19.6052  -29.3199 H   0  0  0  0  0  0  0  0  0  0  0  0
   -2.0868   20.7605  -25.9131 H   0  0  0  0  0  0  0  0  0  0  0  0
   -2.7925   19.6686  -27.1527 H   0  0  0  0  0  0  0  0  0  0  0  0
   -1.0281   20.0060  -27.1527 H   0  0  0  0  0  0  0  0  0  0  0  0
   -2.0320   16.2730  -35.1000 H   0  0  0  0  0  0  0  0  0  0  0  0
   -0.6272   16.8330  -29.5976 H   0  0  0  0  0  0  0  0  0  0  0  0
    0.5061   16.6062  -27.3833 H   0  0  0  0  0  0  0  0  0  0  0  0
    3.4596   19.5286  -28.5929 H   0  0  0  0  0  0  0  0  0  0  0  0
    2.3316   19.7589  -30.8080 H   0  0  0  0  0  0  0  0  0  0  0  0
   -1.4374   20.2154  -35.2164 H   0  0  0  0  0  0  0  0  0  0  0  0
   -2.8279   19.7171  -34.1842 H   0  0  0  0  0  0  0  0  0  0  0  0
   -0.9249   22.0775  -33.8172 H   0  0  0  0  0  0  0  0  0  0  0  0
   -2.7430   22.0595  -33.9404 H   0  0  0  0  0  0  0  0  0  0  0  0
   -7.2371   23.1455  -29.0749 H   0  0  0  0  0  0  0  0  0  0  0  0
   -8.6215   21.2676  -29.9537 H   0  0  0  0  0  0  0  0  0  0  0  0
   -6.1474   18.8199  -31.0530 H   0  0  0  0  0  0  0  0  0  0  0  0
   -7.0561   17.2539  -30.9887 H   0  0  0  0  0  0  0  0  0  0  0  0
   -4.6497   16.8252  -31.1681 H   0  0  0  0  0  0  0  0  0  0  0  0
   -5.5051   16.3089  -32.6745 H   0  0  0  0  0  0  0  0  0  0  0  0
  1  2  1  0
  2  3  1  0
  3  4  1  0
  4  5  1  0
  5  6  1  0
  6  7  1  0
  7  8  2  0
  7  9  2  0
  7 10  1  0
 10 11  2  0
 11 12  1  0
 12 13  2  0
 13 14  1  0
 14 15  2  0
 14 16  2  0
 14 17  1  0
 17 18  1  0
 18 19  2  0
 19 20  1  0
 20 21  2  0
 21 22  1  0
 22 23  2  0
 23 24  1  0
 24 25  1  0
 21 26  1  0
 26 27  2  0
 27 28  1  0
 28 29  1  0
 29 30  1  0
 29 31  2  0
 28 32  2  0
 32 33  1  0
 33 34  1  0
 34 35  2  0
 35 36  1  0
 36 37  2  0
 37 38  1  0
 37 39  1  0
 39 40  2  0
 27 41  1  0
 41 42  1  0
 13 43  1  0
 43 44  2  0
  6 45  1  0
 45 46  1  0
 46  3  1  0
 44 10  1  0
 23 18  1  0
 33 26  1  0
 40 34  1  0
 42 20  1  0
  1 47  1  0
  1 48  1  0
  1 49  1  0
  2 50  1  0
  3 51  1  0
  4 52  1  0
  4 53  1  0
  5 54  1  0
  5 55  1  0
 11 56  1  0
 12 57  1  0
 19 58  1  0
 22 59  1  0
 25 60  1  0
 25 61  1  0
 25 62  1  0
 30 63  1  0
 35 64  1  0
 36 65  1  0
 39 66  1  0
 40 67  1  0
 41 68  1  0
 41 69  1  0
 42 70  1  0
 42 71  1  0
 43 72  1  0
 44 73  1  0
 45 74  1  0
 45 75  1  0
 46 76  1  0
 46 77  1  0
M  CHG  2  17  -1  30  -1
M  END
>  <UniqueID>  (32) 
32

>  <SMILES>  (32) 
CNC1CCN(S(=O)(=O)c2ccc(S(=O)(=O)[N-]c3cc4c(cc3OC)-c3c(c(C([NH-])=O)nn3-c3ccc(F)cc3)CC4)cc2)CC1

>  <Energy>  (32) 
141.02105174157515

>  <Genealogy>  (32) 
CNC1CCN(S(=O)(=O)c2ccc(S(=O)(=O)[N-]c3cc4c(cc3OC)-c3c(c(C([NH-])=O)nn3-c3ccc(F)cc3)CC4)cc2)CC1 (protonated)
CNC1CCN(S(=O)(=O)c2ccc(S(=O)(=O)[N-]c3cc4c(cc3OC)-c3c(c(C([NH-])=O)nn3-c3ccc(F)cc3)CC4)cc2)CC1 (3D coordinates assigned)
CNC1CCN(S(=O)(=O)c2ccc(S(=O)(=O)[N-]c3cc4c(cc3OC)-c3c(c(C([NH-])=O)nn3-c3ccc(F)cc3)CC4)cc2)CC1 (nonaromatic ring conformer: 141.02105174157515 kcal/mol)

>  <smiles>  (32) 
CNC1CCN(S(=O)(=O)c2ccc(S(=O)(=O)Nc3cc4c(cc3OC)-c3c(c(C(N)=O)nn3-c3ccc(F)cc3)CC4)cc2)CC1

>  <score_type>  (32) 
oracle

>  <origin>  (32) 
adgpu

>  <m_score__min__energy>  (32) 
-14.550000000000001

>  <m_primary>  (32) 
energy

$$$$
32:0
     RDKit          3D

 45 48  0  0  0  0  0  0  0  0999 V2000
   -6.8043   17.4916  -31.2722 H   0  0  0  0  0  0  0  0  0  0  0  0
   -6.0860   18.1490  -31.7840 C   0  0  0  0  0  0  0  0  0  0  0  0
   -6.3300   19.5230  -31.8640 C   0  0  0  0  0  0  0  0  0  0  0  0
   -7.2363   19.9470  -31.4070 H   0  0  0  0  0  0  0  0  0  0  0  0
   -5.4240   20.3600  -32.5240 C   0  0  0  0  0  0  0  0  0  0  0  0
   -5.6175   21.4414  -32.5807 H   0  0  0  0  0  0  0  0  0  0  0  0
   -4.2670   19.8230  -33.1150 C   0  0  0  0  0  0  0  0  0  0  0  0
   -3.2980   20.7180  -33.8460 C   0  0  0  0  0  0  0  0  0  0  0  0
   -3.8426   21.5882  -34.2412 H   0  0  0  0  0  0  0  0  0  0  0  0
   -2.8411   20.1401  -34.6629 H   0  0  0  0  0  0  0  0  0  0  0  0
   -2.2310   21.1860  -32.9590 N   0  0  0  0  0  0  0  0  0  0  0  0
   -2.4100   21.9260  -31.9050 C   0  0  0  0  0  0  0  0  0  0  0  0
   -3.6540   22.3200  -31.5290 N   0  0  0  0  0  0  0  0  0  0  0  0
   -3.8300   23.0780  -30.4150 C   0  0  0  0  0  0  0  0  0  0  0  0
   -5.0190   23.4260  -30.0160 N   0  0  0  0  0  0  0  0  0  0  0  0
   -6.2530   23.1640  -30.7030 C   0  0  0  0  0  0  0  0  0  0  0  0
   -7.2270   22.3790  -30.0730 C   0  0  0  0  0  0  0  0  0  0  0  0
   -7.0318   21.9643  -29.0730 H   0  0  0  0  0  0  0  0  0  0  0  0
   -8.4460   22.1190  -30.7070 C   0  0  0  0  0  0  0  0  0  0  0  0
   -9.1970   21.4836  -30.2147 H   0  0  0  0  0  0  0  0  0  0  0  0
   -8.7110   22.6660  -31.9660 C   0  0  0  0  0  0  0  0  0  0  0  0
   -9.9200   22.4070  -32.5960 O   0  0  0  0  0  0  0  0  0  0  0  0
   -7.7580   23.4800  -32.5870 C   0  0  0  0  0  0  0  0  0  0  0  0
   -7.9713   23.9213  -33.5718 H   0  0  0  0  0  0  0  0  0  0  0  0
   -6.5350   23.7340  -31.9590 C   0  0  0  0  0  0  0  0  0  0  0  0
   -5.7913   24.3808  -32.4474 H   0  0  0  0  0  0  0  0  0  0  0  0
   -2.7520   23.4340  -29.6740 N   0  0  0  0  0  0  0  0  0  0  0  0
   -1.5020   23.0420  -30.0390 C   0  0  0  0  0  0  0  0  0  0  0  0
   -0.4530   23.3990  -29.3560 N   0  0  0  0  0  0  0  0  0  0  0  0
   -0.4370   24.1400  -28.1230 C   0  0  0  0  0  0  0  0  0  0  0  0
    0.0290   23.5720  -26.9220 C   0  0  0  0  0  0  0  0  0  0  0  0
    0.3673   22.5254  -26.9067 H   0  0  0  0  0  0  0  0  0  0  0  0
    0.0640   24.3320  -25.7480 C   0  0  0  0  0  0  0  0  0  0  0  0
    0.4131   23.8773  -24.8092 H   0  0  0  0  0  0  0  0  0  0  0  0
   -0.3440   25.6680  -25.7670 C   0  0  0  0  0  0  0  0  0  0  0  0
   -0.3244   26.2624  -24.8417 H   0  0  0  0  0  0  0  0  0  0  0  0
   -0.7770   26.2490  -26.9620 C   0  0  0  0  0  0  0  0  0  0  0  0
   -1.0879   27.3040  -26.9781 H   0  0  0  0  0  0  0  0  0  0  0  0
   -0.8160   25.4920  -28.1380 C   0  0  0  0  0  0  0  0  0  0  0  0
   -1.2400   26.0860  -29.3210 O   0  0  0  0  0  0  0  0  0  0  0  0
   -1.3370   22.2940  -31.1590 N   0  0  0  0  0  0  0  0  0  0  0  0
   -4.0180   18.4440  -33.0080 C   0  0  0  0  0  0  0  0  0  0  0  0
   -3.1009   18.0182  -33.4411 H   0  0  0  0  0  0  0  0  0  0  0  0
   -4.9300   17.6110  -32.3540 C   0  0  0  0  0  0  0  0  0  0  0  0
   -4.7371   16.5301  -32.2881 H   0  0  0  0  0  0  0  0  0  0  0  0
  1  2  1  0
  2  3  2  0
  3  4  1  0
  3  5  1  0
  5  6  1  0
  5  7  2  0
  7  8  1  0
  8  9  1  0
  8 10  1  0
  8 11  1  0
 11 12  2  0
 12 13  1  0
 13 14  1  0
 14 15  2  3
 15 16  1  0
 16 17  2  0
 17 18  1  0
 17 19  1  0
 19 20  1  0
 19 21  2  0
 21 22  1  0
 21 23  1  0
 23 24  1  0
 23 25  2  0
 25 26  1  0
 14 27  1  0
 27 28  1  0
 28 29  2  0
 29 30  1  0
 30 31  2  0
 31 32  1  0
 31 33  1  0
 33 34  1  0
 33 35  2  0
 35 36  1  0
 35 37  1  0
 37 38  1  0
 37 39  2  0
 39 40  1  0
 28 41  1  0
  7 42  1  0
 42 43  1  0
 42 44  2  0
 44 45  1  0
 44  2  1  0
 41 12  1  0
 25 16  1  0
 39 30  1  0
M  CHG  5  13  -1  22  -1  27  -1  40  -1  41  -1
M  END
>  <UniqueID>  (33) 
33

>  <SMILES>  (33) 
[O-]c1ccc(N=c2[n-]/c(=N\c3ccccc3[O-])[n-]/c(=N/Cc3ccccc3)[n-]2)cc1

>  <Energy>  (33) 
60.57623994968828

>  <Genealogy>  (33) 
[O-]c1ccc(N=c2[n-]c(=NCc3ccccc3)[n-]c(=Nc3ccccc3[O-])[n-]2)cc1 (protonated)
[O-]c1ccc(N=c2[n-]/c(=N\c3ccccc3[O-])[n-]/c(=N/Cc3ccccc3)[n-]2)cc1 (cis-trans isomerization)
[O-]c1ccc(N=c2[n-]/c(=N\c3ccccc3[O-])[n-]/c(=N/Cc3ccccc3)[n-]2)cc1 (3D coordinates assigned)
[O-]c1ccc(N=c2[n-]/c(=N\c3ccccc3[O-])[n-]/c(=N/Cc3ccccc3)[n-]2)cc1 (optimized conformer: 60.57623994968828 kcal/mol)

>  <smiles>  (33) 
Oc1ccc(N=c2[nH]c(=NCc3ccccc3)[nH]c(=Nc3ccccc3O)[nH]2)cc1

>  <score_type>  (33) 
oracle

>  <origin>  (33) 
adgpu

>  <m_score__min__energy>  (33) 
-12.51

>  <m_primary>  (33) 
energy

$$$$
33:0
     RDKit          3D

 19 20  0  0  0  0  0  0  0  0999 V2000
   -1.0150   23.5210  -28.3040 O   0  0  0  0  0  0  0  0  0  0  0  0
   -2.0540   23.7150  -28.9860 C   0  0  0  0  0  0  0  0  0  0  0  0
   -2.4010   24.9310  -29.4550 N   0  0  0  0  0  0  0  0  0  0  0  0
   -3.5440   24.6860  -30.1150 C   0  0  0  0  0  0  0  0  0  0  0  0
   -4.2350   25.6670  -30.8230 O   0  0  0  0  0  0  0  0  0  0  0  0
   -3.8680   23.3440  -30.0180 C   0  0  0  0  0  0  0  0  0  0  0  0
   -5.0510   22.6510  -30.5650 C   0  0  0  0  0  0  0  0  0  0  0  0
   -4.9170   21.6430  -31.5360 C   0  0  0  0  0  0  0  0  0  0  0  0
   -6.0500   21.0130  -32.0600 C   0  0  0  0  0  0  0  0  0  0  0  0
   -7.3260   21.3910  -31.6290 C   0  0  0  0  0  0  0  0  0  0  0  0
   -8.7450   20.6000  -32.2890 Cl  0  0  0  0  0  0  0  0  0  0  0  0
   -7.4680   22.4090  -30.6800 C   0  0  0  0  0  0  0  0  0  0  0  0
   -6.3370   23.0420  -30.1560 C   0  0  0  0  0  0  0  0  0  0  0  0
   -2.9100   22.7210  -29.3060 N   0  0  0  0  0  0  0  0  0  0  0  0
   -4.2390   25.6960  -31.8350 H   0  0  0  0  0  0  0  0  0  0  0  0
   -3.9162   21.3486  -31.8850 H   0  0  0  0  0  0  0  0  0  0  0  0
   -5.9377   20.2186  -32.8126 H   0  0  0  0  0  0  0  0  0  0  0  0
   -8.4712   22.7119  -30.3456 H   0  0  0  0  0  0  0  0  0  0  0  0
   -6.4546   23.8506  -29.4195 H   0  0  0  0  0  0  0  0  0  0  0  0
  1  2  2  0
  2  3  1  0
  3  4  1  0
  4  5  1  0
  4  6  2  0
  6  7  1  0
  7  8  2  0
  8  9  1  0
  9 10  2  0
 10 11  1  0
 10 12  1  0
 12 13  2  0
  6 14  1  0
 14  2  1  0
 13  7  1  0
  5 15  1  0
  8 16  1  0
  9 17  1  0
 12 18  1  0
 13 19  1  0
M  CHG  2   3  -1  14  -1
M  END
>  <UniqueID>  (34) 
34

>  <SMILES>  (34) 
O=c1[n-]c(O)c(-c2ccc(Cl)cc2)[n-]1

>  <Energy>  (34) 
53.27459249657178

>  <Genealogy>  (34) 
O=c1[n-]c(O)c(-c2ccc(Cl)cc2)[n-]1 (protonated)
O=c1[n-]c(O)c(-c2ccc(Cl)cc2)[n-]1 (3D coordinates assigned)
O=c1[n-]c(O)c(-c2ccc(Cl)cc2)[n-]1 (optimized conformer: 53.27459249657178 kcal/mol)

>  <smiles>  (34) 
O=c1[nH]c(O)c(-c2ccc(Cl)cc2)[nH]1

>  <score_type>  (34) 
oracle

>  <origin>  (34) 
adgpu

>  <m_score__min__energy>  (34) 
-8.6199999999999992

>  <m_primary>  (34) 
energy

$$$$
34:0
     RDKit          3D

 66 70  0  0  0  0  0  0  0  0999 V2000
   -4.2480   25.4360  -31.2170 O   0  0  0  0  0  0  0  0  0  0  0  0
   -4.1570   24.9370  -30.0630 C   0  0  0  0  0  0  0  0  0  0  0  0
   -5.4140   24.4860  -29.3710 C   0  0  0  0  0  0  0  0  0  0  0  0
   -6.8730   24.7650  -30.4360 S   0  0  0  0  0  0  0  0  0  0  0  0
   -7.1310   23.0210  -30.7800 C   0  0  0  0  0  0  0  0  0  0  0  0
   -8.1970   22.3320  -30.3370 N   0  0  0  0  0  0  0  0  0  0  0  0
   -8.0750   21.0960  -30.7980 N   0  0  0  0  0  0  0  0  0  0  0  0
   -6.9310   21.0500  -31.5090 C   0  0  0  0  0  0  0  0  0  0  0  0
   -6.4520   19.8240  -32.1700 C   0  0  0  0  0  0  0  0  0  0  0  0
   -6.1510   18.6900  -31.4030 C   0  0  0  0  0  0  0  0  0  0  0  0
   -5.7100   17.5170  -32.0200 C   0  0  0  0  0  0  0  0  0  0  0  0
   -5.5360   17.4740  -33.4090 C   0  0  0  0  0  0  0  0  0  0  0  0
   -5.0220   15.9780  -34.1930 S   0  0  0  0  0  0  0  0  0  0  0  0
   -6.2370   15.1890  -34.5940 O   0  0  0  0  0  0  0  0  0  0  0  0
   -4.2500   16.3080  -35.4420 O   0  0  0  0  0  0  0  0  0  0  0  0
   -4.0120   15.0140  -33.1380 N   0  0  0  0  0  0  0  0  0  0  0  0
   -4.8170   14.4620  -32.0260 C   0  0  0  0  0  0  0  0  0  0  0  0
   -4.0520   13.3620  -31.2820 C   0  0  0  0  0  0  0  0  0  0  0  0
   -3.7060   12.1840  -32.2130 C   0  0  0  0  0  0  0  0  0  0  0  0
   -3.7220   12.5740  -33.6990 C   0  0  0  0  0  0  0  0  0  0  0  0
   -3.2200   14.0120  -33.8940 C   0  0  0  0  0  0  0  0  0  0  0  0
   -5.7840   18.6210  -34.1700 C   0  0  0  0  0  0  0  0  0  0  0  0
   -6.2420   19.7890  -33.5560 C   0  0  0  0  0  0  0  0  0  0  0  0
   -6.3080   22.2500  -31.5230 N   0  0  0  0  0  0  0  0  0  0  0  0
   -5.1730   22.6920  -32.3400 C   0  0  0  0  0  0  0  0  0  0  0  0
   -3.9780   21.8110  -32.0940 C   0  0  0  0  0  0  0  0  0  0  0  0
   -3.6700   21.3840  -30.7890 C   0  0  0  0  0  0  0  0  0  0  0  0
   -2.5630   20.5590  -30.5620 C   0  0  0  0  0  0  0  0  0  0  0  0
   -1.7600   20.1520  -31.6320 C   0  0  0  0  0  0  0  0  0  0  0  0
   -2.0600   20.5720  -32.9320 C   0  0  0  0  0  0  0  0  0  0  0  0
   -3.1640   21.3980  -33.1640 C   0  0  0  0  0  0  0  0  0  0  0  0
   -2.8770   24.9320  -29.4150 N   0  0  0  0  0  0  0  0  0  0  0  0
   -2.1840   23.7990  -28.8760 C   0  0  0  0  0  0  0  0  0  0  0  0
   -2.8400   22.9860  -27.9400 C   0  0  0  0  0  0  0  0  0  0  0  0
   -2.1790   21.8860  -27.3760 C   0  0  0  0  0  0  0  0  0  0  0  0
   -0.8530   21.6120  -27.7230 C   0  0  0  0  0  0  0  0  0  0  0  0
   -0.1820   22.4390  -28.6320 C   0  0  0  0  0  0  0  0  0  0  0  0
   -0.8390   23.5380  -29.1960 C   0  0  0  0  0  0  0  0  0  0  0  0
   -5.3346   23.4133  -29.1410 H   0  0  0  0  0  0  0  0  0  0  0  0
   -5.5358   25.0668  -28.4448 H   0  0  0  0  0  0  0  0  0  0  0  0
   -6.2627   18.7240  -30.3092 H   0  0  0  0  0  0  0  0  0  0  0  0
   -5.4987   16.6243  -31.4131 H   0  0  0  0  0  0  0  0  0  0  0  0
   -5.0580   15.2713  -31.3211 H   0  0  0  0  0  0  0  0  0  0  0  0
   -5.7362   14.0258  -32.4440 H   0  0  0  0  0  0  0  0  0  0  0  0
   -3.1197   13.7850  -30.8796 H   0  0  0  0  0  0  0  0  0  0  0  0
   -4.6931   12.9841  -30.4720 H   0  0  0  0  0  0  0  0  0  0  0  0
   -2.7011   11.8172  -31.9569 H   0  0  0  0  0  0  0  0  0  0  0  0
   -4.4733   11.4096  -32.0659 H   0  0  0  0  0  0  0  0  0  0  0  0
   -3.0710   11.8863  -34.2588 H   0  0  0  0  0  0  0  0  0  0  0  0
   -4.7563   12.5100  -34.0678 H   0  0  0  0  0  0  0  0  0  0  0  0
   -2.1743   14.0662  -33.5571 H   0  0  0  0  0  0  0  0  0  0  0  0
   -3.3222   14.2524  -34.9625 H   0  0  0  0  0  0  0  0  0  0  0  0
   -5.6176   18.6032  -35.2572 H   0  0  0  0  0  0  0  0  0  0  0  0
   -6.4388   20.6854  -34.1624 H   0  0  0  0  0  0  0  0  0  0  0  0
   -5.4494   22.6401  -33.4035 H   0  0  0  0  0  0  0  0  0  0  0  0
   -4.9171   23.7265  -32.0672 H   0  0  0  0  0  0  0  0  0  0  0  0
   -4.3012   21.6996  -29.9452 H   0  0  0  0  0  0  0  0  0  0  0  0
   -2.3239   20.2300  -29.5400 H   0  0  0  0  0  0  0  0  0  0  0  0
   -0.8918   19.5011  -31.4512 H   0  0  0  0  0  0  0  0  0  0  0  0
   -1.4268   20.2522  -33.7727 H   0  0  0  0  0  0  0  0  0  0  0  0
   -3.3969   21.7262  -34.1877 H   0  0  0  0  0  0  0  0  0  0  0  0
   -3.8760   23.2122  -27.6477 H   0  0  0  0  0  0  0  0  0  0  0  0
   -2.7045   21.2376  -26.6594 H   0  0  0  0  0  0  0  0  0  0  0  0
   -0.3366   20.7467  -27.2819 H   0  0  0  0  0  0  0  0  0  0  0  0
    0.8623   22.2245  -28.9029 H   0  0  0  0  0  0  0  0  0  0  0  0
   -0.3024   24.1999  -29.8916 H   0  0  0  0  0  0  0  0  0  0  0  0
  1  2  2  0
  2  3  1  0
  3  4  1  0
  4  5  1  0
  5  6  2  0
  6  7  1  0
  7  8  2  0
  8  9  1  0
  9 10  2  0
 10 11  1  0
 11 12  2  0
 12 13  1  0
 13 14  2  0
 13 15  2  0
 13 16  1  0
 16 17  1  0
 17 18  1  0
 18 19  1  0
 19 20  1  0
 20 21  1  0
 12 22  1  0
 22 23  2  0
  8 24  1  0
 24 25  1  0
 25 26  1  0
 26 27  2  0
 27 28  1  0
 28 29  2  0
 29 30  1  0
 30 31  2  0
  2 32  1  0
 32 33  1  0
 33 34  2  0
 34 35  1  0
 35 36  2  0
 36 37  1  0
 37 38  2  0
 24  5  1  0
 31 26  1  0
 38 33  1  0
 23  9  1  0
 21 16  1  0
  3 39  1  0
  3 40  1  0
 10 41  1  0
 11 42  1  0
 17 43  1  0
 17 44  1  0
 18 45  1  0
 18 46  1  0
 19 47  1  0
 19 48  1  0
 20 49  1  0
 20 50  1  0
 21 51  1  0
 21 52  1  0
 22 53  1  0
 23 54  1  0
 25 55  1  0
 25 56  1  0
 27 57  1  0
 28 58  1  0
 29 59  1  0
 30 60  1  0
 31 61  1  0
 34 62  1  0
 35 63  1  0
 36 64  1  0
 37 65  1  0
 38 66  1  0
M  CHG  1  32  -1
M  END
>  <UniqueID>  (35) 
35

>  <SMILES>  (35) 
O=C(CSc1nnc(-c2ccc(S(=O)(=O)N3CCCCC3)cc2)n1Cc1ccccc1)[N-]c1ccccc1

>  <Energy>  (35) 
110.82327140516102

>  <Genealogy>  (35) 
O=C(CSc1nnc(-c2ccc(S(=O)(=O)N3CCCCC3)cc2)n1Cc1ccccc1)[N-]c1ccccc1 (protonated)
O=C(CSc1nnc(-c2ccc(S(=O)(=O)N3CCCCC3)cc2)n1Cc1ccccc1)[N-]c1ccccc1 (3D coordinates assigned)
O=C(CSc1nnc(-c2ccc(S(=O)(=O)N3CCCCC3)cc2)n1Cc1ccccc1)[N-]c1ccccc1 (nonaromatic ring conformer: 110.82327140516102 kcal/mol)

>  <smiles>  (35) 
O=C(CSc1nnc(-c2ccc(S(=O)(=O)N3CCCCC3)cc2)n1Cc1ccccc1)Nc1ccccc1

>  <score_type>  (35) 
oracle

>  <origin>  (35) 
adgpu

>  <m_score__min__energy>  (35) 
-12.119999999999999

>  <m_primary>  (35) 
energy

$$$$
35:0
     RDKit          3D

 57 60  0  0  0  0  0  0  0  0999 V2000
   -1.5870   21.5560  -33.9880 O   0  0  0  0  0  0  0  0  0  0  0  0
   -2.1800   20.7090  -33.2670 C   0  0  0  0  0  0  0  0  0  0  0  0
   -2.5520   19.4570  -33.8580 N   0  0  0  0  0  0  0  0  0  0  0  0
   -3.8100   18.7840  -33.7220 C   0  0  0  0  0  0  0  0  0  0  0  0
   -3.9900   17.4590  -34.1510 C   0  0  0  0  0  0  0  0  0  0  0  0
   -5.2370   16.8420  -34.0140 C   0  0  0  0  0  0  0  0  0  0  0  0
   -6.3060   17.5340  -33.4420 C   0  0  0  0  0  0  0  0  0  0  0  0
   -6.1270   18.8450  -32.9770 C   0  0  0  0  0  0  0  0  0  0  0  0
   -7.4690   19.7330  -32.2600 S   0  0  0  0  0  0  0  0  0  0  0  0
   -8.1580   18.8580  -31.2470 O   0  0  0  0  0  0  0  0  0  0  0  0
   -8.4600   20.0930  -33.3320 O   0  0  0  0  0  0  0  0  0  0  0  0
   -6.8780   21.1940  -31.5110 N   0  0  0  0  0  0  0  0  0  0  0  0
   -7.9460   21.9460  -30.8470 C   0  0  0  0  0  0  0  0  0  0  0  0
   -7.5000   23.4010  -30.8210 C   0  0  0  0  0  0  0  0  0  0  0  0
   -6.4430   23.5170  -31.9110 C   0  0  0  0  0  0  0  0  0  0  0  0
   -6.3010   22.1160  -32.4910 C   0  0  0  0  0  0  0  0  0  0  0  0
   -4.8730   19.4580  -33.1080 C   0  0  0  0  0  0  0  0  0  0  0  0
   -2.3910   21.0040  -31.8290 C   0  0  0  0  0  0  0  0  0  0  0  0
   -1.9820   20.0980  -30.8330 C   0  0  0  0  0  0  0  0  0  0  0  0
   -2.1540   20.4060  -29.4820 C   0  0  0  0  0  0  0  0  0  0  0  0
   -2.7250   21.6220  -29.1060 C   0  0  0  0  0  0  0  0  0  0  0  0
   -3.1280   22.5430  -30.0840 C   0  0  0  0  0  0  0  0  0  0  0  0
   -3.7840   24.1080  -29.6090 S   0  0  0  0  0  0  0  0  0  0  0  0
   -5.1260   23.9190  -28.9610 O   0  0  0  0  0  0  0  0  0  0  0  0
   -3.9640   24.9590  -30.8360 O   0  0  0  0  0  0  0  0  0  0  0  0
   -2.6810   24.8960  -28.5070 N   0  0  0  0  0  0  0  0  0  0  0  0
   -1.2920   24.4960  -28.8060 C   0  0  0  0  0  0  0  0  0  0  0  0
   -0.3490   24.8200  -27.6320 C   0  0  0  0  0  0  0  0  0  0  0  0
   -0.9210   25.8020  -26.7910 O   0  0  0  0  0  0  0  0  0  0  0  0
   -2.0760   25.2840  -26.1480 C   0  0  0  0  0  0  0  0  0  0  0  0
   -3.0270   24.5520  -27.1200 C   0  0  0  0  0  0  0  0  0  0  0  0
   -2.9520   22.2350  -31.4410 C   0  0  0  0  0  0  0  0  0  0  0  0
   -3.1491   16.9061  -34.5952 H   0  0  0  0  0  0  0  0  0  0  0  0
   -5.3765   15.8067  -34.3584 H   0  0  0  0  0  0  0  0  0  0  0  0
   -7.2902   17.0503  -33.3559 H   0  0  0  0  0  0  0  0  0  0  0  0
   -6.1460   20.9360  -30.8050 H   0  0  0  0  0  0  0  0  0  0  0  0
   -8.8863   21.8470  -31.4092 H   0  0  0  0  0  0  0  0  0  0  0  0
   -8.1254   21.5672  -29.8300 H   0  0  0  0  0  0  0  0  0  0  0  0
   -8.3484   24.0679  -31.0345 H   0  0  0  0  0  0  0  0  0  0  0  0
   -7.1066   23.6917  -29.8358 H   0  0  0  0  0  0  0  0  0  0  0  0
   -6.7685   24.2238  -32.6885 H   0  0  0  0  0  0  0  0  0  0  0  0
   -5.4882   23.8934  -31.5151 H   0  0  0  0  0  0  0  0  0  0  0  0
   -6.8441   22.0438  -33.4449 H   0  0  0  0  0  0  0  0  0  0  0  0
   -5.2460   21.8745  -32.6879 H   0  0  0  0  0  0  0  0  0  0  0  0
   -4.7226   20.4781  -32.7249 H   0  0  0  0  0  0  0  0  0  0  0  0
   -1.5236   19.1404  -31.1208 H   0  0  0  0  0  0  0  0  0  0  0  0
   -1.8382   19.6873  -28.7115 H   0  0  0  0  0  0  0  0  0  0  0  0
   -2.8595   21.8590  -28.0403 H   0  0  0  0  0  0  0  0  0  0  0  0
   -1.2649   23.4133  -28.9986 H   0  0  0  0  0  0  0  0  0  0  0  0
   -0.9521   25.0580  -29.6884 H   0  0  0  0  0  0  0  0  0  0  0  0
   -0.1697   23.9046  -27.0490 H   0  0  0  0  0  0  0  0  0  0  0  0
    0.5990   25.2063  -28.0346 H   0  0  0  0  0  0  0  0  0  0  0  0
   -1.7564   24.5757  -25.3694 H   0  0  0  0  0  0  0  0  0  0  0  0
   -2.6282   26.1358  -25.7244 H   0  0  0  0  0  0  0  0  0  0  0  0
   -2.9295   23.4656  -26.9778 H   0  0  0  0  0  0  0  0  0  0  0  0
   -4.0631   24.8604  -26.9164 H   0  0  0  0  0  0  0  0  0  0  0  0
   -3.2551   22.9621  -32.2088 H   0  0  0  0  0  0  0  0  0  0  0  0
  1  2  2  0
  2  3  1  0
  3  4  1  0
  4  5  2  0
  5  6  1  0
  6  7  2  0
  7  8  1  0
  8  9  1  0
  9 10  2  0
  9 11  2  0
  9 12  1  0
 12 13  1  0
 13 14  1  0
 14 15  1  0
 15 16  1  0
  8 17  2  0
  2 18  1  0
 18 19  2  0
 19 20  1  0
 20 21  2  0
 21 22  1  0
 22 23  1  0
 23 24  2  0
 23 25  2  0
 23 26  1  0
 26 27  1  0
 27 28  1  0
 28 29  1  0
 29 30  1  0
 30 31  1  0
 22 32  2  0
 17  4  1  0
 32 18  1  0
 16 12  1  0
 31 26  1  0
  5 33  1  0
  6 34  1  0
  7 35  1  0
 12 36  1  0
 13 37  1  0
 13 38  1  0
 14 39  1  0
 14 40  1  0
 15 41  1  0
 15 42  1  0
 16 43  1  0
 16 44  1  0
 17 45  1  0
 19 46  1  0
 20 47  1  0
 21 48  1  0
 27 49  1  0
 27 50  1  0
 28 51  1  0
 28 52  1  0
 30 53  1  0
 30 54  1  0
 31 55  1  0
 31 56  1  0
 32 57  1  0
M  CHG  2   3  -1  12   1
M  END
>  <UniqueID>  (36) 
36

>  <SMILES>  (36) 
O=C([N-]c1cccc(S(=O)(=O)[NH+]2CCCC2)c1)c1cccc(S(=O)(=O)N2CCOCC2)c1

>  <Energy>  (36) 
74.16121332763693

>  <Genealogy>  (36) 
O=C([N-]c1cccc(S(=O)(=O)[NH+]2CCCC2)c1)c1cccc(S(=O)(=O)N2CCOCC2)c1 (protonated)
O=C([N-]c1cccc(S(=O)(=O)[NH+]2CCCC2)c1)c1cccc(S(=O)(=O)N2CCOCC2)c1 (3D coordinates assigned)
O=C([N-]c1cccc(S(=O)(=O)[NH+]2CCCC2)c1)c1cccc(S(=O)(=O)N2CCOCC2)c1 (nonaromatic ring conformer: 74.16121332763693 kcal/mol)

>  <smiles>  (36) 
O=C(Nc1cccc(S(=O)(=O)N2CCCC2)c1)c1cccc(S(=O)(=O)N2CCOCC2)c1

>  <score_type>  (36) 
oracle

>  <origin>  (36) 
adgpu

>  <m_score__min__energy>  (36) 
-11.15

>  <m_primary>  (36) 
energy

$$$$
36:0
     RDKit          3D

 44 47  0  0  0  0  0  0  0  0999 V2000
   -9.5250   20.3300  -32.6630 C   0  0  0  0  0  0  0  0  0  0  0  0
   -8.2700   20.9480  -32.1060 C   0  0  0  0  0  0  0  0  0  0  0  0
   -8.3270   22.2790  -31.6620 C   0  0  0  0  0  0  0  0  0  0  0  0
   -7.1920   22.9140  -31.1660 C   0  0  0  0  0  0  0  0  0  0  0  0
   -5.9690   22.2440  -31.1200 C   0  0  0  0  0  0  0  0  0  0  0  0
   -4.8130   22.9350  -30.6230 N   0  0  0  0  0  0  0  0  0  0  0  0
   -4.6390   24.3540  -30.7320 C   0  0  0  0  0  0  0  0  0  0  0  0
   -5.5570   25.0730  -31.2130 O   0  0  0  0  0  0  0  0  0  0  0  0
   -3.4030   24.9400  -30.3060 N   0  0  0  0  0  0  0  0  0  0  0  0
   -2.6110   24.5400  -29.1790 C   0  0  0  0  0  0  0  0  0  0  0  0
   -3.1850   23.6760  -28.2240 C   0  0  0  0  0  0  0  0  0  0  0  0
   -2.4600   23.2700  -27.0910 C   0  0  0  0  0  0  0  0  0  0  0  0
   -1.1610   23.7490  -26.9200 C   0  0  0  0  0  0  0  0  0  0  0  0
   -0.6010   24.6120  -27.8430 C   0  0  0  0  0  0  0  0  0  0  0  0
   -1.3020   25.0310  -28.9730 C   0  0  0  0  0  0  0  0  0  0  0  0
    1.0040   25.0670  -27.3600 S   0  0  0  0  0  0  0  0  0  0  0  0
    1.1180   26.5370  -27.0670 O   0  0  0  0  0  0  0  0  0  0  0  0
    2.0480   24.5970  -28.3320 O   0  0  0  0  0  0  0  0  0  0  0  0
    1.0200   24.1310  -25.9100 N   0  0  0  0  0  0  0  0  0  0  0  0
   -0.2410   23.4650  -25.8110 C   0  0  0  0  0  0  0  0  0  0  0  0
   -0.5260   22.7060  -24.8490 O   0  0  0  0  0  0  0  0  0  0  0  0
   -5.9020   20.8920  -31.5100 C   0  0  0  0  0  0  0  0  0  0  0  0
   -4.6930   20.2140  -31.3990 O   0  0  0  0  0  0  0  0  0  0  0  0
   -7.0520   20.2260  -31.9900 C   0  0  0  0  0  0  0  0  0  0  0  0
   -6.9300   18.5150  -32.4740 S   0  0  0  0  0  0  0  0  0  0  0  0
   -6.0350   17.7710  -31.5250 O   0  0  0  0  0  0  0  0  0  0  0  0
   -8.2810   17.8550  -32.4330 O   0  0  0  0  0  0  0  0  0  0  0  0
   -6.2120   18.4390  -34.1150 C   0  0  0  0  0  0  0  0  0  0  0  0
   -5.1170   17.4050  -34.3240 C   0  0  0  0  0  0  0  0  0  0  0  0
   -4.7560   18.8730  -34.1680 C   0  0  0  0  0  0  0  0  0  0  0  0
  -10.1748   20.0100  -31.8351 H   0  0  0  0  0  0  0  0  0  0  0  0
  -10.0553   21.0700  -33.2804 H   0  0  0  0  0  0  0  0  0  0  0  0
   -9.2617   19.4585  -33.2804 H   0  0  0  0  0  0  0  0  0  0  0  0
   -9.2801   22.8264  -31.7067 H   0  0  0  0  0  0  0  0  0  0  0  0
   -7.2597   23.9518  -30.8076 H   0  0  0  0  0  0  0  0  0  0  0  0
   -4.1480   22.4110  -30.0100 H   0  0  0  0  0  0  0  0  0  0  0  0
   -4.2141   23.3150  -28.3679 H   0  0  0  0  0  0  0  0  0  0  0  0
   -2.9079   22.5879  -26.3533 H   0  0  0  0  0  0  0  0  0  0  0  0
   -0.8454   25.7296  -29.6896 H   0  0  0  0  0  0  0  0  0  0  0  0
   -7.1370   18.6940  -34.6530 H   0  0  0  0  0  0  0  0  0  0  0  0
   -4.8747   16.6909  -33.5231 H   0  0  0  0  0  0  0  0  0  0  0  0
   -4.9129   16.6296  -35.0771 H   0  0  0  0  0  0  0  0  0  0  0  0
   -4.2524   19.2214  -33.2542 H   0  0  0  0  0  0  0  0  0  0  0  0
   -4.1823   19.6001  -34.7615 H   0  0  0  0  0  0  0  0  0  0  0  0
  1  2  1  0
  2  3  2  0
  3  4  1  0
  4  5  2  0
  5  6  1  0
  6  7  1  0
  7  8  2  0
  7  9  1  0
  9 10  1  0
 10 11  2  0
 11 12  1  0
 12 13  2  0
 13 14  1  0
 14 15  2  0
 14 16  1  0
 16 17  2  0
 16 18  2  0
 16 19  1  0
 19 20  1  0
 20 21  2  0
  5 22  1  0
 22 23  1  0
 22 24  2  0
 24 25  1  0
 25 26  2  0
 25 27  2  0
 25 28  1  0
 28 29  1  0
 29 30  1  0
 24  2  1  0
 30 28  1  0
 15 10  1  0
 20 13  1  0
  1 31  1  0
  1 32  1  0
  1 33  1  0
  3 34  1  0
  4 35  1  0
  6 36  1  0
 11 37  1  0
 12 38  1  0
 15 39  1  0
 28 40  1  0
 29 41  1  0
 29 42  1  0
 30 43  1  0
 30 44  1  0
M  CHG  3   9  -1  19  -1  23  -1
M  END
>  <UniqueID>  (37) 
37

>  <SMILES>  (37) 
Cc1ccc(NC(=O)[N-]c2ccc3c(c2)S(=O)(=O)[N-]C3=O)c([O-])c1S(=O)(=O)C1CC1

>  <Energy>  (37) 
344.9946695930336

>  <Genealogy>  (37) 
Cc1ccc(NC(=O)[N-]c2ccc3c(c2)S(=O)(=O)[N-]C3=O)c([O-])c1S(=O)(=O)C1CC1 (protonated)
Cc1ccc(NC(=O)[N-]c2ccc3c(c2)S(=O)(=O)[N-]C3=O)c([O-])c1S(=O)(=O)C1CC1 (3D coordinates assigned)
Cc1ccc(NC(=O)[N-]c2ccc3c(c2)S(=O)(=O)[N-]C3=O)c([O-])c1S(=O)(=O)C1CC1 (nonaromatic ring conformer: 344.9946695930336 kcal/mol)

>  <smiles>  (37) 
Cc1ccc(NC(=O)Nc2ccc3c(c2)S(=O)(=O)NC3=O)c(O)c1S(=O)(=O)C1CC1

>  <score_type>  (37) 
oracle

>  <origin>  (37) 
adgpu

>  <m_score__min__energy>  (37) 
-14.16

>  <m_primary>  (37) 
energy

$$$$
37:0
     RDKit          3D

 51 53  0  0  0  0  0  0  0  0999 V2000
   -0.8810   21.1450  -34.1030 C   0  0  0  0  0  0  0  0  0  0  0  0
   -2.0900   21.5300  -32.7980 S   0  0  0  0  0  0  0  0  0  0  0  0
   -1.0340   20.9380  -31.4680 C   0  0  0  0  0  0  0  0  0  0  0  0
   -0.3190   19.7450  -31.6430 C   0  0  0  0  0  0  0  0  0  0  0  0
    0.4980   19.2590  -30.6200 C   0  0  0  0  0  0  0  0  0  0  0  0
    0.6120   19.9640  -29.4200 C   0  0  0  0  0  0  0  0  0  0  0  0
   -0.0980   21.1540  -29.2370 C   0  0  0  0  0  0  0  0  0  0  0  0
   -0.9410   21.6410  -30.2520 C   0  0  0  0  0  0  0  0  0  0  0  0
   -1.6520   22.8790  -30.1110 N   0  0  0  0  0  0  0  0  0  0  0  0
   -2.9390   23.0820  -29.5160 C   0  0  0  0  0  0  0  0  0  0  0  0
   -3.0670   23.0680  -28.2620 O   0  0  0  0  0  0  0  0  0  0  0  0
   -4.1240   23.2410  -30.3920 C   0  0  0  0  0  0  0  0  0  0  0  0
   -4.8510   22.1010  -30.7770 C   0  0  0  0  0  0  0  0  0  0  0  0
   -6.0200   22.2160  -31.5380 C   0  0  0  0  0  0  0  0  0  0  0  0
   -6.9480   20.7720  -31.9580 S   0  0  0  0  0  0  0  0  0  0  0  0
   -8.2000   20.7250  -31.1270 O   0  0  0  0  0  0  0  0  0  0  0  0
   -7.3540   20.8520  -33.4040 O   0  0  0  0  0  0  0  0  0  0  0  0
   -6.0280   19.3110  -31.6800 N   0  0  0  0  0  0  0  0  0  0  0  0
   -6.9040   18.1370  -31.4450 C   0  0  0  0  0  0  0  0  0  0  0  0
   -6.9600   17.1630  -32.6310 C   0  0  0  0  0  0  0  0  0  0  0  0
   -5.6050   16.7690  -33.0390 N   0  0  0  0  0  0  0  0  0  0  0  0
   -5.3620   15.5080  -33.6960 C   0  0  0  0  0  0  0  0  0  0  0  0
   -6.4890   14.6670  -34.2210 C   0  0  0  0  0  0  0  0  0  0  0  0
   -4.1820   15.0790  -33.8160 O   0  0  0  0  0  0  0  0  0  0  0  0
   -4.4910   17.6940  -32.7960 C   0  0  0  0  0  0  0  0  0  0  0  0
   -5.0110   19.1330  -32.7380 C   0  0  0  0  0  0  0  0  0  0  0  0
   -6.4530   23.4830  -31.9500 C   0  0  0  0  0  0  0  0  0  0  0  0
   -5.7230   24.6200  -31.6030 C   0  0  0  0  0  0  0  0  0  0  0  0
   -4.5660   24.5100  -30.8240 C   0  0  0  0  0  0  0  0  0  0  0  0
   -3.8800   25.6670  -30.4740 O   0  0  0  0  0  0  0  0  0  0  0  0
    0.0711   20.8418  -33.6429 H   0  0  0  0  0  0  0  0  0  0  0  0
   -1.2642   20.3245  -34.7274 H   0  0  0  0  0  0  0  0  0  0  0  0
   -0.7192   22.0361  -34.7274 H   0  0  0  0  0  0  0  0  0  0  0  0
   -0.4017   19.1899  -32.5891 H   0  0  0  0  0  0  0  0  0  0  0  0
    1.0526   18.3194  -30.7597 H   0  0  0  0  0  0  0  0  0  0  0  0
    1.2611   19.5825  -28.6181 H   0  0  0  0  0  0  0  0  0  0  0  0
    0.0031   21.7123  -28.2946 H   0  0  0  0  0  0  0  0  0  0  0  0
   -4.4960   21.1044  -30.4758 H   0  0  0  0  0  0  0  0  0  0  0  0
   -6.5278   17.5930  -30.5660 H   0  0  0  0  0  0  0  0  0  0  0  0
   -7.9239   18.5210  -31.2952 H   0  0  0  0  0  0  0  0  0  0  0  0
   -7.5242   16.2660  -32.3361 H   0  0  0  0  0  0  0  0  0  0  0  0
   -7.4549   17.6618  -33.4773 H   0  0  0  0  0  0  0  0  0  0  0  0
   -7.0550   14.2446  -33.3777 H   0  0  0  0  0  0  0  0  0  0  0  0
   -7.1561   15.2898  -34.8350 H   0  0  0  0  0  0  0  0  0  0  0  0
   -6.0818   13.8502  -34.8350 H   0  0  0  0  0  0  0  0  0  0  0  0
   -4.0093   17.4415  -31.8398 H   0  0  0  0  0  0  0  0  0  0  0  0
   -3.7618   17.6054  -33.6148 H   0  0  0  0  0  0  0  0  0  0  0  0
   -4.1664   19.8082  -32.5362 H   0  0  0  0  0  0  0  0  0  0  0  0
   -5.4820   19.3638  -33.7049 H   0  0  0  0  0  0  0  0  0  0  0  0
   -7.3707   23.5815  -32.5485 H   0  0  0  0  0  0  0  0  0  0  0  0
   -6.0594   25.6101  -31.9443 H   0  0  0  0  0  0  0  0  0  0  0  0
  1  2  1  0
  2  3  1  0
  3  4  2  0
  4  5  1  0
  5  6  2  0
  6  7  1  0
  7  8  2  0
  8  9  1  0
  9 10  1  0
 10 11  2  0
 10 12  1  0
 12 13  2  0
 13 14  1  0
 14 15  1  0
 15 16  2  0
 15 17  2  0
 15 18  1  0
 18 19  1  0
 19 20  1  0
 20 21  1  0
 21 22  1  0
 22 23  1  0
 22 24  2  0
 21 25  1  0
 25 26  1  0
 14 27  2  0
 27 28  1  0
 28 29  2  0
 29 30  1  0
  8  3  1  0
 29 12  1  0
 26 18  1  0
  1 31  1  0
  1 32  1  0
  1 33  1  0
  4 34  1  0
  5 35  1  0
  6 36  1  0
  7 37  1  0
 13 38  1  0
 19 39  1  0
 19 40  1  0
 20 41  1  0
 20 42  1  0
 23 43  1  0
 23 44  1  0
 23 45  1  0
 25 46  1  0
 25 47  1  0
 26 48  1  0
 26 49  1  0
 27 50  1  0
 28 51  1  0
M  CHG  2   9  -1  30  -1
M  END
>  <UniqueID>  (38) 
38

>  <SMILES>  (38) 
CSc1ccccc1[N-]C(=O)c1cc(S(=O)(=O)N2CCN(C(C)=O)CC2)ccc1[O-]

>  <Energy>  (38) 
56.28823351877655

>  <Genealogy>  (38) 
CSc1ccccc1[N-]C(=O)c1cc(S(=O)(=O)N2CCN(C(C)=O)CC2)ccc1[O-] (protonated)
CSc1ccccc1[N-]C(=O)c1cc(S(=O)(=O)N2CCN(C(C)=O)CC2)ccc1[O-] (3D coordinates assigned)
CSc1ccccc1[N-]C(=O)c1cc(S(=O)(=O)N2CCN(C(C)=O)CC2)ccc1[O-] (nonaromatic ring conformer: 56.28823351877655 kcal/mol)

>  <smiles>  (38) 
CSc1ccccc1NC(=O)c1cc(S(=O)(=O)N2CCN(C(C)=O)CC2)ccc1O

>  <score_type>  (38) 
oracle

>  <origin>  (38) 
adgpu

>  <m_score__min__energy>  (38) 
-13.050000000000001

>  <m_primary>  (38) 
energy

$$$$
38:0
     RDKit          3D

 65 68  0  0  0  0  0  0  0  0999 V2000
   -6.4700   25.8470  -29.2160 C   0  0  0  0  0  0  0  0  0  0  0  0
   -5.7770   25.6830  -30.8900 S   0  0  0  0  0  0  0  0  0  0  0  0
   -6.3540   23.9920  -31.0890 C   0  0  0  0  0  0  0  0  0  0  0  0
   -7.5960   23.7960  -31.6080 N   0  0  0  0  0  0  0  0  0  0  0  0
   -8.0830   22.5570  -31.8720 C   0  0  0  0  0  0  0  0  0  0  0  0
   -7.2950   21.4260  -31.6410 C   0  0  0  0  0  0  0  0  0  0  0  0
   -7.9080   19.8100  -32.0190 S   0  0  0  0  0  0  0  0  0  0  0  0
   -8.3980   19.8160  -33.4400 O   0  0  0  0  0  0  0  0  0  0  0  0
   -9.0840   19.5070  -31.1310 O   0  0  0  0  0  0  0  0  0  0  0  0
   -6.7050   18.5440  -31.8460 N   0  0  0  0  0  0  0  0  0  0  0  0
   -7.0910   17.2880  -32.5080 C   0  0  0  0  0  0  0  0  0  0  0  0
   -6.4900   17.1230  -33.9310 C   0  0  2  0  0  0  0  0  0  0  0  0
   -5.3810   16.0620  -33.9860 C   0  0  0  0  0  0  0  0  0  0  0  0
   -6.0860   18.3450  -34.5320 O   0  0  0  0  0  0  0  0  0  0  0  0
   -5.2070   19.1430  -33.7460 C   0  0  2  0  0  0  0  0  0  0  0  0
   -3.7580   18.9910  -34.2180 C   0  0  0  0  0  0  0  0  0  0  0  0
   -5.3510   18.9640  -32.2200 C   0  0  0  0  0  0  0  0  0  0  0  0
   -6.0270   21.5950  -31.0720 C   0  0  0  0  0  0  0  0  0  0  0  0
   -5.5410   22.8780  -30.7840 C   0  0  0  0  0  0  0  0  0  0  0  0
   -4.1860   23.0210  -30.2150 C   0  0  0  0  0  0  0  0  0  0  0  0
   -3.2400   23.3740  -30.9690 O   0  0  0  0  0  0  0  0  0  0  0  0
   -3.9480   22.7600  -28.8230 N   0  0  0  0  0  0  0  0  0  0  0  0
   -2.7080   23.0530  -28.1650 C   0  0  0  0  0  0  0  0  0  0  0  0
   -1.9230   22.1710  -27.4390 C   0  0  0  0  0  0  0  0  0  0  0  0
   -2.2820   20.7580  -27.0780 C   0  0  0  0  0  0  0  0  0  0  0  0
   -0.8280   22.8360  -26.9950 N   0  0  0  0  0  0  0  0  0  0  0  0
    0.2160   22.2820  -26.1270 C   0  0  0  0  0  0  0  0  0  0  0  0
   -0.8600   24.0820  -27.4650 N   0  0  0  0  0  0  0  0  0  0  0  0
    0.1530   25.0860  -27.2710 C   0  0  0  0  0  0  0  0  0  0  0  0
    1.5070   24.7730  -27.4770 C   0  0  0  0  0  0  0  0  0  0  0  0
    2.4920   25.7460  -27.2800 C   0  0  0  0  0  0  0  0  0  0  0  0
    2.1330   27.0340  -26.8720 C   0  0  0  0  0  0  0  0  0  0  0  0
    0.7900   27.3490  -26.6560 C   0  0  0  0  0  0  0  0  0  0  0  0
   -0.1980   26.3780  -26.8490 C   0  0  0  0  0  0  0  0  0  0  0  0
   -1.9950   24.2360  -28.1780 C   0  0  0  0  0  0  0  0  0  0  0  0
   -2.3080   25.2860  -28.8010 O   0  0  0  0  0  0  0  0  0  0  0  0
   -5.6810   25.6603  -28.4726 H   0  0  0  0  0  0  0  0  0  0  0  0
   -6.8672   26.8639  -29.0816 H   0  0  0  0  0  0  0  0  0  0  0  0
   -7.2809   25.1159  -29.0816 H   0  0  0  0  0  0  0  0  0  0  0  0
   -9.1023   22.4424  -32.2695 H   0  0  0  0  0  0  0  0  0  0  0  0
   -8.1877   17.2605  -32.5887 H   0  0  0  0  0  0  0  0  0  0  0  0
   -6.6951   16.4656  -31.8940 H   0  0  0  0  0  0  0  0  0  0  0  0
   -7.3234   16.7523  -34.5458 H   0  0  0  0  0  0  0  0  0  0  0  0
   -5.0894   15.7830  -32.9627 H   0  0  0  0  0  0  0  0  0  0  0  0
   -5.7505   15.1725  -34.5173 H   0  0  0  0  0  0  0  0  0  0  0  0
   -4.5088   16.4705  -34.5173 H   0  0  0  0  0  0  0  0  0  0  0  0
   -5.5226   20.1826  -33.9184 H   0  0  0  0  0  0  0  0  0  0  0  0
   -3.0932   18.9213  -33.3444 H   0  0  0  0  0  0  0  0  0  0  0  0
   -3.6637   18.0780  -34.8243 H   0  0  0  0  0  0  0  0  0  0  0  0
   -3.4763   19.8645  -34.8243 H   0  0  0  0  0  0  0  0  0  0  0  0
   -5.1261   19.9210  -31.7265 H   0  0  0  0  0  0  0  0  0  0  0  0
   -4.6493   18.1795  -31.9002 H   0  0  0  0  0  0  0  0  0  0  0  0
   -5.4072   20.7140  -30.8492 H   0  0  0  0  0  0  0  0  0  0  0  0
   -4.7440   22.4250  -28.2350 H   0  0  0  0  0  0  0  0  0  0  0  0
   -2.3083   20.6546  -25.9832 H   0  0  0  0  0  0  0  0  0  0  0  0
   -3.2708   20.5134  -27.4932 H   0  0  0  0  0  0  0  0  0  0  0  0
   -1.5298   20.0711  -27.4932 H   0  0  0  0  0  0  0  0  0  0  0  0
   -0.0652   22.4312  -25.0741 H   0  0  0  0  0  0  0  0  0  0  0  0
    0.3272   21.2062  -26.3279 H   0  0  0  0  0  0  0  0  0  0  0  0
    1.1692   22.7930  -26.3279 H   0  0  0  0  0  0  0  0  0  0  0  0
    1.7933   23.7594  -27.7942 H   0  0  0  0  0  0  0  0  0  0  0  0
    3.5506   25.4975  -27.4463 H   0  0  0  0  0  0  0  0  0  0  0  0
    2.9086   27.7993  -26.7211 H   0  0  0  0  0  0  0  0  0  0  0  0
    0.5086   28.3623  -26.3336 H   0  0  0  0  0  0  0  0  0  0  0  0
   -1.2541   26.6277  -26.6694 H   0  0  0  0  0  0  0  0  0  0  0  0
  1  2  1  0
  2  3  1  0
  3  4  2  0
  4  5  1  0
  5  6  2  0
  6  7  1  0
  7  8  2  0
  7  9  2  0
  7 10  1  0
 10 11  1  0
 11 12  1  0
 12 13  1  0
 12 14  1  0
 14 15  1  0
 15 16  1  0
 15 17  1  0
  6 18  1  0
 18 19  2  0
 19 20  1  0
 20 21  2  0
 20 22  1  0
 22 23  1  0
 23 24  2  0
 24 25  1  0
 24 26  1  0
 26 27  1  0
 26 28  1  0
 28 29  1  0
 29 30  2  0
 30 31  1  0
 31 32  2  0
 32 33  1  0
 33 34  2  0
 28 35  1  0
 35 36  2  0
 19  3  1  0
 35 23  1  0
 17 10  1  0
 34 29  1  0
  1 37  1  0
  1 38  1  0
  1 39  1  0
  5 40  1  0
 11 41  1  0
 11 42  1  0
 12 43  1  6
 13 44  1  0
 13 45  1  0
 13 46  1  0
 15 47  1  1
 16 48  1  0
 16 49  1  0
 16 50  1  0
 17 51  1  0
 17 52  1  0
 18 53  1  0
 22 54  1  0
 25 55  1  0
 25 56  1  0
 25 57  1  0
 27 58  1  0
 27 59  1  0
 27 60  1  0
 30 61  1  0
 31 62  1  0
 32 63  1  0
 33 64  1  0
 34 65  1  0
M  END
>  <UniqueID>  (39) 
39

>  <SMILES>  (39) 
CSc1ncc(S(=O)(=O)N2C[C@@H](C)O[C@@H](C)C2)cc1C(=O)Nc1c(C)n(C)n(-c2ccccc2)c1=O

>  <Energy>  (39) 
127.4146579669632

>  <Genealogy>  (39) 
CSc1ncc(S(=O)(=O)N2C[C@@H](C)O[C@@H](C)C2)cc1C(=O)Nc1c(C)n(C)n(-c2ccccc2)c1=O (chirality)
CSc1ncc(S(=O)(=O)N2C[C@@H](C)O[C@@H](C)C2)cc1C(=O)Nc1c(C)n(C)n(-c2ccccc2)c1=O (3D coordinates assigned)
CSc1ncc(S(=O)(=O)N2C[C@@H](C)O[C@@H](C)C2)cc1C(=O)Nc1c(C)n(C)n(-c2ccccc2)c1=O (nonaromatic ring conformer: 127.4146579669632 kcal/mol)

>  <smiles>  (39) 
CSc1ncc(S(=O)(=O)N2CC(C)OC(C)C2)cc1C(=O)Nc1c(C)n(C)n(-c2ccccc2)c1=O

>  <score_type>  (39) 
oracle

>  <origin>  (39) 
adgpu

>  <m_score__min__energy>  (39) 
-10.619999999999999

>  <m_primary>  (39) 
energy

$$$$
39:0
     RDKit          3D

 44 46  0  0  0  0  0  0  0  0999 V2000
   -8.1950   19.5890  -31.6810 C   0  0  0  0  0  0  0  0  0  0  0  0
   -7.5210   18.7120  -32.6830 C   0  0  0  0  0  0  0  0  0  0  0  0
   -7.6220   17.3670  -32.6920 N   0  0  0  0  0  0  0  0  0  0  0  0
   -6.7750   16.9060  -33.6030 N   0  0  0  0  0  0  0  0  0  0  0  0
   -6.5580   15.4850  -33.8530 C   0  0  0  0  0  0  0  0  0  0  0  0
   -6.1090   17.9340  -34.1740 C   0  0  0  0  0  0  0  0  0  0  0  0
   -4.9880   17.7970  -35.1590 C   0  0  0  0  0  0  0  0  0  0  0  0
   -6.5660   19.1010  -33.6000 C   0  0  0  0  0  0  0  0  0  0  0  0
   -5.9910   20.4020  -33.7140 N   0  0  0  0  0  0  0  0  0  0  0  0
   -4.7330   20.9120  -32.6420 S   0  0  0  0  0  0  0  0  0  0  0  0
   -4.4360   19.8290  -31.6420 O   0  0  0  0  0  0  0  0  0  0  0  0
   -3.4880   21.1880  -33.4370 O   0  0  0  0  0  0  0  0  0  0  0  0
   -5.2400   22.3800  -31.8130 C   0  0  0  0  0  0  0  0  0  0  0  0
   -6.6000   22.6860  -31.6810 C   0  0  0  0  0  0  0  0  0  0  0  0
   -6.9980   23.8150  -30.9600 C   0  0  0  0  0  0  0  0  0  0  0  0
   -6.0420   24.6430  -30.3660 C   0  0  0  0  0  0  0  0  0  0  0  0
   -4.6730   24.3550  -30.5030 C   0  0  0  0  0  0  0  0  0  0  0  0
   -3.6670   25.1640  -29.8670 N   0  0  0  0  0  0  0  0  0  0  0  0
   -2.4440   24.6520  -29.3230 C   0  0  0  0  0  0  0  0  0  0  0  0
   -2.2780   23.4110  -29.1820 O   0  0  0  0  0  0  0  0  0  0  0  0
   -1.4330   25.5750  -28.8980 N   0  0  0  0  0  0  0  0  0  0  0  0
   -1.2400   26.0680  -27.5670 C   0  0  0  0  0  0  0  0  0  0  0  0
   -1.7580   25.4620  -26.4330 C   0  0  0  0  0  0  0  0  0  0  0  0
   -1.4330   26.1440  -25.2550 C   0  0  0  0  0  0  0  0  0  0  0  0
   -0.6630   27.2830  -25.4610 C   0  0  0  0  0  0  0  0  0  0  0  0
   -0.3850   27.4470  -27.1130 S   0  0  0  0  0  0  0  0  0  0  0  0
   -4.2820   23.2120  -31.2170 C   0  0  0  0  0  0  0  0  0  0  0  0
   -7.9363   19.2524  -30.6662 H   0  0  0  0  0  0  0  0  0  0  0  0
   -7.8606   20.6278  -31.8191 H   0  0  0  0  0  0  0  0  0  0  0  0
   -9.2849   19.5332  -31.8191 H   0  0  0  0  0  0  0  0  0  0  0  0
   -6.4766   14.9522  -32.8941 H   0  0  0  0  0  0  0  0  0  0  0  0
   -7.4047   15.0801  -34.4267 H   0  0  0  0  0  0  0  0  0  0  0  0
   -5.6290   15.3513  -34.4267 H   0  0  0  0  0  0  0  0  0  0  0  0
   -4.0371   17.6808  -34.6184 H   0  0  0  0  0  0  0  0  0  0  0  0
   -5.1610   16.9133  -35.7908 H   0  0  0  0  0  0  0  0  0  0  0  0
   -4.9431   18.6963  -35.7908 H   0  0  0  0  0  0  0  0  0  0  0  0
   -7.3565   22.0365  -32.1457 H   0  0  0  0  0  0  0  0  0  0  0  0
   -8.0673   24.0526  -30.8598 H   0  0  0  0  0  0  0  0  0  0  0  0
   -6.3618   25.5233  -29.7891 H   0  0  0  0  0  0  0  0  0  0  0  0
   -3.8720   26.1780  -29.7210 H   0  0  0  0  0  0  0  0  0  0  0  0
   -2.3608   24.5422  -26.4566 H   0  0  0  0  0  0  0  0  0  0  0  0
   -1.7568   25.8098  -24.2583 H   0  0  0  0  0  0  0  0  0  0  0  0
   -0.2972   27.9623  -24.6769 H   0  0  0  0  0  0  0  0  0  0  0  0
   -3.2138   22.9666  -31.3099 H   0  0  0  0  0  0  0  0  0  0  0  0
  1  2  1  0
  2  3  2  0
  3  4  1  0
  4  5  1  0
  4  6  1  0
  6  7  1  0
  6  8  2  0
  8  9  1  0
  9 10  1  0
 10 11  2  0
 10 12  2  0
 10 13  1  0
 13 14  2  0
 14 15  1  0
 15 16  2  0
 16 17  1  0
 17 18  1  0
 18 19  1  0
 19 20  2  0
 19 21  1  0
 21 22  1  0
 22 23  2  0
 23 24  1  0
 24 25  2  0
 25 26  1  0
 17 27  2  0
  8  2  1  0
 27 13  1  0
 26 22  1  0
  1 28  1  0
  1 29  1  0
  1 30  1  0
  5 31  1  0
  5 32  1  0
  5 33  1  0
  7 34  1  0
  7 35  1  0
  7 36  1  0
 14 37  1  0
 15 38  1  0
 16 39  1  0
 18 40  1  0
 23 41  1  0
 24 42  1  0
 25 43  1  0
 27 44  1  0
M  CHG  2   9  -1  21  -1
M  END
>  <UniqueID>  (40) 
40

>  <SMILES>  (40) 
Cc1nn(C)c(C)c1[N-]S(=O)(=O)c1cccc(NC(=O)[N-]c2cccs2)c1

>  <Energy>  (40) 
112.80796085950122

>  <Genealogy>  (40) 
Cc1nn(C)c(C)c1[N-]S(=O)(=O)c1cccc(NC(=O)[N-]c2cccs2)c1 (protonated)
Cc1nn(C)c(C)c1[N-]S(=O)(=O)c1cccc(NC(=O)[N-]c2cccs2)c1 (3D coordinates assigned)
Cc1nn(C)c(C)c1[N-]S(=O)(=O)c1cccc(NC(=O)[N-]c2cccs2)c1 (optimized conformer: 112.80796085950122 kcal/mol)

>  <smiles>  (40) 
Cc1nn(C)c(C)c1NS(=O)(=O)c1cccc(NC(=O)Nc2cccs2)c1

>  <score_type>  (40) 
oracle

>  <origin>  (40) 
adgpu

>  <m_score__min__energy>  (40) 
-10.77

>  <m_primary>  (40) 
energy

$$$$
40:0
     RDKit          3D

 50 52  0  0  0  0  0  0  0  0999 V2000
   -0.3480   22.6860  -24.0780 C   0  0  0  0  0  0  0  0  0  0  0  0
   -0.1870   23.7630  -25.0630 N   0  0  0  0  0  0  0  0  0  0  0  0
    0.4460   25.0200  -24.6420 C   0  0  0  0  0  0  0  0  0  0  0  0
   -0.6710   23.6000  -26.4240 C   0  0  0  0  0  0  0  0  0  0  0  0
   -0.9370   22.3190  -26.9510 C   0  0  0  0  0  0  0  0  0  0  0  0
   -1.4440   22.1680  -28.2430 C   0  0  0  0  0  0  0  0  0  0  0  0
   -1.7030   23.2910  -29.0410 C   0  0  0  0  0  0  0  0  0  0  0  0
   -2.2000   23.1570  -30.3820 N   0  0  0  0  0  0  0  0  0  0  0  0
   -3.3080   22.3400  -30.7780 C   0  0  0  0  0  0  0  0  0  0  0  0
   -3.1120   21.1170  -30.9980 O   0  0  0  0  0  0  0  0  0  0  0  0
   -4.6530   22.9150  -31.0020 C   0  0  0  0  0  0  0  0  0  0  0  0
   -5.7290   22.0700  -31.3310 C   0  0  0  0  0  0  0  0  0  0  0  0
   -7.0240   22.5920  -31.4890 C   0  0  0  0  0  0  0  0  0  0  0  0
   -8.3960   21.5160  -31.7850 S   0  0  0  0  0  0  0  0  0  0  0  0
   -9.5610   22.3540  -32.2320 O   0  0  0  0  0  0  0  0  0  0  0  0
   -8.7840   20.8510  -30.4940 O   0  0  0  0  0  0  0  0  0  0  0  0
   -8.0880   20.3010  -33.0120 N   0  0  0  0  0  0  0  0  0  0  0  0
   -8.6410   18.9820  -32.6620 C   0  0  0  0  0  0  0  0  0  0  0  0
   -7.7560   18.2190  -31.6530 C   0  0  0  0  0  0  0  0  0  0  0  0
   -6.4870   18.8140  -31.4610 O   0  0  0  0  0  0  0  0  0  0  0  0
   -5.9000   19.1070  -32.7070 C   0  0  0  0  0  0  0  0  0  0  0  0
   -6.6680   20.2390  -33.4120 C   0  0  0  0  0  0  0  0  0  0  0  0
   -7.2350   23.9670  -31.3330 C   0  0  0  0  0  0  0  0  0  0  0  0
   -6.1710   24.8140  -31.0210 C   0  0  0  0  0  0  0  0  0  0  0  0
   -4.8810   24.2960  -30.8450 C   0  0  0  0  0  0  0  0  0  0  0  0
   -3.8260   25.1520  -30.5290 O   0  0  0  0  0  0  0  0  0  0  0  0
   -1.4070   24.5660  -28.5460 C   0  0  0  0  0  0  0  0  0  0  0  0
   -1.6230   25.6890  -29.3370 O   0  0  0  0  0  0  0  0  0  0  0  0
   -0.9040   24.7200  -27.2500 C   0  0  0  0  0  0  0  0  0  0  0  0
   -0.2853   23.1051  -23.0629 H   0  0  0  0  0  0  0  0  0  0  0  0
   -1.3279   22.2058  -24.2166 H   0  0  0  0  0  0  0  0  0  0  0  0
    0.4486   21.9402  -24.2166 H   0  0  0  0  0  0  0  0  0  0  0  0
    0.4703   25.0683  -23.5433 H   0  0  0  0  0  0  0  0  0  0  0  0
    1.4730   25.0625  -25.0337 H   0  0  0  0  0  0  0  0  0  0  0  0
   -0.1313   25.8704  -25.0337 H   0  0  0  0  0  0  0  0  0  0  0  0
   -0.7425   21.4278  -26.3363 H   0  0  0  0  0  0  0  0  0  0  0  0
   -1.6417   21.1604  -28.6377 H   0  0  0  0  0  0  0  0  0  0  0  0
   -5.5550   20.9922  -31.4656 H   0  0  0  0  0  0  0  0  0  0  0  0
   -9.6383   19.1236  -32.2200 H   0  0  0  0  0  0  0  0  0  0  0  0
   -8.6885   18.3840  -33.5840 H   0  0  0  0  0  0  0  0  0  0  0  0
   -8.2773   18.1879  -30.6849 H   0  0  0  0  0  0  0  0  0  0  0  0
   -7.5857   17.2130  -32.0641 H   0  0  0  0  0  0  0  0  0  0  0  0
   -4.8569   19.4197  -32.5511 H   0  0  0  0  0  0  0  0  0  0  0  0
   -5.9359   18.2064  -33.3376 H   0  0  0  0  0  0  0  0  0  0  0  0
   -6.1899   21.1975  -33.1615 H   0  0  0  0  0  0  0  0  0  0  0  0
   -6.6364   20.0382  -34.4930 H   0  0  0  0  0  0  0  0  0  0  0  0
   -8.2460   24.3824  -31.4572 H   0  0  0  0  0  0  0  0  0  0  0  0
   -6.3459   25.8946  -30.9126 H   0  0  0  0  0  0  0  0  0  0  0  0
   -2.8990   24.7990  -30.3240 H   0  0  0  0  0  0  0  0  0  0  0  0
   -0.6869   25.7289  -26.8692 H   0  0  0  0  0  0  0  0  0  0  0  0
  1  2  1  0
  2  3  1  0
  2  4  1  0
  4  5  2  0
  5  6  1  0
  6  7  2  0
  7  8  1  0
  8  9  1  0
  9 10  2  0
  9 11  1  0
 11 12  2  0
 12 13  1  0
 13 14  1  0
 14 15  2  0
 14 16  2  0
 14 17  1  0
 17 18  1  0
 18 19  1  0
 19 20  1  0
 20 21  1  0
 21 22  1  0
 13 23  2  0
 23 24  1  0
 24 25  2  0
 25 26  1  0
  7 27  1  0
 27 28  1  0
 27 29  2  0
 29  4  1  0
 25 11  1  0
 22 17  1  0
  1 30  1  0
  1 31  1  0
  1 32  1  0
  3 33  1  0
  3 34  1  0
  3 35  1  0
  5 36  1  0
  6 37  1  0
 12 38  1  0
 18 39  1  0
 18 40  1  0
 19 41  1  0
 19 42  1  0
 21 43  1  0
 21 44  1  0
 22 45  1  0
 22 46  1  0
 23 47  1  0
 24 48  1  0
 26 49  1  0
 29 50  1  0
M  CHG  2   8  -1  28  -1
M  END
>  <UniqueID>  (41) 
41

>  <SMILES>  (41) 
CN(C)c1ccc([N-]C(=O)c2cc(S(=O)(=O)N3CCOCC3)ccc2O)c([O-])c1

>  <Energy>  (41) 
68.39886838513902

>  <Genealogy>  (41) 
CN(C)c1ccc([N-]C(=O)c2cc(S(=O)(=O)N3CCOCC3)ccc2O)c([O-])c1 (protonated)
CN(C)c1ccc([N-]C(=O)c2cc(S(=O)(=O)N3CCOCC3)ccc2O)c([O-])c1 (3D coordinates assigned)
CN(C)c1ccc([N-]C(=O)c2cc(S(=O)(=O)N3CCOCC3)ccc2O)c([O-])c1 (nonaromatic ring conformer: 68.39886838513902 kcal/mol)

>  <smiles>  (41) 
CN(C)c1ccc(NC(=O)c2cc(S(=O)(=O)N3CCOCC3)ccc2O)c(O)c1

>  <score_type>  (41) 
oracle

>  <origin>  (41) 
adgpu

>  <m_score__min__energy>  (41) 
-13.640000000000001

>  <m_primary>  (41) 
energy

$$$$
41:0
     RDKit          3D

 86 91  0  0  0  0  0  0  0  0999 V2000
    1.4750   19.8570  -28.5210 C   0  0  0  0  0  0  0  0  0  0  0  0
    0.1890   19.8120  -27.7380 C   0  0  0  0  0  0  0  0  0  0  0  0
   -0.4590   18.5760  -27.5620 C   0  0  0  0  0  0  0  0  0  0  0  0
   -1.6610   18.5000  -26.8550 C   0  0  0  0  0  0  0  0  0  0  0  0
   -2.2350   19.6550  -26.3260 C   0  0  0  0  0  0  0  0  0  0  0  0
   -1.6110   20.8900  -26.5000 C   0  0  0  0  0  0  0  0  0  0  0  0
   -0.3980   20.9880  -27.2060 C   0  0  0  0  0  0  0  0  0  0  0  0
    0.2340   22.3500  -27.3910 C   0  0  0  0  0  0  0  0  0  0  0  0
   -0.2070   22.9510  -28.6690 N   0  0  0  0  0  0  0  0  0  0  0  0
   -0.9880   22.0090  -29.5160 C   0  0  0  0  0  0  0  0  0  0  0  0
   -2.4930   22.3350  -29.6030 C   0  0  0  0  0  0  0  0  0  0  0  0
   -3.0230   22.8450  -28.2520 C   0  0  0  0  0  0  0  0  0  0  0  0
   -4.5360   23.1170  -28.3090 C   0  0  0  0  0  0  0  0  0  0  0  0
   -4.7820   24.5500  -28.4650 N   0  0  0  0  0  0  0  0  0  0  0  0
   -5.1280   24.9110  -30.1280 S   0  0  0  0  0  0  0  0  0  0  0  0
   -6.0790   26.0710  -30.1930 O   0  0  0  0  0  0  0  0  0  0  0  0
   -3.8590   25.2980  -30.8400 O   0  0  0  0  0  0  0  0  0  0  0  0
   -5.8630   23.5190  -30.9190 C   0  0  0  0  0  0  0  0  0  0  0  0
   -7.2720   23.3750  -30.9180 C   0  0  0  0  0  0  0  0  0  0  0  0
   -7.8780   22.2790  -31.5570 C   0  0  0  0  0  0  0  0  0  0  0  0
   -7.0510   21.3460  -32.1770 C   0  0  0  0  0  0  0  0  0  0  0  0
   -7.4150   20.2750  -32.8380 O   0  0  0  0  0  0  0  0  0  0  0  0
   -6.3190   19.6750  -33.2680 C   0  0  0  0  0  0  0  0  0  0  0  0
   -6.3420   18.4100  -34.0630 C   0  0  0  0  0  0  0  0  0  0  0  0
   -5.1870   20.3960  -32.8770 C   0  0  0  0  0  0  0  0  0  0  0  0
   -3.7730   20.0830  -33.1450 C   0  0  0  0  0  0  0  0  0  0  0  0
   -3.4580   19.5130  -34.2250 O   0  0  0  0  0  0  0  0  0  0  0  0
   -2.7650   20.3740  -32.1670 N   0  0  0  0  0  0  0  0  0  0  0  0
   -1.3630   20.3060  -32.4670 C   0  0  0  0  0  0  0  0  0  0  0  0
   -0.8860   20.8640  -33.6610 C   0  0  0  0  0  0  0  0  0  0  0  0
    0.4800   20.8170  -33.9740 C   0  0  0  0  0  0  0  0  0  0  0  0
    1.0800   21.5610  -35.4540 S   0  0  0  0  0  0  0  0  0  0  0  0
    0.1660   21.2200  -36.6000 O   0  0  0  0  0  0  0  0  0  0  0  0
    1.0830   23.0540  -35.2790 O   0  0  0  0  0  0  0  0  0  0  0  0
    2.7020   21.0100  -35.7960 N   0  0  0  0  0  0  0  0  0  0  0  0
    2.7320   20.3080  -37.0940 C   0  0  0  0  0  0  0  0  0  0  0  0
    4.1500   20.3140  -37.6840 C   0  0  0  0  0  0  0  0  0  0  0  0
    4.6640   21.6160  -37.9350 O   0  0  0  0  0  0  0  0  0  0  0  0
    4.0810   22.6270  -37.1220 C   0  0  0  0  0  0  0  0  0  0  0  0
    3.6680   22.1300  -35.7250 C   0  0  0  0  0  0  0  0  0  0  0  0
    1.3670   20.1770  -33.1000 C   0  0  0  0  0  0  0  0  0  0  0  0
    0.8970   19.6040  -31.9160 C   0  0  0  0  0  0  0  0  0  0  0  0
   -0.4640   19.6640  -31.5970 C   0  0  0  0  0  0  0  0  0  0  0  0
   -0.9160   19.0660  -30.4260 O   0  0  0  0  0  0  0  0  0  0  0  0
   -5.6860   21.4700  -32.1630 C   0  0  0  0  0  0  0  0  0  0  0  0
   -5.0540   22.5490  -31.5450 C   0  0  0  0  0  0  0  0  0  0  0  0
   -2.2540   24.1100  -27.8000 C   0  0  0  0  0  0  0  0  0  0  0  0
   -0.8760   24.2530  -28.4750 C   0  0  0  0  0  0  0  0  0  0  0  0
    2.3268   19.8868  -27.8256 H   0  0  0  0  0  0  0  0  0  0  0  0
    1.5501   18.9609  -29.1546 H   0  0  0  0  0  0  0  0  0  0  0  0
    1.4873   20.7561  -29.1546 H   0  0  0  0  0  0  0  0  0  0  0  0
   -0.0156   17.6623  -27.9845 H   0  0  0  0  0  0  0  0  0  0  0  0
   -2.1555   17.5274  -26.7154 H   0  0  0  0  0  0  0  0  0  0  0  0
   -3.1821   19.5921  -25.7701 H   0  0  0  0  0  0  0  0  0  0  0  0
   -2.0719   21.7967  -26.0810 H   0  0  0  0  0  0  0  0  0  0  0  0
   -0.0654   23.0050  -26.5595 H   0  0  0  0  0  0  0  0  0  0  0  0
    1.3281   22.2377  -27.4069 H   0  0  0  0  0  0  0  0  0  0  0  0
   -0.5706   22.0330  -30.5334 H   0  0  0  0  0  0  0  0  0  0  0  0
   -0.9062   21.0185  -29.0446 H   0  0  0  0  0  0  0  0  0  0  0  0
   -2.6500   23.1103  -30.3674 H   0  0  0  0  0  0  0  0  0  0  0  0
   -3.0367   21.4168  -29.8699 H   0  0  0  0  0  0  0  0  0  0  0  0
   -2.8531   22.0534  -27.5073 H   0  0  0  0  0  0  0  0  0  0  0  0
   -4.9709   22.5778  -29.1635 H   0  0  0  0  0  0  0  0  0  0  0  0
   -5.0001   22.7711  -27.3736 H   0  0  0  0  0  0  0  0  0  0  0  0
   -7.8970   24.1265  -30.4134 H   0  0  0  0  0  0  0  0  0  0  0  0
   -8.9717   22.1622  -31.5668 H   0  0  0  0  0  0  0  0  0  0  0  0
   -6.3577   17.5479  -33.3800 H   0  0  0  0  0  0  0  0  0  0  0  0
   -7.2406   18.3918  -34.6971 H   0  0  0  0  0  0  0  0  0  0  0  0
   -5.4446   18.3591  -34.6971 H   0  0  0  0  0  0  0  0  0  0  0  0
   -3.0530   20.4420  -31.1660 H   0  0  0  0  0  0  0  0  0  0  0  0
   -1.5892   21.3428  -34.3584 H   0  0  0  0  0  0  0  0  0  0  0  0
    2.4060   19.2675  -36.9490 H   0  0  0  0  0  0  0  0  0  0  0  0
    2.0575   20.8266  -37.7913 H   0  0  0  0  0  0  0  0  0  0  0  0
    4.8219   19.8069  -36.9759 H   0  0  0  0  0  0  0  0  0  0  0  0
    4.0941   19.8001  -38.6549 H   0  0  0  0  0  0  0  0  0  0  0  0
    4.8118   23.4401  -37.0002 H   0  0  0  0  0  0  0  0  0  0  0  0
    3.1646   22.9619  -37.6300 H   0  0  0  0  0  0  0  0  0  0  0  0
    4.5666   21.7901  -35.1893 H   0  0  0  0  0  0  0  0  0  0  0  0
    3.1816   22.9644  -35.1984 H   0  0  0  0  0  0  0  0  0  0  0  0
    2.4378   20.1252  -33.3466 H   0  0  0  0  0  0  0  0  0  0  0  0
    1.5989   19.1041  -31.2324 H   0  0  0  0  0  0  0  0  0  0  0  0
   -3.9578   22.6402  -31.5461 H   0  0  0  0  0  0  0  0  0  0  0  0
   -2.8588   24.9947  -28.0480 H   0  0  0  0  0  0  0  0  0  0  0  0
   -2.0812   24.0196  -26.7174 H   0  0  0  0  0  0  0  0  0  0  0  0
   -1.0112   24.7305  -29.4567 H   0  0  0  0  0  0  0  0  0  0  0  0
   -0.2406   24.8618  -27.8150 H   0  0  0  0  0  0  0  0  0  0  0  0
  1  2  1  0
  2  3  2  0
  3  4  1  0
  4  5  2  0
  5  6  1  0
  6  7  2  0
  7  8  1  0
  8  9  1  0
  9 10  1  0
 10 11  1  0
 11 12  1  0
 12 13  1  0
 13 14  1  0
 14 15  1  0
 15 16  2  0
 15 17  2  0
 15 18  1  0
 18 19  2  0
 19 20  1  0
 20 21  2  0
 21 22  1  0
 22 23  1  0
 23 24  1  0
 23 25  2  0
 25 26  1  0
 26 27  2  0
 26 28  1  0
 28 29  1  0
 29 30  2  0
 30 31  1  0
 31 32  1  0
 32 33  2  0
 32 34  2  0
 32 35  1  0
 35 36  1  0
 36 37  1  0
 37 38  1  0
 38 39  1  0
 39 40  1  0
 31 41  2  0
 41 42  1  0
 42 43  2  0
 43 44  1  0
 25 45  1  0
 45 46  2  0
 12 47  1  0
 47 48  1  0
  7  2  1  0
 48  9  1  0
 46 18  1  0
 45 21  1  0
 43 29  1  0
 40 35  1  0
  1 49  1  0
  1 50  1  0
  1 51  1  0
  3 52  1  0
  4 53  1  0
  5 54  1  0
  6 55  1  0
  8 56  1  0
  8 57  1  0
 10 58  1  0
 10 59  1  0
 11 60  1  0
 11 61  1  0
 12 62  1  0
 13 63  1  0
 13 64  1  0
 19 65  1  0
 20 66  1  0
 24 67  1  0
 24 68  1  0
 24 69  1  0
 28 70  1  0
 30 71  1  0
 36 72  1  0
 36 73  1  0
 37 74  1  0
 37 75  1  0
 39 76  1  0
 39 77  1  0
 40 78  1  0
 40 79  1  0
 41 80  1  0
 42 81  1  0
 46 82  1  0
 47 83  1  0
 47 84  1  0
 48 85  1  0
 48 86  1  0
M  CHG  2  14  -1  44  -1
M  END
>  <UniqueID>  (42) 
42

>  <SMILES>  (42) 
Cc1ccccc1CN1CCC(C[N-]S(=O)(=O)c2ccc3oc(C)c(C(=O)Nc4cc(S(=O)(=O)N5CCOCC5)ccc4[O-])c3c2)CC1

>  <Energy>  (42) 
150.8568412229363

>  <Genealogy>  (42) 
Cc1ccccc1CN1CCC(C[N-]S(=O)(=O)c2ccc3oc(C)c(C(=O)Nc4cc(S(=O)(=O)N5CCOCC5)ccc4[O-])c3c2)CC1 (protonated)
Cc1ccccc1CN1CCC(C[N-]S(=O)(=O)c2ccc3oc(C)c(C(=O)Nc4cc(S(=O)(=O)N5CCOCC5)ccc4[O-])c3c2)CC1 (3D coordinates assigned)
Cc1ccccc1CN1CCC(C[N-]S(=O)(=O)c2ccc3oc(C)c(C(=O)Nc4cc(S(=O)(=O)N5CCOCC5)ccc4[O-])c3c2)CC1 (nonaromatic ring conformer: 150.8568412229363 kcal/mol)

>  <smiles>  (42) 
Cc1ccccc1CN1CCC(CNS(=O)(=O)c2ccc3oc(C)c(C(=O)Nc4cc(S(=O)(=O)N5CCOCC5)ccc4O)c3c2)CC1

>  <score_type>  (42) 
oracle

>  <origin>  (42) 
adgpu

>  <m_score__min__energy>  (42) 
-16.210000000000001

>  <m_primary>  (42) 
energy

$$$$
42:0
     RDKit          3D

 37 39  0  0  0  0  0  0  0  0999 V2000
   -9.5570   21.5760  -30.1910 O   0  0  0  0  0  0  0  0  0  0  0  0
   -9.0540   21.4640  -31.3290 N   0  0  0  0  0  0  0  0  0  0  0  0
   -9.8150   20.9170  -32.3380 O   0  0  0  0  0  0  0  0  0  0  0  0
   -7.7050   21.8950  -31.5820 C   0  0  0  0  0  0  0  0  0  0  0  0
   -6.8660   21.1600  -32.4410 C   0  0  0  0  0  0  0  0  0  0  0  0
   -5.5560   21.5820  -32.6820 C   0  0  0  0  0  0  0  0  0  0  0  0
   -5.0690   22.7400  -32.0740 C   0  0  0  0  0  0  0  0  0  0  0  0
   -5.8900   23.4860  -31.2210 C   0  0  0  0  0  0  0  0  0  0  0  0
   -5.2740   24.9570  -30.4740 S   0  0  0  0  0  0  0  0  0  0  0  0
   -5.7540   26.1730  -31.2160 O   0  0  0  0  0  0  0  0  0  0  0  0
   -5.7640   25.0230  -29.0560 O   0  0  0  0  0  0  0  0  0  0  0  0
   -3.5400   24.9420  -30.4770 N   0  0  0  0  0  0  0  0  0  0  0  0
   -2.7160   24.1500  -29.6070 C   0  0  0  0  0  0  0  0  0  0  0  0
   -3.0310   22.8140  -29.2980 C   0  0  0  0  0  0  0  0  0  0  0  0
   -2.2150   22.0730  -28.4330 C   0  0  0  0  0  0  0  0  0  0  0  0
   -1.0550   22.6590  -27.8900 C   0  0  0  0  0  0  0  0  0  0  0  0
   -0.7480   23.9930  -28.1910 C   0  0  0  0  0  0  0  0  0  0  0  0
   -1.5700   24.7310  -29.0470 C   0  0  0  0  0  0  0  0  0  0  0  0
   -1.2440   26.0520  -29.3380 O   0  0  0  0  0  0  0  0  0  0  0  0
   -0.1870   21.8840  -26.9280 C   0  0  0  0  0  0  0  0  0  0  0  0
   -0.3210   20.3700  -27.1350 C   0  0  0  0  0  0  0  0  0  0  0  0
   -1.7940   19.9540  -27.1230 C   0  0  0  0  0  0  0  0  0  0  0  0
   -2.5430   20.7080  -28.1260 N   0  0  0  0  0  0  0  0  0  0  0  0
   -7.2030   23.0600  -30.9740 C   0  0  0  0  0  0  0  0  0  0  0  0
   -7.2442   20.2477  -32.9255 H   0  0  0  0  0  0  0  0  0  0  0  0
   -4.9068   21.0000  -33.3527 H   0  0  0  0  0  0  0  0  0  0  0  0
   -4.0365   23.0673  -32.2659 H   0  0  0  0  0  0  0  0  0  0  0  0
   -3.9245   22.3478  -29.7388 H   0  0  0  0  0  0  0  0  0  0  0  0
    0.1447   24.4616  -27.7511 H   0  0  0  0  0  0  0  0  0  0  0  0
    0.8629   22.1733  -27.0830 H   0  0  0  0  0  0  0  0  0  0  0  0
   -0.5144   22.1201  -25.9048 H   0  0  0  0  0  0  0  0  0  0  0  0
    0.1242   20.0965  -28.1030 H   0  0  0  0  0  0  0  0  0  0  0  0
    0.2009   19.8522  -26.3168 H   0  0  0  0  0  0  0  0  0  0  0  0
   -1.8693   18.8795  -27.3461 H   0  0  0  0  0  0  0  0  0  0  0  0
   -2.2165   20.1635  -26.1292 H   0  0  0  0  0  0  0  0  0  0  0  0
   -3.3750   20.2590  -28.5710 H   0  0  0  0  0  0  0  0  0  0  0  0
   -7.8466   23.6424  -30.2983 H   0  0  0  0  0  0  0  0  0  0  0  0
  1  2  2  0
  2  3  1  0
  2  4  1  0
  4  5  2  0
  5  6  1  0
  6  7  2  0
  7  8  1  0
  8  9  1  0
  9 10  2  0
  9 11  2  0
  9 12  1  0
 12 13  1  0
 13 14  2  0
 14 15  1  0
 15 16  2  0
 16 17  1  0
 17 18  2  0
 18 19  1  0
 16 20  1  0
 20 21  1  0
 21 22  1  0
 22 23  1  0
  8 24  2  0
 24  4  1  0
 18 13  1  0
 23 15  1  0
  5 25  1  0
  6 26  1  0
  7 27  1  0
 14 28  1  0
 17 29  1  0
 20 30  1  0
 20 31  1  0
 21 32  1  0
 21 33  1  0
 22 34  1  0
 22 35  1  0
 23 36  1  0
 24 37  1  0
M  CHG  4   2   1   3  -1  12  -1  19  -1
M  END
>  <UniqueID>  (43) 
43

>  <SMILES>  (43) 
O=[N+]([O-])c1cccc(S(=O)(=O)[N-]c2cc3c(cc2[O-])CCCN3)c1

>  <Energy>  (43) 
41.71809601476587

>  <Genealogy>  (43) 
O=[N+]([O-])c1cccc(S(=O)(=O)[N-]c2cc3c(cc2[O-])CCCN3)c1 (protonated)
O=[N+]([O-])c1cccc(S(=O)(=O)[N-]c2cc3c(cc2[O-])CCCN3)c1 (3D coordinates assigned)
O=[N+]([O-])c1cccc(S(=O)(=O)[N-]c2cc3c(cc2[O-])CCCN3)c1 (nonaromatic ring conformer: 41.71809601476587 kcal/mol)

>  <smiles>  (43) 
O=[N+]([O-])c1cccc(S(=O)(=O)Nc2cc3c(cc2O)CCCN3)c1

>  <score_type>  (43) 
oracle

>  <origin>  (43) 
adgpu

>  <m_score__min__energy>  (43) 
-13.029999999999999

>  <m_primary>  (43) 
energy

$$$$
43:0
     RDKit          3D

 52 55  0  0  0  0  0  0  0  0999 V2000
   -5.6720   25.9670  -30.0870 O   0  0  0  0  0  0  0  0  0  0  0  0
   -4.9410   25.2180  -30.7870 C   0  0  0  0  0  0  0  0  0  0  0  0
   -5.5170   24.5390  -31.9070 N   0  0  0  0  0  0  0  0  0  0  0  0
   -5.9500   23.1720  -31.9180 C   0  0  0  0  0  0  0  0  0  0  0  0
   -4.9880   22.1560  -31.9610 C   0  0  0  0  0  0  0  0  0  0  0  0
   -5.3780   20.8120  -31.9730 C   0  0  0  0  0  0  0  0  0  0  0  0
   -6.7370   20.4730  -31.9590 C   0  0  0  0  0  0  0  0  0  0  0  0
   -7.2300   18.7780  -31.9340 S   0  0  0  0  0  0  0  0  0  0  0  0
   -8.6790   18.6890  -31.5440 O   0  0  0  0  0  0  0  0  0  0  0  0
   -6.4260   18.0450  -30.8960 O   0  0  0  0  0  0  0  0  0  0  0  0
   -7.0060   18.0090  -33.4920 N   0  0  0  0  0  0  0  0  0  0  0  0
   -6.4140   16.6740  -33.3470 C   0  0  0  0  0  0  0  0  0  0  0  0
   -4.9210   16.7750  -33.6280 C   0  0  0  0  0  0  0  0  0  0  0  0
   -4.7000   18.1520  -34.2190 C   0  0  0  0  0  0  0  0  0  0  0  0
   -6.0820   18.7770  -34.3330 C   0  0  0  0  0  0  0  0  0  0  0  0
   -7.7020   21.4880  -31.9610 C   0  0  0  0  0  0  0  0  0  0  0  0
   -7.3130   22.8300  -31.9440 C   0  0  0  0  0  0  0  0  0  0  0  0
   -3.5530   25.0420  -30.4690 N   0  0  0  0  0  0  0  0  0  0  0  0
   -2.9900   24.1880  -29.4610 C   0  0  0  0  0  0  0  0  0  0  0  0
   -3.6620   23.0460  -29.0030 C   0  0  0  0  0  0  0  0  0  0  0  0
   -3.1030   22.2570  -28.0020 C   0  0  0  0  0  0  0  0  0  0  0  0
   -1.8730   22.5960  -27.4360 C   0  0  0  0  0  0  0  0  0  0  0  0
   -1.3600   21.7800  -26.4360 O   0  0  0  0  0  0  0  0  0  0  0  0
   -1.1810   23.7470  -27.8710 C   0  0  0  0  0  0  0  0  0  0  0  0
    0.3860   24.1830  -27.1510 S   0  0  0  0  0  0  0  0  0  0  0  0
    1.2350   24.8680  -28.1880 O   0  0  0  0  0  0  0  0  0  0  0  0
    1.1250   22.9580  -26.6860 O   0  0  0  0  0  0  0  0  0  0  0  0
    0.0950   25.2350  -25.7270 C   0  0  0  0  0  0  0  0  0  0  0  0
   -0.6650   24.6090  -24.5670 C   0  0  0  0  0  0  0  0  0  0  0  0
   -1.3720   25.5690  -25.5080 C   0  0  0  0  0  0  0  0  0  0  0  0
   -1.7640   24.5550  -28.8810 C   0  0  0  0  0  0  0  0  0  0  0  0
   -1.1590   25.7310  -29.3350 O   0  0  0  0  0  0  0  0  0  0  0  0
   -3.9193   22.4155  -31.9855 H   0  0  0  0  0  0  0  0  0  0  0  0
   -4.6152   20.0197  -31.9935 H   0  0  0  0  0  0  0  0  0  0  0  0
   -6.5749   16.3059  -32.3230 H   0  0  0  0  0  0  0  0  0  0  0  0
   -6.8842   15.9742  -34.0535 H   0  0  0  0  0  0  0  0  0  0  0  0
   -4.3481   16.6627  -32.6957 H   0  0  0  0  0  0  0  0  0  0  0  0
   -4.5855   15.9833  -34.3141 H   0  0  0  0  0  0  0  0  0  0  0  0
   -4.0597   18.7548  -33.5583 H   0  0  0  0  0  0  0  0  0  0  0  0
   -4.1964   18.0989  -35.1955 H   0  0  0  0  0  0  0  0  0  0  0  0
   -6.0473   19.8214  -33.9896 H   0  0  0  0  0  0  0  0  0  0  0  0
   -6.4199   18.7607  -35.3797 H   0  0  0  0  0  0  0  0  0  0  0  0
   -8.7706   21.2277  -31.9760 H   0  0  0  0  0  0  0  0  0  0  0  0
   -8.0765   23.6219  -31.9510 H   0  0  0  0  0  0  0  0  0  0  0  0
   -4.6352   22.7724  -29.4366 H   0  0  0  0  0  0  0  0  0  0  0  0
   -3.6348   21.3591  -27.6541 H   0  0  0  0  0  0  0  0  0  0  0  0
    1.0367   25.7977  -25.8085 H   0  0  0  0  0  0  0  0  0  0  0  0
   -0.9128   23.5375  -24.5863 H   0  0  0  0  0  0  0  0  0  0  0  0
   -0.5162   24.5551  -23.4784 H   0  0  0  0  0  0  0  0  0  0  0  0
   -2.1321   25.1925  -26.2084 H   0  0  0  0  0  0  0  0  0  0  0  0
   -1.9474   26.4981  -25.3825 H   0  0  0  0  0  0  0  0  0  0  0  0
   -0.1670   25.9090  -29.2920 H   0  0  0  0  0  0  0  0  0  0  0  0
  1  2  2  0
  2  3  1  0
  3  4  1  0
  4  5  2  0
  5  6  1  0
  6  7  2  0
  7  8  1  0
  8  9  2  0
  8 10  2  0
  8 11  1  0
 11 12  1  0
 12 13  1  0
 13 14  1  0
 14 15  1  0
  7 16  1  0
 16 17  2  0
  2 18  1  0
 18 19  1  0
 19 20  2  0
 20 21  1  0
 21 22  2  0
 22 23  1  0
 22 24  1  0
 24 25  1  0
 25 26  2  0
 25 27  2  0
 25 28  1  0
 28 29  1  0
 29 30  1  0
 24 31  2  0
 31 32  1  0
 17  4  1  0
 31 19  1  0
 15 11  1  0
 30 28  1  0
  5 33  1  0
  6 34  1  0
 12 35  1  0
 12 36  1  0
 13 37  1  0
 13 38  1  0
 14 39  1  0
 14 40  1  0
 15 41  1  0
 15 42  1  0
 16 43  1  0
 17 44  1  0
 20 45  1  0
 21 46  1  0
 28 47  1  0
 29 48  1  0
 29 49  1  0
 30 50  1  0
 30 51  1  0
 32 52  1  0
M  CHG  3   3  -1  18  -1  23  -1
M  END
>  <UniqueID>  (44) 
44

>  <SMILES>  (44) 
O=C([N-]c1ccc(S(=O)(=O)N2CCCC2)cc1)[N-]c1ccc([O-])c(S(=O)(=O)C2CC2)c1O

>  <Energy>  (44) 
328.24664918031436

>  <Genealogy>  (44) 
O=C([N-]c1ccc(S(=O)(=O)N2CCCC2)cc1)[N-]c1ccc([O-])c(S(=O)(=O)C2CC2)c1O (protonated)
O=C([N-]c1ccc(S(=O)(=O)N2CCCC2)cc1)[N-]c1ccc([O-])c(S(=O)(=O)C2CC2)c1O (3D coordinates assigned)
O=C([N-]c1ccc(S(=O)(=O)N2CCCC2)cc1)[N-]c1ccc([O-])c(S(=O)(=O)C2CC2)c1O (nonaromatic ring conformer: 328.24664918031436 kcal/mol)

>  <smiles>  (44) 
O=C(Nc1ccc(S(=O)(=O)N2CCCC2)cc1)Nc1ccc(O)c(S(=O)(=O)C2CC2)c1O

>  <score_type>  (44) 
oracle

>  <origin>  (44) 
adgpu

>  <m_score__min__energy>  (44) 
-13.99

>  <m_primary>  (44) 
energy

$$$$
44:0
     RDKit          3D

 45 47  0  0  0  0  0  0  0  0999 V2000
   -9.1580   18.5650  -31.9570 C   0  0  0  0  0  0  0  0  0  0  0  0
   -8.0410   19.5610  -32.0500 C   0  0  0  0  0  0  0  0  0  0  0  0
   -6.7740   19.1590  -32.4940 C   0  0  0  0  0  0  0  0  0  0  0  0
   -5.7410   20.0910  -32.6070 C   0  0  0  0  0  0  0  0  0  0  0  0
   -5.9550   21.4350  -32.2850 C   0  0  0  0  0  0  0  0  0  0  0  0
   -4.8740   22.3190  -32.3960 O   0  0  0  0  0  0  0  0  0  0  0  0
   -3.5330   21.9260  -32.3040 C   0  0  0  0  0  0  0  0  0  0  0  0
   -2.7620   21.8470  -33.4250 N   0  0  0  0  0  0  0  0  0  0  0  0
   -1.4590   21.4640  -33.3830 C   0  0  0  0  0  0  0  0  0  0  0  0
   -0.7130   21.3920  -34.5550 O   0  0  0  0  0  0  0  0  0  0  0  0
   -0.8690   21.1390  -32.1610 C   0  0  0  0  0  0  0  0  0  0  0  0
   -1.6270   21.2230  -30.9930 C   0  0  0  0  0  0  0  0  0  0  0  0
   -2.9680   21.6310  -31.0480 C   0  0  0  0  0  0  0  0  0  0  0  0
   -3.7730   21.7080  -29.7760 C   0  0  0  0  0  0  0  0  0  0  0  0
   -4.5420   22.9480  -29.7420 N   0  0  0  0  0  0  0  0  0  0  0  0
   -4.0030   24.2280  -30.0810 C   0  0  0  0  0  0  0  0  0  0  0  0
   -4.2680   24.7440  -31.1990 O   0  0  0  0  0  0  0  0  0  0  0  0
   -3.2200   24.9270  -29.1010 N   0  0  0  0  0  0  0  0  0  0  0  0
   -1.9600   24.7920  -28.7820 C   0  0  0  0  0  0  0  0  0  0  0  0
   -1.1220   23.7890  -29.3150 C   0  0  0  0  0  0  0  0  0  0  0  0
    0.2170   23.7240  -28.9140 C   0  0  0  0  0  0  0  0  0  0  0  0
    0.7030   24.6090  -28.0070 N   0  0  0  0  0  0  0  0  0  0  0  0
   -0.0830   25.5740  -27.4630 C   0  0  0  0  0  0  0  0  0  0  0  0
   -1.4250   25.6770  -27.8350 C   0  0  0  0  0  0  0  0  0  0  0  0
   -7.2470   21.8630  -31.8960 C   0  0  0  0  0  0  0  0  0  0  0  0
   -7.5580   23.3090  -31.6110 C   0  0  0  0  0  0  0  0  0  0  0  0
   -8.2750   20.9150  -31.7670 C   0  0  0  0  0  0  0  0  0  0  0  0
   -9.3831   18.3643  -30.8992 H   0  0  0  0  0  0  0  0  0  0  0  0
  -10.0529   18.9704  -32.4518 H   0  0  0  0  0  0  0  0  0  0  0  0
   -8.8574   17.6297  -32.4518 H   0  0  0  0  0  0  0  0  0  0  0  0
   -6.5930   18.1057  -32.7543 H   0  0  0  0  0  0  0  0  0  0  0  0
   -4.7489   19.7651  -32.9527 H   0  0  0  0  0  0  0  0  0  0  0  0
   -1.0450   21.8280  -35.4080 H   0  0  0  0  0  0  0  0  0  0  0  0
    0.1829   20.8199  -32.1191 H   0  0  0  0  0  0  0  0  0  0  0  0
   -1.1713   20.9682  -30.0248 H   0  0  0  0  0  0  0  0  0  0  0  0
   -4.4618   20.8516  -29.7292 H   0  0  0  0  0  0  0  0  0  0  0  0
   -3.0883   21.6859  -28.9154 H   0  0  0  0  0  0  0  0  0  0  0  0
   -1.5188   23.0636  -30.0405 H   0  0  0  0  0  0  0  0  0  0  0  0
    0.8783   22.9526  -29.3355 H   0  0  0  0  0  0  0  0  0  0  0  0
    0.3384   26.2756  -26.7281 H   0  0  0  0  0  0  0  0  0  0  0  0
   -2.0625   26.4524  -27.3851 H   0  0  0  0  0  0  0  0  0  0  0  0
   -7.5924   23.4692  -30.5233 H   0  0  0  0  0  0  0  0  0  0  0  0
   -6.7763   23.9458  -32.0508 H   0  0  0  0  0  0  0  0  0  0  0  0
   -8.5324   23.5681  -32.0508 H   0  0  0  0  0  0  0  0  0  0  0  0
   -9.2747   21.2376  -31.4405 H   0  0  0  0  0  0  0  0  0  0  0  0
  1  2  1  0
  2  3  2  0
  3  4  1  0
  4  5  2  0
  5  6  1  0
  6  7  1  0
  7  8  2  0
  8  9  1  0
  9 10  1  0
  9 11  2  0
 11 12  1  0
 12 13  2  0
 13 14  1  0
 14 15  1  0
 15 16  1  0
 16 17  2  0
 16 18  1  0
 18 19  2  3
 19 20  1  0
 20 21  2  0
 21 22  1  0
 22 23  1  0
 23 24  2  0
  5 25  1  0
 25 26  1  0
 25 27  2  0
 27  2  1  0
 13  7  1  0
 24 19  1  0
  1 28  1  0
  1 29  1  0
  1 30  1  0
  3 31  1  0
  4 32  1  0
 10 33  1  0
 11 34  1  0
 12 35  1  0
 14 36  1  0
 14 37  1  0
 20 38  1  0
 21 39  1  0
 23 40  1  0
 24 41  1  0
 26 42  1  0
 26 43  1  0
 26 44  1  0
 27 45  1  0
M  CHG  2  15  -1  22  -1
M  END
>  <UniqueID>  (45) 
45

>  <SMILES>  (45) 
Cc1ccc(Oc2nc(O)ccc2C[N-]C(=O)N=c2cc[n-]cc2)c(C)c1

>  <Energy>  (45) 
59.549794299189614

>  <Genealogy>  (45) 
Cc1ccc(Oc2nc(O)ccc2C[N-]C(=O)N=c2cc[n-]cc2)c(C)c1 (protonated)
Cc1ccc(Oc2nc(O)ccc2C[N-]C(=O)N=c2cc[n-]cc2)c(C)c1 (3D coordinates assigned)
Cc1ccc(Oc2nc(O)ccc2C[N-]C(=O)N=c2cc[n-]cc2)c(C)c1 (optimized conformer: 59.549794299189614 kcal/mol)

>  <smiles>  (45) 
Cc1ccc(Oc2nc(O)ccc2CNC(=O)N=c2cc[nH]cc2)c(C)c1

>  <score_type>  (45) 
oracle

>  <origin>  (45) 
adgpu

>  <m_score__min__energy>  (45) 
-9.8900000000000006

>  <m_primary>  (45) 
energy

$$$$
45:0
     RDKit          3D

 49 51  0  0  0  0  0  0  0  0999 V2000
   -2.0670   25.0850  -29.3240 N   0  0  0  0  0  0  0  0  0  0  0  0
   -3.4740   24.3610  -30.0200 S   0  0  0  0  0  0  0  0  0  0  0  0
   -4.3650   23.8520  -28.9220 O   0  0  0  0  0  0  0  0  0  0  0  0
   -4.2240   25.3900  -30.8180 O   0  0  0  0  0  0  0  0  0  0  0  0
   -2.9920   23.0410  -31.0820 C   0  0  0  0  0  0  0  0  0  0  0  0
   -3.8070   22.6390  -32.1500 C   0  0  0  0  0  0  0  0  0  0  0  0
   -3.3920   21.6130  -33.0040 C   0  0  0  0  0  0  0  0  0  0  0  0
   -2.1570   20.9770  -32.8000 C   0  0  0  0  0  0  0  0  0  0  0  0
   -1.6780   19.9050  -33.7400 C   0  0  0  0  0  0  0  0  0  0  0  0
   -1.6110   18.6190  -33.0420 N   0  0  0  0  0  0  0  0  0  0  0  0
   -2.8700   17.5430  -33.5690 S   0  0  0  0  0  0  0  0  0  0  0  0
   -2.7900   17.3570  -35.0580 O   0  0  0  0  0  0  0  0  0  0  0  0
   -2.6730   16.2050  -32.9150 O   0  0  0  0  0  0  0  0  0  0  0  0
   -4.4520   18.1740  -33.1260 C   0  0  0  0  0  0  0  0  0  0  0  0
   -4.6040   18.9840  -31.9920 C   0  0  0  0  0  0  0  0  0  0  0  0
   -5.8590   19.4990  -31.6560 C   0  0  0  0  0  0  0  0  0  0  0  0
   -6.9740   19.2190  -32.4580 C   0  0  0  0  0  0  0  0  0  0  0  0
   -8.5530   19.9000  -32.0490 S   0  0  0  0  0  0  0  0  0  0  0  0
   -9.5060   19.6590  -33.1880 O   0  0  0  0  0  0  0  0  0  0  0  0
   -9.0970   19.1990  -30.8340 O   0  0  0  0  0  0  0  0  0  0  0  0
   -8.4570   21.6210  -31.7420 N   0  0  0  0  0  0  0  0  0  0  0  0
   -7.2860   22.1910  -32.4280 C   0  0  0  0  0  0  0  0  0  0  0  0
   -7.1000   23.6650  -32.0190 C   0  0  0  0  0  0  0  0  0  0  0  0
   -7.1340   23.9280  -30.6150 O   0  0  0  0  0  0  0  0  0  0  0  0
   -7.2830   22.7560  -29.8340 C   0  0  0  0  0  0  0  0  0  0  0  0
   -8.4920   21.9250  -30.2940 C   0  0  0  0  0  0  0  0  0  0  0  0
   -6.8220   18.4050  -33.5900 C   0  0  0  0  0  0  0  0  0  0  0  0
   -5.5700   17.8780  -33.9170 C   0  0  0  0  0  0  0  0  0  0  0  0
   -1.3480   21.3760  -31.7250 C   0  0  0  0  0  0  0  0  0  0  0  0
   -1.7660   22.3990  -30.8700 C   0  0  0  0  0  0  0  0  0  0  0  0
   -1.6260   25.6740  -30.0660 H   0  0  0  0  0  0  0  0  0  0  0  0
   -4.7759   23.1325  -32.3163 H   0  0  0  0  0  0  0  0  0  0  0  0
   -4.0361   21.3024  -33.8399 H   0  0  0  0  0  0  0  0  0  0  0  0
   -2.3762   19.8241  -34.5862 H   0  0  0  0  0  0  0  0  0  0  0  0
   -0.6752   20.1689  -34.1072 H   0  0  0  0  0  0  0  0  0  0  0  0
   -3.7313   19.2153  -31.3636 H   0  0  0  0  0  0  0  0  0  0  0  0
   -5.9722   20.1261  -30.7593 H   0  0  0  0  0  0  0  0  0  0  0  0
   -6.3877   21.6200  -32.1503 H   0  0  0  0  0  0  0  0  0  0  0  0
   -7.4427   22.1355  -33.5154 H   0  0  0  0  0  0  0  0  0  0  0  0
   -6.1254   24.0016  -32.4023 H   0  0  0  0  0  0  0  0  0  0  0  0
   -7.9581   24.2049  -32.4458 H   0  0  0  0  0  0  0  0  0  0  0  0
   -6.3727   22.1455  -29.9275 H   0  0  0  0  0  0  0  0  0  0  0  0
   -7.4466   23.0554  -28.7883 H   0  0  0  0  0  0  0  0  0  0  0  0
   -8.5010   20.9774  -29.7354 H   0  0  0  0  0  0  0  0  0  0  0  0
   -9.3972   22.5192  -30.1005 H   0  0  0  0  0  0  0  0  0  0  0  0
   -7.6928   18.1804  -34.2235 H   0  0  0  0  0  0  0  0  0  0  0  0
   -5.4617   17.2286  -34.7982 H   0  0  0  0  0  0  0  0  0  0  0  0
   -0.3805   20.8812  -31.5547 H   0  0  0  0  0  0  0  0  0  0  0  0
   -1.1286   22.7015  -30.0261 H   0  0  0  0  0  0  0  0  0  0  0  0
  1  2  1  0
  2  3  2  0
  2  4  2  0
  2  5  1  0
  5  6  2  0
  6  7  1  0
  7  8  2  0
  8  9  1  0
  9 10  1  0
 10 11  1  0
 11 12  2  0
 11 13  2  0
 11 14  1  0
 14 15  2  0
 15 16  1  0
 16 17  2  0
 17 18  1  0
 18 19  2  0
 18 20  2  0
 18 21  1  0
 21 22  1  0
 22 23  1  0
 23 24  1  0
 24 25  1  0
 25 26  1  0
 17 27  1  0
 27 28  2  0
  8 29  1  0
 29 30  2  0
 30  5  1  0
 28 14  1  0
 26 21  1  0
  1 31  1  0
  6 32  1  0
  7 33  1  0
  9 34  1  0
  9 35  1  0
 15 36  1  0
 16 37  1  0
 22 38  1  0
 22 39  1  0
 23 40  1  0
 23 41  1  0
 25 42  1  0
 25 43  1  0
 26 44  1  0
 26 45  1  0
 27 46  1  0
 28 47  1  0
 29 48  1  0
 30 49  1  0
M  CHG  2   1  -1  10  -1
M  END
>  <UniqueID>  (46) 
46

>  <SMILES>  (46) 
[NH-]S(=O)(=O)c1ccc(C[N-]S(=O)(=O)c2ccc(S(=O)(=O)N3CCOCC3)cc2)cc1

>  <Energy>  (46) 
56.803647358674155

>  <Genealogy>  (46) 
[NH-]S(=O)(=O)c1ccc(C[N-]S(=O)(=O)c2ccc(S(=O)(=O)N3CCOCC3)cc2)cc1 (protonated)
[NH-]S(=O)(=O)c1ccc(C[N-]S(=O)(=O)c2ccc(S(=O)(=O)N3CCOCC3)cc2)cc1 (3D coordinates assigned)
[NH-]S(=O)(=O)c1ccc(C[N-]S(=O)(=O)c2ccc(S(=O)(=O)N3CCOCC3)cc2)cc1 (nonaromatic ring conformer: 56.803647358674155 kcal/mol)

>  <smiles>  (46) 
NS(=O)(=O)c1ccc(CNS(=O)(=O)c2ccc(S(=O)(=O)N3CCOCC3)cc2)cc1

>  <score_type>  (46) 
oracle

>  <origin>  (46) 
adgpu

>  <m_score__min__energy>  (46) 
-11.75

>  <m_primary>  (46) 
energy

$$$$
46:0
     RDKit          3D

 46 48  0  0  0  0  0  0  0  0999 V2000
   -5.5430   25.7450  -30.4760 C   0  0  0  0  0  0  0  0  0  0  0  0
   -4.1440   25.4760  -30.4880 O   0  0  0  0  0  0  0  0  0  0  0  0
   -3.5750   24.2040  -30.3090 C   0  0  0  0  0  0  0  0  0  0  0  0
   -4.1980   23.0330  -30.7820 C   0  0  0  0  0  0  0  0  0  0  0  0
   -3.6040   21.7750  -30.5850 C   0  0  0  0  0  0  0  0  0  0  0  0
   -4.2140   20.5690  -31.0650 N   0  0  0  0  0  0  0  0  0  0  0  0
   -4.9620   20.3630  -32.6140 S   0  0  0  0  0  0  0  0  0  0  0  0
   -4.6160   21.5370  -33.4850 O   0  0  0  0  0  0  0  0  0  0  0  0
   -4.4820   19.0900  -33.2510 O   0  0  0  0  0  0  0  0  0  0  0  0
   -6.7090   20.2760  -32.4080 C   0  0  0  0  0  0  0  0  0  0  0  0
   -7.5940   21.3140  -32.1930 C   0  0  0  0  0  0  0  0  0  0  0  0
   -7.2610   22.7620  -32.0450 C   0  0  0  0  0  0  0  0  0  0  0  0
   -8.8440   20.8200  -32.1010 N   0  0  0  0  0  0  0  0  0  0  0  0
   -8.7590   19.5300  -32.2690 O   0  0  0  0  0  0  0  0  0  0  0  0
   -7.5150   19.1560  -32.4620 C   0  0  0  0  0  0  0  0  0  0  0  0
   -7.0890   17.7410  -32.6820 C   0  0  0  0  0  0  0  0  0  0  0  0
   -2.3870   21.6810  -29.8950 C   0  0  0  0  0  0  0  0  0  0  0  0
   -1.8180   20.4100  -29.7100 O   0  0  0  0  0  0  0  0  0  0  0  0
   -0.8940   19.8000  -30.6050 C   0  0  0  0  0  0  0  0  0  0  0  0
   -1.7710   22.8500  -29.4130 C   0  0  0  0  0  0  0  0  0  0  0  0
   -2.3460   24.1100  -29.6430 C   0  0  0  0  0  0  0  0  0  0  0  0
   -1.7290   25.3080  -29.1450 N   0  0  0  0  0  0  0  0  0  0  0  0
   -0.7150   25.3810  -28.1340 C   0  0  0  0  0  0  0  0  0  0  0  0
    0.3400   24.7120  -28.2830 O   0  0  0  0  0  0  0  0  0  0  0  0
   -0.9070   26.1630  -26.8990 C   0  0  0  0  0  0  0  0  0  0  0  0
   -1.5230   25.7140  -25.7460 C   0  0  0  0  0  0  0  0  0  0  0  0
   -1.4820   26.7740  -24.8660 C   0  0  0  0  0  0  0  0  0  0  0  0
   -0.8510   27.8030  -25.5330 C   0  0  0  0  0  0  0  0  0  0  0  0
   -0.5230   27.4100  -26.7430 O   0  0  0  0  0  0  0  0  0  0  0  0
   -5.8945   25.8126  -29.4359 H   0  0  0  0  0  0  0  0  0  0  0  0
   -5.7378   26.6970  -30.9914 H   0  0  0  0  0  0  0  0  0  0  0  0
   -6.0769   24.9331  -30.9914 H   0  0  0  0  0  0  0  0  0  0  0  0
   -5.1597   23.1039  -31.3112 H   0  0  0  0  0  0  0  0  0  0  0  0
   -7.2023   23.0174  -30.9767 H   0  0  0  0  0  0  0  0  0  0  0  0
   -6.2924   22.9664  -32.5246 H   0  0  0  0  0  0  0  0  0  0  0  0
   -8.0430   23.3690  -32.5246 H   0  0  0  0  0  0  0  0  0  0  0  0
   -6.9404   17.2475  -31.7102 H   0  0  0  0  0  0  0  0  0  0  0  0
   -7.8665   17.2079  -33.2489 H   0  0  0  0  0  0  0  0  0  0  0  0
   -6.1464   17.7258  -33.2489 H   0  0  0  0  0  0  0  0  0  0  0  0
   -0.1119   19.2837  -30.0290 H   0  0  0  0  0  0  0  0  0  0  0  0
   -1.4229   19.0730  -31.2388 H   0  0  0  0  0  0  0  0  0  0  0  0
   -0.4332   20.5720  -31.2388 H   0  0  0  0  0  0  0  0  0  0  0  0
   -0.8289   22.7763  -28.8500 H   0  0  0  0  0  0  0  0  0  0  0  0
   -1.9557   24.7185  -25.5679 H   0  0  0  0  0  0  0  0  0  0  0  0
   -1.8738   26.7950  -23.8383 H   0  0  0  0  0  0  0  0  0  0  0  0
   -0.6525   28.8011  -25.1154 H   0  0  0  0  0  0  0  0  0  0  0  0
  1  2  1  0
  2  3  1  0
  3  4  2  0
  4  5  1  0
  5  6  1  0
  6  7  1  0
  7  8  2  0
  7  9  2  0
  7 10  1  0
 10 11  1  0
 11 12  1  0
 11 13  2  0
 13 14  1  0
 14 15  1  0
 15 16  1  0
  5 17  2  0
 17 18  1  0
 18 19  1  0
 17 20  1  0
 20 21  2  0
 21 22  1  0
 22 23  1  0
 23 24  2  0
 23 25  1  0
 25 26  2  0
 26 27  1  0
 27 28  2  0
 28 29  1  0
 21  3  1  0
 29 25  1  0
 15 10  2  0
  1 30  1  0
  1 31  1  0
  1 32  1  0
  4 33  1  0
 12 34  1  0
 12 35  1  0
 12 36  1  0
 16 37  1  0
 16 38  1  0
 16 39  1  0
 19 40  1  0
 19 41  1  0
 19 42  1  0
 20 43  1  0
 26 44  1  0
 27 45  1  0
 28 46  1  0
M  CHG  2   6  -1  22  -1
M  END
>  <UniqueID>  (47) 
47

>  <SMILES>  (47) 
COc1cc([N-]S(=O)(=O)c2c(C)noc2C)c(OC)cc1[N-]C(=O)c1ccco1

>  <Energy>  (47) 
109.61485746548625

>  <Genealogy>  (47) 
COc1cc([N-]S(=O)(=O)c2c(C)noc2C)c(OC)cc1[N-]C(=O)c1ccco1 (protonated)
COc1cc([N-]S(=O)(=O)c2c(C)noc2C)c(OC)cc1[N-]C(=O)c1ccco1 (3D coordinates assigned)
COc1cc([N-]S(=O)(=O)c2c(C)noc2C)c(OC)cc1[N-]C(=O)c1ccco1 (optimized conformer: 109.61485746548625 kcal/mol)

>  <smiles>  (47) 
COc1cc(NS(=O)(=O)c2c(C)noc2C)c(OC)cc1NC(=O)c1ccco1

>  <score_type>  (47) 
oracle

>  <origin>  (47) 
adgpu

>  <m_score__min__energy>  (47) 
-10.859999999999999

>  <m_primary>  (47) 
energy

$$$$
47:0
     RDKit          3D

 41 43  0  0  0  0  0  0  0  0999 V2000
   -3.0380   20.4670  -27.5000 C   0  0  0  0  0  0  0  0  0  0  0  0
   -2.7110   21.8580  -27.9570 C   0  0  0  0  0  0  0  0  0  0  0  0
   -1.6210   22.5420  -27.4020 C   0  0  0  0  0  0  0  0  0  0  0  0
   -1.2890   23.8200  -27.8560 C   0  0  0  0  0  0  0  0  0  0  0  0
   -2.0390   24.4290  -28.8680 C   0  0  0  0  0  0  0  0  0  0  0  0
   -1.6360   25.6710  -29.3450 O   0  0  0  0  0  0  0  0  0  0  0  0
   -3.1570   23.7660  -29.4130 C   0  0  0  0  0  0  0  0  0  0  0  0
   -3.9870   24.3760  -30.4790 C   0  0  0  0  0  0  0  0  0  0  0  0
   -4.0460   25.6320  -30.5620 O   0  0  0  0  0  0  0  0  0  0  0  0
   -4.7520   23.5980  -31.4090 N   0  0  0  0  0  0  0  0  0  0  0  0
   -4.3850   22.3530  -32.0230 C   0  0  0  0  0  0  0  0  0  0  0  0
   -3.0160   22.0790  -32.1560 C   0  0  0  0  0  0  0  0  0  0  0  0
   -2.5800   20.8960  -32.7560 C   0  0  0  0  0  0  0  0  0  0  0  0
   -3.5090   19.9600  -33.2050 C   0  0  0  0  0  0  0  0  0  0  0  0
   -4.8740   20.1960  -33.0420 C   0  0  0  0  0  0  0  0  0  0  0  0
   -5.3350   21.3840  -32.4450 C   0  0  0  0  0  0  0  0  0  0  0  0
   -6.7470   21.5400  -32.2040 N   0  0  0  0  0  0  0  0  0  0  0  0
   -7.3420   22.8780  -32.3530 C   0  0  0  0  0  0  0  0  0  0  0  0
   -8.8160   22.9000  -31.9510 C   0  0  0  0  0  0  0  0  0  0  0  0
   -9.4440   21.6990  -32.3380 O   0  0  0  0  0  0  0  0  0  0  0  0
   -8.9980   20.6620  -31.4930 C   0  0  0  0  0  0  0  0  0  0  0  0
   -7.4920   20.3920  -31.6530 C   0  0  0  0  0  0  0  0  0  0  0  0
   -3.4580   22.4620  -28.9780 C   0  0  0  0  0  0  0  0  0  0  0  0
   -3.0456   20.4346  -26.4005 H   0  0  0  0  0  0  0  0  0  0  0  0
   -4.0284   20.1788  -27.8822 H   0  0  0  0  0  0  0  0  0  0  0  0
   -2.2798   19.7677  -27.8822 H   0  0  0  0  0  0  0  0  0  0  0  0
   -1.0253   22.0707  -26.6064 H   0  0  0  0  0  0  0  0  0  0  0  0
   -0.4325   24.3513  -27.4153 H   0  0  0  0  0  0  0  0  0  0  0  0
   -2.2775   22.8042  -31.7835 H   0  0  0  0  0  0  0  0  0  0  0  0
   -1.5035   20.7032  -32.8741 H   0  0  0  0  0  0  0  0  0  0  0  0
   -3.1656   19.0336  -33.6887 H   0  0  0  0  0  0  0  0  0  0  0  0
   -5.5996   19.4436  -33.3846 H   0  0  0  0  0  0  0  0  0  0  0  0
   -6.7900   23.5845  -31.7157 H   0  0  0  0  0  0  0  0  0  0  0  0
   -7.2761   23.1616  -33.4138 H   0  0  0  0  0  0  0  0  0  0  0  0
   -8.8933   23.0152  -30.8598 H   0  0  0  0  0  0  0  0  0  0  0  0
   -9.3126   23.7429  -32.4538 H   0  0  0  0  0  0  0  0  0  0  0  0
   -9.1987   20.9442  -30.4489 H   0  0  0  0  0  0  0  0  0  0  0  0
   -9.5378   19.7442  -31.7694 H   0  0  0  0  0  0  0  0  0  0  0  0
   -7.0747   20.1470  -30.6652 H   0  0  0  0  0  0  0  0  0  0  0  0
   -7.3846   19.5620  -32.3668 H   0  0  0  0  0  0  0  0  0  0  0  0
   -4.2881   21.9108  -29.4440 H   0  0  0  0  0  0  0  0  0  0  0  0
  1  2  1  0
  2  3  2  0
  3  4  1  0
  4  5  2  0
  5  6  1  0
  5  7  1  0
  7  8  1  0
  8  9  2  0
  8 10  1  0
 10 11  1  0
 11 12  2  0
 12 13  1  0
 13 14  2  0
 14 15  1  0
 15 16  2  0
 16 17  1  0
 17 18  1  0
 18 19  1  0
 19 20  1  0
 20 21  1  0
 21 22  1  0
  7 23  2  0
 23  2  1  0
 16 11  1  0
 22 17  1  0
  1 24  1  0
  1 25  1  0
  1 26  1  0
  3 27  1  0
  4 28  1  0
 12 29  1  0
 13 30  1  0
 14 31  1  0
 15 32  1  0
 18 33  1  0
 18 34  1  0
 19 35  1  0
 19 36  1  0
 21 37  1  0
 21 38  1  0
 22 39  1  0
 22 40  1  0
 23 41  1  0
M  CHG  2   6  -1  10  -1
M  END
>  <UniqueID>  (48) 
48

>  <SMILES>  (48) 
Cc1ccc([O-])c(C(=O)[N-]c2ccccc2N2CCOCC2)c1

>  <Energy>  (48) 
60.37994867458508

>  <Genealogy>  (48) 
Cc1ccc([O-])c(C(=O)[N-]c2ccccc2N2CCOCC2)c1 (protonated)
Cc1ccc([O-])c(C(=O)[N-]c2ccccc2N2CCOCC2)c1 (3D coordinates assigned)
Cc1ccc([O-])c(C(=O)[N-]c2ccccc2N2CCOCC2)c1 (nonaromatic ring conformer: 60.37994867458508 kcal/mol)

>  <smiles>  (48) 
Cc1ccc(O)c(C(=O)Nc2ccccc2N2CCOCC2)c1

>  <score_type>  (48) 
oracle

>  <origin>  (48) 
adgpu

>  <m_score__min__energy>  (48) 
-12.380000000000001

>  <m_primary>  (48) 
energy

$$$$
48:0
     RDKit          3D

 41 43  0  0  0  0  0  0  0  0999 V2000
   -4.0010   24.2480  -26.8100 O   0  0  0  0  0  0  0  0  0  0  0  0
   -3.1160   24.5840  -27.6430 C   0  0  0  0  0  0  0  0  0  0  0  0
   -3.3480   24.4230  -29.0550 N   0  0  0  0  0  0  0  0  0  0  0  0
   -4.5690   23.9110  -29.6170 C   0  0  0  0  0  0  0  0  0  0  0  0
   -4.5740   22.6330  -30.1930 C   0  0  0  0  0  0  0  0  0  0  0  0
   -5.7390   22.1200  -30.7690 C   0  0  0  0  0  0  0  0  0  0  0  0
   -6.9110   22.8890  -30.7980 C   0  0  0  0  0  0  0  0  0  0  0  0
   -8.3860   22.2370  -31.5200 S   0  0  0  0  0  0  0  0  0  0  0  0
   -8.9960   23.2820  -32.4130 O   0  0  0  0  0  0  0  0  0  0  0  0
   -9.3720   21.9290  -30.4280 O   0  0  0  0  0  0  0  0  0  0  0  0
   -8.1040   20.7880  -32.4560 N   0  0  0  0  0  0  0  0  0  0  0  0
   -6.8050   20.8100  -33.1250 C   0  0  0  0  0  0  0  0  0  0  0  0
   -6.4120   19.3580  -33.3470 C   0  0  0  0  0  0  0  0  0  0  0  0
   -7.2540   18.5580  -32.3620 C   0  0  0  0  0  0  0  0  0  0  0  0
   -8.0930   19.5890  -31.6210 C   0  0  0  0  0  0  0  0  0  0  0  0
   -6.9060   24.1730  -30.2360 C   0  0  0  0  0  0  0  0  0  0  0  0
   -5.7400   24.6860  -29.6580 C   0  0  0  0  0  0  0  0  0  0  0  0
   -1.8440   25.1490  -27.1450 C   0  0  0  0  0  0  0  0  0  0  0  0
   -1.4820   24.9440  -25.8020 C   0  0  0  0  0  0  0  0  0  0  0  0
   -0.2890   25.4730  -25.3010 C   0  0  0  0  0  0  0  0  0  0  0  0
    0.5580   26.2030  -26.1360 C   0  0  0  0  0  0  0  0  0  0  0  0
    0.2200   26.3970  -27.4770 C   0  0  0  0  0  0  0  0  0  0  0  0
   -0.9690   25.8650  -27.9900 C   0  0  0  0  0  0  0  0  0  0  0  0
   -1.2520   26.0280  -29.3420 O   0  0  0  0  0  0  0  0  0  0  0  0
   -2.5730   24.6430  -29.7180 H   0  0  0  0  0  0  0  0  0  0  0  0
   -3.6542   22.0297  -30.1915 H   0  0  0  0  0  0  0  0  0  0  0  0
   -5.7367   21.1086  -31.2015 H   0  0  0  0  0  0  0  0  0  0  0  0
   -6.8822   21.3349  -34.0886 H   0  0  0  0  0  0  0  0  0  0  0  0
   -6.0536   21.3385  -32.5199 H   0  0  0  0  0  0  0  0  0  0  0  0
   -6.6338   19.0526  -34.3802 H   0  0  0  0  0  0  0  0  0  0  0  0
   -5.3351   19.1965  -33.1913 H   0  0  0  0  0  0  0  0  0  0  0  0
   -7.9010   17.8471  -32.8968 H   0  0  0  0  0  0  0  0  0  0  0  0
   -6.6305   17.9665  -31.6754 H   0  0  0  0  0  0  0  0  0  0  0  0
   -9.1176   19.2148  -31.4789 H   0  0  0  0  0  0  0  0  0  0  0  0
   -7.6773   19.8003  -30.6247 H   0  0  0  0  0  0  0  0  0  0  0  0
   -7.8232   24.7801  -30.2495 H   0  0  0  0  0  0  0  0  0  0  0  0
   -5.7400   25.7009  -29.2337 H   0  0  0  0  0  0  0  0  0  0  0  0
   -2.1421   24.3633  -25.1409 H   0  0  0  0  0  0  0  0  0  0  0  0
   -0.0174   25.3136  -24.2470 H   0  0  0  0  0  0  0  0  0  0  0  0
    1.4922   26.6257  -25.7377 H   0  0  0  0  0  0  0  0  0  0  0  0
    0.8911   26.9705  -28.1333 H   0  0  0  0  0  0  0  0  0  0  0  0
  1  2  2  0
  2  3  1  0
  3  4  1  0
  4  5  2  0
  5  6  1  0
  6  7  2  0
  7  8  1  0
  8  9  2  0
  8 10  2  0
  8 11  1  0
 11 12  1  0
 12 13  1  0
 13 14  1  0
 14 15  1  0
  7 16  1  0
 16 17  2  0
  2 18  1  0
 18 19  2  0
 19 20  1  0
 20 21  2  0
 21 22  1  0
 22 23  2  0
 23 24  1  0
 17  4  1  0
 23 18  1  0
 15 11  1  0
  3 25  1  0
  5 26  1  0
  6 27  1  0
 12 28  1  0
 12 29  1  0
 13 30  1  0
 13 31  1  0
 14 32  1  0
 14 33  1  0
 15 34  1  0
 15 35  1  0
 16 36  1  0
 17 37  1  0
 19 38  1  0
 20 39  1  0
 21 40  1  0
 22 41  1  0
M  CHG  1  24  -1
M  END
>  <UniqueID>  (49) 
49

>  <SMILES>  (49) 
O=C(Nc1ccc(S(=O)(=O)N2CCCC2)cc1)c1ccccc1[O-]

>  <Energy>  (49) 
52.540001679540026

>  <Genealogy>  (49) 
O=C(Nc1ccc(S(=O)(=O)N2CCCC2)cc1)c1ccccc1[O-] (protonated)
O=C(Nc1ccc(S(=O)(=O)N2CCCC2)cc1)c1ccccc1[O-] (3D coordinates assigned)
O=C(Nc1ccc(S(=O)(=O)N2CCCC2)cc1)c1ccccc1[O-] (nonaromatic ring conformer: 52.540001679540026 kcal/mol)

>  <smiles>  (49) 
O=C(Nc1ccc(S(=O)(=O)N2CCCC2)cc1)c1ccccc1O

>  <score_type>  (49) 
oracle

>  <origin>  (49) 
adgpu

>  <m_score__min__energy>  (49) 
-11.890000000000001

>  <m_primary>  (49) 
energy

$$$$
49:0
     RDKit          3D

 32 33  0  0  0  0  0  0  0  0999 V2000
   -5.0350   17.7470  -34.2790 C   0  0  0  0  0  0  0  0  0  0  0  0
   -4.1440   18.8700  -33.8260 C   0  0  0  0  0  0  0  0  0  0  0  0
   -4.6890   20.0840  -33.3960 C   0  0  0  0  0  0  0  0  0  0  0  0
   -3.8830   21.1150  -32.9950 N   0  0  0  0  0  0  0  0  0  0  0  0
   -4.4860   22.3980  -32.5720 C   0  0  1  0  0  0  0  0  0  0  0  0
   -5.9830   22.2330  -32.3160 C   0  0  0  0  0  0  0  0  0  0  0  0
   -6.0780   22.3060  -30.8110 C   0  0  2  0  0  0  0  0  0  0  0  0
   -7.3360   22.8640  -30.2990 N   0  0  0  0  0  0  0  0  0  0  0  0
   -8.4290   22.3210  -30.4700 N   0  0  0  0  0  0  0  0  0  0  0  0
   -9.5200   21.7790  -30.6410 N   0  0  0  0  0  0  0  0  0  0  0  0
   -4.8530   23.1420  -30.4400 C   0  0  2  0  0  0  0  0  0  0  0  0
   -5.1100   24.6600  -30.3890 C   0  0  0  0  0  0  0  0  0  0  0  0
   -3.9120   25.3610  -30.5860 O   0  0  0  0  0  0  0  0  0  0  0  0
   -3.8520   22.8800  -31.4000 O   0  0  0  0  0  0  0  0  0  0  0  0
   -2.5200   20.9710  -33.0660 C   0  0  0  0  0  0  0  0  0  0  0  0
   -1.7560   21.9230  -32.7420 O   0  0  0  0  0  0  0  0  0  0  0  0
   -1.9720   19.8010  -33.4920 N   0  0  0  0  0  0  0  0  0  0  0  0
   -2.7500   18.7540  -33.8730 C   0  0  0  0  0  0  0  0  0  0  0  0
   -2.2090   17.6870  -34.2710 O   0  0  0  0  0  0  0  0  0  0  0  0
   -5.4465   17.2283  -33.4006 H   0  0  0  0  0  0  0  0  0  0  0  0
   -5.8588   18.1537  -34.8839 H   0  0  0  0  0  0  0  0  0  0  0  0
   -4.4516   17.0373  -34.8839 H   0  0  0  0  0  0  0  0  0  0  0  0
   -5.7814   20.2122  -33.3798 H   0  0  0  0  0  0  0  0  0  0  0  0
   -4.3429   23.1258  -33.3843 H   0  0  0  0  0  0  0  0  0  0  0  0
   -6.5570   23.0437  -32.7885 H   0  0  0  0  0  0  0  0  0  0  0  0
   -6.3949   21.3020  -32.7326 H   0  0  0  0  0  0  0  0  0  0  0  0
   -6.0865   21.3073  -30.3500 H   0  0  0  0  0  0  0  0  0  0  0  0
   -4.5565   22.8523  -29.4211 H   0  0  0  0  0  0  0  0  0  0  0  0
   -5.8253   24.9341  -31.1784 H   0  0  0  0  0  0  0  0  0  0  0  0
   -5.5207   24.9214  -29.4026 H   0  0  0  0  0  0  0  0  0  0  0  0
   -3.4610   24.9250  -31.3550 H   0  0  0  0  0  0  0  0  0  0  0  0
   -0.9310   19.7070  -33.5350 H   0  0  0  0  0  0  0  0  0  0  0  0
  1  2  1  0
  2  3  2  0
  3  4  1  0
  4  5  1  0
  5  6  1  0
  6  7  1  0
  7  8  1  0
  8  9  2  0
  9 10  2  0
  7 11  1  0
 11 12  1  0
 12 13  1  0
 11 14  1  0
  4 15  1  0
 15 16  2  0
 15 17  1  0
 17 18  1  0
 18 19  2  0
 18  2  1  0
 14  5  1  0
  1 20  1  0
  1 21  1  0
  1 22  1  0
  3 23  1  0
  5 24  1  6
  6 25  1  0
  6 26  1  0
  7 27  1  1
 11 28  1  1
 12 29  1  0
 12 30  1  0
 13 31  1  0
 17 32  1  0
M  CHG  2   9   1  10  -1
M  END
>  <UniqueID>  (50) 
50

>  <SMILES>  (50) 
Cc1cn([C@H]2C[C@H](N=[N+]=[N-])C(CO)O2)c(=O)[nH]c1=O

>  <Energy>  (50) 
37.81220740714442

>  <Genealogy>  (50) 
Cc1cn([C@H]2C[C@H](N=[N+]=[N-])C(CO)O2)c(=O)[nH]c1=O (chirality)
Cc1cn([C@H]2C[C@H](N=[N+]=[N-])C(CO)O2)c(=O)[nH]c1=O (3D coordinates assigned)
Cc1cn([C@H]2C[C@H](N=[N+]=[N-])C(CO)O2)c(=O)[nH]c1=O (nonaromatic ring conformer: 37.81220740714442 kcal/mol)

>  <smiles>  (50) 
Cc1cn(C2CC(N=[N+]=[N-])C(CO)O2)c(=O)[nH]c1=O

>  <score_type>  (50) 
oracle

>  <origin>  (50) 
adgpu

>  <m_score__min__energy>  (50) 
-7.1200000000000001

>  <m_primary>  (50) 
energy

$$$$
