0:0
     RDKit          3D

 54 56  0  0  0  0  0  0  0  0999 V2000
   -9.3060   21.0030  -32.1000 C   0  0  0  0  0  0  0  0  0  0  0  0
   -7.9180   21.5630  -31.9250 C   0  0  0  0  0  0  0  0  0  0  0  0
   -7.7930   22.9420  -31.6820 C   0  0  0  0  0  0  0  0  0  0  0  0
   -6.5420   23.5250  -31.5020 C   0  0  0  0  0  0  0  0  0  0  0  0
   -5.3850   22.7500  -31.5680 C   0  0  0  0  0  0  0  0  0  0  0  0
   -4.1200   23.3970  -31.3740 N   0  0  0  0  0  0  0  0  0  0  0  0
   -3.8730   24.4820  -30.4700 C   0  0  0  0  0  0  0  0  0  0  0  0
   -4.0890   25.6700  -30.8290 O   0  0  0  0  0  0  0  0  0  0  0  0
   -3.3680   24.2350  -29.1540 N   0  0  0  0  0  0  0  0  0  0  0  0
   -2.0000   24.3520  -28.7350 C   0  0  0  0  0  0  0  0  0  0  0  0
   -1.6120   25.4870  -28.0130 C   0  0  0  0  0  0  0  0  0  0  0  0
   -0.2930   25.6290  -27.5720 C   0  0  0  0  0  0  0  0  0  0  0  0
    0.6510   24.6290  -27.8390 C   0  0  0  0  0  0  0  0  0  0  0  0
    2.3090   24.7990  -27.2730 S   0  0  0  0  0  0  0  0  0  0  0  0
    3.0870   23.2570  -27.2910 N   0  0  0  0  0  0  0  0  0  0  0  0
    3.0570   25.7510  -28.1640 O   0  0  0  0  0  0  0  0  0  0  0  0
    2.3150   25.3450  -25.8710 O   0  0  0  0  0  0  0  0  0  0  0  0
    0.2580   23.4740  -28.5290 C   0  0  0  0  0  0  0  0  0  0  0  0
   -1.0610   23.3320  -28.9700 C   0  0  0  0  0  0  0  0  0  0  0  0
   -5.4900   21.3600  -31.7560 C   0  0  0  0  0  0  0  0  0  0  0  0
   -4.3430   20.5720  -31.7060 O   0  0  0  0  0  0  0  0  0  0  0  0
   -6.7490   20.7540  -31.9620 C   0  0  0  0  0  0  0  0  0  0  0  0
   -6.7800   18.9950  -32.2610 S   0  0  0  0  0  0  0  0  0  0  0  0
   -8.1770   18.4490  -32.3420 O   0  0  0  0  0  0  0  0  0  0  0  0
   -6.0930   18.3160  -31.1090 O   0  0  0  0  0  0  0  0  0  0  0  0
   -5.8870   18.5910  -33.7790 C   0  0  0  0  0  0  0  0  0  0  0  0
   -4.3720   18.4110  -33.5180 C   0  0  0  0  0  0  0  0  0  0  0  0
   -3.9590   16.9390  -33.3310 C   0  0  0  0  0  0  0  0  0  0  0  0
   -5.0800   16.1560  -32.7830 N   0  0  0  0  0  0  0  0  0  0  0  0
   -4.6230   14.8250  -32.3590 C   0  0  0  0  0  0  0  0  0  0  0  0
   -6.1730   16.0320  -33.7720 C   0  0  0  0  0  0  0  0  0  0  0  0
   -6.4750   17.3630  -34.4970 C   0  0  0  0  0  0  0  0  0  0  0  0
   -9.7554   20.8217  -31.1125 H   0  0  0  0  0  0  0  0  0  0  0  0
   -9.9239   21.7222  -32.6576 H   0  0  0  0  0  0  0  0  0  0  0  0
   -9.2518   20.0564  -32.6576 H   0  0  0  0  0  0  0  0  0  0  0  0
   -8.6958   23.5686  -31.6335 H   0  0  0  0  0  0  0  0  0  0  0  0
   -6.4657   24.6048  -31.3063 H   0  0  0  0  0  0  0  0  0  0  0  0
   -2.3498   26.2722  -27.7913 H   0  0  0  0  0  0  0  0  0  0  0  0
    0.0045   26.5288  -27.0136 H   0  0  0  0  0  0  0  0  0  0  0  0
    3.9470   23.3440  -26.7050 H   0  0  0  0  0  0  0  0  0  0  0  0
    0.9900   22.6765  -28.7242 H   0  0  0  0  0  0  0  0  0  0  0  0
   -1.3654   22.4190  -29.5028 H   0  0  0  0  0  0  0  0  0  0  0  0
   -6.0147   19.4503  -34.4538 H   0  0  0  0  0  0  0  0  0  0  0  0
   -3.8183   18.8233  -34.3744 H   0  0  0  0  0  0  0  0  0  0  0  0
   -4.1369   18.9379  -32.5815 H   0  0  0  0  0  0  0  0  0  0  0  0
   -3.6651   16.5187  -34.3041 H   0  0  0  0  0  0  0  0  0  0  0  0
   -3.1143   16.8923  -32.6280 H   0  0  0  0  0  0  0  0  0  0  0  0
   -4.6061   14.7759  -31.2602 H   0  0  0  0  0  0  0  0  0  0  0  0
   -5.3099   14.0598  -32.7497 H   0  0  0  0  0  0  0  0  0  0  0  0
   -3.6109   14.6431  -32.7497 H   0  0  0  0  0  0  0  0  0  0  0  0
   -5.8856   15.2802  -34.5218 H   0  0  0  0  0  0  0  0  0  0  0  0
   -7.0819   15.7365  -33.2275 H   0  0  0  0  0  0  0  0  0  0  0  0
   -6.0498   17.3136  -35.5103 H   0  0  0  0  0  0  0  0  0  0  0  0
   -7.5680   17.4859  -34.5133 H   0  0  0  0  0  0  0  0  0  0  0  0
  1  2  1  0
  2  3  2  0
  3  4  1  0
  4  5  2  0
  5  6  1  0
  6  7  1  0
  7  8  2  0
  7  9  1  0
  9 10  1  0
 10 11  2  0
 11 12  1  0
 12 13  2  0
 13 14  1  0
 14 15  1  0
 14 16  2  0
 14 17  2  0
 13 18  1  0
 18 19  2  0
  5 20  1  0
 20 21  1  0
 20 22  2  0
 22 23  1  0
 23 24  2  0
 23 25  2  0
 23 26  1  0
 26 27  1  0
 27 28  1  0
 28 29  1  0
 29 30  1  0
 29 31  1  0
 31 32  1  0
 22  2  1  0
 32 26  1  0
 19 10  1  0
  1 33  1  0
  1 34  1  0
  1 35  1  0
  3 36  1  0
  4 37  1  0
 11 38  1  0
 12 39  1  0
 15 40  1  0
 18 41  1  0
 19 42  1  0
 26 43  1  0
 27 44  1  0
 27 45  1  0
 28 46  1  0
 28 47  1  0
 30 48  1  0
 30 49  1  0
 30 50  1  0
 31 51  1  0
 31 52  1  0
 32 53  1  0
 32 54  1  0
M  CHG  4   6  -1   9  -1  15  -1  21  -1
M  END
>  <UniqueID>  (1) 
1

>  <SMILES>  (1) 
Cc1ccc([N-]C(=O)[N-]c2ccc(S([NH-])(=O)=O)cc2)c([O-])c1S(=O)(=O)C1CCN(C)CC1

>  <Energy>  (1) 
71.98151789976512

>  <Genealogy>  (1) 
Cc1ccc([N-]C(=O)[N-]c2ccc(S([NH-])(=O)=O)cc2)c([O-])c1S(=O)(=O)C1CCN(C)CC1 (protonated)
Cc1ccc([N-]C(=O)[N-]c2ccc(S([NH-])(=O)=O)cc2)c([O-])c1S(=O)(=O)C1CCN(C)CC1 (3D coordinates assigned)
Cc1ccc([N-]C(=O)[N-]c2ccc(S([NH-])(=O)=O)cc2)c([O-])c1S(=O)(=O)C1CCN(C)CC1 (nonaromatic ring conformer: 71.98151789976512 kcal/mol)

>  <smiles>  (1) 
Cc1ccc(NC(=O)Nc2ccc(S(N)(=O)=O)cc2)c(O)c1S(=O)(=O)C1CCN(C)CC1

>  <score_type>  (1) 
oracle

>  <origin>  (1) 
adgpu

>  <m_score__min__energy>  (1) 
-15.82

>  <m_primary>  (1) 
energy

$$$$
1:0
     RDKit          3D

 49 51  0  0  0  0  0  0  0  0999 V2000
   -2.6770   18.4070  -34.1480 C   0  0  0  0  0  0  0  0  0  0  0  0
   -3.5990   19.4610  -33.5900 C   0  0  0  0  0  0  0  0  0  0  0  0
   -3.1230   20.7720  -33.4210 C   0  0  0  0  0  0  0  0  0  0  0  0
   -3.9560   21.7690  -32.9100 C   0  0  0  0  0  0  0  0  0  0  0  0
   -5.2790   21.4760  -32.5670 C   0  0  0  0  0  0  0  0  0  0  0  0
   -6.3240   22.7540  -31.9520 S   0  0  0  0  0  0  0  0  0  0  0  0
   -6.6310   23.7570  -33.0300 O   0  0  0  0  0  0  0  0  0  0  0  0
   -7.6080   22.1370  -31.4750 O   0  0  0  0  0  0  0  0  0  0  0  0
   -5.5460   23.5630  -30.6270 N   0  0  0  0  0  0  0  0  0  0  0  0
   -4.3450   23.0610  -30.0170 C   0  0  0  0  0  0  0  0  0  0  0  0
   -4.2040   21.6960  -29.7330 C   0  0  0  0  0  0  0  0  0  0  0  0
   -3.0560   21.2200  -29.1080 C   0  0  0  0  0  0  0  0  0  0  0  0
   -2.0170   22.0930  -28.7490 C   0  0  0  0  0  0  0  0  0  0  0  0
   -0.8030   21.5190  -28.0640 C   0  0  0  0  0  0  0  0  0  0  0  0
   -2.1230   23.4720  -29.0700 C   0  0  0  0  0  0  0  0  0  0  0  0
   -0.8310   24.6160  -28.6260 S   0  0  0  0  0  0  0  0  0  0  0  0
    0.4940   24.0550  -29.0610 O   0  0  0  0  0  0  0  0  0  0  0  0
   -1.0150   25.9440  -29.3020 O   0  0  0  0  0  0  0  0  0  0  0  0
   -0.8470   24.8640  -26.8820 C   0  0  0  0  0  0  0  0  0  0  0  0
   -1.5020   25.9750  -26.3280 C   0  0  0  0  0  0  0  0  0  0  0  0
   -1.5010   26.1720  -24.9430 C   0  0  0  0  0  0  0  0  0  0  0  0
   -0.8480   25.2610  -24.1060 C   0  0  0  0  0  0  0  0  0  0  0  0
   -0.1980   24.1510  -24.6530 C   0  0  0  0  0  0  0  0  0  0  0  0
   -0.1990   23.9490  -26.0360 C   0  0  0  0  0  0  0  0  0  0  0  0
   -3.3020   23.9440  -29.6910 C   0  0  0  0  0  0  0  0  0  0  0  0
   -3.4570   25.3000  -29.9640 O   0  0  0  0  0  0  0  0  0  0  0  0
   -5.7660   20.1740  -32.7320 C   0  0  0  0  0  0  0  0  0  0  0  0
   -4.9400   19.1590  -33.2500 C   0  0  0  0  0  0  0  0  0  0  0  0
   -5.4950   17.7690  -33.4180 C   0  0  0  0  0  0  0  0  0  0  0  0
   -2.2000   17.8617  -33.3203 H   0  0  0  0  0  0  0  0  0  0  0  0
   -3.2551   17.7038  -34.7654 H   0  0  0  0  0  0  0  0  0  0  0  0
   -1.9031   18.8864  -34.7654 H   0  0  0  0  0  0  0  0  0  0  0  0
   -2.0854   21.0149  -33.6936 H   0  0  0  0  0  0  0  0  0  0  0  0
   -3.5693   22.7901  -32.7766 H   0  0  0  0  0  0  0  0  0  0  0  0
   -6.0840   24.3240  -30.1580 H   0  0  0  0  0  0  0  0  0  0  0  0
   -5.0071   20.9957  -30.0063 H   0  0  0  0  0  0  0  0  0  0  0  0
   -2.9612   20.1455  -28.8923 H   0  0  0  0  0  0  0  0  0  0  0  0
   -0.9338   21.5808  -26.9735 H   0  0  0  0  0  0  0  0  0  0  0  0
   -0.6786   20.4667  -28.3593 H   0  0  0  0  0  0  0  0  0  0  0  0
    0.0892   22.0906  -28.3593 H   0  0  0  0  0  0  0  0  0  0  0  0
   -2.0171   26.6921  -26.9841 H   0  0  0  0  0  0  0  0  0  0  0  0
   -2.0142   27.0441  -24.5117 H   0  0  0  0  0  0  0  0  0  0  0  0
   -0.8460   25.4182  -23.0173 H   0  0  0  0  0  0  0  0  0  0  0  0
    0.3152   23.4353  -23.9939 H   0  0  0  0  0  0  0  0  0  0  0  0
    0.3088   23.0715  -26.4628 H   0  0  0  0  0  0  0  0  0  0  0  0
   -6.8047   19.9419  -32.4540 H   0  0  0  0  0  0  0  0  0  0  0  0
   -5.6730   17.3232  -32.4283 H   0  0  0  0  0  0  0  0  0  0  0  0
   -6.4428   17.8174  -33.9742 H   0  0  0  0  0  0  0  0  0  0  0  0
   -4.7746   17.1513  -33.9742 H   0  0  0  0  0  0  0  0  0  0  0  0
  1  2  1  0
  2  3  2  0
  3  4  1  0
  4  5  2  0
  5  6  1  0
  6  7  2  0
  6  8  2  0
  6  9  1  0
  9 10  1  0
 10 11  2  0
 11 12  1  0
 12 13  2  0
 13 14  1  0
 13 15  1  0
 15 16  1  0
 16 17  2  0
 16 18  2  0
 16 19  1  0
 19 20  2  0
 20 21  1  0
 21 22  2  0
 22 23  1  0
 23 24  2  0
 15 25  2  0
 25 26  1  0
  5 27  1  0
 27 28  2  0
 28 29  1  0
 28  2  1  0
 25 10  1  0
 24 19  1  0
  1 30  1  0
  1 31  1  0
  1 32  1  0
  3 33  1  0
  4 34  1  0
  9 35  1  0
 11 36  1  0
 12 37  1  0
 14 38  1  0
 14 39  1  0
 14 40  1  0
 20 41  1  0
 21 42  1  0
 22 43  1  0
 23 44  1  0
 24 45  1  0
 27 46  1  0
 29 47  1  0
 29 48  1  0
 29 49  1  0
M  CHG  1  26  -1
M  END
>  <UniqueID>  (2) 
2

>  <SMILES>  (2) 
Cc1ccc(S(=O)(=O)Nc2ccc(C)c(S(=O)(=O)c3ccccc3)c2[O-])cc1C

>  <Energy>  (2) 
59.75193867096733

>  <Genealogy>  (2) 
Cc1ccc(S(=O)(=O)Nc2ccc(C)c(S(=O)(=O)c3ccccc3)c2[O-])cc1C (protonated)
Cc1ccc(S(=O)(=O)Nc2ccc(C)c(S(=O)(=O)c3ccccc3)c2[O-])cc1C (3D coordinates assigned)
Cc1ccc(S(=O)(=O)Nc2ccc(C)c(S(=O)(=O)c3ccccc3)c2[O-])cc1C (optimized conformer: 59.75193867096733 kcal/mol)

>  <smiles>  (2) 
Cc1ccc(S(=O)(=O)Nc2ccc(C)c(S(=O)(=O)c3ccccc3)c2O)cc1C

>  <score_type>  (2) 
oracle

>  <origin>  (2) 
adgpu

>  <m_score__min__energy>  (2) 
-13.82

>  <m_primary>  (2) 
energy

$$$$
2:0
     RDKit          3D

 55 57  0  0  1  0  0  0  0  0999 V2000
   -0.2540   26.9600  -24.9900 C   0  0  0  0  0  0  0  0  0  0  0  0
   -1.2220   26.7840  -26.1240 C   0  0  0  0  0  0  0  0  0  0  0  0
   -2.2630   25.7630  -25.7010 C   0  0  0  0  0  0  0  0  0  0  0  0
   -0.3790   26.1800  -27.5580 S   0  0  0  0  0  0  0  0  0  0  0  0
    1.0580   26.5740  -27.4590 O   0  0  0  0  0  0  0  0  0  0  0  0
   -1.0400   26.8230  -28.7640 O   0  0  0  0  0  0  0  0  0  0  0  0
   -0.5820   24.4570  -27.7140 C   0  0  0  0  0  0  0  0  0  0  0  0
    0.2010   23.5330  -27.0580 C   0  0  0  0  0  0  0  0  0  0  0  0
    1.4750   24.1000  -26.0030 Cl  0  0  0  0  0  0  0  0  0  0  0  0
    0.0400   22.1700  -27.1830 C   0  0  0  0  0  0  0  0  0  0  0  0
   -0.9740   21.7390  -28.0220 C   0  0  0  0  0  0  0  0  0  0  0  0
   -1.7760   22.6500  -28.6930 C   0  0  0  0  0  0  0  0  0  0  0  0
   -2.7970   22.0910  -29.5360 N   0  0  0  0  0  0  0  0  0  0  0  0
   -2.5420   21.6120  -30.6950 C   0  0  0  0  0  0  0  0  0  0  0  0
   -3.5540   21.0900  -31.4570 C   0  0  0  0  0  0  0  0  0  0  0  0
   -3.3370   20.5540  -32.7290 C   0  0  0  0  0  0  0  0  0  0  0  0
   -4.3980   20.0160  -33.5090 N   0  0  0  0  0  0  0  0  0  0  0  0
   -5.6370   19.6210  -32.9260 C   0  0  0  0  0  0  0  0  0  0  0  0
   -6.7600   20.6170  -33.0980 C   0  0  0  0  0  0  0  0  0  0  0  0
   -7.9000   20.0780  -32.2280 C   0  0  0  0  0  0  0  0  0  0  0  0
   -8.3570   18.8140  -32.7130 N   0  0  0  0  0  0  0  0  0  0  0  0
   -9.3680   18.3230  -31.7950 C   0  0  0  0  0  0  0  0  0  0  0  0
   -7.3570   17.8060  -32.8690 C   0  0  0  0  0  0  0  0  0  0  0  0
   -6.0650   18.2990  -33.4780 C   0  0  0  0  0  0  0  0  0  0  0  0
   -2.0630   20.5830  -33.1590 N   0  0  0  0  0  0  0  0  0  0  0  0
   -1.0640   21.1010  -32.3990 C   0  0  0  0  0  0  0  0  0  0  0  0
   -1.2860   21.6150  -31.1760 N   0  0  0  0  0  0  0  0  0  0  0  0
   -1.5810   23.9880  -28.5390 C   0  0  0  0  0  0  0  0  0  0  0  0
   -2.4020   24.8860  -29.2250 O   0  0  0  0  0  0  0  0  0  0  0  0
   -0.7883   26.8629  -24.0334 H   0  0  0  0  0  0  0  0  0  0  0  0
    0.5284   26.1894  -25.0529 H   0  0  0  0  0  0  0  0  0  0  0  0
    0.2071   27.9567  -25.0529 H   0  0  0  0  0  0  0  0  0  0  0  0
   -1.6909   27.7495  -26.3648 H   0  0  0  0  0  0  0  0  0  0  0  0
   -2.3081   25.7187  -24.6028 H   0  0  0  0  0  0  0  0  0  0  0  0
   -3.2464   26.0565  -26.0969 H   0  0  0  0  0  0  0  0  0  0  0  0
   -1.9887   24.7740  -26.0969 H   0  0  0  0  0  0  0  0  0  0  0  0
    0.6844   21.4602  -26.6436 H   0  0  0  0  0  0  0  0  0  0  0  0
   -1.1454   20.6610  -28.1579 H   0  0  0  0  0  0  0  0  0  0  0  0
   -4.5766   21.0930  -31.0518 H   0  0  0  0  0  0  0  0  0  0  0  0
   -4.2320   19.9210  -34.5340 H   0  0  0  0  0  0  0  0  0  0  0  0
   -5.4430   19.5577  -31.8451 H   0  0  0  0  0  0  0  0  0  0  0  0
   -6.4489   21.6145  -32.7542 H   0  0  0  0  0  0  0  0  0  0  0  0
   -7.0586   20.7274  -34.1509 H   0  0  0  0  0  0  0  0  0  0  0  0
   -7.5398   19.9589  -31.1955 H   0  0  0  0  0  0  0  0  0  0  0  0
   -8.7366   20.7914  -32.2629 H   0  0  0  0  0  0  0  0  0  0  0  0
   -9.0333   18.4855  -30.7598 H   0  0  0  0  0  0  0  0  0  0  0  0
  -10.3109   18.8635  -31.9647 H   0  0  0  0  0  0  0  0  0  0  0  0
   -9.5262   17.2477  -31.9647 H   0  0  0  0  0  0  0  0  0  0  0  0
   -7.1323   17.3876  -31.8768 H   0  0  0  0  0  0  0  0  0  0  0  0
   -7.7683   17.0602  -33.5651 H   0  0  0  0  0  0  0  0  0  0  0  0
   -5.2755   17.5603  -33.2753 H   0  0  0  0  0  0  0  0  0  0  0  0
   -6.2330   18.4273  -34.5575 H   0  0  0  0  0  0  0  0  0  0  0  0
   -0.0385   21.1002  -32.7970 H   0  0  0  0  0  0  0  0  0  0  0  0
   -0.5140   22.0100  -30.5990 H   0  0  0  0  0  0  0  0  0  0  0  0
   -1.9910   25.6850  -29.7300 H   0  0  0  0  0  0  0  0  0  0  0  0
  1  2  1  0
  2  3  1  0
  2  4  1  0
  4  5  2  0
  4  6  2  0
  4  7  1  0
  7  8  2  0
  8  9  1  0
  8 10  1  0
 10 11  2  0
 11 12  1  0
 12 13  1  0
 13 14  2  0
 14 15  1  0
 15 16  2  0
 16 17  1  0
 17 18  1  0
 18 19  1  0
 19 20  1  0
 20 21  1  0
 21 22  1  0
 21 23  1  0
 23 24  1  0
 16 25  1  0
 25 26  2  0
 26 27  1  0
 12 28  2  0
 28 29  1  0
 28  7  1  0
 27 14  1  0
 24 18  1  0
  1 30  1  0
  1 31  1  0
  1 32  1  0
  2 33  1  0
  3 34  1  0
  3 35  1  0
  3 36  1  0
 10 37  1  0
 11 38  1  0
 15 39  1  0
 17 40  1  0
 18 41  1  0
 19 42  1  0
 19 43  1  0
 20 44  1  0
 20 45  1  0
 22 46  1  0
 22 47  1  0
 22 48  1  0
 23 49  1  0
 23 50  1  0
 24 51  1  0
 24 52  1  0
 26 53  1  0
 27 54  1  0
 29 55  1  0
M  END
>  <smiles>  (3) 
CC(C)S(=O)(=O)c1c(Cl)ccc(N=c2cc(NC3CCN(C)CC3)nc[nH]2)c1O

>  <score_type>  (3) 
oracle

>  <origin>  (3) 
adgpu

>  <m_score__min__energy>  (3) 
-10.56

>  <m_primary>  (3) 
energy

$$$$
3:0
     RDKit          3D

 32 33  0  0  0  0  0  0  0  0999 V2000
   -6.8320   25.1450  -29.7150 C   0  0  0  0  0  0  0  0  0  0  0  0
   -6.3990   24.5680  -30.9830 N   0  0  0  0  0  0  0  0  0  0  0  0
   -6.7580   23.2360  -31.4100 C   0  0  0  0  0  0  0  0  0  0  0  0
   -8.1040   22.8160  -31.3500 C   0  0  0  0  0  0  0  0  0  0  0  0
   -8.4830   21.5640  -31.8340 C   0  0  0  0  0  0  0  0  0  0  0  0
   -7.5340   20.7160  -32.3960 C   0  0  0  0  0  0  0  0  0  0  0  0
   -6.1960   21.1040  -32.4550 C   0  0  0  0  0  0  0  0  0  0  0  0
   -5.7790   22.3450  -31.9290 C   0  0  0  0  0  0  0  0  0  0  0  0
   -4.3110   22.7310  -31.9730 C   0  0  0  0  0  0  0  0  0  0  0  0
   -3.7670   22.9940  -30.6390 N   0  0  0  0  0  0  0  0  0  0  0  0
   -3.3560   22.0630  -29.7540 C   0  0  0  0  0  0  0  0  0  0  0  0
   -2.9140   22.6860  -28.6010 C   0  0  0  0  0  0  0  0  0  0  0  0
   -2.3130   22.0140  -27.4110 C   0  0  0  0  0  0  0  0  0  0  0  0
   -3.0380   24.0500  -28.7930 C   0  0  0  0  0  0  0  0  0  0  0  0
   -3.5740   24.1970  -30.0550 C   0  0  0  0  0  0  0  0  0  0  0  0
   -3.8720   25.4220  -30.6470 O   0  0  0  0  0  0  0  0  0  0  0  0
   -6.3998   24.5690  -28.8835 H   0  0  0  0  0  0  0  0  0  0  0  0
   -6.4930   26.1896  -29.6527 H   0  0  0  0  0  0  0  0  0  0  0  0
   -7.9297   25.1114  -29.6527 H   0  0  0  0  0  0  0  0  0  0  0  0
   -5.7990   25.1670  -31.5920 H   0  0  0  0  0  0  0  0  0  0  0  0
   -8.8630   23.4838  -30.9165 H   0  0  0  0  0  0  0  0  0  0  0  0
   -9.5343   21.2465  -31.7712 H   0  0  0  0  0  0  0  0  0  0  0  0
   -7.8398   19.7374  -32.7946 H   0  0  0  0  0  0  0  0  0  0  0  0
   -5.4562   20.4341  -32.9175 H   0  0  0  0  0  0  0  0  0  0  0  0
   -3.7422   21.9086  -32.4315 H   0  0  0  0  0  0  0  0  0  0  0  0
   -4.2230   23.6561  -32.5615 H   0  0  0  0  0  0  0  0  0  0  0  0
   -3.3701   20.9762  -29.9231 H   0  0  0  0  0  0  0  0  0  0  0  0
   -2.7165   22.4651  -26.4925 H   0  0  0  0  0  0  0  0  0  0  0  0
   -2.5593   20.9421  -27.4319 H   0  0  0  0  0  0  0  0  0  0  0  0
   -1.2204   22.1396  -27.4319 H   0  0  0  0  0  0  0  0  0  0  0  0
   -2.7663   24.8492  -28.0877 H   0  0  0  0  0  0  0  0  0  0  0  0
   -3.6090   25.6290  -31.6020 H   0  0  0  0  0  0  0  0  0  0  0  0
  1  2  1  0
  2  3  1  0
  3  4  2  0
  4  5  1  0
  5  6  2  0
  6  7  1  0
  7  8  2  0
  8  9  1  0
  9 10  1  0
 10 11  1  0
 11 12  2  0
 12 13  1  0
 12 14  1  0
 14 15  2  0
 15 16  1  0
  8  3  1  0
 15 10  1  0
  1 17  1  0
  1 18  1  0
  1 19  1  0
  2 20  1  0
  4 21  1  0
  5 22  1  0
  6 23  1  0
  7 24  1  0
  9 25  1  0
  9 26  1  0
 11 27  1  0
 13 28  1  0
 13 29  1  0
 13 30  1  0
 14 31  1  0
 16 32  1  0
M  END
>  <UniqueID>  (4) 
3

>  <SMILES>  (4) 
CNc1ccccc1Cn1cc(C)cc1O

>  <Energy>  (4) 
59.32919200370508

>  <Genealogy>  (4) 
CNc1ccccc1Cn1cc(C)cc1O (3D coordinates assigned)
CNc1ccccc1Cn1cc(C)cc1O (optimized conformer: 59.32919200370508 kcal/mol)

>  <smiles>  (4) 
CNc1ccccc1Cn1cc(C)cc1O

>  <score_type>  (4) 
oracle

>  <origin>  (4) 
adgpu

>  <m_score__min__energy>  (4) 
-7.5999999999999996

>  <m_primary>  (4) 
energy

$$$$
4:0
     RDKit          3D

 56 60  0  0  0  0  0  0  0  0999 V2000
   -1.0310   18.3450  -33.1690 O   0  0  0  0  0  0  0  0  0  0  0  0
   -1.6170   19.0990  -32.3470 C   0  0  0  0  0  0  0  0  0  0  0  0
   -0.9730   19.4760  -31.1230 N   0  0  0  0  0  0  0  0  0  0  0  0
   -1.2290   20.6600  -30.3550 C   0  0  0  0  0  0  0  0  0  0  0  0
   -1.9190   20.6190  -29.1290 C   0  0  0  0  0  0  0  0  0  0  0  0
   -2.1230   21.7920  -28.3970 C   0  0  0  0  0  0  0  0  0  0  0  0
   -1.6250   23.0150  -28.8660 C   0  0  0  0  0  0  0  0  0  0  0  0
   -1.8870   24.4980  -27.9410 S   0  0  0  0  0  0  0  0  0  0  0  0
   -3.2940   24.5000  -27.4100 O   0  0  0  0  0  0  0  0  0  0  0  0
   -1.7370   25.6790  -28.8590 O   0  0  0  0  0  0  0  0  0  0  0  0
   -0.7760   24.6720  -26.6040 N   0  0  0  0  0  0  0  0  0  0  0  0
   -1.2780   25.5910  -25.5860 C   0  0  0  0  0  0  0  0  0  0  0  0
   -0.6150   25.1880  -24.2770 C   0  0  0  0  0  0  0  0  0  0  0  0
   -0.1180   23.7660  -24.4980 C   0  0  0  0  0  0  0  0  0  0  0  0
   -0.5470   23.4070  -25.9110 C   0  0  0  0  0  0  0  0  0  0  0  0
   -0.9280   23.0540  -30.0810 C   0  0  0  0  0  0  0  0  0  0  0  0
   -0.7230   21.8810  -30.8130 C   0  0  0  0  0  0  0  0  0  0  0  0
   -3.0210   19.4940  -32.5930 C   0  0  0  0  0  0  0  0  0  0  0  0
   -3.4770   20.6980  -32.0350 C   0  0  0  0  0  0  0  0  0  0  0  0
   -4.7810   21.1540  -32.2940 C   0  0  0  0  0  0  0  0  0  0  0  0
   -5.2870   22.4320  -31.7310 C   0  0  0  0  0  0  0  0  0  0  0  0
   -6.6670   22.7090  -31.7600 C   0  0  0  0  0  0  0  0  0  0  0  0
   -7.1590   23.9090  -31.2400 C   0  0  0  0  0  0  0  0  0  0  0  0
   -6.2850   24.8490  -30.6940 C   0  0  0  0  0  0  0  0  0  0  0  0
   -4.9080   24.5950  -30.6710 C   0  0  0  0  0  0  0  0  0  0  0  0
   -4.0240   25.5310  -30.1390 O   0  0  0  0  0  0  0  0  0  0  0  0
   -4.4120   23.3930  -31.1890 C   0  0  0  0  0  0  0  0  0  0  0  0
   -5.6020   20.4010  -33.0720 N   0  0  0  0  0  0  0  0  0  0  0  0
   -5.2160   19.2180  -33.6140 C   0  0  0  0  0  0  0  0  0  0  0  0
   -6.1220   18.4890  -34.3920 C   0  0  0  0  0  0  0  0  0  0  0  0
   -5.7530   17.2550  -34.9280 C   0  0  0  0  0  0  0  0  0  0  0  0
   -4.4820   16.7370  -34.6800 C   0  0  0  0  0  0  0  0  0  0  0  0
   -3.5660   17.4550  -33.9070 C   0  0  0  0  0  0  0  0  0  0  0  0
   -3.9090   18.7190  -33.3810 C   0  0  0  0  0  0  0  0  0  0  0  0
   -2.2990   19.6605  -28.7456 H   0  0  0  0  0  0  0  0  0  0  0  0
   -2.6774   21.7550  -27.4477 H   0  0  0  0  0  0  0  0  0  0  0  0
   -1.0116   26.6266  -25.8441 H   0  0  0  0  0  0  0  0  0  0  0  0
   -2.3742   25.5402  -25.5094 H   0  0  0  0  0  0  0  0  0  0  0  0
    0.2264   25.8589  -24.0490 H   0  0  0  0  0  0  0  0  0  0  0  0
   -1.3121   25.2510  -23.4284 H   0  0  0  0  0  0  0  0  0  0  0  0
    0.9771   23.7216  -24.4047 H   0  0  0  0  0  0  0  0  0  0  0  0
   -0.5291   23.0674  -23.7544 H   0  0  0  0  0  0  0  0  0  0  0  0
    0.2451   22.8343  -26.4156 H   0  0  0  0  0  0  0  0  0  0  0  0
   -1.4532   22.7835  -25.9073 H   0  0  0  0  0  0  0  0  0  0  0  0
   -0.5408   24.0112  -30.4601 H   0  0  0  0  0  0  0  0  0  0  0  0
   -0.1592   21.9184  -31.7568 H   0  0  0  0  0  0  0  0  0  0  0  0
   -2.8095   21.2889  -31.3906 H   0  0  0  0  0  0  0  0  0  0  0  0
   -7.3624   21.9760  -32.1948 H   0  0  0  0  0  0  0  0  0  0  0  0
   -8.2397   24.1132  -31.2613 H   0  0  0  0  0  0  0  0  0  0  0  0
   -6.6775   25.7901  -30.2814 H   0  0  0  0  0  0  0  0  0  0  0  0
   -3.8940   25.6300  -29.1390 H   0  0  0  0  0  0  0  0  0  0  0  0
   -3.3297   23.1974  -31.1726 H   0  0  0  0  0  0  0  0  0  0  0  0
   -7.1285   18.8902  -34.5816 H   0  0  0  0  0  0  0  0  0  0  0  0
   -6.4653   16.6898  -35.5470 H   0  0  0  0  0  0  0  0  0  0  0  0
   -4.1993   15.7583  -35.0951 H   0  0  0  0  0  0  0  0  0  0  0  0
   -2.5704   17.0321  -33.7069 H   0  0  0  0  0  0  0  0  0  0  0  0
  1  2  2  0
  2  3  1  0
  3  4  1  0
  4  5  2  0
  5  6  1  0
  6  7  2  0
  7  8  1  0
  8  9  2  0
  8 10  2  0
  8 11  1  0
 11 12  1  0
 12 13  1  0
 13 14  1  0
 14 15  1  0
  7 16  1  0
 16 17  2  0
  2 18  1  0
 18 19  2  0
 19 20  1  0
 20 21  1  0
 21 22  2  0
 22 23  1  0
 23 24  2  0
 24 25  1  0
 25 26  1  0
 25 27  2  0
 20 28  2  0
 28 29  1  0
 29 30  2  0
 30 31  1  0
 31 32  2  0
 32 33  1  0
 33 34  2  0
 17  4  1  0
 34 18  1  0
 15 11  1  0
 27 21  1  0
 34 29  1  0
  5 35  1  0
  6 36  1  0
 12 37  1  0
 12 38  1  0
 13 39  1  0
 13 40  1  0
 14 41  1  0
 14 42  1  0
 15 43  1  0
 15 44  1  0
 16 45  1  0
 17 46  1  0
 19 47  1  0
 22 48  1  0
 23 49  1  0
 24 50  1  0
 26 51  1  0
 27 52  1  0
 30 53  1  0
 31 54  1  0
 32 55  1  0
 33 56  1  0
M  CHG  1   3  -1
M  END
>  <UniqueID>  (5) 
4

>  <SMILES>  (5) 
O=C([N-]c1ccc(S(=O)(=O)N2CCCC2)cc1)c1cc(-c2cccc(O)c2)nc2ccccc12

>  <Energy>  (5) 
79.86166384807343

>  <Genealogy>  (5) 
O=C([N-]c1ccc(S(=O)(=O)N2CCCC2)cc1)c1cc(-c2cccc(O)c2)nc2ccccc12 (protonated)
O=C([N-]c1ccc(S(=O)(=O)N2CCCC2)cc1)c1cc(-c2cccc(O)c2)nc2ccccc12 (3D coordinates assigned)
O=C([N-]c1ccc(S(=O)(=O)N2CCCC2)cc1)c1cc(-c2cccc(O)c2)nc2ccccc12 (nonaromatic ring conformer: 79.86166384807343 kcal/mol)

>  <smiles>  (5) 
O=C(Nc1ccc(S(=O)(=O)N2CCCC2)cc1)c1cc(-c2cccc(O)c2)nc2ccccc12

>  <score_type>  (5) 
oracle

>  <origin>  (5) 
adgpu

>  <m_score__min__energy>  (5) 
-12.210000000000001

>  <m_primary>  (5) 
energy

$$$$
5:0
     RDKit          3D

 28 29  0  0  0  0  0  0  0  0999 V2000
   -9.1060   18.3750  -31.7150 C   0  0  0  0  0  0  0  0  0  0  0  0
   -8.4160   19.6980  -31.8730 C   0  0  0  0  0  0  0  0  0  0  0  0
   -8.9030   20.8340  -31.2170 C   0  0  0  0  0  0  0  0  0  0  0  0
   -8.2260   22.0480  -31.3450 C   0  0  0  0  0  0  0  0  0  0  0  0
   -7.0860   22.1360  -32.0980 N   0  0  0  0  0  0  0  0  0  0  0  0
   -6.4020   23.4310  -32.2310 C   0  0  0  0  0  0  0  0  0  0  0  0
   -5.1870   23.4860  -31.3360 C   0  0  0  0  0  0  0  0  0  0  0  0
   -4.0770   22.6760  -31.6380 C   0  0  0  0  0  0  0  0  0  0  0  0
   -2.9500   22.6770  -30.8130 C   0  0  0  0  0  0  0  0  0  0  0  0
   -2.9180   23.4820  -29.6740 C   0  0  0  0  0  0  0  0  0  0  0  0
   -4.0120   24.2890  -29.3580 C   0  0  0  0  0  0  0  0  0  0  0  0
   -5.1480   24.2960  -30.1780 C   0  0  0  0  0  0  0  0  0  0  0  0
   -6.4880   25.3420  -29.7230 Cl  0  0  0  0  0  0  0  0  0  0  0  0
   -6.5860   21.0280  -32.7250 C   0  0  0  0  0  0  0  0  0  0  0  0
   -7.2360   19.7960  -32.6190 C   0  0  0  0  0  0  0  0  0  0  0  0
   -9.2241   18.1485  -30.6451 H   0  0  0  0  0  0  0  0  0  0  0  0
  -10.0962   18.4186  -32.1921 H   0  0  0  0  0  0  0  0  0  0  0  0
   -8.5035   17.5880  -32.1921 H   0  0  0  0  0  0  0  0  0  0  0  0
   -9.8141   20.7707  -30.6039 H   0  0  0  0  0  0  0  0  0  0  0  0
   -8.6124   22.9431  -30.8356 H   0  0  0  0  0  0  0  0  0  0  0  0
   -6.0874   23.5678  -33.2761 H   0  0  0  0  0  0  0  0  0  0  0  0
   -7.0968   24.2306  -31.9344 H   0  0  0  0  0  0  0  0  0  0  0  0
   -4.0969   22.0359  -32.5323 H   0  0  0  0  0  0  0  0  0  0  0  0
   -2.0866   22.0423  -31.0616 H   0  0  0  0  0  0  0  0  0  0  0  0
   -2.0301   23.4807  -29.0247 H   0  0  0  0  0  0  0  0  0  0  0  0
   -3.9821   24.9233  -28.4598 H   0  0  0  0  0  0  0  0  0  0  0  0
   -5.6632   21.1078  -33.3184 H   0  0  0  0  0  0  0  0  0  0  0  0
   -6.8226   18.9078  -33.1192 H   0  0  0  0  0  0  0  0  0  0  0  0
  1  2  1  0
  2  3  2  0
  3  4  1  0
  4  5  2  0
  5  6  1  0
  6  7  1  0
  7  8  2  0
  8  9  1  0
  9 10  2  0
 10 11  1  0
 11 12  2  0
 12 13  1  0
  5 14  1  0
 14 15  2  0
 15  2  1  0
 12  7  1  0
  1 16  1  0
  1 17  1  0
  1 18  1  0
  3 19  1  0
  4 20  1  0
  6 21  1  0
  6 22  1  0
  8 23  1  0
  9 24  1  0
 10 25  1  0
 11 26  1  0
 14 27  1  0
 15 28  1  0
M  CHG  1   5   1
M  END
>  <UniqueID>  (6) 
5

>  <SMILES>  (6) 
Cc1cc[n+](Cc2ccccc2Cl)cc1

>  <Energy>  (6) 
29.091717931951838

>  <Genealogy>  (6) 
Cc1cc[n+](Cc2ccccc2Cl)cc1 (3D coordinates assigned)
Cc1cc[n+](Cc2ccccc2Cl)cc1 (optimized conformer: 29.091717931951838 kcal/mol)

>  <smiles>  (6) 
Cc1cc[n+](Cc2ccccc2Cl)cc1

>  <score_type>  (6) 
oracle

>  <origin>  (6) 
adgpu

>  <m_score__min__energy>  (6) 
-5.7800000000000002

>  <m_primary>  (6) 
energy

$$$$
6:0
     RDKit          3D

 48 50  0  0  0  0  0  0  0  0999 V2000
   -2.7650   20.0470  -33.5500 C   0  0  0  0  0  0  0  0  0  0  0  0
   -4.1680   19.5310  -33.4230 C   0  0  0  0  0  0  0  0  0  0  0  0
   -4.4300   18.1540  -33.4740 C   0  0  0  0  0  0  0  0  0  0  0  0
   -5.7470   17.6790  -33.3850 C   0  0  0  0  0  0  0  0  0  0  0  0
   -6.0200   16.2050  -33.4070 C   0  0  0  0  0  0  0  0  0  0  0  0
   -6.8010   18.5910  -33.2200 C   0  0  0  0  0  0  0  0  0  0  0  0
   -6.5550   19.9680  -33.2070 C   0  0  0  0  0  0  0  0  0  0  0  0
   -7.6650   20.8670  -33.0850 N   0  0  0  0  0  0  0  0  0  0  0  0
   -8.0960   21.7070  -31.6300 S   0  0  0  0  0  0  0  0  0  0  0  0
   -9.3340   22.5170  -31.8900 O   0  0  0  0  0  0  0  0  0  0  0  0
   -8.3940   20.7380  -30.5200 O   0  0  0  0  0  0  0  0  0  0  0  0
   -6.7750   22.7810  -31.1790 C   0  0  0  0  0  0  0  0  0  0  0  0
   -6.8640   24.1570  -31.4250 C   0  0  0  0  0  0  0  0  0  0  0  0
   -5.7730   24.9890  -31.1650 C   0  0  0  0  0  0  0  0  0  0  0  0
   -4.5760   24.4520  -30.6810 C   0  0  0  0  0  0  0  0  0  0  0  0
   -3.4880   25.2910  -30.4760 O   0  0  0  0  0  0  0  0  0  0  0  0
   -4.4800   23.0740  -30.4200 C   0  0  0  0  0  0  0  0  0  0  0  0
   -2.9520   22.3510  -29.9140 S   0  0  0  0  0  0  0  0  0  0  0  0
   -2.2960   21.6740  -31.0860 O   0  0  0  0  0  0  0  0  0  0  0  0
   -3.2170   21.3180  -28.8550 O   0  0  0  0  0  0  0  0  0  0  0  0
   -1.9090   23.6000  -29.2780 N   0  0  0  0  0  0  0  0  0  0  0  0
   -0.5880   23.0370  -28.9600 C   0  0  0  0  0  0  0  0  0  0  0  0
    0.3270   24.1240  -28.3580 C   0  0  0  0  0  0  0  0  0  0  0  0
   -0.3620   25.3420  -28.1430 O   0  0  0  0  0  0  0  0  0  0  0  0
   -1.5080   25.1080  -27.3470 C   0  0  0  0  0  0  0  0  0  0  0  0
   -2.5130   24.1890  -28.0710 C   0  0  0  0  0  0  0  0  0  0  0  0
   -5.5880   22.2490  -30.6610 C   0  0  0  0  0  0  0  0  0  0  0  0
   -5.2330   20.4340  -33.2990 C   0  0  0  0  0  0  0  0  0  0  0  0
   -2.3397   20.2034  -32.5477 H   0  0  0  0  0  0  0  0  0  0  0  0
   -2.1533   19.3150  -34.0977 H   0  0  0  0  0  0  0  0  0  0  0  0
   -2.7733   21.0009  -34.0977 H   0  0  0  0  0  0  0  0  0  0  0  0
   -3.5982   17.4427  -33.5844 H   0  0  0  0  0  0  0  0  0  0  0  0
   -6.0895   15.8295  -32.3754 H   0  0  0  0  0  0  0  0  0  0  0  0
   -6.9685   16.0155  -33.9309 H   0  0  0  0  0  0  0  0  0  0  0  0
   -5.2023   15.6884  -33.9309 H   0  0  0  0  0  0  0  0  0  0  0  0
   -7.8295   18.2197  -33.0999 H   0  0  0  0  0  0  0  0  0  0  0  0
   -7.7961   24.5835  -31.8242 H   0  0  0  0  0  0  0  0  0  0  0  0
   -5.8556   26.0716  -31.3417 H   0  0  0  0  0  0  0  0  0  0  0  0
   -0.7072   22.2199  -28.2333 H   0  0  0  0  0  0  0  0  0  0  0  0
   -0.1298   22.6555  -29.8844 H   0  0  0  0  0  0  0  0  0  0  0  0
    0.7194   23.7640  -27.3955 H   0  0  0  0  0  0  0  0  0  0  0  0
    1.1397   24.3167  -29.0738 H   0  0  0  0  0  0  0  0  0  0  0  0
   -1.1992   24.6304  -26.4054 H   0  0  0  0  0  0  0  0  0  0  0  0
   -1.9981   26.0730  -27.1505 H   0  0  0  0  0  0  0  0  0  0  0  0
   -2.8182   23.3811  -27.3897 H   0  0  0  0  0  0  0  0  0  0  0  0
   -3.3856   24.7882  -28.3704 H   0  0  0  0  0  0  0  0  0  0  0  0
   -5.5240   21.1732  -30.4409 H   0  0  0  0  0  0  0  0  0  0  0  0
   -5.0321   21.5152  -33.2736 H   0  0  0  0  0  0  0  0  0  0  0  0
  1  2  1  0
  2  3  2  0
  3  4  1  0
  4  5  1  0
  4  6  2  0
  6  7  1  0
  7  8  1  0
  8  9  1  0
  9 10  2  0
  9 11  2  0
  9 12  1  0
 12 13  2  0
 13 14  1  0
 14 15  2  0
 15 16  1  0
 15 17  1  0
 17 18  1  0
 18 19  2  0
 18 20  2  0
 18 21  1  0
 21 22  1  0
 22 23  1  0
 23 24  1  0
 24 25  1  0
 25 26  1  0
 17 27  2  0
  7 28  2  0
 28  2  1  0
 27 12  1  0
 26 21  1  0
  1 29  1  0
  1 30  1  0
  1 31  1  0
  3 32  1  0
  5 33  1  0
  5 34  1  0
  5 35  1  0
  6 36  1  0
 13 37  1  0
 14 38  1  0
 22 39  1  0
 22 40  1  0
 23 41  1  0
 23 42  1  0
 25 43  1  0
 25 44  1  0
 26 45  1  0
 26 46  1  0
 27 47  1  0
 28 48  1  0
M  CHG  2   8  -1  16  -1
M  END
>  <UniqueID>  (7) 
6

>  <SMILES>  (7) 
Cc1cc(C)cc([N-]S(=O)(=O)c2ccc([O-])c(S(=O)(=O)N3CCOCC3)c2)c1

>  <Energy>  (7) 
57.02393288820145

>  <Genealogy>  (7) 
Cc1cc(C)cc([N-]S(=O)(=O)c2ccc([O-])c(S(=O)(=O)N3CCOCC3)c2)c1 (protonated)
Cc1cc(C)cc([N-]S(=O)(=O)c2ccc([O-])c(S(=O)(=O)N3CCOCC3)c2)c1 (3D coordinates assigned)
Cc1cc(C)cc([N-]S(=O)(=O)c2ccc([O-])c(S(=O)(=O)N3CCOCC3)c2)c1 (nonaromatic ring conformer: 57.02393288820145 kcal/mol)

>  <smiles>  (7) 
Cc1cc(C)cc(NS(=O)(=O)c2ccc(O)c(S(=O)(=O)N3CCOCC3)c2)c1

>  <score_type>  (7) 
oracle

>  <origin>  (7) 
adgpu

>  <m_score__min__energy>  (7) 
-12.35

>  <m_primary>  (7) 
energy

$$$$
7:0
     RDKit          3D

 44 47  0  0  1  0  0  0  0  0999 V2000
   -5.0370   24.6210  -28.5670 N   0  0  0  0  0  0  0  0  0  0  0  0
   -5.1870   24.7770  -30.2960 S   0  0  0  0  0  0  0  0  0  0  0  0
   -4.1160   25.6340  -30.8570 O   0  0  0  0  0  0  0  0  0  0  0  0
   -6.5110   25.4210  -30.5480 O   0  0  0  0  0  0  0  0  0  0  0  0
   -5.1420   23.1400  -30.9690 C   0  0  0  0  0  0  0  0  0  0  0  0
   -4.2180   22.2270  -30.5340 C   0  0  0  0  0  0  0  0  0  0  0  0
   -4.2470   20.9740  -31.1110 C   0  0  0  0  0  0  0  0  0  0  0  0
   -5.1440   20.6160  -32.0840 C   0  0  0  0  0  0  0  0  0  0  0  0
   -5.1930   19.3350  -32.6940 N   0  0  0  0  0  0  0  0  0  0  0  0
   -4.2320   18.7530  -33.2860 C   0  0  0  0  0  0  0  0  0  0  0  0
   -3.0470   19.3780  -33.3590 N   0  0  0  0  0  0  0  0  0  0  0  0
   -2.0380   18.7700  -33.9740 C   0  0  0  0  0  0  0  0  0  0  0  0
   -0.7310   19.2950  -34.1250 N   0  0  0  0  0  0  0  0  0  0  0  0
   -0.1060   19.4750  -35.4490 C   0  0  0  0  0  0  0  0  0  0  0  0
    0.0630   20.9550  -35.5920 C   0  0  0  0  0  0  0  0  0  0  0  0
    0.4790   21.6650  -34.4670 N   0  0  0  0  0  0  0  0  0  0  0  0
    0.3560   21.1690  -33.1690 C   0  0  0  0  0  0  0  0  0  0  0  0
    0.1040   19.7080  -33.0020 C   0  0  0  0  0  0  0  0  0  0  0  0
   -2.2480   17.5360  -34.5060 N   0  0  0  0  0  0  0  0  0  0  0  0
   -3.4110   16.8810  -34.4550 C   0  0  0  0  0  0  0  0  0  0  0  0
   -3.8990   15.6990  -34.8760 N   0  0  0  0  0  0  0  0  0  0  0  0
   -5.1880   15.5640  -34.5340 C   0  0  0  0  0  0  0  0  0  0  0  0
   -5.5330   16.6980  -33.8720 N   0  0  0  0  0  0  0  0  0  0  0  0
   -4.4680   17.5000  -33.8190 C   0  0  0  0  0  0  0  0  0  0  0  0
   -6.0710   21.5540  -32.5110 C   0  0  0  0  0  0  0  0  0  0  0  0
   -6.0690   22.8080  -31.9570 C   0  0  0  0  0  0  0  0  0  0  0  0
   -5.9880   24.3600  -28.2130 H   0  0  0  0  0  0  0  0  0  0  0  0
   -4.8760   25.5890  -28.1990 H   0  0  0  0  0  0  0  0  0  0  0  0
   -3.4830   22.4824  -29.7565 H   0  0  0  0  0  0  0  0  0  0  0  0
   -3.5146   20.2257  -30.7738 H   0  0  0  0  0  0  0  0  0  0  0  0
   -2.9010   20.3140  -32.9570 H   0  0  0  0  0  0  0  0  0  0  0  0
    0.8691   18.9676  -35.4897 H   0  0  0  0  0  0  0  0  0  0  0  0
   -0.7150   19.0458  -36.2582 H   0  0  0  0  0  0  0  0  0  0  0  0
    0.8064   21.1271  -36.3843 H   0  0  0  0  0  0  0  0  0  0  0  0
   -0.9472   21.3340  -35.8060 H   0  0  0  0  0  0  0  0  0  0  0  0
    0.6990   22.6640  -34.5810 H   0  0  0  0  0  0  0  0  0  0  0  0
    1.2909   21.4031  -32.6387 H   0  0  0  0  0  0  0  0  0  0  0  0
   -0.5492   21.6526  -32.7730 H   0  0  0  0  0  0  0  0  0  0  0  0
    1.0552   19.1556  -33.0136 H   0  0  0  0  0  0  0  0  0  0  0  0
   -0.3921   19.4994  -32.0426 H   0  0  0  0  0  0  0  0  0  0  0  0
   -3.3010   15.0130  -35.4010 H   0  0  0  0  0  0  0  0  0  0  0  0
   -5.8387   14.7032  -34.7478 H   0  0  0  0  0  0  0  0  0  0  0  0
   -6.8035   21.2938  -33.2893 H   0  0  0  0  0  0  0  0  0  0  0  0
   -6.8020   23.5561  -32.2933 H   0  0  0  0  0  0  0  0  0  0  0  0
  1  2  1  0
  2  3  2  0
  2  4  2  0
  2  5  1  0
  5  6  2  0
  6  7  1  0
  7  8  2  0
  8  9  1  0
  9 10  2  0
 10 11  1  0
 11 12  1  0
 12 13  1  0
 13 14  1  0
 14 15  1  0
 15 16  1  0
 16 17  1  0
 17 18  1  0
 12 19  2  0
 19 20  1  0
 20 21  1  0
 21 22  1  0
 22 23  2  0
 23 24  1  0
  8 25  1  0
 25 26  2  0
 26  5  1  0
 24 10  1  0
 18 13  1  0
 24 20  2  0
  1 27  1  0
  1 28  1  0
  6 29  1  0
  7 30  1  0
 11 31  1  0
 14 32  1  0
 14 33  1  0
 15 34  1  0
 15 35  1  0
 16 36  1  0
 17 37  1  0
 17 38  1  0
 18 39  1  0
 18 40  1  0
 21 41  1  0
 22 42  1  0
 25 43  1  0
 26 44  1  0
M  END
>  <smiles>  (8) 
NS(=O)(=O)c1ccc(N=c2[nH]c(N3CCNCC3)nc3[nH]cnc23)cc1

>  <score_type>  (8) 
oracle

>  <origin>  (8) 
adgpu

>  <m_score__min__energy>  (8) 
-8.2699999999999996

>  <m_primary>  (8) 
energy

$$$$
8:0
     RDKit          3D

 52 55  0  0  0  0  0  0  0  0999 V2000
   -2.5150   23.3760  -29.9790 C   0  0  0  0  0  0  0  0  0  0  0  0
   -3.8520   23.8180  -30.3510 N   0  0  0  0  0  0  0  0  0  0  0  0
   -4.9280   23.0240  -30.4910 C   0  0  0  0  0  0  0  0  0  0  0  0
   -5.9970   23.8240  -30.8340 C   0  0  0  0  0  0  0  0  0  0  0  0
   -7.3920   23.3810  -31.1500 C   0  0  0  0  0  0  0  0  0  0  0  0
   -7.3860   22.4880  -32.3050 N   0  0  0  0  0  0  0  0  0  0  0  0
   -8.0120   21.1970  -32.2670 C   0  0  0  0  0  0  0  0  0  0  0  0
   -9.3240   21.0200  -32.0240 N   0  0  0  0  0  0  0  0  0  0  0  0
   -9.4840   19.6820  -32.0690 C   0  0  0  0  0  0  0  0  0  0  0  0
   -8.3440   19.0080  -32.3280 N   0  0  0  0  0  0  0  0  0  0  0  0
   -7.4060   19.9650  -32.4540 C   0  0  0  0  0  0  0  0  0  0  0  0
   -5.9950   19.6660  -32.7790 C   0  0  0  0  0  0  0  0  0  0  0  0
   -5.5250   18.5170  -32.5700 O   0  0  0  0  0  0  0  0  0  0  0  0
   -5.1650   20.6870  -33.3580 N   0  0  0  0  0  0  0  0  0  0  0  0
   -3.7330   20.5940  -33.4660 C   0  0  0  0  0  0  0  0  0  0  0  0
   -3.1110   19.4640  -34.0280 C   0  0  0  0  0  0  0  0  0  0  0  0
   -1.7170   19.3910  -34.1020 C   0  0  0  0  0  0  0  0  0  0  0  0
   -0.9270   20.4360  -33.6100 C   0  0  0  0  0  0  0  0  0  0  0  0
    0.8280   20.3210  -33.6870 S   0  0  0  0  0  0  0  0  0  0  0  0
    1.2260   19.1560  -34.5520 O   0  0  0  0  0  0  0  0  0  0  0  0
    1.3670   20.0950  -32.3030 O   0  0  0  0  0  0  0  0  0  0  0  0
    1.4750   21.8100  -34.3280 N   0  0  0  0  0  0  0  0  0  0  0  0
    0.6150   22.3570  -35.3760 C   0  0  0  0  0  0  0  0  0  0  0  0
    1.5120   23.1780  -36.2880 C   0  0  0  0  0  0  0  0  0  0  0  0
    2.9240   22.6780  -36.0220 C   0  0  0  0  0  0  0  0  0  0  0  0
    2.7750   21.5950  -34.9640 C   0  0  0  0  0  0  0  0  0  0  0  0
   -1.5420   21.5490  -33.0210 C   0  0  0  0  0  0  0  0  0  0  0  0
   -2.9360   21.6250  -32.9450 C   0  0  0  0  0  0  0  0  0  0  0  0
   -5.4910   25.1090  -30.8930 C   0  0  0  0  0  0  0  0  0  0  0  0
   -4.1780   25.0790  -30.5890 N   0  0  0  0  0  0  0  0  0  0  0  0
   -2.4299   23.3479  -28.8827 H   0  0  0  0  0  0  0  0  0  0  0  0
   -2.3346   22.3704  -30.3867 H   0  0  0  0  0  0  0  0  0  0  0  0
   -1.7707   24.0759  -30.3867 H   0  0  0  0  0  0  0  0  0  0  0  0
   -4.9511   21.9325  -30.3561 H   0  0  0  0  0  0  0  0  0  0  0  0
   -7.8105   22.8503  -30.2821 H   0  0  0  0  0  0  0  0  0  0  0  0
   -8.0062   24.2638  -31.3810 H   0  0  0  0  0  0  0  0  0  0  0  0
   -6.8800   22.8060  -33.1580 H   0  0  0  0  0  0  0  0  0  0  0  0
  -10.4529   19.1863  -31.9095 H   0  0  0  0  0  0  0  0  0  0  0  0
   -5.6340   21.5060  -33.8070 H   0  0  0  0  0  0  0  0  0  0  0  0
   -3.7241   18.6347  -34.4107 H   0  0  0  0  0  0  0  0  0  0  0  0
   -1.2385   18.5073  -34.5494 H   0  0  0  0  0  0  0  0  0  0  0  0
    0.1416   21.5417  -35.9427 H   0  0  0  0  0  0  0  0  0  0  0  0
   -0.1884   22.9748  -34.9482 H   0  0  0  0  0  0  0  0  0  0  0  0
    1.2392   23.0183  -37.3416 H   0  0  0  0  0  0  0  0  0  0  0  0
    1.4163   24.2564  -36.0934 H   0  0  0  0  0  0  0  0  0  0  0  0
    3.3644   22.2616  -36.9400 H   0  0  0  0  0  0  0  0  0  0  0  0
    3.5893   23.4879  -35.6882 H   0  0  0  0  0  0  0  0  0  0  0  0
    2.8091   20.5999  -35.4316 H   0  0  0  0  0  0  0  0  0  0  0  0
    3.5906   21.6442  -34.2275 H   0  0  0  0  0  0  0  0  0  0  0  0
   -0.9258   22.3658  -32.6170 H   0  0  0  0  0  0  0  0  0  0  0  0
   -3.4110   22.4982  -32.4740 H   0  0  0  0  0  0  0  0  0  0  0  0
   -6.0671   26.0110  -31.1471 H   0  0  0  0  0  0  0  0  0  0  0  0
  1  2  1  0
  2  3  1  0
  3  4  2  0
  4  5  1  0
  5  6  1  0
  6  7  1  0
  7  8  1  0
  8  9  1  0
  9 10  2  0
 10 11  1  0
 11 12  1  0
 12 13  2  0
 12 14  1  0
 14 15  1  0
 15 16  2  0
 16 17  1  0
 17 18  2  0
 18 19  1  0
 19 20  2  0
 19 21  2  0
 19 22  1  0
 22 23  1  0
 23 24  1  0
 24 25  1  0
 25 26  1  0
 18 27  1  0
 27 28  2  0
  4 29  1  0
 29 30  2  0
 30  2  1  0
 11  7  2  0
 28 15  1  0
 26 22  1  0
  1 31  1  0
  1 32  1  0
  1 33  1  0
  3 34  1  0
  5 35  1  0
  5 36  1  0
  6 37  1  0
  9 38  1  0
 14 39  1  0
 16 40  1  0
 17 41  1  0
 23 42  1  0
 23 43  1  0
 24 44  1  0
 24 45  1  0
 25 46  1  0
 25 47  1  0
 26 48  1  0
 26 49  1  0
 27 50  1  0
 28 51  1  0
 29 52  1  0
M  CHG  1   8  -1
M  END
>  <UniqueID>  (9) 
7

>  <SMILES>  (9) 
Cn1cc(CNc2[n-]cnc2C(=O)Nc2ccc(S(=O)(=O)N3CCCC3)cc2)cn1

>  <Energy>  (9) 
114.05887699301604

>  <Genealogy>  (9) 
Cn1cc(CNc2[n-]cnc2C(=O)Nc2ccc(S(=O)(=O)N3CCCC3)cc2)cn1 (protonated)
Cn1cc(CNc2[n-]cnc2C(=O)Nc2ccc(S(=O)(=O)N3CCCC3)cc2)cn1 (3D coordinates assigned)
Cn1cc(CNc2[n-]cnc2C(=O)Nc2ccc(S(=O)(=O)N3CCCC3)cc2)cn1 (nonaromatic ring conformer: 114.05887699301604 kcal/mol)

>  <smiles>  (9) 
Cn1cc(CNc2[nH]cnc2C(=O)Nc2ccc(S(=O)(=O)N3CCCC3)cc2)cn1

>  <score_type>  (9) 
oracle

>  <origin>  (9) 
adgpu

>  <m_score__min__energy>  (9) 
-10.25

>  <m_primary>  (9) 
energy

$$$$
9:0
     RDKit          3D

 53 56  0  0  0  0  0  0  0  0999 V2000
   -0.9990   22.0030  -30.8340 C   0  0  0  0  0  0  0  0  0  0  0  0
   -1.2380   22.7960  -29.5770 C   0  0  0  0  0  0  0  0  0  0  0  0
   -0.1760   22.9850  -28.6760 C   0  0  0  0  0  0  0  0  0  0  0  0
   -0.3650   23.7070  -27.4960 C   0  0  0  0  0  0  0  0  0  0  0  0
   -1.6130   24.2530  -27.2030 C   0  0  0  0  0  0  0  0  0  0  0  0
   -2.6760   24.0910  -28.0930 C   0  0  0  0  0  0  0  0  0  0  0  0
   -2.5000   23.3750  -29.2890 C   0  0  0  0  0  0  0  0  0  0  0  0
   -3.6460   23.2550  -30.2210 C   0  0  0  0  0  0  0  0  0  0  0  0
   -4.0920   21.9840  -30.6180 C   0  0  0  0  0  0  0  0  0  0  0  0
   -5.1730   21.8470  -31.5090 C   0  0  0  0  0  0  0  0  0  0  0  0
   -5.6550   20.5090  -31.9240 C   0  0  0  0  0  0  0  0  0  0  0  0
   -6.5560   19.9370  -31.2500 O   0  0  0  0  0  0  0  0  0  0  0  0
   -5.1420   19.8720  -33.1060 N   0  0  0  0  0  0  0  0  0  0  0  0
   -5.3260   18.4750  -33.3890 C   0  0  0  0  0  0  0  0  0  0  0  0
   -6.6210   17.9330  -33.4710 C   0  0  0  0  0  0  0  0  0  0  0  0
   -6.8050   16.5630  -33.6720 C   0  0  0  0  0  0  0  0  0  0  0  0
   -5.7000   15.7180  -33.7810 C   0  0  0  0  0  0  0  0  0  0  0  0
   -4.4080   16.2410  -33.6930 C   0  0  0  0  0  0  0  0  0  0  0  0
   -4.2090   17.6160  -33.5000 C   0  0  0  0  0  0  0  0  0  0  0  0
   -2.8680   18.1300  -33.4600 N   0  0  0  0  0  0  0  0  0  0  0  0
   -2.5140   19.3350  -34.2090 C   0  0  0  0  0  0  0  0  0  0  0  0
   -1.6300   20.2390  -33.3410 C   0  0  0  0  0  0  0  0  0  0  0  0
   -0.4890   19.4950  -32.7850 N   0  0  0  0  0  0  0  0  0  0  0  0
   -0.9460   18.3650  -31.9620 C   0  0  0  0  0  0  0  0  0  0  0  0
   -1.8010   17.3910  -32.7820 C   0  0  0  0  0  0  0  0  0  0  0  0
   -5.8080   23.0060  -31.9890 C   0  0  0  0  0  0  0  0  0  0  0  0
   -5.3620   24.2720  -31.6030 C   0  0  0  0  0  0  0  0  0  0  0  0
   -4.2840   24.4020  -30.7240 C   0  0  0  0  0  0  0  0  0  0  0  0
   -3.8610   25.6720  -30.3460 O   0  0  0  0  0  0  0  0  0  0  0  0
   -0.6909   20.9807  -30.5696 H   0  0  0  0  0  0  0  0  0  0  0  0
   -1.9257   21.9652  -31.4255 H   0  0  0  0  0  0  0  0  0  0  0  0
   -0.2058   22.4836  -31.4255 H   0  0  0  0  0  0  0  0  0  0  0  0
    0.8131   22.5602  -28.9025 H   0  0  0  0  0  0  0  0  0  0  0  0
    0.4727   23.8450  -26.7965 H   0  0  0  0  0  0  0  0  0  0  0  0
   -1.7609   24.8131  -26.2679 H   0  0  0  0  0  0  0  0  0  0  0  0
   -3.6579   24.5267  -27.8565 H   0  0  0  0  0  0  0  0  0  0  0  0
   -3.5910   21.0855  -30.2284 H   0  0  0  0  0  0  0  0  0  0  0  0
   -4.6970   20.4670  -33.8400 H   0  0  0  0  0  0  0  0  0  0  0  0
   -7.4959   18.5930  -33.3761 H   0  0  0  0  0  0  0  0  0  0  0  0
   -7.8219   16.1499  -33.7444 H   0  0  0  0  0  0  0  0  0  0  0  0
   -5.8466   14.6389  -33.9364 H   0  0  0  0  0  0  0  0  0  0  0  0
   -3.5404   15.5699  -33.7756 H   0  0  0  0  0  0  0  0  0  0  0  0
   -1.9657   19.0521  -35.1197 H   0  0  0  0  0  0  0  0  0  0  0  0
   -3.4310   19.8765  -34.4846 H   0  0  0  0  0  0  0  0  0  0  0  0
   -1.2515   21.0682  -33.9567 H   0  0  0  0  0  0  0  0  0  0  0  0
   -2.2365   20.6200  -32.5061 H   0  0  0  0  0  0  0  0  0  0  0  0
    0.0950   19.1280  -33.5740 H   0  0  0  0  0  0  0  0  0  0  0  0
   -0.0691   17.8295  -31.5694 H   0  0  0  0  0  0  0  0  0  0  0  0
   -1.5603   18.7596  -31.1392 H   0  0  0  0  0  0  0  0  0  0  0  0
   -1.1697   16.8894  -33.5303 H   0  0  0  0  0  0  0  0  0  0  0  0
   -2.2440   16.6389  -32.1126 H   0  0  0  0  0  0  0  0  0  0  0  0
   -6.6635   22.9149  -32.6745 H   0  0  0  0  0  0  0  0  0  0  0  0
   -5.8619   25.1709  -31.9929 H   0  0  0  0  0  0  0  0  0  0  0  0
  1  2  1  0
  2  3  2  0
  3  4  1  0
  4  5  2  0
  5  6  1  0
  6  7  2  0
  7  8  1  0
  8  9  2  0
  9 10  1  0
 10 11  1  0
 11 12  2  0
 11 13  1  0
 13 14  1  0
 14 15  2  0
 15 16  1  0
 16 17  2  0
 17 18  1  0
 18 19  2  0
 19 20  1  0
 20 21  1  0
 21 22  1  0
 22 23  1  0
 23 24  1  0
 24 25  1  0
 10 26  2  0
 26 27  1  0
 27 28  2  0
 28 29  1  0
  7  2  1  0
 28  8  1  0
 19 14  1  0
 25 20  1  0
  1 30  1  0
  1 31  1  0
  1 32  1  0
  3 33  1  0
  4 34  1  0
  5 35  1  0
  6 36  1  0
  9 37  1  0
 13 38  1  0
 15 39  1  0
 16 40  1  0
 17 41  1  0
 18 42  1  0
 21 43  1  0
 21 44  1  0
 22 45  1  0
 22 46  1  0
 23 47  1  0
 24 48  1  0
 24 49  1  0
 25 50  1  0
 25 51  1  0
 26 52  1  0
 27 53  1  0
M  CHG  1  29  -1
M  END
>  <UniqueID>  (10) 
8

>  <SMILES>  (10) 
Cc1ccccc1-c1cc(C(=O)Nc2ccccc2N2CCNCC2)ccc1[O-]

>  <Energy>  (10) 
73.85584674391309

>  <Genealogy>  (10) 
Cc1ccccc1-c1cc(C(=O)Nc2ccccc2N2CCNCC2)ccc1[O-] (protonated)
Cc1ccccc1-c1cc(C(=O)Nc2ccccc2N2CCNCC2)ccc1[O-] (3D coordinates assigned)
Cc1ccccc1-c1cc(C(=O)Nc2ccccc2N2CCNCC2)ccc1[O-] (nonaromatic ring conformer: 73.85584674391309 kcal/mol)

>  <smiles>  (10) 
Cc1ccccc1-c1cc(C(=O)Nc2ccccc2N2CCNCC2)ccc1O

>  <score_type>  (10) 
oracle

>  <origin>  (10) 
adgpu

>  <m_score__min__energy>  (10) 
-11.44

>  <m_primary>  (10) 
energy

$$$$
10:0
     RDKit          3D

 32 34  0  0  0  0  0  0  0  0999 V2000
   -3.4260   21.9770  -32.4840 C   0  0  0  0  0  0  0  0  0  0  0  0
   -4.8850   21.7620  -32.2380 C   0  0  0  0  0  0  0  0  0  0  0  0
   -5.6120   20.8050  -32.8630 N   0  0  0  0  0  0  0  0  0  0  0  0
   -6.8670   20.9330  -32.3990 C   0  0  0  0  0  0  0  0  0  0  0  0
   -7.9820   20.1780  -32.7640 C   0  0  0  0  0  0  0  0  0  0  0  0
   -9.2150   20.4940  -32.1650 C   0  0  0  0  0  0  0  0  0  0  0  0
   -9.3060   21.5470  -31.2270 C   0  0  0  0  0  0  0  0  0  0  0  0
   -8.1650   22.2930  -30.8780 C   0  0  0  0  0  0  0  0  0  0  0  0
   -6.9550   21.9530  -31.4860 C   0  0  0  0  0  0  0  0  0  0  0  0
   -5.6900   22.4930  -31.3610 C   0  0  0  0  0  0  0  0  0  0  0  0
   -5.2370   23.8650  -30.3540 S   0  0  0  0  0  0  0  0  0  0  0  0
   -6.4440   24.4580  -29.6840 O   0  0  0  0  0  0  0  0  0  0  0  0
   -4.6110   24.9240  -31.2170 O   0  0  0  0  0  0  0  0  0  0  0  0
   -4.1030   23.3190  -29.1250 C   0  0  0  0  0  0  0  0  0  0  0  0
   -3.6280   22.0000  -29.1560 C   0  0  0  0  0  0  0  0  0  0  0  0
   -2.7100   21.5610  -28.1960 C   0  0  0  0  0  0  0  0  0  0  0  0
   -2.2610   22.4380  -27.2050 C   0  0  0  0  0  0  0  0  0  0  0  0
   -2.7270   23.7550  -27.1740 C   0  0  0  0  0  0  0  0  0  0  0  0
   -3.6450   24.1970  -28.1320 C   0  0  0  0  0  0  0  0  0  0  0  0
   -2.8994   22.0546  -31.5214 H   0  0  0  0  0  0  0  0  0  0  0  0
   -3.0217   21.1287  -33.0558 H   0  0  0  0  0  0  0  0  0  0  0  0
   -3.2835   22.9058  -33.0558 H   0  0  0  0  0  0  0  0  0  0  0  0
   -5.2700   20.1150  -33.5690 H   0  0  0  0  0  0  0  0  0  0  0  0
   -7.8996   19.3617  -33.4967 H   0  0  0  0  0  0  0  0  0  0  0  0
  -10.1141   19.9177  -32.4285 H   0  0  0  0  0  0  0  0  0  0  0  0
  -10.2760   21.7853  -30.7662 H   0  0  0  0  0  0  0  0  0  0  0  0
   -8.2244   23.1162  -30.1508 H   0  0  0  0  0  0  0  0  0  0  0  0
   -3.9780   21.3089  -29.9370 H   0  0  0  0  0  0  0  0  0  0  0  0
   -2.3414   20.5249  -28.2212 H   0  0  0  0  0  0  0  0  0  0  0  0
   -1.5407   22.0916  -26.4493 H   0  0  0  0  0  0  0  0  0  0  0  0
   -2.3712   24.4452  -26.3949 H   0  0  0  0  0  0  0  0  0  0  0  0
   -4.0084   25.2349  -28.1066 H   0  0  0  0  0  0  0  0  0  0  0  0
  1  2  1  0
  2  3  1  0
  3  4  1  0
  4  5  2  0
  5  6  1  0
  6  7  2  0
  7  8  1  0
  8  9  2  0
  9 10  1  0
 10 11  1  0
 11 12  2  0
 11 13  2  0
 11 14  1  0
 14 15  2  0
 15 16  1  0
 16 17  2  0
 17 18  1  0
 18 19  2  0
 10  2  2  0
 19 14  1  0
  9  4  1  0
  1 20  1  0
  1 21  1  0
  1 22  1  0
  3 23  1  0
  5 24  1  0
  6 25  1  0
  7 26  1  0
  8 27  1  0
 15 28  1  0
 16 29  1  0
 17 30  1  0
 18 31  1  0
 19 32  1  0
M  END
>  <UniqueID>  (11) 
9

>  <SMILES>  (11) 
Cc1[nH]c2ccccc2c1S(=O)(=O)c1ccccc1

>  <Energy>  (11) 
68.40902973896686

>  <Genealogy>  (11) 
Cc1[nH]c2ccccc2c1S(=O)(=O)c1ccccc1 (3D coordinates assigned)
Cc1[nH]c2ccccc2c1S(=O)(=O)c1ccccc1 (optimized conformer: 68.40902973896686 kcal/mol)

>  <smiles>  (11) 
Cc1[nH]c2ccccc2c1S(=O)(=O)c1ccccc1

>  <score_type>  (11) 
oracle

>  <origin>  (11) 
adgpu

>  <m_score__min__energy>  (11) 
-7.6900000000000004

>  <m_primary>  (11) 
energy

$$$$
11:0
     RDKit          3D

 39 41  0  0  0  0  0  0  0  0999 V2000
   -1.5650   19.3430  -33.8670 C   0  0  0  0  0  0  0  0  0  0  0  0
   -2.9620   18.8160  -33.7970 C   0  0  0  0  0  0  0  0  0  0  0  0
   -3.3500   17.6690  -34.3900 N   0  0  0  0  0  0  0  0  0  0  0  0
   -4.6620   17.5640  -34.0860 C   0  0  0  0  0  0  0  0  0  0  0  0
   -5.5080   16.4260  -34.5660 C   0  0  0  0  0  0  0  0  0  0  0  0
   -5.1100   18.5880  -33.3220 N   0  0  0  0  0  0  0  0  0  0  0  0
   -6.4580   18.8170  -32.8760 C   0  0  0  0  0  0  0  0  0  0  0  0
   -7.0370   17.9770  -31.9110 C   0  0  0  0  0  0  0  0  0  0  0  0
   -8.3530   18.1890  -31.4890 C   0  0  0  0  0  0  0  0  0  0  0  0
   -9.0990   19.2410  -32.0270 C   0  0  0  0  0  0  0  0  0  0  0  0
   -8.5290   20.0810  -32.9880 C   0  0  0  0  0  0  0  0  0  0  0  0
   -7.2150   19.8710  -33.4130 C   0  0  0  0  0  0  0  0  0  0  0  0
   -4.0400   19.3960  -33.1510 C   0  0  0  0  0  0  0  0  0  0  0  0
   -4.0300   20.6450  -32.3560 C   0  0  0  0  0  0  0  0  0  0  0  0
   -4.8090   21.7420  -32.7530 C   0  0  0  0  0  0  0  0  0  0  0  0
   -4.7890   22.9280  -32.0120 C   0  0  0  0  0  0  0  0  0  0  0  0
   -3.9940   23.0270  -30.8640 C   0  0  0  0  0  0  0  0  0  0  0  0
   -3.9520   24.5260  -29.9410 S   0  0  0  0  0  0  0  0  0  0  0  0
   -2.3550   24.7880  -29.3380 N   0  0  0  0  0  0  0  0  0  0  0  0
   -4.9160   24.4440  -28.7910 O   0  0  0  0  0  0  0  0  0  0  0  0
   -4.3490   25.6770  -30.8210 O   0  0  0  0  0  0  0  0  0  0  0  0
   -3.2100   21.9350  -30.4680 C   0  0  0  0  0  0  0  0  0  0  0  0
   -3.2300   20.7500  -31.2080 C   0  0  0  0  0  0  0  0  0  0  0  0
   -1.1769   19.4894  -32.8482 H   0  0  0  0  0  0  0  0  0  0  0  0
   -0.9280   18.6234  -34.4021 H   0  0  0  0  0  0  0  0  0  0  0  0
   -1.5620   20.3040  -34.4021 H   0  0  0  0  0  0  0  0  0  0  0  0
   -5.9136   15.8804  -33.7012 H   0  0  0  0  0  0  0  0  0  0  0  0
   -6.3368   16.8165  -35.1747 H   0  0  0  0  0  0  0  0  0  0  0  0
   -4.8952   15.7449  -35.1747 H   0  0  0  0  0  0  0  0  0  0  0  0
   -6.4524   17.1483  -31.4851 H   0  0  0  0  0  0  0  0  0  0  0  0
   -8.8013   17.5274  -30.7332 H   0  0  0  0  0  0  0  0  0  0  0  0
  -10.1342   19.4080  -31.6945 H   0  0  0  0  0  0  0  0  0  0  0  0
   -9.1166   20.9094  -33.4106 H   0  0  0  0  0  0  0  0  0  0  0  0
   -6.7716   20.5335  -34.1710 H   0  0  0  0  0  0  0  0  0  0  0  0
   -5.4389   21.6690  -33.6518 H   0  0  0  0  0  0  0  0  0  0  0  0
   -5.3995   23.7852  -32.3321 H   0  0  0  0  0  0  0  0  0  0  0  0
   -1.8280   25.2980  -30.0810 H   0  0  0  0  0  0  0  0  0  0  0  0
   -2.5768   22.0110  -29.5717 H   0  0  0  0  0  0  0  0  0  0  0  0
   -2.6156   19.8952  -30.8891 H   0  0  0  0  0  0  0  0  0  0  0  0
  1  2  1  0
  2  3  1  0
  3  4  2  0
  4  5  1  0
  4  6  1  0
  6  7  1  0
  7  8  2  0
  8  9  1  0
  9 10  2  0
 10 11  1  0
 11 12  2  0
  6 13  1  0
 13 14  1  0
 14 15  2  0
 15 16  1  0
 16 17  2  0
 17 18  1  0
 18 19  1  0
 18 20  2  0
 18 21  2  0
 17 22  1  0
 22 23  2  0
 13  2  2  0
 23 14  1  0
 12  7  1  0
  1 24  1  0
  1 25  1  0
  1 26  1  0
  5 27  1  0
  5 28  1  0
  5 29  1  0
  8 30  1  0
  9 31  1  0
 10 32  1  0
 11 33  1  0
 12 34  1  0
 15 35  1  0
 16 36  1  0
 19 37  1  0
 22 38  1  0
 23 39  1  0
M  CHG  1  19  -1
M  END
>  <UniqueID>  (12) 
10

>  <SMILES>  (12) 
Cc1nc(C)n(-c2ccccc2)c1-c1ccc(S([NH-])(=O)=O)cc1

>  <Energy>  (12) 
78.98676827868863

>  <Genealogy>  (12) 
Cc1nc(C)n(-c2ccccc2)c1-c1ccc(S([NH-])(=O)=O)cc1 (protonated)
Cc1nc(C)n(-c2ccccc2)c1-c1ccc(S([NH-])(=O)=O)cc1 (3D coordinates assigned)
Cc1nc(C)n(-c2ccccc2)c1-c1ccc(S([NH-])(=O)=O)cc1 (optimized conformer: 78.98676827868863 kcal/mol)

>  <smiles>  (12) 
Cc1nc(C)n(-c2ccccc2)c1-c1ccc(S(N)(=O)=O)cc1

>  <score_type>  (12) 
oracle

>  <origin>  (12) 
adgpu

>  <m_score__min__energy>  (12) 
-10.99

>  <m_primary>  (12) 
energy

$$$$
12:0
     RDKit          3D

 54 57  0  0  0  0  0  0  0  0999 V2000
   -5.9790   19.1280  -32.9750 C   0  0  0  0  0  0  0  0  0  0  0  0
   -5.5650   20.4520  -32.4170 C   0  0  0  0  0  0  0  0  0  0  0  0
   -4.2010   20.7730  -32.2830 C   0  0  0  0  0  0  0  0  0  0  0  0
   -3.8040   22.0010  -31.7100 C   0  0  0  0  0  0  0  0  0  0  0  0
   -2.3410   22.2990  -31.5480 C   0  0  0  0  0  0  0  0  0  0  0  0
   -4.8190   22.8920  -31.2920 C   0  0  0  0  0  0  0  0  0  0  0  0
   -4.7060   24.1690  -30.6930 C   0  0  0  0  0  0  0  0  0  0  0  0
   -3.4660   24.8400  -30.4420 N   0  0  0  0  0  0  0  0  0  0  0  0
   -2.8490   24.9190  -29.1500 C   0  0  0  0  0  0  0  0  0  0  0  0
   -1.8470   25.6690  -28.9960 O   0  0  0  0  0  0  0  0  0  0  0  0
   -3.3070   24.0580  -27.9980 C   0  0  0  0  0  0  0  0  0  0  0  0
   -2.5660   22.7760  -27.9540 N   0  0  0  0  0  0  0  0  0  0  0  0
   -1.6320   22.7340  -26.7920 C   0  0  0  0  0  0  0  0  0  0  0  0
   -1.2220   21.3010  -26.3900 C   0  0  0  0  0  0  0  0  0  0  0  0
   -1.4180   20.3780  -27.5130 N   0  0  0  0  0  0  0  0  0  0  0  0
   -0.3500   19.5330  -27.9760 C   0  0  0  0  0  0  0  0  0  0  0  0
    0.6340   20.0500  -28.8380 C   0  0  0  0  0  0  0  0  0  0  0  0
    1.6650   19.2310  -29.3000 C   0  0  0  0  0  0  0  0  0  0  0  0
    1.7310   17.8930  -28.8970 C   0  0  0  0  0  0  0  0  0  0  0  0
    0.7730   17.3740  -28.0240 C   0  0  0  0  0  0  0  0  0  0  0  0
   -0.2630   18.1910  -27.5580 C   0  0  0  0  0  0  0  0  0  0  0  0
   -1.1570   17.6810  -26.6730 F   0  0  0  0  0  0  0  0  0  0  0  0
   -2.7380   20.3160  -28.1500 C   0  0  0  0  0  0  0  0  0  0  0  0
   -3.5060   21.6330  -27.9330 C   0  0  0  0  0  0  0  0  0  0  0  0
   -5.9440   24.7210  -30.3420 C   0  0  0  0  0  0  0  0  0  0  0  0
   -6.1770   26.0450  -29.6880 C   0  0  0  0  0  0  0  0  0  0  0  0
   -7.1830   23.6700  -30.8060 S   0  0  0  0  0  0  0  0  0  0  0  0
   -6.1470   22.5080  -31.4300 C   0  0  0  0  0  0  0  0  0  0  0  0
   -6.5150   21.3220  -31.9720 N   0  0  0  0  0  0  0  0  0  0  0  0
   -6.1960   18.4339  -32.1497 H   0  0  0  0  0  0  0  0  0  0  0  0
   -6.8800   19.2561  -33.5929 H   0  0  0  0  0  0  0  0  0  0  0  0
   -5.1656   18.7200  -33.5929 H   0  0  0  0  0  0  0  0  0  0  0  0
   -3.4372   20.0605  -32.6279 H   0  0  0  0  0  0  0  0  0  0  0  0
   -2.0934   22.3494  -30.4774 H   0  0  0  0  0  0  0  0  0  0  0  0
   -1.7497   21.5028  -32.0240 H   0  0  0  0  0  0  0  0  0  0  0  0
   -2.1083   23.2630  -32.0240 H   0  0  0  0  0  0  0  0  0  0  0  0
   -3.1390   24.6011  -27.0563 H   0  0  0  0  0  0  0  0  0  0  0  0
   -4.3756   23.8359  -28.1350 H   0  0  0  0  0  0  0  0  0  0  0  0
   -2.0010   22.7010  -28.8320 H   0  0  0  0  0  0  0  0  0  0  0  0
   -0.7237   23.2967  -27.0535 H   0  0  0  0  0  0  0  0  0  0  0  0
   -2.1598   23.1750  -25.9335 H   0  0  0  0  0  0  0  0  0  0  0  0
   -0.1615   21.2961  -26.0979 H   0  0  0  0  0  0  0  0  0  0  0  0
   -1.8483   20.9744  -25.5468 H   0  0  0  0  0  0  0  0  0  0  0  0
    0.5906   21.1042  -29.1492 H   0  0  0  0  0  0  0  0  0  0  0  0
    2.4265   19.6378  -29.9817 H   0  0  0  0  0  0  0  0  0  0  0  0
    2.5404   17.2477  -29.2692 H   0  0  0  0  0  0  0  0  0  0  0  0
    0.8326   16.3236  -27.7028 H   0  0  0  0  0  0  0  0  0  0  0  0
   -2.6111   20.1449  -29.2292 H   0  0  0  0  0  0  0  0  0  0  0  0
   -3.3113   19.4924  -27.6994 H   0  0  0  0  0  0  0  0  0  0  0  0
   -4.2492   21.7577  -28.7343 H   0  0  0  0  0  0  0  0  0  0  0  0
   -4.0122   21.5994  -26.9570 H   0  0  0  0  0  0  0  0  0  0  0  0
   -6.1555   25.9229  -28.5950 H   0  0  0  0  0  0  0  0  0  0  0  0
   -5.3889   26.7488  -29.9939 H   0  0  0  0  0  0  0  0  0  0  0  0
   -7.1580   26.4375  -29.9939 H   0  0  0  0  0  0  0  0  0  0  0  0
  1  2  1  0
  2  3  2  0
  3  4  1  0
  4  5  1  0
  4  6  2  0
  6  7  1  0
  7  8  1  0
  8  9  1  0
  9 10  2  0
  9 11  1  0
 11 12  1  0
 12 13  1  0
 13 14  1  0
 14 15  1  0
 15 16  1  0
 16 17  2  0
 17 18  1  0
 18 19  2  0
 19 20  1  0
 20 21  2  0
 21 22  1  0
 15 23  1  0
 23 24  1  0
  7 25  2  0
 25 26  1  0
 25 27  1  0
 27 28  1  0
 28 29  2  0
 29  2  1  0
 28  6  1  0
 24 12  1  0
 21 16  1  0
  1 30  1  0
  1 31  1  0
  1 32  1  0
  3 33  1  0
  5 34  1  0
  5 35  1  0
  5 36  1  0
 11 37  1  0
 11 38  1  0
 12 39  1  0
 13 40  1  0
 13 41  1  0
 14 42  1  0
 14 43  1  0
 17 44  1  0
 18 45  1  0
 19 46  1  0
 20 47  1  0
 23 48  1  0
 23 49  1  0
 24 50  1  0
 24 51  1  0
 26 52  1  0
 26 53  1  0
 26 54  1  0
M  CHG  2   8  -1  12   1
M  END
>  <UniqueID>  (13) 
11

>  <SMILES>  (13) 
Cc1cc(C)c2c([N-]C(=O)C[NH+]3CCN(c4ccccc4F)CC3)c(C)sc2n1

>  <Energy>  (13) 
105.98169146960532

>  <Genealogy>  (13) 
Cc1cc(C)c2c([N-]C(=O)C[NH+]3CCN(c4ccccc4F)CC3)c(C)sc2n1 (protonated)
Cc1cc(C)c2c([N-]C(=O)C[NH+]3CCN(c4ccccc4F)CC3)c(C)sc2n1 (3D coordinates assigned)
Cc1cc(C)c2c([N-]C(=O)C[NH+]3CCN(c4ccccc4F)CC3)c(C)sc2n1 (nonaromatic ring conformer: 105.98169146960532 kcal/mol)

>  <smiles>  (13) 
Cc1cc(C)c2c(NC(=O)CN3CCN(c4ccccc4F)CC3)c(C)sc2n1

>  <score_type>  (13) 
oracle

>  <origin>  (13) 
adgpu

>  <m_score__min__energy>  (13) 
-10.08

>  <m_primary>  (13) 
energy

$$$$
13:0
     RDKit          3D

 57 61  0  0  0  0  0  0  0  0999 V2000
   -0.2450   19.4140  -34.4390 C   0  0  0  0  0  0  0  0  0  0  0  0
   -1.4000   19.9010  -33.6140 C   0  0  0  0  0  0  0  0  0  0  0  0
   -2.6640   19.7110  -34.0970 N   0  0  0  0  0  0  0  0  0  0  0  0
   -3.7220   20.1410  -33.3730 C   0  0  0  0  0  0  0  0  0  0  0  0
   -5.0570   20.0290  -33.6760 C   0  0  0  0  0  0  0  0  0  0  0  0
   -5.6800   20.6150  -32.5680 C   0  0  0  0  0  0  0  0  0  0  0  0
   -7.1400   20.7700  -32.3520 C   0  0  0  0  0  0  0  0  0  0  0  0
   -7.6530   21.9950  -31.8880 C   0  0  0  0  0  0  0  0  0  0  0  0
   -9.0260   22.1560  -31.6800 C   0  0  0  0  0  0  0  0  0  0  0  0
   -9.9020   21.0980  -31.9320 C   0  0  0  0  0  0  0  0  0  0  0  0
   -9.4060   19.8770  -32.3940 C   0  0  0  0  0  0  0  0  0  0  0  0
   -8.0340   19.7100  -32.6040 C   0  0  0  0  0  0  0  0  0  0  0  0
   -4.7470   21.0370  -31.6780 N   0  0  0  0  0  0  0  0  0  0  0  0
   -3.5680   20.7400  -32.1930 N   0  0  0  0  0  0  0  0  0  0  0  0
   -2.3510   20.9660  -31.6390 C   0  0  0  0  0  0  0  0  0  0  0  0
   -2.2510   21.5880  -30.3510 N   0  0  0  0  0  0  0  0  0  0  0  0
   -2.2810   20.7450  -29.1500 C   0  0  0  0  0  0  0  0  0  0  0  0
   -2.5400   21.5740  -27.8870 C   0  0  0  0  0  0  0  0  0  0  0  0
   -1.6890   22.7730  -27.8650 N   0  0  0  0  0  0  0  0  0  0  0  0
   -1.2050   23.2960  -26.6070 C   0  0  0  0  0  0  0  0  0  0  0  0
   -0.6060   22.4440  -25.6640 C   0  0  0  0  0  0  0  0  0  0  0  0
   -0.1220   22.9520  -24.4570 C   0  0  0  0  0  0  0  0  0  0  0  0
   -0.2350   24.3140  -24.1720 C   0  0  0  0  0  0  0  0  0  0  0  0
   -0.8520   25.1830  -25.0870 C   0  0  0  0  0  0  0  0  0  0  0  0
   -0.9250   26.6620  -24.8060 C   0  0  0  0  0  0  0  0  0  0  0  0
   -1.6350   27.2830  -25.8160 F   0  0  0  0  0  0  0  0  0  0  0  0
    0.3430   27.2130  -24.7420 F   0  0  0  0  0  0  0  0  0  0  0  0
   -1.5600   26.8970  -23.5980 F   0  0  0  0  0  0  0  0  0  0  0  0
   -1.3120   24.6690  -26.3130 C   0  0  0  0  0  0  0  0  0  0  0  0
   -1.4560   23.5390  -29.1010 C   0  0  0  0  0  0  0  0  0  0  0  0
   -2.3420   23.0450  -30.2460 C   0  0  0  0  0  0  0  0  0  0  0  0
   -1.2030   20.5680  -32.3680 C   0  0  0  0  0  0  0  0  0  0  0  0
    0.1810   20.8020  -31.8170 C   0  0  0  0  0  0  0  0  0  0  0  0
    0.5626   19.0735  -33.7743 H   0  0  0  0  0  0  0  0  0  0  0  0
   -0.5744   18.5782  -35.0737 H   0  0  0  0  0  0  0  0  0  0  0  0
    0.1235   20.2334  -35.0737 H   0  0  0  0  0  0  0  0  0  0  0  0
   -5.5222   19.5874  -34.5696 H   0  0  0  0  0  0  0  0  0  0  0  0
   -6.9686   22.8325  -31.6873 H   0  0  0  0  0  0  0  0  0  0  0  0
   -9.4171   23.1179  -31.3171 H   0  0  0  0  0  0  0  0  0  0  0  0
  -10.9819   21.2263  -31.7667 H   0  0  0  0  0  0  0  0  0  0  0  0
  -10.0967   19.0444  -32.5932 H   0  0  0  0  0  0  0  0  0  0  0  0
   -7.6500   18.7456  -32.9680 H   0  0  0  0  0  0  0  0  0  0  0  0
   -3.0815   19.9982  -29.2576 H   0  0  0  0  0  0  0  0  0  0  0  0
   -1.3007   20.2568  -29.0469 H   0  0  0  0  0  0  0  0  0  0  0  0
   -3.5961   21.8811  -27.8676 H   0  0  0  0  0  0  0  0  0  0  0  0
   -2.3038   20.9581  -27.0067 H   0  0  0  0  0  0  0  0  0  0  0  0
   -0.5177   21.3687  -25.8783 H   0  0  0  0  0  0  0  0  0  0  0  0
    0.3500   22.2768  -23.7281 H   0  0  0  0  0  0  0  0  0  0  0  0
    0.1616   24.7091  -23.2251 H   0  0  0  0  0  0  0  0  0  0  0  0
   -1.7613   25.3487  -27.0520 H   0  0  0  0  0  0  0  0  0  0  0  0
   -1.6773   24.5996  -28.9106 H   0  0  0  0  0  0  0  0  0  0  0  0
   -0.4051   23.4034  -29.3965 H   0  0  0  0  0  0  0  0  0  0  0  0
   -3.3856   23.3324  -30.0502 H   0  0  0  0  0  0  0  0  0  0  0  0
   -2.0029   23.4987  -31.1890 H   0  0  0  0  0  0  0  0  0  0  0  0
    0.1439   20.7957  -30.7176 H   0  0  0  0  0  0  0  0  0  0  0  0
    0.8541   20.0049  -32.1657 H   0  0  0  0  0  0  0  0  0  0  0  0
    0.5546   21.7761  -32.1657 H   0  0  0  0  0  0  0  0  0  0  0  0
  1  2  1  0
  2  3  2  0
  3  4  1  0
  4  5  2  0
  5  6  1  0
  6  7  1  0
  7  8  2  0
  8  9  1  0
  9 10  2  0
 10 11  1  0
 11 12  2  0
  6 13  2  0
 13 14  1  0
 14 15  1  0
 15 16  1  0
 16 17  1  0
 17 18  1  0
 18 19  1  0
 19 20  1  0
 20 21  2  0
 21 22  1  0
 22 23  2  0
 23 24  1  0
 24 25  1  0
 25 26  1  0
 25 27  1  0
 25 28  1  0
 24 29  2  0
 19 30  1  0
 30 31  1  0
 15 32  2  0
 32 33  1  0
 32  2  1  0
 14  4  1  0
 31 16  1  0
 12  7  1  0
 29 20  1  0
  1 34  1  0
  1 35  1  0
  1 36  1  0
  5 37  1  0
  8 38  1  0
  9 39  1  0
 10 40  1  0
 11 41  1  0
 12 42  1  0
 17 43  1  0
 17 44  1  0
 18 45  1  0
 18 46  1  0
 21 47  1  0
 22 48  1  0
 23 49  1  0
 29 50  1  0
 30 51  1  0
 30 52  1  0
 31 53  1  0
 31 54  1  0
 33 55  1  0
 33 56  1  0
 33 57  1  0
M  END
>  <UniqueID>  (14) 
12

>  <SMILES>  (14) 
Cc1nc2cc(-c3ccccc3)nn2c(N2CCN(c3cccc(C(F)(F)F)c3)CC2)c1C

>  <Energy>  (14) 
109.02879246002007

>  <Genealogy>  (14) 
Cc1nc2cc(-c3ccccc3)nn2c(N2CCN(c3cccc(C(F)(F)F)c3)CC2)c1C (3D coordinates assigned)
Cc1nc2cc(-c3ccccc3)nn2c(N2CCN(c3cccc(C(F)(F)F)c3)CC2)c1C (nonaromatic ring conformer: 109.02879246002007 kcal/mol)

>  <smiles>  (14) 
Cc1nc2cc(-c3ccccc3)nn2c(N2CCN(c3cccc(C(F)(F)F)c3)CC2)c1C

>  <score_type>  (14) 
oracle

>  <origin>  (14) 
adgpu

>  <m_score__min__energy>  (14) 
-8.4700000000000006

>  <m_primary>  (14) 
energy

$$$$
14:0
     RDKit          3D

 48 50  0  0  0  0  0  0  0  0999 V2000
   -7.6180   20.1350  -32.9420 C   0  0  0  0  0  0  0  0  0  0  0  0
   -6.9880   21.3240  -32.2720 C   0  0  0  0  0  0  0  0  0  0  0  0
   -7.7990   22.2150  -31.5520 C   0  0  0  0  0  0  0  0  0  0  0  0
   -7.2460   23.3270  -30.9150 C   0  0  0  0  0  0  0  0  0  0  0  0
   -5.8720   23.5650  -30.9870 C   0  0  0  0  0  0  0  0  0  0  0  0
   -5.1610   24.9810  -30.2140 S   0  0  0  0  0  0  0  0  0  0  0  0
   -5.6450   26.2500  -30.8620 O   0  0  0  0  0  0  0  0  0  0  0  0
   -5.5650   24.9940  -28.7650 O   0  0  0  0  0  0  0  0  0  0  0  0
   -3.4340   24.9050  -30.3220 N   0  0  0  0  0  0  0  0  0  0  0  0
   -2.5700   24.2930  -29.3530 C   0  0  0  0  0  0  0  0  0  0  0  0
   -2.7910   22.9870  -28.8810 C   0  0  0  0  0  0  0  0  0  0  0  0
   -1.9300   22.4190  -27.9350 C   0  0  0  0  0  0  0  0  0  0  0  0
   -2.2370   20.7830  -27.3580 S   0  0  0  0  0  0  0  0  0  0  0  0
   -1.5270   20.5650  -26.0490 O   0  0  0  0  0  0  0  0  0  0  0  0
   -3.7150   20.6260  -27.1330 O   0  0  0  0  0  0  0  0  0  0  0  0
   -1.6720   19.6490  -28.5690 N   0  0  0  0  0  0  0  0  0  0  0  0
   -1.3220   20.3340  -29.8310 C   0  0  0  0  0  0  0  0  0  0  0  0
    0.1920   20.5790  -29.9730 C   0  0  0  0  0  0  0  0  0  0  0  0
    0.7740   20.7880  -28.7020 O   0  0  0  0  0  0  0  0  0  0  0  0
    0.7650   19.5830  -27.9600 C   0  0  0  0  0  0  0  0  0  0  0  0
   -0.5720   18.8100  -28.0610 C   0  0  0  0  0  0  0  0  0  0  0  0
   -0.8250   23.1490  -27.4740 C   0  0  0  0  0  0  0  0  0  0  0  0
   -0.5960   24.4420  -27.9450 C   0  0  0  0  0  0  0  0  0  0  0  0
   -1.4660   25.0160  -28.8770 C   0  0  0  0  0  0  0  0  0  0  0  0
   -1.2270   26.3120  -29.3300 O   0  0  0  0  0  0  0  0  0  0  0  0
   -5.0520   22.6770  -31.6890 C   0  0  0  0  0  0  0  0  0  0  0  0
   -5.5940   21.5430  -32.3180 C   0  0  0  0  0  0  0  0  0  0  0  0
   -4.6760   20.6180  -33.0700 C   0  0  0  0  0  0  0  0  0  0  0  0
   -7.9881   19.4365  -32.1771 H   0  0  0  0  0  0  0  0  0  0  0  0
   -8.4571   20.4697  -33.5696 H   0  0  0  0  0  0  0  0  0  0  0  0
   -6.8698   19.6287  -33.5696 H   0  0  0  0  0  0  0  0  0  0  0  0
   -8.8823   22.0349  -31.4891 H   0  0  0  0  0  0  0  0  0  0  0  0
   -7.8940   24.0174  -30.3551 H   0  0  0  0  0  0  0  0  0  0  0  0
   -3.6467   22.4076  -29.2580 H   0  0  0  0  0  0  0  0  0  0  0  0
   -1.6587   19.7127  -30.6740 H   0  0  0  0  0  0  0  0  0  0  0  0
   -1.8188   21.3154  -29.8257 H   0  0  0  0  0  0  0  0  0  0  0  0
    0.6590   19.7030  -30.4468 H   0  0  0  0  0  0  0  0  0  0  0  0
    0.3543   21.4727  -30.5934 H   0  0  0  0  0  0  0  0  0  0  0  0
    1.5713   18.9359  -28.3357 H   0  0  0  0  0  0  0  0  0  0  0  0
    0.9064   19.8512  -26.9026 H   0  0  0  0  0  0  0  0  0  0  0  0
   -0.4357   17.9569  -28.7419 H   0  0  0  0  0  0  0  0  0  0  0  0
   -0.8443   18.4794  -27.0478 H   0  0  0  0  0  0  0  0  0  0  0  0
   -0.1382   22.7017  -26.7404 H   0  0  0  0  0  0  0  0  0  0  0  0
    0.2720   25.0119  -27.5819 H   0  0  0  0  0  0  0  0  0  0  0  0
   -3.9704   22.8678  -31.7498 H   0  0  0  0  0  0  0  0  0  0  0  0
   -4.0872   20.0247  -32.3550 H   0  0  0  0  0  0  0  0  0  0  0  0
   -5.2723   19.9439  -33.7024 H   0  0  0  0  0  0  0  0  0  0  0  0
   -3.9974   21.2092  -33.7024 H   0  0  0  0  0  0  0  0  0  0  0  0
  1  2  1  0
  2  3  2  0
  3  4  1  0
  4  5  2  0
  5  6  1  0
  6  7  2  0
  6  8  2  0
  6  9  1  0
  9 10  1  0
 10 11  2  0
 11 12  1  0
 12 13  1  0
 13 14  2  0
 13 15  2  0
 13 16  1  0
 16 17  1  0
 17 18  1  0
 18 19  1  0
 19 20  1  0
 20 21  1  0
 12 22  2  0
 22 23  1  0
 23 24  2  0
 24 25  1  0
  5 26  1  0
 26 27  2  0
 27 28  1  0
 27  2  1  0
 24 10  1  0
 21 16  1  0
  1 29  1  0
  1 30  1  0
  1 31  1  0
  3 32  1  0
  4 33  1  0
 11 34  1  0
 17 35  1  0
 17 36  1  0
 18 37  1  0
 18 38  1  0
 20 39  1  0
 20 40  1  0
 21 41  1  0
 21 42  1  0
 22 43  1  0
 23 44  1  0
 26 45  1  0
 28 46  1  0
 28 47  1  0
 28 48  1  0
M  CHG  2   9  -1  25  -1
M  END
>  <UniqueID>  (15) 
13

>  <SMILES>  (15) 
Cc1ccc(S(=O)(=O)[N-]c2cc(S(=O)(=O)N3CCOCC3)ccc2[O-])cc1C

>  <Energy>  (15) 
63.083169413453646

>  <Genealogy>  (15) 
Cc1ccc(S(=O)(=O)[N-]c2cc(S(=O)(=O)N3CCOCC3)ccc2[O-])cc1C (protonated)
Cc1ccc(S(=O)(=O)[N-]c2cc(S(=O)(=O)N3CCOCC3)ccc2[O-])cc1C (3D coordinates assigned)
Cc1ccc(S(=O)(=O)[N-]c2cc(S(=O)(=O)N3CCOCC3)ccc2[O-])cc1C (nonaromatic ring conformer: 63.083169413453646 kcal/mol)

>  <smiles>  (15) 
Cc1ccc(S(=O)(=O)Nc2cc(S(=O)(=O)N3CCOCC3)ccc2O)cc1C

>  <score_type>  (15) 
oracle

>  <origin>  (15) 
adgpu

>  <m_score__min__energy>  (15) 
-13.75

>  <m_primary>  (15) 
energy

$$$$
15:0
     RDKit          3D

 47 50  0  0  0  0  0  0  0  0999 V2000
    0.2220   17.7680  -30.5120 C   0  0  0  0  0  0  0  0  0  0  0  0
    1.3520   17.8590  -29.5710 N   0  0  0  0  0  0  0  0  0  0  0  0
    1.0860   17.1190  -28.3200 C   0  0  0  0  0  0  0  0  0  0  0  0
   -0.0140   17.7900  -27.4810 C   0  0  0  0  0  0  0  0  0  0  0  0
    0.1210   19.2500  -27.5110 N   0  0  0  0  0  0  0  0  0  0  0  0
   -0.9090   20.0670  -26.9220 C   0  0  0  0  0  0  0  0  0  0  0  0
   -1.6360   19.5880  -26.0100 O   0  0  0  0  0  0  0  0  0  0  0  0
   -1.1750   21.4380  -27.4130 C   0  0  0  0  0  0  0  0  0  0  0  0
   -0.9070   22.5240  -26.5610 C   0  0  0  0  0  0  0  0  0  0  0  0
   -1.1140   23.8340  -26.9950 C   0  0  0  0  0  0  0  0  0  0  0  0
   -1.6000   24.0770  -28.2800 C   0  0  0  0  0  0  0  0  0  0  0  0
   -1.8980   23.0120  -29.1350 C   0  0  0  0  0  0  0  0  0  0  0  0
   -2.4090   23.2990  -30.4070 O   0  0  0  0  0  0  0  0  0  0  0  0
   -3.7720   23.2530  -30.7420 C   0  0  0  0  0  0  0  0  0  0  0  0
   -4.4320   22.0400  -31.0180 C   0  0  0  0  0  0  0  0  0  0  0  0
   -5.7890   22.0340  -31.3520 C   0  0  0  0  0  0  0  0  0  0  0  0
   -6.5080   23.2420  -31.4060 C   0  0  0  0  0  0  0  0  0  0  0  0
   -5.8580   24.4460  -31.1050 C   0  0  0  0  0  0  0  0  0  0  0  0
   -4.4970   24.4510  -30.7800 C   0  0  0  0  0  0  0  0  0  0  0  0
   -3.8650   25.6560  -30.4920 O   0  0  0  0  0  0  0  0  0  0  0  0
   -7.9980   23.2300  -31.6570 C   0  0  0  0  0  0  0  0  0  0  0  0
   -8.4350   22.0380  -32.3180 O   0  0  0  0  0  0  0  0  0  0  0  0
   -7.7670   20.8200  -32.1780 C   0  0  0  0  0  0  0  0  0  0  0  0
   -8.3180   19.7510  -32.5450 O   0  0  0  0  0  0  0  0  0  0  0  0
   -6.4380   20.8010  -31.6650 N   0  0  0  0  0  0  0  0  0  0  0  0
   -1.6650   21.6850  -28.7160 C   0  0  0  0  0  0  0  0  0  0  0  0
   -1.9900   20.3530  -29.8290 Cl  0  0  0  0  0  0  0  0  0  0  0  0
    1.3890   19.8300  -27.9670 C   0  0  0  0  0  0  0  0  0  0  0  0
    1.7750   19.2680  -29.3480 C   0  0  0  0  0  0  0  0  0  0  0  0
   -0.7195   17.6922  -29.9482 H   0  0  0  0  0  0  0  0  0  0  0  0
    0.1988   18.6672  -31.1452 H   0  0  0  0  0  0  0  0  0  0  0  0
    0.3430   16.8767  -31.1452 H   0  0  0  0  0  0  0  0  0  0  0  0
    0.7675   16.0968  -28.5721 H   0  0  0  0  0  0  0  0  0  0  0  0
    2.0113   17.1101  -27.7253 H   0  0  0  0  0  0  0  0  0  0  0  0
   -0.9974   17.5110  -27.8874 H   0  0  0  0  0  0  0  0  0  0  0  0
    0.0823   17.4499  -26.4394 H   0  0  0  0  0  0  0  0  0  0  0  0
   -0.5310   22.3394  -25.5439 H   0  0  0  0  0  0  0  0  0  0  0  0
   -0.8936   24.6764  -26.3229 H   0  0  0  0  0  0  0  0  0  0  0  0
   -1.7494   25.1117  -28.6220 H   0  0  0  0  0  0  0  0  0  0  0  0
   -3.8763   21.0919  -30.9704 H   0  0  0  0  0  0  0  0  0  0  0  0
   -6.4199   25.3914  -31.1242 H   0  0  0  0  0  0  0  0  0  0  0  0
   -8.5187   23.3084  -30.6912 H   0  0  0  0  0  0  0  0  0  0  0  0
   -8.2321   24.0805  -32.3142 H   0  0  0  0  0  0  0  0  0  0  0  0
    1.2823   20.9225  -28.0380 H   0  0  0  0  0  0  0  0  0  0  0  0
    2.1778   19.5715  -27.2452 H   0  0  0  0  0  0  0  0  0  0  0  0
    1.3056   19.8957  -30.1198 H   0  0  0  0  0  0  0  0  0  0  0  0
    2.8737   19.2810  -29.3996 H   0  0  0  0  0  0  0  0  0  0  0  0
  1  2  1  0
  2  3  1  0
  3  4  1  0
  4  5  1  0
  5  6  1  0
  6  7  2  0
  6  8  1  0
  8  9  2  0
  9 10  1  0
 10 11  2  0
 11 12  1  0
 12 13  1  0
 13 14  1  0
 14 15  2  0
 15 16  1  0
 16 17  2  0
 17 18  1  0
 18 19  2  0
 19 20  1  0
 17 21  1  0
 21 22  1  0
 22 23  1  0
 23 24  2  0
 23 25  1  0
 12 26  2  0
 26 27  1  0
  5 28  1  0
 28 29  1  0
 29  2  1  0
 26  8  1  0
 19 14  1  0
 25 16  1  0
  1 30  1  0
  1 31  1  0
  1 32  1  0
  3 33  1  0
  3 34  1  0
  4 35  1  0
  4 36  1  0
  9 37  1  0
 10 38  1  0
 11 39  1  0
 15 40  1  0
 18 41  1  0
 21 42  1  0
 21 43  1  0
 28 44  1  0
 28 45  1  0
 29 46  1  0
 29 47  1  0
M  CHG  2  20  -1  25  -1
M  END
>  <UniqueID>  (16) 
14

>  <SMILES>  (16) 
CN1CCN(C(=O)c2cccc(Oc3cc4c(cc3[O-])COC(=O)[N-]4)c2Cl)CC1

>  <Energy>  (16) 
74.9906247263282

>  <Genealogy>  (16) 
CN1CCN(C(=O)c2cccc(Oc3cc4c(cc3[O-])COC(=O)[N-]4)c2Cl)CC1 (protonated)
CN1CCN(C(=O)c2cccc(Oc3cc4c(cc3[O-])COC(=O)[N-]4)c2Cl)CC1 (3D coordinates assigned)
CN1CCN(C(=O)c2cccc(Oc3cc4c(cc3[O-])COC(=O)[N-]4)c2Cl)CC1 (nonaromatic ring conformer: 74.9906247263282 kcal/mol)

>  <smiles>  (16) 
CN1CCN(C(=O)c2cccc(Oc3cc4c(cc3O)COC(=O)N4)c2Cl)CC1

>  <score_type>  (16) 
oracle

>  <origin>  (16) 
adgpu

>  <m_score__min__energy>  (16) 
-12.33

>  <m_primary>  (16) 
energy

$$$$
16:0
     RDKit          3D

 52 55  0  0  0  0  0  0  0  0999 V2000
   -0.0220   21.2170  -34.8690 C   0  0  0  0  0  0  0  0  0  0  0  0
   -0.3170   20.8840  -33.4470 C   0  0  0  0  0  0  0  0  0  0  0  0
   -1.2740   21.4550  -32.8600 O   0  0  0  0  0  0  0  0  0  0  0  0
    0.5400   20.0160  -32.7580 O   0  0  0  0  0  0  0  0  0  0  0  0
    0.3700   19.5880  -31.4320 C   0  0  0  0  0  0  0  0  0  0  0  0
    0.4540   18.2330  -31.0620 C   0  0  0  0  0  0  0  0  0  0  0  0
    0.2970   17.8610  -29.7220 C   0  0  0  0  0  0  0  0  0  0  0  0
    0.0510   18.8320  -28.7480 C   0  0  0  0  0  0  0  0  0  0  0  0
   -0.0370   20.1800  -29.1090 C   0  0  0  0  0  0  0  0  0  0  0  0
   -0.3580   21.4340  -27.8640 S   0  0  0  0  0  0  0  0  0  0  0  0
   -1.7050   22.1880  -28.7950 C   0  0  0  0  0  0  0  0  0  0  0  0
   -2.5870   21.3320  -29.4710 C   0  0  0  0  0  0  0  0  0  0  0  0
   -3.7040   21.8440  -30.1540 C   0  0  0  0  0  0  0  0  0  0  0  0
   -4.6420   21.0150  -30.7880 O   0  0  0  0  0  0  0  0  0  0  0  0
   -5.1330   21.2120  -32.1120 C   0  0  0  0  0  0  0  0  0  0  0  0
   -6.6380   21.3110  -32.0820 C   0  0  0  0  0  0  0  0  0  0  0  0
   -7.3850   20.1910  -32.4890 C   0  0  0  0  0  0  0  0  0  0  0  0
   -8.7770   20.1970  -32.4300 C   0  0  0  0  0  0  0  0  0  0  0  0
   -9.4500   21.3190  -31.9580 C   0  0  0  0  0  0  0  0  0  0  0  0
   -8.7340   22.4440  -31.5510 C   0  0  0  0  0  0  0  0  0  0  0  0
   -7.3260   22.4670  -31.6110 C   0  0  0  0  0  0  0  0  0  0  0  0
   -6.6320   23.7070  -31.1740 C   0  0  0  0  0  0  0  0  0  0  0  0
   -5.8320   24.4670  -31.9500 N   0  0  0  0  0  0  0  0  0  0  0  0
   -5.4730   25.4840  -31.1860 N   0  0  0  0  0  0  0  0  0  0  0  0
   -6.0360   25.3520  -29.9990 N   0  0  0  0  0  0  0  0  0  0  0  0
   -6.7730   24.2570  -29.9510 N   0  0  0  0  0  0  0  0  0  0  0  0
   -3.9030   23.2240  -30.1950 C   0  0  0  0  0  0  0  0  0  0  0  0
   -3.0080   24.0880  -29.5640 C   0  0  0  0  0  0  0  0  0  0  0  0
   -1.8970   23.5890  -28.8650 C   0  0  0  0  0  0  0  0  0  0  0  0
   -0.7860   24.7460  -28.1110 S   0  0  0  0  0  0  0  0  0  0  0  0
   -1.1120   26.3440  -28.6840 N   0  0  0  0  0  0  0  0  0  0  0  0
    0.6370   24.4160  -28.4600 O   0  0  0  0  0  0  0  0  0  0  0  0
   -0.9590   24.7140  -26.6190 O   0  0  0  0  0  0  0  0  0  0  0  0
    0.1470   20.5550  -30.4450 C   0  0  0  0  0  0  0  0  0  0  0  0
    0.7069   22.0398  -34.9093 H   0  0  0  0  0  0  0  0  0  0  0  0
    0.3947   20.3329  -35.3738 H   0  0  0  0  0  0  0  0  0  0  0  0
   -0.9499   21.5241  -35.3738 H   0  0  0  0  0  0  0  0  0  0  0  0
    0.6433   17.4653  -31.8268 H   0  0  0  0  0  0  0  0  0  0  0  0
    0.3675   16.8015  -29.4349 H   0  0  0  0  0  0  0  0  0  0  0  0
   -0.0736   18.5357  -27.6960 H   0  0  0  0  0  0  0  0  0  0  0  0
   -2.4025   20.2476  -29.4666 H   0  0  0  0  0  0  0  0  0  0  0  0
   -4.7128   22.1413  -32.5242 H   0  0  0  0  0  0  0  0  0  0  0  0
   -4.8345   20.3622  -32.7434 H   0  0  0  0  0  0  0  0  0  0  0  0
   -6.8624   19.2968  -32.8595 H   0  0  0  0  0  0  0  0  0  0  0  0
   -9.3445   19.3133  -32.7571 H   0  0  0  0  0  0  0  0  0  0  0  0
  -10.5488   21.3188  -31.9057 H   0  0  0  0  0  0  0  0  0  0  0  0
   -9.2755   23.3258  -31.1779 H   0  0  0  0  0  0  0  0  0  0  0  0
   -5.9200   26.0240  -29.2100 H   0  0  0  0  0  0  0  0  0  0  0  0
   -4.7727   23.6342  -30.7292 H   0  0  0  0  0  0  0  0  0  0  0  0
   -3.1746   25.1741  -29.6146 H   0  0  0  0  0  0  0  0  0  0  0  0
   -1.2380   26.2830  -29.7200 H   0  0  0  0  0  0  0  0  0  0  0  0
    0.1161   21.6192  -30.7217 H   0  0  0  0  0  0  0  0  0  0  0  0
  1  2  1  0
  2  3  2  0
  2  4  1  0
  4  5  1  0
  5  6  2  0
  6  7  1  0
  7  8  2  0
  8  9  1  0
  9 10  1  0
 10 11  1  0
 11 12  2  0
 12 13  1  0
 13 14  1  0
 14 15  1  0
 15 16  1  0
 16 17  2  0
 17 18  1  0
 18 19  2  0
 19 20  1  0
 20 21  2  0
 21 22  1  0
 22 23  1  0
 23 24  2  0
 24 25  1  0
 25 26  1  0
 13 27  2  0
 27 28  1  0
 28 29  2  0
 29 30  1  0
 30 31  1  0
 30 32  2  0
 30 33  2  0
  9 34  2  0
 34  5  1  0
 29 11  1  0
 21 16  1  0
 26 22  2  0
  1 35  1  0
  1 36  1  0
  1 37  1  0
  6 38  1  0
  7 39  1  0
  8 40  1  0
 12 41  1  0
 15 42  1  0
 15 43  1  0
 17 44  1  0
 18 45  1  0
 19 46  1  0
 20 47  1  0
 25 48  1  0
 27 49  1  0
 28 50  1  0
 31 51  1  0
 34 52  1  0
M  CHG  1  31  -1
M  END
>  <UniqueID>  (17) 
15

>  <SMILES>  (17) 
CC(=O)Oc1cccc(Sc2cc(OCc3ccccc3-c3nn[nH]n3)ccc2S([NH-])(=O)=O)c1

>  <Energy>  (17) 
99.69643636457468

>  <Genealogy>  (17) 
CC(=O)Oc1cccc(Sc2cc(OCc3ccccc3-c3nn[nH]n3)ccc2S([NH-])(=O)=O)c1 (protonated)
CC(=O)Oc1cccc(Sc2cc(OCc3ccccc3-c3nn[nH]n3)ccc2S([NH-])(=O)=O)c1 (3D coordinates assigned)
CC(=O)Oc1cccc(Sc2cc(OCc3ccccc3-c3nn[nH]n3)ccc2S([NH-])(=O)=O)c1 (optimized conformer: 99.69643636457468 kcal/mol)

>  <smiles>  (17) 
CC(=O)Oc1cccc(Sc2cc(OCc3ccccc3-c3nn[nH]n3)ccc2S(N)(=O)=O)c1

>  <score_type>  (17) 
oracle

>  <origin>  (17) 
adgpu

>  <m_score__min__energy>  (17) 
-12.470000000000001

>  <m_primary>  (17) 
energy

$$$$
17:0
     RDKit          3D

 57 60  0  0  0  0  0  0  0  0999 V2000
   -2.2470   22.7960  -30.3460 O   0  0  0  0  0  0  0  0  0  0  0  0
   -3.1630   22.4860  -31.1550 C   0  0  0  0  0  0  0  0  0  0  0  0
   -2.9500   21.4320  -32.1090 N   0  0  0  0  0  0  0  0  0  0  0  0
   -1.6490   20.9900  -32.5360 C   0  0  0  0  0  0  0  0  0  0  0  0
   -1.3420   20.8280  -33.8990 C   0  0  0  0  0  0  0  0  0  0  0  0
   -0.0790   20.3720  -34.2890 C   0  0  0  0  0  0  0  0  0  0  0  0
    0.8880   20.0540  -33.3240 C   0  0  0  0  0  0  0  0  0  0  0  0
    2.4740   19.4570  -33.8170 S   0  0  0  0  0  0  0  0  0  0  0  0
    2.2970   18.3410  -34.8090 O   0  0  0  0  0  0  0  0  0  0  0  0
    3.1890   18.9020  -32.6170 O   0  0  0  0  0  0  0  0  0  0  0  0
    3.4470   20.7220  -34.5330 N   0  0  0  0  0  0  0  0  0  0  0  0
    2.6230   21.8750  -34.9560 C   0  0  0  0  0  0  0  0  0  0  0  0
    2.4360   21.9230  -36.4830 C   0  0  0  0  0  0  0  0  0  0  0  0
    3.6620   21.9960  -37.1970 O   0  0  0  0  0  0  0  0  0  0  0  0
    4.7340   21.2980  -36.5710 C   0  0  0  0  0  0  0  0  0  0  0  0
    4.2810   20.1760  -35.6220 C   0  0  0  0  0  0  0  0  0  0  0  0
    0.5800   20.2050  -31.9660 C   0  0  0  0  0  0  0  0  0  0  0  0
   -0.6830   20.6610  -31.5760 C   0  0  0  0  0  0  0  0  0  0  0  0
   -4.4780   23.1620  -31.0580 C   0  0  0  0  0  0  0  0  0  0  0  0
   -5.6540   22.4200  -31.2690 C   0  0  0  0  0  0  0  0  0  0  0  0
   -6.9110   23.0360  -31.2080 C   0  0  0  0  0  0  0  0  0  0  0  0
   -8.3750   22.1010  -31.5220 S   0  0  0  0  0  0  0  0  0  0  0  0
   -9.4440   23.0180  -32.0490 O   0  0  0  0  0  0  0  0  0  0  0  0
   -8.8700   21.5110  -30.2310 O   0  0  0  0  0  0  0  0  0  0  0  0
   -8.0990   20.8150  -32.6780 N   0  0  0  0  0  0  0  0  0  0  0  0
   -6.9610   19.9790  -32.2780 C   0  0  0  0  0  0  0  0  0  0  0  0
   -7.5000   18.7420  -31.5750 C   0  0  0  0  0  0  0  0  0  0  0  0
   -8.9790   18.6920  -31.9030 C   0  0  0  0  0  0  0  0  0  0  0  0
   -9.2570   19.9180  -32.7620 C   0  0  0  0  0  0  0  0  0  0  0  0
   -6.9980   24.4000  -30.9070 C   0  0  0  0  0  0  0  0  0  0  0  0
   -5.8400   25.1430  -30.6750 C   0  0  0  0  0  0  0  0  0  0  0  0
   -4.5830   24.5330  -30.7420 C   0  0  0  0  0  0  0  0  0  0  0  0
   -3.4520   25.2950  -30.4650 O   0  0  0  0  0  0  0  0  0  0  0  0
   -3.7830   20.8870  -32.4270 H   0  0  0  0  0  0  0  0  0  0  0  0
   -2.0993   21.0612  -34.6620 H   0  0  0  0  0  0  0  0  0  0  0  0
    0.1574   20.2621  -35.3577 H   0  0  0  0  0  0  0  0  0  0  0  0
    1.6344   21.7984  -34.4797 H   0  0  0  0  0  0  0  0  0  0  0  0
    3.1433   22.7943  -34.6491 H   0  0  0  0  0  0  0  0  0  0  0  0
    1.9019   21.0144  -36.7981 H   0  0  0  0  0  0  0  0  0  0  0  0
    1.8697   22.8374  -36.7134 H   0  0  0  0  0  0  0  0  0  0  0  0
    5.3628   20.8536  -37.3566 H   0  0  0  0  0  0  0  0  0  0  0  0
    5.2771   22.0327  -35.9584 H   0  0  0  0  0  0  0  0  0  0  0  0
    3.6964   19.4367  -36.1892 H   0  0  0  0  0  0  0  0  0  0  0  0
    5.1711   19.7015  -35.1833 H   0  0  0  0  0  0  0  0  0  0  0  0
    1.3349   19.9638  -31.2031 H   0  0  0  0  0  0  0  0  0  0  0  0
   -0.9201   20.7623  -30.5066 H   0  0  0  0  0  0  0  0  0  0  0  0
   -5.5861   21.3434  -31.4844 H   0  0  0  0  0  0  0  0  0  0  0  0
   -6.3877   19.6807  -33.1681 H   0  0  0  0  0  0  0  0  0  0  0  0
   -6.2980   20.5397  -31.6027 H   0  0  0  0  0  0  0  0  0  0  0  0
   -6.9943   17.8389  -31.9474 H   0  0  0  0  0  0  0  0  0  0  0  0
   -7.3273   18.7857  -30.4895 H   0  0  0  0  0  0  0  0  0  0  0  0
   -9.2169   17.7732  -32.4590 H   0  0  0  0  0  0  0  0  0  0  0  0
   -9.5951   18.6889  -30.9918 H   0  0  0  0  0  0  0  0  0  0  0  0
   -9.4145   19.6116  -33.8067 H   0  0  0  0  0  0  0  0  0  0  0  0
  -10.1606   20.4331  -32.4040 H   0  0  0  0  0  0  0  0  0  0  0  0
   -7.9824   24.8879  -30.8531 H   0  0  0  0  0  0  0  0  0  0  0  0
   -5.9160   26.2145  -30.4381 H   0  0  0  0  0  0  0  0  0  0  0  0
  1  2  2  0
  2  3  1  0
  3  4  1  0
  4  5  2  0
  5  6  1  0
  6  7  2  0
  7  8  1  0
  8  9  2  0
  8 10  2  0
  8 11  1  0
 11 12  1  0
 12 13  1  0
 13 14  1  0
 14 15  1  0
 15 16  1  0
  7 17  1  0
 17 18  2  0
  2 19  1  0
 19 20  2  0
 20 21  1  0
 21 22  1  0
 22 23  2  0
 22 24  2  0
 22 25  1  0
 25 26  1  0
 26 27  1  0
 27 28  1  0
 28 29  1  0
 21 30  2  0
 30 31  1  0
 31 32  2  0
 32 33  1  0
 18  4  1  0
 32 19  1  0
 16 11  1  0
 29 25  1  0
  3 34  1  0
  5 35  1  0
  6 36  1  0
 12 37  1  0
 12 38  1  0
 13 39  1  0
 13 40  1  0
 15 41  1  0
 15 42  1  0
 16 43  1  0
 16 44  1  0
 17 45  1  0
 18 46  1  0
 20 47  1  0
 26 48  1  0
 26 49  1  0
 27 50  1  0
 27 51  1  0
 28 52  1  0
 28 53  1  0
 29 54  1  0
 29 55  1  0
 30 56  1  0
 31 57  1  0
M  CHG  1  33  -1
M  END
>  <UniqueID>  (18) 
16

>  <SMILES>  (18) 
O=C(Nc1ccc(S(=O)(=O)N2CCOCC2)cc1)c1cc(S(=O)(=O)N2CCCC2)ccc1[O-]

>  <Energy>  (18) 
78.21899237158547

>  <Genealogy>  (18) 
O=C(Nc1ccc(S(=O)(=O)N2CCOCC2)cc1)c1cc(S(=O)(=O)N2CCCC2)ccc1[O-] (protonated)
O=C(Nc1ccc(S(=O)(=O)N2CCOCC2)cc1)c1cc(S(=O)(=O)N2CCCC2)ccc1[O-] (3D coordinates assigned)
O=C(Nc1ccc(S(=O)(=O)N2CCOCC2)cc1)c1cc(S(=O)(=O)N2CCCC2)ccc1[O-] (nonaromatic ring conformer: 78.21899237158547 kcal/mol)

>  <smiles>  (18) 
O=C(Nc1ccc(S(=O)(=O)N2CCOCC2)cc1)c1cc(S(=O)(=O)N2CCCC2)ccc1O

>  <score_type>  (18) 
oracle

>  <origin>  (18) 
adgpu

>  <m_score__min__energy>  (18) 
-12.800000000000001

>  <m_primary>  (18) 
energy

$$$$
18:0
     RDKit          3D

 31 32  0  0  1  0  0  0  0  0999 V2000
   -1.4270   22.6060  -26.7120 C   0  0  0  0  0  0  0  0  0  0  0  0
   -1.9570   23.6860  -27.4880 N   0  0  0  0  0  0  0  0  0  0  0  0
   -2.6700   23.5850  -28.5380 C   0  0  0  0  0  0  0  0  0  0  0  0
   -2.9690   22.3500  -28.9820 N   0  0  0  0  0  0  0  0  0  0  0  0
   -3.7210   22.2170  -30.0880 C   0  0  0  0  0  0  0  0  0  0  0  0
   -4.1770   23.3240  -30.7540 C   0  0  0  0  0  0  0  0  0  0  0  0
   -4.9540   23.2970  -31.8930 O   0  0  0  0  0  0  0  0  0  0  0  0
   -6.0530   22.4730  -32.0410 C   0  0  0  0  0  0  0  0  0  0  0  0
   -7.3080   22.8770  -31.6720 C   0  0  0  0  0  0  0  0  0  0  0  0
   -8.4140   22.0620  -31.8150 C   0  0  0  0  0  0  0  0  0  0  0  0
   -8.2870   20.7860  -32.3440 C   0  0  0  0  0  0  0  0  0  0  0  0
   -9.4480   19.8880  -32.5100 C   0  0  0  0  0  0  0  0  0  0  0  0
   -7.0170   20.3610  -32.7230 C   0  0  0  0  0  0  0  0  0  0  0  0
   -5.9200   21.2060  -32.5660 C   0  0  0  0  0  0  0  0  0  0  0  0
   -4.2280   20.4850  -33.0970 Br  0  0  0  0  0  0  0  0  0  0  0  0
   -3.8450   24.5860  -30.2610 C   0  0  0  0  0  0  0  0  0  0  0  0
   -4.2390   25.6750  -30.8380 N   0  0  0  0  0  0  0  0  0  0  0  0
   -3.0900   24.7090  -29.1510 N   0  0  0  0  0  0  0  0  0  0  0  0
   -1.5389   22.8341  -25.6417 H   0  0  0  0  0  0  0  0  0  0  0  0
   -1.9737   21.6814  -26.9490 H   0  0  0  0  0  0  0  0  0  0  0  0
   -0.3611   22.4727  -26.9490 H   0  0  0  0  0  0  0  0  0  0  0  0
   -2.6240   21.5170  -28.4760 H   0  0  0  0  0  0  0  0  0  0  0  0
   -3.9719   21.2130  -30.4608 H   0  0  0  0  0  0  0  0  0  0  0  0
   -7.4398   23.8833  -31.2479 H   0  0  0  0  0  0  0  0  0  0  0  0
   -9.4044   22.4281  -31.5066 H   0  0  0  0  0  0  0  0  0  0  0  0
   -9.8284   19.5938  -31.5207 H   0  0  0  0  0  0  0  0  0  0  0  0
  -10.2396   20.4112  -33.0665 H   0  0  0  0  0  0  0  0  0  0  0  0
   -9.1406   18.9903  -33.0665 H   0  0  0  0  0  0  0  0  0  0  0  0
   -6.8788   19.3557  -33.1475 H   0  0  0  0  0  0  0  0  0  0  0  0
   -4.8220   25.6970  -31.6940 H   0  0  0  0  0  0  0  0  0  0  0  0
   -2.8330   25.6470  -28.7710 H   0  0  0  0  0  0  0  0  0  0  0  0
  1  2  1  0
  2  3  2  0
  3  4  1  0
  4  5  1  0
  5  6  2  0
  6  7  1  0
  7  8  1  0
  8  9  2  0
  9 10  1  0
 10 11  2  0
 11 12  1  0
 11 13  1  0
 13 14  2  0
 14 15  1  0
  6 16  1  0
 16 17  2  3
 16 18  1  0
 18  3  1  0
 14  8  1  0
  1 19  1  0
  1 20  1  0
  1 21  1  0
  4 22  1  0
  5 23  1  0
  9 24  1  0
 10 25  1  0
 12 26  1  0
 12 27  1  0
 12 28  1  0
 13 29  1  0
 17 30  1  0
 18 31  1  0
M  END
>  <smiles>  (19) 
CN=c1[nH]cc(Oc2ccc(C)cc2Br)c(=N)[nH]1

>  <score_type>  (19) 
oracle

>  <origin>  (19) 
adgpu

>  <m_score__min__energy>  (19) 
-7.2300000000000004

>  <m_primary>  (19) 
energy

$$$$
19:0
     RDKit          3D

 45 46  0  0  0  0  0  0  0  0999 V2000
    1.0730   27.8810  -25.3740 C   0  0  0  0  0  0  0  0  0  0  0  0
   -0.3920   27.5860  -25.2530 C   0  0  0  0  0  0  0  0  0  0  0  0
   -1.1770   28.5390  -24.9920 O   0  0  0  0  0  0  0  0  0  0  0  0
   -0.9100   26.2490  -25.4370 N   0  0  0  0  0  0  0  0  0  0  0  0
    0.0110   25.1060  -25.5130 C   0  0  0  0  0  0  0  0  0  0  0  0
   -0.7430   23.8020  -25.8160 C   0  0  0  0  0  0  0  0  0  0  0  0
   -1.7870   24.0050  -26.8350 N   0  0  0  0  0  0  0  0  0  0  0  0
   -1.1100   24.3720  -28.4150 S   0  0  0  0  0  0  0  0  0  0  0  0
    0.3880   24.4820  -28.3300 O   0  0  0  0  0  0  0  0  0  0  0  0
   -1.6540   25.6730  -28.9380 O   0  0  0  0  0  0  0  0  0  0  0  0
   -1.4650   23.0600  -29.5810 C   0  0  0  0  0  0  0  0  0  0  0  0
   -2.9490   22.6740  -29.6350 C   0  0  0  0  0  0  0  0  0  0  0  0
   -3.7990   23.6030  -28.8810 N   0  0  0  0  0  0  0  0  0  0  0  0
   -4.9530   24.4320  -29.8930 S   0  0  0  0  0  0  0  0  0  0  0  0
   -4.2640   25.2910  -30.9180 O   0  0  0  0  0  0  0  0  0  0  0  0
   -5.8230   25.3130  -29.0400 O   0  0  0  0  0  0  0  0  0  0  0  0
   -5.9700   23.2320  -30.6850 C   0  0  0  0  0  0  0  0  0  0  0  0
   -5.5160   22.6090  -31.8560 C   0  0  0  0  0  0  0  0  0  0  0  0
   -6.3250   21.6800  -32.5170 C   0  0  0  0  0  0  0  0  0  0  0  0
   -7.5910   21.3710  -32.0120 C   0  0  0  0  0  0  0  0  0  0  0  0
   -8.0470   21.9870  -30.8440 C   0  0  0  0  0  0  0  0  0  0  0  0
   -7.2380   22.9130  -30.1780 C   0  0  0  0  0  0  0  0  0  0  0  0
   -2.8180   24.9880  -26.4180 C   0  0  0  0  0  0  0  0  0  0  0  0
   -2.3520   25.9880  -25.3400 C   0  0  0  0  0  0  0  0  0  0  0  0
    1.5133   27.9697  -24.3699 H   0  0  0  0  0  0  0  0  0  0  0  0
    1.5676   27.0644  -25.9204 H   0  0  0  0  0  0  0  0  0  0  0  0
    1.2130   28.8254  -25.9204 H   0  0  0  0  0  0  0  0  0  0  0  0
    0.7450   25.2895  -26.3115 H   0  0  0  0  0  0  0  0  0  0  0  0
    0.5134   24.9991  -24.5403 H   0  0  0  0  0  0  0  0  0  0  0  0
   -0.0267   23.0522  -26.1829 H   0  0  0  0  0  0  0  0  0  0  0  0
   -1.2277   23.4609  -24.8893 H   0  0  0  0  0  0  0  0  0  0  0  0
   -1.1548   23.3913  -30.5830 H   0  0  0  0  0  0  0  0  0  0  0  0
   -0.9114   22.1706  -29.2456 H   0  0  0  0  0  0  0  0  0  0  0  0
   -3.2748   22.6713  -30.6856 H   0  0  0  0  0  0  0  0  0  0  0  0
   -3.0526   21.6793  -29.1769 H   0  0  0  0  0  0  0  0  0  0  0  0
   -3.1750   24.3340  -28.4680 H   0  0  0  0  0  0  0  0  0  0  0  0
   -4.5204   22.8518  -32.2558 H   0  0  0  0  0  0  0  0  0  0  0  0
   -5.9650   21.1921  -33.4348 H   0  0  0  0  0  0  0  0  0  0  0  0
   -8.2286   20.6425  -32.5344 H   0  0  0  0  0  0  0  0  0  0  0  0
   -9.0438   21.7433  -30.4477 H   0  0  0  0  0  0  0  0  0  0  0  0
   -7.5968   23.3919  -29.2550 H   0  0  0  0  0  0  0  0  0  0  0  0
   -3.1264   25.5594  -27.3059 H   0  0  0  0  0  0  0  0  0  0  0  0
   -3.6394   24.4083  -25.9717 H   0  0  0  0  0  0  0  0  0  0  0  0
   -2.8965   26.9348  -25.4711 H   0  0  0  0  0  0  0  0  0  0  0  0
   -2.5586   25.5519  -24.3515 H   0  0  0  0  0  0  0  0  0  0  0  0
  1  2  1  0
  2  3  2  0
  2  4  1  0
  4  5  1  0
  5  6  1  0
  6  7  1  0
  7  8  1  0
  8  9  2  0
  8 10  2  0
  8 11  1  0
 11 12  1  0
 12 13  1  0
 13 14  1  0
 14 15  2  0
 14 16  2  0
 14 17  1  0
 17 18  2  0
 18 19  1  0
 19 20  2  0
 20 21  1  0
 21 22  2  0
  7 23  1  0
 23 24  1  0
 24  4  1  0
 22 17  1  0
  1 25  1  0
  1 26  1  0
  1 27  1  0
  5 28  1  0
  5 29  1  0
  6 30  1  0
  6 31  1  0
 11 32  1  0
 11 33  1  0
 12 34  1  0
 12 35  1  0
 13 36  1  0
 18 37  1  0
 19 38  1  0
 20 39  1  0
 21 40  1  0
 22 41  1  0
 23 42  1  0
 23 43  1  0
 24 44  1  0
 24 45  1  0
M  END
>  <UniqueID>  (20) 
17

>  <SMILES>  (20) 
CC(=O)N1CCN(S(=O)(=O)CCNS(=O)(=O)c2ccccc2)CC1

>  <Energy>  (20) 
41.9620376765919

>  <Genealogy>  (20) 
CC(=O)N1CCN(S(=O)(=O)CCNS(=O)(=O)c2ccccc2)CC1 (3D coordinates assigned)
CC(=O)N1CCN(S(=O)(=O)CCNS(=O)(=O)c2ccccc2)CC1 (nonaromatic ring conformer: 41.9620376765919 kcal/mol)

>  <smiles>  (20) 
CC(=O)N1CCN(S(=O)(=O)CCNS(=O)(=O)c2ccccc2)CC1

>  <score_type>  (20) 
oracle

>  <origin>  (20) 
adgpu

>  <m_score__min__energy>  (20) 
-8.7699999999999996

>  <m_primary>  (20) 
energy

$$$$
20:0
     RDKit          3D

 42 44  0  0  0  0  0  0  0  0999 V2000
   -0.0900   20.3640  -30.7980 H   0  0  0  0  0  0  0  0  0  0  0  0
    0.1510   21.0400  -30.0390 N   0  0  0  0  0  0  0  0  0  0  0  0
   -0.6670   21.9720  -29.6620 C   0  0  0  0  0  0  0  0  0  0  0  0
   -0.2960   22.8190  -28.6680 N   0  0  0  0  0  0  0  0  0  0  0  0
   -1.1200   23.8080  -28.2270 C   0  0  0  0  0  0  0  0  0  0  0  0
   -0.6600   24.7070  -27.1380 C   0  0  0  0  0  0  0  0  0  0  0  0
   -0.5660   24.2200  -25.8220 C   0  0  0  0  0  0  0  0  0  0  0  0
   -0.8290   23.1734  -25.6087 H   0  0  0  0  0  0  0  0  0  0  0  0
   -0.1420   25.0520  -24.7830 C   0  0  0  0  0  0  0  0  0  0  0  0
   -0.0673   24.6529  -23.7607 H   0  0  0  0  0  0  0  0  0  0  0  0
    0.1900   26.3950  -25.0330 C   0  0  0  0  0  0  0  0  0  0  0  0
    0.6460   27.2840  -23.9350 C   0  0  0  0  0  0  0  0  0  0  0  0
    0.2700   28.6660  -23.9340 N   0  0  0  0  0  0  0  0  0  0  0  0
    0.5450   29.2940  -23.1460 H   0  0  0  0  0  0  0  0  0  0  0  0
   -0.2420   29.0860  -24.7400 H   0  0  0  0  0  0  0  0  0  0  0  0
    1.3800   26.8190  -22.9660 N   0  0  0  0  0  0  0  0  0  0  0  0
    1.6440   25.8110  -22.9120 H   0  0  0  0  0  0  0  0  0  0  0  0
    1.7040   27.4460  -22.1950 H   0  0  0  0  0  0  0  0  0  0  0  0
    0.0890   26.8860  -26.3450 C   0  0  0  0  0  0  0  0  0  0  0  0
    0.3466   27.9344  -26.5561 H   0  0  0  0  0  0  0  0  0  0  0  0
   -0.3360   26.0540  -27.3850 C   0  0  0  0  0  0  0  0  0  0  0  0
   -0.4179   26.4559  -28.4057 H   0  0  0  0  0  0  0  0  0  0  0  0
   -2.3770   23.9610  -28.8290 C   0  0  0  0  0  0  0  0  0  0  0  0
   -3.0600   24.7573  -28.4982 H   0  0  0  0  0  0  0  0  0  0  0  0
   -2.7520   23.0860  -29.8580 C   0  0  0  0  0  0  0  0  0  0  0  0
   -4.0770   23.2270  -30.5090 C   0  0  0  0  0  0  0  0  0  0  0  0
   -4.8390   22.0820  -30.8010 C   0  0  0  0  0  0  0  0  0  0  0  0
   -4.4477   21.0870  -30.5425 H   0  0  0  0  0  0  0  0  0  0  0  0
   -6.0940   22.1960  -31.4190 C   0  0  0  0  0  0  0  0  0  0  0  0
   -6.8810   20.9610  -31.7640 C   0  0  0  0  0  0  0  0  0  0  0  0
   -6.5620   20.1328  -31.1141 H   0  0  0  0  0  0  0  0  0  0  0  0
   -7.9519   21.1628  -31.6143 H   0  0  0  0  0  0  0  0  0  0  0  0
   -6.6630   20.6100  -33.1030 O   0  0  0  0  0  0  0  0  0  0  0  0
   -7.4960   20.1740  -33.4210 H   0  0  0  0  0  0  0  0  0  0  0  0
   -6.5770   23.4630  -31.7710 C   0  0  0  0  0  0  0  0  0  0  0  0
   -7.5472   23.5574  -32.2807 H   0  0  0  0  0  0  0  0  0  0  0  0
   -5.8310   24.6070  -31.4770 C   0  0  0  0  0  0  0  0  0  0  0  0
   -6.2225   25.5994  -31.7451 H   0  0  0  0  0  0  0  0  0  0  0  0
   -4.5900   24.4970  -30.8440 C   0  0  0  0  0  0  0  0  0  0  0  0
   -3.8840   25.6560  -30.5340 O   0  0  0  0  0  0  0  0  0  0  0  0
   -1.8910   22.1030  -30.2470 N   0  0  0  0  0  0  0  0  0  0  0  0
   -2.1800   21.4280  -30.9930 H   0  0  0  0  0  0  0  0  0  0  0  0
  1  2  1  0
  2  3  2  0
  3  4  1  0
  4  5  2  0
  5  6  1  0
  6  7  2  0
  7  8  1  0
  7  9  1  0
  9 10  1  0
  9 11  2  0
 11 12  1  0
 12 13  1  0
 13 14  1  0
 13 15  1  0
 12 16  2  0
 16 17  1  0
 16 18  1  0
 11 19  1  0
 19 20  1  0
 19 21  2  0
 21 22  1  0
  5 23  1  0
 23 24  1  0
 23 25  2  0
 25 26  1  0
 26 27  2  0
 27 28  1  0
 27 29  1  0
 29 30  1  0
 30 31  1  0
 30 32  1  0
 30 33  1  0
 33 34  1  0
 29 35  2  0
 35 36  1  0
 35 37  1  0
 37 38  1  0
 37 39  2  0
 39 40  1  0
 25 41  1  0
 41 42  1  0
 41  3  1  0
 21  6  1  0
 39 26  1  0
M  CHG  2  16   1  40  -1
M  END
>  <UniqueID>  (21) 
18

>  <SMILES>  (21) 
[H]/N=c1/nc(-c2ccc(C(N)=[NH2+])cc2)cc(-c2cc(CO)ccc2[O-])[nH]1

>  <Energy>  (21) 
56.77853538197613

>  <Genealogy>  (21) 
N=c1nc(-c2ccc(C(N)=[NH2+])cc2)cc(-c2cc(CO)ccc2[O-])[nH]1 (protonated)
[H]/N=c1/nc(-c2ccc(C(N)=[NH2+])cc2)cc(-c2cc(CO)ccc2[O-])[nH]1 (cis-trans isomerization)
[H]/N=c1/nc(-c2ccc(C(N)=[NH2+])cc2)cc(-c2cc(CO)ccc2[O-])[nH]1 (3D coordinates assigned)
[H]/N=c1/nc(-c2ccc(C(N)=[NH2+])cc2)cc(-c2cc(CO)ccc2[O-])[nH]1 (optimized conformer: 56.77853538197613 kcal/mol)

>  <smiles>  (21) 
N=C(N)c1ccc(-c2cc(-c3cc(CO)ccc3O)[nH]c(=N)n2)cc1

>  <score_type>  (21) 
oracle

>  <origin>  (21) 
adgpu

>  <m_score__min__energy>  (21) 
-10.94

>  <m_primary>  (21) 
energy

$$$$
21:0
     RDKit          3D

 31 33  0  0  0  0  0  0  0  0999 V2000
   -4.2010   16.5400  -34.7520 C   0  0  0  0  0  0  0  0  0  0  0  0
   -5.2420   17.4090  -34.1130 C   0  0  0  0  0  0  0  0  0  0  0  0
   -6.1080   16.8800  -33.1440 C   0  0  0  0  0  0  0  0  0  0  0  0
   -7.1040   17.6810  -32.5760 C   0  0  0  0  0  0  0  0  0  0  0  0
   -7.2560   19.0130  -32.9840 C   0  0  0  0  0  0  0  0  0  0  0  0
   -8.5230   20.0110  -32.2770 S   0  0  0  0  0  0  0  0  0  0  0  0
   -8.7590   19.6300  -30.8410 O   0  0  0  0  0  0  0  0  0  0  0  0
   -9.7920   19.8060  -33.0540 O   0  0  0  0  0  0  0  0  0  0  0  0
   -8.0740   21.6850  -32.3520 N   0  0  0  0  0  0  0  0  0  0  0  0
   -6.8700   22.2390  -31.8080 C   0  0  0  0  0  0  0  0  0  0  0  0
   -5.9010   21.3520  -31.2740 C   0  0  0  0  0  0  0  0  0  0  0  0
   -4.7040   21.8410  -30.7200 C   0  0  0  0  0  0  0  0  0  0  0  0
   -4.5120   23.2180  -30.7190 C   0  0  0  0  0  0  0  0  0  0  0  0
   -3.4850   24.0090  -30.2680 C   0  0  0  0  0  0  0  0  0  0  0  0
   -3.8100   25.3000  -30.5170 N   0  0  0  0  0  0  0  0  0  0  0  0
   -5.0020   25.3470  -31.1070 N   0  0  0  0  0  0  0  0  0  0  0  0
   -5.4330   24.0810  -31.2320 C   0  0  0  0  0  0  0  0  0  0  0  0
   -6.6290   23.6350  -31.7890 C   0  0  0  0  0  0  0  0  0  0  0  0
   -6.4000   19.5400  -33.9600 C   0  0  0  0  0  0  0  0  0  0  0  0
   -5.4040   18.7410  -34.5280 C   0  0  0  0  0  0  0  0  0  0  0  0
   -3.6070   16.0441  -33.9701 H   0  0  0  0  0  0  0  0  0  0  0  0
   -4.6916   15.7796  -35.3774 H   0  0  0  0  0  0  0  0  0  0  0  0
   -3.5405   17.1586  -35.3774 H   0  0  0  0  0  0  0  0  0  0  0  0
   -6.0032   15.8311  -32.8298 H   0  0  0  0  0  0  0  0  0  0  0  0
   -7.7702   17.2640  -31.8064 H   0  0  0  0  0  0  0  0  0  0  0  0
   -6.0877   20.2681  -31.2932 H   0  0  0  0  0  0  0  0  0  0  0  0
   -3.9480   21.1593  -30.3031 H   0  0  0  0  0  0  0  0  0  0  0  0
   -2.5601   23.6562  -29.7884 H   0  0  0  0  0  0  0  0  0  0  0  0
   -7.3627   24.3436  -32.2008 H   0  0  0  0  0  0  0  0  0  0  0  0
   -6.5123   20.5863  -34.2803 H   0  0  0  0  0  0  0  0  0  0  0  0
   -4.7441   19.1571  -35.3035 H   0  0  0  0  0  0  0  0  0  0  0  0
  1  2  1  0
  2  3  2  0
  3  4  1  0
  4  5  2  0
  5  6  1  0
  6  7  2  0
  6  8  2  0
  6  9  1  0
  9 10  1  0
 10 11  1  0
 11 12  2  0
 12 13  1  0
 13 14  2  0
 14 15  1  0
 15 16  1  0
 16 17  2  0
 17 18  1  0
  5 19  1  0
 19 20  2  0
 20  2  1  0
 18 10  2  0
 17 13  1  0
  1 21  1  0
  1 22  1  0
  1 23  1  0
  3 24  1  0
  4 25  1  0
 11 26  1  0
 12 27  1  0
 14 28  1  0
 18 29  1  0
 19 30  1  0
 20 31  1  0
M  CHG  2   9  -1  15  -1
M  END
>  <UniqueID>  (22) 
19

>  <SMILES>  (22) 
Cc1ccc(S(=O)(=O)[N-]c2ccc3c[n-]nc3c2)cc1

>  <Energy>  (22) 
73.45068604714213

>  <Genealogy>  (22) 
Cc1ccc(S(=O)(=O)[N-]c2ccc3c[n-]nc3c2)cc1 (protonated)
Cc1ccc(S(=O)(=O)[N-]c2ccc3c[n-]nc3c2)cc1 (3D coordinates assigned)
Cc1ccc(S(=O)(=O)[N-]c2ccc3c[n-]nc3c2)cc1 (optimized conformer: 73.45068604714213 kcal/mol)

>  <smiles>  (22) 
Cc1ccc(S(=O)(=O)Nc2ccc3c[nH]nc3c2)cc1

>  <score_type>  (22) 
oracle

>  <origin>  (22) 
adgpu

>  <m_score__min__energy>  (22) 
-10.15

>  <m_primary>  (22) 
energy

$$$$
22:0
     RDKit          3D

 29 31  0  0  0  0  0  0  0  0999 V2000
   -3.4840   25.3030  -30.4610 O   0  0  0  0  0  0  0  0  0  0  0  0
   -4.5780   24.4950  -30.7480 C   0  0  0  0  0  0  0  0  0  0  0  0
   -4.3830   23.2180  -31.2830 C   0  0  0  0  0  0  0  0  0  0  0  0
   -5.4820   22.4050  -31.5730 C   0  0  0  0  0  0  0  0  0  0  0  0
   -6.7890   22.8690  -31.3470 C   0  0  0  0  0  0  0  0  0  0  0  0
   -7.9420   21.9920  -31.6440 C   0  0  0  0  0  0  0  0  0  0  0  0
   -9.2160   22.3490  -31.3880 N   0  0  0  0  0  0  0  0  0  0  0  0
  -10.0210   21.3930  -31.8280 N   0  0  0  0  0  0  0  0  0  0  0  0
   -9.2720   20.4150  -32.3720 C   0  0  0  0  0  0  0  0  0  0  0  0
   -7.9380   20.7500  -32.2680 C   0  0  0  0  0  0  0  0  0  0  0  0
   -6.7940   19.8920  -32.6450 C   0  0  0  0  0  0  0  0  0  0  0  0
   -6.4570   19.7250  -33.9990 C   0  0  0  0  0  0  0  0  0  0  0  0
   -5.3850   18.9050  -34.3640 C   0  0  0  0  0  0  0  0  0  0  0  0
   -4.6470   18.2310  -33.3830 C   0  0  0  0  0  0  0  0  0  0  0  0
   -3.5770   17.4130  -33.7340 O   0  0  0  0  0  0  0  0  0  0  0  0
   -4.9890   18.3800  -32.0350 C   0  0  0  0  0  0  0  0  0  0  0  0
   -6.0600   19.1990  -31.6670 C   0  0  0  0  0  0  0  0  0  0  0  0
   -6.9750   24.1470  -30.7900 C   0  0  0  0  0  0  0  0  0  0  0  0
   -5.8730   24.9580  -30.5000 C   0  0  0  0  0  0  0  0  0  0  0  0
   -3.3634   22.8529  -31.4758 H   0  0  0  0  0  0  0  0  0  0  0  0
   -5.3230   21.3958  -31.9806 H   0  0  0  0  0  0  0  0  0  0  0  0
   -9.6628   19.4933  -32.8279 H   0  0  0  0  0  0  0  0  0  0  0  0
   -7.0396   20.2421  -34.7757 H   0  0  0  0  0  0  0  0  0  0  0  0
   -5.1204   18.7889  -35.4254 H   0  0  0  0  0  0  0  0  0  0  0  0
   -2.6930   17.8010  -34.0440 H   0  0  0  0  0  0  0  0  0  0  0  0
   -4.4129   17.8507  -31.2617 H   0  0  0  0  0  0  0  0  0  0  0  0
   -6.3301   19.3019  -30.6057 H   0  0  0  0  0  0  0  0  0  0  0  0
   -7.9921   24.5105  -30.5814 H   0  0  0  0  0  0  0  0  0  0  0  0
   -6.0258   25.9615  -30.0762 H   0  0  0  0  0  0  0  0  0  0  0  0
  1  2  1  0
  2  3  2  0
  3  4  1  0
  4  5  2  0
  5  6  1  0
  6  7  1  0
  7  8  1  0
  8  9  2  0
  9 10  1  0
 10 11  1  0
 11 12  2  0
 12 13  1  0
 13 14  2  0
 14 15  1  0
 14 16  1  0
 16 17  2  0
  5 18  1  0
 18 19  2  0
 19  2  1  0
 10  6  2  0
 17 11  1  0
  3 20  1  0
  4 21  1  0
  9 22  1  0
 12 23  1  0
 13 24  1  0
 15 25  1  0
 16 26  1  0
 17 27  1  0
 18 28  1  0
 19 29  1  0
M  CHG  2   1  -1   7  -1
M  END
>  <UniqueID>  (23) 
20

>  <SMILES>  (23) 
[O-]c1ccc(-c2[n-]ncc2-c2ccc(O)cc2)cc1

>  <Energy>  (23) 
69.22550748245685

>  <Genealogy>  (23) 
[O-]c1ccc(-c2[n-]ncc2-c2ccc(O)cc2)cc1 (protonated)
[O-]c1ccc(-c2[n-]ncc2-c2ccc(O)cc2)cc1 (3D coordinates assigned)
[O-]c1ccc(-c2[n-]ncc2-c2ccc(O)cc2)cc1 (optimized conformer: 69.22550748245685 kcal/mol)

>  <smiles>  (23) 
Oc1ccc(-c2cn[nH]c2-c2ccc(O)cc2)cc1

>  <score_type>  (23) 
oracle

>  <origin>  (23) 
adgpu

>  <m_score__min__energy>  (23) 
-9.9100000000000001

>  <m_primary>  (23) 
energy

$$$$
23:0
     RDKit          3D

 53 56  0  0  0  0  0  0  0  0999 V2000
   -3.9721   24.4228  -27.8777 H   0  0  0  0  0  0  0  0  0  0  0  0
   -3.3360   23.6660  -28.3600 C   0  0  0  0  0  0  0  0  0  0  0  0
   -2.8420   22.5940  -27.6110 C   0  0  0  0  0  0  0  0  0  0  0  0
   -3.0817   22.5162  -26.5403 H   0  0  0  0  0  0  0  0  0  0  0  0
   -2.0420   21.6180  -28.2210 C   0  0  0  0  0  0  0  0  0  0  0  0
   -1.3890   20.2740  -27.2900 S   0  0  0  0  0  0  0  0  0  0  0  0
   -1.2740   20.6290  -25.8340 O   0  0  0  0  0  0  0  0  0  0  0  0
   -2.3170   19.0990  -27.4250 O   0  0  0  0  0  0  0  0  0  0  0  0
    0.1740   19.8350  -27.9050 N   0  0  0  0  0  0  0  0  0  0  0  0
    0.7120   18.6500  -27.8720 C   0  0  0  0  0  0  0  0  0  0  0  0
    1.9880   18.4790  -28.4290 C   0  0  0  0  0  0  0  0  0  0  0  0
    2.5210   19.3378  -28.8631 H   0  0  0  0  0  0  0  0  0  0  0  0
    2.5780   17.2150  -28.4300 C   0  0  0  0  0  0  0  0  0  0  0  0
    3.5771   17.0729  -28.8677 H   0  0  0  0  0  0  0  0  0  0  0  0
    1.8980   16.1330  -27.8750 C   0  0  0  0  0  0  0  0  0  0  0  0
    2.3507   15.1305  -27.8799 H   0  0  0  0  0  0  0  0  0  0  0  0
    0.6370   16.3340  -27.3130 C   0  0  0  0  0  0  0  0  0  0  0  0
    0.0979   15.4879  -26.8618 H   0  0  0  0  0  0  0  0  0  0  0  0
    0.0700   17.5720  -27.3200 N   0  0  0  0  0  0  0  0  0  0  0  0
   -0.8760   17.6610  -26.8920 H   0  0  0  0  0  0  0  0  0  0  0  0
   -1.7570   21.7130  -29.5890 C   0  0  0  0  0  0  0  0  0  0  0  0
   -1.1383   20.9442  -30.0749 H   0  0  0  0  0  0  0  0  0  0  0  0
   -2.2560   22.7810  -30.3380 C   0  0  0  0  0  0  0  0  0  0  0  0
   -2.0457   22.8393  -31.4161 H   0  0  0  0  0  0  0  0  0  0  0  0
   -3.0260   23.7820  -29.7200 C   0  0  0  0  0  0  0  0  0  0  0  0
   -3.5520   24.8900  -30.4630 N   0  0  0  0  0  0  0  0  0  0  0  0
   -4.9360   25.1250  -30.7570 C   0  0  0  0  0  0  0  0  0  0  0  0
   -5.3650   26.3090  -30.7590 O   0  0  0  0  0  0  0  0  0  0  0  0
   -5.8490   24.0250  -31.1160 C   0  0  0  0  0  0  0  0  0  0  0  0
   -5.4490   22.8460  -31.6300 N   0  0  0  0  0  0  0  0  0  0  0  0
   -6.5270   22.1020  -31.8250 N   0  0  0  0  0  0  0  0  0  0  0  0
   -6.4670   20.7690  -32.3560 C   0  0  0  0  0  0  0  0  0  0  0  0
   -5.6330   20.4610  -33.4420 C   0  0  0  0  0  0  0  0  0  0  0  0
   -5.0037   21.2455  -33.8875 H   0  0  0  0  0  0  0  0  0  0  0  0
   -5.5970   19.1640  -33.9610 C   0  0  0  0  0  0  0  0  0  0  0  0
   -4.9353   18.9313  -34.8083 H   0  0  0  0  0  0  0  0  0  0  0  0
   -6.4040   18.1540  -33.4040 C   0  0  0  0  0  0  0  0  0  0  0  0
   -6.4000   16.8360  -33.8840 O   0  0  0  0  0  0  0  0  0  0  0  0
   -5.2930   15.9470  -33.7810 C   0  0  0  0  0  0  0  0  0  0  0  0
   -5.0664   15.7650  -32.7201 H   0  0  0  0  0  0  0  0  0  0  0  0
   -5.5410   14.9942  -34.2717 H   0  0  0  0  0  0  0  0  0  0  0  0
   -4.4162   16.3948  -34.2717 H   0  0  0  0  0  0  0  0  0  0  0  0
   -7.2500   18.4690  -32.3340 C   0  0  0  0  0  0  0  0  0  0  0  0
   -7.8864   17.6877  -31.8929 H   0  0  0  0  0  0  0  0  0  0  0  0
   -7.2920   19.7690  -31.8220 C   0  0  0  0  0  0  0  0  0  0  0  0
   -7.9765   20.0089  -30.9950 H   0  0  0  0  0  0  0  0  0  0  0  0
   -7.6250   22.8080  -31.4670 C   0  0  0  0  0  0  0  0  0  0  0  0
   -9.0460   22.3440  -31.5730 C   0  0  0  0  0  0  0  0  0  0  0  0
   -9.4634   22.2077  -30.5644 H   0  0  0  0  0  0  0  0  0  0  0  0
   -9.6376   23.0956  -32.1162 H   0  0  0  0  0  0  0  0  0  0  0  0
   -9.0800   21.3881  -32.1162 H   0  0  0  0  0  0  0  0  0  0  0  0
   -7.2280   24.0440  -31.0000 C   0  0  0  0  0  0  0  0  0  0  0  0
   -7.8628   24.8588  -30.6217 H   0  0  0  0  0  0  0  0  0  0  0  0
  1  2  1  0
  2  3  2  0
  3  4  1  0
  3  5  1  0
  5  6  1  0
  6  7  2  0
  6  8  2  0
  6  9  1  0
  9 10  2  0
 10 11  1  0
 11 12  1  0
 11 13  2  0
 13 14  1  0
 13 15  1  0
 15 16  1  0
 15 17  2  0
 17 18  1  0
 17 19  1  0
 19 20  1  0
  5 21  2  0
 21 22  1  0
 21 23  1  0
 23 24  1  0
 23 25  2  0
 25 26  1  0
 26 27  1  0
 27 28  2  0
 27 29  1  0
 29 30  2  0
 30 31  1  0
 31 32  1  0
 32 33  2  0
 33 34  1  0
 33 35  1  0
 35 36  1  0
 35 37  2  0
 37 38  1  0
 38 39  1  0
 39 40  1  0
 39 41  1  0
 39 42  1  0
 37 43  1  0
 43 44  1  0
 43 45  2  0
 45 46  1  0
 31 47  1  0
 47 48  1  0
 48 49  1  0
 48 50  1  0
 48 51  1  0
 47 52  2  0
 52 53  1  0
 25  2  1  0
 52 29  1  0
 19 10  1  0
 45 32  1  0
M  CHG  1  26  -1
M  END
>  <UniqueID>  (24) 
21

>  <SMILES>  (24) 
COc1ccc(-n2nc(C(=O)[N-]c3ccc(S(=O)(=O)/N=c4/cccc[nH]4)cc3)cc2C)cc1

>  <Energy>  (24) 
96.54598269299576

>  <Genealogy>  (24) 
COc1ccc(-n2nc(C(=O)[N-]c3ccc(S(=O)(=O)N=c4cccc[nH]4)cc3)cc2C)cc1 (protonated)
COc1ccc(-n2nc(C(=O)[N-]c3ccc(S(=O)(=O)/N=c4/cccc[nH]4)cc3)cc2C)cc1 (cis-trans isomerization)
COc1ccc(-n2nc(C(=O)[N-]c3ccc(S(=O)(=O)/N=c4/cccc[nH]4)cc3)cc2C)cc1 (3D coordinates assigned)
COc1ccc(-n2nc(C(=O)[N-]c3ccc(S(=O)(=O)/N=c4/cccc[nH]4)cc3)cc2C)cc1 (optimized conformer: 96.54598269299576 kcal/mol)

>  <smiles>  (24) 
COc1ccc(-n2nc(C(=O)Nc3ccc(S(=O)(=O)N=c4cccc[nH]4)cc3)cc2C)cc1

>  <score_type>  (24) 
oracle

>  <origin>  (24) 
adgpu

>  <m_score__min__energy>  (24) 
-11.41

>  <m_primary>  (24) 
energy

$$$$
24:0
     RDKit          3D

 49 52  0  0  0  0  0  0  0  0999 V2000
   -6.6890   13.4990  -34.1820 C   0  0  0  0  0  0  0  0  0  0  0  0
   -5.3990   14.1390  -34.5770 C   0  0  0  0  0  0  0  0  0  0  0  0
   -4.5250   13.5960  -35.3910 O   0  0  0  0  0  0  0  0  0  0  0  0
   -3.4970   14.3730  -35.5670 N   0  0  0  0  0  0  0  0  0  0  0  0
   -3.7000   15.4840  -34.8300 C   0  0  0  0  0  0  0  0  0  0  0  0
   -2.6990   16.5670  -34.7160 C   0  0  0  0  0  0  0  0  0  0  0  0
   -3.1010   17.8470  -34.2980 C   0  0  0  0  0  0  0  0  0  0  0  0
   -2.1660   18.8800  -34.1900 C   0  0  0  0  0  0  0  0  0  0  0  0
   -0.8260   18.6500  -34.5100 C   0  0  0  0  0  0  0  0  0  0  0  0
    0.0800   19.6530  -34.4030 F   0  0  0  0  0  0  0  0  0  0  0  0
   -0.4200   17.3870  -34.9490 C   0  0  0  0  0  0  0  0  0  0  0  0
   -1.3530   16.3510  -35.0610 C   0  0  0  0  0  0  0  0  0  0  0  0
   -4.9240   15.3760  -34.1800 C   0  0  0  0  0  0  0  0  0  0  0  0
   -5.6200   16.3650  -33.3340 C   0  0  0  0  0  0  0  0  0  0  0  0
   -5.6190   16.2100  -32.0840 O   0  0  0  0  0  0  0  0  0  0  0  0
   -6.2870   17.4910  -33.9310 N   0  0  0  0  0  0  0  0  0  0  0  0
   -6.7920   18.6100  -33.1870 C   0  0  0  0  0  0  0  0  0  0  0  0
   -5.9650   19.7250  -32.9820 C   0  0  0  0  0  0  0  0  0  0  0  0
   -6.4340   20.8320  -32.2720 C   0  0  0  0  0  0  0  0  0  0  0  0
   -7.7410   20.8440  -31.7670 C   0  0  0  0  0  0  0  0  0  0  0  0
   -8.3290   22.2320  -30.8590 S   0  0  0  0  0  0  0  0  0  0  0  0
   -9.5220   21.8740  -30.0200 O   0  0  0  0  0  0  0  0  0  0  0  0
   -8.7510   23.2780  -31.8510 O   0  0  0  0  0  0  0  0  0  0  0  0
   -7.0760   22.9090  -29.8650 N   0  0  0  0  0  0  0  0  0  0  0  0
   -6.0450   23.6540  -30.1590 C   0  0  0  0  0  0  0  0  0  0  0  0
   -5.1850   24.1340  -29.1970 C   0  0  0  0  0  0  0  0  0  0  0  0
   -4.2580   24.8720  -29.9000 C   0  0  0  0  0  0  0  0  0  0  0  0
   -4.5470   24.8270  -31.2130 N   0  0  0  0  0  0  0  0  0  0  0  0
   -5.6380   24.0920  -31.3800 N   0  0  0  0  0  0  0  0  0  0  0  0
   -6.1520   23.8040  -32.7140 C   0  0  0  0  0  0  0  0  0  0  0  0
   -8.5810   19.7480  -31.9990 C   0  0  0  0  0  0  0  0  0  0  0  0
   -8.1130   18.6380  -32.7090 C   0  0  0  0  0  0  0  0  0  0  0  0
   -6.7600   13.4638  -33.0849 H   0  0  0  0  0  0  0  0  0  0  0  0
   -7.5278   14.0855  -34.5851 H   0  0  0  0  0  0  0  0  0  0  0  0
   -6.7295   12.4763  -34.5851 H   0  0  0  0  0  0  0  0  0  0  0  0
   -4.1568   18.0368  -34.0546 H   0  0  0  0  0  0  0  0  0  0  0  0
   -2.4861   19.8767  -33.8521 H   0  0  0  0  0  0  0  0  0  0  0  0
    0.6342   17.2074  -35.2067 H   0  0  0  0  0  0  0  0  0  0  0  0
   -1.0322   15.3622  -35.4208 H   0  0  0  0  0  0  0  0  0  0  0  0
   -6.2900   17.5670  -34.9730 H   0  0  0  0  0  0  0  0  0  0  0  0
   -4.9408   19.7269  -33.3832 H   0  0  0  0  0  0  0  0  0  0  0  0
   -5.7752   21.6976  -32.1085 H   0  0  0  0  0  0  0  0  0  0  0  0
   -5.2283   23.9660  -28.1108 H   0  0  0  0  0  0  0  0  0  0  0  0
   -3.4109   25.4151  -29.4555 H   0  0  0  0  0  0  0  0  0  0  0  0
   -7.1089   23.2679  -32.6304 H   0  0  0  0  0  0  0  0  0  0  0  0
   -6.3064   24.7470  -33.2589 H   0  0  0  0  0  0  0  0  0  0  0  0
   -5.4284   23.1799  -33.2589 H   0  0  0  0  0  0  0  0  0  0  0  0
   -9.6139   19.7603  -31.6209 H   0  0  0  0  0  0  0  0  0  0  0  0
   -8.7811   17.7840  -32.8939 H   0  0  0  0  0  0  0  0  0  0  0  0
  1  2  1  0
  2  3  1  0
  3  4  1  0
  4  5  2  0
  5  6  1  0
  6  7  2  0
  7  8  1  0
  8  9  2  0
  9 10  1  0
  9 11  1  0
 11 12  2  0
  5 13  1  0
 13 14  1  0
 14 15  2  0
 14 16  1  0
 16 17  1  0
 17 18  2  0
 18 19  1  0
 19 20  2  0
 20 21  1  0
 21 22  2  0
 21 23  2  0
 21 24  1  0
 24 25  2  3
 25 26  1  0
 26 27  2  0
 27 28  1  0
 28 29  1  0
 29 30  1  0
 20 31  1  0
 31 32  2  0
 13  2  2  0
 32 17  1  0
 12  6  1  0
 29 25  1  0
  1 33  1  0
  1 34  1  0
  1 35  1  0
  7 36  1  0
  8 37  1  0
 11 38  1  0
 12 39  1  0
 16 40  1  0
 18 41  1  0
 19 42  1  0
 26 43  1  0
 27 44  1  0
 30 45  1  0
 30 46  1  0
 30 47  1  0
 31 48  1  0
 32 49  1  0
M  CHG  1  28  -1
M  END
>  <UniqueID>  (25) 
22

>  <SMILES>  (25) 
Cc1onc(-c2ccc(F)cc2)c1C(=O)Nc1ccc(S(=O)(=O)N=c2cc[n-]n2C)cc1

>  <Energy>  (25) 
135.24756129183055

>  <Genealogy>  (25) 
Cc1onc(-c2ccc(F)cc2)c1C(=O)Nc1ccc(S(=O)(=O)N=c2cc[n-]n2C)cc1 (protonated)
Cc1onc(-c2ccc(F)cc2)c1C(=O)Nc1ccc(S(=O)(=O)N=c2cc[n-]n2C)cc1 (3D coordinates assigned)
Cc1onc(-c2ccc(F)cc2)c1C(=O)Nc1ccc(S(=O)(=O)N=c2cc[n-]n2C)cc1 (optimized conformer: 135.24756129183055 kcal/mol)

>  <smiles>  (25) 
Cc1onc(-c2ccc(F)cc2)c1C(=O)Nc1ccc(S(=O)(=O)N=c2cc[nH]n2C)cc1

>  <score_type>  (25) 
oracle

>  <origin>  (25) 
adgpu

>  <m_score__min__energy>  (25) 
-10.039999999999999

>  <m_primary>  (25) 
energy

$$$$
25:0
     RDKit          3D

 51 54  0  0  0  0  0  0  0  0999 V2000
    0.5944   23.4004  -23.0395 H   0  0  0  0  0  0  0  0  0  0  0  0
    0.4490   23.0500  -24.0720 C   0  0  0  0  0  0  0  0  0  0  0  0
   -0.6300   22.2200  -24.3800 C   0  0  0  0  0  0  0  0  0  0  0  0
   -1.3313   21.9134  -23.5899 H   0  0  0  0  0  0  0  0  0  0  0  0
   -0.8190   21.7790  -25.6910 C   0  0  0  0  0  0  0  0  0  0  0  0
   -1.6736   21.1298  -25.9321 H   0  0  0  0  0  0  0  0  0  0  0  0
    0.0740   22.1590  -26.7010 C   0  0  0  0  0  0  0  0  0  0  0  0
   -0.2140   21.5790  -28.3770 S   0  0  0  0  0  0  0  0  0  0  0  0
   -1.2090   23.0060  -28.7810 C   0  0  0  0  0  0  0  0  0  0  0  0
   -2.1790   22.9130  -29.7220 N   0  0  0  0  0  0  0  0  0  0  0  0
   -2.9670   23.9840  -30.0050 C   0  0  0  0  0  0  0  0  0  0  0  0
   -3.9020   23.9080  -30.9090 N   0  0  0  0  0  0  0  0  0  0  0  0
   -4.2960   22.7280  -31.6290 C   0  0  0  0  0  0  0  0  0  0  0  0
   -5.6450   22.3340  -31.7300 C   0  0  0  0  0  0  0  0  0  0  0  0
   -6.4274   22.9261  -31.2328 H   0  0  0  0  0  0  0  0  0  0  0  0
   -5.9930   21.1930  -32.4600 C   0  0  0  0  0  0  0  0  0  0  0  0
   -7.0460   20.8812  -32.5228 H   0  0  0  0  0  0  0  0  0  0  0  0
   -5.0030   20.4470  -33.1110 C   0  0  0  0  0  0  0  0  0  0  0  0
   -5.3600   19.2690  -33.8560 C   0  0  0  0  0  0  0  0  0  0  0  0
   -5.6470   18.3200  -34.4530 N   0  0  0  0  0  0  0  0  0  0  0  0
   -3.6650   20.8540  -33.0410 C   0  0  0  0  0  0  0  0  0  0  0  0
   -2.8871   20.2755  -33.5609 H   0  0  0  0  0  0  0  0  0  0  0  0
   -3.3160   21.9950  -32.3110 C   0  0  0  0  0  0  0  0  0  0  0  0
   -2.2655   22.3188  -32.2722 H   0  0  0  0  0  0  0  0  0  0  0  0
   -2.7540   25.1620  -29.3550 N   0  0  0  0  0  0  0  0  0  0  0  0
   -3.3520   25.9920  -29.5760 H   0  0  0  0  0  0  0  0  0  0  0  0
   -1.7760   25.2620  -28.4140 C   0  0  0  0  0  0  0  0  0  0  0  0
   -1.6130   26.3840  -27.7730 N   0  0  0  0  0  0  0  0  0  0  0  0
   -0.6000   26.6690  -26.7930 C   0  0  0  0  0  0  0  0  0  0  0  0
    0.5300   27.4530  -27.0980 C   0  0  0  0  0  0  0  0  0  0  0  0
    0.6672   27.8433  -28.1173 H   0  0  0  0  0  0  0  0  0  0  0  0
    1.4780   27.7370  -26.1100 C   0  0  0  0  0  0  0  0  0  0  0  0
    2.3648   28.3390  -26.3573 H   0  0  0  0  0  0  0  0  0  0  0  0
    1.3010   27.2570  -24.8070 C   0  0  0  0  0  0  0  0  0  0  0  0
    2.2790   27.5480  -23.7920 C   0  0  0  0  0  0  0  0  0  0  0  0
    3.0660   27.7840  -22.9770 N   0  0  0  0  0  0  0  0  0  0  0  0
    0.1640   26.5020  -24.4920 C   0  0  0  0  0  0  0  0  0  0  0  0
    0.0186   26.1295  -23.4673 H   0  0  0  0  0  0  0  0  0  0  0  0
   -0.7870   26.2210  -25.4790 C   0  0  0  0  0  0  0  0  0  0  0  0
   -1.6876   25.6444  -25.2214 H   0  0  0  0  0  0  0  0  0  0  0  0
   -1.0150   24.1730  -28.1240 N   0  0  0  0  0  0  0  0  0  0  0  0
    1.1760   22.9800  -26.3950 C   0  0  0  0  0  0  0  0  0  0  0  0
    2.0510   23.4060  -27.4520 N   0  0  0  0  0  0  0  0  0  0  0  0
    3.2280   24.2100  -27.3120 C   0  0  0  0  0  0  0  0  0  0  0  0
    4.2380   23.7750  -26.6940 O   0  0  0  0  0  0  0  0  0  0  0  0
    3.2940   25.5370  -27.9890 C   0  0  0  0  0  0  0  0  0  0  0  0
    3.3336   26.3336  -27.2314 H   0  0  0  0  0  0  0  0  0  0  0  0
    4.1956   25.5836  -28.6175 H   0  0  0  0  0  0  0  0  0  0  0  0
    2.4015   25.6728  -28.6175 H   0  0  0  0  0  0  0  0  0  0  0  0
    1.3450   23.4370  -25.0720 C   0  0  0  0  0  0  0  0  0  0  0  0
    2.1863   24.1015  -24.8258 H   0  0  0  0  0  0  0  0  0  0  0  0
  1  2  1  0
  2  3  2  0
  3  4  1  0
  3  5  1  0
  5  6  1  0
  5  7  2  0
  7  8  1  0
  8  9  1  0
  9 10  2  0
 10 11  1  0
 11 12  2  0
 12 13  1  0
 13 14  2  0
 14 15  1  0
 14 16  1  0
 16 17  1  0
 16 18  2  0
 18 19  1  0
 19 20  3  0
 18 21  1  0
 21 22  1  0
 21 23  2  0
 23 24  1  0
 11 25  1  0
 25 26  1  0
 25 27  1  0
 27 28  2  0
 28 29  1  0
 29 30  2  0
 30 31  1  0
 30 32  1  0
 32 33  1  0
 32 34  2  0
 34 35  1  0
 35 36  3  0
 34 37  1  0
 37 38  1  0
 37 39  2  0
 39 40  1  0
 27 41  1  0
  7 42  1  0
 42 43  1  0
 43 44  1  0
 44 45  2  0
 44 46  1  0
 46 47  1  0
 46 48  1  0
 46 49  1  0
 42 50  2  0
 50 51  1  0
 50  2  1  0
 41  9  1  0
 23 13  1  0
 39 29  1  0
M  CHG  2  41  -1  43  -1
M  END
>  <UniqueID>  (26) 
23

>  <SMILES>  (26) 
CC(=O)[N-]c1ccccc1Sc1n/c(=N\c2ccc(C#N)cc2)[nH]/c(=N/c2ccc(C#N)cc2)[n-]1

>  <Energy>  (26) 
61.82018180093808

>  <Genealogy>  (26) 
CC(=O)[N-]c1ccccc1Sc1nc(=Nc2ccc(C#N)cc2)[nH]c(=Nc2ccc(C#N)cc2)[n-]1 (protonated)
CC(=O)[N-]c1ccccc1Sc1n/c(=N\c2ccc(C#N)cc2)[nH]/c(=N/c2ccc(C#N)cc2)[n-]1 (cis-trans isomerization)
CC(=O)[N-]c1ccccc1Sc1n/c(=N\c2ccc(C#N)cc2)[nH]/c(=N/c2ccc(C#N)cc2)[n-]1 (3D coordinates assigned)
CC(=O)[N-]c1ccccc1Sc1n/c(=N\c2ccc(C#N)cc2)[nH]/c(=N/c2ccc(C#N)cc2)[n-]1 (optimized conformer: 61.82018180093808 kcal/mol)

>  <smiles>  (26) 
CC(=O)Nc1ccccc1Sc1nc(=Nc2ccc(C#N)cc2)[nH]c(=Nc2ccc(C#N)cc2)[nH]1

>  <score_type>  (26) 
oracle

>  <origin>  (26) 
adgpu

>  <m_score__min__energy>  (26) 
-10.880000000000001

>  <m_primary>  (26) 
energy

$$$$
26:0
     RDKit          3D

 48 51  0  0  1  0  0  0  0  0999 V2000
   -0.8520   26.4820  -27.9250 C   0  0  0  0  0  0  0  0  0  0  0  0
   -1.2760   25.2920  -28.6900 C   0  0  0  0  0  0  0  0  0  0  0  0
   -0.4530   24.2320  -28.7430 N   0  0  0  0  0  0  0  0  0  0  0  0
   -0.7930   23.1050  -29.4340 C   0  0  0  0  0  0  0  0  0  0  0  0
   -1.9890   22.9940  -30.1110 C   0  0  0  0  0  0  0  0  0  0  0  0
   -2.3280   21.8250  -30.8230 N   0  0  0  0  0  0  0  0  0  0  0  0
   -1.5030   21.2010  -31.8360 C   0  0  0  0  0  0  0  0  0  0  0  0
   -2.3730   21.1850  -33.0930 C   0  0  0  0  0  0  0  0  0  0  0  0
   -3.5600   20.3880  -32.8540 N   0  0  0  0  0  0  0  0  0  0  0  0
   -4.6470   21.0590  -33.4670 C   0  0  0  0  0  0  0  0  0  0  0  0
   -5.9540   20.9350  -32.7130 C   0  0  0  0  0  0  0  0  0  0  0  0
   -6.4960   22.0470  -32.0200 C   0  0  0  0  0  0  0  0  0  0  0  0
   -8.0310   21.3450  -31.3150 S   0  0  0  0  0  0  0  0  0  0  0  0
   -7.7500   19.6980  -32.0230 C   0  0  0  0  0  0  0  0  0  0  0  0
   -8.6890   18.5420  -31.8270 C   0  0  0  0  0  0  0  0  0  0  0  0
   -6.6400   19.8450  -32.6510 N   0  0  0  0  0  0  0  0  0  0  0  0
   -3.7290   19.9550  -31.5120 C   0  0  0  0  0  0  0  0  0  0  0  0
   -3.6090   21.1480  -30.5530 C   0  0  0  0  0  0  0  0  0  0  0  0
   -2.8260   24.1100  -30.0400 C   0  0  0  0  0  0  0  0  0  0  0  0
   -3.9670   24.1030  -30.6390 N   0  0  0  0  0  0  0  0  0  0  0  0
   -4.7780   25.2980  -30.5190 C   0  0  0  0  0  0  0  0  0  0  0  0
   -5.7920   25.2380  -29.3960 C   0  0  0  0  0  0  0  0  0  0  0  0
   -6.2300   25.2600  -30.8120 C   0  0  0  0  0  0  0  0  0  0  0  0
   -2.4450   25.1950  -29.3450 N   0  0  0  0  0  0  0  0  0  0  0  0
   -0.9270   26.2714  -26.8480 H   0  0  0  0  0  0  0  0  0  0  0  0
    0.1895   26.7290  -28.1786 H   0  0  0  0  0  0  0  0  0  0  0  0
   -1.5026   27.3319  -28.1786 H   0  0  0  0  0  0  0  0  0  0  0  0
   -0.0906   22.2586  -29.4513 H   0  0  0  0  0  0  0  0  0  0  0  0
   -0.5878   21.7873  -32.0056 H   0  0  0  0  0  0  0  0  0  0  0  0
   -1.1781   20.1917  -31.5431 H   0  0  0  0  0  0  0  0  0  0  0  0
   -2.6681   22.2138  -33.3469 H   0  0  0  0  0  0  0  0  0  0  0  0
   -1.8023   20.7488  -33.9261 H   0  0  0  0  0  0  0  0  0  0  0  0
   -4.3937   22.1265  -33.5462 H   0  0  0  0  0  0  0  0  0  0  0  0
   -4.8002   20.5850  -34.4477 H   0  0  0  0  0  0  0  0  0  0  0  0
   -6.0966   23.0679  -31.9297 H   0  0  0  0  0  0  0  0  0  0  0  0
   -8.8329   18.3649  -30.7509 H   0  0  0  0  0  0  0  0  0  0  0  0
   -9.6580   18.7736  -32.2933 H   0  0  0  0  0  0  0  0  0  0  0  0
   -8.2637   17.6410  -32.2933 H   0  0  0  0  0  0  0  0  0  0  0  0
   -4.7228   19.4969  -31.4000 H   0  0  0  0  0  0  0  0  0  0  0  0
   -2.9479   19.2191  -31.2703 H   0  0  0  0  0  0  0  0  0  0  0  0
   -4.4423   21.8463  -30.7203 H   0  0  0  0  0  0  0  0  0  0  0  0
   -3.6453   20.8031  -29.5091 H   0  0  0  0  0  0  0  0  0  0  0  0
   -3.9683   25.9591  -30.8615 H   0  0  0  0  0  0  0  0  0  0  0  0
   -5.9006   24.3207  -28.7987 H   0  0  0  0  0  0  0  0  0  0  0  0
   -6.0054   25.8420  -28.5018 H   0  0  0  0  0  0  0  0  0  0  0  0
   -6.6731   24.3586  -31.2605 H   0  0  0  0  0  0  0  0  0  0  0  0
   -6.9137   25.8936  -31.3959 H   0  0  0  0  0  0  0  0  0  0  0  0
   -3.0700   26.0450  -29.2850 H   0  0  0  0  0  0  0  0  0  0  0  0
  1  2  1  0
  2  3  2  0
  3  4  1  0
  4  5  2  0
  5  6  1  0
  6  7  1  0
  7  8  1  0
  8  9  1  0
  9 10  1  0
 10 11  1  0
 11 12  2  0
 12 13  1  0
 13 14  1  0
 14 15  1  0
 14 16  2  0
  9 17  1  0
 17 18  1  0
  5 19  1  0
 19 20  2  0
 20 21  1  0
 21 22  1  0
 22 23  1  0
 19 24  1  0
 24  2  1  0
 18  6  1  0
 23 21  1  0
 16 11  1  0
  1 25  1  0
  1 26  1  0
  1 27  1  0
  4 28  1  0
  7 29  1  0
  7 30  1  0
  8 31  1  0
  8 32  1  0
 10 33  1  0
 10 34  1  0
 12 35  1  0
 15 36  1  0
 15 37  1  0
 15 38  1  0
 17 39  1  0
 17 40  1  0
 18 41  1  0
 18 42  1  0
 21 43  1  0
 22 44  1  0
 22 45  1  0
 23 46  1  0
 23 47  1  0
 24 48  1  0
M  END
>  <smiles>  (27) 
Cc1ncc(N2CCN(Cc3csc(C)n3)CC2)c(=NC2CC2)[nH]1

>  <score_type>  (27) 
oracle

>  <origin>  (27) 
adgpu

>  <m_score__min__energy>  (27) 
-8.3200000000000003

>  <m_primary>  (27) 
energy

$$$$
27:0
     RDKit          3D

 39 41  0  0  0  0  0  0  0  0999 V2000
   -8.9840   18.3960  -31.6440 C   0  0  0  0  0  0  0  0  0  0  0  0
   -9.2110   19.4140  -32.6110 O   0  0  0  0  0  0  0  0  0  0  0  0
   -8.9810   20.7690  -32.3500 C   0  0  0  0  0  0  0  0  0  0  0  0
   -9.9540   21.5580  -32.2020 O   0  0  0  0  0  0  0  0  0  0  0  0
   -7.5940   21.2740  -32.2480 C   0  0  0  0  0  0  0  0  0  0  0  0
   -6.5060   20.4080  -32.4560 C   0  0  0  0  0  0  0  0  0  0  0  0
   -5.1940   20.8820  -32.3600 C   0  0  0  0  0  0  0  0  0  0  0  0
   -4.9440   22.2310  -32.0750 C   0  0  0  0  0  0  0  0  0  0  0  0
   -3.5880   22.6890  -31.9540 N   0  0  0  0  0  0  0  0  0  0  0  0
   -2.9290   22.9280  -30.7020 C   0  0  0  0  0  0  0  0  0  0  0  0
   -2.1040   22.0300  -30.0540 C   0  0  0  0  0  0  0  0  0  0  0  0
   -1.6300   22.7030  -28.9440 C   0  0  0  0  0  0  0  0  0  0  0  0
   -0.7860   22.1470  -27.9890 O   0  0  0  0  0  0  0  0  0  0  0  0
   -2.1060   23.9680  -28.8950 N   0  0  0  0  0  0  0  0  0  0  0  0
   -1.8160   24.9680  -27.9010 C   0  0  0  0  0  0  0  0  0  0  0  0
   -2.4950   24.9650  -26.6710 C   0  0  0  0  0  0  0  0  0  0  0  0
   -2.2130   25.9360  -25.7050 C   0  0  0  0  0  0  0  0  0  0  0  0
   -1.2520   26.9230  -25.9580 C   0  0  0  0  0  0  0  0  0  0  0  0
   -0.9640   27.8960  -25.0040 O   0  0  0  0  0  0  0  0  0  0  0  0
   -0.5750   26.9330  -27.1810 C   0  0  0  0  0  0  0  0  0  0  0  0
   -0.8530   25.9620  -28.1490 C   0  0  0  0  0  0  0  0  0  0  0  0
   -2.8910   24.1090  -29.9830 C   0  0  0  0  0  0  0  0  0  0  0  0
   -3.5050   25.3020  -30.3520 O   0  0  0  0  0  0  0  0  0  0  0  0
   -6.0280   23.0940  -31.8420 C   0  0  0  0  0  0  0  0  0  0  0  0
   -7.3410   22.6220  -31.9360 C   0  0  0  0  0  0  0  0  0  0  0  0
   -9.0789   18.8218  -30.6342 H   0  0  0  0  0  0  0  0  0  0  0  0
   -9.7254   17.5940  -31.7750 H   0  0  0  0  0  0  0  0  0  0  0  0
   -7.9721   17.9849  -31.7750 H   0  0  0  0  0  0  0  0  0  0  0  0
   -6.6882   19.3501  -32.6960 H   0  0  0  0  0  0  0  0  0  0  0  0
   -4.3516   20.1906  -32.5094 H   0  0  0  0  0  0  0  0  0  0  0  0
   -3.0410   22.8530  -32.8290 H   0  0  0  0  0  0  0  0  0  0  0  0
   -1.8731   20.9981  -30.3570 H   0  0  0  0  0  0  0  0  0  0  0  0
   -3.2529   24.1944  -26.4667 H   0  0  0  0  0  0  0  0  0  0  0  0
   -2.7475   25.9246  -24.7436 H   0  0  0  0  0  0  0  0  0  0  0  0
   -1.6080   28.1040  -24.2490 H   0  0  0  0  0  0  0  0  0  0  0  0
    0.1795   27.7076  -27.3831 H   0  0  0  0  0  0  0  0  0  0  0  0
   -0.3156   25.9762  -29.1087 H   0  0  0  0  0  0  0  0  0  0  0  0
   -5.8428   24.1472  -31.5841 H   0  0  0  0  0  0  0  0  0  0  0  0
   -8.1821   23.3099  -31.7647 H   0  0  0  0  0  0  0  0  0  0  0  0
  1  2  1  0
  2  3  1  0
  3  4  2  0
  3  5  1  0
  5  6  2  0
  6  7  1  0
  7  8  2  0
  8  9  1  0
  9 10  1  0
 10 11  1  0
 11 12  2  0
 12 13  1  0
 12 14  1  0
 14 15  1  0
 15 16  2  0
 16 17  1  0
 17 18  2  0
 18 19  1  0
 18 20  1  0
 20 21  2  0
 14 22  1  0
 22 23  1  0
  8 24  1  0
 24 25  2  0
 25  5  1  0
 22 10  2  0
 21 15  1  0
  1 26  1  0
  1 27  1  0
  1 28  1  0
  6 29  1  0
  7 30  1  0
  9 31  1  0
 11 32  1  0
 16 33  1  0
 17 34  1  0
 19 35  1  0
 20 36  1  0
 21 37  1  0
 24 38  1  0
 25 39  1  0
M  CHG  2  13  -1  23  -1
M  END
>  <UniqueID>  (28) 
24

>  <SMILES>  (28) 
COC(=O)c1ccc(Nc2cc([O-])n(-c3ccc(O)cc3)c2[O-])cc1

>  <Energy>  (28) 
79.2645687006966

>  <Genealogy>  (28) 
COC(=O)c1ccc(Nc2cc([O-])n(-c3ccc(O)cc3)c2[O-])cc1 (protonated)
COC(=O)c1ccc(Nc2cc([O-])n(-c3ccc(O)cc3)c2[O-])cc1 (3D coordinates assigned)
COC(=O)c1ccc(Nc2cc([O-])n(-c3ccc(O)cc3)c2[O-])cc1 (optimized conformer: 79.2645687006966 kcal/mol)

>  <smiles>  (28) 
COC(=O)c1ccc(Nc2cc(O)n(-c3ccc(O)cc3)c2O)cc1

>  <score_type>  (28) 
oracle

>  <origin>  (28) 
adgpu

>  <m_score__min__energy>  (28) 
-10.289999999999999

>  <m_primary>  (28) 
energy

$$$$
28:0
     RDKit          3D

 34 36  0  0  0  0  0  0  0  0999 V2000
   -4.4490   20.5270  -30.7980 O   0  0  0  0  0  0  0  0  0  0  0  0
   -4.4100   21.6440  -31.3800 C   0  0  0  0  0  0  0  0  0  0  0  0
   -4.8910   21.7750  -32.7260 N   0  0  0  0  0  0  0  0  0  0  0  0
   -5.3670   20.6320  -33.5040 C   0  0  0  0  0  0  0  0  0  0  0  0
   -6.6700   20.1190  -32.9430 C   0  0  0  0  0  0  0  0  0  0  0  0
   -7.5900   21.0250  -32.3860 C   0  0  0  0  0  0  0  0  0  0  0  0
   -8.7940   20.5680  -31.8430 C   0  0  0  0  0  0  0  0  0  0  0  0
   -9.0910   19.2050  -31.8470 C   0  0  0  0  0  0  0  0  0  0  0  0
   -8.1840   18.2930  -32.3930 C   0  0  0  0  0  0  0  0  0  0  0  0
   -6.9740   18.7390  -32.9390 C   0  0  0  0  0  0  0  0  0  0  0  0
   -5.8680   17.5440  -33.6100 Cl  0  0  0  0  0  0  0  0  0  0  0  0
   -3.8710   22.8090  -30.6650 C   0  0  0  0  0  0  0  0  0  0  0  0
   -4.0930   24.0820  -31.0390 N   0  0  0  0  0  0  0  0  0  0  0  0
   -3.4610   24.8460  -30.1660 N   0  0  0  0  0  0  0  0  0  0  0  0
   -2.8680   24.0210  -29.2800 C   0  0  0  0  0  0  0  0  0  0  0  0
   -2.0520   24.4780  -28.1270 C   0  0  0  0  0  0  0  0  0  0  0  0
   -2.0610   23.7290  -26.9340 C   0  0  0  0  0  0  0  0  0  0  0  0
   -1.3020   24.1350  -25.8330 C   0  0  0  0  0  0  0  0  0  0  0  0
   -0.5260   25.2930  -25.9060 C   0  0  0  0  0  0  0  0  0  0  0  0
   -0.5060   26.0470  -27.0800 C   0  0  0  0  0  0  0  0  0  0  0  0
   -1.2620   25.6500  -28.1890 C   0  0  0  0  0  0  0  0  0  0  0  0
   -1.2170   26.4270  -29.3420 O   0  0  0  0  0  0  0  0  0  0  0  0
   -3.1040   22.7230  -29.5600 N   0  0  0  0  0  0  0  0  0  0  0  0
   -4.9180   22.7200  -33.1710 H   0  0  0  0  0  0  0  0  0  0  0  0
   -5.5194   20.9427  -34.5482 H   0  0  0  0  0  0  0  0  0  0  0  0
   -4.6166   19.8293  -33.4538 H   0  0  0  0  0  0  0  0  0  0  0  0
   -7.3605   22.1008  -32.3776 H   0  0  0  0  0  0  0  0  0  0  0  0
   -9.5087   21.2844  -31.4117 H   0  0  0  0  0  0  0  0  0  0  0  0
  -10.0398   18.8479  -31.4201 H   0  0  0  0  0  0  0  0  0  0  0  0
   -8.4217   17.2190  -32.3940 H   0  0  0  0  0  0  0  0  0  0  0  0
   -2.6711   22.8161  -26.8684 H   0  0  0  0  0  0  0  0  0  0  0  0
   -1.3161   23.5410  -24.9073 H   0  0  0  0  0  0  0  0  0  0  0  0
    0.0699   25.6112  -25.0379 H   0  0  0  0  0  0  0  0  0  0  0  0
    0.1074   26.9585  -27.1342 H   0  0  0  0  0  0  0  0  0  0  0  0
  1  2  2  0
  2  3  1  0
  3  4  1  0
  4  5  1  0
  5  6  2  0
  6  7  1  0
  7  8  2  0
  8  9  1  0
  9 10  2  0
 10 11  1  0
  2 12  1  0
 12 13  2  0
 13 14  1  0
 14 15  1  0
 15 16  1  0
 16 17  2  0
 17 18  1  0
 18 19  2  0
 19 20  1  0
 20 21  2  0
 21 22  1  0
 15 23  2  0
 10  5  1  0
 23 12  1  0
 21 16  1  0
  3 24  1  0
  4 25  1  0
  4 26  1  0
  6 27  1  0
  7 28  1  0
  8 29  1  0
  9 30  1  0
 17 31  1  0
 18 32  1  0
 19 33  1  0
 20 34  1  0
M  CHG  2  14  -1  22  -1
M  END
>  <UniqueID>  (29) 
25

>  <SMILES>  (29) 
O=C(NCc1ccccc1Cl)c1n[n-]c(-c2ccccc2[O-])n1

>  <Energy>  (29) 
68.20041978530597

>  <Genealogy>  (29) 
O=C(NCc1ccccc1Cl)c1n[n-]c(-c2ccccc2[O-])n1 (protonated)
O=C(NCc1ccccc1Cl)c1n[n-]c(-c2ccccc2[O-])n1 (3D coordinates assigned)
O=C(NCc1ccccc1Cl)c1n[n-]c(-c2ccccc2[O-])n1 (optimized conformer: 68.20041978530597 kcal/mol)

>  <smiles>  (29) 
O=C(NCc1ccccc1Cl)c1n[nH]c(-c2ccccc2O)n1

>  <score_type>  (29) 
oracle

>  <origin>  (29) 
adgpu

>  <m_score__min__energy>  (29) 
-13.43

>  <m_primary>  (29) 
energy

$$$$
29:0
     RDKit          3D

 39 40  0  0  0  0  0  0  0  0999 V2000
   -6.2060   19.3360  -33.8210 C   0  0  0  0  0  0  0  0  0  0  0  0
   -6.1010   19.7670  -32.3600 C   0  0  0  0  0  0  0  0  0  0  0  0
   -7.4550   19.6270  -31.6440 C   0  0  0  0  0  0  0  0  0  0  0  0
   -8.5330   20.3580  -32.3240 N   0  0  0  0  0  0  0  0  0  0  0  0
   -8.9410   21.8400  -31.5040 S   0  0  0  0  0  0  0  0  0  0  0  0
   -9.8590   22.6830  -32.3450 O   0  0  0  0  0  0  0  0  0  0  0  0
   -9.6220   21.5360  -30.1980 O   0  0  0  0  0  0  0  0  0  0  0  0
   -7.4560   22.7320  -31.1900 C   0  0  0  0  0  0  0  0  0  0  0  0
   -7.1110   23.0880  -29.8800 C   0  0  0  0  0  0  0  0  0  0  0  0
   -5.9250   23.7850  -29.6280 C   0  0  0  0  0  0  0  0  0  0  0  0
   -5.0600   24.1170  -30.6860 C   0  0  0  0  0  0  0  0  0  0  0  0
   -3.8460   24.8520  -30.4770 N   0  0  0  0  0  0  0  0  0  0  0  0
   -2.7410   24.4640  -29.6460 C   0  0  0  0  0  0  0  0  0  0  0  0
   -1.8580   25.3080  -29.3410 O   0  0  0  0  0  0  0  0  0  0  0  0
   -2.6660   23.0720  -29.1300 C   0  0  0  0  0  0  0  0  0  0  0  0
   -2.6350   22.8670  -27.7370 C   0  0  0  0  0  0  0  0  0  0  0  0
   -2.5800   21.5770  -27.2040 C   0  0  0  0  0  0  0  0  0  0  0  0
   -2.5500   20.4710  -28.0510 C   0  0  0  0  0  0  0  0  0  0  0  0
   -2.5710   20.6510  -29.4340 C   0  0  0  0  0  0  0  0  0  0  0  0
   -2.6260   21.9380  -29.9850 C   0  0  0  0  0  0  0  0  0  0  0  0
   -2.5900   22.0620  -31.7410 Cl  0  0  0  0  0  0  0  0  0  0  0  0
   -5.4200   23.7740  -31.9960 C   0  0  0  0  0  0  0  0  0  0  0  0
   -6.6040   23.0760  -32.2470 C   0  0  0  0  0  0  0  0  0  0  0  0
   -6.4661   18.2683  -33.8705 H   0  0  0  0  0  0  0  0  0  0  0  0
   -6.9864   19.9272  -34.3225 H   0  0  0  0  0  0  0  0  0  0  0  0
   -5.2411   19.5020  -34.3225 H   0  0  0  0  0  0  0  0  0  0  0  0
   -5.3583   19.1349  -31.8512 H   0  0  0  0  0  0  0  0  0  0  0  0
   -5.7958   20.8233  -32.3279 H   0  0  0  0  0  0  0  0  0  0  0  0
   -7.7234   18.5610  -31.6036 H   0  0  0  0  0  0  0  0  0  0  0  0
   -7.3451   20.0566  -30.6374 H   0  0  0  0  0  0  0  0  0  0  0  0
   -8.2390   20.5950  -33.3000 H   0  0  0  0  0  0  0  0  0  0  0  0
   -7.7756   22.8183  -29.0460 H   0  0  0  0  0  0  0  0  0  0  0  0
   -5.6678   24.0746  -28.5985 H   0  0  0  0  0  0  0  0  0  0  0  0
   -2.6543   23.7338  -27.0601 H   0  0  0  0  0  0  0  0  0  0  0  0
   -2.5603   21.4340  -26.1135 H   0  0  0  0  0  0  0  0  0  0  0  0
   -2.5098   19.4560  -27.6290 H   0  0  0  0  0  0  0  0  0  0  0  0
   -2.5441   19.7745  -30.0981 H   0  0  0  0  0  0  0  0  0  0  0  0
   -4.7652   24.0565  -32.8335 H   0  0  0  0  0  0  0  0  0  0  0  0
   -6.8677   22.7959  -33.2775 H   0  0  0  0  0  0  0  0  0  0  0  0
  1  2  1  0
  2  3  1  0
  3  4  1  0
  4  5  1  0
  5  6  2  0
  5  7  2  0
  5  8  1  0
  8  9  2  0
  9 10  1  0
 10 11  2  0
 11 12  1  0
 12 13  1  0
 13 14  2  0
 13 15  1  0
 15 16  2  0
 16 17  1  0
 17 18  2  0
 18 19  1  0
 19 20  2  0
 20 21  1  0
 11 22  1  0
 22 23  2  0
 23  8  1  0
 20 15  1  0
  1 24  1  0
  1 25  1  0
  1 26  1  0
  2 27  1  0
  2 28  1  0
  3 29  1  0
  3 30  1  0
  4 31  1  0
  9 32  1  0
 10 33  1  0
 16 34  1  0
 17 35  1  0
 18 36  1  0
 19 37  1  0
 22 38  1  0
 23 39  1  0
M  CHG  1  12  -1
M  END
>  <UniqueID>  (30) 
26

>  <SMILES>  (30) 
CCCNS(=O)(=O)c1ccc([N-]C(=O)c2ccccc2Cl)cc1

>  <Energy>  (30) 
43.3954841289953

>  <Genealogy>  (30) 
CCCNS(=O)(=O)c1ccc([N-]C(=O)c2ccccc2Cl)cc1 (protonated)
CCCNS(=O)(=O)c1ccc([N-]C(=O)c2ccccc2Cl)cc1 (3D coordinates assigned)
CCCNS(=O)(=O)c1ccc([N-]C(=O)c2ccccc2Cl)cc1 (optimized conformer: 43.3954841289953 kcal/mol)

>  <smiles>  (30) 
CCCNS(=O)(=O)c1ccc(NC(=O)c2ccccc2Cl)cc1

>  <score_type>  (30) 
oracle

>  <origin>  (30) 
adgpu

>  <m_score__min__energy>  (30) 
-9.9100000000000001

>  <m_primary>  (30) 
energy

$$$$
30:0
     RDKit          3D

 46 49  0  0  0  0  0  0  0  0999 V2000
   -9.4960   22.2930  -31.2670 C   0  0  0  0  0  0  0  0  0  0  0  0
   -8.5490   21.2060  -31.6880 C   0  0  0  0  0  0  0  0  0  0  0  0
   -8.9960   20.1890  -32.4350 C   0  0  0  0  0  0  0  0  0  0  0  0
   -8.1020   19.0940  -32.8400 C   0  0  0  0  0  0  0  0  0  0  0  0
   -6.7820   19.1740  -32.6200 C   0  0  0  0  0  0  0  0  0  0  0  0
   -5.8960   18.0420  -32.9870 C   0  0  0  0  0  0  0  0  0  0  0  0
   -5.5540   17.0770  -32.0250 C   0  0  0  0  0  0  0  0  0  0  0  0
   -4.6930   16.0250  -32.3550 C   0  0  0  0  0  0  0  0  0  0  0  0
   -4.1670   15.9290  -33.6470 C   0  0  0  0  0  0  0  0  0  0  0  0
   -4.5030   16.8820  -34.6110 C   0  0  0  0  0  0  0  0  0  0  0  0
   -5.3640   17.9350  -34.2870 C   0  0  0  0  0  0  0  0  0  0  0  0
   -6.2490   20.3660  -31.9970 N   0  0  0  0  0  0  0  0  0  0  0  0
   -4.8630   20.7370  -32.1510 C   0  0  0  0  0  0  0  0  0  0  0  0
   -4.2390   20.6510  -33.4040 C   0  0  0  0  0  0  0  0  0  0  0  0
   -2.9020   21.0260  -33.5530 C   0  0  0  0  0  0  0  0  0  0  0  0
   -2.1810   21.5000  -32.4550 C   0  0  0  0  0  0  0  0  0  0  0  0
   -2.7880   21.6030  -31.1990 C   0  0  0  0  0  0  0  0  0  0  0  0
   -2.0170   22.1220  -30.1070 N   0  0  0  0  0  0  0  0  0  0  0  0
   -2.4030   23.5390  -29.1810 S   0  0  0  0  0  0  0  0  0  0  0  0
   -2.5640   23.1800  -27.7310 O   0  0  0  0  0  0  0  0  0  0  0  0
   -1.2680   24.5150  -29.3200 O   0  0  0  0  0  0  0  0  0  0  0  0
   -3.8700   24.2840  -29.7940 C   0  0  0  0  0  0  0  0  0  0  0  0
   -5.1530   23.9150  -29.4740 C   0  0  0  0  0  0  0  0  0  0  0  0
   -6.0120   24.6970  -30.1500 N   0  0  0  0  0  0  0  0  0  0  0  0
   -5.2120   25.5180  -30.8650 C   0  0  0  0  0  0  0  0  0  0  0  0
   -3.8940   25.3000  -30.6710 N   0  0  0  0  0  0  0  0  0  0  0  0
   -4.1290   21.2070  -31.0480 C   0  0  0  0  0  0  0  0  0  0  0  0
   -7.1310   21.2040  -31.1670 C   0  0  0  0  0  0  0  0  0  0  0  0
   -9.5362   22.3392  -30.1687 H   0  0  0  0  0  0  0  0  0  0  0  0
   -9.1455   23.2580  -31.6620 H   0  0  0  0  0  0  0  0  0  0  0  0
  -10.4999   22.0780  -31.6620 H   0  0  0  0  0  0  0  0  0  0  0  0
  -10.0495   20.1722  -32.7511 H   0  0  0  0  0  0  0  0  0  0  0  0
   -8.5201   18.2012  -33.3279 H   0  0  0  0  0  0  0  0  0  0  0  0
   -5.9653   17.1490  -31.0073 H   0  0  0  0  0  0  0  0  0  0  0  0
   -4.4295   15.2724  -31.5972 H   0  0  0  0  0  0  0  0  0  0  0  0
   -3.4882   15.1025  -33.9042 H   0  0  0  0  0  0  0  0  0  0  0  0
   -4.0894   16.8041  -35.6273 H   0  0  0  0  0  0  0  0  0  0  0  0
   -5.6269   18.6825  -35.0500 H   0  0  0  0  0  0  0  0  0  0  0  0
   -4.8054   20.2864  -34.2736 H   0  0  0  0  0  0  0  0  0  0  0  0
   -2.4161   20.9479  -34.5368 H   0  0  0  0  0  0  0  0  0  0  0  0
   -1.1284   21.7944  -32.5787 H   0  0  0  0  0  0  0  0  0  0  0  0
   -5.4324   23.1105  -28.7778 H   0  0  0  0  0  0  0  0  0  0  0  0
   -5.5991   26.2929  -31.5430 H   0  0  0  0  0  0  0  0  0  0  0  0
   -4.6073   21.2655  -30.0591 H   0  0  0  0  0  0  0  0  0  0  0  0
   -7.1293   20.8142  -30.1384 H   0  0  0  0  0  0  0  0  0  0  0  0
   -6.7523   22.2363  -31.1969 H   0  0  0  0  0  0  0  0  0  0  0  0
  1  2  1  0
  2  3  2  0
  3  4  1  0
  4  5  2  0
  5  6  1  0
  6  7  2  0
  7  8  1  0
  8  9  2  0
  9 10  1  0
 10 11  2  0
  5 12  1  0
 12 13  1  0
 13 14  2  0
 14 15  1  0
 15 16  2  0
 16 17  1  0
 17 18  1  0
 18 19  1  0
 19 20  2  0
 19 21  2  0
 19 22  1  0
 22 23  2  0
 23 24  1  0
 24 25  1  0
 25 26  2  0
 17 27  2  0
 12 28  1  0
 28  2  1  0
 11  6  1  0
 27 13  1  0
 26 22  1  0
  1 29  1  0
  1 30  1  0
  1 31  1  0
  3 32  1  0
  4 33  1  0
  7 34  1  0
  8 35  1  0
  9 36  1  0
 10 37  1  0
 11 38  1  0
 14 39  1  0
 15 40  1  0
 16 41  1  0
 23 42  1  0
 25 43  1  0
 27 44  1  0
 28 45  1  0
 28 46  1  0
M  CHG  2  18  -1  24  -1
M  END
>  <UniqueID>  (31) 
27

>  <SMILES>  (31) 
CC1=CC=C(c2ccccc2)N(c2cccc([N-]S(=O)(=O)c3c[n-]cn3)c2)C1

>  <Energy>  (31) 
89.14879117832923

>  <Genealogy>  (31) 
CC1=CC=C(c2ccccc2)N(c2cccc([N-]S(=O)(=O)c3c[n-]cn3)c2)C1 (protonated)
CC1=CC=C(c2ccccc2)N(c2cccc([N-]S(=O)(=O)c3c[n-]cn3)c2)C1 (3D coordinates assigned)
CC1=CC=C(c2ccccc2)N(c2cccc([N-]S(=O)(=O)c3c[n-]cn3)c2)C1 (nonaromatic ring conformer: 89.14879117832923 kcal/mol)

>  <smiles>  (31) 
CC1=CC=C(c2ccccc2)N(c2cccc(NS(=O)(=O)c3c[nH]cn3)c2)C1

>  <score_type>  (31) 
oracle

>  <origin>  (31) 
adgpu

>  <m_score__min__energy>  (31) 
-11.84

>  <m_primary>  (31) 
energy

$$$$
31:0
     RDKit          3D

 39 42  0  0  0  0  0  0  0  0999 V2000
   -1.9020   20.3870  -33.8290 C   0  0  0  0  0  0  0  0  0  0  0  0
   -2.4000   19.2310  -34.4960 O   0  0  0  0  0  0  0  0  0  0  0  0
   -3.6140   18.6010  -34.1870 C   0  0  0  0  0  0  0  0  0  0  0  0
   -3.7680   17.2390  -34.5380 C   0  0  0  0  0  0  0  0  0  0  0  0
   -4.9600   16.5500  -34.2560 C   0  0  0  0  0  0  0  0  0  0  0  0
   -5.9780   17.2550  -33.6210 C   0  0  0  0  0  0  0  0  0  0  0  0
   -7.1890   16.8060  -33.2570 N   0  0  0  0  0  0  0  0  0  0  0  0
   -7.8510   17.8020  -32.6810 N   0  0  0  0  0  0  0  0  0  0  0  0
   -7.0570   18.9020  -32.6730 C   0  0  0  0  0  0  0  0  0  0  0  0
   -7.4690   20.2050  -32.1060 C   0  0  0  0  0  0  0  0  0  0  0  0
   -6.5100   21.1230  -31.6540 C   0  0  0  0  0  0  0  0  0  0  0  0
   -6.9380   22.3520  -31.1230 C   0  0  0  0  0  0  0  0  0  0  0  0
   -5.9930   23.3320  -30.6340 N   0  0  0  0  0  0  0  0  0  0  0  0
   -4.6900   22.8970  -30.1090 C   0  0  0  0  0  0  0  0  0  0  0  0
   -3.5860   23.7410  -30.7340 C   0  0  0  0  0  0  0  0  0  0  0  0
   -3.8520   25.1520  -30.4920 N   0  0  0  0  0  0  0  0  0  0  0  0
   -5.1830   25.6700  -30.4750 C   0  0  0  0  0  0  0  0  0  0  0  0
   -5.3620   26.9130  -30.3830 O   0  0  0  0  0  0  0  0  0  0  0  0
   -6.3760   24.7520  -30.5290 C   0  0  0  0  0  0  0  0  0  0  0  0
   -8.2730   22.6140  -31.0660 N   0  0  0  0  0  0  0  0  0  0  0  0
   -9.1900   21.7170  -31.5070 C   0  0  0  0  0  0  0  0  0  0  0  0
   -8.7870   20.5280  -32.0190 N   0  0  0  0  0  0  0  0  0  0  0  0
   -5.8480   18.5700  -33.2740 C   0  0  0  0  0  0  0  0  0  0  0  0
   -4.6770   19.2830  -33.5400 C   0  0  0  0  0  0  0  0  0  0  0  0
   -1.9659   20.2386  -32.7409 H   0  0  0  0  0  0  0  0  0  0  0  0
   -0.8529   20.5522  -34.1155 H   0  0  0  0  0  0  0  0  0  0  0  0
   -2.5026   21.2629  -34.1155 H   0  0  0  0  0  0  0  0  0  0  0  0
   -2.9427   16.7117  -35.0389 H   0  0  0  0  0  0  0  0  0  0  0  0
   -5.0839   15.4913  -34.5275 H   0  0  0  0  0  0  0  0  0  0  0  0
   -7.5690   15.8430  -33.3950 H   0  0  0  0  0  0  0  0  0  0  0  0
   -5.4378   20.8846  -31.7142 H   0  0  0  0  0  0  0  0  0  0  0  0
   -4.6740   23.0225  -29.0163 H   0  0  0  0  0  0  0  0  0  0  0  0
   -4.5285   21.8377  -30.3576 H   0  0  0  0  0  0  0  0  0  0  0  0
   -2.6191   23.4688  -30.2856 H   0  0  0  0  0  0  0  0  0  0  0  0
   -3.5549   23.5563  -31.8179 H   0  0  0  0  0  0  0  0  0  0  0  0
   -6.9690   24.8904  -29.6129 H   0  0  0  0  0  0  0  0  0  0  0  0
   -6.9544   25.0090  -31.4287 H   0  0  0  0  0  0  0  0  0  0  0  0
  -10.2625   21.9547  -31.4491 H   0  0  0  0  0  0  0  0  0  0  0  0
   -4.5815   20.3415  -33.2565 H   0  0  0  0  0  0  0  0  0  0  0  0
  1  2  1  0
  2  3  1  0
  3  4  2  0
  4  5  1  0
  5  6  2  0
  6  7  1  0
  7  8  1  0
  8  9  2  0
  9 10  1  0
 10 11  2  0
 11 12  1  0
 12 13  1  0
 13 14  1  0
 14 15  1  0
 15 16  1  0
 16 17  1  0
 17 18  2  0
 17 19  1  0
 12 20  2  0
 20 21  1  0
 21 22  2  0
  9 23  1  0
 23 24  2  0
 24  3  1  0
 23  6  1  0
 22 10  1  0
 19 13  1  0
  1 25  1  0
  1 26  1  0
  1 27  1  0
  4 28  1  0
  5 29  1  0
  7 30  1  0
 11 31  1  0
 14 32  1  0
 14 33  1  0
 15 34  1  0
 15 35  1  0
 19 36  1  0
 19 37  1  0
 21 38  1  0
 24 39  1  0
M  CHG  1  16  -1
M  END
>  <UniqueID>  (32) 
28

>  <SMILES>  (32) 
COc1ccc2[nH]nc(-c3cc(N4CC[N-]C(=O)C4)ncn3)c2c1

>  <Energy>  (32) 
85.29917443806075

>  <Genealogy>  (32) 
COc1ccc2[nH]nc(-c3cc(N4CC[N-]C(=O)C4)ncn3)c2c1 (protonated)
COc1ccc2[nH]nc(-c3cc(N4CC[N-]C(=O)C4)ncn3)c2c1 (3D coordinates assigned)
COc1ccc2[nH]nc(-c3cc(N4CC[N-]C(=O)C4)ncn3)c2c1 (nonaromatic ring conformer: 85.29917443806075 kcal/mol)

>  <smiles>  (32) 
COc1ccc2[nH]nc(-c3cc(N4CCNC(=O)C4)ncn3)c2c1

>  <score_type>  (32) 
oracle

>  <origin>  (32) 
adgpu

>  <m_score__min__energy>  (32) 
-9.5899999999999999

>  <m_primary>  (32) 
energy

$$$$
32:0
     RDKit          3D

 53 56  0  0  0  0  0  0  0  0999 V2000
   -5.7480   25.3900  -30.2870 C   0  0  0  0  0  0  0  0  0  0  0  0
   -6.2050   24.1520  -29.6630 N   0  0  0  0  0  0  0  0  0  0  0  0
   -6.6230   22.9920  -30.4060 C   0  0  0  0  0  0  0  0  0  0  0  0
   -7.9800   22.6390  -30.4200 C   0  0  0  0  0  0  0  0  0  0  0  0
   -8.4200   21.5280  -31.1420 C   0  0  0  0  0  0  0  0  0  0  0  0
   -7.5060   20.7470  -31.8550 C   0  0  0  0  0  0  0  0  0  0  0  0
   -7.9500   19.6860  -32.5760 N   0  0  0  0  0  0  0  0  0  0  0  0
   -7.1070   18.9050  -33.2960 C   0  0  0  0  0  0  0  0  0  0  0  0
   -5.7290   19.1580  -33.3080 C   0  0  0  0  0  0  0  0  0  0  0  0
   -4.6790   18.1390  -34.3080 S   0  0  0  0  0  0  0  0  0  0  0  0
   -3.3650   18.8140  -34.5760 O   0  0  0  0  0  0  0  0  0  0  0  0
   -5.3630   17.8710  -35.6190 O   0  0  0  0  0  0  0  0  0  0  0  0
   -4.3340   16.6130  -33.4920 C   0  0  0  0  0  0  0  0  0  0  0  0
   -3.1090   15.9680  -33.7150 C   0  0  0  0  0  0  0  0  0  0  0  0
   -2.8190   14.7670  -33.0600 C   0  0  0  0  0  0  0  0  0  0  0  0
   -3.7480   14.2080  -32.1790 C   0  0  0  0  0  0  0  0  0  0  0  0
   -4.9690   14.8510  -31.9490 C   0  0  0  0  0  0  0  0  0  0  0  0
   -5.2620   16.0520  -32.6020 C   0  0  0  0  0  0  0  0  0  0  0  0
   -5.2290   20.2500  -32.5600 C   0  0  0  0  0  0  0  0  0  0  0  0
   -3.8210   20.5380  -32.5320 N   0  0  0  0  0  0  0  0  0  0  0  0
   -3.2670   21.5250  -33.4650 C   0  0  0  0  0  0  0  0  0  0  0  0
   -1.7370   21.5390  -33.3890 C   0  0  0  0  0  0  0  0  0  0  0  0
   -1.2220   20.1540  -33.4000 N   0  0  0  0  0  0  0  0  0  0  0  0
    0.2460   20.1600  -33.5190 C   0  0  0  0  0  0  0  0  0  0  0  0
   -1.6470   19.3730  -32.2050 C   0  0  0  0  0  0  0  0  0  0  0  0
   -2.9550   19.8740  -31.5540 C   0  0  0  0  0  0  0  0  0  0  0  0
   -6.1320   21.0670  -31.8390 C   0  0  0  0  0  0  0  0  0  0  0  0
   -5.7030   22.2020  -31.1230 C   0  0  0  0  0  0  0  0  0  0  0  0
   -5.4797   26.1169  -29.5062 H   0  0  0  0  0  0  0  0  0  0  0  0
   -4.8674   25.1820  -30.9125 H   0  0  0  0  0  0  0  0  0  0  0  0
   -6.5525   25.8040  -30.9125 H   0  0  0  0  0  0  0  0  0  0  0  0
   -6.2250   24.1160  -28.6190 H   0  0  0  0  0  0  0  0  0  0  0  0
   -8.7055   23.2438  -29.8562 H   0  0  0  0  0  0  0  0  0  0  0  0
   -9.4885   21.2667  -31.1498 H   0  0  0  0  0  0  0  0  0  0  0  0
   -7.5099   18.0627  -33.8776 H   0  0  0  0  0  0  0  0  0  0  0  0
   -2.3749   16.4075  -34.4063 H   0  0  0  0  0  0  0  0  0  0  0  0
   -1.8583   14.2619  -33.2387 H   0  0  0  0  0  0  0  0  0  0  0  0
   -3.5194   13.2621  -31.6661 H   0  0  0  0  0  0  0  0  0  0  0  0
   -5.6992   14.4112  -31.2537 H   0  0  0  0  0  0  0  0  0  0  0  0
   -6.2213   16.5577  -32.4177 H   0  0  0  0  0  0  0  0  0  0  0  0
   -3.5758   21.2677  -34.4889 H   0  0  0  0  0  0  0  0  0  0  0  0
   -3.6448   22.5216  -33.1928 H   0  0  0  0  0  0  0  0  0  0  0  0
   -1.3335   22.0854  -34.2542 H   0  0  0  0  0  0  0  0  0  0  0  0
   -1.4244   22.0351  -32.4583 H   0  0  0  0  0  0  0  0  0  0  0  0
   -1.5920   19.6760  -34.2570 H   0  0  0  0  0  0  0  0  0  0  0  0
    0.6953   20.1618  -32.5149 H   0  0  0  0  0  0  0  0  0  0  0  0
    0.5732   19.2632  -34.0655 H   0  0  0  0  0  0  0  0  0  0  0  0
    0.5659   21.0595  -34.0655 H   0  0  0  0  0  0  0  0  0  0  0  0
   -1.7926   18.3264  -32.5107 H   0  0  0  0  0  0  0  0  0  0  0  0
   -0.8538   19.4904  -31.4520 H   0  0  0  0  0  0  0  0  0  0  0  0
   -3.4926   19.0155  -31.1252 H   0  0  0  0  0  0  0  0  0  0  0  0
   -2.6946   20.6028  -30.7723 H   0  0  0  0  0  0  0  0  0  0  0  0
   -4.6373   22.4745  -31.1238 H   0  0  0  0  0  0  0  0  0  0  0  0
  1  2  1  0
  2  3  1  0
  3  4  2  0
  4  5  1  0
  5  6  2  0
  6  7  1  0
  7  8  2  0
  8  9  1  0
  9 10  1  0
 10 11  2  0
 10 12  2  0
 10 13  1  0
 13 14  2  0
 14 15  1  0
 15 16  2  0
 16 17  1  0
 17 18  2  0
  9 19  2  0
 19 20  1  0
 20 21  1  0
 21 22  1  0
 22 23  1  0
 23 24  1  0
 23 25  1  0
 25 26  1  0
 19 27  1  0
 27 28  2  0
 28  3  1  0
 27  6  1  0
 18 13  1  0
 26 20  1  0
  1 29  1  0
  1 30  1  0
  1 31  1  0
  2 32  1  0
  4 33  1  0
  5 34  1  0
  8 35  1  0
 14 36  1  0
 15 37  1  0
 16 38  1  0
 17 39  1  0
 18 40  1  0
 21 41  1  0
 21 42  1  0
 22 43  1  0
 22 44  1  0
 23 45  1  0
 24 46  1  0
 24 47  1  0
 24 48  1  0
 25 49  1  0
 25 50  1  0
 26 51  1  0
 26 52  1  0
 28 53  1  0
M  CHG  1  23   1
M  END
>  <UniqueID>  (33) 
29

>  <SMILES>  (33) 
CNc1ccc2ncc(S(=O)(=O)c3ccccc3)c(N3CC[NH+](C)CC3)c2c1

>  <Energy>  (33) 
72.38252751361084

>  <Genealogy>  (33) 
CNc1ccc2ncc(S(=O)(=O)c3ccccc3)c(N3CC[NH+](C)CC3)c2c1 (protonated)
CNc1ccc2ncc(S(=O)(=O)c3ccccc3)c(N3CC[NH+](C)CC3)c2c1 (3D coordinates assigned)
CNc1ccc2ncc(S(=O)(=O)c3ccccc3)c(N3CC[NH+](C)CC3)c2c1 (nonaromatic ring conformer: 72.38252751361084 kcal/mol)

>  <smiles>  (33) 
CNc1ccc2ncc(S(=O)(=O)c3ccccc3)c(N3CCN(C)CC3)c2c1

>  <score_type>  (33) 
oracle

>  <origin>  (33) 
adgpu

>  <m_score__min__energy>  (33) 
-8.1300000000000008

>  <m_primary>  (33) 
energy

$$$$
33:0
     RDKit          3D

 45 47  0  0  0  0  0  0  0  0999 V2000
   -0.8380   26.6150  -23.6580 C   0  0  0  0  0  0  0  0  0  0  0  0
   -0.9150   26.5150  -25.1520 C   0  0  0  0  0  0  0  0  0  0  0  0
   -0.0600   27.2800  -25.9560 C   0  0  0  0  0  0  0  0  0  0  0  0
   -0.1620   27.2210  -27.3470 C   0  0  0  0  0  0  0  0  0  0  0  0
   -1.1230   26.4060  -27.9520 C   0  0  0  0  0  0  0  0  0  0  0  0
   -1.2350   26.4100  -29.3390 O   0  0  0  0  0  0  0  0  0  0  0  0
   -1.9860   25.6220  -27.1570 C   0  0  0  0  0  0  0  0  0  0  0  0
   -3.0120   24.7450  -27.7590 C   0  0  0  0  0  0  0  0  0  0  0  0
   -3.5600   23.8660  -27.0400 O   0  0  0  0  0  0  0  0  0  0  0  0
   -3.3770   24.8820  -29.1440 N   0  0  0  0  0  0  0  0  0  0  0  0
   -4.3430   24.0500  -29.8080 C   0  0  0  0  0  0  0  0  0  0  0  0
   -5.5450   24.6180  -30.2560 C   0  0  0  0  0  0  0  0  0  0  0  0
   -6.4930   23.8370  -30.9220 C   0  0  0  0  0  0  0  0  0  0  0  0
   -6.2460   22.4790  -31.1600 C   0  0  0  0  0  0  0  0  0  0  0  0
   -7.4420   21.4880  -31.9880 S   0  0  0  0  0  0  0  0  0  0  0  0
   -8.7900   22.1160  -31.7770 O   0  0  0  0  0  0  0  0  0  0  0  0
   -7.1710   21.4300  -33.4650 O   0  0  0  0  0  0  0  0  0  0  0  0
   -7.4850   19.8810  -31.3310 N   0  0  0  0  0  0  0  0  0  0  0  0
   -6.7640   18.8360  -31.6300 C   0  0  0  0  0  0  0  0  0  0  0  0
   -6.9200   17.6980  -30.9990 O   0  0  0  0  0  0  0  0  0  0  0  0
   -6.1110   16.7870  -31.4530 N   0  0  0  0  0  0  0  0  0  0  0  0
   -5.3860   17.3560  -32.4340 C   0  0  0  0  0  0  0  0  0  0  0  0
   -4.3560   16.6180  -33.2280 C   0  0  0  0  0  0  0  0  0  0  0  0
   -5.7590   18.6830  -32.5880 C   0  0  0  0  0  0  0  0  0  0  0  0
   -5.2440   19.6190  -33.6420 C   0  0  0  0  0  0  0  0  0  0  0  0
   -5.0330   21.9140  -30.7450 C   0  0  0  0  0  0  0  0  0  0  0  0
   -4.0840   22.6950  -30.0780 C   0  0  0  0  0  0  0  0  0  0  0  0
   -1.8890   25.7050  -25.7570 C   0  0  0  0  0  0  0  0  0  0  0  0
   -1.4496   25.8207  -23.2053 H   0  0  0  0  0  0  0  0  0  0  0  0
    0.2077   26.5009  -23.3363 H   0  0  0  0  0  0  0  0  0  0  0  0
   -1.2156   27.5968  -23.3363 H   0  0  0  0  0  0  0  0  0  0  0  0
    0.6949   27.9299  -25.4893 H   0  0  0  0  0  0  0  0  0  0  0  0
    0.5181   27.8196  -27.9708 H   0  0  0  0  0  0  0  0  0  0  0  0
   -2.9590   25.6630  -29.6980 H   0  0  0  0  0  0  0  0  0  0  0  0
   -5.7426   25.6860  -30.0817 H   0  0  0  0  0  0  0  0  0  0  0  0
   -7.4364   24.2901  -31.2605 H   0  0  0  0  0  0  0  0  0  0  0  0
   -3.6558   16.1163  -32.5439 H   0  0  0  0  0  0  0  0  0  0  0  0
   -4.8504   15.8673  -33.8621 H   0  0  0  0  0  0  0  0  0  0  0  0
   -3.8041   17.3275  -33.8621 H   0  0  0  0  0  0  0  0  0  0  0  0
   -4.7671   20.4858  -33.1612 H   0  0  0  0  0  0  0  0  0  0  0  0
   -4.5068   19.0957  -34.2687 H   0  0  0  0  0  0  0  0  0  0  0  0
   -6.0806   19.9616  -34.2687 H   0  0  0  0  0  0  0  0  0  0  0  0
   -4.8264   20.8522  -30.9446 H   0  0  0  0  0  0  0  0  0  0  0  0
   -3.1301   22.2468  -29.7630 H   0  0  0  0  0  0  0  0  0  0  0  0
   -2.5841   25.1288  -25.1286 H   0  0  0  0  0  0  0  0  0  0  0  0
  1  2  1  0
  2  3  2  0
  3  4  1  0
  4  5  2  0
  5  6  1  0
  5  7  1  0
  7  8  1  0
  8  9  2  0
  8 10  1  0
 10 11  1  0
 11 12  2  0
 12 13  1  0
 13 14  2  0
 14 15  1  0
 15 16  2  0
 15 17  2  0
 15 18  1  0
 18 19  2  3
 19 20  1  0
 20 21  1  0
 21 22  1  0
 22 23  1  0
 22 24  2  0
 24 25  1  0
 14 26  1  0
 26 27  2  0
  7 28  2  0
 28  2  1  0
 27 11  1  0
 24 19  1  0
  1 29  1  0
  1 30  1  0
  1 31  1  0
  3 32  1  0
  4 33  1  0
 10 34  1  0
 12 35  1  0
 13 36  1  0
 23 37  1  0
 23 38  1  0
 23 39  1  0
 25 40  1  0
 25 41  1  0
 25 42  1  0
 26 43  1  0
 27 44  1  0
 28 45  1  0
M  CHG  2   6  -1  21  -1
M  END
>  <UniqueID>  (34) 
30

>  <SMILES>  (34) 
Cc1ccc([O-])c(C(=O)Nc2ccc(S(=O)(=O)N=c3o[n-]c(C)c3C)cc2)c1

>  <Energy>  (34) 
94.8313821341658

>  <Genealogy>  (34) 
Cc1ccc([O-])c(C(=O)Nc2ccc(S(=O)(=O)N=c3o[n-]c(C)c3C)cc2)c1 (protonated)
Cc1ccc([O-])c(C(=O)Nc2ccc(S(=O)(=O)N=c3o[n-]c(C)c3C)cc2)c1 (3D coordinates assigned)
Cc1ccc([O-])c(C(=O)Nc2ccc(S(=O)(=O)N=c3o[n-]c(C)c3C)cc2)c1 (optimized conformer: 94.8313821341658 kcal/mol)

>  <smiles>  (34) 
Cc1ccc(O)c(C(=O)Nc2ccc(S(=O)(=O)N=c3o[nH]c(C)c3C)cc2)c1

>  <score_type>  (34) 
oracle

>  <origin>  (34) 
adgpu

>  <m_score__min__energy>  (34) 
-12.35

>  <m_primary>  (34) 
energy

$$$$
34:0
     RDKit          3D

 51 53  0  0  0  0  0  0  0  0999 V2000
   -9.5110   20.4270  -32.1200 C   0  0  0  0  0  0  0  0  0  0  0  0
   -8.2370   20.6750  -32.7040 O   0  0  0  0  0  0  0  0  0  0  0  0
   -7.3260   21.6440  -32.2530 C   0  0  0  0  0  0  0  0  0  0  0  0
   -7.7550   22.8140  -31.5960 C   0  0  0  0  0  0  0  0  0  0  0  0
   -6.8280   23.7530  -31.1430 C   0  0  0  0  0  0  0  0  0  0  0  0
   -5.4520   23.5450  -31.3270 C   0  0  0  0  0  0  0  0  0  0  0  0
   -4.4680   24.5410  -30.8410 C   0  0  0  0  0  0  0  0  0  0  0  0
   -4.7750   25.7640  -30.7960 O   0  0  0  0  0  0  0  0  0  0  0  0
   -3.1560   24.1230  -30.4470 N   0  0  0  0  0  0  0  0  0  0  0  0
   -2.8920   22.9750  -29.6270 C   0  0  0  0  0  0  0  0  0  0  0  0
   -2.2450   21.8580  -30.1980 C   0  0  0  0  0  0  0  0  0  0  0  0
   -1.8220   21.8780  -31.6410 C   0  0  0  0  0  0  0  0  0  0  0  0
   -1.9550   20.7410  -29.4010 C   0  0  0  0  0  0  0  0  0  0  0  0
   -2.3210   20.7200  -28.0550 C   0  0  0  0  0  0  0  0  0  0  0  0
   -2.9940   21.8040  -27.4940 C   0  0  0  0  0  0  0  0  0  0  0  0
   -3.3090   22.9290  -28.2730 C   0  0  0  0  0  0  0  0  0  0  0  0
   -4.0780   24.0580  -27.6400 C   0  0  0  0  0  0  0  0  0  0  0  0
   -5.0240   22.3790  -31.9810 C   0  0  0  0  0  0  0  0  0  0  0  0
   -5.9490   21.4380  -32.4560 C   0  0  0  0  0  0  0  0  0  0  0  0
   -5.3700   19.9840  -33.2800 S   0  0  0  0  0  0  0  0  0  0  0  0
   -6.3110   19.6760  -34.4110 O   0  0  0  0  0  0  0  0  0  0  0  0
   -3.9950   20.2370  -33.8330 O   0  0  0  0  0  0  0  0  0  0  0  0
   -5.3200   18.6390  -32.1560 N   0  0  0  0  0  0  0  0  0  0  0  0
   -4.7290   17.4290  -32.7720 C   0  0  0  0  0  0  0  0  0  0  0  0
   -5.7930   16.4170  -33.2350 C   0  0  0  0  0  0  0  0  0  0  0  0
   -6.9540   17.0900  -33.6650 O   0  0  0  0  0  0  0  0  0  0  0  0
   -7.6080   17.6940  -32.5620 C   0  0  0  0  0  0  0  0  0  0  0  0
   -6.6420   18.3740  -31.5620 C   0  0  0  0  0  0  0  0  0  0  0  0
   -9.4215   20.4444  -31.0238 H   0  0  0  0  0  0  0  0  0  0  0  0
  -10.2197   21.2040  -32.4424 H   0  0  0  0  0  0  0  0  0  0  0  0
   -9.8765   19.4409  -32.4424 H   0  0  0  0  0  0  0  0  0  0  0  0
   -8.8296   22.9886  -31.4389 H   0  0  0  0  0  0  0  0  0  0  0  0
   -7.1785   24.6647  -30.6370 H   0  0  0  0  0  0  0  0  0  0  0  0
   -0.7249   21.9299  -31.7008 H   0  0  0  0  0  0  0  0  0  0  0  0
   -2.1735   20.9622  -32.1388 H   0  0  0  0  0  0  0  0  0  0  0  0
   -2.2583   22.7565  -32.1388 H   0  0  0  0  0  0  0  0  0  0  0  0
   -1.4358   19.8762  -29.8399 H   0  0  0  0  0  0  0  0  0  0  0  0
   -2.0777   19.8450  -27.4343 H   0  0  0  0  0  0  0  0  0  0  0  0
   -3.2807   21.7780  -26.4323 H   0  0  0  0  0  0  0  0  0  0  0  0
   -4.0198   23.9726  -26.5449 H   0  0  0  0  0  0  0  0  0  0  0  0
   -3.6457   25.0188  -27.9563 H   0  0  0  0  0  0  0  0  0  0  0  0
   -5.1303   24.0075  -27.9563 H   0  0  0  0  0  0  0  0  0  0  0  0
   -3.9478   22.2009  -32.1229 H   0  0  0  0  0  0  0  0  0  0  0  0
   -4.1310   17.7342  -33.6434 H   0  0  0  0  0  0  0  0  0  0  0  0
   -4.1116   16.9350  -32.0073 H   0  0  0  0  0  0  0  0  0  0  0  0
   -5.3895   15.8215  -34.0673 H   0  0  0  0  0  0  0  0  0  0  0  0
   -6.0521   15.7595  -32.3920 H   0  0  0  0  0  0  0  0  0  0  0  0
   -8.3037   18.4551  -32.9450 H   0  0  0  0  0  0  0  0  0  0  0  0
   -8.1239   16.8910  -32.0151 H   0  0  0  0  0  0  0  0  0  0  0  0
   -7.0822   19.3285  -31.2379 H   0  0  0  0  0  0  0  0  0  0  0  0
   -6.4990   17.6895  -30.7129 H   0  0  0  0  0  0  0  0  0  0  0  0
  1  2  1  0
  2  3  1  0
  3  4  2  0
  4  5  1  0
  5  6  2  0
  6  7  1  0
  7  8  2  0
  7  9  1  0
  9 10  1  0
 10 11  2  0
 11 12  1  0
 11 13  1  0
 13 14  2  0
 14 15  1  0
 15 16  2  0
 16 17  1  0
  6 18  1  0
 18 19  2  0
 19 20  1  0
 20 21  2  0
 20 22  2  0
 20 23  1  0
 23 24  1  0
 24 25  1  0
 25 26  1  0
 26 27  1  0
 27 28  1  0
 19  3  1  0
 28 23  1  0
 16 10  1  0
  1 29  1  0
  1 30  1  0
  1 31  1  0
  4 32  1  0
  5 33  1  0
 12 34  1  0
 12 35  1  0
 12 36  1  0
 13 37  1  0
 14 38  1  0
 15 39  1  0
 17 40  1  0
 17 41  1  0
 17 42  1  0
 18 43  1  0
 24 44  1  0
 24 45  1  0
 25 46  1  0
 25 47  1  0
 27 48  1  0
 27 49  1  0
 28 50  1  0
 28 51  1  0
M  CHG  1   9  -1
M  END
>  <UniqueID>  (35) 
31

>  <SMILES>  (35) 
COc1ccc(C(=O)[N-]c2c(C)cccc2C)cc1S(=O)(=O)N1CCOCC1

>  <Energy>  (35) 
70.53826659964132

>  <Genealogy>  (35) 
COc1ccc(C(=O)[N-]c2c(C)cccc2C)cc1S(=O)(=O)N1CCOCC1 (protonated)
COc1ccc(C(=O)[N-]c2c(C)cccc2C)cc1S(=O)(=O)N1CCOCC1 (3D coordinates assigned)
COc1ccc(C(=O)[N-]c2c(C)cccc2C)cc1S(=O)(=O)N1CCOCC1 (nonaromatic ring conformer: 70.53826659964132 kcal/mol)

>  <smiles>  (35) 
COc1ccc(C(=O)Nc2c(C)cccc2C)cc1S(=O)(=O)N1CCOCC1

>  <score_type>  (35) 
oracle

>  <origin>  (35) 
adgpu

>  <m_score__min__energy>  (35) 
-9.8699999999999992

>  <m_primary>  (35) 
energy

$$$$
35:0
     RDKit          3D

 50 53  0  0  0  0  0  0  0  0999 V2000
   -9.1150   20.2890  -32.3450 C   0  0  0  0  0  0  0  0  0  0  0  0
   -8.2780   18.7460  -31.8660 S   0  0  0  0  0  0  0  0  0  0  0  0
   -6.6500   19.3690  -32.2770 C   0  0  0  0  0  0  0  0  0  0  0  0
   -6.1460   20.5210  -31.7720 N   0  0  0  0  0  0  0  0  0  0  0  0
   -4.9350   20.6610  -32.2870 N   0  0  0  0  0  0  0  0  0  0  0  0
   -4.0380   21.6540  -32.0410 C   0  0  0  0  0  0  0  0  0  0  0  0
   -4.3560   22.7590  -31.1790 N   0  0  0  0  0  0  0  0  0  0  0  0
   -3.7020   22.8860  -29.8700 C   0  0  0  0  0  0  0  0  0  0  0  0
   -3.3870   24.3650  -29.5360 C   0  0  0  0  0  0  0  0  0  0  0  0
   -3.9120   25.2860  -30.4780 O   0  0  0  0  0  0  0  0  0  0  0  0
   -5.2700   24.9990  -30.7290 C   0  0  0  0  0  0  0  0  0  0  0  0
   -5.3710   23.7370  -31.5870 C   0  0  0  0  0  0  0  0  0  0  0  0
   -2.7840   21.5710  -32.6740 C   0  0  0  0  0  0  0  0  0  0  0  0
   -2.5140   20.4740  -33.5210 C   0  0  0  0  0  0  0  0  0  0  0  0
   -1.1930   20.3630  -34.2130 C   0  0  0  0  0  0  0  0  0  0  0  0
   -3.4630   19.5140  -33.7220 N   0  0  0  0  0  0  0  0  0  0  0  0
   -4.6580   19.6310  -33.0950 C   0  0  0  0  0  0  0  0  0  0  0  0
   -5.7270   18.7690  -33.1280 C   0  0  0  0  0  0  0  0  0  0  0  0
   -5.8680   17.2670  -34.0330 S   0  0  0  0  0  0  0  0  0  0  0  0
   -7.2400   16.6770  -33.8650 O   0  0  0  0  0  0  0  0  0  0  0  0
   -5.6480   17.5640  -35.4890 O   0  0  0  0  0  0  0  0  0  0  0  0
   -4.6610   16.1080  -33.4500 C   0  0  0  0  0  0  0  0  0  0  0  0
   -5.0270   15.2050  -32.4380 C   0  0  0  0  0  0  0  0  0  0  0  0
   -4.1230   14.2460  -31.9790 C   0  0  0  0  0  0  0  0  0  0  0  0
   -2.8410   14.1770  -32.5230 C   0  0  0  0  0  0  0  0  0  0  0  0
   -2.4600   15.0640  -33.5300 C   0  0  0  0  0  0  0  0  0  0  0  0
   -3.3600   16.0330  -34.0100 C   0  0  0  0  0  0  0  0  0  0  0  0
   -2.9090   16.9680  -35.1030 C   0  0  0  0  0  0  0  0  0  0  0  0
   -9.4138   20.8399  -31.4410 H   0  0  0  0  0  0  0  0  0  0  0  0
   -8.4291   20.9082  -32.9418 H   0  0  0  0  0  0  0  0  0  0  0  0
  -10.0081   20.0517  -32.9418 H   0  0  0  0  0  0  0  0  0  0  0  0
   -4.3689   22.4786  -29.0959 H   0  0  0  0  0  0  0  0  0  0  0  0
   -2.7539   22.3291  -29.9016 H   0  0  0  0  0  0  0  0  0  0  0  0
   -3.8135   24.5966  -28.5489 H   0  0  0  0  0  0  0  0  0  0  0  0
   -2.2925   24.4732  -29.5559 H   0  0  0  0  0  0  0  0  0  0  0  0
   -5.7936   24.8375  -29.7752 H   0  0  0  0  0  0  0  0  0  0  0  0
   -5.7324   25.8436  -31.2609 H   0  0  0  0  0  0  0  0  0  0  0  0
   -6.3706   23.2945  -31.4647 H   0  0  0  0  0  0  0  0  0  0  0  0
   -5.2037   24.0070  -32.6401 H   0  0  0  0  0  0  0  0  0  0  0  0
   -2.0246   22.3500  -32.5112 H   0  0  0  0  0  0  0  0  0  0  0  0
   -0.3909   20.2956  -33.4633 H   0  0  0  0  0  0  0  0  0  0  0  0
   -1.1834   19.4609  -34.8424 H   0  0  0  0  0  0  0  0  0  0  0  0
   -1.0330   21.2509  -34.8424 H   0  0  0  0  0  0  0  0  0  0  0  0
   -6.0362   15.2543  -32.0031 H   0  0  0  0  0  0  0  0  0  0  0  0
   -4.4222   13.5436  -31.1871 H   0  0  0  0  0  0  0  0  0  0  0  0
   -2.1292   13.4222  -32.1576 H   0  0  0  0  0  0  0  0  0  0  0  0
   -1.4462   15.0052  -33.9528 H   0  0  0  0  0  0  0  0  0  0  0  0
   -2.4726   17.8727  -34.6547 H   0  0  0  0  0  0  0  0  0  0  0  0
   -2.1537   16.4666  -35.7260 H   0  0  0  0  0  0  0  0  0  0  0  0
   -3.7716   17.2470  -35.7260 H   0  0  0  0  0  0  0  0  0  0  0  0
  1  2  1  0
  2  3  1  0
  3  4  2  0
  4  5  1  0
  5  6  1  0
  6  7  1  0
  7  8  1  0
  8  9  1  0
  9 10  1  0
 10 11  1  0
 11 12  1  0
  6 13  2  0
 13 14  1  0
 14 15  1  0
 14 16  2  0
 16 17  1  0
 17 18  2  0
 18 19  1  0
 19 20  2  0
 19 21  2  0
 19 22  1  0
 22 23  2  0
 23 24  1  0
 24 25  2  0
 25 26  1  0
 26 27  2  0
 27 28  1  0
 18  3  1  0
 27 22  1  0
 17  5  1  0
 12  7  1  0
  1 29  1  0
  1 30  1  0
  1 31  1  0
  8 32  1  0
  8 33  1  0
  9 34  1  0
  9 35  1  0
 11 36  1  0
 11 37  1  0
 12 38  1  0
 12 39  1  0
 13 40  1  0
 15 41  1  0
 15 42  1  0
 15 43  1  0
 23 44  1  0
 24 45  1  0
 25 46  1  0
 26 47  1  0
 28 48  1  0
 28 49  1  0
 28 50  1  0
M  END
>  <UniqueID>  (36) 
32

>  <SMILES>  (36) 
CSc1nn2c(N3CCOCC3)cc(C)nc2c1S(=O)(=O)c1ccccc1C

>  <Energy>  (36) 
98.0561261344696

>  <Genealogy>  (36) 
CSc1nn2c(N3CCOCC3)cc(C)nc2c1S(=O)(=O)c1ccccc1C (3D coordinates assigned)
CSc1nn2c(N3CCOCC3)cc(C)nc2c1S(=O)(=O)c1ccccc1C (nonaromatic ring conformer: 98.0561261344696 kcal/mol)

>  <smiles>  (36) 
CSc1nn2c(N3CCOCC3)cc(C)nc2c1S(=O)(=O)c1ccccc1C

>  <score_type>  (36) 
oracle

>  <origin>  (36) 
adgpu

>  <m_score__min__energy>  (36) 
-9.4100000000000001

>  <m_primary>  (36) 
energy

$$$$
36:0
     RDKit          3D

 56 59  0  0  0  0  0  0  0  0999 V2000
   -4.4800   23.2530  -31.7240 O   0  0  0  0  0  0  0  0  0  0  0  0
   -4.6740   23.3310  -30.4800 C   0  0  0  0  0  0  0  0  0  0  0  0
   -5.9950   23.1210  -29.9460 N   0  0  0  0  0  0  0  0  0  0  0  0
   -7.1250   22.7170  -30.7370 C   0  0  0  0  0  0  0  0  0  0  0  0
   -8.0030   23.6620  -31.2980 C   0  0  0  0  0  0  0  0  0  0  0  0
   -9.0740   23.2420  -32.0920 C   0  0  0  0  0  0  0  0  0  0  0  0
   -9.2730   21.8830  -32.3420 C   0  0  0  0  0  0  0  0  0  0  0  0
   -8.3960   20.9330  -31.8040 C   0  0  0  0  0  0  0  0  0  0  0  0
   -8.6160   19.2200  -32.1490 S   0  0  0  0  0  0  0  0  0  0  0  0
   -9.8510   19.0250  -32.9860 O   0  0  0  0  0  0  0  0  0  0  0  0
   -8.7920   18.4760  -30.8550 O   0  0  0  0  0  0  0  0  0  0  0  0
   -7.2070   18.6160  -32.9820 N   0  0  0  0  0  0  0  0  0  0  0  0
   -6.2010   18.1250  -32.0400 C   0  0  0  0  0  0  0  0  0  0  0  0
   -4.8550   18.2700  -32.7300 C   0  0  0  0  0  0  0  0  0  0  0  0
   -5.0780   19.2860  -33.8420 C   0  0  0  0  0  0  0  0  0  0  0  0
   -6.5450   19.6750  -33.7440 C   0  0  0  0  0  0  0  0  0  0  0  0
   -7.3160   21.3550  -31.0150 C   0  0  0  0  0  0  0  0  0  0  0  0
   -3.5270   23.6490  -29.5960 C   0  0  0  0  0  0  0  0  0  0  0  0
   -3.7170   24.2130  -28.3200 C   0  0  0  0  0  0  0  0  0  0  0  0
   -2.6210   24.5090  -27.5060 C   0  0  0  0  0  0  0  0  0  0  0  0
   -1.3190   24.2490  -27.9500 C   0  0  0  0  0  0  0  0  0  0  0  0
    0.0660   24.6450  -26.9380 S   0  0  0  0  0  0  0  0  0  0  0  0
    1.2550   24.9210  -27.8150 O   0  0  0  0  0  0  0  0  0  0  0  0
    0.3920   23.4790  -26.0440 O   0  0  0  0  0  0  0  0  0  0  0  0
   -0.3000   26.0630  -25.9900 N   0  0  0  0  0  0  0  0  0  0  0  0
   -1.2090   25.7480  -24.8890 C   0  0  0  0  0  0  0  0  0  0  0  0
   -0.9370   26.7690  -23.7960 C   0  0  0  0  0  0  0  0  0  0  0  0
    0.4440   27.3270  -24.1000 C   0  0  0  0  0  0  0  0  0  0  0  0
    0.9030   26.6050  -25.3580 C   0  0  0  0  0  0  0  0  0  0  0  0
   -1.1210   23.7080  -29.2260 C   0  0  0  0  0  0  0  0  0  0  0  0
   -2.2150   23.4120  -30.0440 C   0  0  0  0  0  0  0  0  0  0  0  0
   -6.1730   23.3160  -28.9360 H   0  0  0  0  0  0  0  0  0  0  0  0
   -7.8463   24.7347  -31.1113 H   0  0  0  0  0  0  0  0  0  0  0  0
   -9.7624   23.9848  -32.5213 H   0  0  0  0  0  0  0  0  0  0  0  0
  -10.1206   21.5577  -32.9630 H   0  0  0  0  0  0  0  0  0  0  0  0
   -6.2210   18.7231  -31.1170 H   0  0  0  0  0  0  0  0  0  0  0  0
   -6.3943   17.0784  -31.7620 H   0  0  0  0  0  0  0  0  0  0  0  0
   -4.0967   18.6350  -32.0216 H   0  0  0  0  0  0  0  0  0  0  0  0
   -4.4902   17.3088  -33.1212 H   0  0  0  0  0  0  0  0  0  0  0  0
   -4.4355   20.1664  -33.6937 H   0  0  0  0  0  0  0  0  0  0  0  0
   -4.8292   18.8725  -34.8305 H   0  0  0  0  0  0  0  0  0  0  0  0
   -6.6484   20.6386  -33.2237 H   0  0  0  0  0  0  0  0  0  0  0  0
   -6.9940   19.7862  -34.7420 H   0  0  0  0  0  0  0  0  0  0  0  0
   -6.6128   20.6120  -30.6107 H   0  0  0  0  0  0  0  0  0  0  0  0
   -4.7357   24.4220  -27.9615 H   0  0  0  0  0  0  0  0  0  0  0  0
   -2.7819   24.9488  -26.5107 H   0  0  0  0  0  0  0  0  0  0  0  0
   -2.2535   25.8219  -25.2261 H   0  0  0  0  0  0  0  0  0  0  0  0
   -1.0491   24.7230  -24.5232 H   0  0  0  0  0  0  0  0  0  0  0  0
   -1.6902   27.5703  -23.8217 H   0  0  0  0  0  0  0  0  0  0  0  0
   -0.9847   26.3181  -22.7938 H   0  0  0  0  0  0  0  0  0  0  0  0
    0.3907   28.4115  -24.2763 H   0  0  0  0  0  0  0  0  0  0  0  0
    1.1408   27.1736  -23.2628 H   0  0  0  0  0  0  0  0  0  0  0  0
    1.4050   27.3089  -26.0381 H   0  0  0  0  0  0  0  0  0  0  0  0
    1.6200   25.8060  -25.1181 H   0  0  0  0  0  0  0  0  0  0  0  0
   -0.0998   23.5150  -29.5864 H   0  0  0  0  0  0  0  0  0  0  0  0
   -2.0485   22.9903  -31.0462 H   0  0  0  0  0  0  0  0  0  0  0  0
  1  2  2  0
  2  3  1  0
  3  4  1  0
  4  5  2  0
  5  6  1  0
  6  7  2  0
  7  8  1  0
  8  9  1  0
  9 10  2  0
  9 11  2  0
  9 12  1  0
 12 13  1  0
 13 14  1  0
 14 15  1  0
 15 16  1  0
  8 17  2  0
  2 18  1  0
 18 19  2  0
 19 20  1  0
 20 21  2  0
 21 22  1  0
 22 23  2  0
 22 24  2  0
 22 25  1  0
 25 26  1  0
 26 27  1  0
 27 28  1  0
 28 29  1  0
 21 30  1  0
 30 31  2  0
 17  4  1  0
 31 18  1  0
 16 12  1  0
 29 25  1  0
  3 32  1  0
  5 33  1  0
  6 34  1  0
  7 35  1  0
 13 36  1  0
 13 37  1  0
 14 38  1  0
 14 39  1  0
 15 40  1  0
 15 41  1  0
 16 42  1  0
 16 43  1  0
 17 44  1  0
 19 45  1  0
 20 46  1  0
 26 47  1  0
 26 48  1  0
 27 49  1  0
 27 50  1  0
 28 51  1  0
 28 52  1  0
 29 53  1  0
 29 54  1  0
 30 55  1  0
 31 56  1  0
M  END
>  <UniqueID>  (37) 
33

>  <SMILES>  (37) 
O=C(Nc1cccc(S(=O)(=O)N2CCCC2)c1)c1ccc(S(=O)(=O)N2CCCC2)cc1

>  <Energy>  (37) 
65.8195515555124

>  <Genealogy>  (37) 
O=C(Nc1cccc(S(=O)(=O)N2CCCC2)c1)c1ccc(S(=O)(=O)N2CCCC2)cc1 (3D coordinates assigned)
O=C(Nc1cccc(S(=O)(=O)N2CCCC2)c1)c1ccc(S(=O)(=O)N2CCCC2)cc1 (nonaromatic ring conformer: 65.8195515555124 kcal/mol)

>  <smiles>  (37) 
O=C(Nc1cccc(S(=O)(=O)N2CCCC2)c1)c1ccc(S(=O)(=O)N2CCCC2)cc1

>  <score_type>  (37) 
oracle

>  <origin>  (37) 
adgpu

>  <m_score__min__energy>  (37) 
-10.73

>  <m_primary>  (37) 
energy

$$$$
37:0
     RDKit          3D

 31 32  0  0  0  0  0  0  0  0999 V2000
   -0.1487   25.2518  -28.2223 H   0  0  0  0  0  0  0  0  0  0  0  0
   -1.0610   24.7040  -28.5010 C   0  0  0  0  0  0  0  0  0  0  0  0
   -1.9800   25.2860  -29.3180 N   0  0  0  0  0  0  0  0  0  0  0  0
   -3.1260   24.6520  -29.6900 C   0  0  0  0  0  0  0  0  0  0  0  0
   -3.9590   25.2830  -30.4680 N   0  0  0  0  0  0  0  0  0  0  0  0
   -5.2690   24.8510  -30.8680 C   0  0  0  0  0  0  0  0  0  0  0  0
   -6.2500   25.1000  -30.1210 O   0  0  0  0  0  0  0  0  0  0  0  0
   -5.4810   24.0930  -32.0680 N   0  0  0  0  0  0  0  0  0  0  0  0
   -5.8610   22.7070  -32.1330 C   0  0  0  0  0  0  0  0  0  0  0  0
   -4.8970   21.6740  -32.2790 C   0  0  0  0  0  0  0  0  0  0  0  0
   -3.4160   21.9390  -32.2360 C   0  0  0  0  0  0  0  0  0  0  0  0
   -3.0844   21.9983  -31.1889 H   0  0  0  0  0  0  0  0  0  0  0  0
   -2.8824   21.1221  -32.7439 H   0  0  0  0  0  0  0  0  0  0  0  0
   -3.1988   22.8903  -32.7439 H   0  0  0  0  0  0  0  0  0  0  0  0
   -5.3290   20.3500  -32.4480 C   0  0  0  0  0  0  0  0  0  0  0  0
   -4.5893   19.5527  -32.6130 H   0  0  0  0  0  0  0  0  0  0  0  0
   -6.6850   20.0350  -32.4090 C   0  0  0  0  0  0  0  0  0  0  0  0
   -7.0111   18.9954  -32.5604 H   0  0  0  0  0  0  0  0  0  0  0  0
   -7.6290   21.0320  -32.1790 C   0  0  0  0  0  0  0  0  0  0  0  0
   -8.6967   20.7719  -32.1302 H   0  0  0  0  0  0  0  0  0  0  0  0
   -7.2290   22.3660  -32.0090 C   0  0  0  0  0  0  0  0  0  0  0  0
   -8.2830   23.4160  -31.7810 C   0  0  0  0  0  0  0  0  0  0  0  0
   -8.4285   23.5609  -30.7003 H   0  0  0  0  0  0  0  0  0  0  0  0
   -7.9615   24.3635  -32.2380 H   0  0  0  0  0  0  0  0  0  0  0  0
   -9.2293   23.0909  -32.2380 H   0  0  0  0  0  0  0  0  0  0  0  0
   -3.3540   23.3340  -29.2470 C   0  0  0  0  0  0  0  0  0  0  0  0
   -4.2542   22.7894  -29.5679 H   0  0  0  0  0  0  0  0  0  0  0  0
   -2.4280   22.7240  -28.3970 C   0  0  0  0  0  0  0  0  0  0  0  0
   -2.7080   21.0920  -27.8190 Cl  0  0  0  0  0  0  0  0  0  0  0  0
   -1.2740   23.4130  -28.0160 C   0  0  0  0  0  0  0  0  0  0  0  0
   -0.5423   22.9436  -27.3420 H   0  0  0  0  0  0  0  0  0  0  0  0
  1  2  1  0
  2  3  1  0
  3  4  1  0
  4  5  2  0
  5  6  1  0
  6  7  2  0
  6  8  1  0
  8  9  1  0
  9 10  2  0
 10 11  1  0
 11 12  1  0
 11 13  1  0
 11 14  1  0
 10 15  1  0
 15 16  1  0
 15 17  2  0
 17 18  1  0
 17 19  1  0
 19 20  1  0
 19 21  2  0
 21 22  1  0
 22 23  1  0
 22 24  1  0
 22 25  1  0
  4 26  1  0
 26 27  1  0
 26 28  2  0
 28 29  1  0
 28 30  1  0
 30 31  1  0
 30  2  2  0
 21  9  1  0
M  CHG  2   3  -1   8  -1
M  END
>  <UniqueID>  (38) 
34

>  <SMILES>  (38) 
Cc1cccc(C)c1[N-]C(=O)/N=c1\cc(Cl)cc[n-]1

>  <Energy>  (38) 
46.11285260883444

>  <Genealogy>  (38) 
Cc1cccc(C)c1[N-]C(=O)N=c1cc(Cl)cc[n-]1 (protonated)
Cc1cccc(C)c1[N-]C(=O)/N=c1\cc(Cl)cc[n-]1 (cis-trans isomerization)
Cc1cccc(C)c1[N-]C(=O)/N=c1\cc(Cl)cc[n-]1 (3D coordinates assigned)
Cc1cccc(C)c1[N-]C(=O)/N=c1\cc(Cl)cc[n-]1 (optimized conformer: 46.11285260883444 kcal/mol)

>  <smiles>  (38) 
Cc1cccc(C)c1NC(=O)N=c1cc(Cl)cc[nH]1

>  <score_type>  (38) 
oracle

>  <origin>  (38) 
adgpu

>  <m_score__min__energy>  (38) 
-9.5800000000000001

>  <m_primary>  (38) 
energy

$$$$
38:0
     RDKit          3D

 40 42  0  0  0  0  0  0  0  0999 V2000
   -9.1330   23.0940  -32.3030 O   0  0  0  0  0  0  0  0  0  0  0  0
   -8.1430   22.4300  -31.8910 C   0  0  0  0  0  0  0  0  0  0  0  0
   -6.9400   23.1530  -31.4280 C   0  0  0  0  0  0  0  0  0  0  0  0
   -7.0560   24.3060  -30.6360 C   0  0  0  0  0  0  0  0  0  0  0  0
   -5.9120   24.9920  -30.2170 C   0  0  0  0  0  0  0  0  0  0  0  0
   -4.6390   24.5490  -30.5940 C   0  0  0  0  0  0  0  0  0  0  0  0
   -3.4940   25.2830  -30.1410 N   0  0  0  0  0  0  0  0  0  0  0  0
   -2.3900   24.7530  -28.9130 S   0  0  0  0  0  0  0  0  0  0  0  0
   -1.1460   25.5950  -28.9730 O   0  0  0  0  0  0  0  0  0  0  0  0
   -3.0280   24.9300  -27.5650 O   0  0  0  0  0  0  0  0  0  0  0  0
   -2.0140   23.0490  -29.1470 C   0  0  0  0  0  0  0  0  0  0  0  0
   -2.6520   22.0850  -28.3540 C   0  0  0  0  0  0  0  0  0  0  0  0
   -2.3770   20.7270  -28.5450 C   0  0  0  0  0  0  0  0  0  0  0  0
   -1.4670   20.3260  -29.5290 C   0  0  0  0  0  0  0  0  0  0  0  0
   -0.8290   21.2850  -30.3210 C   0  0  0  0  0  0  0  0  0  0  0  0
   -1.1000   22.6440  -30.1320 C   0  0  0  0  0  0  0  0  0  0  0  0
   -4.5240   23.4100  -31.4100 C   0  0  0  0  0  0  0  0  0  0  0  0
   -5.6650   22.7210  -31.8260 C   0  0  0  0  0  0  0  0  0  0  0  0
   -8.2010   20.9920  -31.9010 N   0  0  0  0  0  0  0  0  0  0  0  0
   -7.0500   20.1390  -32.1450 C   0  0  0  0  0  0  0  0  0  0  0  0
   -7.5870   18.7140  -32.1560 C   0  0  0  0  0  0  0  0  0  0  0  0
   -9.0950   18.8360  -32.3510 C   0  0  0  0  0  0  0  0  0  0  0  0
   -9.4570   20.2610  -31.9500 C   0  0  0  0  0  0  0  0  0  0  0  0
   -8.0514   24.6715  -30.3436 H   0  0  0  0  0  0  0  0  0  0  0  0
   -6.0133   25.8872  -29.5859 H   0  0  0  0  0  0  0  0  0  0  0  0
   -3.3696   22.3969  -27.5808 H   0  0  0  0  0  0  0  0  0  0  0  0
   -2.8774   19.9726  -27.9201 H   0  0  0  0  0  0  0  0  0  0  0  0
   -1.2538   19.2574  -29.6793 H   0  0  0  0  0  0  0  0  0  0  0  0
   -0.1126   20.9703  -31.0942 H   0  0  0  0  0  0  0  0  0  0  0  0
   -0.5960   23.3965  -30.7563 H   0  0  0  0  0  0  0  0  0  0  0  0
   -3.5293   23.0595  -31.7226 H   0  0  0  0  0  0  0  0  0  0  0  0
   -5.5642   21.8345  -32.4694 H   0  0  0  0  0  0  0  0  0  0  0  0
   -6.5905   20.3830  -33.1142 H   0  0  0  0  0  0  0  0  0  0  0  0
   -6.2746   20.2744  -31.3766 H   0  0  0  0  0  0  0  0  0  0  0  0
   -7.1394   18.1430  -32.9828 H   0  0  0  0  0  0  0  0  0  0  0  0
   -7.3423   18.1834  -31.2240 H   0  0  0  0  0  0  0  0  0  0  0  0
   -9.3600   18.6562  -33.4033 H   0  0  0  0  0  0  0  0  0  0  0  0
   -9.6404   18.0966  -31.7462 H   0  0  0  0  0  0  0  0  0  0  0  0
  -10.1315   20.7085  -32.6949 H   0  0  0  0  0  0  0  0  0  0  0  0
   -9.9784   20.2882  -30.9818 H   0  0  0  0  0  0  0  0  0  0  0  0
  1  2  2  0
  2  3  1  0
  3  4  2  0
  4  5  1  0
  5  6  2  0
  6  7  1  0
  7  8  1  0
  8  9  2  0
  8 10  2  0
  8 11  1  0
 11 12  2  0
 12 13  1  0
 13 14  2  0
 14 15  1  0
 15 16  2  0
  6 17  1  0
 17 18  2  0
  2 19  1  0
 19 20  1  0
 20 21  1  0
 21 22  1  0
 22 23  1  0
 18  3  1  0
 23 19  1  0
 16 11  1  0
  4 24  1  0
  5 25  1  0
 12 26  1  0
 13 27  1  0
 14 28  1  0
 15 29  1  0
 16 30  1  0
 17 31  1  0
 18 32  1  0
 20 33  1  0
 20 34  1  0
 21 35  1  0
 21 36  1  0
 22 37  1  0
 22 38  1  0
 23 39  1  0
 23 40  1  0
M  CHG  1   7  -1
M  END
>  <UniqueID>  (39) 
35

>  <SMILES>  (39) 
O=C(c1ccc([N-]S(=O)(=O)c2ccccc2)cc1)N1CCCC1

>  <Energy>  (39) 
49.06700901966877

>  <Genealogy>  (39) 
O=C(c1ccc([N-]S(=O)(=O)c2ccccc2)cc1)N1CCCC1 (protonated)
O=C(c1ccc([N-]S(=O)(=O)c2ccccc2)cc1)N1CCCC1 (3D coordinates assigned)
O=C(c1ccc([N-]S(=O)(=O)c2ccccc2)cc1)N1CCCC1 (nonaromatic ring conformer: 49.06700901966877 kcal/mol)

>  <smiles>  (39) 
O=C(c1ccc(NS(=O)(=O)c2ccccc2)cc1)N1CCCC1

>  <score_type>  (39) 
oracle

>  <origin>  (39) 
adgpu

>  <m_score__min__energy>  (39) 
-10.31

>  <m_primary>  (39) 
energy

$$$$
39:0
     RDKit          3D

 52 54  0  0  1  0  0  0  0  0999 V2000
   -0.6490   19.9840  -32.1910 C   0  0  0  0  0  0  0  0  0  0  0  0
   -1.3880   21.1770  -32.7140 C   0  0  0  0  0  0  0  0  0  0  0  0
   -2.3670   20.8590  -33.8160 C   0  0  0  0  0  0  0  0  0  0  0  0
   -3.7330   21.1600  -33.4260 N   0  0  0  0  0  0  0  0  0  0  0  0
   -4.5900   20.2020  -33.3750 C   0  0  0  0  0  0  0  0  0  0  0  0
   -5.8530   20.5410  -33.0040 N   0  0  0  0  0  0  0  0  0  0  0  0
   -6.8220   19.6000  -32.9230 C   0  0  0  0  0  0  0  0  0  0  0  0
   -8.0280   19.8890  -32.5740 N   0  0  0  0  0  0  0  0  0  0  0  0
   -8.3780   21.2800  -32.2540 C   0  0  0  0  0  0  0  0  0  0  0  0
   -7.7800   21.5210  -30.8620 C   0  0  0  0  0  0  0  0  0  0  0  0
   -6.7730   22.5960  -30.8550 C   0  0  0  0  0  0  0  0  0  0  0  0
   -5.4300   22.2450  -30.7310 C   0  0  0  0  0  0  0  0  0  0  0  0
   -4.4780   23.2490  -30.7230 C   0  0  0  0  0  0  0  0  0  0  0  0
   -4.8600   24.5660  -30.8360 C   0  0  0  0  0  0  0  0  0  0  0  0
   -3.8480   25.5210  -30.8200 O   0  0  0  0  0  0  0  0  0  0  0  0
   -6.1850   24.8940  -30.9560 C   0  0  0  0  0  0  0  0  0  0  0  0
   -7.1680   23.9220  -30.9690 C   0  0  0  0  0  0  0  0  0  0  0  0
   -6.4840   18.2830  -33.2280 C   0  0  0  0  0  0  0  0  0  0  0  0
   -7.2770   17.1970  -33.2140 N   0  0  0  0  0  0  0  0  0  0  0  0
   -6.4930   16.1730  -33.5810 C   0  0  0  0  0  0  0  0  0  0  0  0
   -5.2260   16.6190  -33.8200 N   0  0  0  0  0  0  0  0  0  0  0  0
   -4.0770   15.8250  -34.2390 C   0  0  0  0  0  0  0  0  0  0  0  0
   -3.4660   16.3680  -35.5130 C   0  0  0  0  0  0  0  0  0  0  0  0
   -3.0640   15.6590  -33.1470 C   0  0  0  0  0  0  0  0  0  0  0  0
   -5.2080   17.9460  -33.6010 C   0  0  0  0  0  0  0  0  0  0  0  0
   -4.2860   18.9220  -33.6660 N   0  0  0  0  0  0  0  0  0  0  0  0
   -0.6588   19.9998  -31.0912 H   0  0  0  0  0  0  0  0  0  0  0  0
   -1.1362   19.0650  -32.5489 H   0  0  0  0  0  0  0  0  0  0  0  0
    0.3908   20.0109  -32.5489 H   0  0  0  0  0  0  0  0  0  0  0  0
   -1.9421   21.6331  -31.8804 H   0  0  0  0  0  0  0  0  0  0  0  0
   -0.6349   21.8539  -33.1437 H   0  0  0  0  0  0  0  0  0  0  0  0
   -2.1103   21.4557  -34.7037 H   0  0  0  0  0  0  0  0  0  0  0  0
   -2.3019   19.7823  -34.0316 H   0  0  0  0  0  0  0  0  0  0  0  0
   -6.0790   21.5350  -32.7810 H   0  0  0  0  0  0  0  0  0  0  0  0
   -7.9387   21.9697  -32.9897 H   0  0  0  0  0  0  0  0  0  0  0  0
   -9.4643   21.4517  -32.2760 H   0  0  0  0  0  0  0  0  0  0  0  0
   -8.5922   21.7949  -30.1725 H   0  0  0  0  0  0  0  0  0  0  0  0
   -7.2781   20.5931  -30.5505 H   0  0  0  0  0  0  0  0  0  0  0  0
   -5.1325   21.1898  -30.6412 H   0  0  0  0  0  0  0  0  0  0  0  0
   -3.4125   22.9935  -30.6260 H   0  0  0  0  0  0  0  0  0  0  0  0
   -3.2030   25.6310  -31.5930 H   0  0  0  0  0  0  0  0  0  0  0  0
   -6.4724   25.9522  -31.0438 H   0  0  0  0  0  0  0  0  0  0  0  0
   -8.2301   24.1909  -31.0666 H   0  0  0  0  0  0  0  0  0  0  0  0
   -6.8227   15.1278  -33.6754 H   0  0  0  0  0  0  0  0  0  0  0  0
   -4.4490   14.8140  -34.4614 H   0  0  0  0  0  0  0  0  0  0  0  0
   -2.6655   17.0794  -35.2616 H   0  0  0  0  0  0  0  0  0  0  0  0
   -3.0476   15.5383  -36.1016 H   0  0  0  0  0  0  0  0  0  0  0  0
   -4.2408   16.8810  -36.1016 H   0  0  0  0  0  0  0  0  0  0  0  0
   -3.5619   15.7406  -32.1695 H   0  0  0  0  0  0  0  0  0  0  0  0
   -2.5886   14.6710  -33.2350 H   0  0  0  0  0  0  0  0  0  0  0  0
   -2.2981   16.4436  -33.2350 H   0  0  0  0  0  0  0  0  0  0  0  0
   -3.3250   18.6690  -33.9460 H   0  0  0  0  0  0  0  0  0  0  0  0
  1  2  1  0
  2  3  1  0
  3  4  1  0
  4  5  2  0
  5  6  1  0
  6  7  1  0
  7  8  2  0
  8  9  1  0
  9 10  1  0
 10 11  1  0
 11 12  2  0
 12 13  1  0
 13 14  2  0
 14 15  1  0
 14 16  1  0
 16 17  2  0
  7 18  1  0
 18 19  1  0
 19 20  2  0
 20 21  1  0
 21 22  1  0
 22 23  1  0
 22 24  1  0
 21 25  1  0
 25 26  1  0
 26  5  1  0
 17 11  1  0
 25 18  2  0
  1 27  1  0
  1 28  1  0
  1 29  1  0
  2 30  1  0
  2 31  1  0
  3 32  1  0
  3 33  1  0
  6 34  1  0
  9 35  1  0
  9 36  1  0
 10 37  1  0
 10 38  1  0
 12 39  1  0
 13 40  1  0
 15 41  1  0
 16 42  1  0
 17 43  1  0
 20 44  1  0
 22 45  1  0
 23 46  1  0
 23 47  1  0
 23 48  1  0
 24 49  1  0
 24 50  1  0
 24 51  1  0
 26 52  1  0
M  END
>  <smiles>  (40) 
CCCN=c1[nH]c(=NCCc2ccc(O)cc2)c2ncn(C(C)C)c2[nH]1

>  <score_type>  (40) 
oracle

>  <origin>  (40) 
adgpu

>  <m_score__min__energy>  (40) 
-8.6999999999999993

>  <m_primary>  (40) 
energy

$$$$
40:0
     RDKit          3D

 60 64  0  0  0  0  0  0  0  0999 V2000
   -6.9920   22.7210  -31.0450 O   0  0  0  0  0  0  0  0  0  0  0  0
   -5.8190   22.7650  -31.5010 C   0  0  0  0  0  0  0  0  0  0  0  0
   -5.5270   22.0780  -32.7250 N   0  0  0  0  0  0  0  0  0  0  0  0
   -4.5480   21.0430  -32.9030 C   0  0  0  0  0  0  0  0  0  0  0  0
   -3.1840   21.3540  -33.0470 C   0  0  0  0  0  0  0  0  0  0  0  0
   -2.2340   20.3370  -33.2010 C   0  0  0  0  0  0  0  0  0  0  0  0
   -0.5440   20.7550  -33.4590 S   0  0  0  0  0  0  0  0  0  0  0  0
    0.1820   19.5830  -34.0600 O   0  0  0  0  0  0  0  0  0  0  0  0
   -0.4860   21.9150  -34.4120 O   0  0  0  0  0  0  0  0  0  0  0  0
    0.1830   21.1970  -31.9280 N   0  0  0  0  0  0  0  0  0  0  0  0
   -0.7630   21.9300  -31.0590 C   0  0  0  0  0  0  0  0  0  0  0  0
   -1.3900   21.0350  -29.9730 C   0  0  0  0  0  0  0  0  0  0  0  0
   -1.5500   19.7210  -30.4580 O   0  0  0  0  0  0  0  0  0  0  0  0
   -0.2850   19.1020  -30.6260 C   0  0  0  0  0  0  0  0  0  0  0  0
    0.7820   20.0320  -31.2530 C   0  0  0  0  0  0  0  0  0  0  0  0
   -2.6420   18.9980  -33.1770 C   0  0  0  0  0  0  0  0  0  0  0  0
   -3.9900   18.6790  -33.0010 C   0  0  0  0  0  0  0  0  0  0  0  0
   -4.9480   19.6940  -32.8710 C   0  0  0  0  0  0  0  0  0  0  0  0
   -6.3300   19.3360  -32.7320 N   0  0  0  0  0  0  0  0  0  0  0  0
   -6.7010   18.0580  -32.1200 C   0  0  0  0  0  0  0  0  0  0  0  0
   -8.0740   18.1930  -31.4580 C   0  0  0  0  0  0  0  0  0  0  0  0
   -9.0230   18.7070  -32.3730 O   0  0  0  0  0  0  0  0  0  0  0  0
   -8.6780   20.0330  -32.7290 C   0  0  0  0  0  0  0  0  0  0  0  0
   -7.3450   20.0710  -33.4860 C   0  0  0  0  0  0  0  0  0  0  0  0
   -4.8050   23.5610  -30.7860 C   0  0  0  0  0  0  0  0  0  0  0  0
   -4.0280   23.1490  -29.7220 C   0  0  0  0  0  0  0  0  0  0  0  0
   -3.2460   24.2520  -29.4240 C   0  0  0  0  0  0  0  0  0  0  0  0
   -2.2370   24.3630  -28.3340 C   0  0  0  0  0  0  0  0  0  0  0  0
   -2.2310   23.4360  -27.2720 C   0  0  0  0  0  0  0  0  0  0  0  0
   -1.2910   23.5340  -26.2430 C   0  0  0  0  0  0  0  0  0  0  0  0
   -0.3440   24.5560  -26.2530 C   0  0  0  0  0  0  0  0  0  0  0  0
   -0.3350   25.4860  -27.2940 C   0  0  0  0  0  0  0  0  0  0  0  0
   -1.2710   25.3980  -28.3310 C   0  0  0  0  0  0  0  0  0  0  0  0
   -1.2260   26.3450  -29.3470 O   0  0  0  0  0  0  0  0  0  0  0  0
   -3.5440   25.2470  -30.2860 N   0  0  0  0  0  0  0  0  0  0  0  0
   -4.4860   24.8260  -31.1150 N   0  0  0  0  0  0  0  0  0  0  0  0
   -2.8607   22.4054  -33.0386 H   0  0  0  0  0  0  0  0  0  0  0  0
   -0.2238   22.7535  -30.5680 H   0  0  0  0  0  0  0  0  0  0  0  0
   -1.5797   22.3005  -31.6959 H   0  0  0  0  0  0  0  0  0  0  0  0
   -0.7329   21.0193  -29.0910 H   0  0  0  0  0  0  0  0  0  0  0  0
   -2.3758   21.4393  -29.6996 H   0  0  0  0  0  0  0  0  0  0  0  0
    0.0756   18.7745  -29.6397 H   0  0  0  0  0  0  0  0  0  0  0  0
   -0.4274   18.2606  -31.3201 H   0  0  0  0  0  0  0  0  0  0  0  0
    1.4508   20.3902  -30.4565 H   0  0  0  0  0  0  0  0  0  0  0  0
    1.3313   19.4515  -32.0088 H   0  0  0  0  0  0  0  0  0  0  0  0
   -1.8992   18.1956  -33.2970 H   0  0  0  0  0  0  0  0  0  0  0  0
   -4.3020   17.6248  -32.9641 H   0  0  0  0  0  0  0  0  0  0  0  0
   -6.7418   17.2780  -32.8945 H   0  0  0  0  0  0  0  0  0  0  0  0
   -5.9527   17.7815  -31.3626 H   0  0  0  0  0  0  0  0  0  0  0  0
   -8.4063   17.2034  -31.1111 H   0  0  0  0  0  0  0  0  0  0  0  0
   -7.9900   18.8872  -30.6089 H   0  0  0  0  0  0  0  0  0  0  0  0
   -9.4680   20.4500  -33.3709 H   0  0  0  0  0  0  0  0  0  0  0  0
   -8.5749   20.6268  -31.8088 H   0  0  0  0  0  0  0  0  0  0  0  0
   -7.4728   19.6075  -34.4754 H   0  0  0  0  0  0  0  0  0  0  0  0
   -7.0239   21.1161  -33.6069 H   0  0  0  0  0  0  0  0  0  0  0  0
   -4.0297   22.1680  -29.2244 H   0  0  0  0  0  0  0  0  0  0  0  0
   -2.9751   22.6261  -27.2532 H   0  0  0  0  0  0  0  0  0  0  0  0
   -1.2986   22.8018  -25.4221 H   0  0  0  0  0  0  0  0  0  0  0  0
    0.3954   24.6299  -25.4419 H   0  0  0  0  0  0  0  0  0  0  0  0
    0.4124   26.2931  -27.2994 H   0  0  0  0  0  0  0  0  0  0  0  0
  1  2  2  0
  2  3  1  0
  3  4  1  0
  4  5  2  0
  5  6  1  0
  6  7  1  0
  7  8  2  0
  7  9  2  0
  7 10  1  0
 10 11  1  0
 11 12  1  0
 12 13  1  0
 13 14  1  0
 14 15  1  0
  6 16  2  0
 16 17  1  0
 17 18  2  0
 18 19  1  0
 19 20  1  0
 20 21  1  0
 21 22  1  0
 22 23  1  0
 23 24  1  0
  2 25  1  0
 25 26  1  0
 26 27  2  0
 27 28  1  0
 28 29  2  0
 29 30  1  0
 30 31  2  0
 31 32  1  0
 32 33  2  0
 33 34  1  0
 27 35  1  0
 35 36  1  0
 18  4  1  0
 24 19  1  0
 36 25  2  0
 15 10  1  0
 33 28  1  0
  5 37  1  0
 11 38  1  0
 11 39  1  0
 12 40  1  0
 12 41  1  0
 14 42  1  0
 14 43  1  0
 15 44  1  0
 15 45  1  0
 16 46  1  0
 17 47  1  0
 20 48  1  0
 20 49  1  0
 21 50  1  0
 21 51  1  0
 23 52  1  0
 23 53  1  0
 24 54  1  0
 24 55  1  0
 26 56  1  0
 29 57  1  0
 30 58  1  0
 31 59  1  0
 32 60  1  0
M  CHG  3   3  -1  34  -1  35  -1
M  END
>  <UniqueID>  (41) 
36

>  <SMILES>  (41) 
O=C([N-]c1cc(S(=O)(=O)N2CCOCC2)ccc1N1CCOCC1)c1cc(-c2ccccc2[O-])[n-]n1

>  <Energy>  (41) 
117.94398211893221

>  <Genealogy>  (41) 
O=C([N-]c1cc(S(=O)(=O)N2CCOCC2)ccc1N1CCOCC1)c1cc(-c2ccccc2[O-])[n-]n1 (protonated)
O=C([N-]c1cc(S(=O)(=O)N2CCOCC2)ccc1N1CCOCC1)c1cc(-c2ccccc2[O-])[n-]n1 (3D coordinates assigned)
O=C([N-]c1cc(S(=O)(=O)N2CCOCC2)ccc1N1CCOCC1)c1cc(-c2ccccc2[O-])[n-]n1 (nonaromatic ring conformer: 117.94398211893221 kcal/mol)

>  <smiles>  (41) 
O=C(Nc1cc(S(=O)(=O)N2CCOCC2)ccc1N1CCOCC1)c1cc(-c2ccccc2O)[nH]n1

>  <score_type>  (41) 
oracle

>  <origin>  (41) 
adgpu

>  <m_score__min__energy>  (41) 
-15.470000000000001

>  <m_primary>  (41) 
energy

$$$$
41:0
     RDKit          3D

 52 55  0  0  0  0  0  0  0  0999 V2000
   -0.3850   20.6670  -26.7990 O   0  0  0  0  0  0  0  0  0  0  0  0
   -0.0490   21.4080  -27.7610 C   0  0  0  0  0  0  0  0  0  0  0  0
   -0.2480   20.9680  -29.1110 N   0  0  0  0  0  0  0  0  0  0  0  0
   -1.4230   21.1860  -29.9040 C   0  0  0  0  0  0  0  0  0  0  0  0
   -1.3510   21.6530  -31.2280 C   0  0  0  0  0  0  0  0  0  0  0  0
   -2.5170   21.8360  -31.9750 C   0  0  0  0  0  0  0  0  0  0  0  0
   -3.7700   21.5470  -31.4140 C   0  0  0  0  0  0  0  0  0  0  0  0
   -5.2460   21.8020  -32.3500 S   0  0  0  0  0  0  0  0  0  0  0  0
   -5.3580   23.2570  -32.7110 O   0  0  0  0  0  0  0  0  0  0  0  0
   -5.1670   21.0100  -33.6260 O   0  0  0  0  0  0  0  0  0  0  0  0
   -6.6670   21.3190  -31.4530 N   0  0  0  0  0  0  0  0  0  0  0  0
   -7.1030   19.9500  -31.8130 C   0  0  0  0  0  0  0  0  0  0  0  0
   -8.3590   19.9590  -32.7020 C   0  0  0  0  0  0  0  0  0  0  0  0
   -9.4680   20.6130  -32.1000 O   0  0  0  0  0  0  0  0  0  0  0  0
   -9.1060   21.7090  -31.2680 C   0  0  0  0  0  0  0  0  0  0  0  0
   -7.7360   22.3240  -31.6000 C   0  0  0  0  0  0  0  0  0  0  0  0
   -3.8400   21.0490  -30.1060 C   0  0  0  0  0  0  0  0  0  0  0  0
   -2.6720   20.8650  -29.3590 C   0  0  0  0  0  0  0  0  0  0  0  0
    0.6250   22.7040  -27.5010 C   0  0  0  0  0  0  0  0  0  0  0  0
    1.9940   22.6980  -27.1870 C   0  0  0  0  0  0  0  0  0  0  0  0
    2.6620   23.8840  -26.8750 C   0  0  0  0  0  0  0  0  0  0  0  0
    4.0150   23.8400  -26.5550 O   0  0  0  0  0  0  0  0  0  0  0  0
    1.9720   25.1020  -26.8810 C   0  0  0  0  0  0  0  0  0  0  0  0
    2.6240   26.2960  -26.5680 O   0  0  0  0  0  0  0  0  0  0  0  0
    0.6130   25.1310  -27.2120 C   0  0  0  0  0  0  0  0  0  0  0  0
   -0.0500   26.3550  -27.2450 O   0  0  0  0  0  0  0  0  0  0  0  0
   -0.0720   23.9410  -27.5300 C   0  0  0  0  0  0  0  0  0  0  0  0
   -1.4930   24.0220  -27.9480 C   0  0  0  0  0  0  0  0  0  0  0  0
   -2.5060   23.4950  -27.1300 C   0  0  0  0  0  0  0  0  0  0  0  0
   -3.8430   23.5700  -27.5300 C   0  0  0  0  0  0  0  0  0  0  0  0
   -4.1780   24.1710  -28.7460 C   0  0  0  0  0  0  0  0  0  0  0  0
   -3.1770   24.7010  -29.5650 C   0  0  0  0  0  0  0  0  0  0  0  0
   -3.5120   25.2980  -30.7740 O   0  0  0  0  0  0  0  0  0  0  0  0
   -1.8370   24.6310  -29.1670 C   0  0  0  0  0  0  0  0  0  0  0  0
   -0.3721   21.8753  -31.6777 H   0  0  0  0  0  0  0  0  0  0  0  0
   -2.4525   22.2085  -33.0080 H   0  0  0  0  0  0  0  0  0  0  0  0
   -6.2877   19.4490  -32.3555 H   0  0  0  0  0  0  0  0  0  0  0  0
   -7.3494   19.4168  -30.8830 H   0  0  0  0  0  0  0  0  0  0  0  0
   -8.1174   20.4754  -33.6427 H   0  0  0  0  0  0  0  0  0  0  0  0
   -8.6489   18.9109  -32.8677 H   0  0  0  0  0  0  0  0  0  0  0  0
   -9.8712   22.4918  -31.3756 H   0  0  0  0  0  0  0  0  0  0  0  0
   -9.0382   21.3191  -30.2416 H   0  0  0  0  0  0  0  0  0  0  0  0
   -7.7464   22.6918  -32.6366 H   0  0  0  0  0  0  0  0  0  0  0  0
   -7.5414   23.1534  -30.9041 H   0  0  0  0  0  0  0  0  0  0  0  0
   -4.8171   20.8019  -29.6652 H   0  0  0  0  0  0  0  0  0  0  0  0
   -2.7351   20.4653  -28.3361 H   0  0  0  0  0  0  0  0  0  0  0  0
    2.5470   21.7471  -27.1868 H   0  0  0  0  0  0  0  0  0  0  0  0
    2.1380   27.1830  -26.5340 H   0  0  0  0  0  0  0  0  0  0  0  0
   -2.2462   23.0218  -26.1716 H   0  0  0  0  0  0  0  0  0  0  0  0
   -4.6328   23.1552  -26.8865 H   0  0  0  0  0  0  0  0  0  0  0  0
   -5.2310   24.2271  -29.0592 H   0  0  0  0  0  0  0  0  0  0  0  0
   -1.0510   25.0538  -29.8100 H   0  0  0  0  0  0  0  0  0  0  0  0
  1  2  2  0
  2  3  1  0
  3  4  1  0
  4  5  2  0
  5  6  1  0
  6  7  2  0
  7  8  1  0
  8  9  2  0
  8 10  2  0
  8 11  1  0
 11 12  1  0
 12 13  1  0
 13 14  1  0
 14 15  1  0
 15 16  1  0
  7 17  1  0
 17 18  2  0
  2 19  1  0
 19 20  2  0
 20 21  1  0
 21 22  1  0
 21 23  2  0
 23 24  1  0
 23 25  1  0
 25 26  1  0
 25 27  2  0
 27 28  1  0
 28 29  2  0
 29 30  1  0
 30 31  2  0
 31 32  1  0
 32 33  1  0
 32 34  2  0
 18  4  1  0
 27 19  1  0
 34 28  1  0
 16 11  1  0
  5 35  1  0
  6 36  1  0
 12 37  1  0
 12 38  1  0
 13 39  1  0
 13 40  1  0
 15 41  1  0
 15 42  1  0
 16 43  1  0
 16 44  1  0
 17 45  1  0
 18 46  1  0
 20 47  1  0
 24 48  1  0
 29 49  1  0
 30 50  1  0
 31 51  1  0
 34 52  1  0
M  CHG  4   3  -1  22  -1  26  -1  33  -1
M  END
>  <UniqueID>  (42) 
37

>  <SMILES>  (42) 
O=C([N-]c1ccc(S(=O)(=O)N2CCOCC2)cc1)c1cc([O-])c(O)c([O-])c1-c1cccc([O-])c1

>  <Energy>  (42) 
83.20660914457083

>  <Genealogy>  (42) 
O=C([N-]c1ccc(S(=O)(=O)N2CCOCC2)cc1)c1cc([O-])c(O)c([O-])c1-c1cccc([O-])c1 (protonated)
O=C([N-]c1ccc(S(=O)(=O)N2CCOCC2)cc1)c1cc([O-])c(O)c([O-])c1-c1cccc([O-])c1 (3D coordinates assigned)
O=C([N-]c1ccc(S(=O)(=O)N2CCOCC2)cc1)c1cc([O-])c(O)c([O-])c1-c1cccc([O-])c1 (nonaromatic ring conformer: 83.20660914457083 kcal/mol)

>  <smiles>  (42) 
O=C(Nc1ccc(S(=O)(=O)N2CCOCC2)cc1)c1cc(O)c(O)c(O)c1-c1cccc(O)c1

>  <score_type>  (42) 
oracle

>  <origin>  (42) 
adgpu

>  <m_score__min__energy>  (42) 
-11.92

>  <m_primary>  (42) 
energy

$$$$
42:0
     RDKit          3D

 51 54  0  0  0  0  0  0  0  0999 V2000
    2.0310   24.3340  -24.2120 C   0  0  0  0  0  0  0  0  0  0  0  0
    0.9880   24.3250  -25.2980 C   0  0  0  0  0  0  0  0  0  0  0  0
    1.1980   23.5460  -26.4470 C   0  0  0  0  0  0  0  0  0  0  0  0
    0.2520   23.5210  -27.4730 C   0  0  0  0  0  0  0  0  0  0  0  0
   -0.9270   24.2750  -27.3780 C   0  0  0  0  0  0  0  0  0  0  0  0
   -1.9210   24.2310  -28.4790 C   0  0  0  0  0  0  0  0  0  0  0  0
   -2.6640   23.1390  -28.8940 C   0  0  0  0  0  0  0  0  0  0  0  0
   -3.4280   23.6230  -29.9420 C   0  0  0  0  0  0  0  0  0  0  0  0
   -4.4090   22.8660  -30.7590 C   0  0  0  0  0  0  0  0  0  0  0  0
   -4.0250   21.7320  -31.4950 C   0  0  0  0  0  0  0  0  0  0  0  0
   -4.9590   21.0350  -32.2620 C   0  0  0  0  0  0  0  0  0  0  0  0
   -6.2960   21.4630  -32.3250 C   0  0  0  0  0  0  0  0  0  0  0  0
   -7.2650   20.7470  -33.1070 N   0  0  0  0  0  0  0  0  0  0  0  0
   -7.6640   19.3820  -32.9180 C   0  0  0  0  0  0  0  0  0  0  0  0
   -8.8820   19.1330  -32.7180 O   0  0  0  0  0  0  0  0  0  0  0  0
   -6.6960   18.2620  -33.0230 C   0  0  0  0  0  0  0  0  0  0  0  0
   -6.5090   17.3940  -31.9330 C   0  0  0  0  0  0  0  0  0  0  0  0
   -5.5980   16.3370  -32.0170 C   0  0  0  0  0  0  0  0  0  0  0  0
   -4.8560   16.1430  -33.1820 C   0  0  0  0  0  0  0  0  0  0  0  0
   -5.0230   17.0040  -34.2690 C   0  0  0  0  0  0  0  0  0  0  0  0
   -5.9390   18.0650  -34.1980 C   0  0  0  0  0  0  0  0  0  0  0  0
   -6.1070   18.9080  -35.2960 O   0  0  0  0  0  0  0  0  0  0  0  0
   -6.6980   22.5800  -31.5690 C   0  0  0  0  0  0  0  0  0  0  0  0
   -8.1290   23.0470  -31.6060 C   0  0  0  0  0  0  0  0  0  0  0  0
   -5.7520   23.2790  -30.8010 C   0  0  0  0  0  0  0  0  0  0  0  0
   -3.1450   24.9270  -30.1300 N   0  0  0  0  0  0  0  0  0  0  0  0
   -2.2340   25.2960  -29.2450 N   0  0  0  0  0  0  0  0  0  0  0  0
   -1.1380   25.0630  -26.2310 C   0  0  0  0  0  0  0  0  0  0  0  0
   -0.1900   25.1000  -25.1930 C   0  0  0  0  0  0  0  0  0  0  0  0
   -0.4550   25.9530  -23.9800 C   0  0  0  0  0  0  0  0  0  0  0  0
    1.5370   24.3297  -23.2292 H   0  0  0  0  0  0  0  0  0  0  0  0
    2.6667   23.4413  -24.3067 H   0  0  0  0  0  0  0  0  0  0  0  0
    2.6512   25.2375  -24.3067 H   0  0  0  0  0  0  0  0  0  0  0  0
    2.1174   22.9493  -26.5396 H   0  0  0  0  0  0  0  0  0  0  0  0
    0.4329   22.9036  -28.3653 H   0  0  0  0  0  0  0  0  0  0  0  0
   -2.6503   22.1184  -28.4840 H   0  0  0  0  0  0  0  0  0  0  0  0
   -2.9795   21.3912  -31.4661 H   0  0  0  0  0  0  0  0  0  0  0  0
   -4.6459   20.1420  -32.8227 H   0  0  0  0  0  0  0  0  0  0  0  0
   -7.0835   17.5476  -31.0076 H   0  0  0  0  0  0  0  0  0  0  0  0
   -5.4661   15.6569  -31.1626 H   0  0  0  0  0  0  0  0  0  0  0  0
   -4.1388   15.3113  -33.2447 H   0  0  0  0  0  0  0  0  0  0  0  0
   -4.4338   16.8498  -35.1850 H   0  0  0  0  0  0  0  0  0  0  0  0
   -6.7860   19.6600  -35.2910 H   0  0  0  0  0  0  0  0  0  0  0  0
   -8.5017   23.1686  -30.5782 H   0  0  0  0  0  0  0  0  0  0  0  0
   -8.1867   24.0106  -32.1334 H   0  0  0  0  0  0  0  0  0  0  0  0
   -8.7440   22.3029  -32.1334 H   0  0  0  0  0  0  0  0  0  0  0  0
   -6.0665   24.1616  -30.2246 H   0  0  0  0  0  0  0  0  0  0  0  0
   -2.0585   25.6590  -26.1452 H   0  0  0  0  0  0  0  0  0  0  0  0
   -0.2717   25.3631  -23.0698 H   0  0  0  0  0  0  0  0  0  0  0  0
    0.2143   26.8258  -23.9922 H   0  0  0  0  0  0  0  0  0  0  0  0
   -1.5011   26.2929  -23.9922 H   0  0  0  0  0  0  0  0  0  0  0  0
  1  2  1  0
  2  3  2  0
  3  4  1  0
  4  5  2  0
  5  6  1  0
  6  7  1  0
  7  8  2  0
  8  9  1  0
  9 10  2  0
 10 11  1  0
 11 12  2  0
 12 13  1  0
 13 14  1  0
 14 15  2  0
 14 16  1  0
 16 17  2  0
 17 18  1  0
 18 19  2  0
 19 20  1  0
 20 21  2  0
 21 22  1  0
 12 23  1  0
 23 24  1  0
 23 25  2  0
  8 26  1  0
 26 27  1  0
  5 28  1  0
 28 29  2  0
 29 30  1  0
 29  2  1  0
 27  6  2  0
 25  9  1  0
 21 16  1  0
  1 31  1  0
  1 32  1  0
  1 33  1  0
  3 34  1  0
  4 35  1  0
  7 36  1  0
 10 37  1  0
 11 38  1  0
 17 39  1  0
 18 40  1  0
 19 41  1  0
 20 42  1  0
 22 43  1  0
 24 44  1  0
 24 45  1  0
 24 46  1  0
 25 47  1  0
 28 48  1  0
 30 49  1  0
 30 50  1  0
 30 51  1  0
M  CHG  2  13  -1  26  -1
M  END
>  <UniqueID>  (43) 
38

>  <SMILES>  (43) 
Cc1ccc(-c2cc(-c3ccc([N-]C(=O)c4ccccc4O)c(C)c3)[n-]n2)cc1C

>  <Energy>  (43) 
95.6212376251124

>  <Genealogy>  (43) 
Cc1ccc(-c2cc(-c3ccc([N-]C(=O)c4ccccc4O)c(C)c3)[n-]n2)cc1C (protonated)
Cc1ccc(-c2cc(-c3ccc([N-]C(=O)c4ccccc4O)c(C)c3)[n-]n2)cc1C (3D coordinates assigned)
Cc1ccc(-c2cc(-c3ccc([N-]C(=O)c4ccccc4O)c(C)c3)[n-]n2)cc1C (optimized conformer: 95.6212376251124 kcal/mol)

>  <smiles>  (43) 
Cc1ccc(-c2cc(-c3ccc(NC(=O)c4ccccc4O)c(C)c3)[nH]n2)cc1C

>  <score_type>  (43) 
oracle

>  <origin>  (43) 
adgpu

>  <m_score__min__energy>  (43) 
-11.33

>  <m_primary>  (43) 
energy

$$$$
43:0
     RDKit          3D

 42 44  0  0  0  0  0  0  0  0999 V2000
   -2.7400   22.7220  -31.2590 C   0  0  0  0  0  0  0  0  0  0  0  0
   -4.1700   23.0850  -30.9730 C   0  0  0  0  0  0  0  0  0  0  0  0
   -5.1960   22.1680  -31.2470 C   0  0  0  0  0  0  0  0  0  0  0  0
   -6.5380   22.5000  -31.0060 C   0  0  0  0  0  0  0  0  0  0  0  0
   -7.6090   21.5230  -31.3210 C   0  0  0  0  0  0  0  0  0  0  0  0
   -8.7910   21.7800  -30.9620 O   0  0  0  0  0  0  0  0  0  0  0  0
   -7.3400   20.2530  -32.0400 C   0  0  0  0  0  0  0  0  0  0  0  0
   -6.5600   20.2340  -33.2100 C   0  0  0  0  0  0  0  0  0  0  0  0
   -6.3240   19.0340  -33.8850 C   0  0  0  0  0  0  0  0  0  0  0  0
   -6.8580   17.8340  -33.4060 C   0  0  0  0  0  0  0  0  0  0  0  0
   -6.6060   16.6530  -34.1180 O   0  0  0  0  0  0  0  0  0  0  0  0
   -5.4160   15.9100  -34.0680 C   0  0  0  0  0  0  0  0  0  0  0  0
   -4.2510   16.4690  -34.6070 C   0  0  0  0  0  0  0  0  0  0  0  0
   -3.0420   15.7680  -34.5610 C   0  0  0  0  0  0  0  0  0  0  0  0
   -2.9870   14.5040  -33.9660 C   0  0  0  0  0  0  0  0  0  0  0  0
   -1.7440   13.7790  -33.9230 C   0  0  0  0  0  0  0  0  0  0  0  0
   -0.7450   13.1970  -33.8900 N   0  0  0  0  0  0  0  0  0  0  0  0
   -4.1440   13.9450  -33.4090 C   0  0  0  0  0  0  0  0  0  0  0  0
   -5.3530   14.6460  -33.4530 C   0  0  0  0  0  0  0  0  0  0  0  0
   -7.6710   17.8530  -32.2600 C   0  0  0  0  0  0  0  0  0  0  0  0
   -7.9090   19.0520  -31.5830 C   0  0  0  0  0  0  0  0  0  0  0  0
   -6.8490   23.7780  -30.5120 C   0  0  0  0  0  0  0  0  0  0  0  0
   -5.8330   24.7030  -30.2280 C   0  0  0  0  0  0  0  0  0  0  0  0
   -6.1840   26.0700  -29.7130 C   0  0  0  0  0  0  0  0  0  0  0  0
   -4.4920   24.3600  -30.4740 C   0  0  0  0  0  0  0  0  0  0  0  0
   -3.4830   25.2860  -30.2270 O   0  0  0  0  0  0  0  0  0  0  0  0
   -2.1998   22.5849  -30.3106 H   0  0  0  0  0  0  0  0  0  0  0  0
   -2.7077   21.7872  -31.8379 H   0  0  0  0  0  0  0  0  0  0  0  0
   -2.2658   23.5282  -31.8379 H   0  0  0  0  0  0  0  0  0  0  0  0
   -4.9456   21.1777  -31.6553 H   0  0  0  0  0  0  0  0  0  0  0  0
   -6.1326   21.1710  -33.5965 H   0  0  0  0  0  0  0  0  0  0  0  0
   -5.7136   19.0332  -34.8001 H   0  0  0  0  0  0  0  0  0  0  0  0
   -4.2870   17.4663  -35.0697 H   0  0  0  0  0  0  0  0  0  0  0  0
   -2.1330   16.2116  -34.9935 H   0  0  0  0  0  0  0  0  0  0  0  0
   -4.1015   12.9528  -32.9361 H   0  0  0  0  0  0  0  0  0  0  0  0
   -6.2575   14.2081  -33.0056 H   0  0  0  0  0  0  0  0  0  0  0  0
   -8.1224   16.9191  -31.8939 H   0  0  0  0  0  0  0  0  0  0  0  0
   -8.5461   19.0558  -30.6863 H   0  0  0  0  0  0  0  0  0  0  0  0
   -7.9002   24.0563  -30.3461 H   0  0  0  0  0  0  0  0  0  0  0  0
   -6.1812   26.0593  -28.6131 H   0  0  0  0  0  0  0  0  0  0  0  0
   -5.4439   26.7992  -30.0744 H   0  0  0  0  0  0  0  0  0  0  0  0
   -7.1838   26.3524  -30.0744 H   0  0  0  0  0  0  0  0  0  0  0  0
  1  2  1  0
  2  3  2  0
  3  4  1  0
  4  5  1  0
  5  6  2  0
  5  7  1  0
  7  8  2  0
  8  9  1  0
  9 10  2  0
 10 11  1  0
 11 12  1  0
 12 13  2  0
 13 14  1  0
 14 15  2  0
 15 16  1  0
 16 17  3  0
 15 18  1  0
 18 19  2  0
 10 20  1  0
 20 21  2  0
  4 22  2  0
 22 23  1  0
 23 24  1  0
 23 25  2  0
 25 26  1  0
 25  2  1  0
 21  7  1  0
 19 12  1  0
  1 27  1  0
  1 28  1  0
  1 29  1  0
  3 30  1  0
  8 31  1  0
  9 32  1  0
 13 33  1  0
 14 34  1  0
 18 35  1  0
 19 36  1  0
 20 37  1  0
 21 38  1  0
 22 39  1  0
 24 40  1  0
 24 41  1  0
 24 42  1  0
M  CHG  1  26  -1
M  END
>  <UniqueID>  (44) 
39

>  <SMILES>  (44) 
Cc1cc(C(=O)c2ccc(Oc3ccc(C#N)cc3)cc2)cc(C)c1[O-]

>  <Energy>  (44) 
56.45687765896781

>  <Genealogy>  (44) 
Cc1cc(C(=O)c2ccc(Oc3ccc(C#N)cc3)cc2)cc(C)c1[O-] (protonated)
Cc1cc(C(=O)c2ccc(Oc3ccc(C#N)cc3)cc2)cc(C)c1[O-] (3D coordinates assigned)
Cc1cc(C(=O)c2ccc(Oc3ccc(C#N)cc3)cc2)cc(C)c1[O-] (optimized conformer: 56.45687765896781 kcal/mol)

>  <smiles>  (44) 
Cc1cc(C(=O)c2ccc(Oc3ccc(C#N)cc3)cc2)cc(C)c1O

>  <score_type>  (44) 
oracle

>  <origin>  (44) 
adgpu

>  <m_score__min__energy>  (44) 
-11.73

>  <m_primary>  (44) 
energy

$$$$
44:0
     RDKit          3D

 42 44  0  0  0  0  0  0  0  0999 V2000
   -5.6270   25.4120  -29.7140 O   0  0  0  0  0  0  0  0  0  0  0  0
   -4.8630   24.6520  -30.3700 C   0  0  0  0  0  0  0  0  0  0  0  0
   -3.4460   24.8660  -30.3410 N   0  0  0  0  0  0  0  0  0  0  0  0
   -2.5480   24.3650  -29.3400 C   0  0  0  0  0  0  0  0  0  0  0  0
   -2.7040   23.0420  -28.9040 C   0  0  0  0  0  0  0  0  0  0  0  0
   -1.8470   22.5070  -27.9340 C   0  0  0  0  0  0  0  0  0  0  0  0
   -2.0960   20.8580  -27.3630 S   0  0  0  0  0  0  0  0  0  0  0  0
   -1.6500   20.7720  -25.9290 O   0  0  0  0  0  0  0  0  0  0  0  0
   -3.5560   20.5060  -27.4320 O   0  0  0  0  0  0  0  0  0  0  0  0
   -1.1670   19.7430  -28.3350 N   0  0  0  0  0  0  0  0  0  0  0  0
   -0.8400   18.5360  -27.5420 C   0  0  0  0  0  0  0  0  0  0  0  0
    0.3260   17.7570  -28.1600 C   0  0  0  0  0  0  0  0  0  0  0  0
    1.6090   18.6060  -28.1830 C   0  0  0  0  0  0  0  0  0  0  0  0
    1.3210   20.1160  -28.2100 C   0  0  0  0  0  0  0  0  0  0  0  0
    0.0070   20.4190  -28.9440 C   0  0  0  0  0  0  0  0  0  0  0  0
   -0.8210   23.2980  -27.4030 C   0  0  0  0  0  0  0  0  0  0  0  0
   -0.6360   24.6050  -27.8590 C   0  0  0  0  0  0  0  0  0  0  0  0
   -1.4830   25.1380  -28.8360 C   0  0  0  0  0  0  0  0  0  0  0  0
   -1.2370   26.4190  -29.3170 O   0  0  0  0  0  0  0  0  0  0  0  0
   -5.4280   23.5100  -31.1250 C   0  0  0  0  0  0  0  0  0  0  0  0
   -4.5900   22.5350  -31.6930 C   0  0  0  0  0  0  0  0  0  0  0  0
   -5.1360   21.4650  -32.4030 C   0  0  0  0  0  0  0  0  0  0  0  0
   -6.5220   21.3750  -32.5440 C   0  0  0  0  0  0  0  0  0  0  0  0
   -7.0330   20.4170  -33.1810 O   0  0  0  0  0  0  0  0  0  0  0  0
   -7.3240   22.3230  -31.9920 N   0  0  0  0  0  0  0  0  0  0  0  0
   -6.8170   23.3740  -31.2950 C   0  0  0  0  0  0  0  0  0  0  0  0
   -3.5058   22.4190  -29.3270 H   0  0  0  0  0  0  0  0  0  0  0  0
   -0.5646   18.8422  -26.5220 H   0  0  0  0  0  0  0  0  0  0  0  0
   -1.7240   17.8815  -27.5291 H   0  0  0  0  0  0  0  0  0  0  0  0
    0.5066   16.8491  -27.5657 H   0  0  0  0  0  0  0  0  0  0  0  0
    0.0616   17.4953  -29.1952 H   0  0  0  0  0  0  0  0  0  0  0  0
    2.1991   18.3763  -27.2835 H   0  0  0  0  0  0  0  0  0  0  0  0
    2.1565   18.3557  -29.1037 H   0  0  0  0  0  0  0  0  0  0  0  0
    1.2479   20.4856  -27.1765 H   0  0  0  0  0  0  0  0  0  0  0  0
    2.1415   20.6170  -28.7447 H   0  0  0  0  0  0  0  0  0  0  0  0
   -0.1640   21.5054  -28.9227 H   0  0  0  0  0  0  0  0  0  0  0  0
    0.1089   20.0395  -29.9714 H   0  0  0  0  0  0  0  0  0  0  0  0
   -0.1593   22.8892  -26.6251 H   0  0  0  0  0  0  0  0  0  0  0  0
    0.1796   25.2180  -27.4479 H   0  0  0  0  0  0  0  0  0  0  0  0
   -3.4991   22.6158  -31.5773 H   0  0  0  0  0  0  0  0  0  0  0  0
   -4.4813   20.7006  -32.8469 H   0  0  0  0  0  0  0  0  0  0  0  0
   -7.4970   24.1221  -30.8616 H   0  0  0  0  0  0  0  0  0  0  0  0
  1  2  2  0
  2  3  1  0
  3  4  1  0
  4  5  2  0
  5  6  1  0
  6  7  1  0
  7  8  2  0
  7  9  2  0
  7 10  1  0
 10 11  1  0
 11 12  1  0
 12 13  1  0
 13 14  1  0
 14 15  1  0
  6 16  2  0
 16 17  1  0
 17 18  2  0
 18 19  1  0
  2 20  1  0
 20 21  1  0
 21 22  2  0
 22 23  1  0
 23 24  2  0
 23 25  1  0
 25 26  1  0
 18  4  1  0
 26 20  2  0
 15 10  1  0
  5 27  1  0
 11 28  1  0
 11 29  1  0
 12 30  1  0
 12 31  1  0
 13 32  1  0
 13 33  1  0
 14 34  1  0
 14 35  1  0
 15 36  1  0
 15 37  1  0
 16 38  1  0
 17 39  1  0
 21 40  1  0
 22 41  1  0
 26 42  1  0
M  CHG  3   3  -1  19  -1  25  -1
M  END
>  <UniqueID>  (45) 
40

>  <SMILES>  (45) 
O=C([N-]c1cc(S(=O)(=O)N2CCCCC2)ccc1[O-])c1ccc(=O)[n-]c1

>  <Energy>  (45) 
55.977272344205346

>  <Genealogy>  (45) 
O=C([N-]c1cc(S(=O)(=O)N2CCCCC2)ccc1[O-])c1ccc(=O)[n-]c1 (protonated)
O=C([N-]c1cc(S(=O)(=O)N2CCCCC2)ccc1[O-])c1ccc(=O)[n-]c1 (3D coordinates assigned)
O=C([N-]c1cc(S(=O)(=O)N2CCCCC2)ccc1[O-])c1ccc(=O)[n-]c1 (nonaromatic ring conformer: 55.977272344205346 kcal/mol)

>  <smiles>  (45) 
O=C(Nc1cc(S(=O)(=O)N2CCCCC2)ccc1O)c1ccc(=O)[nH]c1

>  <score_type>  (45) 
oracle

>  <origin>  (45) 
adgpu

>  <m_score__min__energy>  (45) 
-13.01

>  <m_primary>  (45) 
energy

$$$$
45:0
     RDKit          3D

 46 48  0  0  0  0  0  0  0  0999 V2000
   -3.8550   16.6200  -33.2120 C   0  0  0  0  0  0  0  0  0  0  0  0
   -4.1750   18.0710  -33.0870 C   0  0  0  0  0  0  0  0  0  0  0  0
   -3.3120   19.0550  -33.4240 N   0  0  0  0  0  0  0  0  0  0  0  0
   -3.8220   20.2890  -33.1630 C   0  0  0  0  0  0  0  0  0  0  0  0
   -3.0450   21.5320  -33.4710 C   0  0  0  0  0  0  0  0  0  0  0  0
   -5.0910   20.2820  -32.5750 C   0  0  0  0  0  0  0  0  0  0  0  0
   -5.9030   21.4520  -32.1980 C   0  0  0  0  0  0  0  0  0  0  0  0
   -5.2510   22.5970  -31.7130 C   0  0  0  0  0  0  0  0  0  0  0  0
   -5.9830   23.7310  -31.3200 C   0  0  0  0  0  0  0  0  0  0  0  0
   -5.2870   24.9330  -30.8030 C   0  0  0  0  0  0  0  0  0  0  0  0
   -5.9490   25.9570  -30.4820 O   0  0  0  0  0  0  0  0  0  0  0  0
   -3.8610   24.9360  -30.6610 N   0  0  0  0  0  0  0  0  0  0  0  0
   -3.1710   24.6150  -29.4160 C   0  0  0  0  0  0  0  0  0  0  0  0
   -2.8560   23.1450  -29.3560 C   0  0  0  0  0  0  0  0  0  0  0  0
   -3.4090   22.3510  -28.3400 C   0  0  0  0  0  0  0  0  0  0  0  0
   -3.1000   20.9910  -28.2630 C   0  0  0  0  0  0  0  0  0  0  0  0
   -2.2410   20.4120  -29.2010 C   0  0  0  0  0  0  0  0  0  0  0  0
   -1.6900   21.1900  -30.2310 C   0  0  0  0  0  0  0  0  0  0  0  0
   -0.7390   20.5740  -31.2250 C   0  0  0  0  0  0  0  0  0  0  0  0
   -1.2780   19.3280  -31.7650 N   0  0  0  0  0  0  0  0  0  0  0  0
   -1.9880   22.5620  -30.2940 C   0  0  0  0  0  0  0  0  0  0  0  0
   -7.3830   23.7070  -31.4320 C   0  0  0  0  0  0  0  0  0  0  0  0
   -8.0350   22.5770  -31.9280 C   0  0  0  0  0  0  0  0  0  0  0  0
   -7.3070   21.4530  -32.3270 C   0  0  0  0  0  0  0  0  0  0  0  0
   -8.0000   20.3700  -32.8700 O   0  0  0  0  0  0  0  0  0  0  0  0
   -5.5930   18.6840  -32.4220 S   0  0  0  0  0  0  0  0  0  0  0  0
   -3.7576   16.1783  -32.2093 H   0  0  0  0  0  0  0  0  0  0  0  0
   -4.6627   16.1122  -33.7595 H   0  0  0  0  0  0  0  0  0  0  0  0
   -2.9086   16.4991  -33.7595 H   0  0  0  0  0  0  0  0  0  0  0  0
   -2.7418   22.0171  -32.5315 H   0  0  0  0  0  0  0  0  0  0  0  0
   -2.1497   21.2698  -34.0539 H   0  0  0  0  0  0  0  0  0  0  0  0
   -3.6729   22.2219  -34.0539 H   0  0  0  0  0  0  0  0  0  0  0  0
   -4.1535   22.6068  -31.6396 H   0  0  0  0  0  0  0  0  0  0  0  0
   -2.2342   25.1891  -29.3622 H   0  0  0  0  0  0  0  0  0  0  0  0
   -3.8227   24.8756  -28.5690 H   0  0  0  0  0  0  0  0  0  0  0  0
   -4.0884   22.8012  -27.6013 H   0  0  0  0  0  0  0  0  0  0  0  0
   -3.5338   20.3742  -27.4621 H   0  0  0  0  0  0  0  0  0  0  0  0
   -1.9957   19.3419  -29.1318 H   0  0  0  0  0  0  0  0  0  0  0  0
   -0.5739   21.2818  -32.0507 H   0  0  0  0  0  0  0  0  0  0  0  0
    0.2081   20.3518  -30.7115 H   0  0  0  0  0  0  0  0  0  0  0  0
   -1.2420   19.3660  -32.8100 H   0  0  0  0  0  0  0  0  0  0  0  0
   -2.2830   19.2450  -31.4850 H   0  0  0  0  0  0  0  0  0  0  0  0
   -1.5387   23.1832  -31.0828 H   0  0  0  0  0  0  0  0  0  0  0  0
   -7.9700   24.5856  -31.1264 H   0  0  0  0  0  0  0  0  0  0  0  0
   -9.1322   22.5712  -32.0055 H   0  0  0  0  0  0  0  0  0  0  0  0
   -8.0220   20.1750  -33.8630 H   0  0  0  0  0  0  0  0  0  0  0  0
  1  2  1  0
  2  3  2  0
  3  4  1  0
  4  5  1  0
  4  6  2  0
  6  7  1  0
  7  8  2  0
  8  9  1  0
  9 10  1  0
 10 11  2  0
 10 12  1  0
 12 13  1  0
 13 14  1  0
 14 15  2  0
 15 16  1  0
 16 17  2  0
 17 18  1  0
 18 19  1  0
 19 20  1  0
 18 21  2  0
  9 22  2  0
 22 23  1  0
 23 24  2  0
 24 25  1  0
  6 26  1  0
 26  2  1  0
 24  7  1  0
 21 14  1  0
  1 27  1  0
  1 28  1  0
  1 29  1  0
  5 30  1  0
  5 31  1  0
  5 32  1  0
  8 33  1  0
 13 34  1  0
 13 35  1  0
 15 36  1  0
 16 37  1  0
 17 38  1  0
 19 39  1  0
 19 40  1  0
 20 41  1  0
 20 42  1  0
 21 43  1  0
 22 44  1  0
 23 45  1  0
 25 46  1  0
M  CHG  1  12  -1
M  END
>  <UniqueID>  (46) 
41

>  <SMILES>  (46) 
Cc1nc(C)c(-c2cc(C(=O)[N-]Cc3cccc(CN)c3)ccc2O)s1

>  <Energy>  (46) 
79.21197035452003

>  <Genealogy>  (46) 
Cc1nc(C)c(-c2cc(C(=O)[N-]Cc3cccc(CN)c3)ccc2O)s1 (protonated)
Cc1nc(C)c(-c2cc(C(=O)[N-]Cc3cccc(CN)c3)ccc2O)s1 (3D coordinates assigned)
Cc1nc(C)c(-c2cc(C(=O)[N-]Cc3cccc(CN)c3)ccc2O)s1 (optimized conformer: 79.21197035452003 kcal/mol)

>  <smiles>  (46) 
Cc1nc(C)c(-c2cc(C(=O)NCc3cccc(CN)c3)ccc2O)s1

>  <score_type>  (46) 
oracle

>  <origin>  (46) 
adgpu

>  <m_score__min__energy>  (46) 
-10.15

>  <m_primary>  (46) 
energy

$$$$
46:0
     RDKit          3D

 55 58  0  0  0  0  0  0  0  0999 V2000
   -6.8770   16.9140  -33.4530 C   0  0  0  0  0  0  0  0  0  0  0  0
   -6.8360   18.3400  -32.9700 C   0  0  0  0  0  0  0  0  0  0  0  0
   -7.8790   18.8230  -32.1630 C   0  0  0  0  0  0  0  0  0  0  0  0
   -7.8700   20.1410  -31.7020 C   0  0  0  0  0  0  0  0  0  0  0  0
   -6.8200   21.0060  -32.0500 C   0  0  0  0  0  0  0  0  0  0  0  0
   -6.7590   22.3580  -31.5720 N   0  0  0  0  0  0  0  0  0  0  0  0
   -6.4720   22.7820  -30.2320 C   0  0  0  0  0  0  0  0  0  0  0  0
   -7.3470   22.6500  -29.3340 O   0  0  0  0  0  0  0  0  0  0  0  0
   -5.1720   23.4320  -29.9040 C   0  0  0  0  0  0  0  0  0  0  0  0
   -4.3940   22.9290  -28.8450 C   0  0  0  0  0  0  0  0  0  0  0  0
   -3.1710   23.5250  -28.5150 C   0  0  0  0  0  0  0  0  0  0  0  0
   -2.3860   23.0400  -27.4590 C   0  0  0  0  0  0  0  0  0  0  0  0
   -1.1640   23.6560  -27.1490 C   0  0  0  0  0  0  0  0  0  0  0  0
   -0.2000   23.0480  -25.8040 S   0  0  0  0  0  0  0  0  0  0  0  0
    1.1720   22.6750  -26.2940 O   0  0  0  0  0  0  0  0  0  0  0  0
   -0.8660   21.8160  -25.2580 O   0  0  0  0  0  0  0  0  0  0  0  0
   -0.0960   24.2830  -24.5640 N   0  0  0  0  0  0  0  0  0  0  0  0
   -1.1640   25.3110  -24.7250 C   0  0  0  0  0  0  0  0  0  0  0  0
   -0.6370   26.7260  -25.0220 C   0  0  0  0  0  0  0  0  0  0  0  0
    0.4680   26.6780  -26.0740 C   0  0  0  0  0  0  0  0  0  0  0  0
    1.6290   25.7630  -25.6510 C   0  0  0  0  0  0  0  0  0  0  0  0
    1.2730   24.8380  -24.4720 C   0  0  0  0  0  0  0  0  0  0  0  0
   -0.7350   24.7630  -27.8930 C   0  0  0  0  0  0  0  0  0  0  0  0
   -1.5140   25.2510  -28.9460 C   0  0  0  0  0  0  0  0  0  0  0  0
   -2.7300   24.6360  -29.2600 C   0  0  0  0  0  0  0  0  0  0  0  0
   -3.4890   25.1100  -30.2830 N   0  0  0  0  0  0  0  0  0  0  0  0
   -4.6800   24.5480  -30.6230 C   0  0  0  0  0  0  0  0  0  0  0  0
   -5.3260   25.0370  -31.5880 O   0  0  0  0  0  0  0  0  0  0  0  0
   -5.7670   20.5230  -32.8340 C   0  0  0  0  0  0  0  0  0  0  0  0
   -5.7670   19.2020  -33.3110 C   0  0  0  0  0  0  0  0  0  0  0  0
   -4.6180   18.7220  -34.1600 C   0  0  0  0  0  0  0  0  0  0  0  0
   -6.8965   16.2344  -32.5883 H   0  0  0  0  0  0  0  0  0  0  0  0
   -7.7800   16.7589  -34.0617 H   0  0  0  0  0  0  0  0  0  0  0  0
   -5.9844   16.7072  -34.0617 H   0  0  0  0  0  0  0  0  0  0  0  0
   -8.7110   18.1566  -31.8915 H   0  0  0  0  0  0  0  0  0  0  0  0
   -8.6891   20.5033  -31.0634 H   0  0  0  0  0  0  0  0  0  0  0  0
   -4.7497   22.0603  -28.2716 H   0  0  0  0  0  0  0  0  0  0  0  0
   -2.7289   22.1749  -26.8725 H   0  0  0  0  0  0  0  0  0  0  0  0
   -0.2740   23.7830  -23.6600 H   0  0  0  0  0  0  0  0  0  0  0  0
   -1.8160   25.0041  -25.5561 H   0  0  0  0  0  0  0  0  0  0  0  0
   -1.6967   25.3670  -23.7642 H   0  0  0  0  0  0  0  0  0  0  0  0
   -1.4637   27.3489  -25.3942 H   0  0  0  0  0  0  0  0  0  0  0  0
   -0.2261   27.1531  -24.0953 H   0  0  0  0  0  0  0  0  0  0  0  0
    0.0444   26.3010  -27.0166 H   0  0  0  0  0  0  0  0  0  0  0  0
    0.8657   27.6965  -26.1947 H   0  0  0  0  0  0  0  0  0  0  0  0
    1.9141   25.1394  -26.5111 H   0  0  0  0  0  0  0  0  0  0  0  0
    2.4533   26.4120  -25.3204 H   0  0  0  0  0  0  0  0  0  0  0  0
    1.9890   24.0031  -24.4532 H   0  0  0  0  0  0  0  0  0  0  0  0
    1.3216   25.4422  -23.5540 H   0  0  0  0  0  0  0  0  0  0  0  0
    0.2199   25.2506  -27.6472 H   0  0  0  0  0  0  0  0  0  0  0  0
   -1.1704   26.1190  -29.5278 H   0  0  0  0  0  0  0  0  0  0  0  0
   -4.9262   21.1879  -33.0807 H   0  0  0  0  0  0  0  0  0  0  0  0
   -3.7994   18.3800  -33.5097 H   0  0  0  0  0  0  0  0  0  0  0  0
   -4.9542   17.8891  -34.7950 H   0  0  0  0  0  0  0  0  0  0  0  0
   -4.2618   19.5466  -34.7950 H   0  0  0  0  0  0  0  0  0  0  0  0
  1  2  1  0
  2  3  2  0
  3  4  1  0
  4  5  2  0
  5  6  1  0
  6  7  1  0
  7  8  2  0
  7  9  1  0
  9 10  2  0
 10 11  1  0
 11 12  2  0
 12 13  1  0
 13 14  1  0
 14 15  2  0
 14 16  2  0
 14 17  1  0
 17 18  1  0
 18 19  1  0
 19 20  1  0
 20 21  1  0
 21 22  1  0
 13 23  2  0
 23 24  1  0
 24 25  2  0
 25 26  1  0
 26 27  1  0
 27 28  2  0
  5 29  1  0
 29 30  2  0
 30 31  1  0
 30  2  1  0
 27  9  1  0
 25 11  1  0
 22 17  1  0
  1 32  1  0
  1 33  1  0
  1 34  1  0
  3 35  1  0
  4 36  1  0
 10 37  1  0
 12 38  1  0
 17 39  1  0
 18 40  1  0
 18 41  1  0
 19 42  1  0
 19 43  1  0
 20 44  1  0
 20 45  1  0
 21 46  1  0
 21 47  1  0
 22 48  1  0
 22 49  1  0
 23 50  1  0
 24 51  1  0
 29 52  1  0
 31 53  1  0
 31 54  1  0
 31 55  1  0
M  CHG  3   6  -1  17   1  26  -1
M  END
>  <UniqueID>  (47) 
42

>  <SMILES>  (47) 
Cc1ccc([N-]C(=O)c2cc3cc(S(=O)(=O)[NH+]4CCCCC4)ccc3[n-]c2=O)cc1C

>  <Energy>  (47) 
75.07837456617435

>  <Genealogy>  (47) 
Cc1ccc([N-]C(=O)c2cc3cc(S(=O)(=O)[NH+]4CCCCC4)ccc3[n-]c2=O)cc1C (protonated)
Cc1ccc([N-]C(=O)c2cc3cc(S(=O)(=O)[NH+]4CCCCC4)ccc3[n-]c2=O)cc1C (3D coordinates assigned)
Cc1ccc([N-]C(=O)c2cc3cc(S(=O)(=O)[NH+]4CCCCC4)ccc3[n-]c2=O)cc1C (nonaromatic ring conformer: 75.07837456617435 kcal/mol)

>  <smiles>  (47) 
Cc1ccc(NC(=O)c2cc3cc(S(=O)(=O)N4CCCCC4)ccc3[nH]c2=O)cc1C

>  <score_type>  (47) 
oracle

>  <origin>  (47) 
adgpu

>  <m_score__min__energy>  (47) 
-12.890000000000001

>  <m_primary>  (47) 
energy

$$$$
47:0
     RDKit          3D

 44 47  0  0  0  0  0  0  0  0999 V2000
    1.0361   18.4511  -31.5022 H   0  0  0  0  0  0  0  0  0  0  0  0
    0.3400   18.8260  -32.2670 C   0  0  0  0  0  0  0  0  0  0  0  0
   -1.0000   18.4260  -32.2480 C   0  0  0  0  0  0  0  0  0  0  0  0
   -1.3528   17.7272  -31.4752 H   0  0  0  0  0  0  0  0  0  0  0  0
   -1.8930   18.9120  -33.2090 C   0  0  0  0  0  0  0  0  0  0  0  0
   -3.2580   18.4710  -33.1940 N   0  0  0  0  0  0  0  0  0  0  0  0
   -4.3140   19.0840  -32.7260 C   0  0  0  0  0  0  0  0  0  0  0  0
   -5.5250   18.5090  -32.9580 N   0  0  0  0  0  0  0  0  0  0  0  0
   -6.6870   19.0660  -32.5320 C   0  0  0  0  0  0  0  0  0  0  0  0
   -7.9150   18.4520  -32.8000 C   0  0  0  0  0  0  0  0  0  0  0  0
   -7.9482   17.5043  -33.3575 H   0  0  0  0  0  0  0  0  0  0  0  0
   -9.1020   19.0480  -32.3560 C   0  0  0  0  0  0  0  0  0  0  0  0
  -10.0691   18.5681  -32.5669 H   0  0  0  0  0  0  0  0  0  0  0  0
   -9.0610   20.2520  -31.6450 C   0  0  0  0  0  0  0  0  0  0  0  0
   -9.9959   20.7168  -31.2987 H   0  0  0  0  0  0  0  0  0  0  0  0
   -7.8330   20.8670  -31.3730 C   0  0  0  0  0  0  0  0  0  0  0  0
   -7.8015   21.8123  -30.8114 H   0  0  0  0  0  0  0  0  0  0  0  0
   -6.6460   20.2750  -31.8180 C   0  0  0  0  0  0  0  0  0  0  0  0
   -5.4460   20.8470  -31.5540 N   0  0  0  0  0  0  0  0  0  0  0  0
   -4.2730   20.2980  -31.9790 C   0  0  0  0  0  0  0  0  0  0  0  0
   -3.1380   20.8330  -31.6290 N   0  0  0  0  0  0  0  0  0  0  0  0
   -2.9240   22.0670  -30.9250 C   0  0  0  0  0  0  0  0  0  0  0  0
   -3.8490   23.1270  -30.9720 C   0  0  0  0  0  0  0  0  0  0  0  0
   -4.7906   23.0091  -31.5284 H   0  0  0  0  0  0  0  0  0  0  0  0
   -3.5740   24.3300  -30.3130 C   0  0  0  0  0  0  0  0  0  0  0  0
   -4.3079   25.1490  -30.3375 H   0  0  0  0  0  0  0  0  0  0  0  0
   -2.3700   24.4940  -29.6240 C   0  0  0  0  0  0  0  0  0  0  0  0
   -2.0990   25.6890  -28.9690 O   0  0  0  0  0  0  0  0  0  0  0  0
   -1.4330   23.4560  -29.6010 C   0  0  0  0  0  0  0  0  0  0  0  0
   -0.4814   23.5863  -29.0648 H   0  0  0  0  0  0  0  0  0  0  0  0
   -1.7050   22.2530  -30.2590 C   0  0  0  0  0  0  0  0  0  0  0  0
   -0.9569   21.4466  -30.2540 H   0  0  0  0  0  0  0  0  0  0  0  0
   -1.4210   19.7530  -34.2320 C   0  0  0  0  0  0  0  0  0  0  0  0
   -2.1037   20.0826  -35.0291 H   0  0  0  0  0  0  0  0  0  0  0  0
   -0.0840   20.1730  -34.2400 C   0  0  0  0  0  0  0  0  0  0  0  0
    0.4780   21.2740  -35.4930 S   0  0  0  0  0  0  0  0  0  0  0  0
    0.0170   22.6730  -35.1950 O   0  0  0  0  0  0  0  0  0  0  0  0
   -0.0850   20.8520  -36.8210 O   0  0  0  0  0  0  0  0  0  0  0  0
    2.2550   21.2380  -35.5570 C   0  0  0  0  0  0  0  0  0  0  0  0
    2.6587   21.2298  -34.5338 H   0  0  0  0  0  0  0  0  0  0  0  0
    2.5845   20.3330  -36.0884 H   0  0  0  0  0  0  0  0  0  0  0  0
    2.6209   22.1289  -36.0884 H   0  0  0  0  0  0  0  0  0  0  0  0
    0.7960   19.7020  -33.2570 C   0  0  0  0  0  0  0  0  0  0  0  0
    1.8484   20.0221  -33.2639 H   0  0  0  0  0  0  0  0  0  0  0  0
  1  2  1  0
  2  3  2  0
  3  4  1  0
  3  5  1  0
  5  6  1  0
  6  7  2  0
  7  8  1  0
  8  9  1  0
  9 10  2  0
 10 11  1  0
 10 12  1  0
 12 13  1  0
 12 14  2  0
 14 15  1  0
 14 16  1  0
 16 17  1  0
 16 18  2  0
 18 19  1  0
 19 20  1  0
 20 21  2  3
 21 22  1  0
 22 23  2  0
 23 24  1  0
 23 25  1  0
 25 26  1  0
 25 27  2  0
 27 28  1  0
 27 29  1  0
 29 30  1  0
 29 31  2  0
 31 32  1  0
  5 33  2  0
 33 34  1  0
 33 35  1  0
 35 36  1  0
 36 37  2  0
 36 38  2  0
 36 39  1  0
 39 40  1  0
 39 41  1  0
 39 42  1  0
 35 43  2  0
 43 44  1  0
 43  2  1  0
 20  7  1  0
 31 22  1  0
 18  9  1  0
M  CHG  3   8  -1  19  -1  28  -1
M  END
>  <UniqueID>  (48) 
43

>  <SMILES>  (48) 
CS(=O)(=O)c1cccc(/N=c2/[n-]c3ccccc3[n-]c2=Nc2ccc([O-])cc2)c1

>  <Energy>  (48) 
68.71653576407583

>  <Genealogy>  (48) 
CS(=O)(=O)c1cccc(N=c2[n-]c3ccccc3[n-]c2=Nc2ccc([O-])cc2)c1 (protonated)
CS(=O)(=O)c1cccc(/N=c2/[n-]c3ccccc3[n-]c2=Nc2ccc([O-])cc2)c1 (cis-trans isomerization)
CS(=O)(=O)c1cccc(/N=c2/[n-]c3ccccc3[n-]c2=Nc2ccc([O-])cc2)c1 (3D coordinates assigned)
CS(=O)(=O)c1cccc(/N=c2/[n-]c3ccccc3[n-]c2=Nc2ccc([O-])cc2)c1 (optimized conformer: 68.71653576407583 kcal/mol)

>  <smiles>  (48) 
CS(=O)(=O)c1cccc(N=c2[nH]c3ccccc3[nH]c2=Nc2ccc(O)cc2)c1

>  <score_type>  (48) 
oracle

>  <origin>  (48) 
adgpu

>  <m_score__min__energy>  (48) 
-11.52

>  <m_primary>  (48) 
energy

$$$$
48:0
     RDKit          3D

 52 55  0  0  0  0  0  0  0  0999 V2000
   -1.2000   26.3030  -29.7250 H   0  0  0  0  0  0  0  0  0  0  0  0
   -0.9100   25.3990  -29.2900 N   0  0  0  0  0  0  0  0  0  0  0  0
   -2.3450   24.4620  -29.0660 S   0  0  0  0  0  0  0  0  0  0  0  0
   -3.5470   25.2920  -29.4220 O   0  0  0  0  0  0  0  0  0  0  0  0
   -2.4520   24.0510  -27.6240 O   0  0  0  0  0  0  0  0  0  0  0  0
   -2.2810   23.0350  -30.0940 C   0  0  0  0  0  0  0  0  0  0  0  0
   -3.1810   22.8900  -31.1600 C   0  0  0  0  0  0  0  0  0  0  0  0
   -3.9235   23.6761  -31.3617 H   0  0  0  0  0  0  0  0  0  0  0  0
   -3.1370   21.7490  -31.9670 C   0  0  0  0  0  0  0  0  0  0  0  0
   -3.8301   21.6516  -32.8156 H   0  0  0  0  0  0  0  0  0  0  0  0
   -2.2150   20.7300  -31.7000 C   0  0  0  0  0  0  0  0  0  0  0  0
   -2.1560   19.5930  -32.5740 N   0  0  0  0  0  0  0  0  0  0  0  0
   -3.1520   18.8440  -32.9690 C   0  0  0  0  0  0  0  0  0  0  0  0
   -2.8620   17.7110  -33.7300 C   0  0  0  0  0  0  0  0  0  0  0  0
   -1.8183   17.4697  -33.9801 H   0  0  0  0  0  0  0  0  0  0  0  0
   -3.8960   16.8820  -34.1750 C   0  0  0  0  0  0  0  0  0  0  0  0
   -3.5960   15.6710  -34.9820 C   0  0  0  0  0  0  0  0  0  0  0  0
   -4.1990   14.4380  -34.6710 C   0  0  0  0  0  0  0  0  0  0  0  0
   -4.8977   14.3696  -33.8241 H   0  0  0  0  0  0  0  0  0  0  0  0
   -3.9160   13.3000  -35.4310 C   0  0  0  0  0  0  0  0  0  0  0  0
   -4.3929   12.3407  -35.1813 H   0  0  0  0  0  0  0  0  0  0  0  0
   -3.0290   13.3780  -36.5070 C   0  0  0  0  0  0  0  0  0  0  0  0
   -2.8086   12.4795  -37.1020 H   0  0  0  0  0  0  0  0  0  0  0  0
   -2.4190   14.5970  -36.8310 C   0  0  0  0  0  0  0  0  0  0  0  0
   -1.5080   14.6740  -37.9300 N   0  0  0  0  0  0  0  0  0  0  0  0
   -1.2020   13.8120  -38.4330 H   0  0  0  0  0  0  0  0  0  0  0  0
   -1.1300   15.5950  -38.2470 H   0  0  0  0  0  0  0  0  0  0  0  0
   -2.7040   15.7380  -36.0690 C   0  0  0  0  0  0  0  0  0  0  0  0
   -2.2259   16.6956  -36.3228 H   0  0  0  0  0  0  0  0  0  0  0  0
   -5.2180   17.2110  -33.8480 C   0  0  0  0  0  0  0  0  0  0  0  0
   -6.0401   16.5613  -34.1828 H   0  0  0  0  0  0  0  0  0  0  0  0
   -5.5050   18.3700  -33.0920 C   0  0  0  0  0  0  0  0  0  0  0  0
   -6.8830   18.7250  -32.7510 N   0  0  0  0  0  0  0  0  0  0  0  0
   -7.7350   17.7440  -32.0440 C   0  0  0  0  0  0  0  0  0  0  0  0
   -7.8494   16.8582  -32.6861 H   0  0  0  0  0  0  0  0  0  0  0  0
   -7.2343   17.5134  -31.0921 H   0  0  0  0  0  0  0  0  0  0  0  0
   -9.1320   18.2720  -31.6960 C   0  0  0  0  0  0  0  0  0  0  0  0
   -9.8182   17.4201  -31.5803 H   0  0  0  0  0  0  0  0  0  0  0  0
   -9.0623   18.8463  -30.7604 H   0  0  0  0  0  0  0  0  0  0  0  0
   -9.6240   19.1230  -32.7030 O   0  0  0  0  0  0  0  0  0  0  0  0
   -8.8450   20.2950  -32.7120 C   0  0  0  0  0  0  0  0  0  0  0  0
   -9.3258   21.0435  -33.3590 H   0  0  0  0  0  0  0  0  0  0  0  0
   -8.7657   20.6756  -31.6830 H   0  0  0  0  0  0  0  0  0  0  0  0
   -7.4400   20.0040  -33.2390 C   0  0  0  0  0  0  0  0  0  0  0  0
   -7.4798   19.9703  -34.3378 H   0  0  0  0  0  0  0  0  0  0  0  0
   -6.7828   20.8057  -32.8710 H   0  0  0  0  0  0  0  0  0  0  0  0
   -4.4560   19.1620  -32.6930 N   0  0  0  0  0  0  0  0  0  0  0  0
   -4.6530   20.0590  -32.2080 H   0  0  0  0  0  0  0  0  0  0  0  0
   -1.2940   20.8900  -30.6510 C   0  0  0  0  0  0  0  0  0  0  0  0
   -0.5355   20.1154  -30.4648 H   0  0  0  0  0  0  0  0  0  0  0  0
   -1.3380   22.0300  -29.8430 C   0  0  0  0  0  0  0  0  0  0  0  0
   -0.6302   22.1381  -29.0079 H   0  0  0  0  0  0  0  0  0  0  0  0
  1  2  1  0
  2  3  1  0
  3  4  2  0
  3  5  2  0
  3  6  1  0
  6  7  2  0
  7  8  1  0
  7  9  1  0
  9 10  1  0
  9 11  2  0
 11 12  1  0
 12 13  2  0
 13 14  1  0
 14 15  1  0
 14 16  2  0
 16 17  1  0
 17 18  2  0
 18 19  1  0
 18 20  1  0
 20 21  1  0
 20 22  2  0
 22 23  1  0
 22 24  1  0
 24 25  1  0
 25 26  1  0
 25 27  1  0
 24 28  2  0
 28 29  1  0
 16 30  1  0
 30 31  1  0
 30 32  2  0
 32 33  1  0
 33 34  1  0
 34 35  1  0
 34 36  1  0
 34 37  1  0
 37 38  1  0
 37 39  1  0
 37 40  1  0
 40 41  1  0
 41 42  1  0
 41 43  1  0
 41 44  1  0
 44 45  1  0
 44 46  1  0
 32 47  1  0
 47 48  1  0
 11 49  1  0
 49 50  1  0
 49 51  2  0
 51 52  1  0
 51  6  1  0
 47 13  1  0
 28 17  1  0
 44 33  1  0
M  CHG  1   2  -1
M  END
>  <UniqueID>  (49) 
44

>  <SMILES>  (49) 
[NH-]S(=O)(=O)c1ccc(/N=c2/cc(-c3cccc(N)c3)cc(N3CCOCC3)[nH]2)cc1

>  <Energy>  (49) 
76.4211001710492

>  <Genealogy>  (49) 
[NH-]S(=O)(=O)c1ccc(N=c2cc(-c3cccc(N)c3)cc(N3CCOCC3)[nH]2)cc1 (protonated)
[NH-]S(=O)(=O)c1ccc(/N=c2/cc(-c3cccc(N)c3)cc(N3CCOCC3)[nH]2)cc1 (cis-trans isomerization)
[NH-]S(=O)(=O)c1ccc(/N=c2/cc(-c3cccc(N)c3)cc(N3CCOCC3)[nH]2)cc1 (3D coordinates assigned)
[NH-]S(=O)(=O)c1ccc(/N=c2/cc(-c3cccc(N)c3)cc(N3CCOCC3)[nH]2)cc1 (nonaromatic ring conformer: 76.4211001710492 kcal/mol)

>  <smiles>  (49) 
Nc1cccc(-c2cc(N3CCOCC3)[nH]c(=Nc3ccc(S(N)(=O)=O)cc3)c2)c1

>  <score_type>  (49) 
oracle

>  <origin>  (49) 
adgpu

>  <m_score__min__energy>  (49) 
-9.75

>  <m_primary>  (49) 
energy

$$$$
