0:0
     RDKit          3D

 53 56  0  0  0  0  0  0  0  0999 V2000
   -3.8600   25.3460  -30.6300 O   0  0  0  0  0  0  0  0  0  0  0  0
   -3.7390   23.9710  -30.0340 S   0  0  0  0  0  0  0  0  0  0  0  0
   -2.4440   23.3670  -30.4990 O   0  0  0  0  0  0  0  0  0  0  0  0
   -5.0610   22.9520  -30.6000 C   0  0  0  0  0  0  0  0  0  0  0  0
   -4.8310   21.5940  -30.8510 C   0  0  0  0  0  0  0  0  0  0  0  0
   -5.8770   20.7690  -31.2780 C   0  0  0  0  0  0  0  0  0  0  0  0
   -7.1630   21.2960  -31.4500 C   0  0  0  0  0  0  0  0  0  0  0  0
   -8.4690   20.2450  -31.9940 S   0  0  0  0  0  0  0  0  0  0  0  0
   -9.0640   19.5590  -30.7960 O   0  0  0  0  0  0  0  0  0  0  0  0
   -9.5430   21.0620  -32.6600 O   0  0  0  0  0  0  0  0  0  0  0  0
   -7.8470   19.0550  -33.1130 N   0  0  0  0  0  0  0  0  0  0  0  0
   -6.6950   19.6250  -33.8540 C   0  0  0  0  0  0  0  0  0  0  0  0
   -5.8260   18.5280  -34.4800 C   0  0  0  0  0  0  0  0  0  0  0  0
   -5.2220   17.6150  -33.3970 C   0  0  0  0  0  0  0  0  0  0  0  0
   -6.0600   17.5880  -32.1070 C   0  0  0  0  0  0  0  0  0  0  0  0
   -7.5530   17.7700  -32.4160 C   0  0  0  0  0  0  0  0  0  0  0  0
   -7.3940   22.6560  -31.2010 C   0  0  0  0  0  0  0  0  0  0  0  0
   -6.3480   23.4810  -30.7780 C   0  0  0  0  0  0  0  0  0  0  0  0
   -3.7370   24.0560  -28.2830 N   0  0  0  0  0  0  0  0  0  0  0  0
   -2.4980   24.6340  -27.7310 C   0  0  0  0  0  0  0  0  0  0  0  0
   -1.2690   23.7470  -27.9790 C   0  0  0  0  0  0  0  0  0  0  0  0
   -1.5520   22.2930  -27.7190 C   0  0  0  0  0  0  0  0  0  0  0  0
   -0.4800   21.3900  -27.6440 C   0  0  0  0  0  0  0  0  0  0  0  0
   -0.7150   20.0260  -27.4610 C   0  0  0  0  0  0  0  0  0  0  0  0
   -2.0240   19.5500  -27.3580 C   0  0  0  0  0  0  0  0  0  0  0  0
   -3.0990   20.4360  -27.4420 C   0  0  0  0  0  0  0  0  0  0  0  0
   -2.8760   21.8080  -27.6420 C   0  0  0  0  0  0  0  0  0  0  0  0
   -4.0540   22.7520  -27.6730 C   0  0  0  0  0  0  0  0  0  0  0  0
   -3.8239   21.1741  -30.7119 H   0  0  0  0  0  0  0  0  0  0  0  0
   -5.6889   19.7040  -31.4791 H   0  0  0  0  0  0  0  0  0  0  0  0
   -8.6120   18.8730  -33.8050 H   0  0  0  0  0  0  0  0  0  0  0  0
   -7.0734   20.2796  -34.6529 H   0  0  0  0  0  0  0  0  0  0  0  0
   -6.0749   20.1902  -33.1426 H   0  0  0  0  0  0  0  0  0  0  0  0
   -6.4454   17.9214  -35.1570 H   0  0  0  0  0  0  0  0  0  0  0  0
   -5.0039   19.0059  -35.0329 H   0  0  0  0  0  0  0  0  0  0  0  0
   -5.1569   16.5919  -33.7957 H   0  0  0  0  0  0  0  0  0  0  0  0
   -4.2303   18.0158  -33.1402 H   0  0  0  0  0  0  0  0  0  0  0  0
   -5.9124   16.6217  -31.6025 H   0  0  0  0  0  0  0  0  0  0  0  0
   -5.7330   18.4151  -31.4596 H   0  0  0  0  0  0  0  0  0  0  0  0
   -7.8830   16.9392  -33.0570 H   0  0  0  0  0  0  0  0  0  0  0  0
   -8.0903   17.7837  -31.4562 H   0  0  0  0  0  0  0  0  0  0  0  0
   -8.4016   23.0753  -31.3389 H   0  0  0  0  0  0  0  0  0  0  0  0
   -6.5344   24.5476  -30.5842 H   0  0  0  0  0  0  0  0  0  0  0  0
   -2.3262   25.6132  -28.2018 H   0  0  0  0  0  0  0  0  0  0  0  0
   -2.6291   24.7237  -26.6425 H   0  0  0  0  0  0  0  0  0  0  0  0
   -0.9539   23.8642  -29.0264 H   0  0  0  0  0  0  0  0  0  0  0  0
   -0.4786   24.0654  -27.2834 H   0  0  0  0  0  0  0  0  0  0  0  0
    0.5525   21.7596  -27.7300 H   0  0  0  0  0  0  0  0  0  0  0  0
    0.1311   19.3259  -27.3979 H   0  0  0  0  0  0  0  0  0  0  0  0
   -2.2079   18.4755  -27.2105 H   0  0  0  0  0  0  0  0  0  0  0  0
   -4.1277   20.0572  -27.3510 H   0  0  0  0  0  0  0  0  0  0  0  0
   -4.8631   22.2826  -28.2519 H   0  0  0  0  0  0  0  0  0  0  0  0
   -4.3485   22.9417  -26.6303 H   0  0  0  0  0  0  0  0  0  0  0  0
  1  2  2  0
  2  3  2  0
  2  4  1  0
  4  5  2  0
  5  6  1  0
  6  7  2  0
  7  8  1  0
  8  9  2  0
  8 10  2  0
  8 11  1  0
 11 12  1  0
 12 13  1  0
 13 14  1  0
 14 15  1  0
 15 16  1  0
  7 17  1  0
 17 18  2  0
  2 19  1  0
 19 20  1  0
 20 21  1  0
 21 22  1  0
 22 23  2  0
 23 24  1  0
 24 25  2  0
 25 26  1  0
 26 27  2  0
 27 28  1  0
 18  4  1  0
 28 19  1  0
 16 11  1  0
 27 22  1  0
  5 29  1  0
  6 30  1  0
 11 31  1  0
 12 32  1  0
 12 33  1  0
 13 34  1  0
 13 35  1  0
 14 36  1  0
 14 37  1  0
 15 38  1  0
 15 39  1  0
 16 40  1  0
 16 41  1  0
 17 42  1  0
 18 43  1  0
 20 44  1  0
 20 45  1  0
 21 46  1  0
 21 47  1  0
 23 48  1  0
 24 49  1  0
 25 50  1  0
 26 51  1  0
 28 52  1  0
 28 53  1  0
M  CHG  1  11   1
M  END
>  <UniqueID>  (1) 
1

>  <SMILES>  (1) 
O=S(=O)(c1ccc(S(=O)(=O)[NH+]2CCCCC2)cc1)N1CCc2ccccc2C1

>  <Energy>  (1) 
64.87610454560765

>  <Genealogy>  (1) 
O=S(=O)(c1ccc(S(=O)(=O)[NH+]2CCCCC2)cc1)N1CCc2ccccc2C1 (protonated)
O=S(=O)(c1ccc(S(=O)(=O)[NH+]2CCCCC2)cc1)N1CCc2ccccc2C1 (3D coordinates assigned)
O=S(=O)(c1ccc(S(=O)(=O)[NH+]2CCCCC2)cc1)N1CCc2ccccc2C1 (nonaromatic ring conformer: 64.87610454560765 kcal/mol)

>  <smiles>  (1) 
O=S(=O)(c1ccc(S(=O)(=O)N2CCc3ccccc3C2)cc1)N1CCCCC1

>  <score_type>  (1) 
oracle

>  <origin>  (1) 
adgpu

>  <m_score__min__energy>  (1) 
-10.44

>  <m_primary>  (1) 
energy

$$$$
1:0
     RDKit          3D

 63 66  0  0  0  0  0  0  0  0999 V2000
   -3.8870   16.7570  -35.3110 C   0  0  0  0  0  0  0  0  0  0  0  0
   -5.0030   17.2100  -34.4190 C   0  0  0  0  0  0  0  0  0  0  0  0
   -5.9490   16.2880  -33.9520 C   0  0  0  0  0  0  0  0  0  0  0  0
   -6.9610   16.6980  -33.0790 C   0  0  0  0  0  0  0  0  0  0  0  0
   -7.0260   18.0260  -32.6540 C   0  0  0  0  0  0  0  0  0  0  0  0
   -6.0750   18.9560  -33.0960 C   0  0  0  0  0  0  0  0  0  0  0  0
   -6.1280   20.3170  -32.6390 N   0  0  0  0  0  0  0  0  0  0  0  0
   -7.3790   21.0690  -32.7170 C   0  0  0  0  0  0  0  0  0  0  0  0
   -4.6470   21.2060  -32.4400 S   0  0  0  0  0  0  0  0  0  0  0  0
   -4.1650   21.7300  -33.7630 O   0  0  0  0  0  0  0  0  0  0  0  0
   -3.5950   20.2910  -31.8790 O   0  0  0  0  0  0  0  0  0  0  0  0
   -4.9290   22.5620  -31.3530 C   0  0  0  0  0  0  0  0  0  0  0  0
   -6.2320   22.8530  -30.9340 C   0  0  0  0  0  0  0  0  0  0  0  0
   -6.4690   23.9170  -30.0600 C   0  0  0  0  0  0  0  0  0  0  0  0
   -5.4080   24.7060  -29.6140 C   0  0  0  0  0  0  0  0  0  0  0  0
   -4.1040   24.4490  -30.0500 C   0  0  0  0  0  0  0  0  0  0  0  0
   -3.0660   25.2700  -29.5850 O   0  0  0  0  0  0  0  0  0  0  0  0
   -2.2630   25.0080  -28.4630 C   0  0  0  0  0  0  0  0  0  0  0  0
   -2.4850   23.8960  -27.6300 C   0  0  0  0  0  0  0  0  0  0  0  0
   -1.6520   23.6610  -26.5330 C   0  0  0  0  0  0  0  0  0  0  0  0
   -0.5770   24.5190  -26.2650 C   0  0  0  0  0  0  0  0  0  0  0  0
    0.4760   24.1960  -24.8890 S   0  0  0  0  0  0  0  0  0  0  0  0
   -0.0920   23.0770  -24.0600 O   0  0  0  0  0  0  0  0  0  0  0  0
    1.8240   23.7790  -25.4070 O   0  0  0  0  0  0  0  0  0  0  0  0
    0.6410   25.6320  -23.9030 N   0  0  0  0  0  0  0  0  0  0  0  0
    1.6700   26.5250  -24.4890 C   0  0  0  0  0  0  0  0  0  0  0  0
    1.5340   27.9600  -23.9680 C   0  0  0  0  0  0  0  0  0  0  0  0
    0.1790   28.5670  -24.3630 C   0  0  0  0  0  0  0  0  0  0  0  0
   -0.9050   27.5010  -24.5960 C   0  0  0  0  0  0  0  0  0  0  0  0
   -0.6830   26.2810  -23.6900 C   0  0  0  0  0  0  0  0  0  0  0  0
   -0.3460   25.6180  -27.1040 C   0  0  0  0  0  0  0  0  0  0  0  0
   -1.1830   25.8550  -28.1990 C   0  0  0  0  0  0  0  0  0  0  0  0
   -3.8650   23.3560  -30.9040 C   0  0  0  0  0  0  0  0  0  0  0  0
   -5.0660   18.5430  -33.9810 C   0  0  0  0  0  0  0  0  0  0  0  0
   -3.0421   16.4140  -34.6958 H   0  0  0  0  0  0  0  0  0  0  0  0
   -4.2377   15.9300  -35.9459 H   0  0  0  0  0  0  0  0  0  0  0  0
   -3.5621   17.5944  -35.9459 H   0  0  0  0  0  0  0  0  0  0  0  0
   -5.8952   15.2374  -34.2735 H   0  0  0  0  0  0  0  0  0  0  0  0
   -7.7082   15.9720  -32.7260 H   0  0  0  0  0  0  0  0  0  0  0  0
   -7.8265   18.3438  -31.9697 H   0  0  0  0  0  0  0  0  0  0  0  0
   -7.7402   21.2861  -31.7010 H   0  0  0  0  0  0  0  0  0  0  0  0
   -7.2064   22.0132  -33.2544 H   0  0  0  0  0  0  0  0  0  0  0  0
   -8.1318   20.4736  -33.2544 H   0  0  0  0  0  0  0  0  0  0  0  0
   -7.0728   22.2419  -31.2940 H   0  0  0  0  0  0  0  0  0  0  0  0
   -7.4936   24.1330  -29.7230 H   0  0  0  0  0  0  0  0  0  0  0  0
   -5.5981   25.5345  -28.9158 H   0  0  0  0  0  0  0  0  0  0  0  0
   -3.3173   23.2091  -27.8431 H   0  0  0  0  0  0  0  0  0  0  0  0
   -1.8410   22.7986  -25.8768 H   0  0  0  0  0  0  0  0  0  0  0  0
    0.9900   25.3110  -22.9700 H   0  0  0  0  0  0  0  0  0  0  0  0
    2.6670   26.1423  -24.2252 H   0  0  0  0  0  0  0  0  0  0  0  0
    1.5314   26.5404  -25.5801 H   0  0  0  0  0  0  0  0  0  0  0  0
    1.6184   27.9533  -22.8713 H   0  0  0  0  0  0  0  0  0  0  0  0
    2.3330   28.5703  -24.4141 H   0  0  0  0  0  0  0  0  0  0  0  0
   -0.1544   29.2373  -23.5571 H   0  0  0  0  0  0  0  0  0  0  0  0
    0.3213   29.1080  -25.3102 H   0  0  0  0  0  0  0  0  0  0  0  0
   -1.8908   27.9369  -24.3767 H   0  0  0  0  0  0  0  0  0  0  0  0
   -0.8527   27.1723  -25.6444 H   0  0  0  0  0  0  0  0  0  0  0  0
   -0.7495   26.6063  -22.6413 H   0  0  0  0  0  0  0  0  0  0  0  0
   -1.4569   25.5402  -23.9395 H   0  0  0  0  0  0  0  0  0  0  0  0
    0.4960   26.2959  -26.9005 H   0  0  0  0  0  0  0  0  0  0  0  0
   -0.9899   26.7146  -28.8576 H   0  0  0  0  0  0  0  0  0  0  0  0
   -2.8375   23.1237  -31.2207 H   0  0  0  0  0  0  0  0  0  0  0  0
   -4.3190   19.2692  -34.3340 H   0  0  0  0  0  0  0  0  0  0  0  0
  1  2  1  0
  2  3  2  0
  3  4  1  0
  4  5  2  0
  5  6  1  0
  6  7  1  0
  7  8  1  0
  7  9  1  0
  9 10  2  0
  9 11  2  0
  9 12  1  0
 12 13  2  0
 13 14  1  0
 14 15  2  0
 15 16  1  0
 16 17  1  0
 17 18  1  0
 18 19  2  0
 19 20  1  0
 20 21  2  0
 21 22  1  0
 22 23  2  0
 22 24  2  0
 22 25  1  0
 25 26  1  0
 26 27  1  0
 27 28  1  0
 28 29  1  0
 29 30  1  0
 21 31  1  0
 31 32  2  0
 16 33  2  0
  6 34  2  0
 34  2  1  0
 33 12  1  0
 32 18  1  0
 30 25  1  0
  1 35  1  0
  1 36  1  0
  1 37  1  0
  3 38  1  0
  4 39  1  0
  5 40  1  0
  8 41  1  0
  8 42  1  0
  8 43  1  0
 13 44  1  0
 14 45  1  0
 15 46  1  0
 19 47  1  0
 20 48  1  0
 25 49  1  0
 26 50  1  0
 26 51  1  0
 27 52  1  0
 27 53  1  0
 28 54  1  0
 28 55  1  0
 29 56  1  0
 29 57  1  0
 30 58  1  0
 30 59  1  0
 31 60  1  0
 32 61  1  0
 33 62  1  0
 34 63  1  0
M  CHG  1  25   1
M  END
>  <UniqueID>  (2) 
2

>  <SMILES>  (2) 
Cc1cccc(N(C)S(=O)(=O)c2cccc(Oc3ccc(S(=O)(=O)[NH+]4CCCCC4)cc3)c2)c1

>  <Energy>  (2) 
81.84993675940484

>  <Genealogy>  (2) 
Cc1cccc(N(C)S(=O)(=O)c2cccc(Oc3ccc(S(=O)(=O)[NH+]4CCCCC4)cc3)c2)c1 (protonated)
Cc1cccc(N(C)S(=O)(=O)c2cccc(Oc3ccc(S(=O)(=O)[NH+]4CCCCC4)cc3)c2)c1 (3D coordinates assigned)
Cc1cccc(N(C)S(=O)(=O)c2cccc(Oc3ccc(S(=O)(=O)[NH+]4CCCCC4)cc3)c2)c1 (nonaromatic ring conformer: 81.84993675940484 kcal/mol)

>  <smiles>  (2) 
Cc1cccc(N(C)S(=O)(=O)c2cccc(Oc3ccc(S(=O)(=O)N4CCCCC4)cc3)c2)c1

>  <score_type>  (2) 
oracle

>  <origin>  (2) 
adgpu

>  <m_score__min__energy>  (2) 
-11.4

>  <m_primary>  (2) 
energy

$$$$
2:0
     RDKit          3D

 43 45  0  0  0  0  0  0  0  0999 V2000
   -1.1100   17.6340  -34.4650 C   0  0  0  0  0  0  0  0  0  0  0  0
   -1.9330   18.7330  -33.8700 C   0  0  0  0  0  0  0  0  0  0  0  0
   -3.2300   18.9310  -34.1680 N   0  0  0  0  0  0  0  0  0  0  0  0
   -3.6490   19.9780  -33.4340 C   0  0  0  0  0  0  0  0  0  0  0  0
   -5.0580   20.4790  -33.4510 C   0  0  0  0  0  0  0  0  0  0  0  0
   -2.6200   20.4410  -32.6290 C   0  0  0  0  0  0  0  0  0  0  0  0
   -2.7630   21.6760  -31.3780 S   0  0  0  0  0  0  0  0  0  0  0  0
   -1.3930   22.2210  -31.0740 O   0  0  0  0  0  0  0  0  0  0  0  0
   -3.3730   21.0950  -30.1380 O   0  0  0  0  0  0  0  0  0  0  0  0
   -3.7900   22.9450  -31.9580 N   0  0  0  0  0  0  0  0  0  0  0  0
   -4.8980   23.5100  -31.2500 C   0  0  0  0  0  0  0  0  0  0  0  0
   -6.1750   22.9230  -31.2810 C   0  0  0  0  0  0  0  0  0  0  0  0
   -7.2330   23.4990  -30.5650 C   0  0  0  0  0  0  0  0  0  0  0  0
   -7.0230   24.6620  -29.8180 C   0  0  0  0  0  0  0  0  0  0  0  0
   -5.7590   25.2560  -29.7930 C   0  0  0  0  0  0  0  0  0  0  0  0
   -4.6990   24.6860  -30.5070 C   0  0  0  0  0  0  0  0  0  0  0  0
   -3.4440   25.2880  -30.4720 O   0  0  0  0  0  0  0  0  0  0  0  0
   -1.5110   19.6530  -32.9230 C   0  0  0  0  0  0  0  0  0  0  0  0
   -0.1490   19.7490  -32.3620 C   0  0  0  0  0  0  0  0  0  0  0  0
    0.0120   19.6250  -31.1190 O   0  0  0  0  0  0  0  0  0  0  0  0
    0.9990   20.0010  -33.1820 N   0  0  0  0  0  0  0  0  0  0  0  0
    1.1220   20.9930  -34.2130 C   0  0  0  0  0  0  0  0  0  0  0  0
    0.0010   21.6680  -34.7290 C   0  0  0  0  0  0  0  0  0  0  0  0
    0.1580   22.6370  -35.7210 C   0  0  0  0  0  0  0  0  0  0  0  0
    1.4290   22.9260  -36.2230 C   0  0  0  0  0  0  0  0  0  0  0  0
    1.5870   23.9030  -37.1990 O   0  0  0  0  0  0  0  0  0  0  0  0
    2.5430   22.2320  -35.7420 C   0  0  0  0  0  0  0  0  0  0  0  0
    2.3920   21.2650  -34.7460 C   0  0  0  0  0  0  0  0  0  0  0  0
    3.5110   20.5840  -34.2750 O   0  0  0  0  0  0  0  0  0  0  0  0
   -0.6612   17.0346  -33.6592 H   0  0  0  0  0  0  0  0  0  0  0  0
   -1.7508   16.9914  -35.0866 H   0  0  0  0  0  0  0  0  0  0  0  0
   -0.3130   18.0681  -35.0866 H   0  0  0  0  0  0  0  0  0  0  0  0
   -3.8080   18.3630  -34.8300 H   0  0  0  0  0  0  0  0  0  0  0  0
   -5.4146   20.6058  -32.4181 H   0  0  0  0  0  0  0  0  0  0  0  0
   -5.0970   21.4461  -33.9737 H   0  0  0  0  0  0  0  0  0  0  0  0
   -5.6988   19.7536  -33.9737 H   0  0  0  0  0  0  0  0  0  0  0  0
   -6.3442   22.0089  -31.8690 H   0  0  0  0  0  0  0  0  0  0  0  0
   -8.2302   23.0354  -30.5907 H   0  0  0  0  0  0  0  0  0  0  0  0
   -7.8525   25.1089  -29.2504 H   0  0  0  0  0  0  0  0  0  0  0  0
   -5.5963   26.1747  -29.2103 H   0  0  0  0  0  0  0  0  0  0  0  0
   -1.0037   21.4311  -34.3490 H   0  0  0  0  0  0  0  0  0  0  0  0
   -0.7205   23.1740  -36.1081 H   0  0  0  0  0  0  0  0  0  0  0  0
    3.5416   22.4483  -36.1493 H   0  0  0  0  0  0  0  0  0  0  0  0
  1  2  1  0
  2  3  1  0
  3  4  1  0
  4  5  1  0
  4  6  2  0
  6  7  1  0
  7  8  2  0
  7  9  2  0
  7 10  1  0
 10 11  1  0
 11 12  2  0
 12 13  1  0
 13 14  2  0
 14 15  1  0
 15 16  2  0
 16 17  1  0
  6 18  1  0
 18 19  1  0
 19 20  2  0
 19 21  1  0
 21 22  1  0
 22 23  2  0
 23 24  1  0
 24 25  2  0
 25 26  1  0
 25 27  1  0
 27 28  2  0
 28 29  1  0
 18  2  2  0
 28 22  1  0
 16 11  1  0
  1 30  1  0
  1 31  1  0
  1 32  1  0
  3 33  1  0
  5 34  1  0
  5 35  1  0
  5 36  1  0
 12 37  1  0
 13 38  1  0
 14 39  1  0
 15 40  1  0
 23 41  1  0
 24 42  1  0
 27 43  1  0
M  CHG  5  10  -1  17  -1  21  -1  26  -1  29  -1
M  END
>  <UniqueID>  (3) 
3

>  <SMILES>  (3) 
Cc1[nH]c(C)c(S(=O)(=O)[N-]c2ccccc2[O-])c1C(=O)[N-]c1ccc([O-])cc1[O-]

>  <Energy>  (3) 
81.34954097912761

>  <Genealogy>  (3) 
Cc1[nH]c(C)c(S(=O)(=O)[N-]c2ccccc2[O-])c1C(=O)[N-]c1ccc([O-])cc1[O-] (protonated)
Cc1[nH]c(C)c(S(=O)(=O)[N-]c2ccccc2[O-])c1C(=O)[N-]c1ccc([O-])cc1[O-] (3D coordinates assigned)
Cc1[nH]c(C)c(S(=O)(=O)[N-]c2ccccc2[O-])c1C(=O)[N-]c1ccc([O-])cc1[O-] (optimized conformer: 81.34954097912761 kcal/mol)

>  <smiles>  (3) 
Cc1[nH]c(C)c(S(=O)(=O)Nc2ccccc2O)c1C(=O)Nc1ccc(O)cc1O

>  <score_type>  (3) 
oracle

>  <origin>  (3) 
adgpu

>  <m_score__min__energy>  (3) 
-13.789999999999999

>  <m_primary>  (3) 
energy

$$$$
3:0
     RDKit          3D

 43 45  0  0  0  0  0  0  0  0999 V2000
   -7.4910   20.0160  -33.0310 C   0  0  0  0  0  0  0  0  0  0  0  0
   -7.0910   21.2620  -32.3190 C   0  0  0  0  0  0  0  0  0  0  0  0
   -7.9450   21.8280  -31.3640 C   0  0  0  0  0  0  0  0  0  0  0  0
   -7.5980   23.0240  -30.7190 C   0  0  0  0  0  0  0  0  0  0  0  0
   -6.4130   23.6580  -31.0160 C   0  0  0  0  0  0  0  0  0  0  0  0
   -6.1150   24.9050  -30.2740 C   0  0  0  0  0  0  0  0  0  0  0  0
   -5.3000   24.4670  -29.1340 N   0  0  0  0  0  0  0  0  0  0  0  0
   -3.8940   24.4890  -29.3530 C   0  0  0  0  0  0  0  0  0  0  0  0
   -3.4980   24.9160  -30.4570 O   0  0  0  0  0  0  0  0  0  0  0  0
   -2.8960   24.0580  -28.4020 C   0  0  0  0  0  0  0  0  0  0  0  0
   -2.3390   24.9870  -27.5070 C   0  0  0  0  0  0  0  0  0  0  0  0
   -1.4980   24.4810  -26.5350 C   0  0  0  0  0  0  0  0  0  0  0  0
   -1.1950   23.1190  -26.4270 C   0  0  0  0  0  0  0  0  0  0  0  0
   -1.7530   22.2060  -27.3350 C   0  0  0  0  0  0  0  0  0  0  0  0
   -2.5800   22.6920  -28.2930 C   0  0  0  0  0  0  0  0  0  0  0  0
   -3.3040   21.5610  -29.4670 S   0  0  0  0  0  0  0  0  0  0  0  0
   -1.9590   21.1800  -30.6220 C   0  0  0  0  0  0  0  0  0  0  0  0
   -2.0770   21.4690  -31.9440 N   0  0  0  0  0  0  0  0  0  0  0  0
   -1.0900   21.2170  -32.8100 C   0  0  0  0  0  0  0  0  0  0  0  0
   -1.1090   21.5070  -34.0760 N   0  0  0  0  0  0  0  0  0  0  0  0
    0.1090   20.6430  -32.3590 C   0  0  0  0  0  0  0  0  0  0  0  0
    0.2400   20.3480  -31.0190 C   0  0  0  0  0  0  0  0  0  0  0  0
   -0.8030   20.6300  -30.2030 N   0  0  0  0  0  0  0  0  0  0  0  0
   -5.5590   23.1020  -31.9640 C   0  0  0  0  0  0  0  0  0  0  0  0
   -5.8830   21.9050  -32.6250 C   0  0  0  0  0  0  0  0  0  0  0  0
   -7.7409   19.2374  -32.2952 H   0  0  0  0  0  0  0  0  0  0  0  0
   -8.3689   20.2198  -33.6617 H   0  0  0  0  0  0  0  0  0  0  0  0
   -6.6585   19.6708  -33.6617 H   0  0  0  0  0  0  0  0  0  0  0  0
   -8.8949   21.3308  -31.1181 H   0  0  0  0  0  0  0  0  0  0  0  0
   -8.2774   23.4583  -29.9708 H   0  0  0  0  0  0  0  0  0  0  0  0
   -5.5537   25.6090  -30.9059 H   0  0  0  0  0  0  0  0  0  0  0  0
   -7.0271   25.4328  -29.9586 H   0  0  0  0  0  0  0  0  0  0  0  0
   -5.6910   24.1530  -28.2330 H   0  0  0  0  0  0  0  0  0  0  0  0
   -2.5613   26.0620  -27.5768 H   0  0  0  0  0  0  0  0  0  0  0  0
   -1.0468   25.1790  -25.8145 H   0  0  0  0  0  0  0  0  0  0  0  0
   -0.5214   22.7651  -25.6327 H   0  0  0  0  0  0  0  0  0  0  0  0
   -1.5268   21.1314  -27.2715 H   0  0  0  0  0  0  0  0  0  0  0  0
   -1.9800   21.9760  -34.4010 H   0  0  0  0  0  0  0  0  0  0  0  0
    0.9286   20.4326  -33.0618 H   0  0  0  0  0  0  0  0  0  0  0  0
    1.1629   19.8976  -30.6249 H   0  0  0  0  0  0  0  0  0  0  0  0
   -0.6780   20.3920  -29.1920 H   0  0  0  0  0  0  0  0  0  0  0  0
   -4.6121   23.6094  -32.2004 H   0  0  0  0  0  0  0  0  0  0  0  0
   -5.1981   21.4781  -33.3725 H   0  0  0  0  0  0  0  0  0  0  0  0
  1  2  1  0
  2  3  2  0
  3  4  1  0
  4  5  2  0
  5  6  1  0
  6  7  1  0
  7  8  1  0
  8  9  2  0
  8 10  1  0
 10 11  2  0
 11 12  1  0
 12 13  2  0
 13 14  1  0
 14 15  2  0
 15 16  1  0
 16 17  1  0
 17 18  2  0
 18 19  1  0
 19 20  2  3
 19 21  1  0
 21 22  2  0
 22 23  1  0
  5 24  1  0
 24 25  2  0
 25  2  1  0
 15 10  1  0
 23 17  1  0
  1 26  1  0
  1 27  1  0
  1 28  1  0
  3 29  1  0
  4 30  1  0
  6 31  1  0
  6 32  1  0
  7 33  1  0
 11 34  1  0
 12 35  1  0
 13 36  1  0
 14 37  1  0
 20 38  1  0
 21 39  1  0
 22 40  1  0
 23 41  1  0
 24 42  1  0
 25 43  1  0
M  END
>  <smiles>  (4) 
Cc1ccc(CNC(=O)c2ccccc2Sc2nc(=N)cc[nH]2)cc1

>  <score_type>  (4) 
oracle

>  <origin>  (4) 
adgpu

>  <m_score__min__energy>  (4) 
-9.0199999999999996

>  <m_primary>  (4) 
energy

$$$$
4:0
     RDKit          3D

 46 48  0  0  0  0  0  0  0  0999 V2000
    0.2930   21.8580  -35.7590 C   0  0  0  0  0  0  0  0  0  0  0  0
    0.0580   21.3170  -34.4210 N   0  0  0  0  0  0  0  0  0  0  0  0
   -1.0920   21.6060  -33.8030 N   0  0  0  0  0  0  0  0  0  0  0  0
   -1.3860   21.1460  -32.5570 C   0  0  0  0  0  0  0  0  0  0  0  0
   -2.6780   21.4970  -31.9290 C   0  0  0  0  0  0  0  0  0  0  0  0
   -3.5770   20.6200  -31.8150 O   0  0  0  0  0  0  0  0  0  0  0  0
   -2.9000   22.8220  -31.4150 N   0  0  0  0  0  0  0  0  0  0  0  0
   -4.1960   23.3320  -31.0560 C   0  0  0  0  0  0  0  0  0  0  0  0
   -5.3690   22.6360  -31.4020 C   0  0  0  0  0  0  0  0  0  0  0  0
   -6.6300   23.1580  -31.0810 C   0  0  0  0  0  0  0  0  0  0  0  0
   -8.0960   22.2860  -31.5390 S   0  0  0  0  0  0  0  0  0  0  0  0
   -8.9870   23.1990  -32.3340 O   0  0  0  0  0  0  0  0  0  0  0  0
   -8.8380   21.8790  -30.2970 O   0  0  0  0  0  0  0  0  0  0  0  0
   -7.7270   20.8620  -32.4850 N   0  0  0  0  0  0  0  0  0  0  0  0
   -6.6340   20.0930  -31.8510 C   0  0  0  0  0  0  0  0  0  0  0  0
   -6.5690   18.6610  -32.3930 C   0  0  0  0  0  0  0  0  0  0  0  0
   -7.8650   17.8920  -32.0800 C   0  0  0  0  0  0  0  0  0  0  0  0
   -9.0820   18.8180  -31.9150 C   0  0  0  0  0  0  0  0  0  0  0  0
   -8.9470   20.0740  -32.7890 C   0  0  0  0  0  0  0  0  0  0  0  0
   -6.7200   24.3830  -30.4090 C   0  0  0  0  0  0  0  0  0  0  0  0
   -5.5620   25.0890  -30.0780 C   0  0  0  0  0  0  0  0  0  0  0  0
   -4.3040   24.5740  -30.4040 C   0  0  0  0  0  0  0  0  0  0  0  0
   -3.1640   25.2950  -30.0690 O   0  0  0  0  0  0  0  0  0  0  0  0
   -0.4530   20.3370  -31.8980 C   0  0  0  0  0  0  0  0  0  0  0  0
    0.7470   20.0290  -32.5310 C   0  0  0  0  0  0  0  0  0  0  0  0
    0.9970   20.5310  -33.8080 C   0  0  0  0  0  0  0  0  0  0  0  0
    2.0840   20.2550  -34.3840 O   0  0  0  0  0  0  0  0  0  0  0  0
    0.7300   22.8641  -35.6762 H   0  0  0  0  0  0  0  0  0  0  0  0
    0.9867   21.2006  -36.3037 H   0  0  0  0  0  0  0  0  0  0  0  0
   -0.6609   21.9163  -36.3037 H   0  0  0  0  0  0  0  0  0  0  0  0
   -2.0660   23.4230  -31.2250 H   0  0  0  0  0  0  0  0  0  0  0  0
   -5.2959   21.6734  -31.9293 H   0  0  0  0  0  0  0  0  0  0  0  0
   -5.6774   20.5964  -32.0549 H   0  0  0  0  0  0  0  0  0  0  0  0
   -6.8275   20.0448  -30.7692 H   0  0  0  0  0  0  0  0  0  0  0  0
   -6.4258   18.6954  -33.4831 H   0  0  0  0  0  0  0  0  0  0  0  0
   -5.7285   18.1417  -31.9094 H   0  0  0  0  0  0  0  0  0  0  0  0
   -8.0656   17.1912  -32.9038 H   0  0  0  0  0  0  0  0  0  0  0  0
   -7.7163   17.3669  -31.1249 H   0  0  0  0  0  0  0  0  0  0  0  0
   -9.9906   18.2722  -32.2091 H   0  0  0  0  0  0  0  0  0  0  0  0
   -9.1412   19.1310  -30.8622 H   0  0  0  0  0  0  0  0  0  0  0  0
   -8.9111   19.7649  -33.8441 H   0  0  0  0  0  0  0  0  0  0  0  0
   -9.8150   20.7163  -32.5793 H   0  0  0  0  0  0  0  0  0  0  0  0
   -7.7060   24.7903  -30.1411 H   0  0  0  0  0  0  0  0  0  0  0  0
   -5.6399   26.0553  -29.5581 H   0  0  0  0  0  0  0  0  0  0  0  0
   -0.6662   19.9491  -30.8910 H   0  0  0  0  0  0  0  0  0  0  0  0
    1.4923   19.3949  -32.0286 H   0  0  0  0  0  0  0  0  0  0  0  0
  1  2  1  0
  2  3  1  0
  3  4  2  0
  4  5  1  0
  5  6  2  0
  5  7  1  0
  7  8  1  0
  8  9  2  0
  9 10  1  0
 10 11  1  0
 11 12  2  0
 11 13  2  0
 11 14  1  0
 14 15  1  0
 15 16  1  0
 16 17  1  0
 17 18  1  0
 18 19  1  0
 10 20  2  0
 20 21  1  0
 21 22  2  0
 22 23  1  0
  4 24  1  0
 24 25  2  0
 25 26  1  0
 26 27  2  0
 26  2  1  0
 22  8  1  0
 19 14  1  0
  1 28  1  0
  1 29  1  0
  1 30  1  0
  7 31  1  0
  9 32  1  0
 15 33  1  0
 15 34  1  0
 16 35  1  0
 16 36  1  0
 17 37  1  0
 17 38  1  0
 18 39  1  0
 18 40  1  0
 19 41  1  0
 19 42  1  0
 20 43  1  0
 21 44  1  0
 24 45  1  0
 25 46  1  0
M  CHG  1  23  -1
M  END
>  <UniqueID>  (5) 
4

>  <SMILES>  (5) 
Cn1nc(C(=O)Nc2cc(S(=O)(=O)N3CCCCC3)ccc2[O-])ccc1=O

>  <Energy>  (5) 
56.7355893634112

>  <Genealogy>  (5) 
Cn1nc(C(=O)Nc2cc(S(=O)(=O)N3CCCCC3)ccc2[O-])ccc1=O (protonated)
Cn1nc(C(=O)Nc2cc(S(=O)(=O)N3CCCCC3)ccc2[O-])ccc1=O (3D coordinates assigned)
Cn1nc(C(=O)Nc2cc(S(=O)(=O)N3CCCCC3)ccc2[O-])ccc1=O (nonaromatic ring conformer: 56.7355893634112 kcal/mol)

>  <smiles>  (5) 
Cn1nc(C(=O)Nc2cc(S(=O)(=O)N3CCCCC3)ccc2O)ccc1=O

>  <score_type>  (5) 
oracle

>  <origin>  (5) 
adgpu

>  <m_score__min__energy>  (5) 
-12.539999999999999

>  <m_primary>  (5) 
energy

$$$$
5:0
     RDKit          3D

 47 50  0  0  0  0  0  0  0  0999 V2000
   -3.5950   24.4810  -27.3270 C   0  0  0  0  0  0  0  0  0  0  0  0
   -2.5740   24.2580  -28.4610 C   0  0  0  0  0  0  0  0  0  0  0  0
   -1.1630   24.6870  -28.0070 C   0  0  0  0  0  0  0  0  0  0  0  0
   -2.5350   22.7530  -28.7800 C   0  0  0  0  0  0  0  0  0  0  0  0
   -3.0080   24.9360  -29.7020 N   0  0  0  0  0  0  0  0  0  0  0  0
   -4.5960   24.5460  -30.3220 S   0  0  0  0  0  0  0  0  0  0  0  0
   -4.9340   25.5340  -31.4020 O   0  0  0  0  0  0  0  0  0  0  0  0
   -5.6250   24.6870  -29.2350 O   0  0  0  0  0  0  0  0  0  0  0  0
   -4.6660   22.9350  -31.0310 C   0  0  0  0  0  0  0  0  0  0  0  0
   -3.5810   22.4610  -31.7780 C   0  0  0  0  0  0  0  0  0  0  0  0
   -3.6130   21.1780  -32.3320 C   0  0  0  0  0  0  0  0  0  0  0  0
   -4.7390   20.3560  -32.1550 C   0  0  0  0  0  0  0  0  0  0  0  0
   -4.7660   18.9900  -32.7280 C   0  0  0  0  0  0  0  0  0  0  0  0
   -6.0100   18.3360  -32.8880 C   0  0  0  0  0  0  0  0  0  0  0  0
   -6.0030   17.0640  -33.4430 C   0  0  0  0  0  0  0  0  0  0  0  0
   -7.0390   16.2840  -33.6850 O   0  0  0  0  0  0  0  0  0  0  0  0
   -6.5540   15.1760  -34.2140 C   0  0  0  0  0  0  0  0  0  0  0  0
   -7.2650   14.0540  -34.6340 C   0  0  0  0  0  0  0  0  0  0  0  0
   -6.5380   12.9760  -35.1720 C   0  0  0  0  0  0  0  0  0  0  0  0
   -5.1280   13.0390  -35.2780 C   0  0  0  0  0  0  0  0  0  0  0  0
   -4.4260   11.9660  -35.8120 O   0  0  0  0  0  0  0  0  0  0  0  0
   -4.4320   14.1850  -34.8470 C   0  0  0  0  0  0  0  0  0  0  0  0
   -5.1810   15.2340  -34.3200 C   0  0  0  0  0  0  0  0  0  0  0  0
   -4.8290   16.4620  -33.8180 C   0  0  0  0  0  0  0  0  0  0  0  0
   -3.6080   17.1000  -33.6530 C   0  0  0  0  0  0  0  0  0  0  0  0
   -3.5980   18.3560  -33.1070 N   0  0  0  0  0  0  0  0  0  0  0  0
   -2.3800   18.9620  -32.8990 O   0  0  0  0  0  0  0  0  0  0  0  0
   -5.8260   20.8360  -31.4040 C   0  0  0  0  0  0  0  0  0  0  0  0
   -5.7900   22.1190  -30.8500 C   0  0  0  0  0  0  0  0  0  0  0  0
   -3.0927   24.3713  -26.3546 H   0  0  0  0  0  0  0  0  0  0  0  0
   -4.0186   25.4928  -27.4088 H   0  0  0  0  0  0  0  0  0  0  0  0
   -4.4019   23.7379  -27.4088 H   0  0  0  0  0  0  0  0  0  0  0  0
   -1.1197   24.7002  -26.9079 H   0  0  0  0  0  0  0  0  0  0  0  0
   -0.4205   23.9740  -28.3947 H   0  0  0  0  0  0  0  0  0  0  0  0
   -0.9430   25.6926  -28.3947 H   0  0  0  0  0  0  0  0  0  0  0  0
   -2.5201   22.1795  -27.8414 H   0  0  0  0  0  0  0  0  0  0  0  0
   -3.4263   22.4786  -29.3633 H   0  0  0  0  0  0  0  0  0  0  0  0
   -1.6306   22.5251  -29.3633 H   0  0  0  0  0  0  0  0  0  0  0  0
   -2.6993   23.1011  -31.9297 H   0  0  0  0  0  0  0  0  0  0  0  0
   -2.7522   20.8099  -32.9096 H   0  0  0  0  0  0  0  0  0  0  0  0
   -6.9502   18.8188  -32.5831 H   0  0  0  0  0  0  0  0  0  0  0  0
   -8.3608   14.0121  -34.5477 H   0  0  0  0  0  0  0  0  0  0  0  0
   -7.0704   12.0760  -35.5134 H   0  0  0  0  0  0  0  0  0  0  0  0
   -3.3366   14.2491  -34.9239 H   0  0  0  0  0  0  0  0  0  0  0  0
   -2.6707   16.6089  -33.9535 H   0  0  0  0  0  0  0  0  0  0  0  0
   -6.7095   20.1988  -31.2514 H   0  0  0  0  0  0  0  0  0  0  0  0
   -6.6479   22.4892  -30.2695 H   0  0  0  0  0  0  0  0  0  0  0  0
  1  2  1  0
  2  3  1  0
  2  4  1  0
  2  5  1  0
  5  6  1  0
  6  7  2  0
  6  8  2  0
  6  9  1  0
  9 10  2  0
 10 11  1  0
 11 12  2  0
 12 13  1  0
 13 14  2  0
 14 15  1  0
 15 16  1  0
 16 17  1  0
 17 18  2  0
 18 19  1  0
 19 20  2  0
 20 21  1  0
 20 22  1  0
 22 23  2  0
 23 24  1  0
 24 25  1  0
 25 26  2  0
 26 27  1  0
 12 28  1  0
 28 29  2  0
 29  9  1  0
 26 13  1  0
 24 15  2  0
 23 17  1  0
  1 30  1  0
  1 31  1  0
  1 32  1  0
  3 33  1  0
  3 34  1  0
  3 35  1  0
  4 36  1  0
  4 37  1  0
  4 38  1  0
 10 39  1  0
 11 40  1  0
 14 41  1  0
 18 42  1  0
 19 43  1  0
 22 44  1  0
 25 45  1  0
 28 46  1  0
 29 47  1  0
M  CHG  4   5  -1  21  -1  26   1  27  -1
M  END
>  <UniqueID>  (6) 
5

>  <SMILES>  (6) 
CC(C)(C)[N-]S(=O)(=O)c1ccc(-c2cc3oc4ccc([O-])cc4c3c[n+]2[O-])cc1

>  <Energy>  (6) 
101.93290007188241

>  <Genealogy>  (6) 
CC(C)(C)[N-]S(=O)(=O)c1ccc(-c2cc3oc4ccc([O-])cc4c3c[n+]2[O-])cc1 (protonated)
CC(C)(C)[N-]S(=O)(=O)c1ccc(-c2cc3oc4ccc([O-])cc4c3c[n+]2[O-])cc1 (3D coordinates assigned)
CC(C)(C)[N-]S(=O)(=O)c1ccc(-c2cc3oc4ccc([O-])cc4c3c[n+]2[O-])cc1 (optimized conformer: 101.93290007188241 kcal/mol)

>  <smiles>  (6) 
CC(C)(C)NS(=O)(=O)c1ccc(-c2cc3oc4ccc(O)cc4c3c[n+]2[O-])cc1

>  <score_type>  (6) 
oracle

>  <origin>  (6) 
adgpu

>  <m_score__min__energy>  (6) 
-9.4800000000000004

>  <m_primary>  (6) 
energy

$$$$
6:0
     RDKit          3D

 49 51  0  0  0  0  0  0  0  0999 V2000
   -0.8010   19.7800  -34.4740 C   0  0  0  0  0  0  0  0  0  0  0  0
   -1.2670   18.9950  -33.3180 N   0  0  0  0  0  0  0  0  0  0  0  0
   -1.8040   19.8490  -32.2270 C   0  0  0  0  0  0  0  0  0  0  0  0
   -3.3310   19.7490  -32.0400 C   0  0  0  0  0  0  0  0  0  0  0  0
   -4.0330   19.6510  -33.3980 C   0  0  0  0  0  0  0  0  0  0  0  0
   -5.8230   19.6830  -33.2130 S   0  0  0  0  0  0  0  0  0  0  0  0
   -6.4500   19.6710  -34.5790 O   0  0  0  0  0  0  0  0  0  0  0  0
   -6.2600   18.4270  -32.5120 O   0  0  0  0  0  0  0  0  0  0  0  0
   -6.3720   21.1290  -32.3280 C   0  0  0  0  0  0  0  0  0  0  0  0
   -7.6080   21.1660  -31.6380 C   0  0  0  0  0  0  0  0  0  0  0  0
   -8.7290   19.8080  -31.5900 Cl  0  0  0  0  0  0  0  0  0  0  0  0
   -7.9930   22.3240  -30.9560 C   0  0  0  0  0  0  0  0  0  0  0  0
   -7.1670   23.4450  -30.9350 C   0  0  0  0  0  0  0  0  0  0  0  0
   -5.9280   23.4210  -31.5910 C   0  0  0  0  0  0  0  0  0  0  0  0
   -5.0670   24.5690  -31.6070 N   0  0  0  0  0  0  0  0  0  0  0  0
   -4.7520   25.4030  -30.4850 C   0  0  0  0  0  0  0  0  0  0  0  0
   -5.6020   26.2450  -30.0930 O   0  0  0  0  0  0  0  0  0  0  0  0
   -3.4860   25.2890  -29.8230 N   0  0  0  0  0  0  0  0  0  0  0  0
   -2.9860   24.1110  -29.1780 C   0  0  0  0  0  0  0  0  0  0  0  0
   -2.9930   24.0630  -27.7780 C   0  0  0  0  0  0  0  0  0  0  0  0
   -2.5220   22.9320  -27.1050 C   0  0  0  0  0  0  0  0  0  0  0  0
   -2.0560   21.8300  -27.8270 C   0  0  0  0  0  0  0  0  0  0  0  0
   -1.5700   20.6650  -27.1340 C   0  0  0  0  0  0  0  0  0  0  0  0
   -1.1780   19.7300  -26.5760 N   0  0  0  0  0  0  0  0  0  0  0  0
   -2.0770   21.8540  -29.2270 C   0  0  0  0  0  0  0  0  0  0  0  0
   -2.5560   22.9830  -29.9080 C   0  0  0  0  0  0  0  0  0  0  0  0
   -2.6350   22.9710  -31.3000 O   0  0  0  0  0  0  0  0  0  0  0  0
   -5.5460   22.2760  -32.3040 C   0  0  0  0  0  0  0  0  0  0  0  0
   -4.3290   22.2830  -32.9800 O   0  0  0  0  0  0  0  0  0  0  0  0
   -3.5600   18.4030  -34.1740 C   0  0  0  0  0  0  0  0  0  0  0  0
   -2.1730   17.9000  -33.7220 C   0  0  0  0  0  0  0  0  0  0  0  0
   -0.2695   20.6753  -34.1190 H   0  0  0  0  0  0  0  0  0  0  0  0
   -0.1204   19.1670  -35.0831 H   0  0  0  0  0  0  0  0  0  0  0  0
   -1.6650   20.0839  -35.0831 H   0  0  0  0  0  0  0  0  0  0  0  0
   -1.3207   19.5500  -31.2852 H   0  0  0  0  0  0  0  0  0  0  0  0
   -1.5870   20.8909  -32.5051 H   0  0  0  0  0  0  0  0  0  0  0  0
   -3.5650   18.8531  -31.4462 H   0  0  0  0  0  0  0  0  0  0  0  0
   -3.6855   20.6516  -31.5208 H   0  0  0  0  0  0  0  0  0  0  0  0
   -3.7533   20.5349  -33.9900 H   0  0  0  0  0  0  0  0  0  0  0  0
   -8.9589   22.3500  -30.4302 H   0  0  0  0  0  0  0  0  0  0  0  0
   -7.4876   24.3523  -30.4020 H   0  0  0  0  0  0  0  0  0  0  0  0
   -3.3719   24.9215  -27.2041 H   0  0  0  0  0  0  0  0  0  0  0  0
   -2.5182   22.9094  -26.0052 H   0  0  0  0  0  0  0  0  0  0  0  0
   -1.7164   20.9838  -29.7951 H   0  0  0  0  0  0  0  0  0  0  0  0
   -3.5210   23.0680  -31.7830 H   0  0  0  0  0  0  0  0  0  0  0  0
   -4.2922   17.5966  -34.0203 H   0  0  0  0  0  0  0  0  0  0  0  0
   -3.4771   18.6869  -35.2335 H   0  0  0  0  0  0  0  0  0  0  0  0
   -2.3074   17.2221  -32.8662 H   0  0  0  0  0  0  0  0  0  0  0  0
   -1.7114   17.3899  -34.5803 H   0  0  0  0  0  0  0  0  0  0  0  0
  1  2  1  0
  2  3  1  0
  3  4  1  0
  4  5  1  0
  5  6  1  0
  6  7  2  0
  6  8  2  0
  6  9  1  0
  9 10  2  0
 10 11  1  0
 10 12  1  0
 12 13  2  0
 13 14  1  0
 14 15  1  0
 15 16  1  0
 16 17  2  0
 16 18  1  0
 18 19  1  0
 19 20  2  0
 20 21  1  0
 21 22  2  0
 22 23  1  0
 23 24  3  0
 22 25  1  0
 25 26  2  0
 26 27  1  0
 14 28  2  0
 28 29  1  0
  5 30  1  0
 30 31  1  0
 31  2  1  0
 28  9  1  0
 26 19  1  0
  1 32  1  0
  1 33  1  0
  1 34  1  0
  3 35  1  0
  3 36  1  0
  4 37  1  0
  4 38  1  0
  5 39  1  0
 12 40  1  0
 13 41  1  0
 20 42  1  0
 21 43  1  0
 25 44  1  0
 27 45  1  0
 30 46  1  0
 30 47  1  0
 31 48  1  0
 31 49  1  0
M  CHG  3  15  -1  18  -1  29  -1
M  END
>  <UniqueID>  (7) 
6

>  <SMILES>  (7) 
CN1CCC(S(=O)(=O)c2c(Cl)ccc([N-]C(=O)[N-]c3ccc(C#N)cc3O)c2[O-])CC1

>  <Energy>  (7) 
68.53724419456663

>  <Genealogy>  (7) 
CN1CCC(S(=O)(=O)c2c(Cl)ccc([N-]C(=O)[N-]c3ccc(C#N)cc3O)c2[O-])CC1 (protonated)
CN1CCC(S(=O)(=O)c2c(Cl)ccc([N-]C(=O)[N-]c3ccc(C#N)cc3O)c2[O-])CC1 (3D coordinates assigned)
CN1CCC(S(=O)(=O)c2c(Cl)ccc([N-]C(=O)[N-]c3ccc(C#N)cc3O)c2[O-])CC1 (nonaromatic ring conformer: 68.53724419456663 kcal/mol)

>  <smiles>  (7) 
CN1CCC(S(=O)(=O)c2c(Cl)ccc(NC(=O)Nc3ccc(C#N)cc3O)c2O)CC1

>  <score_type>  (7) 
oracle

>  <origin>  (7) 
adgpu

>  <m_score__min__energy>  (7) 
-16.140000000000001

>  <m_primary>  (7) 
energy

$$$$
7:0
     RDKit          3D

 30 31  0  0  0  0  0  0  0  0999 V2000
   -6.3260   17.4110  -31.2200 C   0  0  0  0  0  0  0  0  0  0  0  0
   -7.2760   17.4090  -32.7710 S   0  0  0  0  0  0  0  0  0  0  0  0
   -8.1240   18.9460  -32.3890 C   0  0  0  0  0  0  0  0  0  0  0  0
   -9.4590   19.0490  -32.6250 N   0  0  0  0  0  0  0  0  0  0  0  0
   -9.8330   20.6420  -32.3480 S   0  0  0  0  0  0  0  0  0  0  0  0
   -8.3390   21.2280  -31.9160 C   0  0  0  0  0  0  0  0  0  0  0  0
   -7.9270   22.9540  -31.6500 S   0  0  0  0  0  0  0  0  0  0  0  0
   -7.3770   22.7100  -29.9350 C   0  0  0  0  0  0  0  0  0  0  0  0
   -7.4760   20.1400  -31.9640 C   0  0  0  0  0  0  0  0  0  0  0  0
   -6.0670   20.2890  -31.7300 N   0  0  0  0  0  0  0  0  0  0  0  0
   -5.0170   20.1610  -32.6980 C   0  0  0  0  0  0  0  0  0  0  0  0
   -5.2310   19.4970  -33.7440 O   0  0  0  0  0  0  0  0  0  0  0  0
   -3.7290   20.7650  -32.5120 N   0  0  0  0  0  0  0  0  0  0  0  0
   -3.4590   21.9150  -31.7010 C   0  0  0  0  0  0  0  0  0  0  0  0
   -2.2670   22.0250  -30.9700 C   0  0  0  0  0  0  0  0  0  0  0  0
   -2.0250   23.1560  -30.1850 C   0  0  0  0  0  0  0  0  0  0  0  0
   -2.9780   24.1770  -30.1130 C   0  0  0  0  0  0  0  0  0  0  0  0
   -2.7250   25.3010  -29.3360 O   0  0  0  0  0  0  0  0  0  0  0  0
   -4.1840   24.0590  -30.8200 C   0  0  0  0  0  0  0  0  0  0  0  0
   -5.3980   25.3250  -30.7350 Cl  0  0  0  0  0  0  0  0  0  0  0  0
   -4.4250   22.9240  -31.6020 C   0  0  0  0  0  0  0  0  0  0  0  0
   -7.0189   17.4095  -30.3656 H   0  0  0  0  0  0  0  0  0  0  0  0
   -5.6904   16.5142  -31.1782 H   0  0  0  0  0  0  0  0  0  0  0  0
   -5.6942   18.3105  -31.1782 H   0  0  0  0  0  0  0  0  0  0  0  0
   -8.1606   23.0576  -29.2457 H   0  0  0  0  0  0  0  0  0  0  0  0
   -7.1830   21.6414  -29.7607 H   0  0  0  0  0  0  0  0  0  0  0  0
   -6.4546   23.2833  -29.7607 H   0  0  0  0  0  0  0  0  0  0  0  0
   -1.5202   21.2186  -31.0146 H   0  0  0  0  0  0  0  0  0  0  0  0
   -1.0834   23.2431  -29.6230 H   0  0  0  0  0  0  0  0  0  0  0  0
   -5.3782   22.8238  -32.1418 H   0  0  0  0  0  0  0  0  0  0  0  0
  1  2  1  0
  2  3  1  0
  3  4  2  0
  4  5  1  0
  5  6  1  0
  6  7  1  0
  7  8  1  0
  6  9  2  0
  9 10  1  0
 10 11  1  0
 11 12  2  0
 11 13  1  0
 13 14  1  0
 14 15  2  0
 15 16  1  0
 16 17  2  0
 17 18  1  0
 17 19  1  0
 19 20  1  0
 19 21  2  0
  9  3  1  0
 21 14  1  0
  1 22  1  0
  1 23  1  0
  1 24  1  0
  8 25  1  0
  8 26  1  0
  8 27  1  0
 15 28  1  0
 16 29  1  0
 21 30  1  0
M  CHG  3  10  -1  13  -1  18  -1
M  END
>  <UniqueID>  (8) 
7

>  <SMILES>  (8) 
CSc1nsc(SC)c1[N-]C(=O)[N-]c1ccc([O-])c(Cl)c1

>  <Energy>  (8) 
64.22838994515692

>  <Genealogy>  (8) 
CSc1nsc(SC)c1[N-]C(=O)[N-]c1ccc([O-])c(Cl)c1 (protonated)
CSc1nsc(SC)c1[N-]C(=O)[N-]c1ccc([O-])c(Cl)c1 (3D coordinates assigned)
CSc1nsc(SC)c1[N-]C(=O)[N-]c1ccc([O-])c(Cl)c1 (optimized conformer: 64.22838994515692 kcal/mol)

>  <smiles>  (8) 
CSc1nsc(SC)c1NC(=O)Nc1ccc(O)c(Cl)c1

>  <score_type>  (8) 
oracle

>  <origin>  (8) 
adgpu

>  <m_score__min__energy>  (8) 
-10.18

>  <m_primary>  (8) 
energy

$$$$
8:0
     RDKit          3D

 49 51  0  0  0  0  0  0  0  0999 V2000
   -0.6740   27.1820  -23.8250 C   0  0  0  0  0  0  0  0  0  0  0  0
   -1.0470   26.4540  -25.0820 C   0  0  0  0  0  0  0  0  0  0  0  0
   -0.0750   26.1750  -26.0490 C   0  0  0  0  0  0  0  0  0  0  0  0
   -0.4100   25.4610  -27.2000 C   0  0  0  0  0  0  0  0  0  0  0  0
   -1.7210   25.0000  -27.4020 C   0  0  0  0  0  0  0  0  0  0  0  0
   -2.0930   24.0990  -28.8810 S   0  0  0  0  0  0  0  0  0  0  0  0
   -2.6180   22.7410  -28.5060 O   0  0  0  0  0  0  0  0  0  0  0  0
   -0.8540   23.9430  -29.7170 O   0  0  0  0  0  0  0  0  0  0  0  0
   -3.2830   24.9430  -29.8170 N   0  0  0  0  0  0  0  0  0  0  0  0
   -4.4010   24.2810  -30.4160 C   0  0  0  0  0  0  0  0  0  0  0  0
   -4.1930   23.0450  -31.0390 C   0  0  0  0  0  0  0  0  0  0  0  0
   -5.2550   22.3720  -31.6590 C   0  0  0  0  0  0  0  0  0  0  0  0
   -4.9740   20.8330  -32.4730 S   0  0  0  0  0  0  0  0  0  0  0  0
   -3.8360   20.9990  -33.4420 O   0  0  0  0  0  0  0  0  0  0  0  0
   -4.5550   19.8130  -31.4510 O   0  0  0  0  0  0  0  0  0  0  0  0
   -6.3780   20.2390  -33.3350 N   0  0  0  0  0  0  0  0  0  0  0  0
   -6.0960   19.0660  -34.1830 C   0  0  0  0  0  0  0  0  0  0  0  0
   -6.3220   17.7360  -33.4500 C   0  0  0  0  0  0  0  0  0  0  0  0
   -7.6070   17.6960  -32.8690 O   0  0  0  0  0  0  0  0  0  0  0  0
   -7.6900   18.6870  -31.8690 C   0  0  0  0  0  0  0  0  0  0  0  0
   -7.5730   20.0890  -32.4810 C   0  0  0  0  0  0  0  0  0  0  0  0
   -6.5280   22.9530  -31.6680 C   0  0  0  0  0  0  0  0  0  0  0  0
   -6.7480   24.1740  -31.0260 C   0  0  0  0  0  0  0  0  0  0  0  0
   -5.6970   24.8350  -30.3810 C   0  0  0  0  0  0  0  0  0  0  0  0
   -5.9750   26.0190  -29.6970 O   0  0  0  0  0  0  0  0  0  0  0  0
   -2.7110   25.2770  -26.4270 C   0  0  0  0  0  0  0  0  0  0  0  0
   -4.1300   24.7950  -26.5800 C   0  0  0  0  0  0  0  0  0  0  0  0
   -2.3560   25.9870  -25.2670 C   0  0  0  0  0  0  0  0  0  0  0  0
   -0.9792   26.5864  -22.9520 H   0  0  0  0  0  0  0  0  0  0  0  0
    0.4147   27.3372  -23.8005 H   0  0  0  0  0  0  0  0  0  0  0  0
   -1.1840   28.1563  -23.8005 H   0  0  0  0  0  0  0  0  0  0  0  0
    0.9588   26.5204  -25.9010 H   0  0  0  0  0  0  0  0  0  0  0  0
    0.3612   25.2570  -27.9574 H   0  0  0  0  0  0  0  0  0  0  0  0
   -3.1879   22.5980  -31.0421 H   0  0  0  0  0  0  0  0  0  0  0  0
   -6.7569   19.1001  -35.0617 H   0  0  0  0  0  0  0  0  0  0  0  0
   -5.0349   19.1110  -34.4696 H   0  0  0  0  0  0  0  0  0  0  0  0
   -6.2247   16.9078  -34.1674 H   0  0  0  0  0  0  0  0  0  0  0  0
   -5.5711   17.6414  -32.6517 H   0  0  0  0  0  0  0  0  0  0  0  0
   -8.6573   18.5984  -31.3527 H   0  0  0  0  0  0  0  0  0  0  0  0
   -6.8625   18.5418  -31.1589 H   0  0  0  0  0  0  0  0  0  0  0  0
   -8.4679   20.2829  -33.0905 H   0  0  0  0  0  0  0  0  0  0  0  0
   -7.4822   20.8070  -31.6527 H   0  0  0  0  0  0  0  0  0  0  0  0
   -7.3581   22.4466  -32.1823 H   0  0  0  0  0  0  0  0  0  0  0  0
   -7.7541   24.6187  -31.0276 H   0  0  0  0  0  0  0  0  0  0  0  0
   -5.3690   26.3840  -28.9740 H   0  0  0  0  0  0  0  0  0  0  0  0
   -4.5751   24.6438  -25.5855 H   0  0  0  0  0  0  0  0  0  0  0  0
   -4.7144   25.5450  -27.1331 H   0  0  0  0  0  0  0  0  0  0  0  0
   -4.1367   23.8442  -27.1331 H   0  0  0  0  0  0  0  0  0  0  0  0
   -3.1150   26.1787  -24.4943 H   0  0  0  0  0  0  0  0  0  0  0  0
  1  2  1  0
  2  3  2  0
  3  4  1  0
  4  5  2  0
  5  6  1  0
  6  7  2  0
  6  8  2  0
  6  9  1  0
  9 10  1  0
 10 11  2  0
 11 12  1  0
 12 13  1  0
 13 14  2  0
 13 15  2  0
 13 16  1  0
 16 17  1  0
 17 18  1  0
 18 19  1  0
 19 20  1  0
 20 21  1  0
 12 22  2  0
 22 23  1  0
 23 24  2  0
 24 25  1  0
  5 26  1  0
 26 27  1  0
 26 28  2  0
 28  2  1  0
 24 10  1  0
 21 16  1  0
  1 29  1  0
  1 30  1  0
  1 31  1  0
  3 32  1  0
  4 33  1  0
 11 34  1  0
 17 35  1  0
 17 36  1  0
 18 37  1  0
 18 38  1  0
 20 39  1  0
 20 40  1  0
 21 41  1  0
 21 42  1  0
 22 43  1  0
 23 44  1  0
 25 45  1  0
 27 46  1  0
 27 47  1  0
 27 48  1  0
 28 49  1  0
M  CHG  1   9  -1
M  END
>  <UniqueID>  (9) 
8

>  <SMILES>  (9) 
Cc1ccc(S(=O)(=O)[N-]c2cc(S(=O)(=O)N3CCOCC3)ccc2O)c(C)c1

>  <Energy>  (9) 
66.40668201210053

>  <Genealogy>  (9) 
Cc1ccc(S(=O)(=O)[N-]c2cc(S(=O)(=O)N3CCOCC3)ccc2O)c(C)c1 (protonated)
Cc1ccc(S(=O)(=O)[N-]c2cc(S(=O)(=O)N3CCOCC3)ccc2O)c(C)c1 (3D coordinates assigned)
Cc1ccc(S(=O)(=O)[N-]c2cc(S(=O)(=O)N3CCOCC3)ccc2O)c(C)c1 (nonaromatic ring conformer: 66.40668201210053 kcal/mol)

>  <smiles>  (9) 
Cc1ccc(S(=O)(=O)Nc2cc(S(=O)(=O)N3CCOCC3)ccc2O)c(C)c1

>  <score_type>  (9) 
oracle

>  <origin>  (9) 
adgpu

>  <m_score__min__energy>  (9) 
-11.17

>  <m_primary>  (9) 
energy

$$$$
9:0
     RDKit          3D

 58 61  0  0  0  0  0  0  0  0999 V2000
   -6.0310   20.1887  -34.7465 H   0  0  0  0  0  0  0  0  0  0  0  0
   -6.4810   19.5600  -33.9640 C   0  0  0  0  0  0  0  0  0  0  0  0
   -7.3340   20.1100  -33.0590 N   0  0  0  0  0  0  0  0  0  0  0  0
   -7.9070   19.3720  -32.0650 C   0  0  0  0  0  0  0  0  0  0  0  0
   -8.7160   19.9190  -31.2100 N   0  0  0  0  0  0  0  0  0  0  0  0
   -9.1520   21.5990  -31.2280 S   0  0  0  0  0  0  0  0  0  0  0  0
  -10.1180   21.8650  -30.1080 O   0  0  0  0  0  0  0  0  0  0  0  0
   -9.7830   21.9530  -32.5440 O   0  0  0  0  0  0  0  0  0  0  0  0
   -7.7040   22.5740  -31.0080 C   0  0  0  0  0  0  0  0  0  0  0  0
   -7.2220   22.8330  -29.7190 C   0  0  0  0  0  0  0  0  0  0  0  0
   -7.7542   22.4309  -28.8443 H   0  0  0  0  0  0  0  0  0  0  0  0
   -6.0680   23.6000  -29.5390 C   0  0  0  0  0  0  0  0  0  0  0  0
   -5.7034   23.8111  -28.5229 H   0  0  0  0  0  0  0  0  0  0  0  0
   -5.3710   24.1030  -30.6520 C   0  0  0  0  0  0  0  0  0  0  0  0
   -4.1900   24.9030  -30.5020 N   0  0  0  0  0  0  0  0  0  0  0  0
   -2.9620   24.4810  -29.8920 C   0  0  0  0  0  0  0  0  0  0  0  0
   -2.3420   25.2910  -29.1540 O   0  0  0  0  0  0  0  0  0  0  0  0
   -2.3880   23.1400  -30.1450 C   0  0  0  0  0  0  0  0  0  0  0  0
   -1.4210   22.5990  -29.2790 C   0  0  0  0  0  0  0  0  0  0  0  0
   -1.0964   23.1692  -28.3961 H   0  0  0  0  0  0  0  0  0  0  0  0
   -0.8710   21.3410  -29.5350 C   0  0  0  0  0  0  0  0  0  0  0  0
   -0.1141   20.9246  -28.8540 H   0  0  0  0  0  0  0  0  0  0  0  0
   -1.2790   20.6100  -30.6530 C   0  0  0  0  0  0  0  0  0  0  0  0
   -0.8338   19.6251  -30.8575 H   0  0  0  0  0  0  0  0  0  0  0  0
   -2.2540   21.1290  -31.5140 C   0  0  0  0  0  0  0  0  0  0  0  0
   -2.7110   20.2310  -32.9590 S   0  0  0  0  0  0  0  0  0  0  0  0
   -4.0480   20.7090  -33.4570 O   0  0  0  0  0  0  0  0  0  0  0  0
   -2.8240   18.7720  -32.6110 O   0  0  0  0  0  0  0  0  0  0  0  0
   -1.4940   20.4530  -34.1890 N   0  0  0  0  0  0  0  0  0  0  0  0
   -1.9650   20.8820  -35.0210 H   0  0  0  0  0  0  0  0  0  0  0  0
   -0.4450   21.3690  -33.7090 C   0  0  0  0  0  0  0  0  0  0  0  0
   -0.8960   22.3449  -33.4759 H   0  0  0  0  0  0  0  0  0  0  0  0
    0.0169   20.9387  -32.8082 H   0  0  0  0  0  0  0  0  0  0  0  0
    0.6460   21.5580  -34.7870 C   0  0  0  0  0  0  0  0  0  0  0  0
    0.5755   22.5816  -35.1835 H   0  0  0  0  0  0  0  0  0  0  0  0
    1.6199   21.3728  -34.3104 H   0  0  0  0  0  0  0  0  0  0  0  0
    0.5150   20.6440  -35.8640 O   0  0  0  0  0  0  0  0  0  0  0  0
    0.4010   19.3290  -35.3630 C   0  0  0  0  0  0  0  0  0  0  0  0
    0.4195   18.6203  -36.2041 H   0  0  0  0  0  0  0  0  0  0  0  0
    1.2430   19.1385  -34.6813 H   0  0  0  0  0  0  0  0  0  0  0  0
   -0.9160   19.1500  -34.5810 C   0  0  0  0  0  0  0  0  0  0  0  0
   -1.6382   18.6146  -35.2148 H   0  0  0  0  0  0  0  0  0  0  0  0
   -0.6996   18.5789  -33.6661 H   0  0  0  0  0  0  0  0  0  0  0  0
   -2.8100   22.3910  -31.2560 C   0  0  0  0  0  0  0  0  0  0  0  0
   -3.5810   22.7964  -31.9277 H   0  0  0  0  0  0  0  0  0  0  0  0
   -5.8660   23.8560  -31.9380 C   0  0  0  0  0  0  0  0  0  0  0  0
   -5.3433   24.2696  -32.8130 H   0  0  0  0  0  0  0  0  0  0  0  0
   -7.0190   23.0880  -32.1180 C   0  0  0  0  0  0  0  0  0  0  0  0
   -7.3904   22.8860  -33.1335 H   0  0  0  0  0  0  0  0  0  0  0  0
   -7.6150   18.0080  -31.9620 C   0  0  0  0  0  0  0  0  0  0  0  0
   -8.0709   17.4019  -31.1652 H   0  0  0  0  0  0  0  0  0  0  0  0
   -6.7400   17.4220  -32.8790 C   0  0  0  0  0  0  0  0  0  0  0  0
   -6.4948   16.3527  -32.7981 H   0  0  0  0  0  0  0  0  0  0  0  0
   -6.1740   18.1940  -33.9020 C   0  0  0  0  0  0  0  0  0  0  0  0
   -5.2030   17.5830  -34.8680 C   0  0  0  0  0  0  0  0  0  0  0  0
   -4.4002   17.0779  -34.3109 H   0  0  0  0  0  0  0  0  0  0  0  0
   -5.7266   16.8513  -35.5008 H   0  0  0  0  0  0  0  0  0  0  0  0
   -4.7700   18.3717  -35.5008 H   0  0  0  0  0  0  0  0  0  0  0  0
  1  2  1  0
  2  3  1  0
  3  4  1  0
  4  5  2  0
  5  6  1  0
  6  7  2  0
  6  8  2  0
  6  9  1  0
  9 10  2  0
 10 11  1  0
 10 12  1  0
 12 13  1  0
 12 14  2  0
 14 15  1  0
 15 16  1  0
 16 17  2  0
 16 18  1  0
 18 19  2  0
 19 20  1  0
 19 21  1  0
 21 22  1  0
 21 23  2  0
 23 24  1  0
 23 25  1  0
 25 26  1  0
 26 27  2  0
 26 28  2  0
 26 29  1  0
 29 30  1  0
 29 31  1  0
 31 32  1  0
 31 33  1  0
 31 34  1  0
 34 35  1  0
 34 36  1  0
 34 37  1  0
 37 38  1  0
 38 39  1  0
 38 40  1  0
 38 41  1  0
 41 42  1  0
 41 43  1  0
 25 44  2  0
 44 45  1  0
 14 46  1  0
 46 47  1  0
 46 48  2  0
 48 49  1  0
  4 50  1  0
 50 51  1  0
 50 52  2  0
 52 53  1  0
 52 54  1  0
 54 55  1  0
 55 56  1  0
 55 57  1  0
 55 58  1  0
 54  2  2  0
 48  9  1  0
 44 18  1  0
 41 29  1  0
M  CHG  3   3  -1  15  -1  29   1
M  END
>  <UniqueID>  (10) 
9

>  <SMILES>  (10) 
Cc1cc/c(=N/S(=O)(=O)c2ccc([N-]C(=O)c3cccc(S(=O)(=O)[NH+]4CCOCC4)c3)cc2)[n-]c1

>  <Energy>  (10) 
78.70441152645344

>  <Genealogy>  (10) 
Cc1ccc(=NS(=O)(=O)c2ccc([N-]C(=O)c3cccc(S(=O)(=O)[NH+]4CCOCC4)c3)cc2)[n-]c1 (protonated)
Cc1cc/c(=N/S(=O)(=O)c2ccc([N-]C(=O)c3cccc(S(=O)(=O)[NH+]4CCOCC4)c3)cc2)[n-]c1 (cis-trans isomerization)
Cc1cc/c(=N/S(=O)(=O)c2ccc([N-]C(=O)c3cccc(S(=O)(=O)[NH+]4CCOCC4)c3)cc2)[n-]c1 (3D coordinates assigned)
Cc1cc/c(=N/S(=O)(=O)c2ccc([N-]C(=O)c3cccc(S(=O)(=O)[NH+]4CCOCC4)c3)cc2)[n-]c1 (nonaromatic ring conformer: 78.70441152645344 kcal/mol)

>  <smiles>  (10) 
Cc1ccc(=NS(=O)(=O)c2ccc(NC(=O)c3cccc(S(=O)(=O)N4CCOCC4)c3)cc2)[nH]c1

>  <score_type>  (10) 
oracle

>  <origin>  (10) 
adgpu

>  <m_score__min__energy>  (10) 
-12.06

>  <m_primary>  (10) 
energy

$$$$
10:0
     RDKit          3D

 73 77  0  0  0  0  0  0  0  0999 V2000
    0.2530   14.9940  -35.9640 C   0  0  0  0  0  0  0  0  0  0  0  0
    1.8060   15.7180  -35.3480 S   0  0  0  0  0  0  0  0  0  0  0  0
    1.4500   17.4130  -35.8470 C   0  0  0  0  0  0  0  0  0  0  0  0
    1.2480   17.6810  -37.2060 C   0  0  0  0  0  0  0  0  0  0  0  0
    0.8900   18.9570  -37.6260 C   0  0  0  0  0  0  0  0  0  0  0  0
    0.6610   19.9590  -36.6890 C   0  0  0  0  0  0  0  0  0  0  0  0
    0.7920   19.7030  -35.3150 C   0  0  0  0  0  0  0  0  0  0  0  0
    0.1150   20.9030  -34.2010 S   0  0  0  0  0  0  0  0  0  0  0  0
    0.0990   22.2630  -34.8360 O   0  0  0  0  0  0  0  0  0  0  0  0
    0.9180   20.9540  -32.9300 O   0  0  0  0  0  0  0  0  0  0  0  0
   -1.5140   20.4620  -33.8130 N   0  0  0  0  0  0  0  0  0  0  0  0
   -2.1790   21.0120  -32.6760 C   0  0  0  0  0  0  0  0  0  0  0  0
   -1.8800   20.8170  -31.3410 C   0  0  0  0  0  0  0  0  0  0  0  0
   -0.7320   20.0240  -30.7900 C   0  0  0  0  0  0  0  0  0  0  0  0
   -2.7560   21.5440  -30.6010 N   0  0  0  0  0  0  0  0  0  0  0  0
   -2.7790   21.6330  -29.1390 C   0  0  0  0  0  0  0  0  0  0  0  0
   -3.6000   22.1680  -31.4210 N   0  0  0  0  0  0  0  0  0  0  0  0
   -4.7060   22.9980  -31.0260 C   0  0  0  0  0  0  0  0  0  0  0  0
   -6.0270   22.5690  -31.2350 C   0  0  0  0  0  0  0  0  0  0  0  0
   -7.0990   23.3850  -30.8610 C   0  0  0  0  0  0  0  0  0  0  0  0
   -6.8610   24.6360  -30.2840 C   0  0  0  0  0  0  0  0  0  0  0  0
   -5.5500   25.0710  -30.0790 C   0  0  0  0  0  0  0  0  0  0  0  0
   -4.4740   24.2580  -30.4510 C   0  0  0  0  0  0  0  0  0  0  0  0
   -3.2530   21.8680  -32.6890 C   0  0  0  0  0  0  0  0  0  0  0  0
   -3.8500   22.2900  -33.7180 O   0  0  0  0  0  0  0  0  0  0  0  0
    1.2840   18.4370  -34.8890 C   0  0  0  0  0  0  0  0  0  0  0  0
    1.5290   18.1280  -33.5070 N   0  0  0  0  0  0  0  0  0  0  0  0
    0.7350   17.2910  -32.6530 C   0  0  0  0  0  0  0  0  0  0  0  0
    0.9270   17.3350  -31.4110 O   0  0  0  0  0  0  0  0  0  0  0  0
   -0.2620   16.4020  -33.1680 N   0  0  0  0  0  0  0  0  0  0  0  0
   -1.6380   16.7350  -33.3910 C   0  0  0  0  0  0  0  0  0  0  0  0
   -1.9630   17.7280  -34.3210 C   0  0  0  0  0  0  0  0  0  0  0  0
   -3.2980   18.0790  -34.5400 C   0  0  0  0  0  0  0  0  0  0  0  0
   -4.3230   17.4240  -33.8420 C   0  0  0  0  0  0  0  0  0  0  0  0
   -6.0100   17.8880  -34.0870 S   0  0  0  0  0  0  0  0  0  0  0  0
   -6.8270   16.6510  -34.3380 O   0  0  0  0  0  0  0  0  0  0  0  0
   -6.1060   18.7650  -35.3050 O   0  0  0  0  0  0  0  0  0  0  0  0
   -6.6780   18.7410  -32.7140 N   0  0  0  0  0  0  0  0  0  0  0  0
   -7.7280   17.9730  -32.0420 C   0  0  0  0  0  0  0  0  0  0  0  0
   -8.7610   18.9690  -31.5200 C   0  0  0  0  0  0  0  0  0  0  0  0
   -8.3100   20.3270  -32.0270 C   0  0  0  0  0  0  0  0  0  0  0  0
   -7.2860   20.0130  -33.0980 C   0  0  0  0  0  0  0  0  0  0  0  0
   -4.0010   16.3850  -32.9600 C   0  0  0  0  0  0  0  0  0  0  0  0
   -2.6640   16.0410  -32.7370 C   0  0  0  0  0  0  0  0  0  0  0  0
   -0.3777   14.7000  -35.1121 H   0  0  0  0  0  0  0  0  0  0  0  0
   -0.2802   15.7364  -36.5760 H   0  0  0  0  0  0  0  0  0  0  0  0
    0.4788   14.1083  -36.5760 H   0  0  0  0  0  0  0  0  0  0  0  0
    1.3733   16.8770  -37.9462 H   0  0  0  0  0  0  0  0  0  0  0  0
    0.7878   19.1742  -38.6995 H   0  0  0  0  0  0  0  0  0  0  0  0
    0.3736   20.9649  -37.0289 H   0  0  0  0  0  0  0  0  0  0  0  0
   -0.7648   20.0467  -29.6907 H   0  0  0  0  0  0  0  0  0  0  0  0
   -0.8051   18.9829  -31.1376 H   0  0  0  0  0  0  0  0  0  0  0  0
    0.2158   20.4609  -31.1376 H   0  0  0  0  0  0  0  0  0  0  0  0
   -2.5258   20.6532  -28.7080 H   0  0  0  0  0  0  0  0  0  0  0  0
   -2.0447   22.3811  -28.8056 H   0  0  0  0  0  0  0  0  0  0  0  0
   -3.7838   21.9316  -28.8056 H   0  0  0  0  0  0  0  0  0  0  0  0
   -6.2188   21.5881  -31.6943 H   0  0  0  0  0  0  0  0  0  0  0  0
   -8.1318   23.0420  -31.0211 H   0  0  0  0  0  0  0  0  0  0  0  0
   -7.7057   25.2771  -29.9917 H   0  0  0  0  0  0  0  0  0  0  0  0
   -5.3630   26.0549  -29.6241 H   0  0  0  0  0  0  0  0  0  0  0  0
   -3.4429   24.6068  -30.2926 H   0  0  0  0  0  0  0  0  0  0  0  0
   -1.1644   18.2349  -34.8825 H   0  0  0  0  0  0  0  0  0  0  0  0
   -3.5455   18.8712  -35.2619 H   0  0  0  0  0  0  0  0  0  0  0  0
   -8.2005   17.2799  -32.7536 H   0  0  0  0  0  0  0  0  0  0  0  0
   -7.3073   17.3816  -31.2155 H   0  0  0  0  0  0  0  0  0  0  0  0
   -9.7604   18.7259  -31.9101 H   0  0  0  0  0  0  0  0  0  0  0  0
   -8.8303   18.9464  -30.4224 H   0  0  0  0  0  0  0  0  0  0  0  0
   -9.1579   20.8844  -32.4517 H   0  0  0  0  0  0  0  0  0  0  0  0
   -7.8960   20.9558  -31.2250 H   0  0  0  0  0  0  0  0  0  0  0  0
   -7.7749   19.9221  -34.0792 H   0  0  0  0  0  0  0  0  0  0  0  0
   -6.5329   20.8104  -33.1813 H   0  0  0  0  0  0  0  0  0  0  0  0
   -4.8020   15.8379  -32.4412 H   0  0  0  0  0  0  0  0  0  0  0  0
   -2.4171   15.2222  -32.0452 H   0  0  0  0  0  0  0  0  0  0  0  0
  1  2  1  0
  2  3  1  0
  3  4  2  0
  4  5  1  0
  5  6  2  0
  6  7  1  0
  7  8  1  0
  8  9  2  0
  8 10  2  0
  8 11  1  0
 11 12  1  0
 12 13  2  0
 13 14  1  0
 13 15  1  0
 15 16  1  0
 15 17  1  0
 17 18  1  0
 18 19  2  0
 19 20  1  0
 20 21  2  0
 21 22  1  0
 22 23  2  0
 17 24  1  0
 24 25  2  0
  7 26  2  0
 26 27  1  0
 27 28  1  0
 28 29  2  0
 28 30  1  0
 30 31  1  0
 31 32  2  0
 32 33  1  0
 33 34  2  0
 34 35  1  0
 35 36  2  0
 35 37  2  0
 35 38  1  0
 38 39  1  0
 39 40  1  0
 40 41  1  0
 41 42  1  0
 34 43  1  0
 43 44  2  0
 26  3  1  0
 44 31  1  0
 24 12  1  0
 42 38  1  0
 23 18  1  0
  1 45  1  0
  1 46  1  0
  1 47  1  0
  4 48  1  0
  5 49  1  0
  6 50  1  0
 14 51  1  0
 14 52  1  0
 14 53  1  0
 16 54  1  0
 16 55  1  0
 16 56  1  0
 19 57  1  0
 20 58  1  0
 21 59  1  0
 22 60  1  0
 23 61  1  0
 32 62  1  0
 33 63  1  0
 39 64  1  0
 39 65  1  0
 40 66  1  0
 40 67  1  0
 41 68  1  0
 41 69  1  0
 42 70  1  0
 42 71  1  0
 43 72  1  0
 44 73  1  0
M  CHG  3  11  -1  27  -1  30  -1
M  END
>  <UniqueID>  (11) 
10

>  <SMILES>  (11) 
CSc1cccc(S(=O)(=O)[N-]c2c(C)n(C)n(-c3ccccc3)c2=O)c1[N-]C(=O)[N-]c1ccc(S(=O)(=O)N2CCCC2)cc1

>  <Energy>  (11) 
137.86298561955036

>  <Genealogy>  (11) 
CSc1cccc(S(=O)(=O)[N-]c2c(C)n(C)n(-c3ccccc3)c2=O)c1[N-]C(=O)[N-]c1ccc(S(=O)(=O)N2CCCC2)cc1 (protonated)
CSc1cccc(S(=O)(=O)[N-]c2c(C)n(C)n(-c3ccccc3)c2=O)c1[N-]C(=O)[N-]c1ccc(S(=O)(=O)N2CCCC2)cc1 (3D coordinates assigned)
CSc1cccc(S(=O)(=O)[N-]c2c(C)n(C)n(-c3ccccc3)c2=O)c1[N-]C(=O)[N-]c1ccc(S(=O)(=O)N2CCCC2)cc1 (nonaromatic ring conformer: 137.86298561955036 kcal/mol)

>  <smiles>  (11) 
CSc1cccc(S(=O)(=O)Nc2c(C)n(C)n(-c3ccccc3)c2=O)c1NC(=O)Nc1ccc(S(=O)(=O)N2CCCC2)cc1

>  <score_type>  (11) 
oracle

>  <origin>  (11) 
adgpu

>  <m_score__min__energy>  (11) 
-14.880000000000001

>  <m_primary>  (11) 
energy

$$$$
11:0
     RDKit          3D

 53 56  0  0  0  0  0  0  0  0999 V2000
   -2.0300   19.4250  -27.2380 O   0  0  0  0  0  0  0  0  0  0  0  0
   -0.9110   19.8840  -28.1310 S   0  0  0  0  0  0  0  0  0  0  0  0
    0.3860   19.7200  -27.3870 O   0  0  0  0  0  0  0  0  0  0  0  0
   -0.8520   18.9320  -29.5800 N   0  0  0  0  0  0  0  0  0  0  0  0
   -0.1220   19.3320  -30.7480 C   0  0  0  0  0  0  0  0  0  0  0  0
   -0.8180   19.9310  -31.8020 C   0  0  0  0  0  0  0  0  0  0  0  0
   -0.1560   20.3280  -32.9740 C   0  0  0  0  0  0  0  0  0  0  0  0
    1.2330   20.0780  -33.1030 C   0  0  0  0  0  0  0  0  0  0  0  0
    1.9360   19.5290  -32.0220 C   0  0  0  0  0  0  0  0  0  0  0  0
    1.2700   19.1760  -30.8410 C   0  0  0  0  0  0  0  0  0  0  0  0
    1.9920   18.7070  -29.7520 O   0  0  0  0  0  0  0  0  0  0  0  0
    2.0000   20.5140  -34.3270 C   0  0  0  0  0  0  0  0  0  0  0  0
    1.0900   20.7220  -35.5430 C   0  0  0  0  0  0  0  0  0  0  0  0
   -0.1030   21.6080  -35.1680 C   0  0  0  0  0  0  0  0  0  0  0  0
   -0.9670   20.9250  -34.1050 C   0  0  0  0  0  0  0  0  0  0  0  0
   -1.1180   21.5810  -28.5620 C   0  0  0  0  0  0  0  0  0  0  0  0
   -0.0440   22.4740  -28.4650 C   0  0  0  0  0  0  0  0  0  0  0  0
   -0.2360   23.8320  -28.7260 C   0  0  0  0  0  0  0  0  0  0  0  0
   -1.4990   24.3130  -29.0860 C   0  0  0  0  0  0  0  0  0  0  0  0
   -1.6600   25.6740  -29.3280 O   0  0  0  0  0  0  0  0  0  0  0  0
   -2.5860   23.4220  -29.1910 C   0  0  0  0  0  0  0  0  0  0  0  0
   -4.1980   23.9790  -29.6580 S   0  0  0  0  0  0  0  0  0  0  0  0
   -4.8240   24.7210  -28.5090 O   0  0  0  0  0  0  0  0  0  0  0  0
   -4.0580   24.9540  -30.7960 O   0  0  0  0  0  0  0  0  0  0  0  0
   -5.2670   22.6770  -30.1390 N   0  0  0  0  0  0  0  0  0  0  0  0
   -6.6510   23.1090  -30.4070 C   0  0  0  0  0  0  0  0  0  0  0  0
   -6.8900   23.4570  -31.8810 C   0  0  0  0  0  0  0  0  0  0  0  0
   -6.4610   22.4080  -32.7220 O   0  0  0  0  0  0  0  0  0  0  0  0
   -5.0670   22.2670  -32.5990 C   0  0  0  0  0  0  0  0  0  0  0  0
   -4.6980   21.8080  -31.1830 C   0  0  0  0  0  0  0  0  0  0  0  0
   -2.3810   22.0570  -28.9390 C   0  0  0  0  0  0  0  0  0  0  0  0
   -1.9021   20.0938  -31.7113 H   0  0  0  0  0  0  0  0  0  0  0  0
    3.0221   19.3736  -32.1016 H   0  0  0  0  0  0  0  0  0  0  0  0
    1.5680   18.6130  -28.8360 H   0  0  0  0  0  0  0  0  0  0  0  0
    2.5132   21.4610  -34.1036 H   0  0  0  0  0  0  0  0  0  0  0  0
    2.7159   19.7168  -34.5760 H   0  0  0  0  0  0  0  0  0  0  0  0
    1.6635   21.2065  -36.3470 H   0  0  0  0  0  0  0  0  0  0  0  0
    0.7174   19.7445  -35.8829 H   0  0  0  0  0  0  0  0  0  0  0  0
    0.2676   22.5652  -34.7726 H   0  0  0  0  0  0  0  0  0  0  0  0
   -0.7144   21.7790  -36.0663 H   0  0  0  0  0  0  0  0  0  0  0  0
   -1.6587   21.6698  -33.6846 H   0  0  0  0  0  0  0  0  0  0  0  0
   -1.5009   20.0989  -34.5974 H   0  0  0  0  0  0  0  0  0  0  0  0
    0.9530   22.1049  -28.1826 H   0  0  0  0  0  0  0  0  0  0  0  0
    0.6119   24.5284  -28.6480 H   0  0  0  0  0  0  0  0  0  0  0  0
   -7.3344   22.2953  -30.1227 H   0  0  0  0  0  0  0  0  0  0  0  0
   -6.8336   24.0198  -29.8179 H   0  0  0  0  0  0  0  0  0  0  0  0
   -7.9645   23.6300  -32.0406 H   0  0  0  0  0  0  0  0  0  0  0  0
   -6.3146   24.3618  -32.1263 H   0  0  0  0  0  0  0  0  0  0  0  0
   -4.7128   21.5208  -33.3255 H   0  0  0  0  0  0  0  0  0  0  0  0
   -4.5918   23.2398  -32.7935 H   0  0  0  0  0  0  0  0  0  0  0  0
   -5.0756   20.7856  -31.0346 H   0  0  0  0  0  0  0  0  0  0  0  0
   -3.6026   21.8533  -31.0933 H   0  0  0  0  0  0  0  0  0  0  0  0
   -3.2205   21.3531  -29.0384 H   0  0  0  0  0  0  0  0  0  0  0  0
  1  2  2  0
  2  3  2  0
  2  4  1  0
  4  5  1  0
  5  6  2  0
  6  7  1  0
  7  8  2  0
  8  9  1  0
  9 10  2  0
 10 11  1  0
  8 12  1  0
 12 13  1  0
 13 14  1  0
 14 15  1  0
  2 16  1  0
 16 17  2  0
 17 18  1  0
 18 19  2  0
 19 20  1  0
 19 21  1  0
 21 22  1  0
 22 23  2  0
 22 24  2  0
 22 25  1  0
 25 26  1  0
 26 27  1  0
 27 28  1  0
 28 29  1  0
 29 30  1  0
 21 31  2  0
 10  5  1  0
 31 16  1  0
 15  7  1  0
 30 25  1  0
  6 32  1  0
  9 33  1  0
 11 34  1  0
 12 35  1  0
 12 36  1  0
 13 37  1  0
 13 38  1  0
 14 39  1  0
 14 40  1  0
 15 41  1  0
 15 42  1  0
 17 43  1  0
 18 44  1  0
 26 45  1  0
 26 46  1  0
 27 47  1  0
 27 48  1  0
 29 49  1  0
 29 50  1  0
 30 51  1  0
 30 52  1  0
 31 53  1  0
M  CHG  2   4  -1  20  -1
M  END
>  <UniqueID>  (12) 
11

>  <SMILES>  (12) 
O=S(=O)([N-]c1cc2c(cc1O)CCCC2)c1ccc([O-])c(S(=O)(=O)N2CCOCC2)c1

>  <Energy>  (12) 
66.01336618323832

>  <Genealogy>  (12) 
O=S(=O)([N-]c1cc2c(cc1O)CCCC2)c1ccc([O-])c(S(=O)(=O)N2CCOCC2)c1 (protonated)
O=S(=O)([N-]c1cc2c(cc1O)CCCC2)c1ccc([O-])c(S(=O)(=O)N2CCOCC2)c1 (3D coordinates assigned)
O=S(=O)([N-]c1cc2c(cc1O)CCCC2)c1ccc([O-])c(S(=O)(=O)N2CCOCC2)c1 (nonaromatic ring conformer: 66.01336618323832 kcal/mol)

>  <smiles>  (12) 
O=S(=O)(Nc1cc2c(cc1O)CCCC2)c1ccc(O)c(S(=O)(=O)N2CCOCC2)c1

>  <score_type>  (12) 
oracle

>  <origin>  (12) 
adgpu

>  <m_score__min__energy>  (12) 
-12.140000000000001

>  <m_primary>  (12) 
energy

$$$$
12:0
     RDKit          3D

 50 53  0  0  0  0  0  0  0  0999 V2000
   -8.4640   22.7220  -31.9350 C   0  0  0  0  0  0  0  0  0  0  0  0
   -7.9440   21.3280  -32.1300 C   0  0  0  0  0  0  0  0  0  0  0  0
   -8.7500   20.2240  -31.8150 C   0  0  0  0  0  0  0  0  0  0  0  0
   -8.2520   18.9270  -31.9600 C   0  0  0  0  0  0  0  0  0  0  0  0
   -6.9450   18.7220  -32.4100 C   0  0  0  0  0  0  0  0  0  0  0  0
   -6.1210   19.8170  -32.7190 C   0  0  0  0  0  0  0  0  0  0  0  0
   -4.7260   19.6060  -33.1780 C   0  0  0  0  0  0  0  0  0  0  0  0
   -4.4320   18.5250  -34.0170 C   0  0  0  0  0  0  0  0  0  0  0  0
   -3.1360   18.3320  -34.4760 C   0  0  0  0  0  0  0  0  0  0  0  0
   -2.1300   19.2150  -34.0910 C   0  0  0  0  0  0  0  0  0  0  0  0
   -2.3940   20.2680  -33.2530 N   0  0  0  0  0  0  0  0  0  0  0  0
   -1.2720   21.1640  -32.8780 C   0  0  2  0  0  0  0  0  0  0  0  0
   -0.1290   21.0650  -33.8790 C   0  0  0  0  0  0  0  0  0  0  0  0
   -0.1160   21.9430  -34.9750 C   0  0  0  0  0  0  0  0  0  0  0  0
    0.9020   21.8760  -35.9320 C   0  0  0  0  0  0  0  0  0  0  0  0
    1.9190   20.9240  -35.8080 C   0  0  0  0  0  0  0  0  0  0  0  0
    2.9670   20.8540  -36.7930 C   0  0  0  0  0  0  0  0  0  0  0  0
    3.8080   20.7980  -37.5850 N   0  0  0  0  0  0  0  0  0  0  0  0
    1.9120   20.0350  -34.7270 C   0  0  0  0  0  0  0  0  0  0  0  0
    0.8960   20.1000  -33.7700 C   0  0  0  0  0  0  0  0  0  0  0  0
   -0.8540   20.9710  -31.4320 C   0  0  0  0  0  0  0  0  0  0  0  0
    0.0370   19.6780  -30.8110 S   0  0  0  0  0  0  0  0  0  0  0  0
    0.0030   20.2580  -29.2350 C   0  0  0  0  0  0  0  0  0  0  0  0
    0.5760   19.5480  -28.0570 C   0  0  0  0  0  0  0  0  0  0  0  0
   -0.6990   21.4070  -29.1460 N   0  0  0  0  0  0  0  0  0  0  0  0
   -1.1720   21.8100  -30.3560 C   0  0  0  0  0  0  0  0  0  0  0  0
   -1.9440   23.0050  -30.4850 N   0  0  0  0  0  0  0  0  0  0  0  0
   -3.6790   20.4730  -32.7950 C   0  0  0  0  0  0  0  0  0  0  0  0
   -3.9320   21.4380  -32.0210 O   0  0  0  0  0  0  0  0  0  0  0  0
   -6.6260   21.1200  -32.5630 C   0  0  0  0  0  0  0  0  0  0  0  0
   -8.5440   22.9364  -30.8591 H   0  0  0  0  0  0  0  0  0  0  0  0
   -7.7731   23.4397  -32.4015 H   0  0  0  0  0  0  0  0  0  0  0  0
   -9.4561   22.8119  -32.4015 H   0  0  0  0  0  0  0  0  0  0  0  0
   -9.7769   20.3800  -31.4529 H   0  0  0  0  0  0  0  0  0  0  0  0
   -8.8906   18.0643  -31.7192 H   0  0  0  0  0  0  0  0  0  0  0  0
   -6.5594   17.6980  -32.5228 H   0  0  0  0  0  0  0  0  0  0  0  0
   -5.2291   17.8272  -34.3132 H   0  0  0  0  0  0  0  0  0  0  0  0
   -2.9049   17.4862  -35.1402 H   0  0  0  0  0  0  0  0  0  0  0  0
   -1.1066   19.0652  -34.4654 H   0  0  0  0  0  0  0  0  0  0  0  0
   -1.6250   22.2043  -32.9339 H   0  0  0  0  0  0  0  0  0  0  0  0
   -0.9150   22.6915  -35.0820 H   0  0  0  0  0  0  0  0  0  0  0  0
    0.9026   22.5729  -36.7831 H   0  0  0  0  0  0  0  0  0  0  0  0
    2.7088   19.2828  -34.6305 H   0  0  0  0  0  0  0  0  0  0  0  0
    0.8947   19.3946  -32.9259 H   0  0  0  0  0  0  0  0  0  0  0  0
    0.2021   20.0113  -27.1321 H   0  0  0  0  0  0  0  0  0  0  0  0
    0.2756   18.4902  -28.0846 H   0  0  0  0  0  0  0  0  0  0  0  0
    1.6734   19.6183  -28.0846 H   0  0  0  0  0  0  0  0  0  0  0  0
   -1.5470   23.9420  -30.2520 H   0  0  0  0  0  0  0  0  0  0  0  0
   -2.9310   22.9530  -30.8210 H   0  0  0  0  0  0  0  0  0  0  0  0
   -5.9817   21.9841  -32.7825 H   0  0  0  0  0  0  0  0  0  0  0  0
  1  2  1  0
  2  3  2  0
  3  4  1  0
  4  5  2  0
  5  6  1  0
  6  7  1  0
  7  8  2  0
  8  9  1  0
  9 10  2  0
 10 11  1  0
 11 12  1  0
 12 13  1  0
 13 14  2  0
 14 15  1  0
 15 16  2  0
 16 17  1  0
 17 18  3  0
 16 19  1  0
 19 20  2  0
 12 21  1  0
 21 22  1  0
 22 23  1  0
 23 24  1  0
 23 25  2  0
 25 26  1  0
 26 27  1  0
 11 28  1  0
 28 29  2  0
  6 30  2  0
 30  2  1  0
 28  7  1  0
 20 13  1  0
 26 21  2  0
  1 31  1  0
  1 32  1  0
  1 33  1  0
  3 34  1  0
  4 35  1  0
  5 36  1  0
  8 37  1  0
  9 38  1  0
 10 39  1  0
 12 40  1  1
 14 41  1  0
 15 42  1  0
 19 43  1  0
 20 44  1  0
 24 45  1  0
 24 46  1  0
 24 47  1  0
 27 48  1  0
 27 49  1  0
 30 50  1  0
M  END
>  <UniqueID>  (13) 
12

>  <SMILES>  (13) 
Cc1cccc(-c2cccn([C@H](c3ccc(C#N)cc3)c3sc(C)nc3N)c2=O)c1

>  <Energy>  (13) 
93.96560419435453

>  <Genealogy>  (13) 
Cc1cccc(-c2cccn([C@H](c3ccc(C#N)cc3)c3sc(C)nc3N)c2=O)c1 (chirality)
Cc1cccc(-c2cccn([C@H](c3ccc(C#N)cc3)c3sc(C)nc3N)c2=O)c1 (3D coordinates assigned)
Cc1cccc(-c2cccn([C@H](c3ccc(C#N)cc3)c3sc(C)nc3N)c2=O)c1 (optimized conformer: 93.96560419435453 kcal/mol)

>  <smiles>  (13) 
Cc1cccc(-c2cccn(C(c3ccc(C#N)cc3)c3sc(C)nc3N)c2=O)c1

>  <score_type>  (13) 
oracle

>  <origin>  (13) 
adgpu

>  <m_score__min__energy>  (13) 
-9.4900000000000002

>  <m_primary>  (13) 
energy

$$$$
13:0
     RDKit          3D

 47 50  0  0  0  0  0  0  0  0999 V2000
   -5.3950   26.3950  -30.5130 O   0  0  0  0  0  0  0  0  0  0  0  0
   -4.9480   25.2170  -30.4780 C   0  0  0  0  0  0  0  0  0  0  0  0
   -3.5290   25.0150  -30.4740 N   0  0  0  0  0  0  0  0  0  0  0  0
   -2.8600   23.8030  -30.0950 C   0  0  0  0  0  0  0  0  0  0  0  0
   -2.9450   22.6530  -30.8980 C   0  0  0  0  0  0  0  0  0  0  0  0
   -2.3360   21.4620  -30.4930 C   0  0  0  0  0  0  0  0  0  0  0  0
   -1.6520   21.4050  -29.2770 C   0  0  0  0  0  0  0  0  0  0  0  0
   -1.5720   22.5390  -28.4660 C   0  0  0  0  0  0  0  0  0  0  0  0
   -2.1720   23.7420  -28.8670 C   0  0  0  0  0  0  0  0  0  0  0  0
   -2.0470   24.9060  -28.0360 N   0  0  0  0  0  0  0  0  0  0  0  0
   -0.9730   25.8730  -28.3070 C   0  0  0  0  0  0  0  0  0  0  0  0
   -0.8710   26.9220  -27.1920 C   0  0  0  0  0  0  0  0  0  0  0  0
   -0.8670   26.2470  -25.8140 C   0  0  0  0  0  0  0  0  0  0  0  0
   -2.0520   25.2760  -25.6000 C   0  0  0  0  0  0  0  0  0  0  0  0
   -2.9070   25.0630  -26.8580 C   0  0  0  0  0  0  0  0  0  0  0  0
   -5.8950   24.0890  -30.5020 C   0  0  0  0  0  0  0  0  0  0  0  0
   -5.8540   22.9950  -31.3480 C   0  0  0  0  0  0  0  0  0  0  0  0
   -6.9670   22.2500  -30.9990 C   0  0  0  0  0  0  0  0  0  0  0  0
   -7.3940   20.9650  -31.6090 C   0  0  0  0  0  0  0  0  0  0  0  0
   -6.5100   20.2270  -32.4180 C   0  0  0  0  0  0  0  0  0  0  0  0
   -6.9160   19.0180  -32.9940 C   0  0  0  0  0  0  0  0  0  0  0  0
   -8.2070   18.5330  -32.7700 C   0  0  0  0  0  0  0  0  0  0  0  0
   -9.0940   19.2570  -31.9710 C   0  0  0  0  0  0  0  0  0  0  0  0
   -8.6930   20.4660  -31.3930 C   0  0  0  0  0  0  0  0  0  0  0  0
   -7.6210   22.8930  -30.0100 N   0  0  0  0  0  0  0  0  0  0  0  0
   -6.9810   24.0110  -29.7080 N   0  0  0  0  0  0  0  0  0  0  0  0
   -3.4938   22.6903  -31.8506 H   0  0  0  0  0  0  0  0  0  0  0  0
   -2.3956   20.5690  -31.1326 H   0  0  0  0  0  0  0  0  0  0  0  0
   -1.1759   20.4662  -28.9577 H   0  0  0  0  0  0  0  0  0  0  0  0
   -1.0354   22.4887  -27.5071 H   0  0  0  0  0  0  0  0  0  0  0  0
   -0.0166   25.3346  -28.3807 H   0  0  0  0  0  0  0  0  0  0  0  0
   -1.2026   26.3907  -29.2500 H   0  0  0  0  0  0  0  0  0  0  0  0
    0.0606   27.4934  -27.3173 H   0  0  0  0  0  0  0  0  0  0  0  0
   -1.7404   27.5929  -27.2557 H   0  0  0  0  0  0  0  0  0  0  0  0
    0.0704   25.6817  -25.7057 H   0  0  0  0  0  0  0  0  0  0  0  0
   -0.9620   27.0445  -25.0624 H   0  0  0  0  0  0  0  0  0  0  0  0
   -1.6507   24.3020  -25.2832 H   0  0  0  0  0  0  0  0  0  0  0  0
   -2.7052   25.7270  -24.8384 H   0  0  0  0  0  0  0  0  0  0  0  0
   -3.5191   24.1577  -26.7320 H   0  0  0  0  0  0  0  0  0  0  0  0
   -3.5563   25.9391  -27.0025 H   0  0  0  0  0  0  0  0  0  0  0  0
   -5.1063   22.7686  -32.1224 H   0  0  0  0  0  0  0  0  0  0  0  0
   -5.4923   20.6033  -32.5989 H   0  0  0  0  0  0  0  0  0  0  0  0
   -6.2173   18.4484  -33.6244 H   0  0  0  0  0  0  0  0  0  0  0  0
   -8.5242   17.5819  -33.2226 H   0  0  0  0  0  0  0  0  0  0  0  0
  -10.1108   18.8757  -31.7956 H   0  0  0  0  0  0  0  0  0  0  0  0
   -9.3975   21.0311  -30.7651 H   0  0  0  0  0  0  0  0  0  0  0  0
   -8.5090   22.5990  -29.5490 H   0  0  0  0  0  0  0  0  0  0  0  0
  1  2  2  0
  2  3  1  0
  3  4  1  0
  4  5  2  0
  5  6  1  0
  6  7  2  0
  7  8  1  0
  8  9  2  0
  9 10  1  0
 10 11  1  0
 11 12  1  0
 12 13  1  0
 13 14  1  0
 14 15  1  0
  2 16  1  0
 16 17  1  0
 17 18  2  0
 18 19  1  0
 19 20  2  0
 20 21  1  0
 21 22  2  0
 22 23  1  0
 23 24  2  0
 18 25  1  0
 25 26  1  0
  9  4  1  0
 15 10  1  0
 26 16  2  0
 24 19  1  0
  5 27  1  0
  6 28  1  0
  7 29  1  0
  8 30  1  0
 11 31  1  0
 11 32  1  0
 12 33  1  0
 12 34  1  0
 13 35  1  0
 13 36  1  0
 14 37  1  0
 14 38  1  0
 15 39  1  0
 15 40  1  0
 17 41  1  0
 20 42  1  0
 21 43  1  0
 22 44  1  0
 23 45  1  0
 24 46  1  0
 25 47  1  0
M  CHG  1   3  -1
M  END
>  <UniqueID>  (14) 
13

>  <SMILES>  (14) 
O=C([N-]c1ccccc1N1CCCCC1)c1cc(-c2ccccc2)[nH]n1

>  <Energy>  (14) 
93.03597761173118

>  <Genealogy>  (14) 
O=C([N-]c1ccccc1N1CCCCC1)c1cc(-c2ccccc2)[nH]n1 (protonated)
O=C([N-]c1ccccc1N1CCCCC1)c1cc(-c2ccccc2)[nH]n1 (3D coordinates assigned)
O=C([N-]c1ccccc1N1CCCCC1)c1cc(-c2ccccc2)[nH]n1 (nonaromatic ring conformer: 93.03597761173118 kcal/mol)

>  <smiles>  (14) 
O=C(Nc1ccccc1N1CCCCC1)c1cc(-c2ccccc2)[nH]n1

>  <score_type>  (14) 
oracle

>  <origin>  (14) 
adgpu

>  <m_score__min__energy>  (14) 
-10.880000000000001

>  <m_primary>  (14) 
energy

$$$$
14:0
     RDKit          3D

 44 46  0  0  0  0  0  0  0  0999 V2000
   -2.7370   20.8640  -31.7160 O   0  0  0  0  0  0  0  0  0  0  0  0
   -2.7750   21.9240  -31.0350 C   0  0  0  0  0  0  0  0  0  0  0  0
   -3.3940   23.0990  -31.5710 N   0  0  0  0  0  0  0  0  0  0  0  0
   -4.7080   23.5710  -31.2390 C   0  0  0  0  0  0  0  0  0  0  0  0
   -5.7990   22.7190  -31.4520 C   0  0  0  0  0  0  0  0  0  0  0  0
   -7.1020   23.1380  -31.1500 C   0  0  0  0  0  0  0  0  0  0  0  0
   -8.4750   22.0770  -31.4760 S   0  0  0  0  0  0  0  0  0  0  0  0
   -9.5410   22.8560  -32.1980 O   0  0  0  0  0  0  0  0  0  0  0  0
   -9.0510   21.5980  -30.1740 O   0  0  0  0  0  0  0  0  0  0  0  0
   -8.0040   20.6990  -32.4430 N   0  0  0  0  0  0  0  0  0  0  0  0
   -6.8040   20.0530  -31.8670 C   0  0  0  0  0  0  0  0  0  0  0  0
   -6.6130   18.6360  -32.4190 C   0  0  0  0  0  0  0  0  0  0  0  0
   -7.8010   17.7310  -32.0460 C   0  0  0  0  0  0  0  0  0  0  0  0
   -9.1000   18.5210  -31.8120 C   0  0  0  0  0  0  0  0  0  0  0  0
   -9.1470   19.7840  -32.6860 C   0  0  0  0  0  0  0  0  0  0  0  0
   -7.3070   24.4090  -30.5970 C   0  0  0  0  0  0  0  0  0  0  0  0
   -6.2210   25.2500  -30.3470 C   0  0  0  0  0  0  0  0  0  0  0  0
   -4.9220   24.8350  -30.6530 C   0  0  0  0  0  0  0  0  0  0  0  0
   -3.8540   25.6680  -30.3380 O   0  0  0  0  0  0  0  0  0  0  0  0
   -2.2790   21.9290  -29.6420 C   0  0  0  0  0  0  0  0  0  0  0  0
   -2.2520   20.7150  -28.9310 C   0  0  0  0  0  0  0  0  0  0  0  0
   -1.7310   20.6580  -27.6360 C   0  0  0  0  0  0  0  0  0  0  0  0
   -1.2290   21.8110  -27.0340 C   0  0  0  0  0  0  0  0  0  0  0  0
   -1.2660   23.0270  -27.7160 C   0  0  0  0  0  0  0  0  0  0  0  0
   -1.8030   23.1050  -29.0080 C   0  0  0  0  0  0  0  0  0  0  0  0
   -1.8760   24.3650  -29.6080 O   0  0  0  0  0  0  0  0  0  0  0  0
   -5.6317   21.7113  -31.8602 H   0  0  0  0  0  0  0  0  0  0  0  0
   -5.9185   20.6564  -32.1156 H   0  0  0  0  0  0  0  0  0  0  0  0
   -6.9365   19.9853  -30.7771 H   0  0  0  0  0  0  0  0  0  0  0  0
   -6.5293   18.6856  -33.5147 H   0  0  0  0  0  0  0  0  0  0  0  0
   -5.6985   18.2105  -31.9802 H   0  0  0  0  0  0  0  0  0  0  0  0
   -7.9676   17.0145  -32.8638 H   0  0  0  0  0  0  0  0  0  0  0  0
   -7.5477   17.2225  -31.1041 H   0  0  0  0  0  0  0  0  0  0  0  0
   -9.9592   17.8806  -32.0603 H   0  0  0  0  0  0  0  0  0  0  0  0
   -9.1366   18.8265  -30.7559 H   0  0  0  0  0  0  0  0  0  0  0  0
   -9.1341   19.4797  -33.7430 H   0  0  0  0  0  0  0  0  0  0  0  0
  -10.0665   20.3296  -32.4275 H   0  0  0  0  0  0  0  0  0  0  0  0
   -8.3269   24.7453  -30.3591 H   0  0  0  0  0  0  0  0  0  0  0  0
   -6.3886   26.2441  -29.9070 H   0  0  0  0  0  0  0  0  0  0  0  0
   -2.6454   19.8010  -29.3999 H   0  0  0  0  0  0  0  0  0  0  0  0
   -1.7168   19.7027  -27.0909 H   0  0  0  0  0  0  0  0  0  0  0  0
   -0.8036   21.7616  -26.0208 H   0  0  0  0  0  0  0  0  0  0  0  0
   -0.8699   23.9335  -27.2351 H   0  0  0  0  0  0  0  0  0  0  0  0
   -2.5910   24.6230  -30.2740 H   0  0  0  0  0  0  0  0  0  0  0  0
  1  2  2  0
  2  3  1  0
  3  4  1  0
  4  5  2  0
  5  6  1  0
  6  7  1  0
  7  8  2  0
  7  9  2  0
  7 10  1  0
 10 11  1  0
 11 12  1  0
 12 13  1  0
 13 14  1  0
 14 15  1  0
  6 16  2  0
 16 17  1  0
 17 18  2  0
 18 19  1  0
  2 20  1  0
 20 21  2  0
 21 22  1  0
 22 23  2  0
 23 24  1  0
 24 25  2  0
 25 26  1  0
 18  4  1  0
 25 20  1  0
 15 10  1  0
  5 27  1  0
 11 28  1  0
 11 29  1  0
 12 30  1  0
 12 31  1  0
 13 32  1  0
 13 33  1  0
 14 34  1  0
 14 35  1  0
 15 36  1  0
 15 37  1  0
 16 38  1  0
 17 39  1  0
 21 40  1  0
 22 41  1  0
 23 42  1  0
 24 43  1  0
 26 44  1  0
M  CHG  2   3  -1  19  -1
M  END
>  <UniqueID>  (15) 
14

>  <SMILES>  (15) 
O=C([N-]c1cc(S(=O)(=O)N2CCCCC2)ccc1[O-])c1ccccc1O

>  <Energy>  (15) 
60.82510853136716

>  <Genealogy>  (15) 
O=C([N-]c1cc(S(=O)(=O)N2CCCCC2)ccc1[O-])c1ccccc1O (protonated)
O=C([N-]c1cc(S(=O)(=O)N2CCCCC2)ccc1[O-])c1ccccc1O (3D coordinates assigned)
O=C([N-]c1cc(S(=O)(=O)N2CCCCC2)ccc1[O-])c1ccccc1O (nonaromatic ring conformer: 60.82510853136716 kcal/mol)

>  <smiles>  (15) 
O=C(Nc1cc(S(=O)(=O)N2CCCCC2)ccc1O)c1ccccc1O

>  <score_type>  (15) 
oracle

>  <origin>  (15) 
adgpu

>  <m_score__min__energy>  (15) 
-12.83

>  <m_primary>  (15) 
energy

$$$$
15:0
     RDKit          3D

 49 51  0  0  0  0  0  0  0  0999 V2000
   -2.5230   22.9491  -33.3527 H   0  0  0  0  0  0  0  0  0  0  0  0
   -2.7760   21.9250  -33.0410 C   0  0  0  0  0  0  0  0  0  0  0  0
   -1.8210   21.1370  -32.3940 C   0  0  0  0  0  0  0  0  0  0  0  0
   -0.8248   21.5500  -32.1772 H   0  0  0  0  0  0  0  0  0  0  0  0
   -2.1280   19.8240  -32.0210 C   0  0  0  0  0  0  0  0  0  0  0  0
   -1.1560   19.0480  -31.3110 N   0  0  0  0  0  0  0  0  0  0  0  0
   -0.6010   19.2570  -30.1450 C   0  0  0  0  0  0  0  0  0  0  0  0
    0.5790   18.6240  -29.9170 N   0  0  0  0  0  0  0  0  0  0  0  0
    1.3470   18.8930  -28.8350 C   0  0  0  0  0  0  0  0  0  0  0  0
    2.6580   18.1970  -28.6600 C   0  0  0  0  0  0  0  0  0  0  0  0
    2.8724   18.0832  -27.5871 H   0  0  0  0  0  0  0  0  0  0  0  0
    2.6121   17.2045  -29.1320 H   0  0  0  0  0  0  0  0  0  0  0  0
    3.4544   18.7911  -29.1320 H   0  0  0  0  0  0  0  0  0  0  0  0
    0.9490   19.8910  -27.9560 C   0  0  0  0  0  0  0  0  0  0  0  0
    1.6077   20.2086  -27.1343 H   0  0  0  0  0  0  0  0  0  0  0  0
   -0.2990   20.4830  -28.1330 C   0  0  0  0  0  0  0  0  0  0  0  0
   -0.6780   21.3390  -27.2860 O   0  0  0  0  0  0  0  0  0  0  0  0
   -1.1150   20.1160  -29.1800 N   0  0  0  0  0  0  0  0  0  0  0  0
   -2.5720   20.3420  -29.0030 C   0  0  0  0  0  0  0  0  0  0  0  0
   -3.1293   19.6374  -29.6379 H   0  0  0  0  0  0  0  0  0  0  0  0
   -2.8354   20.1829  -27.9469 H   0  0  0  0  0  0  0  0  0  0  0  0
   -2.9280   21.7530  -29.3930 C   0  0  0  0  0  0  0  0  0  0  0  0
   -4.1770   22.0400  -29.9680 C   0  0  0  0  0  0  0  0  0  0  0  0
   -4.9135   21.2351  -30.1084 H   0  0  0  0  0  0  0  0  0  0  0  0
   -4.4880   23.3460  -30.3630 C   0  0  0  0  0  0  0  0  0  0  0  0
   -5.4699   23.5662  -30.8072 H   0  0  0  0  0  0  0  0  0  0  0  0
   -3.5530   24.3710  -30.1940 C   0  0  0  0  0  0  0  0  0  0  0  0
   -3.8620   25.6660  -30.5890 O   0  0  0  0  0  0  0  0  0  0  0  0
   -2.3040   24.0910  -29.6300 C   0  0  0  0  0  0  0  0  0  0  0  0
   -1.5676   24.8975  -29.4985 H   0  0  0  0  0  0  0  0  0  0  0  0
   -1.9900   22.7870  -29.2330 C   0  0  0  0  0  0  0  0  0  0  0  0
   -1.0050   22.5701  -28.7939 H   0  0  0  0  0  0  0  0  0  0  0  0
   -3.4240   19.3240  -32.2410 C   0  0  0  0  0  0  0  0  0  0  0  0
   -3.6844   18.3095  -31.9050 H   0  0  0  0  0  0  0  0  0  0  0  0
   -4.3850   20.1140  -32.8870 C   0  0  0  0  0  0  0  0  0  0  0  0
   -6.0050   19.4780  -33.1810 S   0  0  0  0  0  0  0  0  0  0  0  0
   -6.9470   20.6230  -33.4320 O   0  0  0  0  0  0  0  0  0  0  0  0
   -5.9830   18.6180  -34.4150 O   0  0  0  0  0  0  0  0  0  0  0  0
   -6.5830   18.5340  -31.8310 N   0  0  0  0  0  0  0  0  0  0  0  0
   -6.0840   17.1580  -31.9350 C   0  0  0  0  0  0  0  0  0  0  0  0
   -5.9343   16.7451  -30.9265 H   0  0  0  0  0  0  0  0  0  0  0  0
   -6.8162   16.5425  -32.4782 H   0  0  0  0  0  0  0  0  0  0  0  0
   -5.1275   17.1549  -32.4782 H   0  0  0  0  0  0  0  0  0  0  0  0
   -8.0510   18.5400  -31.8140 C   0  0  0  0  0  0  0  0  0  0  0  0
   -8.4056   18.5415  -30.7727 H   0  0  0  0  0  0  0  0  0  0  0  0
   -8.4200   19.4397  -32.3283 H   0  0  0  0  0  0  0  0  0  0  0  0
   -8.4273   17.6434  -32.3283 H   0  0  0  0  0  0  0  0  0  0  0  0
   -4.0530   21.4140  -33.2930 C   0  0  0  0  0  0  0  0  0  0  0  0
   -4.7993   22.0340  -33.8114 H   0  0  0  0  0  0  0  0  0  0  0  0
  1  2  1  0
  2  3  2  0
  3  4  1  0
  3  5  1  0
  5  6  1  0
  6  7  2  0
  7  8  1  0
  8  9  1  0
  9 10  1  0
 10 11  1  0
 10 12  1  0
 10 13  1  0
  9 14  2  0
 14 15  1  0
 14 16  1  0
 16 17  2  0
 16 18  1  0
 18 19  1  0
 19 20  1  0
 19 21  1  0
 19 22  1  0
 22 23  2  0
 23 24  1  0
 23 25  1  0
 25 26  1  0
 25 27  2  0
 27 28  1  0
 27 29  1  0
 29 30  1  0
 29 31  2  0
 31 32  1  0
  5 33  2  0
 33 34  1  0
 33 35  1  0
 35 36  1  0
 36 37  2  0
 36 38  2  0
 36 39  1  0
 39 40  1  0
 40 41  1  0
 40 42  1  0
 40 43  1  0
 39 44  1  0
 44 45  1  0
 44 46  1  0
 44 47  1  0
 35 48  2  0
 48 49  1  0
 48  2  1  0
 18  7  1  0
 31 22  1  0
M  CHG  2   8  -1  28  -1
M  END
>  <UniqueID>  (16) 
15

>  <SMILES>  (16) 
Cc1cc(=O)n(Cc2ccc([O-])cc2)/c(=N\c2cccc(S(=O)(=O)N(C)C)c2)[n-]1

>  <Energy>  (16) 
73.35865098244815

>  <Genealogy>  (16) 
Cc1cc(=O)n(Cc2ccc([O-])cc2)c(=Nc2cccc(S(=O)(=O)N(C)C)c2)[n-]1 (protonated)
Cc1cc(=O)n(Cc2ccc([O-])cc2)/c(=N\c2cccc(S(=O)(=O)N(C)C)c2)[n-]1 (cis-trans isomerization)
Cc1cc(=O)n(Cc2ccc([O-])cc2)/c(=N\c2cccc(S(=O)(=O)N(C)C)c2)[n-]1 (3D coordinates assigned)
Cc1cc(=O)n(Cc2ccc([O-])cc2)/c(=N\c2cccc(S(=O)(=O)N(C)C)c2)[n-]1 (optimized conformer: 73.35865098244815 kcal/mol)

>  <smiles>  (16) 
Cc1cc(=O)n(Cc2ccc(O)cc2)c(=Nc2cccc(S(=O)(=O)N(C)C)c2)[nH]1

>  <score_type>  (16) 
oracle

>  <origin>  (16) 
adgpu

>  <m_score__min__energy>  (16) 
-10.83

>  <m_primary>  (16) 
energy

$$$$
16:0
     RDKit          3D

 49 51  0  0  0  0  0  0  0  0999 V2000
   -0.9710   19.6770  -27.9070 C   0  0  0  0  0  0  0  0  0  0  0  0
   -1.1130   21.0070  -28.5240 N   0  0  0  0  0  0  0  0  0  0  0  0
   -0.2580   21.1690  -29.7290 C   0  0  0  0  0  0  0  0  0  0  0  0
   -1.0410   21.2200  -31.0560 C   0  0  0  0  0  0  0  0  0  0  0  0
   -2.2120   20.2340  -31.0350 C   0  0  0  0  0  0  0  0  0  0  0  0
   -3.0700   20.2360  -32.6110 S   0  0  0  0  0  0  0  0  0  0  0  0
   -3.3970   18.8220  -33.0020 O   0  0  0  0  0  0  0  0  0  0  0  0
   -2.1760   20.8120  -33.6750 O   0  0  0  0  0  0  0  0  0  0  0  0
   -4.5480   21.2180  -32.4810 C   0  0  0  0  0  0  0  0  0  0  0  0
   -5.8100   20.6530  -32.7720 C   0  0  0  0  0  0  0  0  0  0  0  0
   -6.0000   18.9830  -33.3000 Cl  0  0  0  0  0  0  0  0  0  0  0  0
   -6.9640   21.4310  -32.6720 C   0  0  0  0  0  0  0  0  0  0  0  0
   -6.8870   22.7670  -32.2890 C   0  0  0  0  0  0  0  0  0  0  0  0
   -5.6450   23.3490  -31.9960 C   0  0  0  0  0  0  0  0  0  0  0  0
   -5.5590   24.7250  -31.5940 N   0  0  0  0  0  0  0  0  0  0  0  0
   -4.9470   25.2050  -30.3890 C   0  0  0  0  0  0  0  0  0  0  0  0
   -5.6820   25.5610  -29.4320 O   0  0  0  0  0  0  0  0  0  0  0  0
   -3.5230   25.2920  -30.2430 N   0  0  0  0  0  0  0  0  0  0  0  0
   -2.7660   24.8140  -29.1220 C   0  0  0  0  0  0  0  0  0  0  0  0
   -3.3800   24.5060  -27.8950 C   0  0  0  0  0  0  0  0  0  0  0  0
   -2.6110   24.0640  -26.8140 C   0  0  0  0  0  0  0  0  0  0  0  0
   -1.2280   23.9040  -26.9560 C   0  0  0  0  0  0  0  0  0  0  0  0
   -0.4360   23.4530  -25.8420 C   0  0  0  0  0  0  0  0  0  0  0  0
    0.2010   23.0920  -24.9470 N   0  0  0  0  0  0  0  0  0  0  0  0
   -0.6170   24.1790  -28.1870 C   0  0  0  0  0  0  0  0  0  0  0  0
   -1.3860   24.6240  -29.2670 C   0  0  0  0  0  0  0  0  0  0  0  0
   -4.4700   22.5830  -32.1200 C   0  0  0  0  0  0  0  0  0  0  0  0
   -3.2250   23.1690  -31.8830 O   0  0  0  0  0  0  0  0  0  0  0  0
   -3.1840   20.5450  -29.8750 C   0  0  0  0  0  0  0  0  0  0  0  0
   -2.5290   21.3650  -28.7450 C   0  0  0  0  0  0  0  0  0  0  0  0
   -0.9818   19.7779  -26.8117 H   0  0  0  0  0  0  0  0  0  0  0  0
   -1.8057   19.0346  -28.2243 H   0  0  0  0  0  0  0  0  0  0  0  0
   -0.0195   19.2253  -28.2243 H   0  0  0  0  0  0  0  0  0  0  0  0
    0.3089   22.1061  -29.6265 H   0  0  0  0  0  0  0  0  0  0  0  0
    0.3909   20.2821  -29.7782 H   0  0  0  0  0  0  0  0  0  0  0  0
   -1.4295   22.2380  -31.2065 H   0  0  0  0  0  0  0  0  0  0  0  0
   -0.3624   20.9438  -31.8765 H   0  0  0  0  0  0  0  0  0  0  0  0
   -1.8044   19.2262  -30.8669 H   0  0  0  0  0  0  0  0  0  0  0  0
   -7.9436   20.9844  -32.8979 H   0  0  0  0  0  0  0  0  0  0  0  0
   -7.8046   23.3692  -32.2158 H   0  0  0  0  0  0  0  0  0  0  0  0
   -4.4692   24.6132  -27.7852 H   0  0  0  0  0  0  0  0  0  0  0  0
   -3.0937   23.8418  -25.8509 H   0  0  0  0  0  0  0  0  0  0  0  0
    0.4685   24.0447  -28.3038 H   0  0  0  0  0  0  0  0  0  0  0  0
   -0.9046   24.8258  -30.2352 H   0  0  0  0  0  0  0  0  0  0  0  0
   -3.1190   24.1400  -31.6150 H   0  0  0  0  0  0  0  0  0  0  0  0
   -4.0354   21.1157  -30.2743 H   0  0  0  0  0  0  0  0  0  0  0  0
   -3.5007   19.5839  -29.4437 H   0  0  0  0  0  0  0  0  0  0  0  0
   -2.5849   22.4318  -29.0073 H   0  0  0  0  0  0  0  0  0  0  0  0
   -3.0752   21.1437  -27.8162 H   0  0  0  0  0  0  0  0  0  0  0  0
  1  2  1  0
  2  3  1  0
  3  4  1  0
  4  5  1  0
  5  6  1  0
  6  7  2  0
  6  8  2  0
  6  9  1  0
  9 10  2  0
 10 11  1  0
 10 12  1  0
 12 13  2  0
 13 14  1  0
 14 15  1  0
 15 16  1  0
 16 17  2  0
 16 18  1  0
 18 19  1  0
 19 20  2  0
 20 21  1  0
 21 22  2  0
 22 23  1  0
 23 24  3  0
 22 25  1  0
 25 26  2  0
 14 27  2  0
 27 28  1  0
  5 29  1  0
 29 30  1  0
 30  2  1  0
 27  9  1  0
 26 19  1  0
  1 31  1  0
  1 32  1  0
  1 33  1  0
  3 34  1  0
  3 35  1  0
  4 36  1  0
  4 37  1  0
  5 38  1  0
 12 39  1  0
 13 40  1  0
 20 41  1  0
 21 42  1  0
 25 43  1  0
 26 44  1  0
 28 45  1  0
 29 46  1  0
 29 47  1  0
 30 48  1  0
 30 49  1  0
M  CHG  2  15  -1  18  -1
M  END
>  <UniqueID>  (17) 
16

>  <SMILES>  (17) 
CN1CCC(S(=O)(=O)c2c(Cl)ccc([N-]C(=O)[N-]c3ccc(C#N)cc3)c2O)CC1

>  <Energy>  (17) 
65.42021325827416

>  <Genealogy>  (17) 
CN1CCC(S(=O)(=O)c2c(Cl)ccc([N-]C(=O)[N-]c3ccc(C#N)cc3)c2O)CC1 (protonated)
CN1CCC(S(=O)(=O)c2c(Cl)ccc([N-]C(=O)[N-]c3ccc(C#N)cc3)c2O)CC1 (3D coordinates assigned)
CN1CCC(S(=O)(=O)c2c(Cl)ccc([N-]C(=O)[N-]c3ccc(C#N)cc3)c2O)CC1 (nonaromatic ring conformer: 65.42021325827416 kcal/mol)

>  <smiles>  (17) 
CN1CCC(S(=O)(=O)c2c(Cl)ccc(NC(=O)Nc3ccc(C#N)cc3)c2O)CC1

>  <score_type>  (17) 
oracle

>  <origin>  (17) 
adgpu

>  <m_score__min__energy>  (17) 
-13.48

>  <m_primary>  (17) 
energy

$$$$
17:0
     RDKit          3D

 53 56  0  0  0  0  0  0  0  0999 V2000
   -1.6700   19.0090  -27.2480 C   0  0  0  0  0  0  0  0  0  0  0  0
   -1.6530   20.3070  -28.0080 C   0  0  0  0  0  0  0  0  0  0  0  0
   -2.4540   21.3650  -27.5410 C   0  0  0  0  0  0  0  0  0  0  0  0
   -2.4720   22.5960  -28.2010 C   0  0  0  0  0  0  0  0  0  0  0  0
   -3.4950   23.9320  -27.5850 S   0  0  0  0  0  0  0  0  0  0  0  0
   -4.2880   24.1680  -29.1700 C   0  0  0  0  0  0  0  0  0  0  0  0
   -3.8390   25.0230  -30.1110 N   0  0  0  0  0  0  0  0  0  0  0  0
   -4.5800   25.0220  -31.2180 N   0  0  0  0  0  0  0  0  0  0  0  0
   -5.6270   24.1720  -31.1570 C   0  0  0  0  0  0  0  0  0  0  0  0
   -6.4420   24.0070  -32.1590 N   0  0  0  0  0  0  0  0  0  0  0  0
   -7.6060   23.1670  -32.2030 C   0  0  0  0  0  0  0  0  0  0  0  0
   -8.7420   23.7100  -32.1690 O   0  0  0  0  0  0  0  0  0  0  0  0
   -7.5240   21.6900  -32.2540 C   0  0  0  0  0  0  0  0  0  0  0  0
   -8.6310   20.9390  -31.8230 C   0  0  0  0  0  0  0  0  0  0  0  0
   -8.6130   19.5450  -31.8970 C   0  0  0  0  0  0  0  0  0  0  0  0
   -7.4880   18.8840  -32.3920 C   0  0  0  0  0  0  0  0  0  0  0  0
   -6.3720   19.6170  -32.8000 C   0  0  0  0  0  0  0  0  0  0  0  0
   -6.3700   21.0150  -32.7210 C   0  0  0  0  0  0  0  0  0  0  0  0
   -5.2080   21.6940  -33.0900 O   0  0  0  0  0  0  0  0  0  0  0  0
   -5.6630   23.3440  -29.6810 S   0  0  0  0  0  0  0  0  0  0  0  0
   -1.6930   22.7850  -29.3420 C   0  0  0  0  0  0  0  0  0  0  0  0
   -0.8880   21.7500  -29.8170 C   0  0  0  0  0  0  0  0  0  0  0  0
   -0.8470   20.5090  -29.1620 C   0  0  0  0  0  0  0  0  0  0  0  0
    0.2040   19.2660  -29.8740 S   0  0  0  0  0  0  0  0  0  0  0  0
    1.6300   19.6380  -29.5700 O   0  0  0  0  0  0  0  0  0  0  0  0
   -0.0500   17.8990  -29.3030 O   0  0  0  0  0  0  0  0  0  0  0  0
   -0.0230   19.2310  -31.6060 N   0  0  0  0  0  0  0  0  0  0  0  0
   -1.4560   19.0570  -31.9550 C   0  0  0  0  0  0  0  0  0  0  0  0
   -2.1250   20.3600  -32.4150 C   0  0  0  0  0  0  0  0  0  0  0  0
   -1.4050   20.9520  -33.6390 C   0  0  0  0  0  0  0  0  0  0  0  0
    0.1050   20.6500  -33.6450 C   0  0  0  0  0  0  0  0  0  0  0  0
    0.6240   20.4100  -32.2250 C   0  0  0  0  0  0  0  0  0  0  0  0
   -1.6673   19.2165  -26.1678 H   0  0  0  0  0  0  0  0  0  0  0  0
   -2.5756   18.4424  -27.5102 H   0  0  0  0  0  0  0  0  0  0  0  0
   -0.7795   18.4189  -27.5102 H   0  0  0  0  0  0  0  0  0  0  0  0
   -3.0744   21.2210  -26.6442 H   0  0  0  0  0  0  0  0  0  0  0  0
   -9.5180   21.4533  -31.4245 H   0  0  0  0  0  0  0  0  0  0  0  0
   -9.4874   18.9664  -31.5644 H   0  0  0  0  0  0  0  0  0  0  0  0
   -7.4805   17.7862  -32.4607 H   0  0  0  0  0  0  0  0  0  0  0  0
   -5.4864   19.0916  -33.1870 H   0  0  0  0  0  0  0  0  0  0  0  0
   -5.1940   22.6780  -33.3210 H   0  0  0  0  0  0  0  0  0  0  0  0
   -1.7135   23.7510  -29.8677 H   0  0  0  0  0  0  0  0  0  0  0  0
   -0.2765   21.9083  -30.7176 H   0  0  0  0  0  0  0  0  0  0  0  0
   -1.5317   18.3187  -32.7669 H   0  0  0  0  0  0  0  0  0  0  0  0
   -1.9774   18.7232  -31.0458 H   0  0  0  0  0  0  0  0  0  0  0  0
   -3.1720   20.1517  -32.6804 H   0  0  0  0  0  0  0  0  0  0  0  0
   -2.0714   21.0887  -31.5927 H   0  0  0  0  0  0  0  0  0  0  0  0
   -1.8523   20.5271  -34.5497 H   0  0  0  0  0  0  0  0  0  0  0  0
   -1.5247   22.0447  -33.5980 H   0  0  0  0  0  0  0  0  0  0  0  0
    0.2893   19.7511  -34.2517 H   0  0  0  0  0  0  0  0  0  0  0  0
    0.6333   21.5169  -34.0685 H   0  0  0  0  0  0  0  0  0  0  0  0
    1.7105   20.2426  -32.2645 H   0  0  0  0  0  0  0  0  0  0  0  0
    0.3875   21.2947  -31.6156 H   0  0  0  0  0  0  0  0  0  0  0  0
  1  2  1  0
  2  3  2  0
  3  4  1  0
  4  5  1  0
  5  6  1  0
  6  7  2  0
  7  8  1  0
  8  9  1  0
  9 10  2  3
 10 11  1  0
 11 12  2  0
 11 13  1  0
 13 14  2  0
 14 15  1  0
 15 16  2  0
 16 17  1  0
 17 18  2  0
 18 19  1  0
  9 20  1  0
  4 21  2  0
 21 22  1  0
 22 23  2  0
 23 24  1  0
 24 25  2  0
 24 26  2  0
 24 27  1  0
 27 28  1  0
 28 29  1  0
 29 30  1  0
 30 31  1  0
 31 32  1  0
 23  2  1  0
 32 27  1  0
 20  6  1  0
 18 13  1  0
  1 33  1  0
  1 34  1  0
  1 35  1  0
  3 36  1  0
 14 37  1  0
 15 38  1  0
 16 39  1  0
 17 40  1  0
 19 41  1  0
 21 42  1  0
 22 43  1  0
 28 44  1  0
 28 45  1  0
 29 46  1  0
 29 47  1  0
 30 48  1  0
 30 49  1  0
 31 50  1  0
 31 51  1  0
 32 52  1  0
 32 53  1  0
M  CHG  1   8  -1
M  END
>  <UniqueID>  (18) 
17

>  <SMILES>  (18) 
Cc1cc(Sc2n[n-]c(=NC(=O)c3ccccc3O)s2)ccc1S(=O)(=O)N1CCCCC1

>  <Energy>  (18) 
105.75710408675096

>  <Genealogy>  (18) 
Cc1cc(Sc2n[n-]c(=NC(=O)c3ccccc3O)s2)ccc1S(=O)(=O)N1CCCCC1 (protonated)
Cc1cc(Sc2n[n-]c(=NC(=O)c3ccccc3O)s2)ccc1S(=O)(=O)N1CCCCC1 (3D coordinates assigned)
Cc1cc(Sc2n[n-]c(=NC(=O)c3ccccc3O)s2)ccc1S(=O)(=O)N1CCCCC1 (nonaromatic ring conformer: 105.75710408675096 kcal/mol)

>  <smiles>  (18) 
Cc1cc(Sc2n[nH]c(=NC(=O)c3ccccc3O)s2)ccc1S(=O)(=O)N1CCCCC1

>  <score_type>  (18) 
oracle

>  <origin>  (18) 
adgpu

>  <m_score__min__energy>  (18) 
-12.039999999999999

>  <m_primary>  (18) 
energy

$$$$
18:0
     RDKit          3D

 41 43  0  0  0  0  0  0  0  0999 V2000
   -6.4900   16.6350  -33.5150 C   0  0  0  0  0  0  0  0  0  0  0  0
   -6.6060   18.1090  -33.2650 C   0  0  0  0  0  0  0  0  0  0  0  0
   -7.7630   18.6430  -32.6780 C   0  0  0  0  0  0  0  0  0  0  0  0
   -7.8530   20.0140  -32.4190 C   0  0  0  0  0  0  0  0  0  0  0  0
   -6.7820   20.8680  -32.7180 C   0  0  0  0  0  0  0  0  0  0  0  0
   -6.9130   22.2790  -32.4690 N   0  0  0  0  0  0  0  0  0  0  0  0
   -7.3730   22.8340  -31.2250 C   0  0  0  0  0  0  0  0  0  0  0  0
   -8.0000   22.1130  -30.4040 O   0  0  0  0  0  0  0  0  0  0  0  0
   -7.1690   24.2140  -30.9090 N   0  0  0  0  0  0  0  0  0  0  0  0
   -5.7280   24.8450  -30.1800 S   0  0  0  0  0  0  0  0  0  0  0  0
   -4.9900   25.6780  -31.1880 O   0  0  0  0  0  0  0  0  0  0  0  0
   -6.1080   25.7150  -29.0150 O   0  0  0  0  0  0  0  0  0  0  0  0
   -4.6920   23.5210  -29.6580 C   0  0  0  0  0  0  0  0  0  0  0  0
   -4.2820   23.4420  -28.3220 C   0  0  0  0  0  0  0  0  0  0  0  0
   -3.4480   22.4020  -27.9020 C   0  0  0  0  0  0  0  0  0  0  0  0
   -3.0200   21.4220  -28.8130 C   0  0  0  0  0  0  0  0  0  0  0  0
   -2.1380   20.3610  -28.3980 N   0  0  0  0  0  0  0  0  0  0  0  0
   -2.5180   19.5840  -27.3790 N   0  0  0  0  0  0  0  0  0  0  0  0
   -1.7470   18.5590  -26.9360 C   0  0  0  0  0  0  0  0  0  0  0  0
   -0.5290   18.3200  -27.5620 C   0  0  0  0  0  0  0  0  0  0  0  0
    0.2100   17.3740  -27.1840 O   0  0  0  0  0  0  0  0  0  0  0  0
   -0.1400   19.1190  -28.5850 N   0  0  0  0  0  0  0  0  0  0  0  0
   -0.9290   20.1420  -29.0060 C   0  0  0  0  0  0  0  0  0  0  0  0
   -0.5230   20.8880  -29.9380 O   0  0  0  0  0  0  0  0  0  0  0  0
   -3.4230   21.5130  -30.1550 C   0  0  0  0  0  0  0  0  0  0  0  0
   -4.2600   22.5520  -30.5740 C   0  0  0  0  0  0  0  0  0  0  0  0
   -5.6230   20.3320  -33.3080 C   0  0  0  0  0  0  0  0  0  0  0  0
   -5.5320   18.9610  -33.5680 C   0  0  0  0  0  0  0  0  0  0  0  0
   -6.4481   16.1022  -32.5536 H   0  0  0  0  0  0  0  0  0  0  0  0
   -7.3638   16.2903  -34.0874 H   0  0  0  0  0  0  0  0  0  0  0  0
   -5.5730   16.4312  -34.0874 H   0  0  0  0  0  0  0  0  0  0  0  0
   -8.6025   17.9805  -32.4206 H   0  0  0  0  0  0  0  0  0  0  0  0
   -8.7720   20.4262  -31.9768 H   0  0  0  0  0  0  0  0  0  0  0  0
   -6.7450   22.9250  -33.2710 H   0  0  0  0  0  0  0  0  0  0  0  0
   -4.6174   24.2011  -27.6000 H   0  0  0  0  0  0  0  0  0  0  0  0
   -3.1248   22.3506  -26.8518 H   0  0  0  0  0  0  0  0  0  0  0  0
   -2.0794   17.9293  -26.0976 H   0  0  0  0  0  0  0  0  0  0  0  0
   -3.0782   20.7623  -30.8813 H   0  0  0  0  0  0  0  0  0  0  0  0
   -4.5801   22.6089  -31.6249 H   0  0  0  0  0  0  0  0  0  0  0  0
   -4.7839   20.9947  -33.5662 H   0  0  0  0  0  0  0  0  0  0  0  0
   -4.6143   18.5480  -34.0122 H   0  0  0  0  0  0  0  0  0  0  0  0
  1  2  1  0
  2  3  2  0
  3  4  1  0
  4  5  2  0
  5  6  1  0
  6  7  1  0
  7  8  2  0
  7  9  1  0
  9 10  1  0
 10 11  2  0
 10 12  2  0
 10 13  1  0
 13 14  2  0
 14 15  1  0
 15 16  2  0
 16 17  1  0
 17 18  1  0
 18 19  2  0
 19 20  1  0
 20 21  2  0
 20 22  1  0
 22 23  1  0
 23 24  2  0
 16 25  1  0
 25 26  2  0
  5 27  1  0
 27 28  2  0
 28  2  1  0
 26 13  1  0
 23 17  1  0
  1 29  1  0
  1 30  1  0
  1 31  1  0
  3 32  1  0
  4 33  1  0
  6 34  1  0
 14 35  1  0
 15 36  1  0
 19 37  1  0
 25 38  1  0
 26 39  1  0
 27 40  1  0
 28 41  1  0
M  CHG  2   9  -1  22  -1
M  END
>  <UniqueID>  (19) 
18

>  <SMILES>  (19) 
Cc1ccc(NC(=O)[N-]S(=O)(=O)c2ccc(-n3ncc(=O)[n-]c3=O)cc2)cc1

>  <Energy>  (19) 
57.3445523438987

>  <Genealogy>  (19) 
Cc1ccc(NC(=O)[N-]S(=O)(=O)c2ccc(-n3ncc(=O)[n-]c3=O)cc2)cc1 (protonated)
Cc1ccc(NC(=O)[N-]S(=O)(=O)c2ccc(-n3ncc(=O)[n-]c3=O)cc2)cc1 (3D coordinates assigned)
Cc1ccc(NC(=O)[N-]S(=O)(=O)c2ccc(-n3ncc(=O)[n-]c3=O)cc2)cc1 (optimized conformer: 57.3445523438987 kcal/mol)

>  <smiles>  (19) 
Cc1ccc(NC(=O)NS(=O)(=O)c2ccc(-n3ncc(=O)[nH]c3=O)cc2)cc1

>  <score_type>  (19) 
oracle

>  <origin>  (19) 
adgpu

>  <m_score__min__energy>  (19) 
-10.619999999999999

>  <m_primary>  (19) 
energy

$$$$
19:0
     RDKit          3D

 61 64  0  0  0  0  0  0  0  0999 V2000
   -9.8740   18.6980  -33.0380 O   0  0  0  0  0  0  0  0  0  0  0  0
   -8.8420   19.3920  -32.1910 S   0  0  0  0  0  0  0  0  0  0  0  0
   -9.0620   19.0330  -30.7490 O   0  0  0  0  0  0  0  0  0  0  0  0
   -9.0100   21.1090  -32.3920 N   0  0  0  0  0  0  0  0  0  0  0  0
   -8.1110   22.0480  -31.7840 C   0  0  0  0  0  0  0  0  0  0  0  0
   -7.2900   22.8850  -32.5610 C   0  0  0  0  0  0  0  0  0  0  0  0
   -6.3630   23.7310  -31.9480 C   0  0  0  0  0  0  0  0  0  0  0  0
   -6.2580   23.7690  -30.5520 C   0  0  0  0  0  0  0  0  0  0  0  0
   -5.0520   24.7880  -29.7690 S   0  0  0  0  0  0  0  0  0  0  0  0
   -5.7500   25.6920  -28.7930 O   0  0  0  0  0  0  0  0  0  0  0  0
   -4.3520   25.6330  -30.7930 O   0  0  0  0  0  0  0  0  0  0  0  0
   -3.8900   23.7940  -28.9230 N   0  0  0  0  0  0  0  0  0  0  0  0
   -2.5180   24.1080  -29.3890 C   0  0  0  0  0  0  0  0  0  0  0  0
   -1.4600   23.7070  -28.3540 C   0  0  0  0  0  0  0  0  0  0  0  0
   -1.6500   24.4850  -27.0410 C   0  0  0  0  0  0  0  0  0  0  0  0
   -3.1140   24.8970  -26.8030 C   0  0  0  0  0  0  0  0  0  0  0  0
   -4.0820   23.8990  -27.4550 C   0  0  0  0  0  0  0  0  0  0  0  0
   -7.0990   22.9660  -29.7730 C   0  0  0  0  0  0  0  0  0  0  0  0
   -8.0230   22.1140  -30.3850 C   0  0  0  0  0  0  0  0  0  0  0  0
   -7.2170   18.8920  -32.6590 C   0  0  0  0  0  0  0  0  0  0  0  0
   -6.9960   17.6380  -33.2430 C   0  0  0  0  0  0  0  0  0  0  0  0
   -5.7170   17.2870  -33.6850 C   0  0  0  0  0  0  0  0  0  0  0  0
   -4.6560   18.1870  -33.5490 C   0  0  0  0  0  0  0  0  0  0  0  0
   -4.8620   19.4380  -32.9480 C   0  0  0  0  0  0  0  0  0  0  0  0
   -3.5330   20.5860  -32.8010 S   0  0  0  0  0  0  0  0  0  0  0  0
   -3.5600   21.1870  -31.4210 O   0  0  0  0  0  0  0  0  0  0  0  0
   -3.7440   21.7000  -33.7860 O   0  0  0  0  0  0  0  0  0  0  0  0
   -1.9650   19.8590  -33.0780 N   0  0  0  0  0  0  0  0  0  0  0  0
   -1.0470   19.9790  -31.9280 C   0  0  0  0  0  0  0  0  0  0  0  0
   -0.1670   21.2340  -32.0010 C   0  0  0  0  0  0  0  0  0  0  0  0
    0.4940   21.3130  -33.2430 O   0  0  0  0  0  0  0  0  0  0  0  0
   -0.4650   21.4750  -34.2650 C   0  0  0  0  0  0  0  0  0  0  0  0
   -1.3630   20.2360  -34.3710 C   0  0  0  0  0  0  0  0  0  0  0  0
   -6.1480   19.7880  -32.5110 C   0  0  0  0  0  0  0  0  0  0  0  0
   -9.9090   21.4560  -32.7950 H   0  0  0  0  0  0  0  0  0  0  0  0
   -7.3785   22.8732  -33.6574 H   0  0  0  0  0  0  0  0  0  0  0  0
   -5.7130   24.3698  -32.5640 H   0  0  0  0  0  0  0  0  0  0  0  0
   -2.3259   23.5622  -30.3245 H   0  0  0  0  0  0  0  0  0  0  0  0
   -2.4498   25.1948  -29.5446 H   0  0  0  0  0  0  0  0  0  0  0  0
   -1.5471   22.6297  -28.1495 H   0  0  0  0  0  0  0  0  0  0  0  0
   -0.4654   23.9432  -28.7603 H   0  0  0  0  0  0  0  0  0  0  0  0
   -1.3224   23.8499  -26.2047 H   0  0  0  0  0  0  0  0  0  0  0  0
   -1.0520   25.4057  -27.1100 H   0  0  0  0  0  0  0  0  0  0  0  0
   -3.3067   24.9295  -25.7205 H   0  0  0  0  0  0  0  0  0  0  0  0
   -3.2762   25.8869  -27.2544 H   0  0  0  0  0  0  0  0  0  0  0  0
   -3.9207   22.9075  -27.0067 H   0  0  0  0  0  0  0  0  0  0  0  0
   -5.1049   24.2626  -27.2778 H   0  0  0  0  0  0  0  0  0  0  0  0
   -7.0327   23.0054  -28.6757 H   0  0  0  0  0  0  0  0  0  0  0  0
   -8.6854   21.4912  -29.7659 H   0  0  0  0  0  0  0  0  0  0  0  0
   -7.8296   16.9289  -33.3539 H   0  0  0  0  0  0  0  0  0  0  0  0
   -5.5452   16.3007  -34.1407 H   0  0  0  0  0  0  0  0  0  0  0  0
   -3.6553   17.9132  -33.9147 H   0  0  0  0  0  0  0  0  0  0  0  0
   -1.6433   20.0206  -31.0046 H   0  0  0  0  0  0  0  0  0  0  0  0
   -0.3801   19.1043  -31.9426 H   0  0  0  0  0  0  0  0  0  0  0  0
   -0.7990   22.1250  -31.8720 H   0  0  0  0  0  0  0  0  0  0  0  0
    0.5887   21.1803  -31.2035 H   0  0  0  0  0  0  0  0  0  0  0  0
   -1.0876   22.3533  -34.0393 H   0  0  0  0  0  0  0  0  0  0  0  0
    0.0596   21.6130  -35.2220 H   0  0  0  0  0  0  0  0  0  0  0  0
   -2.1706   20.4466  -35.0875 H   0  0  0  0  0  0  0  0  0  0  0  0
   -0.7344   19.3966  -34.7031 H   0  0  0  0  0  0  0  0  0  0  0  0
   -6.3193   20.7716  -32.0492 H   0  0  0  0  0  0  0  0  0  0  0  0
  1  2  2  0
  2  3  2  0
  2  4  1  0
  4  5  1  0
  5  6  2  0
  6  7  1  0
  7  8  2  0
  8  9  1  0
  9 10  2  0
  9 11  2  0
  9 12  1  0
 12 13  1  0
 13 14  1  0
 14 15  1  0
 15 16  1  0
 16 17  1  0
  8 18  1  0
 18 19  2  0
  2 20  1  0
 20 21  2  0
 21 22  1  0
 22 23  2  0
 23 24  1  0
 24 25  1  0
 25 26  2  0
 25 27  2  0
 25 28  1  0
 28 29  1  0
 29 30  1  0
 30 31  1  0
 31 32  1  0
 32 33  1  0
 24 34  2  0
 19  5  1  0
 34 20  1  0
 17 12  1  0
 33 28  1  0
  4 35  1  0
  6 36  1  0
  7 37  1  0
 13 38  1  0
 13 39  1  0
 14 40  1  0
 14 41  1  0
 15 42  1  0
 15 43  1  0
 16 44  1  0
 16 45  1  0
 17 46  1  0
 17 47  1  0
 18 48  1  0
 19 49  1  0
 21 50  1  0
 22 51  1  0
 23 52  1  0
 29 53  1  0
 29 54  1  0
 30 55  1  0
 30 56  1  0
 32 57  1  0
 32 58  1  0
 33 59  1  0
 33 60  1  0
 34 61  1  0
M  END
>  <UniqueID>  (20) 
19

>  <SMILES>  (20) 
O=S(=O)(Nc1ccc(S(=O)(=O)N2CCCCC2)cc1)c1cccc(S(=O)(=O)N2CCOCC2)c1

>  <Energy>  (20) 
74.18810528651677

>  <Genealogy>  (20) 
O=S(=O)(Nc1ccc(S(=O)(=O)N2CCCCC2)cc1)c1cccc(S(=O)(=O)N2CCOCC2)c1 (3D coordinates assigned)
O=S(=O)(Nc1ccc(S(=O)(=O)N2CCCCC2)cc1)c1cccc(S(=O)(=O)N2CCOCC2)c1 (nonaromatic ring conformer: 74.18810528651677 kcal/mol)

>  <smiles>  (20) 
O=S(=O)(Nc1ccc(S(=O)(=O)N2CCCCC2)cc1)c1cccc(S(=O)(=O)N2CCOCC2)c1

>  <score_type>  (20) 
oracle

>  <origin>  (20) 
adgpu

>  <m_score__min__energy>  (20) 
-11.609999999999999

>  <m_primary>  (20) 
energy

$$$$
20:0
     RDKit          3D

 57 59  0  0  0  0  0  0  0  0999 V2000
   -4.2800   15.5190  -33.1050 C   0  0  0  0  0  0  0  0  0  0  0  0
   -3.6330   16.8630  -33.2600 C   0  0  0  0  0  0  0  0  0  0  0  0
   -2.3110   17.1090  -32.8540 C   0  0  0  0  0  0  0  0  0  0  0  0
   -1.8840   18.4020  -33.1240 C   0  0  0  0  0  0  0  0  0  0  0  0
   -0.5210   18.9520  -32.8460 C   0  0  0  0  0  0  0  0  0  0  0  0
   -0.6110   20.1130  -31.9030 C   0  0  0  0  0  0  0  0  0  0  0  0
   -0.1440   21.2310  -32.2550 O   0  0  0  0  0  0  0  0  0  0  0  0
   -1.1570   19.9310  -30.5860 N   0  0  0  0  0  0  0  0  0  0  0  0
   -1.5790   21.0070  -29.7300 C   0  0  0  0  0  0  0  0  0  0  0  0
   -2.7940   20.8970  -29.0400 C   0  0  0  0  0  0  0  0  0  0  0  0
   -3.2450   21.9430  -28.2310 C   0  0  0  0  0  0  0  0  0  0  0  0
   -2.4960   23.1170  -28.1170 C   0  0  0  0  0  0  0  0  0  0  0  0
   -1.2850   23.2590  -28.8160 C   0  0  0  0  0  0  0  0  0  0  0  0
   -0.5020   24.5160  -28.7170 C   0  0  0  0  0  0  0  0  0  0  0  0
   -1.0960   25.7720  -29.0570 N   0  0  0  0  0  0  0  0  0  0  0  0
    0.6980   24.4900  -28.3280 O   0  0  0  0  0  0  0  0  0  0  0  0
   -0.8370   22.1990  -29.6260 C   0  0  0  0  0  0  0  0  0  0  0  0
   -3.1210   19.2290  -33.9040 S   0  0  0  0  0  0  0  0  0  0  0  0
   -4.2310   17.9670  -33.8820 C   0  0  0  0  0  0  0  0  0  0  0  0
   -5.6110   18.0430  -34.4770 C   0  0  0  0  0  0  0  0  0  0  0  0
   -6.6250   18.6630  -33.4970 C   0  0  1  0  0  0  0  0  0  0  0  0
   -6.4580   18.1070  -32.0750 C   0  0  0  0  0  0  0  0  0  0  0  0
   -6.6510   20.1380  -33.5720 N   0  0  0  0  0  0  0  0  0  0  0  0
   -7.1970   20.9970  -32.1470 S   0  0  0  0  0  0  0  0  0  0  0  0
   -8.5210   21.6350  -32.4670 O   0  0  0  0  0  0  0  0  0  0  0  0
   -7.4180   20.0390  -31.0090 O   0  0  0  0  0  0  0  0  0  0  0  0
   -6.0910   22.2800  -31.6530 C   0  0  0  0  0  0  0  0  0  0  0  0
   -4.7150   22.1060  -31.8190 C   0  0  0  0  0  0  0  0  0  0  0  0
   -3.8270   23.1020  -31.4120 C   0  0  0  0  0  0  0  0  0  0  0  0
   -4.3020   24.2860  -30.8430 C   0  0  0  0  0  0  0  0  0  0  0  0
   -3.3830   25.2520  -30.4490 O   0  0  0  0  0  0  0  0  0  0  0  0
   -5.6910   24.4860  -30.6830 C   0  0  0  0  0  0  0  0  0  0  0  0
   -6.2370   25.7290  -30.0780 C   0  0  0  0  0  0  0  0  0  0  0  0
   -5.6560   26.8340  -30.2600 O   0  0  0  0  0  0  0  0  0  0  0  0
   -7.3990   25.7060  -29.3130 O   0  0  0  0  0  0  0  0  0  0  0  0
   -6.5760   23.4740  -31.1040 C   0  0  0  0  0  0  0  0  0  0  0  0
   -4.3917   15.2870  -32.0356 H   0  0  0  0  0  0  0  0  0  0  0  0
   -5.2707   15.5317  -33.5829 H   0  0  0  0  0  0  0  0  0  0  0  0
   -3.6522   14.7525  -33.5829 H   0  0  0  0  0  0  0  0  0  0  0  0
   -1.6767   16.3518  -32.3699 H   0  0  0  0  0  0  0  0  0  0  0  0
    0.1025   18.1659  -32.3952 H   0  0  0  0  0  0  0  0  0  0  0  0
   -0.0730   19.2926  -33.7911 H   0  0  0  0  0  0  0  0  0  0  0  0
   -1.1970   18.9560  -30.2060 H   0  0  0  0  0  0  0  0  0  0  0  0
   -3.3962   19.9815  -29.1360 H   0  0  0  0  0  0  0  0  0  0  0  0
   -4.1928   21.8420  -27.6820 H   0  0  0  0  0  0  0  0  0  0  0  0
   -2.8564   23.9352  -27.4762 H   0  0  0  0  0  0  0  0  0  0  0  0
   -1.2340   26.0470  -30.0550 H   0  0  0  0  0  0  0  0  0  0  0  0
    0.1047   22.3030  -30.1849 H   0  0  0  0  0  0  0  0  0  0  0  0
   -5.5726   18.6600  -35.3868 H   0  0  0  0  0  0  0  0  0  0  0  0
   -5.9405   17.0189  -34.7064 H   0  0  0  0  0  0  0  0  0  0  0  0
   -7.6295   18.3492  -33.8172 H   0  0  0  0  0  0  0  0  0  0  0  0
   -6.6943   18.8938  -31.3435 H   0  0  0  0  0  0  0  0  0  0  0  0
   -7.1402   17.2561  -31.9315 H   0  0  0  0  0  0  0  0  0  0  0  0
   -5.4198   17.7728  -31.9315 H   0  0  0  0  0  0  0  0  0  0  0  0
   -4.3303   21.1805  -32.2722 H   0  0  0  0  0  0  0  0  0  0  0  0
   -2.7446   22.9538  -31.5401 H   0  0  0  0  0  0  0  0  0  0  0  0
   -7.6609   23.6232  -31.0004 H   0  0  0  0  0  0  0  0  0  0  0  0
  1  2  1  0
  2  3  1  0
  3  4  2  0
  4  5  1  0
  5  6  1  0
  6  7  2  0
  6  8  1  0
  8  9  1  0
  9 10  2  0
 10 11  1  0
 11 12  2  0
 12 13  1  0
 13 14  1  0
 14 15  1  0
 14 16  2  0
 13 17  2  0
  4 18  1  0
 18 19  1  0
 19 20  1  0
 20 21  1  0
 21 22  1  0
 21 23  1  0
 23 24  1  0
 24 25  2  0
 24 26  2  0
 24 27  1  0
 27 28  2  0
 28 29  1  0
 29 30  2  0
 30 31  1  0
 30 32  1  0
 32 33  1  0
 33 34  2  0
 33 35  1  0
 32 36  2  0
 19  2  2  0
 36 27  1  0
 17  9  1  0
  1 37  1  0
  1 38  1  0
  1 39  1  0
  3 40  1  0
  5 41  1  0
  5 42  1  0
  8 43  1  0
 10 44  1  0
 11 45  1  0
 12 46  1  0
 15 47  1  0
 17 48  1  0
 20 49  1  0
 20 50  1  0
 21 51  1  6
 22 52  1  0
 22 53  1  0
 22 54  1  0
 28 55  1  0
 29 56  1  0
 36 57  1  0
M  CHG  4  15  -1  23  -1  31  -1  35  -1
M  END
>  <UniqueID>  (21) 
20

>  <SMILES>  (21) 
Cc1cc(CC(=O)Nc2cccc(C([NH-])=O)c2)sc1C[C@@H](C)[N-]S(=O)(=O)c1ccc([O-])c(C(=O)[O-])c1

>  <Energy>  (21) 
87.79023432814115

>  <Genealogy>  (21) 
Cc1cc(CC(=O)Nc2cccc(C([NH-])=O)c2)sc1CC(C)[N-]S(=O)(=O)c1ccc([O-])c(C(=O)[O-])c1 (protonated)
Cc1cc(CC(=O)Nc2cccc(C([NH-])=O)c2)sc1C[C@@H](C)[N-]S(=O)(=O)c1ccc([O-])c(C(=O)[O-])c1 (chirality)
Cc1cc(CC(=O)Nc2cccc(C([NH-])=O)c2)sc1C[C@@H](C)[N-]S(=O)(=O)c1ccc([O-])c(C(=O)[O-])c1 (3D coordinates assigned)
Cc1cc(CC(=O)Nc2cccc(C([NH-])=O)c2)sc1C[C@@H](C)[N-]S(=O)(=O)c1ccc([O-])c(C(=O)[O-])c1 (optimized conformer: 87.79023432814115 kcal/mol)

>  <smiles>  (21) 
Cc1cc(CC(=O)Nc2cccc(C(N)=O)c2)sc1CC(C)NS(=O)(=O)c1ccc(O)c(C(=O)O)c1

>  <score_type>  (21) 
oracle

>  <origin>  (21) 
adgpu

>  <m_score__min__energy>  (21) 
-15

>  <m_primary>  (21) 
energy

$$$$
21:0
     RDKit          3D

 58 62  0  0  0  0  0  0  0  0999 V2000
   -7.7982   18.8844  -31.8260 H   0  0  0  0  0  0  0  0  0  0  0  0
   -7.1730   18.4520  -32.6210 C   0  0  0  0  0  0  0  0  0  0  0  0
   -7.0420   17.0640  -32.7250 C   0  0  0  0  0  0  0  0  0  0  0  0
   -7.5652   16.4124  -32.0097 H   0  0  0  0  0  0  0  0  0  0  0  0
   -6.2480   16.4930  -33.7350 C   0  0  0  0  0  0  0  0  0  0  0  0
   -6.1140   15.0550  -33.8500 N   0  0  0  0  0  0  0  0  0  0  0  0
   -6.7140   14.5930  -33.1270 H   0  0  0  0  0  0  0  0  0  0  0  0
   -6.4930   14.7450  -34.7760 H   0  0  0  0  0  0  0  0  0  0  0  0
   -4.7250   14.5490  -33.7160 C   0  0  0  0  0  0  0  0  0  0  0  0
   -4.2886   14.6462  -34.7210 H   0  0  0  0  0  0  0  0  0  0  0  0
   -4.6500   13.0400  -33.3590 C   0  0  0  0  0  0  0  0  0  0  0  0
   -5.6391   12.5856  -33.5181 H   0  0  0  0  0  0  0  0  0  0  0  0
   -3.8941   12.5700  -34.0053 H   0  0  0  0  0  0  0  0  0  0  0  0
   -4.2330   12.8270  -31.8980 C   0  0  0  0  0  0  0  0  0  0  0  0
   -4.9761   13.3054  -31.2430 H   0  0  0  0  0  0  0  0  0  0  0  0
   -4.1798   11.7438  -31.7139 H   0  0  0  0  0  0  0  0  0  0  0  0
   -2.9030   13.4050  -31.6130 N   0  0  0  0  0  0  0  0  0  0  0  0
   -2.8570   13.6120  -30.5870 H   0  0  0  0  0  0  0  0  0  0  0  0
   -2.5930   14.6430  -32.3590 C   0  0  0  0  0  0  0  0  0  0  0  0
   -1.9740   15.2924  -31.7225 H   0  0  0  0  0  0  0  0  0  0  0  0
   -2.0641   14.3542  -33.2792 H   0  0  0  0  0  0  0  0  0  0  0  0
   -3.8540   15.4150  -32.7700 C   0  0  0  0  0  0  0  0  0  0  0  0
   -4.4348   15.6680  -31.8708 H   0  0  0  0  0  0  0  0  0  0  0  0
   -3.5575   16.3348  -33.2954 H   0  0  0  0  0  0  0  0  0  0  0  0
   -5.6490   17.3440  -34.6830 C   0  0  0  0  0  0  0  0  0  0  0  0
   -5.0737   16.9126  -35.5154 H   0  0  0  0  0  0  0  0  0  0  0  0
   -5.7780   18.7310  -34.5770 C   0  0  0  0  0  0  0  0  0  0  0  0
   -5.3009   19.3824  -35.3241 H   0  0  0  0  0  0  0  0  0  0  0  0
   -6.5100   19.2980  -33.5270 C   0  0  0  0  0  0  0  0  0  0  0  0
   -6.6390   20.7280  -33.4710 N   0  0  0  0  0  0  0  0  0  0  0  0
   -6.0310   21.5360  -32.6520 C   0  0  0  0  0  0  0  0  0  0  0  0
   -5.0940   21.0810  -31.7750 N   0  0  0  0  0  0  0  0  0  0  0  0
   -4.4470   21.9270  -30.9330 C   0  0  0  0  0  0  0  0  0  0  0  0
   -3.5010   21.4360  -30.0370 C   0  0  0  0  0  0  0  0  0  0  0  0
   -3.2704   20.3608  -30.0073 H   0  0  0  0  0  0  0  0  0  0  0  0
   -2.8480   22.3200  -29.1770 C   0  0  0  0  0  0  0  0  0  0  0  0
   -2.1031   21.9342  -28.4655 H   0  0  0  0  0  0  0  0  0  0  0  0
   -3.1220   23.6610  -29.2070 N   0  0  0  0  0  0  0  0  0  0  0  0
   -2.4150   24.5300  -28.2990 C   0  0  0  0  0  0  0  0  0  0  0  0
   -1.2310   25.1660  -28.7030 C   0  0  0  0  0  0  0  0  0  0  0  0
   -0.8388   24.9974  -29.7168 H   0  0  0  0  0  0  0  0  0  0  0  0
   -0.5470   26.0120  -27.8260 C   0  0  0  0  0  0  0  0  0  0  0  0
    0.3880   26.4941  -28.1475 H   0  0  0  0  0  0  0  0  0  0  0  0
   -1.0480   26.2490  -26.5370 C   0  0  0  0  0  0  0  0  0  0  0  0
   -0.2940   27.1270  -25.5830 C   0  0  0  0  0  0  0  0  0  0  0  0
   -0.5394   26.8412  -24.5495 H   0  0  0  0  0  0  0  0  0  0  0  0
    0.7866   27.0067  -25.7499 H   0  0  0  0  0  0  0  0  0  0  0  0
   -0.5762   28.1770  -25.7499 H   0  0  0  0  0  0  0  0  0  0  0  0
   -2.2260   25.6060  -26.1260 C   0  0  0  0  0  0  0  0  0  0  0  0
   -2.6139   25.7701  -25.1098 H   0  0  0  0  0  0  0  0  0  0  0  0
   -2.9080   24.7580  -27.0030 C   0  0  0  0  0  0  0  0  0  0  0  0
   -3.8362   24.2661  -26.6768 H   0  0  0  0  0  0  0  0  0  0  0  0
   -4.0550   24.1660  -30.0800 C   0  0  0  0  0  0  0  0  0  0  0  0
   -4.3220   25.4010  -30.0830 O   0  0  0  0  0  0  0  0  0  0  0  0
   -4.7320   23.3030  -30.9640 C   0  0  0  0  0  0  0  0  0  0  0  0
   -5.6900   23.7520  -31.8830 C   0  0  0  0  0  0  0  0  0  0  0  0
   -5.9387   24.8220  -31.9399 H   0  0  0  0  0  0  0  0  0  0  0  0
   -6.3110   22.8660  -32.7030 N   0  0  0  0  0  0  0  0  0  0  0  0
  1  2  1  0
  2  3  2  0
  3  4  1  0
  3  5  1  0
  5  6  1  0
  6  7  1  0
  6  8  1  0
  6  9  1  0
  9 10  1  0
  9 11  1  0
 11 12  1  0
 11 13  1  0
 11 14  1  0
 14 15  1  0
 14 16  1  0
 14 17  1  0
 17 18  1  0
 17 19  1  0
 19 20  1  0
 19 21  1  0
 19 22  1  0
 22 23  1  0
 22 24  1  0
  5 25  2  0
 25 26  1  0
 25 27  1  0
 27 28  1  0
 27 29  2  0
 29 30  1  0
 30 31  2  0
 31 32  1  0
 32 33  2  0
 33 34  1  0
 34 35  1  0
 34 36  2  0
 36 37  1  0
 36 38  1  0
 38 39  1  0
 39 40  2  0
 40 41  1  0
 40 42  1  0
 42 43  1  0
 42 44  2  0
 44 45  1  0
 45 46  1  0
 45 47  1  0
 45 48  1  0
 44 49  1  0
 49 50  1  0
 49 51  2  0
 51 52  1  0
 38 53  1  0
 53 54  2  0
 53 55  1  0
 55 56  2  0
 56 57  1  0
 56 58  1  0
 29  2  1  0
 58 31  1  0
 22  9  1  0
 55 33  1  0
 51 39  1  0
M  CHG  2   6   1  58  -1
M  END
>  <UniqueID>  (22) 
21

>  <SMILES>  (22) 
Cc1ccc(-n2ccc3n/c(=N\c4ccc([NH2+]C5CCNCC5)cc4)[n-]cc3c2=O)cc1

>  <Energy>  (22) 
93.47969409895805

>  <Genealogy>  (22) 
Cc1ccc(-n2ccc3nc(=Nc4ccc([NH2+]C5CCNCC5)cc4)[n-]cc3c2=O)cc1 (protonated)
Cc1ccc(-n2ccc3n/c(=N\c4ccc([NH2+]C5CCNCC5)cc4)[n-]cc3c2=O)cc1 (cis-trans isomerization)
Cc1ccc(-n2ccc3n/c(=N\c4ccc([NH2+]C5CCNCC5)cc4)[n-]cc3c2=O)cc1 (3D coordinates assigned)
Cc1ccc(-n2ccc3n/c(=N\c4ccc([NH2+]C5CCNCC5)cc4)[n-]cc3c2=O)cc1 (nonaromatic ring conformer: 93.47969409895805 kcal/mol)

>  <smiles>  (22) 
Cc1ccc(-n2ccc3nc(=Nc4ccc(NC5CCNCC5)cc4)[nH]cc3c2=O)cc1

>  <score_type>  (22) 
oracle

>  <origin>  (22) 
adgpu

>  <m_score__min__energy>  (22) 
-9.4199999999999999

>  <m_primary>  (22) 
energy

$$$$
22:0
     RDKit          3D

 42 44  0  0  0  0  0  0  0  0999 V2000
   -6.4290   25.9100  -29.6240 O   0  0  0  0  0  0  0  0  0  0  0  0
   -5.3950   24.9430  -30.1250 S   0  0  0  0  0  0  0  0  0  0  0  0
   -4.5330   25.6040  -31.1640 O   0  0  0  0  0  0  0  0  0  0  0  0
   -4.3960   24.4050  -28.8130 N   0  0  0  0  0  0  0  0  0  0  0  0
   -3.2040   23.6170  -28.9450 C   0  0  0  0  0  0  0  0  0  0  0  0
   -3.2210   22.2160  -28.8190 C   0  0  0  0  0  0  0  0  0  0  0  0
   -2.0380   21.4830  -28.9550 C   0  0  0  0  0  0  0  0  0  0  0  0
   -0.8330   22.1390  -29.2160 C   0  0  0  0  0  0  0  0  0  0  0  0
   -0.8070   23.5300  -29.3400 C   0  0  0  0  0  0  0  0  0  0  0  0
   -1.9890   24.2680  -29.2060 C   0  0  0  0  0  0  0  0  0  0  0  0
   -1.9500   25.6530  -29.3330 O   0  0  0  0  0  0  0  0  0  0  0  0
   -6.2030   23.5450  -30.8220 C   0  0  0  0  0  0  0  0  0  0  0  0
   -7.6010   23.4500  -30.8170 C   0  0  0  0  0  0  0  0  0  0  0  0
   -8.2300   22.3440  -31.3970 C   0  0  0  0  0  0  0  0  0  0  0  0
   -7.4680   21.3320  -31.9870 C   0  0  0  0  0  0  0  0  0  0  0  0
   -6.0680   21.4220  -32.0010 C   0  0  0  0  0  0  0  0  0  0  0  0
   -5.1020   20.1490  -32.7420 S   0  0  0  0  0  0  0  0  0  0  0  0
   -3.6470   20.5030  -32.6050 O   0  0  0  0  0  0  0  0  0  0  0  0
   -5.4190   20.0930  -34.2120 O   0  0  0  0  0  0  0  0  0  0  0  0
   -5.3750   18.5720  -32.0310 N   0  0  0  0  0  0  0  0  0  0  0  0
   -4.9370   17.4530  -32.8870 C   0  0  0  0  0  0  0  0  0  0  0  0
   -6.0580   16.9230  -33.7940 C   0  0  0  0  0  0  0  0  0  0  0  0
   -7.2140   16.6270  -33.0430 O   0  0  0  0  0  0  0  0  0  0  0  0
   -7.7200   17.8210  -32.4870 C   0  0  0  0  0  0  0  0  0  0  0  0
   -6.7310   18.4090  -31.4730 C   0  0  0  0  0  0  0  0  0  0  0  0
   -5.4400   22.5200  -31.3970 C   0  0  0  0  0  0  0  0  0  0  0  0
   -4.1679   21.6955  -28.6128 H   0  0  0  0  0  0  0  0  0  0  0  0
   -2.0565   20.3876  -28.8562 H   0  0  0  0  0  0  0  0  0  0  0  0
    0.0960   21.5600  -29.3240 H   0  0  0  0  0  0  0  0  0  0  0  0
    0.1430   24.0460  -29.5431 H   0  0  0  0  0  0  0  0  0  0  0  0
   -8.2042   24.2462  -30.3564 H   0  0  0  0  0  0  0  0  0  0  0  0
   -9.3275   22.2703  -31.3888 H   0  0  0  0  0  0  0  0  0  0  0  0
   -7.9668   20.4632  -32.4413 H   0  0  0  0  0  0  0  0  0  0  0  0
   -4.1067   17.7990  -33.5201 H   0  0  0  0  0  0  0  0  0  0  0  0
   -4.6299   16.6301  -32.2248 H   0  0  0  0  0  0  0  0  0  0  0  0
   -6.3033   17.6863  -34.5472 H   0  0  0  0  0  0  0  0  0  0  0  0
   -5.7095   16.0007  -34.2817 H   0  0  0  0  0  0  0  0  0  0  0  0
   -7.8884   18.5512  -33.2922 H   0  0  0  0  0  0  0  0  0  0  0  0
   -8.6651   17.5976  -31.9703 H   0  0  0  0  0  0  0  0  0  0  0  0
   -7.1002   19.3940  -31.1514 H   0  0  0  0  0  0  0  0  0  0  0  0
   -6.6616   17.7062  -30.6297 H   0  0  0  0  0  0  0  0  0  0  0  0
   -4.3417   22.5773  -31.3743 H   0  0  0  0  0  0  0  0  0  0  0  0
  1  2  2  0
  2  3  2  0
  2  4  1  0
  4  5  1  0
  5  6  2  0
  6  7  1  0
  7  8  2  0
  8  9  1  0
  9 10  2  0
 10 11  1  0
  2 12  1  0
 12 13  2  0
 13 14  1  0
 14 15  2  0
 15 16  1  0
 16 17  1  0
 17 18  2  0
 17 19  2  0
 17 20  1  0
 20 21  1  0
 21 22  1  0
 22 23  1  0
 23 24  1  0
 24 25  1  0
 16 26  2  0
 10  5  1  0
 26 12  1  0
 25 20  1  0
  6 27  1  0
  7 28  1  0
  8 29  1  0
  9 30  1  0
 13 31  1  0
 14 32  1  0
 15 33  1  0
 21 34  1  0
 21 35  1  0
 22 36  1  0
 22 37  1  0
 24 38  1  0
 24 39  1  0
 25 40  1  0
 25 41  1  0
 26 42  1  0
M  CHG  2   4  -1  11  -1
M  END
>  <UniqueID>  (23) 
22

>  <SMILES>  (23) 
O=S(=O)([N-]c1ccccc1[O-])c1cccc(S(=O)(=O)N2CCOCC2)c1

>  <Energy>  (23) 
52.799611515886696

>  <Genealogy>  (23) 
O=S(=O)([N-]c1ccccc1[O-])c1cccc(S(=O)(=O)N2CCOCC2)c1 (protonated)
O=S(=O)([N-]c1ccccc1[O-])c1cccc(S(=O)(=O)N2CCOCC2)c1 (3D coordinates assigned)
O=S(=O)([N-]c1ccccc1[O-])c1cccc(S(=O)(=O)N2CCOCC2)c1 (nonaromatic ring conformer: 52.799611515886696 kcal/mol)

>  <smiles>  (23) 
O=S(=O)(Nc1ccccc1O)c1cccc(S(=O)(=O)N2CCOCC2)c1

>  <score_type>  (23) 
oracle

>  <origin>  (23) 
adgpu

>  <m_score__min__energy>  (23) 
-13.85

>  <m_primary>  (23) 
energy

$$$$
23:0
     RDKit          3D

 63 67  0  0  0  0  0  0  0  0999 V2000
    1.4930   19.8670  -33.9320 C   0  0  0  0  0  0  0  0  0  0  0  0
    0.7690   21.0010  -33.3360 N   0  0  0  0  0  0  0  0  0  0  0  0
   -0.2630   21.5320  -34.2630 C   0  0  0  0  0  0  0  0  0  0  0  0
   -1.6980   21.1570  -33.8630 C   0  0  0  0  0  0  0  0  0  0  0  0
   -1.9580   21.5660  -32.4770 N   0  0  0  0  0  0  0  0  0  0  0  0
   -3.2890   21.9200  -32.0550 C   0  0  0  0  0  0  0  0  0  0  0  0
   -3.4990   23.0470  -31.3260 N   0  0  0  0  0  0  0  0  0  0  0  0
   -4.7490   23.3890  -30.9190 C   0  0  0  0  0  0  0  0  0  0  0  0
   -4.9570   24.5660  -30.1080 N   0  0  0  0  0  0  0  0  0  0  0  0
   -5.7350   25.6770  -30.6840 C   0  0  0  0  0  0  0  0  0  0  0  0
   -4.5680   24.5160  -28.6840 C   0  0  0  0  0  0  0  0  0  0  0  0
   -3.3400   23.6810  -28.4140 C   0  0  0  0  0  0  0  0  0  0  0  0
   -3.4680   22.3700  -27.9180 C   0  0  0  0  0  0  0  0  0  0  0  0
   -2.3280   21.6080  -27.6420 C   0  0  0  0  0  0  0  0  0  0  0  0
   -1.0560   22.1450  -27.8630 C   0  0  0  0  0  0  0  0  0  0  0  0
   -0.9220   23.4420  -28.3730 C   0  0  0  0  0  0  0  0  0  0  0  0
   -2.0590   24.2080  -28.6500 C   0  0  0  0  0  0  0  0  0  0  0  0
   -5.7970   22.5900  -31.2560 N   0  0  0  0  0  0  0  0  0  0  0  0
   -5.6040   21.4660  -31.9950 C   0  0  0  0  0  0  0  0  0  0  0  0
   -6.7170   20.6020  -32.3060 N   0  0  0  0  0  0  0  0  0  0  0  0
   -8.0180   20.9450  -31.7010 C   0  0  0  0  0  0  0  0  0  0  0  0
   -9.1270   19.9450  -32.0590 C   0  0  0  0  0  0  0  0  0  0  0  0
   -8.6320   18.5080  -31.8930 C   0  0  0  0  0  0  0  0  0  0  0  0
   -7.4420   18.2830  -32.7800 C   0  0  0  0  0  0  0  0  0  0  0  0
   -7.2380   17.0380  -33.3930 C   0  0  0  0  0  0  0  0  0  0  0  0
   -6.1510   16.8440  -34.2470 C   0  0  0  0  0  0  0  0  0  0  0  0
   -5.2660   17.8940  -34.4990 C   0  0  0  0  0  0  0  0  0  0  0  0
   -5.4510   19.1330  -33.8800 C   0  0  0  0  0  0  0  0  0  0  0  0
   -6.5190   19.3320  -32.9810 C   0  0  0  0  0  0  0  0  0  0  0  0
   -4.3450   21.1300  -32.3770 N   0  0  0  0  0  0  0  0  0  0  0  0
   -0.8480   21.5780  -31.5160 C   0  0  0  0  0  0  0  0  0  0  0  0
    0.2700   20.6410  -31.9890 C   0  0  0  0  0  0  0  0  0  0  0  0
    1.8994   19.2304  -33.1323 H   0  0  0  0  0  0  0  0  0  0  0  0
    0.8034   19.2781  -34.5546 H   0  0  0  0  0  0  0  0  0  0  0  0
    2.3174   20.2448  -34.5546 H   0  0  0  0  0  0  0  0  0  0  0  0
   -0.1824   22.6289  -34.2822 H   0  0  0  0  0  0  0  0  0  0  0  0
   -0.0742   21.0822  -35.2489 H   0  0  0  0  0  0  0  0  0  0  0  0
   -2.4072   21.6665  -34.5319 H   0  0  0  0  0  0  0  0  0  0  0  0
   -1.8222   20.0672  -33.9464 H   0  0  0  0  0  0  0  0  0  0  0  0
   -6.1611   26.2855  -29.8727 H   0  0  0  0  0  0  0  0  0  0  0  0
   -5.0766   26.3026  -31.3046 H   0  0  0  0  0  0  0  0  0  0  0  0
   -6.5480   25.2722  -31.3046 H   0  0  0  0  0  0  0  0  0  0  0  0
   -4.3704   25.5429  -28.3428 H   0  0  0  0  0  0  0  0  0  0  0  0
   -5.4006   24.0436  -28.1422 H   0  0  0  0  0  0  0  0  0  0  0  0
   -4.4674   21.9435  -27.7469 H   0  0  0  0  0  0  0  0  0  0  0  0
   -2.4322   20.5853  -27.2507 H   0  0  0  0  0  0  0  0  0  0  0  0
   -0.1603   21.5482  -27.6361 H   0  0  0  0  0  0  0  0  0  0  0  0
    0.0792   23.8593  -28.5561 H   0  0  0  0  0  0  0  0  0  0  0  0
   -1.9501   25.2255  -29.0536 H   0  0  0  0  0  0  0  0  0  0  0  0
   -7.9022   20.9637  -30.6073 H   0  0  0  0  0  0  0  0  0  0  0  0
   -8.3179   21.9259  -32.0983 H   0  0  0  0  0  0  0  0  0  0  0  0
   -9.9891   20.1090  -31.3958 H   0  0  0  0  0  0  0  0  0  0  0  0
   -9.4183   20.1001  -33.1083 H   0  0  0  0  0  0  0  0  0  0  0  0
   -8.3454   18.3377  -30.8447 H   0  0  0  0  0  0  0  0  0  0  0  0
   -9.4345   17.8093  -32.1719 H   0  0  0  0  0  0  0  0  0  0  0  0
   -7.9374   16.2112  -33.2000 H   0  0  0  0  0  0  0  0  0  0  0  0
   -5.9918   15.8643  -34.7212 H   0  0  0  0  0  0  0  0  0  0  0  0
   -4.4206   17.7455  -35.1869 H   0  0  0  0  0  0  0  0  0  0  0  0
   -4.7581   19.9596  -34.0957 H   0  0  0  0  0  0  0  0  0  0  0  0
   -0.4529   22.6009  -31.4296 H   0  0  0  0  0  0  0  0  0  0  0  0
   -1.2155   21.2343  -30.5378 H   0  0  0  0  0  0  0  0  0  0  0  0
    1.1050   20.6972  -31.2752 H   0  0  0  0  0  0  0  0  0  0  0  0
   -0.1428   19.6228  -32.0428 H   0  0  0  0  0  0  0  0  0  0  0  0
  1  2  1  0
  2  3  1  0
  3  4  1  0
  4  5  1  0
  5  6  1  0
  6  7  2  0
  7  8  1  0
  8  9  1  0
  9 10  1  0
  9 11  1  0
 11 12  1  0
 12 13  2  0
 13 14  1  0
 14 15  2  0
 15 16  1  0
 16 17  2  0
  8 18  2  0
 18 19  1  0
 19 20  1  0
 20 21  1  0
 21 22  1  0
 22 23  1  0
 23 24  1  0
 24 25  2  0
 25 26  1  0
 26 27  2  0
 27 28  1  0
 28 29  2  0
 19 30  2  0
  5 31  1  0
 31 32  1  0
 32  2  1  0
 30  6  1  0
 17 12  1  0
 29 20  1  0
 29 24  1  0
  1 33  1  0
  1 34  1  0
  1 35  1  0
  3 36  1  0
  3 37  1  0
  4 38  1  0
  4 39  1  0
 10 40  1  0
 10 41  1  0
 10 42  1  0
 11 43  1  0
 11 44  1  0
 13 45  1  0
 14 46  1  0
 15 47  1  0
 16 48  1  0
 17 49  1  0
 21 50  1  0
 21 51  1  0
 22 52  1  0
 22 53  1  0
 23 54  1  0
 23 55  1  0
 25 56  1  0
 26 57  1  0
 27 58  1  0
 28 59  1  0
 31 60  1  0
 31 61  1  0
 32 62  1  0
 32 63  1  0
M  END
>  <UniqueID>  (24) 
23

>  <SMILES>  (24) 
CN1CCN(c2nc(N(C)Cc3ccccc3)nc(N3CCCc4ccccc43)n2)CC1

>  <Energy>  (24) 
81.27986160534911

>  <Genealogy>  (24) 
CN1CCN(c2nc(N(C)Cc3ccccc3)nc(N3CCCc4ccccc43)n2)CC1 (3D coordinates assigned)
CN1CCN(c2nc(N(C)Cc3ccccc3)nc(N3CCCc4ccccc43)n2)CC1 (nonaromatic ring conformer: 81.27986160534911 kcal/mol)

>  <smiles>  (24) 
CN1CCN(c2nc(N(C)Cc3ccccc3)nc(N3CCCc4ccccc43)n2)CC1

>  <score_type>  (24) 
oracle

>  <origin>  (24) 
adgpu

>  <m_score__min__energy>  (24) 
-9.7899999999999991

>  <m_primary>  (24) 
energy

$$$$
24:0
     RDKit          3D

 50 52  0  0  0  0  0  0  0  0999 V2000
   -3.2380   19.0120  -26.7160 C   0  0  0  0  0  0  0  0  0  0  0  0
   -2.0760   19.9960  -26.8010 C   0  0  0  0  0  0  0  0  0  0  0  0
   -1.1940   19.6830  -27.9880 C   0  0  0  0  0  0  0  0  0  0  0  0
   -0.0100   18.9540  -27.7810 C   0  0  0  0  0  0  0  0  0  0  0  0
    0.8810   18.7300  -28.8330 C   0  0  0  0  0  0  0  0  0  0  0  0
    0.6100   19.2460  -30.1010 C   0  0  0  0  0  0  0  0  0  0  0  0
   -0.5540   19.9840  -30.3210 C   0  0  0  0  0  0  0  0  0  0  0  0
   -1.4680   20.1960  -29.2800 C   0  0  0  0  0  0  0  0  0  0  0  0
   -2.6500   20.9630  -29.5470 N   0  0  0  0  0  0  0  0  0  0  0  0
   -2.6090   22.3920  -29.6830 C   0  0  0  0  0  0  0  0  0  0  0  0
   -1.5400   23.0130  -29.4300 O   0  0  0  0  0  0  0  0  0  0  0  0
   -3.8150   23.1540  -30.0830 C   0  0  0  0  0  0  0  0  0  0  0  0
   -4.9850   22.4580  -30.4330 C   0  0  0  0  0  0  0  0  0  0  0  0
   -6.1430   23.1500  -30.8150 C   0  0  0  0  0  0  0  0  0  0  0  0
   -7.6060   22.2590  -31.2460 S   0  0  0  0  0  0  0  0  0  0  0  0
   -8.3420   23.0120  -32.3180 O   0  0  0  0  0  0  0  0  0  0  0  0
   -8.5040   22.1660  -30.0430 O   0  0  0  0  0  0  0  0  0  0  0  0
   -7.2330   20.6520  -31.8190 N   0  0  0  0  0  0  0  0  0  0  0  0
   -8.4720   19.8850  -32.0330 C   0  0  0  0  0  0  0  0  0  0  0  0
   -8.1440   18.4020  -32.2940 C   0  0  0  0  0  0  0  0  0  0  0  0
   -6.7220   18.2040  -32.8440 C   0  0  0  0  0  0  0  0  0  0  0  0
   -6.3220   19.3560  -33.7690 C   0  0  0  0  0  0  0  0  0  0  0  0
   -6.4350   20.7250  -33.0600 C   0  0  0  0  0  0  0  0  0  0  0  0
   -6.1340   24.5490  -30.8450 C   0  0  0  0  0  0  0  0  0  0  0  0
   -4.9820   25.2510  -30.4860 C   0  0  0  0  0  0  0  0  0  0  0  0
   -3.8280   24.5640  -30.0960 C   0  0  0  0  0  0  0  0  0  0  0  0
   -2.7150   25.2980  -29.6980 O   0  0  0  0  0  0  0  0  0  0  0  0
   -3.4733   18.8128  -25.6601 H   0  0  0  0  0  0  0  0  0  0  0  0
   -4.1199   19.4421  -27.2133 H   0  0  0  0  0  0  0  0  0  0  0  0
   -2.9590   18.0713  -27.2133 H   0  0  0  0  0  0  0  0  0  0  0  0
   -2.4741   21.0160  -26.9064 H   0  0  0  0  0  0  0  0  0  0  0  0
   -1.4752   19.9126  -25.8833 H   0  0  0  0  0  0  0  0  0  0  0  0
    0.2169   18.5562  -26.7809 H   0  0  0  0  0  0  0  0  0  0  0  0
    1.7974   18.1462  -28.6619 H   0  0  0  0  0  0  0  0  0  0  0  0
    1.3143   19.0710  -30.9277 H   0  0  0  0  0  0  0  0  0  0  0  0
   -0.7554   20.4021  -31.3183 H   0  0  0  0  0  0  0  0  0  0  0  0
   -3.5740   20.5070  -29.3750 H   0  0  0  0  0  0  0  0  0  0  0  0
   -4.9922   21.3583  -30.4069 H   0  0  0  0  0  0  0  0  0  0  0  0
   -9.1071   19.9643  -31.1384 H   0  0  0  0  0  0  0  0  0  0  0  0
   -8.9999   20.2941  -32.9070 H   0  0  0  0  0  0  0  0  0  0  0  0
   -8.2373   17.8479  -31.3483 H   0  0  0  0  0  0  0  0  0  0  0  0
   -8.8508   18.0304  -33.0505 H   0  0  0  0  0  0  0  0  0  0  0  0
   -6.0150   18.1571  -32.0026 H   0  0  0  0  0  0  0  0  0  0  0  0
   -6.6988   17.2684  -33.4221 H   0  0  0  0  0  0  0  0  0  0  0  0
   -5.2815   19.2076  -34.0936 H   0  0  0  0  0  0  0  0  0  0  0  0
   -7.0072   19.3582  -34.6295 H   0  0  0  0  0  0  0  0  0  0  0  0
   -5.4236   21.0777  -32.8095 H   0  0  0  0  0  0  0  0  0  0  0  0
   -6.9446   21.4172  -33.7464 H   0  0  0  0  0  0  0  0  0  0  0  0
   -7.0370   25.0970  -31.1522 H   0  0  0  0  0  0  0  0  0  0  0  0
   -4.9819   26.3507  -30.5100 H   0  0  0  0  0  0  0  0  0  0  0  0
  1  2  1  0
  2  3  1  0
  3  4  2  0
  4  5  1  0
  5  6  2  0
  6  7  1  0
  7  8  2  0
  8  9  1  0
  9 10  1  0
 10 11  2  0
 10 12  1  0
 12 13  2  0
 13 14  1  0
 14 15  1  0
 15 16  2  0
 15 17  2  0
 15 18  1  0
 18 19  1  0
 19 20  1  0
 20 21  1  0
 21 22  1  0
 22 23  1  0
 14 24  2  0
 24 25  1  0
 25 26  2  0
 26 27  1  0
  8  3  1  0
 26 12  1  0
 23 18  1  0
  1 28  1  0
  1 29  1  0
  1 30  1  0
  2 31  1  0
  2 32  1  0
  4 33  1  0
  5 34  1  0
  6 35  1  0
  7 36  1  0
  9 37  1  0
 13 38  1  0
 19 39  1  0
 19 40  1  0
 20 41  1  0
 20 42  1  0
 21 43  1  0
 21 44  1  0
 22 45  1  0
 22 46  1  0
 23 47  1  0
 23 48  1  0
 24 49  1  0
 25 50  1  0
M  CHG  1  27  -1
M  END
>  <UniqueID>  (25) 
24

>  <SMILES>  (25) 
CCc1ccccc1NC(=O)c1cc(S(=O)(=O)N2CCCCC2)ccc1[O-]

>  <Energy>  (25) 
60.94788227966913

>  <Genealogy>  (25) 
CCc1ccccc1NC(=O)c1cc(S(=O)(=O)N2CCCCC2)ccc1[O-] (protonated)
CCc1ccccc1NC(=O)c1cc(S(=O)(=O)N2CCCCC2)ccc1[O-] (3D coordinates assigned)
CCc1ccccc1NC(=O)c1cc(S(=O)(=O)N2CCCCC2)ccc1[O-] (nonaromatic ring conformer: 60.94788227966913 kcal/mol)

>  <smiles>  (25) 
CCc1ccccc1NC(=O)c1cc(S(=O)(=O)N2CCCCC2)ccc1O

>  <score_type>  (25) 
oracle

>  <origin>  (25) 
adgpu

>  <m_score__min__energy>  (25) 
-12.98

>  <m_primary>  (25) 
energy

$$$$
25:0
     RDKit          3D

 49 52  0  0  0  0  0  0  0  0999 V2000
   -1.8480   22.7110  -30.2000 C   0  0  0  0  0  0  0  0  0  0  0  0
   -1.6640   21.4880  -31.0500 C   0  0  0  0  0  0  0  0  0  0  0  0
   -0.3820   20.9580  -31.2550 C   0  0  0  0  0  0  0  0  0  0  0  0
   -0.2080   19.8410  -32.0750 C   0  0  0  0  0  0  0  0  0  0  0  0
   -1.3080   19.2520  -32.7050 C   0  0  0  0  0  0  0  0  0  0  0  0
   -2.5960   19.7810  -32.5230 C   0  0  0  0  0  0  0  0  0  0  0  0
   -3.7270   19.1790  -33.1800 N   0  0  0  0  0  0  0  0  0  0  0  0
   -3.6880   17.7630  -33.5640 C   0  0  0  0  0  0  0  0  0  0  0  0
   -5.0680   17.0840  -33.4010 C   0  0  0  0  0  0  0  0  0  0  0  0
   -6.2190   18.0210  -33.4250 N   0  0  0  0  0  0  0  0  0  0  0  0
   -6.6770   18.3600  -32.0580 C   0  0  0  0  0  0  0  0  0  0  0  0
   -7.0290   19.8120  -31.9400 C   0  0  0  0  0  0  0  0  0  0  0  0
   -8.0980   20.4390  -32.5380 C   0  0  0  0  0  0  0  0  0  0  0  0
   -8.0270   21.7100  -32.2290 O   0  0  0  0  0  0  0  0  0  0  0  0
   -6.9590   21.8710  -31.4780 C   0  0  0  0  0  0  0  0  0  0  0  0
   -6.5330   23.1740  -30.9300 C   0  0  0  0  0  0  0  0  0  0  0  0
   -7.4440   23.9940  -30.2400 C   0  0  0  0  0  0  0  0  0  0  0  0
   -7.0340   25.2270  -29.7240 C   0  0  0  0  0  0  0  0  0  0  0  0
   -5.7130   25.6520  -29.8900 C   0  0  0  0  0  0  0  0  0  0  0  0
   -4.7970   24.8470  -30.5730 C   0  0  0  0  0  0  0  0  0  0  0  0
   -3.4830   25.2830  -30.7320 O   0  0  0  0  0  0  0  0  0  0  0  0
   -5.2070   23.6100  -31.0920 C   0  0  0  0  0  0  0  0  0  0  0  0
   -6.2910   20.7150  -31.2670 N   0  0  0  0  0  0  0  0  0  0  0  0
   -5.9460   19.2040  -34.2710 C   0  0  0  0  0  0  0  0  0  0  0  0
   -4.7870   20.0410  -33.7160 C   0  0  0  0  0  0  0  0  0  0  0  0
   -2.7650   20.9070  -31.6980 C   0  0  0  0  0  0  0  0  0  0  0  0
   -1.8056   22.4289  -29.1376 H   0  0  0  0  0  0  0  0  0  0  0  0
   -1.0485   23.4339  -30.4197 H   0  0  0  0  0  0  0  0  0  0  0  0
   -2.8248   23.1666  -30.4197 H   0  0  0  0  0  0  0  0  0  0  0  0
    0.4884   21.4230  -30.7689 H   0  0  0  0  0  0  0  0  0  0  0  0
    0.7984   19.4232  -32.2256 H   0  0  0  0  0  0  0  0  0  0  0  0
   -1.1640   18.3700  -33.3463 H   0  0  0  0  0  0  0  0  0  0  0  0
   -3.3767   17.6882  -34.6164 H   0  0  0  0  0  0  0  0  0  0  0  0
   -2.9747   17.2495  -32.9025 H   0  0  0  0  0  0  0  0  0  0  0  0
   -5.1951   16.3618  -34.2209 H   0  0  0  0  0  0  0  0  0  0  0  0
   -5.0695   16.6102  -32.4083 H   0  0  0  0  0  0  0  0  0  0  0  0
   -7.5650   17.7565  -31.8188 H   0  0  0  0  0  0  0  0  0  0  0  0
   -5.8570   18.1460  -31.3567 H   0  0  0  0  0  0  0  0  0  0  0  0
   -8.8692   19.9614  -33.1602 H   0  0  0  0  0  0  0  0  0  0  0  0
   -8.4845   23.6634  -30.1057 H   0  0  0  0  0  0  0  0  0  0  0  0
   -7.7523   25.8636  -29.1865 H   0  0  0  0  0  0  0  0  0  0  0  0
   -5.3934   26.6223  -29.4822 H   0  0  0  0  0  0  0  0  0  0  0  0
   -3.1560   25.6750  -31.6060 H   0  0  0  0  0  0  0  0  0  0  0  0
   -4.4856   22.9770  -31.6295 H   0  0  0  0  0  0  0  0  0  0  0  0
   -5.6878   18.8654  -35.2852 H   0  0  0  0  0  0  0  0  0  0  0  0
   -6.8485   19.8328  -34.2840 H   0  0  0  0  0  0  0  0  0  0  0  0
   -4.3721   20.6617  -34.5238 H   0  0  0  0  0  0  0  0  0  0  0  0
   -5.1696   20.6743  -32.9020 H   0  0  0  0  0  0  0  0  0  0  0  0
   -3.7684   21.3360  -31.5593 H   0  0  0  0  0  0  0  0  0  0  0  0
  1  2  1  0
  2  3  2  0
  3  4  1  0
  4  5  2  0
  5  6  1  0
  6  7  1  0
  7  8  1  0
  8  9  1  0
  9 10  1  0
 10 11  1  0
 11 12  1  0
 12 13  2  0
 13 14  1  0
 14 15  1  0
 15 16  1  0
 16 17  2  0
 17 18  1  0
 18 19  2  0
 19 20  1  0
 20 21  1  0
 20 22  2  0
 15 23  2  0
 10 24  1  0
 24 25  1  0
  6 26  2  0
 26  2  1  0
 25  7  1  0
 23 12  1  0
 22 16  1  0
  1 27  1  0
  1 28  1  0
  1 29  1  0
  3 30  1  0
  4 31  1  0
  5 32  1  0
  8 33  1  0
  8 34  1  0
  9 35  1  0
  9 36  1  0
 11 37  1  0
 11 38  1  0
 13 39  1  0
 17 40  1  0
 18 41  1  0
 19 42  1  0
 21 43  1  0
 22 44  1  0
 24 45  1  0
 24 46  1  0
 25 47  1  0
 25 48  1  0
 26 49  1  0
M  END
>  <UniqueID>  (26) 
25

>  <SMILES>  (26) 
Cc1cccc(N2CCN(Cc3coc(-c4cccc(O)c4)n3)CC2)c1

>  <Energy>  (26) 
92.81005370209932

>  <Genealogy>  (26) 
Cc1cccc(N2CCN(Cc3coc(-c4cccc(O)c4)n3)CC2)c1 (3D coordinates assigned)
Cc1cccc(N2CCN(Cc3coc(-c4cccc(O)c4)n3)CC2)c1 (nonaromatic ring conformer: 92.81005370209932 kcal/mol)

>  <smiles>  (26) 
Cc1cccc(N2CCN(Cc3coc(-c4cccc(O)c4)n3)CC2)c1

>  <score_type>  (26) 
oracle

>  <origin>  (26) 
adgpu

>  <m_score__min__energy>  (26) 
-8.9199999999999999

>  <m_primary>  (26) 
energy

$$$$
26:0
     RDKit          3D

 42 44  0  0  0  0  0  0  0  0999 V2000
   -3.4300   18.9130  -26.3120 C   0  0  0  0  0  0  0  0  0  0  0  0
   -2.0710   19.2090  -26.6130 O   0  0  0  0  0  0  0  0  0  0  0  0
   -1.6670   20.4320  -27.1530 C   0  0  0  0  0  0  0  0  0  0  0  0
   -1.7870   20.6500  -28.5290 C   0  0  0  0  0  0  0  0  0  0  0  0
   -1.3760   21.8690  -29.0710 C   0  0  0  0  0  0  0  0  0  0  0  0
   -0.8530   22.8670  -28.2360 C   0  0  0  0  0  0  0  0  0  0  0  0
   -0.3750   24.1760  -28.8010 C   0  0  0  0  0  0  0  0  0  0  0  0
   -1.5010   24.9520  -29.3080 N   0  0  0  0  0  0  0  0  0  0  0  0
   -2.8500   24.7740  -28.8630 C   0  0  0  0  0  0  0  0  0  0  0  0
   -3.1410   24.8990  -27.6420 O   0  0  0  0  0  0  0  0  0  0  0  0
   -3.8990   24.4450  -29.8310 C   0  0  0  0  0  0  0  0  0  0  0  0
   -4.2970   25.2750  -30.8140 N   0  0  0  0  0  0  0  0  0  0  0  0
   -5.2310   24.6260  -31.4390 O   0  0  0  0  0  0  0  0  0  0  0  0
   -5.4060   23.4530  -30.8780 C   0  0  0  0  0  0  0  0  0  0  0  0
   -6.3910   22.4520  -31.3370 C   0  0  0  0  0  0  0  0  0  0  0  0
   -7.7660   22.6870  -31.1920 C   0  0  0  0  0  0  0  0  0  0  0  0
   -8.6920   21.7340  -31.6210 C   0  0  0  0  0  0  0  0  0  0  0  0
   -8.2620   20.5370  -32.2010 C   0  0  0  0  0  0  0  0  0  0  0  0
   -9.4830   19.3740  -32.7060 Cl  0  0  0  0  0  0  0  0  0  0  0  0
   -6.8820   20.2890  -32.3620 C   0  0  0  0  0  0  0  0  0  0  0  0
   -6.3130   18.7800  -33.0960 S   0  0  0  0  0  0  0  0  0  0  0  0
   -4.5930   18.4560  -32.7560 C   0  0  0  0  0  0  0  0  0  0  0  0
   -6.4840   18.8600  -34.5880 O   0  0  0  0  0  0  0  0  0  0  0  0
   -7.1240   17.6340  -32.5610 O   0  0  0  0  0  0  0  0  0  0  0  0
   -5.9570   21.2510  -31.9220 C   0  0  0  0  0  0  0  0  0  0  0  0
   -4.5750   23.2770  -29.8320 N   0  0  0  0  0  0  0  0  0  0  0  0
   -0.7490   22.6090  -26.8610 C   0  0  0  0  0  0  0  0  0  0  0  0
   -1.1530   21.4130  -26.3580 N   0  0  0  0  0  0  0  0  0  0  0  0
   -3.5658   18.8834  -25.2208 H   0  0  0  0  0  0  0  0  0  0  0  0
   -4.0785   19.6910  -26.7413 H   0  0  0  0  0  0  0  0  0  0  0  0
   -3.6962   17.9358  -26.7413 H   0  0  0  0  0  0  0  0  0  0  0  0
   -2.2023   19.8664  -29.1798 H   0  0  0  0  0  0  0  0  0  0  0  0
   -1.4624   22.0468  -30.1531 H   0  0  0  0  0  0  0  0  0  0  0  0
    0.1329   24.7481  -28.0106 H   0  0  0  0  0  0  0  0  0  0  0  0
    0.3212   23.9747  -29.6285 H   0  0  0  0  0  0  0  0  0  0  0  0
   -8.1164   23.6259  -30.7385 H   0  0  0  0  0  0  0  0  0  0  0  0
   -9.7684   21.9267  -31.5016 H   0  0  0  0  0  0  0  0  0  0  0  0
   -4.4336   18.4260  -31.6680 H   0  0  0  0  0  0  0  0  0  0  0  0
   -4.3084   17.4884  -33.1951 H   0  0  0  0  0  0  0  0  0  0  0  0
   -3.9758   19.2537  -33.1951 H   0  0  0  0  0  0  0  0  0  0  0  0
   -4.8796   21.0611  -32.0371 H   0  0  0  0  0  0  0  0  0  0  0  0
   -0.3393   23.3768  -26.1882 H   0  0  0  0  0  0  0  0  0  0  0  0
  1  2  1  0
  2  3  1  0
  3  4  2  0
  4  5  1  0
  5  6  2  0
  6  7  1  0
  7  8  1  0
  8  9  1  0
  9 10  2  0
  9 11  1  0
 11 12  2  0
 12 13  1  0
 13 14  1  0
 14 15  1  0
 15 16  2  0
 16 17  1  0
 17 18  2  0
 18 19  1  0
 18 20  1  0
 20 21  1  0
 21 22  1  0
 21 23  2  0
 21 24  2  0
 20 25  2  0
 14 26  2  0
  6 27  1  0
 27 28  2  0
 28  3  1  0
 26 11  1  0
 25 15  1  0
  1 29  1  0
  1 30  1  0
  1 31  1  0
  4 32  1  0
  5 33  1  0
  7 34  1  0
  7 35  1  0
 16 36  1  0
 17 37  1  0
 22 38  1  0
 22 39  1  0
 22 40  1  0
 25 41  1  0
 27 42  1  0
M  CHG  1   8  -1
M  END
>  <UniqueID>  (27) 
26

>  <SMILES>  (27) 
COc1ccc(C[N-]C(=O)c2noc(-c3ccc(Cl)c(S(C)(=O)=O)c3)n2)cn1

>  <Energy>  (27) 
72.09686728309535

>  <Genealogy>  (27) 
COc1ccc(C[N-]C(=O)c2noc(-c3ccc(Cl)c(S(C)(=O)=O)c3)n2)cn1 (protonated)
COc1ccc(C[N-]C(=O)c2noc(-c3ccc(Cl)c(S(C)(=O)=O)c3)n2)cn1 (3D coordinates assigned)
COc1ccc(C[N-]C(=O)c2noc(-c3ccc(Cl)c(S(C)(=O)=O)c3)n2)cn1 (optimized conformer: 72.09686728309535 kcal/mol)

>  <smiles>  (27) 
COc1ccc(CNC(=O)c2noc(-c3ccc(Cl)c(S(C)(=O)=O)c3)n2)cn1

>  <score_type>  (27) 
oracle

>  <origin>  (27) 
adgpu

>  <m_score__min__energy>  (27) 
-10.630000000000001

>  <m_primary>  (27) 
energy

$$$$
27:0
     RDKit          3D

 50 52  0  0  0  0  0  0  0  0999 V2000
   -8.4460   18.5720  -31.9290 C   0  0  0  0  0  0  0  0  0  0  0  0
   -7.1240   19.1710  -33.0290 S   0  0  0  0  0  0  0  0  0  0  0  0
   -7.2240   20.8570  -32.4250 C   0  0  0  0  0  0  0  0  0  0  0  0
   -8.4700   21.4790  -32.2890 C   0  0  0  0  0  0  0  0  0  0  0  0
   -8.5500   22.7840  -31.7960 C   0  0  0  0  0  0  0  0  0  0  0  0
   -7.3850   23.4740  -31.4470 C   0  0  0  0  0  0  0  0  0  0  0  0
   -6.1290   22.8690  -31.6010 C   0  0  0  0  0  0  0  0  0  0  0  0
   -4.9500   23.5940  -31.2150 N   0  0  0  0  0  0  0  0  0  0  0  0
   -3.8720   23.0280  -30.4460 C   0  0  0  0  0  0  0  0  0  0  0  0
   -3.9410   21.8440  -30.0220 O   0  0  0  0  0  0  0  0  0  0  0  0
   -2.7140   23.8080  -30.1220 N   0  0  0  0  0  0  0  0  0  0  0  0
   -2.0300   23.8120  -28.8610 C   0  0  0  0  0  0  0  0  0  0  0  0
   -2.1230   22.7250  -27.9850 C   0  0  0  0  0  0  0  0  0  0  0  0
   -1.4770   22.7590  -26.7530 C   0  0  0  0  0  0  0  0  0  0  0  0
   -0.7420   23.8880  -26.3520 C   0  0  0  0  0  0  0  0  0  0  0  0
   -0.0340   23.8280  -25.0260 C   0  0  0  0  0  0  0  0  0  0  0  0
   -0.6700   25.0180  -27.2160 C   0  0  0  0  0  0  0  0  0  0  0  0
    0.2290   26.5080  -26.7910 S   0  0  0  0  0  0  0  0  0  0  0  0
   -0.1890   27.6500  -27.6740 O   0  0  0  0  0  0  0  0  0  0  0  0
   -0.1380   26.9000  -25.3870 O   0  0  0  0  0  0  0  0  0  0  0  0
    1.9730   26.3140  -26.8560 N   0  0  0  0  0  0  0  0  0  0  0  0
    2.5530   26.1450  -25.5090 C   0  0  0  0  0  0  0  0  0  0  0  0
    3.9530   25.5170  -25.5980 C   0  0  0  0  0  0  0  0  0  0  0  0
    3.9630   24.2260  -26.1980 O   0  0  0  0  0  0  0  0  0  0  0  0
    2.8820   24.0020  -27.0950 C   0  0  0  0  0  0  0  0  0  0  0  0
    2.4140   25.2780  -27.8140 C   0  0  0  0  0  0  0  0  0  0  0  0
   -1.3250   24.9570  -28.4700 C   0  0  0  0  0  0  0  0  0  0  0  0
   -1.2840   26.0410  -29.3420 O   0  0  0  0  0  0  0  0  0  0  0  0
   -6.0570   21.5460  -32.0730 C   0  0  0  0  0  0  0  0  0  0  0  0
   -8.1416   18.7099  -30.8810 H   0  0  0  0  0  0  0  0  0  0  0  0
   -9.3681   19.1402  -32.1208 H   0  0  0  0  0  0  0  0  0  0  0  0
   -8.6268   17.5040  -32.1208 H   0  0  0  0  0  0  0  0  0  0  0  0
   -9.3869   20.9404  -32.5703 H   0  0  0  0  0  0  0  0  0  0  0  0
   -9.5307   23.2691  -31.6823 H   0  0  0  0  0  0  0  0  0  0  0  0
   -7.4539   24.4973  -31.0493 H   0  0  0  0  0  0  0  0  0  0  0  0
   -4.8470   24.5680  -31.5770 H   0  0  0  0  0  0  0  0  0  0  0  0
   -2.7094   21.8395  -28.2715 H   0  0  0  0  0  0  0  0  0  0  0  0
   -1.5425   21.8892  -26.0828 H   0  0  0  0  0  0  0  0  0  0  0  0
   -0.7723   23.8906  -24.2130 H   0  0  0  0  0  0  0  0  0  0  0  0
    0.5181   22.8798  -24.9477 H   0  0  0  0  0  0  0  0  0  0  0  0
    0.6698   24.6697  -24.9477 H   0  0  0  0  0  0  0  0  0  0  0  0
    2.6281   27.1283  -25.0217 H   0  0  0  0  0  0  0  0  0  0  0  0
    1.9021   25.4791  -24.9235 H   0  0  0  0  0  0  0  0  0  0  0  0
    4.5950   26.1822  -26.1941 H   0  0  0  0  0  0  0  0  0  0  0  0
    4.3175   25.3958  -24.5673 H   0  0  0  0  0  0  0  0  0  0  0  0
    3.2026   23.2719  -27.8527 H   0  0  0  0  0  0  0  0  0  0  0  0
    2.0341   23.6347  -26.4982 H   0  0  0  0  0  0  0  0  0  0  0  0
    3.2470   25.6764  -28.4118 H   0  0  0  0  0  0  0  0  0  0  0  0
    1.5590   25.0169  -28.4549 H   0  0  0  0  0  0  0  0  0  0  0  0
   -5.0794   21.0503  -32.1660 H   0  0  0  0  0  0  0  0  0  0  0  0
  1  2  1  0
  2  3  1  0
  3  4  2  0
  4  5  1  0
  5  6  2  0
  6  7  1  0
  7  8  1  0
  8  9  1  0
  9 10  2  0
  9 11  1  0
 11 12  1  0
 12 13  2  0
 13 14  1  0
 14 15  2  0
 15 16  1  0
 15 17  1  0
 17 18  1  0
 18 19  2  0
 18 20  2  0
 18 21  1  0
 21 22  1  0
 22 23  1  0
 23 24  1  0
 24 25  1  0
 25 26  1  0
 17 27  2  0
 27 28  1  0
  7 29  2  0
 29  3  1  0
 27 12  1  0
 26 21  1  0
  1 30  1  0
  1 31  1  0
  1 32  1  0
  4 33  1  0
  5 34  1  0
  6 35  1  0
  8 36  1  0
 13 37  1  0
 14 38  1  0
 16 39  1  0
 16 40  1  0
 16 41  1  0
 22 42  1  0
 22 43  1  0
 23 44  1  0
 23 45  1  0
 25 46  1  0
 25 47  1  0
 26 48  1  0
 26 49  1  0
 29 50  1  0
M  CHG  2  11  -1  28  -1
M  END
>  <UniqueID>  (28) 
27

>  <SMILES>  (28) 
CSc1cccc(NC(=O)[N-]c2ccc(C)c(S(=O)(=O)N3CCOCC3)c2[O-])c1

>  <Energy>  (28) 
74.70834907412387

>  <Genealogy>  (28) 
CSc1cccc(NC(=O)[N-]c2ccc(C)c(S(=O)(=O)N3CCOCC3)c2[O-])c1 (protonated)
CSc1cccc(NC(=O)[N-]c2ccc(C)c(S(=O)(=O)N3CCOCC3)c2[O-])c1 (3D coordinates assigned)
CSc1cccc(NC(=O)[N-]c2ccc(C)c(S(=O)(=O)N3CCOCC3)c2[O-])c1 (nonaromatic ring conformer: 74.70834907412387 kcal/mol)

>  <smiles>  (28) 
CSc1cccc(NC(=O)Nc2ccc(C)c(S(=O)(=O)N3CCOCC3)c2O)c1

>  <score_type>  (28) 
oracle

>  <origin>  (28) 
adgpu

>  <m_score__min__energy>  (28) 
-13.85

>  <m_primary>  (28) 
energy

$$$$
28:0
     RDKit          3D

 43 45  0  0  0  0  0  0  0  0999 V2000
   -1.9920   25.3900  -29.0590 N   0  0  0  0  0  0  0  0  0  0  0  0
   -2.9610   23.9820  -29.3140 S   0  0  0  0  0  0  0  0  0  0  0  0
   -3.1360   23.7920  -30.7940 O   0  0  0  0  0  0  0  0  0  0  0  0
   -4.2990   24.1790  -28.6640 O   0  0  0  0  0  0  0  0  0  0  0  0
   -2.1770   22.5720  -28.5870 C   0  0  0  0  0  0  0  0  0  0  0  0
   -1.9480   22.5820  -27.2020 C   0  0  0  0  0  0  0  0  0  0  0  0
   -1.3140   21.5070  -26.5770 C   0  0  0  0  0  0  0  0  0  0  0  0
   -0.9030   20.4070  -27.3280 C   0  0  0  0  0  0  0  0  0  0  0  0
   -1.1320   20.3740  -28.7040 C   0  0  0  0  0  0  0  0  0  0  0  0
   -1.7800   21.4440  -29.3480 C   0  0  0  0  0  0  0  0  0  0  0  0
   -2.0060   21.3410  -30.8060 C   0  0  0  0  0  0  0  0  0  0  0  0
   -0.9270   21.5110  -31.6880 C   0  0  0  0  0  0  0  0  0  0  0  0
   -1.1020   21.3270  -33.0600 C   0  0  0  0  0  0  0  0  0  0  0  0
   -2.3530   20.9610  -33.5630 C   0  0  0  0  0  0  0  0  0  0  0  0
   -3.4440   20.8040  -32.7020 C   0  0  0  0  0  0  0  0  0  0  0  0
   -4.6930   20.3620  -33.2480 N   0  0  0  0  0  0  0  0  0  0  0  0
   -5.7360   19.6900  -32.5320 C   0  0  0  0  0  0  0  0  0  0  0  0
   -5.5110   18.5320  -32.0900 O   0  0  0  0  0  0  0  0  0  0  0  0
   -7.1020   20.2640  -32.4180 C   0  0  0  0  0  0  0  0  0  0  0  0
   -8.2030   19.4360  -32.7010 C   0  0  0  0  0  0  0  0  0  0  0  0
   -9.5070   19.8830  -32.4820 C   0  0  0  0  0  0  0  0  0  0  0  0
   -9.7310   21.1590  -31.9690 C   0  0  0  0  0  0  0  0  0  0  0  0
   -8.6530   22.0000  -31.6890 C   0  0  0  0  0  0  0  0  0  0  0  0
   -7.3320   21.5760  -31.9210 C   0  0  0  0  0  0  0  0  0  0  0  0
   -6.2300   22.5440  -31.7060 C   0  0  0  0  0  0  0  0  0  0  0  0
   -5.8050   22.8890  -30.3860 N   0  0  0  0  0  0  0  0  0  0  0  0
   -5.6730   23.0930  -32.6950 O   0  0  0  0  0  0  0  0  0  0  0  0
   -3.2690   20.9900  -31.3180 C   0  0  0  0  0  0  0  0  0  0  0  0
   -1.6170   25.6750  -29.9920 H   0  0  0  0  0  0  0  0  0  0  0  0
   -2.2716   23.4460  -26.6031 H   0  0  0  0  0  0  0  0  0  0  0  0
   -1.1386   21.5279  -25.4913 H   0  0  0  0  0  0  0  0  0  0  0  0
   -0.3973   19.5636  -26.8351 H   0  0  0  0  0  0  0  0  0  0  0  0
   -0.8029   19.5036  -29.2906 H   0  0  0  0  0  0  0  0  0  0  0  0
    0.0617   21.7908  -31.2953 H   0  0  0  0  0  0  0  0  0  0  0  0
   -0.2543   21.4702  -33.7462 H   0  0  0  0  0  0  0  0  0  0  0  0
   -2.4807   20.7953  -34.6429 H   0  0  0  0  0  0  0  0  0  0  0  0
   -8.0346   18.4246  -33.0995 H   0  0  0  0  0  0  0  0  0  0  0  0
  -10.3589   19.2271  -32.7147 H   0  0  0  0  0  0  0  0  0  0  0  0
  -10.7591   21.5040  -31.7844 H   0  0  0  0  0  0  0  0  0  0  0  0
   -8.8384   23.0052  -31.2825 H   0  0  0  0  0  0  0  0  0  0  0  0
   -5.0570   23.6040  -30.2470 H   0  0  0  0  0  0  0  0  0  0  0  0
   -6.1930   22.4020  -29.5490 H   0  0  0  0  0  0  0  0  0  0  0  0
   -4.1214   20.8607  -30.6349 H   0  0  0  0  0  0  0  0  0  0  0  0
  1  2  1  0
  2  3  2  0
  2  4  2  0
  2  5  1  0
  5  6  2  0
  6  7  1  0
  7  8  2  0
  8  9  1  0
  9 10  2  0
 10 11  1  0
 11 12  2  0
 12 13  1  0
 13 14  2  0
 14 15  1  0
 15 16  1  0
 16 17  1  0
 17 18  2  0
 17 19  1  0
 19 20  2  0
 20 21  1  0
 21 22  2  0
 22 23  1  0
 23 24  2  0
 24 25  1  0
 25 26  1  0
 25 27  2  0
 15 28  2  0
 10  5  1  0
 28 11  1  0
 24 19  1  0
  1 29  1  0
  6 30  1  0
  7 31  1  0
  8 32  1  0
  9 33  1  0
 12 34  1  0
 13 35  1  0
 14 36  1  0
 20 37  1  0
 21 38  1  0
 22 39  1  0
 23 40  1  0
 26 41  1  0
 26 42  1  0
 28 43  1  0
M  CHG  2   1  -1  16  -1
M  END
>  <UniqueID>  (29) 
28

>  <SMILES>  (29) 
[NH-]S(=O)(=O)c1ccccc1-c1cccc([N-]C(=O)c2ccccc2C(N)=O)c1

>  <Energy>  (29) 
64.83425076117726

>  <Genealogy>  (29) 
[NH-]S(=O)(=O)c1ccccc1-c1cccc([N-]C(=O)c2ccccc2C(N)=O)c1 (protonated)
[NH-]S(=O)(=O)c1ccccc1-c1cccc([N-]C(=O)c2ccccc2C(N)=O)c1 (3D coordinates assigned)
[NH-]S(=O)(=O)c1ccccc1-c1cccc([N-]C(=O)c2ccccc2C(N)=O)c1 (optimized conformer: 64.83425076117726 kcal/mol)

>  <smiles>  (29) 
NC(=O)c1ccccc1C(=O)Nc1cccc(-c2ccccc2S(N)(=O)=O)c1

>  <score_type>  (29) 
oracle

>  <origin>  (29) 
adgpu

>  <m_score__min__energy>  (29) 
-12.23

>  <m_primary>  (29) 
energy

$$$$
29:0
     RDKit          3D

 54 56  0  0  0  0  0  0  0  0999 V2000
   -2.0510   25.4390  -25.6290 C   0  0  0  0  0  0  0  0  0  0  0  0
   -0.5460   25.1390  -25.4290 C   0  0  0  0  0  0  0  0  0  0  0  0
    0.0150   26.1350  -24.3940 C   0  0  0  0  0  0  0  0  0  0  0  0
    0.2220   25.3080  -26.7620 C   0  0  0  0  0  0  0  0  0  0  0  0
   -0.1490   24.2540  -27.7670 C   0  0  0  0  0  0  0  0  0  0  0  0
   -0.0050   24.5050  -28.9940 O   0  0  0  0  0  0  0  0  0  0  0  0
   -0.6090   22.9550  -27.3390 N   0  0  0  0  0  0  0  0  0  0  0  0
   -0.9230   21.9210  -28.3360 C   0  0  0  0  0  0  0  0  0  0  0  0
   -2.3090   22.1260  -28.8610 C   0  0  0  0  0  0  0  0  0  0  0  0
   -3.2380   21.3720  -28.4630 O   0  0  0  0  0  0  0  0  0  0  0  0
   -2.5740   23.1670  -29.8140 N   0  0  0  0  0  0  0  0  0  0  0  0
   -3.7870   23.2410  -30.5790 C   0  0  0  0  0  0  0  0  0  0  0  0
   -4.3950   22.0540  -31.0130 C   0  0  0  0  0  0  0  0  0  0  0  0
   -5.5870   22.0900  -31.7500 C   0  0  0  0  0  0  0  0  0  0  0  0
   -6.3190   20.5910  -32.3300 S   0  0  0  0  0  0  0  0  0  0  0  0
   -6.3040   19.5720  -31.2230 O   0  0  0  0  0  0  0  0  0  0  0  0
   -7.7510   20.8520  -32.7030 O   0  0  0  0  0  0  0  0  0  0  0  0
   -5.4670   19.9530  -33.7170 N   0  0  0  0  0  0  0  0  0  0  0  0
   -4.0190   19.8030  -33.4470 C   0  0  0  0  0  0  0  0  0  0  0  0
   -3.6220   18.3320  -33.2240 C   0  0  0  0  0  0  0  0  0  0  0  0
   -3.9360   17.4930  -34.3270 O   0  0  0  0  0  0  0  0  0  0  0  0
   -5.1150   17.8770  -35.0250 C   0  0  0  0  0  0  0  0  0  0  0  0
   -6.1010   18.7050  -34.1830 C   0  0  0  0  0  0  0  0  0  0  0  0
   -6.1890   23.3250  -32.0280 C   0  0  0  0  0  0  0  0  0  0  0  0
   -5.6030   24.5100  -31.5770 C   0  0  0  0  0  0  0  0  0  0  0  0
   -4.4120   24.4740  -30.8460 C   0  0  0  0  0  0  0  0  0  0  0  0
   -3.8770   25.6630  -30.3630 O   0  0  0  0  0  0  0  0  0  0  0  0
   -0.6950   22.6580  -25.9290 C   0  0  0  0  0  0  0  0  0  0  0  0
   -1.0140   21.5010  -25.5390 O   0  0  0  0  0  0  0  0  0  0  0  0
   -0.3480   23.6970  -24.8980 C   0  0  0  0  0  0  0  0  0  0  0  0
   -2.5390   25.5363  -24.6480 H   0  0  0  0  0  0  0  0  0  0  0  0
   -2.1663   26.3778  -26.1906 H   0  0  0  0  0  0  0  0  0  0  0  0
   -2.5174   24.6162  -26.1906 H   0  0  0  0  0  0  0  0  0  0  0  0
   -0.1932   25.7653  -23.3791 H   0  0  0  0  0  0  0  0  0  0  0  0
    1.1017   26.2343  -24.5323 H   0  0  0  0  0  0  0  0  0  0  0  0
   -0.4634   27.1158  -24.5323 H   0  0  0  0  0  0  0  0  0  0  0  0
   -0.0118   26.2970  -27.1829 H   0  0  0  0  0  0  0  0  0  0  0  0
    1.2964   25.2084  -26.5483 H   0  0  0  0  0  0  0  0  0  0  0  0
   -0.2048   21.9849  -29.1668 H   0  0  0  0  0  0  0  0  0  0  0  0
   -0.8569   20.9297  -27.8637 H   0  0  0  0  0  0  0  0  0  0  0  0
   -1.8990   23.9630  -29.8830 H   0  0  0  0  0  0  0  0  0  0  0  0
   -3.9321   21.0855  -30.7728 H   0  0  0  0  0  0  0  0  0  0  0  0
   -3.4552   20.1965  -34.3056 H   0  0  0  0  0  0  0  0  0  0  0  0
   -3.7857   20.3605  -32.5279 H   0  0  0  0  0  0  0  0  0  0  0  0
   -2.5372   18.2858  -33.0475 H   0  0  0  0  0  0  0  0  0  0  0  0
   -4.1976   17.9658  -32.3611 H   0  0  0  0  0  0  0  0  0  0  0  0
   -4.8195   18.4757  -35.8992 H   0  0  0  0  0  0  0  0  0  0  0  0
   -5.6361   16.9489  -35.3027 H   0  0  0  0  0  0  0  0  0  0  0  0
   -6.9798   18.9533  -34.7962 H   0  0  0  0  0  0  0  0  0  0  0  0
   -6.4028   18.1125  -33.3067 H   0  0  0  0  0  0  0  0  0  0  0  0
   -7.1259   23.3611  -32.6032 H   0  0  0  0  0  0  0  0  0  0  0  0
   -6.0808   25.4758  -31.7980 H   0  0  0  0  0  0  0  0  0  0  0  0
   -0.9924   23.5520  -24.0184 H   0  0  0  0  0  0  0  0  0  0  0  0
    0.7146   23.5752  -24.6409 H   0  0  0  0  0  0  0  0  0  0  0  0
  1  2  1  0
  2  3  1  0
  2  4  1  0
  4  5  1  0
  5  6  2  0
  5  7  1  0
  7  8  1  0
  8  9  1  0
  9 10  2  0
  9 11  1  0
 11 12  1  0
 12 13  2  0
 13 14  1  0
 14 15  1  0
 15 16  2  0
 15 17  2  0
 15 18  1  0
 18 19  1  0
 19 20  1  0
 20 21  1  0
 21 22  1  0
 22 23  1  0
 14 24  2  0
 24 25  1  0
 25 26  2  0
 26 27  1  0
  7 28  1  0
 28 29  2  0
 28 30  1  0
 30  2  1  0
 26 12  1  0
 23 18  1  0
  1 31  1  0
  1 32  1  0
  1 33  1  0
  3 34  1  0
  3 35  1  0
  3 36  1  0
  4 37  1  0
  4 38  1  0
  8 39  1  0
  8 40  1  0
 11 41  1  0
 13 42  1  0
 19 43  1  0
 19 44  1  0
 20 45  1  0
 20 46  1  0
 22 47  1  0
 22 48  1  0
 23 49  1  0
 23 50  1  0
 24 51  1  0
 25 52  1  0
 30 53  1  0
 30 54  1  0
M  CHG  1  27  -1
M  END
>  <UniqueID>  (30) 
29

>  <SMILES>  (30) 
CC1(C)CC(=O)N(CC(=O)Nc2cc(S(=O)(=O)N3CCOCC3)ccc2[O-])C(=O)C1

>  <Energy>  (30) 
66.24012017111988

>  <Genealogy>  (30) 
CC1(C)CC(=O)N(CC(=O)Nc2cc(S(=O)(=O)N3CCOCC3)ccc2[O-])C(=O)C1 (protonated)
CC1(C)CC(=O)N(CC(=O)Nc2cc(S(=O)(=O)N3CCOCC3)ccc2[O-])C(=O)C1 (3D coordinates assigned)
CC1(C)CC(=O)N(CC(=O)Nc2cc(S(=O)(=O)N3CCOCC3)ccc2[O-])C(=O)C1 (nonaromatic ring conformer: 66.24012017111988 kcal/mol)

>  <smiles>  (30) 
CC1(C)CC(=O)N(CC(=O)Nc2cc(S(=O)(=O)N3CCOCC3)ccc2O)C(=O)C1

>  <score_type>  (30) 
oracle

>  <origin>  (30) 
adgpu

>  <m_score__min__energy>  (30) 
-12.56

>  <m_primary>  (30) 
energy

$$$$
30:0
     RDKit          3D

 44 47  0  0  0  0  0  0  0  0999 V2000
   -6.6921   18.4391  -35.0370 H   0  0  0  0  0  0  0  0  0  0  0  0
   -6.0910   18.8470  -34.2110 C   0  0  0  0  0  0  0  0  0  0  0  0
   -4.8420   19.2370  -34.2790 O   0  0  0  0  0  0  0  0  0  0  0  0
   -4.5020   19.6700  -33.0840 C   0  0  0  0  0  0  0  0  0  0  0  0
   -3.1730   20.2240  -32.7580 C   0  0  0  0  0  0  0  0  0  0  0  0
   -2.8160   20.4680  -31.4220 C   0  0  0  0  0  0  0  0  0  0  0  0
   -3.5333   20.2538  -30.6160 H   0  0  0  0  0  0  0  0  0  0  0  0
   -1.5530   20.9820  -31.1110 C   0  0  0  0  0  0  0  0  0  0  0  0
   -1.2818   21.1756  -30.0627 H   0  0  0  0  0  0  0  0  0  0  0  0
   -0.6350   21.2500  -32.1300 C   0  0  0  0  0  0  0  0  0  0  0  0
    0.3582   21.6532  -31.8830 H   0  0  0  0  0  0  0  0  0  0  0  0
   -0.9780   21.0060  -33.4630 C   0  0  0  0  0  0  0  0  0  0  0  0
    0.1820   21.3220  -34.7390 Cl  0  0  0  0  0  0  0  0  0  0  0  0
   -2.2430   20.4970  -33.7770 C   0  0  0  0  0  0  0  0  0  0  0  0
   -2.5116   20.3093  -34.8271 H   0  0  0  0  0  0  0  0  0  0  0  0
   -5.5110   19.5750  -32.1920 N   0  0  0  0  0  0  0  0  0  0  0  0
   -6.5120   19.0420  -32.9150 C   0  0  0  0  0  0  0  0  0  0  0  0
   -7.9080   18.8590  -32.4030 C   0  0  0  0  0  0  0  0  0  0  0  0
   -7.8735   18.3632  -31.4217 H   0  0  0  0  0  0  0  0  0  0  0  0
   -8.4744   18.2408  -33.1151 H   0  0  0  0  0  0  0  0  0  0  0  0
   -8.5680   20.1580  -32.2660 N   0  0  0  0  0  0  0  0  0  0  0  0
   -9.5270   20.2540  -32.6700 H   0  0  0  0  0  0  0  0  0  0  0  0
   -7.8940   21.3470  -31.8100 C   0  0  0  0  0  0  0  0  0  0  0  0
   -7.0730   22.0560  -32.6990 C   0  0  0  0  0  0  0  0  0  0  0  0
   -7.0033   21.7387  -33.7499 H   0  0  0  0  0  0  0  0  0  0  0  0
   -6.3430   23.1630  -32.2580 C   0  0  0  0  0  0  0  0  0  0  0  0
   -5.6914   23.7046  -32.9595 H   0  0  0  0  0  0  0  0  0  0  0  0
   -6.4380   23.5850  -30.9270 C   0  0  0  0  0  0  0  0  0  0  0  0
   -5.4330   24.9150  -30.3610 S   0  0  0  0  0  0  0  0  0  0  0  0
   -5.6770   26.1160  -31.2300 O   0  0  0  0  0  0  0  0  0  0  0  0
   -5.7630   25.2710  -28.9380 O   0  0  0  0  0  0  0  0  0  0  0  0
   -3.7600   24.4650  -30.4630 N   0  0  0  0  0  0  0  0  0  0  0  0
   -3.0690   23.9820  -29.4740 C   0  0  0  0  0  0  0  0  0  0  0  0
   -3.6330   23.7020  -27.9080 S   0  0  0  0  0  0  0  0  0  0  0  0
   -2.1530   23.1010  -27.3730 C   0  0  0  0  0  0  0  0  0  0  0  0
   -1.9322   22.7396  -26.3578 H   0  0  0  0  0  0  0  0  0  0  0  0
   -1.2580   23.1410  -28.4380 C   0  0  0  0  0  0  0  0  0  0  0  0
   -0.2152   22.8024  -28.3493 H   0  0  0  0  0  0  0  0  0  0  0  0
   -1.7730   23.6310  -29.5960 N   0  0  0  0  0  0  0  0  0  0  0  0
   -1.2220   23.7180  -30.4800 H   0  0  0  0  0  0  0  0  0  0  0  0
   -7.2910   22.9090  -30.0460 C   0  0  0  0  0  0  0  0  0  0  0  0
   -7.3884   23.2523  -29.0055 H   0  0  0  0  0  0  0  0  0  0  0  0
   -8.0180   21.8010  -30.4840 C   0  0  0  0  0  0  0  0  0  0  0  0
   -8.6920   21.2796  -29.7884 H   0  0  0  0  0  0  0  0  0  0  0  0
  1  2  1  0
  2  3  1  0
  3  4  1  0
  4  5  1  0
  5  6  2  0
  6  7  1  0
  6  8  1  0
  8  9  1  0
  8 10  2  0
 10 11  1  0
 10 12  1  0
 12 13  1  0
 12 14  2  0
 14 15  1  0
  4 16  2  0
 16 17  1  0
 17 18  1  0
 18 19  1  0
 18 20  1  0
 18 21  1  0
 21 22  1  0
 21 23  1  0
 23 24  2  0
 24 25  1  0
 24 26  1  0
 26 27  1  0
 26 28  2  0
 28 29  1  0
 29 30  2  0
 29 31  2  0
 29 32  1  0
 32 33  2  0
 33 34  1  0
 34 35  1  0
 35 36  1  0
 35 37  2  0
 37 38  1  0
 37 39  1  0
 39 40  1  0
 28 41  1  0
 41 42  1  0
 41 43  2  0
 43 44  1  0
 17  2  2  0
 43 23  1  0
 14  5  1  0
 39 33  1  0
M  END
>  <UniqueID>  (31) 
30

>  <SMILES>  (31) 
O=S(=O)(/N=c1/[nH]ccs1)c1ccc(NCc2coc(-c3cccc(Cl)c3)n2)cc1

>  <Energy>  (31) 
107.08034261226679

>  <Genealogy>  (31) 
O=S(=O)(/N=c1/[nH]ccs1)c1ccc(NCc2coc(-c3cccc(Cl)c3)n2)cc1 (cis-trans isomerization)
O=S(=O)(/N=c1/[nH]ccs1)c1ccc(NCc2coc(-c3cccc(Cl)c3)n2)cc1 (3D coordinates assigned)
O=S(=O)(/N=c1/[nH]ccs1)c1ccc(NCc2coc(-c3cccc(Cl)c3)n2)cc1 (optimized conformer: 107.08034261226679 kcal/mol)

>  <smiles>  (31) 
O=S(=O)(N=c1[nH]ccs1)c1ccc(NCc2coc(-c3cccc(Cl)c3)n2)cc1

>  <score_type>  (31) 
oracle

>  <origin>  (31) 
adgpu

>  <m_score__min__energy>  (31) 
-9.5600000000000005

>  <m_primary>  (31) 
energy

$$$$
31:0
     RDKit          3D

 45 48  0  0  0  0  0  0  0  0999 V2000
   -9.3100   21.1540  -32.3920 O   0  0  0  0  0  0  0  0  0  0  0  0
   -7.9020   20.7400  -32.0670 S   0  0  0  0  0  0  0  0  0  0  0  0
   -7.9200   19.8470  -30.8580 O   0  0  0  0  0  0  0  0  0  0  0  0
   -7.2430   19.8660  -33.4140 N   0  0  0  0  0  0  0  0  0  0  0  0
   -5.8880   19.3830  -33.4710 C   0  0  0  0  0  0  0  0  0  0  0  0
   -5.5910   18.0100  -33.5370 C   0  0  0  0  0  0  0  0  0  0  0  0
   -4.2640   17.5750  -33.6030 C   0  0  0  0  0  0  0  0  0  0  0  0
   -3.2140   18.5030  -33.5900 C   0  0  0  0  0  0  0  0  0  0  0  0
   -1.5360   17.9510  -33.6840 S   0  0  0  0  0  0  0  0  0  0  0  0
   -1.4600   16.5340  -33.1880 O   0  0  0  0  0  0  0  0  0  0  0  0
   -1.0970   17.9650  -35.1210 O   0  0  0  0  0  0  0  0  0  0  0  0
   -0.4440   18.9410  -32.7460 N   0  0  0  0  0  0  0  0  0  0  0  0
   -0.8620   19.0510  -31.3500 C   0  0  0  0  0  0  0  0  0  0  0  0
   -0.2640   20.3480  -30.8280 C   0  0  0  0  0  0  0  0  0  0  0  0
    0.0370   21.1800  -32.0660 C   0  0  0  0  0  0  0  0  0  0  0  0
   -0.3770   20.3120  -33.2450 C   0  0  0  0  0  0  0  0  0  0  0  0
   -3.5060   19.8710  -33.5260 C   0  0  0  0  0  0  0  0  0  0  0  0
   -4.8310   20.3070  -33.4600 C   0  0  0  0  0  0  0  0  0  0  0  0
   -6.9040   22.1470  -31.7150 C   0  0  0  0  0  0  0  0  0  0  0  0
   -7.2590   23.4190  -32.2260 C   0  0  0  0  0  0  0  0  0  0  0  0
   -6.4560   24.5440  -31.9640 C   0  0  0  0  0  0  0  0  0  0  0  0
   -5.3120   24.3650  -31.1900 C   0  0  0  0  0  0  0  0  0  0  0  0
   -4.4230   25.3120  -30.8380 N   0  0  0  0  0  0  0  0  0  0  0  0
   -3.5090   24.6370  -30.1000 C   0  0  0  0  0  0  0  0  0  0  0  0
   -2.3990   25.2470  -29.5300 O   0  0  0  0  0  0  0  0  0  0  0  0
   -3.8050   23.2880  -29.9820 C   0  0  0  0  0  0  0  0  0  0  0  0
   -4.9700   23.1350  -30.6910 C   0  0  0  0  0  0  0  0  0  0  0  0
   -5.7430   22.0010  -30.9290 C   0  0  0  0  0  0  0  0  0  0  0  0
   -7.9050   19.6090  -34.1800 H   0  0  0  0  0  0  0  0  0  0  0  0
   -6.4081   17.2735  -33.5367 H   0  0  0  0  0  0  0  0  0  0  0  0
   -4.0430   16.4992  -33.6654 H   0  0  0  0  0  0  0  0  0  0  0  0
   -1.9594   19.0828  -31.2821 H   0  0  0  0  0  0  0  0  0  0  0  0
   -0.5210   18.1871  -30.7606 H   0  0  0  0  0  0  0  0  0  0  0  0
   -0.9828   20.8696  -30.1790 H   0  0  0  0  0  0  0  0  0  0  0  0
    0.6387   20.1693  -30.2253 H   0  0  0  0  0  0  0  0  0  0  0  0
   -0.5438   22.1141  -32.0528 H   0  0  0  0  0  0  0  0  0  0  0  0
    1.0980   21.4651  -32.1199 H   0  0  0  0  0  0  0  0  0  0  0  0
   -1.3608   20.6277  -33.6226 H   0  0  0  0  0  0  0  0  0  0  0  0
    0.3399   20.3992  -34.0748 H   0  0  0  0  0  0  0  0  0  0  0  0
   -2.6875   20.6059  -33.5277 H   0  0  0  0  0  0  0  0  0  0  0  0
   -5.0484   21.3836  -33.3989 H   0  0  0  0  0  0  0  0  0  0  0  0
   -8.1700   23.5283  -32.8327 H   0  0  0  0  0  0  0  0  0  0  0  0
   -6.7236   25.5353  -32.3586 H   0  0  0  0  0  0  0  0  0  0  0  0
   -3.2359   22.5162  -29.4430 H   0  0  0  0  0  0  0  0  0  0  0  0
   -5.4565   21.0223  -30.5166 H   0  0  0  0  0  0  0  0  0  0  0  0
  1  2  2  0
  2  3  2  0
  2  4  1  0
  4  5  1  0
  5  6  2  0
  6  7  1  0
  7  8  2  0
  8  9  1  0
  9 10  2  0
  9 11  2  0
  9 12  1  0
 12 13  1  0
 13 14  1  0
 14 15  1  0
 15 16  1  0
  8 17  1  0
 17 18  2  0
  2 19  1  0
 19 20  2  0
 20 21  1  0
 21 22  2  0
 22 23  1  0
 23 24  1  0
 24 25  1  0
 24 26  2  0
 26 27  1  0
 27 28  2  0
 18  5  1  0
 28 19  1  0
 16 12  1  0
 27 22  1  0
  4 29  1  0
  6 30  1  0
  7 31  1  0
 13 32  1  0
 13 33  1  0
 14 34  1  0
 14 35  1  0
 15 36  1  0
 15 37  1  0
 16 38  1  0
 16 39  1  0
 17 40  1  0
 18 41  1  0
 20 42  1  0
 21 43  1  0
 26 44  1  0
 28 45  1  0
M  CHG  2  23  -1  25  -1
M  END
>  <UniqueID>  (32) 
31

>  <SMILES>  (32) 
O=S(=O)(Nc1ccc(S(=O)(=O)N2CCCC2)cc1)c1ccc2[n-]c([O-])cc2c1

>  <Energy>  (32) 
83.89112436760226

>  <Genealogy>  (32) 
O=S(=O)(Nc1ccc(S(=O)(=O)N2CCCC2)cc1)c1ccc2[n-]c([O-])cc2c1 (protonated)
O=S(=O)(Nc1ccc(S(=O)(=O)N2CCCC2)cc1)c1ccc2[n-]c([O-])cc2c1 (3D coordinates assigned)
O=S(=O)(Nc1ccc(S(=O)(=O)N2CCCC2)cc1)c1ccc2[n-]c([O-])cc2c1 (nonaromatic ring conformer: 83.89112436760226 kcal/mol)

>  <smiles>  (32) 
O=S(=O)(Nc1ccc(S(=O)(=O)N2CCCC2)cc1)c1ccc2[nH]c(O)cc2c1

>  <score_type>  (32) 
oracle

>  <origin>  (32) 
adgpu

>  <m_score__min__energy>  (32) 
-13.5

>  <m_primary>  (32) 
energy

$$$$
32:0
     RDKit          3D

 67 70  0  0  0  0  0  0  0  0999 V2000
   -7.0540   20.3720  -32.6770 C   0  0  0  0  0  0  0  0  0  0  0  0
   -8.5060   20.5090  -32.5020 N   0  0  0  0  0  0  0  0  0  0  0  0
   -9.0430   19.3260  -31.8180 C   0  0  0  0  0  0  0  0  0  0  0  0
   -8.8450   21.9310  -31.5480 S   0  0  0  0  0  0  0  0  0  0  0  0
   -9.5560   21.5390  -30.2810 O   0  0  0  0  0  0  0  0  0  0  0  0
   -9.7250   22.8680  -32.3280 O   0  0  0  0  0  0  0  0  0  0  0  0
   -7.3420   22.7630  -31.1630 C   0  0  0  0  0  0  0  0  0  0  0  0
   -6.8690   22.7590  -29.8440 C   0  0  0  0  0  0  0  0  0  0  0  0
   -5.7190   23.4760  -29.5070 C   0  0  0  0  0  0  0  0  0  0  0  0
   -5.0370   24.2170  -30.4890 C   0  0  0  0  0  0  0  0  0  0  0  0
   -3.9130   25.0420  -30.1570 N   0  0  0  0  0  0  0  0  0  0  0  0
   -2.6460   24.5540  -29.7060 C   0  0  0  0  0  0  0  0  0  0  0  0
   -1.9440   25.2870  -28.9590 O   0  0  0  0  0  0  0  0  0  0  0  0
   -2.2050   23.1730  -30.0280 C   0  0  0  0  0  0  0  0  0  0  0  0
   -2.7340   22.5170  -31.1550 C   0  0  0  0  0  0  0  0  0  0  0  0
   -2.3860   21.1960  -31.4550 C   0  0  0  0  0  0  0  0  0  0  0  0
   -3.0550   20.4160  -32.8930 S   0  0  0  0  0  0  0  0  0  0  0  0
   -3.7130   19.1320  -32.4640 O   0  0  0  0  0  0  0  0  0  0  0  0
   -4.1250   21.3070  -33.4580 O   0  0  0  0  0  0  0  0  0  0  0  0
   -1.8770   20.1140  -34.1600 N   0  0  0  0  0  0  0  0  0  0  0  0
   -0.8640   21.1780  -34.3260 C   0  0  0  0  0  0  0  0  0  0  0  0
    0.3430   21.0300  -33.3790 C   0  0  0  0  0  0  0  0  0  0  0  0
    0.9090   19.6110  -33.3940 C   0  0  0  0  0  0  0  0  0  0  0  0
   -0.1920   18.5870  -33.1310 C   0  0  0  0  0  0  0  0  0  0  0  0
   -1.3160   18.7500  -34.1580 C   0  0  0  0  0  0  0  0  0  0  0  0
   -1.4760   20.5210  -30.6380 C   0  0  0  0  0  0  0  0  0  0  0  0
   -0.9240   21.1590  -29.5270 C   0  0  0  0  0  0  0  0  0  0  0  0
   -1.2810   22.4770  -29.2090 C   0  0  0  0  0  0  0  0  0  0  0  0
   -0.7270   23.0720  -28.0260 N   0  0  0  0  0  0  0  0  0  0  0  0
   -1.4410   22.8760  -26.7560 C   0  0  0  0  0  0  0  0  0  0  0  0
   -0.8130   23.6650  -25.6020 C   0  0  0  0  0  0  0  0  0  0  0  0
    0.5920   23.7210  -25.7260 O   0  0  0  0  0  0  0  0  0  0  0  0
    0.9170   24.5220  -26.8410 C   0  0  0  0  0  0  0  0  0  0  0  0
    0.5360   23.8160  -28.1440 C   0  0  0  0  0  0  0  0  0  0  0  0
   -5.4820   24.1760  -31.8160 C   0  0  0  0  0  0  0  0  0  0  0  0
   -6.6330   23.4570  -32.1510 C   0  0  0  0  0  0  0  0  0  0  0  0
   -6.5686   20.3262  -31.6910 H   0  0  0  0  0  0  0  0  0  0  0  0
   -6.8374   19.4494  -33.2355 H   0  0  0  0  0  0  0  0  0  0  0  0
   -6.6687   21.2378  -33.2355 H   0  0  0  0  0  0  0  0  0  0  0  0
   -8.9774   19.4705  -30.7295 H   0  0  0  0  0  0  0  0  0  0  0  0
  -10.0948   19.1818  -32.1060 H   0  0  0  0  0  0  0  0  0  0  0  0
   -8.4591   18.4394  -32.1060 H   0  0  0  0  0  0  0  0  0  0  0  0
   -7.4055   22.1890  -29.0712 H   0  0  0  0  0  0  0  0  0  0  0  0
   -5.3460   23.4613  -28.4723 H   0  0  0  0  0  0  0  0  0  0  0  0
   -3.4343   23.0532  -31.8123 H   0  0  0  0  0  0  0  0  0  0  0  0
   -0.4983   21.1519  -35.3631 H   0  0  0  0  0  0  0  0  0  0  0  0
   -1.3533   22.1321  -34.0804 H   0  0  0  0  0  0  0  0  0  0  0  0
    1.1305   21.7302  -33.6946 H   0  0  0  0  0  0  0  0  0  0  0  0
    0.0027   21.2502  -32.3564 H   0  0  0  0  0  0  0  0  0  0  0  0
    1.3591   19.4124  -34.3779 H   0  0  0  0  0  0  0  0  0  0  0  0
    1.6678   19.5250  -32.6022 H   0  0  0  0  0  0  0  0  0  0  0  0
    0.2277   17.5731  -33.2083 H   0  0  0  0  0  0  0  0  0  0  0  0
   -0.5995   18.7466  -32.1218 H   0  0  0  0  0  0  0  0  0  0  0  0
   -0.9157   18.5304  -35.1588 H   0  0  0  0  0  0  0  0  0  0  0  0
   -2.1235   18.0537  -33.8874 H   0  0  0  0  0  0  0  0  0  0  0  0
   -1.1939   19.4837  -30.8713 H   0  0  0  0  0  0  0  0  0  0  0  0
   -0.2015   20.6227  -28.8942 H   0  0  0  0  0  0  0  0  0  0  0  0
   -2.4829   23.2052  -26.8826 H   0  0  0  0  0  0  0  0  0  0  0  0
   -1.3827   21.8075  -26.5012 H   0  0  0  0  0  0  0  0  0  0  0  0
   -1.2146   24.6890  -25.6073 H   0  0  0  0  0  0  0  0  0  0  0  0
   -1.0590   23.1563  -24.6582 H   0  0  0  0  0  0  0  0  0  0  0  0
    0.3704   25.4742  -26.7731 H   0  0  0  0  0  0  0  0  0  0  0  0
    2.0019   24.7037  -26.8415 H   0  0  0  0  0  0  0  0  0  0  0  0
    0.4295   24.5706  -28.9373 H   0  0  0  0  0  0  0  0  0  0  0  0
    1.3314   23.0941  -28.3810 H   0  0  0  0  0  0  0  0  0  0  0  0
   -4.9237   24.7117  -32.5979 H   0  0  0  0  0  0  0  0  0  0  0  0
   -6.9827   23.4364  -33.1937 H   0  0  0  0  0  0  0  0  0  0  0  0
  1  2  1  0
  2  3  1  0
  2  4  1  0
  4  5  2  0
  4  6  2  0
  4  7  1  0
  7  8  2  0
  8  9  1  0
  9 10  2  0
 10 11  1  0
 11 12  1  0
 12 13  2  0
 12 14  1  0
 14 15  2  0
 15 16  1  0
 16 17  1  0
 17 18  2  0
 17 19  2  0
 17 20  1  0
 20 21  1  0
 21 22  1  0
 22 23  1  0
 23 24  1  0
 24 25  1  0
 16 26  2  0
 26 27  1  0
 27 28  2  0
 28 29  1  0
 29 30  1  0
 30 31  1  0
 31 32  1  0
 32 33  1  0
 33 34  1  0
 10 35  1  0
 35 36  2  0
 36  7  1  0
 28 14  1  0
 34 29  1  0
 25 20  1  0
  1 37  1  0
  1 38  1  0
  1 39  1  0
  3 40  1  0
  3 41  1  0
  3 42  1  0
  8 43  1  0
  9 44  1  0
 15 45  1  0
 21 46  1  0
 21 47  1  0
 22 48  1  0
 22 49  1  0
 23 50  1  0
 23 51  1  0
 24 52  1  0
 24 53  1  0
 25 54  1  0
 25 55  1  0
 26 56  1  0
 27 57  1  0
 30 58  1  0
 30 59  1  0
 31 60  1  0
 31 61  1  0
 33 62  1  0
 33 63  1  0
 34 64  1  0
 34 65  1  0
 35 66  1  0
 36 67  1  0
M  CHG  1  11  -1
M  END
>  <UniqueID>  (33) 
32

>  <SMILES>  (33) 
CN(C)S(=O)(=O)c1ccc([N-]C(=O)c2cc(S(=O)(=O)N3CCCCC3)ccc2N2CCOCC2)cc1

>  <Energy>  (33) 
86.46381635247833

>  <Genealogy>  (33) 
CN(C)S(=O)(=O)c1ccc([N-]C(=O)c2cc(S(=O)(=O)N3CCCCC3)ccc2N2CCOCC2)cc1 (protonated)
CN(C)S(=O)(=O)c1ccc([N-]C(=O)c2cc(S(=O)(=O)N3CCCCC3)ccc2N2CCOCC2)cc1 (3D coordinates assigned)
CN(C)S(=O)(=O)c1ccc([N-]C(=O)c2cc(S(=O)(=O)N3CCCCC3)ccc2N2CCOCC2)cc1 (nonaromatic ring conformer: 86.46381635247833 kcal/mol)

>  <smiles>  (33) 
CN(C)S(=O)(=O)c1ccc(NC(=O)c2cc(S(=O)(=O)N3CCCCC3)ccc2N2CCOCC2)cc1

>  <score_type>  (33) 
oracle

>  <origin>  (33) 
adgpu

>  <m_score__min__energy>  (33) 
-10.92

>  <m_primary>  (33) 
energy

$$$$
33:0
     RDKit          3D

 50 53  0  0  0  0  0  0  0  0999 V2000
   -0.8510   23.9450  -29.7460 N   0  0  0  0  0  0  0  0  0  0  0  0
   -1.0120   23.3250  -28.6170 C   0  0  0  0  0  0  0  0  0  0  0  0
   -1.3920   22.0040  -28.4740 C   0  0  0  0  0  0  0  0  0  0  0  0
   -1.7360   21.0070  -29.5060 C   0  0  0  0  0  0  0  0  0  0  0  0
   -1.7570   19.7850  -29.1930 O   0  0  0  0  0  0  0  0  0  0  0  0
   -1.9960   21.4030  -30.8620 N   0  0  0  0  0  0  0  0  0  0  0  0
   -2.7380   20.6030  -31.7980 C   0  0  0  0  0  0  0  0  0  0  0  0
   -2.1170   19.5980  -32.5590 C   0  0  0  0  0  0  0  0  0  0  0  0
   -2.8660   18.8170  -33.4450 C   0  0  0  0  0  0  0  0  0  0  0  0
   -4.2480   19.0130  -33.5640 C   0  0  0  0  0  0  0  0  0  0  0  0
   -5.1890   18.0380  -34.6930 S   0  0  0  0  0  0  0  0  0  0  0  0
   -4.2530   17.4210  -35.6960 O   0  0  0  0  0  0  0  0  0  0  0  0
   -6.1280   18.9400  -35.4430 O   0  0  0  0  0  0  0  0  0  0  0  0
   -6.1110   16.7700  -33.9130 N   0  0  0  0  0  0  0  0  0  0  0  0
   -6.9070   17.2430  -32.7640 C   0  0  0  0  0  0  0  0  0  0  0  0
   -6.1500   17.1310  -31.4330 C   0  0  0  0  0  0  0  0  0  0  0  0
   -5.6460   15.8270  -31.2510 O   0  0  0  0  0  0  0  0  0  0  0  0
   -4.6810   15.5630  -32.2450 C   0  0  0  0  0  0  0  0  0  0  0  0
   -5.3250   15.5510  -33.6390 C   0  0  0  0  0  0  0  0  0  0  0  0
   -4.8710   20.0110  -32.8040 C   0  0  0  0  0  0  0  0  0  0  0  0
   -4.1240   20.7920  -31.9180 C   0  0  0  0  0  0  0  0  0  0  0  0
   -1.3950   21.8020  -27.1020 C   0  0  0  0  0  0  0  0  0  0  0  0
   -1.0300   22.9410  -26.4750 N   0  0  0  0  0  0  0  0  0  0  0  0
   -0.8020   23.8650  -27.3960 N   0  0  0  0  0  0  0  0  0  0  0  0
   -0.4350   25.2160  -27.0740 C   0  0  0  0  0  0  0  0  0  0  0  0
    0.4140   25.4820  -25.9860 C   0  0  0  0  0  0  0  0  0  0  0  0
    0.7960   26.7930  -25.6920 C   0  0  0  0  0  0  0  0  0  0  0  0
    0.3440   27.8490  -26.4860 C   0  0  0  0  0  0  0  0  0  0  0  0
   -0.4880   27.5940  -27.5800 C   0  0  0  0  0  0  0  0  0  0  0  0
   -0.8760   26.2830  -27.8790 C   0  0  0  0  0  0  0  0  0  0  0  0
   -1.7050   26.0480  -28.9690 O   0  0  0  0  0  0  0  0  0  0  0  0
   -0.5330   24.9360  -29.8080 H   0  0  0  0  0  0  0  0  0  0  0  0
   -1.5200   22.2610  -31.2220 H   0  0  0  0  0  0  0  0  0  0  0  0
   -1.0355   19.4246  -32.4572 H   0  0  0  0  0  0  0  0  0  0  0  0
   -2.3679   18.0457  -34.0509 H   0  0  0  0  0  0  0  0  0  0  0  0
   -7.1728   18.2974  -32.9301 H   0  0  0  0  0  0  0  0  0  0  0  0
   -7.8002   16.6049  -32.6932 H   0  0  0  0  0  0  0  0  0  0  0  0
   -5.3126   17.8443  -31.4334 H   0  0  0  0  0  0  0  0  0  0  0  0
   -6.8460   17.3574  -30.6118 H   0  0  0  0  0  0  0  0  0  0  0  0
   -3.9063   16.3432  -32.2121 H   0  0  0  0  0  0  0  0  0  0  0  0
   -4.2371   14.5751  -32.0526 H   0  0  0  0  0  0  0  0  0  0  0  0
   -4.5291   15.4682  -34.3938 H   0  0  0  0  0  0  0  0  0  0  0  0
   -6.0142   14.6947  -33.6796 H   0  0  0  0  0  0  0  0  0  0  0  0
   -5.9531   20.1808  -32.9050 H   0  0  0  0  0  0  0  0  0  0  0  0
   -4.6253   21.5599  -31.3106 H   0  0  0  0  0  0  0  0  0  0  0  0
   -1.6550   20.8579  -26.6009 H   0  0  0  0  0  0  0  0  0  0  0  0
    0.7798   24.6530  -25.3624 H   0  0  0  0  0  0  0  0  0  0  0  0
    1.4539   26.9939  -24.8336 H   0  0  0  0  0  0  0  0  0  0  0  0
    0.6426   28.8812  -26.2507 H   0  0  0  0  0  0  0  0  0  0  0  0
   -0.8388   28.4263  -28.2078 H   0  0  0  0  0  0  0  0  0  0  0  0
  1  2  2  3
  2  3  1  0
  3  4  1  0
  4  5  2  0
  4  6  1  0
  6  7  1  0
  7  8  2  0
  8  9  1  0
  9 10  2  0
 10 11  1  0
 11 12  2  0
 11 13  2  0
 11 14  1  0
 14 15  1  0
 15 16  1  0
 16 17  1  0
 17 18  1  0
 18 19  1  0
 10 20  1  0
 20 21  2  0
  3 22  2  0
 22 23  1  0
 23 24  1  0
 24 25  1  0
 25 26  2  0
 26 27  1  0
 27 28  2  0
 28 29  1  0
 29 30  2  0
 30 31  1  0
 24  2  1  0
 30 25  1  0
 21  7  1  0
 19 14  1  0
  1 32  1  0
  6 33  1  0
  8 34  1  0
  9 35  1  0
 15 36  1  0
 15 37  1  0
 16 38  1  0
 16 39  1  0
 18 40  1  0
 18 41  1  0
 19 42  1  0
 19 43  1  0
 20 44  1  0
 21 45  1  0
 22 46  1  0
 26 47  1  0
 27 48  1  0
 28 49  1  0
 29 50  1  0
M  CHG  2  23  -1  31  -1
M  END
>  <UniqueID>  (34) 
33

>  <SMILES>  (34) 
N=c1c(C(=O)Nc2ccc(S(=O)(=O)N3CCOCC3)cc2)c[n-]n1-c1ccccc1[O-]

>  <Energy>  (34) 
103.10653055524858

>  <Genealogy>  (34) 
N=c1c(C(=O)Nc2ccc(S(=O)(=O)N3CCOCC3)cc2)c[n-]n1-c1ccccc1[O-] (protonated)
N=c1c(C(=O)Nc2ccc(S(=O)(=O)N3CCOCC3)cc2)c[n-]n1-c1ccccc1[O-] (3D coordinates assigned)
N=c1c(C(=O)Nc2ccc(S(=O)(=O)N3CCOCC3)cc2)c[n-]n1-c1ccccc1[O-] (nonaromatic ring conformer: 103.10653055524858 kcal/mol)

>  <smiles>  (34) 
N=c1c(C(=O)Nc2ccc(S(=O)(=O)N3CCOCC3)cc2)c[nH]n1-c1ccccc1O

>  <score_type>  (34) 
oracle

>  <origin>  (34) 
adgpu

>  <m_score__min__energy>  (34) 
-10.27

>  <m_primary>  (34) 
energy

$$$$
34:0
     RDKit          3D

 55 58  0  0  0  0  0  0  0  0999 V2000
   -0.8610   21.3940  -27.3300 C   0  0  0  0  0  0  0  0  0  0  0  0
   -1.6120   22.4300  -28.1240 C   0  0  0  0  0  0  0  0  0  0  0  0
   -2.7280   22.0120  -28.8690 C   0  0  0  0  0  0  0  0  0  0  0  0
   -3.4610   22.9180  -29.6310 C   0  0  0  0  0  0  0  0  0  0  0  0
   -3.0820   24.2660  -29.6850 C   0  0  0  0  0  0  0  0  0  0  0  0
   -3.8290   25.2350  -30.4340 N   0  0  0  0  0  0  0  0  0  0  0  0
   -5.2290   25.2180  -30.7440 C   0  0  0  0  0  0  0  0  0  0  0  0
   -6.0730   25.6890  -29.9370 O   0  0  0  0  0  0  0  0  0  0  0  0
   -5.6870   24.5860  -31.9440 N   0  0  0  0  0  0  0  0  0  0  0  0
   -6.3980   23.3410  -31.9640 C   0  0  0  0  0  0  0  0  0  0  0  0
   -7.7600   23.3400  -31.6540 C   0  0  0  0  0  0  0  0  0  0  0  0
   -8.4610   22.1380  -31.5720 C   0  0  0  0  0  0  0  0  0  0  0  0
   -7.8170   20.9210  -31.8150 C   0  0  0  0  0  0  0  0  0  0  0  0
   -8.7510   19.4480  -31.5760 Cl  0  0  0  0  0  0  0  0  0  0  0  0
   -6.4570   20.9070  -32.2060 C   0  0  0  0  0  0  0  0  0  0  0  0
   -5.6020   19.3770  -32.4990 S   0  0  0  0  0  0  0  0  0  0  0  0
   -4.1150   19.5970  -32.4900 O   0  0  0  0  0  0  0  0  0  0  0  0
   -5.9220   18.3810  -31.4170 O   0  0  0  0  0  0  0  0  0  0  0  0
   -6.1040   18.7650  -34.1060 C   0  0  0  0  0  0  0  0  0  0  0  0
   -6.4180   17.2770  -34.1370 C   0  0  0  0  0  0  0  0  0  0  0  0
   -5.1370   17.7990  -34.7720 C   0  0  0  0  0  0  0  0  0  0  0  0
   -5.7570   22.1290  -32.2860 C   0  0  0  0  0  0  0  0  0  0  0  0
   -4.4260   22.1480  -32.6950 O   0  0  0  0  0  0  0  0  0  0  0  0
   -1.9880   24.7030  -28.9280 C   0  0  0  0  0  0  0  0  0  0  0  0
   -1.6370   26.0500  -28.9690 O   0  0  0  0  0  0  0  0  0  0  0  0
   -1.2450   23.8030  -28.1370 C   0  0  0  0  0  0  0  0  0  0  0  0
    0.1350   24.4620  -27.2190 S   0  0  0  0  0  0  0  0  0  0  0  0
    1.2560   23.4610  -27.2920 O   0  0  0  0  0  0  0  0  0  0  0  0
    0.6360   25.7610  -27.7800 O   0  0  0  0  0  0  0  0  0  0  0  0
   -0.3530   24.6760  -25.5510 N   0  0  0  0  0  0  0  0  0  0  0  0
   -1.6810   25.3210  -25.4370 C   0  0  0  0  0  0  0  0  0  0  0  0
   -1.5880   26.8210  -25.1130 C   0  0  0  0  0  0  0  0  0  0  0  0
   -0.4360   27.3770  -25.7030 O   0  0  0  0  0  0  0  0  0  0  0  0
    0.7270   26.8890  -25.0570 C   0  0  0  0  0  0  0  0  0  0  0  0
    0.6820   25.3690  -24.7640 C   0  0  0  0  0  0  0  0  0  0  0  0
   -0.9991   21.5845  -26.2555 H   0  0  0  0  0  0  0  0  0  0  0  0
   -1.2449   20.3932  -27.5773 H   0  0  0  0  0  0  0  0  0  0  0  0
    0.2095   21.4475  -27.5773 H   0  0  0  0  0  0  0  0  0  0  0  0
   -3.0268   20.9535  -28.8498 H   0  0  0  0  0  0  0  0  0  0  0  0
   -4.3417   22.5740  -30.1932 H   0  0  0  0  0  0  0  0  0  0  0  0
   -8.2815   24.2916  -31.4739 H   0  0  0  0  0  0  0  0  0  0  0  0
   -9.5302   22.1470  -31.3138 H   0  0  0  0  0  0  0  0  0  0  0  0
   -6.6173   19.6848  -34.4232 H   0  0  0  0  0  0  0  0  0  0  0  0
   -6.3715   16.6855  -33.2107 H   0  0  0  0  0  0  0  0  0  0  0  0
   -7.2659   16.6677  -34.4832 H   0  0  0  0  0  0  0  0  0  0  0  0
   -4.1645   17.5846  -34.3048 H   0  0  0  0  0  0  0  0  0  0  0  0
   -4.6754   17.7232  -35.7676 H   0  0  0  0  0  0  0  0  0  0  0  0
   -2.2138   25.1999  -26.3917 H   0  0  0  0  0  0  0  0  0  0  0  0
   -2.2155   24.8351  -24.6074 H   0  0  0  0  0  0  0  0  0  0  0  0
   -2.4795   27.3329  -25.5043 H   0  0  0  0  0  0  0  0  0  0  0  0
   -1.5292   26.9489  -24.0221 H   0  0  0  0  0  0  0  0  0  0  0  0
    1.5945   27.0933  -25.7017 H   0  0  0  0  0  0  0  0  0  0  0  0
    0.7965   27.4026  -24.0867 H   0  0  0  0  0  0  0  0  0  0  0  0
    1.6621   24.9331  -25.0076 H   0  0  0  0  0  0  0  0  0  0  0  0
    0.4368   25.2396  -23.6995 H   0  0  0  0  0  0  0  0  0  0  0  0
  1  2  1  0
  2  3  2  0
  3  4  1  0
  4  5  2  0
  5  6  1  0
  6  7  1  0
  7  8  2  0
  7  9  1  0
  9 10  1  0
 10 11  2  0
 11 12  1  0
 12 13  2  0
 13 14  1  0
 13 15  1  0
 15 16  1  0
 16 17  2  0
 16 18  2  0
 16 19  1  0
 19 20  1  0
 20 21  1  0
 15 22  2  0
 22 23  1  0
  5 24  1  0
 24 25  1  0
 24 26  2  0
 26 27  1  0
 27 28  2  0
 27 29  2  0
 27 30  1  0
 30 31  1  0
 31 32  1  0
 32 33  1  0
 33 34  1  0
 34 35  1  0
 26  2  1  0
 35 30  1  0
 22 10  1  0
 21 19  1  0
  1 36  1  0
  1 37  1  0
  1 38  1  0
  3 39  1  0
  4 40  1  0
 11 41  1  0
 12 42  1  0
 19 43  1  0
 20 44  1  0
 20 45  1  0
 21 46  1  0
 21 47  1  0
 31 48  1  0
 31 49  1  0
 32 50  1  0
 32 51  1  0
 34 52  1  0
 34 53  1  0
 35 54  1  0
 35 55  1  0
M  CHG  4   6  -1   9  -1  23  -1  25  -1
M  END
>  <UniqueID>  (35) 
34

>  <SMILES>  (35) 
Cc1ccc([N-]C(=O)[N-]c2ccc(Cl)c(S(=O)(=O)C3CC3)c2[O-])c([O-])c1S(=O)(=O)N1CCOCC1

>  <Energy>  (35) 
346.32957013911465

>  <Genealogy>  (35) 
Cc1ccc([N-]C(=O)[N-]c2ccc(Cl)c(S(=O)(=O)C3CC3)c2[O-])c([O-])c1S(=O)(=O)N1CCOCC1 (protonated)
Cc1ccc([N-]C(=O)[N-]c2ccc(Cl)c(S(=O)(=O)C3CC3)c2[O-])c([O-])c1S(=O)(=O)N1CCOCC1 (3D coordinates assigned)
Cc1ccc([N-]C(=O)[N-]c2ccc(Cl)c(S(=O)(=O)C3CC3)c2[O-])c([O-])c1S(=O)(=O)N1CCOCC1 (nonaromatic ring conformer: 346.32957013911465 kcal/mol)

>  <smiles>  (35) 
Cc1ccc(NC(=O)Nc2ccc(Cl)c(S(=O)(=O)C3CC3)c2O)c(O)c1S(=O)(=O)N1CCOCC1

>  <score_type>  (35) 
oracle

>  <origin>  (35) 
adgpu

>  <m_score__min__energy>  (35) 
-16.899999999999999

>  <m_primary>  (35) 
energy

$$$$
35:0
     RDKit          3D

 45 47  0  0  0  0  0  0  0  0999 V2000
   -5.4680   25.3938  -30.9802 H   0  0  0  0  0  0  0  0  0  0  0  0
   -4.7530   24.5730  -30.8220 C   0  0  0  0  0  0  0  0  0  0  0  0
   -4.8800   23.4180  -31.5220 N   0  0  0  0  0  0  0  0  0  0  0  0
   -4.0100   22.3870  -31.3430 C   0  0  0  0  0  0  0  0  0  0  0  0
   -4.1280   21.2770  -32.0120 N   0  0  0  0  0  0  0  0  0  0  0  0
   -5.1570   20.9530  -33.0090 C   0  0  2  0  0  0  0  0  0  0  0  0
   -5.2324   21.7749  -33.7362 H   0  0  0  0  0  0  0  0  0  0  0  0
   -6.5350   20.8750  -32.3710 C   0  0  0  0  0  0  0  0  0  0  0  0
   -7.2510   22.0180  -31.9540 C   0  0  0  0  0  0  0  0  0  0  0  0
   -6.7999   23.0154  -32.0625 H   0  0  0  0  0  0  0  0  0  0  0  0
   -8.5300   21.8900  -31.4040 C   0  0  0  0  0  0  0  0  0  0  0  0
   -9.0775   22.7860  -31.0763 H   0  0  0  0  0  0  0  0  0  0  0  0
   -9.1150   20.6300  -31.2690 C   0  0  0  0  0  0  0  0  0  0  0  0
  -10.1203   20.5336  -30.8329 H   0  0  0  0  0  0  0  0  0  0  0  0
   -8.4230   19.4920  -31.6880 C   0  0  0  0  0  0  0  0  0  0  0  0
   -8.9950   18.2690  -31.5640 F   0  0  0  0  0  0  0  0  0  0  0  0
   -7.1440   19.6130  -32.2400 C   0  0  0  0  0  0  0  0  0  0  0  0
   -6.6084   18.7126  -32.5753 H   0  0  0  0  0  0  0  0  0  0  0  0
   -4.7520   19.7260  -33.8420 C   0  0  0  0  0  0  0  0  0  0  0  0
   -4.4793   18.8997  -33.1690 H   0  0  0  0  0  0  0  0  0  0  0  0
   -5.5964   19.4186  -34.4765 H   0  0  0  0  0  0  0  0  0  0  0  0
   -3.8906   19.9817  -34.4765 H   0  0  0  0  0  0  0  0  0  0  0  0
   -2.9930   22.5170  -30.4510 N   0  0  0  0  0  0  0  0  0  0  0  0
   -2.8190   23.6580  -29.7300 C   0  0  0  0  0  0  0  0  0  0  0  0
   -1.7450   23.7460  -28.7760 N   0  0  0  0  0  0  0  0  0  0  0  0
   -0.9170   24.8850  -28.6280 C   0  0  0  0  0  0  0  0  0  0  0  0
   -1.2330   26.0440  -29.0070 O   0  0  0  0  0  0  0  0  0  0  0  0
    0.3050   24.5880  -28.0790 O   0  0  0  0  0  0  0  0  0  0  0  0
    0.3920   23.1940  -27.8290 C   0  0  0  0  0  0  0  0  0  0  0  0
    0.5707   23.0068  -26.7599 H   0  0  0  0  0  0  0  0  0  0  0  0
    1.2247   22.7344  -28.3816 H   0  0  0  0  0  0  0  0  0  0  0  0
   -0.9850   22.5980  -28.2630 C   0  0  1  0  0  0  0  0  0  0  0  0
   -0.8741   21.8111  -29.0236 H   0  0  0  0  0  0  0  0  0  0  0  0
   -1.7110   21.9030  -27.0700 C   0  0  0  0  0  0  0  0  0  0  0  0
   -2.6315   22.4787  -26.8931 H   0  0  0  0  0  0  0  0  0  0  0  0
   -2.1080   20.4520  -27.3820 C   0  0  0  0  0  0  0  0  0  0  0  0
   -2.2583   19.9026  -26.4410 H   0  0  0  0  0  0  0  0  0  0  0  0
   -3.0413   20.4443  -27.9642 H   0  0  0  0  0  0  0  0  0  0  0  0
   -1.3087   19.9702  -27.9642 H   0  0  0  0  0  0  0  0  0  0  0  0
   -0.8250   21.9170  -25.8130 C   0  0  0  0  0  0  0  0  0  0  0  0
   -1.4613   21.9069  -24.9158 H   0  0  0  0  0  0  0  0  0  0  0  0
   -0.1758   21.0290  -25.8121 H   0  0  0  0  0  0  0  0  0  0  0  0
   -0.2042   22.8251  -25.8121 H   0  0  0  0  0  0  0  0  0  0  0  0
   -3.7170   24.7190  -29.9030 C   0  0  0  0  0  0  0  0  0  0  0  0
   -3.6061   25.6483  -29.3249 H   0  0  0  0  0  0  0  0  0  0  0  0
  1  2  1  0
  2  3  1  0
  3  4  1  0
  4  5  2  0
  5  6  1  0
  6  7  1  6
  6  8  1  0
  8  9  2  0
  9 10  1  0
  9 11  1  0
 11 12  1  0
 11 13  2  0
 13 14  1  0
 13 15  1  0
 15 16  1  0
 15 17  2  0
 17 18  1  0
  6 19  1  0
 19 20  1  0
 19 21  1  0
 19 22  1  0
  4 23  1  0
 23 24  2  0
 24 25  1  0
 25 26  1  0
 26 27  2  0
 26 28  1  0
 28 29  1  0
 29 30  1  0
 29 31  1  0
 29 32  1  0
 32 33  1  6
 32 34  1  0
 34 35  1  0
 34 36  1  0
 36 37  1  0
 36 38  1  0
 36 39  1  0
 34 40  1  0
 40 41  1  0
 40 42  1  0
 40 43  1  0
 24 44  1  0
 44 45  1  0
 44  2  2  0
 17  8  1  0
 32 25  1  0
M  CHG  1   3  -1
M  END
>  <UniqueID>  (36) 
35

>  <SMILES>  (36) 
CC(C)[C@@H]1COC(=O)N1c1cc[n-]/c(=N\[C@@H](C)c2cccc(F)c2)n1

>  <Energy>  (36) 
64.77391398336324

>  <Genealogy>  (36) 
CC(N=c1nc(N2C(=O)OCC2C(C)C)cc[n-]1)c1cccc(F)c1 (protonated)
CC(C)[C@@H]1COC(=O)N1c1cc[n-]c(=N[C@@H](C)c2cccc(F)c2)n1 (chirality)
CC(C)[C@@H]1COC(=O)N1c1cc[n-]/c(=N\[C@@H](C)c2cccc(F)c2)n1 (cis-trans isomerization)
CC(C)[C@@H]1COC(=O)N1c1cc[n-]/c(=N\[C@@H](C)c2cccc(F)c2)n1 (3D coordinates assigned)
CC(C)[C@@H]1COC(=O)N1c1cc[n-]/c(=N\[C@@H](C)c2cccc(F)c2)n1 (nonaromatic ring conformer: 64.77391398336324 kcal/mol)

>  <smiles>  (36) 
CC(N=c1nc(N2C(=O)OCC2C(C)C)cc[nH]1)c1cccc(F)c1

>  <score_type>  (36) 
oracle

>  <origin>  (36) 
adgpu

>  <m_score__min__energy>  (36) 
-8.7799999999999994

>  <m_primary>  (36) 
energy

$$$$
36:0
     RDKit          3D

 53 56  0  0  0  0  0  0  0  0999 V2000
   -2.8160   19.8300  -27.1280 C   0  0  0  0  0  0  0  0  0  0  0  0
   -2.2210   21.1800  -27.3500 C   0  0  0  0  0  0  0  0  0  0  0  0
   -2.6210   22.0920  -28.3080 C   0  0  0  0  0  0  0  0  0  0  0  0
   -1.8260   23.2000  -28.0780 C   0  0  0  0  0  0  0  0  0  0  0  0
   -1.8230   24.4260  -28.9000 C   0  0  0  0  0  0  0  0  0  0  0  0
   -0.7550   25.0780  -29.0380 O   0  0  0  0  0  0  0  0  0  0  0  0
   -3.0450   24.9150  -29.4690 N   0  0  0  0  0  0  0  0  0  0  0  0
   -3.8930   24.2270  -30.3970 C   0  0  0  0  0  0  0  0  0  0  0  0
   -5.2010   24.6940  -30.5760 C   0  0  0  0  0  0  0  0  0  0  0  0
   -6.0900   24.0070  -31.4060 C   0  0  0  0  0  0  0  0  0  0  0  0
   -5.6840   22.8440  -32.0690 C   0  0  0  0  0  0  0  0  0  0  0  0
   -6.6140   22.1610  -32.8670 O   0  0  0  0  0  0  0  0  0  0  0  0
   -7.0890   20.8640  -32.6210 C   0  0  0  0  0  0  0  0  0  0  0  0
   -6.4640   19.7470  -33.2050 C   0  0  0  0  0  0  0  0  0  0  0  0
   -6.9570   18.4620  -32.9780 C   0  0  0  0  0  0  0  0  0  0  0  0
   -8.0860   18.2790  -32.1780 C   0  0  0  0  0  0  0  0  0  0  0  0
   -8.7230   19.3800  -31.6000 C   0  0  0  0  0  0  0  0  0  0  0  0
   -8.2320   20.6830  -31.8110 C   0  0  0  0  0  0  0  0  0  0  0  0
   -8.9180   21.8810  -31.1900 C   0  0  0  0  0  0  0  0  0  0  0  0
   -8.9290   22.9290  -32.0900 F   0  0  0  0  0  0  0  0  0  0  0  0
  -10.2200   21.5450  -30.8660 F   0  0  0  0  0  0  0  0  0  0  0  0
   -8.2730   22.3060  -30.0410 F   0  0  0  0  0  0  0  0  0  0  0  0
   -4.3770   22.3630  -31.8770 C   0  0  0  0  0  0  0  0  0  0  0  0
   -3.4890   23.0460  -31.0430 C   0  0  0  0  0  0  0  0  0  0  0  0
   -1.0240   22.9430  -27.0150 N   0  0  0  0  0  0  0  0  0  0  0  0
   -0.0920   23.8290  -26.3770 C   0  0  0  0  0  0  0  0  0  0  0  0
   -0.4580   24.5500  -25.2300 C   0  0  0  0  0  0  0  0  0  0  0  0
    0.4500   25.4290  -24.6320 C   0  0  0  0  0  0  0  0  0  0  0  0
    1.7360   25.5730  -25.1580 C   0  0  0  0  0  0  0  0  0  0  0  0
    2.1270   24.8320  -26.2810 C   0  0  0  0  0  0  0  0  0  0  0  0
    3.7590   24.9830  -26.9150 S   0  0  0  0  0  0  0  0  0  0  0  0
    4.8190   23.9700  -26.0050 N   0  0  0  0  0  0  0  0  0  0  0  0
    3.7860   24.5710  -28.3590 O   0  0  0  0  0  0  0  0  0  0  0  0
    4.2180   26.4120  -26.8120 O   0  0  0  0  0  0  0  0  0  0  0  0
    1.2150   23.9500  -26.8790 C   0  0  0  0  0  0  0  0  0  0  0  0
   -1.2630   21.7180  -26.5700 N   0  0  0  0  0  0  0  0  0  0  0  0
   -2.9000   19.6394  -26.0479 H   0  0  0  0  0  0  0  0  0  0  0  0
   -3.8152   19.7898  -27.5862 H   0  0  0  0  0  0  0  0  0  0  0  0
   -2.1715   19.0654  -27.5862 H   0  0  0  0  0  0  0  0  0  0  0  0
   -3.3958   21.9654  -29.0785 H   0  0  0  0  0  0  0  0  0  0  0  0
   -5.5305   25.6077  -30.0597 H   0  0  0  0  0  0  0  0  0  0  0  0
   -7.1153   24.3827  -31.5391 H   0  0  0  0  0  0  0  0  0  0  0  0
   -5.5805   19.8879  -33.8450 H   0  0  0  0  0  0  0  0  0  0  0  0
   -6.4560   17.5930  -33.4294 H   0  0  0  0  0  0  0  0  0  0  0  0
   -8.4753   17.2653  -32.0021 H   0  0  0  0  0  0  0  0  0  0  0  0
   -9.6153   19.2279  -30.9750 H   0  0  0  0  0  0  0  0  0  0  0  0
   -4.0520   21.4438  -32.3864 H   0  0  0  0  0  0  0  0  0  0  0  0
   -2.4707   22.6586  -30.8913 H   0  0  0  0  0  0  0  0  0  0  0  0
   -1.4625   24.4232  -24.8000 H   0  0  0  0  0  0  0  0  0  0  0  0
    0.1512   26.0081  -23.7458 H   0  0  0  0  0  0  0  0  0  0  0  0
    2.4447   26.2711  -24.6886 H   0  0  0  0  0  0  0  0  0  0  0  0
    4.3600   23.8000  -25.0840 H   0  0  0  0  0  0  0  0  0  0  0  0
    1.5248   23.3490  -27.7467 H   0  0  0  0  0  0  0  0  0  0  0  0
  1  2  1  0
  2  3  1  0
  3  4  2  0
  4  5  1  0
  5  6  2  0
  5  7  1  0
  7  8  1  0
  8  9  2  0
  9 10  1  0
 10 11  2  0
 11 12  1  0
 12 13  1  0
 13 14  2  0
 14 15  1  0
 15 16  2  0
 16 17  1  0
 17 18  2  0
 18 19  1  0
 19 20  1  0
 19 21  1  0
 19 22  1  0
 11 23  1  0
 23 24  2  0
  4 25  1  0
 25 26  1  0
 26 27  2  0
 27 28  1  0
 28 29  2  0
 29 30  1  0
 30 31  1  0
 31 32  1  0
 31 33  2  0
 31 34  2  0
 30 35  2  0
 25 36  1  0
 36  2  2  0
 24  8  1  0
 35 26  1  0
 18 13  1  0
  1 37  1  0
  1 38  1  0
  1 39  1  0
  3 40  1  0
  9 41  1  0
 10 42  1  0
 14 43  1  0
 15 44  1  0
 16 45  1  0
 17 46  1  0
 23 47  1  0
 24 48  1  0
 27 49  1  0
 28 50  1  0
 29 51  1  0
 32 52  1  0
 35 53  1  0
M  CHG  2   7  -1  32  -1
M  END
>  <UniqueID>  (37) 
36

>  <SMILES>  (37) 
Cc1cc(C(=O)[N-]c2ccc(Oc3ccccc3C(F)(F)F)cc2)n(-c2cccc(S([NH-])(=O)=O)c2)n1

>  <Energy>  (37) 
103.71045814880871

>  <Genealogy>  (37) 
Cc1cc(C(=O)[N-]c2ccc(Oc3ccccc3C(F)(F)F)cc2)n(-c2cccc(S([NH-])(=O)=O)c2)n1 (protonated)
Cc1cc(C(=O)[N-]c2ccc(Oc3ccccc3C(F)(F)F)cc2)n(-c2cccc(S([NH-])(=O)=O)c2)n1 (3D coordinates assigned)
Cc1cc(C(=O)[N-]c2ccc(Oc3ccccc3C(F)(F)F)cc2)n(-c2cccc(S([NH-])(=O)=O)c2)n1 (optimized conformer: 103.71045814880871 kcal/mol)

>  <smiles>  (37) 
Cc1cc(C(=O)Nc2ccc(Oc3ccccc3C(F)(F)F)cc2)n(-c2cccc(S(N)(=O)=O)c2)n1

>  <score_type>  (37) 
oracle

>  <origin>  (37) 
adgpu

>  <m_score__min__energy>  (37) 
-12.119999999999999

>  <m_primary>  (37) 
energy

$$$$
37:0
     RDKit          3D

 52 54  0  0  1  0  0  0  0  0999 V2000
   -9.4210   21.9340  -31.4330 C   0  0  0  0  0  0  0  0  0  0  0  0
   -8.5670   20.7970  -31.9040 C   0  0  0  0  0  0  0  0  0  0  0  0
   -8.9970   19.4910  -31.8830 C   0  0  0  0  0  0  0  0  0  0  0  0
   -8.1500   18.5170  -32.3340 C   0  0  0  0  0  0  0  0  0  0  0  0
   -6.8770   18.7840  -32.8120 C   0  0  0  0  0  0  0  0  0  0  0  0
   -5.9740   17.6970  -33.2970 C   0  0  0  0  0  0  0  0  0  0  0  0
   -6.4580   20.0930  -32.8280 C   0  0  0  0  0  0  0  0  0  0  0  0
   -5.1300   20.4990  -33.3130 C   0  0  0  0  0  0  0  0  0  0  0  0
   -4.8000   21.8680  -32.9140 N   0  0  0  0  0  0  0  0  0  0  0  0
   -3.8720   22.1040  -31.8520 C   0  0  0  0  0  0  0  0  0  0  0  0
   -2.6200   21.5150  -31.8980 C   0  0  0  0  0  0  0  0  0  0  0  0
   -1.7320   21.7550  -30.8710 C   0  0  0  0  0  0  0  0  0  0  0  0
   -2.1000   22.5670  -29.8280 C   0  0  0  0  0  0  0  0  0  0  0  0
   -0.9140   22.8360  -28.5420 S   0  0  0  0  0  0  0  0  0  0  0  0
   -1.6020   23.0590  -27.2500 O   0  0  0  0  0  0  0  0  0  0  0  0
   -0.1280   24.0510  -28.9710 O   0  0  0  0  0  0  0  0  0  0  0  0
    0.0740   21.4060  -28.5290 N   0  0  0  0  0  0  0  0  0  0  0  0
   -0.2910   20.3000  -27.9760 C   0  0  0  0  0  0  0  0  0  0  0  0
   -1.5090   20.2100  -27.3580 C   0  0  0  0  0  0  0  0  0  0  0  0
   -1.8500   19.0130  -26.7830 C   0  0  0  0  0  0  0  0  0  0  0  0
   -3.1700   18.8610  -26.0960 C   0  0  0  0  0  0  0  0  0  0  0  0
   -0.9850   17.9620  -26.8410 N   0  0  0  0  0  0  0  0  0  0  0  0
    0.2110   18.0560  -27.4500 C   0  0  0  0  0  0  0  0  0  0  0  0
    1.1370   16.8930  -27.4980 C   0  0  0  0  0  0  0  0  0  0  0  0
    0.5510   19.2490  -28.0220 N   0  0  0  0  0  0  0  0  0  0  0  0
   -3.3480   23.1660  -29.7630 C   0  0  0  0  0  0  0  0  0  0  0  0
   -4.2300   22.9150  -30.8060 C   0  0  0  0  0  0  0  0  0  0  0  0
   -7.3070   21.1060  -32.3730 C   0  0  0  0  0  0  0  0  0  0  0  0
   -9.4342   21.9516  -30.3332 H   0  0  0  0  0  0  0  0  0  0  0  0
   -9.0098   22.8821  -31.8100 H   0  0  0  0  0  0  0  0  0  0  0  0
  -10.4461   21.8033  -31.8100 H   0  0  0  0  0  0  0  0  0  0  0  0
  -10.0004   19.2355  -31.5115 H   0  0  0  0  0  0  0  0  0  0  0  0
   -8.4952   17.4727  -32.3166 H   0  0  0  0  0  0  0  0  0  0  0  0
   -5.5373   17.1713  -32.4351 H   0  0  0  0  0  0  0  0  0  0  0  0
   -6.5508   16.9858  -33.9065 H   0  0  0  0  0  0  0  0  0  0  0  0
   -5.1691   18.1336  -33.9065 H   0  0  0  0  0  0  0  0  0  0  0  0
   -4.3750   19.8154  -32.8975 H   0  0  0  0  0  0  0  0  0  0  0  0
   -5.1401   20.4566  -34.4121 H   0  0  0  0  0  0  0  0  0  0  0  0
   -5.2630   22.6410  -33.4270 H   0  0  0  0  0  0  0  0  0  0  0  0
   -2.3382   20.8660  -32.7403 H   0  0  0  0  0  0  0  0  0  0  0  0
   -0.7320   21.2971  -30.8877 H   0  0  0  0  0  0  0  0  0  0  0  0
   -2.1928   21.0710  -27.3238 H   0  0  0  0  0  0  0  0  0  0  0  0
   -3.0204   18.8782  -25.0064 H   0  0  0  0  0  0  0  0  0  0  0  0
   -3.8329   19.6887  -26.3882 H   0  0  0  0  0  0  0  0  0  0  0  0
   -3.6274   17.9042  -26.3882 H   0  0  0  0  0  0  0  0  0  0  0  0
   -1.2630   17.0490  -26.3940 H   0  0  0  0  0  0  0  0  0  0  0  0
    1.3861   16.5801  -26.4733 H   0  0  0  0  0  0  0  0  0  0  0  0
    0.6522   16.0599  -28.0281 H   0  0  0  0  0  0  0  0  0  0  0  0
    2.0575   17.1788  -28.0281 H   0  0  0  0  0  0  0  0  0  0  0  0
   -3.6286   23.8140  -28.9195 H   0  0  0  0  0  0  0  0  0  0  0  0
   -5.2299   23.3733  -30.7928 H   0  0  0  0  0  0  0  0  0  0  0  0
   -6.9693   22.1528  -32.3890 H   0  0  0  0  0  0  0  0  0  0  0  0
  1  2  1  0
  2  3  2  0
  3  4  1  0
  4  5  2  0
  5  6  1  0
  5  7  1  0
  7  8  1  0
  8  9  1  0
  9 10  1  0
 10 11  2  0
 11 12  1  0
 12 13  2  0
 13 14  1  0
 14 15  2  0
 14 16  2  0
 14 17  1  0
 17 18  2  0
 18 19  1  0
 19 20  2  0
 20 21  1  0
 20 22  1  0
 22 23  1  0
 23 24  1  0
 23 25  2  0
 13 26  1  0
 26 27  2  0
  7 28  2  0
 28  2  1  0
 27 10  1  0
 25 18  1  0
  1 29  1  0
  1 30  1  0
  1 31  1  0
  3 32  1  0
  4 33  1  0
  6 34  1  0
  6 35  1  0
  6 36  1  0
  8 37  1  0
  8 38  1  0
  9 39  1  0
 11 40  1  0
 12 41  1  0
 19 42  1  0
 21 43  1  0
 21 44  1  0
 21 45  1  0
 22 46  1  0
 24 47  1  0
 24 48  1  0
 24 49  1  0
 26 50  1  0
 27 51  1  0
 28 52  1  0
M  END
>  <smiles>  (38) 
Cc1ccc(C)c(CNc2ccc(S(=O)(=O)N=c3cc(C)[nH]c(C)n3)cc2)c1

>  <score_type>  (38) 
oracle

>  <origin>  (38) 
adgpu

>  <m_score__min__energy>  (38) 
-10.35

>  <m_primary>  (38) 
energy

$$$$
38:0
     RDKit          3D

 42 44  0  0  0  0  0  0  0  0999 V2000
   -8.4480   22.2490  -31.8920 C   0  0  0  0  0  0  0  0  0  0  0  0
   -7.1790   22.9220  -31.4590 C   0  0  0  0  0  0  0  0  0  0  0  0
   -5.9470   22.5050  -31.9790 C   0  0  0  0  0  0  0  0  0  0  0  0
   -4.7700   23.1580  -31.6080 C   0  0  0  0  0  0  0  0  0  0  0  0
   -4.8060   24.2510  -30.7350 C   0  0  0  0  0  0  0  0  0  0  0  0
   -3.5740   24.9130  -30.4220 N   0  0  0  0  0  0  0  0  0  0  0  0
   -2.9750   24.9290  -29.1230 C   0  0  0  0  0  0  0  0  0  0  0  0
   -3.6350   24.5480  -28.1170 O   0  0  0  0  0  0  0  0  0  0  0  0
   -1.6440   25.4340  -28.9690 N   0  0  0  0  0  0  0  0  0  0  0  0
   -0.9000   25.3520  -27.7400 C   0  0  0  0  0  0  0  0  0  0  0  0
   -0.5110   26.5280  -27.0740 C   0  0  0  0  0  0  0  0  0  0  0  0
    0.1420   26.4640  -25.8420 C   0  0  0  0  0  0  0  0  0  0  0  0
    0.4050   25.2270  -25.2540 C   0  0  0  0  0  0  0  0  0  0  0  0
    0.0180   24.0500  -25.8960 C   0  0  0  0  0  0  0  0  0  0  0  0
   -0.6330   24.0950  -27.1420 C   0  0  0  0  0  0  0  0  0  0  0  0
   -0.9920   22.8230  -27.8120 C   0  0  0  0  0  0  0  0  0  0  0  0
   -0.5290   22.5420  -29.1100 C   0  0  0  0  0  0  0  0  0  0  0  0
   -0.8640   21.3360  -29.7330 C   0  0  0  0  0  0  0  0  0  0  0  0
   -1.6560   20.3980  -29.0660 C   0  0  0  0  0  0  0  0  0  0  0  0
   -2.1130   20.6640  -27.7730 C   0  0  0  0  0  0  0  0  0  0  0  0
   -1.7810   21.8680  -27.1450 C   0  0  0  0  0  0  0  0  0  0  0  0
   -6.0430   24.6620  -30.1820 C   0  0  0  0  0  0  0  0  0  0  0  0
   -6.1140   25.6930  -29.1900 N   0  0  0  0  0  0  0  0  0  0  0  0
   -7.2210   24.0060  -30.5710 C   0  0  0  0  0  0  0  0  0  0  0  0
   -9.0226   21.9443  -31.0049 H   0  0  0  0  0  0  0  0  0  0  0  0
   -9.0467   22.9481  -32.4943 H   0  0  0  0  0  0  0  0  0  0  0  0
   -8.2051   21.3612  -32.4943 H   0  0  0  0  0  0  0  0  0  0  0  0
   -5.9067   21.6600  -32.6822 H   0  0  0  0  0  0  0  0  0  0  0  0
   -3.8053   22.8100  -32.0057 H   0  0  0  0  0  0  0  0  0  0  0  0
   -1.2170   25.9340  -29.7820 H   0  0  0  0  0  0  0  0  0  0  0  0
   -0.7233   27.5071  -27.5281 H   0  0  0  0  0  0  0  0  0  0  0  0
    0.4495   27.3902  -25.3344 H   0  0  0  0  0  0  0  0  0  0  0  0
    0.9184   25.1791  -24.2824 H   0  0  0  0  0  0  0  0  0  0  0  0
    0.2239   23.0783  -25.4234 H   0  0  0  0  0  0  0  0  0  0  0  0
    0.0996   23.2745  -29.6375 H   0  0  0  0  0  0  0  0  0  0  0  0
   -0.5032   21.1252  -30.7505 H   0  0  0  0  0  0  0  0  0  0  0  0
   -1.9196   19.4505  -29.5588 H   0  0  0  0  0  0  0  0  0  0  0  0
   -2.7354   19.9245  -27.2479 H   0  0  0  0  0  0  0  0  0  0  0  0
   -2.1384   22.0697  -26.1244 H   0  0  0  0  0  0  0  0  0  0  0  0
   -5.3710   25.7780  -28.4600 H   0  0  0  0  0  0  0  0  0  0  0  0
   -6.8440   26.4370  -29.2210 H   0  0  0  0  0  0  0  0  0  0  0  0
   -8.1889   24.3464  -30.1744 H   0  0  0  0  0  0  0  0  0  0  0  0
  1  2  1  0
  2  3  2  0
  3  4  1  0
  4  5  2  0
  5  6  1  0
  6  7  1  0
  7  8  2  0
  7  9  1  0
  9 10  1  0
 10 11  2  0
 11 12  1  0
 12 13  2  0
 13 14  1  0
 14 15  2  0
 15 16  1  0
 16 17  2  0
 17 18  1  0
 18 19  2  0
 19 20  1  0
 20 21  2  0
  5 22  1  0
 22 23  1  0
 22 24  2  0
 24  2  1  0
 15 10  1  0
 21 16  1  0
  1 25  1  0
  1 26  1  0
  1 27  1  0
  3 28  1  0
  4 29  1  0
  9 30  1  0
 11 31  1  0
 12 32  1  0
 13 33  1  0
 14 34  1  0
 17 35  1  0
 18 36  1  0
 19 37  1  0
 20 38  1  0
 21 39  1  0
 23 40  1  0
 23 41  1  0
 24 42  1  0
M  CHG  1   6  -1
M  END
>  <UniqueID>  (39) 
37

>  <SMILES>  (39) 
Cc1ccc([N-]C(=O)Nc2ccccc2-c2ccccc2)c(N)c1

>  <Energy>  (39) 
60.325976980388326

>  <Genealogy>  (39) 
Cc1ccc([N-]C(=O)Nc2ccccc2-c2ccccc2)c(N)c1 (protonated)
Cc1ccc([N-]C(=O)Nc2ccccc2-c2ccccc2)c(N)c1 (3D coordinates assigned)
Cc1ccc([N-]C(=O)Nc2ccccc2-c2ccccc2)c(N)c1 (optimized conformer: 60.325976980388326 kcal/mol)

>  <smiles>  (39) 
Cc1ccc(NC(=O)Nc2ccccc2-c2ccccc2)c(N)c1

>  <score_type>  (39) 
oracle

>  <origin>  (39) 
adgpu

>  <m_score__min__energy>  (39) 
-9.9499999999999993

>  <m_primary>  (39) 
energy

$$$$
39:0
     RDKit          3D

 43 45  0  0  0  0  0  0  0  0999 V2000
    1.4850   22.5600  -26.8478 H   0  0  0  0  0  0  0  0  0  0  0  0
    0.6960   23.1200  -27.3710 C   0  0  0  0  0  0  0  0  0  0  0  0
   -0.0730   22.4920  -28.3550 C   0  0  0  0  0  0  0  0  0  0  0  0
    0.1131   21.4374  -28.6062 H   0  0  0  0  0  0  0  0  0  0  0  0
   -1.0780   23.2000  -29.0210 C   0  0  0  0  0  0  0  0  0  0  0  0
   -1.6872   22.6974  -29.7867 H   0  0  0  0  0  0  0  0  0  0  0  0
   -1.3130   24.5540  -28.7150 C   0  0  0  0  0  0  0  0  0  0  0  0
   -2.3740   25.2970  -29.3320 N   0  0  0  0  0  0  0  0  0  0  0  0
   -3.4690   24.7840  -30.1030 C   0  0  0  0  0  0  0  0  0  0  0  0
   -4.1980   25.5580  -30.7780 O   0  0  0  0  0  0  0  0  0  0  0  0
   -3.8180   23.3990  -30.0220 N   0  0  0  0  0  0  0  0  0  0  0  0
   -3.9030   22.4930  -31.1340 C   0  0  0  0  0  0  0  0  0  0  0  0
   -2.7570   21.8560  -31.6420 C   0  0  0  0  0  0  0  0  0  0  0  0
   -1.7818   22.0202  -31.1603 H   0  0  0  0  0  0  0  0  0  0  0  0
   -2.8490   21.0140  -32.7570 C   0  0  0  0  0  0  0  0  0  0  0  0
   -1.6720   20.3710  -33.2720 C   0  0  0  0  0  0  0  0  0  0  0  0
   -0.7240   19.8550  -33.6880 N   0  0  0  0  0  0  0  0  0  0  0  0
   -4.0830   20.8150  -33.3810 C   0  0  0  0  0  0  0  0  0  0  0  0
   -4.1581   20.1442  -34.2495 H   0  0  0  0  0  0  0  0  0  0  0  0
   -5.2220   21.4680  -32.9020 C   0  0  0  0  0  0  0  0  0  0  0  0
   -6.1873   21.3293  -33.4109 H   0  0  0  0  0  0  0  0  0  0  0  0
   -5.1400   22.2990  -31.7760 C   0  0  0  0  0  0  0  0  0  0  0  0
   -6.6320   23.1000  -31.1750 S   0  0  0  0  0  0  0  0  0  0  0  0
   -7.7580   22.2120  -32.3070 C   0  0  0  0  0  0  0  0  0  0  0  0
   -7.1682   21.5386  -32.9462 H   0  0  0  0  0  0  0  0  0  0  0  0
   -8.2950   22.9515  -32.9191 H   0  0  0  0  0  0  0  0  0  0  0  0
   -8.7610   21.4070  -31.5420 C   0  0  0  0  0  0  0  0  0  0  0  0
   -9.8810   21.9150  -31.2720 O   0  0  0  0  0  0  0  0  0  0  0  0
   -8.4210   20.0760  -31.1250 N   0  0  0  0  0  0  0  0  0  0  0  0
   -7.8030   19.1540  -31.8040 C   0  0  0  0  0  0  0  0  0  0  0  0
   -7.5080   17.9510  -31.2780 N   0  0  0  0  0  0  0  0  0  0  0  0
   -6.8400   17.3000  -32.1840 O   0  0  0  0  0  0  0  0  0  0  0  0
   -6.6860   18.0220  -33.2670 C   0  0  0  0  0  0  0  0  0  0  0  0
   -5.9680   17.5640  -34.4910 C   0  0  0  0  0  0  0  0  0  0  0  0
   -5.0737   16.9936  -34.1997 H   0  0  0  0  0  0  0  0  0  0  0  0
   -6.6333   16.9231  -35.0881 H   0  0  0  0  0  0  0  0  0  0  0  0
   -5.6673   18.4375  -35.0881 H   0  0  0  0  0  0  0  0  0  0  0  0
   -7.3030   19.2430  -33.0920 C   0  0  0  0  0  0  0  0  0  0  0  0
   -7.3791   20.0808  -33.8008 H   0  0  0  0  0  0  0  0  0  0  0  0
   -0.5410   25.1760  -27.7170 C   0  0  0  0  0  0  0  0  0  0  0  0
   -0.8150   26.8600  -27.2890 Cl  0  0  0  0  0  0  0  0  0  0  0  0
    0.4610   24.4600  -27.0530 C   0  0  0  0  0  0  0  0  0  0  0  0
    1.0657   24.9537  -26.2781 H   0  0  0  0  0  0  0  0  0  0  0  0
  1  2  1  0
  2  3  2  0
  3  4  1  0
  3  5  1  0
  5  6  1  0
  5  7  2  0
  7  8  1  0
  8  9  1  0
  9 10  2  0
  9 11  1  0
 11 12  1  0
 12 13  2  0
 13 14  1  0
 13 15  1  0
 15 16  1  0
 16 17  3  0
 15 18  2  0
 18 19  1  0
 18 20  1  0
 20 21  1  0
 20 22  2  0
 22 23  1  0
 23 24  1  0
 24 25  1  0
 24 26  1  0
 24 27  1  0
 27 28  2  0
 27 29  1  0
 29 30  2  0
 30 31  1  0
 31 32  1  0
 32 33  1  0
 33 34  1  0
 34 35  1  0
 34 36  1  0
 34 37  1  0
 33 38  2  0
 38 39  1  0
  7 40  1  0
 40 41  1  0
 40 42  2  0
 42 43  1  0
 42  2  1  0
 22 12  1  0
 38 30  1  0
M  CHG  3   8  -1  11  -1  31  -1
M  END
>  <UniqueID>  (40) 
38

>  <SMILES>  (40) 
Cc1c/c(=N\C(=O)CSc2ccc(C#N)cc2[N-]C(=O)[N-]c2ccccc2Cl)[n-]o1

>  <Energy>  (40) 
76.03022003313204

>  <Genealogy>  (40) 
Cc1cc(=NC(=O)CSc2ccc(C#N)cc2[N-]C(=O)[N-]c2ccccc2Cl)[n-]o1 (protonated)
Cc1c/c(=N\C(=O)CSc2ccc(C#N)cc2[N-]C(=O)[N-]c2ccccc2Cl)[n-]o1 (cis-trans isomerization)
Cc1c/c(=N\C(=O)CSc2ccc(C#N)cc2[N-]C(=O)[N-]c2ccccc2Cl)[n-]o1 (3D coordinates assigned)
Cc1c/c(=N\C(=O)CSc2ccc(C#N)cc2[N-]C(=O)[N-]c2ccccc2Cl)[n-]o1 (optimized conformer: 76.03022003313204 kcal/mol)

>  <smiles>  (40) 
Cc1cc(=NC(=O)CSc2ccc(C#N)cc2NC(=O)Nc2ccccc2Cl)[nH]o1

>  <score_type>  (40) 
oracle

>  <origin>  (40) 
adgpu

>  <m_score__min__energy>  (40) 
-12.789999999999999

>  <m_primary>  (40) 
energy

$$$$
40:0
     RDKit          3D

 55 58  0  0  0  0  0  0  0  0999 V2000
   -1.9890   25.5930  -28.9580 O   0  0  0  0  0  0  0  0  0  0  0  0
   -2.8750   24.7800  -29.3330 C   0  0  0  0  0  0  0  0  0  0  0  0
   -3.6900   25.1160  -30.4630 N   0  0  0  0  0  0  0  0  0  0  0  0
   -4.7640   24.3130  -30.9670 C   0  0  0  0  0  0  0  0  0  0  0  0
   -6.0800   24.8020  -31.0170 C   0  0  0  0  0  0  0  0  0  0  0  0
   -7.1100   23.9990  -31.5140 C   0  0  0  0  0  0  0  0  0  0  0  0
   -6.8330   22.7060  -31.9650 C   0  0  0  0  0  0  0  0  0  0  0  0
   -5.5220   22.2100  -31.9240 C   0  0  0  0  0  0  0  0  0  0  0  0
   -5.1600   20.6140  -32.5770 S   0  0  0  0  0  0  0  0  0  0  0  0
   -4.8570   19.6820  -31.4370 O   0  0  0  0  0  0  0  0  0  0  0  0
   -3.9310   20.6980  -33.4400 O   0  0  0  0  0  0  0  0  0  0  0  0
   -6.4860   19.9600  -33.5210 N   0  0  0  0  0  0  0  0  0  0  0  0
   -7.7210   19.7920  -32.7330 C   0  0  0  0  0  0  0  0  0  0  0  0
   -7.7640   18.4670  -31.9380 C   0  0  0  0  0  0  0  0  0  0  0  0
   -6.6470   17.6390  -32.1810 O   0  0  0  0  0  0  0  0  0  0  0  0
   -6.4950   17.4420  -33.5670 C   0  0  0  0  0  0  0  0  0  0  0  0
   -6.1070   18.7510  -34.2780 C   0  0  0  0  0  0  0  0  0  0  0  0
   -4.4960   23.0100  -31.4000 C   0  0  0  0  0  0  0  0  0  0  0  0
   -3.0830   23.5350  -28.5700 C   0  0  0  0  0  0  0  0  0  0  0  0
   -2.1110   22.5950  -28.2690 C   0  0  0  0  0  0  0  0  0  0  0  0
   -2.7590   21.6000  -27.5720 C   0  0  0  0  0  0  0  0  0  0  0  0
   -2.0130   20.1530  -26.9190 S   0  0  0  0  0  0  0  0  0  0  0  0
   -3.0970   19.1970  -26.5020 O   0  0  0  0  0  0  0  0  0  0  0  0
   -1.1920   20.5210  -25.7130 O   0  0  0  0  0  0  0  0  0  0  0  0
   -0.9930   19.4040  -28.1240 N   0  0  0  0  0  0  0  0  0  0  0  0
    0.0220   20.3540  -28.6310 C   0  0  0  0  0  0  0  0  0  0  0  0
    1.3840   20.1570  -27.9410 C   0  0  0  0  0  0  0  0  0  0  0  0
    1.9230   18.8500  -28.0940 O   0  0  0  0  0  0  0  0  0  0  0  0
    0.9400   17.8390  -28.2600 C   0  0  0  0  0  0  0  0  0  0  0  0
   -0.4020   18.1640  -27.5800 C   0  0  0  0  0  0  0  0  0  0  0  0
   -4.0880   21.9530  -27.4810 C   0  0  0  0  0  0  0  0  0  0  0  0
   -4.2810   23.1340  -28.0970 N   0  0  0  0  0  0  0  0  0  0  0  0
   -6.3004   25.8202  -30.6638 H   0  0  0  0  0  0  0  0  0  0  0  0
   -8.1394   24.3851  -31.5502 H   0  0  0  0  0  0  0  0  0  0  0  0
   -7.6460   22.0750  -32.3535 H   0  0  0  0  0  0  0  0  0  0  0  0
   -7.7981   20.6281  -32.0224 H   0  0  0  0  0  0  0  0  0  0  0  0
   -8.5605   19.7728  -33.4435 H   0  0  0  0  0  0  0  0  0  0  0  0
   -7.7972   18.7039  -30.8643 H   0  0  0  0  0  0  0  0  0  0  0  0
   -8.6580   17.9164  -32.2662 H   0  0  0  0  0  0  0  0  0  0  0  0
   -5.7071   16.6938  -33.7384 H   0  0  0  0  0  0  0  0  0  0  0  0
   -7.4556   17.0958  -33.9762 H   0  0  0  0  0  0  0  0  0  0  0  0
   -5.0170   18.7586  -34.4254 H   0  0  0  0  0  0  0  0  0  0  0  0
   -6.6540   18.7786  -35.2319 H   0  0  0  0  0  0  0  0  0  0  0  0
   -3.4737   22.6102  -31.3290 H   0  0  0  0  0  0  0  0  0  0  0  0
   -1.0437   22.6351  -28.5321 H   0  0  0  0  0  0  0  0  0  0  0  0
    0.1453   20.1995  -29.7131 H   0  0  0  0  0  0  0  0  0  0  0  0
   -0.3266   21.3747  -28.4148 H   0  0  0  0  0  0  0  0  0  0  0  0
    2.0965   20.8778  -28.3685 H   0  0  0  0  0  0  0  0  0  0  0  0
    1.2221   20.3119  -26.8641 H   0  0  0  0  0  0  0  0  0  0  0  0
    0.7599   17.7030  -29.3366 H   0  0  0  0  0  0  0  0  0  0  0  0
    1.3308   16.9287  -27.7818 H   0  0  0  0  0  0  0  0  0  0  0  0
   -1.1000   17.3306  -27.7482 H   0  0  0  0  0  0  0  0  0  0  0  0
   -0.2204   18.3086  -26.5048 H   0  0  0  0  0  0  0  0  0  0  0  0
   -4.8698   21.3613  -26.9823 H   0  0  0  0  0  0  0  0  0  0  0  0
   -5.1900   23.6430  -28.1820 H   0  0  0  0  0  0  0  0  0  0  0  0
  1  2  2  0
  2  3  1  0
  3  4  1  0
  4  5  2  0
  5  6  1  0
  6  7  2  0
  7  8  1  0
  8  9  1  0
  9 10  2  0
  9 11  2  0
  9 12  1  0
 12 13  1  0
 13 14  1  0
 14 15  1  0
 15 16  1  0
 16 17  1  0
  8 18  2  0
  2 19  1  0
 19 20  2  0
 20 21  1  0
 21 22  1  0
 22 23  2  0
 22 24  2  0
 22 25  1  0
 25 26  1  0
 26 27  1  0
 27 28  1  0
 28 29  1  0
 29 30  1  0
 21 31  2  0
 31 32  1  0
 18  4  1  0
 32 19  1  0
 17 12  1  0
 30 25  1  0
  5 33  1  0
  6 34  1  0
  7 35  1  0
 13 36  1  0
 13 37  1  0
 14 38  1  0
 14 39  1  0
 16 40  1  0
 16 41  1  0
 17 42  1  0
 17 43  1  0
 18 44  1  0
 20 45  1  0
 26 46  1  0
 26 47  1  0
 27 48  1  0
 27 49  1  0
 29 50  1  0
 29 51  1  0
 30 52  1  0
 30 53  1  0
 31 54  1  0
 32 55  1  0
M  CHG  1   3  -1
M  END
>  <UniqueID>  (41) 
39

>  <SMILES>  (41) 
O=C([N-]c1cccc(S(=O)(=O)N2CCOCC2)c1)c1cc(S(=O)(=O)N2CCOCC2)c[nH]1

>  <Energy>  (41) 
106.16855012227332

>  <Genealogy>  (41) 
O=C([N-]c1cccc(S(=O)(=O)N2CCOCC2)c1)c1cc(S(=O)(=O)N2CCOCC2)c[nH]1 (protonated)
O=C([N-]c1cccc(S(=O)(=O)N2CCOCC2)c1)c1cc(S(=O)(=O)N2CCOCC2)c[nH]1 (3D coordinates assigned)
O=C([N-]c1cccc(S(=O)(=O)N2CCOCC2)c1)c1cc(S(=O)(=O)N2CCOCC2)c[nH]1 (nonaromatic ring conformer: 106.16855012227332 kcal/mol)

>  <smiles>  (41) 
O=C(Nc1cccc(S(=O)(=O)N2CCOCC2)c1)c1cc(S(=O)(=O)N2CCOCC2)c[nH]1

>  <score_type>  (41) 
oracle

>  <origin>  (41) 
adgpu

>  <m_score__min__energy>  (41) 
-11.699999999999999

>  <m_primary>  (41) 
energy

$$$$
41:0
     RDKit          3D

 29 30  0  0  0  0  0  0  0  0999 V2000
   -3.8570   25.4350  -30.6950 O   0  0  0  0  0  0  0  0  0  0  0  0
   -4.1800   24.4220  -30.0200 C   0  0  0  0  0  0  0  0  0  0  0  0
   -5.5270   23.9400  -30.0900 N   0  0  0  0  0  0  0  0  0  0  0  0
   -6.3370   23.9510  -31.3020 C   0  0  0  0  0  0  0  0  0  0  0  0
   -6.3530   22.5760  -31.9020 C   0  0  0  0  0  0  0  0  0  0  0  0
   -5.1530   21.9610  -32.2950 C   0  0  0  0  0  0  0  0  0  0  0  0
   -5.1720   20.6930  -32.8850 C   0  0  0  0  0  0  0  0  0  0  0  0
   -6.3870   20.0380  -33.0980 C   0  0  0  0  0  0  0  0  0  0  0  0
   -7.5910   20.6500  -32.7250 C   0  0  0  0  0  0  0  0  0  0  0  0
   -8.8100   20.0090  -32.9400 O   0  0  0  0  0  0  0  0  0  0  0  0
   -7.5720   21.9180  -32.1340 C   0  0  0  0  0  0  0  0  0  0  0  0
   -3.1560   23.7460  -29.2030 C   0  0  0  0  0  0  0  0  0  0  0  0
   -3.3770   22.4280  -28.7730 C   0  0  0  0  0  0  0  0  0  0  0  0
   -2.4180   21.7700  -27.9950 C   0  0  0  0  0  0  0  0  0  0  0  0
   -2.7080   20.1290  -27.4470 Cl  0  0  0  0  0  0  0  0  0  0  0  0
   -1.2280   22.4220  -27.6540 C   0  0  0  0  0  0  0  0  0  0  0  0
   -0.9930   23.7260  -28.0970 C   0  0  0  0  0  0  0  0  0  0  0  0
   -1.9470   24.3870  -28.8780 C   0  0  0  0  0  0  0  0  0  0  0  0
   -1.6780   25.6710  -29.3420 O   0  0  0  0  0  0  0  0  0  0  0  0
   -7.3646   24.2554  -31.0541 H   0  0  0  0  0  0  0  0  0  0  0  0
   -5.9093   24.6624  -32.0238 H   0  0  0  0  0  0  0  0  0  0  0  0
   -4.1950   22.4783  -32.1382 H   0  0  0  0  0  0  0  0  0  0  0  0
   -4.2288   20.2110  -33.1816 H   0  0  0  0  0  0  0  0  0  0  0  0
   -6.3988   19.0396  -33.5595 H   0  0  0  0  0  0  0  0  0  0  0  0
   -8.9100   19.2830  -33.6400 H   0  0  0  0  0  0  0  0  0  0  0  0
   -8.5176   22.4026  -31.8493 H   0  0  0  0  0  0  0  0  0  0  0  0
   -4.3077   21.9105  -29.0488 H   0  0  0  0  0  0  0  0  0  0  0  0
   -0.4769   21.9075  -27.0366 H   0  0  0  0  0  0  0  0  0  0  0  0
   -0.0547   24.2346  -27.8308 H   0  0  0  0  0  0  0  0  0  0  0  0
  1  2  2  0
  2  3  1  0
  3  4  1  0
  4  5  1  0
  5  6  2  0
  6  7  1  0
  7  8  2  0
  8  9  1  0
  9 10  1  0
  9 11  2  0
  2 12  1  0
 12 13  2  0
 13 14  1  0
 14 15  1  0
 14 16  2  0
 16 17  1  0
 17 18  2  0
 18 19  1  0
 11  5  1  0
 18 12  1  0
  4 20  1  0
  4 21  1  0
  6 22  1  0
  7 23  1  0
  8 24  1  0
 10 25  1  0
 11 26  1  0
 13 27  1  0
 16 28  1  0
 17 29  1  0
M  CHG  2   3  -1  19  -1
M  END
>  <UniqueID>  (42) 
40

>  <SMILES>  (42) 
O=C([N-]Cc1cccc(O)c1)c1cc(Cl)ccc1[O-]

>  <Energy>  (42) 
33.89547006340394

>  <Genealogy>  (42) 
O=C([N-]Cc1cccc(O)c1)c1cc(Cl)ccc1[O-] (protonated)
O=C([N-]Cc1cccc(O)c1)c1cc(Cl)ccc1[O-] (3D coordinates assigned)
O=C([N-]Cc1cccc(O)c1)c1cc(Cl)ccc1[O-] (optimized conformer: 33.89547006340394 kcal/mol)

>  <smiles>  (42) 
O=C(NCc1cccc(O)c1)c1cc(Cl)ccc1O

>  <score_type>  (42) 
oracle

>  <origin>  (42) 
adgpu

>  <m_score__min__energy>  (42) 
-11.52

>  <m_primary>  (42) 
energy

$$$$
42:0
     RDKit          3D

 49 51  0  0  0  0  0  0  0  0999 V2000
    1.4330   25.9250  -24.2640 C   0  0  0  0  0  0  0  0  0  0  0  0
    0.7110   27.1400  -23.8630 N   0  0  0  0  0  0  0  0  0  0  0  0
   -0.3750   26.7950  -22.9370 C   0  0  0  0  0  0  0  0  0  0  0  0
    0.0400   27.9130  -25.2780 S   0  0  0  0  0  0  0  0  0  0  0  0
    1.1510   28.4320  -26.1480 O   0  0  0  0  0  0  0  0  0  0  0  0
   -0.8300   29.0700  -24.8710 O   0  0  0  0  0  0  0  0  0  0  0  0
   -0.9020   26.7500  -26.2060 C   0  0  0  0  0  0  0  0  0  0  0  0
   -0.5800   26.4720  -27.5400 C   0  0  0  0  0  0  0  0  0  0  0  0
   -1.3450   25.5610  -28.2740 C   0  0  0  0  0  0  0  0  0  0  0  0
   -2.4430   24.9090  -27.6830 C   0  0  0  0  0  0  0  0  0  0  0  0
   -3.2430   23.9490  -28.4800 C   0  0  0  0  0  0  0  0  0  0  0  0
   -2.9030   22.7330  -28.4890 O   0  0  0  0  0  0  0  0  0  0  0  0
   -4.3860   24.3800  -29.2450 N   0  0  0  0  0  0  0  0  0  0  0  0
   -5.2610   23.4840  -29.9500 C   0  0  0  0  0  0  0  0  0  0  0  0
   -4.7580   22.4860  -30.8040 C   0  0  0  0  0  0  0  0  0  0  0  0
   -5.6310   21.6120  -31.4600 C   0  0  0  0  0  0  0  0  0  0  0  0
   -7.0130   21.7160  -31.2620 C   0  0  0  0  0  0  0  0  0  0  0  0
   -8.1170   20.6250  -32.0950 S   0  0  0  0  0  0  0  0  0  0  0  0
   -9.3890   21.3650  -32.4020 O   0  0  0  0  0  0  0  0  0  0  0  0
   -8.4400   19.4360  -31.2340 O   0  0  0  0  0  0  0  0  0  0  0  0
   -7.4090   20.0750  -33.5840 N   0  0  0  0  0  0  0  0  0  0  0  0
   -6.5630   19.0950  -33.7240 C   0  0  0  0  0  0  0  0  0  0  0  0
   -6.1030   18.3240  -32.6410 C   0  0  0  0  0  0  0  0  0  0  0  0
   -5.1940   17.2950  -32.8750 C   0  0  0  0  0  0  0  0  0  0  0  0
   -4.7610   17.0520  -34.1740 C   0  0  0  0  0  0  0  0  0  0  0  0
   -5.2320   17.8180  -35.1910 N   0  0  0  0  0  0  0  0  0  0  0  0
   -6.1030   18.8050  -34.9710 N   0  0  0  0  0  0  0  0  0  0  0  0
   -7.5160   22.6880  -30.3890 C   0  0  0  0  0  0  0  0  0  0  0  0
   -6.6450   23.5620  -29.7320 C   0  0  0  0  0  0  0  0  0  0  0  0
   -2.7730   25.2100  -26.3480 C   0  0  0  0  0  0  0  0  0  0  0  0
   -2.0060   26.1230  -25.6180 C   0  0  0  0  0  0  0  0  0  0  0  0
    1.7578   25.3784  -23.3664 H   0  0  0  0  0  0  0  0  0  0  0  0
    0.7688   25.2846  -24.8629 H   0  0  0  0  0  0  0  0  0  0  0  0
    2.3130   26.2022  -24.8629 H   0  0  0  0  0  0  0  0  0  0  0  0
   -0.0228   26.9069  -21.9009 H   0  0  0  0  0  0  0  0  0  0  0  0
   -1.2298   27.4658  -23.1082 H   0  0  0  0  0  0  0  0  0  0  0  0
   -0.6859   25.7538  -23.1082 H   0  0  0  0  0  0  0  0  0  0  0  0
    0.2783   26.9724  -28.0122 H   0  0  0  0  0  0  0  0  0  0  0  0
   -1.0865   25.3520  -29.3226 H   0  0  0  0  0  0  0  0  0  0  0  0
   -4.5770   25.4010  -29.3440 H   0  0  0  0  0  0  0  0  0  0  0  0
   -3.6727   22.3924  -30.9567 H   0  0  0  0  0  0  0  0  0  0  0  0
   -5.2303   20.8403  -32.1338 H   0  0  0  0  0  0  0  0  0  0  0  0
   -6.4573   18.5315  -31.6205 H   0  0  0  0  0  0  0  0  0  0  0  0
   -4.8226   16.6811  -32.0412 H   0  0  0  0  0  0  0  0  0  0  0  0
   -4.0418   16.2446  -34.3760 H   0  0  0  0  0  0  0  0  0  0  0  0
   -8.6002   22.7642  -30.2195 H   0  0  0  0  0  0  0  0  0  0  0  0
   -7.0473   24.3160  -29.0394 H   0  0  0  0  0  0  0  0  0  0  0  0
   -3.6397   24.7239  -25.8763 H   0  0  0  0  0  0  0  0  0  0  0  0
   -2.2721   26.3498  -24.5750 H   0  0  0  0  0  0  0  0  0  0  0  0
  1  2  1  0
  2  3  1  0
  2  4  1  0
  4  5  2  0
  4  6  2  0
  4  7  1  0
  7  8  2  0
  8  9  1  0
  9 10  2  0
 10 11  1  0
 11 12  2  0
 11 13  1  0
 13 14  1  0
 14 15  2  0
 15 16  1  0
 16 17  2  0
 17 18  1  0
 18 19  2  0
 18 20  2  0
 18 21  1  0
 21 22  2  3
 22 23  1  0
 23 24  2  0
 24 25  1  0
 25 26  2  0
 26 27  1  0
 17 28  1  0
 28 29  2  0
 10 30  1  0
 30 31  2  0
 31  7  1  0
 29 14  1  0
 27 22  1  0
  1 32  1  0
  1 33  1  0
  1 34  1  0
  3 35  1  0
  3 36  1  0
  3 37  1  0
  8 38  1  0
  9 39  1  0
 13 40  1  0
 15 41  1  0
 16 42  1  0
 23 43  1  0
 24 44  1  0
 25 45  1  0
 28 46  1  0
 29 47  1  0
 30 48  1  0
 31 49  1  0
M  CHG  1  27  -1
M  END
>  <UniqueID>  (43) 
41

>  <SMILES>  (43) 
CN(C)S(=O)(=O)c1ccc(C(=O)Nc2ccc(S(=O)(=O)N=c3cccn[n-]3)cc2)cc1

>  <Energy>  (43) 
62.723014731369744

>  <Genealogy>  (43) 
CN(C)S(=O)(=O)c1ccc(C(=O)Nc2ccc(S(=O)(=O)N=c3cccn[n-]3)cc2)cc1 (protonated)
CN(C)S(=O)(=O)c1ccc(C(=O)Nc2ccc(S(=O)(=O)N=c3cccn[n-]3)cc2)cc1 (3D coordinates assigned)
CN(C)S(=O)(=O)c1ccc(C(=O)Nc2ccc(S(=O)(=O)N=c3cccn[n-]3)cc2)cc1 (optimized conformer: 62.723014731369744 kcal/mol)

>  <smiles>  (43) 
CN(C)S(=O)(=O)c1ccc(C(=O)Nc2ccc(S(=O)(=O)N=c3cccn[nH]3)cc2)cc1

>  <score_type>  (43) 
oracle

>  <origin>  (43) 
adgpu

>  <m_score__min__energy>  (43) 
-9.0500000000000007

>  <m_primary>  (43) 
energy

$$$$
43:0
     RDKit          3D

 41 42  0  0  0  0  0  0  0  0999 V2000
   -9.7810   19.0720  -32.6620 C   0  0  0  0  0  0  0  0  0  0  0  0
   -8.2830   19.0200  -32.6920 C   0  0  0  0  0  0  0  0  0  0  0  0
   -7.5920   18.0540  -31.9440 C   0  0  0  0  0  0  0  0  0  0  0  0
   -6.1930   18.0270  -31.9490 C   0  0  0  0  0  0  0  0  0  0  0  0
   -5.4740   18.9650  -32.6980 C   0  0  0  0  0  0  0  0  0  0  0  0
   -3.6750   18.9410  -32.7080 S   0  0  0  0  0  0  0  0  0  0  0  0
   -3.5070   20.4970  -31.8110 C   0  0  0  0  0  0  0  0  0  0  0  0
   -4.6030   20.9550  -31.0660 C   0  0  0  0  0  0  0  0  0  0  0  0
   -4.5410   22.1690  -30.3820 C   0  0  0  0  0  0  0  0  0  0  0  0
   -3.3720   22.9340  -30.4130 C   0  0  0  0  0  0  0  0  0  0  0  0
   -3.3010   24.4770  -29.5670 S   0  0  0  0  0  0  0  0  0  0  0  0
   -4.1540   25.6730  -30.4760 N   0  0  0  0  0  0  0  0  0  0  0  0
   -3.9220   24.3430  -28.2050 O   0  0  0  0  0  0  0  0  0  0  0  0
   -1.8680   24.9010  -29.4020 O   0  0  0  0  0  0  0  0  0  0  0  0
   -2.2600   22.4700  -31.1250 C   0  0  0  0  0  0  0  0  0  0  0  0
   -2.3050   21.2460  -31.8130 C   0  0  0  0  0  0  0  0  0  0  0  0
   -0.8310   20.6490  -32.5900 S   0  0  0  0  0  0  0  0  0  0  0  0
    0.3620   21.1200  -31.8110 O   0  0  0  0  0  0  0  0  0  0  0  0
   -0.8370   19.1440  -32.6210 O   0  0  0  0  0  0  0  0  0  0  0  0
   -0.7560   21.2350  -34.2220 N   0  0  0  0  0  0  0  0  0  0  0  0
    0.4440   21.7190  -34.8460 C   0  0  0  0  0  0  0  0  0  0  0  0
    0.3400   22.4820  -36.0510 N   0  0  0  0  0  0  0  0  0  0  0  0
    1.6170   21.4540  -34.3530 N   0  0  0  0  0  0  0  0  0  0  0  0
   -6.1610   19.9540  -33.4130 C   0  0  0  0  0  0  0  0  0  0  0  0
   -7.5580   19.9810  -33.4120 C   0  0  0  0  0  0  0  0  0  0  0  0
  -10.1266   19.0840  -31.6178 H   0  0  0  0  0  0  0  0  0  0  0  0
  -10.1266   19.9827  -33.1731 H   0  0  0  0  0  0  0  0  0  0  0  0
  -10.1889   18.1875  -33.1731 H   0  0  0  0  0  0  0  0  0  0  0  0
   -8.1523   17.3155  -31.3517 H   0  0  0  0  0  0  0  0  0  0  0  0
   -5.6570   17.2663  -31.3625 H   0  0  0  0  0  0  0  0  0  0  0  0
   -5.5211   20.3508  -31.0205 H   0  0  0  0  0  0  0  0  0  0  0  0
   -5.4147   22.5252  -29.8166 H   0  0  0  0  0  0  0  0  0  0  0  0
   -3.5070   26.0020  -31.2280 H   0  0  0  0  0  0  0  0  0  0  0  0
   -1.3391   23.0713  -31.1462 H   0  0  0  0  0  0  0  0  0  0  0  0
   -1.6560   21.3080  -34.7470 H   0  0  0  0  0  0  0  0  0  0  0  0
    1.1910   22.8440  -36.5340 H   0  0  0  0  0  0  0  0  0  0  0  0
   -0.5970   22.6920  -36.4640 H   0  0  0  0  0  0  0  0  0  0  0  0
    1.7420   20.8670  -33.5010 H   0  0  0  0  0  0  0  0  0  0  0  0
    2.4820   21.8080  -34.8200 H   0  0  0  0  0  0  0  0  0  0  0  0
   -5.5987   20.7124  -33.9775 H   0  0  0  0  0  0  0  0  0  0  0  0
   -8.0913   20.7589  -33.9780 H   0  0  0  0  0  0  0  0  0  0  0  0
  1  2  1  0
  2  3  2  0
  3  4  1  0
  4  5  2  0
  5  6  1  0
  6  7  1  0
  7  8  2  0
  8  9  1  0
  9 10  2  0
 10 11  1  0
 11 12  1  0
 11 13  2  0
 11 14  2  0
 10 15  1  0
 15 16  2  0
 16 17  1  0
 17 18  2  0
 17 19  2  0
 17 20  1  0
 20 21  1  0
 21 22  1  0
 21 23  2  0
  5 24  1  0
 24 25  2  0
 25  2  1  0
 16  7  1  0
  1 26  1  0
  1 27  1  0
  1 28  1  0
  3 29  1  0
  4 30  1  0
  8 31  1  0
  9 32  1  0
 12 33  1  0
 15 34  1  0
 20 35  1  0
 22 36  1  0
 22 37  1  0
 23 38  1  0
 23 39  1  0
 24 40  1  0
 25 41  1  0
M  CHG  2  12  -1  23   1
M  END
>  <UniqueID>  (44) 
42

>  <SMILES>  (44) 
Cc1ccc(Sc2ccc(S([NH-])(=O)=O)cc2S(=O)(=O)NC(N)=[NH2+])cc1

>  <Energy>  (44) 
39.56773597847814

>  <Genealogy>  (44) 
Cc1ccc(Sc2ccc(S([NH-])(=O)=O)cc2S(=O)(=O)NC(N)=[NH2+])cc1 (protonated)
Cc1ccc(Sc2ccc(S([NH-])(=O)=O)cc2S(=O)(=O)NC(N)=[NH2+])cc1 (3D coordinates assigned)
Cc1ccc(Sc2ccc(S([NH-])(=O)=O)cc2S(=O)(=O)NC(N)=[NH2+])cc1 (optimized conformer: 39.56773597847814 kcal/mol)

>  <smiles>  (44) 
Cc1ccc(Sc2ccc(S(N)(=O)=O)cc2S(=O)(=O)NC(=N)N)cc1

>  <score_type>  (44) 
oracle

>  <origin>  (44) 
adgpu

>  <m_score__min__energy>  (44) 
-10.390000000000001

>  <m_primary>  (44) 
energy

$$$$
44:0
     RDKit          3D

 50 52  0  0  0  0  0  0  0  0999 V2000
   -2.6900   19.3700  -26.5880 C   0  0  0  0  0  0  0  0  0  0  0  0
   -1.7510   20.4620  -27.0080 C   0  0  0  0  0  0  0  0  0  0  0  0
   -0.5250   20.3310  -26.7410 O   0  0  0  0  0  0  0  0  0  0  0  0
   -2.2270   21.6800  -27.7190 C   0  0  0  0  0  0  0  0  0  0  0  0
   -3.4910   21.6840  -28.3340 C   0  0  0  0  0  0  0  0  0  0  0  0
   -3.9540   22.8150  -29.0080 C   0  0  0  0  0  0  0  0  0  0  0  0
   -3.1580   23.9700  -29.0930 C   0  0  0  0  0  0  0  0  0  0  0  0
   -3.6020   25.1230  -29.7620 O   0  0  0  0  0  0  0  0  0  0  0  0
   -4.8530   25.2760  -30.3700 C   0  0  0  0  0  0  0  0  0  0  0  0
   -5.7420   26.0010  -29.8450 O   0  0  0  0  0  0  0  0  0  0  0  0
   -5.1070   24.5920  -31.6020 N   0  0  0  0  0  0  0  0  0  0  0  0
   -5.8890   23.4010  -31.7770 C   0  0  0  0  0  0  0  0  0  0  0  0
   -5.2270   22.1700  -31.8690 C   0  0  0  0  0  0  0  0  0  0  0  0
   -5.9520   20.9850  -32.0200 C   0  0  0  0  0  0  0  0  0  0  0  0
   -7.3520   21.0140  -32.0630 C   0  0  0  0  0  0  0  0  0  0  0  0
   -8.2710   19.5170  -32.2430 S   0  0  0  0  0  0  0  0  0  0  0  0
   -9.4960   19.7870  -33.0740 O   0  0  0  0  0  0  0  0  0  0  0  0
   -8.7230   19.0520  -30.8870 O   0  0  0  0  0  0  0  0  0  0  0  0
   -7.3240   18.2580  -32.9980 N   0  0  0  0  0  0  0  0  0  0  0  0
   -6.4550   18.8220  -34.0440 C   0  0  0  0  0  0  0  0  0  0  0  0
   -5.4620   17.7600  -34.5570 C   0  0  0  0  0  0  0  0  0  0  0  0
   -5.8020   16.4710  -34.0870 O   0  0  0  0  0  0  0  0  0  0  0  0
   -5.6980   16.4310  -32.6740 C   0  0  0  0  0  0  0  0  0  0  0  0
   -6.5170   17.5500  -31.9950 C   0  0  0  0  0  0  0  0  0  0  0  0
   -8.0190   22.2400  -31.9490 C   0  0  0  0  0  0  0  0  0  0  0  0
   -7.2960   23.4270  -31.7990 C   0  0  0  0  0  0  0  0  0  0  0  0
   -1.9030   23.9890  -28.4580 C   0  0  0  0  0  0  0  0  0  0  0  0
   -1.0430   25.2220  -28.5260 C   0  0  0  0  0  0  0  0  0  0  0  0
   -1.4390   22.8450  -27.7870 C   0  0  0  0  0  0  0  0  0  0  0  0
   -2.7302   19.3233  -25.4897 H   0  0  0  0  0  0  0  0  0  0  0  0
   -3.6952   19.5786  -26.9832 H   0  0  0  0  0  0  0  0  0  0  0  0
   -2.3332   18.4074  -26.9832 H   0  0  0  0  0  0  0  0  0  0  0  0
   -4.1228   20.7849  -28.2834 H   0  0  0  0  0  0  0  0  0  0  0  0
   -4.9493   22.8022  -29.4761 H   0  0  0  0  0  0  0  0  0  0  0  0
   -4.1285   22.1359  -31.8220 H   0  0  0  0  0  0  0  0  0  0  0  0
   -5.4212   20.0253  -32.1055 H   0  0  0  0  0  0  0  0  0  0  0  0
   -7.0771   19.1696  -34.8819 H   0  0  0  0  0  0  0  0  0  0  0  0
   -5.8866   19.6616  -33.6175 H   0  0  0  0  0  0  0  0  0  0  0  0
   -5.4776   17.7562  -35.6569 H   0  0  0  0  0  0  0  0  0  0  0  0
   -4.4587   18.0129  -34.1834 H   0  0  0  0  0  0  0  0  0  0  0  0
   -6.0672   15.4574  -32.3194 H   0  0  0  0  0  0  0  0  0  0  0  0
   -4.6406   16.5798  -32.4097 H   0  0  0  0  0  0  0  0  0  0  0  0
   -7.1816   17.1076  -31.2383 H   0  0  0  0  0  0  0  0  0  0  0  0
   -5.8292   18.2620  -31.5153 H   0  0  0  0  0  0  0  0  0  0  0  0
   -9.1182   22.2692  -31.9776 H   0  0  0  0  0  0  0  0  0  0  0  0
   -7.8284   24.3843  -31.6979 H   0  0  0  0  0  0  0  0  0  0  0  0
   -0.8066   25.5609  -27.5065 H   0  0  0  0  0  0  0  0  0  0  0  0
   -0.1102   24.9894  -29.0606 H   0  0  0  0  0  0  0  0  0  0  0  0
   -1.5835   26.0170  -29.0606 H   0  0  0  0  0  0  0  0  0  0  0  0
   -0.4483   22.8597  -27.3091 H   0  0  0  0  0  0  0  0  0  0  0  0
  1  2  1  0
  2  3  2  0
  2  4  1  0
  4  5  2  0
  5  6  1  0
  6  7  2  0
  7  8  1  0
  8  9  1  0
  9 10  2  0
  9 11  1  0
 11 12  1  0
 12 13  2  0
 13 14  1  0
 14 15  2  0
 15 16  1  0
 16 17  2  0
 16 18  2  0
 16 19  1  0
 19 20  1  0
 20 21  1  0
 21 22  1  0
 22 23  1  0
 23 24  1  0
 15 25  1  0
 25 26  2  0
  7 27  1  0
 27 28  1  0
 27 29  2  0
 29  4  1  0
 26 12  1  0
 24 19  1  0
  1 30  1  0
  1 31  1  0
  1 32  1  0
  5 33  1  0
  6 34  1  0
 13 35  1  0
 14 36  1  0
 20 37  1  0
 20 38  1  0
 21 39  1  0
 21 40  1  0
 23 41  1  0
 23 42  1  0
 24 43  1  0
 24 44  1  0
 25 45  1  0
 26 46  1  0
 28 47  1  0
 28 48  1  0
 28 49  1  0
 29 50  1  0
M  CHG  1  11  -1
M  END
>  <UniqueID>  (45) 
43

>  <SMILES>  (45) 
CC(=O)c1ccc(OC(=O)[N-]c2ccc(S(=O)(=O)N3CCOCC3)cc2)c(C)c1

>  <Energy>  (45) 
66.69412879762791

>  <Genealogy>  (45) 
CC(=O)c1ccc(OC(=O)[N-]c2ccc(S(=O)(=O)N3CCOCC3)cc2)c(C)c1 (protonated)
CC(=O)c1ccc(OC(=O)[N-]c2ccc(S(=O)(=O)N3CCOCC3)cc2)c(C)c1 (3D coordinates assigned)
CC(=O)c1ccc(OC(=O)[N-]c2ccc(S(=O)(=O)N3CCOCC3)cc2)c(C)c1 (nonaromatic ring conformer: 66.69412879762791 kcal/mol)

>  <smiles>  (45) 
CC(=O)c1ccc(OC(=O)Nc2ccc(S(=O)(=O)N3CCOCC3)cc2)c(C)c1

>  <score_type>  (45) 
oracle

>  <origin>  (45) 
adgpu

>  <m_score__min__energy>  (45) 
-11.460000000000001

>  <m_primary>  (45) 
energy

$$$$
45:0
     RDKit          3D

 40 42  0  0  0  0  0  0  0  0999 V2000
   -0.7900   20.7840  -31.8740 O   0  0  0  0  0  0  0  0  0  0  0  0
   -1.5170   21.2630  -32.7680 N   0  0  0  0  0  0  0  0  0  0  0  0
   -0.9580   21.5540  -33.9910 O   0  0  0  0  0  0  0  0  0  0  0  0
   -2.9150   21.5070  -32.5270 C   0  0  0  0  0  0  0  0  0  0  0  0
   -3.8840   20.6100  -33.0030 C   0  0  0  0  0  0  0  0  0  0  0  0
   -5.2390   20.8400  -32.7660 C   0  0  0  0  0  0  0  0  0  0  0  0
   -5.6560   21.9700  -32.0480 C   0  0  0  0  0  0  0  0  0  0  0  0
   -7.0550   22.1640  -31.8070 N   0  0  0  0  0  0  0  0  0  0  0  0
   -7.8040   23.2600  -32.3940 C   0  0  0  0  0  0  0  0  0  0  0  0
   -9.2490   23.0260  -31.9780 C   0  0  0  0  0  0  0  0  0  0  0  0
   -9.3330   21.5530  -31.5800 C   0  0  0  0  0  0  0  0  0  0  0  0
   -7.9070   21.1290  -31.2510 C   0  0  0  0  0  0  0  0  0  0  0  0
   -4.6940   22.8880  -31.5740 C   0  0  0  0  0  0  0  0  0  0  0  0
   -5.1590   24.3410  -30.6800 S   0  0  0  0  0  0  0  0  0  0  0  0
   -5.8910   25.2870  -31.5890 O   0  0  0  0  0  0  0  0  0  0  0  0
   -6.0630   23.9600  -29.5400 O   0  0  0  0  0  0  0  0  0  0  0  0
   -3.7230   25.1030  -30.0780 N   0  0  0  0  0  0  0  0  0  0  0  0
   -2.7940   24.5440  -29.1370 C   0  0  0  0  0  0  0  0  0  0  0  0
   -3.0860   23.2820  -28.6020 C   0  0  0  0  0  0  0  0  0  0  0  0
   -2.2310   22.6880  -27.6700 C   0  0  0  0  0  0  0  0  0  0  0  0
   -1.0660   23.3470  -27.2730 C   0  0  0  0  0  0  0  0  0  0  0  0
   -0.7490   24.5940  -27.8160 C   0  0  0  0  0  0  0  0  0  0  0  0
   -1.5980   25.1930  -28.7540 C   0  0  0  0  0  0  0  0  0  0  0  0
   -1.2210   26.4090  -29.3100 O   0  0  0  0  0  0  0  0  0  0  0  0
   -3.3330   22.6430  -31.8090 C   0  0  0  0  0  0  0  0  0  0  0  0
   -3.5723   19.7187  -33.5673 H   0  0  0  0  0  0  0  0  0  0  0  0
   -5.9872   20.1287  -33.1457 H   0  0  0  0  0  0  0  0  0  0  0  0
   -7.4429   24.2244  -32.0072 H   0  0  0  0  0  0  0  0  0  0  0  0
   -7.6922   23.2942  -33.4878 H   0  0  0  0  0  0  0  0  0  0  0  0
   -9.5112   23.6691  -31.1249 H   0  0  0  0  0  0  0  0  0  0  0  0
   -9.9491   23.2666  -32.7916 H   0  0  0  0  0  0  0  0  0  0  0  0
   -9.9816   21.4305  -30.7000 H   0  0  0  0  0  0  0  0  0  0  0  0
   -9.7614   20.9399  -32.3865 H   0  0  0  0  0  0  0  0  0  0  0  0
   -7.7680   21.0610  -30.1619 H   0  0  0  0  0  0  0  0  0  0  0  0
   -7.6700   20.1389  -31.6675 H   0  0  0  0  0  0  0  0  0  0  0  0
   -3.9974   22.7538  -28.9189 H   0  0  0  0  0  0  0  0  0  0  0  0
   -2.4757   21.7015  -27.2493 H   0  0  0  0  0  0  0  0  0  0  0  0
   -0.3976   22.8839  -26.5323 H   0  0  0  0  0  0  0  0  0  0  0  0
    0.1724   25.1081  -27.5050 H   0  0  0  0  0  0  0  0  0  0  0  0
   -2.5813   23.3492  -31.4265 H   0  0  0  0  0  0  0  0  0  0  0  0
  1  2  2  0
  2  3  1  0
  2  4  1  0
  4  5  2  0
  5  6  1  0
  6  7  2  0
  7  8  1  0
  8  9  1  0
  9 10  1  0
 10 11  1  0
 11 12  1  0
  7 13  1  0
 13 14  1  0
 14 15  2  0
 14 16  2  0
 14 17  1  0
 17 18  1  0
 18 19  2  0
 19 20  1  0
 20 21  2  0
 21 22  1  0
 22 23  2  0
 23 24  1  0
 13 25  2  0
 25  4  1  0
 12  8  1  0
 23 18  1  0
  5 26  1  0
  6 27  1  0
  9 28  1  0
  9 29  1  0
 10 30  1  0
 10 31  1  0
 11 32  1  0
 11 33  1  0
 12 34  1  0
 12 35  1  0
 19 36  1  0
 20 37  1  0
 21 38  1  0
 22 39  1  0
 25 40  1  0
M  CHG  4   2   1   3  -1  17  -1  24  -1
M  END
>  <UniqueID>  (46) 
44

>  <SMILES>  (46) 
O=[N+]([O-])c1ccc(N2CCCC2)c(S(=O)(=O)[N-]c2ccccc2[O-])c1

>  <Energy>  (46) 
56.054967531518955

>  <Genealogy>  (46) 
O=[N+]([O-])c1ccc(N2CCCC2)c(S(=O)(=O)[N-]c2ccccc2[O-])c1 (protonated)
O=[N+]([O-])c1ccc(N2CCCC2)c(S(=O)(=O)[N-]c2ccccc2[O-])c1 (3D coordinates assigned)
O=[N+]([O-])c1ccc(N2CCCC2)c(S(=O)(=O)[N-]c2ccccc2[O-])c1 (nonaromatic ring conformer: 56.054967531518955 kcal/mol)

>  <smiles>  (46) 
O=[N+]([O-])c1ccc(N2CCCC2)c(S(=O)(=O)Nc2ccccc2O)c1

>  <score_type>  (46) 
oracle

>  <origin>  (46) 
adgpu

>  <m_score__min__energy>  (46) 
-13.050000000000001

>  <m_primary>  (46) 
energy

$$$$
46:0
     RDKit          3D

 32 34  0  0  0  0  0  0  0  0999 V2000
   -5.8350   25.7000  -31.3480 O   0  0  0  0  0  0  0  0  0  0  0  0
   -5.1890   24.5470  -30.6290 S   0  0  0  0  0  0  0  0  0  0  0  0
   -5.9030   24.3380  -29.3240 O   0  0  0  0  0  0  0  0  0  0  0  0
   -3.5290   24.9390  -30.3180 N   0  0  0  0  0  0  0  0  0  0  0  0
   -2.6730   24.2540  -29.3920 C   0  0  0  0  0  0  0  0  0  0  0  0
   -2.9480   22.9440  -28.9540 C   0  0  0  0  0  0  0  0  0  0  0  0
   -2.0940   22.3130  -28.0460 C   0  0  0  0  0  0  0  0  0  0  0  0
   -0.9600   22.9760  -27.5700 C   0  0  0  0  0  0  0  0  0  0  0  0
   -0.6760   24.2730  -28.0060 C   0  0  0  0  0  0  0  0  0  0  0  0
   -1.5280   24.9110  -28.9140 C   0  0  0  0  0  0  0  0  0  0  0  0
   -1.2350   26.2020  -29.3380 O   0  0  0  0  0  0  0  0  0  0  0  0
   -5.2970   23.0580  -31.5870 C   0  0  0  0  0  0  0  0  0  0  0  0
   -4.1230   22.5550  -32.1700 C   0  0  0  0  0  0  0  0  0  0  0  0
   -4.1390   21.3700  -32.9050 C   0  0  0  0  0  0  0  0  0  0  0  0
   -5.3290   20.6650  -33.0730 C   0  0  0  0  0  0  0  0  0  0  0  0
   -6.5200   21.1440  -32.5110 C   0  0  0  0  0  0  0  0  0  0  0  0
   -7.7140   20.4270  -32.6890 C   0  0  0  0  0  0  0  0  0  0  0  0
   -8.9050   20.8990  -32.1400 C   0  0  0  0  0  0  0  0  0  0  0  0
   -8.9190   22.0880  -31.4130 C   0  0  0  0  0  0  0  0  0  0  0  0
   -7.7390   22.8140  -31.2260 C   0  0  0  0  0  0  0  0  0  0  0  0
   -6.5190   22.3540  -31.7640 C   0  0  0  0  0  0  0  0  0  0  0  0
   -3.8377   22.4161  -29.3279 H   0  0  0  0  0  0  0  0  0  0  0  0
   -2.3151   21.2909  -27.7048 H   0  0  0  0  0  0  0  0  0  0  0  0
   -0.2914   22.4775  -26.8527 H   0  0  0  0  0  0  0  0  0  0  0  0
    0.2192   24.7933  -27.6346 H   0  0  0  0  0  0  0  0  0  0  0  0
   -3.1775   23.1032  -32.0453 H   0  0  0  0  0  0  0  0  0  0  0  0
   -3.2091   20.9906  -33.3536 H   0  0  0  0  0  0  0  0  0  0  0  0
   -5.3336   19.7281  -33.6494 H   0  0  0  0  0  0  0  0  0  0  0  0
   -7.7095   19.4892  -33.2639 H   0  0  0  0  0  0  0  0  0  0  0  0
   -9.8367   20.3314  -32.2809 H   0  0  0  0  0  0  0  0  0  0  0  0
   -9.8626   22.4568  -30.9845 H   0  0  0  0  0  0  0  0  0  0  0  0
   -7.7622   23.7531  -30.6537 H   0  0  0  0  0  0  0  0  0  0  0  0
  1  2  2  0
  2  3  2  0
  2  4  1  0
  4  5  1  0
  5  6  2  0
  6  7  1  0
  7  8  2  0
  8  9  1  0
  9 10  2  0
 10 11  1  0
  2 12  1  0
 12 13  2  0
 13 14  1  0
 14 15  2  0
 15 16  1  0
 16 17  2  0
 17 18  1  0
 18 19  2  0
 19 20  1  0
 20 21  2  0
 10  5  1  0
 21 12  1  0
 21 16  1  0
  6 22  1  0
  7 23  1  0
  8 24  1  0
  9 25  1  0
 13 26  1  0
 14 27  1  0
 15 28  1  0
 17 29  1  0
 18 30  1  0
 19 31  1  0
 20 32  1  0
M  CHG  2   4  -1  11  -1
M  END
>  <UniqueID>  (47) 
45

>  <SMILES>  (47) 
O=S(=O)([N-]c1ccccc1[O-])c1cccc2ccccc12

>  <Energy>  (47) 
44.04151514109034

>  <Genealogy>  (47) 
O=S(=O)([N-]c1ccccc1[O-])c1cccc2ccccc12 (protonated)
O=S(=O)([N-]c1ccccc1[O-])c1cccc2ccccc12 (3D coordinates assigned)
O=S(=O)([N-]c1ccccc1[O-])c1cccc2ccccc12 (optimized conformer: 44.04151514109034 kcal/mol)

>  <smiles>  (47) 
O=S(=O)(Nc1ccccc1O)c1cccc2ccccc12

>  <score_type>  (47) 
oracle

>  <origin>  (47) 
adgpu

>  <m_score__min__energy>  (47) 
-13.359999999999999

>  <m_primary>  (47) 
energy

$$$$
47:0
     RDKit          3D

 43 45  0  0  0  0  0  0  0  0999 V2000
   -3.6250   19.6670  -34.0810 N   0  0  0  0  0  0  0  0  0  0  0  0
   -4.9320   19.7140  -33.5040 C   0  0  0  0  0  0  0  0  0  0  0  0
   -5.7970   18.6160  -33.6250 C   0  0  0  0  0  0  0  0  0  0  0  0
   -7.0770   18.6650  -33.0640 C   0  0  0  0  0  0  0  0  0  0  0  0
   -7.5020   19.8080  -32.3800 C   0  0  0  0  0  0  0  0  0  0  0  0
   -6.6420   20.9090  -32.2510 C   0  0  0  0  0  0  0  0  0  0  0  0
   -7.1690   22.3650  -31.4140 S   0  0  0  0  0  0  0  0  0  0  0  0
   -8.0730   21.9780  -30.2760 O   0  0  0  0  0  0  0  0  0  0  0  0
   -7.9330   23.2660  -32.3440 O   0  0  0  0  0  0  0  0  0  0  0  0
   -5.7520   23.2240  -30.8180 C   0  0  0  0  0  0  0  0  0  0  0  0
   -5.7520   24.6220  -30.7130 C   0  0  0  0  0  0  0  0  0  0  0  0
   -4.6260   25.2900  -30.2220 C   0  0  0  0  0  0  0  0  0  0  0  0
   -3.4970   24.5680  -29.8130 C   0  0  0  0  0  0  0  0  0  0  0  0
   -2.3510   25.2880  -29.3350 N   0  0  0  0  0  0  0  0  0  0  0  0
   -1.3370   24.7790  -28.4610 C   0  0  0  0  0  0  0  0  0  0  0  0
   -0.1650   24.6540  -28.9050 O   0  0  0  0  0  0  0  0  0  0  0  0
   -1.6210   24.5300  -27.0300 C   0  0  0  0  0  0  0  0  0  0  0  0
   -1.5200   23.3400  -26.4170 C   0  0  0  0  0  0  0  0  0  0  0  0
   -1.2940   22.0460  -27.0950 C   0  0  0  0  0  0  0  0  0  0  0  0
   -0.0170   21.7320  -27.5750 C   0  0  0  0  0  0  0  0  0  0  0  0
    0.2210   20.4930  -28.1740 C   0  0  0  0  0  0  0  0  0  0  0  0
   -0.8200   19.5660  -28.2670 C   0  0  0  0  0  0  0  0  0  0  0  0
   -2.0480   19.8710  -27.7680 N   0  0  0  0  0  0  0  0  0  0  0  0
   -2.3050   21.0720  -27.1840 C   0  0  0  0  0  0  0  0  0  0  0  0
   -3.4900   23.1680  -29.9410 C   0  0  0  0  0  0  0  0  0  0  0  0
   -4.6170   22.5020  -30.4330 C   0  0  0  0  0  0  0  0  0  0  0  0
   -5.3600   20.8600  -32.8160 C   0  0  0  0  0  0  0  0  0  0  0  0
   -3.0930   18.7680  -34.1310 H   0  0  0  0  0  0  0  0  0  0  0  0
   -3.1770   20.5300  -34.4650 H   0  0  0  0  0  0  0  0  0  0  0  0
   -5.4676   17.7145  -34.1624 H   0  0  0  0  0  0  0  0  0  0  0  0
   -7.7516   17.8016  -33.1611 H   0  0  0  0  0  0  0  0  0  0  0  0
   -8.5108   19.8440  -31.9429 H   0  0  0  0  0  0  0  0  0  0  0  0
   -6.6402   25.1949  -31.0177 H   0  0  0  0  0  0  0  0  0  0  0  0
   -4.6265   26.3880  -30.1565 H   0  0  0  0  0  0  0  0  0  0  0  0
   -1.9402   25.3882  -26.4203 H   0  0  0  0  0  0  0  0  0  0  0  0
   -1.6130   23.3267  -25.3210 H   0  0  0  0  0  0  0  0  0  0  0  0
    0.8002   22.4622  -27.4803 H   0  0  0  0  0  0  0  0  0  0  0  0
    1.2184   20.2494  -28.5687 H   0  0  0  0  0  0  0  0  0  0  0  0
   -0.6466   18.5899  -28.7436 H   0  0  0  0  0  0  0  0  0  0  0  0
   -3.3063   21.2824  -26.7801 H   0  0  0  0  0  0  0  0  0  0  0  0
   -2.5960   22.5951  -29.6535 H   0  0  0  0  0  0  0  0  0  0  0  0
   -4.6111   21.4053  -30.5177 H   0  0  0  0  0  0  0  0  0  0  0  0
   -4.6861   21.7241  -32.7196 H   0  0  0  0  0  0  0  0  0  0  0  0
  1  2  1  0
  2  3  2  0
  3  4  1  0
  4  5  2  0
  5  6  1  0
  6  7  1  0
  7  8  2  0
  7  9  2  0
  7 10  1  0
 10 11  2  0
 11 12  1  0
 12 13  2  0
 13 14  1  0
 14 15  1  0
 15 16  2  0
 15 17  1  0
 17 18  2  3
 18 19  1  0
 19 20  2  0
 20 21  1  0
 21 22  2  0
 22 23  1  0
 23 24  2  0
 13 25  1  0
 25 26  2  0
  6 27  2  0
 27  2  1  0
 26 10  1  0
 24 19  1  0
  1 28  1  0
  1 29  1  0
  3 30  1  0
  4 31  1  0
  5 32  1  0
 11 33  1  0
 12 34  1  0
 17 35  1  0
 18 36  1  0
 20 37  1  0
 21 38  1  0
 22 39  1  0
 24 40  1  0
 25 41  1  0
 26 42  1  0
 27 43  1  0
M  CHG  1  14  -1
M  END
>  <UniqueID>  (48) 
46

>  <SMILES>  (48) 
Nc1cccc(S(=O)(=O)c2ccc([N-]C(=O)C=Cc3cccnc3)cc2)c1

>  <Energy>  (48) 
59.362062515449175

>  <Genealogy>  (48) 
Nc1cccc(S(=O)(=O)c2ccc([N-]C(=O)C=Cc3cccnc3)cc2)c1 (protonated)
Nc1cccc(S(=O)(=O)c2ccc([N-]C(=O)C=Cc3cccnc3)cc2)c1 (3D coordinates assigned)
Nc1cccc(S(=O)(=O)c2ccc([N-]C(=O)C=Cc3cccnc3)cc2)c1 (optimized conformer: 59.362062515449175 kcal/mol)

>  <smiles>  (48) 
Nc1cccc(S(=O)(=O)c2ccc(NC(=O)C=Cc3cccnc3)cc2)c1

>  <score_type>  (48) 
oracle

>  <origin>  (48) 
adgpu

>  <m_score__min__energy>  (48) 
-11.76

>  <m_primary>  (48) 
energy

$$$$
