0:0
     RDKit          3D

 57 60  0  0  0  0  0  0  0  0999 V2000
   -4.5770   24.4510  -28.3980 C   0  0  0  0  0  0  0  0  0  0  0  0
   -5.3070   24.9050  -29.9540 S   0  0  0  0  0  0  0  0  0  0  0  0
   -6.3310   25.9810  -29.7230 O   0  0  0  0  0  0  0  0  0  0  0  0
   -4.2470   25.4350  -30.8770 O   0  0  0  0  0  0  0  0  0  0  0  0
   -6.0630   23.4910  -30.6810 C   0  0  0  0  0  0  0  0  0  0  0  0
   -5.4480   22.8550  -31.7660 C   0  0  0  0  0  0  0  0  0  0  0  0
   -6.0310   21.7230  -32.3430 C   0  0  0  0  0  0  0  0  0  0  0  0
   -7.2430   21.2190  -31.8430 C   0  0  0  0  0  0  0  0  0  0  0  0
   -7.8550   19.9810  -32.4400 C   0  0  0  0  0  0  0  0  0  0  0  0
   -6.8090   18.9240  -32.6240 C   0  0  0  0  0  0  0  0  0  0  0  0
   -6.6550   18.0410  -31.7380 O   0  0  0  0  0  0  0  0  0  0  0  0
   -6.0410   18.8780  -33.8360 N   0  0  0  0  0  0  0  0  0  0  0  0
   -4.9760   17.9410  -34.0460 C   0  0  0  0  0  0  0  0  0  0  0  0
   -3.6500   18.3940  -33.9760 C   0  0  0  0  0  0  0  0  0  0  0  0
   -2.5830   17.5050  -34.1600 C   0  0  0  0  0  0  0  0  0  0  0  0
   -0.9160   18.0600  -34.0620 S   0  0  0  0  0  0  0  0  0  0  0  0
   -0.0690   16.9630  -33.4830 O   0  0  0  0  0  0  0  0  0  0  0  0
   -0.3810   18.3880  -35.4290 O   0  0  0  0  0  0  0  0  0  0  0  0
   -0.8440   19.4870  -33.0590 N   0  0  0  0  0  0  0  0  0  0  0  0
   -1.1270   20.7980  -33.6500 C   0  0  0  0  0  0  0  0  0  0  0  0
   -2.1130   21.5550  -32.7640 C   0  0  0  0  0  0  0  0  0  0  0  0
   -1.5190   21.7590  -31.3670 C   0  0  0  0  0  0  0  0  0  0  0  0
   -0.9320   20.4890  -30.7970 C   0  0  0  0  0  0  0  0  0  0  0  0
   -0.6700   20.4190  -29.4200 C   0  0  0  0  0  0  0  0  0  0  0  0
   -0.0690   19.2840  -28.8730 C   0  0  0  0  0  0  0  0  0  0  0  0
    0.2970   18.2190  -29.6960 C   0  0  0  0  0  0  0  0  0  0  0  0
    0.0560   18.2810  -31.0700 C   0  0  0  0  0  0  0  0  0  0  0  0
   -0.5680   19.4090  -31.6400 C   0  0  0  0  0  0  0  0  0  0  0  0
   -2.8450   16.1520  -34.4090 C   0  0  0  0  0  0  0  0  0  0  0  0
   -4.1610   15.6880  -34.4580 C   0  0  0  0  0  0  0  0  0  0  0  0
   -5.2300   16.5700  -34.2660 C   0  0  0  0  0  0  0  0  0  0  0  0
   -6.8610   15.9080  -34.2150 Cl  0  0  0  0  0  0  0  0  0  0  0  0
   -7.8490   21.8490  -30.7450 C   0  0  0  0  0  0  0  0  0  0  0  0
   -7.2630   22.9790  -30.1680 C   0  0  0  0  0  0  0  0  0  0  0  0
   -5.1973   24.8368  -27.5755 H   0  0  0  0  0  0  0  0  0  0  0  0
   -4.5153   23.3550  -28.3278 H   0  0  0  0  0  0  0  0  0  0  0  0
   -3.5667   24.8803  -28.3278 H   0  0  0  0  0  0  0  0  0  0  0  0
   -4.5017   23.2478  -32.1663 H   0  0  0  0  0  0  0  0  0  0  0  0
   -5.5389   21.2252  -33.1915 H   0  0  0  0  0  0  0  0  0  0  0  0
   -8.6393   19.6029  -31.7678 H   0  0  0  0  0  0  0  0  0  0  0  0
   -8.2886   20.2314  -33.4195 H   0  0  0  0  0  0  0  0  0  0  0  0
   -6.3720   19.4390  -34.6530 H   0  0  0  0  0  0  0  0  0  0  0  0
   -3.4464   19.4561  -33.7750 H   0  0  0  0  0  0  0  0  0  0  0  0
   -0.1925   21.3724  -33.7320 H   0  0  0  0  0  0  0  0  0  0  0  0
   -1.5636   20.6620  -34.6504 H   0  0  0  0  0  0  0  0  0  0  0  0
   -2.3277   22.5353  -33.2144 H   0  0  0  0  0  0  0  0  0  0  0  0
   -3.0407   20.9703  -32.6780 H   0  0  0  0  0  0  0  0  0  0  0  0
   -0.7252   22.5180  -31.4286 H   0  0  0  0  0  0  0  0  0  0  0  0
   -2.3337   22.0791  -30.7008 H   0  0  0  0  0  0  0  0  0  0  0  0
   -0.9397   21.2631  -28.7682 H   0  0  0  0  0  0  0  0  0  0  0  0
    0.1164   19.2294  -27.7901 H   0  0  0  0  0  0  0  0  0  0  0  0
    0.7762   17.3290  -29.2620 H   0  0  0  0  0  0  0  0  0  0  0  0
    0.3561   17.4412  -31.7139 H   0  0  0  0  0  0  0  0  0  0  0  0
   -2.0110   15.4523  -34.5666 H   0  0  0  0  0  0  0  0  0  0  0  0
   -4.3585   14.6228  -34.6487 H   0  0  0  0  0  0  0  0  0  0  0  0
   -8.7898   21.4514  -30.3366 H   0  0  0  0  0  0  0  0  0  0  0  0
   -7.7449   23.4682  -29.3086 H   0  0  0  0  0  0  0  0  0  0  0  0
  1  2  1  0
  2  3  2  0
  2  4  2  0
  2  5  1  0
  5  6  2  0
  6  7  1  0
  7  8  2  0
  8  9  1  0
  9 10  1  0
 10 11  2  0
 10 12  1  0
 12 13  1  0
 13 14  2  0
 14 15  1  0
 15 16  1  0
 16 17  2  0
 16 18  2  0
 16 19  1  0
 19 20  1  0
 20 21  1  0
 21 22  1  0
 22 23  1  0
 23 24  2  0
 24 25  1  0
 25 26  2  0
 26 27  1  0
 27 28  2  0
 15 29  2  0
 29 30  1  0
 30 31  2  0
 31 32  1  0
  8 33  1  0
 33 34  2  0
 34  5  1  0
 31 13  1  0
 28 19  1  0
 28 23  1  0
  1 35  1  0
  1 36  1  0
  1 37  1  0
  6 38  1  0
  7 39  1  0
  9 40  1  0
  9 41  1  0
 12 42  1  0
 14 43  1  0
 20 44  1  0
 20 45  1  0
 21 46  1  0
 21 47  1  0
 22 48  1  0
 22 49  1  0
 24 50  1  0
 25 51  1  0
 26 52  1  0
 27 53  1  0
 29 54  1  0
 30 55  1  0
 33 56  1  0
 34 57  1  0
M  END
>  <UniqueID>  (1) 
1

>  <SMILES>  (1) 
CS(=O)(=O)c1ccc(CC(=O)Nc2cc(S(=O)(=O)N3CCCc4ccccc43)ccc2Cl)cc1

>  <Energy>  (1) 
64.84173402377877

>  <Genealogy>  (1) 
CS(=O)(=O)c1ccc(CC(=O)Nc2cc(S(=O)(=O)N3CCCc4ccccc43)ccc2Cl)cc1 (3D coordinates assigned)
CS(=O)(=O)c1ccc(CC(=O)Nc2cc(S(=O)(=O)N3CCCc4ccccc43)ccc2Cl)cc1 (nonaromatic ring conformer: 64.84173402377877 kcal/mol)

>  <smiles>  (1) 
CS(=O)(=O)c1ccc(CC(=O)Nc2cc(S(=O)(=O)N3CCCc4ccccc43)ccc2Cl)cc1

>  <score_type>  (1) 
oracle

>  <origin>  (1) 
adgpu

>  <m_score__min__energy>  (1) 
-11.09

>  <m_primary>  (1) 
energy

$$$$
1:0
     RDKit          3D

 47 50  0  0  0  0  0  0  0  0999 V2000
   -3.1680   19.7140  -32.0380 O   0  0  0  0  0  0  0  0  0  0  0  0
   -2.9650   20.4990  -33.0040 C   0  0  0  0  0  0  0  0  0  0  0  0
   -3.9600   21.4790  -33.3550 N   0  0  0  0  0  0  0  0  0  0  0  0
   -5.2540   21.5600  -32.7360 C   0  0  0  0  0  0  0  0  0  0  0  0
   -5.6860   22.7820  -32.2010 C   0  0  0  0  0  0  0  0  0  0  0  0
   -6.9460   22.8900  -31.6060 C   0  0  0  0  0  0  0  0  0  0  0  0
   -7.7950   21.7810  -31.5580 C   0  0  0  0  0  0  0  0  0  0  0  0
   -7.3920   20.5620  -32.1200 C   0  0  0  0  0  0  0  0  0  0  0  0
   -8.4530   19.1580  -32.0630 S   0  0  0  0  0  0  0  0  0  0  0  0
   -9.1060   19.0640  -30.7110 O   0  0  0  0  0  0  0  0  0  0  0  0
   -9.5260   19.3110  -33.1040 O   0  0  0  0  0  0  0  0  0  0  0  0
   -7.5190   17.7210  -32.3930 N   0  0  0  0  0  0  0  0  0  0  0  0
   -6.8680   17.7990  -33.7010 C   0  0  0  0  0  0  0  0  0  0  0  0
   -5.6230   16.9310  -33.6180 C   0  0  0  0  0  0  0  0  0  0  0  0
   -5.3400   16.7710  -32.1320 C   0  0  0  0  0  0  0  0  0  0  0  0
   -6.4330   17.5570  -31.4270 C   0  0  0  0  0  0  0  0  0  0  0  0
   -6.1250   20.4540  -32.7090 C   0  0  0  0  0  0  0  0  0  0  0  0
   -1.6890   20.3930  -33.7550 C   0  0  0  0  0  0  0  0  0  0  0  0
   -1.2300   19.1570  -34.2530 C   0  0  0  0  0  0  0  0  0  0  0  0
   -0.0240   19.0800  -34.9570 C   0  0  0  0  0  0  0  0  0  0  0  0
    0.7310   20.2340  -35.1760 C   0  0  0  0  0  0  0  0  0  0  0  0
    0.2650   21.4730  -34.7210 C   0  0  0  0  0  0  0  0  0  0  0  0
   -0.9320   21.5530  -34.0060 C   0  0  0  0  0  0  0  0  0  0  0  0
    1.0150   22.6220  -34.9940 O   0  0  0  0  0  0  0  0  0  0  0  0
    2.0820   22.5980  -35.9460 C   0  0  0  0  0  0  0  0  0  0  0  0
    2.8580   21.2800  -35.8420 C   0  0  0  0  0  0  0  0  0  0  0  0
    1.9560   20.1720  -35.8500 O   0  0  0  0  0  0  0  0  0  0  0  0
   -3.7290   22.2120  -34.0600 H   0  0  0  0  0  0  0  0  0  0  0  0
   -5.0282   23.6623  -32.2500 H   0  0  0  0  0  0  0  0  0  0  0  0
   -7.2698   23.8489  -31.1750 H   0  0  0  0  0  0  0  0  0  0  0  0
   -8.7813   21.8650  -31.0783 H   0  0  0  0  0  0  0  0  0  0  0  0
   -7.5424   17.4217  -34.4839 H   0  0  0  0  0  0  0  0  0  0  0  0
   -6.6114   18.8380  -33.9554 H   0  0  0  0  0  0  0  0  0  0  0  0
   -5.8056   15.9508  -34.0827 H   0  0  0  0  0  0  0  0  0  0  0  0
   -4.7729   17.3833  -34.1498 H   0  0  0  0  0  0  0  0  0  0  0  0
   -5.3819   15.7102  -31.8441 H   0  0  0  0  0  0  0  0  0  0  0  0
   -4.3368   17.1347  -31.8648 H   0  0  0  0  0  0  0  0  0  0  0  0
   -6.7895   17.0043  -30.5453 H   0  0  0  0  0  0  0  0  0  0  0  0
   -6.0599   18.5319  -31.0802 H   0  0  0  0  0  0  0  0  0  0  0  0
   -5.8088   19.4987  -33.1533 H   0  0  0  0  0  0  0  0  0  0  0  0
   -1.8245   18.2465  -34.0868 H   0  0  0  0  0  0  0  0  0  0  0  0
    0.3297   18.1106  -35.3381 H   0  0  0  0  0  0  0  0  0  0  0  0
   -1.2850   22.5273  -33.6371 H   0  0  0  0  0  0  0  0  0  0  0  0
    1.6662   22.6953  -36.9597 H   0  0  0  0  0  0  0  0  0  0  0  0
    2.7663   23.4336  -35.7377 H   0  0  0  0  0  0  0  0  0  0  0  0
    3.5450   21.1949  -36.6968 H   0  0  0  0  0  0  0  0  0  0  0  0
    3.4261   21.2724  -34.9001 H   0  0  0  0  0  0  0  0  0  0  0  0
  1  2  2  0
  2  3  1  0
  3  4  1  0
  4  5  2  0
  5  6  1  0
  6  7  2  0
  7  8  1  0
  8  9  1  0
  9 10  2  0
  9 11  2  0
  9 12  1  0
 12 13  1  0
 13 14  1  0
 14 15  1  0
 15 16  1  0
  8 17  2  0
  2 18  1  0
 18 19  2  0
 19 20  1  0
 20 21  2  0
 21 22  1  0
 22 23  2  0
 22 24  1  0
 24 25  1  0
 25 26  1  0
 26 27  1  0
 17  4  1  0
 23 18  1  0
 16 12  1  0
 27 21  1  0
  3 28  1  0
  5 29  1  0
  6 30  1  0
  7 31  1  0
 13 32  1  0
 13 33  1  0
 14 34  1  0
 14 35  1  0
 15 36  1  0
 15 37  1  0
 16 38  1  0
 16 39  1  0
 17 40  1  0
 19 41  1  0
 20 42  1  0
 23 43  1  0
 25 44  1  0
 25 45  1  0
 26 46  1  0
 26 47  1  0
M  END
>  <UniqueID>  (2) 
2

>  <SMILES>  (2) 
O=C(Nc1cccc(S(=O)(=O)N2CCCC2)c1)c1ccc2c(c1)OCCO2

>  <Energy>  (2) 
57.908140027017346

>  <Genealogy>  (2) 
O=C(Nc1cccc(S(=O)(=O)N2CCCC2)c1)c1ccc2c(c1)OCCO2 (3D coordinates assigned)
O=C(Nc1cccc(S(=O)(=O)N2CCCC2)c1)c1ccc2c(c1)OCCO2 (nonaromatic ring conformer: 57.908140027017346 kcal/mol)

>  <smiles>  (2) 
O=C(Nc1cccc(S(=O)(=O)N2CCCC2)c1)c1ccc2c(c1)OCCO2

>  <score_type>  (2) 
oracle

>  <origin>  (2) 
adgpu

>  <m_score__min__energy>  (2) 
-9.5099999999999998

>  <m_primary>  (2) 
energy

$$$$
2:0
     RDKit          3D

 82 87  0  0  0  0  0  0  0  0999 V2000
    1.2720   19.3280  -33.7390 O   0  0  0  0  0  0  0  0  0  0  0  0
    0.4870   20.1430  -34.2930 C   0  0  0  0  0  0  0  0  0  0  0  0
    0.9480   20.8420  -35.4560 N   0  0  0  0  0  0  0  0  0  0  0  0
    1.1670   22.2550  -35.5960 C   0  0  0  0  0  0  0  0  0  0  0  0
    0.1350   23.1390  -35.9550 C   0  0  0  0  0  0  0  0  0  0  0  0
    0.4020   24.5020  -36.1260 C   0  0  0  0  0  0  0  0  0  0  0  0
    1.7080   24.9910  -35.9790 C   0  0  0  0  0  0  0  0  0  0  0  0
    2.0590   26.7050  -36.2250 S   0  0  0  0  0  0  0  0  0  0  0  0
    2.7530   26.8820  -37.5470 O   0  0  0  0  0  0  0  0  0  0  0  0
    2.9920   27.1720  -35.1430 O   0  0  0  0  0  0  0  0  0  0  0  0
    0.6110   27.6810  -36.2130 N   0  0  0  0  0  0  0  0  0  0  0  0
   -0.2340   27.3540  -37.3720 C   0  0  0  0  0  0  0  0  0  0  0  0
   -1.5950   28.0780  -37.2770 C   0  0  0  0  0  0  0  0  0  0  0  0
   -1.6170   29.0020  -36.2070 O   0  0  0  0  0  0  0  0  0  0  0  0
   -1.4420   28.3120  -34.9820 C   0  0  0  0  0  0  0  0  0  0  0  0
   -0.1380   27.4810  -34.9640 C   0  0  0  0  0  0  0  0  0  0  0  0
    2.7410   24.1040  -35.6470 C   0  0  0  0  0  0  0  0  0  0  0  0
    2.4690   22.7480  -35.4520 C   0  0  0  0  0  0  0  0  0  0  0  0
   -0.8410   20.4010  -33.6810 C   0  0  0  0  0  0  0  0  0  0  0  0
   -0.9740   21.3960  -32.6970 C   0  0  0  0  0  0  0  0  0  0  0  0
   -2.2170   21.6620  -32.1190 C   0  0  0  0  0  0  0  0  0  0  0  0
   -3.3520   20.9370  -32.5070 C   0  0  0  0  0  0  0  0  0  0  0  0
   -4.6300   21.2080  -31.9070 N   0  0  0  0  0  0  0  0  0  0  0  0
   -5.7230   20.3100  -32.1220 C   0  0  0  0  0  0  0  0  0  0  0  0
   -6.8930   20.7700  -32.7440 C   0  0  0  0  0  0  0  0  0  0  0  0
   -7.9770   19.9050  -32.9270 C   0  0  0  0  0  0  0  0  0  0  0  0
   -7.8960   18.5790  -32.4890 C   0  0  0  0  0  0  0  0  0  0  0  0
   -6.7330   18.1180  -31.8660 C   0  0  0  0  0  0  0  0  0  0  0  0
   -5.6500   18.9820  -31.6800 C   0  0  0  0  0  0  0  0  0  0  0  0
   -4.9150   22.6820  -31.0240 S   0  0  0  0  0  0  0  0  0  0  0  0
   -6.2240   22.5680  -30.2950 O   0  0  0  0  0  0  0  0  0  0  0  0
   -4.9940   23.8440  -31.9740 O   0  0  0  0  0  0  0  0  0  0  0  0
   -3.6330   22.9860  -29.8500 C   0  0  0  0  0  0  0  0  0  0  0  0
   -3.1820   21.9570  -29.0140 C   0  0  0  0  0  0  0  0  0  0  0  0
   -2.1830   22.1950  -28.0630 C   0  0  0  0  0  0  0  0  0  0  0  0
   -1.6420   20.8850  -27.0110 S   0  0  0  0  0  0  0  0  0  0  0  0
   -1.1940   21.4730  -25.7020 O   0  0  0  0  0  0  0  0  0  0  0  0
   -2.8020   19.9670  -26.7420 O   0  0  0  0  0  0  0  0  0  0  0  0
   -0.3270   19.9610  -27.6960 N   0  0  0  0  0  0  0  0  0  0  0  0
   -0.4930   18.5220  -27.4890 C   0  0  0  0  0  0  0  0  0  0  0  0
    0.2740   17.8350  -28.6090 C   0  0  0  0  0  0  0  0  0  0  0  0
    0.4760   18.9030  -29.6760 C   0  0  0  0  0  0  0  0  0  0  0  0
   -0.2340   20.1350  -29.1440 C   0  0  0  0  0  0  0  0  0  0  0  0
   -1.6080   23.4680  -27.9650 C   0  0  0  0  0  0  0  0  0  0  0  0
   -2.0440   24.4980  -28.8020 C   0  0  0  0  0  0  0  0  0  0  0  0
   -3.0570   24.2660  -29.7420 C   0  0  0  0  0  0  0  0  0  0  0  0
   -3.4920   25.3000  -30.5680 O   0  0  0  0  0  0  0  0  0  0  0  0
   -3.2310   19.9660  -33.5160 C   0  0  0  0  0  0  0  0  0  0  0  0
   -1.9870   19.7030  -34.0990 C   0  0  0  0  0  0  0  0  0  0  0  0
   -0.8864   22.7580  -36.1021 H   0  0  0  0  0  0  0  0  0  0  0  0
   -0.4163   25.1929  -36.3769 H   0  0  0  0  0  0  0  0  0  0  0  0
    0.2788   27.6685  -38.2929 H   0  0  0  0  0  0  0  0  0  0  0  0
   -0.4111   26.2684  -37.3855 H   0  0  0  0  0  0  0  0  0  0  0  0
   -1.7798   28.6166  -38.2182 H   0  0  0  0  0  0  0  0  0  0  0  0
   -2.3753   27.3237  -37.0976 H   0  0  0  0  0  0  0  0  0  0  0  0
   -1.4063   29.0459  -34.1634 H   0  0  0  0  0  0  0  0  0  0  0  0
   -2.2873   27.6188  -34.8597 H   0  0  0  0  0  0  0  0  0  0  0  0
    0.4831   27.7986  -34.1135 H   0  0  0  0  0  0  0  0  0  0  0  0
   -0.3937   26.4156  -34.8665 H   0  0  0  0  0  0  0  0  0  0  0  0
    3.7701   24.4772  -35.5396 H   0  0  0  0  0  0  0  0  0  0  0  0
    3.2852   22.0615  -35.1829 H   0  0  0  0  0  0  0  0  0  0  0  0
   -0.0911   21.9702  -32.3795 H   0  0  0  0  0  0  0  0  0  0  0  0
   -2.3061   22.4466  -31.3532 H   0  0  0  0  0  0  0  0  0  0  0  0
   -6.9582   21.8126  -33.0884 H   0  0  0  0  0  0  0  0  0  0  0  0
   -8.8934   20.2677  -33.4155 H   0  0  0  0  0  0  0  0  0  0  0  0
   -8.7481   17.8988  -32.6350 H   0  0  0  0  0  0  0  0  0  0  0  0
   -6.6699   17.0751  -31.5220 H   0  0  0  0  0  0  0  0  0  0  0  0
   -4.7374   18.6184  -31.1851 H   0  0  0  0  0  0  0  0  0  0  0  0
   -3.6175   20.9510  -29.1057 H   0  0  0  0  0  0  0  0  0  0  0  0
   -0.0828   18.2286  -26.5114 H   0  0  0  0  0  0  0  0  0  0  0  0
   -1.5555   18.2376  -27.5009 H   0  0  0  0  0  0  0  0  0  0  0  0
    1.2444   17.4689  -28.2425 H   0  0  0  0  0  0  0  0  0  0  0  0
   -0.2693   16.9627  -29.0014 H   0  0  0  0  0  0  0  0  0  0  0  0
    1.5473   19.1070  -29.8199 H   0  0  0  0  0  0  0  0  0  0  0  0
    0.0794   18.5891  -30.6528 H   0  0  0  0  0  0  0  0  0  0  0  0
    0.3435   21.0403  -29.3826 H   0  0  0  0  0  0  0  0  0  0  0  0
   -1.2294   20.2502  -29.5978 H   0  0  0  0  0  0  0  0  0  0  0  0
   -0.8128   23.6570  -27.2288 H   0  0  0  0  0  0  0  0  0  0  0  0
   -1.5896   25.4966  -28.7227 H   0  0  0  0  0  0  0  0  0  0  0  0
   -3.4220   25.2380  -31.5780 H   0  0  0  0  0  0  0  0  0  0  0  0
   -4.1196   19.4098  -33.8491 H   0  0  0  0  0  0  0  0  0  0  0  0
   -1.9050   18.9439  -34.8909 H   0  0  0  0  0  0  0  0  0  0  0  0
  1  2  2  0
  2  3  1  0
  3  4  1  0
  4  5  2  0
  5  6  1  0
  6  7  2  0
  7  8  1  0
  8  9  2  0
  8 10  2  0
  8 11  1  0
 11 12  1  0
 12 13  1  0
 13 14  1  0
 14 15  1  0
 15 16  1  0
  7 17  1  0
 17 18  2  0
  2 19  1  0
 19 20  2  0
 20 21  1  0
 21 22  2  0
 22 23  1  0
 23 24  1  0
 24 25  2  0
 25 26  1  0
 26 27  2  0
 27 28  1  0
 28 29  2  0
 23 30  1  0
 30 31  2  0
 30 32  2  0
 30 33  1  0
 33 34  2  0
 34 35  1  0
 35 36  1  0
 36 37  2  0
 36 38  2  0
 36 39  1  0
 39 40  1  0
 40 41  1  0
 41 42  1  0
 42 43  1  0
 35 44  2  0
 44 45  1  0
 45 46  2  0
 46 47  1  0
 22 48  1  0
 48 49  2  0
 18  4  1  0
 49 19  1  0
 16 11  1  0
 29 24  1  0
 46 33  1  0
 43 39  1  0
  5 50  1  0
  6 51  1  0
 12 52  1  0
 12 53  1  0
 13 54  1  0
 13 55  1  0
 15 56  1  0
 15 57  1  0
 16 58  1  0
 16 59  1  0
 17 60  1  0
 18 61  1  0
 20 62  1  0
 21 63  1  0
 25 64  1  0
 26 65  1  0
 27 66  1  0
 28 67  1  0
 29 68  1  0
 34 69  1  0
 40 70  1  0
 40 71  1  0
 41 72  1  0
 41 73  1  0
 42 74  1  0
 42 75  1  0
 43 76  1  0
 43 77  1  0
 44 78  1  0
 45 79  1  0
 47 80  1  0
 48 81  1  0
 49 82  1  0
M  CHG  1   3  -1
M  END
>  <UniqueID>  (3) 
3

>  <SMILES>  (3) 
O=C([N-]c1ccc(S(=O)(=O)N2CCOCC2)cc1)c1ccc(N(c2ccccc2)S(=O)(=O)c2cc(S(=O)(=O)N3CCCC3)ccc2O)cc1

>  <Energy>  (3) 
114.10773652445366

>  <Genealogy>  (3) 
O=C([N-]c1ccc(S(=O)(=O)N2CCOCC2)cc1)c1ccc(N(c2ccccc2)S(=O)(=O)c2cc(S(=O)(=O)N3CCCC3)ccc2O)cc1 (protonated)
O=C([N-]c1ccc(S(=O)(=O)N2CCOCC2)cc1)c1ccc(N(c2ccccc2)S(=O)(=O)c2cc(S(=O)(=O)N3CCCC3)ccc2O)cc1 (3D coordinates assigned)
O=C([N-]c1ccc(S(=O)(=O)N2CCOCC2)cc1)c1ccc(N(c2ccccc2)S(=O)(=O)c2cc(S(=O)(=O)N3CCCC3)ccc2O)cc1 (nonaromatic ring conformer: 114.10773652445366 kcal/mol)

>  <smiles>  (3) 
O=C(Nc1ccc(S(=O)(=O)N2CCOCC2)cc1)c1ccc(N(c2ccccc2)S(=O)(=O)c2cc(S(=O)(=O)N3CCCC3)ccc2O)cc1

>  <score_type>  (3) 
oracle

>  <origin>  (3) 
adgpu

>  <m_score__min__energy>  (3) 
-14.460000000000001

>  <m_primary>  (3) 
energy

$$$$
3:0
     RDKit          3D

 54 57  0  0  0  0  0  0  0  0999 V2000
   -9.4260   22.5740  -31.9460 C   0  0  0  0  0  0  0  0  0  0  0  0
   -8.0840   21.9650  -32.0110 N   0  0  0  0  0  0  0  0  0  0  0  0
   -7.9380   20.7090  -32.5450 C   0  0  0  0  0  0  0  0  0  0  0  0
   -8.9460   20.0520  -32.9470 O   0  0  0  0  0  0  0  0  0  0  0  0
   -6.6710   20.1320  -32.6570 C   0  0  0  0  0  0  0  0  0  0  0  0
   -6.5790   18.9700  -33.1530 O   0  0  0  0  0  0  0  0  0  0  0  0
   -5.5490   20.8120  -32.2400 N   0  0  0  0  0  0  0  0  0  0  0  0
   -4.2100   20.1960  -32.4020 C   0  0  0  0  0  0  0  0  0  0  0  0
   -5.6810   22.0710  -31.6880 C   0  0  0  0  0  0  0  0  0  0  0  0
   -4.5510   22.8150  -31.2660 C   0  0  0  0  0  0  0  0  0  0  0  0
   -4.6850   24.1040  -30.7390 C   0  0  0  0  0  0  0  0  0  0  0  0
   -3.5400   24.9220  -30.4720 N   0  0  0  0  0  0  0  0  0  0  0  0
   -2.3630   24.5680  -29.2540 S   0  0  0  0  0  0  0  0  0  0  0  0
   -1.2370   25.5690  -29.3370 O   0  0  0  0  0  0  0  0  0  0  0  0
   -3.0230   24.6590  -27.8990 O   0  0  0  0  0  0  0  0  0  0  0  0
   -1.7070   22.9510  -29.5240 C   0  0  0  0  0  0  0  0  0  0  0  0
   -1.6370   22.0220  -28.4710 C   0  0  0  0  0  0  0  0  0  0  0  0
   -1.2100   20.7120  -28.7140 C   0  0  0  0  0  0  0  0  0  0  0  0
   -0.8720   20.3180  -30.0100 C   0  0  0  0  0  0  0  0  0  0  0  0
   -0.9390   21.2420  -31.0690 C   0  0  0  0  0  0  0  0  0  0  0  0
   -0.5800   20.7440  -32.7190 S   0  0  0  0  0  0  0  0  0  0  0  0
    0.6190   21.5090  -33.2030 O   0  0  0  0  0  0  0  0  0  0  0  0
   -1.7410   21.0950  -33.6070 O   0  0  0  0  0  0  0  0  0  0  0  0
   -0.2650   19.0230  -32.8280 N   0  0  0  0  0  0  0  0  0  0  0  0
    0.2960   18.6630  -34.1380 C   0  0  0  0  0  0  0  0  0  0  0  0
   -0.8410   18.1450  -35.0050 C   0  0  0  0  0  0  0  0  0  0  0  0
   -1.9880   17.8420  -34.0570 C   0  0  0  0  0  0  0  0  0  0  0  0
   -1.4950   18.2340  -32.6690 C   0  0  0  0  0  0  0  0  0  0  0  0
   -1.3290   22.5630  -30.8140 C   0  0  0  0  0  0  0  0  0  0  0  0
   -5.9570   24.6310  -30.5410 C   0  0  0  0  0  0  0  0  0  0  0  0
   -7.0890   23.9220  -30.9450 C   0  0  0  0  0  0  0  0  0  0  0  0
   -6.9760   22.6480  -31.5510 C   0  0  0  0  0  0  0  0  0  0  0  0
   -9.7180   22.7065  -30.8938 H   0  0  0  0  0  0  0  0  0  0  0  0
   -9.4092   23.5527  -32.4479 H   0  0  0  0  0  0  0  0  0  0  0  0
  -10.1515   21.9169  -32.4479 H   0  0  0  0  0  0  0  0  0  0  0  0
   -3.7760   19.9963  -31.4112 H   0  0  0  0  0  0  0  0  0  0  0  0
   -4.3057   19.2514  -32.9575 H   0  0  0  0  0  0  0  0  0  0  0  0
   -3.5550   20.8833  -32.9575 H   0  0  0  0  0  0  0  0  0  0  0  0
   -3.5488   22.3702  -31.3546 H   0  0  0  0  0  0  0  0  0  0  0  0
   -1.9190   22.3263  -27.4522 H   0  0  0  0  0  0  0  0  0  0  0  0
   -1.1406   19.9929  -27.8845 H   0  0  0  0  0  0  0  0  0  0  0  0
   -0.5527   19.2833  -30.2036 H   0  0  0  0  0  0  0  0  0  0  0  0
    0.4150   18.7760  -32.0710 H   0  0  0  0  0  0  0  0  0  0  0  0
    0.7502   19.5485  -34.6066 H   0  0  0  0  0  0  0  0  0  0  0  0
    1.0735   17.8932  -34.0243 H   0  0  0  0  0  0  0  0  0  0  0  0
   -1.1420   18.9092  -35.7367 H   0  0  0  0  0  0  0  0  0  0  0  0
   -0.5401   17.2511  -35.5710 H   0  0  0  0  0  0  0  0  0  0  0  0
   -2.8756   18.4321  -34.3289 H   0  0  0  0  0  0  0  0  0  0  0  0
   -2.2782   16.7818  -34.0988 H   0  0  0  0  0  0  0  0  0  0  0  0
   -2.2606   18.8358  -32.1574 H   0  0  0  0  0  0  0  0  0  0  0  0
   -1.2963   17.3351  -32.0669 H   0  0  0  0  0  0  0  0  0  0  0  0
   -1.3381   23.2987  -31.6317 H   0  0  0  0  0  0  0  0  0  0  0  0
   -6.0715   25.6146  -30.0621 H   0  0  0  0  0  0  0  0  0  0  0  0
   -8.0858   24.3606  -30.7899 H   0  0  0  0  0  0  0  0  0  0  0  0
  1  2  1  0
  2  3  1  0
  3  4  2  0
  3  5  1  0
  5  6  2  0
  5  7  1  0
  7  8  1  0
  7  9  1  0
  9 10  2  0
 10 11  1  0
 11 12  1  0
 12 13  1  0
 13 14  2  0
 13 15  2  0
 13 16  1  0
 16 17  2  0
 17 18  1  0
 18 19  2  0
 19 20  1  0
 20 21  1  0
 21 22  2  0
 21 23  2  0
 21 24  1  0
 24 25  1  0
 25 26  1  0
 26 27  1  0
 27 28  1  0
 20 29  2  0
 11 30  2  0
 30 31  1  0
 31 32  2  0
 32  2  1  0
 32  9  1  0
 29 16  1  0
 28 24  1  0
  1 33  1  0
  1 34  1  0
  1 35  1  0
  8 36  1  0
  8 37  1  0
  8 38  1  0
 10 39  1  0
 17 40  1  0
 18 41  1  0
 19 42  1  0
 24 43  1  0
 25 44  1  0
 25 45  1  0
 26 46  1  0
 26 47  1  0
 27 48  1  0
 27 49  1  0
 28 50  1  0
 28 51  1  0
 29 52  1  0
 30 53  1  0
 31 54  1  0
M  CHG  2  12  -1  24   1
M  END
>  <UniqueID>  (4) 
4

>  <SMILES>  (4) 
Cn1c(=O)c(=O)n(C)c2cc([N-]S(=O)(=O)c3cccc(S(=O)(=O)[NH+]4CCCC4)c3)ccc21

>  <Energy>  (4) 
78.03380046585154

>  <Genealogy>  (4) 
Cn1c(=O)c(=O)n(C)c2cc([N-]S(=O)(=O)c3cccc(S(=O)(=O)[NH+]4CCCC4)c3)ccc21 (protonated)
Cn1c(=O)c(=O)n(C)c2cc([N-]S(=O)(=O)c3cccc(S(=O)(=O)[NH+]4CCCC4)c3)ccc21 (3D coordinates assigned)
Cn1c(=O)c(=O)n(C)c2cc([N-]S(=O)(=O)c3cccc(S(=O)(=O)[NH+]4CCCC4)c3)ccc21 (nonaromatic ring conformer: 78.03380046585154 kcal/mol)

>  <smiles>  (4) 
Cn1c(=O)c(=O)n(C)c2cc(NS(=O)(=O)c3cccc(S(=O)(=O)N4CCCC4)c3)ccc21

>  <score_type>  (4) 
oracle

>  <origin>  (4) 
adgpu

>  <m_score__min__energy>  (4) 
-10.949999999999999

>  <m_primary>  (4) 
energy

$$$$
4:0
     RDKit          3D

 53 56  0  0  0  0  0  0  0  0999 V2000
   -3.9510   23.0460  -31.7130 O   0  0  0  0  0  0  0  0  0  0  0  0
   -3.0340   22.4770  -31.0580 C   0  0  0  0  0  0  0  0  0  0  0  0
   -2.5800   21.1710  -31.4540 N   0  0  0  0  0  0  0  0  0  0  0  0
   -3.3170   20.3340  -32.3600 C   0  0  0  0  0  0  0  0  0  0  0  0
   -4.6540   20.0020  -32.0670 C   0  0  0  0  0  0  0  0  0  0  0  0
   -5.3610   19.1000  -32.8710 C   0  0  0  0  0  0  0  0  0  0  0  0
   -7.0470   18.7080  -32.5020 S   0  0  0  0  0  0  0  0  0  0  0  0
   -7.1260   18.1340  -31.1170 O   0  0  0  0  0  0  0  0  0  0  0  0
   -7.5310   17.6620  -33.4640 O   0  0  0  0  0  0  0  0  0  0  0  0
   -8.1010   20.1010  -32.5870 N   0  0  0  0  0  0  0  0  0  0  0  0
   -7.3700   21.3570  -32.4270 C   0  0  0  0  0  0  0  0  0  0  0  0
   -8.3930   22.3750  -31.9550 C   0  0  0  0  0  0  0  0  0  0  0  0
   -9.4650   21.5550  -31.2470 C   0  0  0  0  0  0  0  0  0  0  0  0
   -9.1170   20.0980  -31.5290 C   0  0  0  0  0  0  0  0  0  0  0  0
   -4.7170   18.4970  -33.9570 C   0  0  0  0  0  0  0  0  0  0  0  0
   -3.3960   18.8260  -34.2650 C   0  0  0  0  0  0  0  0  0  0  0  0
   -2.6810   19.7500  -33.4800 C   0  0  0  0  0  0  0  0  0  0  0  0
   -1.3390   20.1200  -33.8510 N   0  0  0  0  0  0  0  0  0  0  0  0
   -0.4030   19.2070  -34.4850 C   0  0  0  0  0  0  0  0  0  0  0  0
    0.8630   20.0230  -34.7080 C   0  0  0  0  0  0  0  0  0  0  0  0
    0.4010   21.4760  -34.7380 C   0  0  0  0  0  0  0  0  0  0  0  0
   -0.8710   21.5040  -33.8980 C   0  0  0  0  0  0  0  0  0  0  0  0
   -2.4780   23.1540  -29.8640 C   0  0  0  0  0  0  0  0  0  0  0  0
   -1.7410   22.3920  -28.9350 C   0  0  0  0  0  0  0  0  0  0  0  0
   -1.1800   23.0030  -27.8140 C   0  0  0  0  0  0  0  0  0  0  0  0
   -1.3660   24.3680  -27.5870 C   0  0  0  0  0  0  0  0  0  0  0  0
   -2.1240   25.1240  -28.4770 C   0  0  0  0  0  0  0  0  0  0  0  0
   -2.6890   24.5280  -29.6090 C   0  0  0  0  0  0  0  0  0  0  0  0
   -3.4840   25.3000  -30.4450 O   0  0  0  0  0  0  0  0  0  0  0  0
   -1.7330   20.7520  -31.0000 H   0  0  0  0  0  0  0  0  0  0  0  0
   -5.1486   20.4568  -31.1961 H   0  0  0  0  0  0  0  0  0  0  0  0
   -6.5710   21.2424  -31.6797 H   0  0  0  0  0  0  0  0  0  0  0  0
   -6.8924   21.6696  -33.3673 H   0  0  0  0  0  0  0  0  0  0  0  0
   -7.9326   23.0925  -31.2599 H   0  0  0  0  0  0  0  0  0  0  0  0
   -8.8050   22.9643  -32.7874 H   0  0  0  0  0  0  0  0  0  0  0  0
   -9.4472   21.7518  -30.1649 H   0  0  0  0  0  0  0  0  0  0  0  0
  -10.4743   21.8094  -31.6029 H   0  0  0  0  0  0  0  0  0  0  0  0
   -8.7171   19.6219  -30.6216 H   0  0  0  0  0  0  0  0  0  0  0  0
  -10.0081   19.5328  -31.8397 H   0  0  0  0  0  0  0  0  0  0  0  0
   -5.2546   17.7597  -34.5713 H   0  0  0  0  0  0  0  0  0  0  0  0
   -2.9076   18.3573  -35.1321 H   0  0  0  0  0  0  0  0  0  0  0  0
   -0.1977   18.3482  -33.8290 H   0  0  0  0  0  0  0  0  0  0  0  0
   -0.8003   18.7996  -35.4264 H   0  0  0  0  0  0  0  0  0  0  0  0
    1.5759   19.8616  -33.8860 H   0  0  0  0  0  0  0  0  0  0  0  0
    1.3793   19.7361  -35.6360 H   0  0  0  0  0  0  0  0  0  0  0  0
    1.1668   22.1341  -34.3017 H   0  0  0  0  0  0  0  0  0  0  0  0
    0.2262   21.8325  -35.7638 H   0  0  0  0  0  0  0  0  0  0  0  0
   -0.6540   21.8710  -32.8840 H   0  0  0  0  0  0  0  0  0  0  0  0
   -1.6285   22.1764  -34.3271 H   0  0  0  0  0  0  0  0  0  0  0  0
   -1.6079   21.3118  -29.0948 H   0  0  0  0  0  0  0  0  0  0  0  0
   -0.5877   22.4063  -27.1047 H   0  0  0  0  0  0  0  0  0  0  0  0
   -0.9139   24.8459  -26.7054 H   0  0  0  0  0  0  0  0  0  0  0  0
   -2.2794   26.1966  -28.2887 H   0  0  0  0  0  0  0  0  0  0  0  0
  1  2  2  0
  2  3  1  0
  3  4  1  0
  4  5  2  0
  5  6  1  0
  6  7  1  0
  7  8  2  0
  7  9  2  0
  7 10  1  0
 10 11  1  0
 11 12  1  0
 12 13  1  0
 13 14  1  0
  6 15  2  0
 15 16  1  0
 16 17  2  0
 17 18  1  0
 18 19  1  0
 19 20  1  0
 20 21  1  0
 21 22  1  0
  2 23  1  0
 23 24  2  0
 24 25  1  0
 25 26  2  0
 26 27  1  0
 27 28  2  0
 28 29  1  0
 17  4  1  0
 22 18  1  0
 28 23  1  0
 14 10  1  0
  3 30  1  0
  5 31  1  0
 11 32  1  0
 11 33  1  0
 12 34  1  0
 12 35  1  0
 13 36  1  0
 13 37  1  0
 14 38  1  0
 14 39  1  0
 15 40  1  0
 16 41  1  0
 19 42  1  0
 19 43  1  0
 20 44  1  0
 20 45  1  0
 21 46  1  0
 21 47  1  0
 22 48  1  0
 22 49  1  0
 24 50  1  0
 25 51  1  0
 26 52  1  0
 27 53  1  0
M  CHG  1  29  -1
M  END
>  <UniqueID>  (5) 
5

>  <SMILES>  (5) 
O=C(Nc1cc(S(=O)(=O)N2CCCC2)ccc1N1CCCC1)c1ccccc1[O-]

>  <Energy>  (5) 
70.6502131922403

>  <Genealogy>  (5) 
O=C(Nc1cc(S(=O)(=O)N2CCCC2)ccc1N1CCCC1)c1ccccc1[O-] (protonated)
O=C(Nc1cc(S(=O)(=O)N2CCCC2)ccc1N1CCCC1)c1ccccc1[O-] (3D coordinates assigned)
O=C(Nc1cc(S(=O)(=O)N2CCCC2)ccc1N1CCCC1)c1ccccc1[O-] (nonaromatic ring conformer: 70.6502131922403 kcal/mol)

>  <smiles>  (5) 
O=C(Nc1cc(S(=O)(=O)N2CCCC2)ccc1N1CCCC1)c1ccccc1O

>  <score_type>  (5) 
oracle

>  <origin>  (5) 
adgpu

>  <m_score__min__energy>  (5) 
-12.33

>  <m_primary>  (5) 
energy

$$$$
5:0
     RDKit          3D

 46 49  0  0  0  0  0  0  0  0999 V2000
   -1.1360   19.4300  -27.9710 C   0  0  0  0  0  0  0  0  0  0  0  0
   -1.9580   20.0940  -26.9440 N   0  0  0  0  0  0  0  0  0  0  0  0
   -1.1530   20.8490  -25.9670 C   0  0  0  0  0  0  0  0  0  0  0  0
   -0.4300   22.0490  -26.5980 C   0  0  0  0  0  0  0  0  0  0  0  0
   -1.3140   22.8220  -27.5400 C   0  0  0  0  0  0  0  0  0  0  0  0
   -0.9010   24.0870  -27.9840 C   0  0  0  0  0  0  0  0  0  0  0  0
   -1.6660   24.7970  -28.9140 C   0  0  0  0  0  0  0  0  0  0  0  0
   -1.2360   26.0500  -29.3380 O   0  0  0  0  0  0  0  0  0  0  0  0
   -2.8520   24.2510  -29.4210 C   0  0  0  0  0  0  0  0  0  0  0  0
   -3.6040   25.0030  -30.3860 N   0  0  0  0  0  0  0  0  0  0  0  0
   -5.3330   25.1490  -30.4170 S   0  0  0  0  0  0  0  0  0  0  0  0
   -5.8380   25.3420  -29.0160 O   0  0  0  0  0  0  0  0  0  0  0  0
   -5.7160   26.3510  -31.2360 O   0  0  0  0  0  0  0  0  0  0  0  0
   -6.0370   23.6730  -31.0750 C   0  0  0  0  0  0  0  0  0  0  0  0
   -7.4060   23.4150  -30.9500 C   0  0  0  0  0  0  0  0  0  0  0  0
   -7.9580   22.2640  -31.5120 C   0  0  0  0  0  0  0  0  0  0  0  0
   -7.1430   21.3490  -32.1960 C   0  0  0  0  0  0  0  0  0  0  0  0
   -7.7180   20.2110  -32.7780 C   0  0  0  0  0  0  0  0  0  0  0  0
   -6.9250   19.3020  -33.4690 C   0  0  0  0  0  0  0  0  0  0  0  0
   -5.5470   19.4980  -33.5770 C   0  0  0  0  0  0  0  0  0  0  0  0
   -4.7920   18.5410  -34.2490 O   0  0  0  0  0  0  0  0  0  0  0  0
   -4.9330   20.6330  -33.0000 C   0  0  0  0  0  0  0  0  0  0  0  0
   -3.4570   20.7920  -33.0960 C   0  0  0  0  0  0  0  0  0  0  0  0
   -2.9410   21.8780  -33.4720 O   0  0  0  0  0  0  0  0  0  0  0  0
   -5.7440   21.5780  -32.3090 C   0  0  0  0  0  0  0  0  0  0  0  0
   -5.2140   22.7640  -31.7520 C   0  0  0  0  0  0  0  0  0  0  0  0
   -3.2680   22.9820  -28.9790 C   0  0  0  0  0  0  0  0  0  0  0  0
   -2.5000   22.2590  -28.0530 C   0  0  0  0  0  0  0  0  0  0  0  0
   -3.0160   20.9320  -27.5410 C   0  0  0  0  0  0  0  0  0  0  0  0
   -0.3692   18.8106  -27.4828 H   0  0  0  0  0  0  0  0  0  0  0  0
   -1.7770   18.7932  -28.5984 H   0  0  0  0  0  0  0  0  0  0  0  0
   -0.6482   20.1905  -28.5984 H   0  0  0  0  0  0  0  0  0  0  0  0
   -1.8181   21.2169  -25.1718 H   0  0  0  0  0  0  0  0  0  0  0  0
   -0.3851   20.1681  -25.5712 H   0  0  0  0  0  0  0  0  0  0  0  0
   -0.0959   22.7222  -25.7948 H   0  0  0  0  0  0  0  0  0  0  0  0
    0.4198   21.6607  -27.1786 H   0  0  0  0  0  0  0  0  0  0  0  0
    0.0318   24.5235  -27.5975 H   0  0  0  0  0  0  0  0  0  0  0  0
   -8.0496   24.1224  -30.4065 H   0  0  0  0  0  0  0  0  0  0  0  0
   -9.0372   22.0726  -31.4186 H   0  0  0  0  0  0  0  0  0  0  0  0
   -8.8003   20.0365  -32.6877 H   0  0  0  0  0  0  0  0  0  0  0  0
   -7.3878   18.4197  -33.9352 H   0  0  0  0  0  0  0  0  0  0  0  0
   -2.8044   19.9461  -32.8340 H   0  0  0  0  0  0  0  0  0  0  0  0
   -4.1393   22.9763  -31.8517 H   0  0  0  0  0  0  0  0  0  0  0  0
   -4.2048   22.5519  -29.3630 H   0  0  0  0  0  0  0  0  0  0  0  0
   -3.7832   21.1254  -26.7768 H   0  0  0  0  0  0  0  0  0  0  0  0
   -3.4241   20.3829  -28.4024 H   0  0  0  0  0  0  0  0  0  0  0  0
  1  2  1  0
  2  3  1  0
  3  4  1  0
  4  5  1  0
  5  6  2  0
  6  7  1  0
  7  8  1  0
  7  9  2  0
  9 10  1  0
 10 11  1  0
 11 12  2  0
 11 13  2  0
 11 14  1  0
 14 15  2  0
 15 16  1  0
 16 17  2  0
 17 18  1  0
 18 19  2  0
 19 20  1  0
 20 21  1  0
 20 22  2  0
 22 23  1  0
 23 24  2  0
 22 25  1  0
 25 26  2  0
  9 27  1  0
 27 28  2  0
 28 29  1  0
 29  2  1  0
 28  5  1  0
 26 14  1  0
 25 17  1  0
  1 30  1  0
  1 31  1  0
  1 32  1  0
  3 33  1  0
  3 34  1  0
  4 35  1  0
  4 36  1  0
  6 37  1  0
 15 38  1  0
 16 39  1  0
 18 40  1  0
 19 41  1  0
 23 42  1  0
 26 43  1  0
 27 44  1  0
 29 45  1  0
 29 46  1  0
M  CHG  3   8  -1  10  -1  21  -1
M  END
>  <UniqueID>  (6) 
6

>  <SMILES>  (6) 
CN1CCc2cc([O-])c([N-]S(=O)(=O)c3ccc4ccc([O-])c(C=O)c4c3)cc2C1

>  <Energy>  (6) 
67.92230920677888

>  <Genealogy>  (6) 
CN1CCc2cc([O-])c([N-]S(=O)(=O)c3ccc4ccc([O-])c(C=O)c4c3)cc2C1 (protonated)
CN1CCc2cc([O-])c([N-]S(=O)(=O)c3ccc4ccc([O-])c(C=O)c4c3)cc2C1 (3D coordinates assigned)
CN1CCc2cc([O-])c([N-]S(=O)(=O)c3ccc4ccc([O-])c(C=O)c4c3)cc2C1 (nonaromatic ring conformer: 67.92230920677888 kcal/mol)

>  <smiles>  (6) 
CN1CCc2cc(O)c(NS(=O)(=O)c3ccc4ccc(O)c(C=O)c4c3)cc2C1

>  <score_type>  (6) 
oracle

>  <origin>  (6) 
adgpu

>  <m_score__min__energy>  (6) 
-14.76

>  <m_primary>  (6) 
energy

$$$$
6:0
     RDKit          3D

 55 58  0  0  0  0  0  0  0  0999 V2000
   -3.1730   22.0840  -32.4960 O   0  0  0  0  0  0  0  0  0  0  0  0
   -3.3180   22.8910  -31.5390 C   0  0  0  0  0  0  0  0  0  0  0  0
   -2.1830   23.2710  -30.7500 N   0  0  0  0  0  0  0  0  0  0  0  0
   -1.9990   23.0560  -29.3420 C   0  0  0  0  0  0  0  0  0  0  0  0
   -1.9400   21.7600  -28.7970 C   0  0  0  0  0  0  0  0  0  0  0  0
   -1.7850   21.5720  -27.4180 C   0  0  0  0  0  0  0  0  0  0  0  0
   -1.7930   19.9390  -26.7570 S   0  0  0  0  0  0  0  0  0  0  0  0
   -2.9470   19.1540  -27.3150 O   0  0  0  0  0  0  0  0  0  0  0  0
   -1.9450   20.0330  -25.2670 O   0  0  0  0  0  0  0  0  0  0  0  0
   -0.3050   19.1070  -27.1020 N   0  0  0  0  0  0  0  0  0  0  0  0
    0.1740   18.8160  -28.2760 C   0  0  0  0  0  0  0  0  0  0  0  0
   -0.4850   19.1600  -29.4740 C   0  0  0  0  0  0  0  0  0  0  0  0
    0.0920   18.8160  -30.6980 C   0  0  0  0  0  0  0  0  0  0  0  0
    1.3160   18.1450  -30.7270 C   0  0  0  0  0  0  0  0  0  0  0  0
    1.9450   17.8240  -29.5260 C   0  0  0  0  0  0  0  0  0  0  0  0
    1.3660   18.1620  -28.3430 N   0  0  0  0  0  0  0  0  0  0  0  0
   -1.6650   22.6850  -26.5780 C   0  0  0  0  0  0  0  0  0  0  0  0
   -1.6790   23.9730  -27.1150 C   0  0  0  0  0  0  0  0  0  0  0  0
   -1.8430   24.1670  -28.4910 C   0  0  0  0  0  0  0  0  0  0  0  0
   -1.8650   25.4710  -28.9880 O   0  0  0  0  0  0  0  0  0  0  0  0
   -4.6770   23.3930  -31.2000 C   0  0  0  0  0  0  0  0  0  0  0  0
   -5.7850   22.5290  -31.3250 C   0  0  0  0  0  0  0  0  0  0  0  0
   -7.0740   22.9550  -30.9770 C   0  0  0  0  0  0  0  0  0  0  0  0
   -8.4440   21.8510  -31.1160 S   0  0  0  0  0  0  0  0  0  0  0  0
   -9.1930   21.8300  -29.8130 O   0  0  0  0  0  0  0  0  0  0  0  0
   -9.3790   22.3590  -32.1790 O   0  0  0  0  0  0  0  0  0  0  0  0
   -7.9380   20.2250  -31.5050 N   0  0  0  0  0  0  0  0  0  0  0  0
   -7.2120   20.2040  -32.7840 C   0  0  0  0  0  0  0  0  0  0  0  0
   -6.8590   18.7540  -33.1790 C   0  0  0  0  0  0  0  0  0  0  0  0
   -7.2490   17.8330  -32.1800 O   0  0  0  0  0  0  0  0  0  0  0  0
   -8.6500   17.9060  -31.9860 C   0  0  0  0  0  0  0  0  0  0  0  0
   -9.0970   19.3230  -31.5670 C   0  0  0  0  0  0  0  0  0  0  0  0
   -7.2670   24.2580  -30.5080 C   0  0  0  0  0  0  0  0  0  0  0  0
   -6.1840   25.1290  -30.3900 C   0  0  0  0  0  0  0  0  0  0  0  0
   -4.8970   24.7110  -30.7330 C   0  0  0  0  0  0  0  0  0  0  0  0
   -3.8520   25.6190  -30.6080 O   0  0  0  0  0  0  0  0  0  0  0  0
   -2.0164   20.8861  -29.4606 H   0  0  0  0  0  0  0  0  0  0  0  0
   -1.4457   19.6949  -29.4446 H   0  0  0  0  0  0  0  0  0  0  0  0
   -0.4172   19.0734  -31.6385 H   0  0  0  0  0  0  0  0  0  0  0  0
    1.7785   17.8729  -31.6872 H   0  0  0  0  0  0  0  0  0  0  0  0
    2.9104   17.2969  -29.5348 H   0  0  0  0  0  0  0  0  0  0  0  0
   -1.5594   22.5442  -25.4922 H   0  0  0  0  0  0  0  0  0  0  0  0
   -1.5602   24.8423  -26.4515 H   0  0  0  0  0  0  0  0  0  0  0  0
   -2.0390   25.6780  -29.9640 H   0  0  0  0  0  0  0  0  0  0  0  0
   -5.6352   21.5062  -31.7010 H   0  0  0  0  0  0  0  0  0  0  0  0
   -7.8438   20.6492  -33.5667 H   0  0  0  0  0  0  0  0  0  0  0  0
   -6.2816   20.7807  -32.6755 H   0  0  0  0  0  0  0  0  0  0  0  0
   -7.3762   18.5035  -34.1170 H   0  0  0  0  0  0  0  0  0  0  0  0
   -5.7680   18.6868  -33.3020 H   0  0  0  0  0  0  0  0  0  0  0  0
   -9.1542   17.6368  -32.9258 H   0  0  0  0  0  0  0  0  0  0  0  0
   -8.9205   17.2092  -31.1790 H   0  0  0  0  0  0  0  0  0  0  0  0
   -9.8182   19.7086  -32.3027 H   0  0  0  0  0  0  0  0  0  0  0  0
   -9.5647   19.2718  -30.5727 H   0  0  0  0  0  0  0  0  0  0  0  0
   -8.2761   24.5972  -30.2312 H   0  0  0  0  0  0  0  0  0  0  0  0
   -6.3453   26.1536  -30.0237 H   0  0  0  0  0  0  0  0  0  0  0  0
  1  2  2  0
  2  3  1  0
  3  4  1  0
  4  5  2  0
  5  6  1  0
  6  7  1  0
  7  8  2  0
  7  9  2  0
  7 10  1  0
 10 11  2  3
 11 12  1  0
 12 13  2  0
 13 14  1  0
 14 15  2  0
 15 16  1  0
  6 17  2  0
 17 18  1  0
 18 19  2  0
 19 20  1  0
  2 21  1  0
 21 22  2  0
 22 23  1  0
 23 24  1  0
 24 25  2  0
 24 26  2  0
 24 27  1  0
 27 28  1  0
 28 29  1  0
 29 30  1  0
 30 31  1  0
 31 32  1  0
 23 33  2  0
 33 34  1  0
 34 35  2  0
 35 36  1  0
 19  4  1  0
 35 21  1  0
 16 11  1  0
 32 27  1  0
  5 37  1  0
 12 38  1  0
 13 39  1  0
 14 40  1  0
 15 41  1  0
 17 42  1  0
 18 43  1  0
 20 44  1  0
 22 45  1  0
 28 46  1  0
 28 47  1  0
 29 48  1  0
 29 49  1  0
 31 50  1  0
 31 51  1  0
 32 52  1  0
 32 53  1  0
 33 54  1  0
 34 55  1  0
M  CHG  3   3  -1  16  -1  36  -1
M  END
>  <UniqueID>  (7) 
7

>  <SMILES>  (7) 
O=C([N-]c1cc(S(=O)(=O)N=c2cccc[n-]2)ccc1O)c1cc(S(=O)(=O)N2CCOCC2)ccc1[O-]

>  <Energy>  (7) 
79.45242976111261

>  <Genealogy>  (7) 
O=C([N-]c1cc(S(=O)(=O)N=c2cccc[n-]2)ccc1O)c1cc(S(=O)(=O)N2CCOCC2)ccc1[O-] (protonated)
O=C([N-]c1cc(S(=O)(=O)N=c2cccc[n-]2)ccc1O)c1cc(S(=O)(=O)N2CCOCC2)ccc1[O-] (3D coordinates assigned)
O=C([N-]c1cc(S(=O)(=O)N=c2cccc[n-]2)ccc1O)c1cc(S(=O)(=O)N2CCOCC2)ccc1[O-] (nonaromatic ring conformer: 79.45242976111261 kcal/mol)

>  <smiles>  (7) 
O=C(Nc1cc(S(=O)(=O)N=c2cccc[nH]2)ccc1O)c1cc(S(=O)(=O)N2CCOCC2)ccc1O

>  <score_type>  (7) 
oracle

>  <origin>  (7) 
adgpu

>  <m_score__min__energy>  (7) 
-14.83

>  <m_primary>  (7) 
energy

$$$$
7:0
     RDKit          3D

 42 45  0  0  0  0  0  0  0  0999 V2000
    0.2760   18.6140  -30.2910 C   0  0  0  0  0  0  0  0  0  0  0  0
   -0.4190   18.6430  -28.6100 S   0  0  0  0  0  0  0  0  0  0  0  0
   -1.0250   20.3240  -28.7630 C   0  0  0  0  0  0  0  0  0  0  0  0
   -0.1750   21.3380  -29.2200 C   0  0  0  0  0  0  0  0  0  0  0  0
   -0.6390   22.6530  -29.3120 C   0  0  0  0  0  0  0  0  0  0  0  0
   -1.9570   22.9640  -28.9460 C   0  0  0  0  0  0  0  0  0  0  0  0
   -2.5380   24.6280  -29.0100 S   0  0  0  0  0  0  0  0  0  0  0  0
   -1.3480   25.5460  -29.0050 O   0  0  0  0  0  0  0  0  0  0  0  0
   -3.3810   24.9180  -27.8000 O   0  0  0  0  0  0  0  0  0  0  0  0
   -3.4850   24.9330  -30.4320 N   0  0  0  0  0  0  0  0  0  0  0  0
   -4.8200   24.4610  -30.6350 C   0  0  0  0  0  0  0  0  0  0  0  0
   -6.1700   25.2690  -30.0610 S   0  0  0  0  0  0  0  0  0  0  0  0
   -7.3000   24.2050  -30.6960 C   0  0  0  0  0  0  0  0  0  0  0  0
   -6.6290   23.1780  -31.3580 C   0  0  0  0  0  0  0  0  0  0  0  0
   -7.3740   22.0450  -31.9980 C   0  0  0  0  0  0  0  0  0  0  0  0
   -5.2190   23.3130  -31.3290 C   0  0  0  0  0  0  0  0  0  0  0  0
   -4.2670   22.3290  -31.8920 C   0  0  0  0  0  0  0  0  0  0  0  0
   -2.9200   22.4720  -31.8000 N   0  0  0  0  0  0  0  0  0  0  0  0
   -2.2720   21.4800  -32.4610 C   0  0  0  0  0  0  0  0  0  0  0  0
   -0.8830   21.3750  -32.5590 C   0  0  0  0  0  0  0  0  0  0  0  0
   -0.3390   20.3100  -33.2960 C   0  0  0  0  0  0  0  0  0  0  0  0
   -1.1820   19.3690  -33.9230 C   0  0  0  0  0  0  0  0  0  0  0  0
   -2.5770   19.4870  -33.8180 C   0  0  0  0  0  0  0  0  0  0  0  0
   -3.0900   20.5490  -33.0800 C   0  0  0  0  0  0  0  0  0  0  0  0
   -4.6890   20.9600  -32.8030 S   0  0  0  0  0  0  0  0  0  0  0  0
   -2.8170   21.9390  -28.5240 C   0  0  0  0  0  0  0  0  0  0  0  0
   -2.3500   20.6260  -28.4240 C   0  0  0  0  0  0  0  0  0  0  0  0
    1.3735   18.5682  -30.2333 H   0  0  0  0  0  0  0  0  0  0  0  0
   -0.1001   17.7308  -30.8281 H   0  0  0  0  0  0  0  0  0  0  0  0
   -0.0252   19.5255  -30.8281 H   0  0  0  0  0  0  0  0  0  0  0  0
    0.8597   21.0994  -29.5071 H   0  0  0  0  0  0  0  0  0  0  0  0
    0.0316   23.4469  -29.6726 H   0  0  0  0  0  0  0  0  0  0  0  0
   -8.3920   24.3017  -30.6050 H   0  0  0  0  0  0  0  0  0  0  0  0
   -7.7994   21.3981  -31.2166 H   0  0  0  0  0  0  0  0  0  0  0  0
   -8.1850   22.4463  -32.6234 H   0  0  0  0  0  0  0  0  0  0  0  0
   -6.6841   21.4594  -32.6234 H   0  0  0  0  0  0  0  0  0  0  0  0
   -0.2284   22.1110  -32.0692 H   0  0  0  0  0  0  0  0  0  0  0  0
    0.7528   20.2092  -33.3848 H   0  0  0  0  0  0  0  0  0  0  0  0
   -0.7444   18.5388  -34.4969 H   0  0  0  0  0  0  0  0  0  0  0  0
   -3.2448   18.7611  -34.3049 H   0  0  0  0  0  0  0  0  0  0  0  0
   -3.8623   22.1698  -28.2710 H   0  0  0  0  0  0  0  0  0  0  0  0
   -3.0239   19.8282  -28.0785 H   0  0  0  0  0  0  0  0  0  0  0  0
  1  2  1  0
  2  3  1  0
  3  4  2  0
  4  5  1  0
  5  6  2  0
  6  7  1  0
  7  8  2  0
  7  9  2  0
  7 10  1  0
 10 11  1  0
 11 12  1  0
 12 13  1  0
 13 14  2  0
 14 15  1  0
 14 16  1  0
 16 17  1  0
 17 18  2  0
 18 19  1  0
 19 20  2  0
 20 21  1  0
 21 22  2  0
 22 23  1  0
 23 24  2  0
 24 25  1  0
  6 26  1  0
 26 27  2  0
 27  3  1  0
 16 11  2  0
 25 17  1  0
 24 19  1  0
  1 28  1  0
  1 29  1  0
  1 30  1  0
  4 31  1  0
  5 32  1  0
 13 33  1  0
 15 34  1  0
 15 35  1  0
 15 36  1  0
 20 37  1  0
 21 38  1  0
 22 39  1  0
 23 40  1  0
 26 41  1  0
 27 42  1  0
M  CHG  1  10  -1
M  END
>  <UniqueID>  (8) 
8

>  <SMILES>  (8) 
CSc1ccc(S(=O)(=O)[N-]c2scc(C)c2-c2nc3ccccc3s2)cc1

>  <Energy>  (8) 
109.51548775016404

>  <Genealogy>  (8) 
CSc1ccc(S(=O)(=O)[N-]c2scc(C)c2-c2nc3ccccc3s2)cc1 (protonated)
CSc1ccc(S(=O)(=O)[N-]c2scc(C)c2-c2nc3ccccc3s2)cc1 (3D coordinates assigned)
CSc1ccc(S(=O)(=O)[N-]c2scc(C)c2-c2nc3ccccc3s2)cc1 (optimized conformer: 109.51548775016404 kcal/mol)

>  <smiles>  (8) 
CSc1ccc(S(=O)(=O)Nc2scc(C)c2-c2nc3ccccc3s2)cc1

>  <score_type>  (8) 
oracle

>  <origin>  (8) 
adgpu

>  <m_score__min__energy>  (8) 
-10.859999999999999

>  <m_primary>  (8) 
energy

$$$$
8:0
     RDKit          3D

 50 53  0  0  0  0  0  0  0  0999 V2000
   -4.3010   25.5280  -30.8870 O   0  0  0  0  0  0  0  0  0  0  0  0
   -5.4260   24.9700  -30.0620 S   0  0  0  0  0  0  0  0  0  0  0  0
   -6.4270   26.0570  -29.7920 O   0  0  0  0  0  0  0  0  0  0  0  0
   -4.7870   24.3910  -28.5550 N   0  0  0  0  0  0  0  0  0  0  0  0
   -3.6380   23.5290  -28.4620 C   0  0  0  0  0  0  0  0  0  0  0  0
   -3.7520   22.2140  -27.9720 C   0  0  0  0  0  0  0  0  0  0  0  0
   -2.6250   21.3990  -27.8520 C   0  0  0  0  0  0  0  0  0  0  0  0
   -1.3640   21.8760  -28.2560 C   0  0  0  0  0  0  0  0  0  0  0  0
   -1.2450   23.1820  -28.7470 C   0  0  0  0  0  0  0  0  0  0  0  0
   -2.3730   24.0020  -28.8540 C   0  0  0  0  0  0  0  0  0  0  0  0
   -2.2230   25.2970  -29.3410 O   0  0  0  0  0  0  0  0  0  0  0  0
   -0.1410   21.0060  -28.0990 C   0  0  0  0  0  0  0  0  0  0  0  0
   -0.5080   19.5180  -28.0470 C   0  0  0  0  0  0  0  0  0  0  0  0
   -1.6310   19.2860  -27.0340 C   0  0  0  0  0  0  0  0  0  0  0  0
   -2.7610   20.0980  -27.3520 O   0  0  0  0  0  0  0  0  0  0  0  0
   -6.2330   23.6620  -30.9220 C   0  0  0  0  0  0  0  0  0  0  0  0
   -7.6220   23.6870  -31.1090 C   0  0  0  0  0  0  0  0  0  0  0  0
   -8.2520   22.6580  -31.8110 C   0  0  0  0  0  0  0  0  0  0  0  0
   -7.5020   21.5980  -32.3300 C   0  0  0  0  0  0  0  0  0  0  0  0
   -6.1130   21.5610  -32.1400 C   0  0  0  0  0  0  0  0  0  0  0  0
   -5.1610   20.2220  -32.7860 S   0  0  0  0  0  0  0  0  0  0  0  0
   -4.6280   19.4030  -31.6440 O   0  0  0  0  0  0  0  0  0  0  0  0
   -3.9880   20.7740  -33.5470 O   0  0  0  0  0  0  0  0  0  0  0  0
   -6.1050   19.1980  -33.8460 N   0  0  0  0  0  0  0  0  0  0  0  0
   -5.2630   18.1980  -34.5090 C   0  0  0  0  0  0  0  0  0  0  0  0
   -5.3920   16.8820  -33.7540 C   0  0  0  0  0  0  0  0  0  0  0  0
   -6.5690   17.0560  -32.8170 C   0  0  0  0  0  0  0  0  0  0  0  0
   -7.1150   18.4480  -33.0940 C   0  0  0  0  0  0  0  0  0  0  0  0
   -5.4840   22.5940  -31.4340 C   0  0  0  0  0  0  0  0  0  0  0  0
   -5.3580   24.5820  -27.7000 H   0  0  0  0  0  0  0  0  0  0  0  0
   -4.7389   21.8250  -27.6809 H   0  0  0  0  0  0  0  0  0  0  0  0
   -0.2594   23.5650  -29.0501 H   0  0  0  0  0  0  0  0  0  0  0  0
    0.5311   21.1780  -28.9526 H   0  0  0  0  0  0  0  0  0  0  0  0
    0.3503   21.2719  -27.1514 H   0  0  0  0  0  0  0  0  0  0  0  0
   -0.8434   19.1914  -29.0424 H   0  0  0  0  0  0  0  0  0  0  0  0
    0.3767   18.9405  -27.7407 H   0  0  0  0  0  0  0  0  0  0  0  0
   -1.9273   18.2269  -27.0570 H   0  0  0  0  0  0  0  0  0  0  0  0
   -1.2687   19.5544  -26.0307 H   0  0  0  0  0  0  0  0  0  0  0  0
   -8.2162   24.5185  -30.7021 H   0  0  0  0  0  0  0  0  0  0  0  0
   -9.3421   22.6810  -31.9564 H   0  0  0  0  0  0  0  0  0  0  0  0
   -8.0020   20.7925  -32.8878 H   0  0  0  0  0  0  0  0  0  0  0  0
   -5.5954   18.0635  -35.5489 H   0  0  0  0  0  0  0  0  0  0  0  0
   -4.2143   18.5300  -34.5120 H   0  0  0  0  0  0  0  0  0  0  0  0
   -5.5797   16.0553  -34.4550 H   0  0  0  0  0  0  0  0  0  0  0  0
   -4.4704   16.6389  -33.2048 H   0  0  0  0  0  0  0  0  0  0  0  0
   -7.3370   16.2954  -33.0210 H   0  0  0  0  0  0  0  0  0  0  0  0
   -6.2702   16.9397  -31.7648 H   0  0  0  0  0  0  0  0  0  0  0  0
   -8.0397   18.3739  -33.6852 H   0  0  0  0  0  0  0  0  0  0  0  0
   -7.3412   18.9613  -32.1478 H   0  0  0  0  0  0  0  0  0  0  0  0
   -4.3951   22.5669  -31.2804 H   0  0  0  0  0  0  0  0  0  0  0  0
  1  2  2  0
  2  3  2  0
  2  4  1  0
  4  5  1  0
  5  6  2  0
  6  7  1  0
  7  8  2  0
  8  9  1  0
  9 10  2  0
 10 11  1  0
  8 12  1  0
 12 13  1  0
 13 14  1  0
 14 15  1  0
  2 16  1  0
 16 17  2  0
 17 18  1  0
 18 19  2  0
 19 20  1  0
 20 21  1  0
 21 22  2  0
 21 23  2  0
 21 24  1  0
 24 25  1  0
 25 26  1  0
 26 27  1  0
 27 28  1  0
 20 29  2  0
 10  5  1  0
 29 16  1  0
 15  7  1  0
 28 24  1  0
  4 30  1  0
  6 31  1  0
  9 32  1  0
 12 33  1  0
 12 34  1  0
 13 35  1  0
 13 36  1  0
 14 37  1  0
 14 38  1  0
 17 39  1  0
 18 40  1  0
 19 41  1  0
 25 42  1  0
 25 43  1  0
 26 44  1  0
 26 45  1  0
 27 46  1  0
 27 47  1  0
 28 48  1  0
 28 49  1  0
 29 50  1  0
M  CHG  1  11  -1
M  END
>  <UniqueID>  (9) 
9

>  <SMILES>  (9) 
O=S(=O)(Nc1cc2c(cc1[O-])CCCO2)c1cccc(S(=O)(=O)N2CCCC2)c1

>  <Energy>  (9) 
54.0038634251693

>  <Genealogy>  (9) 
O=S(=O)(Nc1cc2c(cc1[O-])CCCO2)c1cccc(S(=O)(=O)N2CCCC2)c1 (protonated)
O=S(=O)(Nc1cc2c(cc1[O-])CCCO2)c1cccc(S(=O)(=O)N2CCCC2)c1 (3D coordinates assigned)
O=S(=O)(Nc1cc2c(cc1[O-])CCCO2)c1cccc(S(=O)(=O)N2CCCC2)c1 (nonaromatic ring conformer: 54.0038634251693 kcal/mol)

>  <smiles>  (9) 
O=S(=O)(Nc1cc2c(cc1O)CCCO2)c1cccc(S(=O)(=O)N2CCCC2)c1

>  <score_type>  (9) 
oracle

>  <origin>  (9) 
adgpu

>  <m_score__min__energy>  (9) 
-14.029999999999999

>  <m_primary>  (9) 
energy

$$$$
9:0
     RDKit          3D

 80 84  0  0  0  0  0  0  0  0999 V2000
   -8.9690   18.6290  -31.5930 C   0  0  0  0  0  0  0  0  0  0  0  0
   -9.2170   19.8370  -32.4910 C   0  0  0  0  0  0  0  0  0  0  0  0
   -8.1990   20.9590  -32.2470 C   0  0  0  0  0  0  0  0  0  0  0  0
   -6.9630   20.7450  -33.0020 N   0  0  0  0  0  0  0  0  0  0  0  0
   -5.6470   20.9060  -32.4310 C   0  0  0  0  0  0  0  0  0  0  0  0
   -5.3110   22.0440  -31.6740 C   0  0  0  0  0  0  0  0  0  0  0  0
   -4.0140   22.2080  -31.1370 C   0  0  0  0  0  0  0  0  0  0  0  0
   -3.7090   23.3170  -30.3250 C   0  0  0  0  0  0  0  0  0  0  0  0
   -4.6030   24.1720  -30.0660 O   0  0  0  0  0  0  0  0  0  0  0  0
   -2.4130   23.4600  -29.7880 C   0  0  0  0  0  0  0  0  0  0  0  0
   -2.0440   24.5720  -28.8680 C   0  0  0  0  0  0  0  0  0  0  0  0
   -1.6090   25.6600  -29.3390 O   0  0  0  0  0  0  0  0  0  0  0  0
   -2.2150   24.4450  -27.4460 N   0  0  0  0  0  0  0  0  0  0  0  0
   -1.1530   24.4960  -26.4830 C   0  0  0  0  0  0  0  0  0  0  0  0
   -0.3660   23.3650  -26.1990 C   0  0  0  0  0  0  0  0  0  0  0  0
    0.6140   23.4150  -25.2040 C   0  0  0  0  0  0  0  0  0  0  0  0
    0.8190   24.5940  -24.4810 C   0  0  0  0  0  0  0  0  0  0  0  0
    0.0210   25.7210  -24.7310 C   0  0  0  0  0  0  0  0  0  0  0  0
    0.1740   27.1620  -23.7210 S   0  0  0  0  0  0  0  0  0  0  0  0
   -0.8610   27.1040  -22.6290 O   0  0  0  0  0  0  0  0  0  0  0  0
   -0.0890   28.3940  -24.5450 O   0  0  0  0  0  0  0  0  0  0  0  0
    1.7740   27.2770  -23.0270 N   0  0  0  0  0  0  0  0  0  0  0  0
    1.9450   28.5760  -22.3610 C   0  0  0  0  0  0  0  0  0  0  0  0
    2.7940   27.0880  -24.0710 C   0  0  0  0  0  0  0  0  0  0  0  0
   -0.9600   25.6660  -25.7390 C   0  0  0  0  0  0  0  0  0  0  0  0
   -1.4440   22.4990  -30.1150 C   0  0  0  0  0  0  0  0  0  0  0  0
   -1.7330   21.4100  -30.8910 N   0  0  0  0  0  0  0  0  0  0  0  0
   -0.6100   20.4880  -31.1690 C   0  0  0  0  0  0  0  0  0  0  0  0
   -0.3740   19.5590  -30.0020 C   0  0  0  0  0  0  0  0  0  0  0  0
    0.5250   18.4890  -30.1050 C   0  0  0  0  0  0  0  0  0  0  0  0
    0.7240   17.6310  -29.0190 C   0  0  0  0  0  0  0  0  0  0  0  0
    0.0400   17.8410  -27.8170 C   0  0  0  0  0  0  0  0  0  0  0  0
    0.2410   17.0100  -26.7630 F   0  0  0  0  0  0  0  0  0  0  0  0
   -0.8430   18.9170  -27.6980 C   0  0  0  0  0  0  0  0  0  0  0  0
   -1.0480   19.7740  -28.7850 C   0  0  0  0  0  0  0  0  0  0  0  0
   -3.0100   21.2370  -31.3970 C   0  0  0  0  0  0  0  0  0  0  0  0
   -3.3730   20.0970  -32.1470 C   0  0  0  0  0  0  0  0  0  0  0  0
   -4.6690   19.9200  -32.6390 C   0  0  0  0  0  0  0  0  0  0  0  0
   -5.0050   18.6670  -33.2600 N   0  0  0  0  0  0  0  0  0  0  0  0
   -6.0170   17.8070  -32.6120 C   0  0  0  0  0  0  0  0  0  0  0  0
   -6.5410   16.6810  -33.5310 C   0  0  0  0  0  0  0  0  0  0  0  0
   -6.3620   16.9780  -34.9020 O   0  0  0  0  0  0  0  0  0  0  0  0
   -4.9830   17.0850  -35.1670 C   0  0  0  0  0  0  0  0  0  0  0  0
   -4.4370   18.3830  -34.5850 C   0  0  0  0  0  0  0  0  0  0  0  0
   -9.0322   18.9367  -30.5388 H   0  0  0  0  0  0  0  0  0  0  0  0
   -9.7278   17.8590  -31.7963 H   0  0  0  0  0  0  0  0  0  0  0  0
   -7.9682   18.2203  -31.7963 H   0  0  0  0  0  0  0  0  0  0  0  0
   -9.1475   19.5178  -33.5414 H   0  0  0  0  0  0  0  0  0  0  0  0
  -10.2170   20.2316  -32.2579 H   0  0  0  0  0  0  0  0  0  0  0  0
   -8.6436   21.9166  -32.5558 H   0  0  0  0  0  0  0  0  0  0  0  0
   -7.9486   20.9666  -31.1759 H   0  0  0  0  0  0  0  0  0  0  0  0
   -7.0370   20.3840  -33.9780 H   0  0  0  0  0  0  0  0  0  0  0  0
   -6.0711   22.8192  -31.4972 H   0  0  0  0  0  0  0  0  0  0  0  0
   -0.5232   22.4345  -26.7643 H   0  0  0  0  0  0  0  0  0  0  0  0
    1.2248   22.5257  -24.9894 H   0  0  0  0  0  0  0  0  0  0  0  0
    1.6071   24.6383  -23.7149 H   0  0  0  0  0  0  0  0  0  0  0  0
    1.8710   26.5210  -22.3150 H   0  0  0  0  0  0  0  0  0  0  0  0
    1.9263   28.4341  -21.2703 H   0  0  0  0  0  0  0  0  0  0  0  0
    2.9088   29.0158  -22.6571 H   0  0  0  0  0  0  0  0  0  0  0  0
    1.1279   29.2502  -22.6571 H   0  0  0  0  0  0  0  0  0  0  0  0
    3.7715   26.9069  -23.6001 H   0  0  0  0  0  0  0  0  0  0  0  0
    2.5228   26.2248  -24.6966 H   0  0  0  0  0  0  0  0  0  0  0  0
    2.8501   27.9910  -24.6966 H   0  0  0  0  0  0  0  0  0  0  0  0
   -1.5808   26.5507  -25.9440 H   0  0  0  0  0  0  0  0  0  0  0  0
   -0.4194   22.6254  -29.7352 H   0  0  0  0  0  0  0  0  0  0  0  0
   -0.8466   19.8913  -32.0623 H   0  0  0  0  0  0  0  0  0  0  0  0
    0.3004   21.0828  -31.3344 H   0  0  0  0  0  0  0  0  0  0  0  0
    1.0757   18.3236  -31.0428 H   0  0  0  0  0  0  0  0  0  0  0  0
    1.4224   16.7861  -29.1104 H   0  0  0  0  0  0  0  0  0  0  0  0
   -1.3761   19.0902  -26.7516 H   0  0  0  0  0  0  0  0  0  0  0  0
   -1.7413   20.6224  -28.6877 H   0  0  0  0  0  0  0  0  0  0  0  0
   -2.6144   19.3266  -32.3497 H   0  0  0  0  0  0  0  0  0  0  0  0
   -5.5656   17.3480  -31.7200 H   0  0  0  0  0  0  0  0  0  0  0  0
   -6.8751   18.4472  -32.3595 H   0  0  0  0  0  0  0  0  0  0  0  0
   -5.9992   15.7528  -33.2968 H   0  0  0  0  0  0  0  0  0  0  0  0
   -7.6205   16.5740  -33.3488 H   0  0  0  0  0  0  0  0  0  0  0  0
   -4.4578   16.2327  -34.7113 H   0  0  0  0  0  0  0  0  0  0  0  0
   -4.8245   17.0838  -36.2555 H   0  0  0  0  0  0  0  0  0  0  0  0
   -3.3439   18.3005  -34.4938 H   0  0  0  0  0  0  0  0  0  0  0  0
   -4.7159   19.2052  -35.2605 H   0  0  0  0  0  0  0  0  0  0  0  0
  1  2  1  0
  2  3  1  0
  3  4  1  0
  4  5  1  0
  5  6  2  0
  6  7  1  0
  7  8  1  0
  8  9  2  0
  8 10  1  0
 10 11  1  0
 11 12  2  0
 11 13  1  0
 13 14  1  0
 14 15  2  0
 15 16  1  0
 16 17  2  0
 17 18  1  0
 18 19  1  0
 19 20  2  0
 19 21  2  0
 19 22  1  0
 22 23  1  0
 22 24  1  0
 18 25  2  0
 10 26  2  0
 26 27  1  0
 27 28  1  0
 28 29  1  0
 29 30  2  0
 30 31  1  0
 31 32  2  0
 32 33  1  0
 32 34  1  0
 34 35  2  0
 27 36  1  0
 36 37  1  0
 37 38  2  0
 38 39  1  0
 39 40  1  0
 40 41  1  0
 41 42  1  0
 42 43  1  0
 43 44  1  0
 38  5  1  0
 44 39  1  0
 36  7  2  0
 25 14  1  0
 35 29  1  0
  1 45  1  0
  1 46  1  0
  1 47  1  0
  2 48  1  0
  2 49  1  0
  3 50  1  0
  3 51  1  0
  4 52  1  0
  6 53  1  0
 15 54  1  0
 16 55  1  0
 17 56  1  0
 22 57  1  0
 23 58  1  0
 23 59  1  0
 23 60  1  0
 24 61  1  0
 24 62  1  0
 24 63  1  0
 25 64  1  0
 26 65  1  0
 28 66  1  0
 28 67  1  0
 30 68  1  0
 31 69  1  0
 34 70  1  0
 35 71  1  0
 37 72  1  0
 40 73  1  0
 40 74  1  0
 41 75  1  0
 41 76  1  0
 43 77  1  0
 43 78  1  0
 44 79  1  0
 44 80  1  0
M  CHG  2  13  -1  22   1
M  END
>  <UniqueID>  (10) 
10

>  <SMILES>  (10) 
CCCNc1cc2c(=O)c(C(=O)[N-]c3cccc(S(=O)(=O)[NH+](C)C)c3)cn(Cc3ccc(F)cc3)c2cc1N1CCOCC1

>  <Energy>  (10) 
106.56241075513118

>  <Genealogy>  (10) 
CCCNc1cc2c(=O)c(C(=O)[N-]c3cccc(S(=O)(=O)[NH+](C)C)c3)cn(Cc3ccc(F)cc3)c2cc1N1CCOCC1 (protonated)
CCCNc1cc2c(=O)c(C(=O)[N-]c3cccc(S(=O)(=O)[NH+](C)C)c3)cn(Cc3ccc(F)cc3)c2cc1N1CCOCC1 (3D coordinates assigned)
CCCNc1cc2c(=O)c(C(=O)[N-]c3cccc(S(=O)(=O)[NH+](C)C)c3)cn(Cc3ccc(F)cc3)c2cc1N1CCOCC1 (nonaromatic ring conformer: 106.56241075513118 kcal/mol)

>  <smiles>  (10) 
CCCNc1cc2c(=O)c(C(=O)Nc3cccc(S(=O)(=O)N(C)C)c3)cn(Cc3ccc(F)cc3)c2cc1N1CCOCC1

>  <score_type>  (10) 
oracle

>  <origin>  (10) 
adgpu

>  <m_score__min__energy>  (10) 
-13.199999999999999

>  <m_primary>  (10) 
energy

$$$$
10:0
     RDKit          3D

 64 68  0  0  0  0  0  0  0  0999 V2000
   -6.8670   18.8070  -33.3680 C   0  0  0  0  0  0  0  0  0  0  0  0
   -8.1620   19.5650  -32.4150 S   0  0  0  0  0  0  0  0  0  0  0  0
   -9.3660   19.7890  -33.2870 O   0  0  0  0  0  0  0  0  0  0  0  0
   -8.5510   18.6530  -31.2860 O   0  0  0  0  0  0  0  0  0  0  0  0
   -7.5980   21.1060  -31.7800 C   0  0  0  0  0  0  0  0  0  0  0  0
   -6.7910   21.9440  -32.5630 C   0  0  0  0  0  0  0  0  0  0  0  0
   -6.3320   23.1600  -32.0490 C   0  0  0  0  0  0  0  0  0  0  0  0
   -6.6950   23.5600  -30.7560 C   0  0  0  0  0  0  0  0  0  0  0  0
   -6.0450   25.0500  -30.0780 S   0  0  0  0  0  0  0  0  0  0  0  0
   -7.0800   25.7410  -29.2410 O   0  0  0  0  0  0  0  0  0  0  0  0
   -5.6400   25.9690  -31.1910 O   0  0  0  0  0  0  0  0  0  0  0  0
   -4.6570   24.6700  -29.1150 N   0  0  0  0  0  0  0  0  0  0  0  0
   -3.6250   23.8400  -29.6520 C   0  0  0  0  0  0  0  0  0  0  0  0
   -3.9640   22.5910  -30.2110 C   0  0  0  0  0  0  0  0  0  0  0  0
   -2.9360   21.7690  -30.6650 C   0  0  0  0  0  0  0  0  0  0  0  0
   -1.6180   22.1570  -30.5910 C   0  0  0  0  0  0  0  0  0  0  0  0
   -1.2490   23.3910  -30.0630 C   0  0  0  0  0  0  0  0  0  0  0  0
   -2.2650   24.2410  -29.5880 C   0  0  0  0  0  0  0  0  0  0  0  0
   -1.9230   25.4810  -29.0650 O   0  0  0  0  0  0  0  0  0  0  0  0
   -0.8060   21.0690  -31.1210 C   0  0  0  0  0  0  0  0  0  0  0  0
    0.4440   21.0950  -31.2620 O   0  0  0  0  0  0  0  0  0  0  0  0
   -1.6460   19.9800  -31.5210 N   0  0  0  0  0  0  0  0  0  0  0  0
   -1.2430   18.6840  -32.0020 C   0  0  0  0  0  0  0  0  0  0  0  0
    0.0430   18.1910  -31.7310 C   0  0  0  0  0  0  0  0  0  0  0  0
    0.4230   16.9290  -32.1890 C   0  0  0  0  0  0  0  0  0  0  0  0
   -0.4760   16.1420  -32.9120 C   0  0  0  0  0  0  0  0  0  0  0  0
   -1.7710   16.6150  -33.1980 C   0  0  0  0  0  0  0  0  0  0  0  0
   -2.7040   15.8010  -33.9500 N   0  0  0  0  0  0  0  0  0  0  0  0
   -3.4950   16.4130  -35.0310 C   0  0  0  0  0  0  0  0  0  0  0  0
   -4.9590   16.5900  -34.6080 C   0  0  0  0  0  0  0  0  0  0  0  0
   -5.5330   15.3430  -33.9230 C   0  0  0  0  0  0  0  0  0  0  0  0
   -5.0070   15.1900  -32.5580 N   0  0  0  0  0  0  0  0  0  0  0  0
   -3.9590   14.1620  -32.4870 C   0  0  0  0  0  0  0  0  0  0  0  0
   -2.8890   14.3890  -33.5650 C   0  0  0  0  0  0  0  0  0  0  0  0
   -2.1410   17.8940  -32.7380 C   0  0  0  0  0  0  0  0  0  0  0  0
   -2.9740   20.4250  -31.2270 C   0  0  0  0  0  0  0  0  0  0  0  0
   -4.0110   19.7250  -31.3720 O   0  0  0  0  0  0  0  0  0  0  0  0
   -7.5130   22.7290  -29.9770 C   0  0  0  0  0  0  0  0  0  0  0  0
   -7.9600   21.5070  -30.4870 C   0  0  0  0  0  0  0  0  0  0  0  0
   -6.1200   18.3698  -32.6891 H   0  0  0  0  0  0  0  0  0  0  0  0
   -7.2935   18.0160  -34.0023 H   0  0  0  0  0  0  0  0  0  0  0  0
   -6.3861   19.5662  -34.0023 H   0  0  0  0  0  0  0  0  0  0  0  0
   -6.5183   21.6433  -33.5853 H   0  0  0  0  0  0  0  0  0  0  0  0
   -5.6841   23.8047  -32.6611 H   0  0  0  0  0  0  0  0  0  0  0  0
   -4.4040   25.3480  -28.3610 H   0  0  0  0  0  0  0  0  0  0  0  0
   -5.0145   22.2737  -30.2866 H   0  0  0  0  0  0  0  0  0  0  0  0
   -0.1923   23.6934  -30.0183 H   0  0  0  0  0  0  0  0  0  0  0  0
    0.7539   18.8019  -31.1554 H   0  0  0  0  0  0  0  0  0  0  0  0
    1.4351   16.5523  -31.9797 H   0  0  0  0  0  0  0  0  0  0  0  0
   -0.1700   15.1447  -33.2608 H   0  0  0  0  0  0  0  0  0  0  0  0
   -3.0695   17.3975  -35.2751 H   0  0  0  0  0  0  0  0  0  0  0  0
   -3.4612   15.7505  -35.9085 H   0  0  0  0  0  0  0  0  0  0  0  0
   -5.0232   17.4366  -33.9086 H   0  0  0  0  0  0  0  0  0  0  0  0
   -5.5485   16.7692  -35.5193 H   0  0  0  0  0  0  0  0  0  0  0  0
   -6.6284   15.4326  -33.8764 H   0  0  0  0  0  0  0  0  0  0  0  0
   -5.2379   14.4598  -34.5086 H   0  0  0  0  0  0  0  0  0  0  0  0
   -4.5690   16.1060  -32.2980 H   0  0  0  0  0  0  0  0  0  0  0  0
   -3.4842   14.2007  -31.4955 H   0  0  0  0  0  0  0  0  0  0  0  0
   -4.4219   13.1785  -32.6554 H   0  0  0  0  0  0  0  0  0  0  0  0
   -1.9302   14.0075  -33.1842 H   0  0  0  0  0  0  0  0  0  0  0  0
   -3.2328   13.8597  -34.4659 H   0  0  0  0  0  0  0  0  0  0  0  0
   -3.1474   18.2794  -32.9584 H   0  0  0  0  0  0  0  0  0  0  0  0
   -7.8034   23.0396  -28.9625 H   0  0  0  0  0  0  0  0  0  0  0  0
   -8.5987   20.8572  -29.8708 H   0  0  0  0  0  0  0  0  0  0  0  0
  1  2  1  0
  2  3  2  0
  2  4  2  0
  2  5  1  0
  5  6  2  0
  6  7  1  0
  7  8  2  0
  8  9  1  0
  9 10  2  0
  9 11  2  0
  9 12  1  0
 12 13  1  0
 13 14  2  0
 14 15  1  0
 15 16  2  0
 16 17  1  0
 17 18  2  0
 18 19  1  0
 16 20  1  0
 20 21  2  0
 20 22  1  0
 22 23  1  0
 23 24  2  0
 24 25  1  0
 25 26  2  0
 26 27  1  0
 27 28  1  0
 28 29  1  0
 29 30  1  0
 30 31  1  0
 31 32  1  0
 32 33  1  0
 33 34  1  0
 27 35  2  0
 22 36  1  0
 36 37  2  0
  8 38  1  0
 38 39  2  0
 39  5  1  0
 18 13  1  0
 35 23  1  0
 36 15  1  0
 34 28  1  0
  1 40  1  0
  1 41  1  0
  1 42  1  0
  6 43  1  0
  7 44  1  0
 12 45  1  0
 14 46  1  0
 17 47  1  0
 24 48  1  0
 25 49  1  0
 26 50  1  0
 29 51  1  0
 29 52  1  0
 30 53  1  0
 30 54  1  0
 31 55  1  0
 31 56  1  0
 32 57  1  0
 33 58  1  0
 33 59  1  0
 34 60  1  0
 34 61  1  0
 35 62  1  0
 38 63  1  0
 39 64  1  0
M  CHG  1  19  -1
M  END
>  <UniqueID>  (11) 
11

>  <SMILES>  (11) 
CS(=O)(=O)c1ccc(S(=O)(=O)Nc2cc3c(cc2[O-])C(=O)N(c2cccc(N4CCCNCC4)c2)C3=O)cc1

>  <Energy>  (11) 
114.66821900442308

>  <Genealogy>  (11) 
CS(=O)(=O)c1ccc(S(=O)(=O)Nc2cc3c(cc2[O-])C(=O)N(c2cccc(N4CCCNCC4)c2)C3=O)cc1 (protonated)
CS(=O)(=O)c1ccc(S(=O)(=O)Nc2cc3c(cc2[O-])C(=O)N(c2cccc(N4CCCNCC4)c2)C3=O)cc1 (3D coordinates assigned)
CS(=O)(=O)c1ccc(S(=O)(=O)Nc2cc3c(cc2[O-])C(=O)N(c2cccc(N4CCCNCC4)c2)C3=O)cc1 (nonaromatic ring conformer: 114.66821900442308 kcal/mol)

>  <smiles>  (11) 
CS(=O)(=O)c1ccc(S(=O)(=O)Nc2cc3c(cc2O)C(=O)N(c2cccc(N4CCCNCC4)c2)C3=O)cc1

>  <score_type>  (11) 
oracle

>  <origin>  (11) 
adgpu

>  <m_score__min__energy>  (11) 
-11.039999999999999

>  <m_primary>  (11) 
energy

$$$$
11:0
     RDKit          3D

 57 60  0  0  0  0  0  0  0  0999 V2000
    0.7830   18.7430  -32.3820 O   0  0  0  0  0  0  0  0  0  0  0  0
   -0.1840   19.3670  -31.8670 C   0  0  0  0  0  0  0  0  0  0  0  0
    0.0410   20.2620  -30.7680 N   0  0  0  0  0  0  0  0  0  0  0  0
   -0.9370   20.7190  -29.8190 C   0  0  0  0  0  0  0  0  0  0  0  0
   -1.2280   19.9850  -28.6590 C   0  0  0  0  0  0  0  0  0  0  0  0
   -2.1720   20.4550  -27.7510 C   0  0  0  0  0  0  0  0  0  0  0  0
   -2.8150   21.6690  -27.9740 C   0  0  0  0  0  0  0  0  0  0  0  0
   -2.5180   22.4480  -29.1040 C   0  0  0  0  0  0  0  0  0  0  0  0
   -3.3660   24.0080  -29.2600 S   0  0  0  0  0  0  0  0  0  0  0  0
   -4.3340   24.2230  -28.1320 O   0  0  0  0  0  0  0  0  0  0  0  0
   -2.3430   25.1070  -29.1650 O   0  0  0  0  0  0  0  0  0  0  0  0
   -4.2060   24.1670  -30.7940 N   0  0  0  0  0  0  0  0  0  0  0  0
   -5.4480   24.9310  -30.6600 C   0  0  0  0  0  0  0  0  0  0  0  0
   -6.5890   23.9470  -30.4760 C   0  0  0  0  0  0  0  0  0  0  0  0
   -6.0740   22.6320  -31.0300 C   0  0  0  0  0  0  0  0  0  0  0  0
   -4.5950   22.8560  -31.3290 C   0  0  0  0  0  0  0  0  0  0  0  0
   -1.5630   21.9610  -30.0390 C   0  0  0  0  0  0  0  0  0  0  0  0
   -1.1960   22.6600  -31.1920 O   0  0  0  0  0  0  0  0  0  0  0  0
   -1.5620   19.1270  -32.3570 C   0  0  0  0  0  0  0  0  0  0  0  0
   -1.9790   17.8310  -32.7080 C   0  0  0  0  0  0  0  0  0  0  0  0
   -3.2860   17.6000  -33.1500 C   0  0  0  0  0  0  0  0  0  0  0  0
   -4.1950   18.6600  -33.2520 C   0  0  0  0  0  0  0  0  0  0  0  0
   -5.8540   18.3660  -33.7810 S   0  0  0  0  0  0  0  0  0  0  0  0
   -6.0670   16.8860  -33.9390 O   0  0  0  0  0  0  0  0  0  0  0  0
   -6.0670   19.0110  -35.1210 O   0  0  0  0  0  0  0  0  0  0  0  0
   -7.0200   18.9990  -32.6460 N   0  0  0  0  0  0  0  0  0  0  0  0
   -7.6160   20.2450  -33.1590 C   0  0  0  0  0  0  0  0  0  0  0  0
   -8.7680   20.7090  -32.2440 C   0  0  0  0  0  0  0  0  0  0  0  0
   -8.8290   19.9370  -31.0580 O   0  0  0  0  0  0  0  0  0  0  0  0
   -9.0970   18.5830  -31.3790 C   0  0  0  0  0  0  0  0  0  0  0  0
   -8.0740   18.0090  -32.3810 C   0  0  0  0  0  0  0  0  0  0  0  0
   -3.7830   19.9570  -32.9180 C   0  0  0  0  0  0  0  0  0  0  0  0
   -2.4790   20.1890  -32.4700 C   0  0  0  0  0  0  0  0  0  0  0  0
   -0.7081   19.0348  -28.4668 H   0  0  0  0  0  0  0  0  0  0  0  0
   -2.4108   19.8650  -26.8539 H   0  0  0  0  0  0  0  0  0  0  0  0
   -3.5673   22.0237  -27.2541 H   0  0  0  0  0  0  0  0  0  0  0  0
   -5.3844   25.5959  -29.7860 H   0  0  0  0  0  0  0  0  0  0  0  0
   -5.6158   25.5461  -31.5564 H   0  0  0  0  0  0  0  0  0  0  0  0
   -6.8414   23.8441  -29.4103 H   0  0  0  0  0  0  0  0  0  0  0  0
   -7.5042   24.2785  -30.9884 H   0  0  0  0  0  0  0  0  0  0  0  0
   -6.1972   21.8295  -30.2879 H   0  0  0  0  0  0  0  0  0  0  0  0
   -6.6272   22.3286  -31.9311 H   0  0  0  0  0  0  0  0  0  0  0  0
   -3.9959   22.0672  -30.8506 H   0  0  0  0  0  0  0  0  0  0  0  0
   -4.4205   22.8245  -32.4146 H   0  0  0  0  0  0  0  0  0  0  0  0
   -0.5280   22.3430  -31.8740 H   0  0  0  0  0  0  0  0  0  0  0  0
   -1.2717   16.9918  -32.6345 H   0  0  0  0  0  0  0  0  0  0  0  0
   -3.6010   16.5809  -33.4187 H   0  0  0  0  0  0  0  0  0  0  0  0
   -6.8440   21.0278  -33.1945 H   0  0  0  0  0  0  0  0  0  0  0  0
   -8.0148   20.0600  -34.1673 H   0  0  0  0  0  0  0  0  0  0  0  0
   -8.6097   21.7642  -31.9765 H   0  0  0  0  0  0  0  0  0  0  0  0
   -9.7152   20.5822  -32.7887 H   0  0  0  0  0  0  0  0  0  0  0  0
   -9.0619   17.9862  -30.4556 H   0  0  0  0  0  0  0  0  0  0  0  0
  -10.0913   18.5370  -31.8473 H   0  0  0  0  0  0  0  0  0  0  0  0
   -7.6217   17.0994  -31.9590 H   0  0  0  0  0  0  0  0  0  0  0  0
   -8.5878   17.7675  -33.3232 H   0  0  0  0  0  0  0  0  0  0  0  0
   -4.4884   20.7961  -33.0086 H   0  0  0  0  0  0  0  0  0  0  0  0
   -2.1672   21.2097  -32.2037 H   0  0  0  0  0  0  0  0  0  0  0  0
  1  2  2  0
  2  3  1  0
  3  4  1  0
  4  5  2  0
  5  6  1  0
  6  7  2  0
  7  8  1  0
  8  9  1  0
  9 10  2  0
  9 11  2  0
  9 12  1  0
 12 13  1  0
 13 14  1  0
 14 15  1  0
 15 16  1  0
  8 17  2  0
 17 18  1  0
  2 19  1  0
 19 20  2  0
 20 21  1  0
 21 22  2  0
 22 23  1  0
 23 24  2  0
 23 25  2  0
 23 26  1  0
 26 27  1  0
 27 28  1  0
 28 29  1  0
 29 30  1  0
 30 31  1  0
 22 32  1  0
 32 33  2  0
 17  4  1  0
 33 19  1  0
 16 12  1  0
 31 26  1  0
  5 34  1  0
  6 35  1  0
  7 36  1  0
 13 37  1  0
 13 38  1  0
 14 39  1  0
 14 40  1  0
 15 41  1  0
 15 42  1  0
 16 43  1  0
 16 44  1  0
 18 45  1  0
 20 46  1  0
 21 47  1  0
 27 48  1  0
 27 49  1  0
 28 50  1  0
 28 51  1  0
 30 52  1  0
 30 53  1  0
 31 54  1  0
 31 55  1  0
 32 56  1  0
 33 57  1  0
M  CHG  1   3  -1
M  END
>  <UniqueID>  (12) 
12

>  <SMILES>  (12) 
O=C([N-]c1cccc(S(=O)(=O)N2CCCC2)c1O)c1ccc(S(=O)(=O)N2CCOCC2)cc1

>  <Energy>  (12) 
76.49179901427696

>  <Genealogy>  (12) 
O=C([N-]c1cccc(S(=O)(=O)N2CCCC2)c1O)c1ccc(S(=O)(=O)N2CCOCC2)cc1 (protonated)
O=C([N-]c1cccc(S(=O)(=O)N2CCCC2)c1O)c1ccc(S(=O)(=O)N2CCOCC2)cc1 (3D coordinates assigned)
O=C([N-]c1cccc(S(=O)(=O)N2CCCC2)c1O)c1ccc(S(=O)(=O)N2CCOCC2)cc1 (nonaromatic ring conformer: 76.49179901427696 kcal/mol)

>  <smiles>  (12) 
O=C(Nc1cccc(S(=O)(=O)N2CCCC2)c1O)c1ccc(S(=O)(=O)N2CCOCC2)cc1

>  <score_type>  (12) 
oracle

>  <origin>  (12) 
adgpu

>  <m_score__min__energy>  (12) 
-14.17

>  <m_primary>  (12) 
energy

$$$$
12:0
     RDKit          3D

 50 52  0  0  0  0  0  0  0  0999 V2000
   -1.9770   17.6150  -34.5590 C   0  0  0  0  0  0  0  0  0  0  0  0
   -2.7420   18.8310  -34.1340 C   0  0  0  0  0  0  0  0  0  0  0  0
   -3.9480   18.9330  -34.4790 O   0  0  0  0  0  0  0  0  0  0  0  0
   -2.1300   19.8900  -33.3710 N   0  0  0  0  0  0  0  0  0  0  0  0
   -2.7970   20.9050  -32.6290 C   0  0  0  0  0  0  0  0  0  0  0  0
   -4.0780   21.4230  -32.8530 C   0  0  0  0  0  0  0  0  0  0  0  0
   -4.5340   22.4660  -32.0320 C   0  0  0  0  0  0  0  0  0  0  0  0
   -3.7040   22.9940  -31.0200 C   0  0  0  0  0  0  0  0  0  0  0  0
   -4.2900   24.3080  -30.0100 S   0  0  0  0  0  0  0  0  0  0  0  0
   -4.4110   25.5520  -30.8440 O   0  0  0  0  0  0  0  0  0  0  0  0
   -3.3240   24.5570  -28.8860 O   0  0  0  0  0  0  0  0  0  0  0  0
   -5.8370   23.8630  -29.3470 N   0  0  0  0  0  0  0  0  0  0  0  0
   -6.8990   24.0000  -30.3510 C   0  0  0  0  0  0  0  0  0  0  0  0
   -7.6780   22.6870  -30.4760 C   0  0  0  0  0  0  0  0  0  0  0  0
   -7.8840   22.3060  -31.9440 C   0  0  0  0  0  0  0  0  0  0  0  0
   -7.8510   20.8100  -32.1120 C   0  0  0  0  0  0  0  0  0  0  0  0
   -8.7610   19.9980  -31.4150 C   0  0  0  0  0  0  0  0  0  0  0  0
   -8.7440   18.6100  -31.5880 C   0  0  0  0  0  0  0  0  0  0  0  0
   -7.8260   18.0250  -32.4650 C   0  0  0  0  0  0  0  0  0  0  0  0
   -6.9270   18.8280  -33.1740 C   0  0  0  0  0  0  0  0  0  0  0  0
   -6.9410   20.2160  -33.0050 C   0  0  0  0  0  0  0  0  0  0  0  0
   -2.4010   22.4910  -30.8530 C   0  0  0  0  0  0  0  0  0  0  0  0
   -1.9750   21.4510  -31.6800 C   0  0  0  0  0  0  0  0  0  0  0  0
   -0.6350   20.8080  -31.7120 C   0  0  0  0  0  0  0  0  0  0  0  0
   -0.7280   19.8510  -32.9330 C   0  0  2  0  0  0  0  0  0  0  0  0
    0.1980   20.3050  -34.0670 C   0  0  0  0  0  0  0  0  0  0  0  0
   -1.6331   17.0684  -33.6685 H   0  0  0  0  0  0  0  0  0  0  0  0
   -2.6283   16.9636  -35.1603 H   0  0  0  0  0  0  0  0  0  0  0  0
   -1.1079   17.9202  -35.1603 H   0  0  0  0  0  0  0  0  0  0  0  0
   -4.7139   21.0211  -33.6556 H   0  0  0  0  0  0  0  0  0  0  0  0
   -5.5448   22.8745  -32.1782 H   0  0  0  0  0  0  0  0  0  0  0  0
   -6.0300   24.5460  -28.5780 H   0  0  0  0  0  0  0  0  0  0  0  0
   -7.5862   24.8031  -30.0464 H   0  0  0  0  0  0  0  0  0  0  0  0
   -6.4459   24.2437  -31.3233 H   0  0  0  0  0  0  0  0  0  0  0  0
   -7.1160   21.8865  -29.9726 H   0  0  0  0  0  0  0  0  0  0  0  0
   -8.6645   22.8202  -30.0079 H   0  0  0  0  0  0  0  0  0  0  0  0
   -8.8588   22.6866  -32.2831 H   0  0  0  0  0  0  0  0  0  0  0  0
   -7.0741   22.7484  -32.5426 H   0  0  0  0  0  0  0  0  0  0  0  0
   -9.4901   20.4556  -30.7302 H   0  0  0  0  0  0  0  0  0  0  0  0
   -9.4536   17.9784  -31.0335 H   0  0  0  0  0  0  0  0  0  0  0  0
   -7.8108   16.9331  -32.5974 H   0  0  0  0  0  0  0  0  0  0  0  0
   -6.2072   18.3667  -33.8662 H   0  0  0  0  0  0  0  0  0  0  0  0
   -6.2387   20.8449  -33.5718 H   0  0  0  0  0  0  0  0  0  0  0  0
   -1.7318   22.9088  -30.0864 H   0  0  0  0  0  0  0  0  0  0  0  0
    0.1580   21.5564  -31.8572 H   0  0  0  0  0  0  0  0  0  0  0  0
   -0.3839   20.2885  -30.7755 H   0  0  0  0  0  0  0  0  0  0  0  0
   -0.4132   18.8331  -32.6594 H   0  0  0  0  0  0  0  0  0  0  0  0
    1.1084   20.7514  -33.6405 H   0  0  0  0  0  0  0  0  0  0  0  0
    0.4704   19.4383  -34.6872 H   0  0  0  0  0  0  0  0  0  0  0  0
   -0.3203   21.0512  -34.6872 H   0  0  0  0  0  0  0  0  0  0  0  0
  1  2  1  0
  2  3  2  0
  2  4  1  0
  4  5  1  0
  5  6  2  0
  6  7  1  0
  7  8  2  0
  8  9  1  0
  9 10  2  0
  9 11  2  0
  9 12  1  0
 12 13  1  0
 13 14  1  0
 14 15  1  0
 15 16  1  0
 16 17  2  0
 17 18  1  0
 18 19  2  0
 19 20  1  0
 20 21  2  0
  8 22  1  0
 22 23  2  0
 23 24  1  0
 24 25  1  0
 25 26  1  0
 25  4  1  0
 23  5  1  0
 21 16  1  0
  1 27  1  0
  1 28  1  0
  1 29  1  0
  6 30  1  0
  7 31  1  0
 12 32  1  0
 13 33  1  0
 13 34  1  0
 14 35  1  0
 14 36  1  0
 15 37  1  0
 15 38  1  0
 17 39  1  0
 18 40  1  0
 19 41  1  0
 20 42  1  0
 21 43  1  0
 22 44  1  0
 24 45  1  0
 24 46  1  0
 25 47  1  1
 26 48  1  0
 26 49  1  0
 26 50  1  0
M  END
>  <UniqueID>  (13) 
13

>  <SMILES>  (13) 
CC(=O)N1c2ccc(S(=O)(=O)NCCCc3ccccc3)cc2C[C@@H]1C

>  <Energy>  (13) 
61.75085363063391

>  <Genealogy>  (13) 
CC(=O)N1c2ccc(S(=O)(=O)NCCCc3ccccc3)cc2C[C@@H]1C (chirality)
CC(=O)N1c2ccc(S(=O)(=O)NCCCc3ccccc3)cc2C[C@@H]1C (3D coordinates assigned)
CC(=O)N1c2ccc(S(=O)(=O)NCCCc3ccccc3)cc2C[C@@H]1C (nonaromatic ring conformer: 61.75085363063391 kcal/mol)

>  <smiles>  (13) 
CC(=O)N1c2ccc(S(=O)(=O)NCCCc3ccccc3)cc2CC1C

>  <score_type>  (13) 
oracle

>  <origin>  (13) 
adgpu

>  <m_score__min__energy>  (13) 
-10.4

>  <m_primary>  (13) 
energy

$$$$
13:0
     RDKit          3D

 62 65  0  0  1  0  0  0  0  0999 V2000
    3.0590   15.6260  -35.5390 C   0  0  0  0  0  0  0  0  0  0  0  0
    2.3280   16.7290  -36.0780 O   0  0  0  0  0  0  0  0  0  0  0  0
    1.1630   17.1590  -35.4980 C   0  0  0  0  0  0  0  0  0  0  0  0
    1.0890   18.3070  -34.7030 C   0  0  0  0  0  0  0  0  0  0  0  0
   -0.1400   18.6370  -34.1740 C   0  0  0  0  0  0  0  0  0  0  0  0
   -0.2760   19.7290  -33.4010 N   0  0  0  0  0  0  0  0  0  0  0  0
   -1.4380   20.1170  -32.8510 C   0  0  0  0  0  0  0  0  0  0  0  0
   -1.5830   21.2700  -32.0340 N   0  0  0  0  0  0  0  0  0  0  0  0
   -0.6610   21.5140  -30.9070 C   0  0  0  0  0  0  0  0  0  0  0  0
   -1.1230   22.7710  -30.2430 C   0  0  0  0  0  0  0  0  0  0  0  0
   -2.5070   22.7420  -29.8600 N   0  0  0  0  0  0  0  0  0  0  0  0
   -3.0720   24.2690  -29.3500 S   0  0  0  0  0  0  0  0  0  0  0  0
   -4.1370   24.1940  -27.9380 C   0  0  0  0  0  0  0  0  0  0  0  0
   -1.9200   25.1830  -29.0110 O   0  0  0  0  0  0  0  0  0  0  0  0
   -3.8370   24.9220  -30.4640 O   0  0  0  0  0  0  0  0  0  0  0  0
   -3.3990   22.2820  -30.9070 C   0  0  0  0  0  0  0  0  0  0  0  0
   -2.6040   22.2760  -32.2190 C   0  0  0  0  0  0  0  0  0  0  0  0
   -2.5420   19.3830  -33.0760 N   0  0  0  0  0  0  0  0  0  0  0  0
   -2.4380   18.2870  -33.8440 C   0  0  0  0  0  0  0  0  0  0  0  0
   -3.4850   17.5940  -34.0540 N   0  0  0  0  0  0  0  0  0  0  0  0
   -4.7850   17.8700  -33.5450 C   0  0  0  0  0  0  0  0  0  0  0  0
   -5.3480   19.0820  -33.9600 C   0  0  0  0  0  0  0  0  0  0  0  0
   -6.6100   19.4620  -33.5310 C   0  0  0  0  0  0  0  0  0  0  0  0
   -7.3260   18.6320  -32.6800 C   0  0  0  0  0  0  0  0  0  0  0  0
   -8.9020   19.1500  -32.1680 S   0  0  0  0  0  0  0  0  0  0  0  0
   -8.8680   20.7030  -31.3100 C   0  0  0  0  0  0  0  0  0  0  0  0
   -9.8720   19.3060  -33.3200 O   0  0  0  0  0  0  0  0  0  0  0  0
   -9.4760   18.0660  -31.2920 O   0  0  0  0  0  0  0  0  0  0  0  0
   -6.7540   17.4270  -32.2730 C   0  0  0  0  0  0  0  0  0  0  0  0
   -5.4830   17.0560  -32.7110 C   0  0  0  0  0  0  0  0  0  0  0  0
   -1.2570   17.8660  -34.4200 C   0  0  0  0  0  0  0  0  0  0  0  0
   -1.1970   16.7360  -35.2020 C   0  0  0  0  0  0  0  0  0  0  0  0
    0.0200   16.3880  -35.7380 C   0  0  0  0  0  0  0  0  0  0  0  0
    0.1150   15.2370  -36.5410 O   0  0  0  0  0  0  0  0  0  0  0  0
   -1.1090   14.6570  -36.9580 C   0  0  0  0  0  0  0  0  0  0  0  0
    3.0305   15.6691  -34.4402 H   0  0  0  0  0  0  0  0  0  0  0  0
    2.6060   14.6837  -35.8809 H   0  0  0  0  0  0  0  0  0  0  0  0
    4.1033   15.6760  -35.8809 H   0  0  0  0  0  0  0  0  0  0  0  0
    1.9786   18.9237  -34.5072 H   0  0  0  0  0  0  0  0  0  0  0  0
    0.5880   20.2860  -33.2370 H   0  0  0  0  0  0  0  0  0  0  0  0
   -0.6979   20.6742  -30.1976 H   0  0  0  0  0  0  0  0  0  0  0  0
    0.3776   21.6083  -31.2569 H   0  0  0  0  0  0  0  0  0  0  0  0
   -0.5153   22.9314  -29.3402 H   0  0  0  0  0  0  0  0  0  0  0  0
   -1.0069   23.5844  -30.9743 H   0  0  0  0  0  0  0  0  0  0  0  0
   -3.5324   24.2366  -27.0200 H   0  0  0  0  0  0  0  0  0  0  0  0
   -4.8333   25.0453  -27.9583 H   0  0  0  0  0  0  0  0  0  0  0  0
   -4.7071   23.2535  -27.9583 H   0  0  0  0  0  0  0  0  0  0  0  0
   -3.7545   21.2664  -30.6784 H   0  0  0  0  0  0  0  0  0  0  0  0
   -4.2754   22.9419  -30.9876 H   0  0  0  0  0  0  0  0  0  0  0  0
   -3.2563   22.0136  -33.0650 H   0  0  0  0  0  0  0  0  0  0  0  0
   -2.1747   23.2630  -32.4461 H   0  0  0  0  0  0  0  0  0  0  0  0
   -4.7822   19.7411  -34.6348 H   0  0  0  0  0  0  0  0  0  0  0  0
   -7.0421   20.4173  -33.8636 H   0  0  0  0  0  0  0  0  0  0  0  0
   -8.8720   20.5226  -30.2249 H   0  0  0  0  0  0  0  0  0  0  0  0
   -7.9576   21.2549  -31.5866 H   0  0  0  0  0  0  0  0  0  0  0  0
   -9.7534   21.2942  -31.5866 H   0  0  0  0  0  0  0  0  0  0  0  0
   -7.3121   16.7611  -31.5983 H   0  0  0  0  0  0  0  0  0  0  0  0
   -5.0450   16.1026  -32.3806 H   0  0  0  0  0  0  0  0  0  0  0  0
   -2.0949   16.1298  -35.3925 H   0  0  0  0  0  0  0  0  0  0  0  0
   -1.7014   14.3763  -36.0747 H   0  0  0  0  0  0  0  0  0  0  0  0
   -1.6724   15.3839  -37.5615 H   0  0  0  0  0  0  0  0  0  0  0  0
   -0.9032   13.7606  -37.5615 H   0  0  0  0  0  0  0  0  0  0  0  0
  1  2  1  0
  2  3  1  0
  3  4  2  0
  4  5  1  0
  5  6  1  0
  6  7  1  0
  7  8  1  0
  8  9  1  0
  9 10  1  0
 10 11  1  0
 11 12  1  0
 12 13  1  0
 12 14  2  0
 12 15  2  0
 11 16  1  0
 16 17  1  0
  7 18  2  0
 18 19  1  0
 19 20  2  0
 20 21  1  0
 21 22  2  0
 22 23  1  0
 23 24  2  0
 24 25  1  0
 25 26  1  0
 25 27  2  0
 25 28  2  0
 24 29  1  0
 29 30  2  0
 19 31  1  0
 31 32  1  0
 32 33  2  0
 33 34  1  0
 34 35  1  0
 33  3  1  0
 31  5  2  0
 17  8  1  0
 30 21  1  0
  1 36  1  0
  1 37  1  0
  1 38  1  0
  4 39  1  0
  6 40  1  0
  9 41  1  0
  9 42  1  0
 10 43  1  0
 10 44  1  0
 13 45  1  0
 13 46  1  0
 13 47  1  0
 16 48  1  0
 16 49  1  0
 17 50  1  0
 17 51  1  0
 22 52  1  0
 23 53  1  0
 26 54  1  0
 26 55  1  0
 26 56  1  0
 29 57  1  0
 30 58  1  0
 32 59  1  0
 35 60  1  0
 35 61  1  0
 35 62  1  0
M  END
>  <smiles>  (14) 
COc1cc2[nH]c(N3CCN(S(C)(=O)=O)CC3)nc(=Nc3ccc(S(C)(=O)=O)cc3)c2cc1OC

>  <score_type>  (14) 
oracle

>  <origin>  (14) 
adgpu

>  <m_score__min__energy>  (14) 
-9.8699999999999992

>  <m_primary>  (14) 
energy

$$$$
14:0
     RDKit          3D

 79 81  0  0  0  0  0  0  0  0999 V2000
   -8.1180   20.0640  -32.4370 C   0  0  0  0  0  0  0  0  0  0  0  0
   -7.6780   20.8850  -31.2300 C   0  0  0  0  0  0  0  0  0  0  0  0
   -6.6810   21.8880  -31.6190 N   0  0  0  0  0  0  0  0  0  0  0  0
   -7.0970   23.2000  -32.1280 C   0  0  0  0  0  0  0  0  0  0  0  0
   -8.6030   23.3900  -31.9870 C   0  0  0  0  0  0  0  0  0  0  0  0
   -5.2880   21.5450  -31.5780 C   0  0  0  0  0  0  0  0  0  0  0  0
   -4.7970   20.5220  -32.4010 C   0  0  0  0  0  0  0  0  0  0  0  0
   -3.4410   20.1900  -32.3790 C   0  0  0  0  0  0  0  0  0  0  0  0
   -2.5610   20.8840  -31.5390 C   0  0  0  0  0  0  0  0  0  0  0  0
   -0.8580   20.4460  -31.5000 S   0  0  0  0  0  0  0  0  0  0  0  0
   -0.0090   21.6020  -31.9470 O   0  0  0  0  0  0  0  0  0  0  0  0
   -0.6250   19.3040  -32.4480 O   0  0  0  0  0  0  0  0  0  0  0  0
   -0.4240   19.9450  -29.8970 N   0  0  0  0  0  0  0  0  0  0  0  0
   -0.5740   20.7960  -28.7510 C   0  0  0  0  0  0  0  0  0  0  0  0
   -0.2410   22.1570  -28.8340 C   0  0  0  0  0  0  0  0  0  0  0  0
   -0.3640   22.9950  -27.7190 C   0  0  0  0  0  0  0  0  0  0  0  0
    0.0070   24.7150  -27.8570 S   0  0  0  0  0  0  0  0  0  0  0  0
   -0.8210   25.3080  -28.9630 O   0  0  0  0  0  0  0  0  0  0  0  0
    1.4560   24.8880  -28.2170 O   0  0  0  0  0  0  0  0  0  0  0  0
   -0.3110   25.5610  -26.3630 N   0  0  0  0  0  0  0  0  0  0  0  0
    0.0770   26.9750  -26.4760 C   0  0  0  0  0  0  0  0  0  0  0  0
    0.0500   27.6430  -25.0890 C   0  0  0  0  0  0  0  0  0  0  0  0
   -0.9420   26.9640  -24.1280 C   0  0  0  0  0  0  0  0  0  0  0  0
   -2.1570   26.4150  -24.8810 C   0  0  0  0  0  0  0  0  0  0  0  0
   -1.7380   25.4300  -25.9960 C   0  0  0  0  0  0  0  0  0  0  0  0
   -0.7950   22.4640  -26.4990 C   0  0  0  0  0  0  0  0  0  0  0  0
   -1.1100   21.1110  -26.3980 C   0  0  0  0  0  0  0  0  0  0  0  0
   -1.0130   20.2680  -27.5160 C   0  0  0  0  0  0  0  0  0  0  0  0
   -1.4020   18.8860  -27.3980 N   0  0  0  0  0  0  0  0  0  0  0  0
   -0.4520   17.8790  -27.8940 C   0  0  0  0  0  0  0  0  0  0  0  0
    0.9920   18.2360  -27.5410 C   0  0  0  0  0  0  0  0  0  0  0  0
   -2.3670   18.4920  -26.3530 C   0  0  0  0  0  0  0  0  0  0  0  0
   -3.7990   18.9240  -26.6840 C   0  0  0  0  0  0  0  0  0  0  0  0
   -3.0470   21.9120  -30.7220 C   0  0  0  0  0  0  0  0  0  0  0  0
   -4.4050   22.2630  -30.7530 C   0  0  0  0  0  0  0  0  0  0  0  0
   -4.9050   23.3190  -29.9240 N   0  0  0  0  0  0  0  0  0  0  0  0
   -4.7380   24.7160  -30.1940 C   0  0  0  0  0  0  0  0  0  0  0  0
   -5.8870   25.6740  -30.0970 C   0  0  0  0  0  0  0  0  0  0  0  0
   -3.5900   25.1520  -30.4700 O   0  0  0  0  0  0  0  0  0  0  0  0
   -8.6116   19.1429  -32.0937 H   0  0  0  0  0  0  0  0  0  0  0  0
   -8.8215   20.6526  -33.0441 H   0  0  0  0  0  0  0  0  0  0  0  0
   -7.2383   19.8041  -33.0441 H   0  0  0  0  0  0  0  0  0  0  0  0
   -8.5538   21.3942  -30.8013 H   0  0  0  0  0  0  0  0  0  0  0  0
   -7.2277   20.2089  -30.4883 H   0  0  0  0  0  0  0  0  0  0  0  0
   -6.5806   23.9867  -31.5585 H   0  0  0  0  0  0  0  0  0  0  0  0
   -6.8352   23.2604  -33.1947 H   0  0  0  0  0  0  0  0  0  0  0  0
   -8.8701   23.4237  -30.9204 H   0  0  0  0  0  0  0  0  0  0  0  0
   -8.9004   24.3328  -32.4694 H   0  0  0  0  0  0  0  0  0  0  0  0
   -9.1252   22.5506  -32.4694 H   0  0  0  0  0  0  0  0  0  0  0  0
   -5.4831   19.9784  -33.0671 H   0  0  0  0  0  0  0  0  0  0  0  0
   -3.0631   19.3819  -33.0226 H   0  0  0  0  0  0  0  0  0  0  0  0
   -0.2750   18.9230  -29.7580 H   0  0  0  0  0  0  0  0  0  0  0  0
    0.1211   22.5704  -29.7869 H   0  0  0  0  0  0  0  0  0  0  0  0
    1.0931   27.0414  -26.8922 H   0  0  0  0  0  0  0  0  0  0  0  0
   -0.6331   27.4916  -27.1385 H   0  0  0  0  0  0  0  0  0  0  0  0
    1.0579   27.5893  -24.6517 H   0  0  0  0  0  0  0  0  0  0  0  0
   -0.2761   28.6846  -25.2256 H   0  0  0  0  0  0  0  0  0  0  0  0
   -0.4334   26.1346  -23.6148 H   0  0  0  0  0  0  0  0  0  0  0  0
   -1.2919   27.7134  -23.4028 H   0  0  0  0  0  0  0  0  0  0  0  0
   -2.8113   25.8908  -24.1689 H   0  0  0  0  0  0  0  0  0  0  0  0
   -2.6828   27.2605  -25.3486 H   0  0  0  0  0  0  0  0  0  0  0  0
   -1.9189   24.4032  -25.6455 H   0  0  0  0  0  0  0  0  0  0  0  0
   -2.3351   25.6643  -26.8897 H   0  0  0  0  0  0  0  0  0  0  0  0
   -0.8854   23.1160  -25.6177 H   0  0  0  0  0  0  0  0  0  0  0  0
   -1.4381   20.6990  -25.4323 H   0  0  0  0  0  0  0  0  0  0  0  0
   -0.6980   16.9058  -27.4442 H   0  0  0  0  0  0  0  0  0  0  0  0
   -0.5360   17.8413  -28.9901 H   0  0  0  0  0  0  0  0  0  0  0  0
    1.1059   18.2641  -26.4473 H   0  0  0  0  0  0  0  0  0  0  0  0
    1.6701   17.4785  -27.9609 H   0  0  0  0  0  0  0  0  0  0  0  0
    1.2390   19.2223  -27.9609 H   0  0  0  0  0  0  0  0  0  0  0  0
   -2.3444   17.3974  -26.2466 H   0  0  0  0  0  0  0  0  0  0  0  0
   -2.0733   18.9952  -25.4200 H   0  0  0  0  0  0  0  0  0  0  0  0
   -4.3563   19.0921  -25.7506 H   0  0  0  0  0  0  0  0  0  0  0  0
   -3.7751   19.8549  -27.2695 H   0  0  0  0  0  0  0  0  0  0  0  0
   -4.2939   18.1352  -27.2695 H   0  0  0  0  0  0  0  0  0  0  0  0
   -2.3594   22.4481  -30.0513 H   0  0  0  0  0  0  0  0  0  0  0  0
   -6.1165   25.8653  -29.0384 H   0  0  0  0  0  0  0  0  0  0  0  0
   -5.6186   26.6196  -30.5907 H   0  0  0  0  0  0  0  0  0  0  0  0
   -6.7690   25.2400  -30.5907 H   0  0  0  0  0  0  0  0  0  0  0  0
  1  2  1  0
  2  3  1  0
  3  4  1  0
  4  5  1  0
  3  6  1  0
  6  7  2  0
  7  8  1  0
  8  9  2  0
  9 10  1  0
 10 11  2  0
 10 12  2  0
 10 13  1  0
 13 14  1  0
 14 15  2  0
 15 16  1  0
 16 17  1  0
 17 18  2  0
 17 19  2  0
 17 20  1  0
 20 21  1  0
 21 22  1  0
 22 23  1  0
 23 24  1  0
 24 25  1  0
 16 26  2  0
 26 27  1  0
 27 28  2  0
 28 29  1  0
 29 30  1  0
 30 31  1  0
 29 32  1  0
 32 33  1  0
  9 34  1  0
 34 35  2  0
 35 36  1  0
 36 37  1  0
 37 38  1  0
 37 39  2  0
 35  6  1  0
 28 14  1  0
 25 20  1  0
  1 40  1  0
  1 41  1  0
  1 42  1  0
  2 43  1  0
  2 44  1  0
  4 45  1  0
  4 46  1  0
  5 47  1  0
  5 48  1  0
  5 49  1  0
  7 50  1  0
  8 51  1  0
 13 52  1  0
 15 53  1  0
 21 54  1  0
 21 55  1  0
 22 56  1  0
 22 57  1  0
 23 58  1  0
 23 59  1  0
 24 60  1  0
 24 61  1  0
 25 62  1  0
 25 63  1  0
 26 64  1  0
 27 65  1  0
 30 66  1  0
 30 67  1  0
 31 68  1  0
 31 69  1  0
 31 70  1  0
 32 71  1  0
 32 72  1  0
 33 73  1  0
 33 74  1  0
 33 75  1  0
 34 76  1  0
 38 77  1  0
 38 78  1  0
 38 79  1  0
M  CHG  1  36  -1
M  END
>  <UniqueID>  (15) 
14

>  <SMILES>  (15) 
CCN(CC)c1ccc(S(=O)(=O)Nc2cc(S(=O)(=O)N3CCCCC3)ccc2N(CC)CC)cc1[N-]C(C)=O

>  <Energy>  (15) 
85.23249986831975

>  <Genealogy>  (15) 
CCN(CC)c1ccc(S(=O)(=O)Nc2cc(S(=O)(=O)N3CCCCC3)ccc2N(CC)CC)cc1[N-]C(C)=O (protonated)
CCN(CC)c1ccc(S(=O)(=O)Nc2cc(S(=O)(=O)N3CCCCC3)ccc2N(CC)CC)cc1[N-]C(C)=O (3D coordinates assigned)
CCN(CC)c1ccc(S(=O)(=O)Nc2cc(S(=O)(=O)N3CCCCC3)ccc2N(CC)CC)cc1[N-]C(C)=O (nonaromatic ring conformer: 85.23249986831975 kcal/mol)

>  <smiles>  (15) 
CCN(CC)c1ccc(S(=O)(=O)Nc2cc(S(=O)(=O)N3CCCCC3)ccc2N(CC)CC)cc1NC(C)=O

>  <score_type>  (15) 
oracle

>  <origin>  (15) 
adgpu

>  <m_score__min__energy>  (15) 
-11.94

>  <m_primary>  (15) 
energy

$$$$
15:0
     RDKit          3D

 52 55  0  0  0  0  0  0  0  0999 V2000
   -4.2660   15.8920  -34.5550 C   0  0  0  0  0  0  0  0  0  0  0  0
   -5.5160   16.5620  -34.1680 N   0  0  0  0  0  0  0  0  0  0  0  0
   -5.7310   17.8060  -34.9580 C   0  0  0  0  0  0  0  0  0  0  0  0
   -5.8890   19.0710  -34.1050 C   0  0  0  0  0  0  0  0  0  0  0  0
   -6.8360   18.8210  -33.0200 N   0  0  0  0  0  0  0  0  0  0  0  0
   -7.6530   19.8910  -32.5280 C   0  0  0  0  0  0  0  0  0  0  0  0
   -9.0470   19.8040  -32.6650 C   0  0  0  0  0  0  0  0  0  0  0  0
   -9.8690   20.8460  -32.2310 C   0  0  0  0  0  0  0  0  0  0  0  0
   -9.3100   21.9880  -31.6600 C   0  0  0  0  0  0  0  0  0  0  0  0
   -7.9200   22.0960  -31.5030 C   0  0  0  0  0  0  0  0  0  0  0  0
   -7.3600   23.2480  -30.9340 C   0  0  0  0  0  0  0  0  0  0  0  0
   -5.9710   23.3590  -30.7830 C   0  0  0  0  0  0  0  0  0  0  0  0
   -5.2540   24.8450  -30.1610 S   0  0  0  0  0  0  0  0  0  0  0  0
   -6.3390   25.8700  -30.0030 O   0  0  0  0  0  0  0  0  0  0  0  0
   -4.2140   25.3710  -31.1100 O   0  0  0  0  0  0  0  0  0  0  0  0
   -4.5120   24.5510  -28.6190 N   0  0  0  0  0  0  0  0  0  0  0  0
   -3.3030   23.7910  -28.4590 C   0  0  0  0  0  0  0  0  0  0  0  0
   -3.3330   22.4720  -27.9690 C   0  0  0  0  0  0  0  0  0  0  0  0
   -2.1420   21.7520  -27.7590 C   0  0  0  0  0  0  0  0  0  0  0  0
   -2.1770   20.3810  -27.1970 C   0  0  0  0  0  0  0  0  0  0  0  0
   -3.1230   19.5990  -27.4740 O   0  0  0  0  0  0  0  0  0  0  0  0
   -1.1680   19.9430  -26.3470 O   0  0  0  0  0  0  0  0  0  0  0  0
   -0.9160   22.3550  -28.0800 C   0  0  0  0  0  0  0  0  0  0  0  0
   -0.8810   23.6500  -28.5980 C   0  0  0  0  0  0  0  0  0  0  0  0
   -2.0630   24.3690  -28.7850 C   0  0  0  0  0  0  0  0  0  0  0  0
   -1.9990   25.6660  -29.2870 O   0  0  0  0  0  0  0  0  0  0  0  0
   -5.1430   22.3010  -31.1730 C   0  0  0  0  0  0  0  0  0  0  0  0
   -5.6890   21.1480  -31.7420 C   0  0  0  0  0  0  0  0  0  0  0  0
   -7.0790   21.0350  -31.9310 C   0  0  0  0  0  0  0  0  0  0  0  0
   -6.7760   17.5640  -32.2740 C   0  0  0  0  0  0  0  0  0  0  0  0
   -5.5580   16.7390  -32.7010 C   0  0  0  0  0  0  0  0  0  0  0  0
   -3.7136   15.5959  -33.6510 H   0  0  0  0  0  0  0  0  0  0  0  0
   -4.4988   14.9978  -35.1518 H   0  0  0  0  0  0  0  0  0  0  0  0
   -3.6502   16.5810  -35.1518 H   0  0  0  0  0  0  0  0  0  0  0  0
   -4.8675   17.9450  -35.6251 H   0  0  0  0  0  0  0  0  0  0  0  0
   -6.6752   17.6738  -35.5066 H   0  0  0  0  0  0  0  0  0  0  0  0
   -4.9131   19.3499  -33.6810 H   0  0  0  0  0  0  0  0  0  0  0  0
   -6.2665   19.8895  -34.7354 H   0  0  0  0  0  0  0  0  0  0  0  0
   -9.4957   18.9076  -33.1180 H   0  0  0  0  0  0  0  0  0  0  0  0
  -10.9606   20.7654  -32.3400 H   0  0  0  0  0  0  0  0  0  0  0  0
   -9.9627   22.8098  -31.3304 H   0  0  0  0  0  0  0  0  0  0  0  0
   -8.0138   24.0689  -30.6044 H   0  0  0  0  0  0  0  0  0  0  0  0
   -5.0680   24.8130  -27.7760 H   0  0  0  0  0  0  0  0  0  0  0  0
   -4.3002   21.9974  -27.7472 H   0  0  0  0  0  0  0  0  0  0  0  0
    0.0226   21.8035  -27.9223 H   0  0  0  0  0  0  0  0  0  0  0  0
    0.0842   24.1075  -28.8608 H   0  0  0  0  0  0  0  0  0  0  0  0
   -4.0549   22.3775  -31.0307 H   0  0  0  0  0  0  0  0  0  0  0  0
   -5.0278   20.3225  -32.0445 H   0  0  0  0  0  0  0  0  0  0  0  0
   -6.7035   17.7852  -31.1989 H   0  0  0  0  0  0  0  0  0  0  0  0
   -7.6871   16.9843  -32.4836 H   0  0  0  0  0  0  0  0  0  0  0  0
   -4.6432   17.2564  -32.3763 H   0  0  0  0  0  0  0  0  0  0  0  0
   -5.6305   15.7459  -32.2336 H   0  0  0  0  0  0  0  0  0  0  0  0
  1  2  1  0
  2  3  1  0
  3  4  1  0
  4  5  1  0
  5  6  1  0
  6  7  2  0
  7  8  1  0
  8  9  2  0
  9 10  1  0
 10 11  2  0
 11 12  1  0
 12 13  1  0
 13 14  2  0
 13 15  2  0
 13 16  1  0
 16 17  1  0
 17 18  2  0
 18 19  1  0
 19 20  1  0
 20 21  2  0
 20 22  1  0
 19 23  2  0
 23 24  1  0
 24 25  2  0
 25 26  1  0
 12 27  2  0
 27 28  1  0
 28 29  2  0
  5 30  1  0
 30 31  1  0
 31  2  1  0
 29  6  1  0
 29 10  1  0
 25 17  1  0
  1 32  1  0
  1 33  1  0
  1 34  1  0
  3 35  1  0
  3 36  1  0
  4 37  1  0
  4 38  1  0
  7 39  1  0
  8 40  1  0
  9 41  1  0
 11 42  1  0
 16 43  1  0
 18 44  1  0
 23 45  1  0
 24 46  1  0
 27 47  1  0
 28 48  1  0
 30 49  1  0
 30 50  1  0
 31 51  1  0
 31 52  1  0
M  CHG  2  22  -1  26  -1
M  END
>  <UniqueID>  (16) 
15

>  <SMILES>  (16) 
CN1CCN(c2cccc3cc(S(=O)(=O)Nc4cc(C(=O)[O-])ccc4[O-])ccc23)CC1

>  <Energy>  (16) 
74.39704948372002

>  <Genealogy>  (16) 
CN1CCN(c2cccc3cc(S(=O)(=O)Nc4cc(C(=O)[O-])ccc4[O-])ccc23)CC1 (protonated)
CN1CCN(c2cccc3cc(S(=O)(=O)Nc4cc(C(=O)[O-])ccc4[O-])ccc23)CC1 (3D coordinates assigned)
CN1CCN(c2cccc3cc(S(=O)(=O)Nc4cc(C(=O)[O-])ccc4[O-])ccc23)CC1 (nonaromatic ring conformer: 74.39704948372002 kcal/mol)

>  <smiles>  (16) 
CN1CCN(c2cccc3cc(S(=O)(=O)Nc4cc(C(=O)O)ccc4O)ccc23)CC1

>  <score_type>  (16) 
oracle

>  <origin>  (16) 
adgpu

>  <m_score__min__energy>  (16) 
-15.07

>  <m_primary>  (16) 
energy

$$$$
16:0
     RDKit          3D

 39 41  0  0  0  0  0  0  0  0999 V2000
   -3.2120   20.4210  -33.0380 C   0  0  0  0  0  0  0  0  0  0  0  0
   -4.4050   21.3700  -33.0980 C   0  0  0  0  0  0  0  0  0  0  0  0
   -5.6990   20.6140  -32.9780 C   0  0  0  0  0  0  0  0  0  0  0  0
   -5.8610   19.3070  -33.4010 C   0  0  0  0  0  0  0  0  0  0  0  0
   -7.1510   18.9430  -33.0850 C   0  0  0  0  0  0  0  0  0  0  0  0
   -7.7310   20.0410  -32.4820 C   0  0  0  0  0  0  0  0  0  0  0  0
   -9.1230   20.0620  -31.9250 C   0  0  0  0  0  0  0  0  0  0  0  0
   -6.8420   21.0580  -32.3980 N   0  0  0  0  0  0  0  0  0  0  0  0
   -7.1550   22.6070  -31.6560 S   0  0  0  0  0  0  0  0  0  0  0  0
   -8.3180   22.4620  -30.7140 O   0  0  0  0  0  0  0  0  0  0  0  0
   -7.4900   23.6570  -32.6750 O   0  0  0  0  0  0  0  0  0  0  0  0
   -5.7200   23.1340  -30.7840 C   0  0  0  0  0  0  0  0  0  0  0  0
   -5.3700   24.4890  -30.7830 C   0  0  0  0  0  0  0  0  0  0  0  0
   -4.2250   24.9200  -30.1070 C   0  0  0  0  0  0  0  0  0  0  0  0
   -3.4130   24.0020  -29.4160 C   0  0  0  0  0  0  0  0  0  0  0  0
   -2.2310   24.4440  -28.7190 N   0  0  0  0  0  0  0  0  0  0  0  0
   -2.1730   25.1200  -27.5560 C   0  0  0  0  0  0  0  0  0  0  0  0
   -0.8490   25.3410  -27.2540 C   0  0  0  0  0  0  0  0  0  0  0  0
   -0.0710   24.8070  -28.2160 N   0  0  0  0  0  0  0  0  0  0  0  0
   -0.9440   24.2700  -29.0930 C   0  0  0  0  0  0  0  0  0  0  0  0
   -3.7760   22.6420  -29.4190 C   0  0  0  0  0  0  0  0  0  0  0  0
   -4.9210   22.2130  -30.0970 C   0  0  0  0  0  0  0  0  0  0  0  0
   -2.9572   20.2183  -31.9873 H   0  0  0  0  0  0  0  0  0  0  0  0
   -3.4684   19.4773  -33.5417 H   0  0  0  0  0  0  0  0  0  0  0  0
   -2.3502   20.8831  -33.5417 H   0  0  0  0  0  0  0  0  0  0  0  0
   -4.3322   22.0926  -32.2718 H   0  0  0  0  0  0  0  0  0  0  0  0
   -4.3911   21.8910  -34.0667 H   0  0  0  0  0  0  0  0  0  0  0  0
   -5.1048   18.6791  -33.8949 H   0  0  0  0  0  0  0  0  0  0  0  0
   -7.6257   17.9692  -33.2755 H   0  0  0  0  0  0  0  0  0  0  0  0
   -9.0782   20.0613  -30.8259 H   0  0  0  0  0  0  0  0  0  0  0  0
   -9.6424   20.9681  -32.2702 H   0  0  0  0  0  0  0  0  0  0  0  0
   -9.6695   19.1720  -32.2702 H   0  0  0  0  0  0  0  0  0  0  0  0
   -5.9983   25.2176  -31.3162 H   0  0  0  0  0  0  0  0  0  0  0  0
   -3.9563   25.9866  -30.1153 H   0  0  0  0  0  0  0  0  0  0  0  0
   -3.0348   25.4401  -26.9520 H   0  0  0  0  0  0  0  0  0  0  0  0
   -0.4818   25.8723  -26.3636 H   0  0  0  0  0  0  0  0  0  0  0  0
   -0.6414   23.7474  -30.0124 H   0  0  0  0  0  0  0  0  0  0  0  0
   -3.1534   21.9103  -28.8832 H   0  0  0  0  0  0  0  0  0  0  0  0
   -5.1949   21.1477  -30.0904 H   0  0  0  0  0  0  0  0  0  0  0  0
  1  2  1  0
  2  3  1  0
  3  4  2  0
  4  5  1  0
  5  6  2  0
  6  7  1  0
  6  8  1  0
  8  9  1  0
  9 10  2  0
  9 11  2  0
  9 12  1  0
 12 13  2  0
 13 14  1  0
 14 15  2  0
 15 16  1  0
 16 17  1  0
 17 18  2  0
 18 19  1  0
 19 20  2  0
 15 21  1  0
 21 22  2  0
  8  3  1  0
 22 12  1  0
 20 16  1  0
  1 23  1  0
  1 24  1  0
  1 25  1  0
  2 26  1  0
  2 27  1  0
  4 28  1  0
  5 29  1  0
  7 30  1  0
  7 31  1  0
  7 32  1  0
 13 33  1  0
 14 34  1  0
 17 35  1  0
 18 36  1  0
 20 37  1  0
 21 38  1  0
 22 39  1  0
M  END
>  <UniqueID>  (17) 
16

>  <SMILES>  (17) 
CCc1ccc(C)n1S(=O)(=O)c1ccc(-n2ccnc2)cc1

>  <Energy>  (17) 
98.06603764737753

>  <Genealogy>  (17) 
CCc1ccc(C)n1S(=O)(=O)c1ccc(-n2ccnc2)cc1 (3D coordinates assigned)
CCc1ccc(C)n1S(=O)(=O)c1ccc(-n2ccnc2)cc1 (optimized conformer: 98.06603764737753 kcal/mol)

>  <smiles>  (17) 
CCc1ccc(C)n1S(=O)(=O)c1ccc(-n2ccnc2)cc1

>  <score_type>  (17) 
oracle

>  <origin>  (17) 
adgpu

>  <m_score__min__energy>  (17) 
-7.9699999999999998

>  <m_primary>  (17) 
energy

$$$$
17:0
     RDKit          3D

 68 72  0  0  0  0  0  0  0  0999 V2000
   -0.0970   21.5490  -30.5630 N   0  0  0  0  0  0  0  0  0  0  0  0
   -1.2610   21.7650  -31.3710 C   0  0  0  0  0  0  0  0  0  0  0  0
   -2.3650   22.4210  -30.8020 C   0  0  0  0  0  0  0  0  0  0  0  0
   -3.5560   22.5920  -31.5250 C   0  0  0  0  0  0  0  0  0  0  0  0
   -4.7140   23.2920  -30.9170 C   0  0  0  0  0  0  0  0  0  0  0  0
   -5.9500   22.6270  -30.8070 C   0  0  0  0  0  0  0  0  0  0  0  0
   -7.0580   23.2670  -30.2420 C   0  0  0  0  0  0  0  0  0  0  0  0
   -8.2970   22.5610  -30.1430 N   0  0  0  0  0  0  0  0  0  0  0  0
   -9.1150   21.8960  -31.5210 S   0  0  0  0  0  0  0  0  0  0  0  0
   -9.1620   22.9260  -32.6140 O   0  0  0  0  0  0  0  0  0  0  0  0
  -10.5250   21.5470  -31.1330 O   0  0  0  0  0  0  0  0  0  0  0  0
   -8.3040   20.4470  -32.1020 C   0  0  0  0  0  0  0  0  0  0  0  0
   -8.6980   19.1830  -31.6390 C   0  0  0  0  0  0  0  0  0  0  0  0
   -7.9830   18.0430  -32.0170 C   0  0  0  0  0  0  0  0  0  0  0  0
   -6.8640   18.1570  -32.8550 C   0  0  0  0  0  0  0  0  0  0  0  0
   -5.9080   16.7290  -33.2580 S   0  0  0  0  0  0  0  0  0  0  0  0
   -5.6280   15.9530  -32.0010 O   0  0  0  0  0  0  0  0  0  0  0  0
   -6.6980   15.8460  -34.1840 O   0  0  0  0  0  0  0  0  0  0  0  0
   -4.3960   17.1620  -34.0200 N   0  0  0  0  0  0  0  0  0  0  0  0
   -3.5580   17.9500  -33.0990 C   0  0  0  0  0  0  0  0  0  0  0  0
   -2.1410   18.1390  -33.6790 C   0  0  0  0  0  0  0  0  0  0  0  0
   -2.0890   17.7470  -35.0380 O   0  0  0  0  0  0  0  0  0  0  0  0
   -2.3530   16.3580  -35.1470 C   0  0  0  0  0  0  0  0  0  0  0  0
   -3.6740   15.9580  -34.4550 C   0  0  0  0  0  0  0  0  0  0  0  0
   -6.4880   19.4170  -33.3370 C   0  0  0  0  0  0  0  0  0  0  0  0
   -7.2020   20.5580  -32.9610 C   0  0  0  0  0  0  0  0  0  0  0  0
   -6.9510   24.6010  -29.8260 C   0  0  0  0  0  0  0  0  0  0  0  0
   -5.7280   25.2670  -29.9160 C   0  0  0  0  0  0  0  0  0  0  0  0
   -4.6080   24.6180  -30.4460 C   0  0  0  0  0  0  0  0  0  0  0  0
   -3.3910   25.2940  -30.4850 O   0  0  0  0  0  0  0  0  0  0  0  0
   -3.6280   22.1160  -32.8410 C   0  0  0  0  0  0  0  0  0  0  0  0
   -2.5330   21.4780  -33.4250 C   0  0  0  0  0  0  0  0  0  0  0  0
   -1.3410   21.2940  -32.7050 C   0  0  0  0  0  0  0  0  0  0  0  0
   -0.1930   20.6410  -33.3800 C   0  0  0  0  0  0  0  0  0  0  0  0
    0.5400   19.8510  -32.7290 O   0  0  0  0  0  0  0  0  0  0  0  0
    0.1660   20.9560  -34.7320 N   0  0  0  0  0  0  0  0  0  0  0  0
    1.3300   21.6840  -35.1500 C   0  0  0  0  0  0  0  0  0  0  0  0
    2.5810   21.0630  -35.0470 C   0  0  0  0  0  0  0  0  0  0  0  0
    3.7430   21.7420  -35.4240 C   0  0  0  0  0  0  0  0  0  0  0  0
    3.6610   23.0450  -35.9160 C   0  0  0  0  0  0  0  0  0  0  0  0
    2.4160   23.6630  -36.0570 C   0  0  0  0  0  0  0  0  0  0  0  0
    1.2440   22.9830  -35.6950 C   0  0  0  0  0  0  0  0  0  0  0  0
    0.0020   23.5840  -35.9010 O   0  0  0  0  0  0  0  0  0  0  0  0
    0.6870   20.9310  -30.8670 H   0  0  0  0  0  0  0  0  0  0  0  0
   -0.0410   21.9460  -29.5970 H   0  0  0  0  0  0  0  0  0  0  0  0
   -2.2952   22.8066  -29.7742 H   0  0  0  0  0  0  0  0  0  0  0  0
   -6.0454   21.5928  -31.1693 H   0  0  0  0  0  0  0  0  0  0  0  0
   -9.5715   19.0887  -30.9771 H   0  0  0  0  0  0  0  0  0  0  0  0
   -8.2989   17.0531  -31.6561 H   0  0  0  0  0  0  0  0  0  0  0  0
   -4.0198   18.9364  -32.9448 H   0  0  0  0  0  0  0  0  0  0  0  0
   -3.4803   17.4118  -32.1428 H   0  0  0  0  0  0  0  0  0  0  0  0
   -1.8593   19.1994  -33.6002 H   0  0  0  0  0  0  0  0  0  0  0  0
   -1.4432   17.5094  -33.1074 H   0  0  0  0  0  0  0  0  0  0  0  0
   -2.4170   16.0924  -36.2125 H   0  0  0  0  0  0  0  0  0  0  0  0
   -1.5343   15.8190  -34.6478 H   0  0  0  0  0  0  0  0  0  0  0  0
   -4.2995   15.3932  -35.1620 H   0  0  0  0  0  0  0  0  0  0  0  0
   -3.4484   15.3344  -33.5774 H   0  0  0  0  0  0  0  0  0  0  0  0
   -5.6265   19.5090  -34.0148 H   0  0  0  0  0  0  0  0  0  0  0  0
   -6.8986   21.5451  -33.3399 H   0  0  0  0  0  0  0  0  0  0  0  0
   -7.8329   25.1242  -29.4277 H   0  0  0  0  0  0  0  0  0  0  0  0
   -5.6444   26.3073  -29.5685 H   0  0  0  0  0  0  0  0  0  0  0  0
   -4.5552   22.2463  -33.4183 H   0  0  0  0  0  0  0  0  0  0  0  0
   -2.6041   21.1150  -34.4610 H   0  0  0  0  0  0  0  0  0  0  0  0
    2.6496   20.0332  -34.6666 H   0  0  0  0  0  0  0  0  0  0  0  0
    4.7222   21.2491  -35.3328 H   0  0  0  0  0  0  0  0  0  0  0  0
    4.5776   23.5863  -36.1932 H   0  0  0  0  0  0  0  0  0  0  0  0
    2.3547   24.6872  -36.4536 H   0  0  0  0  0  0  0  0  0  0  0  0
   -0.8650   23.0960  -35.7050 H   0  0  0  0  0  0  0  0  0  0  0  0
  1  2  1  0
  2  3  2  0
  3  4  1  0
  4  5  1  0
  5  6  2  0
  6  7  1  0
  7  8  1  0
  8  9  1  0
  9 10  2  0
  9 11  2  0
  9 12  1  0
 12 13  2  0
 13 14  1  0
 14 15  2  0
 15 16  1  0
 16 17  2  0
 16 18  2  0
 16 19  1  0
 19 20  1  0
 20 21  1  0
 21 22  1  0
 22 23  1  0
 23 24  1  0
 15 25  1  0
 25 26  2  0
  7 27  2  0
 27 28  1  0
 28 29  2  0
 29 30  1  0
  4 31  2  0
 31 32  1  0
 32 33  2  0
 33 34  1  0
 34 35  2  0
 34 36  1  0
 36 37  1  0
 37 38  2  0
 38 39  1  0
 39 40  2  0
 40 41  1  0
 41 42  2  0
 42 43  1  0
 33  2  1  0
 42 37  1  0
 29  5  1  0
 26 12  1  0
 24 19  1  0
  1 44  1  0
  1 45  1  0
  3 46  1  0
  6 47  1  0
 13 48  1  0
 14 49  1  0
 20 50  1  0
 20 51  1  0
 21 52  1  0
 21 53  1  0
 23 54  1  0
 23 55  1  0
 24 56  1  0
 24 57  1  0
 25 58  1  0
 26 59  1  0
 27 60  1  0
 28 61  1  0
 31 62  1  0
 32 63  1  0
 38 64  1  0
 39 65  1  0
 40 66  1  0
 41 67  1  0
 43 68  1  0
M  CHG  3   8  -1  30  -1  36  -1
M  END
>  <UniqueID>  (18) 
17

>  <SMILES>  (18) 
Nc1cc(-c2cc([N-]S(=O)(=O)c3ccc(S(=O)(=O)N4CCOCC4)cc3)ccc2[O-])ccc1C(=O)[N-]c1ccccc1O

>  <Energy>  (18) 
105.39381641556037

>  <Genealogy>  (18) 
Nc1cc(-c2cc([N-]S(=O)(=O)c3ccc(S(=O)(=O)N4CCOCC4)cc3)ccc2[O-])ccc1C(=O)[N-]c1ccccc1O (protonated)
Nc1cc(-c2cc([N-]S(=O)(=O)c3ccc(S(=O)(=O)N4CCOCC4)cc3)ccc2[O-])ccc1C(=O)[N-]c1ccccc1O (3D coordinates assigned)
Nc1cc(-c2cc([N-]S(=O)(=O)c3ccc(S(=O)(=O)N4CCOCC4)cc3)ccc2[O-])ccc1C(=O)[N-]c1ccccc1O (nonaromatic ring conformer: 105.39381641556037 kcal/mol)

>  <smiles>  (18) 
Nc1cc(-c2cc(NS(=O)(=O)c3ccc(S(=O)(=O)N4CCOCC4)cc3)ccc2O)ccc1C(=O)Nc1ccccc1O

>  <score_type>  (18) 
oracle

>  <origin>  (18) 
adgpu

>  <m_score__min__energy>  (18) 
-15.06

>  <m_primary>  (18) 
energy

$$$$
18:0
     RDKit          3D

 45 48  0  0  0  0  0  0  0  0999 V2000
   -5.8840   22.4430  -32.1490 H   0  0  0  0  0  0  0  0  0  0  0  0
   -6.0370   21.6310  -32.7360 O   0  0  0  0  0  0  0  0  0  0  0  0
   -7.1710   20.8300  -32.5970 C   0  0  0  0  0  0  0  0  0  0  0  0
   -8.4030   21.4170  -32.2690 C   0  0  0  0  0  0  0  0  0  0  0  0
   -8.4641   22.5020  -32.0986 H   0  0  0  0  0  0  0  0  0  0  0  0
   -9.5510   20.6310  -32.1580 C   0  0  0  0  0  0  0  0  0  0  0  0
  -10.5129   21.0972  -31.8984 H   0  0  0  0  0  0  0  0  0  0  0  0
   -9.4800   19.2540  -32.3760 C   0  0  0  0  0  0  0  0  0  0  0  0
  -10.3872   18.6374  -32.2942 H   0  0  0  0  0  0  0  0  0  0  0  0
   -8.2580   18.6580  -32.6980 C   0  0  0  0  0  0  0  0  0  0  0  0
   -8.2087   17.5725  -32.8692 H   0  0  0  0  0  0  0  0  0  0  0  0
   -7.0900   19.4350  -32.8050 C   0  0  0  0  0  0  0  0  0  0  0  0
   -5.8010   18.7810  -33.1360 C   0  0  0  0  0  0  0  0  0  0  0  0
   -5.7740   17.6270  -33.9370 C   0  0  0  0  0  0  0  0  0  0  0  0
   -6.7141   17.2087  -34.3260 H   0  0  0  0  0  0  0  0  0  0  0  0
   -4.5590   17.0080  -34.2420 C   0  0  0  0  0  0  0  0  0  0  0  0
   -4.5466   16.1031  -34.8673 H   0  0  0  0  0  0  0  0  0  0  0  0
   -3.3610   17.5340  -33.7560 C   0  0  0  0  0  0  0  0  0  0  0  0
   -2.4086   17.0396  -33.9976 H   0  0  0  0  0  0  0  0  0  0  0  0
   -3.3650   18.6870  -32.9630 C   0  0  0  0  0  0  0  0  0  0  0  0
   -2.1410   19.1850  -32.4920 O   0  0  0  0  0  0  0  0  0  0  0  0
   -2.0050   20.2860  -31.6350 C   0  0  0  0  0  0  0  0  0  0  0  0
   -2.8390   20.3670  -30.5140 C   0  0  0  0  0  0  0  0  0  0  0  0
   -3.5702   19.5687  -30.3188 H   0  0  0  0  0  0  0  0  0  0  0  0
   -2.7500   21.4540  -29.6410 C   0  0  0  0  0  0  0  0  0  0  0  0
   -3.4218   21.5156  -28.7722 H   0  0  0  0  0  0  0  0  0  0  0  0
   -1.8090   22.4650  -29.8680 C   0  0  0  0  0  0  0  0  0  0  0  0
   -1.7080   23.8470  -28.7820 S   0  0  0  0  0  0  0  0  0  0  0  0
   -1.2350   23.3950  -27.4290 O   0  0  0  0  0  0  0  0  0  0  0  0
   -0.7350   24.8490  -29.3370 O   0  0  0  0  0  0  0  0  0  0  0  0
   -3.2800   24.5640  -28.6430 N   0  0  0  0  0  0  0  0  0  0  0  0
   -4.1320   24.5940  -29.6190 C   0  0  0  0  0  0  0  0  0  0  0  0
   -3.9100   24.0810  -30.8430 N   0  0  0  0  0  0  0  0  0  0  0  0
   -4.9930   24.3070  -31.5300 O   0  0  0  0  0  0  0  0  0  0  0  0
   -5.8960   24.9380  -30.8120 C   0  0  0  0  0  0  0  0  0  0  0  0
   -6.8930   25.2445  -31.1613 H   0  0  0  0  0  0  0  0  0  0  0  0
   -5.3860   25.1520  -29.5480 C   0  0  0  0  0  0  0  0  0  0  0  0
   -5.8662   25.6484  -28.6918 H   0  0  0  0  0  0  0  0  0  0  0  0
   -0.9560   22.3810  -30.9750 C   0  0  0  0  0  0  0  0  0  0  0  0
   -0.2151   23.1738  -31.1554 H   0  0  0  0  0  0  0  0  0  0  0  0
   -1.0400   21.2930  -31.8550 C   0  0  0  0  0  0  0  0  0  0  0  0
   -0.1000   21.2030  -32.9450 C   0  0  0  0  0  0  0  0  0  0  0  0
    0.6540   21.1310  -33.8200 N   0  0  0  0  0  0  0  0  0  0  0  0
   -4.5920   19.2960  -32.6370 C   0  0  0  0  0  0  0  0  0  0  0  0
   -4.6046   20.1826  -31.9861 H   0  0  0  0  0  0  0  0  0  0  0  0
  1  2  1  0
  2  3  1  0
  3  4  2  0
  4  5  1  0
  4  6  1  0
  6  7  1  0
  6  8  2  0
  8  9  1  0
  8 10  1  0
 10 11  1  0
 10 12  2  0
 12 13  1  0
 13 14  2  0
 14 15  1  0
 14 16  1  0
 16 17  1  0
 16 18  2  0
 18 19  1  0
 18 20  1  0
 20 21  1  0
 21 22  1  0
 22 23  2  0
 23 24  1  0
 23 25  1  0
 25 26  1  0
 25 27  2  0
 27 28  1  0
 28 29  2  0
 28 30  2  0
 28 31  1  0
 31 32  2  0
 32 33  1  0
 33 34  1  0
 34 35  1  0
 35 36  1  0
 35 37  2  0
 37 38  1  0
 27 39  1  0
 39 40  1  0
 39 41  2  0
 41 42  1  0
 42 43  3  0
 20 44  2  0
 44 45  1  0
 12  3  1  0
 44 13  1  0
 41 22  1  0
 37 32  1  0
M  CHG  1  33  -1
M  END
>  <UniqueID>  (19) 
18

>  <SMILES>  (19) 
N#Cc1cc(S(=O)(=O)/N=c2/cco[n-]2)ccc1Oc1cccc(-c2ccccc2O)c1

>  <Energy>  (19) 
97.34469462963006

>  <Genealogy>  (19) 
N#Cc1cc(S(=O)(=O)N=c2cco[n-]2)ccc1Oc1cccc(-c2ccccc2O)c1 (protonated)
N#Cc1cc(S(=O)(=O)/N=c2/cco[n-]2)ccc1Oc1cccc(-c2ccccc2O)c1 (cis-trans isomerization)
N#Cc1cc(S(=O)(=O)/N=c2/cco[n-]2)ccc1Oc1cccc(-c2ccccc2O)c1 (3D coordinates assigned)
N#Cc1cc(S(=O)(=O)/N=c2/cco[n-]2)ccc1Oc1cccc(-c2ccccc2O)c1 (optimized conformer: 97.34469462963006 kcal/mol)

>  <smiles>  (19) 
N#Cc1cc(S(=O)(=O)N=c2cco[nH]2)ccc1Oc1cccc(-c2ccccc2O)c1

>  <score_type>  (19) 
oracle

>  <origin>  (19) 
adgpu

>  <m_score__min__energy>  (19) 
-11.609999999999999

>  <m_primary>  (19) 
energy

$$$$
19:0
     RDKit          3D

 59 61  0  0  0  0  0  0  0  0999 V2000
   -7.4168   16.4028  -32.3363 H   0  0  0  0  0  0  0  0  0  0  0  0
   -7.3470   17.4300  -31.9490 C   0  0  0  0  0  0  0  0  0  0  0  0
   -8.3720   18.2680  -32.1890 C   0  0  0  0  0  0  0  0  0  0  0  0
   -9.2115   17.8890  -32.7903 H   0  0  0  0  0  0  0  0  0  0  0  0
   -8.4520   19.6910  -31.6920 C   0  0  0  0  0  0  0  0  0  0  0  0
   -9.4893   20.0478  -31.7736 H   0  0  0  0  0  0  0  0  0  0  0  0
   -8.1276   19.7259  -30.6415 H   0  0  0  0  0  0  0  0  0  0  0  0
   -7.5780   20.5510  -32.4950 N   0  0  0  0  0  0  0  0  0  0  0  0
   -7.0070   21.7250  -31.9040 C   0  0  0  0  0  0  0  0  0  0  0  0
   -7.4070   22.9910  -32.3390 C   0  0  0  0  0  0  0  0  0  0  0  0
   -8.1672   23.0853  -33.1284 H   0  0  0  0  0  0  0  0  0  0  0  0
   -6.8440   24.1360  -31.7740 C   0  0  0  0  0  0  0  0  0  0  0  0
   -7.1543   25.1285  -32.1326 H   0  0  0  0  0  0  0  0  0  0  0  0
   -5.8850   24.0350  -30.7520 C   0  0  0  0  0  0  0  0  0  0  0  0
   -5.3710   25.2830  -30.1430 C   0  0  0  0  0  0  0  0  0  0  0  0
   -4.2360   25.7180  -30.4760 O   0  0  0  0  0  0  0  0  0  0  0  0
   -6.1620   26.0340  -29.2200 N   0  0  0  0  0  0  0  0  0  0  0  0
   -5.7720   26.8940  -28.7740 H   0  0  0  0  0  0  0  0  0  0  0  0
   -7.1580   25.7820  -29.0370 H   0  0  0  0  0  0  0  0  0  0  0  0
   -5.4650   22.7490  -30.3190 C   0  0  0  0  0  0  0  0  0  0  0  0
   -4.3790   22.5660  -29.3260 C   0  0  0  0  0  0  0  0  0  0  0  0
   -4.5530   22.9970  -28.1530 O   0  0  0  0  0  0  0  0  0  0  0  0
   -3.0950   21.9060  -29.6800 C   0  0  0  0  0  0  0  0  0  0  0  0
   -2.6400   20.8010  -28.9340 C   0  0  0  0  0  0  0  0  0  0  0  0
   -3.2345   20.4328  -28.0849 H   0  0  0  0  0  0  0  0  0  0  0  0
   -1.4370   20.1690  -29.2660 C   0  0  0  0  0  0  0  0  0  0  0  0
   -1.0866   19.3104  -28.6744 H   0  0  0  0  0  0  0  0  0  0  0  0
   -0.6800   20.6260  -30.3470 C   0  0  0  0  0  0  0  0  0  0  0  0
    0.2671   20.1289  -30.6038 H   0  0  0  0  0  0  0  0  0  0  0  0
   -1.1240   21.7130  -31.1020 C   0  0  0  0  0  0  0  0  0  0  0  0
   -0.5275   22.0698  -31.9546 H   0  0  0  0  0  0  0  0  0  0  0  0
   -2.3260   22.3490  -30.7760 C   0  0  0  0  0  0  0  0  0  0  0  0
   -2.6741   23.2008  -31.3787 H   0  0  0  0  0  0  0  0  0  0  0  0
   -6.0320   21.6070  -30.9090 C   0  0  0  0  0  0  0  0  0  0  0  0
   -5.7050   20.6082  -30.5843 H   0  0  0  0  0  0  0  0  0  0  0  0
   -7.1290   20.1260  -33.8230 C   0  0  0  0  0  0  0  0  0  0  0  0
   -7.6957   19.2352  -34.1317 H   0  0  0  0  0  0  0  0  0  0  0  0
   -7.2986   20.9422  -34.5406 H   0  0  0  0  0  0  0  0  0  0  0  0
   -5.6630   19.7960  -33.7870 C   0  0  0  0  0  0  0  0  0  0  0  0
   -4.7200   20.7790  -33.4470 C   0  0  0  0  0  0  0  0  0  0  0  0
   -5.0564   21.7904  -33.1749 H   0  0  0  0  0  0  0  0  0  0  0  0
   -3.3550   20.4770  -33.4530 C   0  0  0  0  0  0  0  0  0  0  0  0
   -2.6216   21.2483  -33.1752 H   0  0  0  0  0  0  0  0  0  0  0  0
   -2.9180   19.1940  -33.8120 C   0  0  0  0  0  0  0  0  0  0  0  0
   -1.2030   18.7940  -33.8130 S   0  0  0  0  0  0  0  0  0  0  0  0
   -0.9030   17.7930  -34.8950 O   0  0  0  0  0  0  0  0  0  0  0  0
   -0.8260   18.2000  -32.4840 O   0  0  0  0  0  0  0  0  0  0  0  0
   -0.2530   20.2700  -34.1050 C   0  0  0  0  0  0  0  0  0  0  0  0
    0.0349   20.7172  -33.1421 H   0  0  0  0  0  0  0  0  0  0  0  0
    0.6519   20.0165  -34.6767 H   0  0  0  0  0  0  0  0  0  0  0  0
   -0.8585   20.9887  -34.6767 H   0  0  0  0  0  0  0  0  0  0  0  0
   -3.8580   18.2160  -34.1630 C   0  0  0  0  0  0  0  0  0  0  0  0
   -3.5200   17.2085  -34.4469 H   0  0  0  0  0  0  0  0  0  0  0  0
   -5.2230   18.5150  -34.1540 C   0  0  0  0  0  0  0  0  0  0  0  0
   -5.9550   17.7437  -34.4355 H   0  0  0  0  0  0  0  0  0  0  0  0
   -6.1140   17.8140  -31.1840 C   0  0  0  0  0  0  0  0  0  0  0  0
   -6.3175   17.7506  -30.1048 H   0  0  0  0  0  0  0  0  0  0  0  0
   -5.2934   17.1289  -31.4433 H   0  0  0  0  0  0  0  0  0  0  0  0
   -5.8275   18.8439  -31.4433 H   0  0  0  0  0  0  0  0  0  0  0  0
  1  2  1  0
  2  3  2  0
  3  4  1  0
  3  5  1  0
  5  6  1  0
  5  7  1  0
  5  8  1  0
  8  9  1  0
  9 10  2  0
 10 11  1  0
 10 12  1  0
 12 13  1  0
 12 14  2  0
 14 15  1  0
 15 16  2  0
 15 17  1  0
 17 18  1  0
 17 19  1  0
 14 20  1  0
 20 21  1  0
 21 22  2  0
 21 23  1  0
 23 24  2  0
 24 25  1  0
 24 26  1  0
 26 27  1  0
 26 28  2  0
 28 29  1  0
 28 30  1  0
 30 31  1  0
 30 32  2  0
 32 33  1  0
 20 34  2  0
 34 35  1  0
  8 36  1  0
 36 37  1  0
 36 38  1  0
 36 39  1  0
 39 40  2  0
 40 41  1  0
 40 42  1  0
 42 43  1  0
 42 44  2  0
 44 45  1  0
 45 46  2  0
 45 47  2  0
 45 48  1  0
 48 49  1  0
 48 50  1  0
 48 51  1  0
 44 52  1  0
 52 53  1  0
 52 54  2  0
 54 55  1  0
  2 56  1  0
 56 57  1  0
 56 58  1  0
 56 59  1  0
 34  9  1  0
 54 39  1  0
 32 23  1  0
M  END
>  <UniqueID>  (20) 
19

>  <SMILES>  (20) 
C/C=C\CN(Cc1ccc(S(C)(=O)=O)cc1)c1ccc(C(N)=O)c(C(=O)c2ccccc2)c1

>  <Energy>  (20) 
69.11948548076742

>  <Genealogy>  (20) 
C/C=C\CN(Cc1ccc(S(C)(=O)=O)cc1)c1ccc(C(N)=O)c(C(=O)c2ccccc2)c1 (cis-trans isomerization)
C/C=C\CN(Cc1ccc(S(C)(=O)=O)cc1)c1ccc(C(N)=O)c(C(=O)c2ccccc2)c1 (3D coordinates assigned)
C/C=C\CN(Cc1ccc(S(C)(=O)=O)cc1)c1ccc(C(N)=O)c(C(=O)c2ccccc2)c1 (optimized conformer: 69.11948548076742 kcal/mol)

>  <smiles>  (20) 
CC=CCN(Cc1ccc(S(C)(=O)=O)cc1)c1ccc(C(N)=O)c(C(=O)c2ccccc2)c1

>  <score_type>  (20) 
oracle

>  <origin>  (20) 
adgpu

>  <m_score__min__energy>  (20) 
-11.02

>  <m_primary>  (20) 
energy

$$$$
20:0
     RDKit          3D

 48 51  0  0  0  0  0  0  0  0999 V2000
   -0.3900   27.2350  -23.7040 C   0  0  0  0  0  0  0  0  0  0  0  0
   -1.0530   26.2870  -24.6440 C   0  0  0  0  0  0  0  0  0  0  0  0
   -0.4080   25.2790  -25.3550 C   0  0  0  0  0  0  0  0  0  0  0  0
   -1.4130   24.6870  -26.0850 C   0  0  0  0  0  0  0  0  0  0  0  0
   -1.3800   23.6220  -26.9800 C   0  0  0  0  0  0  0  0  0  0  0  0
   -2.5970   23.2210  -27.5860 C   0  0  0  0  0  0  0  0  0  0  0  0
   -2.6580   22.1110  -28.4990 N   0  0  0  0  0  0  0  0  0  0  0  0
   -2.9610   22.2700  -30.2020 S   0  0  0  0  0  0  0  0  0  0  0  0
   -1.8260   23.0260  -30.8320 O   0  0  0  0  0  0  0  0  0  0  0  0
   -3.0360   20.8970  -30.8100 O   0  0  0  0  0  0  0  0  0  0  0  0
   -4.4610   23.1590  -30.4890 C   0  0  0  0  0  0  0  0  0  0  0  0
   -5.6450   22.4590  -30.7590 C   0  0  0  0  0  0  0  0  0  0  0  0
   -6.8390   23.1470  -31.0080 C   0  0  0  0  0  0  0  0  0  0  0  0
   -8.3170   22.2530  -31.3860 S   0  0  0  0  0  0  0  0  0  0  0  0
   -9.2700   23.1690  -32.1050 O   0  0  0  0  0  0  0  0  0  0  0  0
   -8.9700   21.8210  -30.1020 O   0  0  0  0  0  0  0  0  0  0  0  0
   -8.0250   20.8450  -32.3770 N   0  0  0  0  0  0  0  0  0  0  0  0
   -7.9810   19.6170  -31.5860 C   0  0  0  0  0  0  0  0  0  0  0  0
   -7.1320   18.6290  -32.3730 C   0  0  0  0  0  0  0  0  0  0  0  0
   -6.3260   19.4770  -33.3480 C   0  0  0  0  0  0  0  0  0  0  0  0
   -6.7380   20.9140  -33.0650 C   0  0  0  0  0  0  0  0  0  0  0  0
   -6.8470   24.5480  -30.9820 C   0  0  0  0  0  0  0  0  0  0  0  0
   -5.6750   25.2520  -30.6950 C   0  0  0  0  0  0  0  0  0  0  0  0
   -4.4840   24.5640  -30.4450 C   0  0  0  0  0  0  0  0  0  0  0  0
   -3.3310   25.2860  -30.1530 O   0  0  0  0  0  0  0  0  0  0  0  0
   -3.7910   23.9210  -27.2730 C   0  0  0  0  0  0  0  0  0  0  0  0
   -3.7850   24.9960  -26.3670 C   0  0  0  0  0  0  0  0  0  0  0  0
   -2.5710   25.3510  -25.7880 C   0  0  0  0  0  0  0  0  0  0  0  0
   -2.3450   26.3100  -24.9240 O   0  0  0  0  0  0  0  0  0  0  0  0
   -0.6017   26.9322  -22.6679 H   0  0  0  0  0  0  0  0  0  0  0  0
    0.6965   27.2214  -23.8752 H   0  0  0  0  0  0  0  0  0  0  0  0
   -0.7755   28.2509  -23.8752 H   0  0  0  0  0  0  0  0  0  0  0  0
    0.6600   25.0161  -25.3373 H   0  0  0  0  0  0  0  0  0  0  0  0
   -0.4363   23.1060  -27.2106 H   0  0  0  0  0  0  0  0  0  0  0  0
   -2.4530   21.1510  -28.1440 H   0  0  0  0  0  0  0  0  0  0  0  0
   -5.6362   21.3592  -30.7754 H   0  0  0  0  0  0  0  0  0  0  0  0
   -7.5250   19.8129  -30.6044 H   0  0  0  0  0  0  0  0  0  0  0  0
   -8.9917   19.2209  -31.4080 H   0  0  0  0  0  0  0  0  0  0  0  0
   -6.4618   18.0751  -31.6992 H   0  0  0  0  0  0  0  0  0  0  0  0
   -7.7495   17.8821  -32.8934 H   0  0  0  0  0  0  0  0  0  0  0  0
   -5.2479   19.3439  -33.1746 H   0  0  0  0  0  0  0  0  0  0  0  0
   -6.5173   19.1936  -34.3935 H   0  0  0  0  0  0  0  0  0  0  0  0
   -5.9902   21.4054  -32.4252 H   0  0  0  0  0  0  0  0  0  0  0  0
   -6.8127   21.4983  -33.9940 H   0  0  0  0  0  0  0  0  0  0  0  0
   -7.7788   25.0950  -31.1882 H   0  0  0  0  0  0  0  0  0  0  0  0
   -5.6893   26.3515  -30.6656 H   0  0  0  0  0  0  0  0  0  0  0  0
   -4.7363   23.6177  -27.7468 H   0  0  0  0  0  0  0  0  0  0  0  0
   -4.7103   25.5388  -26.1238 H   0  0  0  0  0  0  0  0  0  0  0  0
  1  2  1  0
  2  3  2  0
  3  4  1  0
  4  5  2  0
  5  6  1  0
  6  7  1  0
  7  8  1  0
  8  9  2  0
  8 10  2  0
  8 11  1  0
 11 12  2  0
 12 13  1  0
 13 14  1  0
 14 15  2  0
 14 16  2  0
 14 17  1  0
 17 18  1  0
 18 19  1  0
 19 20  1  0
 20 21  1  0
 13 22  2  0
 22 23  1  0
 23 24  2  0
 24 25  1  0
  6 26  2  0
 26 27  1  0
 27 28  2  0
 28 29  1  0
 29  2  1  0
 28  4  1  0
 24 11  1  0
 21 17  1  0
  1 30  1  0
  1 31  1  0
  1 32  1  0
  3 33  1  0
  5 34  1  0
  7 35  1  0
 12 36  1  0
 18 37  1  0
 18 38  1  0
 19 39  1  0
 19 40  1  0
 20 41  1  0
 20 42  1  0
 21 43  1  0
 21 44  1  0
 22 45  1  0
 23 46  1  0
 26 47  1  0
 27 48  1  0
M  CHG  1  25  -1
M  END
>  <UniqueID>  (21) 
20

>  <SMILES>  (21) 
Cc1cc2cc(NS(=O)(=O)c3cc(S(=O)(=O)N4CCCC4)ccc3[O-])ccc2o1

>  <Energy>  (21) 
86.96044081782736

>  <Genealogy>  (21) 
Cc1cc2cc(NS(=O)(=O)c3cc(S(=O)(=O)N4CCCC4)ccc3[O-])ccc2o1 (protonated)
Cc1cc2cc(NS(=O)(=O)c3cc(S(=O)(=O)N4CCCC4)ccc3[O-])ccc2o1 (3D coordinates assigned)
Cc1cc2cc(NS(=O)(=O)c3cc(S(=O)(=O)N4CCCC4)ccc3[O-])ccc2o1 (nonaromatic ring conformer: 86.96044081782736 kcal/mol)

>  <smiles>  (21) 
Cc1cc2cc(NS(=O)(=O)c3cc(S(=O)(=O)N4CCCC4)ccc3O)ccc2o1

>  <score_type>  (21) 
oracle

>  <origin>  (21) 
adgpu

>  <m_score__min__energy>  (21) 
-12.869999999999999

>  <m_primary>  (21) 
energy

$$$$
21:0
     RDKit          3D

 46 48  0  0  0  0  0  0  0  0999 V2000
   -2.4880   21.7600  -30.8840 C   0  0  0  0  0  0  0  0  0  0  0  0
   -3.0790   22.8390  -31.5990 O   0  0  0  0  0  0  0  0  0  0  0  0
   -4.4000   23.2810  -31.4100 C   0  0  0  0  0  0  0  0  0  0  0  0
   -5.5140   22.5180  -31.8120 C   0  0  0  0  0  0  0  0  0  0  0  0
   -6.8180   22.9670  -31.5280 C   0  0  0  0  0  0  0  0  0  0  0  0
   -8.0070   22.1260  -31.9080 C   0  0  0  0  0  0  0  0  0  0  0  0
   -8.1140   20.9360  -31.0600 N   0  0  0  0  0  0  0  0  0  0  0  0
   -7.8480   19.6070  -31.5490 C   0  0  0  0  0  0  0  0  0  0  0  0
   -8.5680   18.6520  -31.1580 O   0  0  0  0  0  0  0  0  0  0  0  0
   -6.7300   19.3210  -32.4570 C   0  0  0  0  0  0  0  0  0  0  0  0
   -6.8390   18.8840  -33.7710 C   0  0  0  0  0  0  0  0  0  0  0  0
   -5.6020   18.6270  -34.3790 C   0  0  0  0  0  0  0  0  0  0  0  0
   -4.5100   18.8320  -33.5340 C   0  0  0  0  0  0  0  0  0  0  0  0
   -3.0730   18.6750  -33.8720 C   0  0  0  0  0  0  0  0  0  0  0  0
   -2.5620   17.4440  -34.3300 C   0  0  0  0  0  0  0  0  0  0  0  0
   -1.2100   17.3140  -34.6540 C   0  0  0  0  0  0  0  0  0  0  0  0
   -0.3490   18.4050  -34.5230 C   0  0  0  0  0  0  0  0  0  0  0  0
   -0.8360   19.6350  -34.0620 C   0  0  0  0  0  0  0  0  0  0  0  0
    0.2300   21.0280  -33.8980 S   0  0  0  0  0  0  0  0  0  0  0  0
    1.8810   20.5830  -34.3920 C   0  0  0  0  0  0  0  0  0  0  0  0
   -0.2490   22.1550  -34.7680 O   0  0  0  0  0  0  0  0  0  0  0  0
    0.2370   21.4860  -32.4660 O   0  0  0  0  0  0  0  0  0  0  0  0
   -2.1920   19.7640  -33.7400 C   0  0  0  0  0  0  0  0  0  0  0  0
   -5.1070   19.3080  -32.0340 S   0  0  0  0  0  0  0  0  0  0  0  0
   -7.0010   24.2090  -30.9010 C   0  0  0  0  0  0  0  0  0  0  0  0
   -5.8990   24.9830  -30.5380 C   0  0  0  0  0  0  0  0  0  0  0  0
   -4.6020   24.5210  -30.7870 C   0  0  0  0  0  0  0  0  0  0  0  0
   -3.5080   25.2970  -30.4080 O   0  0  0  0  0  0  0  0  0  0  0  0
   -2.5861   21.9390  -29.8031 H   0  0  0  0  0  0  0  0  0  0  0  0
   -2.9983   20.8220  -31.1481 H   0  0  0  0  0  0  0  0  0  0  0  0
   -1.4228   21.6849  -31.1481 H   0  0  0  0  0  0  0  0  0  0  0  0
   -5.3648   21.5696  -32.3488 H   0  0  0  0  0  0  0  0  0  0  0  0
   -8.9210   22.7278  -31.7969 H   0  0  0  0  0  0  0  0  0  0  0  0
   -7.8796   21.7977  -32.9501 H   0  0  0  0  0  0  0  0  0  0  0  0
   -8.7180   21.0180  -30.2070 H   0  0  0  0  0  0  0  0  0  0  0  0
   -7.8026   18.7523  -34.2849 H   0  0  0  0  0  0  0  0  0  0  0  0
   -5.5016   18.2953  -35.4230 H   0  0  0  0  0  0  0  0  0  0  0  0
   -3.2335   16.5788  -34.4330 H   0  0  0  0  0  0  0  0  0  0  0  0
   -0.8224   16.3493  -35.0134 H   0  0  0  0  0  0  0  0  0  0  0  0
    0.7147   18.2986  -34.7824 H   0  0  0  0  0  0  0  0  0  0  0  0
    2.4990   20.4164  -33.4974 H   0  0  0  0  0  0  0  0  0  0  0  0
    1.8484   19.6616  -34.9919 H   0  0  0  0  0  0  0  0  0  0  0  0
    2.3159   21.3960  -34.9919 H   0  0  0  0  0  0  0  0  0  0  0  0
   -2.5742   20.7301  -33.3787 H   0  0  0  0  0  0  0  0  0  0  0  0
   -8.0181   24.5738  -30.6949 H   0  0  0  0  0  0  0  0  0  0  0  0
   -6.0500   25.9595  -30.0546 H   0  0  0  0  0  0  0  0  0  0  0  0
  1  2  1  0
  2  3  1  0
  3  4  2  0
  4  5  1  0
  5  6  1  0
  6  7  1  0
  7  8  1  0
  8  9  2  0
  8 10  1  0
 10 11  2  0
 11 12  1  0
 12 13  2  0
 13 14  1  0
 14 15  2  0
 15 16  1  0
 16 17  2  0
 17 18  1  0
 18 19  1  0
 19 20  1  0
 19 21  2  0
 19 22  2  0
 18 23  2  0
 13 24  1  0
  5 25  2  0
 25 26  1  0
 26 27  2  0
 27 28  1  0
 27  3  1  0
 24 10  1  0
 23 14  1  0
  1 29  1  0
  1 30  1  0
  1 31  1  0
  4 32  1  0
  6 33  1  0
  6 34  1  0
  7 35  1  0
 11 36  1  0
 12 37  1  0
 15 38  1  0
 16 39  1  0
 17 40  1  0
 20 41  1  0
 20 42  1  0
 20 43  1  0
 23 44  1  0
 25 45  1  0
 26 46  1  0
M  CHG  1  28  -1
M  END
>  <UniqueID>  (22) 
21

>  <SMILES>  (22) 
COc1cc(CNC(=O)c2ccc(-c3cccc(S(C)(=O)=O)c3)s2)ccc1[O-]

>  <Energy>  (22) 
73.9442544854124

>  <Genealogy>  (22) 
COc1cc(CNC(=O)c2ccc(-c3cccc(S(C)(=O)=O)c3)s2)ccc1[O-] (protonated)
COc1cc(CNC(=O)c2ccc(-c3cccc(S(C)(=O)=O)c3)s2)ccc1[O-] (3D coordinates assigned)
COc1cc(CNC(=O)c2ccc(-c3cccc(S(C)(=O)=O)c3)s2)ccc1[O-] (optimized conformer: 73.9442544854124 kcal/mol)

>  <smiles>  (22) 
COc1cc(CNC(=O)c2ccc(-c3cccc(S(C)(=O)=O)c3)s2)ccc1O

>  <score_type>  (22) 
oracle

>  <origin>  (22) 
adgpu

>  <m_score__min__energy>  (22) 
-12.01

>  <m_primary>  (22) 
energy

$$$$
22:0
     RDKit          3D

 56 58  0  0  0  0  0  0  0  0999 V2000
    0.7370   26.0330  -25.4410 C   0  0  0  0  0  0  0  0  0  0  0  0
   -0.6530   26.4070  -26.0130 C   0  0  0  0  0  0  0  0  0  0  0  0
   -0.4970   27.7320  -26.7910 C   0  0  0  0  0  0  0  0  0  0  0  0
   -1.6100   26.6210  -24.8210 C   0  0  0  0  0  0  0  0  0  0  0  0
   -1.2330   25.3250  -26.9480 C   0  0  0  0  0  0  0  0  0  0  0  0
   -0.3920   24.7000  -27.8960 C   0  0  0  0  0  0  0  0  0  0  0  0
   -0.8810   23.7110  -28.7540 C   0  0  0  0  0  0  0  0  0  0  0  0
   -2.2240   23.3250  -28.7050 C   0  0  0  0  0  0  0  0  0  0  0  0
   -2.6940   22.2810  -29.5750 N   0  0  0  0  0  0  0  0  0  0  0  0
   -2.1040   21.9740  -30.8490 C   0  0  0  0  0  0  0  0  0  0  0  0
   -0.8960   22.2680  -31.0640 O   0  0  0  0  0  0  0  0  0  0  0  0
   -2.8540   21.2680  -31.8560 N   0  0  0  0  0  0  0  0  0  0  0  0
   -4.3170   21.3810  -31.9420 C   0  0  0  0  0  0  0  0  0  0  0  0
   -4.9310   19.9860  -32.0930 C   0  0  0  0  0  0  0  0  0  0  0  0
   -4.2220   19.1880  -33.1070 N   0  0  0  0  0  0  0  0  0  0  0  0
   -4.6890   17.8540  -33.4030 C   0  0  0  0  0  0  0  0  0  0  0  0
   -3.8090   16.8220  -33.5290 N   0  0  0  0  0  0  0  0  0  0  0  0
   -4.2340   15.5570  -33.7840 C   0  0  0  0  0  0  0  0  0  0  0  0
   -5.5980   15.2950  -33.9200 C   0  0  0  0  0  0  0  0  0  0  0  0
   -6.1660   13.6590  -34.2380 S   0  0  0  0  0  0  0  0  0  0  0  0
   -5.6630   12.5840  -32.9120 C   0  0  0  0  0  0  0  0  0  0  0  0
   -7.6650   13.6620  -34.3470 O   0  0  0  0  0  0  0  0  0  0  0  0
   -5.5890   13.1550  -35.5320 O   0  0  0  0  0  0  0  0  0  0  0  0
   -6.4910   16.3630  -33.8030 C   0  0  0  0  0  0  0  0  0  0  0  0
   -6.0220   17.6120  -33.5460 N   0  0  0  0  0  0  0  0  0  0  0  0
   -3.0890   19.7790  -33.8380 C   0  0  0  0  0  0  0  0  0  0  0  0
   -2.1320   20.4750  -32.8620 C   0  0  0  0  0  0  0  0  0  0  0  0
   -3.0710   23.9280  -27.7620 C   0  0  0  0  0  0  0  0  0  0  0  0
   -2.5860   24.9170  -26.9000 C   0  0  0  0  0  0  0  0  0  0  0  0
    0.6962   26.0440  -24.3418 H   0  0  0  0  0  0  0  0  0  0  0  0
    1.0176   25.0274  -25.7875 H   0  0  0  0  0  0  0  0  0  0  0  0
    1.4843   26.7620  -25.7875 H   0  0  0  0  0  0  0  0  0  0  0  0
   -0.3989   28.5654  -26.0798 H   0  0  0  0  0  0  0  0  0  0  0  0
    0.4015   27.6821  -27.4237 H   0  0  0  0  0  0  0  0  0  0  0  0
   -1.3825   27.8922  -27.4237 H   0  0  0  0  0  0  0  0  0  0  0  0
   -1.0557   26.4971  -23.8790 H   0  0  0  0  0  0  0  0  0  0  0  0
   -2.0321   27.6357  -24.8673 H   0  0  0  0  0  0  0  0  0  0  0  0
   -2.4241   25.8827  -24.8673 H   0  0  0  0  0  0  0  0  0  0  0  0
    0.6653   24.9968  -27.9598 H   0  0  0  0  0  0  0  0  0  0  0  0
   -0.2026   23.2315  -29.4750 H   0  0  0  0  0  0  0  0  0  0  0  0
   -3.4430   21.6440  -29.2190 H   0  0  0  0  0  0  0  0  0  0  0  0
   -4.7023   21.8536  -31.0265 H   0  0  0  0  0  0  0  0  0  0  0  0
   -4.5858   21.9953  -32.8140 H   0  0  0  0  0  0  0  0  0  0  0  0
   -4.8753   19.4650  -31.1258 H   0  0  0  0  0  0  0  0  0  0  0  0
   -5.9757   20.1034  -32.4167 H   0  0  0  0  0  0  0  0  0  0  0  0
   -3.5038   14.7403  -33.8831 H   0  0  0  0  0  0  0  0  0  0  0  0
   -5.8869   13.0624  -31.9471 H   0  0  0  0  0  0  0  0  0  0  0  0
   -6.2091   11.6319  -32.9846 H   0  0  0  0  0  0  0  0  0  0  0  0
   -4.5821   12.3932  -32.9846 H   0  0  0  0  0  0  0  0  0  0  0  0
   -7.5716   16.1931  -33.9187 H   0  0  0  0  0  0  0  0  0  0  0  0
   -2.5478   18.9845  -34.3727 H   0  0  0  0  0  0  0  0  0  0  0  0
   -3.4724   20.5208  -34.5541 H   0  0  0  0  0  0  0  0  0  0  0  0
   -1.5310   19.7106  -32.3476 H   0  0  0  0  0  0  0  0  0  0  0  0
   -1.4938   21.1590  -33.4406 H   0  0  0  0  0  0  0  0  0  0  0  0
   -4.1252   23.6201  -27.7004 H   0  0  0  0  0  0  0  0  0  0  0  0
   -3.2674   25.3844  -26.1739 H   0  0  0  0  0  0  0  0  0  0  0  0
  1  2  1  0
  2  3  1  0
  2  4  1  0
  2  5  1  0
  5  6  2  0
  6  7  1  0
  7  8  2  0
  8  9  1  0
  9 10  1  0
 10 11  2  0
 10 12  1  0
 12 13  1  0
 13 14  1  0
 14 15  1  0
 15 16  1  0
 16 17  2  0
 17 18  1  0
 18 19  2  0
 19 20  1  0
 20 21  1  0
 20 22  2  0
 20 23  2  0
 19 24  1  0
 24 25  2  0
 15 26  1  0
 26 27  1  0
  8 28  1  0
 28 29  2  0
 29  5  1  0
 27 12  1  0
 25 16  1  0
  1 30  1  0
  1 31  1  0
  1 32  1  0
  3 33  1  0
  3 34  1  0
  3 35  1  0
  4 36  1  0
  4 37  1  0
  4 38  1  0
  6 39  1  0
  7 40  1  0
  9 41  1  0
 13 42  1  0
 13 43  1  0
 14 44  1  0
 14 45  1  0
 18 46  1  0
 21 47  1  0
 21 48  1  0
 21 49  1  0
 24 50  1  0
 26 51  1  0
 26 52  1  0
 27 53  1  0
 27 54  1  0
 28 55  1  0
 29 56  1  0
M  END
>  <UniqueID>  (23) 
22

>  <SMILES>  (23) 
CC(C)(C)c1ccc(NC(=O)N2CCN(c3ncc(S(C)(=O)=O)cn3)CC2)cc1

>  <Energy>  (23) 
62.023922926393915

>  <Genealogy>  (23) 
CC(C)(C)c1ccc(NC(=O)N2CCN(c3ncc(S(C)(=O)=O)cn3)CC2)cc1 (3D coordinates assigned)
CC(C)(C)c1ccc(NC(=O)N2CCN(c3ncc(S(C)(=O)=O)cn3)CC2)cc1 (nonaromatic ring conformer: 62.023922926393915 kcal/mol)

>  <smiles>  (23) 
CC(C)(C)c1ccc(NC(=O)N2CCN(c3ncc(S(C)(=O)=O)cn3)CC2)cc1

>  <score_type>  (23) 
oracle

>  <origin>  (23) 
adgpu

>  <m_score__min__energy>  (23) 
-7.0499999999999998

>  <m_primary>  (23) 
energy

$$$$
23:0
     RDKit          3D

 46 48  0  0  1  0  0  0  0  0999 V2000
   -7.5370   23.7400  -32.0570 C   0  0  0  0  0  0  0  0  0  0  0  0
   -6.4820   23.9430  -31.0650 C   0  0  0  0  0  0  0  0  0  0  0  0
   -6.4770   25.0040  -30.1690 C   0  0  0  0  0  0  0  0  0  0  0  0
   -5.5160   25.2090  -29.2590 N   0  0  0  0  0  0  0  0  0  0  0  0
   -4.4880   24.3500  -29.1900 C   0  0  0  0  0  0  0  0  0  0  0  0
   -3.5420   24.5230  -28.3170 N   0  0  0  0  0  0  0  0  0  0  0  0
   -2.4350   23.5980  -28.2440 C   0  0  0  0  0  0  0  0  0  0  0  0
   -1.2610   23.8740  -28.8960 C   0  0  0  0  0  0  0  0  0  0  0  0
   -0.2150   22.9750  -28.8120 C   0  0  0  0  0  0  0  0  0  0  0  0
   -0.3920   21.8120  -28.0640 C   0  0  0  0  0  0  0  0  0  0  0  0
    0.6650   20.8330  -27.9380 C   0  0  0  0  0  0  0  0  0  0  0  0
    1.4970   20.0460  -27.8410 N   0  0  0  0  0  0  0  0  0  0  0  0
   -1.6000   21.5620  -27.4130 C   0  0  0  0  0  0  0  0  0  0  0  0
   -2.6270   22.4510  -27.4980 C   0  0  0  0  0  0  0  0  0  0  0  0
   -4.4570   23.3150  -30.0380 N   0  0  0  0  0  0  0  0  0  0  0  0
   -5.4120   23.0760  -30.9730 C   0  0  0  0  0  0  0  0  0  0  0  0
   -5.2350   22.0510  -31.6990 N   0  0  0  0  0  0  0  0  0  0  0  0
   -6.1410   21.6740  -32.7110 C   0  0  0  0  0  0  0  0  0  0  0  0
   -6.7640   20.3360  -32.5850 C   0  0  0  0  0  0  0  0  0  0  0  0
   -7.9750   20.1850  -31.8820 C   0  0  0  0  0  0  0  0  0  0  0  0
   -8.5810   18.9330  -31.7760 C   0  0  0  0  0  0  0  0  0  0  0  0
   -8.0450   17.8000  -32.3370 C   0  0  0  0  0  0  0  0  0  0  0  0
   -6.8610   17.9380  -33.0260 C   0  0  0  0  0  0  0  0  0  0  0  0
   -6.1480   16.5110  -33.7560 S   0  0  0  0  0  0  0  0  0  0  0  0
   -4.9910   17.0140  -34.9640 N   0  0  0  0  0  0  0  0  0  0  0  0
   -7.1640   15.5800  -34.2980 O   0  0  0  0  0  0  0  0  0  0  0  0
   -5.3170   15.7660  -32.7240 O   0  0  0  0  0  0  0  0  0  0  0  0
   -6.2710   19.1760  -33.1260 C   0  0  0  0  0  0  0  0  0  0  0  0
   -8.4924   23.5562  -31.5438 H   0  0  0  0  0  0  0  0  0  0  0  0
   -7.6258   24.6375  -32.6867 H   0  0  0  0  0  0  0  0  0  0  0  0
   -7.2864   22.8736  -32.6867 H   0  0  0  0  0  0  0  0  0  0  0  0
   -7.3122   25.7187  -30.2091 H   0  0  0  0  0  0  0  0  0  0  0  0
   -5.5160   26.0060  -28.5870 H   0  0  0  0  0  0  0  0  0  0  0  0
   -1.1530   24.8004  -29.4792 H   0  0  0  0  0  0  0  0  0  0  0  0
    0.7378   23.1730  -29.3248 H   0  0  0  0  0  0  0  0  0  0  0  0
   -1.7235   20.6396  -26.8266 H   0  0  0  0  0  0  0  0  0  0  0  0
   -3.5827   22.2617  -26.9873 H   0  0  0  0  0  0  0  0  0  0  0  0
   -3.6170   22.6700  -29.9340 H   0  0  0  0  0  0  0  0  0  0  0  0
   -6.9510   22.4181  -32.7266 H   0  0  0  0  0  0  0  0  0  0  0  0
   -5.5408   21.6266  -33.6316 H   0  0  0  0  0  0  0  0  0  0  0  0
   -8.4466   21.0611  -31.4129 H   0  0  0  0  0  0  0  0  0  0  0  0
   -9.5267   18.8499  -31.2204 H   0  0  0  0  0  0  0  0  0  0  0  0
   -8.5409   16.8229  -32.2400 H   0  0  0  0  0  0  0  0  0  0  0  0
   -5.4630   17.5290  -35.7270 H   0  0  0  0  0  0  0  0  0  0  0  0
   -4.4310   16.1930  -35.2870 H   0  0  0  0  0  0  0  0  0  0  0  0
   -5.3263   19.2414  -33.6857 H   0  0  0  0  0  0  0  0  0  0  0  0
  1  2  1  0
  2  3  2  0
  3  4  1  0
  4  5  1  0
  5  6  2  0
  6  7  1  0
  7  8  2  0
  8  9  1  0
  9 10  2  0
 10 11  1  0
 11 12  3  0
 10 13  1  0
 13 14  2  0
  5 15  1  0
 15 16  1  0
 16 17  2  0
 17 18  1  0
 18 19  1  0
 19 20  2  0
 20 21  1  0
 21 22  2  0
 22 23  1  0
 23 24  1  0
 24 25  1  0
 24 26  2  0
 24 27  2  0
 23 28  2  0
 16  2  1  0
 28 19  1  0
 14  7  1  0
  1 29  1  0
  1 30  1  0
  1 31  1  0
  3 32  1  0
  4 33  1  0
  8 34  1  0
  9 35  1  0
 13 36  1  0
 14 37  1  0
 15 38  1  0
 18 39  1  0
 18 40  1  0
 20 41  1  0
 21 42  1  0
 22 43  1  0
 25 44  1  0
 25 45  1  0
 28 46  1  0
M  END
>  <smiles>  (24) 
Cc1c[nH]c(=Nc2ccc(C#N)cc2)[nH]c1=NCc1cccc(S(N)(=O)=O)c1

>  <score_type>  (24) 
oracle

>  <origin>  (24) 
adgpu

>  <m_score__min__energy>  (24) 
-10

>  <m_primary>  (24) 
energy

$$$$
24:0
     RDKit          3D

 66 70  0  0  0  0  0  0  0  0999 V2000
   -0.4790   25.6920  -27.1850 C   0  0  0  0  0  0  0  0  0  0  0  0
   -1.8630   25.2830  -27.7040 C   0  0  0  0  0  0  0  0  0  0  0  0
   -1.7580   24.1140  -28.7080 C   0  0  0  0  0  0  0  0  0  0  0  0
   -2.9520   23.1380  -28.6530 C   0  0  0  0  0  0  0  0  0  0  0  0
   -4.2330   23.7710  -28.2810 N   0  0  0  0  0  0  0  0  0  0  0  0
   -5.0730   24.4890  -29.6400 S   0  0  0  0  0  0  0  0  0  0  0  0
   -4.0760   25.2030  -30.5110 O   0  0  0  0  0  0  0  0  0  0  0  0
   -6.0530   25.5100  -29.1340 O   0  0  0  0  0  0  0  0  0  0  0  0
   -5.9300   23.2970  -30.6180 C   0  0  0  0  0  0  0  0  0  0  0  0
   -5.5460   23.0640  -31.9460 C   0  0  0  0  0  0  0  0  0  0  0  0
   -6.2100   22.1030  -32.7130 C   0  0  0  0  0  0  0  0  0  0  0  0
   -7.2790   21.3770  -32.1670 C   0  0  0  0  0  0  0  0  0  0  0  0
   -7.9530   20.3050  -32.9770 C   0  0  0  0  0  0  0  0  0  0  0  0
   -8.1990   19.1340  -32.1330 N   0  0  0  0  0  0  0  0  0  0  0  0
   -6.9210   17.9760  -32.3430 S   0  0  0  0  0  0  0  0  0  0  0  0
   -6.7900   17.1290  -31.1070 O   0  0  0  0  0  0  0  0  0  0  0  0
   -7.2540   17.0790  -33.5010 O   0  0  0  0  0  0  0  0  0  0  0  0
   -5.4010   18.8050  -32.6750 C   0  0  0  0  0  0  0  0  0  0  0  0
   -4.8030   18.7200  -33.9490 C   0  0  0  0  0  0  0  0  0  0  0  0
   -3.5830   19.3660  -34.2050 C   0  0  0  0  0  0  0  0  0  0  0  0
   -2.9630   20.0670  -33.1640 C   0  0  0  0  0  0  0  0  0  0  0  0
   -3.5610   20.1740  -31.9360 C   0  0  0  0  0  0  0  0  0  0  0  0
   -4.7740   19.5440  -31.6580 C   0  0  0  0  0  0  0  0  0  0  0  0
   -2.7690   21.0540  -31.0360 C   0  0  0  0  0  0  0  0  0  0  0  0
   -1.6040   21.5280  -31.9350 C   0  0  0  0  0  0  0  0  0  0  0  0
   -1.7600   20.8280  -33.2120 N   0  0  0  0  0  0  0  0  0  0  0  0
   -0.7410   20.8250  -34.2260 C   0  0  0  0  0  0  0  0  0  0  0  0
   -0.2460   21.9260  -34.5960 O   0  0  0  0  0  0  0  0  0  0  0  0
   -0.2040   19.5330  -34.7880 C   0  0  0  0  0  0  0  0  0  0  0  0
   -0.2010   18.3210  -33.8620 C   0  0  0  0  0  0  0  0  0  0  0  0
    1.0940   19.0620  -34.1460 C   0  0  0  0  0  0  0  0  0  0  0  0
   -7.6710   21.6200  -30.8410 C   0  0  0  0  0  0  0  0  0  0  0  0
   -7.0090   22.5840  -30.0760 C   0  0  0  0  0  0  0  0  0  0  0  0
   -4.2080   24.6400  -27.0800 C   0  0  0  0  0  0  0  0  0  0  0  0
   -2.7970   24.9250  -26.5470 C   0  0  0  0  0  0  0  0  0  0  0  0
   -0.4847   25.6903  -26.0850 H   0  0  0  0  0  0  0  0  0  0  0  0
    0.2747   24.9782  -27.5489 H   0  0  0  0  0  0  0  0  0  0  0  0
   -0.2344   26.7008  -27.5489 H   0  0  0  0  0  0  0  0  0  0  0  0
   -2.2917   26.1462  -28.2342 H   0  0  0  0  0  0  0  0  0  0  0  0
   -1.6987   24.5329  -29.7234 H   0  0  0  0  0  0  0  0  0  0  0  0
   -0.8604   23.5385  -28.4375 H   0  0  0  0  0  0  0  0  0  0  0  0
   -3.0691   22.6795  -29.6460 H   0  0  0  0  0  0  0  0  0  0  0  0
   -2.7231   22.4016  -27.8686 H   0  0  0  0  0  0  0  0  0  0  0  0
   -4.7186   23.6400  -32.3860 H   0  0  0  0  0  0  0  0  0  0  0  0
   -5.8931   21.9150  -33.7494 H   0  0  0  0  0  0  0  0  0  0  0  0
   -8.9100   20.6853  -33.3636 H   0  0  0  0  0  0  0  0  0  0  0  0
   -7.3038   20.0196  -33.8179 H   0  0  0  0  0  0  0  0  0  0  0  0
   -9.0800   18.6730  -32.4630 H   0  0  0  0  0  0  0  0  0  0  0  0
   -5.2950   18.1444  -34.7468 H   0  0  0  0  0  0  0  0  0  0  0  0
   -3.1236   19.3221  -35.2035 H   0  0  0  0  0  0  0  0  0  0  0  0
   -5.2312   19.6243  -30.6608 H   0  0  0  0  0  0  0  0  0  0  0  0
   -3.3711   21.9068  -30.6893 H   0  0  0  0  0  0  0  0  0  0  0  0
   -2.4277   20.5414  -30.1246 H   0  0  0  0  0  0  0  0  0  0  0  0
   -1.6589   22.6160  -32.0877 H   0  0  0  0  0  0  0  0  0  0  0  0
   -0.6291   21.3089  -31.4751 H   0  0  0  0  0  0  0  0  0  0  0  0
   -0.5675   19.7132  -35.8104 H   0  0  0  0  0  0  0  0  0  0  0  0
   -0.6660   18.3877  -32.8674 H   0  0  0  0  0  0  0  0  0  0  0  0
   -0.5339   17.2761  -33.9477 H   0  0  0  0  0  0  0  0  0  0  0  0
    1.5668   19.6646  -33.3565 H   0  0  0  0  0  0  0  0  0  0  0  0
    2.0869   18.7745  -34.5222 H   0  0  0  0  0  0  0  0  0  0  0  0
   -8.5027   21.0492  -30.4024 H   0  0  0  0  0  0  0  0  0  0  0  0
   -7.3355   22.7843  -29.0448 H   0  0  0  0  0  0  0  0  0  0  0  0
   -4.6814   25.5992  -27.3367 H   0  0  0  0  0  0  0  0  0  0  0  0
   -4.7464   24.1021  -26.2858 H   0  0  0  0  0  0  0  0  0  0  0  0
   -2.8381   25.7655  -25.8386 H   0  0  0  0  0  0  0  0  0  0  0  0
   -2.4148   24.0273  -26.0391 H   0  0  0  0  0  0  0  0  0  0  0  0
  1  2  1  0
  2  3  1  0
  3  4  1  0
  4  5  1  0
  5  6  1  0
  6  7  2  0
  6  8  2  0
  6  9  1  0
  9 10  2  0
 10 11  1  0
 11 12  2  0
 12 13  1  0
 13 14  1  0
 14 15  1  0
 15 16  2  0
 15 17  2  0
 15 18  1  0
 18 19  2  0
 19 20  1  0
 20 21  2  0
 21 22  1  0
 22 23  2  0
 22 24  1  0
 24 25  1  0
 25 26  1  0
 26 27  1  0
 27 28  2  0
 27 29  1  0
 29 30  1  0
 30 31  1  0
 12 32  1  0
 32 33  2  0
  5 34  1  0
 34 35  1  0
 35  2  1  0
 33  9  1  0
 23 18  1  0
 31 29  1  0
 26 21  1  0
  1 36  1  0
  1 37  1  0
  1 38  1  0
  2 39  1  0
  3 40  1  0
  3 41  1  0
  4 42  1  0
  4 43  1  0
 10 44  1  0
 11 45  1  0
 13 46  1  0
 13 47  1  0
 14 48  1  0
 19 49  1  0
 20 50  1  0
 23 51  1  0
 24 52  1  0
 24 53  1  0
 25 54  1  0
 25 55  1  0
 29 56  1  0
 30 57  1  0
 30 58  1  0
 31 59  1  0
 31 60  1  0
 32 61  1  0
 33 62  1  0
 34 63  1  0
 34 64  1  0
 35 65  1  0
 35 66  1  0
M  END
>  <UniqueID>  (25) 
23

>  <SMILES>  (25) 
CC1CCN(S(=O)(=O)c2ccc(CNS(=O)(=O)c3ccc4c(c3)CCN4C(=O)C3CC3)cc2)CC1

>  <Energy>  (25) 
353.8474672290145

>  <Genealogy>  (25) 
CC1CCN(S(=O)(=O)c2ccc(CNS(=O)(=O)c3ccc4c(c3)CCN4C(=O)C3CC3)cc2)CC1 (3D coordinates assigned)
CC1CCN(S(=O)(=O)c2ccc(CNS(=O)(=O)c3ccc4c(c3)CCN4C(=O)C3CC3)cc2)CC1 (nonaromatic ring conformer: 353.8474672290145 kcal/mol)

>  <smiles>  (25) 
CC1CCN(S(=O)(=O)c2ccc(CNS(=O)(=O)c3ccc4c(c3)CCN4C(=O)C3CC3)cc2)CC1

>  <score_type>  (25) 
oracle

>  <origin>  (25) 
adgpu

>  <m_score__min__energy>  (25) 
-11.9

>  <m_primary>  (25) 
energy

$$$$
25:0
     RDKit          3D

 42 44  0  0  0  0  0  0  0  0999 V2000
   -7.2520   23.1550  -32.3430 C   0  0  0  0  0  0  0  0  0  0  0  0
   -7.0310   21.6970  -32.3390 N   0  0  0  0  0  0  0  0  0  0  0  0
   -5.7870   21.1950  -32.6320 C   0  0  0  0  0  0  0  0  0  0  0  0
   -5.5760   19.8110  -32.6590 C   0  0  0  0  0  0  0  0  0  0  0  0
   -6.6530   18.9630  -32.3830 C   0  0  0  0  0  0  0  0  0  0  0  0
   -6.4930   17.7130  -32.4600 O   0  0  0  0  0  0  0  0  0  0  0  0
   -7.8690   19.4830  -32.0310 N   0  0  0  0  0  0  0  0  0  0  0  0
   -8.9960   18.5800  -31.7350 C   0  0  0  0  0  0  0  0  0  0  0  0
   -8.0600   20.8420  -32.0270 C   0  0  0  0  0  0  0  0  0  0  0  0
   -9.2000   21.3080  -31.7370 O   0  0  0  0  0  0  0  0  0  0  0  0
   -4.2210   19.2430  -33.0350 C   0  0  0  0  0  0  0  0  0  0  0  0
   -3.1150   20.2140  -32.8960 N   0  0  0  0  0  0  0  0  0  0  0  0
   -2.4350   20.2160  -31.5810 C   0  0  0  0  0  0  0  0  0  0  0  0
   -3.2850   20.7750  -30.4260 C   0  0  0  0  0  0  0  0  0  0  0  0
   -2.8280   22.1640  -30.0670 C   0  0  0  0  0  0  0  0  0  0  0  0
   -1.6970   22.3500  -29.2540 C   0  0  0  0  0  0  0  0  0  0  0  0
   -1.2920   23.6380  -28.8940 C   0  0  0  0  0  0  0  0  0  0  0  0
   -2.0160   24.7500  -29.3340 C   0  0  0  0  0  0  0  0  0  0  0  0
   -1.6080   26.0290  -28.9730 O   0  0  0  0  0  0  0  0  0  0  0  0
   -3.1530   24.5730  -30.1330 C   0  0  0  0  0  0  0  0  0  0  0  0
   -3.8800   25.6750  -30.5660 O   0  0  0  0  0  0  0  0  0  0  0  0
   -3.5590   23.2840  -30.4940 C   0  0  0  0  0  0  0  0  0  0  0  0
   -3.4290   21.5440  -33.4430 C   0  0  0  0  0  0  0  0  0  0  0  0
   -4.6680   22.0640  -32.8780 N   0  0  0  0  0  0  0  0  0  0  0  0
   -7.3074   23.5203  -31.3069 H   0  0  0  0  0  0  0  0  0  0  0  0
   -6.4187   23.6507  -32.8625 H   0  0  0  0  0  0  0  0  0  0  0  0
   -8.1947   23.3815  -32.8625 H   0  0  0  0  0  0  0  0  0  0  0  0
   -9.1138   18.4856  -30.6454 H   0  0  0  0  0  0  0  0  0  0  0  0
   -9.9192   18.9912  -32.1694 H   0  0  0  0  0  0  0  0  0  0  0  0
   -8.7960   17.5894  -32.1694 H   0  0  0  0  0  0  0  0  0  0  0  0
   -4.0118   18.3815  -32.3838 H   0  0  0  0  0  0  0  0  0  0  0  0
   -4.2720   18.9608  -34.0970 H   0  0  0  0  0  0  0  0  0  0  0  0
   -2.1591   19.1800  -31.3349 H   0  0  0  0  0  0  0  0  0  0  0  0
   -1.5637   20.8802  -31.6794 H   0  0  0  0  0  0  0  0  0  0  0  0
   -4.3402   20.8084  -30.7349 H   0  0  0  0  0  0  0  0  0  0  0  0
   -3.1704   20.1220  -29.5482 H   0  0  0  0  0  0  0  0  0  0  0  0
   -1.1280   21.4779  -28.8995 H   0  0  0  0  0  0  0  0  0  0  0  0
   -0.4017   23.7772  -28.2631 H   0  0  0  0  0  0  0  0  0  0  0  0
   -4.4560   23.1471  -31.1159 H   0  0  0  0  0  0  0  0  0  0  0  0
   -2.6070   22.2345  -33.2031 H   0  0  0  0  0  0  0  0  0  0  0  0
   -3.5523   21.4538  -34.5323 H   0  0  0  0  0  0  0  0  0  0  0  0
   -4.6790   23.0610  -32.5710 H   0  0  0  0  0  0  0  0  0  0  0  0
  1  2  1  0
  2  3  1  0
  3  4  2  0
  4  5  1  0
  5  6  2  0
  5  7  1  0
  7  8  1  0
  7  9  1  0
  9 10  2  0
  4 11  1  0
 11 12  1  0
 12 13  1  0
 13 14  1  0
 14 15  1  0
 15 16  2  0
 16 17  1  0
 17 18  2  0
 18 19  1  0
 18 20  1  0
 20 21  1  0
 20 22  2  0
 12 23  1  0
 23 24  1  0
  9  2  1  0
 22 15  1  0
 24  3  1  0
  1 25  1  0
  1 26  1  0
  1 27  1  0
  8 28  1  0
  8 29  1  0
  8 30  1  0
 11 31  1  0
 11 32  1  0
 13 33  1  0
 13 34  1  0
 14 35  1  0
 14 36  1  0
 16 37  1  0
 17 38  1  0
 22 39  1  0
 23 40  1  0
 23 41  1  0
 24 42  1  0
M  CHG  2  19  -1  21  -1
M  END
>  <UniqueID>  (26) 
24

>  <SMILES>  (26) 
Cn1c2c(c(=O)n(C)c1=O)CN(CCc1ccc([O-])c([O-])c1)CN2

>  <Energy>  (26) 
60.12242685519608

>  <Genealogy>  (26) 
Cn1c2c(c(=O)n(C)c1=O)CN(CCc1ccc([O-])c([O-])c1)CN2 (protonated)
Cn1c2c(c(=O)n(C)c1=O)CN(CCc1ccc([O-])c([O-])c1)CN2 (3D coordinates assigned)
Cn1c2c(c(=O)n(C)c1=O)CN(CCc1ccc([O-])c([O-])c1)CN2 (nonaromatic ring conformer: 60.12242685519608 kcal/mol)

>  <smiles>  (26) 
Cn1c2c(c(=O)n(C)c1=O)CN(CCc1ccc(O)c(O)c1)CN2

>  <score_type>  (26) 
oracle

>  <origin>  (26) 
adgpu

>  <m_score__min__energy>  (26) 
-13.69

>  <m_primary>  (26) 
energy

$$$$
26:0
     RDKit          3D

 68 72  0  0  0  0  0  0  0  0999 V2000
   -8.3610   19.3590  -31.2730 C   0  0  0  0  0  0  0  0  0  0  0  0
   -8.2910   20.8440  -31.3870 C   0  0  0  0  0  0  0  0  0  0  0  0
   -9.1050   21.5620  -32.2650 C   0  0  0  0  0  0  0  0  0  0  0  0
   -8.8500   23.1990  -31.9770 S   0  0  0  0  0  0  0  0  0  0  0  0
   -7.7770   22.9240  -30.7080 C   0  0  0  0  0  0  0  0  0  0  0  0
   -7.0480   23.9830  -29.9590 C   0  0  0  0  0  0  0  0  0  0  0  0
   -6.0970   24.6370  -30.8420 N   0  0  0  0  0  0  0  0  0  0  0  0
   -4.6780   24.4060  -30.8130 C   0  0  0  0  0  0  0  0  0  0  0  0
   -3.8670   25.3780  -30.8500 O   0  0  0  0  0  0  0  0  0  0  0  0
   -4.1600   23.0170  -30.8400 C   0  0  0  0  0  0  0  0  0  0  0  0
   -3.3560   22.5040  -29.8620 C   0  0  0  0  0  0  0  0  0  0  0  0
   -2.6040   23.3550  -28.9060 C   0  0  0  0  0  0  0  0  0  0  0  0
   -1.3200   23.8110  -29.2300 C   0  0  0  0  0  0  0  0  0  0  0  0
   -0.6790   24.7430  -28.4150 C   0  0  0  0  0  0  0  0  0  0  0  0
   -1.3140   25.2390  -27.2680 C   0  0  0  0  0  0  0  0  0  0  0  0
   -0.5240   26.4790  -26.3060 S   0  0  0  0  0  0  0  0  0  0  0  0
   -1.1840   26.4650  -24.6580 C   0  0  0  0  0  0  0  0  0  0  0  0
    0.9540   26.2020  -26.2660 O   0  0  0  0  0  0  0  0  0  0  0  0
   -0.7440   27.8290  -26.9290 O   0  0  0  0  0  0  0  0  0  0  0  0
   -2.5830   24.7600  -26.9150 C   0  0  0  0  0  0  0  0  0  0  0  0
   -3.2350   23.8360  -27.7380 C   0  0  0  0  0  0  0  0  0  0  0  0
   -3.1350   21.0030  -29.7640 C   0  0  0  0  0  0  0  0  0  0  0  0
   -3.5210   20.2830  -31.0750 C   0  0  2  0  0  0  0  0  0  0  0  0
   -2.5480   20.7190  -32.2000 C   0  0  0  0  0  0  0  0  0  0  0  0
   -3.2570   21.9050  -32.8660 C   0  0  0  0  0  0  0  0  0  0  0  0
   -4.5230   22.1070  -32.0150 C   0  0  1  0  0  0  0  0  0  0  0  0
   -4.8660   20.7660  -31.5030 N   0  0  1  0  0  0  0  0  0  0  0  0
   -5.4200   19.8980  -32.5500 C   0  0  0  0  0  0  0  0  0  0  0  0
   -6.2080   20.3570  -33.4280 O   0  0  0  0  0  0  0  0  0  0  0  0
   -5.0550   18.5070  -32.6440 N   0  0  0  0  0  0  0  0  0  0  0  0
   -5.9860   17.4930  -32.1260 C   0  0  0  0  0  0  0  0  0  0  0  0
   -6.8250   16.9050  -33.2800 C   0  0  0  0  0  0  0  0  0  0  0  0
   -6.0180   16.7320  -34.5920 C   0  0  0  0  0  0  0  0  0  0  0  0
   -4.5010   16.7900  -34.3590 C   0  0  0  0  0  0  0  0  0  0  0  0
   -4.1320   18.1400  -33.7290 C   0  0  0  0  0  0  0  0  0  0  0  0
   -7.6190   21.6020  -30.4780 N   0  0  0  0  0  0  0  0  0  0  0  0
   -8.3745   19.0730  -30.2109 H   0  0  0  0  0  0  0  0  0  0  0  0
   -9.2772   18.9965  -31.7620 H   0  0  0  0  0  0  0  0  0  0  0  0
   -7.4829   18.9119  -31.7620 H   0  0  0  0  0  0  0  0  0  0  0  0
   -9.7903   21.1337  -33.0113 H   0  0  0  0  0  0  0  0  0  0  0  0
   -7.7668   24.7249  -29.5810 H   0  0  0  0  0  0  0  0  0  0  0  0
   -6.5097   23.5285  -29.1142 H   0  0  0  0  0  0  0  0  0  0  0  0
   -0.8153   23.4323  -30.1310 H   0  0  0  0  0  0  0  0  0  0  0  0
    0.3318   25.0914  -28.6738 H   0  0  0  0  0  0  0  0  0  0  0  0
   -0.3578   26.4825  -23.9320 H   0  0  0  0  0  0  0  0  0  0  0  0
   -1.8206   27.3498  -24.5104 H   0  0  0  0  0  0  0  0  0  0  0  0
   -1.7825   25.5540  -24.5104 H   0  0  0  0  0  0  0  0  0  0  0  0
   -3.0660   25.1106  -25.9910 H   0  0  0  0  0  0  0  0  0  0  0  0
   -4.2429   23.4828  -27.4744 H   0  0  0  0  0  0  0  0  0  0  0  0
   -2.0727   20.8120  -29.5516 H   0  0  0  0  0  0  0  0  0  0  0  0
   -3.7739   20.6138  -28.9576 H   0  0  0  0  0  0  0  0  0  0  0  0
   -3.4967   19.1959  -30.9086 H   0  0  0  0  0  0  0  0  0  0  0  0
   -1.5791   21.0281  -31.7808 H   0  0  0  0  0  0  0  0  0  0  0  0
   -2.3280   19.9061  -32.9076 H   0  0  0  0  0  0  0  0  0  0  0  0
   -2.6225   22.8033  -32.8425 H   0  0  0  0  0  0  0  0  0  0  0  0
   -3.4844   21.7213  -33.9265 H   0  0  0  0  0  0  0  0  0  0  0  0
   -5.3545   22.5542  -32.5795 H   0  0  0  0  0  0  0  0  0  0  0  0
   -5.5790   20.8370  -30.7120 H   0  0  0  0  0  0  0  0  0  0  0  0
   -5.4141   16.6863  -31.6441 H   0  0  0  0  0  0  0  0  0  0  0  0
   -6.6595   17.9629  -31.3941 H   0  0  0  0  0  0  0  0  0  0  0  0
   -7.2048   15.9202  -32.9702 H   0  0  0  0  0  0  0  0  0  0  0  0
   -7.6399   17.6142  -33.4874 H   0  0  0  0  0  0  0  0  0  0  0  0
   -6.2701   15.7576  -35.0358 H   0  0  0  0  0  0  0  0  0  0  0  0
   -6.2861   17.5620  -35.2622 H   0  0  0  0  0  0  0  0  0  0  0  0
   -4.2024   15.9757  -33.6824 H   0  0  0  0  0  0  0  0  0  0  0  0
   -3.9776   16.6783  -35.3201 H   0  0  0  0  0  0  0  0  0  0  0  0
   -3.1119   18.0762  -33.3224 H   0  0  0  0  0  0  0  0  0  0  0  0
   -4.1987   18.9115  -34.5102 H   0  0  0  0  0  0  0  0  0  0  0  0
  1  2  1  0
  2  3  2  0
  3  4  1  0
  4  5  1  0
  5  6  1  0
  6  7  1  0
  7  8  1  0
  8  9  2  0
  8 10  1  0
 10 11  2  0
 11 12  1  0
 12 13  2  0
 13 14  1  0
 14 15  2  0
 15 16  1  0
 16 17  1  0
 16 18  2  0
 16 19  2  0
 15 20  1  0
 20 21  2  0
 11 22  1  0
 22 23  1  0
 23 24  1  0
 24 25  1  0
 25 26  1  0
 26 27  1  0
 27 28  1  0
 28 29  2  0
 28 30  1  0
 30 31  1  0
 31 32  1  0
 32 33  1  0
 33 34  1  0
 34 35  1  0
  5 36  2  0
 36  2  1  0
 26 10  1  0
 35 30  1  0
 21 12  1  0
 27 23  1  0
  1 37  1  0
  1 38  1  0
  1 39  1  0
  3 40  1  0
  6 41  1  0
  6 42  1  0
 13 43  1  0
 14 44  1  0
 17 45  1  0
 17 46  1  0
 17 47  1  0
 20 48  1  0
 21 49  1  0
 22 50  1  0
 22 51  1  0
 23 52  1  1
 24 53  1  0
 24 54  1  0
 25 55  1  0
 25 56  1  0
 26 57  1  6
 27 58  1  1
 31 59  1  0
 31 60  1  0
 32 61  1  0
 32 62  1  0
 33 63  1  0
 33 64  1  0
 34 65  1  0
 34 66  1  0
 35 67  1  0
 35 68  1  0
M  CHG  2   7  -1  27   1
M  END
>  <UniqueID>  (27) 
25

>  <SMILES>  (27) 
Cc1csc(C[N-]C(=O)C2=C(c3ccc(S(C)(=O)=O)cc3)C[C@@H]3CC[C@H]2[NH+]3C(=O)N2CCCCC2)n1

>  <Energy>  (27) 
136.70041707710573

>  <Genealogy>  (27) 
Cc1csc(C[N-]C(=O)C2=C(c3ccc(S(C)(=O)=O)cc3)CC3CCC2[NH+]3C(=O)N2CCCCC2)n1 (protonated)
Cc1csc(C[N-]C(=O)C2=C(c3ccc(S(C)(=O)=O)cc3)C[C@@H]3CC[C@H]2[NH+]3C(=O)N2CCCCC2)n1 (chirality)
Cc1csc(C[N-]C(=O)C2=C(c3ccc(S(C)(=O)=O)cc3)C[C@@H]3CC[C@H]2[NH+]3C(=O)N2CCCCC2)n1 (3D coordinates assigned)
Cc1csc(C[N-]C(=O)C2=C(c3ccc(S(C)(=O)=O)cc3)C[C@@H]3CC[C@H]2[NH+]3C(=O)N2CCCCC2)n1 (nonaromatic ring conformer: 136.70041707710573 kcal/mol)

>  <smiles>  (27) 
Cc1csc(CNC(=O)C2=C(c3ccc(S(C)(=O)=O)cc3)CC3CCC2N3C(=O)N2CCCCC2)n1

>  <score_type>  (27) 
oracle

>  <origin>  (27) 
adgpu

>  <m_score__min__energy>  (27) 
-11.57

>  <m_primary>  (27) 
energy

$$$$
27:0
     RDKit          3D

 66 70  0  0  0  0  0  0  0  0999 V2000
    2.2870   23.0010  -35.4970 C   0  0  0  0  0  0  0  0  0  0  0  0
    0.9760   22.7050  -35.0270 O   0  0  0  0  0  0  0  0  0  0  0  0
    0.4810   21.4090  -34.8140 C   0  0  0  0  0  0  0  0  0  0  0  0
    0.5820   20.4870  -35.8520 C   0  0  0  0  0  0  0  0  0  0  0  0
    0.0980   19.1910  -35.6950 C   0  0  0  0  0  0  0  0  0  0  0  0
   -0.5000   18.7780  -34.4920 C   0  0  0  0  0  0  0  0  0  0  0  0
   -1.1130   17.1070  -34.4450 S   0  0  0  0  0  0  0  0  0  0  0  0
   -0.4370   16.3090  -33.3690 O   0  0  0  0  0  0  0  0  0  0  0  0
   -0.8080   16.4390  -35.7570 O   0  0  0  0  0  0  0  0  0  0  0  0
   -2.8610   17.0810  -34.2170 C   0  0  0  0  0  0  0  0  0  0  0  0
   -3.4430   16.1480  -33.3500 C   0  0  0  0  0  0  0  0  0  0  0  0
   -4.8110   16.2010  -33.0680 C   0  0  0  0  0  0  0  0  0  0  0  0
   -5.6220   17.1820  -33.6680 C   0  0  0  0  0  0  0  0  0  0  0  0
   -7.0100   17.3340  -33.3320 N   0  0  0  0  0  0  0  0  0  0  0  0
   -7.5700   18.2080  -32.3430 C   0  0  0  0  0  0  0  0  0  0  0  0
   -8.5400   17.8010  -31.6520 O   0  0  0  0  0  0  0  0  0  0  0  0
   -6.9670   19.5250  -32.0390 C   0  0  0  0  0  0  0  0  0  0  0  0
   -5.6030   19.5720  -31.7510 C   0  0  0  0  0  0  0  0  0  0  0  0
   -5.0040   20.7460  -31.4420 N   0  0  0  0  0  0  0  0  0  0  0  0
   -5.6730   21.9260  -31.3990 C   0  0  0  0  0  0  0  0  0  0  0  0
   -4.7380   23.3680  -30.9850 S   0  0  0  0  0  0  0  0  0  0  0  0
   -4.5800   23.5150  -29.2170 C   0  0  0  0  0  0  0  0  0  0  0  0
   -5.3880   24.5950  -31.5600 O   0  0  0  0  0  0  0  0  0  0  0  0
   -3.3600   23.2410  -31.5730 O   0  0  0  0  0  0  0  0  0  0  0  0
   -7.0610   21.9500  -31.6830 C   0  0  0  0  0  0  0  0  0  0  0  0
   -7.8130   23.1450  -31.6640 C   0  0  0  0  0  0  0  0  0  0  0  0
   -9.1710   23.1360  -31.9760 C   0  0  0  0  0  0  0  0  0  0  0  0
   -9.8040   21.9450  -32.3190 C   0  0  0  0  0  0  0  0  0  0  0  0
   -9.0860   20.7510  -32.3430 C   0  0  0  0  0  0  0  0  0  0  0  0
   -7.7140   20.7280  -32.0130 C   0  0  0  0  0  0  0  0  0  0  0  0
   -5.0350   18.1130  -34.5350 C   0  0  0  0  0  0  0  0  0  0  0  0
   -3.6640   18.0670  -34.8040 C   0  0  0  0  0  0  0  0  0  0  0  0
   -0.6040   19.7090  -33.4200 C   0  0  0  0  0  0  0  0  0  0  0  0
   -1.3280   19.3240  -31.8440 S   0  0  0  0  0  0  0  0  0  0  0  0
   -2.8250   19.2810  -31.9740 O   0  0  0  0  0  0  0  0  0  0  0  0
   -0.8720   17.9680  -31.3820 O   0  0  0  0  0  0  0  0  0  0  0  0
   -0.8220   20.4800  -30.6180 C   0  0  0  0  0  0  0  0  0  0  0  0
   -1.2550   21.8150  -30.6630 C   0  0  0  0  0  0  0  0  0  0  0  0
   -0.8860   22.7050  -29.6490 C   0  0  0  0  0  0  0  0  0  0  0  0
   -1.2930   23.9970  -29.7010 F   0  0  0  0  0  0  0  0  0  0  0  0
   -0.1010   22.2620  -28.5810 C   0  0  0  0  0  0  0  0  0  0  0  0
    0.3170   20.9300  -28.5260 C   0  0  0  0  0  0  0  0  0  0  0  0
    1.0420   20.4910  -27.4700 F   0  0  0  0  0  0  0  0  0  0  0  0
   -0.0350   20.0430  -29.5450 C   0  0  0  0  0  0  0  0  0  0  0  0
   -0.1080   21.0150  -33.6020 C   0  0  0  0  0  0  0  0  0  0  0  0
    2.9586   23.1526  -34.6391 H   0  0  0  0  0  0  0  0  0  0  0  0
    2.6555   22.1634  -36.1075 H   0  0  0  0  0  0  0  0  0  0  0  0
    2.2598   23.9156  -36.1075 H   0  0  0  0  0  0  0  0  0  0  0  0
    1.0476   20.7845  -36.8032 H   0  0  0  0  0  0  0  0  0  0  0  0
    0.1852   18.4774  -36.5276 H   0  0  0  0  0  0  0  0  0  0  0  0
   -2.8196   15.3684  -32.8879 H   0  0  0  0  0  0  0  0  0  0  0  0
   -5.2556   15.4726  -32.3739 H   0  0  0  0  0  0  0  0  0  0  0  0
   -5.0087   18.6467  -31.7752 H   0  0  0  0  0  0  0  0  0  0  0  0
   -5.3012   22.8440  -28.7274 H   0  0  0  0  0  0  0  0  0  0  0  0
   -3.5588   23.2383  -28.9159 H   0  0  0  0  0  0  0  0  0  0  0  0
   -4.7824   24.5534  -28.9159 H   0  0  0  0  0  0  0  0  0  0  0  0
   -7.3216   24.0931  -31.4001 H   0  0  0  0  0  0  0  0  0  0  0  0
   -9.7450   24.0740  -31.9511 H   0  0  0  0  0  0  0  0  0  0  0  0
  -10.8745   21.9462  -32.5720 H   0  0  0  0  0  0  0  0  0  0  0  0
   -9.5941   19.8162  -32.6222 H   0  0  0  0  0  0  0  0  0  0  0  0
   -5.6581   18.8864  -35.0079 H   0  0  0  0  0  0  0  0  0  0  0  0
   -3.2137   18.8088  -35.4800 H   0  0  0  0  0  0  0  0  0  0  0  0
   -1.8846   22.1610  -31.4960 H   0  0  0  0  0  0  0  0  0  0  0  0
    0.1879   22.9623  -27.7834 H   0  0  0  0  0  0  0  0  0  0  0  0
    0.3066   18.9982  -29.5051 H   0  0  0  0  0  0  0  0  0  0  0  0
   -0.1837   21.7402  -32.7784 H   0  0  0  0  0  0  0  0  0  0  0  0
  1  2  1  0
  2  3  1  0
  3  4  2  0
  4  5  1  0
  5  6  2  0
  6  7  1  0
  7  8  2  0
  7  9  2  0
  7 10  1  0
 10 11  2  0
 11 12  1  0
 12 13  2  0
 13 14  1  0
 14 15  1  0
 15 16  2  0
 15 17  1  0
 17 18  2  0
 18 19  1  0
 19 20  2  0
 20 21  1  0
 21 22  1  0
 21 23  2  0
 21 24  2  0
 20 25  1  0
 25 26  2  0
 26 27  1  0
 27 28  2  0
 28 29  1  0
 29 30  2  0
 13 31  1  0
 31 32  2  0
  6 33  1  0
 33 34  1  0
 34 35  2  0
 34 36  2  0
 34 37  1  0
 37 38  2  0
 38 39  1  0
 39 40  1  0
 39 41  2  0
 41 42  1  0
 42 43  1  0
 42 44  2  0
 33 45  2  0
 45  3  1  0
 32 10  1  0
 44 37  1  0
 30 17  1  0
 30 25  1  0
  1 46  1  0
  1 47  1  0
  1 48  1  0
  4 49  1  0
  5 50  1  0
 11 51  1  0
 12 52  1  0
 18 53  1  0
 22 54  1  0
 22 55  1  0
 22 56  1  0
 26 57  1  0
 27 58  1  0
 28 59  1  0
 29 60  1  0
 31 61  1  0
 32 62  1  0
 38 63  1  0
 41 64  1  0
 44 65  1  0
 45 66  1  0
M  CHG  1  14  -1
M  END
>  <UniqueID>  (28) 
26

>  <SMILES>  (28) 
COc1ccc(S(=O)(=O)c2ccc([N-]C(=O)c3cnc(S(C)(=O)=O)c4ccccc34)cc2)c(S(=O)(=O)c2cc(F)cc(F)c2)c1

>  <Energy>  (28) 
91.87620869038628

>  <Genealogy>  (28) 
COc1ccc(S(=O)(=O)c2ccc([N-]C(=O)c3cnc(S(C)(=O)=O)c4ccccc34)cc2)c(S(=O)(=O)c2cc(F)cc(F)c2)c1 (protonated)
COc1ccc(S(=O)(=O)c2ccc([N-]C(=O)c3cnc(S(C)(=O)=O)c4ccccc34)cc2)c(S(=O)(=O)c2cc(F)cc(F)c2)c1 (3D coordinates assigned)
COc1ccc(S(=O)(=O)c2ccc([N-]C(=O)c3cnc(S(C)(=O)=O)c4ccccc34)cc2)c(S(=O)(=O)c2cc(F)cc(F)c2)c1 (optimized conformer: 91.87620869038628 kcal/mol)

>  <smiles>  (28) 
COc1ccc(S(=O)(=O)c2ccc(NC(=O)c3cnc(S(C)(=O)=O)c4ccccc34)cc2)c(S(=O)(=O)c2cc(F)cc(F)c2)c1

>  <score_type>  (28) 
oracle

>  <origin>  (28) 
adgpu

>  <m_score__min__energy>  (28) 
-12.960000000000001

>  <m_primary>  (28) 
energy

$$$$
28:0
     RDKit          3D

 28 30  0  0  0  0  0  0  0  0999 V2000
   -2.9740   25.2980  -29.7240 O   0  0  0  0  0  0  0  0  0  0  0  0
   -4.1410   24.7410  -30.2350 C   0  0  0  0  0  0  0  0  0  0  0  0
   -5.3010   25.5110  -30.3210 C   0  0  0  0  0  0  0  0  0  0  0  0
   -6.4780   24.9490  -30.8160 C   0  0  0  0  0  0  0  0  0  0  0  0
   -6.5100   23.6080  -31.2290 C   0  0  0  0  0  0  0  0  0  0  0  0
   -5.3200   22.8350  -31.1960 C   0  0  0  0  0  0  0  0  0  0  0  0
   -4.1520   23.4100  -30.6580 C   0  0  0  0  0  0  0  0  0  0  0  0
   -5.3170   21.3640  -31.5970 C   0  0  2  0  0  0  0  0  0  0  0  0
   -4.1020   21.0120  -32.4180 C   0  0  0  0  0  0  0  0  0  0  0  0
   -3.6880   19.7470  -32.7690 C   0  0  0  0  0  0  0  0  0  0  0  0
   -2.5490   19.8430  -33.4760 N   0  0  0  0  0  0  0  0  0  0  0  0
   -2.3030   21.1680  -33.5260 C   0  0  0  0  0  0  0  0  0  0  0  0
   -3.2270   21.9170  -32.8870 N   0  0  0  0  0  0  0  0  0  0  0  0
   -6.5850   20.9460  -32.3670 C   0  0  0  0  0  0  0  0  0  0  0  0
   -7.8360   21.5190  -31.7070 C   0  0  0  0  0  0  0  0  0  0  0  0
   -7.8030   23.0460  -31.7680 C   0  0  0  0  0  0  0  0  0  0  0  0
   -5.2877   26.5625  -29.9982 H   0  0  0  0  0  0  0  0  0  0  0  0
   -7.3888   25.5621  -30.8832 H   0  0  0  0  0  0  0  0  0  0  0  0
   -3.2383   22.8039  -30.5700 H   0  0  0  0  0  0  0  0  0  0  0  0
   -5.2940   20.8057  -30.6495 H   0  0  0  0  0  0  0  0  0  0  0  0
   -4.2050   18.8105  -32.5127 H   0  0  0  0  0  0  0  0  0  0  0  0
   -1.4307   21.5985  -34.0396 H   0  0  0  0  0  0  0  0  0  0  0  0
   -6.5191   21.3197  -33.3995 H   0  0  0  0  0  0  0  0  0  0  0  0
   -6.6550   19.8483  -32.3597 H   0  0  0  0  0  0  0  0  0  0  0  0
   -8.7281   21.1520  -32.2357 H   0  0  0  0  0  0  0  0  0  0  0  0
   -7.8695   21.1991  -30.6551 H   0  0  0  0  0  0  0  0  0  0  0  0
   -7.9176   23.3617  -32.8155 H   0  0  0  0  0  0  0  0  0  0  0  0
   -8.6245   23.4277  -31.1439 H   0  0  0  0  0  0  0  0  0  0  0  0
  1  2  1  0
  2  3  2  0
  3  4  1  0
  4  5  2  0
  5  6  1  0
  6  7  2  0
  6  8  1  0
  8  9  1  0
  9 10  2  0
 10 11  1  0
 11 12  1  0
 12 13  2  0
  8 14  1  0
 14 15  1  0
 15 16  1  0
  7  2  1  0
 13  9  1  0
 16  5  1  0
  3 17  1  0
  4 18  1  0
  7 19  1  0
  8 20  1  1
 10 21  1  0
 12 22  1  0
 14 23  1  0
 14 24  1  0
 15 25  1  0
 15 26  1  0
 16 27  1  0
 16 28  1  0
M  CHG  2   1  -1  11  -1
M  END
>  <UniqueID>  (29) 
27

>  <SMILES>  (29) 
[O-]c1ccc2c(c1)[C@H](c1c[n-]cn1)CCC2

>  <Energy>  (29) 
57.569824544235395

>  <Genealogy>  (29) 
[O-]c1ccc2c(c1)C(c1c[n-]cn1)CCC2 (protonated)
[O-]c1ccc2c(c1)[C@H](c1c[n-]cn1)CCC2 (chirality)
[O-]c1ccc2c(c1)[C@H](c1c[n-]cn1)CCC2 (3D coordinates assigned)
[O-]c1ccc2c(c1)[C@H](c1c[n-]cn1)CCC2 (nonaromatic ring conformer: 57.569824544235395 kcal/mol)

>  <smiles>  (29) 
Oc1ccc2c(c1)C(c1c[nH]cn1)CCC2

>  <score_type>  (29) 
oracle

>  <origin>  (29) 
adgpu

>  <m_score__min__energy>  (29) 
-9.9000000000000004

>  <m_primary>  (29) 
energy

$$$$
29:0
     RDKit          3D

 62 65  0  0  0  0  0  0  0  0999 V2000
   -3.5780   18.6030  -26.5990 C   0  0  0  0  0  0  0  0  0  0  0  0
   -2.6370   19.7160  -26.9570 C   0  0  0  0  0  0  0  0  0  0  0  0
   -1.2510   19.5770  -26.7660 C   0  0  0  0  0  0  0  0  0  0  0  0
   -0.3880   20.6250  -27.1020 C   0  0  0  0  0  0  0  0  0  0  0  0
   -0.9030   21.8200  -27.6260 C   0  0  0  0  0  0  0  0  0  0  0  0
    0.2090   23.1600  -28.0590 S   0  0  0  0  0  0  0  0  0  0  0  0
   -0.1570   24.0850  -26.5680 C   0  0  0  0  0  0  0  0  0  0  0  0
   -0.0680   23.5670  -25.3270 N   0  0  0  0  0  0  0  0  0  0  0  0
   -0.4160   24.5950  -24.5180 C   0  0  0  0  0  0  0  0  0  0  0  0
   -0.7190   25.7170  -25.2030 N   0  0  0  0  0  0  0  0  0  0  0  0
   -1.1510   26.9960  -24.6450 C   0  0  0  0  0  0  0  0  0  0  0  0
   -0.5600   25.4010  -26.4970 C   0  0  0  0  0  0  0  0  0  0  0  0
   -0.8610   26.2910  -27.6180 C   0  0  0  0  0  0  0  0  0  0  0  0
   -0.4240   27.4760  -27.6020 O   0  0  0  0  0  0  0  0  0  0  0  0
   -1.5980   25.8080  -28.7080 O   0  0  0  0  0  0  0  0  0  0  0  0
   -2.6750   24.8860  -28.5650 C   0  0  0  0  0  0  0  0  0  0  0  0
   -3.0430   24.3290  -29.9040 C   0  0  0  0  0  0  0  0  0  0  0  0
   -2.3240   23.4420  -30.4380 O   0  0  0  0  0  0  0  0  0  0  0  0
   -4.2180   24.8150  -30.5620 N   0  0  0  0  0  0  0  0  0  0  0  0
   -5.3940   24.0510  -30.8620 C   0  0  0  0  0  0  0  0  0  0  0  0
   -5.8180   23.0850  -29.9420 C   0  0  0  0  0  0  0  0  0  0  0  0
   -6.8990   22.2480  -30.2370 C   0  0  0  0  0  0  0  0  0  0  0  0
   -7.5600   22.3610  -31.4670 C   0  0  0  0  0  0  0  0  0  0  0  0
   -8.8670   21.2550  -31.8890 S   0  0  0  0  0  0  0  0  0  0  0  0
   -9.9430   22.0270  -32.6020 O   0  0  0  0  0  0  0  0  0  0  0  0
   -9.4500   20.6550  -30.6380 O   0  0  0  0  0  0  0  0  0  0  0  0
   -8.2760   19.9760  -32.9270 N   0  0  0  0  0  0  0  0  0  0  0  0
   -6.8520   20.2070  -33.2570 C   0  0  0  0  0  0  0  0  0  0  0  0
   -6.1690   18.8950  -33.6800 C   0  0  0  0  0  0  0  0  0  0  0  0
   -6.1890   17.8820  -32.6780 O   0  0  0  0  0  0  0  0  0  0  0  0
   -7.2230   18.0460  -31.7170 C   0  0  0  0  0  0  0  0  0  0  0  0
   -8.5130   18.6420  -32.3140 C   0  0  0  0  0  0  0  0  0  0  0  0
   -7.1480   23.3350  -32.3860 C   0  0  0  0  0  0  0  0  0  0  0  0
   -6.0670   24.1710  -32.0910 C   0  0  0  0  0  0  0  0  0  0  0  0
   -2.2820   21.9580  -27.8250 C   0  0  0  0  0  0  0  0  0  0  0  0
   -3.1460   20.9110  -27.4880 C   0  0  0  0  0  0  0  0  0  0  0  0
   -3.6482   18.5200  -25.5044 H   0  0  0  0  0  0  0  0  0  0  0  0
   -4.5736   18.8165  -27.0151 H   0  0  0  0  0  0  0  0  0  0  0  0
   -3.2019   17.6567  -27.0151 H   0  0  0  0  0  0  0  0  0  0  0  0
   -0.8448   18.6425  -26.3516 H   0  0  0  0  0  0  0  0  0  0  0  0
    0.6963   20.5120  -26.9551 H   0  0  0  0  0  0  0  0  0  0  0  0
   -0.4482   24.5233  -23.4208 H   0  0  0  0  0  0  0  0  0  0  0  0
   -1.1327   26.9417  -23.5465 H   0  0  0  0  0  0  0  0  0  0  0  0
   -0.4719   27.7921  -24.9842 H   0  0  0  0  0  0  0  0  0  0  0  0
   -2.1737   27.2173  -24.9842 H   0  0  0  0  0  0  0  0  0  0  0  0
   -2.3682   24.0657  -27.8995 H   0  0  0  0  0  0  0  0  0  0  0  0
   -3.5443   25.4050  -28.1349 H   0  0  0  0  0  0  0  0  0  0  0  0
   -5.2966   22.9833  -28.9788 H   0  0  0  0  0  0  0  0  0  0  0  0
   -7.2307   21.4998  -29.5020 H   0  0  0  0  0  0  0  0  0  0  0  0
   -8.8280   20.0270  -33.8160 H   0  0  0  0  0  0  0  0  0  0  0  0
   -6.7861   20.9304  -34.0830 H   0  0  0  0  0  0  0  0  0  0  0  0
   -6.3422   20.5977  -32.3640 H   0  0  0  0  0  0  0  0  0  0  0  0
   -6.6837   18.5091  -34.5723 H   0  0  0  0  0  0  0  0  0  0  0  0
   -5.1122   19.1334  -33.8705 H   0  0  0  0  0  0  0  0  0  0  0  0
   -7.4589   17.0623  -31.2850 H   0  0  0  0  0  0  0  0  0  0  0  0
   -6.8562   18.7517  -30.9571 H   0  0  0  0  0  0  0  0  0  0  0  0
   -8.8961   17.9588  -33.0863 H   0  0  0  0  0  0  0  0  0  0  0  0
   -9.2403   18.7663  -31.4981 H   0  0  0  0  0  0  0  0  0  0  0  0
   -7.6776   23.4424  -33.3441 H   0  0  0  0  0  0  0  0  0  0  0  0
   -5.7417   24.9252  -32.8227 H   0  0  0  0  0  0  0  0  0  0  0  0
   -2.6861   22.8902  -28.2465 H   0  0  0  0  0  0  0  0  0  0  0  0
   -4.2295   21.0249  -27.6399 H   0  0  0  0  0  0  0  0  0  0  0  0
  1  2  1  0
  2  3  2  0
  3  4  1  0
  4  5  2  0
  5  6  1  0
  6  7  1  0
  7  8  1  0
  8  9  2  0
  9 10  1  0
 10 11  1  0
 10 12  1  0
 12 13  1  0
 13 14  2  0
 13 15  1  0
 15 16  1  0
 16 17  1  0
 17 18  2  0
 17 19  1  0
 19 20  1  0
 20 21  2  0
 21 22  1  0
 22 23  2  0
 23 24  1  0
 24 25  2  0
 24 26  2  0
 24 27  1  0
 27 28  1  0
 28 29  1  0
 29 30  1  0
 30 31  1  0
 31 32  1  0
 23 33  1  0
 33 34  2  0
  5 35  1  0
 35 36  2  0
 36  2  1  0
 12  7  2  0
 34 20  1  0
 32 27  1  0
  1 37  1  0
  1 38  1  0
  1 39  1  0
  3 40  1  0
  4 41  1  0
  9 42  1  0
 11 43  1  0
 11 44  1  0
 11 45  1  0
 16 46  1  0
 16 47  1  0
 21 48  1  0
 22 49  1  0
 27 50  1  0
 28 51  1  0
 28 52  1  0
 29 53  1  0
 29 54  1  0
 31 55  1  0
 31 56  1  0
 32 57  1  0
 32 58  1  0
 33 59  1  0
 34 60  1  0
 35 61  1  0
 36 62  1  0
M  CHG  2  19  -1  27   1
M  END
>  <UniqueID>  (30) 
28

>  <SMILES>  (30) 
Cc1ccc(Sc2ncn(C)c2C(=O)OCC(=O)[N-]c2ccc(S(=O)(=O)[NH+]3CCOCC3)cc2)cc1

>  <Energy>  (30) 
108.38633291354155

>  <Genealogy>  (30) 
Cc1ccc(Sc2ncn(C)c2C(=O)OCC(=O)[N-]c2ccc(S(=O)(=O)[NH+]3CCOCC3)cc2)cc1 (protonated)
Cc1ccc(Sc2ncn(C)c2C(=O)OCC(=O)[N-]c2ccc(S(=O)(=O)[NH+]3CCOCC3)cc2)cc1 (3D coordinates assigned)
Cc1ccc(Sc2ncn(C)c2C(=O)OCC(=O)[N-]c2ccc(S(=O)(=O)[NH+]3CCOCC3)cc2)cc1 (nonaromatic ring conformer: 108.38633291354155 kcal/mol)

>  <smiles>  (30) 
Cc1ccc(Sc2ncn(C)c2C(=O)OCC(=O)Nc2ccc(S(=O)(=O)N3CCOCC3)cc2)cc1

>  <score_type>  (30) 
oracle

>  <origin>  (30) 
adgpu

>  <m_score__min__energy>  (30) 
-12.210000000000001

>  <m_primary>  (30) 
energy

$$$$
30:0
     RDKit          3D

 54 57  0  0  0  0  0  0  0  0999 V2000
   -2.7700   25.1210  -27.3460 O   0  0  0  0  0  0  0  0  0  0  0  0
   -2.2280   24.9090  -28.7320 S   0  0  0  0  0  0  0  0  0  0  0  0
   -1.1280   25.9040  -28.9700 O   0  0  0  0  0  0  0  0  0  0  0  0
   -3.4990   25.1960  -29.8800 N   0  0  0  0  0  0  0  0  0  0  0  0
   -4.4370   24.2150  -30.3330 C   0  0  0  0  0  0  0  0  0  0  0  0
   -3.9700   23.1100  -31.0480 C   0  0  0  0  0  0  0  0  0  0  0  0
   -4.8580   22.1410  -31.5220 C   0  0  0  0  0  0  0  0  0  0  0  0
   -6.2520   22.2600  -31.3060 C   0  0  0  0  0  0  0  0  0  0  0  0
   -7.1840   21.2430  -31.7900 N   0  0  0  0  0  0  0  0  0  0  0  0
   -8.6380   21.5100  -31.7420 C   0  0  0  0  0  0  0  0  0  0  0  0
   -9.4890   20.3860  -32.3390 C   0  0  0  0  0  0  0  0  0  0  0  0
   -8.9500   19.1240  -32.0250 O   0  0  0  0  0  0  0  0  0  0  0  0
   -7.7400   18.9720  -32.7260 C   0  0  0  0  0  0  0  0  0  0  0  0
   -6.6640   19.9140  -32.1760 C   0  0  0  0  0  0  0  0  0  0  0  0
   -6.7080   23.4030  -30.6030 C   0  0  0  0  0  0  0  0  0  0  0  0
   -5.8140   24.3730  -30.1420 C   0  0  0  0  0  0  0  0  0  0  0  0
   -1.5550   23.2840  -28.8410 C   0  0  0  0  0  0  0  0  0  0  0  0
   -0.8650   22.8780  -29.9930 C   0  0  0  0  0  0  0  0  0  0  0  0
   -0.3340   21.5880  -30.0770 C   0  0  0  0  0  0  0  0  0  0  0  0
   -0.5010   20.6860  -29.0170 C   0  0  0  0  0  0  0  0  0  0  0  0
    0.1100   19.0380  -29.1360 S   0  0  0  0  0  0  0  0  0  0  0  0
    1.6120   19.0120  -29.0490 O   0  0  0  0  0  0  0  0  0  0  0  0
   -0.4510   18.2290  -27.9990 O   0  0  0  0  0  0  0  0  0  0  0  0
   -0.3870   18.3300  -30.6410 N   0  0  0  0  0  0  0  0  0  0  0  0
   -0.7130   19.0560  -31.8360 C   0  0  0  0  0  0  0  0  0  0  0  0
   -2.0350   19.1450  -32.3140 C   0  0  0  0  0  0  0  0  0  0  0  0
   -2.3160   19.8580  -33.4830 C   0  0  0  0  0  0  0  0  0  0  0  0
   -3.5900   19.9320  -33.9410 F   0  0  0  0  0  0  0  0  0  0  0  0
   -1.2880   20.5020  -34.1760 C   0  0  0  0  0  0  0  0  0  0  0  0
    0.0240   20.4260  -33.7060 C   0  0  0  0  0  0  0  0  0  0  0  0
    0.3160   19.7060  -32.5390 C   0  0  0  0  0  0  0  0  0  0  0  0
    1.6260   19.6300  -32.0720 O   0  0  0  0  0  0  0  0  0  0  0  0
   -1.1860   21.0910  -27.8640 C   0  0  0  0  0  0  0  0  0  0  0  0
   -1.7040   22.3870  -27.7730 C   0  0  0  0  0  0  0  0  0  0  0  0
   -2.8923   23.0014  -31.2399 H   0  0  0  0  0  0  0  0  0  0  0  0
   -4.4677   21.2718  -32.0718 H   0  0  0  0  0  0  0  0  0  0  0  0
   -8.9316   21.6473  -30.6908 H   0  0  0  0  0  0  0  0  0  0  0  0
   -8.8205   22.4091  -32.3489 H   0  0  0  0  0  0  0  0  0  0  0  0
  -10.5091   20.4526  -31.9329 H   0  0  0  0  0  0  0  0  0  0  0  0
   -9.5017   20.4993  -33.4331 H   0  0  0  0  0  0  0  0  0  0  0  0
   -7.3939   17.9328  -32.6249 H   0  0  0  0  0  0  0  0  0  0  0  0
   -7.9145   19.2192  -33.7836 H   0  0  0  0  0  0  0  0  0  0  0  0
   -6.2121   19.4460  -31.2890 H   0  0  0  0  0  0  0  0  0  0  0  0
   -5.9326   20.0747  -32.9817 H   0  0  0  0  0  0  0  0  0  0  0  0
   -7.7848   23.5288  -30.4170 H   0  0  0  0  0  0  0  0  0  0  0  0
   -6.1952   25.2664  -29.6257 H   0  0  0  0  0  0  0  0  0  0  0  0
   -0.7415   23.5774  -30.8330 H   0  0  0  0  0  0  0  0  0  0  0  0
    0.2168   21.2794  -30.9778 H   0  0  0  0  0  0  0  0  0  0  0  0
   -2.8501   18.6511  -31.7648 H   0  0  0  0  0  0  0  0  0  0  0  0
   -1.5125   21.0687  -35.0917 H   0  0  0  0  0  0  0  0  0  0  0  0
    0.8322   20.9331  -34.2534 H   0  0  0  0  0  0  0  0  0  0  0  0
    1.8470   19.1850  -31.1900 H   0  0  0  0  0  0  0  0  0  0  0  0
   -1.3168   20.3880  -27.0282 H   0  0  0  0  0  0  0  0  0  0  0  0
   -2.2302   22.7040  -26.8605 H   0  0  0  0  0  0  0  0  0  0  0  0
  1  2  2  0
  2  3  2  0
  2  4  1  0
  4  5  1  0
  5  6  2  0
  6  7  1  0
  7  8  2  0
  8  9  1  0
  9 10  1  0
 10 11  1  0
 11 12  1  0
 12 13  1  0
 13 14  1  0
  8 15  1  0
 15 16  2  0
  2 17  1  0
 17 18  2  0
 18 19  1  0
 19 20  2  0
 20 21  1  0
 21 22  2  0
 21 23  2  0
 21 24  1  0
 24 25  1  0
 25 26  2  0
 26 27  1  0
 27 28  1  0
 27 29  2  0
 29 30  1  0
 30 31  2  0
 31 32  1  0
 20 33  1  0
 33 34  2  0
 16  5  1  0
 34 17  1  0
 14  9  1  0
 31 25  1  0
  6 35  1  0
  7 36  1  0
 10 37  1  0
 10 38  1  0
 11 39  1  0
 11 40  1  0
 13 41  1  0
 13 42  1  0
 14 43  1  0
 14 44  1  0
 15 45  1  0
 16 46  1  0
 18 47  1  0
 19 48  1  0
 26 49  1  0
 29 50  1  0
 30 51  1  0
 32 52  1  0
 33 53  1  0
 34 54  1  0
M  CHG  2   4  -1  24  -1
M  END
>  <UniqueID>  (31) 
29

>  <SMILES>  (31) 
O=S(=O)([N-]c1ccc(N2CCOCC2)cc1)c1ccc(S(=O)(=O)[N-]c2cc(F)ccc2O)cc1

>  <Energy>  (31) 
77.26777266951271

>  <Genealogy>  (31) 
O=S(=O)([N-]c1ccc(N2CCOCC2)cc1)c1ccc(S(=O)(=O)[N-]c2cc(F)ccc2O)cc1 (protonated)
O=S(=O)([N-]c1ccc(N2CCOCC2)cc1)c1ccc(S(=O)(=O)[N-]c2cc(F)ccc2O)cc1 (3D coordinates assigned)
O=S(=O)([N-]c1ccc(N2CCOCC2)cc1)c1ccc(S(=O)(=O)[N-]c2cc(F)ccc2O)cc1 (nonaromatic ring conformer: 77.26777266951271 kcal/mol)

>  <smiles>  (31) 
O=S(=O)(Nc1ccc(N2CCOCC2)cc1)c1ccc(S(=O)(=O)Nc2cc(F)ccc2O)cc1

>  <score_type>  (31) 
oracle

>  <origin>  (31) 
adgpu

>  <m_score__min__energy>  (31) 
-10.93

>  <m_primary>  (31) 
energy

$$$$
31:0
     RDKit          3D

 43 45  0  0  0  0  0  0  0  0999 V2000
   -9.0760   18.5630  -31.6360 N   0  0  0  0  0  0  0  0  0  0  0  0
   -8.4770   19.5510  -31.6820 C   0  0  0  0  0  0  0  0  0  0  0  0
   -7.7340   20.7820  -31.7420 C   0  0  0  0  0  0  0  0  0  0  0  0
   -8.3230   21.9770  -31.3180 C   0  0  0  0  0  0  0  0  0  0  0  0
   -7.6130   23.1790  -31.4000 C   0  0  0  0  0  0  0  0  0  0  0  0
   -6.2970   23.1900  -31.8930 C   0  0  0  0  0  0  0  0  0  0  0  0
   -5.5430   24.4080  -31.9630 N   0  0  0  0  0  0  0  0  0  0  0  0
   -5.1920   25.2240  -30.8390 C   0  0  0  0  0  0  0  0  0  0  0  0
   -6.0910   25.8850  -30.2580 O   0  0  0  0  0  0  0  0  0  0  0  0
   -3.8430   25.3060  -30.3580 N   0  0  0  0  0  0  0  0  0  0  0  0
   -3.2060   24.3700  -29.4750 C   0  0  0  0  0  0  0  0  0  0  0  0
   -3.8560   23.1940  -29.0630 C   0  0  0  0  0  0  0  0  0  0  0  0
   -3.2280   22.3130  -28.1840 C   0  0  0  0  0  0  0  0  0  0  0  0
   -1.9570   22.6050  -27.6890 C   0  0  0  0  0  0  0  0  0  0  0  0
   -1.2970   23.7820  -28.0700 C   0  0  0  0  0  0  0  0  0  0  0  0
    0.3020   24.1320  -27.3890 S   0  0  0  0  0  0  0  0  0  0  0  0
    1.2270   24.5350  -28.5040 O   0  0  0  0  0  0  0  0  0  0  0  0
    0.8660   22.8930  -26.7530 O   0  0  0  0  0  0  0  0  0  0  0  0
    0.2510   25.4210  -26.2060 N   0  0  0  0  0  0  0  0  0  0  0  0
   -0.7630   25.1710  -25.1580 C   0  0  0  0  0  0  0  0  0  0  0  0
   -2.0160   26.0410  -25.3530 C   0  0  0  0  0  0  0  0  0  0  0  0
   -1.7420   27.4360  -25.3510 O   0  0  0  0  0  0  0  0  0  0  0  0
   -0.4660   27.7720  -25.8810 C   0  0  0  0  0  0  0  0  0  0  0  0
    0.0920   26.7300  -26.8660 C   0  0  0  0  0  0  0  0  0  0  0  0
   -1.9330   24.6720  -28.9610 C   0  0  0  0  0  0  0  0  0  0  0  0
   -1.3140   25.8580  -29.3380 O   0  0  0  0  0  0  0  0  0  0  0  0
   -5.6970   21.9840  -32.2830 C   0  0  0  0  0  0  0  0  0  0  0  0
   -4.3870   21.9740  -32.7520 O   0  0  0  0  0  0  0  0  0  0  0  0
   -6.4170   20.7850  -32.2190 C   0  0  0  0  0  0  0  0  0  0  0  0
   -9.3480   21.9717  -30.9187 H   0  0  0  0  0  0  0  0  0  0  0  0
   -8.0859   24.1184  -31.0777 H   0  0  0  0  0  0  0  0  0  0  0  0
   -4.8657   22.9676  -29.4362 H   0  0  0  0  0  0  0  0  0  0  0  0
   -3.7357   21.3857  -27.8801 H   0  0  0  0  0  0  0  0  0  0  0  0
   -1.4685   21.9062  -26.9940 H   0  0  0  0  0  0  0  0  0  0  0  0
   -1.0568   24.1115  -25.1930 H   0  0  0  0  0  0  0  0  0  0  0  0
   -0.3181   25.4274  -24.1852 H   0  0  0  0  0  0  0  0  0  0  0  0
   -2.4765   25.7777  -26.3166 H   0  0  0  0  0  0  0  0  0  0  0  0
   -2.6852   25.8408  -24.5032 H   0  0  0  0  0  0  0  0  0  0  0  0
   -0.5513   28.7347  -26.4062 H   0  0  0  0  0  0  0  0  0  0  0  0
    0.2319   27.8157  -25.0319 H   0  0  0  0  0  0  0  0  0  0  0  0
   -0.6024   26.6254  -27.7127 H   0  0  0  0  0  0  0  0  0  0  0  0
    1.0768   27.0696  -27.2195 H   0  0  0  0  0  0  0  0  0  0  0  0
   -5.9480   19.8444  -32.5436 H   0  0  0  0  0  0  0  0  0  0  0  0
  1  2  3  0
  2  3  1  0
  3  4  2  0
  4  5  1  0
  5  6  2  0
  6  7  1  0
  7  8  1  0
  8  9  2  0
  8 10  1  0
 10 11  1  0
 11 12  2  0
 12 13  1  0
 13 14  2  0
 14 15  1  0
 15 16  1  0
 16 17  2  0
 16 18  2  0
 16 19  1  0
 19 20  1  0
 20 21  1  0
 21 22  1  0
 22 23  1  0
 23 24  1  0
 15 25  2  0
 25 26  1  0
  6 27  1  0
 27 28  1  0
 27 29  2  0
 29  3  1  0
 25 11  1  0
 24 19  1  0
  4 30  1  0
  5 31  1  0
 12 32  1  0
 13 33  1  0
 14 34  1  0
 20 35  1  0
 20 36  1  0
 21 37  1  0
 21 38  1  0
 23 39  1  0
 23 40  1  0
 24 41  1  0
 24 42  1  0
 29 43  1  0
M  CHG  4   7  -1  10  -1  26  -1  28  -1
M  END
>  <UniqueID>  (32) 
30

>  <SMILES>  (32) 
N#Cc1ccc([N-]C(=O)[N-]c2cccc(S(=O)(=O)N3CCOCC3)c2[O-])c([O-])c1

>  <Energy>  (32) 
63.20617295583911

>  <Genealogy>  (32) 
N#Cc1ccc([N-]C(=O)[N-]c2cccc(S(=O)(=O)N3CCOCC3)c2[O-])c([O-])c1 (protonated)
N#Cc1ccc([N-]C(=O)[N-]c2cccc(S(=O)(=O)N3CCOCC3)c2[O-])c([O-])c1 (3D coordinates assigned)
N#Cc1ccc([N-]C(=O)[N-]c2cccc(S(=O)(=O)N3CCOCC3)c2[O-])c([O-])c1 (nonaromatic ring conformer: 63.20617295583911 kcal/mol)

>  <smiles>  (32) 
N#Cc1ccc(NC(=O)Nc2cccc(S(=O)(=O)N3CCOCC3)c2O)c(O)c1

>  <score_type>  (32) 
oracle

>  <origin>  (32) 
adgpu

>  <m_score__min__energy>  (32) 
-15.08

>  <m_primary>  (32) 
energy

$$$$
32:0
     RDKit          3D

 43 46  0  0  0  0  0  0  0  0999 V2000
   -7.4960   22.1240  -31.6640 O   0  0  0  0  0  0  0  0  0  0  0  0
   -6.3640   21.5700  -31.6370 C   0  0  0  0  0  0  0  0  0  0  0  0
   -5.2200   22.2540  -30.9900 C   0  0  0  0  0  0  0  0  0  0  0  0
   -4.2300   21.5110  -30.3300 C   0  0  0  0  0  0  0  0  0  0  0  0
   -3.1380   22.1500  -29.7390 C   0  0  0  0  0  0  0  0  0  0  0  0
   -3.0050   23.5490  -29.7980 C   0  0  0  0  0  0  0  0  0  0  0  0
   -1.8260   24.1970  -29.1700 C   0  0  0  0  0  0  0  0  0  0  0  0
   -1.7390   25.5170  -28.8970 N   0  0  0  0  0  0  0  0  0  0  0  0
   -0.5640   25.6800  -28.3700 O   0  0  0  0  0  0  0  0  0  0  0  0
    0.0450   24.5250  -28.3200 C   0  0  0  0  0  0  0  0  0  0  0  0
    1.2060   24.3630  -27.8610 O   0  0  0  0  0  0  0  0  0  0  0  0
   -0.7040   23.5260  -28.8170 N   0  0  0  0  0  0  0  0  0  0  0  0
   -3.9980   24.2980  -30.4660 C   0  0  0  0  0  0  0  0  0  0  0  0
   -3.9180   25.6830  -30.5540 O   0  0  0  0  0  0  0  0  0  0  0  0
   -5.0900   23.6510  -31.0560 C   0  0  0  0  0  0  0  0  0  0  0  0
   -6.2180   20.2650  -32.2120 N   0  0  0  0  0  0  0  0  0  0  0  0
   -5.3620   20.0820  -33.3920 C   0  0  0  0  0  0  0  0  0  0  0  0
   -5.1430   18.5950  -33.6900 C   0  0  0  0  0  0  0  0  0  0  0  0
   -6.4850   17.8440  -33.7950 C   0  0  0  0  0  0  0  0  0  0  0  0
   -6.2540   16.3940  -33.8200 N   0  0  0  0  0  0  0  0  0  0  0  0
   -7.0990   15.4280  -34.5080 C   0  0  0  0  0  0  0  0  0  0  0  0
   -6.4710   14.0430  -34.2180 C   0  0  0  0  0  0  0  0  0  0  0  0
   -5.3020   14.2830  -33.3770 N   0  0  0  0  0  0  0  0  0  0  0  0
   -5.2220   15.6760  -33.1730 C   0  0  0  0  0  0  0  0  0  0  0  0
   -4.3200   16.2130  -32.4800 O   0  0  0  0  0  0  0  0  0  0  0  0
   -7.5040   18.2240  -32.6850 C   0  0  0  0  0  0  0  0  0  0  0  0
   -6.9070   19.1240  -31.5990 C   0  0  0  0  0  0  0  0  0  0  0  0
   -4.3146   20.4155  -30.2775 H   0  0  0  0  0  0  0  0  0  0  0  0
   -2.3731   21.5524  -29.2214 H   0  0  0  0  0  0  0  0  0  0  0  0
   -5.8557   24.2438  -31.5777 H   0  0  0  0  0  0  0  0  0  0  0  0
   -5.8422   20.5555  -34.2610 H   0  0  0  0  0  0  0  0  0  0  0  0
   -4.3850   20.5452  -33.1898 H   0  0  0  0  0  0  0  0  0  0  0  0
   -4.6009   18.4959  -34.6420 H   0  0  0  0  0  0  0  0  0  0  0  0
   -4.5620   18.1564  -32.8654 H   0  0  0  0  0  0  0  0  0  0  0  0
   -6.9457   18.1605  -34.7424 H   0  0  0  0  0  0  0  0  0  0  0  0
   -8.1272   15.4721  -34.1195 H   0  0  0  0  0  0  0  0  0  0  0  0
   -7.1536   15.6317  -35.5876 H   0  0  0  0  0  0  0  0  0  0  0  0
   -7.1928   13.4019  -33.6907 H   0  0  0  0  0  0  0  0  0  0  0  0
   -6.1905   13.5315  -35.1506 H   0  0  0  0  0  0  0  0  0  0  0  0
   -8.3482   18.7526  -33.1518 H   0  0  0  0  0  0  0  0  0  0  0  0
   -7.8194   17.2896  -32.1977 H   0  0  0  0  0  0  0  0  0  0  0  0
   -7.7135   19.4929  -30.9483 H   0  0  0  0  0  0  0  0  0  0  0  0
   -6.1845   18.5430  -31.0070 H   0  0  0  0  0  0  0  0  0  0  0  0
  1  2  2  0
  2  3  1  0
  3  4  2  0
  4  5  1  0
  5  6  2  0
  6  7  1  0
  7  8  2  0
  8  9  1  0
  9 10  1  0
 10 11  2  0
 10 12  1  0
  6 13  1  0
 13 14  1  0
 13 15  2  0
  2 16  1  0
 16 17  1  0
 17 18  1  0
 18 19  1  0
 19 20  1  0
 20 21  1  0
 21 22  1  0
 22 23  1  0
 23 24  1  0
 24 25  2  0
 19 26  1  0
 26 27  1  0
 15  3  1  0
 27 16  1  0
 12  7  1  0
 24 20  1  0
  4 28  1  0
  5 29  1  0
 15 30  1  0
 17 31  1  0
 17 32  1  0
 18 33  1  0
 18 34  1  0
 19 35  1  0
 21 36  1  0
 21 37  1  0
 22 38  1  0
 22 39  1  0
 26 40  1  0
 26 41  1  0
 27 42  1  0
 27 43  1  0
M  CHG  3  12  -1  14  -1  23  -1
M  END
>  <UniqueID>  (33) 
31

>  <SMILES>  (33) 
O=C(c1ccc(-c2noc(=O)[n-]2)c([O-])c1)N1CCC(N2CC[N-]C2=O)CC1

>  <Energy>  (33) 
102.06237347904167

>  <Genealogy>  (33) 
O=C(c1ccc(-c2noc(=O)[n-]2)c([O-])c1)N1CCC(N2CC[N-]C2=O)CC1 (protonated)
O=C(c1ccc(-c2noc(=O)[n-]2)c([O-])c1)N1CCC(N2CC[N-]C2=O)CC1 (3D coordinates assigned)
O=C(c1ccc(-c2noc(=O)[n-]2)c([O-])c1)N1CCC(N2CC[N-]C2=O)CC1 (nonaromatic ring conformer: 102.06237347904167 kcal/mol)

>  <smiles>  (33) 
O=C(c1ccc(-c2noc(=O)[nH]2)c(O)c1)N1CCC(N2CCNC2=O)CC1

>  <score_type>  (33) 
oracle

>  <origin>  (33) 
adgpu

>  <m_score__min__energy>  (33) 
-13.08

>  <m_primary>  (33) 
energy

$$$$
33:0
     RDKit          3D

 46 49  0  0  1  0  0  0  0  0999 V2000
   -4.5480   22.7140  -33.0550 O   0  0  0  0  0  0  0  0  0  0  0  0
   -4.7550   22.7180  -31.7850 C   0  0  0  0  0  0  0  0  0  0  0  0
   -6.0530   22.2620  -31.4080 N   0  0  0  0  0  0  0  0  0  0  0  0
   -6.9410   21.8620  -32.4820 C   0  0  0  0  0  0  0  0  0  0  0  0
   -7.6480   20.5880  -32.1940 C   0  0  0  0  0  0  0  0  0  0  0  0
   -8.8190   20.0860  -32.7150 C   0  0  0  0  0  0  0  0  0  0  0  0
   -9.0090   18.8630  -32.0900 C   0  0  0  0  0  0  0  0  0  0  0  0
   -7.9400   18.6690  -31.2080 C   0  0  0  0  0  0  0  0  0  0  0  0
   -7.1890   19.7140  -31.3250 O   0  0  0  0  0  0  0  0  0  0  0  0
   -3.7460   23.1620  -30.8500 C   0  0  0  0  0  0  0  0  0  0  0  0
   -3.9910   24.3960  -30.2370 C   0  0  0  0  0  0  0  0  0  0  0  0
   -3.1320   24.9270  -29.3440 N   0  0  0  0  0  0  0  0  0  0  0  0
   -1.9990   24.2780  -29.0120 C   0  0  0  0  0  0  0  0  0  0  0  0
   -0.9760   24.5930  -28.1460 C   0  0  0  0  0  0  0  0  0  0  0  0
   -0.8900   26.1670  -27.1050 Br  0  0  0  0  0  0  0  0  0  0  0  0
   -0.0920   23.5380  -28.2290 C   0  0  0  0  0  0  0  0  0  0  0  0
   -0.5890   22.6600  -29.1040 N   0  0  0  0  0  0  0  0  0  0  0  0
   -1.7600   23.0950  -29.5970 N   0  0  0  0  0  0  0  0  0  0  0  0
   -2.6030   22.5300  -30.5010 C   0  0  0  0  0  0  0  0  0  0  0  0
   -2.2870   21.4300  -30.9900 N   0  0  0  0  0  0  0  0  0  0  0  0
   -2.9320   20.6290  -31.9210 C   0  0  0  0  0  0  0  0  0  0  0  0
   -4.0240   19.8640  -31.4800 C   0  0  0  0  0  0  0  0  0  0  0  0
   -4.6700   18.9930  -32.3330 C   0  0  0  0  0  0  0  0  0  0  0  0
   -4.2860   18.8330  -33.6310 C   0  0  0  0  0  0  0  0  0  0  0  0
   -5.0630   17.7230  -34.7490 S   0  0  0  0  0  0  0  0  0  0  0  0
   -6.1150   18.4240  -35.5900 O   0  0  0  0  0  0  0  0  0  0  0  0
   -4.0920   17.0910  -35.6720 O   0  0  0  0  0  0  0  0  0  0  0  0
   -5.9330   16.4500  -33.8630 C   0  0  0  0  0  0  0  0  0  0  0  0
   -7.2650   16.8720  -33.7800 F   0  0  0  0  0  0  0  0  0  0  0  0
   -5.4730   16.3130  -32.5780 F   0  0  0  0  0  0  0  0  0  0  0  0
   -5.9550   15.2690  -34.5750 F   0  0  0  0  0  0  0  0  0  0  0  0
   -3.2230   19.5690  -34.0910 C   0  0  0  0  0  0  0  0  0  0  0  0
   -2.5800   20.4380  -33.2370 C   0  0  0  0  0  0  0  0  0  0  0  0
   -6.2920   22.2390  -30.4030 H   0  0  0  0  0  0  0  0  0  0  0  0
   -7.6894   22.6538  -32.6336 H   0  0  0  0  0  0  0  0  0  0  0  0
   -6.3271   21.7064  -33.3814 H   0  0  0  0  0  0  0  0  0  0  0  0
   -9.4677   20.5562  -33.4687 H   0  0  0  0  0  0  0  0  0  0  0  0
   -9.8476   18.1710  -32.2571 H   0  0  0  0  0  0  0  0  0  0  0  0
   -7.7731   17.8037  -30.5496 H   0  0  0  0  0  0  0  0  0  0  0  0
   -4.9086   24.9471  -30.4905 H   0  0  0  0  0  0  0  0  0  0  0  0
    0.8526   23.4376  -27.6743 H   0  0  0  0  0  0  0  0  0  0  0  0
   -0.1060   21.7590  -29.3510 H   0  0  0  0  0  0  0  0  0  0  0  0
   -4.3691   19.9606  -30.4400 H   0  0  0  0  0  0  0  0  0  0  0  0
   -5.5217   18.4093  -31.9536 H   0  0  0  0  0  0  0  0  0  0  0  0
   -2.8870   19.4659  -35.1333 H   0  0  0  0  0  0  0  0  0  0  0  0
   -1.7315   21.0156  -33.6325 H   0  0  0  0  0  0  0  0  0  0  0  0
  1  2  2  0
  2  3  1  0
  3  4  1  0
  4  5  1  0
  5  6  2  0
  6  7  1  0
  7  8  2  0
  8  9  1  0
  2 10  1  0
 10 11  2  0
 11 12  1  0
 12 13  2  0
 13 14  1  0
 14 15  1  0
 14 16  2  0
 16 17  1  0
 17 18  1  0
 18 19  1  0
 19 20  2  0
 20 21  1  0
 21 22  2  0
 22 23  1  0
 23 24  2  0
 24 25  1  0
 25 26  2  0
 25 27  2  0
 25 28  1  0
 28 29  1  0
 28 30  1  0
 28 31  1  0
 24 32  1  0
 32 33  2  0
  9  5  1  0
 19 10  1  0
 33 21  1  0
 18 13  1  0
  3 34  1  0
  4 35  1  0
  4 36  1  0
  6 37  1  0
  7 38  1  0
  8 39  1  0
 11 40  1  0
 16 41  1  0
 17 42  1  0
 22 43  1  0
 23 44  1  0
 32 45  1  0
 33 46  1  0
M  END
>  <smiles>  (34) 
O=C(NCc1ccco1)c1cnc2c(Br)c[nH]n2c1=Nc1ccc(S(=O)(=O)C(F)(F)F)cc1

>  <score_type>  (34) 
oracle

>  <origin>  (34) 
adgpu

>  <m_score__min__energy>  (34) 
-8.7799999999999994

>  <m_primary>  (34) 
energy

$$$$
34:0
     RDKit          3D

 42 44  0  0  0  0  0  0  0  0999 V2000
   -5.9510   25.6210  -30.1720 O   0  0  0  0  0  0  0  0  0  0  0  0
   -5.0240   25.0240  -30.7780 C   0  0  0  0  0  0  0  0  0  0  0  0
   -3.6600   25.1910  -30.3670 N   0  0  0  0  0  0  0  0  0  0  0  0
   -2.9770   24.4500  -29.3450 C   0  0  0  0  0  0  0  0  0  0  0  0
   -3.4660   23.2190  -28.8660 C   0  0  0  0  0  0  0  0  0  0  0  0
   -2.7600   22.5130  -27.8880 C   0  0  0  0  0  0  0  0  0  0  0  0
   -1.5580   23.0190  -27.3880 C   0  0  0  0  0  0  0  0  0  0  0  0
   -1.0540   24.2270  -27.8750 C   0  0  0  0  0  0  0  0  0  0  0  0
   -1.7560   24.9380  -28.8550 C   0  0  0  0  0  0  0  0  0  0  0  0
   -1.2390   26.1360  -29.3350 O   0  0  0  0  0  0  0  0  0  0  0  0
   -5.3400   24.2680  -31.9520 N   0  0  0  0  0  0  0  0  0  0  0  0
   -5.7380   22.8890  -31.9880 C   0  0  0  0  0  0  0  0  0  0  0  0
   -4.8310   21.8520  -31.7050 C   0  0  0  0  0  0  0  0  0  0  0  0
   -5.2560   20.5200  -31.7210 C   0  0  0  0  0  0  0  0  0  0  0  0
   -6.5920   20.2090  -31.9980 C   0  0  0  0  0  0  0  0  0  0  0  0
   -7.1290   18.5280  -31.9990 S   0  0  0  0  0  0  0  0  0  0  0  0
   -6.3970   17.7760  -30.9210 O   0  0  0  0  0  0  0  0  0  0  0  0
   -8.5950   18.4880  -31.6700 O   0  0  0  0  0  0  0  0  0  0  0  0
   -6.8650   17.7350  -33.5390 N   0  0  0  0  0  0  0  0  0  0  0  0
   -6.3320   16.3680  -33.3890 C   0  0  0  0  0  0  0  0  0  0  0  0
   -4.8000   16.3320  -33.1770 C   0  0  0  0  0  0  0  0  0  0  0  0
   -4.1790   17.5860  -33.3790 O   0  0  0  0  0  0  0  0  0  0  0  0
   -4.6190   18.1450  -34.5930 C   0  0  0  0  0  0  0  0  0  0  0  0
   -6.0940   18.5660  -34.4880 C   0  0  0  0  0  0  0  0  0  0  0  0
   -7.5010   21.2410  -32.2640 C   0  0  0  0  0  0  0  0  0  0  0  0
   -7.0800   22.5750  -32.2480 C   0  0  0  0  0  0  0  0  0  0  0  0
   -7.9990   23.5870  -32.4980 O   0  0  0  0  0  0  0  0  0  0  0  0
   -4.4074   22.8116  -29.2633 H   0  0  0  0  0  0  0  0  0  0  0  0
   -3.1519   21.5567  -27.5112 H   0  0  0  0  0  0  0  0  0  0  0  0
   -1.0088   22.4665  -26.6113 H   0  0  0  0  0  0  0  0  0  0  0  0
   -0.1028   24.6207  -27.4873 H   0  0  0  0  0  0  0  0  0  0  0  0
   -3.7830   22.0898  -31.4701 H   0  0  0  0  0  0  0  0  0  0  0  0
   -4.5372   19.7132  -31.5150 H   0  0  0  0  0  0  0  0  0  0  0  0
   -6.8164   15.8970  -32.5209 H   0  0  0  0  0  0  0  0  0  0  0  0
   -6.5458   15.8290  -34.3238 H   0  0  0  0  0  0  0  0  0  0  0  0
   -4.5975   16.0037  -32.1468 H   0  0  0  0  0  0  0  0  0  0  0  0
   -4.3837   15.6379  -33.9219 H   0  0  0  0  0  0  0  0  0  0  0  0
   -4.0063   19.0278  -34.8282 H   0  0  0  0  0  0  0  0  0  0  0  0
   -4.5195   17.3918  -35.3885 H   0  0  0  0  0  0  0  0  0  0  0  0
   -6.1369   19.6127  -34.1525 H   0  0  0  0  0  0  0  0  0  0  0  0
   -6.5455   18.4351  -35.4825 H   0  0  0  0  0  0  0  0  0  0  0  0
   -8.5512   21.0013  -32.4866 H   0  0  0  0  0  0  0  0  0  0  0  0
  1  2  2  0
  2  3  1  0
  3  4  1  0
  4  5  2  0
  5  6  1  0
  6  7  2  0
  7  8  1  0
  8  9  2  0
  9 10  1  0
  2 11  1  0
 11 12  1  0
 12 13  2  0
 13 14  1  0
 14 15  2  0
 15 16  1  0
 16 17  2  0
 16 18  2  0
 16 19  1  0
 19 20  1  0
 20 21  1  0
 21 22  1  0
 22 23  1  0
 23 24  1  0
 15 25  1  0
 25 26  2  0
 26 27  1  0
  9  4  1  0
 26 12  1  0
 24 19  1  0
  5 28  1  0
  6 29  1  0
  7 30  1  0
  8 31  1  0
 13 32  1  0
 14 33  1  0
 20 34  1  0
 20 35  1  0
 21 36  1  0
 21 37  1  0
 23 38  1  0
 23 39  1  0
 24 40  1  0
 24 41  1  0
 25 42  1  0
M  CHG  4   3  -1  10  -1  11  -1  27  -1
M  END
>  <UniqueID>  (35) 
32

>  <SMILES>  (35) 
O=C([N-]c1ccccc1[O-])[N-]c1ccc(S(=O)(=O)N2CCOCC2)cc1[O-]

>  <Energy>  (35) 
61.62582518716508

>  <Genealogy>  (35) 
O=C([N-]c1ccccc1[O-])[N-]c1ccc(S(=O)(=O)N2CCOCC2)cc1[O-] (protonated)
O=C([N-]c1ccccc1[O-])[N-]c1ccc(S(=O)(=O)N2CCOCC2)cc1[O-] (3D coordinates assigned)
O=C([N-]c1ccccc1[O-])[N-]c1ccc(S(=O)(=O)N2CCOCC2)cc1[O-] (nonaromatic ring conformer: 61.62582518716508 kcal/mol)

>  <smiles>  (35) 
O=C(Nc1ccccc1O)Nc1ccc(S(=O)(=O)N2CCOCC2)cc1O

>  <score_type>  (35) 
oracle

>  <origin>  (35) 
adgpu

>  <m_score__min__energy>  (35) 
-15.02

>  <m_primary>  (35) 
energy

$$$$
35:0
     RDKit          3D

 57 60  0  0  0  0  0  0  0  0999 V2000
    0.5280   22.9820  -24.1370 C   0  0  0  0  0  0  0  0  0  0  0  0
   -0.5180   22.1880  -24.8630 C   0  0  0  0  0  0  0  0  0  0  0  0
   -1.0110   21.1780  -24.2920 O   0  0  0  0  0  0  0  0  0  0  0  0
   -0.9390   22.5390  -26.1990 N   0  0  0  0  0  0  0  0  0  0  0  0
   -0.1690   23.5070  -26.9990 C   0  0  0  0  0  0  0  0  0  0  0  0
   -0.4100   23.3010  -28.4990 C   0  0  0  0  0  0  0  0  0  0  0  0
   -1.9110   23.3410  -28.8780 C   0  0  0  0  0  0  0  0  0  0  0  0
   -2.2990   24.7250  -29.3570 C   0  0  0  0  0  0  0  0  0  0  0  0
   -1.5950   25.7140  -29.0230 O   0  0  0  0  0  0  0  0  0  0  0  0
   -3.3750   24.9320  -30.2840 N   0  0  0  0  0  0  0  0  0  0  0  0
   -4.5870   24.1660  -30.3620 C   0  0  0  0  0  0  0  0  0  0  0  0
   -5.7340   24.6000  -29.6820 C   0  0  0  0  0  0  0  0  0  0  0  0
   -6.9190   23.8750  -29.7630 C   0  0  0  0  0  0  0  0  0  0  0  0
   -6.9890   22.7200  -30.5400 C   0  0  0  0  0  0  0  0  0  0  0  0
   -5.8680   22.2730  -31.2690 C   0  0  0  0  0  0  0  0  0  0  0  0
   -5.9160   21.1070  -32.0820 C   0  0  0  0  0  0  0  0  0  0  0  0
   -7.3930   20.1390  -32.2710 S   0  0  0  0  0  0  0  0  0  0  0  0
   -8.5500   21.0160  -32.6630 O   0  0  0  0  0  0  0  0  0  0  0  0
   -7.7060   19.4720  -30.9610 O   0  0  0  0  0  0  0  0  0  0  0  0
   -7.1920   18.9060  -33.4780 N   0  0  0  0  0  0  0  0  0  0  0  0
   -6.0560   18.0260  -33.5570 C   0  0  0  0  0  0  0  0  0  0  0  0
   -5.0620   18.2790  -34.5170 C   0  0  0  0  0  0  0  0  0  0  0  0
   -3.9530   17.4350  -34.6310 C   0  0  0  0  0  0  0  0  0  0  0  0
   -3.8250   16.3270  -33.7910 C   0  0  0  0  0  0  0  0  0  0  0  0
   -4.8100   16.0580  -32.8350 C   0  0  0  0  0  0  0  0  0  0  0  0
   -4.6830   14.9080  -31.9760 C   0  0  0  0  0  0  0  0  0  0  0  0
   -4.5810   13.9850  -31.2860 N   0  0  0  0  0  0  0  0  0  0  0  0
   -5.9230   16.9010  -32.7180 C   0  0  0  0  0  0  0  0  0  0  0  0
   -4.7570   20.6920  -32.7550 C   0  0  0  0  0  0  0  0  0  0  0  0
   -3.5750   21.4190  -32.6600 C   0  0  0  0  0  0  0  0  0  0  0  0
   -3.5190   22.5720  -31.8820 C   0  0  0  0  0  0  0  0  0  0  0  0
   -4.6520   23.0130  -31.1760 C   0  0  0  0  0  0  0  0  0  0  0  0
   -2.8400   22.8750  -27.7290 C   0  0  0  0  0  0  0  0  0  0  0  0
   -2.1350   21.9040  -26.7770 C   0  0  0  0  0  0  0  0  0  0  0  0
    0.3839   22.8726  -23.0520 H   0  0  0  0  0  0  0  0  0  0  0  0
    1.5265   22.6123  -24.4134 H   0  0  0  0  0  0  0  0  0  0  0  0
    0.4404   24.0431  -24.4134 H   0  0  0  0  0  0  0  0  0  0  0  0
   -0.4765   24.5263  -26.7226 H   0  0  0  0  0  0  0  0  0  0  0  0
    0.9011   23.3562  -26.7937 H   0  0  0  0  0  0  0  0  0  0  0  0
    0.1130   24.0958  -29.0511 H   0  0  0  0  0  0  0  0  0  0  0  0
   -0.0293   22.3028  -28.7610 H   0  0  0  0  0  0  0  0  0  0  0  0
   -2.0501   22.6221  -29.6989 H   0  0  0  0  0  0  0  0  0  0  0  0
   -5.6968   25.5201  -29.0803 H   0  0  0  0  0  0  0  0  0  0  0  0
   -7.8067   24.2158  -29.2099 H   0  0  0  0  0  0  0  0  0  0  0  0
   -7.9293   22.1509  -30.5850 H   0  0  0  0  0  0  0  0  0  0  0  0
   -7.9330   18.8420  -34.2120 H   0  0  0  0  0  0  0  0  0  0  0  0
   -5.1569   19.1482  -35.1845 H   0  0  0  0  0  0  0  0  0  0  0  0
   -3.1794   17.6445  -35.3844 H   0  0  0  0  0  0  0  0  0  0  0  0
   -2.9502   15.6662  -33.8810 H   0  0  0  0  0  0  0  0  0  0  0  0
   -6.6972   16.6838  -31.9674 H   0  0  0  0  0  0  0  0  0  0  0  0
   -4.7835   19.7782  -33.3668 H   0  0  0  0  0  0  0  0  0  0  0  0
   -2.6797   21.0811  -33.2025 H   0  0  0  0  0  0  0  0  0  0  0  0
   -2.5807   23.1427  -31.8191 H   0  0  0  0  0  0  0  0  0  0  0  0
   -3.1679   23.7563  -27.1582 H   0  0  0  0  0  0  0  0  0  0  0  0
   -3.6960   22.3491  -28.1771 H   0  0  0  0  0  0  0  0  0  0  0  0
   -2.8248   21.6233  -25.9674 H   0  0  0  0  0  0  0  0  0  0  0  0
   -1.8308   21.0080  -27.3378 H   0  0  0  0  0  0  0  0  0  0  0  0
  1  2  1  0
  2  3  2  0
  2  4  1  0
  4  5  1  0
  5  6  1  0
  6  7  1  0
  7  8  1  0
  8  9  2  0
  8 10  1  0
 10 11  1  0
 11 12  2  0
 12 13  1  0
 13 14  2  0
 14 15  1  0
 15 16  2  0
 16 17  1  0
 17 18  2  0
 17 19  2  0
 17 20  1  0
 20 21  1  0
 21 22  2  0
 22 23  1  0
 23 24  2  0
 24 25  1  0
 25 26  1  0
 26 27  3  0
 25 28  2  0
 16 29  1  0
 29 30  2  0
 30 31  1  0
 31 32  2  0
  7 33  1  0
 33 34  1  0
 34  4  1  0
 32 11  1  0
 32 15  1  0
 28 21  1  0
  1 35  1  0
  1 36  1  0
  1 37  1  0
  5 38  1  0
  5 39  1  0
  6 40  1  0
  6 41  1  0
  7 42  1  0
 12 43  1  0
 13 44  1  0
 14 45  1  0
 20 46  1  0
 22 47  1  0
 23 48  1  0
 24 49  1  0
 28 50  1  0
 29 51  1  0
 30 52  1  0
 31 53  1  0
 33 54  1  0
 33 55  1  0
 34 56  1  0
 34 57  1  0
M  CHG  1  10  -1
M  END
>  <UniqueID>  (36) 
33

>  <SMILES>  (36) 
CC(=O)N1CCC(C(=O)[N-]c2cccc3c(S(=O)(=O)Nc4cccc(C#N)c4)cccc23)CC1

>  <Energy>  (36) 
76.93149093476714

>  <Genealogy>  (36) 
CC(=O)N1CCC(C(=O)[N-]c2cccc3c(S(=O)(=O)Nc4cccc(C#N)c4)cccc23)CC1 (protonated)
CC(=O)N1CCC(C(=O)[N-]c2cccc3c(S(=O)(=O)Nc4cccc(C#N)c4)cccc23)CC1 (3D coordinates assigned)
CC(=O)N1CCC(C(=O)[N-]c2cccc3c(S(=O)(=O)Nc4cccc(C#N)c4)cccc23)CC1 (nonaromatic ring conformer: 76.93149093476714 kcal/mol)

>  <smiles>  (36) 
CC(=O)N1CCC(C(=O)Nc2cccc3c(S(=O)(=O)Nc4cccc(C#N)c4)cccc23)CC1

>  <score_type>  (36) 
oracle

>  <origin>  (36) 
adgpu

>  <m_score__min__energy>  (36) 
-12.720000000000001

>  <m_primary>  (36) 
energy

$$$$
36:0
     RDKit          3D

 66 70  0  0  0  0  0  0  0  0999 V2000
   -4.9800   12.7520  -30.9100 N   0  0  0  0  0  0  0  0  0  0  0  0
   -3.6650   13.0040  -31.4890 C   0  0  0  0  0  0  0  0  0  0  0  0
   -3.7080   14.2460  -32.3370 C   0  0  0  0  0  0  0  0  0  0  0  0
   -2.7290   14.4730  -33.3140 C   0  0  0  0  0  0  0  0  0  0  0  0
   -2.8150   15.5920  -34.1460 C   0  0  0  0  0  0  0  0  0  0  0  0
   -3.8670   16.5010  -33.9980 C   0  0  0  0  0  0  0  0  0  0  0  0
   -4.8450   16.3210  -32.9950 C   0  0  0  0  0  0  0  0  0  0  0  0
   -6.0410   17.2800  -32.8930 C   0  0  0  0  0  0  0  0  0  0  0  0
   -7.2500   16.5550  -33.0410 O   0  0  0  0  0  0  0  0  0  0  0  0
   -5.9040   18.3440  -34.0260 C   0  0  0  0  0  0  0  0  0  0  0  0
   -6.8730   19.5070  -33.8160 C   0  0  0  0  0  0  0  0  0  0  0  0
   -6.6510   20.1340  -32.5090 N   0  0  0  0  0  0  0  0  0  0  0  0
   -7.1740   21.4540  -32.2760 C   0  0  0  0  0  0  0  0  0  0  0  0
   -8.3840   21.6900  -32.5350 O   0  0  0  0  0  0  0  0  0  0  0  0
   -6.3100   22.5460  -31.7680 C   0  0  0  0  0  0  0  0  0  0  0  0
   -6.8550   23.8020  -31.4610 C   0  0  0  0  0  0  0  0  0  0  0  0
   -6.0390   24.8300  -30.9880 C   0  0  0  0  0  0  0  0  0  0  0  0
   -4.6730   24.6110  -30.7890 C   0  0  0  0  0  0  0  0  0  0  0  0
   -3.8730   25.6670  -30.3770 O   0  0  0  0  0  0  0  0  0  0  0  0
   -4.1210   23.3380  -31.0300 C   0  0  0  0  0  0  0  0  0  0  0  0
   -2.7300   23.0630  -30.7960 N   0  0  0  0  0  0  0  0  0  0  0  0
   -1.9830   23.2710  -29.2420 S   0  0  0  0  0  0  0  0  0  0  0  0
   -0.7840   24.1720  -29.3670 O   0  0  0  0  0  0  0  0  0  0  0  0
   -2.9620   23.9200  -28.3040 O   0  0  0  0  0  0  0  0  0  0  0  0
   -1.5160   21.6980  -28.6030 C   0  0  0  0  0  0  0  0  0  0  0  0
   -2.3480   21.0650  -27.6670 C   0  0  0  0  0  0  0  0  0  0  0  0
   -2.0200   19.8010  -27.1690 C   0  0  0  0  0  0  0  0  0  0  0  0
   -0.8570   19.1510  -27.6060 C   0  0  0  0  0  0  0  0  0  0  0  0
   -0.5310   17.8700  -27.1320 C   0  0  0  0  0  0  0  0  0  0  0  0
    0.6240   17.2250  -27.5930 C   0  0  0  0  0  0  0  0  0  0  0  0
    1.4620   17.8540  -28.5200 C   0  0  0  0  0  0  0  0  0  0  0  0
    1.1510   19.1320  -28.9930 C   0  0  0  0  0  0  0  0  0  0  0  0
   -0.0080   19.7900  -28.5460 C   0  0  0  0  0  0  0  0  0  0  0  0
   -0.3420   21.0640  -29.0350 C   0  0  0  0  0  0  0  0  0  0  0  0
   -4.9420   22.3210  -31.5400 C   0  0  0  0  0  0  0  0  0  0  0  0
   -5.8260   19.4680  -31.4890 C   0  0  0  0  0  0  0  0  0  0  0  0
   -6.1100   17.9570  -31.4780 C   0  0  0  0  0  0  0  0  0  0  0  0
   -4.7660   15.1610  -32.1900 C   0  0  0  0  0  0  0  0  0  0  0  0
   -5.0680   13.3590  -30.0650 H   0  0  0  0  0  0  0  0  0  0  0  0
   -5.0050   11.7660  -30.5670 H   0  0  0  0  0  0  0  0  0  0  0  0
   -2.9307   13.1392  -30.6812 H   0  0  0  0  0  0  0  0  0  0  0  0
   -3.3752   12.1476  -32.1156 H   0  0  0  0  0  0  0  0  0  0  0  0
   -1.8914   13.7688  -33.4259 H   0  0  0  0  0  0  0  0  0  0  0  0
   -2.0520   15.7586  -34.9206 H   0  0  0  0  0  0  0  0  0  0  0  0
   -3.9339   17.3679  -34.6717 H   0  0  0  0  0  0  0  0  0  0  0  0
   -7.2380   16.0530  -33.8990 H   0  0  0  0  0  0  0  0  0  0  0  0
   -4.8746   18.7317  -34.0308 H   0  0  0  0  0  0  0  0  0  0  0  0
   -6.1429   17.8621  -34.9855 H   0  0  0  0  0  0  0  0  0  0  0  0
   -6.7167   20.2551  -34.6071 H   0  0  0  0  0  0  0  0  0  0  0  0
   -7.9027   19.1221  -33.8544 H   0  0  0  0  0  0  0  0  0  0  0  0
   -7.9328   23.9773  -31.5941 H   0  0  0  0  0  0  0  0  0  0  0  0
   -6.4726   25.8173  -30.7707 H   0  0  0  0  0  0  0  0  0  0  0  0
   -2.2150   22.4710  -31.4870 H   0  0  0  0  0  0  0  0  0  0  0  0
   -3.2644   21.5669  -27.3230 H   0  0  0  0  0  0  0  0  0  0  0  0
   -2.6761   19.3147  -26.4321 H   0  0  0  0  0  0  0  0  0  0  0  0
   -1.1827   17.3728  -26.3985 H   0  0  0  0  0  0  0  0  0  0  0  0
    0.8732   16.2190  -27.2243 H   0  0  0  0  0  0  0  0  0  0  0  0
    2.3675   17.3418  -28.8774 H   0  0  0  0  0  0  0  0  0  0  0  0
    1.8157   19.6247  -29.7178 H   0  0  0  0  0  0  0  0  0  0  0  0
    0.3185   21.5651  -29.7580 H   0  0  0  0  0  0  0  0  0  0  0  0
   -4.5091   21.3349  -31.7642 H   0  0  0  0  0  0  0  0  0  0  0  0
   -4.7628   19.6360  -31.7156 H   0  0  0  0  0  0  0  0  0  0  0  0
   -6.0708   19.8858  -30.5013 H   0  0  0  0  0  0  0  0  0  0  0  0
   -5.3688   17.4712  -30.8264 H   0  0  0  0  0  0  0  0  0  0  0  0
   -7.1414   17.8313  -31.1169 H   0  0  0  0  0  0  0  0  0  0  0  0
   -5.5447   14.9712  -31.4366 H   0  0  0  0  0  0  0  0  0  0  0  0
  1  2  1  0
  2  3  1  0
  3  4  2  0
  4  5  1  0
  5  6  2  0
  6  7  1  0
  7  8  1  0
  8  9  1  0
  8 10  1  0
 10 11  1  0
 11 12  1  0
 12 13  1  0
 13 14  2  0
 13 15  1  0
 15 16  2  0
 16 17  1  0
 17 18  2  0
 18 19  1  0
 18 20  1  0
 20 21  1  0
 21 22  1  0
 22 23  2  0
 22 24  2  0
 22 25  1  0
 25 26  2  0
 26 27  1  0
 27 28  2  0
 28 29  1  0
 29 30  2  0
 30 31  1  0
 31 32  2  0
 32 33  1  0
 33 34  2  0
 20 35  2  0
 12 36  1  0
 36 37  1  0
  7 38  2  0
 38  3  1  0
 37  8  1  0
 35 15  1  0
 34 25  1  0
 33 28  1  0
  1 39  1  0
  1 40  1  0
  2 41  1  0
  2 42  1  0
  4 43  1  0
  5 44  1  0
  6 45  1  0
  9 46  1  0
 10 47  1  0
 10 48  1  0
 11 49  1  0
 11 50  1  0
 16 51  1  0
 17 52  1  0
 21 53  1  0
 26 54  1  0
 27 55  1  0
 29 56  1  0
 30 57  1  0
 31 58  1  0
 32 59  1  0
 34 60  1  0
 35 61  1  0
 36 62  1  0
 36 63  1  0
 37 64  1  0
 37 65  1  0
 38 66  1  0
M  CHG  1  19  -1
M  END
>  <UniqueID>  (37) 
34

>  <SMILES>  (37) 
NCc1cccc(C2(O)CCN(C(=O)c3ccc([O-])c(NS(=O)(=O)c4ccc5ccccc5c4)c3)CC2)c1

>  <Energy>  (37) 
94.85635794905681

>  <Genealogy>  (37) 
NCc1cccc(C2(O)CCN(C(=O)c3ccc([O-])c(NS(=O)(=O)c4ccc5ccccc5c4)c3)CC2)c1 (protonated)
NCc1cccc(C2(O)CCN(C(=O)c3ccc([O-])c(NS(=O)(=O)c4ccc5ccccc5c4)c3)CC2)c1 (3D coordinates assigned)
NCc1cccc(C2(O)CCN(C(=O)c3ccc([O-])c(NS(=O)(=O)c4ccc5ccccc5c4)c3)CC2)c1 (nonaromatic ring conformer: 94.85635794905681 kcal/mol)

>  <smiles>  (37) 
NCc1cccc(C2(O)CCN(C(=O)c3ccc(O)c(NS(=O)(=O)c4ccc5ccccc5c4)c3)CC2)c1

>  <score_type>  (37) 
oracle

>  <origin>  (37) 
adgpu

>  <m_score__min__energy>  (37) 
-13.76

>  <m_primary>  (37) 
energy

$$$$
37:0
     RDKit          3D

 42 44  0  0  0  0  0  0  0  0999 V2000
   -4.4220   25.3140  -31.1980 O   0  0  0  0  0  0  0  0  0  0  0  0
   -4.8240   24.3200  -30.5350 C   0  0  0  0  0  0  0  0  0  0  0  0
   -4.4380   24.1760  -29.1620 N   0  0  0  0  0  0  0  0  0  0  0  0
   -3.1960   23.6310  -28.6990 C   0  0  0  0  0  0  0  0  0  0  0  0
   -3.1780   22.3150  -28.2170 C   0  0  0  0  0  0  0  0  0  0  0  0
   -1.9860   21.7420  -27.7630 C   0  0  0  0  0  0  0  0  0  0  0  0
   -1.9820   19.9550  -27.0870 Br  0  0  0  0  0  0  0  0  0  0  0  0
   -0.7980   22.4760  -27.8060 C   0  0  0  0  0  0  0  0  0  0  0  0
   -0.7980   23.7760  -28.3170 C   0  0  0  0  0  0  0  0  0  0  0  0
   -1.9870   24.3530  -28.7780 C   0  0  0  0  0  0  0  0  0  0  0  0
   -1.9460   25.6230  -29.3400 O   0  0  0  0  0  0  0  0  0  0  0  0
   -5.7340   23.3310  -31.1600 C   0  0  0  0  0  0  0  0  0  0  0  0
   -7.1270   23.4570  -31.0310 C   0  0  0  0  0  0  0  0  0  0  0  0
   -7.9800   22.5180  -31.6130 C   0  0  0  0  0  0  0  0  0  0  0  0
   -7.4610   21.4380  -32.3370 C   0  0  0  0  0  0  0  0  0  0  0  0
   -8.3280   20.5030  -32.8990 O   0  0  0  0  0  0  0  0  0  0  0  0
   -6.0670   21.3030  -32.4840 C   0  0  0  0  0  0  0  0  0  0  0  0
   -5.3490   19.9490  -33.3690 S   0  0  0  0  0  0  0  0  0  0  0  0
   -3.9800   20.3680  -33.8260 O   0  0  0  0  0  0  0  0  0  0  0  0
   -6.1660   19.6190  -34.5880 O   0  0  0  0  0  0  0  0  0  0  0  0
   -5.2030   18.5500  -32.3250 N   0  0  0  0  0  0  0  0  0  0  0  0
   -6.1910   18.5710  -31.2310 C   0  0  0  0  0  0  0  0  0  0  0  0
   -7.6160   18.2070  -31.7140 C   0  0  0  0  0  0  0  0  0  0  0  0
   -7.6390   17.5780  -32.9830 O   0  0  0  0  0  0  0  0  0  0  0  0
   -6.6200   16.6070  -33.0620 C   0  0  0  0  0  0  0  0  0  0  0  0
   -5.2380   17.2850  -33.0910 C   0  0  0  0  0  0  0  0  0  0  0  0
   -5.2150   22.2440  -31.8880 C   0  0  0  0  0  0  0  0  0  0  0  0
   -4.1084   21.7286  -28.1957 H   0  0  0  0  0  0  0  0  0  0  0  0
    0.1375   22.0301  -27.4374 H   0  0  0  0  0  0  0  0  0  0  0  0
    0.1403   24.3487  -28.3573 H   0  0  0  0  0  0  0  0  0  0  0  0
   -7.5488   24.3020  -30.4671 H   0  0  0  0  0  0  0  0  0  0  0  0
   -9.0689   22.6274  -31.5019 H   0  0  0  0  0  0  0  0  0  0  0  0
   -7.9860   19.7070  -33.4240 H   0  0  0  0  0  0  0  0  0  0  0  0
   -5.8827   17.8464  -30.4630 H   0  0  0  0  0  0  0  0  0  0  0  0
   -6.2247   19.5947  -30.8299 H   0  0  0  0  0  0  0  0  0  0  0  0
   -8.0692   17.5253  -30.9792 H   0  0  0  0  0  0  0  0  0  0  0  0
   -8.1757   19.1491  -31.8096 H   0  0  0  0  0  0  0  0  0  0  0  0
   -6.6811   15.9446  -32.1859 H   0  0  0  0  0  0  0  0  0  0  0  0
   -6.7521   16.0235  -33.9851 H   0  0  0  0  0  0  0  0  0  0  0  0
   -4.4984   16.5935  -32.6612 H   0  0  0  0  0  0  0  0  0  0  0  0
   -5.0101   17.5268  -34.1396 H   0  0  0  0  0  0  0  0  0  0  0  0
   -4.1257   22.1310  -31.9909 H   0  0  0  0  0  0  0  0  0  0  0  0
  1  2  2  0
  2  3  1  0
  3  4  1  0
  4  5  2  0
  5  6  1  0
  6  7  1  0
  6  8  2  0
  8  9  1  0
  9 10  2  0
 10 11  1  0
  2 12  1  0
 12 13  2  0
 13 14  1  0
 14 15  2  0
 15 16  1  0
 15 17  1  0
 17 18  1  0
 18 19  2  0
 18 20  2  0
 18 21  1  0
 21 22  1  0
 22 23  1  0
 23 24  1  0
 24 25  1  0
 25 26  1  0
 17 27  2  0
 10  4  1  0
 27 12  1  0
 26 21  1  0
  5 28  1  0
  8 29  1  0
  9 30  1  0
 13 31  1  0
 14 32  1  0
 16 33  1  0
 22 34  1  0
 22 35  1  0
 23 36  1  0
 23 37  1  0
 25 38  1  0
 25 39  1  0
 26 40  1  0
 26 41  1  0
 27 42  1  0
M  CHG  2   3  -1  11  -1
M  END
>  <UniqueID>  (38) 
35

>  <SMILES>  (38) 
O=C([N-]c1cc(Br)ccc1[O-])c1ccc(O)c(S(=O)(=O)N2CCOCC2)c1

>  <Energy>  (38) 
61.71060498484605

>  <Genealogy>  (38) 
O=C([N-]c1cc(Br)ccc1[O-])c1ccc(O)c(S(=O)(=O)N2CCOCC2)c1 (protonated)
O=C([N-]c1cc(Br)ccc1[O-])c1ccc(O)c(S(=O)(=O)N2CCOCC2)c1 (3D coordinates assigned)
O=C([N-]c1cc(Br)ccc1[O-])c1ccc(O)c(S(=O)(=O)N2CCOCC2)c1 (nonaromatic ring conformer: 61.71060498484605 kcal/mol)

>  <smiles>  (38) 
O=C(Nc1cc(Br)ccc1O)c1ccc(O)c(S(=O)(=O)N2CCOCC2)c1

>  <score_type>  (38) 
oracle

>  <origin>  (38) 
adgpu

>  <m_score__min__energy>  (38) 
-13.300000000000001

>  <m_primary>  (38) 
energy

$$$$
38:0
     RDKit          3D

 38 40  0  0  0  0  0  0  0  0999 V2000
   -7.5970   17.9470  -32.9670 C   0  0  0  0  0  0  0  0  0  0  0  0
   -8.5120   19.2490  -32.1750 S   0  0  0  0  0  0  0  0  0  0  0  0
   -9.1060   18.7390  -30.8920 O   0  0  0  0  0  0  0  0  0  0  0  0
   -9.6270   19.7000  -33.0760 O   0  0  0  0  0  0  0  0  0  0  0  0
   -7.4340   20.5990  -31.8380 C   0  0  0  0  0  0  0  0  0  0  0  0
   -7.8770   21.6770  -31.0610 C   0  0  0  0  0  0  0  0  0  0  0  0
   -7.0170   22.7430  -30.7810 C   0  0  0  0  0  0  0  0  0  0  0  0
   -5.7070   22.7500  -31.2920 C   0  0  0  0  0  0  0  0  0  0  0  0
   -4.7830   23.8060  -30.9870 N   0  0  0  0  0  0  0  0  0  0  0  0
   -3.9620   23.8480  -29.9770 C   0  0  0  0  0  0  0  0  0  0  0  0
   -3.0970   24.8670  -29.7920 N   0  0  0  0  0  0  0  0  0  0  0  0
   -2.3740   24.7390  -28.6430 C   0  0  0  0  0  0  0  0  0  0  0  0
   -1.3370   25.7230  -28.2610 C   0  0  0  0  0  0  0  0  0  0  0  0
   -1.2370   26.7860  -28.9300 O   0  0  0  0  0  0  0  0  0  0  0  0
   -0.4080   25.5000  -27.1270 C   0  0  0  0  0  0  0  0  0  0  0  0
   -0.7420   25.9160  -25.8250 C   0  0  0  0  0  0  0  0  0  0  0  0
    0.1540   25.7180  -24.7690 C   0  0  0  0  0  0  0  0  0  0  0  0
    1.3920   25.1150  -25.0040 C   0  0  0  0  0  0  0  0  0  0  0  0
    2.2580   24.9250  -23.9790 F   0  0  0  0  0  0  0  0  0  0  0  0
    1.7390   24.7150  -26.2970 C   0  0  0  0  0  0  0  0  0  0  0  0
    0.8480   24.9110  -27.3560 C   0  0  0  0  0  0  0  0  0  0  0  0
   -2.6660   23.5890  -27.9040 C   0  0  0  0  0  0  0  0  0  0  0  0
   -3.8750   22.7380  -28.7100 S   0  0  0  0  0  0  0  0  0  0  0  0
   -5.2550   21.6490  -32.0310 C   0  0  0  0  0  0  0  0  0  0  0  0
   -6.1160   20.5840  -32.3120 C   0  0  0  0  0  0  0  0  0  0  0  0
   -7.1426   17.3004  -32.2019 H   0  0  0  0  0  0  0  0  0  0  0  0
   -8.2759   17.3510  -33.5946 H   0  0  0  0  0  0  0  0  0  0  0  0
   -6.8063   18.3839  -33.5946 H   0  0  0  0  0  0  0  0  0  0  0  0
   -8.9051   21.6848  -30.6698 H   0  0  0  0  0  0  0  0  0  0  0  0
   -7.3665   23.5798  -30.1584 H   0  0  0  0  0  0  0  0  0  0  0  0
   -3.0000   25.6690  -30.4560 H   0  0  0  0  0  0  0  0  0  0  0  0
   -1.7121   26.3991  -25.6366 H   0  0  0  0  0  0  0  0  0  0  0  0
   -0.1168   26.0377  -23.7519 H   0  0  0  0  0  0  0  0  0  0  0  0
    2.7160   24.2446  -26.4820 H   0  0  0  0  0  0  0  0  0  0  0  0
    1.1308   24.6030  -28.3734 H   0  0  0  0  0  0  0  0  0  0  0  0
   -2.1884   23.2913  -26.9589 H   0  0  0  0  0  0  0  0  0  0  0  0
   -4.2164   21.6223  -32.3923 H   0  0  0  0  0  0  0  0  0  0  0  0
   -5.7572   19.7314  -32.9073 H   0  0  0  0  0  0  0  0  0  0  0  0
  1  2  1  0
  2  3  2  0
  2  4  2  0
  2  5  1  0
  5  6  2  0
  6  7  1  0
  7  8  2  0
  8  9  1  0
  9 10  2  3
 10 11  1  0
 11 12  1  0
 12 13  1  0
 13 14  2  0
 13 15  1  0
 15 16  2  0
 16 17  1  0
 17 18  2  0
 18 19  1  0
 18 20  1  0
 20 21  2  0
 12 22  2  0
 22 23  1  0
  8 24  1  0
 24 25  2  0
 25  5  1  0
 23 10  1  0
 21 15  1  0
  1 26  1  0
  1 27  1  0
  1 28  1  0
  6 29  1  0
  7 30  1  0
 11 31  1  0
 16 32  1  0
 17 33  1  0
 20 34  1  0
 21 35  1  0
 22 36  1  0
 24 37  1  0
 25 38  1  0
M  END
>  <UniqueID>  (39) 
36

>  <SMILES>  (39) 
CS(=O)(=O)c1ccc(N=c2[nH]c(C(=O)c3ccc(F)cc3)cs2)cc1

>  <Energy>  (39) 
79.8746793857622

>  <Genealogy>  (39) 
CS(=O)(=O)c1ccc(N=c2[nH]c(C(=O)c3ccc(F)cc3)cs2)cc1 (3D coordinates assigned)
CS(=O)(=O)c1ccc(N=c2[nH]c(C(=O)c3ccc(F)cc3)cs2)cc1 (optimized conformer: 79.8746793857622 kcal/mol)

>  <smiles>  (39) 
CS(=O)(=O)c1ccc(N=c2[nH]c(C(=O)c3ccc(F)cc3)cs2)cc1

>  <score_type>  (39) 
oracle

>  <origin>  (39) 
adgpu

>  <m_score__min__energy>  (39) 
-9.5399999999999991

>  <m_primary>  (39) 
energy

$$$$
39:0
     RDKit          3D

 43 45  0  0  0  0  0  0  0  0999 V2000
   -4.7460   26.4260  -30.4650 O   0  0  0  0  0  0  0  0  0  0  0  0
   -5.1800   25.2420  -30.4620 C   0  0  0  0  0  0  0  0  0  0  0  0
   -6.5480   25.0360  -30.3330 O   0  0  0  0  0  0  0  0  0  0  0  0
   -4.2420   24.0980  -30.5950 C   0  0  0  0  0  0  0  0  0  0  0  0
   -4.6660   22.9250  -31.2490 C   0  0  0  0  0  0  0  0  0  0  0  0
   -3.8060   21.8260  -31.3840 C   0  0  0  0  0  0  0  0  0  0  0  0
   -4.2480   20.6410  -32.0650 N   0  0  0  0  0  0  0  0  0  0  0  0
   -3.8650   20.4260  -33.4640 C   0  0  0  0  0  0  0  0  0  0  0  0
   -4.1560   19.0050  -33.8590 C   0  0  0  0  0  0  0  0  0  0  0  0
   -5.3750   18.6770  -34.4750 C   0  0  0  0  0  0  0  0  0  0  0  0
   -5.6630   17.3490  -34.8010 C   0  0  0  0  0  0  0  0  0  0  0  0
   -4.7430   16.3380  -34.5040 C   0  0  0  0  0  0  0  0  0  0  0  0
   -5.0260   15.0510  -34.8200 F   0  0  0  0  0  0  0  0  0  0  0  0
   -3.5350   16.6560  -33.8750 C   0  0  0  0  0  0  0  0  0  0  0  0
   -3.2430   17.9840  -33.5500 C   0  0  0  0  0  0  0  0  0  0  0  0
   -5.0320   19.6350  -31.3420 C   0  0  0  0  0  0  0  0  0  0  0  0
   -6.4950   19.7980  -31.6600 C   0  0  0  0  0  0  0  0  0  0  0  0
   -7.0180   21.0860  -31.8640 C   0  0  0  0  0  0  0  0  0  0  0  0
   -8.3800   21.2660  -32.1120 C   0  0  0  0  0  0  0  0  0  0  0  0
   -9.2350   20.1650  -32.1490 C   0  0  0  0  0  0  0  0  0  0  0  0
   -8.7330   18.8780  -31.9320 C   0  0  0  0  0  0  0  0  0  0  0  0
   -9.5820   17.8200  -31.9600 F   0  0  0  0  0  0  0  0  0  0  0  0
   -7.3630   18.6880  -31.6830 C   0  0  0  0  0  0  0  0  0  0  0  0
   -6.8630   17.4040  -31.4560 O   0  0  0  0  0  0  0  0  0  0  0  0
   -2.5110   21.8940  -30.8600 C   0  0  0  0  0  0  0  0  0  0  0  0
   -2.0750   23.0520  -30.2170 C   0  0  0  0  0  0  0  0  0  0  0  0
   -2.9270   24.1520  -30.0810 C   0  0  0  0  0  0  0  0  0  0  0  0
   -2.4510   25.2870  -29.4340 O   0  0  0  0  0  0  0  0  0  0  0  0
   -5.6852   22.8704  -31.6592 H   0  0  0  0  0  0  0  0  0  0  0  0
   -4.4380   21.1088  -34.1086 H   0  0  0  0  0  0  0  0  0  0  0  0
   -2.7889   20.6222  -33.5802 H   0  0  0  0  0  0  0  0  0  0  0  0
   -6.1052   19.4679  -34.7015 H   0  0  0  0  0  0  0  0  0  0  0  0
   -6.6148   17.0982  -35.2920 H   0  0  0  0  0  0  0  0  0  0  0  0
   -2.8140   15.8605  -33.6358 H   0  0  0  0  0  0  0  0  0  0  0  0
   -2.2944   18.2300  -33.0503 H   0  0  0  0  0  0  0  0  0  0  0  0
   -4.7030   18.6299  -31.6445 H   0  0  0  0  0  0  0  0  0  0  0  0
   -4.8801   19.7668  -30.2605 H   0  0  0  0  0  0  0  0  0  0  0  0
   -6.3495   21.9588  -31.8280 H   0  0  0  0  0  0  0  0  0  0  0  0
   -8.7792   22.2774  -32.2784 H   0  0  0  0  0  0  0  0  0  0  0  0
  -10.3069   20.3092  -32.3494 H   0  0  0  0  0  0  0  0  0  0  0  0
   -7.0610   16.6320  -32.0810 H   0  0  0  0  0  0  0  0  0  0  0  0
   -1.8347   21.0317  -30.9554 H   0  0  0  0  0  0  0  0  0  0  0  0
   -1.0528   23.1003  -29.8137 H   0  0  0  0  0  0  0  0  0  0  0  0
  1  2  2  0
  2  3  1  0
  2  4  1  0
  4  5  2  0
  5  6  1  0
  6  7  1  0
  7  8  1  0
  8  9  1  0
  9 10  2  0
 10 11  1  0
 11 12  2  0
 12 13  1  0
 12 14  1  0
 14 15  2  0
  7 16  1  0
 16 17  1  0
 17 18  2  0
 18 19  1  0
 19 20  2  0
 20 21  1  0
 21 22  1  0
 21 23  2  0
 23 24  1  0
  6 25  2  0
 25 26  1  0
 26 27  2  0
 27 28  1  0
 27  4  1  0
 15  9  1  0
 23 17  1  0
  5 29  1  0
  8 30  1  0
  8 31  1  0
 10 32  1  0
 11 33  1  0
 14 34  1  0
 15 35  1  0
 16 36  1  0
 16 37  1  0
 18 38  1  0
 19 39  1  0
 20 40  1  0
 24 41  1  0
 25 42  1  0
 26 43  1  0
M  CHG  2   3  -1  28  -1
M  END
>  <UniqueID>  (40) 
37

>  <SMILES>  (40) 
O=C([O-])c1cc(N(Cc2ccc(F)cc2)Cc2cccc(F)c2O)ccc1[O-]

>  <Energy>  (40) 
49.175136249683185

>  <Genealogy>  (40) 
O=C([O-])c1cc(N(Cc2ccc(F)cc2)Cc2cccc(F)c2O)ccc1[O-] (protonated)
O=C([O-])c1cc(N(Cc2ccc(F)cc2)Cc2cccc(F)c2O)ccc1[O-] (3D coordinates assigned)
O=C([O-])c1cc(N(Cc2ccc(F)cc2)Cc2cccc(F)c2O)ccc1[O-] (optimized conformer: 49.175136249683185 kcal/mol)

>  <smiles>  (40) 
O=C(O)c1cc(N(Cc2ccc(F)cc2)Cc2cccc(F)c2O)ccc1O

>  <score_type>  (40) 
oracle

>  <origin>  (40) 
adgpu

>  <m_score__min__energy>  (40) 
-11.52

>  <m_primary>  (40) 
energy

$$$$
40:0
     RDKit          3D

 41 43  0  0  0  0  0  0  0  0999 V2000
   -1.2660   25.1950  -29.2610 N   0  0  0  0  0  0  0  0  0  0  0  0
   -1.5590   23.9940  -28.5260 C   0  0  0  0  0  0  0  0  0  0  0  0
   -1.8320   22.7850  -29.2060 C   0  0  0  0  0  0  0  0  0  0  0  0
   -1.9190   22.6960  -31.0020 S   0  0  0  0  0  0  0  0  0  0  0  0
   -3.7020   22.9220  -31.0370 C   0  0  0  0  0  0  0  0  0  0  0  0
   -4.5260   21.8340  -31.3550 C   0  0  0  0  0  0  0  0  0  0  0  0
   -5.9190   21.9800  -31.3750 C   0  0  0  0  0  0  0  0  0  0  0  0
   -6.9350   20.5980  -31.7770 S   0  0  0  0  0  0  0  0  0  0  0  0
   -7.3710   20.6920  -33.2130 O   0  0  0  0  0  0  0  0  0  0  0  0
   -8.1570   20.6380  -30.9030 O   0  0  0  0  0  0  0  0  0  0  0  0
   -6.0380   19.1180  -31.4960 N   0  0  0  0  0  0  0  0  0  0  0  0
   -6.9390   17.9520  -31.3920 C   0  0  0  0  0  0  0  0  0  0  0  0
   -7.5180   17.5330  -32.7650 C   0  0  0  0  0  0  0  0  0  0  0  0
   -6.7950   18.0530  -33.8690 O   0  0  0  0  0  0  0  0  0  0  0  0
   -5.4090   17.9500  -33.6360 C   0  0  0  0  0  0  0  0  0  0  0  0
   -4.9790   18.9140  -32.5150 C   0  0  0  0  0  0  0  0  0  0  0  0
   -6.4880   23.2300  -31.0930 C   0  0  0  0  0  0  0  0  0  0  0  0
   -5.6700   24.3200  -30.7910 C   0  0  0  0  0  0  0  0  0  0  0  0
   -4.2800   24.1730  -30.7650 C   0  0  0  0  0  0  0  0  0  0  0  0
   -3.4800   25.2730  -30.4790 O   0  0  0  0  0  0  0  0  0  0  0  0
   -2.0490   21.6130  -28.4750 C   0  0  0  0  0  0  0  0  0  0  0  0
   -2.0310   21.6530  -27.0840 C   0  0  0  0  0  0  0  0  0  0  0  0
   -1.7930   22.8230  -26.4410 N   0  0  0  0  0  0  0  0  0  0  0  0
   -1.5590   23.9840  -27.1110 C   0  0  0  0  0  0  0  0  0  0  0  0
   -1.2640   25.3340  -26.2300 S   0  0  0  0  0  0  0  0  0  0  0  0
   -1.9900   25.6740  -29.8390 H   0  0  0  0  0  0  0  0  0  0  0  0
   -0.3100   25.6120  -29.2830 H   0  0  0  0  0  0  0  0  0  0  0  0
   -4.0757   20.8584  -31.5906 H   0  0  0  0  0  0  0  0  0  0  0  0
   -5.5730   19.2350  -30.5650 H   0  0  0  0  0  0  0  0  0  0  0  0
   -6.3753   17.1056  -30.9726 H   0  0  0  0  0  0  0  0  0  0  0  0
   -7.7814   18.2343  -30.7434 H   0  0  0  0  0  0  0  0  0  0  0  0
   -7.5053   16.4348  -32.8272 H   0  0  0  0  0  0  0  0  0  0  0  0
   -8.5367   17.9438  -32.8243 H   0  0  0  0  0  0  0  0  0  0  0  0
   -5.1672   16.9187  -33.3395 H   0  0  0  0  0  0  0  0  0  0  0  0
   -4.8719   18.2143  -34.5588 H   0  0  0  0  0  0  0  0  0  0  0  0
   -4.0883   18.5013  -32.0187 H   0  0  0  0  0  0  0  0  0  0  0  0
   -4.7719   19.8900  -32.9782 H   0  0  0  0  0  0  0  0  0  0  0  0
   -7.5811   23.3520  -31.1098 H   0  0  0  0  0  0  0  0  0  0  0  0
   -6.1212   25.2991  -30.5725 H   0  0  0  0  0  0  0  0  0  0  0  0
   -2.2333   20.6627  -28.9975 H   0  0  0  0  0  0  0  0  0  0  0  0
   -2.2100   20.7347  -26.5055 H   0  0  0  0  0  0  0  0  0  0  0  0
  1  2  1  0
  2  3  2  0
  3  4  1  0
  4  5  1  0
  5  6  2  0
  6  7  1  0
  7  8  1  0
  8  9  2  0
  8 10  2  0
  8 11  1  0
 11 12  1  0
 12 13  1  0
 13 14  1  0
 14 15  1  0
 15 16  1  0
  7 17  2  0
 17 18  1  0
 18 19  2  0
 19 20  1  0
  3 21  1  0
 21 22  2  0
 22 23  1  0
 23 24  1  0
 24 25  2  0
 24  2  1  0
 19  5  1  0
 16 11  1  0
  1 26  1  0
  1 27  1  0
  6 28  1  0
 11 29  1  0
 12 30  1  0
 12 31  1  0
 13 32  1  0
 13 33  1  0
 15 34  1  0
 15 35  1  0
 16 36  1  0
 16 37  1  0
 17 38  1  0
 18 39  1  0
 21 40  1  0
 22 41  1  0
M  CHG  3  11   1  20  -1  23  -1
M  END
>  <UniqueID>  (41) 
38

>  <SMILES>  (41) 
Nc1c(Sc2cc(S(=O)(=O)[NH+]3CCOCC3)ccc2[O-])cc[n-]c1=S

>  <Energy>  (41) 
53.06105697444993

>  <Genealogy>  (41) 
Nc1c(Sc2cc(S(=O)(=O)[NH+]3CCOCC3)ccc2[O-])cc[n-]c1=S (protonated)
Nc1c(Sc2cc(S(=O)(=O)[NH+]3CCOCC3)ccc2[O-])cc[n-]c1=S (3D coordinates assigned)
Nc1c(Sc2cc(S(=O)(=O)[NH+]3CCOCC3)ccc2[O-])cc[n-]c1=S (nonaromatic ring conformer: 53.06105697444993 kcal/mol)

>  <smiles>  (41) 
Nc1c(Sc2cc(S(=O)(=O)N3CCOCC3)ccc2O)cc[nH]c1=S

>  <score_type>  (41) 
oracle

>  <origin>  (41) 
adgpu

>  <m_score__min__energy>  (41) 
-10.5

>  <m_primary>  (41) 
energy

$$$$
41:0
     RDKit          3D

 33 35  0  0  0  0  0  0  0  0999 V2000
   -6.8430   18.8080  -33.3430 C   0  0  0  0  0  0  0  0  0  0  0  0
   -7.3880   20.0170  -32.7350 N   0  0  0  0  0  0  0  0  0  0  0  0
   -8.6810   20.3000  -32.4370 C   0  0  0  0  0  0  0  0  0  0  0  0
   -9.6450   19.5370  -32.7150 O   0  0  0  0  0  0  0  0  0  0  0  0
   -8.8270   21.4570  -31.8140 O   0  0  0  0  0  0  0  0  0  0  0  0
   -7.6160   21.9430  -31.6860 C   0  0  0  0  0  0  0  0  0  0  0  0
   -7.2170   23.1340  -31.0900 C   0  0  0  0  0  0  0  0  0  0  0  0
   -5.8360   23.4220  -31.0550 C   0  0  0  0  0  0  0  0  0  0  0  0
   -5.2740   24.9090  -30.2950 S   0  0  0  0  0  0  0  0  0  0  0  0
   -6.4650   25.7850  -30.0280 O   0  0  0  0  0  0  0  0  0  0  0  0
   -4.3190   25.6430  -31.1950 O   0  0  0  0  0  0  0  0  0  0  0  0
   -4.4860   24.5550  -28.7900 N   0  0  0  0  0  0  0  0  0  0  0  0
   -3.2610   23.8270  -28.6080 C   0  0  0  0  0  0  0  0  0  0  0  0
   -3.3490   22.5260  -28.0950 C   0  0  0  0  0  0  0  0  0  0  0  0
   -2.2020   21.7500  -27.9130 C   0  0  0  0  0  0  0  0  0  0  0  0
   -0.9450   22.2730  -28.2330 C   0  0  0  0  0  0  0  0  0  0  0  0
    0.2370   21.4730  -28.0480 C   0  0  0  0  0  0  0  0  0  0  0  0
    1.1890   20.8310  -27.8990 N   0  0  0  0  0  0  0  0  0  0  0  0
   -0.8400   23.5790  -28.7220 C   0  0  0  0  0  0  0  0  0  0  0  0
   -1.9860   24.3640  -28.9000 C   0  0  0  0  0  0  0  0  0  0  0  0
   -1.8290   25.6710  -29.3400 O   0  0  0  0  0  0  0  0  0  0  0  0
   -4.9060   22.5170  -31.6270 C   0  0  0  0  0  0  0  0  0  0  0  0
   -5.3460   21.3210  -32.2250 C   0  0  0  0  0  0  0  0  0  0  0  0
   -6.7180   21.0730  -32.2370 C   0  0  0  0  0  0  0  0  0  0  0  0
   -6.5284   18.1101  -32.5531 H   0  0  0  0  0  0  0  0  0  0  0  0
   -7.6136   18.3320  -33.9672 H   0  0  0  0  0  0  0  0  0  0  0  0
   -5.9760   19.0703  -33.9672 H   0  0  0  0  0  0  0  0  0  0  0  0
   -7.9534   23.8288  -30.6600 H   0  0  0  0  0  0  0  0  0  0  0  0
   -4.3332   22.1108  -27.8325 H   0  0  0  0  0  0  0  0  0  0  0  0
   -2.2874   20.7270  -27.5178 H   0  0  0  0  0  0  0  0  0  0  0  0
    0.1492   23.9923  -28.9684 H   0  0  0  0  0  0  0  0  0  0  0  0
   -3.8316   22.7516  -31.6032 H   0  0  0  0  0  0  0  0  0  0  0  0
   -4.6337   20.6084  -32.6665 H   0  0  0  0  0  0  0  0  0  0  0  0
  1  2  1  0
  2  3  1  0
  3  4  2  0
  3  5  1  0
  5  6  1  0
  6  7  2  0
  7  8  1  0
  8  9  1  0
  9 10  2  0
  9 11  2  0
  9 12  1  0
 12 13  1  0
 13 14  2  0
 14 15  1  0
 15 16  2  0
 16 17  1  0
 17 18  3  0
 16 19  1  0
 19 20  2  0
 20 21  1  0
  8 22  2  0
 22 23  1  0
 23 24  2  0
 24  2  1  0
 24  6  1  0
 20 13  1  0
  1 25  1  0
  1 26  1  0
  1 27  1  0
  7 28  1  0
 14 29  1  0
 15 30  1  0
 19 31  1  0
 22 32  1  0
 23 33  1  0
M  CHG  2  12  -1  21  -1
M  END
>  <UniqueID>  (42) 
39

>  <SMILES>  (42) 
Cn1c(=O)oc2cc(S(=O)(=O)[N-]c3ccc(C#N)cc3[O-])ccc21

>  <Energy>  (42) 
82.50340617749755

>  <Genealogy>  (42) 
Cn1c(=O)oc2cc(S(=O)(=O)[N-]c3ccc(C#N)cc3[O-])ccc21 (protonated)
Cn1c(=O)oc2cc(S(=O)(=O)[N-]c3ccc(C#N)cc3[O-])ccc21 (3D coordinates assigned)
Cn1c(=O)oc2cc(S(=O)(=O)[N-]c3ccc(C#N)cc3[O-])ccc21 (optimized conformer: 82.50340617749755 kcal/mol)

>  <smiles>  (42) 
Cn1c(=O)oc2cc(S(=O)(=O)Nc3ccc(C#N)cc3O)ccc21

>  <score_type>  (42) 
oracle

>  <origin>  (42) 
adgpu

>  <m_score__min__energy>  (42) 
-13.449999999999999

>  <m_primary>  (42) 
energy

$$$$
42:0
     RDKit          3D

 34 36  0  0  0  0  0  0  0  0999 V2000
   -9.1160   18.8250  -31.7090 C   0  0  0  0  0  0  0  0  0  0  0  0
   -7.7870   19.1970  -32.3130 C   0  0  0  0  0  0  0  0  0  0  0  0
   -7.0560   18.2270  -33.0130 C   0  0  0  0  0  0  0  0  0  0  0  0
   -5.8240   18.5680  -33.5750 C   0  0  0  0  0  0  0  0  0  0  0  0
   -5.1600   17.7030  -34.2050 O   0  0  0  0  0  0  0  0  0  0  0  0
   -5.3460   19.8010  -33.4520 O   0  0  0  0  0  0  0  0  0  0  0  0
   -5.9950   20.7600  -32.8020 C   0  0  0  0  0  0  0  0  0  0  0  0
   -5.4250   22.0350  -32.7140 C   0  0  0  0  0  0  0  0  0  0  0  0
   -6.0780   23.0630  -32.0220 C   0  0  0  0  0  0  0  0  0  0  0  0
   -5.4630   24.3590  -31.9770 N   0  0  0  0  0  0  0  0  0  0  0  0
   -5.1700   25.1200  -30.8000 C   0  0  0  0  0  0  0  0  0  0  0  0
   -6.1010   25.5480  -30.0660 O   0  0  0  0  0  0  0  0  0  0  0  0
   -3.8040   25.2990  -30.4140 N   0  0  0  0  0  0  0  0  0  0  0  0
   -3.1250   24.5580  -29.3910 C   0  0  0  0  0  0  0  0  0  0  0  0
   -3.6890   23.3530  -28.9500 C   0  0  0  0  0  0  0  0  0  0  0  0
   -3.0560   22.5950  -27.9610 C   0  0  0  0  0  0  0  0  0  0  0  0
   -1.8450   23.0270  -27.4160 C   0  0  0  0  0  0  0  0  0  0  0  0
   -1.2570   24.2100  -27.8720 C   0  0  0  0  0  0  0  0  0  0  0  0
   -1.8810   24.9710  -28.8670 C   0  0  0  0  0  0  0  0  0  0  0  0
   -1.2420   26.1070  -29.3480 O   0  0  0  0  0  0  0  0  0  0  0  0
   -7.3350   22.8130  -31.4460 C   0  0  0  0  0  0  0  0  0  0  0  0
   -7.9140   21.5430  -31.5270 C   0  0  0  0  0  0  0  0  0  0  0  0
   -7.2490   20.5000  -32.2010 C   0  0  0  0  0  0  0  0  0  0  0  0
   -9.0390   18.8465  -30.6119 H   0  0  0  0  0  0  0  0  0  0  0  0
   -9.8818   19.5433  -32.0370 H   0  0  0  0  0  0  0  0  0  0  0  0
   -9.3976   17.8135  -32.0370 H   0  0  0  0  0  0  0  0  0  0  0  0
   -7.4498   17.2054  -33.1187 H   0  0  0  0  0  0  0  0  0  0  0  0
   -4.4545   22.2319  -33.1930 H   0  0  0  0  0  0  0  0  0  0  0  0
   -4.6361   23.0016  -29.3852 H   0  0  0  0  0  0  0  0  0  0  0  0
   -3.5122   21.6571  -27.6115 H   0  0  0  0  0  0  0  0  0  0  0  0
   -1.3542   22.4365  -26.6283 H   0  0  0  0  0  0  0  0  0  0  0  0
   -0.2992   24.5445  -27.4468 H   0  0  0  0  0  0  0  0  0  0  0  0
   -7.8680   23.6233  -30.9270 H   0  0  0  0  0  0  0  0  0  0  0  0
   -8.8935   21.3574  -31.0622 H   0  0  0  0  0  0  0  0  0  0  0  0
  1  2  1  0
  2  3  2  0
  3  4  1  0
  4  5  2  0
  4  6  1  0
  6  7  1  0
  7  8  2  0
  8  9  1  0
  9 10  1  0
 10 11  1  0
 11 12  2  0
 11 13  1  0
 13 14  1  0
 14 15  2  0
 15 16  1  0
 16 17  2  0
 17 18  1  0
 18 19  2  0
 19 20  1  0
  9 21  2  0
 21 22  1  0
 22 23  2  0
 23  2  1  0
 23  7  1  0
 19 14  1  0
  1 24  1  0
  1 25  1  0
  1 26  1  0
  3 27  1  0
  8 28  1  0
 15 29  1  0
 16 30  1  0
 17 31  1  0
 18 32  1  0
 21 33  1  0
 22 34  1  0
M  CHG  3  10  -1  13  -1  20  -1
M  END
>  <UniqueID>  (43) 
40

>  <SMILES>  (43) 
Cc1cc(=O)oc2cc([N-]C(=O)[N-]c3ccccc3[O-])ccc12

>  <Energy>  (43) 
51.086156817600134

>  <Genealogy>  (43) 
Cc1cc(=O)oc2cc([N-]C(=O)[N-]c3ccccc3[O-])ccc12 (protonated)
Cc1cc(=O)oc2cc([N-]C(=O)[N-]c3ccccc3[O-])ccc12 (3D coordinates assigned)
Cc1cc(=O)oc2cc([N-]C(=O)[N-]c3ccccc3[O-])ccc12 (optimized conformer: 51.086156817600134 kcal/mol)

>  <smiles>  (43) 
Cc1cc(=O)oc2cc(NC(=O)Nc3ccccc3O)ccc12

>  <score_type>  (43) 
oracle

>  <origin>  (43) 
adgpu

>  <m_score__min__energy>  (43) 
-14.289999999999999

>  <m_primary>  (43) 
energy

$$$$
43:0
     RDKit          3D

 58 61  0  0  0  0  0  0  0  0999 V2000
    1.1060   17.2370  -28.8590 C   0  0  0  0  0  0  0  0  0  0  0  0
    0.4560   17.1300  -30.2070 C   0  0  0  0  0  0  0  0  0  0  0  0
    0.2070   15.8780  -30.7700 C   0  0  0  0  0  0  0  0  0  0  0  0
   -0.4120   15.7790  -32.0150 C   0  0  0  0  0  0  0  0  0  0  0  0
   -0.8200   16.9260  -32.7190 C   0  0  0  0  0  0  0  0  0  0  0  0
   -1.6480   16.6940  -34.2760 S   0  0  0  0  0  0  0  0  0  0  0  0
   -1.3600   15.3220  -34.8120 O   0  0  0  0  0  0  0  0  0  0  0  0
   -1.1860   17.7130  -35.2780 O   0  0  0  0  0  0  0  0  0  0  0  0
   -3.3970   16.8890  -34.1040 C   0  0  0  0  0  0  0  0  0  0  0  0
   -4.0710   17.7980  -34.9350 C   0  0  0  0  0  0  0  0  0  0  0  0
   -5.4500   17.9850  -34.8010 C   0  0  0  0  0  0  0  0  0  0  0  0
   -6.1630   17.2710  -33.8370 C   0  0  0  0  0  0  0  0  0  0  0  0
   -5.4990   16.3700  -33.0010 C   0  0  0  0  0  0  0  0  0  0  0  0
   -4.1200   16.1780  -33.1290 C   0  0  0  0  0  0  0  0  0  0  0  0
   -3.4960   15.3100  -32.2930 F   0  0  0  0  0  0  0  0  0  0  0  0
   -0.5590   18.2070  -32.1520 C   0  0  0  0  0  0  0  0  0  0  0  0
   -1.0340   19.7340  -32.9260 S   0  0  0  0  0  0  0  0  0  0  0  0
    0.1170   20.1880  -33.7790 O   0  0  0  0  0  0  0  0  0  0  0  0
   -2.2010   19.5260  -33.8500 O   0  0  0  0  0  0  0  0  0  0  0  0
   -1.4780   20.9990  -31.7610 C   0  0  0  0  0  0  0  0  0  0  0  0
   -0.4360   21.5930  -31.0260 C   0  0  0  0  0  0  0  0  0  0  0  0
   -0.6960   22.5580  -30.0560 C   0  0  0  0  0  0  0  0  0  0  0  0
   -2.0060   22.9650  -29.8070 C   0  0  0  0  0  0  0  0  0  0  0  0
   -2.3470   24.1520  -28.5520 S   0  0  0  0  0  0  0  0  0  0  0  0
   -1.6140   25.6600  -28.9730 N   0  0  0  0  0  0  0  0  0  0  0  0
   -3.8310   24.3410  -28.4130 O   0  0  0  0  0  0  0  0  0  0  0  0
   -1.7960   23.6730  -27.2380 O   0  0  0  0  0  0  0  0  0  0  0  0
   -3.0550   22.4040  -30.5390 C   0  0  0  0  0  0  0  0  0  0  0  0
   -2.8160   21.4340  -31.5310 C   0  0  0  0  0  0  0  0  0  0  0  0
   -4.2400   20.8270  -32.4080 S   0  0  0  0  0  0  0  0  0  0  0  0
   -4.0300   21.0300  -33.8820 O   0  0  0  0  0  0  0  0  0  0  0  0
   -4.4170   19.3540  -32.1760 O   0  0  0  0  0  0  0  0  0  0  0  0
   -5.7060   21.6890  -31.9490 C   0  0  0  0  0  0  0  0  0  0  0  0
   -5.7110   23.0910  -31.9140 C   0  0  0  0  0  0  0  0  0  0  0  0
   -6.8610   23.7820  -31.5210 C   0  0  0  0  0  0  0  0  0  0  0  0
   -8.0080   23.0760  -31.1510 C   0  0  0  0  0  0  0  0  0  0  0  0
   -8.0020   21.6780  -31.1610 C   0  0  0  0  0  0  0  0  0  0  0  0
   -6.8530   20.9860  -31.5500 C   0  0  0  0  0  0  0  0  0  0  0  0
    0.0570   18.2840  -30.8900 C   0  0  0  0  0  0  0  0  0  0  0  0
    0.3454   17.1118  -28.0742 H   0  0  0  0  0  0  0  0  0  0  0  0
    1.8704   16.4526  -28.7572 H   0  0  0  0  0  0  0  0  0  0  0  0
    1.5787   18.2250  -28.7572 H   0  0  0  0  0  0  0  0  0  0  0  0
    0.5002   14.9659  -30.2296 H   0  0  0  0  0  0  0  0  0  0  0  0
   -0.5845   14.7856  -32.4548 H   0  0  0  0  0  0  0  0  0  0  0  0
   -3.5122   18.3650  -35.6941 H   0  0  0  0  0  0  0  0  0  0  0  0
   -5.9739   18.6962  -35.4566 H   0  0  0  0  0  0  0  0  0  0  0  0
   -7.2484   17.4177  -33.7354 H   0  0  0  0  0  0  0  0  0  0  0  0
   -6.0625   15.8102  -32.2401 H   0  0  0  0  0  0  0  0  0  0  0  0
    0.6032   21.2898  -31.2209 H   0  0  0  0  0  0  0  0  0  0  0  0
    0.1339   23.0000  -29.4852 H   0  0  0  0  0  0  0  0  0  0  0  0
   -1.5680   25.6950  -30.0150 H   0  0  0  0  0  0  0  0  0  0  0  0
   -4.0871   22.7261  -30.3366 H   0  0  0  0  0  0  0  0  0  0  0  0
   -4.8064   23.6492  -32.1969 H   0  0  0  0  0  0  0  0  0  0  0  0
   -6.8626   24.8819  -31.5032 H   0  0  0  0  0  0  0  0  0  0  0  0
   -8.9160   23.6200  -30.8517 H   0  0  0  0  0  0  0  0  0  0  0  0
   -8.9032   21.1225  -30.8622 H   0  0  0  0  0  0  0  0  0  0  0  0
   -6.8471   19.8860  -31.5436 H   0  0  0  0  0  0  0  0  0  0  0  0
    0.2282   19.2692  -30.4317 H   0  0  0  0  0  0  0  0  0  0  0  0
  1  2  1  0
  2  3  2  0
  3  4  1  0
  4  5  2  0
  5  6  1  0
  6  7  2  0
  6  8  2  0
  6  9  1  0
  9 10  2  0
 10 11  1  0
 11 12  2  0
 12 13  1  0
 13 14  2  0
 14 15  1  0
  5 16  1  0
 16 17  1  0
 17 18  2  0
 17 19  2  0
 17 20  1  0
 20 21  2  0
 21 22  1  0
 22 23  2  0
 23 24  1  0
 24 25  1  0
 24 26  2  0
 24 27  2  0
 23 28  1  0
 28 29  2  0
 29 30  1  0
 30 31  2  0
 30 32  2  0
 30 33  1  0
 33 34  2  0
 34 35  1  0
 35 36  2  0
 36 37  1  0
 37 38  2  0
 16 39  2  0
 39  2  1  0
 14  9  1  0
 29 20  1  0
 38 33  1  0
  1 40  1  0
  1 41  1  0
  1 42  1  0
  3 43  1  0
  4 44  1  0
 10 45  1  0
 11 46  1  0
 12 47  1  0
 13 48  1  0
 21 49  1  0
 22 50  1  0
 25 51  1  0
 28 52  1  0
 34 53  1  0
 35 54  1  0
 36 55  1  0
 37 56  1  0
 38 57  1  0
 39 58  1  0
M  CHG  1  25  -1
M  END
>  <UniqueID>  (44) 
41

>  <SMILES>  (44) 
Cc1ccc(S(=O)(=O)c2ccccc2F)c(S(=O)(=O)c2ccc(S([NH-])(=O)=O)cc2S(=O)(=O)c2ccccc2)c1

>  <Energy>  (44) 
70.93649432114884

>  <Genealogy>  (44) 
Cc1ccc(S(=O)(=O)c2ccccc2F)c(S(=O)(=O)c2ccc(S([NH-])(=O)=O)cc2S(=O)(=O)c2ccccc2)c1 (protonated)
Cc1ccc(S(=O)(=O)c2ccccc2F)c(S(=O)(=O)c2ccc(S([NH-])(=O)=O)cc2S(=O)(=O)c2ccccc2)c1 (3D coordinates assigned)
Cc1ccc(S(=O)(=O)c2ccccc2F)c(S(=O)(=O)c2ccc(S([NH-])(=O)=O)cc2S(=O)(=O)c2ccccc2)c1 (optimized conformer: 70.93649432114884 kcal/mol)

>  <smiles>  (44) 
Cc1ccc(S(=O)(=O)c2ccccc2F)c(S(=O)(=O)c2ccc(S(N)(=O)=O)cc2S(=O)(=O)c2ccccc2)c1

>  <score_type>  (44) 
oracle

>  <origin>  (44) 
adgpu

>  <m_score__min__energy>  (44) 
-12.029999999999999

>  <m_primary>  (44) 
energy

$$$$
44:0
     RDKit          3D

 65 68  0  0  0  0  0  0  0  0999 V2000
   -4.7370   23.0290  -32.7000 N   0  0  0  0  0  0  0  0  0  0  0  0
   -5.8750   22.7380  -31.8770 C   0  0  0  0  0  0  0  0  0  0  0  0
   -6.8090   21.7930  -32.3290 C   0  0  0  0  0  0  0  0  0  0  0  0
   -7.9410   21.4830  -31.5650 C   0  0  0  0  0  0  0  0  0  0  0  0
   -9.1240   20.3110  -32.1410 S   0  0  0  0  0  0  0  0  0  0  0  0
   -8.8870   20.0650  -33.6040 O   0  0  0  0  0  0  0  0  0  0  0  0
  -10.5170   20.8510  -31.9750 O   0  0  0  0  0  0  0  0  0  0  0  0
   -8.9580   18.8060  -31.2830 N   0  0  0  0  0  0  0  0  0  0  0  0
   -8.0450   17.8950  -31.9760 C   0  0  0  0  0  0  0  0  0  0  0  0
   -6.7370   18.5750  -32.2830 C   0  0  0  0  0  0  0  0  0  0  0  0
   -5.8930   19.0030  -31.2460 C   0  0  0  0  0  0  0  0  0  0  0  0
   -4.6640   19.6000  -31.5360 C   0  0  0  0  0  0  0  0  0  0  0  0
   -4.2630   19.8010  -32.8670 C   0  0  0  0  0  0  0  0  0  0  0  0
   -2.9330   20.4160  -33.1350 C   0  0  0  0  0  0  0  0  0  0  0  0
   -2.9080   21.6250  -33.4960 O   0  0  0  0  0  0  0  0  0  0  0  0
   -1.6730   19.7020  -33.0190 N   0  0  0  0  0  0  0  0  0  0  0  0
   -0.9270   20.1150  -31.8080 C   0  0  0  0  0  0  0  0  0  0  0  0
    0.1620   19.0880  -31.4400 C   0  0  0  0  0  0  0  0  0  0  0  0
    0.6000   18.4030  -32.5950 O   0  0  0  0  0  0  0  0  0  0  0  0
   -0.4270   17.5520  -33.0810 C   0  0  0  0  0  0  0  0  0  0  0  0
   -1.8170   18.2330  -33.1120 C   0  0  0  0  0  0  0  0  0  0  0  0
   -5.1090   19.3650  -33.9040 C   0  0  0  0  0  0  0  0  0  0  0  0
   -6.3350   18.7620  -33.6130 C   0  0  0  0  0  0  0  0  0  0  0  0
   -8.1460   22.1270  -30.3420 C   0  0  0  0  0  0  0  0  0  0  0  0
   -7.2270   23.0670  -29.8790 C   0  0  0  0  0  0  0  0  0  0  0  0
   -6.0850   23.3830  -30.6330 C   0  0  0  0  0  0  0  0  0  0  0  0
   -4.9590   24.6000  -30.0120 S   0  0  0  0  0  0  0  0  0  0  0  0
   -5.7360   25.6340  -29.2460 O   0  0  0  0  0  0  0  0  0  0  0  0
   -4.2510   25.2830  -31.1520 O   0  0  0  0  0  0  0  0  0  0  0  0
   -3.7840   23.8410  -28.9670 N   0  0  0  0  0  0  0  0  0  0  0  0
   -4.1850   22.4440  -28.6960 C   0  0  0  0  0  0  0  0  0  0  0  0
   -3.0600   21.6310  -28.0160 C   0  0  0  0  0  0  0  0  0  0  0  0
   -1.9490   22.5370  -27.4810 C   0  0  0  0  0  0  0  0  0  0  0  0
   -1.3710   23.4140  -28.6010 C   0  0  0  0  0  0  0  0  0  0  0  0
   -2.4500   23.8940  -29.5920 C   0  0  0  0  0  0  0  0  0  0  0  0
   -4.7310   22.8610  -33.7300 H   0  0  0  0  0  0  0  0  0  0  0  0
   -3.8760   23.4470  -32.2830 H   0  0  0  0  0  0  0  0  0  0  0  0
   -6.6501   21.2901  -33.2943 H   0  0  0  0  0  0  0  0  0  0  0  0
   -7.8548   17.0205  -31.3364 H   0  0  0  0  0  0  0  0  0  0  0  0
   -8.5103   17.5847  -32.9232 H   0  0  0  0  0  0  0  0  0  0  0  0
   -6.2014   18.8674  -30.1989 H   0  0  0  0  0  0  0  0  0  0  0  0
   -4.0041   19.9156  -30.7145 H   0  0  0  0  0  0  0  0  0  0  0  0
   -1.0970   19.9890  -33.8480 H   0  0  0  0  0  0  0  0  0  0  0  0
   -0.4515   21.0890  -31.9955 H   0  0  0  0  0  0  0  0  0  0  0  0
   -1.6369   20.1817  -30.9704 H   0  0  0  0  0  0  0  0  0  0  0  0
    1.0149   19.6114  -30.9832 H   0  0  0  0  0  0  0  0  0  0  0  0
   -0.2577   18.3603  -30.7299 H   0  0  0  0  0  0  0  0  0  0  0  0
   -0.1677   17.2391  -34.1032 H   0  0  0  0  0  0  0  0  0  0  0  0
   -0.4965   16.6964  -32.3931 H   0  0  0  0  0  0  0  0  0  0  0  0
   -2.3250   17.9774  -34.0536 H   0  0  0  0  0  0  0  0  0  0  0  0
   -2.4081   17.8772  -32.2552 H   0  0  0  0  0  0  0  0  0  0  0  0
   -4.8024   19.5001  -34.9517 H   0  0  0  0  0  0  0  0  0  0  0  0
   -6.9895   18.4316  -34.4330 H   0  0  0  0  0  0  0  0  0  0  0  0
   -9.0370   21.8909  -29.7417 H   0  0  0  0  0  0  0  0  0  0  0  0
   -7.3978   23.5662  -28.9138 H   0  0  0  0  0  0  0  0  0  0  0  0
   -5.0650   22.4505  -28.0360 H   0  0  0  0  0  0  0  0  0  0  0  0
   -4.4092   21.9656  -29.6608 H   0  0  0  0  0  0  0  0  0  0  0  0
   -3.4888   21.0608  -27.1787 H   0  0  0  0  0  0  0  0  0  0  0  0
   -2.6211   20.9588  -28.7680 H   0  0  0  0  0  0  0  0  0  0  0  0
   -2.3604   23.1844  -26.6925 H   0  0  0  0  0  0  0  0  0  0  0  0
   -1.1437   21.9054  -27.0778 H   0  0  0  0  0  0  0  0  0  0  0  0
   -0.8917   24.2943  -28.1478 H   0  0  0  0  0  0  0  0  0  0  0  0
   -0.6484   22.8044  -29.1634 H   0  0  0  0  0  0  0  0  0  0  0  0
   -2.2314   24.9295  -29.8918 H   0  0  0  0  0  0  0  0  0  0  0  0
   -2.4430   23.2351  -30.4728 H   0  0  0  0  0  0  0  0  0  0  0  0
  1  2  1  0
  2  3  2  0
  3  4  1  0
  4  5  1  0
  5  6  2  0
  5  7  2  0
  5  8  1  0
  8  9  1  0
  9 10  1  0
 10 11  2  0
 11 12  1  0
 12 13  2  0
 13 14  1  0
 14 15  2  0
 14 16  1  0
 16 17  1  0
 17 18  1  0
 18 19  1  0
 19 20  1  0
 20 21  1  0
 13 22  1  0
 22 23  2  0
  4 24  2  0
 24 25  1  0
 25 26  2  0
 26 27  1  0
 27 28  2  0
 27 29  2  0
 27 30  1  0
 30 31  1  0
 31 32  1  0
 32 33  1  0
 33 34  1  0
 34 35  1  0
 26  2  1  0
 35 30  1  0
 23 10  1  0
 21 16  1  0
  1 36  1  0
  1 37  1  0
  3 38  1  0
  9 39  1  0
  9 40  1  0
 11 41  1  0
 12 42  1  0
 16 43  1  0
 17 44  1  0
 17 45  1  0
 18 46  1  0
 18 47  1  0
 20 48  1  0
 20 49  1  0
 21 50  1  0
 21 51  1  0
 22 52  1  0
 23 53  1  0
 24 54  1  0
 25 55  1  0
 31 56  1  0
 31 57  1  0
 32 58  1  0
 32 59  1  0
 33 60  1  0
 33 61  1  0
 34 62  1  0
 34 63  1  0
 35 64  1  0
 35 65  1  0
M  CHG  2   8  -1  16   1
M  END
>  <UniqueID>  (45) 
42

>  <SMILES>  (45) 
Nc1cc(S(=O)(=O)[N-]Cc2ccc(C(=O)[NH+]3CCOCC3)cc2)ccc1S(=O)(=O)N1CCCCC1

>  <Energy>  (45) 
87.5983473542094

>  <Genealogy>  (45) 
Nc1cc(S(=O)(=O)[N-]Cc2ccc(C(=O)[NH+]3CCOCC3)cc2)ccc1S(=O)(=O)N1CCCCC1 (protonated)
Nc1cc(S(=O)(=O)[N-]Cc2ccc(C(=O)[NH+]3CCOCC3)cc2)ccc1S(=O)(=O)N1CCCCC1 (3D coordinates assigned)
Nc1cc(S(=O)(=O)[N-]Cc2ccc(C(=O)[NH+]3CCOCC3)cc2)ccc1S(=O)(=O)N1CCCCC1 (nonaromatic ring conformer: 87.5983473542094 kcal/mol)

>  <smiles>  (45) 
Nc1cc(S(=O)(=O)NCc2ccc(C(=O)N3CCOCC3)cc2)ccc1S(=O)(=O)N1CCCCC1

>  <score_type>  (45) 
oracle

>  <origin>  (45) 
adgpu

>  <m_score__min__energy>  (45) 
-12.49

>  <m_primary>  (45) 
energy

$$$$
45:0
     RDKit          3D

 56 59  0  0  0  0  0  0  0  0999 V2000
   -9.3860   21.3300  -30.9590 C   0  0  0  0  0  0  0  0  0  0  0  0
   -8.8760   20.8980  -32.2150 O   0  0  0  0  0  0  0  0  0  0  0  0
   -7.5790   20.3990  -32.4210 C   0  0  0  0  0  0  0  0  0  0  0  0
   -7.3390   19.0330  -32.6680 C   0  0  0  0  0  0  0  0  0  0  0  0
   -6.0370   18.5670  -32.8670 C   0  0  0  0  0  0  0  0  0  0  0  0
   -4.9520   19.4490  -32.7950 C   0  0  0  0  0  0  0  0  0  0  0  0
   -3.5550   18.9610  -33.0720 C   0  0  0  0  0  0  0  0  0  0  0  0
   -2.5190   20.2760  -33.8140 S   0  0  0  0  0  0  0  0  0  0  0  0
   -1.7570   20.7720  -32.2690 C   0  0  0  0  0  0  0  0  0  0  0  0
   -2.3180   21.6520  -31.4170 N   0  0  0  0  0  0  0  0  0  0  0  0
   -1.3800   21.8210  -30.4590 C   0  0  0  0  0  0  0  0  0  0  0  0
   -1.5320   22.7570  -29.3180 C   0  0  0  0  0  0  0  0  0  0  0  0
   -0.9120   24.0180  -29.3590 C   0  0  0  0  0  0  0  0  0  0  0  0
   -1.0330   24.9070  -28.2870 C   0  0  0  0  0  0  0  0  0  0  0  0
   -1.7660   24.5470  -27.1480 C   0  0  0  0  0  0  0  0  0  0  0  0
   -1.9270   25.5170  -26.0160 C   0  0  0  0  0  0  0  0  0  0  0  0
   -2.4020   23.2980  -27.1070 C   0  0  0  0  0  0  0  0  0  0  0  0
   -2.2820   22.4080  -28.1780 C   0  0  0  0  0  0  0  0  0  0  0  0
   -0.2770   21.0390  -30.7540 C   0  0  0  0  0  0  0  0  0  0  0  0
   -0.5260   20.3810  -31.8960 N   0  0  0  0  0  0  0  0  0  0  0  0
   -5.1870   20.8070  -32.5360 C   0  0  0  0  0  0  0  0  0  0  0  0
   -6.4910   21.2910  -32.3770 C   0  0  0  0  0  0  0  0  0  0  0  0
   -6.7510   23.0190  -32.1170 S   0  0  0  0  0  0  0  0  0  0  0  0
   -5.7590   23.8080  -32.9290 O   0  0  0  0  0  0  0  0  0  0  0  0
   -8.1310   23.3730  -32.5980 O   0  0  0  0  0  0  0  0  0  0  0  0
   -6.6100   23.4170  -30.4170 N   0  0  0  0  0  0  0  0  0  0  0  0
   -5.2970   23.0310  -29.8690 C   0  0  0  0  0  0  0  0  0  0  0  0
   -4.1630   23.9680  -30.3490 C   0  0  0  0  0  0  0  0  0  0  0  0
   -4.6260   25.2130  -30.8460 O   0  0  0  0  0  0  0  0  0  0  0  0
   -5.6590   25.7130  -30.0280 C   0  0  0  0  0  0  0  0  0  0  0  0
   -6.9210   24.8410  -30.1620 C   0  0  0  0  0  0  0  0  0  0  0  0
   -8.8188   20.8496  -30.1481 H   0  0  0  0  0  0  0  0  0  0  0  0
   -9.2862   22.4225  -30.8789 H   0  0  0  0  0  0  0  0  0  0  0  0
  -10.4472   21.0519  -30.8789 H   0  0  0  0  0  0  0  0  0  0  0  0
   -8.1828   18.3282  -32.7044 H   0  0  0  0  0  0  0  0  0  0  0  0
   -5.8635   17.5021  -33.0813 H   0  0  0  0  0  0  0  0  0  0  0  0
   -3.0962   18.6353  -32.1268 H   0  0  0  0  0  0  0  0  0  0  0  0
   -3.6164   18.1263  -33.7858 H   0  0  0  0  0  0  0  0  0  0  0  0
   -0.3258   24.3081  -30.2434 H   0  0  0  0  0  0  0  0  0  0  0  0
   -0.5504   25.8942  -28.3377 H   0  0  0  0  0  0  0  0  0  0  0  0
   -1.8382   24.9818  -25.0591 H   0  0  0  0  0  0  0  0  0  0  0  0
   -1.1444   26.2875  -26.0792 H   0  0  0  0  0  0  0  0  0  0  0  0
   -2.9165   25.9933  -26.0792 H   0  0  0  0  0  0  0  0  0  0  0  0
   -2.9989   23.0170  -26.2268 H   0  0  0  0  0  0  0  0  0  0  0  0
   -2.7773   21.4270  -28.1302 H   0  0  0  0  0  0  0  0  0  0  0  0
    0.6436   20.9692  -30.1560 H   0  0  0  0  0  0  0  0  0  0  0  0
    0.1160   19.7360  -32.4060 H   0  0  0  0  0  0  0  0  0  0  0  0
   -4.3366   21.5002  -32.4568 H   0  0  0  0  0  0  0  0  0  0  0  0
   -5.3467   23.0693  -28.7708 H   0  0  0  0  0  0  0  0  0  0  0  0
   -5.0685   22.0156  -30.2251 H   0  0  0  0  0  0  0  0  0  0  0  0
   -3.4894   24.1611  -29.5011 H   0  0  0  0  0  0  0  0  0  0  0  0
   -3.6543   23.4583  -31.1805 H   0  0  0  0  0  0  0  0  0  0  0  0
   -5.3253   25.7087  -28.9798 H   0  0  0  0  0  0  0  0  0  0  0  0
   -5.8993   26.7387  -30.3445 H   0  0  0  0  0  0  0  0  0  0  0  0
   -7.4985   24.9129  -29.2286 H   0  0  0  0  0  0  0  0  0  0  0  0
   -7.4916   25.2149  -31.0249 H   0  0  0  0  0  0  0  0  0  0  0  0
  1  2  1  0
  2  3  1  0
  3  4  2  0
  4  5  1  0
  5  6  2  0
  6  7  1  0
  7  8  1  0
  8  9  1  0
  9 10  2  0
 10 11  1  0
 11 12  1  0
 12 13  2  0
 13 14  1  0
 14 15  2  0
 15 16  1  0
 15 17  1  0
 17 18  2  0
 11 19  2  0
 19 20  1  0
  6 21  1  0
 21 22  2  0
 22 23  1  0
 23 24  2  0
 23 25  2  0
 23 26  1  0
 26 27  1  0
 27 28  1  0
 28 29  1  0
 29 30  1  0
 30 31  1  0
 22  3  1  0
 31 26  1  0
 20  9  1  0
 18 12  1  0
  1 32  1  0
  1 33  1  0
  1 34  1  0
  4 35  1  0
  5 36  1  0
  7 37  1  0
  7 38  1  0
 13 39  1  0
 14 40  1  0
 16 41  1  0
 16 42  1  0
 16 43  1  0
 17 44  1  0
 18 45  1  0
 19 46  1  0
 20 47  1  0
 21 48  1  0
 27 49  1  0
 27 50  1  0
 28 51  1  0
 28 52  1  0
 30 53  1  0
 30 54  1  0
 31 55  1  0
 31 56  1  0
M  END
>  <UniqueID>  (46) 
43

>  <SMILES>  (46) 
COc1ccc(CSc2nc(-c3ccc(C)cc3)c[nH]2)cc1S(=O)(=O)N1CCOCC1

>  <Energy>  (46) 
92.441908452902

>  <Genealogy>  (46) 
COc1ccc(CSc2nc(-c3ccc(C)cc3)c[nH]2)cc1S(=O)(=O)N1CCOCC1 (3D coordinates assigned)
COc1ccc(CSc2nc(-c3ccc(C)cc3)c[nH]2)cc1S(=O)(=O)N1CCOCC1 (nonaromatic ring conformer: 92.441908452902 kcal/mol)

>  <smiles>  (46) 
COc1ccc(CSc2nc(-c3ccc(C)cc3)c[nH]2)cc1S(=O)(=O)N1CCOCC1

>  <score_type>  (46) 
oracle

>  <origin>  (46) 
adgpu

>  <m_score__min__energy>  (46) 
-9.9100000000000001

>  <m_primary>  (46) 
energy

$$$$
46:0
     RDKit          3D

 60 63  0  0  0  0  0  0  0  0999 V2000
   -5.5870   26.0000  -30.1830 O   0  0  0  0  0  0  0  0  0  0  0  0
   -4.9310   24.9670  -30.4810 C   0  0  0  0  0  0  0  0  0  0  0  0
   -3.4990   25.0130  -30.4220 N   0  0  0  0  0  0  0  0  0  0  0  0
   -2.7060   24.6240  -29.2900 C   0  0  0  0  0  0  0  0  0  0  0  0
   -3.2790   23.9750  -28.1810 C   0  0  0  0  0  0  0  0  0  0  0  0
   -2.4870   23.6230  -27.0860 C   0  0  0  0  0  0  0  0  0  0  0  0
   -1.1160   23.9030  -27.0860 C   0  0  0  0  0  0  0  0  0  0  0  0
   -0.1340   23.4780  -25.6830 S   0  0  0  0  0  0  0  0  0  0  0  0
    1.2300   23.0240  -26.1300 O   0  0  0  0  0  0  0  0  0  0  0  0
   -0.8070   22.3480  -24.9530 O   0  0  0  0  0  0  0  0  0  0  0  0
    0.0300   24.8600  -24.6230 N   0  0  0  0  0  0  0  0  0  0  0  0
    1.2130   25.6590  -25.0310 C   0  0  0  0  0  0  0  0  0  0  0  0
    1.1540   27.0800  -24.4590 C   0  0  0  0  0  0  0  0  0  0  0  0
   -0.0750   27.8410  -24.9890 C   0  0  0  0  0  0  0  0  0  0  0  0
   -1.2120   26.9030  -25.4230 C   0  0  0  0  0  0  0  0  0  0  0  0
   -1.2410   25.6350  -24.5580 C   0  0  0  0  0  0  0  0  0  0  0  0
   -0.5360   24.5180  -28.2070 C   0  0  0  0  0  0  0  0  0  0  0  0
   -1.3290   24.8670  -29.3050 C   0  0  0  0  0  0  0  0  0  0  0  0
   -5.6510   23.7290  -30.8530 C   0  0  0  0  0  0  0  0  0  0  0  0
   -5.0250   22.4770  -30.7340 C   0  0  0  0  0  0  0  0  0  0  0  0
   -5.6740   21.3180  -31.1630 C   0  0  0  0  0  0  0  0  0  0  0  0
   -6.9570   21.3940  -31.7200 C   0  0  0  0  0  0  0  0  0  0  0  0
   -7.7190   19.9490  -32.3790 S   0  0  0  0  0  0  0  0  0  0  0  0
   -7.8800   18.9320  -31.2840 O   0  0  0  0  0  0  0  0  0  0  0  0
   -9.0900   20.3050  -32.8810 O   0  0  0  0  0  0  0  0  0  0  0  0
   -6.7840   19.2540  -33.6870 N   0  0  0  0  0  0  0  0  0  0  0  0
   -6.7690   17.7790  -33.6500 C   0  0  0  0  0  0  0  0  0  0  0  0
   -5.6770   17.1980  -32.7190 C   0  0  0  0  0  0  0  0  0  0  0  0
   -4.8090   18.1830  -32.1980 O   0  0  0  0  0  0  0  0  0  0  0  0
   -4.3200   18.9800  -33.2510 C   0  0  0  0  0  0  0  0  0  0  0  0
   -5.4420   19.8640  -33.8180 C   0  0  0  0  0  0  0  0  0  0  0  0
   -7.6050   22.6340  -31.7970 C   0  0  0  0  0  0  0  0  0  0  0  0
   -6.9590   23.7940  -31.3600 C   0  0  0  0  0  0  0  0  0  0  0  0
   -4.3545   23.7441  -28.1764 H   0  0  0  0  0  0  0  0  0  0  0  0
   -2.9433   23.1230  -26.2189 H   0  0  0  0  0  0  0  0  0  0  0  0
    0.2220   24.4810  -23.6670 H   0  0  0  0  0  0  0  0  0  0  0  0
    2.1235   25.1631  -24.6636 H   0  0  0  0  0  0  0  0  0  0  0  0
    1.2214   25.7283  -26.1288 H   0  0  0  0  0  0  0  0  0  0  0  0
    1.0958   27.0234  -23.3620 H   0  0  0  0  0  0  0  0  0  0  0  0
    2.0602   27.6198  -24.7711 H   0  0  0  0  0  0  0  0  0  0  0  0
   -0.4489   28.5027  -24.1938 H   0  0  0  0  0  0  0  0  0  0  0  0
    0.2432   28.4094  -25.8754 H   0  0  0  0  0  0  0  0  0  0  0  0
   -2.1720   27.4302  -25.3204 H   0  0  0  0  0  0  0  0  0  0  0  0
   -1.0431   26.6090  -26.4694 H   0  0  0  0  0  0  0  0  0  0  0  0
   -1.4210   25.9270  -23.5129 H   0  0  0  0  0  0  0  0  0  0  0  0
   -2.0421   24.9887  -24.9461 H   0  0  0  0  0  0  0  0  0  0  0  0
    0.5441   24.7257  -28.2218 H   0  0  0  0  0  0  0  0  0  0  0  0
   -0.8664   25.3357  -30.1861 H   0  0  0  0  0  0  0  0  0  0  0  0
   -4.0166   22.4095  -30.2998 H   0  0  0  0  0  0  0  0  0  0  0  0
   -5.1764   20.3421  -31.0634 H   0  0  0  0  0  0  0  0  0  0  0  0
   -7.7503   17.4291  -33.2970 H   0  0  0  0  0  0  0  0  0  0  0  0
   -6.5453   17.4310  -34.6693 H   0  0  0  0  0  0  0  0  0  0  0  0
   -6.1696   16.6863  -31.8790 H   0  0  0  0  0  0  0  0  0  0  0  0
   -5.0663   16.5092  -33.3212 H   0  0  0  0  0  0  0  0  0  0  0  0
   -3.5089   19.6206  -32.8745 H   0  0  0  0  0  0  0  0  0  0  0  0
   -3.9433   18.3245  -34.0500 H   0  0  0  0  0  0  0  0  0  0  0  0
   -5.4390   20.8226  -33.2784 H   0  0  0  0  0  0  0  0  0  0  0  0
   -5.2449   19.9954  -34.8922 H   0  0  0  0  0  0  0  0  0  0  0  0
   -8.6256   22.6948  -32.2028 H   0  0  0  0  0  0  0  0  0  0  0  0
   -7.4777   24.7625  -31.4135 H   0  0  0  0  0  0  0  0  0  0  0  0
  1  2  2  0
  2  3  1  0
  3  4  1  0
  4  5  2  0
  5  6  1  0
  6  7  2  0
  7  8  1  0
  8  9  2  0
  8 10  2  0
  8 11  1  0
 11 12  1  0
 12 13  1  0
 13 14  1  0
 14 15  1  0
 15 16  1  0
  7 17  1  0
 17 18  2  0
  2 19  1  0
 19 20  2  0
 20 21  1  0
 21 22  2  0
 22 23  1  0
 23 24  2  0
 23 25  2  0
 23 26  1  0
 26 27  1  0
 27 28  1  0
 28 29  1  0
 29 30  1  0
 30 31  1  0
 22 32  1  0
 32 33  2  0
 18  4  1  0
 33 19  1  0
 16 11  1  0
 31 26  1  0
  5 34  1  0
  6 35  1  0
 11 36  1  0
 12 37  1  0
 12 38  1  0
 13 39  1  0
 13 40  1  0
 14 41  1  0
 14 42  1  0
 15 43  1  0
 15 44  1  0
 16 45  1  0
 16 46  1  0
 17 47  1  0
 18 48  1  0
 20 49  1  0
 21 50  1  0
 27 51  1  0
 27 52  1  0
 28 53  1  0
 28 54  1  0
 30 55  1  0
 30 56  1  0
 31 57  1  0
 31 58  1  0
 32 59  1  0
 33 60  1  0
M  CHG  2   3  -1  11   1
M  END
>  <UniqueID>  (47) 
44

>  <SMILES>  (47) 
O=C([N-]c1ccc(S(=O)(=O)[NH+]2CCCCC2)cc1)c1ccc(S(=O)(=O)N2CCOCC2)cc1

>  <Energy>  (47) 
81.1491919355123

>  <Genealogy>  (47) 
O=C([N-]c1ccc(S(=O)(=O)[NH+]2CCCCC2)cc1)c1ccc(S(=O)(=O)N2CCOCC2)cc1 (protonated)
O=C([N-]c1ccc(S(=O)(=O)[NH+]2CCCCC2)cc1)c1ccc(S(=O)(=O)N2CCOCC2)cc1 (3D coordinates assigned)
O=C([N-]c1ccc(S(=O)(=O)[NH+]2CCCCC2)cc1)c1ccc(S(=O)(=O)N2CCOCC2)cc1 (nonaromatic ring conformer: 81.1491919355123 kcal/mol)

>  <smiles>  (47) 
O=C(Nc1ccc(S(=O)(=O)N2CCCCC2)cc1)c1ccc(S(=O)(=O)N2CCOCC2)cc1

>  <score_type>  (47) 
oracle

>  <origin>  (47) 
adgpu

>  <m_score__min__energy>  (47) 
-12.68

>  <m_primary>  (47) 
energy

$$$$
47:0
     RDKit          3D

 42 44  0  0  0  0  0  0  0  0999 V2000
   -5.4150   18.5430  -34.2750 C   0  0  0  0  0  0  0  0  0  0  0  0
   -6.0580   19.4740  -33.2910 C   0  0  0  0  0  0  0  0  0  0  0  0
   -7.4400   19.4210  -33.0710 C   0  0  0  0  0  0  0  0  0  0  0  0
   -8.0450   20.3050  -32.1770 C   0  0  0  0  0  0  0  0  0  0  0  0
   -7.2830   21.2650  -31.4910 C   0  0  0  0  0  0  0  0  0  0  0  0
   -7.9790   22.1640  -30.5010 C   0  0  0  0  0  0  0  0  0  0  0  0
   -5.8930   21.3630  -31.7560 C   0  0  0  0  0  0  0  0  0  0  0  0
   -5.0390   22.3880  -31.1190 C   0  0  0  0  0  0  0  0  0  0  0  0
   -5.0940   23.7510  -31.3510 C   0  0  0  0  0  0  0  0  0  0  0  0
   -4.1600   24.3150  -30.5040 C   0  0  0  0  0  0  0  0  0  0  0  0
   -3.8680   25.6730  -30.4460 O   0  0  0  0  0  0  0  0  0  0  0  0
   -3.5470   23.3740  -29.7550 N   0  0  0  0  0  0  0  0  0  0  0  0
   -2.5330   23.5790  -28.7550 C   0  0  0  0  0  0  0  0  0  0  0  0
   -1.5670   24.5880  -28.9150 C   0  0  0  0  0  0  0  0  0  0  0  0
   -0.5820   24.7850  -27.9440 C   0  0  0  0  0  0  0  0  0  0  0  0
   -0.5510   23.9820  -26.7970 C   0  0  0  0  0  0  0  0  0  0  0  0
    0.7010   24.2200  -25.5820 S   0  0  0  0  0  0  0  0  0  0  0  0
    0.2750   25.6130  -24.5610 C   0  0  0  0  0  0  0  0  0  0  0  0
    0.8230   22.9890  -24.7290 O   0  0  0  0  0  0  0  0  0  0  0  0
    2.0200   24.4750  -26.2540 O   0  0  0  0  0  0  0  0  0  0  0  0
   -1.5060   22.9700  -26.6360 C   0  0  0  0  0  0  0  0  0  0  0  0
   -2.4930   22.7710  -27.6070 C   0  0  0  0  0  0  0  0  0  0  0  0
   -4.0960   22.1960  -30.1230 C   0  0  0  0  0  0  0  0  0  0  0  0
   -3.7950   20.9760  -29.5280 O   0  0  0  0  0  0  0  0  0  0  0  0
   -5.2940   20.4530  -32.6420 C   0  0  0  0  0  0  0  0  0  0  0  0
   -4.8710   17.7554  -33.7331 H   0  0  0  0  0  0  0  0  0  0  0  0
   -6.1902   18.0849  -34.9069 H   0  0  0  0  0  0  0  0  0  0  0  0
   -4.7121   19.1057  -34.9069 H   0  0  0  0  0  0  0  0  0  0  0  0
   -8.0514   18.6790  -33.6055 H   0  0  0  0  0  0  0  0  0  0  0  0
   -9.1305   20.2495  -32.0076 H   0  0  0  0  0  0  0  0  0  0  0  0
   -7.7314   21.8441  -29.4781 H   0  0  0  0  0  0  0  0  0  0  0  0
   -7.6466   23.2017  -30.6513 H   0  0  0  0  0  0  0  0  0  0  0  0
   -9.0669   22.1021  -30.6513 H   0  0  0  0  0  0  0  0  0  0  0  0
   -5.7469   24.2769  -32.0631 H   0  0  0  0  0  0  0  0  0  0  0  0
   -1.5869   25.2265  -29.8105 H   0  0  0  0  0  0  0  0  0  0  0  0
    0.1722   25.5740  -28.0809 H   0  0  0  0  0  0  0  0  0  0  0  0
    0.3613   25.3309  -23.5013 H   0  0  0  0  0  0  0  0  0  0  0  0
    0.9590   26.4474  -24.7752 H   0  0  0  0  0  0  0  0  0  0  0  0
   -0.7587   25.9221  -24.7752 H   0  0  0  0  0  0  0  0  0  0  0  0
   -1.4797   22.3292  -25.7423 H   0  0  0  0  0  0  0  0  0  0  0  0
   -3.2421   21.9771  -27.4706 H   0  0  0  0  0  0  0  0  0  0  0  0
   -4.2115   20.5094  -32.8289 H   0  0  0  0  0  0  0  0  0  0  0  0
  1  2  1  0
  2  3  2  0
  3  4  1  0
  4  5  2  0
  5  6  1  0
  5  7  1  0
  7  8  1  0
  8  9  1  0
  9 10  2  0
 10 11  1  0
 10 12  1  0
 12 13  1  0
 13 14  2  0
 14 15  1  0
 15 16  2  0
 16 17  1  0
 17 18  1  0
 17 19  2  0
 17 20  2  0
 16 21  1  0
 21 22  2  0
 12 23  1  0
 23 24  1  0
  7 25  2  0
 25  2  1  0
 23  8  2  0
 22 13  1  0
  1 26  1  0
  1 27  1  0
  1 28  1  0
  3 29  1  0
  4 30  1  0
  6 31  1  0
  6 32  1  0
  6 33  1  0
  9 34  1  0
 14 35  1  0
 15 36  1  0
 18 37  1  0
 18 38  1  0
 18 39  1  0
 21 40  1  0
 22 41  1  0
 25 42  1  0
M  CHG  2  11  -1  24  -1
M  END
>  <UniqueID>  (48) 
45

>  <SMILES>  (48) 
Cc1ccc(C)c(-c2cc([O-])n(-c3ccc(S(C)(=O)=O)cc3)c2[O-])c1

>  <Energy>  (48) 
81.41151509558713

>  <Genealogy>  (48) 
Cc1ccc(C)c(-c2cc([O-])n(-c3ccc(S(C)(=O)=O)cc3)c2[O-])c1 (protonated)
Cc1ccc(C)c(-c2cc([O-])n(-c3ccc(S(C)(=O)=O)cc3)c2[O-])c1 (3D coordinates assigned)
Cc1ccc(C)c(-c2cc([O-])n(-c3ccc(S(C)(=O)=O)cc3)c2[O-])c1 (optimized conformer: 81.41151509558713 kcal/mol)

>  <smiles>  (48) 
Cc1ccc(C)c(-c2cc(O)n(-c3ccc(S(C)(=O)=O)cc3)c2O)c1

>  <score_type>  (48) 
oracle

>  <origin>  (48) 
adgpu

>  <m_score__min__energy>  (48) 
-11.27

>  <m_primary>  (48) 
energy

$$$$
48:0
     RDKit          3D

 57 61  0  0  0  0  0  0  0  0999 V2000
   -7.5160   21.0970  -32.7630 O   0  0  0  0  0  0  0  0  0  0  0  0
   -6.2750   21.0820  -32.5350 C   0  0  0  0  0  0  0  0  0  0  0  0
   -5.6330   22.2720  -31.9350 C   0  0  0  0  0  0  0  0  0  0  0  0
   -6.3150   23.4950  -31.8790 C   0  0  0  0  0  0  0  0  0  0  0  0
   -5.7030   24.6180  -31.3220 C   0  0  0  0  0  0  0  0  0  0  0  0
   -4.3970   24.5430  -30.8280 C   0  0  0  0  0  0  0  0  0  0  0  0
   -3.8450   25.6740  -30.2410 O   0  0  0  0  0  0  0  0  0  0  0  0
   -3.6820   23.3280  -30.9130 C   0  0  0  0  0  0  0  0  0  0  0  0
   -2.3310   23.1750  -30.4480 N   0  0  0  0  0  0  0  0  0  0  0  0
   -1.6010   21.7140  -29.8580 S   0  0  0  0  0  0  0  0  0  0  0  0
   -0.4600   22.0430  -28.9330 O   0  0  0  0  0  0  0  0  0  0  0  0
   -2.6270   20.8950  -29.1230 O   0  0  0  0  0  0  0  0  0  0  0  0
   -0.9690   20.8070  -31.2260 C   0  0  0  0  0  0  0  0  0  0  0  0
   -0.4370   19.5100  -31.0450 C   0  0  0  0  0  0  0  0  0  0  0  0
    0.0670   18.7900  -32.1380 C   0  0  0  0  0  0  0  0  0  0  0  0
    0.0270   19.3870  -33.3940 C   0  0  0  0  0  0  0  0  0  0  0  0
    0.5560   18.7680  -34.8600 S   0  0  0  0  0  0  0  0  0  0  0  0
    0.1220   20.1270  -35.7670 C   0  0  0  0  0  0  0  0  0  0  0  0
   -0.4430   21.0800  -34.9220 C   0  0  0  0  0  0  0  0  0  0  0  0
   -0.4930   20.6560  -33.5900 C   0  0  0  0  0  0  0  0  0  0  0  0
   -1.0000   21.3840  -32.5100 C   0  0  0  0  0  0  0  0  0  0  0  0
   -4.3150   22.2010  -31.4540 C   0  0  0  0  0  0  0  0  0  0  0  0
   -5.5110   19.9070  -32.8630 N   0  0  0  0  0  0  0  0  0  0  0  0
   -6.1160   18.5810  -32.6950 C   0  0  0  0  0  0  0  0  0  0  0  0
   -5.0320   17.5570  -32.3350 C   0  0  0  0  0  0  0  0  0  0  0  0
   -3.8180   17.5460  -33.3320 C   0  0  0  0  0  0  0  0  0  0  0  0
   -2.6320   17.6680  -32.5780 O   0  0  0  0  0  0  0  0  0  0  0  0
   -3.7800   16.2630  -34.1750 C   0  0  0  0  0  0  0  0  0  0  0  0
   -4.6080   15.1640  -33.8600 C   0  0  0  0  0  0  0  0  0  0  0  0
   -4.6120   14.0180  -34.6590 C   0  0  0  0  0  0  0  0  0  0  0  0
   -3.8100   13.9560  -35.8010 C   0  0  0  0  0  0  0  0  0  0  0  0
   -3.8200   12.5180  -36.8060 Cl  0  0  0  0  0  0  0  0  0  0  0  0
   -3.0120   15.0480  -36.1510 C   0  0  0  0  0  0  0  0  0  0  0  0
   -3.0060   16.1970  -35.3550 C   0  0  0  0  0  0  0  0  0  0  0  0
   -3.8650   18.7480  -34.3080 C   0  0  0  0  0  0  0  0  0  0  0  0
   -4.2410   20.0500  -33.5910 C   0  0  0  0  0  0  0  0  0  0  0  0
   -7.3380   23.5698  -32.2763 H   0  0  0  0  0  0  0  0  0  0  0  0
   -6.2520   25.5698  -31.2710 H   0  0  0  0  0  0  0  0  0  0  0  0
   -0.4182   19.0624  -30.0403 H   0  0  0  0  0  0  0  0  0  0  0  0
    0.4828   17.7802  -32.0057 H   0  0  0  0  0  0  0  0  0  0  0  0
    0.2632   20.2408  -36.8519 H   0  0  0  0  0  0  0  0  0  0  0  0
   -0.8096   22.0588  -35.2649 H   0  0  0  0  0  0  0  0  0  0  0  0
   -1.4163   22.3910  -32.6606 H   0  0  0  0  0  0  0  0  0  0  0  0
   -3.7715   21.2459  -31.5028 H   0  0  0  0  0  0  0  0  0  0  0  0
   -6.8635   18.6201  -31.8889 H   0  0  0  0  0  0  0  0  0  0  0  0
   -6.6007   18.2811  -33.6358 H   0  0  0  0  0  0  0  0  0  0  0  0
   -4.6533   17.7912  -31.3292 H   0  0  0  0  0  0  0  0  0  0  0  0
   -5.4993   16.5625  -32.3863 H   0  0  0  0  0  0  0  0  0  0  0  0
   -2.6680   18.5350  -32.0930 H   0  0  0  0  0  0  0  0  0  0  0  0
   -5.2584   15.2105  -32.9741 H   0  0  0  0  0  0  0  0  0  0  0  0
   -5.2482   13.1625  -34.3882 H   0  0  0  0  0  0  0  0  0  0  0  0
   -2.3870   15.0035  -37.0551 H   0  0  0  0  0  0  0  0  0  0  0  0
   -2.3914   17.0600  -35.6509 H   0  0  0  0  0  0  0  0  0  0  0  0
   -2.8745   18.8697  -34.7707 H   0  0  0  0  0  0  0  0  0  0  0  0
   -4.6338   18.5418  -35.0672 H   0  0  0  0  0  0  0  0  0  0  0  0
   -3.4453   20.3096  -32.8773 H   0  0  0  0  0  0  0  0  0  0  0  0
   -4.3583   20.8423  -34.3450 H   0  0  0  0  0  0  0  0  0  0  0  0
  1  2  2  0
  2  3  1  0
  3  4  2  0
  4  5  1  0
  5  6  2  0
  6  7  1  0
  6  8  1  0
  8  9  1  0
  9 10  1  0
 10 11  2  0
 10 12  2  0
 10 13  1  0
 13 14  2  0
 14 15  1  0
 15 16  2  0
 16 17  1  0
 17 18  1  0
 18 19  2  0
 19 20  1  0
 20 21  2  0
  8 22  2  0
  2 23  1  0
 23 24  1  0
 24 25  1  0
 25 26  1  0
 26 27  1  0
 26 28  1  0
 28 29  2  0
 29 30  1  0
 30 31  2  0
 31 32  1  0
 31 33  1  0
 33 34  2  0
 26 35  1  0
 35 36  1  0
 22  3  1  0
 36 23  1  0
 21 13  1  0
 34 28  1  0
 20 16  1  0
  4 37  1  0
  5 38  1  0
 14 39  1  0
 15 40  1  0
 18 41  1  0
 19 42  1  0
 21 43  1  0
 22 44  1  0
 24 45  1  0
 24 46  1  0
 25 47  1  0
 25 48  1  0
 27 49  1  0
 29 50  1  0
 30 51  1  0
 33 52  1  0
 34 53  1  0
 35 54  1  0
 35 55  1  0
 36 56  1  0
 36 57  1  0
M  CHG  2   7  -1   9  -1
M  END
>  <UniqueID>  (49) 
46

>  <SMILES>  (49) 
O=C(c1ccc([O-])c([N-]S(=O)(=O)c2ccc3sccc3c2)c1)N1CCC(O)(c2ccc(Cl)cc2)CC1

>  <Energy>  (49) 
114.07647540936884

>  <Genealogy>  (49) 
O=C(c1ccc([O-])c([N-]S(=O)(=O)c2ccc3sccc3c2)c1)N1CCC(O)(c2ccc(Cl)cc2)CC1 (protonated)
O=C(c1ccc([O-])c([N-]S(=O)(=O)c2ccc3sccc3c2)c1)N1CCC(O)(c2ccc(Cl)cc2)CC1 (3D coordinates assigned)
O=C(c1ccc([O-])c([N-]S(=O)(=O)c2ccc3sccc3c2)c1)N1CCC(O)(c2ccc(Cl)cc2)CC1 (nonaromatic ring conformer: 114.07647540936884 kcal/mol)

>  <smiles>  (49) 
O=C(c1ccc(O)c(NS(=O)(=O)c2ccc3sccc3c2)c1)N1CCC(O)(c2ccc(Cl)cc2)CC1

>  <score_type>  (49) 
oracle

>  <origin>  (49) 
adgpu

>  <m_score__min__energy>  (49) 
-15.039999999999999

>  <m_primary>  (49) 
energy

$$$$
49:0
     RDKit          3D

 58 60  0  0  0  0  0  0  0  0999 V2000
   -2.7860   14.0370  -36.6970 C   0  0  0  0  0  0  0  0  0  0  0  0
   -1.7750   15.1550  -36.4640 C   0  0  0  0  0  0  0  0  0  0  0  0
   -1.7000   15.5080  -35.0400 N   0  0  0  0  0  0  0  0  0  0  0  0
   -0.5160   16.1830  -34.5000 C   0  0  0  0  0  0  0  0  0  0  0  0
   -0.8800   17.5610  -34.0180 C   0  0  0  0  0  0  0  0  0  0  0  0
   -1.6400   17.7270  -32.8510 C   0  0  0  0  0  0  0  0  0  0  0  0
   -2.0130   19.0060  -32.4280 C   0  0  0  0  0  0  0  0  0  0  0  0
   -1.6200   20.1410  -33.1590 C   0  0  0  0  0  0  0  0  0  0  0  0
   -2.0140   21.4630  -32.7480 N   0  0  0  0  0  0  0  0  0  0  0  0
   -3.0870   21.7340  -31.8360 C   0  0  0  0  0  0  0  0  0  0  0  0
   -3.6310   20.7960  -31.1920 O   0  0  0  0  0  0  0  0  0  0  0  0
   -3.5430   23.0840  -31.6770 N   0  0  0  0  0  0  0  0  0  0  0  0
   -4.8150   23.5000  -31.1550 C   0  0  0  0  0  0  0  0  0  0  0  0
   -5.9170   22.6240  -31.0990 C   0  0  0  0  0  0  0  0  0  0  0  0
   -7.1340   23.0570  -30.5630 C   0  0  0  0  0  0  0  0  0  0  0  0
   -7.2590   24.3560  -30.0650 C   0  0  0  0  0  0  0  0  0  0  0  0
   -6.1640   25.2230  -30.0950 C   0  0  0  0  0  0  0  0  0  0  0  0
   -4.9440   24.7970  -30.6300 C   0  0  0  0  0  0  0  0  0  0  0  0
   -3.8600   25.6680  -30.6480 O   0  0  0  0  0  0  0  0  0  0  0  0
   -0.8860   19.9700  -34.3440 C   0  0  0  0  0  0  0  0  0  0  0  0
   -0.5150   21.0460  -35.0840 F   0  0  0  0  0  0  0  0  0  0  0  0
   -0.5150   18.6900  -34.7670 C   0  0  0  0  0  0  0  0  0  0  0  0
   -2.8310   15.2770  -34.1840 C   0  0  0  0  0  0  0  0  0  0  0  0
   -2.7440   14.2920  -33.1930 C   0  0  0  0  0  0  0  0  0  0  0  0
   -3.8100   14.0650  -32.3280 C   0  0  0  0  0  0  0  0  0  0  0  0
   -4.9720   14.8300  -32.4310 C   0  0  0  0  0  0  0  0  0  0  0  0
   -5.0800   15.8370  -33.4070 C   0  0  0  0  0  0  0  0  0  0  0  0
   -6.2540   16.6600  -33.5070 N   0  0  0  0  0  0  0  0  0  0  0  0
   -6.6480   18.0130  -32.4960 S   0  0  0  0  0  0  0  0  0  0  0  0
   -5.8480   19.4830  -33.1020 C   0  0  0  0  0  0  0  0  0  0  0  0
   -6.1530   17.7320  -31.1050 O   0  0  0  0  0  0  0  0  0  0  0  0
   -8.1390   18.2070  -32.4480 O   0  0  0  0  0  0  0  0  0  0  0  0
   -4.0070   16.0540  -34.3030 C   0  0  0  0  0  0  0  0  0  0  0  0
   -4.1100   17.1560  -35.3310 C   0  0  0  0  0  0  0  0  0  0  0  0
   -3.1353   13.6507  -35.7281 H   0  0  0  0  0  0  0  0  0  0  0  0
   -3.6421   14.4294  -37.2655 H   0  0  0  0  0  0  0  0  0  0  0  0
   -2.3098   13.2246  -37.2655 H   0  0  0  0  0  0  0  0  0  0  0  0
   -0.7839   14.8206  -36.8045 H   0  0  0  0  0  0  0  0  0  0  0  0
   -2.0971   16.0423  -37.0287 H   0  0  0  0  0  0  0  0  0  0  0  0
   -0.1155   15.5976  -33.6592 H   0  0  0  0  0  0  0  0  0  0  0  0
    0.2422   16.2678  -35.2924 H   0  0  0  0  0  0  0  0  0  0  0  0
   -1.9440   16.8466  -32.2658 H   0  0  0  0  0  0  0  0  0  0  0  0
   -2.6180   19.1254  -31.5171 H   0  0  0  0  0  0  0  0  0  0  0  0
   -1.4370   22.2760  -33.0640 H   0  0  0  0  0  0  0  0  0  0  0  0
   -5.8199   21.5960  -31.4782 H   0  0  0  0  0  0  0  0  0  0  0  0
   -7.9949   22.3729  -30.5335 H   0  0  0  0  0  0  0  0  0  0  0  0
   -8.2190   24.6961  -29.6495 H   0  0  0  0  0  0  0  0  0  0  0  0
   -6.2616   26.2437  -29.6967 H   0  0  0  0  0  0  0  0  0  0  0  0
    0.0666   18.5673  -35.6926 H   0  0  0  0  0  0  0  0  0  0  0  0
   -1.8263   13.6932  -33.0975 H   0  0  0  0  0  0  0  0  0  0  0  0
   -3.7363   13.2801  -31.5608 H   0  0  0  0  0  0  0  0  0  0  0  0
   -5.8104   14.6442  -31.7435 H   0  0  0  0  0  0  0  0  0  0  0  0
   -5.5144   20.0960  -32.2517 H   0  0  0  0  0  0  0  0  0  0  0  0
   -4.9787   19.2014  -33.7144 H   0  0  0  0  0  0  0  0  0  0  0  0
   -6.5565   20.0601  -33.7144 H   0  0  0  0  0  0  0  0  0  0  0  0
   -4.2007   18.1262  -34.8206 H   0  0  0  0  0  0  0  0  0  0  0  0
   -3.2079   17.1557  -35.9605 H   0  0  0  0  0  0  0  0  0  0  0  0
   -4.9964   16.9886  -35.9605 H   0  0  0  0  0  0  0  0  0  0  0  0
  1  2  1  0
  2  3  1  0
  3  4  1  0
  4  5  1  0
  5  6  2  0
  6  7  1  0
  7  8  2  0
  8  9  1  0
  9 10  1  0
 10 11  2  0
 10 12  1  0
 12 13  1  0
 13 14  2  0
 14 15  1  0
 15 16  2  0
 16 17  1  0
 17 18  2  0
 18 19  1  0
  8 20  1  0
 20 21  1  0
 20 22  2  0
  3 23  1  0
 23 24  2  0
 24 25  1  0
 25 26  2  0
 26 27  1  0
 27 28  1  0
 28 29  1  0
 29 30  1  0
 29 31  2  0
 29 32  2  0
 27 33  2  0
 33 34  1  0
 22  5  1  0
 33 23  1  0
 18 13  1  0
  1 35  1  0
  1 36  1  0
  1 37  1  0
  2 38  1  0
  2 39  1  0
  4 40  1  0
  4 41  1  0
  6 42  1  0
  7 43  1  0
  9 44  1  0
 14 45  1  0
 15 46  1  0
 16 47  1  0
 17 48  1  0
 22 49  1  0
 24 50  1  0
 25 51  1  0
 26 52  1  0
 30 53  1  0
 30 54  1  0
 30 55  1  0
 34 56  1  0
 34 57  1  0
 34 58  1  0
M  CHG  3  12  -1  19  -1  28  -1
M  END
>  <UniqueID>  (50) 
47

>  <SMILES>  (50) 
CCN(Cc1ccc(NC(=O)[N-]c2ccccc2[O-])c(F)c1)c1cccc([N-]S(C)(=O)=O)c1C

>  <Energy>  (50) 
67.82333549605413

>  <Genealogy>  (50) 
CCN(Cc1ccc(NC(=O)[N-]c2ccccc2[O-])c(F)c1)c1cccc([N-]S(C)(=O)=O)c1C (protonated)
CCN(Cc1ccc(NC(=O)[N-]c2ccccc2[O-])c(F)c1)c1cccc([N-]S(C)(=O)=O)c1C (3D coordinates assigned)
CCN(Cc1ccc(NC(=O)[N-]c2ccccc2[O-])c(F)c1)c1cccc([N-]S(C)(=O)=O)c1C (optimized conformer: 67.82333549605413 kcal/mol)

>  <smiles>  (50) 
CCN(Cc1ccc(NC(=O)Nc2ccccc2O)c(F)c1)c1cccc(NS(C)(=O)=O)c1C

>  <score_type>  (50) 
oracle

>  <origin>  (50) 
adgpu

>  <m_score__min__energy>  (50) 
-13.380000000000001

>  <m_primary>  (50) 
energy

$$$$
