0:0
     RDKit          3D

 46 49  0  0  1  0  0  0  0  0999 V2000
   -8.7440   20.3190  -31.5910 C   0  0  0  0  0  0  0  0  0  0  0  0
   -8.9710   21.5440  -30.9760 C   0  0  0  0  0  0  0  0  0  0  0  0
   -8.0860   22.5820  -31.2370 C   0  0  0  0  0  0  0  0  0  0  0  0
   -7.0130   22.3990  -32.0830 C   0  0  0  0  0  0  0  0  0  0  0  0
   -6.0300   23.4490  -32.4100 C   0  0  0  0  0  0  0  0  0  0  0  0
   -5.7430   24.5820  -31.0210 S   0  0  0  0  0  0  0  0  0  0  0  0
   -4.1680   24.1440  -30.3030 C   0  0  0  0  0  0  0  0  0  0  0  0
   -3.5310   23.0810  -30.8240 N   0  0  0  0  0  0  0  0  0  0  0  0
   -2.3510   22.7580  -30.2810 C   0  0  0  0  0  0  0  0  0  0  0  0
   -1.7320   21.7410  -30.7720 N   0  0  0  0  0  0  0  0  0  0  0  0
   -2.2700   20.9790  -31.8480 C   0  0  0  0  0  0  0  0  0  0  0  0
   -1.7160   20.9770  -33.1120 C   0  0  0  0  0  0  0  0  0  0  0  0
   -2.3190   20.1960  -34.0980 C   0  0  0  0  0  0  0  0  0  0  0  0
   -3.4430   19.4350  -33.8410 C   0  0  0  0  0  0  0  0  0  0  0  0
   -3.9860   19.4490  -32.5660 C   0  0  0  0  0  0  0  0  0  0  0  0
   -3.4040   20.2210  -31.5600 C   0  0  0  0  0  0  0  0  0  0  0  0
   -1.8010   23.4790  -29.2330 C   0  0  0  0  0  0  0  0  0  0  0  0
   -2.4670   24.5690  -28.7110 C   0  0  0  0  0  0  0  0  0  0  0  0
   -1.9130   25.3440  -27.6120 C   0  0  0  0  0  0  0  0  0  0  0  0
   -2.4660   25.3000  -26.3510 C   0  0  0  0  0  0  0  0  0  0  0  0
   -1.9380   26.0430  -25.2880 C   0  0  0  0  0  0  0  0  0  0  0  0
   -0.8390   26.8510  -25.4610 C   0  0  0  0  0  0  0  0  0  0  0  0
   -0.2830   26.8970  -26.7190 C   0  0  0  0  0  0  0  0  0  0  0  0
   -0.8130   26.1540  -27.7780 C   0  0  0  0  0  0  0  0  0  0  0  0
   -3.6510   24.8700  -29.2740 N   0  0  0  0  0  0  0  0  0  0  0  0
   -6.8140   21.1510  -32.6850 C   0  0  0  0  0  0  0  0  0  0  0  0
   -7.6850   20.1090  -32.4360 C   0  0  0  0  0  0  0  0  0  0  0  0
   -9.4380   19.4888  -31.3931 H   0  0  0  0  0  0  0  0  0  0  0  0
   -9.8277   21.6877  -30.3012 H   0  0  0  0  0  0  0  0  0  0  0  0
   -8.2431   23.5621  -30.7629 H   0  0  0  0  0  0  0  0  0  0  0  0
   -5.0769   22.9699  -32.6782 H   0  0  0  0  0  0  0  0  0  0  0  0
   -6.4333   24.0383  -33.2467 H   0  0  0  0  0  0  0  0  0  0  0  0
   -0.8213   21.5763  -33.3363 H   0  0  0  0  0  0  0  0  0  0  0  0
   -1.8870   20.1858  -35.1096 H   0  0  0  0  0  0  0  0  0  0  0  0
   -3.8999   18.8274  -34.6360 H   0  0  0  0  0  0  0  0  0  0  0  0
   -4.8807   18.8482  -32.3459 H   0  0  0  0  0  0  0  0  0  0  0  0
   -3.8362   20.2314  -30.5485 H   0  0  0  0  0  0  0  0  0  0  0  0
   -0.8282   23.1807  -28.8150 H   0  0  0  0  0  0  0  0  0  0  0  0
   -3.3460   24.6641  -26.1744 H   0  0  0  0  0  0  0  0  0  0  0  0
   -2.4109   25.9791  -24.2969 H   0  0  0  0  0  0  0  0  0  0  0  0
   -0.4216   27.4363  -24.6284 H   0  0  0  0  0  0  0  0  0  0  0  0
    0.5976   27.5322  -26.8951 H   0  0  0  0  0  0  0  0  0  0  0  0
   -0.3390   26.2185  -28.7685 H   0  0  0  0  0  0  0  0  0  0  0  0
   -4.2380   25.6690  -28.9610 H   0  0  0  0  0  0  0  0  0  0  0  0
   -5.9589   20.9996  -33.3602 H   0  0  0  0  0  0  0  0  0  0  0  0
   -7.5318   19.1271  -32.9076 H   0  0  0  0  0  0  0  0  0  0  0  0
  1  2  2  0
  2  3  1  0
  3  4  2  0
  4  5  1  0
  5  6  1  0
  6  7  1  0
  7  8  2  0
  8  9  1  0
  9 10  2  0
 10 11  1  0
 11 12  2  0
 12 13  1  0
 13 14  2  0
 14 15  1  0
 15 16  2  0
  9 17  1  0
 17 18  2  0
 18 19  1  0
 19 20  2  0
 20 21  1  0
 21 22  2  0
 22 23  1  0
 23 24  2  0
 18 25  1  0
  4 26  1  0
 26 27  2  0
 27  1  1  0
 25  7  1  0
 16 11  1  0
 24 19  1  0
  1 28  1  0
  2 29  1  0
  3 30  1  0
  5 31  1  0
  5 32  1  0
 12 33  1  0
 13 34  1  0
 14 35  1  0
 15 36  1  0
 16 37  1  0
 17 38  1  0
 20 39  1  0
 21 40  1  0
 22 41  1  0
 23 42  1  0
 24 43  1  0
 25 44  1  0
 26 45  1  0
 27 46  1  0
M  END
>  <smiles>  (1) 
c1ccc(CSc2nc(=Nc3ccccc3)cc(-c3ccccc3)[nH]2)cc1

>  <score_type>  (1) 
oracle

>  <origin>  (1) 
adgpu

>  <m_score__min__energy>  (1) 
-9.3599999999999994

>  <m_primary>  (1) 
energy

$$$$
1:0
     RDKit          3D

 52 54  0  0  0  0  0  0  0  0999 V2000
   -0.9510   22.9810  -30.1530 O   0  0  0  0  0  0  0  0  0  0  0  0
   -1.4060   23.9080  -29.0620 S   0  0  0  0  0  0  0  0  0  0  0  0
   -0.2550   24.7660  -28.6180 O   0  0  0  0  0  0  0  0  0  0  0  0
   -2.6940   24.9220  -29.6280 N   0  0  0  0  0  0  0  0  0  0  0  0
   -3.8790   24.4590  -30.2880 C   0  0  0  0  0  0  0  0  0  0  0  0
   -3.8970   23.1540  -30.7950 C   0  0  0  0  0  0  0  0  0  0  0  0
   -5.0300   22.6620  -31.4490 C   0  0  0  0  0  0  0  0  0  0  0  0
   -6.1680   23.4690  -31.5970 C   0  0  0  0  0  0  0  0  0  0  0  0
   -7.3790   22.9460  -32.3270 C   0  0  0  0  0  0  0  0  0  0  0  0
   -8.5000   22.5500  -31.3600 C   0  0  0  0  0  0  0  0  0  0  0  0
   -9.0860   21.2580  -31.7490 N   0  0  0  0  0  0  0  0  0  0  0  0
   -8.2900   20.1300  -31.2400 C   0  0  0  0  0  0  0  0  0  0  0  0
   -8.4360   18.9040  -32.1630 C   0  0  1  0  0  0  0  0  0  0  0  0
   -9.4960   19.0660  -33.0760 O   0  0  0  0  0  0  0  0  0  0  0  0
   -7.1410   18.6060  -32.8920 C   0  0  0  0  0  0  0  0  0  0  0  0
   -6.8200   17.3020  -33.3100 C   0  0  0  0  0  0  0  0  0  0  0  0
   -5.6280   17.0580  -33.9920 C   0  0  0  0  0  0  0  0  0  0  0  0
   -4.7620   18.1190  -34.2570 C   0  0  0  0  0  0  0  0  0  0  0  0
   -5.0830   19.3760  -33.8560 N   0  0  0  0  0  0  0  0  0  0  0  0
   -6.2380   19.6420  -33.1890 C   0  0  0  0  0  0  0  0  0  0  0  0
   -6.1500   24.7800  -31.0950 C   0  0  0  0  0  0  0  0  0  0  0  0
   -5.0160   25.2720  -30.4440 C   0  0  0  0  0  0  0  0  0  0  0  0
   -1.9620   22.9750  -27.7090 N   0  0  0  0  0  0  0  0  0  0  0  0
   -1.7010   21.5710  -27.5380 C   0  0  0  0  0  0  0  0  0  0  0  0
   -0.4120   21.0250  -27.7010 C   0  0  0  0  0  0  0  0  0  0  0  0
   -0.1970   19.6550  -27.5280 C   0  0  0  0  0  0  0  0  0  0  0  0
   -1.2610   18.8140  -27.1870 C   0  0  0  0  0  0  0  0  0  0  0  0
   -2.5410   19.3450  -27.0190 C   0  0  0  0  0  0  0  0  0  0  0  0
   -2.7610   20.7150  -27.1920 C   0  0  0  0  0  0  0  0  0  0  0  0
   -3.0124   22.5108  -30.6777 H   0  0  0  0  0  0  0  0  0  0  0  0
   -5.0294   21.6375  -31.8495 H   0  0  0  0  0  0  0  0  0  0  0  0
   -7.7525   23.7289  -33.0035 H   0  0  0  0  0  0  0  0  0  0  0  0
   -7.0787   22.0487  -32.8879 H   0  0  0  0  0  0  0  0  0  0  0  0
   -8.0885   22.4690  -30.3431 H   0  0  0  0  0  0  0  0  0  0  0  0
   -9.2850   23.3199  -31.3922 H   0  0  0  0  0  0  0  0  0  0  0  0
   -9.0710   21.2060  -32.7950 H   0  0  0  0  0  0  0  0  0  0  0  0
   -7.2313   20.4253  -31.1956 H   0  0  0  0  0  0  0  0  0  0  0  0
   -8.6527   19.8639  -30.2362 H   0  0  0  0  0  0  0  0  0  0  0  0
   -8.6733   18.0419  -31.5222 H   0  0  0  0  0  0  0  0  0  0  0  0
   -9.3600   19.9200  -33.5610 H   0  0  0  0  0  0  0  0  0  0  0  0
   -7.5108   16.4725  -33.0985 H   0  0  0  0  0  0  0  0  0  0  0  0
   -5.3733   16.0387  -34.3178 H   0  0  0  0  0  0  0  0  0  0  0  0
   -3.8179   17.9372  -34.7915 H   0  0  0  0  0  0  0  0  0  0  0  0
   -6.4668   20.6727  -32.8804 H   0  0  0  0  0  0  0  0  0  0  0  0
   -7.0340   25.4236  -31.2150 H   0  0  0  0  0  0  0  0  0  0  0  0
   -5.0124   26.2997  -30.0517 H   0  0  0  0  0  0  0  0  0  0  0  0
   -2.5450   23.4740  -26.9980 H   0  0  0  0  0  0  0  0  0  0  0  0
    0.4301   21.6812  -27.9660 H   0  0  0  0  0  0  0  0  0  0  0  0
    0.8119   19.2371  -27.6604 H   0  0  0  0  0  0  0  0  0  0  0  0
   -1.0896   17.7359  -27.0514 H   0  0  0  0  0  0  0  0  0  0  0  0
   -3.3783   18.6843  -26.7500 H   0  0  0  0  0  0  0  0  0  0  0  0
   -3.7721   21.1264  -27.0562 H   0  0  0  0  0  0  0  0  0  0  0  0
  1  2  2  0
  2  3  2  0
  2  4  1  0
  4  5  1  0
  5  6  2  0
  6  7  1  0
  7  8  2  0
  8  9  1  0
  9 10  1  0
 10 11  1  0
 11 12  1  0
 12 13  1  0
 13 14  1  0
 13 15  1  0
 15 16  2  0
 16 17  1  0
 17 18  2  0
 18 19  1  0
 19 20  2  0
  8 21  1  0
 21 22  2  0
  2 23  1  0
 23 24  1  0
 24 25  2  0
 25 26  1  0
 26 27  2  0
 27 28  1  0
 28 29  2  0
 22  5  1  0
 29 24  1  0
 20 15  1  0
  6 30  1  0
  7 31  1  0
  9 32  1  0
  9 33  1  0
 10 34  1  0
 10 35  1  0
 11 36  1  0
 12 37  1  0
 12 38  1  0
 13 39  1  1
 14 40  1  0
 16 41  1  0
 17 42  1  0
 18 43  1  0
 20 44  1  0
 21 45  1  0
 22 46  1  0
 23 47  1  0
 25 48  1  0
 26 49  1  0
 27 50  1  0
 28 51  1  0
 29 52  1  0
M  CHG  1   4  -1
M  END
>  <UniqueID>  (2) 
1

>  <SMILES>  (2) 
O=S(=O)([N-]c1ccc(CCNC[C@@H](O)c2cccnc2)cc1)Nc1ccccc1

>  <Energy>  (2) 
57.760588875663196

>  <Genealogy>  (2) 
O=S(=O)([N-]c1ccc(CCNCC(O)c2cccnc2)cc1)Nc1ccccc1 (protonated)
O=S(=O)([N-]c1ccc(CCNC[C@@H](O)c2cccnc2)cc1)Nc1ccccc1 (chirality)
O=S(=O)([N-]c1ccc(CCNC[C@@H](O)c2cccnc2)cc1)Nc1ccccc1 (3D coordinates assigned)
O=S(=O)([N-]c1ccc(CCNC[C@@H](O)c2cccnc2)cc1)Nc1ccccc1 (optimized conformer: 57.760588875663196 kcal/mol)

>  <smiles>  (2) 
O=S(=O)(Nc1ccccc1)Nc1ccc(CCNCC(O)c2cccnc2)cc1

>  <score_type>  (2) 
oracle

>  <origin>  (2) 
adgpu

>  <m_score__min__energy>  (2) 
-10.52

>  <m_primary>  (2) 
energy

$$$$
2:0
     RDKit          3D

 45 48  0  0  0  0  0  0  0  0999 V2000
   -4.2200   22.7340  -27.7480 C   0  0  0  0  0  0  0  0  0  0  0  0
   -2.9170   22.3070  -28.3720 C   0  0  0  0  0  0  0  0  0  0  0  0
   -2.4580   20.9990  -28.1420 C   0  0  0  0  0  0  0  0  0  0  0  0
   -1.2750   20.5500  -28.7270 C   0  0  0  0  0  0  0  0  0  0  0  0
   -0.5470   21.4130  -29.5380 C   0  0  0  0  0  0  0  0  0  0  0  0
   -0.9850   22.6820  -29.7450 N   0  0  0  0  0  0  0  0  0  0  0  0
   -2.1290   23.1680  -29.1860 C   0  0  0  0  0  0  0  0  0  0  0  0
   -2.4800   24.5790  -29.4760 C   0  0  0  0  0  0  0  0  0  0  0  0
   -1.9460   25.4920  -28.7890 O   0  0  0  0  0  0  0  0  0  0  0  0
   -3.4870   24.9080  -30.4410 N   0  0  0  0  0  0  0  0  0  0  0  0
   -4.8050   24.3480  -30.5360 C   0  0  0  0  0  0  0  0  0  0  0  0
   -5.9260   24.9720  -29.9630 C   0  0  0  0  0  0  0  0  0  0  0  0
   -7.1980   24.4150  -30.1210 C   0  0  0  0  0  0  0  0  0  0  0  0
   -7.3670   23.2410  -30.8600 C   0  0  0  0  0  0  0  0  0  0  0  0
   -8.6140   22.7330  -31.0210 F   0  0  0  0  0  0  0  0  0  0  0  0
   -6.2540   22.6110  -31.4440 C   0  0  0  0  0  0  0  0  0  0  0  0
   -6.4220   21.3930  -32.3120 C   0  0  0  0  0  0  0  0  0  0  0  0
   -5.2880   21.2820  -33.2280 N   0  0  0  0  0  0  0  0  0  0  0  0
   -4.3460   20.2110  -33.1070 C   0  0  0  0  0  0  0  0  0  0  0  0
   -4.6510   18.8630  -33.1070 C   0  0  0  0  0  0  0  0  0  0  0  0
   -3.5060   18.1420  -33.0510 N   0  0  0  0  0  0  0  0  0  0  0  0
   -2.5370   19.0830  -33.0110 C   0  0  0  0  0  0  0  0  0  0  0  0
   -1.1680   18.8360  -32.9240 C   0  0  0  0  0  0  0  0  0  0  0  0
   -0.3070   19.9450  -32.8530 C   0  0  0  0  0  0  0  0  0  0  0  0
    1.4260   19.6970  -32.7330 Cl  0  0  0  0  0  0  0  0  0  0  0  0
   -0.8320   21.2530  -32.8570 C   0  0  0  0  0  0  0  0  0  0  0  0
   -2.2180   21.4420  -32.9460 C   0  0  0  0  0  0  0  0  0  0  0  0
   -3.0110   20.3420  -33.0390 N   0  0  0  0  0  0  0  0  0  0  0  0
   -4.9800   23.1800  -31.2890 C   0  0  0  0  0  0  0  0  0  0  0  0
   -4.1289   22.7042  -26.6522 H   0  0  0  0  0  0  0  0  0  0  0  0
   -4.4616   23.7583  -28.0681 H   0  0  0  0  0  0  0  0  0  0  0  0
   -5.0209   22.0513  -28.0681 H   0  0  0  0  0  0  0  0  0  0  0  0
   -3.0370   20.3237  -27.4949 H   0  0  0  0  0  0  0  0  0  0  0  0
   -0.9213   19.5238  -28.5488 H   0  0  0  0  0  0  0  0  0  0  0  0
    0.3838   21.0682  -30.0121 H   0  0  0  0  0  0  0  0  0  0  0  0
   -5.8020   25.9017  -29.3883 H   0  0  0  0  0  0  0  0  0  0  0  0
   -8.0702   24.9030  -29.6615 H   0  0  0  0  0  0  0  0  0  0  0  0
   -6.4693   20.4955  -31.6778 H   0  0  0  0  0  0  0  0  0  0  0  0
   -7.3521   21.4840  -32.8922 H   0  0  0  0  0  0  0  0  0  0  0  0
   -4.9400   22.1740  -33.6490 H   0  0  0  0  0  0  0  0  0  0  0  0
   -5.6662   18.4412  -33.1464 H   0  0  0  0  0  0  0  0  0  0  0  0
   -0.7749   17.8087  -32.9113 H   0  0  0  0  0  0  0  0  0  0  0  0
   -0.1583   22.1200  -32.7907 H   0  0  0  0  0  0  0  0  0  0  0  0
   -2.6520   22.4527  -32.9407 H   0  0  0  0  0  0  0  0  0  0  0  0
   -4.1098   22.7034  -31.7640 H   0  0  0  0  0  0  0  0  0  0  0  0
  1  2  1  0
  2  3  2  0
  3  4  1  0
  4  5  2  0
  5  6  1  0
  6  7  2  0
  7  8  1  0
  8  9  2  0
  8 10  1  0
 10 11  1  0
 11 12  2  0
 12 13  1  0
 13 14  2  0
 14 15  1  0
 14 16  1  0
 16 17  1  0
 17 18  1  0
 18 19  1  0
 19 20  2  0
 20 21  1  0
 21 22  2  0
 22 23  1  0
 23 24  2  0
 24 25  1  0
 24 26  1  0
 26 27  2  0
 27 28  1  0
 16 29  2  0
  7  2  1  0
 29 11  1  0
 28 19  1  0
 28 22  1  0
  1 30  1  0
  1 31  1  0
  1 32  1  0
  3 33  1  0
  4 34  1  0
  5 35  1  0
 12 36  1  0
 13 37  1  0
 17 38  1  0
 17 39  1  0
 18 40  1  0
 20 41  1  0
 23 42  1  0
 26 43  1  0
 27 44  1  0
 29 45  1  0
M  CHG  1  10  -1
M  END
>  <UniqueID>  (3) 
2

>  <SMILES>  (3) 
Cc1cccnc1C(=O)[N-]c1ccc(F)c(CNc2cnc3cc(Cl)ccn23)c1

>  <Energy>  (3) 
95.49862120438107

>  <Genealogy>  (3) 
Cc1cccnc1C(=O)[N-]c1ccc(F)c(CNc2cnc3cc(Cl)ccn23)c1 (protonated)
Cc1cccnc1C(=O)[N-]c1ccc(F)c(CNc2cnc3cc(Cl)ccn23)c1 (3D coordinates assigned)
Cc1cccnc1C(=O)[N-]c1ccc(F)c(CNc2cnc3cc(Cl)ccn23)c1 (optimized conformer: 95.49862120438107 kcal/mol)

>  <smiles>  (3) 
Cc1cccnc1C(=O)Nc1ccc(F)c(CNc2cnc3cc(Cl)ccn23)c1

>  <score_type>  (3) 
oracle

>  <origin>  (3) 
adgpu

>  <m_score__min__energy>  (3) 
-11.52

>  <m_primary>  (3) 
energy

$$$$
3:0
     RDKit          3D

 33 35  0  0  0  0  0  0  0  0999 V2000
   -0.0200   24.9650  -28.1550 N   0  0  0  0  0  0  0  0  0  0  0  0
   -1.1570   24.4480  -28.4920 C   0  0  0  0  0  0  0  0  0  0  0  0
   -1.5610   23.2620  -27.9980 N   0  0  0  0  0  0  0  0  0  0  0  0
   -2.7390   22.6950  -28.3280 C   0  0  0  0  0  0  0  0  0  0  0  0
   -3.1280   21.5610  -27.8570 N   0  0  0  0  0  0  0  0  0  0  0  0
   -3.5570   23.3680  -29.2120 C   0  0  0  0  0  0  0  0  0  0  0  0
   -4.7580   22.8930  -29.6100 N   0  0  0  0  0  0  0  0  0  0  0  0
   -5.5290   23.5780  -30.4730 C   0  0  0  0  0  0  0  0  0  0  0  0
   -6.8430   23.1280  -30.9540 C   0  0  0  0  0  0  0  0  0  0  0  0
   -6.7790   22.4570  -32.2290 N   0  0  0  0  0  0  0  0  0  0  0  0
   -7.0010   21.0620  -32.4020 C   0  0  0  0  0  0  0  0  0  0  0  0
   -8.1760   20.4840  -31.9600 C   0  0  0  0  0  0  0  0  0  0  0  0
   -8.3370   19.1100  -32.1580 C   0  0  0  0  0  0  0  0  0  0  0  0
   -7.3680   18.3450  -32.7710 C   0  0  0  0  0  0  0  0  0  0  0  0
   -7.5760   17.0080  -32.9390 F   0  0  0  0  0  0  0  0  0  0  0  0
   -6.1920   18.9210  -33.2150 C   0  0  0  0  0  0  0  0  0  0  0  0
   -6.0420   20.2700  -33.0150 C   0  0  0  0  0  0  0  0  0  0  0  0
   -4.9050   20.9060  -33.4290 F   0  0  0  0  0  0  0  0  0  0  0  0
   -5.0660   24.8040  -30.9580 C   0  0  0  0  0  0  0  0  0  0  0  0
   -3.8740   25.3030  -30.5780 N   0  0  0  0  0  0  0  0  0  0  0  0
   -3.1390   24.5850  -29.7160 C   0  0  0  0  0  0  0  0  0  0  0  0
   -1.9430   25.1170  -29.3540 N   0  0  0  0  0  0  0  0  0  0  0  0
    0.2950   25.8830  -28.5350 H   0  0  0  0  0  0  0  0  0  0  0  0
   -0.9480   22.7380  -27.3240 H   0  0  0  0  0  0  0  0  0  0  0  0
   -2.5920   20.9870  -27.1970 H   0  0  0  0  0  0  0  0  0  0  0  0
   -7.2679   22.4339  -30.2140 H   0  0  0  0  0  0  0  0  0  0  0  0
   -7.4685   24.0232  -31.0854 H   0  0  0  0  0  0  0  0  0  0  0  0
   -6.5560   23.0450  -33.0620 H   0  0  0  0  0  0  0  0  0  0  0  0
   -8.9567   21.0841  -31.4698 H   0  0  0  0  0  0  0  0  0  0  0  0
   -9.2630   18.6254  -31.8150 H   0  0  0  0  0  0  0  0  0  0  0  0
   -5.4105   18.3235  -33.7073 H   0  0  0  0  0  0  0  0  0  0  0  0
   -5.6878   25.3733  -31.6646 H   0  0  0  0  0  0  0  0  0  0  0  0
   -1.6290   26.0410  -29.7400 H   0  0  0  0  0  0  0  0  0  0  0  0
  1  2  2  3
  2  3  1  0
  3  4  1  0
  4  5  2  3
  4  6  1  0
  6  7  2  0
  7  8  1  0
  8  9  1  0
  9 10  1  0
 10 11  1  0
 11 12  2  0
 12 13  1  0
 13 14  2  0
 14 15  1  0
 14 16  1  0
 16 17  2  0
 17 18  1  0
  8 19  2  0
 19 20  1  0
 20 21  2  0
 21 22  1  0
 22  2  1  0
 21  6  1  0
 17 11  1  0
  1 23  1  0
  3 24  1  0
  5 25  1  0
  9 26  1  0
  9 27  1  0
 10 28  1  0
 12 29  1  0
 13 30  1  0
 16 31  1  0
 19 32  1  0
 22 33  1  0
M  END
>  <smiles>  (4) 
N=c1[nH]c(=N)c2nc(CNc3ccc(F)cc3F)cnc2[nH]1

>  <score_type>  (4) 
oracle

>  <origin>  (4) 
adgpu

>  <m_score__min__energy>  (4) 
-7.9000000000000004

>  <m_primary>  (4) 
energy

$$$$
4:0
     RDKit          3D

 36 37  0  0  0  0  0  0  0  0999 V2000
   -2.8160   25.7260  -29.3780 H   0  0  0  0  0  0  0  0  0  0  0  0
   -1.8680   25.6760  -28.9460 N   0  0  0  0  0  0  0  0  0  0  0  0
   -1.2280   24.5700  -28.7170 C   0  0  0  0  0  0  0  0  0  0  0  0
    0.0060   24.6350  -28.1490 N   0  0  0  0  0  0  0  0  0  0  0  0
    0.7310   23.5190  -27.8810 C   0  0  0  0  0  0  0  0  0  0  0  0
    1.7265   23.6009  -27.4204 H   0  0  0  0  0  0  0  0  0  0  0  0
    0.2020   22.2690  -28.1950 C   0  0  0  0  0  0  0  0  0  0  0  0
    1.1050   20.8070  -27.8570 Cl  0  0  0  0  0  0  0  0  0  0  0  0
   -1.0280   22.1890  -28.7620 N   0  0  0  0  0  0  0  0  0  0  0  0
   -1.7670   23.2990  -29.0360 C   0  0  0  0  0  0  0  0  0  0  0  0
   -3.1340   23.1150  -29.6440 C   0  0  0  0  0  0  0  0  0  0  0  0
   -3.1420   22.1858  -30.2326 H   0  0  0  0  0  0  0  0  0  0  0  0
   -3.8720   23.0669  -28.8298 H   0  0  0  0  0  0  0  0  0  0  0  0
   -3.4840   24.2370  -30.5190 N   0  0  0  0  0  0  0  0  0  0  0  0
   -5.1740   24.6400  -30.4010 S   0  0  0  0  0  0  0  0  0  0  0  0
   -5.4360   25.8780  -31.2120 O   0  0  0  0  0  0  0  0  0  0  0  0
   -5.5280   24.9350  -28.9690 O   0  0  0  0  0  0  0  0  0  0  0  0
   -6.1820   23.3330  -31.0180 C   0  0  0  0  0  0  0  0  0  0  0  0
   -7.5700   23.4930  -31.0740 C   0  0  0  0  0  0  0  0  0  0  0  0
   -8.0278   24.4287  -30.7204 H   0  0  0  0  0  0  0  0  0  0  0  0
   -8.3770   22.4720  -31.5760 C   0  0  0  0  0  0  0  0  0  0  0  0
   -9.4685   22.6042  -31.6089 H   0  0  0  0  0  0  0  0  0  0  0  0
   -7.8030   21.2730  -32.0410 C   0  0  0  0  0  0  0  0  0  0  0  0
   -8.5820   20.2240  -32.5550 O   0  0  0  0  0  0  0  0  0  0  0  0
   -8.7330   18.9530  -31.9340 C   0  0  0  0  0  0  0  0  0  0  0  0
   -8.7185   19.0750  -30.8409 H   0  0  0  0  0  0  0  0  0  0  0  0
   -9.6905   18.5066  -32.2405 H   0  0  0  0  0  0  0  0  0  0  0  0
   -7.9067   18.2947  -32.2405 H   0  0  0  0  0  0  0  0  0  0  0  0
   -6.4090   21.1100  -31.9970 C   0  0  0  0  0  0  0  0  0  0  0  0
   -5.8620   19.9100  -32.4770 O   0  0  0  0  0  0  0  0  0  0  0  0
   -5.8960   19.4950  -33.8380 C   0  0  0  0  0  0  0  0  0  0  0  0
   -5.9857   18.3997  -33.8852 H   0  0  0  0  0  0  0  0  0  0  0  0
   -6.7594   19.9556  -34.3403 H   0  0  0  0  0  0  0  0  0  0  0  0
   -4.9691   19.8090  -34.3403 H   0  0  0  0  0  0  0  0  0  0  0  0
   -5.6040   22.1450  -31.4810 C   0  0  0  0  0  0  0  0  0  0  0  0
   -4.5120   22.0184  -31.4417 H   0  0  0  0  0  0  0  0  0  0  0  0
  1  2  1  0
  2  3  2  0
  3  4  1  0
  4  5  1  0
  5  6  1  0
  5  7  2  0
  7  8  1  0
  7  9  1  0
  9 10  2  0
 10 11  1  0
 11 12  1  0
 11 13  1  0
 11 14  1  0
 14 15  1  0
 15 16  2  0
 15 17  2  0
 15 18  1  0
 18 19  2  0
 19 20  1  0
 19 21  1  0
 21 22  1  0
 21 23  2  0
 23 24  1  0
 24 25  1  0
 25 26  1  0
 25 27  1  0
 25 28  1  0
 23 29  1  0
 29 30  1  0
 30 31  1  0
 31 32  1  0
 31 33  1  0
 31 34  1  0
 29 35  2  0
 35 36  1  0
 10  3  1  0
 35 18  1  0
M  CHG  2   4  -1  14  -1
M  END
>  <UniqueID>  (5) 
3

>  <SMILES>  (5) 
[H]/N=c1/[n-]cc(Cl)nc1C[N-]S(=O)(=O)c1ccc(OC)c(OC)c1

>  <Energy>  (5) 
36.74653126036891

>  <Genealogy>  (5) 
COc1ccc(S(=O)(=O)[N-]Cc2nc(Cl)c[n-]c2=N)cc1OC (protonated)
[H]/N=c1/[n-]cc(Cl)nc1C[N-]S(=O)(=O)c1ccc(OC)c(OC)c1 (cis-trans isomerization)
[H]/N=c1/[n-]cc(Cl)nc1C[N-]S(=O)(=O)c1ccc(OC)c(OC)c1 (3D coordinates assigned)
[H]/N=c1/[n-]cc(Cl)nc1C[N-]S(=O)(=O)c1ccc(OC)c(OC)c1 (optimized conformer: 36.74653126036891 kcal/mol)

>  <smiles>  (5) 
COc1ccc(S(=O)(=O)NCc2nc(Cl)c[nH]c2=N)cc1OC

>  <score_type>  (5) 
oracle

>  <origin>  (5) 
adgpu

>  <m_score__min__energy>  (5) 
-9.75

>  <m_primary>  (5) 
energy

$$$$
5:0
     RDKit          3D

 56 59  0  0  0  0  0  0  0  0999 V2000
   -3.0100   15.9070  -35.0720 C   0  0  0  0  0  0  0  0  0  0  0  0
   -3.5260   14.8250  -34.3040 O   0  0  0  0  0  0  0  0  0  0  0  0
   -4.7090   14.1270  -34.5980 C   0  0  0  0  0  0  0  0  0  0  0  0
   -4.6860   12.8900  -35.2760 C   0  0  0  0  0  0  0  0  0  0  0  0
   -5.8780   12.2400  -35.6050 C   0  0  0  0  0  0  0  0  0  0  0  0
   -7.1040   12.8130  -35.2680 C   0  0  0  0  0  0  0  0  0  0  0  0
   -7.1430   14.0320  -34.5890 C   0  0  0  0  0  0  0  0  0  0  0  0
   -5.9530   14.6890  -34.2310 C   0  0  0  0  0  0  0  0  0  0  0  0
   -6.0350   15.9720  -33.5000 C   0  0  0  0  0  0  0  0  0  0  0  0
   -5.4820   16.0660  -32.3700 O   0  0  0  0  0  0  0  0  0  0  0  0
   -6.7290   17.0980  -34.0680 N   0  0  0  0  0  0  0  0  0  0  0  0
   -6.8590   18.3750  -33.4200 C   0  0  0  0  0  0  0  0  0  0  0  0
   -7.8530   18.5520  -32.4470 C   0  0  0  0  0  0  0  0  0  0  0  0
   -8.0160   19.7890  -31.8170 C   0  0  0  0  0  0  0  0  0  0  0  0
   -7.2000   20.8710  -32.1680 C   0  0  0  0  0  0  0  0  0  0  0  0
   -7.3930   22.4180  -31.3520 S   0  0  0  0  0  0  0  0  0  0  0  0
   -7.8980   23.4570  -32.3150 O   0  0  0  0  0  0  0  0  0  0  0  0
   -8.3980   22.2760  -30.2440 O   0  0  0  0  0  0  0  0  0  0  0  0
   -5.8350   22.9230  -30.7080 C   0  0  0  0  0  0  0  0  0  0  0  0
   -5.6250   24.2460  -30.3000 C   0  0  0  0  0  0  0  0  0  0  0  0
   -4.3890   24.6330  -29.7740 C   0  0  0  0  0  0  0  0  0  0  0  0
   -3.3450   23.6990  -29.6470 C   0  0  0  0  0  0  0  0  0  0  0  0
   -2.0710   24.0890  -29.1000 N   0  0  0  0  0  0  0  0  0  0  0  0
   -0.8380   23.4840  -29.6140 C   0  0  0  0  0  0  0  0  0  0  0  0
    0.2350   23.4920  -28.5200 C   0  0  0  0  0  0  0  0  0  0  0  0
    0.3990   24.7940  -27.9880 O   0  0  0  0  0  0  0  0  0  0  0  0
   -0.7870   25.1950  -27.3280 C   0  0  0  0  0  0  0  0  0  0  0  0
   -1.9460   25.3240  -28.3200 C   0  0  0  0  0  0  0  0  0  0  0  0
   -3.5670   22.3710  -30.0470 C   0  0  0  0  0  0  0  0  0  0  0  0
   -4.8030   21.9860  -30.5730 C   0  0  0  0  0  0  0  0  0  0  0  0
   -6.2160   20.7050  -33.1510 C   0  0  0  0  0  0  0  0  0  0  0  0
   -6.0520   19.4690  -33.7820 C   0  0  0  0  0  0  0  0  0  0  0  0
   -2.6363   16.6906  -34.3965 H   0  0  0  0  0  0  0  0  0  0  0  0
   -2.1868   15.5466  -35.7064 H   0  0  0  0  0  0  0  0  0  0  0  0
   -3.8082   16.3198  -35.7064 H   0  0  0  0  0  0  0  0  0  0  0  0
   -3.7225   12.4340  -35.5476 H   0  0  0  0  0  0  0  0  0  0  0  0
   -5.8495   11.2743  -36.1309 H   0  0  0  0  0  0  0  0  0  0  0  0
   -8.0411   12.3039  -35.5375 H   0  0  0  0  0  0  0  0  0  0  0  0
   -8.1131   14.4823  -34.3319 H   0  0  0  0  0  0  0  0  0  0  0  0
   -7.2220   16.9740  -34.9800 H   0  0  0  0  0  0  0  0  0  0  0  0
   -8.5092   17.7113  -32.1776 H   0  0  0  0  0  0  0  0  0  0  0  0
   -8.7878   19.9127  -31.0430 H   0  0  0  0  0  0  0  0  0  0  0  0
   -6.4357   24.9835  -30.3938 H   0  0  0  0  0  0  0  0  0  0  0  0
   -4.2318   25.6747  -29.4574 H   0  0  0  0  0  0  0  0  0  0  0  0
   -1.0397   22.4472  -29.9211 H   0  0  0  0  0  0  0  0  0  0  0  0
   -0.4812   24.0622  -30.4791 H   0  0  0  0  0  0  0  0  0  0  0  0
   -0.0670   22.8079  -27.7133 H   0  0  0  0  0  0  0  0  0  0  0  0
    1.1897   23.1671  -28.9592 H   0  0  0  0  0  0  0  0  0  0  0  0
   -1.0465   24.4452  -26.5661 H   0  0  0  0  0  0  0  0  0  0  0  0
   -0.6146   26.1749  -26.8589 H   0  0  0  0  0  0  0  0  0  0  0  0
   -2.8806   25.5039  -27.7685 H   0  0  0  0  0  0  0  0  0  0  0  0
   -1.7499   26.1655  -29.0007 H   0  0  0  0  0  0  0  0  0  0  0  0
   -2.7618   21.6285  -29.9454 H   0  0  0  0  0  0  0  0  0  0  0  0
   -4.9660   20.9430  -30.8822 H   0  0  0  0  0  0  0  0  0  0  0  0
   -5.5697   21.5511  -33.4274 H   0  0  0  0  0  0  0  0  0  0  0  0
   -5.2886   19.3510  -34.5651 H   0  0  0  0  0  0  0  0  0  0  0  0
  1  2  1  0
  2  3  1  0
  3  4  2  0
  4  5  1  0
  5  6  2  0
  6  7  1  0
  7  8  2  0
  8  9  1  0
  9 10  2  0
  9 11  1  0
 11 12  1  0
 12 13  2  0
 13 14  1  0
 14 15  2  0
 15 16  1  0
 16 17  2  0
 16 18  2  0
 16 19  1  0
 19 20  2  0
 20 21  1  0
 21 22  2  0
 22 23  1  0
 23 24  1  0
 24 25  1  0
 25 26  1  0
 26 27  1  0
 27 28  1  0
 22 29  1  0
 29 30  2  0
 15 31  1  0
 31 32  2  0
  8  3  1  0
 32 12  1  0
 30 19  1  0
 28 23  1  0
  1 33  1  0
  1 34  1  0
  1 35  1  0
  4 36  1  0
  5 37  1  0
  6 38  1  0
  7 39  1  0
 11 40  1  0
 13 41  1  0
 14 42  1  0
 20 43  1  0
 21 44  1  0
 24 45  1  0
 24 46  1  0
 25 47  1  0
 25 48  1  0
 27 49  1  0
 27 50  1  0
 28 51  1  0
 28 52  1  0
 29 53  1  0
 30 54  1  0
 31 55  1  0
 32 56  1  0
M  END
>  <UniqueID>  (6) 
4

>  <SMILES>  (6) 
COc1ccccc1C(=O)Nc1ccc(S(=O)(=O)c2ccc(N3CCOCC3)cc2)cc1

>  <Energy>  (6) 
74.95302190666682

>  <Genealogy>  (6) 
COc1ccccc1C(=O)Nc1ccc(S(=O)(=O)c2ccc(N3CCOCC3)cc2)cc1 (3D coordinates assigned)
COc1ccccc1C(=O)Nc1ccc(S(=O)(=O)c2ccc(N3CCOCC3)cc2)cc1 (nonaromatic ring conformer: 74.95302190666682 kcal/mol)

>  <smiles>  (6) 
COc1ccccc1C(=O)Nc1ccc(S(=O)(=O)c2ccc(N3CCOCC3)cc2)cc1

>  <score_type>  (6) 
oracle

>  <origin>  (6) 
adgpu

>  <m_score__min__energy>  (6) 
-10.01

>  <m_primary>  (6) 
energy

$$$$
6:0
     RDKit          3D

 35 38  0  0  0  0  0  0  0  0999 V2000
   -5.6810   25.5640  -30.8560 C   0  0  0  0  0  0  0  0  0  0  0  0
   -4.5870   24.6890  -30.3120 C   0  0  0  0  0  0  0  0  0  0  0  0
   -3.4890   25.2930  -29.7820 N   0  0  0  0  0  0  0  0  0  0  0  0
   -2.4390   24.5920  -29.2850 C   0  0  0  0  0  0  0  0  0  0  0  0
   -1.3360   25.2730  -28.7570 C   0  0  0  0  0  0  0  0  0  0  0  0
   -0.2480   24.5570  -28.2510 C   0  0  0  0  0  0  0  0  0  0  0  0
   -0.2550   23.1610  -28.2710 C   0  0  0  0  0  0  0  0  0  0  0  0
   -1.3530   22.4710  -28.7980 C   0  0  0  0  0  0  0  0  0  0  0  0
   -2.4560   23.1800  -29.3100 C   0  0  0  0  0  0  0  0  0  0  0  0
   -3.5810   22.5250  -29.8420 C   0  0  0  0  0  0  0  0  0  0  0  0
   -3.6270   21.2630  -29.8640 O   0  0  0  0  0  0  0  0  0  0  0  0
   -4.6670   23.2770  -30.3360 C   0  0  0  0  0  0  0  0  0  0  0  0
   -5.8540   22.5810  -30.8830 C   0  0  0  0  0  0  0  0  0  0  0  0
   -6.9730   23.2970  -31.1720 N   0  0  0  0  0  0  0  0  0  0  0  0
   -8.0850   22.7050  -31.6760 C   0  0  0  0  0  0  0  0  0  0  0  0
   -9.0990   23.4120  -31.9250 O   0  0  0  0  0  0  0  0  0  0  0  0
   -8.0920   21.3220  -31.9120 C   0  0  0  0  0  0  0  0  0  0  0  0
   -9.2160   20.6530  -32.4310 C   0  0  0  0  0  0  0  0  0  0  0  0
   -9.1680   19.2740  -32.6540 C   0  0  0  0  0  0  0  0  0  0  0  0
   -8.0070   18.5540  -32.3640 C   0  0  0  0  0  0  0  0  0  0  0  0
   -6.8840   19.2090  -31.8490 C   0  0  0  0  0  0  0  0  0  0  0  0
   -6.9180   20.5930  -31.6180 C   0  0  0  0  0  0  0  0  0  0  0  0
   -5.8270   21.2380  -31.1160 N   0  0  0  0  0  0  0  0  0  0  0  0
   -6.2411   26.0120  -30.0220 H   0  0  0  0  0  0  0  0  0  0  0  0
   -5.2403   26.3616  -31.4721 H   0  0  0  0  0  0  0  0  0  0  0  0
   -6.3623   24.9589  -31.4721 H   0  0  0  0  0  0  0  0  0  0  0  0
   -1.3257   26.3728  -28.7404 H   0  0  0  0  0  0  0  0  0  0  0  0
    0.6169   25.0950  -27.8355 H   0  0  0  0  0  0  0  0  0  0  0  0
    0.6042   22.6021  -27.8717 H   0  0  0  0  0  0  0  0  0  0  0  0
   -1.3539   21.3711  -28.8121 H   0  0  0  0  0  0  0  0  0  0  0  0
  -10.1328   21.2156  -32.6613 H   0  0  0  0  0  0  0  0  0  0  0  0
  -10.0483   18.7537  -33.0596 H   0  0  0  0  0  0  0  0  0  0  0  0
   -7.9759   17.4688  -32.5412 H   0  0  0  0  0  0  0  0  0  0  0  0
   -5.9712   18.6378  -31.6242 H   0  0  0  0  0  0  0  0  0  0  0  0
   -4.9500   20.7020  -30.9260 H   0  0  0  0  0  0  0  0  0  0  0  0
  1  2  1  0
  2  3  1  0
  3  4  1  0
  4  5  2  0
  5  6  1  0
  6  7  2  0
  7  8  1  0
  8  9  2  0
  9 10  1  0
 10 11  2  0
 10 12  1  0
 12 13  1  0
 13 14  2  0
 14 15  1  0
 15 16  2  0
 15 17  1  0
 17 18  2  0
 18 19  1  0
 19 20  2  0
 20 21  1  0
 21 22  2  0
 22 23  1  0
 12  2  2  0
 23 13  1  0
  9  4  1  0
 22 17  1  0
  1 24  1  0
  1 25  1  0
  1 26  1  0
  5 27  1  0
  6 28  1  0
  7 29  1  0
  8 30  1  0
 18 31  1  0
 19 32  1  0
 20 33  1  0
 21 34  1  0
 23 35  1  0
M  CHG  1   3  -1
M  END
>  <UniqueID>  (7) 
5

>  <SMILES>  (7) 
Cc1[n-]c2ccccc2c(=O)c1-c1nc(=O)c2ccccc2[nH]1

>  <Energy>  (7) 
56.254014365843375

>  <Genealogy>  (7) 
Cc1[n-]c2ccccc2c(=O)c1-c1nc(=O)c2ccccc2[nH]1 (protonated)
Cc1[n-]c2ccccc2c(=O)c1-c1nc(=O)c2ccccc2[nH]1 (3D coordinates assigned)
Cc1[n-]c2ccccc2c(=O)c1-c1nc(=O)c2ccccc2[nH]1 (optimized conformer: 56.254014365843375 kcal/mol)

>  <smiles>  (7) 
Cc1[nH]c2ccccc2c(=O)c1-c1nc(=O)c2ccccc2[nH]1

>  <score_type>  (7) 
oracle

>  <origin>  (7) 
adgpu

>  <m_score__min__energy>  (7) 
-10.029999999999999

>  <m_primary>  (7) 
energy

$$$$
7:0
     RDKit          3D

 36 38  0  0  0  0  0  0  0  0999 V2000
   -0.8986   20.5374  -28.7289 H   0  0  0  0  0  0  0  0  0  0  0  0
   -1.5060   21.4380  -28.5560 C   0  0  0  0  0  0  0  0  0  0  0  0
   -1.4370   22.5430  -29.2620 O   0  0  0  0  0  0  0  0  0  0  0  0
   -2.2990   23.4090  -28.7760 C   0  0  0  0  0  0  0  0  0  0  0  0
   -2.5000   24.7570  -29.3370 C   0  0  0  0  0  0  0  0  0  0  0  0
   -1.7380   25.6890  -28.9690 O   0  0  0  0  0  0  0  0  0  0  0  0
   -3.5010   25.0320  -30.3260 N   0  0  0  0  0  0  0  0  0  0  0  0
   -4.6170   24.1890  -30.6400 C   0  0  0  0  0  0  0  0  0  0  0  0
   -5.9010   24.7450  -30.6850 C   0  0  0  0  0  0  0  0  0  0  0  0
   -6.0439   25.8111  -30.4549 H   0  0  0  0  0  0  0  0  0  0  0  0
   -7.0030   23.9520  -31.0210 C   0  0  0  0  0  0  0  0  0  0  0  0
   -8.0069   24.3991  -31.0679 H   0  0  0  0  0  0  0  0  0  0  0  0
   -6.8310   22.5890  -31.2980 C   0  0  0  0  0  0  0  0  0  0  0  0
   -8.1990   21.6020  -31.8020 S   0  0  0  0  0  0  0  0  0  0  0  0
   -9.3060   22.4660  -32.3410 O   0  0  0  0  0  0  0  0  0  0  0  0
   -8.7080   20.8370  -30.6140 O   0  0  0  0  0  0  0  0  0  0  0  0
   -7.7050   20.4780  -33.0320 N   0  0  0  0  0  0  0  0  0  0  0  0
   -7.1070   19.3330  -32.8460 C   0  0  0  0  0  0  0  0  0  0  0  0
   -6.7610   18.8620  -31.5620 C   0  0  0  0  0  0  0  0  0  0  0  0
   -6.9756   19.4717  -30.6720 H   0  0  0  0  0  0  0  0  0  0  0  0
   -6.1450   17.6180  -31.4290 C   0  0  0  0  0  0  0  0  0  0  0  0
   -5.8777   17.2404  -30.4310 H   0  0  0  0  0  0  0  0  0  0  0  0
   -5.8680   16.8530  -32.5610 C   0  0  0  0  0  0  0  0  0  0  0  0
   -5.3830   15.8705  -32.4639 H   0  0  0  0  0  0  0  0  0  0  0  0
   -6.2130   17.3480  -33.8170 C   0  0  0  0  0  0  0  0  0  0  0  0
   -5.9962   16.7547  -34.7176 H   0  0  0  0  0  0  0  0  0  0  0  0
   -6.8170   18.5620  -33.9350 N   0  0  0  0  0  0  0  0  0  0  0  0
   -7.0670   18.9020  -34.8920 H   0  0  0  0  0  0  0  0  0  0  0  0
   -5.5550   22.0180  -31.2010 C   0  0  0  0  0  0  0  0  0  0  0  0
   -5.4201   20.9421  -31.3861 H   0  0  0  0  0  0  0  0  0  0  0  0
   -4.4540   22.8110  -30.8700 C   0  0  0  0  0  0  0  0  0  0  0  0
   -3.4557   22.3562  -30.7889 H   0  0  0  0  0  0  0  0  0  0  0  0
   -2.9740   22.8460  -27.7070 C   0  0  0  0  0  0  0  0  0  0  0  0
   -3.7610   23.3139  -27.0974 H   0  0  0  0  0  0  0  0  0  0  0  0
   -2.4550   21.5770  -27.5650 C   0  0  0  0  0  0  0  0  0  0  0  0
   -2.7402   20.8266  -26.8130 H   0  0  0  0  0  0  0  0  0  0  0  0
  1  2  1  0
  2  3  1  0
  3  4  1  0
  4  5  1  0
  5  6  2  0
  5  7  1  0
  7  8  1  0
  8  9  2  0
  9 10  1  0
  9 11  1  0
 11 12  1  0
 11 13  2  0
 13 14  1  0
 14 15  2  0
 14 16  2  0
 14 17  1  0
 17 18  2  0
 18 19  1  0
 19 20  1  0
 19 21  2  0
 21 22  1  0
 21 23  1  0
 23 24  1  0
 23 25  2  0
 25 26  1  0
 25 27  1  0
 27 28  1  0
 13 29  1  0
 29 30  1  0
 29 31  2  0
 31 32  1  0
  4 33  2  0
 33 34  1  0
 33 35  1  0
 35 36  1  0
 35  2  2  0
 31  8  1  0
 27 18  1  0
M  CHG  1   7  -1
M  END
>  <UniqueID>  (8) 
6

>  <SMILES>  (8) 
O=C([N-]c1ccc(S(=O)(=O)/N=c2\cccc[nH]2)cc1)c1ccco1

>  <Energy>  (8) 
74.71609413166169

>  <Genealogy>  (8) 
O=C([N-]c1ccc(S(=O)(=O)N=c2cccc[nH]2)cc1)c1ccco1 (protonated)
O=C([N-]c1ccc(S(=O)(=O)/N=c2\cccc[nH]2)cc1)c1ccco1 (cis-trans isomerization)
O=C([N-]c1ccc(S(=O)(=O)/N=c2\cccc[nH]2)cc1)c1ccco1 (3D coordinates assigned)
O=C([N-]c1ccc(S(=O)(=O)/N=c2\cccc[nH]2)cc1)c1ccco1 (optimized conformer: 74.71609413166169 kcal/mol)

>  <smiles>  (8) 
O=C(Nc1ccc(S(=O)(=O)N=c2cccc[nH]2)cc1)c1ccco1

>  <score_type>  (8) 
oracle

>  <origin>  (8) 
adgpu

>  <m_score__min__energy>  (8) 
-10.31

>  <m_primary>  (8) 
energy

$$$$
8:0
     RDKit          3D

 43 44  0  0  0  0  0  0  0  0999 V2000
   -7.9780   17.9330  -31.9550 C   0  0  0  0  0  0  0  0  0  0  0  0
   -9.0350   18.9360  -32.4080 C   0  0  0  0  0  0  0  0  0  0  0  0
   -8.4180   20.0790  -33.0870 N   0  0  0  0  0  0  0  0  0  0  0  0
   -7.5580   21.0250  -32.4230 C   0  0  0  0  0  0  0  0  0  0  0  0
   -8.1300   22.0850  -31.7150 C   0  0  0  0  0  0  0  0  0  0  0  0
   -7.3290   23.0070  -31.0460 C   0  0  0  0  0  0  0  0  0  0  0  0
   -5.9290   22.9010  -31.0670 C   0  0  0  0  0  0  0  0  0  0  0  0
   -5.0030   24.1180  -30.1620 S   0  0  0  0  0  0  0  0  0  0  0  0
   -4.2710   24.9880  -31.1450 O   0  0  0  0  0  0  0  0  0  0  0  0
   -5.9450   24.9630  -29.3520 O   0  0  0  0  0  0  0  0  0  0  0  0
   -3.8820   23.3470  -29.0880 N   0  0  0  0  0  0  0  0  0  0  0  0
   -2.8890   24.0100  -28.2950 C   0  0  0  0  0  0  0  0  0  0  0  0
   -1.5330   23.9990  -28.5540 C   0  0  0  0  0  0  0  0  0  0  0  0
   -0.8590   23.3750  -29.7310 C   0  0  0  0  0  0  0  0  0  0  0  0
   -0.8880   24.7160  -27.6150 N   0  0  0  0  0  0  0  0  0  0  0  0
   -1.7930   25.1580  -26.7530 N   0  0  0  0  0  0  0  0  0  0  0  0
   -1.4470   25.9400  -25.5710 C   0  0  0  0  0  0  0  0  0  0  0  0
   -3.0280   24.7380  -27.1200 C   0  0  0  0  0  0  0  0  0  0  0  0
   -4.2760   24.9460  -26.3120 C   0  0  0  0  0  0  0  0  0  0  0  0
   -5.3240   21.8540  -31.8210 C   0  0  0  0  0  0  0  0  0  0  0  0
   -3.8200   21.6470  -31.8860 C   0  0  0  0  0  0  0  0  0  0  0  0
   -3.3550   20.9810  -30.7650 F   0  0  0  0  0  0  0  0  0  0  0  0
   -3.4630   20.8890  -32.9850 F   0  0  0  0  0  0  0  0  0  0  0  0
   -3.1950   22.8770  -31.9490 F   0  0  0  0  0  0  0  0  0  0  0  0
   -6.1570   20.9120  -32.4630 C   0  0  0  0  0  0  0  0  0  0  0  0
   -7.9473   17.9039  -30.8558 H   0  0  0  0  0  0  0  0  0  0  0  0
   -8.2306   16.9345  -32.3413 H   0  0  0  0  0  0  0  0  0  0  0  0
   -6.9941   18.2375  -32.3413 H   0  0  0  0  0  0  0  0  0  0  0  0
   -9.7297   18.4383  -33.1006 H   0  0  0  0  0  0  0  0  0  0  0  0
   -9.5721   19.3035  -31.5212 H   0  0  0  0  0  0  0  0  0  0  0  0
   -8.6070   20.2180  -34.1060 H   0  0  0  0  0  0  0  0  0  0  0  0
   -9.2244   22.1924  -31.6857 H   0  0  0  0  0  0  0  0  0  0  0  0
   -7.8008   23.8319  -30.4920 H   0  0  0  0  0  0  0  0  0  0  0  0
   -0.0935   22.6663  -29.3820 H   0  0  0  0  0  0  0  0  0  0  0  0
   -1.6036   22.8404  -30.3391 H   0  0  0  0  0  0  0  0  0  0  0  0
   -0.3833   24.1585  -30.3391 H   0  0  0  0  0  0  0  0  0  0  0  0
   -1.7000   25.3681  -24.6660 H   0  0  0  0  0  0  0  0  0  0  0  0
   -0.3687   26.1573  -25.5779 H   0  0  0  0  0  0  0  0  0  0  0  0
   -2.0114   26.8842  -25.5779 H   0  0  0  0  0  0  0  0  0  0  0  0
   -4.0302   24.9050  -25.2406 H   0  0  0  0  0  0  0  0  0  0  0  0
   -4.7085   25.9286  -26.5517 H   0  0  0  0  0  0  0  0  0  0  0  0
   -5.0038   24.1568  -26.5517 H   0  0  0  0  0  0  0  0  0  0  0  0
   -5.7002   20.0716  -33.0062 H   0  0  0  0  0  0  0  0  0  0  0  0
  1  2  1  0
  2  3  1  0
  3  4  1  0
  4  5  2  0
  5  6  1  0
  6  7  2  0
  7  8  1  0
  8  9  2  0
  8 10  2  0
  8 11  1  0
 11 12  1  0
 12 13  1  0
 13 14  1  0
 13 15  2  0
 15 16  1  0
 16 17  1  0
 16 18  1  0
 18 19  1  0
  7 20  1  0
 20 21  1  0
 21 22  1  0
 21 23  1  0
 21 24  1  0
 20 25  2  0
 25  4  1  0
 18 12  2  0
  1 26  1  0
  1 27  1  0
  1 28  1  0
  2 29  1  0
  2 30  1  0
  3 31  1  0
  5 32  1  0
  6 33  1  0
 14 34  1  0
 14 35  1  0
 14 36  1  0
 17 37  1  0
 17 38  1  0
 17 39  1  0
 19 40  1  0
 19 41  1  0
 19 42  1  0
 25 43  1  0
M  CHG  1  11  -1
M  END
>  <UniqueID>  (9) 
7

>  <SMILES>  (9) 
CCNc1ccc(S(=O)(=O)[N-]c2c(C)nn(C)c2C)c(C(F)(F)F)c1

>  <Energy>  (9) 
80.40502473018196

>  <Genealogy>  (9) 
CCNc1ccc(S(=O)(=O)[N-]c2c(C)nn(C)c2C)c(C(F)(F)F)c1 (protonated)
CCNc1ccc(S(=O)(=O)[N-]c2c(C)nn(C)c2C)c(C(F)(F)F)c1 (3D coordinates assigned)
CCNc1ccc(S(=O)(=O)[N-]c2c(C)nn(C)c2C)c(C(F)(F)F)c1 (optimized conformer: 80.40502473018196 kcal/mol)

>  <smiles>  (9) 
CCNc1ccc(S(=O)(=O)Nc2c(C)nn(C)c2C)c(C(F)(F)F)c1

>  <score_type>  (9) 
oracle

>  <origin>  (9) 
adgpu

>  <m_score__min__energy>  (9) 
-8.5800000000000001

>  <m_primary>  (9) 
energy

$$$$
9:0
     RDKit          3D

 29 30  0  0  0  0  0  0  0  0999 V2000
   -2.1240   23.0420  -28.9950 O   0  0  0  0  0  0  0  0  0  0  0  0
   -2.8060   23.9970  -29.4520 C   0  0  0  0  0  0  0  0  0  0  0  0
   -2.3070   25.2890  -29.3260 O   0  0  0  0  0  0  0  0  0  0  0  0
   -4.1130   23.7400  -30.1110 C   0  0  0  0  0  0  0  0  0  0  0  0
   -4.5680   22.4160  -30.2540 C   0  0  0  0  0  0  0  0  0  0  0  0
   -5.7910   22.1440  -30.8710 C   0  0  0  0  0  0  0  0  0  0  0  0
   -6.5870   23.1830  -31.3600 C   0  0  0  0  0  0  0  0  0  0  0  0
   -7.8300   22.8530  -31.9940 N   0  0  0  0  0  0  0  0  0  0  0  0
   -8.7570   21.4190  -31.6940 S   0  0  0  0  0  0  0  0  0  0  0  0
  -10.1030   21.5590  -32.3500 O   0  0  0  0  0  0  0  0  0  0  0  0
   -8.9480   21.2580  -30.2130 O   0  0  0  0  0  0  0  0  0  0  0  0
   -7.9080   20.0080  -32.3160 C   0  0  0  0  0  0  0  0  0  0  0  0
   -8.2110   18.7270  -31.8340 C   0  0  0  0  0  0  0  0  0  0  0  0
   -7.5390   17.6090  -32.3400 C   0  0  0  0  0  0  0  0  0  0  0  0
   -6.5620   17.7660  -33.3270 C   0  0  0  0  0  0  0  0  0  0  0  0
   -6.2530   19.0420  -33.8080 C   0  0  0  0  0  0  0  0  0  0  0  0
   -6.9220   20.1610  -33.3030 C   0  0  0  0  0  0  0  0  0  0  0  0
   -6.1460   24.5090  -31.2200 C   0  0  0  0  0  0  0  0  0  0  0  0
   -4.9180   24.7930  -30.6030 C   0  0  0  0  0  0  0  0  0  0  0  0
   -4.5070   26.1200  -30.4840 O   0  0  0  0  0  0  0  0  0  0  0  0
   -3.9534   21.5859  -29.8755 H   0  0  0  0  0  0  0  0  0  0  0  0
   -6.1306   21.1027  -30.9729 H   0  0  0  0  0  0  0  0  0  0  0  0
   -8.9787   18.6005  -31.0564 H   0  0  0  0  0  0  0  0  0  0  0  0
   -7.7800   16.6051  -31.9605 H   0  0  0  0  0  0  0  0  0  0  0  0
   -6.0362   16.8858  -33.7254 H   0  0  0  0  0  0  0  0  0  0  0  0
   -5.4832   19.1655  -34.5840 H   0  0  0  0  0  0  0  0  0  0  0  0
   -6.6748   21.1642  -33.6804 H   0  0  0  0  0  0  0  0  0  0  0  0
   -6.7692   25.3330  -31.5977 H   0  0  0  0  0  0  0  0  0  0  0  0
   -3.8740   26.4190  -29.7500 H   0  0  0  0  0  0  0  0  0  0  0  0
  1  2  2  0
  2  3  1  0
  2  4  1  0
  4  5  2  0
  5  6  1  0
  6  7  2  0
  7  8  1  0
  8  9  1  0
  9 10  2  0
  9 11  2  0
  9 12  1  0
 12 13  2  0
 13 14  1  0
 14 15  2  0
 15 16  1  0
 16 17  2  0
  7 18  1  0
 18 19  2  0
 19 20  1  0
 19  4  1  0
 17 12  1  0
  5 21  1  0
  6 22  1  0
 13 23  1  0
 14 24  1  0
 15 25  1  0
 16 26  1  0
 17 27  1  0
 18 28  1  0
 20 29  1  0
M  CHG  2   3  -1   8  -1
M  END
>  <UniqueID>  (10) 
8

>  <SMILES>  (10) 
O=C([O-])c1ccc([N-]S(=O)(=O)c2ccccc2)cc1O

>  <Energy>  (10) 
34.845426524120825

>  <Genealogy>  (10) 
O=C([O-])c1ccc([N-]S(=O)(=O)c2ccccc2)cc1O (protonated)
O=C([O-])c1ccc([N-]S(=O)(=O)c2ccccc2)cc1O (3D coordinates assigned)
O=C([O-])c1ccc([N-]S(=O)(=O)c2ccccc2)cc1O (optimized conformer: 34.845426524120825 kcal/mol)

>  <smiles>  (10) 
O=C(O)c1ccc(NS(=O)(=O)c2ccccc2)cc1O

>  <score_type>  (10) 
oracle

>  <origin>  (10) 
adgpu

>  <m_score__min__energy>  (10) 
-10.619999999999999

>  <m_primary>  (10) 
energy

$$$$
10:0
     RDKit          3D

 50 53  0  0  0  0  0  0  0  0999 V2000
   -1.9150   21.7980  -31.5360 O   0  0  0  0  0  0  0  0  0  0  0  0
   -3.0450   22.3190  -31.3260 C   0  0  0  0  0  0  0  0  0  0  0  0
   -4.1510   22.0060  -32.2120 N   0  0  0  0  0  0  0  0  0  0  0  0
   -3.8800   21.1840  -33.4040 C   0  0  0  0  0  0  0  0  0  0  0  0
   -4.1310   19.6970  -33.1030 C   0  0  0  0  0  0  0  0  0  0  0  0
   -5.5450   19.3290  -33.3350 N   0  0  0  0  0  0  0  0  0  0  0  0
   -5.7020   18.5510  -34.5890 C   0  0  0  0  0  0  0  0  0  0  0  0
   -5.7990   17.0400  -34.3150 C   0  0  0  0  0  0  0  0  0  0  0  0
   -6.8880   16.6780  -33.4760 O   0  0  0  0  0  0  0  0  0  0  0  0
   -7.2830   17.7060  -32.5790 C   0  0  0  0  0  0  0  0  0  0  0  0
   -6.1290   18.6320  -32.1630 C   0  0  0  0  0  0  0  0  0  0  0  0
   -5.5270   22.3600  -31.9130 C   0  0  0  0  0  0  0  0  0  0  0  0
   -6.5420   21.7120  -32.5570 N   0  0  0  0  0  0  0  0  0  0  0  0
   -7.8510   22.0060  -32.3430 C   0  0  0  0  0  0  0  0  0  0  0  0
   -8.2020   23.0090  -31.4430 C   0  0  0  0  0  0  0  0  0  0  0  0
   -7.1950   23.6990  -30.7690 C   0  0  0  0  0  0  0  0  0  0  0  0
   -5.8540   23.3770  -30.9990 C   0  0  0  0  0  0  0  0  0  0  0  0
   -4.5940   24.2360  -30.1610 S   0  0  0  0  0  0  0  0  0  0  0  0
   -4.3180   25.5490  -30.8390 O   0  0  0  0  0  0  0  0  0  0  0  0
   -4.9970   24.4620  -28.7300 O   0  0  0  0  0  0  0  0  0  0  0  0
   -3.1960   23.2270  -30.2200 N   0  0  0  0  0  0  0  0  0  0  0  0
   -2.2080   23.3100  -29.1760 C   0  0  0  0  0  0  0  0  0  0  0  0
   -1.7170   22.1450  -28.5670 C   0  0  0  0  0  0  0  0  0  0  0  0
   -0.7640   22.2280  -27.5500 C   0  0  0  0  0  0  0  0  0  0  0  0
   -0.2800   23.4730  -27.1410 C   0  0  0  0  0  0  0  0  0  0  0  0
   -0.7330   24.6510  -27.7600 C   0  0  0  0  0  0  0  0  0  0  0  0
   -0.2460   25.9990  -27.2920 C   0  0  0  0  0  0  0  0  0  0  0  0
   -0.7600   27.0090  -28.0860 F   0  0  0  0  0  0  0  0  0  0  0  0
    1.1340   26.0320  -27.3560 F   0  0  0  0  0  0  0  0  0  0  0  0
   -0.6430   26.2340  -25.9860 F   0  0  0  0  0  0  0  0  0  0  0  0
   -1.7140   24.5600  -28.7650 C   0  0  0  0  0  0  0  0  0  0  0  0
   -4.5418   21.5042  -34.2223 H   0  0  0  0  0  0  0  0  0  0  0  0
   -2.8269   21.3149  -33.6937 H   0  0  0  0  0  0  0  0  0  0  0  0
   -3.4907   19.0867  -33.7569 H   0  0  0  0  0  0  0  0  0  0  0  0
   -3.8956   19.5143  -32.0441 H   0  0  0  0  0  0  0  0  0  0  0  0
   -6.6190   18.8799  -35.0998 H   0  0  0  0  0  0  0  0  0  0  0  0
   -4.8154   18.7289  -35.2153 H   0  0  0  0  0  0  0  0  0  0  0  0
   -5.9146   16.5197  -35.2773 H   0  0  0  0  0  0  0  0  0  0  0  0
   -4.8781   16.7501  -33.7878 H   0  0  0  0  0  0  0  0  0  0  0  0
   -8.0594   18.3142  -33.0662 H   0  0  0  0  0  0  0  0  0  0  0  0
   -7.6503   17.2155  -31.6655 H   0  0  0  0  0  0  0  0  0  0  0  0
   -6.5096   19.3818  -31.4538 H   0  0  0  0  0  0  0  0  0  0  0  0
   -5.3432   18.0185  -31.6981 H   0  0  0  0  0  0  0  0  0  0  0  0
   -8.6340   21.4515  -32.8809 H   0  0  0  0  0  0  0  0  0  0  0  0
   -9.2597   23.2538  -31.2661 H   0  0  0  0  0  0  0  0  0  0  0  0
   -7.4554   24.4960  -30.0570 H   0  0  0  0  0  0  0  0  0  0  0  0
   -2.0850   21.1609  -28.8927 H   0  0  0  0  0  0  0  0  0  0  0  0
   -0.3933   21.3106  -27.0695 H   0  0  0  0  0  0  0  0  0  0  0  0
    0.4602   23.5319  -26.3295 H   0  0  0  0  0  0  0  0  0  0  0  0
   -2.0985   25.4776  -29.2342 H   0  0  0  0  0  0  0  0  0  0  0  0
  1  2  2  0
  2  3  1  0
  3  4  1  0
  4  5  1  0
  5  6  1  0
  6  7  1  0
  7  8  1  0
  8  9  1  0
  9 10  1  0
 10 11  1  0
  3 12  1  0
 12 13  2  0
 13 14  1  0
 14 15  2  0
 15 16  1  0
 16 17  2  0
 17 18  1  0
 18 19  2  0
 18 20  2  0
 18 21  1  0
 21 22  1  0
 22 23  2  0
 23 24  1  0
 24 25  2  0
 25 26  1  0
 26 27  1  0
 27 28  1  0
 27 29  1  0
 27 30  1  0
 26 31  2  0
 21  2  1  0
 31 22  1  0
 11  6  1  0
 17 12  1  0
  4 32  1  0
  4 33  1  0
  5 34  1  0
  5 35  1  0
  7 36  1  0
  7 37  1  0
  8 38  1  0
  8 39  1  0
 10 40  1  0
 10 41  1  0
 11 42  1  0
 11 43  1  0
 14 44  1  0
 15 45  1  0
 16 46  1  0
 23 47  1  0
 24 48  1  0
 25 49  1  0
 31 50  1  0
M  END
>  <UniqueID>  (11) 
9

>  <SMILES>  (11) 
O=C1N(CCN2CCOCC2)c2ncccc2S(=O)(=O)N1c1cccc(C(F)(F)F)c1

>  <Energy>  (11) 
79.74856491024364

>  <Genealogy>  (11) 
O=C1N(CCN2CCOCC2)c2ncccc2S(=O)(=O)N1c1cccc(C(F)(F)F)c1 (3D coordinates assigned)
O=C1N(CCN2CCOCC2)c2ncccc2S(=O)(=O)N1c1cccc(C(F)(F)F)c1 (nonaromatic ring conformer: 79.74856491024364 kcal/mol)

>  <smiles>  (11) 
O=C1N(CCN2CCOCC2)c2ncccc2S(=O)(=O)N1c1cccc(C(F)(F)F)c1

>  <score_type>  (11) 
oracle

>  <origin>  (11) 
adgpu

>  <m_score__min__energy>  (11) 
-8.8100000000000005

>  <m_primary>  (11) 
energy

$$$$
11:0
     RDKit          3D

 94 99  0  0  0  0  0  0  0  0999 V2000
    3.1280   20.9270  -36.8070 C   0  0  0  0  0  0  0  0  0  0  0  0
    2.2220   20.0980  -36.0170 N   0  0  0  0  0  0  0  0  0  0  0  0
    2.2200   18.7540  -36.0120 C   0  0  0  0  0  0  0  0  0  0  0  0
    1.1390   18.3050  -35.2820 C   0  0  0  0  0  0  0  0  0  0  0  0
    0.8270   16.9290  -35.0500 N   0  0  0  0  0  0  0  0  0  0  0  0
   -0.3660   16.2630  -35.4750 C   0  0  0  0  0  0  0  0  0  0  0  0
   -0.2650   15.3360  -36.3110 O   0  0  0  0  0  0  0  0  0  0  0  0
   -1.6930   16.6010  -34.9090 C   0  0  0  0  0  0  0  0  0  0  0  0
   -2.2830   17.8570  -34.9670 C   0  0  0  0  0  0  0  0  0  0  0  0
   -3.4710   17.7460  -34.2710 C   0  0  0  0  0  0  0  0  0  0  0  0
   -4.3890   18.8180  -34.0080 N   0  0  0  0  0  0  0  0  0  0  0  0
   -5.8130   18.6160  -33.9400 C   0  0  0  0  0  0  0  0  0  0  0  0
   -6.3360   17.6900  -34.6180 O   0  0  0  0  0  0  0  0  0  0  0  0
   -6.6880   19.4800  -33.1030 C   0  0  0  0  0  0  0  0  0  0  0  0
   -7.8070   18.9210  -32.4520 C   0  0  0  0  0  0  0  0  0  0  0  0
   -8.6230   19.7060  -31.6400 C   0  0  0  0  0  0  0  0  0  0  0  0
   -8.3280   21.0540  -31.4440 C   0  0  0  0  0  0  0  0  0  0  0  0
   -7.2090   21.6250  -32.0590 C   0  0  0  0  0  0  0  0  0  0  0  0
   -6.9090   23.0080  -31.8860 N   0  0  0  0  0  0  0  0  0  0  0  0
   -5.5880   23.5620  -30.9100 S   0  0  0  0  0  0  0  0  0  0  0  0
   -5.2940   24.9980  -31.2630 O   0  0  0  0  0  0  0  0  0  0  0  0
   -5.9960   23.5060  -29.4630 O   0  0  0  0  0  0  0  0  0  0  0  0
   -4.1470   22.5690  -31.1330 C   0  0  0  0  0  0  0  0  0  0  0  0
   -3.6540   22.3140  -32.4190 C   0  0  0  0  0  0  0  0  0  0  0  0
   -2.5090   21.5320  -32.5920 C   0  0  0  0  0  0  0  0  0  0  0  0
   -1.8340   21.0060  -31.4740 C   0  0  0  0  0  0  0  0  0  0  0  0
   -0.6770   20.2240  -31.6050 O   0  0  0  0  0  0  0  0  0  0  0  0
    0.1730   19.8590  -30.5500 C   0  0  0  0  0  0  0  0  0  0  0  0
    0.1730   20.5660  -29.3850 N   0  0  0  0  0  0  0  0  0  0  0  0
    0.9660   20.2310  -28.3340 C   0  0  0  0  0  0  0  0  0  0  0  0
    1.8120   19.1290  -28.4230 C   0  0  0  0  0  0  0  0  0  0  0  0
    1.8350   18.3760  -29.5990 C   0  0  0  0  0  0  0  0  0  0  0  0
    1.0010   18.7270  -30.6710 C   0  0  0  0  0  0  0  0  0  0  0  0
    1.0350   17.9490  -31.9290 C   0  0  0  0  0  0  0  0  0  0  0  0
    2.2990   17.7440  -32.5750 N   0  0  0  0  0  0  0  0  0  0  0  0
   -0.0480   17.4500  -32.4640 N   0  0  0  0  0  0  0  0  0  0  0  0
   -1.3180   17.6960  -31.9860 O   0  0  0  0  0  0  0  0  0  0  0  0
   -2.3490   21.2350  -30.1920 C   0  0  0  0  0  0  0  0  0  0  0  0
   -3.4930   22.0220  -30.0210 C   0  0  0  0  0  0  0  0  0  0  0  0
   -6.4000   20.8450  -32.8960 C   0  0  0  0  0  0  0  0  0  0  0  0
   -3.5580   16.4550  -33.7970 C   0  0  0  0  0  0  0  0  0  0  0  0
   -2.4800   15.7560  -34.2030 N   0  0  0  0  0  0  0  0  0  0  0  0
   -2.2080   14.3680  -33.8340 C   0  0  0  0  0  0  0  0  0  0  0  0
    0.4220   19.4070  -34.8590 C   0  0  0  0  0  0  0  0  0  0  0  0
    1.1260   20.5010  -35.3330 C   0  0  0  0  0  0  0  0  0  0  0  0
    0.7570   21.8990  -35.0520 C   0  0  0  0  0  0  0  0  0  0  0  0
   -0.4570   22.2120  -34.9330 O   0  0  0  0  0  0  0  0  0  0  0  0
    1.7470   22.9280  -34.9760 N   0  0  0  0  0  0  0  0  0  0  0  0
    1.8850   23.9810  -35.9750 C   0  0  0  0  0  0  0  0  0  0  0  0
    0.4980   24.4050  -36.4690 C   0  0  0  0  0  0  0  0  0  0  0  0
    0.1420   25.7430  -35.9510 N   0  0  0  0  0  0  0  0  0  0  0  0
   -0.9100   26.3800  -36.7780 C   0  0  0  0  0  0  0  0  0  0  0  0
   -1.0880   27.8700  -36.4140 C   0  0  0  0  0  0  0  0  0  0  0  0
   -0.4490   28.1670  -35.1860 O   0  0  0  0  0  0  0  0  0  0  0  0
    0.9540   28.0030  -35.3270 C   0  0  0  0  0  0  0  0  0  0  0  0
    1.3320   26.6130  -35.8910 C   0  0  0  0  0  0  0  0  0  0  0  0
    3.7695   21.5139  -36.1332 H   0  0  0  0  0  0  0  0  0  0  0  0
    3.7548   20.2832  -37.4415 H   0  0  0  0  0  0  0  0  0  0  0  0
    2.5422   21.6084  -37.4415 H   0  0  0  0  0  0  0  0  0  0  0  0
    2.9624   18.1137  -36.5108 H   0  0  0  0  0  0  0  0  0  0  0  0
   -1.8863   18.7544  -35.4643 H   0  0  0  0  0  0  0  0  0  0  0  0
   -4.0050   19.7850  -33.9310 H   0  0  0  0  0  0  0  0  0  0  0  0
   -8.0381   17.8540  -32.5866 H   0  0  0  0  0  0  0  0  0  0  0  0
   -9.5026   19.2605  -31.1522 H   0  0  0  0  0  0  0  0  0  0  0  0
   -8.9767   21.6703  -30.8042 H   0  0  0  0  0  0  0  0  0  0  0  0
   -4.1703   22.7310  -33.2963 H   0  0  0  0  0  0  0  0  0  0  0  0
   -2.1336   21.3266  -33.6054 H   0  0  0  0  0  0  0  0  0  0  0  0
    0.9396   20.8308  -27.4123 H   0  0  0  0  0  0  0  0  0  0  0  0
    2.4563   18.8539  -27.5750 H   0  0  0  0  0  0  0  0  0  0  0  0
    2.5063   17.5088  -29.6846 H   0  0  0  0  0  0  0  0  0  0  0  0
    2.3530   17.2860  -33.5100 H   0  0  0  0  0  0  0  0  0  0  0  0
    3.1890   18.0570  -32.1230 H   0  0  0  0  0  0  0  0  0  0  0  0
    0.0310   16.8640  -33.3230 H   0  0  0  0  0  0  0  0  0  0  0  0
   -1.6970   18.6310  -31.8870 H   0  0  0  0  0  0  0  0  0  0  0  0
   -1.8518   20.7941  -29.3154 H   0  0  0  0  0  0  0  0  0  0  0  0
   -3.8807   22.2122  -29.0093 H   0  0  0  0  0  0  0  0  0  0  0  0
   -5.5329   21.3012  -33.3959 H   0  0  0  0  0  0  0  0  0  0  0  0
   -4.3794   16.0572  -33.1830 H   0  0  0  0  0  0  0  0  0  0  0  0
   -2.1901   14.2767  -32.7379 H   0  0  0  0  0  0  0  0  0  0  0  0
   -2.9960   13.7187  -34.2432 H   0  0  0  0  0  0  0  0  0  0  0  0
   -1.2332   14.0641  -34.2432 H   0  0  0  0  0  0  0  0  0  0  0  0
   -0.5082   19.4141  -34.2719 H   0  0  0  0  0  0  0  0  0  0  0  0
    2.3944   24.8467  -35.5266 H   0  0  0  0  0  0  0  0  0  0  0  0
    2.4760   23.6050  -36.8232 H   0  0  0  0  0  0  0  0  0  0  0  0
    0.4999   24.4329  -37.5686 H   0  0  0  0  0  0  0  0  0  0  0  0
   -0.2430   23.6778  -36.1055 H   0  0  0  0  0  0  0  0  0  0  0  0
   -0.6279   26.3019  -37.8383 H   0  0  0  0  0  0  0  0  0  0  0  0
   -1.8612   25.8613  -36.5878 H   0  0  0  0  0  0  0  0  0  0  0  0
   -0.6483   28.4905  -37.2088 H   0  0  0  0  0  0  0  0  0  0  0  0
   -2.1625   28.0825  -36.3129 H   0  0  0  0  0  0  0  0  0  0  0  0
    1.3330   28.7766  -36.0110 H   0  0  0  0  0  0  0  0  0  0  0  0
    1.4041   28.0928  -34.3273 H   0  0  0  0  0  0  0  0  0  0  0  0
    1.7454   26.7325  -36.9033 H   0  0  0  0  0  0  0  0  0  0  0  0
    2.0800   26.1505  -35.2303 H   0  0  0  0  0  0  0  0  0  0  0  0
  1  2  1  0
  2  3  1  0
  3  4  2  0
  4  5  1  0
  5  6  1  0
  6  7  2  0
  6  8  1  0
  8  9  2  0
  9 10  1  0
 10 11  1  0
 11 12  1  0
 12 13  2  0
 12 14  1  0
 14 15  2  0
 15 16  1  0
 16 17  2  0
 17 18  1  0
 18 19  1  0
 19 20  1  0
 20 21  2  0
 20 22  2  0
 20 23  1  0
 23 24  2  0
 24 25  1  0
 25 26  2  0
 26 27  1  0
 27 28  1  0
 28 29  2  0
 29 30  1  0
 30 31  2  0
 31 32  1  0
 32 33  2  0
 33 34  1  0
 34 35  1  0
 34 36  2  3
 36 37  1  0
 26 38  1  0
 38 39  2  0
 18 40  2  0
 10 41  2  0
 41 42  1  0
 42 43  1  0
  4 44  1  0
 44 45  2  0
 45 46  1  0
 46 47  2  0
 46 48  1  0
 48 49  1  0
 49 50  1  0
 50 51  1  0
 51 52  1  0
 52 53  1  0
 53 54  1  0
 54 55  1  0
 55 56  1  0
 45  2  1  0
 56 51  1  0
 42  8  1  0
 40 14  1  0
 39 23  1  0
 33 28  1  0
  1 57  1  0
  1 58  1  0
  1 59  1  0
  3 60  1  0
  9 61  1  0
 11 62  1  0
 15 63  1  0
 16 64  1  0
 17 65  1  0
 24 66  1  0
 25 67  1  0
 30 68  1  0
 31 69  1  0
 32 70  1  0
 35 71  1  0
 35 72  1  0
 36 73  1  0
 37 74  1  0
 38 75  1  0
 39 76  1  0
 40 77  1  0
 41 78  1  0
 43 79  1  0
 43 80  1  0
 43 81  1  0
 44 82  1  0
 49 83  1  0
 49 84  1  0
 50 85  1  0
 50 86  1  0
 52 87  1  0
 52 88  1  0
 53 89  1  0
 53 90  1  0
 55 91  1  0
 55 92  1  0
 56 93  1  0
 56 94  1  0
M  CHG  4   5  -1  19  -1  36   1  48  -1
M  END
>  <UniqueID>  (12) 
10

>  <SMILES>  (12) 
Cn1cc([N-]C(=O)c2cc(NC(=O)c3cccc([N-]S(=O)(=O)c4ccc(Oc5ncccc5C(N)=[NH+]O)cc4)c3)cn2C)cc1C(=O)[N-]CCN1CCOCC1

>  <Energy>  (12) 
197.7618813554066

>  <Genealogy>  (12) 
Cn1cc([N-]C(=O)c2cc(NC(=O)c3cccc([N-]S(=O)(=O)c4ccc(Oc5ncccc5C(N)=[NH+]O)cc4)c3)cn2C)cc1C(=O)[N-]CCN1CCOCC1 (protonated)
Cn1cc([N-]C(=O)c2cc(NC(=O)c3cccc([N-]S(=O)(=O)c4ccc(Oc5ncccc5C(N)=[NH+]O)cc4)c3)cn2C)cc1C(=O)[N-]CCN1CCOCC1 (3D coordinates assigned)
Cn1cc([N-]C(=O)c2cc(NC(=O)c3cccc([N-]S(=O)(=O)c4ccc(Oc5ncccc5C(N)=[NH+]O)cc4)c3)cn2C)cc1C(=O)[N-]CCN1CCOCC1 (nonaromatic ring conformer: 197.7618813554066 kcal/mol)

>  <smiles>  (12) 
Cn1cc(NC(=O)c2cc(NC(=O)c3cccc(NS(=O)(=O)c4ccc(Oc5ncccc5C(N)=NO)cc4)c3)cn2C)cc1C(=O)NCCN1CCOCC1

>  <score_type>  (12) 
oracle

>  <origin>  (12) 
adgpu

>  <m_score__min__energy>  (12) 
-10.630000000000001

>  <m_primary>  (12) 
energy

$$$$
12:0
     RDKit          3D

 36 38  0  0  0  0  0  0  0  0999 V2000
   -2.0370   25.2960  -29.1290 N   0  0  0  0  0  0  0  0  0  0  0  0
   -1.5880   23.9780  -29.2880 C   0  0  0  0  0  0  0  0  0  0  0  0
   -2.2620   22.9420  -29.8960 C   0  0  0  0  0  0  0  0  0  0  0  0
   -3.5740   22.9180  -30.5220 C   0  0  0  0  0  0  0  0  0  0  0  0
   -4.5730   23.6740  -29.9560 C   0  0  0  0  0  0  0  0  0  0  0  0
   -5.8350   23.7070  -30.4840 C   0  0  0  0  0  0  0  0  0  0  0  0
   -6.1850   22.9640  -31.6430 C   0  0  0  0  0  0  0  0  0  0  0  0
   -7.4350   23.0740  -32.0580 O   0  0  0  0  0  0  0  0  0  0  0  0
   -8.5600   22.3340  -31.9620 C   0  0  0  0  0  0  0  0  0  0  0  0
   -8.3450   20.8840  -32.0090 C   0  0  0  0  0  0  0  0  0  0  0  0
   -8.9090   19.9340  -31.2070 C   0  0  0  0  0  0  0  0  0  0  0  0
   -8.6500   18.5820  -31.2980 C   0  0  0  0  0  0  0  0  0  0  0  0
   -7.7620   18.1520  -32.2660 C   0  0  0  0  0  0  0  0  0  0  0  0
   -7.1700   19.0670  -33.0950 C   0  0  0  0  0  0  0  0  0  0  0  0
   -7.4480   20.4150  -32.9810 C   0  0  0  0  0  0  0  0  0  0  0  0
   -5.1490   22.2260  -32.1670 C   0  0  0  0  0  0  0  0  0  0  0  0
   -3.8770   22.1880  -31.6420 C   0  0  0  0  0  0  0  0  0  0  0  0
   -1.4370   21.8830  -29.8050 N   0  0  0  0  0  0  0  0  0  0  0  0
   -0.3120   22.2320  -29.1760 N   0  0  0  0  0  0  0  0  0  0  0  0
   -0.3560   23.5290  -28.8330 C   0  0  0  0  0  0  0  0  0  0  0  0
    0.5370   24.1970  -28.2250 O   0  0  0  0  0  0  0  0  0  0  0  0
   -2.7880   25.4990  -28.4120 H   0  0  0  0  0  0  0  0  0  0  0  0
   -1.6240   26.0710  -29.7250 H   0  0  0  0  0  0  0  0  0  0  0  0
   -4.3524   24.2672  -29.0563 H   0  0  0  0  0  0  0  0  0  0  0  0
   -6.6013   24.3274  -29.9964 H   0  0  0  0  0  0  0  0  0  0  0  0
   -9.0497   22.5771  -31.0075 H   0  0  0  0  0  0  0  0  0  0  0  0
   -9.1737   22.5859  -32.8395 H   0  0  0  0  0  0  0  0  0  0  0  0
   -9.6181   20.2693  -30.4358 H   0  0  0  0  0  0  0  0  0  0  0  0
   -9.1366   17.8662  -30.6191 H   0  0  0  0  0  0  0  0  0  0  0  0
   -7.5323   17.0813  -32.3698 H   0  0  0  0  0  0  0  0  0  0  0  0
   -6.4621   18.7231  -33.8636 H   0  0  0  0  0  0  0  0  0  0  0  0
   -6.9604   21.1297  -33.6603 H   0  0  0  0  0  0  0  0  0  0  0  0
   -5.3507   21.6256  -33.0664 H   0  0  0  0  0  0  0  0  0  0  0  0
   -3.1029   21.5711  -32.1218 H   0  0  0  0  0  0  0  0  0  0  0  0
   -1.5650   20.8970  -30.1420 H   0  0  0  0  0  0  0  0  0  0  0  0
    0.5130   21.6150  -28.9600 H   0  0  0  0  0  0  0  0  0  0  0  0
  1  2  1  0
  2  3  2  0
  3  4  1  0
  4  5  2  0
  5  6  1  0
  6  7  2  0
  7  8  1  0
  8  9  1  0
  9 10  1  0
 10 11  2  0
 11 12  1  0
 12 13  2  0
 13 14  1  0
 14 15  2  0
  7 16  1  0
 16 17  2  0
  3 18  1  0
 18 19  1  0
 19 20  1  0
 20 21  2  0
 20  2  1  0
 17  4  1  0
 15 10  1  0
  1 22  1  0
  1 23  1  0
  5 24  1  0
  6 25  1  0
  9 26  1  0
  9 27  1  0
 11 28  1  0
 12 29  1  0
 13 30  1  0
 14 31  1  0
 15 32  1  0
 16 33  1  0
 17 34  1  0
 18 35  1  0
 19 36  1  0
M  END
>  <smiles>  (13) 
Nc1c(-c2ccc(OCc3ccccc3)cc2)[nH][nH]c1=O

>  <score_type>  (13) 
oracle

>  <origin>  (13) 
adgpu

>  <m_score__min__energy>  (13) 
-7.8200000000000003

>  <m_primary>  (13) 
energy

$$$$
13:0
     RDKit          3D

 43 46  0  0  0  0  0  0  0  0999 V2000
   -4.8350   24.4850  -28.5100 N   0  0  0  0  0  0  0  0  0  0  0  0
   -5.1670   24.6090  -30.2020 S   0  0  0  0  0  0  0  0  0  0  0  0
   -4.2330   25.6050  -30.8300 O   0  0  0  0  0  0  0  0  0  0  0  0
   -6.5810   25.0800  -30.4020 O   0  0  0  0  0  0  0  0  0  0  0  0
   -4.9500   23.0340  -30.9570 C   0  0  0  0  0  0  0  0  0  0  0  0
   -5.4150   22.8090  -32.2580 C   0  0  0  0  0  0  0  0  0  0  0  0
   -5.2330   21.5630  -32.8650 C   0  0  0  0  0  0  0  0  0  0  0  0
   -4.5910   20.5220  -32.1730 C   0  0  0  0  0  0  0  0  0  0  0  0
   -4.3740   19.2050  -32.8070 C   0  0  0  0  0  0  0  0  0  0  0  0
   -5.2820   18.2140  -32.7540 N   0  0  0  0  0  0  0  0  0  0  0  0
   -4.6740   17.1710  -33.3600 C   0  0  0  0  0  0  0  0  0  0  0  0
   -5.3120   15.8460  -33.5270 C   0  0  0  0  0  0  0  0  0  0  0  0
   -6.5390   15.7250  -34.2060 C   0  0  0  0  0  0  0  0  0  0  0  0
   -7.1390   14.4730  -34.3620 C   0  0  0  0  0  0  0  0  0  0  0  0
   -6.5250   13.3300  -33.8440 C   0  0  0  0  0  0  0  0  0  0  0  0
   -5.3060   13.4370  -33.1670 C   0  0  0  0  0  0  0  0  0  0  0  0
   -4.5360   12.0020  -32.5160 Cl  0  0  0  0  0  0  0  0  0  0  0  0
   -4.7010   14.6890  -33.0080 C   0  0  0  0  0  0  0  0  0  0  0  0
   -3.4280   17.4530  -33.7970 N   0  0  0  0  0  0  0  0  0  0  0  0
   -3.2390   18.7410  -33.4560 C   0  0  0  0  0  0  0  0  0  0  0  0
   -2.0220   19.4940  -33.8270 C   0  0  0  0  0  0  0  0  0  0  0  0
   -0.9950   18.8520  -34.5380 C   0  0  0  0  0  0  0  0  0  0  0  0
    0.1530   19.5550  -34.9110 C   0  0  0  0  0  0  0  0  0  0  0  0
    0.2810   20.9110  -34.5900 C   0  0  0  0  0  0  0  0  0  0  0  0
    1.7220   21.7930  -35.0600 Cl  0  0  0  0  0  0  0  0  0  0  0  0
   -0.7470   21.5630  -33.9030 C   0  0  0  0  0  0  0  0  0  0  0  0
   -1.8970   20.8620  -33.5290 C   0  0  0  0  0  0  0  0  0  0  0  0
   -4.0990   20.7620  -30.8810 C   0  0  0  0  0  0  0  0  0  0  0  0
   -4.2810   22.0090  -30.2740 C   0  0  0  0  0  0  0  0  0  0  0  0
   -4.6640   25.4550  -28.1610 H   0  0  0  0  0  0  0  0  0  0  0  0
   -5.7120   24.1510  -28.0500 H   0  0  0  0  0  0  0  0  0  0  0  0
   -5.9255   23.6156  -32.8047 H   0  0  0  0  0  0  0  0  0  0  0  0
   -5.5945   21.3964  -33.8905 H   0  0  0  0  0  0  0  0  0  0  0  0
   -7.0281   16.6209  -34.6160 H   0  0  0  0  0  0  0  0  0  0  0  0
   -8.0978   14.3869  -34.8943 H   0  0  0  0  0  0  0  0  0  0  0  0
   -7.0004   12.3459  -33.9687 H   0  0  0  0  0  0  0  0  0  0  0  0
   -3.7425   14.7693  -32.4744 H   0  0  0  0  0  0  0  0  0  0  0  0
   -1.0952   17.7891  -34.8028 H   0  0  0  0  0  0  0  0  0  0  0  0
    0.9577   19.0418  -35.4579 H   0  0  0  0  0  0  0  0  0  0  0  0
   -0.6507   22.6306  -33.6560 H   0  0  0  0  0  0  0  0  0  0  0  0
   -2.7079   21.3832  -32.9991 H   0  0  0  0  0  0  0  0  0  0  0  0
   -3.5668   19.9644  -30.3420 H   0  0  0  0  0  0  0  0  0  0  0  0
   -3.8981   22.1857  -29.2580 H   0  0  0  0  0  0  0  0  0  0  0  0
  1  2  1  0
  2  3  2  0
  2  4  2  0
  2  5  1  0
  5  6  2  0
  6  7  1  0
  7  8  2  0
  8  9  1  0
  9 10  1  0
 10 11  1  0
 11 12  1  0
 12 13  2  0
 13 14  1  0
 14 15  2  0
 15 16  1  0
 16 17  1  0
 16 18  2  0
 11 19  2  0
 19 20  1  0
 20 21  1  0
 21 22  2  0
 22 23  1  0
 23 24  2  0
 24 25  1  0
 24 26  1  0
 26 27  2  0
  8 28  1  0
 28 29  2  0
 29  5  1  0
 20  9  2  0
 27 21  1  0
 18 12  1  0
  1 30  1  0
  1 31  1  0
  6 32  1  0
  7 33  1  0
 13 34  1  0
 14 35  1  0
 15 36  1  0
 18 37  1  0
 22 38  1  0
 23 39  1  0
 26 40  1  0
 27 41  1  0
 28 42  1  0
 29 43  1  0
M  CHG  1  10  -1
M  END
>  <UniqueID>  (14) 
11

>  <SMILES>  (14) 
NS(=O)(=O)c1ccc(-c2[n-]c(-c3cccc(Cl)c3)nc2-c2ccc(Cl)cc2)cc1

>  <Energy>  (14) 
82.35973942415193

>  <Genealogy>  (14) 
NS(=O)(=O)c1ccc(-c2[n-]c(-c3cccc(Cl)c3)nc2-c2ccc(Cl)cc2)cc1 (protonated)
NS(=O)(=O)c1ccc(-c2[n-]c(-c3cccc(Cl)c3)nc2-c2ccc(Cl)cc2)cc1 (3D coordinates assigned)
NS(=O)(=O)c1ccc(-c2[n-]c(-c3cccc(Cl)c3)nc2-c2ccc(Cl)cc2)cc1 (optimized conformer: 82.35973942415193 kcal/mol)

>  <smiles>  (14) 
NS(=O)(=O)c1ccc(-c2[nH]c(-c3cccc(Cl)c3)nc2-c2ccc(Cl)cc2)cc1

>  <score_type>  (14) 
oracle

>  <origin>  (14) 
adgpu

>  <m_score__min__energy>  (14) 
-9.2699999999999996

>  <m_primary>  (14) 
energy

$$$$
14:0
     RDKit          3D

 55 59  0  0  0  0  0  0  0  0999 V2000
   -5.3590   14.8750  -34.6240 O   0  0  0  0  0  0  0  0  0  0  0  0
   -4.8140   15.9280  -34.1940 C   0  0  0  0  0  0  0  0  0  0  0  0
   -3.3840   16.0310  -34.1530 N   0  0  0  0  0  0  0  0  0  0  0  0
   -2.6130   17.2330  -34.0020 C   0  0  0  0  0  0  0  0  0  0  0  0
   -1.4860   17.5030  -34.8000 C   0  0  0  0  0  0  0  0  0  0  0  0
   -0.7500   18.6760  -34.6040 C   0  0  0  0  0  0  0  0  0  0  0  0
   -1.1180   19.5820  -33.5990 C   0  0  0  0  0  0  0  0  0  0  0  0
   -0.2050   21.0670  -33.3550 S   0  0  0  0  0  0  0  0  0  0  0  0
    1.2370   20.7230  -33.1080 O   0  0  0  0  0  0  0  0  0  0  0  0
   -0.3090   21.9330  -34.5810 O   0  0  0  0  0  0  0  0  0  0  0  0
   -0.8640   21.9050  -31.9830 N   0  0  0  0  0  0  0  0  0  0  0  0
   -0.8430   21.4990  -30.7460 C   0  0  0  0  0  0  0  0  0  0  0  0
   -0.2560   20.2780  -30.3550 C   0  0  0  0  0  0  0  0  0  0  0  0
   -0.2720   19.9090  -29.0090 C   0  0  0  0  0  0  0  0  0  0  0  0
   -0.8670   20.7430  -28.0630 C   0  0  0  0  0  0  0  0  0  0  0  0
   -1.4390   21.9460  -28.4820 C   0  0  0  0  0  0  0  0  0  0  0  0
   -1.4140   22.2900  -29.7960 N   0  0  0  0  0  0  0  0  0  0  0  0
   -2.2290   19.3040  -32.7930 C   0  0  0  0  0  0  0  0  0  0  0  0
   -2.9640   18.1320  -32.9880 C   0  0  0  0  0  0  0  0  0  0  0  0
   -5.6520   17.0790  -33.7830 C   0  0  0  0  0  0  0  0  0  0  0  0
   -5.6860   18.2520  -34.5600 C   0  0  0  0  0  0  0  0  0  0  0  0
   -6.4740   19.3390  -34.1710 C   0  0  0  0  0  0  0  0  0  0  0  0
   -7.2490   19.2710  -33.0040 C   0  0  0  0  0  0  0  0  0  0  0  0
   -8.0600   20.4590  -32.5610 C   0  0  0  0  0  0  0  0  0  0  0  0
   -7.1770   21.5690  -32.2160 N   0  0  0  0  0  0  0  0  0  0  0  0
   -5.8530   21.4650  -31.6830 C   0  0  0  0  0  0  0  0  0  0  0  0
   -5.1610   20.4120  -31.7050 O   0  0  0  0  0  0  0  0  0  0  0  0
   -5.4440   22.7370  -31.1010 C   0  0  0  0  0  0  0  0  0  0  0  0
   -4.2570   23.1140  -30.4750 C   0  0  0  0  0  0  0  0  0  0  0  0
   -4.1560   24.4290  -29.9880 C   0  0  0  0  0  0  0  0  0  0  0  0
   -5.2340   25.3290  -30.1300 C   0  0  0  0  0  0  0  0  0  0  0  0
   -6.4230   24.9230  -30.7620 C   0  0  0  0  0  0  0  0  0  0  0  0
   -6.4970   23.6170  -31.2410 C   0  0  0  0  0  0  0  0  0  0  0  0
   -7.5790   22.9080  -31.9130 C   0  0  0  0  0  0  0  0  0  0  0  0
   -8.7150   23.3840  -32.1760 O   0  0  0  0  0  0  0  0  0  0  0  0
   -7.2110   18.1080  -32.2220 C   0  0  0  0  0  0  0  0  0  0  0  0
   -6.4230   17.0200  -32.6090 C   0  0  0  0  0  0  0  0  0  0  0  0
   -1.1829   16.7894  -35.5803 H   0  0  0  0  0  0  0  0  0  0  0  0
    0.1212   18.8888  -35.2409 H   0  0  0  0  0  0  0  0  0  0  0  0
    0.2106   19.6218  -31.1045 H   0  0  0  0  0  0  0  0  0  0  0  0
    0.1852   18.9594  -28.6941 H   0  0  0  0  0  0  0  0  0  0  0  0
   -0.8855   20.4571  -27.0010 H   0  0  0  0  0  0  0  0  0  0  0  0
   -1.9102   22.6157  -27.7475 H   0  0  0  0  0  0  0  0  0  0  0  0
   -2.5240   20.0109  -32.0036 H   0  0  0  0  0  0  0  0  0  0  0  0
   -3.8254   17.9139  -32.3396 H   0  0  0  0  0  0  0  0  0  0  0  0
   -5.0876   18.3139  -35.4809 H   0  0  0  0  0  0  0  0  0  0  0  0
   -6.4864   20.2527  -34.7834 H   0  0  0  0  0  0  0  0  0  0  0  0
   -8.7297   20.7671  -33.3774 H   0  0  0  0  0  0  0  0  0  0  0  0
   -8.6515   20.1812  -31.6762 H   0  0  0  0  0  0  0  0  0  0  0  0
   -3.4242   22.4038  -30.3653 H   0  0  0  0  0  0  0  0  0  0  0  0
   -3.2307   24.7587  -29.4930 H   0  0  0  0  0  0  0  0  0  0  0  0
   -5.1435   26.3550  -29.7437 H   0  0  0  0  0  0  0  0  0  0  0  0
   -7.2696   25.6163  -30.8747 H   0  0  0  0  0  0  0  0  0  0  0  0
   -7.8051   18.0512  -31.2979 H   0  0  0  0  0  0  0  0  0  0  0  0
   -6.4061   16.1108  -31.9901 H   0  0  0  0  0  0  0  0  0  0  0  0
  1  2  2  0
  2  3  1  0
  3  4  1  0
  4  5  2  0
  5  6  1  0
  6  7  2  0
  7  8  1  0
  8  9  2  0
  8 10  2  0
  8 11  1  0
 11 12  2  3
 12 13  1  0
 13 14  2  0
 14 15  1  0
 15 16  2  0
 16 17  1  0
  7 18  1  0
 18 19  2  0
  2 20  1  0
 20 21  2  0
 21 22  1  0
 22 23  2  0
 23 24  1  0
 24 25  1  0
 25 26  1  0
 26 27  2  0
 26 28  1  0
 28 29  2  0
 29 30  1  0
 30 31  2  0
 31 32  1  0
 32 33  2  0
 33 34  1  0
 34 35  2  0
 23 36  1  0
 36 37  2  0
 19  4  1  0
 37 20  1  0
 17 12  1  0
 34 25  1  0
 33 28  1  0
  5 38  1  0
  6 39  1  0
 13 40  1  0
 14 41  1  0
 15 42  1  0
 16 43  1  0
 18 44  1  0
 19 45  1  0
 21 46  1  0
 22 47  1  0
 24 48  1  0
 24 49  1  0
 29 50  1  0
 30 51  1  0
 31 52  1  0
 32 53  1  0
 36 54  1  0
 37 55  1  0
M  CHG  2   3  -1  17  -1
M  END
>  <UniqueID>  (15) 
12

>  <SMILES>  (15) 
O=C([N-]c1ccc(S(=O)(=O)N=c2cccc[n-]2)cc1)c1ccc(CN2C(=O)c3ccccc3C2=O)cc1

>  <Energy>  (15) 
103.64732395962025

>  <Genealogy>  (15) 
O=C([N-]c1ccc(S(=O)(=O)N=c2cccc[n-]2)cc1)c1ccc(CN2C(=O)c3ccccc3C2=O)cc1 (protonated)
O=C([N-]c1ccc(S(=O)(=O)N=c2cccc[n-]2)cc1)c1ccc(CN2C(=O)c3ccccc3C2=O)cc1 (3D coordinates assigned)
O=C([N-]c1ccc(S(=O)(=O)N=c2cccc[n-]2)cc1)c1ccc(CN2C(=O)c3ccccc3C2=O)cc1 (nonaromatic ring conformer: 103.64732395962025 kcal/mol)

>  <smiles>  (15) 
O=C(Nc1ccc(S(=O)(=O)N=c2cccc[nH]2)cc1)c1ccc(CN2C(=O)c3ccccc3C2=O)cc1

>  <score_type>  (15) 
oracle

>  <origin>  (15) 
adgpu

>  <m_score__min__energy>  (15) 
-13.16

>  <m_primary>  (15) 
energy

$$$$
15:0
     RDKit          3D

 37 39  0  0  0  0  0  0  0  0999 V2000
   -9.3780   19.2570  -32.3480 C   0  0  0  0  0  0  0  0  0  0  0  0
   -8.4610   20.4290  -32.1490 C   0  0  0  0  0  0  0  0  0  0  0  0
   -8.9730   21.6620  -31.7200 C   0  0  0  0  0  0  0  0  0  0  0  0
   -8.1250   22.7600  -31.5660 C   0  0  0  0  0  0  0  0  0  0  0  0
   -6.7620   22.6400  -31.8520 C   0  0  0  0  0  0  0  0  0  0  0  0
   -6.2370   21.4180  -32.3030 C   0  0  0  0  0  0  0  0  0  0  0  0
   -4.7990   21.2820  -32.6020 C   0  0  0  0  0  0  0  0  0  0  0  0
   -4.0140   22.2820  -33.0520 N   0  0  0  0  0  0  0  0  0  0  0  0
   -2.7950   21.7780  -33.1680 N   0  0  0  0  0  0  0  0  0  0  0  0
   -2.8860   20.4920  -32.7850 C   0  0  0  0  0  0  0  0  0  0  0  0
   -1.5030   19.3580  -32.7400 S   0  0  0  0  0  0  0  0  0  0  0  0
   -1.1100   19.6750  -30.9810 C   0  0  0  0  0  0  0  0  0  0  0  0
   -0.8820   21.1380  -30.7050 C   0  0  0  0  0  0  0  0  0  0  0  0
   -0.1690   21.8100  -31.4950 O   0  0  0  0  0  0  0  0  0  0  0  0
   -1.2960   21.7430  -29.4730 N   0  0  0  0  0  0  0  0  0  0  0  0
   -2.4410   22.5840  -29.2860 C   0  0  0  0  0  0  0  0  0  0  0  0
   -3.4510   22.2460  -28.3700 C   0  0  0  0  0  0  0  0  0  0  0  0
   -4.5760   23.0640  -28.2280 C   0  0  0  0  0  0  0  0  0  0  0  0
   -4.7110   24.2110  -29.0150 C   0  0  0  0  0  0  0  0  0  0  0  0
   -3.7250   24.5340  -29.9530 C   0  0  0  0  0  0  0  0  0  0  0  0
   -3.8660   25.6670  -30.7460 O   0  0  0  0  0  0  0  0  0  0  0  0
   -2.5980   23.7170  -30.0950 C   0  0  0  0  0  0  0  0  0  0  0  0
   -4.1110   20.1770  -32.4420 O   0  0  0  0  0  0  0  0  0  0  0  0
   -7.0960   20.3160  -32.4550 C   0  0  0  0  0  0  0  0  0  0  0  0
   -9.6867   18.8625  -31.3687 H   0  0  0  0  0  0  0  0  0  0  0  0
  -10.2670   19.5784  -32.9106 H   0  0  0  0  0  0  0  0  0  0  0  0
   -8.8522   18.4714  -32.9106 H   0  0  0  0  0  0  0  0  0  0  0  0
  -10.0467   21.7643  -31.5041 H   0  0  0  0  0  0  0  0  0  0  0  0
   -8.5302   23.7219  -31.2188 H   0  0  0  0  0  0  0  0  0  0  0  0
   -6.0974   23.5070  -31.7232 H   0  0  0  0  0  0  0  0  0  0  0  0
   -1.9485   19.3239  -30.3616 H   0  0  0  0  0  0  0  0  0  0  0  0
   -0.1817   19.1365  -30.7395 H   0  0  0  0  0  0  0  0  0  0  0  0
   -3.3564   21.3342  -27.7620 H   0  0  0  0  0  0  0  0  0  0  0  0
   -5.3554   22.8046  -27.4964 H   0  0  0  0  0  0  0  0  0  0  0  0
   -5.5919   24.8592  -28.8969 H   0  0  0  0  0  0  0  0  0  0  0  0
   -1.8323   23.9652  -30.8447 H   0  0  0  0  0  0  0  0  0  0  0  0
   -6.6953   19.3575  -32.8166 H   0  0  0  0  0  0  0  0  0  0  0  0
  1  2  1  0
  2  3  2  0
  3  4  1  0
  4  5  2  0
  5  6  1  0
  6  7  1  0
  7  8  2  0
  8  9  1  0
  9 10  2  0
 10 11  1  0
 11 12  1  0
 12 13  1  0
 13 14  2  0
 13 15  1  0
 15 16  1  0
 16 17  2  0
 17 18  1  0
 18 19  2  0
 19 20  1  0
 20 21  1  0
 20 22  2  0
 10 23  1  0
  6 24  2  0
 24  2  1  0
 23  7  1  0
 22 16  1  0
  1 25  1  0
  1 26  1  0
  1 27  1  0
  3 28  1  0
  4 29  1  0
  5 30  1  0
 12 31  1  0
 12 32  1  0
 17 33  1  0
 18 34  1  0
 19 35  1  0
 22 36  1  0
 24 37  1  0
M  CHG  2  15  -1  21  -1
M  END
>  <UniqueID>  (16) 
13

>  <SMILES>  (16) 
Cc1cccc(-c2nnc(SCC(=O)[N-]c3cccc([O-])c3)o2)c1

>  <Energy>  (16) 
74.18214604812307

>  <Genealogy>  (16) 
Cc1cccc(-c2nnc(SCC(=O)[N-]c3cccc([O-])c3)o2)c1 (protonated)
Cc1cccc(-c2nnc(SCC(=O)[N-]c3cccc([O-])c3)o2)c1 (3D coordinates assigned)
Cc1cccc(-c2nnc(SCC(=O)[N-]c3cccc([O-])c3)o2)c1 (optimized conformer: 74.18214604812307 kcal/mol)

>  <smiles>  (16) 
Cc1cccc(-c2nnc(SCC(=O)Nc3cccc(O)c3)o2)c1

>  <score_type>  (16) 
oracle

>  <origin>  (16) 
adgpu

>  <m_score__min__energy>  (16) 
-11.81

>  <m_primary>  (16) 
energy

$$$$
16:0
     RDKit          3D

 42 45  0  0  0  0  0  0  0  0999 V2000
    0.6330   18.2140  -32.4070 C   0  0  0  0  0  0  0  0  0  0  0  0
    0.0820   19.4650  -33.0440 C   0  0  0  0  0  0  0  0  0  0  0  0
    0.9600   20.3370  -33.7030 C   0  0  0  0  0  0  0  0  0  0  0  0
    0.4750   21.5000  -34.3010 C   0  0  0  0  0  0  0  0  0  0  0  0
    1.2710   22.2780  -34.8920 O   0  0  0  0  0  0  0  0  0  0  0  0
   -0.8520   21.7960  -34.2500 N   0  0  0  0  0  0  0  0  0  0  0  0
   -1.7430   20.9780  -33.6190 C   0  0  0  0  0  0  0  0  0  0  0  0
   -3.1050   21.3170  -33.5850 C   0  0  0  0  0  0  0  0  0  0  0  0
   -4.0290   20.4980  -32.9320 C   0  0  0  0  0  0  0  0  0  0  0  0
   -5.3810   20.8730  -32.9350 O   0  0  0  0  0  0  0  0  0  0  0  0
   -5.9350   21.9250  -32.1910 C   0  0  0  0  0  0  0  0  0  0  0  0
   -7.2950   21.8770  -31.8690 C   0  0  0  0  0  0  0  0  0  0  0  0
   -7.8840   22.9080  -31.1330 C   0  0  0  0  0  0  0  0  0  0  0  0
   -7.1210   24.0070  -30.7300 C   0  0  0  0  0  0  0  0  0  0  0  0
   -5.7650   24.0930  -31.0810 C   0  0  0  0  0  0  0  0  0  0  0  0
   -4.9470   25.2520  -30.6670 C   0  0  0  0  0  0  0  0  0  0  0  0
   -5.5150   26.3540  -30.4460 O   0  0  0  0  0  0  0  0  0  0  0  0
   -3.5320   25.1560  -30.4690 N   0  0  0  0  0  0  0  0  0  0  0  0
   -2.9010   24.5490  -29.3010 C   0  0  0  0  0  0  0  0  0  0  0  0
   -2.7590   23.0410  -29.3910 C   0  0  0  0  0  0  0  0  0  0  0  0
   -3.8490   23.6550  -28.5250 C   0  0  0  0  0  0  0  0  0  0  0  0
   -5.1730   23.0430  -31.8020 C   0  0  0  0  0  0  0  0  0  0  0  0
   -3.5920   19.3050  -32.3340 C   0  0  0  0  0  0  0  0  0  0  0  0
   -2.2410   18.9540  -32.3600 C   0  0  0  0  0  0  0  0  0  0  0  0
   -1.2970   19.7840  -32.9970 C   0  0  0  0  0  0  0  0  0  0  0  0
    0.5904   18.3107  -31.3121 H   0  0  0  0  0  0  0  0  0  0  0  0
    0.0333   17.3474  -32.7221 H   0  0  0  0  0  0  0  0  0  0  0  0
    1.6772   18.0714  -32.7221 H   0  0  0  0  0  0  0  0  0  0  0  0
    2.0339   20.1034  -33.7485 H   0  0  0  0  0  0  0  0  0  0  0  0
   -1.1860   22.6750  -34.7070 H   0  0  0  0  0  0  0  0  0  0  0  0
   -3.4484   22.2382  -34.0783 H   0  0  0  0  0  0  0  0  0  0  0  0
   -7.9047   21.0223  -32.1972 H   0  0  0  0  0  0  0  0  0  0  0  0
   -8.9508   22.8545  -30.8702 H   0  0  0  0  0  0  0  0  0  0  0  0
   -7.5850   24.8077  -30.1354 H   0  0  0  0  0  0  0  0  0  0  0  0
   -2.2185   25.3758  -29.0547 H   0  0  0  0  0  0  0  0  0  0  0  0
   -3.0247   22.5178  -30.3214 H   0  0  0  0  0  0  0  0  0  0  0  0
   -1.9416   22.3245  -29.2221 H   0  0  0  0  0  0  0  0  0  0  0  0
   -4.9032   23.5757  -28.8289 H   0  0  0  0  0  0  0  0  0  0  0  0
   -4.1469   23.5665  -27.4698 H   0  0  0  0  0  0  0  0  0  0  0  0
   -4.1061   23.0946  -32.0647 H   0  0  0  0  0  0  0  0  0  0  0  0
   -4.3191   18.6425  -31.8417 H   0  0  0  0  0  0  0  0  0  0  0  0
   -1.9106   18.0215  -31.8791 H   0  0  0  0  0  0  0  0  0  0  0  0
  1  2  1  0
  2  3  2  0
  3  4  1  0
  4  5  2  0
  4  6  1  0
  6  7  1  0
  7  8  2  0
  8  9  1  0
  9 10  1  0
 10 11  1  0
 11 12  2  0
 12 13  1  0
 13 14  2  0
 14 15  1  0
 15 16  1  0
 16 17  2  0
 16 18  1  0
 18 19  1  0
 19 20  1  0
 20 21  1  0
 15 22  2  0
  9 23  2  0
 23 24  1  0
 24 25  2  0
 25  2  1  0
 25  7  1  0
 22 11  1  0
 21 19  1  0
  1 26  1  0
  1 27  1  0
  1 28  1  0
  3 29  1  0
  6 30  1  0
  8 31  1  0
 12 32  1  0
 13 33  1  0
 14 34  1  0
 19 35  1  0
 20 36  1  0
 20 37  1  0
 21 38  1  0
 21 39  1  0
 22 40  1  0
 23 41  1  0
 24 42  1  0
M  CHG  1  18  -1
M  END
>  <UniqueID>  (17) 
14

>  <SMILES>  (17) 
Cc1cc(=O)[nH]c2cc(Oc3cccc(C(=O)[N-]C4CC4)c3)ccc12

>  <Energy>  (17) 
325.02919921671105

>  <Genealogy>  (17) 
Cc1cc(=O)[nH]c2cc(Oc3cccc(C(=O)[N-]C4CC4)c3)ccc12 (protonated)
Cc1cc(=O)[nH]c2cc(Oc3cccc(C(=O)[N-]C4CC4)c3)ccc12 (3D coordinates assigned)
Cc1cc(=O)[nH]c2cc(Oc3cccc(C(=O)[N-]C4CC4)c3)ccc12 (nonaromatic ring conformer: 325.02919921671105 kcal/mol)

>  <smiles>  (17) 
Cc1cc(=O)[nH]c2cc(Oc3cccc(C(=O)NC4CC4)c3)ccc12

>  <score_type>  (17) 
oracle

>  <origin>  (17) 
adgpu

>  <m_score__min__energy>  (17) 
-9.9800000000000004

>  <m_primary>  (17) 
energy

$$$$
17:0
     RDKit          3D

 30 32  0  0  0  0  0  0  0  0999 V2000
   -9.7560   23.7960  -32.3920 O   0  0  0  0  0  0  0  0  0  0  0  0
   -9.1280   22.8050  -31.9680 N   0  0  0  0  0  0  0  0  0  0  0  0
   -9.7650   21.5850  -31.9220 O   0  0  0  0  0  0  0  0  0  0  0  0
   -7.7070   22.8800  -31.7650 C   0  0  0  0  0  0  0  0  0  0  0  0
   -7.1210   24.1450  -31.5240 C   0  0  0  0  0  0  0  0  0  0  0  0
   -5.7600   24.1930  -31.2610 C   0  0  0  0  0  0  0  0  0  0  0  0
   -4.9880   25.2540  -30.9930 N   0  0  0  0  0  0  0  0  0  0  0  0
   -3.7920   24.7490  -30.8190 O   0  0  0  0  0  0  0  0  0  0  0  0
   -3.7320   23.4460  -30.9520 N   0  0  0  0  0  0  0  0  0  0  0  0
   -4.9910   23.0840  -31.2320 C   0  0  0  0  0  0  0  0  0  0  0  0
   -5.5020   21.8170  -31.4790 C   0  0  0  0  0  0  0  0  0  0  0  0
   -6.8860   21.7000  -31.7680 C   0  0  0  0  0  0  0  0  0  0  0  0
   -7.4500   20.4230  -32.1310 N   0  0  0  0  0  0  0  0  0  0  0  0
   -6.9810   19.1390  -31.6050 C   0  0  0  0  0  0  0  0  0  0  0  0
   -6.2760   18.3490  -32.6760 C   0  0  0  0  0  0  0  0  0  0  0  0
   -6.0600   18.9130  -33.9460 C   0  0  0  0  0  0  0  0  0  0  0  0
   -5.4200   18.1730  -34.9450 C   0  0  0  0  0  0  0  0  0  0  0  0
   -5.0020   16.8650  -34.6910 C   0  0  0  0  0  0  0  0  0  0  0  0
   -5.2270   16.2910  -33.4370 C   0  0  0  0  0  0  0  0  0  0  0  0
   -5.8660   17.0260  -32.4330 C   0  0  0  0  0  0  0  0  0  0  0  0
   -7.7267   25.0630  -31.5446 H   0  0  0  0  0  0  0  0  0  0  0  0
   -4.8526   20.9296  -31.4514 H   0  0  0  0  0  0  0  0  0  0  0  0
   -8.2010   20.3850  -32.8550 H   0  0  0  0  0  0  0  0  0  0  0  0
   -6.2840   19.3224  -30.7740 H   0  0  0  0  0  0  0  0  0  0  0  0
   -7.8498   18.5623  -31.2550 H   0  0  0  0  0  0  0  0  0  0  0  0
   -6.3956   19.9397  -34.1542 H   0  0  0  0  0  0  0  0  0  0  0  0
   -5.2453   18.6224  -35.9337 H   0  0  0  0  0  0  0  0  0  0  0  0
   -4.4957   16.2867  -35.4779 H   0  0  0  0  0  0  0  0  0  0  0  0
   -4.9010   15.2592  -33.2390 H   0  0  0  0  0  0  0  0  0  0  0  0
   -6.0484   16.5675  -31.4499 H   0  0  0  0  0  0  0  0  0  0  0  0
  1  2  2  0
  2  3  1  0
  2  4  1  0
  4  5  2  0
  5  6  1  0
  6  7  2  0
  7  8  1  0
  8  9  1  0
  9 10  2  0
 10 11  1  0
 11 12  2  0
 12 13  1  0
 13 14  1  0
 14 15  1  0
 15 16  2  0
 16 17  1  0
 17 18  2  0
 18 19  1  0
 19 20  2  0
 12  4  1  0
 20 15  1  0
 10  6  1  0
  5 21  1  0
 11 22  1  0
 13 23  1  0
 14 24  1  0
 14 25  1  0
 16 26  1  0
 17 27  1  0
 18 28  1  0
 19 29  1  0
 20 30  1  0
M  CHG  2   2   1   3  -1
M  END
>  <UniqueID>  (18) 
15

>  <SMILES>  (18) 
O=[N+]([O-])c1cc2nonc2cc1NCc1ccccc1

>  <Energy>  (18) 
81.46682862261468

>  <Genealogy>  (18) 
O=[N+]([O-])c1cc2nonc2cc1NCc1ccccc1 (3D coordinates assigned)
O=[N+]([O-])c1cc2nonc2cc1NCc1ccccc1 (optimized conformer: 81.46682862261468 kcal/mol)

>  <smiles>  (18) 
O=[N+]([O-])c1cc2nonc2cc1NCc1ccccc1

>  <score_type>  (18) 
oracle

>  <origin>  (18) 
adgpu

>  <m_score__min__energy>  (18) 
-8.4299999999999997

>  <m_primary>  (18) 
energy

$$$$
18:0
     RDKit          3D

 34 35  0  0  0  0  0  0  0  0999 V2000
   -7.4290   17.8160  -32.0420 C   0  0  0  0  0  0  0  0  0  0  0  0
   -8.7610   18.5650  -31.9690 C   0  0  0  0  0  0  0  0  0  0  0  0
   -8.5950   19.8480  -32.7910 C   0  0  0  0  0  0  0  0  0  0  0  0
   -7.7950   20.8730  -32.1350 C   0  0  0  0  0  0  0  0  0  0  0  0
   -8.4320   21.6830  -31.1870 C   0  0  0  0  0  0  0  0  0  0  0  0
   -9.8470   21.5550  -30.8230 C   0  0  0  0  0  0  0  0  0  0  0  0
   -7.7240   22.6580  -30.5410 N   0  0  0  0  0  0  0  0  0  0  0  0
   -6.4310   22.8650  -30.7910 C   0  0  0  0  0  0  0  0  0  0  0  0
   -5.7890   23.8390  -30.1250 N   0  0  0  0  0  0  0  0  0  0  0  0
   -4.4870   24.0920  -30.3350 C   0  0  0  0  0  0  0  0  0  0  0  0
   -3.8340   25.0150  -29.7180 N   0  0  0  0  0  0  0  0  0  0  0  0
   -3.8180   23.3490  -31.2350 N   0  0  0  0  0  0  0  0  0  0  0  0
   -4.4420   22.3610  -31.9200 C   0  0  0  0  0  0  0  0  0  0  0  0
   -3.7360   21.7030  -32.7560 N   0  0  0  0  0  0  0  0  0  0  0  0
   -5.7760   22.0650  -31.7370 C   0  0  0  0  0  0  0  0  0  0  0  0
   -6.4390   21.0660  -32.4180 C   0  0  0  0  0  0  0  0  0  0  0  0
   -5.6950   20.2660  -33.3850 C   0  0  0  0  0  0  0  0  0  0  0  0
   -7.0666   17.6122  -31.0236 H   0  0  0  0  0  0  0  0  0  0  0  0
   -7.5715   16.8658  -32.5775 H   0  0  0  0  0  0  0  0  0  0  0  0
   -6.6911   18.4315  -32.5775 H   0  0  0  0  0  0  0  0  0  0  0  0
   -9.5666   17.9465  -32.3915 H   0  0  0  0  0  0  0  0  0  0  0  0
   -9.0265   18.7962  -30.9269 H   0  0  0  0  0  0  0  0  0  0  0  0
   -8.1103   19.5881  -33.7436 H   0  0  0  0  0  0  0  0  0  0  0  0
   -9.6015   20.2699  -32.9288 H   0  0  0  0  0  0  0  0  0  0  0  0
   -9.9444   21.5462  -29.7274 H   0  0  0  0  0  0  0  0  0  0  0  0
  -10.4098   22.4059  -31.2343 H   0  0  0  0  0  0  0  0  0  0  0  0
  -10.2480   20.6169  -31.2343 H   0  0  0  0  0  0  0  0  0  0  0  0
   -6.2870   24.4210  -29.4290 H   0  0  0  0  0  0  0  0  0  0  0  0
   -4.2250   25.6490  -29.0110 H   0  0  0  0  0  0  0  0  0  0  0  0
   -2.8050   23.5430  -31.4010 H   0  0  0  0  0  0  0  0  0  0  0  0
   -2.7340   21.8650  -32.9490 H   0  0  0  0  0  0  0  0  0  0  0  0
   -5.0399   19.5616  -32.8514 H   0  0  0  0  0  0  0  0  0  0  0  0
   -6.3998   19.7050  -34.0163 H   0  0  0  0  0  0  0  0  0  0  0  0
   -5.0844   20.9283  -34.0163 H   0  0  0  0  0  0  0  0  0  0  0  0
  1  2  1  0
  2  3  1  0
  3  4  1  0
  4  5  2  0
  5  6  1  0
  5  7  1  0
  7  8  2  0
  8  9  1  0
  9 10  1  0
 10 11  2  3
 10 12  1  0
 12 13  1  0
 13 14  2  3
 13 15  1  0
 15 16  2  0
 16 17  1  0
 16  4  1  0
 15  8  1  0
  1 18  1  0
  1 19  1  0
  1 20  1  0
  2 21  1  0
  2 22  1  0
  3 23  1  0
  3 24  1  0
  6 25  1  0
  6 26  1  0
  6 27  1  0
  9 28  1  0
 11 29  1  0
 12 30  1  0
 14 31  1  0
 17 32  1  0
 17 33  1  0
 17 34  1  0
M  END
>  <smiles>  (19) 
CCCc1c(C)nc2[nH]c(=N)[nH]c(=N)c2c1C

>  <score_type>  (19) 
oracle

>  <origin>  (19) 
adgpu

>  <m_score__min__energy>  (19) 
-6.8799999999999999

>  <m_primary>  (19) 
energy

$$$$
19:0
     RDKit          3D

 46 50  0  0  0  0  0  0  0  0999 V2000
   -3.8600   26.2330  -30.8520 H   0  0  0  0  0  0  0  0  0  0  0  0
   -3.9660   25.2190  -30.6250 N   0  0  0  0  0  0  0  0  0  0  0  0
   -3.1310   24.6090  -29.8470 C   0  0  0  0  0  0  0  0  0  0  0  0
   -2.0720   25.2810  -29.3130 N   0  0  0  0  0  0  0  0  0  0  0  0
   -1.1540   24.6570  -28.5200 C   0  0  0  0  0  0  0  0  0  0  0  0
   -0.3157   25.2266  -28.0925 H   0  0  0  0  0  0  0  0  0  0  0  0
   -1.2830   23.2870  -28.2520 C   0  0  0  0  0  0  0  0  0  0  0  0
   -0.5477   22.7618  -27.6247 H   0  0  0  0  0  0  0  0  0  0  0  0
   -2.3440   22.6250  -28.7900 N   0  0  0  0  0  0  0  0  0  0  0  0
   -2.7260   21.3230  -28.7400 C   0  0  0  0  0  0  0  0  0  0  0  0
   -2.0330   20.1850  -28.0190 C   0  0  0  0  0  0  0  0  0  0  0  0
   -1.5137   19.7876  -28.9036 H   0  0  0  0  0  0  0  0  0  0  0  0
   -2.9250   19.2720  -27.1860 C   0  0  0  0  0  0  0  0  0  0  0  0
   -3.9695   19.6088  -27.1108 H   0  0  0  0  0  0  0  0  0  0  0  0
   -3.1042   18.2312  -27.4937 H   0  0  0  0  0  0  0  0  0  0  0  0
   -2.0770   19.5840  -25.9550 C   0  0  0  0  0  0  0  0  0  0  0  0
   -2.6366   20.0537  -25.1327 H   0  0  0  0  0  0  0  0  0  0  0  0
   -1.5928   18.7707  -25.3946 H   0  0  0  0  0  0  0  0  0  0  0  0
   -1.2370   20.5610  -26.7730 C   0  0  0  0  0  0  0  0  0  0  0  0
   -1.3455   21.6126  -26.4692 H   0  0  0  0  0  0  0  0  0  0  0  0
   -0.1389   20.4959  -26.7687 H   0  0  0  0  0  0  0  0  0  0  0  0
   -3.8630   21.1050  -29.4420 N   0  0  0  0  0  0  0  0  0  0  0  0
   -4.2080   22.3120  -29.9430 C   0  0  0  0  0  0  0  0  0  0  0  0
   -5.4240   22.5320  -30.7460 C   0  0  0  0  0  0  0  0  0  0  0  0
   -6.3170   23.5580  -30.3870 C   0  0  0  0  0  0  0  0  0  0  0  0
   -6.0850   24.3210  -29.2900 F   0  0  0  0  0  0  0  0  0  0  0  0
   -7.4660   23.7860  -31.1480 C   0  0  0  0  0  0  0  0  0  0  0  0
   -8.1642   24.5859  -30.8605 H   0  0  0  0  0  0  0  0  0  0  0  0
   -7.7310   23.0020  -32.2720 C   0  0  0  0  0  0  0  0  0  0  0  0
   -8.6439   23.1759  -32.8605 H   0  0  0  0  0  0  0  0  0  0  0  0
   -6.8380   21.9970  -32.6500 C   0  0  0  0  0  0  0  0  0  0  0  0
   -7.0531   21.3785  -33.5339 H   0  0  0  0  0  0  0  0  0  0  0  0
   -5.6650   21.7710  -31.9070 C   0  0  0  0  0  0  0  0  0  0  0  0
   -4.7460   20.7770  -32.2800 O   0  0  0  0  0  0  0  0  0  0  0  0
   -5.0700   19.4940  -32.7440 C   0  0  0  0  0  0  0  0  0  0  0  0
   -6.0230   18.7470  -32.0400 C   0  0  0  0  0  0  0  0  0  0  0  0
   -6.5077   19.1767  -31.1509 H   0  0  0  0  0  0  0  0  0  0  0  0
   -6.3610   17.4580  -32.4620 C   0  0  0  0  0  0  0  0  0  0  0  0
   -7.1183   16.8810  -31.9110 H   0  0  0  0  0  0  0  0  0  0  0  0
   -5.7390   16.9010  -33.5820 C   0  0  0  0  0  0  0  0  0  0  0  0
   -6.0097   15.8883  -33.9153 H   0  0  0  0  0  0  0  0  0  0  0  0
   -4.7720   17.6320  -34.2790 C   0  0  0  0  0  0  0  0  0  0  0  0
   -4.2782   17.1918  -35.1579 H   0  0  0  0  0  0  0  0  0  0  0  0
   -4.4320   18.9220  -33.8600 C   0  0  0  0  0  0  0  0  0  0  0  0
   -3.6639   19.4910  -34.4042 H   0  0  0  0  0  0  0  0  0  0  0  0
   -3.2650   23.2460  -29.5480 C   0  0  0  0  0  0  0  0  0  0  0  0
  1  2  1  0
  2  3  2  0
  3  4  1  0
  4  5  1  0
  5  6  1  0
  5  7  2  0
  7  8  1  0
  7  9  1  0
  9 10  1  0
 10 11  1  0
 11 12  1  0
 11 13  1  0
 13 14  1  0
 13 15  1  0
 13 16  1  0
 16 17  1  0
 16 18  1  0
 16 19  1  0
 19 20  1  0
 19 21  1  0
 10 22  2  0
 22 23  1  0
 23 24  1  0
 24 25  2  0
 25 26  1  0
 25 27  1  0
 27 28  1  0
 27 29  2  0
 29 30  1  0
 29 31  1  0
 31 32  1  0
 31 33  2  0
 33 34  1  0
 34 35  1  0
 35 36  2  0
 36 37  1  0
 36 38  1  0
 38 39  1  0
 38 40  2  0
 40 41  1  0
 40 42  1  0
 42 43  1  0
 42 44  2  0
 44 45  1  0
 23 46  2  0
 46  3  1  0
 46  9  1  0
 19 11  1  0
 33 24  1  0
 44 35  1  0
M  CHG  1   4  -1
M  END
>  <UniqueID>  (20) 
16

>  <SMILES>  (20) 
[H]/N=c1\[n-]ccn2c(C3CCC3)nc(-c3c(F)cccc3Oc3ccccc3)c12

>  <Energy>  (20) 
165.9721340742408

>  <Genealogy>  (20) 
N=c1[n-]ccn2c(C3CCC3)nc(-c3c(F)cccc3Oc3ccccc3)c12 (protonated)
[H]/N=c1\[n-]ccn2c(C3CCC3)nc(-c3c(F)cccc3Oc3ccccc3)c12 (cis-trans isomerization)
[H]/N=c1\[n-]ccn2c(C3CCC3)nc(-c3c(F)cccc3Oc3ccccc3)c12 (3D coordinates assigned)
[H]/N=c1\[n-]ccn2c(C3CCC3)nc(-c3c(F)cccc3Oc3ccccc3)c12 (nonaromatic ring conformer: 165.9721340742408 kcal/mol)

>  <smiles>  (20) 
N=c1[nH]ccn2c(C3CCC3)nc(-c3c(F)cccc3Oc3ccccc3)c12

>  <score_type>  (20) 
oracle

>  <origin>  (20) 
adgpu

>  <m_score__min__energy>  (20) 
-11.18

>  <m_primary>  (20) 
energy

$$$$
20:0
     RDKit          3D

 53 55  0  0  1  0  0  0  0  0999 V2000
   -9.4600   23.5540  -32.3550 C   0  0  0  0  0  0  0  0  0  0  0  0
   -8.9960   22.6580  -31.3410 O   0  0  0  0  0  0  0  0  0  0  0  0
   -8.0550   21.6940  -31.6760 C   0  0  0  0  0  0  0  0  0  0  0  0
   -8.4300   20.4100  -31.9660 C   0  0  0  0  0  0  0  0  0  0  0  0
   -7.4410   19.5080  -32.2890 C   0  0  0  0  0  0  0  0  0  0  0  0
   -6.1020   19.8170  -32.3380 C   0  0  0  0  0  0  0  0  0  0  0  0
   -5.0240   18.8880  -32.6750 C   0  0  1  0  0  0  0  0  0  0  0  0
   -5.3350   17.4740  -32.9020 C   0  0  0  0  0  0  0  0  0  0  0  0
   -4.0530   19.4410  -33.6260 N   0  0  0  0  0  0  0  0  0  0  0  0
   -3.0220   20.0960  -33.2950 C   0  0  0  0  0  0  0  0  0  0  0  0
   -2.7390   20.3350  -31.9720 C   0  0  0  0  0  0  0  0  0  0  0  0
   -1.6210   21.0450  -31.5980 C   0  0  0  0  0  0  0  0  0  0  0  0
   -1.2710   21.3290  -30.2140 C   0  0  0  0  0  0  0  0  0  0  0  0
   -0.9750   20.2640  -29.3880 C   0  0  0  0  0  0  0  0  0  0  0  0
   -0.6330   20.4760  -28.0530 C   0  0  0  0  0  0  0  0  0  0  0  0
   -0.5900   21.7590  -27.5450 C   0  0  0  0  0  0  0  0  0  0  0  0
   -0.8820   22.8350  -28.3540 C   0  0  0  0  0  0  0  0  0  0  0  0
   -0.8460   24.4890  -27.7790 Cl  0  0  0  0  0  0  0  0  0  0  0  0
   -1.2210   22.6000  -29.6840 C   0  0  0  0  0  0  0  0  0  0  0  0
   -0.8060   21.5020  -32.5640 N   0  0  0  0  0  0  0  0  0  0  0  0
   -1.0710   21.2750  -33.8640 C   0  0  0  0  0  0  0  0  0  0  0  0
   -0.1180   21.8150  -34.8720 C   0  0  0  0  0  0  0  0  0  0  0  0
   -2.1670   20.5790  -34.2210 N   0  0  0  0  0  0  0  0  0  0  0  0
   -5.7400   21.1300  -32.0380 C   0  0  0  0  0  0  0  0  0  0  0  0
   -6.7090   22.0540  -31.7110 C   0  0  0  0  0  0  0  0  0  0  0  0
   -6.3760   23.4020  -31.4010 N   0  0  0  0  0  0  0  0  0  0  0  0
   -4.8170   23.7870  -30.7240 S   0  0  0  0  0  0  0  0  0  0  0  0
   -4.6310   23.1910  -29.0860 C   0  0  0  0  0  0  0  0  0  0  0  0
   -4.5460   25.2590  -30.8400 O   0  0  0  0  0  0  0  0  0  0  0  0
   -3.8150   23.0930  -31.6090 O   0  0  0  0  0  0  0  0  0  0  0  0
   -9.9170   24.4365  -31.8834 H   0  0  0  0  0  0  0  0  0  0  0  0
   -8.6124   23.8703  -32.9807 H   0  0  0  0  0  0  0  0  0  0  0  0
  -10.2075   23.0443  -32.9807 H   0  0  0  0  0  0  0  0  0  0  0  0
   -9.4875   20.1083  -31.9418 H   0  0  0  0  0  0  0  0  0  0  0  0
   -7.7408   18.4757  -32.5224 H   0  0  0  0  0  0  0  0  0  0  0  0
   -4.5316   18.8071  -31.6947 H   0  0  0  0  0  0  0  0  0  0  0  0
   -5.4473   16.9633  -31.9342 H   0  0  0  0  0  0  0  0  0  0  0  0
   -6.2727   17.3916  -33.4711 H   0  0  0  0  0  0  0  0  0  0  0  0
   -4.5184   17.0057  -33.4711 H   0  0  0  0  0  0  0  0  0  0  0  0
   -3.4189   19.9516  -31.1970 H   0  0  0  0  0  0  0  0  0  0  0  0
   -1.0091   19.2391  -29.7861 H   0  0  0  0  0  0  0  0  0  0  0  0
   -0.3972   19.6199  -27.4037 H   0  0  0  0  0  0  0  0  0  0  0  0
   -0.3217   21.9225  -26.4908 H   0  0  0  0  0  0  0  0  0  0  0  0
   -1.4565   23.4567  -30.3325 H   0  0  0  0  0  0  0  0  0  0  0  0
    0.7277   22.2942  -34.3572 H   0  0  0  0  0  0  0  0  0  0  0  0
    0.2540   20.9935  -35.5019 H   0  0  0  0  0  0  0  0  0  0  0  0
   -0.6315   22.5563  -35.5019 H   0  0  0  0  0  0  0  0  0  0  0  0
   -2.3230   20.4330  -35.2280 H   0  0  0  0  0  0  0  0  0  0  0  0
   -4.6814   21.4281  -32.0623 H   0  0  0  0  0  0  0  0  0  0  0  0
   -7.0290   24.1760  -31.5620 H   0  0  0  0  0  0  0  0  0  0  0  0
   -4.8808   23.9914  -28.3740 H   0  0  0  0  0  0  0  0  0  0  0  0
   -5.3051   22.3362  -28.9281 H   0  0  0  0  0  0  0  0  0  0  0  0
   -3.5904   22.8714  -28.9281 H   0  0  0  0  0  0  0  0  0  0  0  0
  1  2  1  0
  2  3  1  0
  3  4  2  0
  4  5  1  0
  5  6  2  0
  6  7  1  0
  7  8  1  0
  7  9  1  0
  9 10  2  0
 10 11  1  0
 11 12  2  0
 12 13  1  0
 13 14  2  0
 14 15  1  0
 15 16  2  0
 16 17  1  0
 17 18  1  0
 17 19  2  0
 12 20  1  0
 20 21  2  0
 21 22  1  0
 21 23  1  0
  6 24  1  0
 24 25  2  0
 25 26  1  0
 26 27  1  0
 27 28  1  0
 27 29  2  0
 27 30  2  0
 25  3  1  0
 23 10  1  0
 19 13  1  0
  1 31  1  0
  1 32  1  0
  1 33  1  0
  4 34  1  0
  5 35  1  0
  7 36  1  1
  8 37  1  0
  8 38  1  0
  8 39  1  0
 11 40  1  0
 14 41  1  0
 15 42  1  0
 16 43  1  0
 19 44  1  0
 22 45  1  0
 22 46  1  0
 22 47  1  0
 23 48  1  0
 24 49  1  0
 26 50  1  0
 28 51  1  0
 28 52  1  0
 28 53  1  0
M  END
>  <smiles>  (21) 
COc1ccc(C(C)N=c2cc(-c3cccc(Cl)c3)nc(C)[nH]2)cc1NS(C)(=O)=O

>  <score_type>  (21) 
oracle

>  <origin>  (21) 
adgpu

>  <m_score__min__energy>  (21) 
-9.8800000000000008

>  <m_primary>  (21) 
energy

$$$$
21:0
     RDKit          3D

 44 47  0  0  0  0  0  0  0  0999 V2000
   -6.7790   16.2640  -33.8500 F   0  0  0  0  0  0  0  0  0  0  0  0
   -6.8360   17.5600  -33.4550 C   0  0  0  0  0  0  0  0  0  0  0  0
   -6.0700   18.5270  -34.1140 C   0  0  0  0  0  0  0  0  0  0  0  0
   -6.1270   19.8640  -33.7080 C   0  0  0  0  0  0  0  0  0  0  0  0
   -6.9540   20.2460  -32.6380 C   0  0  0  0  0  0  0  0  0  0  0  0
   -7.0100   21.6580  -32.2130 C   0  0  0  0  0  0  0  0  0  0  0  0
   -8.1440   22.3170  -31.9020 N   0  0  0  0  0  0  0  0  0  0  0  0
   -7.7820   23.5460  -31.5680 N   0  0  0  0  0  0  0  0  0  0  0  0
   -6.4410   23.5890  -31.6900 C   0  0  0  0  0  0  0  0  0  0  0  0
   -5.6010   24.8010  -31.3930 C   0  0  0  0  0  0  0  0  0  0  0  0
   -4.5420   24.5460  -30.3940 N   0  0  0  0  0  0  0  0  0  0  0  0
   -5.0540   24.5550  -29.0030 C   0  0  0  0  0  0  0  0  0  0  0  0
   -4.0730   23.9120  -28.0010 C   0  0  0  0  0  0  0  0  0  0  0  0
   -2.7030   23.9190  -28.5280 N   0  0  0  0  0  0  0  0  0  0  0  0
   -1.6020   24.3100  -27.6880 C   0  0  0  0  0  0  0  0  0  0  0  0
   -1.1860   23.4810  -26.6320 C   0  0  0  0  0  0  0  0  0  0  0  0
   -0.1140   23.8590  -25.8180 C   0  0  0  0  0  0  0  0  0  0  0  0
    0.5550   25.0630  -26.0550 C   0  0  0  0  0  0  0  0  0  0  0  0
    0.1550   25.8900  -27.1080 C   0  0  0  0  0  0  0  0  0  0  0  0
   -0.9180   25.5180  -27.9250 C   0  0  0  0  0  0  0  0  0  0  0  0
   -1.2690   26.3160  -28.9650 F   0  0  0  0  0  0  0  0  0  0  0  0
   -2.4440   23.4070  -29.8790 C   0  0  0  0  0  0  0  0  0  0  0  0
   -3.7370   23.3490  -30.6940 C   0  0  0  0  0  0  0  0  0  0  0  0
   -5.9620   22.4360  -32.0860 O   0  0  0  0  0  0  0  0  0  0  0  0
   -7.7210   19.2680  -31.9810 C   0  0  0  0  0  0  0  0  0  0  0  0
   -7.6610   17.9310  -32.3900 C   0  0  0  0  0  0  0  0  0  0  0  0
   -5.4215   18.2353  -34.9532 H   0  0  0  0  0  0  0  0  0  0  0  0
   -5.5215   20.6204  -34.2288 H   0  0  0  0  0  0  0  0  0  0  0  0
   -5.1266   25.1349  -32.3276 H   0  0  0  0  0  0  0  0  0  0  0  0
   -6.2695   25.5664  -30.9720 H   0  0  0  0  0  0  0  0  0  0  0  0
   -5.2321   25.5976  -28.7007 H   0  0  0  0  0  0  0  0  0  0  0  0
   -5.9802   23.9617  -28.9870 H   0  0  0  0  0  0  0  0  0  0  0  0
   -4.0987   24.4785  -27.0584 H   0  0  0  0  0  0  0  0  0  0  0  0
   -4.3782   22.8688  -27.8321 H   0  0  0  0  0  0  0  0  0  0  0  0
   -1.7064   22.5301  -26.4451 H   0  0  0  0  0  0  0  0  0  0  0  0
    0.2033   23.2080  -24.9900 H   0  0  0  0  0  0  0  0  0  0  0  0
    1.3969   25.3598  -25.4123 H   0  0  0  0  0  0  0  0  0  0  0  0
    0.6850   26.8356  -27.2949 H   0  0  0  0  0  0  0  0  0  0  0  0
   -1.7278   24.0709  -30.3853 H   0  0  0  0  0  0  0  0  0  0  0  0
   -2.0318   22.3904  -29.7982 H   0  0  0  0  0  0  0  0  0  0  0  0
   -3.4967   23.3246  -31.7672 H   0  0  0  0  0  0  0  0  0  0  0  0
   -4.3031   22.4429  -30.4324 H   0  0  0  0  0  0  0  0  0  0  0  0
   -8.3713   19.5550  -31.1415 H   0  0  0  0  0  0  0  0  0  0  0  0
   -8.2643   17.1708  -31.8722 H   0  0  0  0  0  0  0  0  0  0  0  0
  1  2  1  0
  2  3  2  0
  3  4  1  0
  4  5  2  0
  5  6  1  0
  6  7  2  0
  7  8  1  0
  8  9  2  0
  9 10  1  0
 10 11  1  0
 11 12  1  0
 12 13  1  0
 13 14  1  0
 14 15  1  0
 15 16  2  0
 16 17  1  0
 17 18  2  0
 18 19  1  0
 19 20  2  0
 20 21  1  0
 14 22  1  0
 22 23  1  0
  9 24  1  0
  5 25  1  0
 25 26  2  0
 26  2  1  0
 24  6  1  0
 23 11  1  0
 20 15  1  0
  3 27  1  0
  4 28  1  0
 10 29  1  0
 10 30  1  0
 12 31  1  0
 12 32  1  0
 13 33  1  0
 13 34  1  0
 16 35  1  0
 17 36  1  0
 18 37  1  0
 19 38  1  0
 22 39  1  0
 22 40  1  0
 23 41  1  0
 23 42  1  0
 25 43  1  0
 26 44  1  0
M  END
>  <UniqueID>  (22) 
17

>  <SMILES>  (22) 
Fc1ccc(-c2nnc(CN3CCN(c4ccccc4F)CC3)o2)cc1

>  <Energy>  (22) 
94.00071688252704

>  <Genealogy>  (22) 
Fc1ccc(-c2nnc(CN3CCN(c4ccccc4F)CC3)o2)cc1 (3D coordinates assigned)
Fc1ccc(-c2nnc(CN3CCN(c4ccccc4F)CC3)o2)cc1 (nonaromatic ring conformer: 94.00071688252704 kcal/mol)

>  <smiles>  (22) 
Fc1ccc(-c2nnc(CN3CCN(c4ccccc4F)CC3)o2)cc1

>  <score_type>  (22) 
oracle

>  <origin>  (22) 
adgpu

>  <m_score__min__energy>  (22) 
-8.6199999999999992

>  <m_primary>  (22) 
energy

$$$$
22:0
     RDKit          3D

 31 32  0  0  0  0  0  0  0  0999 V2000
   -5.7090   18.4630  -34.9580 C   0  0  0  0  0  0  0  0  0  0  0  0
   -6.3640   18.0460  -33.7120 N   0  0  0  0  0  0  0  0  0  0  0  0
   -6.2060   16.6580  -33.2590 C   0  0  0  0  0  0  0  0  0  0  0  0
   -7.1590   18.9900  -32.9450 C   0  0  0  0  0  0  0  0  0  0  0  0
   -8.2310   18.5480  -32.1420 C   0  0  0  0  0  0  0  0  0  0  0  0
   -9.0010   19.4590  -31.4150 C   0  0  0  0  0  0  0  0  0  0  0  0
   -8.7110   20.8230  -31.4670 C   0  0  0  0  0  0  0  0  0  0  0  0
   -7.6420   21.2880  -32.2350 C   0  0  0  0  0  0  0  0  0  0  0  0
   -7.3890   22.6680  -32.2690 O   0  0  0  0  0  0  0  0  0  0  0  0
   -6.2950   23.3080  -31.6690 C   0  0  0  0  0  0  0  0  0  0  0  0
   -5.0270   22.7020  -31.5910 C   0  0  0  0  0  0  0  0  0  0  0  0
   -3.9660   23.3690  -30.9710 C   0  0  0  0  0  0  0  0  0  0  0  0
   -4.1640   24.6350  -30.4120 C   0  0  0  0  0  0  0  0  0  0  0  0
   -3.1090   25.2960  -29.7960 O   0  0  0  0  0  0  0  0  0  0  0  0
   -5.4270   25.2330  -30.4690 C   0  0  0  0  0  0  0  0  0  0  0  0
   -6.4890   24.5680  -31.0900 C   0  0  0  0  0  0  0  0  0  0  0  0
   -6.8810   20.3740  -32.9870 C   0  0  0  0  0  0  0  0  0  0  0  0
   -4.8029   19.0398  -34.7207 H   0  0  0  0  0  0  0  0  0  0  0  0
   -5.4343   17.5732  -35.5434 H   0  0  0  0  0  0  0  0  0  0  0  0
   -6.3990   19.0884  -35.5434 H   0  0  0  0  0  0  0  0  0  0  0  0
   -6.2027   16.6293  -32.1594 H   0  0  0  0  0  0  0  0  0  0  0  0
   -7.0408   16.0509  -33.6392 H   0  0  0  0  0  0  0  0  0  0  0  0
   -5.2561   16.2541  -33.6392 H   0  0  0  0  0  0  0  0  0  0  0  0
   -8.4632   17.4742  -32.0876 H   0  0  0  0  0  0  0  0  0  0  0  0
   -9.8389   19.0999  -30.7994 H   0  0  0  0  0  0  0  0  0  0  0  0
   -9.3280   21.5355  -30.8999 H   0  0  0  0  0  0  0  0  0  0  0  0
   -4.8703   21.7009  -32.0190 H   0  0  0  0  0  0  0  0  0  0  0  0
   -2.9737   22.8968  -30.9230 H   0  0  0  0  0  0  0  0  0  0  0  0
   -5.5851   26.2270  -30.0251 H   0  0  0  0  0  0  0  0  0  0  0  0
   -7.4831   25.0378  -31.1238 H   0  0  0  0  0  0  0  0  0  0  0  0
   -6.0578   20.7428  -33.6166 H   0  0  0  0  0  0  0  0  0  0  0  0
  1  2  1  0
  2  3  1  0
  2  4  1  0
  4  5  2  0
  5  6  1  0
  6  7  2  0
  7  8  1  0
  8  9  1  0
  9 10  1  0
 10 11  2  0
 11 12  1  0
 12 13  2  0
 13 14  1  0
 13 15  1  0
 15 16  2  0
  8 17  2  0
 17  4  1  0
 16 10  1  0
  1 18  1  0
  1 19  1  0
  1 20  1  0
  3 21  1  0
  3 22  1  0
  3 23  1  0
  5 24  1  0
  6 25  1  0
  7 26  1  0
 11 27  1  0
 12 28  1  0
 15 29  1  0
 16 30  1  0
 17 31  1  0
M  CHG  1  14  -1
M  END
>  <UniqueID>  (23) 
18

>  <SMILES>  (23) 
CN(C)c1cccc(Oc2ccc([O-])cc2)c1

>  <Energy>  (23) 
39.22922700909956

>  <Genealogy>  (23) 
CN(C)c1cccc(Oc2ccc([O-])cc2)c1 (protonated)
CN(C)c1cccc(Oc2ccc([O-])cc2)c1 (3D coordinates assigned)
CN(C)c1cccc(Oc2ccc([O-])cc2)c1 (optimized conformer: 39.22922700909956 kcal/mol)

>  <smiles>  (23) 
CN(C)c1cccc(Oc2ccc(O)cc2)c1

>  <score_type>  (23) 
oracle

>  <origin>  (23) 
adgpu

>  <m_score__min__energy>  (23) 
-9.9800000000000004

>  <m_primary>  (23) 
energy

$$$$
23:0
     RDKit          3D

 32 34  0  0  0  0  0  0  0  0999 V2000
   -6.5690   12.3480  -34.5500 O   0  0  0  0  0  0  0  0  0  0  0  0
   -6.3060   13.6510  -34.1470 C   0  0  0  0  0  0  0  0  0  0  0  0
   -5.2250   13.9170  -33.3010 C   0  0  0  0  0  0  0  0  0  0  0  0
   -4.9580   15.2280  -32.8940 C   0  0  0  0  0  0  0  0  0  0  0  0
   -5.7710   16.2910  -33.3320 C   0  0  0  0  0  0  0  0  0  0  0  0
   -5.4880   17.6830  -32.9010 C   0  0  0  0  0  0  0  0  0  0  0  0
   -6.4930   18.4660  -32.3060 C   0  0  0  0  0  0  0  0  0  0  0  0
   -6.2270   19.7770  -31.9020 C   0  0  0  0  0  0  0  0  0  0  0  0
   -4.9510   20.3360  -32.0830 C   0  0  0  0  0  0  0  0  0  0  0  0
   -4.6680   21.7300  -31.6540 C   0  0  0  0  0  0  0  0  0  0  0  0
   -3.4560   22.0500  -31.0140 C   0  0  0  0  0  0  0  0  0  0  0  0
   -3.1920   23.3630  -30.6100 C   0  0  0  0  0  0  0  0  0  0  0  0
   -4.1320   24.3700  -30.8420 C   0  0  0  0  0  0  0  0  0  0  0  0
   -3.8680   25.6740  -30.4410 O   0  0  0  0  0  0  0  0  0  0  0  0
   -5.3390   24.0640  -31.4770 C   0  0  0  0  0  0  0  0  0  0  0  0
   -5.6080   22.7530  -31.8820 C   0  0  0  0  0  0  0  0  0  0  0  0
   -3.9450   19.5540  -32.6780 C   0  0  0  0  0  0  0  0  0  0  0  0
   -4.2110   18.2430  -33.0830 C   0  0  0  0  0  0  0  0  0  0  0  0
   -6.8550   16.0110  -34.1850 C   0  0  0  0  0  0  0  0  0  0  0  0
   -7.1190   14.6980  -34.5880 C   0  0  0  0  0  0  0  0  0  0  0  0
   -4.5833   13.0934  -32.9549 H   0  0  0  0  0  0  0  0  0  0  0  0
   -4.1069   15.4302  -32.2271 H   0  0  0  0  0  0  0  0  0  0  0  0
   -7.4974   18.0428  -32.1572 H   0  0  0  0  0  0  0  0  0  0  0  0
   -7.0240   20.3767  -31.4381 H   0  0  0  0  0  0  0  0  0  0  0  0
   -2.7109   21.2619  -30.8302 H   0  0  0  0  0  0  0  0  0  0  0  0
   -2.2427   23.6029  -30.1088 H   0  0  0  0  0  0  0  0  0  0  0  0
   -6.0795   24.8569  -31.6587 H   0  0  0  0  0  0  0  0  0  0  0  0
   -6.5597   22.5195  -32.3817 H   0  0  0  0  0  0  0  0  0  0  0  0
   -2.9406   19.9775  -32.8259 H   0  0  0  0  0  0  0  0  0  0  0  0
   -3.4143   17.6439  -33.5482 H   0  0  0  0  0  0  0  0  0  0  0  0
   -7.4989   16.8304  -34.5371 H   0  0  0  0  0  0  0  0  0  0  0  0
   -7.9691   14.4891  -35.2541 H   0  0  0  0  0  0  0  0  0  0  0  0
  1  2  1  0
  2  3  2  0
  3  4  1  0
  4  5  2  0
  5  6  1  0
  6  7  2  0
  7  8  1  0
  8  9  2  0
  9 10  1  0
 10 11  2  0
 11 12  1  0
 12 13  2  0
 13 14  1  0
 13 15  1  0
 15 16  2  0
  9 17  1  0
 17 18  2  0
  5 19  1  0
 19 20  2  0
 20  2  1  0
 18  6  1  0
 16 10  1  0
  3 21  1  0
  4 22  1  0
  7 23  1  0
  8 24  1  0
 11 25  1  0
 12 26  1  0
 15 27  1  0
 16 28  1  0
 17 29  1  0
 18 30  1  0
 19 31  1  0
 20 32  1  0
M  CHG  2   1  -1  14  -1
M  END
>  <UniqueID>  (24) 
19

>  <SMILES>  (24) 
[O-]c1ccc(-c2ccc(-c3ccc([O-])cc3)cc2)cc1

>  <Energy>  (24) 
45.868445759237076

>  <Genealogy>  (24) 
[O-]c1ccc(-c2ccc(-c3ccc([O-])cc3)cc2)cc1 (protonated)
[O-]c1ccc(-c2ccc(-c3ccc([O-])cc3)cc2)cc1 (3D coordinates assigned)
[O-]c1ccc(-c2ccc(-c3ccc([O-])cc3)cc2)cc1 (optimized conformer: 45.868445759237076 kcal/mol)

>  <smiles>  (24) 
Oc1ccc(-c2ccc(-c3ccc(O)cc3)cc2)cc1

>  <score_type>  (24) 
oracle

>  <origin>  (24) 
adgpu

>  <m_score__min__energy>  (24) 
-9.4199999999999999

>  <m_primary>  (24) 
energy

$$$$
24:0
     RDKit          3D

 56 59  0  0  0  0  0  0  0  0999 V2000
   -3.0420   16.2330  -34.7960 C   0  0  0  0  0  0  0  0  0  0  0  0
   -4.2900   16.6800  -34.0940 C   0  0  0  0  0  0  0  0  0  0  0  0
   -5.2470   17.4480  -34.7750 C   0  0  0  0  0  0  0  0  0  0  0  0
   -6.4260   17.8350  -34.1320 C   0  0  0  0  0  0  0  0  0  0  0  0
   -6.6750   17.4400  -32.8080 C   0  0  0  0  0  0  0  0  0  0  0  0
   -7.9260   17.8900  -32.1030 C   0  0  0  0  0  0  0  0  0  0  0  0
   -8.4840   19.0790  -32.7500 N   0  0  0  0  0  0  0  0  0  0  0  0
   -8.0400   20.4170  -32.4580 C   0  0  0  0  0  0  0  0  0  0  0  0
   -8.9560   21.3460  -31.9380 C   0  0  0  0  0  0  0  0  0  0  0  0
   -8.5540   22.6540  -31.6480 C   0  0  0  0  0  0  0  0  0  0  0  0
   -7.2360   23.0480  -31.8770 C   0  0  0  0  0  0  0  0  0  0  0  0
   -6.3140   22.1380  -32.4050 C   0  0  0  0  0  0  0  0  0  0  0  0
   -4.6260   22.6550  -32.7160 S   0  0  0  0  0  0  0  0  0  0  0  0
   -4.1320   22.4280  -31.0010 C   0  0  0  0  0  0  0  0  0  0  0  0
   -4.6990   23.2630  -30.0300 C   0  0  0  0  0  0  0  0  0  0  0  0
   -4.3780   23.1010  -28.6810 C   0  0  0  0  0  0  0  0  0  0  0  0
   -3.4840   22.1020  -28.2920 C   0  0  0  0  0  0  0  0  0  0  0  0
   -2.9060   21.2680  -29.2510 C   0  0  0  0  0  0  0  0  0  0  0  0
   -3.2190   21.4220  -30.6130 C   0  0  0  0  0  0  0  0  0  0  0  0
   -2.5900   20.5630  -31.5830 N   0  0  0  0  0  0  0  0  0  0  0  0
   -1.1620   20.7060  -31.8810 C   0  0  0  0  0  0  0  0  0  0  0  0
   -0.9550   21.2070  -33.3250 C   0  0  0  0  0  0  0  0  0  0  0  0
   -2.0840   20.8830  -34.2250 N   0  0  0  0  0  0  0  0  0  0  0  0
   -2.7490   19.6220  -33.8620 C   0  0  0  0  0  0  0  0  0  0  0  0
   -3.4190   19.7520  -32.4860 C   0  0  0  0  0  0  0  0  0  0  0  0
   -6.7100   20.8230  -32.6820 C   0  0  0  0  0  0  0  0  0  0  0  0
   -5.7170   16.6710  -32.1280 C   0  0  0  0  0  0  0  0  0  0  0  0
   -4.5380   16.2850  -32.7710 C   0  0  0  0  0  0  0  0  0  0  0  0
   -2.2800   15.9601  -34.0511 H   0  0  0  0  0  0  0  0  0  0  0  0
   -3.2683   15.3600  -35.4259 H   0  0  0  0  0  0  0  0  0  0  0  0
   -2.6625   17.0511  -35.4259 H   0  0  0  0  0  0  0  0  0  0  0  0
   -5.0685   17.7464  -35.8186 H   0  0  0  0  0  0  0  0  0  0  0  0
   -7.1630   18.4525  -34.6663 H   0  0  0  0  0  0  0  0  0  0  0  0
   -8.6693   17.0797  -32.1335 H   0  0  0  0  0  0  0  0  0  0  0  0
   -7.6755   18.1384  -31.0611 H   0  0  0  0  0  0  0  0  0  0  0  0
   -9.2360   18.9550  -33.4670 H   0  0  0  0  0  0  0  0  0  0  0  0
   -9.9978   21.0426  -31.7574 H   0  0  0  0  0  0  0  0  0  0  0  0
   -9.2788   23.3731  -31.2386 H   0  0  0  0  0  0  0  0  0  0  0  0
   -6.9210   24.0755  -31.6422 H   0  0  0  0  0  0  0  0  0  0  0  0
   -5.4026   24.0525  -30.3326 H   0  0  0  0  0  0  0  0  0  0  0  0
   -4.8294   23.7603  -27.9250 H   0  0  0  0  0  0  0  0  0  0  0  0
   -3.2346   21.9717  -27.2286 H   0  0  0  0  0  0  0  0  0  0  0  0
   -2.2002   20.4843  -28.9385 H   0  0  0  0  0  0  0  0  0  0  0  0
   -0.7174   21.4284  -31.1807 H   0  0  0  0  0  0  0  0  0  0  0  0
   -0.6779   19.7241  -31.7741 H   0  0  0  0  0  0  0  0  0  0  0  0
   -0.8303   22.2996  -33.3009 H   0  0  0  0  0  0  0  0  0  0  0  0
   -0.0652   20.6967  -33.7222 H   0  0  0  0  0  0  0  0  0  0  0  0
   -1.7260   20.8060  -35.2050 H   0  0  0  0  0  0  0  0  0  0  0  0
   -2.7840   21.6620  -34.2000 H   0  0  0  0  0  0  0  0  0  0  0  0
   -3.5128   19.3837  -34.6169 H   0  0  0  0  0  0  0  0  0  0  0  0
   -1.9980   18.8193  -33.8209 H   0  0  0  0  0  0  0  0  0  0  0  0
   -4.4008   20.2333  -32.6057 H   0  0  0  0  0  0  0  0  0  0  0  0
   -3.5385   18.7480  -32.0528 H   0  0  0  0  0  0  0  0  0  0  0  0
   -5.9778   20.1032  -33.0768 H   0  0  0  0  0  0  0  0  0  0  0  0
   -5.8954   16.3712  -31.0848 H   0  0  0  0  0  0  0  0  0  0  0  0
   -3.8004   15.6681  -32.2369 H   0  0  0  0  0  0  0  0  0  0  0  0
  1  2  1  0
  2  3  2  0
  3  4  1  0
  4  5  2  0
  5  6  1  0
  6  7  1  0
  7  8  1  0
  8  9  2  0
  9 10  1  0
 10 11  2  0
 11 12  1  0
 12 13  1  0
 13 14  1  0
 14 15  2  0
 15 16  1  0
 16 17  2  0
 17 18  1  0
 18 19  2  0
 19 20  1  0
 20 21  1  0
 21 22  1  0
 22 23  1  0
 23 24  1  0
 24 25  1  0
 12 26  2  0
  5 27  1  0
 27 28  2  0
 28  2  1  0
 26  8  1  0
 19 14  1  0
 25 20  1  0
  1 29  1  0
  1 30  1  0
  1 31  1  0
  3 32  1  0
  4 33  1  0
  6 34  1  0
  6 35  1  0
  7 36  1  0
  9 37  1  0
 10 38  1  0
 11 39  1  0
 15 40  1  0
 16 41  1  0
 17 42  1  0
 18 43  1  0
 21 44  1  0
 21 45  1  0
 22 46  1  0
 22 47  1  0
 23 48  1  0
 23 49  1  0
 24 50  1  0
 24 51  1  0
 25 52  1  0
 25 53  1  0
 26 54  1  0
 27 55  1  0
 28 56  1  0
M  CHG  1  23   1
M  END
>  <UniqueID>  (25) 
20

>  <SMILES>  (25) 
Cc1ccc(CNc2cccc(Sc3ccccc3N3CC[NH2+]CC3)c2)cc1

>  <Energy>  (25) 
62.30603733863383

>  <Genealogy>  (25) 
Cc1ccc(CNc2cccc(Sc3ccccc3N3CC[NH2+]CC3)c2)cc1 (protonated)
Cc1ccc(CNc2cccc(Sc3ccccc3N3CC[NH2+]CC3)c2)cc1 (3D coordinates assigned)
Cc1ccc(CNc2cccc(Sc3ccccc3N3CC[NH2+]CC3)c2)cc1 (nonaromatic ring conformer: 62.30603733863383 kcal/mol)

>  <smiles>  (25) 
Cc1ccc(CNc2cccc(Sc3ccccc3N3CCNCC3)c2)cc1

>  <score_type>  (25) 
oracle

>  <origin>  (25) 
adgpu

>  <m_score__min__energy>  (25) 
-9.8200000000000003

>  <m_primary>  (25) 
energy

$$$$
25:0
     RDKit          3D

 47 49  0  0  0  0  0  0  0  0999 V2000
   -3.1780   22.7320  -30.4070 C   0  0  0  0  0  0  0  0  0  0  0  0
   -2.8070   21.6030  -29.6740 C   0  0  0  0  0  0  0  0  0  0  0  0
   -3.1220   21.5040  -28.3070 C   0  0  0  0  0  0  0  0  0  0  0  0
   -2.7430   20.2930  -27.5400 C   0  0  0  0  0  0  0  0  0  0  0  0
   -1.6150   19.6810  -27.6730 N   0  0  0  0  0  0  0  0  0  0  0  0
   -1.5300   18.5490  -26.7610 C   0  0  0  0  0  0  0  0  0  0  0  0
   -2.8760   18.5450  -26.0220 C   0  0  0  0  0  0  0  0  0  0  0  0
   -3.5750   19.7010  -26.5560 N   0  0  0  0  0  0  0  0  0  0  0  0
   -3.8000   22.5700  -27.6890 C   0  0  0  0  0  0  0  0  0  0  0  0
   -4.1730   23.7000  -28.4240 C   0  0  0  0  0  0  0  0  0  0  0  0
   -3.8760   23.7820  -29.8000 C   0  0  0  0  0  0  0  0  0  0  0  0
   -4.2410   24.8780  -30.5990 O   0  0  0  0  0  0  0  0  0  0  0  0
   -5.5190   25.1040  -31.1990 C   0  0  0  0  0  0  0  0  0  0  0  0
   -5.9950   23.8600  -31.9650 C   0  0  0  0  0  0  0  0  0  0  0  0
   -7.4110   23.4260  -31.5750 C   0  0  0  0  0  0  0  0  0  0  0  0
   -7.3590   22.1470  -30.8300 N   0  0  0  0  0  0  0  0  0  0  0  0
   -8.6640   21.4540  -30.8060 C   0  0  0  0  0  0  0  0  0  0  0  0
   -9.0560   20.9050  -32.1940 C   0  0  0  0  0  0  0  0  0  0  0  0
   -7.8480   20.3950  -33.0000 C   0  0  0  0  0  0  0  0  0  0  0  0
   -6.6760   20.0420  -32.0860 C   0  0  0  0  0  0  0  0  0  0  0  0
   -6.2380   21.2620  -31.2490 C   0  0  0  0  0  0  0  0  0  0  0  0
   -2.9186   22.7968  -31.4740 H   0  0  0  0  0  0  0  0  0  0  0  0
   -2.2641   20.7847  -30.1696 H   0  0  0  0  0  0  0  0  0  0  0  0
   -0.8410   19.9720  -28.3130 H   0  0  0  0  0  0  0  0  0  0  0  0
   -1.3902   17.6110  -27.3183 H   0  0  0  0  0  0  0  0  0  0  0  0
   -0.6762   18.6314  -26.0723 H   0  0  0  0  0  0  0  0  0  0  0  0
   -3.4338   17.6202  -26.2309 H   0  0  0  0  0  0  0  0  0  0  0  0
   -2.7585   18.5895  -24.9292 H   0  0  0  0  0  0  0  0  0  0  0  0
   -4.5670   19.9510  -26.3350 H   0  0  0  0  0  0  0  0  0  0  0  0
   -4.0393   22.5145  -26.6168 H   0  0  0  0  0  0  0  0  0  0  0  0
   -4.6999   24.5277  -27.9268 H   0  0  0  0  0  0  0  0  0  0  0  0
   -6.2490   25.3428  -30.4115 H   0  0  0  0  0  0  0  0  0  0  0  0
   -5.4304   25.9400  -31.9084 H   0  0  0  0  0  0  0  0  0  0  0  0
   -5.9805   24.0840  -33.0419 H   0  0  0  0  0  0  0  0  0  0  0  0
   -5.3144   23.0344  -31.7096 H   0  0  0  0  0  0  0  0  0  0  0  0
   -7.8677   24.1996  -30.9402 H   0  0  0  0  0  0  0  0  0  0  0  0
   -8.0120   23.2902  -32.4862 H   0  0  0  0  0  0  0  0  0  0  0  0
   -8.6073   20.6156  -30.0962 H   0  0  0  0  0  0  0  0  0  0  0  0
   -9.4291   22.1835  -30.5021 H   0  0  0  0  0  0  0  0  0  0  0  0
   -9.7620   20.0729  -32.0556 H   0  0  0  0  0  0  0  0  0  0  0  0
   -9.5052   21.7333  -32.7615 H   0  0  0  0  0  0  0  0  0  0  0  0
   -8.1461   19.4977  -33.5622 H   0  0  0  0  0  0  0  0  0  0  0  0
   -7.5253   21.1947  -33.6829 H   0  0  0  0  0  0  0  0  0  0  0  0
   -6.9808   19.2315  -31.4076 H   0  0  0  0  0  0  0  0  0  0  0  0
   -5.8284   19.7244  -32.7111 H   0  0  0  0  0  0  0  0  0  0  0  0
   -5.7306   20.8958  -30.3443 H   0  0  0  0  0  0  0  0  0  0  0  0
   -5.5801   21.8665  -31.8906 H   0  0  0  0  0  0  0  0  0  0  0  0
  1  2  2  0
  2  3  1  0
  3  4  1  0
  4  5  2  0
  5  6  1  0
  6  7  1  0
  7  8  1  0
  3  9  2  0
  9 10  1  0
 10 11  2  0
 11 12  1  0
 12 13  1  0
 13 14  1  0
 14 15  1  0
 15 16  1  0
 16 17  1  0
 17 18  1  0
 18 19  1  0
 19 20  1  0
 20 21  1  0
 11  1  1  0
 21 16  1  0
  8  4  1  0
  1 22  1  0
  2 23  1  0
  5 24  1  0
  6 25  1  0
  6 26  1  0
  7 27  1  0
  7 28  1  0
  8 29  1  0
  9 30  1  0
 10 31  1  0
 13 32  1  0
 13 33  1  0
 14 34  1  0
 14 35  1  0
 15 36  1  0
 15 37  1  0
 17 38  1  0
 17 39  1  0
 18 40  1  0
 18 41  1  0
 19 42  1  0
 19 43  1  0
 20 44  1  0
 20 45  1  0
 21 46  1  0
 21 47  1  0
M  CHG  1   5   1
M  END
>  <UniqueID>  (26) 
21

>  <SMILES>  (26) 
c1cc(C2=[NH+]CCN2)ccc1OCCCN1CCCCC1

>  <Energy>  (26) 
67.64183623315772

>  <Genealogy>  (26) 
c1cc(C2=[NH+]CCN2)ccc1OCCCN1CCCCC1 (protonated)
c1cc(C2=[NH+]CCN2)ccc1OCCCN1CCCCC1 (3D coordinates assigned)
c1cc(C2=[NH+]CCN2)ccc1OCCCN1CCCCC1 (nonaromatic ring conformer: 67.64183623315772 kcal/mol)

>  <smiles>  (26) 
c1cc(C2=NCCN2)ccc1OCCCN1CCCCC1

>  <score_type>  (26) 
oracle

>  <origin>  (26) 
adgpu

>  <m_score__min__energy>  (26) 
-7.6200000000000001

>  <m_primary>  (26) 
energy

$$$$
26:0
     RDKit          3D

 39 41  0  0  0  0  0  0  0  0999 V2000
   -2.3520   25.2920  -29.3240 N   0  0  0  0  0  0  0  0  0  0  0  0
   -3.5150   24.1610  -29.9230 S   0  0  0  0  0  0  0  0  0  0  0  0
   -4.2280   24.7530  -31.1070 O   0  0  0  0  0  0  0  0  0  0  0  0
   -4.5210   23.8780  -28.8400 O   0  0  0  0  0  0  0  0  0  0  0  0
   -2.7030   22.6750  -30.4090 C   0  0  0  0  0  0  0  0  0  0  0  0
   -1.3920   22.4060  -29.9940 C   0  0  0  0  0  0  0  0  0  0  0  0
   -0.7830   21.2020  -30.3510 C   0  0  0  0  0  0  0  0  0  0  0  0
   -1.4650   20.2690  -31.1370 C   0  0  0  0  0  0  0  0  0  0  0  0
   -2.7660   20.5390  -31.5890 C   0  0  0  0  0  0  0  0  0  0  0  0
   -3.4520   19.5640  -32.3970 N   0  0  0  0  0  0  0  0  0  0  0  0
   -3.0950   19.2380  -33.7510 C   0  0  0  0  0  0  0  0  0  0  0  0
   -1.9730   19.5750  -34.2150 O   0  0  0  0  0  0  0  0  0  0  0  0
   -3.9930   18.3950  -34.6010 C   0  0  0  0  0  0  0  0  0  0  0  0
   -5.7440   18.9230  -34.5290 S   0  0  0  0  0  0  0  0  0  0  0  0
   -6.0240   18.3650  -32.8370 C   0  0  0  0  0  0  0  0  0  0  0  0
   -5.6120   17.1670  -32.3830 N   0  0  0  0  0  0  0  0  0  0  0  0
   -6.0960   17.0770  -31.1520 N   0  0  0  0  0  0  0  0  0  0  0  0
   -6.7790   18.1730  -30.8530 N   0  0  0  0  0  0  0  0  0  0  0  0
   -6.7430   19.0030  -31.8830 N   0  0  0  0  0  0  0  0  0  0  0  0
   -7.4140   20.2780  -31.9060 C   0  0  0  0  0  0  0  0  0  0  0  0
   -8.8180   20.3240  -31.8450 C   0  0  0  0  0  0  0  0  0  0  0  0
   -9.4920   21.5480  -31.9060 C   0  0  0  0  0  0  0  0  0  0  0  0
   -8.7730   22.7400  -32.0030 C   0  0  0  0  0  0  0  0  0  0  0  0
   -7.3770   22.7130  -32.0080 C   0  0  0  0  0  0  0  0  0  0  0  0
   -6.6810   23.8740  -32.0720 F   0  0  0  0  0  0  0  0  0  0  0  0
   -6.6980   21.4920  -31.9470 C   0  0  0  0  0  0  0  0  0  0  0  0
   -3.3850   21.7430  -31.2020 C   0  0  0  0  0  0  0  0  0  0  0  0
   -1.6370   25.4270  -30.0760 H   0  0  0  0  0  0  0  0  0  0  0  0
   -0.8438   23.1424  -29.3880 H   0  0  0  0  0  0  0  0  0  0  0  0
    0.2407   20.9859  -30.0114 H   0  0  0  0  0  0  0  0  0  0  0  0
   -0.9797   19.3183  -31.4027 H   0  0  0  0  0  0  0  0  0  0  0  0
   -4.2330   19.0240  -31.9550 H   0  0  0  0  0  0  0  0  0  0  0  0
   -3.6499   18.4584  -35.6442 H   0  0  0  0  0  0  0  0  0  0  0  0
   -3.9424   17.3661  -34.2152 H   0  0  0  0  0  0  0  0  0  0  0  0
   -9.3908   19.3899  -31.7485 H   0  0  0  0  0  0  0  0  0  0  0  0
  -10.5914   21.5711  -31.8774 H   0  0  0  0  0  0  0  0  0  0  0  0
   -9.3054   23.6998  -32.0754 H   0  0  0  0  0  0  0  0  0  0  0  0
   -5.5982   21.4786  -31.9309 H   0  0  0  0  0  0  0  0  0  0  0  0
   -4.4149   21.9540  -31.5257 H   0  0  0  0  0  0  0  0  0  0  0  0
  1  2  1  0
  2  3  2  0
  2  4  2  0
  2  5  1  0
  5  6  2  0
  6  7  1  0
  7  8  2  0
  8  9  1  0
  9 10  1  0
 10 11  1  0
 11 12  2  0
 11 13  1  0
 13 14  1  0
 14 15  1  0
 15 16  2  0
 16 17  1  0
 17 18  2  0
 18 19  1  0
 19 20  1  0
 20 21  2  0
 21 22  1  0
 22 23  2  0
 23 24  1  0
 24 25  1  0
 24 26  2  0
  9 27  2  0
 27  5  1  0
 19 15  1  0
 26 20  1  0
  1 28  1  0
  6 29  1  0
  7 30  1  0
  8 31  1  0
 10 32  1  0
 13 33  1  0
 13 34  1  0
 21 35  1  0
 22 36  1  0
 23 37  1  0
 26 38  1  0
 27 39  1  0
M  CHG  1   1  -1
M  END
>  <UniqueID>  (27) 
22

>  <SMILES>  (27) 
[NH-]S(=O)(=O)c1cccc(NC(=O)CSc2nnnn2-c2cccc(F)c2)c1

>  <Energy>  (27) 
80.78005989983707

>  <Genealogy>  (27) 
[NH-]S(=O)(=O)c1cccc(NC(=O)CSc2nnnn2-c2cccc(F)c2)c1 (protonated)
[NH-]S(=O)(=O)c1cccc(NC(=O)CSc2nnnn2-c2cccc(F)c2)c1 (3D coordinates assigned)
[NH-]S(=O)(=O)c1cccc(NC(=O)CSc2nnnn2-c2cccc(F)c2)c1 (optimized conformer: 80.78005989983707 kcal/mol)

>  <smiles>  (27) 
NS(=O)(=O)c1cccc(NC(=O)CSc2nnnn2-c2cccc(F)c2)c1

>  <score_type>  (27) 
oracle

>  <origin>  (27) 
adgpu

>  <m_score__min__energy>  (27) 
-11.76

>  <m_primary>  (27) 
energy

$$$$
27:0
     RDKit          3D

 58 61  0  0  0  0  0  0  0  0999 V2000
   -1.4100   22.9290  -27.2750 O   0  0  0  0  0  0  0  0  0  0  0  0
   -1.9860   22.9370  -28.3980 C   0  0  0  0  0  0  0  0  0  0  0  0
   -2.6300   24.1030  -28.8240 C   0  0  0  0  0  0  0  0  0  0  0  0
   -3.2500   24.1430  -30.0740 C   0  0  0  0  0  0  0  0  0  0  0  0
   -3.8820   25.3340  -30.4660 O   0  0  0  0  0  0  0  0  0  0  0  0
   -5.2830   25.5930  -30.3740 C   0  0  0  0  0  0  0  0  0  0  0  0
   -6.0760   24.3690  -30.7300 C   0  0  0  0  0  0  0  0  0  0  0  0
   -6.8400   23.7090  -29.7570 C   0  0  0  0  0  0  0  0  0  0  0  0
   -7.5680   22.5720  -30.1150 C   0  0  0  0  0  0  0  0  0  0  0  0
   -7.5260   22.1060  -31.4310 C   0  0  0  0  0  0  0  0  0  0  0  0
   -8.4370   20.6800  -31.8970 Cl  0  0  0  0  0  0  0  0  0  0  0  0
   -6.7480   22.7860  -32.3720 C   0  0  0  0  0  0  0  0  0  0  0  0
   -6.0470   23.8900  -32.0040 N   0  0  0  0  0  0  0  0  0  0  0  0
   -3.2190   22.9970  -30.8830 C   0  0  0  0  0  0  0  0  0  0  0  0
   -2.5700   21.8490  -30.4280 C   0  0  0  0  0  0  0  0  0  0  0  0
   -1.9700   21.8240  -29.2000 N   0  0  0  0  0  0  0  0  0  0  0  0
   -1.3160   20.6140  -28.7720 C   0  0  0  0  0  0  0  0  0  0  0  0
   -0.2890   20.0610  -29.5520 C   0  0  0  0  0  0  0  0  0  0  0  0
    0.3380   18.8590  -29.1670 C   0  0  0  0  0  0  0  0  0  0  0  0
    1.3520   18.2590  -29.9320 O   0  0  0  0  0  0  0  0  0  0  0  0
    2.2720   18.9460  -30.7810 C   0  0  0  0  0  0  0  0  0  0  0  0
    1.5970   19.4050  -32.0860 C   0  0  0  0  0  0  0  0  0  0  0  0
    0.4680   18.5110  -32.4920 N   0  0  2  0  0  0  0  0  0  0  0  0
    0.6850   17.8580  -33.8120 C   0  0  0  0  0  0  0  0  0  0  0  0
    0.1730   18.6750  -35.0220 C   0  0  0  0  0  0  0  0  0  0  0  0
   -0.0450   20.1470  -34.6880 C   0  0  0  0  0  0  0  0  0  0  0  0
   -1.0100   20.3060  -33.5050 C   0  0  2  0  0  0  0  0  0  0  0  0
   -0.8270   21.5530  -32.9290 F   0  0  0  0  0  0  0  0  0  0  0  0
   -0.8450   19.1980  -32.4360 C   0  0  0  0  0  0  0  0  0  0  0  0
   -0.0650   18.2300  -27.9790 C   0  0  0  0  0  0  0  0  0  0  0  0
    0.6900   16.7280  -27.4670 Cl  0  0  0  0  0  0  0  0  0  0  0  0
   -1.0880   18.7800  -27.2000 C   0  0  0  0  0  0  0  0  0  0  0  0
   -1.7170   19.9620  -27.5950 C   0  0  0  0  0  0  0  0  0  0  0  0
   -2.7300   20.4610  -26.8440 F   0  0  0  0  0  0  0  0  0  0  0  0
   -2.6480   24.9897  -28.1733 H   0  0  0  0  0  0  0  0  0  0  0  0
   -5.5272   25.8941  -29.3446 H   0  0  0  0  0  0  0  0  0  0  0  0
   -5.5399   26.3970  -31.0794 H   0  0  0  0  0  0  0  0  0  0  0  0
   -6.8658   24.0827  -28.7227 H   0  0  0  0  0  0  0  0  0  0  0  0
   -8.1729   22.0449  -29.3624 H   0  0  0  0  0  0  0  0  0  0  0  0
   -6.7032   22.4272  -33.4109 H   0  0  0  0  0  0  0  0  0  0  0  0
   -3.7037   23.0037  -31.8704 H   0  0  0  0  0  0  0  0  0  0  0  0
   -2.5407   20.9529  -31.0653 H   0  0  0  0  0  0  0  0  0  0  0  0
    0.0299   20.5707  -30.4731 H   0  0  0  0  0  0  0  0  0  0  0  0
    2.6598   19.8275  -30.2494 H   0  0  0  0  0  0  0  0  0  0  0  0
    3.0882   18.2548  -31.0380 H   0  0  0  0  0  0  0  0  0  0  0  0
    1.2065   20.4232  -31.9420 H   0  0  0  0  0  0  0  0  0  0  0  0
    2.3537   19.3712  -32.8837 H   0  0  0  0  0  0  0  0  0  0  0  0
    0.4060   17.7250  -31.8010 H   0  0  0  0  0  0  0  0  0  0  0  0
    1.7649   17.6930  -33.9407 H   0  0  0  0  0  0  0  0  0  0  0  0
    0.1065   16.9225  -33.7979 H   0  0  0  0  0  0  0  0  0  0  0  0
    0.9127   18.6039  -35.8330 H   0  0  0  0  0  0  0  0  0  0  0  0
   -0.7987   18.2543  -35.3199 H   0  0  0  0  0  0  0  0  0  0  0  0
    0.9213   20.6037  -34.4278 H   0  0  0  0  0  0  0  0  0  0  0  0
   -0.4825   20.6444  -35.5662 H   0  0  0  0  0  0  0  0  0  0  0  0
   -2.0321   20.2109  -33.9002 H   0  0  0  0  0  0  0  0  0  0  0  0
   -0.9566   19.6547  -31.4415 H   0  0  0  0  0  0  0  0  0  0  0  0
   -1.6155   18.4389  -32.6361 H   0  0  0  0  0  0  0  0  0  0  0  0
   -1.3985   18.2787  -26.2714 H   0  0  0  0  0  0  0  0  0  0  0  0
  1  2  2  0
  2  3  1  0
  3  4  2  0
  4  5  1  0
  5  6  1  0
  6  7  1  0
  7  8  2  0
  8  9  1  0
  9 10  2  0
 10 11  1  0
 10 12  1  0
 12 13  2  0
  4 14  1  0
 14 15  2  0
 15 16  1  0
 16 17  1  0
 17 18  2  0
 18 19  1  0
 19 20  1  0
 20 21  1  0
 21 22  1  0
 22 23  1  0
 23 24  1  0
 24 25  1  0
 25 26  1  0
 26 27  1  0
 27 28  1  0
 27 29  1  0
 19 30  2  0
 30 31  1  0
 30 32  1  0
 32 33  2  0
 33 34  1  0
 16  2  1  0
 33 17  1  0
 13  7  1  0
 29 23  1  0
  3 35  1  0
  6 36  1  0
  6 37  1  0
  8 38  1  0
  9 39  1  0
 12 40  1  0
 14 41  1  0
 15 42  1  0
 18 43  1  0
 21 44  1  0
 21 45  1  0
 22 46  1  0
 22 47  1  0
 23 48  1  1
 24 49  1  0
 24 50  1  0
 25 51  1  0
 25 52  1  0
 26 53  1  0
 26 54  1  0
 27 55  1  6
 29 56  1  0
 29 57  1  0
 32 58  1  0
M  CHG  1  23   1
M  END
>  <UniqueID>  (28) 
23

>  <SMILES>  (28) 
O=c1cc(OCc2ccc(Cl)cn2)ccn1-c1cc(OCC[N@@H+]2CCC[C@H](F)C2)c(Cl)cc1F

>  <Energy>  (28) 
81.30048617873085

>  <Genealogy>  (28) 
O=c1cc(OCc2ccc(Cl)cn2)ccn1-c1cc(OCC[NH+]2CCCC(F)C2)c(Cl)cc1F (protonated)
O=c1cc(OCc2ccc(Cl)cn2)ccn1-c1cc(OCC[N@@H+]2CCC[C@H](F)C2)c(Cl)cc1F (chirality)
O=c1cc(OCc2ccc(Cl)cn2)ccn1-c1cc(OCC[N@@H+]2CCC[C@H](F)C2)c(Cl)cc1F (3D coordinates assigned)
O=c1cc(OCc2ccc(Cl)cn2)ccn1-c1cc(OCC[N@@H+]2CCC[C@H](F)C2)c(Cl)cc1F (nonaromatic ring conformer: 81.30048617873085 kcal/mol)

>  <smiles>  (28) 
O=c1cc(OCc2ccc(Cl)cn2)ccn1-c1cc(OCCN2CCCC(F)C2)c(Cl)cc1F

>  <score_type>  (28) 
oracle

>  <origin>  (28) 
adgpu

>  <m_score__min__energy>  (28) 
-9.2400000000000002

>  <m_primary>  (28) 
energy

$$$$
28:0
     RDKit          3D

 53 55  0  0  1  0  0  0  0  0999 V2000
   -6.1530   19.6770  -33.5980 C   0  0  0  0  0  0  0  0  0  0  0  0
   -6.9100   19.6490  -32.3410 N   0  0  0  0  0  0  0  0  0  0  0  0
   -6.6860   18.3270  -31.7770 C   0  0  0  0  0  0  0  0  0  0  0  0
   -8.3220   19.7040  -32.7280 C   0  0  0  0  0  0  0  0  0  0  0  0
   -9.1020   20.5790  -31.7950 C   0  0  0  0  0  0  0  0  0  0  0  0
   -9.0780   22.0220  -32.3020 C   0  0  0  0  0  0  0  0  0  0  0  0
   -7.9330   22.6700  -31.6050 C   0  0  0  0  0  0  0  0  0  0  0  0
   -7.1720   23.6020  -32.2580 C   0  0  0  0  0  0  0  0  0  0  0  0
   -6.1160   24.1900  -31.5970 C   0  0  0  0  0  0  0  0  0  0  0  0
   -5.8160   23.8390  -30.2580 C   0  0  0  0  0  0  0  0  0  0  0  0
   -4.7130   24.3450  -29.6630 N   0  0  0  0  0  0  0  0  0  0  0  0
   -3.5320   24.0230  -29.6620 C   0  0  0  0  0  0  0  0  0  0  0  0
   -2.6600   24.7820  -28.9280 N   0  0  0  0  0  0  0  0  0  0  0  0
   -1.3530   24.5310  -28.8430 C   0  0  0  0  0  0  0  0  0  0  0  0
   -0.4980   25.3580  -28.0640 N   0  0  0  0  0  0  0  0  0  0  0  0
    0.6980   24.7900  -27.4860 C   0  0  0  0  0  0  0  0  0  0  0  0
   -0.8170   26.7540  -27.8510 C   0  0  0  0  0  0  0  0  0  0  0  0
   -0.8770   23.4730  -29.5170 N   0  0  0  0  0  0  0  0  0  0  0  0
   -1.7020   22.7020  -30.2490 C   0  0  0  0  0  0  0  0  0  0  0  0
   -1.1520   21.6430  -30.9100 C   0  0  0  0  0  0  0  0  0  0  0  0
   -1.9940   20.8580  -31.6580 C   0  0  0  0  0  0  0  0  0  0  0  0
   -3.3290   21.0540  -31.7910 C   0  0  0  0  0  0  0  0  0  0  0  0
   -3.8810   22.1490  -31.1030 C   0  0  0  0  0  0  0  0  0  0  0  0
   -3.0660   22.9440  -30.3540 C   0  0  0  0  0  0  0  0  0  0  0  0
   -6.6260   22.8710  -29.6140 C   0  0  0  0  0  0  0  0  0  0  0  0
   -7.6740   22.3040  -30.3080 C   0  0  0  0  0  0  0  0  0  0  0  0
   -5.0762   19.7168  -33.3767 H   0  0  0  0  0  0  0  0  0  0  0  0
   -6.3745   18.7700  -34.1797 H   0  0  0  0  0  0  0  0  0  0  0  0
   -6.4409   20.5651  -34.1797 H   0  0  0  0  0  0  0  0  0  0  0  0
   -6.6967   18.3902  -30.6789 H   0  0  0  0  0  0  0  0  0  0  0  0
   -7.4815   17.6455  -32.1128 H   0  0  0  0  0  0  0  0  0  0  0  0
   -5.7104   17.9456  -32.1128 H   0  0  0  0  0  0  0  0  0  0  0  0
   -8.3996   20.1074  -33.7484 H   0  0  0  0  0  0  0  0  0  0  0  0
   -8.7372   18.6864  -32.6826 H   0  0  0  0  0  0  0  0  0  0  0  0
  -10.1426   20.2257  -31.7461 H   0  0  0  0  0  0  0  0  0  0  0  0
   -8.6507   20.5370  -30.7927 H   0  0  0  0  0  0  0  0  0  0  0  0
   -8.9272   22.0442  -33.3914 H   0  0  0  0  0  0  0  0  0  0  0  0
  -10.0261   22.5415  -32.0989 H   0  0  0  0  0  0  0  0  0  0  0  0
   -7.4010   23.8780  -33.2979 H   0  0  0  0  0  0  0  0  0  0  0  0
   -5.4995   24.9398  -32.1144 H   0  0  0  0  0  0  0  0  0  0  0  0
   -3.0110   25.6110  -28.3950 H   0  0  0  0  0  0  0  0  0  0  0  0
    0.6267   24.8238  -26.3888 H   0  0  0  0  0  0  0  0  0  0  0  0
    0.8037   23.7455  -27.8145 H   0  0  0  0  0  0  0  0  0  0  0  0
    1.5743   25.3681  -27.8145 H   0  0  0  0  0  0  0  0  0  0  0  0
   -0.8638   26.9588  -26.7712 H   0  0  0  0  0  0  0  0  0  0  0  0
   -0.0392   27.3820  -28.3100 H   0  0  0  0  0  0  0  0  0  0  0  0
   -1.7904   26.9819  -28.3100 H   0  0  0  0  0  0  0  0  0  0  0  0
   -0.0754   21.4264  -30.8461 H   0  0  0  0  0  0  0  0  0  0  0  0
   -1.5512   20.0036  -32.1908 H   0  0  0  0  0  0  0  0  0  0  0  0
   -3.9506   20.3882  -32.4077 H   0  0  0  0  0  0  0  0  0  0  0  0
   -4.9583   22.3615  -31.1686 H   0  0  0  0  0  0  0  0  0  0  0  0
   -6.4215   22.5758  -28.5743 H   0  0  0  0  0  0  0  0  0  0  0  0
   -8.3084   21.5512  -29.8173 H   0  0  0  0  0  0  0  0  0  0  0  0
  1  2  1  0
  2  3  1  0
  2  4  1  0
  4  5  1  0
  5  6  1  0
  6  7  1  0
  7  8  2  0
  8  9  1  0
  9 10  2  0
 10 11  1  0
 11 12  2  0
 12 13  1  0
 13 14  1  0
 14 15  1  0
 15 16  1  0
 15 17  1  0
 14 18  2  0
 18 19  1  0
 19 20  2  0
 20 21  1  0
 21 22  2  0
 22 23  1  0
 23 24  2  0
 10 25  1  0
 25 26  2  0
 26  7  1  0
 24 12  1  0
 24 19  1  0
  1 27  1  0
  1 28  1  0
  1 29  1  0
  3 30  1  0
  3 31  1  0
  3 32  1  0
  4 33  1  0
  4 34  1  0
  5 35  1  0
  5 36  1  0
  6 37  1  0
  6 38  1  0
  8 39  1  0
  9 40  1  0
 13 41  1  0
 16 42  1  0
 16 43  1  0
 16 44  1  0
 17 45  1  0
 17 46  1  0
 17 47  1  0
 20 48  1  0
 21 49  1  0
 22 50  1  0
 23 51  1  0
 25 52  1  0
 26 53  1  0
M  END
>  <smiles>  (29) 
CN(C)CCCc1ccc(N=c2[nH]c(N(C)C)nc3ccccc23)cc1

>  <score_type>  (29) 
oracle

>  <origin>  (29) 
adgpu

>  <m_score__min__energy>  (29) 
-8.1300000000000008

>  <m_primary>  (29) 
energy

$$$$
29:0
     RDKit          3D

 42 45  0  0  0  0  0  0  0  0999 V2000
   -3.2320   24.7580  -26.8090 C   0  0  0  0  0  0  0  0  0  0  0  0
   -4.0030   23.7990  -27.5240 O   0  0  0  0  0  0  0  0  0  0  0  0
   -3.5700   23.1400  -28.6850 C   0  0  0  0  0  0  0  0  0  0  0  0
   -3.5350   21.7360  -28.7840 C   0  0  0  0  0  0  0  0  0  0  0  0
   -3.0940   21.1220  -29.9590 C   0  0  0  0  0  0  0  0  0  0  0  0
   -2.6660   21.8960  -31.0490 C   0  0  0  0  0  0  0  0  0  0  0  0
   -2.2120   21.2620  -32.3050 C   0  0  0  0  0  0  0  0  0  0  0  0
   -1.0190   21.5310  -32.8650 N   0  0  0  0  0  0  0  0  0  0  0  0
   -1.0270   20.8360  -34.0230 C   0  0  0  0  0  0  0  0  0  0  0  0
    0.1000   20.8400  -34.9800 C   0  0  0  0  0  0  0  0  0  0  0  0
    0.6450   19.6300  -35.4470 C   0  0  0  0  0  0  0  0  0  0  0  0
    1.7110   19.6360  -36.3520 C   0  0  0  0  0  0  0  0  0  0  0  0
    2.2430   20.8480  -36.8010 C   0  0  0  0  0  0  0  0  0  0  0  0
    3.3020   20.8460  -37.7010 O   0  0  0  0  0  0  0  0  0  0  0  0
    1.7090   22.0580  -36.3440 C   0  0  0  0  0  0  0  0  0  0  0  0
    2.2350   23.2650  -36.7880 O   0  0  0  0  0  0  0  0  0  0  0  0
    0.6430   22.0540  -35.4380 C   0  0  0  0  0  0  0  0  0  0  0  0
   -2.1640   20.1340  -34.2210 N   0  0  0  0  0  0  0  0  0  0  0  0
   -2.9120   20.3970  -33.1330 C   0  0  0  0  0  0  0  0  0  0  0  0
   -4.2220   19.7550  -32.8910 C   0  0  0  0  0  0  0  0  0  0  0  0
   -5.3500   20.5520  -32.6350 C   0  0  0  0  0  0  0  0  0  0  0  0
   -6.5990   19.9600  -32.4220 C   0  0  0  0  0  0  0  0  0  0  0  0
   -6.7340   18.5700  -32.4780 C   0  0  0  0  0  0  0  0  0  0  0  0
   -7.9760   17.9830  -32.2640 O   0  0  0  0  0  0  0  0  0  0  0  0
   -5.6220   17.7710  -32.7540 C   0  0  0  0  0  0  0  0  0  0  0  0
   -4.3720   18.3600  -32.9690 C   0  0  0  0  0  0  0  0  0  0  0  0
   -2.7220   23.2950  -30.9580 C   0  0  0  0  0  0  0  0  0  0  0  0
   -3.1640   23.9120  -29.7820 C   0  0  0  0  0  0  0  0  0  0  0  0
   -3.1980   25.2990  -29.7070 O   0  0  0  0  0  0  0  0  0  0  0  0
   -3.3598   24.5990  -25.7281 H   0  0  0  0  0  0  0  0  0  0  0  0
   -2.1701   24.6454  -27.0731 H   0  0  0  0  0  0  0  0  0  0  0  0
   -3.5701   25.7709  -27.0731 H   0  0  0  0  0  0  0  0  0  0  0  0
   -3.8565   21.1192  -27.9318 H   0  0  0  0  0  0  0  0  0  0  0  0
   -3.0821   20.0244  -30.0304 H   0  0  0  0  0  0  0  0  0  0  0  0
    0.2299   18.6730  -35.0980 H   0  0  0  0  0  0  0  0  0  0  0  0
    2.1316   18.6852  -36.7112 H   0  0  0  0  0  0  0  0  0  0  0  0
    0.2264   23.0074  -35.0811 H   0  0  0  0  0  0  0  0  0  0  0  0
   -5.2505   21.6470  -32.6019 H   0  0  0  0  0  0  0  0  0  0  0  0
   -7.4762   20.5891  -32.2102 H   0  0  0  0  0  0  0  0  0  0  0  0
   -5.7296   16.6773  -32.8023 H   0  0  0  0  0  0  0  0  0  0  0  0
   -3.5018   17.7281  -33.2003 H   0  0  0  0  0  0  0  0  0  0  0  0
   -2.4165   23.9110  -31.8166 H   0  0  0  0  0  0  0  0  0  0  0  0
  1  2  1  0
  2  3  1  0
  3  4  2  0
  4  5  1  0
  5  6  2  0
  6  7  1  0
  7  8  1  0
  8  9  1  0
  9 10  1  0
 10 11  2  0
 11 12  1  0
 12 13  2  0
 13 14  1  0
 13 15  1  0
 15 16  1  0
 15 17  2  0
  9 18  2  0
 18 19  1  0
 19 20  1  0
 20 21  2  0
 21 22  1  0
 22 23  2  0
 23 24  1  0
 23 25  1  0
 25 26  2  0
  6 27  1  0
 27 28  2  0
 28 29  1  0
 28  3  1  0
 19  7  2  0
 26 20  1  0
 17 10  1  0
  1 30  1  0
  1 31  1  0
  1 32  1  0
  4 33  1  0
  5 34  1  0
 11 35  1  0
 12 36  1  0
 17 37  1  0
 21 38  1  0
 22 39  1  0
 25 40  1  0
 26 41  1  0
 27 42  1  0
M  CHG  5   8  -1  14  -1  16  -1  24  -1  29  -1
M  END
>  <UniqueID>  (30) 
24

>  <SMILES>  (30) 
COc1ccc(-c2[n-]c(-c3ccc([O-])c([O-])c3)nc2-c2ccc([O-])cc2)cc1[O-]

>  <Energy>  (30) 
83.20992407220332

>  <Genealogy>  (30) 
COc1ccc(-c2[n-]c(-c3ccc([O-])c([O-])c3)nc2-c2ccc([O-])cc2)cc1[O-] (protonated)
COc1ccc(-c2[n-]c(-c3ccc([O-])c([O-])c3)nc2-c2ccc([O-])cc2)cc1[O-] (3D coordinates assigned)
COc1ccc(-c2[n-]c(-c3ccc([O-])c([O-])c3)nc2-c2ccc([O-])cc2)cc1[O-] (optimized conformer: 83.20992407220332 kcal/mol)

>  <smiles>  (30) 
COc1ccc(-c2[nH]c(-c3ccc(O)c(O)c3)nc2-c2ccc(O)cc2)cc1O

>  <score_type>  (30) 
oracle

>  <origin>  (30) 
adgpu

>  <m_score__min__energy>  (30) 
-12.140000000000001

>  <m_primary>  (30) 
energy

$$$$
30:0
     RDKit          3D

 40 42  0  0  0  0  0  0  0  0999 V2000
   -6.9344   25.5715  -31.0731 H   0  0  0  0  0  0  0  0  0  0  0  0
   -6.1310   24.8540  -30.8500 C   0  0  0  0  0  0  0  0  0  0  0  0
   -5.4890   24.9060  -29.6570 N   0  0  0  0  0  0  0  0  0  0  0  0
   -4.4840   24.0490  -29.3380 C   0  0  0  0  0  0  0  0  0  0  0  0
   -3.8580   24.1770  -28.0540 N   0  0  0  0  0  0  0  0  0  0  0  0
   -2.6250   24.5370  -27.8290 C   0  0  0  0  0  0  0  0  0  0  0  0
   -2.1950   24.6840  -26.5080 C   0  0  0  0  0  0  0  0  0  0  0  0
   -2.8891   24.4960  -25.6756 H   0  0  0  0  0  0  0  0  0  0  0  0
   -0.8820   25.0700  -26.2520 C   0  0  0  0  0  0  0  0  0  0  0  0
   -0.5293   25.1921  -25.2173 H   0  0  0  0  0  0  0  0  0  0  0  0
   -0.0190   25.3000  -27.3240 C   0  0  0  0  0  0  0  0  0  0  0  0
    1.4040   25.6960  -27.0880 C   0  0  0  0  0  0  0  0  0  0  0  0
    1.5952   25.7492  -26.0060 H   0  0  0  0  0  0  0  0  0  0  0  0
    2.0724   24.9497  -27.5422 H   0  0  0  0  0  0  0  0  0  0  0  0
    1.5908   26.6803  -27.5422 H   0  0  0  0  0  0  0  0  0  0  0  0
   -0.4740   25.1200  -28.5930 N   0  0  0  0  0  0  0  0  0  0  0  0
   -1.7310   24.7520  -28.8450 N   0  0  0  0  0  0  0  0  0  0  0  0
   -2.0020   24.6110  -29.8420 H   0  0  0  0  0  0  0  0  0  0  0  0
   -4.0530   23.0850  -30.2810 C   0  0  0  0  0  0  0  0  0  0  0  0
   -2.8710   22.3030  -30.0300 N   0  0  0  0  0  0  0  0  0  0  0  0
   -1.7910   22.6040  -30.5780 O   0  0  0  0  0  0  0  0  0  0  0  0
   -2.9010   21.2330  -29.1680 O   0  0  0  0  0  0  0  0  0  0  0  0
   -4.7490   22.9840  -31.5070 C   0  0  0  0  0  0  0  0  0  0  0  0
   -4.3080   21.7730  -32.7640 S   0  0  0  0  0  0  0  0  0  0  0  0
   -5.7180   20.7140  -32.4150 C   0  0  0  0  0  0  0  0  0  0  0  0
   -7.0150   21.1820  -32.6610 C   0  0  0  0  0  0  0  0  0  0  0  0
   -7.1649   22.1926  -33.0688 H   0  0  0  0  0  0  0  0  0  0  0  0
   -8.1200   20.3690  -32.3900 C   0  0  0  0  0  0  0  0  0  0  0  0
   -9.1358   20.7421  -32.5876 H   0  0  0  0  0  0  0  0  0  0  0  0
   -7.9390   19.0790  -31.8670 C   0  0  0  0  0  0  0  0  0  0  0  0
   -9.1220   18.1930  -31.6130 C   0  0  0  0  0  0  0  0  0  0  0  0
   -9.2706   18.0817  -30.5288 H   0  0  0  0  0  0  0  0  0  0  0  0
  -10.0199   18.6426  -32.0620 H   0  0  0  0  0  0  0  0  0  0  0  0
   -8.9431   17.2048  -32.0620 H   0  0  0  0  0  0  0  0  0  0  0  0
   -6.6370   18.6010  -31.6530 C   0  0  0  0  0  0  0  0  0  0  0  0
   -6.4843   17.5811  -31.2702 H   0  0  0  0  0  0  0  0  0  0  0  0
   -5.5330   19.4150  -31.9240 C   0  0  0  0  0  0  0  0  0  0  0  0
   -4.5156   19.0341  -31.7511 H   0  0  0  0  0  0  0  0  0  0  0  0
   -5.7750   23.8940  -31.7930 C   0  0  0  0  0  0  0  0  0  0  0  0
   -6.2977   23.8500  -32.7599 H   0  0  0  0  0  0  0  0  0  0  0  0
  1  2  1  0
  2  3  2  0
  3  4  1  0
  4  5  1  0
  5  6  2  0
  6  7  1  0
  7  8  1  0
  7  9  2  0
  9 10  1  0
  9 11  1  0
 11 12  1  0
 12 13  1  0
 12 14  1  0
 12 15  1  0
 11 16  2  0
 16 17  1  0
 17 18  1  0
  4 19  2  0
 19 20  1  0
 20 21  2  0
 20 22  1  0
 19 23  1  0
 23 24  1  0
 24 25  1  0
 25 26  2  0
 26 27  1  0
 26 28  1  0
 28 29  1  0
 28 30  2  0
 30 31  1  0
 31 32  1  0
 31 33  1  0
 31 34  1  0
 30 35  1  0
 35 36  1  0
 35 37  2  0
 37 38  1  0
 23 39  2  0
 39 40  1  0
 39  2  1  0
 17  6  1  0
 37 25  1  0
M  CHG  2  20   1  22  -1
M  END
>  <UniqueID>  (31) 
25

>  <SMILES>  (31) 
Cc1ccc(Sc2ccnc(/N=c3/ccc(C)n[nH]3)c2[N+](=O)[O-])cc1

>  <Energy>  (31) 
54.6072646603754

>  <Genealogy>  (31) 
Cc1ccc(Sc2ccnc(/N=c3/ccc(C)n[nH]3)c2[N+](=O)[O-])cc1 (cis-trans isomerization)
Cc1ccc(Sc2ccnc(/N=c3/ccc(C)n[nH]3)c2[N+](=O)[O-])cc1 (3D coordinates assigned)
Cc1ccc(Sc2ccnc(/N=c3/ccc(C)n[nH]3)c2[N+](=O)[O-])cc1 (optimized conformer: 54.6072646603754 kcal/mol)

>  <smiles>  (31) 
Cc1ccc(Sc2ccnc(N=c3ccc(C)n[nH]3)c2[N+](=O)[O-])cc1

>  <score_type>  (31) 
oracle

>  <origin>  (31) 
adgpu

>  <m_score__min__energy>  (31) 
-8.8200000000000003

>  <m_primary>  (31) 
energy

$$$$
31:0
     RDKit          3D

 52 55  0  0  0  0  0  0  0  0999 V2000
   -2.9295   19.5356  -29.4528 H   0  0  0  0  0  0  0  0  0  0  0  0
   -2.8060   20.6190  -29.3080 C   0  0  0  0  0  0  0  0  0  0  0  0
   -3.6240   21.5750  -29.8180 N   0  0  0  0  0  0  0  0  0  0  0  0
   -3.0890   22.7330  -29.3700 C   0  0  0  0  0  0  0  0  0  0  0  0
   -3.5100   24.0480  -29.6320 C   0  0  0  0  0  0  0  0  0  0  0  0
   -4.5640   24.3490  -30.3430 N   0  0  0  0  0  0  0  0  0  0  0  0
   -5.5590   23.4550  -30.8600 C   0  0  0  0  0  0  0  0  0  0  0  0
   -6.8880   23.5360  -30.4250 C   0  0  0  0  0  0  0  0  0  0  0  0
   -7.1701   24.2731  -29.6587 H   0  0  0  0  0  0  0  0  0  0  0  0
   -7.8560   22.6840  -30.9610 C   0  0  0  0  0  0  0  0  0  0  0  0
   -8.8928   22.7372  -30.5974 H   0  0  0  0  0  0  0  0  0  0  0  0
   -7.5140   21.7600  -31.9610 C   0  0  0  0  0  0  0  0  0  0  0  0
   -8.5660   20.8490  -32.5330 C   0  0  0  0  0  0  0  0  0  0  0  0
   -9.1204   20.3689  -31.7132 H   0  0  0  0  0  0  0  0  0  0  0  0
   -9.2613   21.4350  -33.1520 H   0  0  0  0  0  0  0  0  0  0  0  0
   -8.0854   20.0771  -33.1520 H   0  0  0  0  0  0  0  0  0  0  0  0
   -6.1920   21.7230  -32.4520 C   0  0  0  0  0  0  0  0  0  0  0  0
   -5.8390   20.7760  -33.4720 N   0  0  0  0  0  0  0  0  0  0  0  0
   -5.9050   19.3480  -33.3670 C   0  0  0  0  0  0  0  0  0  0  0  0
   -6.0140   18.6680  -34.4220 O   0  0  0  0  0  0  0  0  0  0  0  0
   -5.8060   18.6430  -32.0390 C   0  0  0  0  0  0  0  0  0  0  0  0
   -5.6236   19.3881  -31.2506 H   0  0  0  0  0  0  0  0  0  0  0  0
   -4.9784   17.9202  -32.0909 H   0  0  0  0  0  0  0  0  0  0  0  0
   -7.0890   17.8830  -31.7170 C   0  0  0  0  0  0  0  0  0  0  0  0
   -7.2090   17.8119  -30.6259 H   0  0  0  0  0  0  0  0  0  0  0  0
   -7.9493   18.4173  -32.1465 H   0  0  0  0  0  0  0  0  0  0  0  0
   -7.0338   16.8718  -32.1465 H   0  0  0  0  0  0  0  0  0  0  0  0
   -5.2200   22.5670  -31.8860 C   0  0  0  0  0  0  0  0  0  0  0  0
   -4.1839   22.5285  -32.2534 H   0  0  0  0  0  0  0  0  0  0  0  0
   -2.7360   25.0590  -29.1310 N   0  0  0  0  0  0  0  0  0  0  0  0
   -3.0080   26.0510  -29.3210 H   0  0  0  0  0  0  0  0  0  0  0  0
   -1.6210   24.8080  -28.3730 C   0  0  0  0  0  0  0  0  0  0  0  0
   -0.9120   25.8050  -27.9260 N   0  0  0  0  0  0  0  0  0  0  0  0
    0.2540   25.7260  -27.0850 C   0  0  0  0  0  0  0  0  0  0  0  0
    1.4120   25.0490  -27.5150 C   0  0  0  0  0  0  0  0  0  0  0  0
    1.4381   24.5941  -28.5162 H   0  0  0  0  0  0  0  0  0  0  0  0
    2.5260   24.9510  -26.6810 C   0  0  0  0  0  0  0  0  0  0  0  0
    3.4317   24.4352  -27.0327 H   0  0  0  0  0  0  0  0  0  0  0  0
    2.4930   25.5060  -25.4020 C   0  0  0  0  0  0  0  0  0  0  0  0
    3.3758   25.4348  -24.7497 H   0  0  0  0  0  0  0  0  0  0  0  0
    1.3410   26.1520  -24.9480 C   0  0  0  0  0  0  0  0  0  0  0  0
    1.3195   26.5796  -23.9348 H   0  0  0  0  0  0  0  0  0  0  0  0
    0.2060   26.2610  -25.7760 C   0  0  0  0  0  0  0  0  0  0  0  0
   -1.0430   26.9570  -25.2830 C   0  0  0  0  0  0  0  0  0  0  0  0
   -2.1480   26.1670  -25.5460 F   0  0  0  0  0  0  0  0  0  0  0  0
   -1.1870   28.1680  -25.9370 F   0  0  0  0  0  0  0  0  0  0  0  0
   -0.9960   27.2000  -23.9210 F   0  0  0  0  0  0  0  0  0  0  0  0
   -1.2450   23.5170  -28.1400 N   0  0  0  0  0  0  0  0  0  0  0  0
   -1.9900   22.5370  -28.6370 N   0  0  0  0  0  0  0  0  0  0  0  0
   -1.7930   21.2160  -28.5780 C   0  0  0  0  0  0  0  0  0  0  0  0
   -0.7060   20.5600  -27.9040 C   0  0  0  0  0  0  0  0  0  0  0  0
    0.1710   20.0340  -27.3600 N   0  0  0  0  0  0  0  0  0  0  0  0
  1  2  1  0
  2  3  1  0
  3  4  2  0
  4  5  1  0
  5  6  2  3
  6  7  1  0
  7  8  2  0
  8  9  1  0
  8 10  1  0
 10 11  1  0
 10 12  2  0
 12 13  1  0
 13 14  1  0
 13 15  1  0
 13 16  1  0
 12 17  1  0
 17 18  1  0
 18 19  1  0
 19 20  2  0
 19 21  1  0
 21 22  1  0
 21 23  1  0
 21 24  1  0
 24 25  1  0
 24 26  1  0
 24 27  1  0
 17 28  2  0
 28 29  1  0
  5 30  1  0
 30 31  1  0
 30 32  1  0
 32 33  2  0
 33 34  1  0
 34 35  2  0
 35 36  1  0
 35 37  1  0
 37 38  1  0
 37 39  2  0
 39 40  1  0
 39 41  1  0
 41 42  1  0
 41 43  2  0
 43 44  1  0
 44 45  1  0
 44 46  1  0
 44 47  1  0
 32 48  1  0
 48 49  1  0
 49 50  1  0
 50 51  1  0
 51 52  3  0
 50  2  2  0
 49  4  1  0
 28  7  1  0
 43 34  1  0
M  CHG  2  18  -1  48  -1
M  END
>  <UniqueID>  (32) 
26

>  <SMILES>  (32) 
CCC(=O)[N-]c1cc(N=c2[nH]/c(=N/c3ccccc3C(F)(F)F)[n-]n3c(C#N)cnc23)ccc1C

>  <Energy>  (32) 
115.0813977300232

>  <Genealogy>  (32) 
CCC(=O)[N-]c1cc(N=c2[nH]c(=Nc3ccccc3C(F)(F)F)[n-]n3c(C#N)cnc23)ccc1C (protonated)
CCC(=O)[N-]c1cc(N=c2[nH]/c(=N/c3ccccc3C(F)(F)F)[n-]n3c(C#N)cnc23)ccc1C (cis-trans isomerization)
CCC(=O)[N-]c1cc(N=c2[nH]/c(=N/c3ccccc3C(F)(F)F)[n-]n3c(C#N)cnc23)ccc1C (3D coordinates assigned)
CCC(=O)[N-]c1cc(N=c2[nH]/c(=N/c3ccccc3C(F)(F)F)[n-]n3c(C#N)cnc23)ccc1C (optimized conformer: 115.0813977300232 kcal/mol)

>  <smiles>  (32) 
CCC(=O)Nc1cc(N=c2[nH]c(=Nc3ccccc3C(F)(F)F)[nH]n3c(C#N)cnc23)ccc1C

>  <score_type>  (32) 
oracle

>  <origin>  (32) 
adgpu

>  <m_score__min__energy>  (32) 
-9.7799999999999994

>  <m_primary>  (32) 
energy

$$$$
32:0
     RDKit          3D

 37 38  0  0  0  0  0  0  0  0999 V2000
   -5.3630   18.5560  -34.4870 C   0  0  0  0  0  0  0  0  0  0  0  0
   -6.1450   19.5030  -33.6830 N   0  0  0  0  0  0  0  0  0  0  0  0
   -7.0790   18.7780  -32.8130 C   0  0  0  0  0  0  0  0  0  0  0  0
   -5.0770   20.4880  -32.7120 S   0  0  0  0  0  0  0  0  0  0  0  0
   -3.9320   20.9570  -33.5660 O   0  0  0  0  0  0  0  0  0  0  0  0
   -4.5110   19.6650  -31.5880 O   0  0  0  0  0  0  0  0  0  0  0  0
   -5.9140   21.8890  -32.0380 C   0  0  0  0  0  0  0  0  0  0  0  0
   -7.3080   21.8780  -31.8910 C   0  0  0  0  0  0  0  0  0  0  0  0
   -7.9670   22.9930  -31.3670 C   0  0  0  0  0  0  0  0  0  0  0  0
   -7.2400   24.1190  -30.9750 C   0  0  0  0  0  0  0  0  0  0  0  0
   -5.8410   24.1350  -31.0920 C   0  0  0  0  0  0  0  0  0  0  0  0
   -5.0680   25.3170  -30.6500 C   0  0  0  0  0  0  0  0  0  0  0  0
   -5.6600   26.4130  -30.4650 O   0  0  0  0  0  0  0  0  0  0  0  0
   -3.6470   25.2600  -30.4670 N   0  0  0  0  0  0  0  0  0  0  0  0
   -2.9750   24.5500  -29.4170 C   0  0  0  0  0  0  0  0  0  0  0  0
   -3.6610   23.6510  -28.5820 C   0  0  0  0  0  0  0  0  0  0  0  0
   -2.9830   22.9850  -27.5560 C   0  0  0  0  0  0  0  0  0  0  0  0
   -1.6200   23.2130  -27.3540 C   0  0  0  0  0  0  0  0  0  0  0  0
   -0.9330   24.1200  -28.1710 C   0  0  0  0  0  0  0  0  0  0  0  0
    0.4720   24.3570  -27.9610 C   0  0  0  0  0  0  0  0  0  0  0  0
    1.6000   24.5470  -27.7920 N   0  0  0  0  0  0  0  0  0  0  0  0
   -1.6130   24.7950  -29.1930 C   0  0  0  0  0  0  0  0  0  0  0  0
   -5.1860   23.0200  -31.6440 C   0  0  0  0  0  0  0  0  0  0  0  0
   -4.8060   17.8814  -33.8201 H   0  0  0  0  0  0  0  0  0  0  0  0
   -6.0411   17.9666  -35.1217 H   0  0  0  0  0  0  0  0  0  0  0  0
   -4.6560   19.1103  -35.1217 H   0  0  0  0  0  0  0  0  0  0  0  0
   -6.8268   18.9738  -31.7604 H   0  0  0  0  0  0  0  0  0  0  0  0
   -8.1058   19.1179  -33.0134 H   0  0  0  0  0  0  0  0  0  0  0  0
   -7.0043   17.6990  -33.0134 H   0  0  0  0  0  0  0  0  0  0  0  0
   -7.8843   20.9896  -32.1888 H   0  0  0  0  0  0  0  0  0  0  0  0
   -9.0620   22.9839  -31.2629 H   0  0  0  0  0  0  0  0  0  0  0  0
   -7.7658   24.9974  -30.5727 H   0  0  0  0  0  0  0  0  0  0  0  0
   -4.7351   23.4707  -28.7362 H   0  0  0  0  0  0  0  0  0  0  0  0
   -3.5241   22.2805  -26.9071 H   0  0  0  0  0  0  0  0  0  0  0  0
   -1.0860   22.6803  -26.5533 H   0  0  0  0  0  0  0  0  0  0  0  0
   -1.0761   25.5201  -29.8222 H   0  0  0  0  0  0  0  0  0  0  0  0
   -4.0931   23.0355  -31.7677 H   0  0  0  0  0  0  0  0  0  0  0  0
  1  2  1  0
  2  3  1  0
  2  4  1  0
  4  5  2  0
  4  6  2  0
  4  7  1  0
  7  8  2  0
  8  9  1  0
  9 10  2  0
 10 11  1  0
 11 12  1  0
 12 13  2  0
 12 14  1  0
 14 15  1  0
 15 16  2  0
 16 17  1  0
 17 18  2  0
 18 19  1  0
 19 20  1  0
 20 21  3  0
 19 22  2  0
 11 23  2  0
 23  7  1  0
 22 15  1  0
  1 24  1  0
  1 25  1  0
  1 26  1  0
  3 27  1  0
  3 28  1  0
  3 29  1  0
  8 30  1  0
  9 31  1  0
 10 32  1  0
 16 33  1  0
 17 34  1  0
 18 35  1  0
 22 36  1  0
 23 37  1  0
M  CHG  1  14  -1
M  END
>  <UniqueID>  (33) 
27

>  <SMILES>  (33) 
CN(C)S(=O)(=O)c1cccc(C(=O)[N-]c2cccc(C#N)c2)c1

>  <Energy>  (33) 
38.84893674154921

>  <Genealogy>  (33) 
CN(C)S(=O)(=O)c1cccc(C(=O)[N-]c2cccc(C#N)c2)c1 (protonated)
CN(C)S(=O)(=O)c1cccc(C(=O)[N-]c2cccc(C#N)c2)c1 (3D coordinates assigned)
CN(C)S(=O)(=O)c1cccc(C(=O)[N-]c2cccc(C#N)c2)c1 (optimized conformer: 38.84893674154921 kcal/mol)

>  <smiles>  (33) 
CN(C)S(=O)(=O)c1cccc(C(=O)Nc2cccc(C#N)c2)c1

>  <score_type>  (33) 
oracle

>  <origin>  (33) 
adgpu

>  <m_score__min__energy>  (33) 
-9.9800000000000004

>  <m_primary>  (33) 
energy

$$$$
33:0
     RDKit          3D

 40 42  0  0  1  0  0  0  0  0999 V2000
   -1.4640   21.9240  -31.2320 C   0  0  0  0  0  0  0  0  0  0  0  0
   -1.9990   22.2630  -29.8940 C   0  0  0  0  0  0  0  0  0  0  0  0
   -3.0420   23.1180  -29.8450 N   0  0  0  0  0  0  0  0  0  0  0  0
   -3.5410   23.4360  -28.6180 C   0  0  0  0  0  0  0  0  0  0  0  0
   -4.5500   24.2640  -28.5920 N   0  0  0  0  0  0  0  0  0  0  0  0
   -5.1710   24.8880  -30.0970 S   0  0  0  0  0  0  0  0  0  0  0  0
   -4.0550   25.5870  -30.8480 O   0  0  0  0  0  0  0  0  0  0  0  0
   -6.2440   25.9130  -29.8650 O   0  0  0  0  0  0  0  0  0  0  0  0
   -5.8380   23.5810  -31.0510 C   0  0  0  0  0  0  0  0  0  0  0  0
   -5.0240   22.9010  -31.9250 C   0  0  0  0  0  0  0  0  0  0  0  0
   -5.5000   21.8640  -32.7000 C   0  0  0  0  0  0  0  0  0  0  0  0
   -6.8370   21.4610  -32.6260 C   0  0  0  0  0  0  0  0  0  0  0  0
   -7.2000   20.4190  -33.4410 O   0  0  0  0  0  0  0  0  0  0  0  0
   -6.6130   19.1870  -33.4130 C   0  0  0  0  0  0  0  0  0  0  0  0
   -7.0080   18.3180  -32.3920 C   0  0  0  0  0  0  0  0  0  0  0  0
   -6.4690   17.0450  -32.2780 C   0  0  0  0  0  0  0  0  0  0  0  0
   -5.5070   16.5870  -33.1840 C   0  0  0  0  0  0  0  0  0  0  0  0
   -5.1150   17.4420  -34.1940 C   0  0  0  0  0  0  0  0  0  0  0  0
   -3.9120   16.8820  -35.3340 Cl  0  0  0  0  0  0  0  0  0  0  0  0
   -5.6700   18.7080  -34.2830 C   0  0  0  0  0  0  0  0  0  0  0  0
   -7.6280   22.1400  -31.7590 C   0  0  0  0  0  0  0  0  0  0  0  0
   -9.0080   21.8040  -31.6220 C   0  0  0  0  0  0  0  0  0  0  0  0
  -10.1260   21.5520  -31.5030 N   0  0  0  0  0  0  0  0  0  0  0  0
   -7.1580   23.1920  -30.9700 C   0  0  0  0  0  0  0  0  0  0  0  0
   -2.9960   22.8990  -27.4690 C   0  0  0  0  0  0  0  0  0  0  0  0
   -1.9240   22.0230  -27.5400 C   0  0  0  0  0  0  0  0  0  0  0  0
   -1.4510   21.7280  -28.7810 N   0  0  0  0  0  0  0  0  0  0  0  0
   -0.5397   21.3383  -31.1197 H   0  0  0  0  0  0  0  0  0  0  0  0
   -2.2081   21.3322  -31.7853 H   0  0  0  0  0  0  0  0  0  0  0  0
   -1.2467   22.8496  -31.7853 H   0  0  0  0  0  0  0  0  0  0  0  0
   -3.9662   23.1910  -32.0086 H   0  0  0  0  0  0  0  0  0  0  0  0
   -4.8162   21.3452  -33.3880 H   0  0  0  0  0  0  0  0  0  0  0  0
   -7.7622   18.6506  -31.6636 H   0  0  0  0  0  0  0  0  0  0  0  0
   -6.8031   16.3860  -31.4631 H   0  0  0  0  0  0  0  0  0  0  0  0
   -5.0770   15.5785  -33.0945 H   0  0  0  0  0  0  0  0  0  0  0  0
   -5.3344   19.3657  -35.0984 H   0  0  0  0  0  0  0  0  0  0  0  0
   -7.8422   23.7111  -30.2827 H   0  0  0  0  0  0  0  0  0  0  0  0
   -3.4160   23.1685  -26.4887 H   0  0  0  0  0  0  0  0  0  0  0  0
   -1.4765   21.5866  -26.6348 H   0  0  0  0  0  0  0  0  0  0  0  0
   -0.6470   21.0680  -28.8120 H   0  0  0  0  0  0  0  0  0  0  0  0
  1  2  1  0
  2  3  2  0
  3  4  1  0
  4  5  2  0
  5  6  1  0
  6  7  2  0
  6  8  2  0
  6  9  1  0
  9 10  2  0
 10 11  1  0
 11 12  2  0
 12 13  1  0
 13 14  1  0
 14 15  2  0
 15 16  1  0
 16 17  2  0
 17 18  1  0
 18 19  1  0
 18 20  2  0
 12 21  1  0
 21 22  1  0
 22 23  3  0
 21 24  2  0
  4 25  1  0
 25 26  2  0
 26 27  1  0
 27  2  1  0
 24  9  1  0
 20 14  1  0
  1 28  1  0
  1 29  1  0
  1 30  1  0
 10 31  1  0
 11 32  1  0
 15 33  1  0
 16 34  1  0
 17 35  1  0
 20 36  1  0
 24 37  1  0
 25 38  1  0
 26 39  1  0
 27 40  1  0
M  END
>  <smiles>  (34) 
Cc1nc(=NS(=O)(=O)c2ccc(Oc3cccc(Cl)c3)c(C#N)c2)cc[nH]1

>  <score_type>  (34) 
oracle

>  <origin>  (34) 
adgpu

>  <m_score__min__energy>  (34) 
-9.6400000000000006

>  <m_primary>  (34) 
energy

$$$$
34:0
     RDKit          3D

 53 55  0  0  0  0  0  0  0  0999 V2000
   -3.2400   21.6300  -33.4790 C   0  0  0  0  0  0  0  0  0  0  0  0
   -4.2550   20.6910  -32.8440 C   0  0  0  0  0  0  0  0  0  0  0  0
   -5.5880   21.1060  -33.1480 O   0  0  0  0  0  0  0  0  0  0  0  0
   -6.7320   20.4140  -32.7230 C   0  0  0  0  0  0  0  0  0  0  0  0
   -6.8970   19.0420  -33.0090 C   0  0  0  0  0  0  0  0  0  0  0  0
   -5.7510   18.1630  -34.0100 Cl  0  0  0  0  0  0  0  0  0  0  0  0
   -8.0480   18.3710  -32.5820 C   0  0  0  0  0  0  0  0  0  0  0  0
   -9.0460   19.0550  -31.8880 C   0  0  0  0  0  0  0  0  0  0  0  0
   -8.9070   20.4190  -31.6300 C   0  0  0  0  0  0  0  0  0  0  0  0
   -7.7600   21.1130  -32.0490 C   0  0  0  0  0  0  0  0  0  0  0  0
   -7.6610   22.5950  -31.7640 C   0  0  0  0  0  0  0  0  0  0  0  0
   -6.2860   23.0800  -31.9740 N   0  0  0  0  0  0  0  0  0  0  0  0
   -6.0610   24.3880  -31.3370 C   0  0  0  0  0  0  0  0  0  0  0  0
   -4.6290   24.5570  -30.9180 C   0  0  0  0  0  0  0  0  0  0  0  0
   -4.2380   25.6670  -30.4700 O   0  0  0  0  0  0  0  0  0  0  0  0
   -3.7270   23.4490  -31.0190 N   0  0  0  0  0  0  0  0  0  0  0  0
   -3.4140   22.5290  -29.9630 C   0  0  0  0  0  0  0  0  0  0  0  0
   -2.5950   21.4300  -30.2440 C   0  0  0  0  0  0  0  0  0  0  0  0
   -2.2630   20.5200  -29.2370 C   0  0  0  0  0  0  0  0  0  0  0  0
   -2.7320   20.7110  -27.9300 C   0  0  0  0  0  0  0  0  0  0  0  0
   -2.3170   19.5660  -26.6600 S   0  0  0  0  0  0  0  0  0  0  0  0
   -1.6130   20.2630  -25.5290 O   0  0  0  0  0  0  0  0  0  0  0  0
   -3.5790   18.9400  -26.1400 O   0  0  0  0  0  0  0  0  0  0  0  0
   -1.2840   18.3160  -27.2890 N   0  0  0  0  0  0  0  0  0  0  0  0
   -0.0840   18.4700  -27.7720 C   0  0  0  0  0  0  0  0  0  0  0  0
    0.5520   19.7230  -27.8460 C   0  0  0  0  0  0  0  0  0  0  0  0
    1.8360   19.8040  -28.3810 C   0  0  0  0  0  0  0  0  0  0  0  0
    2.4620   18.6430  -28.8300 C   0  0  0  0  0  0  0  0  0  0  0  0
    4.0780   18.7050  -29.5040 Cl  0  0  0  0  0  0  0  0  0  0  0  0
    1.8090   17.4560  -28.7390 N   0  0  0  0  0  0  0  0  0  0  0  0
    0.5790   17.3740  -28.2290 N   0  0  0  0  0  0  0  0  0  0  0  0
   -3.5220   21.8300  -27.6380 C   0  0  0  0  0  0  0  0  0  0  0  0
   -3.8580   22.7390  -28.6450 C   0  0  0  0  0  0  0  0  0  0  0  0
   -2.6777   22.1502  -32.6896 H   0  0  0  0  0  0  0  0  0  0  0  0
   -2.5443   21.0500  -34.1033 H   0  0  0  0  0  0  0  0  0  0  0  0
   -3.7642   22.3686  -34.1033 H   0  0  0  0  0  0  0  0  0  0  0  0
   -4.0967   19.6735  -33.2309 H   0  0  0  0  0  0  0  0  0  0  0  0
   -4.1194   20.7103  -31.7526 H   0  0  0  0  0  0  0  0  0  0  0  0
   -8.1665   17.2983  -32.7947 H   0  0  0  0  0  0  0  0  0  0  0  0
   -9.9428   18.5189  -31.5440 H   0  0  0  0  0  0  0  0  0  0  0  0
   -9.7031   20.9559  -31.0934 H   0  0  0  0  0  0  0  0  0  0  0  0
   -8.3410   23.1374  -32.4373 H   0  0  0  0  0  0  0  0  0  0  0  0
   -7.9390   22.7703  -30.7143 H   0  0  0  0  0  0  0  0  0  0  0  0
   -6.1130   23.1840  -33.0010 H   0  0  0  0  0  0  0  0  0  0  0  0
   -5.5980   22.3860  -31.6000 H   0  0  0  0  0  0  0  0  0  0  0  0
   -6.3205   25.1830  -32.0516 H   0  0  0  0  0  0  0  0  0  0  0  0
   -6.6928   24.4476  -30.4385 H   0  0  0  0  0  0  0  0  0  0  0  0
   -2.2102   21.2815  -31.2637 H   0  0  0  0  0  0  0  0  0  0  0  0
   -1.6312   19.6504  -29.4708 H   0  0  0  0  0  0  0  0  0  0  0  0
    0.0414   20.6282  -27.4856 H   0  0  0  0  0  0  0  0  0  0  0  0
    2.3500   20.7742  -28.4482 H   0  0  0  0  0  0  0  0  0  0  0  0
   -3.8798   21.9943  -26.6109 H   0  0  0  0  0  0  0  0  0  0  0  0
   -4.4710   23.6206  -28.4063 H   0  0  0  0  0  0  0  0  0  0  0  0
  1  2  1  0
  2  3  1  0
  3  4  1  0
  4  5  2  0
  5  6  1  0
  5  7  1  0
  7  8  2  0
  8  9  1  0
  9 10  2  0
 10 11  1  0
 11 12  1  0
 12 13  1  0
 13 14  1  0
 14 15  2  0
 14 16  1  0
 16 17  1  0
 17 18  2  0
 18 19  1  0
 19 20  2  0
 20 21  1  0
 21 22  2  0
 21 23  2  0
 21 24  1  0
 24 25  2  3
 25 26  1  0
 26 27  2  0
 27 28  1  0
 28 29  1  0
 28 30  2  0
 30 31  1  0
 20 32  1  0
 32 33  2  0
 10  4  1  0
 33 17  1  0
 31 25  1  0
  1 34  1  0
  1 35  1  0
  1 36  1  0
  2 37  1  0
  2 38  1  0
  7 39  1  0
  8 40  1  0
  9 41  1  0
 11 42  1  0
 11 43  1  0
 12 44  1  0
 12 45  1  0
 13 46  1  0
 13 47  1  0
 18 48  1  0
 19 49  1  0
 26 50  1  0
 27 51  1  0
 32 52  1  0
 33 53  1  0
M  CHG  3  12   1  16  -1  31  -1
M  END
>  <UniqueID>  (35) 
28

>  <SMILES>  (35) 
CCOc1c(Cl)cccc1C[NH2+]CC(=O)[N-]c1ccc(S(=O)(=O)N=c2ccc(Cl)n[n-]2)cc1

>  <Energy>  (35) 
67.9701805026324

>  <Genealogy>  (35) 
CCOc1c(Cl)cccc1C[NH2+]CC(=O)[N-]c1ccc(S(=O)(=O)N=c2ccc(Cl)n[n-]2)cc1 (protonated)
CCOc1c(Cl)cccc1C[NH2+]CC(=O)[N-]c1ccc(S(=O)(=O)N=c2ccc(Cl)n[n-]2)cc1 (3D coordinates assigned)
CCOc1c(Cl)cccc1C[NH2+]CC(=O)[N-]c1ccc(S(=O)(=O)N=c2ccc(Cl)n[n-]2)cc1 (optimized conformer: 67.9701805026324 kcal/mol)

>  <smiles>  (35) 
CCOc1c(Cl)cccc1CNCC(=O)Nc1ccc(S(=O)(=O)N=c2ccc(Cl)n[nH]2)cc1

>  <score_type>  (35) 
oracle

>  <origin>  (35) 
adgpu

>  <m_score__min__energy>  (35) 
-9.9199999999999999

>  <m_primary>  (35) 
energy

$$$$
35:0
     RDKit          3D

 40 41  0  0  0  0  0  0  0  0999 V2000
   -2.4210   25.2940  -29.3410 N   0  0  0  0  0  0  0  0  0  0  0  0
   -3.3490   24.5080  -30.0870 C   0  0  0  0  0  0  0  0  0  0  0  0
   -4.3530   25.0710  -30.6010 O   0  0  0  0  0  0  0  0  0  0  0  0
   -3.1390   23.0510  -30.2560 C   0  0  0  0  0  0  0  0  0  0  0  0
   -2.6050   22.2780  -29.2090 C   0  0  0  0  0  0  0  0  0  0  0  0
   -2.4260   20.8960  -29.3560 C   0  0  0  0  0  0  0  0  0  0  0  0
   -1.8650   20.1380  -28.2700 N   0  0  0  0  0  0  0  0  0  0  0  0
   -2.6350   19.5110  -27.2300 C   0  0  0  0  0  0  0  0  0  0  0  0
   -2.1320   18.3230  -26.6120 N   0  0  0  0  0  0  0  0  0  0  0  0
   -3.7350   20.0480  -26.7980 N   0  0  0  0  0  0  0  0  0  0  0  0
   -2.7420   20.2870  -30.5810 C   0  0  0  0  0  0  0  0  0  0  0  0
   -3.2530   21.0500  -31.6440 C   0  0  0  0  0  0  0  0  0  0  0  0
   -3.5960   20.4680  -32.8750 O   0  0  0  0  0  0  0  0  0  0  0  0
   -4.5950   19.5030  -33.0670 C   0  0  0  0  0  0  0  0  0  0  0  0
   -4.2550   18.3010  -33.6980 C   0  0  0  0  0  0  0  0  0  0  0  0
   -5.2200   17.3130  -33.9000 C   0  0  0  0  0  0  0  0  0  0  0  0
   -6.5320   17.5130  -33.4650 C   0  0  0  0  0  0  0  0  0  0  0  0
   -6.8910   18.7050  -32.8110 C   0  0  0  0  0  0  0  0  0  0  0  0
   -8.2790   18.9180  -32.3280 C   0  0  0  0  0  0  0  0  0  0  0  0
   -8.6830   18.3870  -31.0600 N   0  0  0  0  0  0  0  0  0  0  0  0
   -9.1330   19.5880  -33.0430 N   0  0  0  0  0  0  0  0  0  0  0  0
   -5.9110   19.6920  -32.6060 C   0  0  0  0  0  0  0  0  0  0  0  0
   -3.4690   22.4200  -31.4680 C   0  0  0  0  0  0  0  0  0  0  0  0
   -1.5640   25.6850  -29.7910 H   0  0  0  0  0  0  0  0  0  0  0  0
   -2.3245   22.7645  -28.2631 H   0  0  0  0  0  0  0  0  0  0  0  0
   -0.8270   20.0140  -28.2420 H   0  0  0  0  0  0  0  0  0  0  0  0
   -2.6520   17.8600  -25.8340 H   0  0  0  0  0  0  0  0  0  0  0  0
   -1.2380   17.8970  -26.9400 H   0  0  0  0  0  0  0  0  0  0  0  0
   -4.0880   20.9530  -27.1810 H   0  0  0  0  0  0  0  0  0  0  0  0
   -4.2820   19.6010  -26.0280 H   0  0  0  0  0  0  0  0  0  0  0  0
   -2.5884   19.2053  -30.7092 H   0  0  0  0  0  0  0  0  0  0  0  0
   -3.2218   18.1340  -34.0366 H   0  0  0  0  0  0  0  0  0  0  0  0
   -4.9463   16.3740  -34.4033 H   0  0  0  0  0  0  0  0  0  0  0  0
   -7.2891   16.7334  -33.6350 H   0  0  0  0  0  0  0  0  0  0  0  0
   -8.0490   17.7670  -30.5080 H   0  0  0  0  0  0  0  0  0  0  0  0
   -9.6410   18.5690  -30.6860 H   0  0  0  0  0  0  0  0  0  0  0  0
   -8.8670   20.0210  -33.9550 H   0  0  0  0  0  0  0  0  0  0  0  0
  -10.1110   19.7360  -32.7050 H   0  0  0  0  0  0  0  0  0  0  0  0
   -6.1756   20.6212  -32.0800 H   0  0  0  0  0  0  0  0  0  0  0  0
   -3.9025   23.0114  -32.2880 H   0  0  0  0  0  0  0  0  0  0  0  0
  1  2  1  0
  2  3  2  0
  2  4  1  0
  4  5  2  0
  5  6  1  0
  6  7  1  0
  7  8  1  0
  8  9  1  0
  8 10  2  0
  6 11  2  0
 11 12  1  0
 12 13  1  0
 13 14  1  0
 14 15  2  0
 15 16  1  0
 16 17  2  0
 17 18  1  0
 18 19  1  0
 19 20  1  0
 19 21  2  0
 18 22  2  0
 12 23  2  0
 23  4  1  0
 22 14  1  0
  1 24  1  0
  5 25  1  0
  7 26  1  0
  9 27  1  0
  9 28  1  0
 10 29  1  0
 10 30  1  0
 11 31  1  0
 15 32  1  0
 16 33  1  0
 17 34  1  0
 20 35  1  0
 20 36  1  0
 21 37  1  0
 21 38  1  0
 22 39  1  0
 23 40  1  0
M  CHG  3   1  -1  10   1  21   1
M  END
>  <UniqueID>  (36) 
29

>  <SMILES>  (36) 
[NH-]C(=O)c1cc(NC(N)=[NH2+])cc(Oc2cccc(C(N)=[NH2+])c2)c1

>  <Energy>  (36) 
51.384668298139346

>  <Genealogy>  (36) 
[NH-]C(=O)c1cc(NC(N)=[NH2+])cc(Oc2cccc(C(N)=[NH2+])c2)c1 (protonated)
[NH-]C(=O)c1cc(NC(N)=[NH2+])cc(Oc2cccc(C(N)=[NH2+])c2)c1 (3D coordinates assigned)
[NH-]C(=O)c1cc(NC(N)=[NH2+])cc(Oc2cccc(C(N)=[NH2+])c2)c1 (optimized conformer: 51.384668298139346 kcal/mol)

>  <smiles>  (36) 
N=C(N)Nc1cc(Oc2cccc(C(=N)N)c2)cc(C(N)=O)c1

>  <score_type>  (36) 
oracle

>  <origin>  (36) 
adgpu

>  <m_score__min__energy>  (36) 
-10.119999999999999

>  <m_primary>  (36) 
energy

$$$$
36:0
     RDKit          3D

 48 51  0  0  0  0  0  0  0  0999 V2000
   -6.6450   16.3160  -33.6080 C   0  0  0  0  0  0  0  0  0  0  0  0
   -6.4950   17.7310  -33.1310 C   0  0  0  0  0  0  0  0  0  0  0  0
   -7.4710   18.3050  -32.3050 C   0  0  0  0  0  0  0  0  0  0  0  0
   -7.3510   19.6340  -31.8890 C   0  0  0  0  0  0  0  0  0  0  0  0
   -6.2620   20.4200  -32.3090 C   0  0  0  0  0  0  0  0  0  0  0  0
   -6.1090   21.8330  -31.8730 C   0  0  0  0  0  0  0  0  0  0  0  0
   -6.8550   22.8720  -32.4450 C   0  0  0  0  0  0  0  0  0  0  0  0
   -6.6710   24.1730  -31.9890 C   0  0  0  0  0  0  0  0  0  0  0  0
   -5.7430   24.4220  -30.9800 C   0  0  0  0  0  0  0  0  0  0  0  0
   -5.6080   25.5980  -30.5430 O   0  0  0  0  0  0  0  0  0  0  0  0
   -5.0070   23.3860  -30.4650 N   0  0  0  0  0  0  0  0  0  0  0  0
   -4.0230   23.5930  -29.4340 C   0  0  0  0  0  0  0  0  0  0  0  0
   -2.6570   23.4640  -29.7330 C   0  0  0  0  0  0  0  0  0  0  0  0
   -1.6920   23.6860  -28.7470 C   0  0  0  0  0  0  0  0  0  0  0  0
   -2.0710   24.0520  -27.4430 C   0  0  0  0  0  0  0  0  0  0  0  0
   -1.0730   24.2830  -26.4220 N   0  0  0  0  0  0  0  0  0  0  0  0
    0.0730   23.3730  -26.2840 C   0  0  0  0  0  0  0  0  0  0  0  0
    0.6300   23.4360  -24.8580 C   0  0  0  0  0  0  0  0  0  0  0  0
    1.0220   24.8030  -24.4690 N   0  0  0  0  0  0  0  0  0  0  0  0
    0.1750   25.8780  -25.0260 C   0  0  0  0  0  0  0  0  0  0  0  0
   -1.2110   25.3960  -25.4760 C   0  0  0  0  0  0  0  0  0  0  0  0
   -3.4390   24.1990  -27.1510 C   0  0  0  0  0  0  0  0  0  0  0  0
   -4.4040   23.9760  -28.1370 C   0  0  0  0  0  0  0  0  0  0  0  0
   -5.2050   22.1390  -30.9030 N   0  0  0  0  0  0  0  0  0  0  0  0
   -5.2900   19.8380  -33.1440 C   0  0  0  0  0  0  0  0  0  0  0  0
   -5.4120   18.5090  -33.5590 C   0  0  0  0  0  0  0  0  0  0  0  0
   -6.7164   15.6425  -32.7412 H   0  0  0  0  0  0  0  0  0  0  0  0
   -7.5574   16.2289  -34.2162 H   0  0  0  0  0  0  0  0  0  0  0  0
   -5.7711   16.0395  -34.2162 H   0  0  0  0  0  0  0  0  0  0  0  0
   -8.3358   17.7066  -31.9825 H   0  0  0  0  0  0  0  0  0  0  0  0
   -8.1145   20.0693  -31.2275 H   0  0  0  0  0  0  0  0  0  0  0  0
   -7.5785   22.6610  -33.2462 H   0  0  0  0  0  0  0  0  0  0  0  0
   -7.2539   24.9994  -32.4218 H   0  0  0  0  0  0  0  0  0  0  0  0
   -2.3444   23.1863  -30.7504 H   0  0  0  0  0  0  0  0  0  0  0  0
   -0.6258   23.5734  -28.9931 H   0  0  0  0  0  0  0  0  0  0  0  0
   -0.2512   22.3448  -26.5024 H   0  0  0  0  0  0  0  0  0  0  0  0
    0.8596   23.6768  -26.9903 H   0  0  0  0  0  0  0  0  0  0  0  0
   -0.1418   23.0777  -24.1609 H   0  0  0  0  0  0  0  0  0  0  0  0
    1.5302   22.8049  -24.8207 H   0  0  0  0  0  0  0  0  0  0  0  0
    0.9940   24.8610  -23.4240 H   0  0  0  0  0  0  0  0  0  0  0  0
    0.0412   26.6506  -24.2545 H   0  0  0  0  0  0  0  0  0  0  0  0
    0.6885   26.2638  -25.9190 H   0  0  0  0  0  0  0  0  0  0  0  0
   -1.7822   25.0593  -24.5983 H   0  0  0  0  0  0  0  0  0  0  0  0
   -1.7390   26.2255  -25.9692 H   0  0  0  0  0  0  0  0  0  0  0  0
   -3.7520   24.4920  -26.1380 H   0  0  0  0  0  0  0  0  0  0  0  0
   -5.4699   24.1013  -27.8958 H   0  0  0  0  0  0  0  0  0  0  0  0
   -4.4264   20.4346  -33.4730 H   0  0  0  0  0  0  0  0  0  0  0  0
   -4.6536   18.0719  -34.2251 H   0  0  0  0  0  0  0  0  0  0  0  0
  1  2  1  0
  2  3  2  0
  3  4  1  0
  4  5  2  0
  5  6  1  0
  6  7  1  0
  7  8  2  0
  8  9  1  0
  9 10  2  0
  9 11  1  0
 11 12  1  0
 12 13  2  0
 13 14  1  0
 14 15  2  0
 15 16  1  0
 16 17  1  0
 17 18  1  0
 18 19  1  0
 19 20  1  0
 20 21  1  0
 15 22  1  0
 22 23  2  0
 11 24  1  0
  5 25  1  0
 25 26  2  0
 26  2  1  0
 24  6  2  0
 23 12  1  0
 21 16  1  0
  1 27  1  0
  1 28  1  0
  1 29  1  0
  3 30  1  0
  4 31  1  0
  7 32  1  0
  8 33  1  0
 13 34  1  0
 14 35  1  0
 17 36  1  0
 17 37  1  0
 18 38  1  0
 18 39  1  0
 19 40  1  0
 20 41  1  0
 20 42  1  0
 21 43  1  0
 21 44  1  0
 22 45  1  0
 23 46  1  0
 25 47  1  0
 26 48  1  0
M  END
>  <UniqueID>  (37) 
30

>  <SMILES>  (37) 
Cc1ccc(-c2ccc(=O)n(-c3ccc(N4CCNCC4)cc3)n2)cc1

>  <Energy>  (37) 
70.06775543975658

>  <Genealogy>  (37) 
Cc1ccc(-c2ccc(=O)n(-c3ccc(N4CCNCC4)cc3)n2)cc1 (3D coordinates assigned)
Cc1ccc(-c2ccc(=O)n(-c3ccc(N4CCNCC4)cc3)n2)cc1 (nonaromatic ring conformer: 70.06775543975658 kcal/mol)

>  <smiles>  (37) 
Cc1ccc(-c2ccc(=O)n(-c3ccc(N4CCNCC4)cc3)n2)cc1

>  <score_type>  (37) 
oracle

>  <origin>  (37) 
adgpu

>  <m_score__min__energy>  (37) 
-8.9100000000000001

>  <m_primary>  (37) 
energy

$$$$
37:0
     RDKit          3D

 60 64  0  0  0  0  0  0  0  0999 V2000
   -1.4380   20.3330  -33.6240 O   0  0  0  0  0  0  0  0  0  0  0  0
   -1.4070   19.1520  -33.1830 C   0  0  0  0  0  0  0  0  0  0  0  0
   -0.9090   18.9020  -31.8570 N   0  0  0  0  0  0  0  0  0  0  0  0
   -0.8710   19.8980  -30.8210 C   0  0  0  0  0  0  0  0  0  0  0  0
    0.0520   19.8190  -29.7640 C   0  0  0  0  0  0  0  0  0  0  0  0
    0.0890   20.8130  -28.7820 C   0  0  0  0  0  0  0  0  0  0  0  0
   -0.7870   21.9100  -28.8430 C   0  0  0  0  0  0  0  0  0  0  0  0
   -0.7530   22.9340  -27.8280 N   0  0  0  0  0  0  0  0  0  0  0  0
    0.4270   23.0760  -26.9580 C   0  0  0  0  0  0  0  0  0  0  0  0
    0.6870   24.5540  -26.6330 C   0  0  0  0  0  0  0  0  0  0  0  0
   -0.5560   25.2710  -26.3080 N   0  0  0  0  0  0  0  0  0  0  0  0
   -0.5280   26.7020  -26.1490 C   0  0  0  0  0  0  0  0  0  0  0  0
   -1.0440   27.2990  -24.9840 C   0  0  0  0  0  0  0  0  0  0  0  0
   -1.0290   28.6900  -24.8360 C   0  0  0  0  0  0  0  0  0  0  0  0
   -0.5090   29.4970  -25.8500 C   0  0  0  0  0  0  0  0  0  0  0  0
   -0.4990   30.8450  -25.7060 F   0  0  0  0  0  0  0  0  0  0  0  0
    0.0000   28.9140  -27.0140 C   0  0  0  0  0  0  0  0  0  0  0  0
   -0.0100   27.5230  -27.1640 C   0  0  0  0  0  0  0  0  0  0  0  0
   -1.8260   24.5380  -26.2720 C   0  0  0  0  0  0  0  0  0  0  0  0
   -1.9700   23.7170  -27.5540 C   0  0  0  0  0  0  0  0  0  0  0  0
   -1.6980   21.9930  -29.9080 C   0  0  0  0  0  0  0  0  0  0  0  0
   -1.7310   21.0010  -30.8930 C   0  0  0  0  0  0  0  0  0  0  0  0
   -1.8460   18.0350  -34.0570 C   0  0  0  0  0  0  0  0  0  0  0  0
   -0.9100   17.2390  -34.7400 C   0  0  0  0  0  0  0  0  0  0  0  0
   -1.3330   16.1790  -35.5470 C   0  0  0  0  0  0  0  0  0  0  0  0
   -2.7010   15.8880  -35.6870 C   0  0  0  0  0  0  0  0  0  0  0  0
   -3.1500   14.7550  -36.5360 C   0  0  0  0  0  0  0  0  0  0  0  0
   -3.7690   13.6290  -35.9600 C   0  0  0  0  0  0  0  0  0  0  0  0
   -4.1980   12.5670  -36.7610 C   0  0  0  0  0  0  0  0  0  0  0  0
   -4.0150   12.6150  -38.1450 C   0  0  0  0  0  0  0  0  0  0  0  0
   -3.4020   13.7250  -38.7290 C   0  0  0  0  0  0  0  0  0  0  0  0
   -2.9690   14.7900  -37.9320 C   0  0  0  0  0  0  0  0  0  0  0  0
   -3.6360   16.6810  -35.0020 C   0  0  0  0  0  0  0  0  0  0  0  0
   -3.2130   17.7400  -34.1930 C   0  0  0  0  0  0  0  0  0  0  0  0
   -0.4480   17.9830  -31.6690 H   0  0  0  0  0  0  0  0  0  0  0  0
    0.7493   18.9700  -29.7092 H   0  0  0  0  0  0  0  0  0  0  0  0
    0.8098   20.7359  -27.9546 H   0  0  0  0  0  0  0  0  0  0  0  0
    0.2536   22.5255  -26.0216 H   0  0  0  0  0  0  0  0  0  0  0  0
    1.3042   22.6697  -27.4828 H   0  0  0  0  0  0  0  0  0  0  0  0
    1.3680   24.6142  -25.7713 H   0  0  0  0  0  0  0  0  0  0  0  0
    1.1302   25.0258  -27.5223 H   0  0  0  0  0  0  0  0  0  0  0  0
   -1.4615   26.6684  -24.1852 H   0  0  0  0  0  0  0  0  0  0  0  0
   -1.4276   29.1489  -23.9192 H   0  0  0  0  0  0  0  0  0  0  0  0
    0.4090   29.5497  -27.8131 H   0  0  0  0  0  0  0  0  0  0  0  0
    0.3904   27.0695  -28.0827 H   0  0  0  0  0  0  0  0  0  0  0  0
   -1.8381   23.8657  -25.4014 H   0  0  0  0  0  0  0  0  0  0  0  0
   -2.6610   25.2497  -26.1935 H   0  0  0  0  0  0  0  0  0  0  0  0
   -2.8216   23.0292  -27.4452 H   0  0  0  0  0  0  0  0  0  0  0  0
   -2.1334   24.4094  -28.3930 H   0  0  0  0  0  0  0  0  0  0  0  0
   -2.3912   22.8450  -29.9681 H   0  0  0  0  0  0  0  0  0  0  0  0
   -2.4381   21.0877  -31.7311 H   0  0  0  0  0  0  0  0  0  0  0  0
    0.1644   17.4521  -34.6385 H   0  0  0  0  0  0  0  0  0  0  0  0
   -0.5886   15.5670  -36.0773 H   0  0  0  0  0  0  0  0  0  0  0  0
   -3.9161   13.5848  -34.8708 H   0  0  0  0  0  0  0  0  0  0  0  0
   -4.6805   11.6921  -36.3009 H   0  0  0  0  0  0  0  0  0  0  0  0
   -4.3537   11.7788  -38.7743 H   0  0  0  0  0  0  0  0  0  0  0  0
   -3.2591   13.7623  -39.8190 H   0  0  0  0  0  0  0  0  0  0  0  0
   -2.4841   15.6601  -38.3987 H   0  0  0  0  0  0  0  0  0  0  0  0
   -4.7103   16.4671  -35.1028 H   0  0  0  0  0  0  0  0  0  0  0  0
   -3.9574   18.3479  -33.6580 H   0  0  0  0  0  0  0  0  0  0  0  0
  1  2  2  0
  2  3  1  0
  3  4  1  0
  4  5  2  0
  5  6  1  0
  6  7  2  0
  7  8  1  0
  8  9  1  0
  9 10  1  0
 10 11  1  0
 11 12  1  0
 12 13  2  0
 13 14  1  0
 14 15  2  0
 15 16  1  0
 15 17  1  0
 17 18  2  0
 11 19  1  0
 19 20  1  0
  7 21  1  0
 21 22  2  0
  2 23  1  0
 23 24  2  0
 24 25  1  0
 25 26  2  0
 26 27  1  0
 27 28  2  0
 28 29  1  0
 29 30  2  0
 30 31  1  0
 31 32  2  0
 26 33  1  0
 33 34  2  0
 22  4  1  0
 34 23  1  0
 20  8  1  0
 32 27  1  0
 18 12  1  0
  3 35  1  0
  5 36  1  0
  6 37  1  0
  9 38  1  0
  9 39  1  0
 10 40  1  0
 10 41  1  0
 13 42  1  0
 14 43  1  0
 17 44  1  0
 18 45  1  0
 19 46  1  0
 19 47  1  0
 20 48  1  0
 20 49  1  0
 21 50  1  0
 22 51  1  0
 24 52  1  0
 25 53  1  0
 28 54  1  0
 29 55  1  0
 30 56  1  0
 31 57  1  0
 32 58  1  0
 33 59  1  0
 34 60  1  0
M  END
>  <UniqueID>  (38) 
31

>  <SMILES>  (38) 
O=C(Nc1ccc(N2CCN(c3ccc(F)cc3)CC2)cc1)c1ccc(-c2ccccc2)cc1

>  <Energy>  (38) 
85.2034405109575

>  <Genealogy>  (38) 
O=C(Nc1ccc(N2CCN(c3ccc(F)cc3)CC2)cc1)c1ccc(-c2ccccc2)cc1 (3D coordinates assigned)
O=C(Nc1ccc(N2CCN(c3ccc(F)cc3)CC2)cc1)c1ccc(-c2ccccc2)cc1 (nonaromatic ring conformer: 85.2034405109575 kcal/mol)

>  <smiles>  (38) 
O=C(Nc1ccc(N2CCN(c3ccc(F)cc3)CC2)cc1)c1ccc(-c2ccccc2)cc1

>  <score_type>  (38) 
oracle

>  <origin>  (38) 
adgpu

>  <m_score__min__energy>  (38) 
-7.6200000000000001

>  <m_primary>  (38) 
energy

$$$$
38:0
     RDKit          3D

 60 64  0  0  0  0  0  0  0  0999 V2000
   -0.5380   21.0080  -31.4600 C   0  0  0  0  0  0  0  0  0  0  0  0
   -0.2050   21.1480  -30.0840 O   0  0  0  0  0  0  0  0  0  0  0  0
   -0.9770   20.6480  -29.0220 C   0  0  0  0  0  0  0  0  0  0  0  0
   -0.8520   19.3190  -28.5740 C   0  0  0  0  0  0  0  0  0  0  0  0
   -1.6200   18.8590  -27.5010 C   0  0  0  0  0  0  0  0  0  0  0  0
   -2.5220   19.7150  -26.8680 C   0  0  0  0  0  0  0  0  0  0  0  0
   -2.6610   21.0330  -27.3060 C   0  0  0  0  0  0  0  0  0  0  0  0
   -1.8930   21.5070  -28.3810 C   0  0  0  0  0  0  0  0  0  0  0  0
   -2.0760   22.9000  -28.8430 C   0  0  0  0  0  0  0  0  0  0  0  0
   -1.2960   23.9960  -28.4690 C   0  0  0  0  0  0  0  0  0  0  0  0
   -0.0700   24.0190  -27.6450 C   0  0  0  0  0  0  0  0  0  0  0  0
    1.0470   23.9290  -28.2220 O   0  0  0  0  0  0  0  0  0  0  0  0
   -0.1280   24.0750  -26.1310 C   0  0  0  0  0  0  0  0  0  0  0  0
    1.1050   24.8090  -25.5620 C   0  0  0  0  0  0  0  0  0  0  0  0
    1.0540   26.3370  -25.7620 C   0  0  0  0  0  0  0  0  0  0  0  0
   -0.3590   26.9390  -25.6210 C   0  0  0  0  0  0  0  0  0  0  0  0
   -1.3180   26.0050  -24.8800 C   0  0  0  0  0  0  0  0  0  0  0  0
   -1.4730   24.6710  -25.6260 C   0  0  0  0  0  0  0  0  0  0  0  0
   -1.8850   25.0960  -29.0580 C   0  0  0  0  0  0  0  0  0  0  0  0
   -1.4550   26.4140  -28.9640 O   0  0  0  0  0  0  0  0  0  0  0  0
   -2.9740   24.6510  -29.7670 C   0  0  0  0  0  0  0  0  0  0  0  0
   -3.8450   25.4720  -30.4810 O   0  0  0  0  0  0  0  0  0  0  0  0
   -3.0950   23.3110  -29.6430 N   0  0  0  0  0  0  0  0  0  0  0  0
   -4.1280   22.4910  -30.2130 C   0  0  0  0  0  0  0  0  0  0  0  0
   -5.4720   22.8810  -30.1300 C   0  0  0  0  0  0  0  0  0  0  0  0
   -6.4800   22.0550  -30.6330 C   0  0  0  0  0  0  0  0  0  0  0  0
   -6.1620   20.8200  -31.2280 C   0  0  0  0  0  0  0  0  0  0  0  0
   -7.2340   19.9340  -31.7520 C   0  0  0  0  0  0  0  0  0  0  0  0
   -7.1070   18.5360  -31.8570 C   0  0  0  0  0  0  0  0  0  0  0  0
   -8.2310   17.9100  -32.3760 C   0  0  0  0  0  0  0  0  0  0  0  0
   -9.3800   19.0870  -32.7070 S   0  0  0  0  0  0  0  0  0  0  0  0
   -8.4710   20.4020  -32.1950 C   0  0  0  0  0  0  0  0  0  0  0  0
   -4.8110   20.4370  -31.3130 C   0  0  0  0  0  0  0  0  0  0  0  0
   -3.8050   21.2660  -30.8110 C   0  0  0  0  0  0  0  0  0  0  0  0
   -1.5485   20.5831  -31.5513 H   0  0  0  0  0  0  0  0  0  0  0  0
   -0.5096   21.9942  -31.9463 H   0  0  0  0  0  0  0  0  0  0  0  0
    0.1866   20.3384  -31.9463 H   0  0  0  0  0  0  0  0  0  0  0  0
   -0.1454   18.6386  -29.0717 H   0  0  0  0  0  0  0  0  0  0  0  0
   -1.5133   17.8204  -27.1548 H   0  0  0  0  0  0  0  0  0  0  0  0
   -3.1243   19.3507  -26.0227 H   0  0  0  0  0  0  0  0  0  0  0  0
   -3.3758   21.7034  -26.8063 H   0  0  0  0  0  0  0  0  0  0  0  0
   -0.0932   23.0444  -25.7481 H   0  0  0  0  0  0  0  0  0  0  0  0
    1.1682   24.6003  -24.4838 H   0  0  0  0  0  0  0  0  0  0  0  0
    1.9845   24.4389  -26.1093 H   0  0  0  0  0  0  0  0  0  0  0  0
    1.7069   26.8065  -25.0115 H   0  0  0  0  0  0  0  0  0  0  0  0
    1.3842   26.5353  -26.7924 H   0  0  0  0  0  0  0  0  0  0  0  0
   -0.2863   27.8850  -25.0645 H   0  0  0  0  0  0  0  0  0  0  0  0
   -0.7593   27.0975  -26.6332 H   0  0  0  0  0  0  0  0  0  0  0  0
   -0.9231   25.8098  -23.8721 H   0  0  0  0  0  0  0  0  0  0  0  0
   -2.3035   26.4899  -24.8203 H   0  0  0  0  0  0  0  0  0  0  0  0
   -1.9402   23.9447  -24.9447 H   0  0  0  0  0  0  0  0  0  0  0  0
   -2.0893   24.8705  -26.5151 H   0  0  0  0  0  0  0  0  0  0  0  0
   -3.8740   26.4730  -30.3360 H   0  0  0  0  0  0  0  0  0  0  0  0
   -5.7344   23.8432  -29.6660 H   0  0  0  0  0  0  0  0  0  0  0  0
   -7.5309   22.3725  -30.5634 H   0  0  0  0  0  0  0  0  0  0  0  0
   -6.2006   17.9905  -31.5555 H   0  0  0  0  0  0  0  0  0  0  0  0
   -8.3486   16.8289  -32.5418 H   0  0  0  0  0  0  0  0  0  0  0  0
   -8.7954   21.4530  -32.2068 H   0  0  0  0  0  0  0  0  0  0  0  0
   -4.5446   19.4767  -31.7787 H   0  0  0  0  0  0  0  0  0  0  0  0
   -2.7525   20.9550  -30.8857 H   0  0  0  0  0  0  0  0  0  0  0  0
  1  2  1  0
  2  3  1  0
  3  4  2  0
  4  5  1  0
  5  6  2  0
  6  7  1  0
  7  8  2  0
  8  9  1  0
  9 10  2  0
 10 11  1  0
 11 12  2  0
 11 13  1  0
 13 14  1  0
 14 15  1  0
 15 16  1  0
 16 17  1  0
 17 18  1  0
 10 19  1  0
 19 20  1  0
 19 21  2  0
 21 22  1  0
 21 23  1  0
 23 24  1  0
 24 25  2  0
 25 26  1  0
 26 27  2  0
 27 28  1  0
 28 29  1  0
 29 30  2  0
 30 31  1  0
 31 32  1  0
 27 33  1  0
 33 34  2  0
  8  3  1  0
 23  9  1  0
 34 24  1  0
 18 13  1  0
 32 28  2  0
  1 35  1  0
  1 36  1  0
  1 37  1  0
  4 38  1  0
  5 39  1  0
  6 40  1  0
  7 41  1  0
 13 42  1  0
 14 43  1  0
 14 44  1  0
 15 45  1  0
 15 46  1  0
 16 47  1  0
 16 48  1  0
 17 49  1  0
 17 50  1  0
 18 51  1  0
 18 52  1  0
 22 53  1  0
 25 54  1  0
 26 55  1  0
 29 56  1  0
 30 57  1  0
 32 58  1  0
 33 59  1  0
 34 60  1  0
M  CHG  1  20  -1
M  END
>  <UniqueID>  (39) 
32

>  <SMILES>  (39) 
COc1ccccc1-c1c(C(=O)C2CCCCC2)c([O-])c(O)n1-c1ccc(-c2ccsc2)cc1

>  <Energy>  (39) 
138.6358320070831

>  <Genealogy>  (39) 
COc1ccccc1-c1c(C(=O)C2CCCCC2)c([O-])c(O)n1-c1ccc(-c2ccsc2)cc1 (protonated)
COc1ccccc1-c1c(C(=O)C2CCCCC2)c([O-])c(O)n1-c1ccc(-c2ccsc2)cc1 (3D coordinates assigned)
COc1ccccc1-c1c(C(=O)C2CCCCC2)c([O-])c(O)n1-c1ccc(-c2ccsc2)cc1 (nonaromatic ring conformer: 138.6358320070831 kcal/mol)

>  <smiles>  (39) 
COc1ccccc1-c1c(C(=O)C2CCCCC2)c(O)c(O)n1-c1ccc(-c2ccsc2)cc1

>  <score_type>  (39) 
oracle

>  <origin>  (39) 
adgpu

>  <m_score__min__energy>  (39) 
-13.65

>  <m_primary>  (39) 
energy

$$$$
39:0
     RDKit          3D

 48 50  0  0  0  0  0  0  0  0999 V2000
   -0.8100   21.1100  -33.0670 C   0  0  0  0  0  0  0  0  0  0  0  0
   -1.0310   21.2570  -31.5660 C   0  0  0  0  0  0  0  0  0  0  0  0
   -2.4500   21.6390  -31.2760 C   0  0  0  0  0  0  0  0  0  0  0  0
   -3.3550   20.7650  -31.3630 O   0  0  0  0  0  0  0  0  0  0  0  0
   -2.7550   22.9660  -30.8140 N   0  0  0  0  0  0  0  0  0  0  0  0
   -4.0900   23.4810  -30.6740 C   0  0  0  0  0  0  0  0  0  0  0  0
   -4.3670   24.4050  -29.6570 C   0  0  0  0  0  0  0  0  0  0  0  0
   -5.6540   24.9240  -29.5040 C   0  0  0  0  0  0  0  0  0  0  0  0
   -6.6750   24.5390  -30.3750 C   0  0  0  0  0  0  0  0  0  0  0  0
   -6.4080   23.6410  -31.4210 C   0  0  0  0  0  0  0  0  0  0  0  0
   -7.5170   23.2020  -32.3410 C   0  0  0  0  0  0  0  0  0  0  0  0
   -7.7830   21.7630  -32.1660 N   0  0  0  0  0  0  0  0  0  0  0  0
   -8.8450   21.3800  -31.3950 C   0  0  0  0  0  0  0  0  0  0  0  0
   -9.1110   20.0320  -31.1650 C   0  0  0  0  0  0  0  0  0  0  0  0
   -8.2830   19.0650  -31.7250 C   0  0  0  0  0  0  0  0  0  0  0  0
   -7.1920   19.4450  -32.5170 C   0  0  0  0  0  0  0  0  0  0  0  0
   -6.3170   18.4020  -33.1090 C   0  0  0  0  0  0  0  0  0  0  0  0
   -6.8580   17.1680  -33.5100 C   0  0  0  0  0  0  0  0  0  0  0  0
   -6.0370   16.1820  -34.0640 C   0  0  0  0  0  0  0  0  0  0  0  0
   -4.6710   16.4200  -34.2330 C   0  0  0  0  0  0  0  0  0  0  0  0
   -4.1180   17.6550  -33.8630 C   0  0  0  0  0  0  0  0  0  0  0  0
   -2.6460   17.8970  -34.0170 C   0  0  0  0  0  0  0  0  0  0  0  0
   -4.9420   18.6370  -33.2890 C   0  0  0  0  0  0  0  0  0  0  0  0
   -6.9470   20.8210  -32.7190 C   0  0  0  0  0  0  0  0  0  0  0  0
   -5.9440   21.1840  -33.3930 O   0  0  0  0  0  0  0  0  0  0  0  0
   -5.1130   23.1180  -31.5680 C   0  0  0  0  0  0  0  0  0  0  0  0
    0.0935   20.5090  -33.2475 H   0  0  0  0  0  0  0  0  0  0  0  0
   -1.6794   20.6096  -33.5184 H   0  0  0  0  0  0  0  0  0  0  0  0
   -0.6846   22.1053  -33.5184 H   0  0  0  0  0  0  0  0  0  0  0  0
   -0.8063   20.3001  -31.0723 H   0  0  0  0  0  0  0  0  0  0  0  0
   -0.3667   22.0471  -31.1859 H   0  0  0  0  0  0  0  0  0  0  0  0
   -1.9610   23.5580  -30.4800 H   0  0  0  0  0  0  0  0  0  0  0  0
   -3.5649   24.7233  -28.9748 H   0  0  0  0  0  0  0  0  0  0  0  0
   -5.8643   25.6386  -28.6946 H   0  0  0  0  0  0  0  0  0  0  0  0
   -7.6906   24.9399  -30.2416 H   0  0  0  0  0  0  0  0  0  0  0  0
   -8.4291   23.7712  -32.1083 H   0  0  0  0  0  0  0  0  0  0  0  0
   -7.2145   23.3873  -33.3822 H   0  0  0  0  0  0  0  0  0  0  0  0
   -9.4977   22.1459  -30.9506 H   0  0  0  0  0  0  0  0  0  0  0  0
   -9.9696   19.7346  -30.5450 H   0  0  0  0  0  0  0  0  0  0  0  0
   -8.4855   17.9988  -31.5454 H   0  0  0  0  0  0  0  0  0  0  0  0
   -7.9343   16.9773  -33.3869 H   0  0  0  0  0  0  0  0  0  0  0  0
   -6.4675   15.2163  -34.3676 H   0  0  0  0  0  0  0  0  0  0  0  0
   -4.0266   15.6362  -34.6577 H   0  0  0  0  0  0  0  0  0  0  0  0
   -2.1810   17.9734  -33.0230 H   0  0  0  0  0  0  0  0  0  0  0  0
   -2.1929   17.0613  -34.5705 H   0  0  0  0  0  0  0  0  0  0  0  0
   -2.4843   18.8338  -34.5705 H   0  0  0  0  0  0  0  0  0  0  0  0
   -4.5080   19.5986  -32.9774 H   0  0  0  0  0  0  0  0  0  0  0  0
   -4.8971   22.4187  -32.3892 H   0  0  0  0  0  0  0  0  0  0  0  0
  1  2  1  0
  2  3  1  0
  3  4  2  0
  3  5  1  0
  5  6  1  0
  6  7  2  0
  7  8  1  0
  8  9  2  0
  9 10  1  0
 10 11  1  0
 11 12  1  0
 12 13  1  0
 13 14  2  0
 14 15  1  0
 15 16  2  0
 16 17  1  0
 17 18  2  0
 18 19  1  0
 19 20  2  0
 20 21  1  0
 21 22  1  0
 21 23  2  0
 16 24  1  0
 24 25  2  0
 10 26  2  0
 26  6  1  0
 24 12  1  0
 23 17  1  0
  1 27  1  0
  1 28  1  0
  1 29  1  0
  2 30  1  0
  2 31  1  0
  5 32  1  0
  7 33  1  0
  8 34  1  0
  9 35  1  0
 11 36  1  0
 11 37  1  0
 13 38  1  0
 14 39  1  0
 15 40  1  0
 18 41  1  0
 19 42  1  0
 20 43  1  0
 22 44  1  0
 22 45  1  0
 22 46  1  0
 23 47  1  0
 26 48  1  0
M  END
>  <UniqueID>  (40) 
33

>  <SMILES>  (40) 
CCC(=O)Nc1cccc(Cn2cccc(-c3cccc(C)c3)c2=O)c1

>  <Energy>  (40) 
56.38989813014971

>  <Genealogy>  (40) 
CCC(=O)Nc1cccc(Cn2cccc(-c3cccc(C)c3)c2=O)c1 (3D coordinates assigned)
CCC(=O)Nc1cccc(Cn2cccc(-c3cccc(C)c3)c2=O)c1 (optimized conformer: 56.38989813014971 kcal/mol)

>  <smiles>  (40) 
CCC(=O)Nc1cccc(Cn2cccc(-c3cccc(C)c3)c2=O)c1

>  <score_type>  (40) 
oracle

>  <origin>  (40) 
adgpu

>  <m_score__min__energy>  (40) 
-9.2799999999999994

>  <m_primary>  (40) 
energy

$$$$
40:0
     RDKit          3D

 44 45  0  0  0  0  0  0  0  0999 V2000
   -0.2380   23.1390  -24.2400 C   0  0  0  0  0  0  0  0  0  0  0  0
   -0.6430   23.8930  -25.4870 C   0  0  0  0  0  0  0  0  0  0  0  0
   -1.1170   23.2030  -26.6320 C   0  0  0  0  0  0  0  0  0  0  0  0
   -1.2710   21.6950  -26.6050 C   0  0  0  0  0  0  0  0  0  0  0  0
   -1.4250   23.9340  -27.8060 C   0  0  0  0  0  0  0  0  0  0  0  0
   -1.8380   23.2520  -29.0550 C   0  0  0  0  0  0  0  0  0  0  0  0
   -0.9350   22.4290  -29.7440 C   0  0  0  0  0  0  0  0  0  0  0  0
   -1.3250   21.7860  -30.9230 C   0  0  0  0  0  0  0  0  0  0  0  0
   -2.6190   21.9670  -31.4290 C   0  0  0  0  0  0  0  0  0  0  0  0
   -3.1180   21.1430  -32.9030 S   0  0  0  0  0  0  0  0  0  0  0  0
   -1.8510   21.2340  -34.0750 N   0  0  0  0  0  0  0  0  0  0  0  0
   -4.3580   21.7910  -33.4530 O   0  0  0  0  0  0  0  0  0  0  0  0
   -3.4200   19.7020  -32.6030 O   0  0  0  0  0  0  0  0  0  0  0  0
   -3.5240   22.7870  -30.7410 C   0  0  0  0  0  0  0  0  0  0  0  0
   -3.1350   23.4300  -29.5620 C   0  0  0  0  0  0  0  0  0  0  0  0
   -1.3140   25.3340  -27.8100 C   0  0  0  0  0  0  0  0  0  0  0  0
   -1.6150   26.0460  -28.9700 O   0  0  0  0  0  0  0  0  0  0  0  0
   -0.8930   26.0240  -26.6620 C   0  0  0  0  0  0  0  0  0  0  0  0
   -0.7500   27.5240  -26.7130 C   0  0  0  0  0  0  0  0  0  0  0  0
   -0.6060   25.3040  -25.4850 C   0  0  0  0  0  0  0  0  0  0  0  0
   -0.2580   25.9780  -24.3050 O   0  0  0  0  0  0  0  0  0  0  0  0
    0.8010   26.9360  -24.2380 C   0  0  0  0  0  0  0  0  0  0  0  0
    2.1690   26.2510  -24.2610 C   0  0  0  0  0  0  0  0  0  0  0  0
    2.0420   24.8700  -24.0550 O   0  0  0  0  0  0  0  0  0  0  0  0
   -0.5444   23.7095  -23.3508 H   0  0  0  0  0  0  0  0  0  0  0  0
   -0.7287   22.1546  -24.2311 H   0  0  0  0  0  0  0  0  0  0  0  0
    0.8537   23.0046  -24.2311 H   0  0  0  0  0  0  0  0  0  0  0  0
   -1.3064   21.3487  -25.5615 H   0  0  0  0  0  0  0  0  0  0  0  0
   -2.2027   21.4123  -27.1169 H   0  0  0  0  0  0  0  0  0  0  0  0
   -0.4157   21.2299  -27.1169 H   0  0  0  0  0  0  0  0  0  0  0  0
    0.0844   22.2888  -29.3552 H   0  0  0  0  0  0  0  0  0  0  0  0
   -0.6140   21.1364  -31.4546 H   0  0  0  0  0  0  0  0  0  0  0  0
   -2.2300   20.8390  -34.9650 H   0  0  0  0  0  0  0  0  0  0  0  0
   -1.6690   22.2470  -34.2490 H   0  0  0  0  0  0  0  0  0  0  0  0
   -4.5436   22.9251  -31.1300 H   0  0  0  0  0  0  0  0  0  0  0  0
   -3.8475   24.0775  -29.0299 H   0  0  0  0  0  0  0  0  0  0  0  0
   -0.7119   27.9237  -25.6889 H   0  0  0  0  0  0  0  0  0  0  0  0
    0.1772   27.7861  -27.2437 H   0  0  0  0  0  0  0  0  0  0  0  0
   -1.6110   27.9566  -27.2437 H   0  0  0  0  0  0  0  0  0  0  0  0
    0.7254   27.6153  -25.0998 H   0  0  0  0  0  0  0  0  0  0  0  0
    0.7067   27.4941  -23.2948 H   0  0  0  0  0  0  0  0  0  0  0  0
    2.6433   26.4271  -25.2378 H   0  0  0  0  0  0  0  0  0  0  0  0
    2.7854   26.6711  -23.4525 H   0  0  0  0  0  0  0  0  0  0  0  0
    1.2850   24.7450  -23.4260 H   0  0  0  0  0  0  0  0  0  0  0  0
  1  2  1  0
  2  3  2  0
  3  4  1  0
  3  5  1  0
  5  6  1  0
  6  7  2  0
  7  8  1  0
  8  9  2  0
  9 10  1  0
 10 11  1  0
 10 12  2  0
 10 13  2  0
  9 14  1  0
 14 15  2  0
  5 16  2  0
 16 17  1  0
 16 18  1  0
 18 19  1  0
 18 20  2  0
 20 21  1  0
 21 22  1  0
 22 23  1  0
 23 24  1  0
 20  2  1  0
 15  6  1  0
  1 25  1  0
  1 26  1  0
  1 27  1  0
  4 28  1  0
  4 29  1  0
  4 30  1  0
  7 31  1  0
  8 32  1  0
 11 33  1  0
 11 34  1  0
 14 35  1  0
 15 36  1  0
 19 37  1  0
 19 38  1  0
 19 39  1  0
 22 40  1  0
 22 41  1  0
 23 42  1  0
 23 43  1  0
 24 44  1  0
M  CHG  1  17  -1
M  END
>  <UniqueID>  (41) 
34

>  <SMILES>  (41) 
Cc1c(C)c(-c2ccc(S(N)(=O)=O)cc2)c([O-])c(C)c1OCCO

>  <Energy>  (41) 
58.460486597474954

>  <Genealogy>  (41) 
Cc1c(C)c(-c2ccc(S(N)(=O)=O)cc2)c([O-])c(C)c1OCCO (protonated)
Cc1c(C)c(-c2ccc(S(N)(=O)=O)cc2)c([O-])c(C)c1OCCO (3D coordinates assigned)
Cc1c(C)c(-c2ccc(S(N)(=O)=O)cc2)c([O-])c(C)c1OCCO (optimized conformer: 58.460486597474954 kcal/mol)

>  <smiles>  (41) 
Cc1c(C)c(-c2ccc(S(N)(=O)=O)cc2)c(O)c(C)c1OCCO

>  <score_type>  (41) 
oracle

>  <origin>  (41) 
adgpu

>  <m_score__min__energy>  (41) 
-9.4399999999999995

>  <m_primary>  (41) 
energy

$$$$
41:0
     RDKit          3D

 50 52  0  0  0  0  0  0  0  0999 V2000
   -6.8430   16.0660  -33.9600 C   0  0  0  0  0  0  0  0  0  0  0  0
   -6.3520   17.2300  -33.2170 N   0  0  0  0  0  0  0  0  0  0  0  0
   -7.4750   17.9460  -32.5980 C   0  0  0  0  0  0  0  0  0  0  0  0
   -5.4860   18.2980  -34.2940 S   0  0  0  0  0  0  0  0  0  0  0  0
   -5.6050   17.7950  -35.7070 O   0  0  0  0  0  0  0  0  0  0  0  0
   -6.1040   19.6680  -34.2360 O   0  0  0  0  0  0  0  0  0  0  0  0
   -3.7760   18.4100  -33.8660 C   0  0  0  0  0  0  0  0  0  0  0  0
   -2.8660   17.4520  -34.3320 C   0  0  0  0  0  0  0  0  0  0  0  0
   -1.5100   17.5620  -34.0190 C   0  0  0  0  0  0  0  0  0  0  0  0
   -1.0540   18.6300  -33.2440 C   0  0  0  0  0  0  0  0  0  0  0  0
   -1.9530   19.5910  -32.7570 C   0  0  0  0  0  0  0  0  0  0  0  0
   -1.4510   20.7120  -32.0100 N   0  0  0  0  0  0  0  0  0  0  0  0
   -1.5810   20.8460  -30.5870 C   0  0  0  0  0  0  0  0  0  0  0  0
   -1.4900   19.8220  -29.8570 O   0  0  0  0  0  0  0  0  0  0  0  0
   -1.7920   22.1760  -29.9640 C   0  0  0  0  0  0  0  0  0  0  0  0
   -1.1030   22.5270  -28.7890 C   0  0  0  0  0  0  0  0  0  0  0  0
   -1.3070   23.7740  -28.1960 C   0  0  0  0  0  0  0  0  0  0  0  0
   -2.2130   24.6770  -28.7530 C   0  0  0  0  0  0  0  0  0  0  0  0
   -2.9370   24.3370  -29.8980 C   0  0  0  0  0  0  0  0  0  0  0  0
   -3.8640   25.2920  -30.4340 N   0  0  0  0  0  0  0  0  0  0  0  0
   -5.2960   25.2050  -30.4060 C   0  0  0  0  0  0  0  0  0  0  0  0
   -5.9840   26.2080  -30.0730 O   0  0  0  0  0  0  0  0  0  0  0  0
   -5.9720   23.9580  -30.8350 C   0  0  0  0  0  0  0  0  0  0  0  0
   -7.0560   23.4420  -30.1050 C   0  0  0  0  0  0  0  0  0  0  0  0
   -7.6770   22.2560  -30.5040 C   0  0  0  0  0  0  0  0  0  0  0  0
   -7.2280   21.5770  -31.6390 C   0  0  0  0  0  0  0  0  0  0  0  0
   -6.1580   22.0820  -32.3760 C   0  0  0  0  0  0  0  0  0  0  0  0
   -5.5290   23.2650  -31.9780 C   0  0  0  0  0  0  0  0  0  0  0  0
   -2.7060   23.0940  -30.5160 C   0  0  0  0  0  0  0  0  0  0  0  0
   -3.3180   19.4740  -33.0770 C   0  0  0  0  0  0  0  0  0  0  0  0
   -7.1702   15.2904  -33.2519 H   0  0  0  0  0  0  0  0  0  0  0  0
   -7.6912   16.3661  -34.5929 H   0  0  0  0  0  0  0  0  0  0  0  0
   -6.0361   15.6679  -34.5929 H   0  0  0  0  0  0  0  0  0  0  0  0
   -7.3868   17.8898  -31.5030 H   0  0  0  0  0  0  0  0  0  0  0  0
   -7.4568   18.9996  -32.9137 H   0  0  0  0  0  0  0  0  0  0  0  0
   -8.4225   17.4849  -32.9137 H   0  0  0  0  0  0  0  0  0  0  0  0
   -3.2209   16.6111  -34.9460 H   0  0  0  0  0  0  0  0  0  0  0  0
   -0.7994   16.8057  -34.3837 H   0  0  0  0  0  0  0  0  0  0  0  0
    0.0179   18.7188  -33.0135 H   0  0  0  0  0  0  0  0  0  0  0  0
   -0.9430   21.4640  -32.5280 H   0  0  0  0  0  0  0  0  0  0  0  0
   -0.3990   21.8143  -28.3346 H   0  0  0  0  0  0  0  0  0  0  0  0
   -0.7515   24.0457  -27.2863 H   0  0  0  0  0  0  0  0  0  0  0  0
   -2.3580   25.6630  -28.2874 H   0  0  0  0  0  0  0  0  0  0  0  0
   -7.4180   23.9753  -29.2136 H   0  0  0  0  0  0  0  0  0  0  0  0
   -8.5212   21.8561  -29.9232 H   0  0  0  0  0  0  0  0  0  0  0  0
   -7.7189   20.6435  -31.9514 H   0  0  0  0  0  0  0  0  0  0  0  0
   -5.8081   21.5487  -33.2722 H   0  0  0  0  0  0  0  0  0  0  0  0
   -4.6827   23.6571  -32.5612 H   0  0  0  0  0  0  0  0  0  0  0  0
   -3.2450   22.8369  -31.4398 H   0  0  0  0  0  0  0  0  0  0  0  0
   -4.0317   20.2238  -32.7049 H   0  0  0  0  0  0  0  0  0  0  0  0
  1  2  1  0
  2  3  1  0
  2  4  1  0
  4  5  2  0
  4  6  2  0
  4  7  1  0
  7  8  2  0
  8  9  1  0
  9 10  2  0
 10 11  1  0
 11 12  1  0
 12 13  1  0
 13 14  2  0
 13 15  1  0
 15 16  2  0
 16 17  1  0
 17 18  2  0
 18 19  1  0
 19 20  1  0
 20 21  1  0
 21 22  2  0
 21 23  1  0
 23 24  2  0
 24 25  1  0
 25 26  2  0
 26 27  1  0
 27 28  2  0
 19 29  2  0
 11 30  2  0
 30  7  1  0
 29 15  1  0
 28 23  1  0
  1 31  1  0
  1 32  1  0
  1 33  1  0
  3 34  1  0
  3 35  1  0
  3 36  1  0
  8 37  1  0
  9 38  1  0
 10 39  1  0
 12 40  1  0
 16 41  1  0
 17 42  1  0
 18 43  1  0
 24 44  1  0
 25 45  1  0
 26 46  1  0
 27 47  1  0
 28 48  1  0
 29 49  1  0
 30 50  1  0
M  CHG  1  20  -1
M  END
>  <UniqueID>  (42) 
35

>  <SMILES>  (42) 
CN(C)S(=O)(=O)c1cccc(NC(=O)c2cccc([N-]C(=O)c3ccccc3)c2)c1

>  <Energy>  (42) 
60.261930132098904

>  <Genealogy>  (42) 
CN(C)S(=O)(=O)c1cccc(NC(=O)c2cccc([N-]C(=O)c3ccccc3)c2)c1 (protonated)
CN(C)S(=O)(=O)c1cccc(NC(=O)c2cccc([N-]C(=O)c3ccccc3)c2)c1 (3D coordinates assigned)
CN(C)S(=O)(=O)c1cccc(NC(=O)c2cccc([N-]C(=O)c3ccccc3)c2)c1 (optimized conformer: 60.261930132098904 kcal/mol)

>  <smiles>  (42) 
CN(C)S(=O)(=O)c1cccc(NC(=O)c2cccc(NC(=O)c3ccccc3)c2)c1

>  <score_type>  (42) 
oracle

>  <origin>  (42) 
adgpu

>  <m_score__min__energy>  (42) 
-10.949999999999999

>  <m_primary>  (42) 
energy

$$$$
42:0
     RDKit          3D

 45 47  0  0  0  0  0  0  0  0999 V2000
    1.1630   21.9190  -27.4370 C   0  0  0  0  0  0  0  0  0  0  0  0
    0.7930   20.4790  -27.6570 C   0  0  0  0  0  0  0  0  0  0  0  0
    1.7750   19.5480  -28.0380 C   0  0  0  0  0  0  0  0  0  0  0  0
    1.4360   18.2070  -28.2380 C   0  0  0  0  0  0  0  0  0  0  0  0
    0.1170   17.7860  -28.0650 C   0  0  0  0  0  0  0  0  0  0  0  0
   -0.8670   18.7010  -27.6820 C   0  0  0  0  0  0  0  0  0  0  0  0
   -0.5340   20.0510  -27.4590 C   0  0  0  0  0  0  0  0  0  0  0  0
   -1.5100   20.9900  -27.0880 O   0  0  0  0  0  0  0  0  0  0  0  0
   -2.0440   21.9820  -27.9230 C   0  0  0  0  0  0  0  0  0  0  0  0
   -3.0740   22.7900  -27.4330 C   0  0  0  0  0  0  0  0  0  0  0  0
   -3.6420   23.7810  -28.2390 C   0  0  0  0  0  0  0  0  0  0  0  0
   -3.2100   23.9560  -29.5590 C   0  0  0  0  0  0  0  0  0  0  0  0
   -3.8050   24.9980  -30.3450 N   0  0  0  0  0  0  0  0  0  0  0  0
   -5.0930   24.9660  -30.9750 C   0  0  0  0  0  0  0  0  0  0  0  0
   -5.7200   26.0400  -31.1850 O   0  0  0  0  0  0  0  0  0  0  0  0
   -5.6670   23.6750  -31.4280 C   0  0  0  0  0  0  0  0  0  0  0  0
   -4.8410   22.6810  -31.9810 C   0  0  0  0  0  0  0  0  0  0  0  0
   -5.3780   21.4560  -32.4110 C   0  0  0  0  0  0  0  0  0  0  0  0
   -4.4910   20.4230  -33.0620 C   0  0  0  0  0  0  0  0  0  0  0  0
   -3.9340   19.6210  -32.0850 F   0  0  0  0  0  0  0  0  0  0  0  0
   -3.4740   21.0330  -33.7780 F   0  0  0  0  0  0  0  0  0  0  0  0
   -5.2180   19.6320  -33.9350 F   0  0  0  0  0  0  0  0  0  0  0  0
   -6.7620   21.2450  -32.3190 C   0  0  0  0  0  0  0  0  0  0  0  0
   -7.6010   22.2130  -31.7430 C   0  0  0  0  0  0  0  0  0  0  0  0
   -9.0920   21.9900  -31.6790 C   0  0  0  0  0  0  0  0  0  0  0  0
   -9.4110   20.8490  -32.3900 F   0  0  0  0  0  0  0  0  0  0  0  0
   -9.5080   21.8360  -30.3680 F   0  0  0  0  0  0  0  0  0  0  0  0
   -9.7710   23.0670  -32.2230 F   0  0  0  0  0  0  0  0  0  0  0  0
   -7.0470   23.4320  -31.3170 C   0  0  0  0  0  0  0  0  0  0  0  0
   -2.1730   23.1460  -30.0540 C   0  0  0  0  0  0  0  0  0  0  0  0
   -1.6030   22.1570  -29.2470 C   0  0  0  0  0  0  0  0  0  0  0  0
    1.2155   22.1233  -26.3574 H   0  0  0  0  0  0  0  0  0  0  0  0
    2.1420   22.1203  -27.8963 H   0  0  0  0  0  0  0  0  0  0  0  0
    0.4023   22.5673  -27.8963 H   0  0  0  0  0  0  0  0  0  0  0  0
    2.8152   19.8766  -28.1794 H   0  0  0  0  0  0  0  0  0  0  0  0
    2.2098   17.4827  -28.5321 H   0  0  0  0  0  0  0  0  0  0  0  0
   -0.1487   16.7315  -28.2305 H   0  0  0  0  0  0  0  0  0  0  0  0
   -1.9067   18.3653  -27.5541 H   0  0  0  0  0  0  0  0  0  0  0  0
   -3.4402   22.6451  -26.4059 H   0  0  0  0  0  0  0  0  0  0  0  0
   -4.4339   24.4277  -27.8332 H   0  0  0  0  0  0  0  0  0  0  0  0
   -3.7608   22.8646  -32.0783 H   0  0  0  0  0  0  0  0  0  0  0  0
   -7.1955   20.3097  -32.7028 H   0  0  0  0  0  0  0  0  0  0  0  0
   -7.7019   24.2064  -30.8910 H   0  0  0  0  0  0  0  0  0  0  0  0
   -1.8083   23.2912  -31.0816 H   0  0  0  0  0  0  0  0  0  0  0  0
   -0.8067   21.5133  -29.6490 H   0  0  0  0  0  0  0  0  0  0  0  0
  1  2  1  0
  2  3  2  0
  3  4  1  0
  4  5  2  0
  5  6  1  0
  6  7  2  0
  7  8  1  0
  8  9  1  0
  9 10  2  0
 10 11  1  0
 11 12  2  0
 12 13  1  0
 13 14  1  0
 14 15  2  0
 14 16  1  0
 16 17  2  0
 17 18  1  0
 18 19  1  0
 19 20  1  0
 19 21  1  0
 19 22  1  0
 18 23  2  0
 23 24  1  0
 24 25  1  0
 25 26  1  0
 25 27  1  0
 25 28  1  0
 24 29  2  0
 12 30  1  0
 30 31  2  0
  7  2  1  0
 31  9  1  0
 29 16  1  0
  1 32  1  0
  1 33  1  0
  1 34  1  0
  3 35  1  0
  4 36  1  0
  5 37  1  0
  6 38  1  0
 10 39  1  0
 11 40  1  0
 17 41  1  0
 23 42  1  0
 29 43  1  0
 30 44  1  0
 31 45  1  0
M  CHG  1  13  -1
M  END
>  <UniqueID>  (43) 
36

>  <SMILES>  (43) 
Cc1ccccc1Oc1ccc([N-]C(=O)c2cc(C(F)(F)F)cc(C(F)(F)F)c2)cc1

>  <Energy>  (43) 
59.43108170786207

>  <Genealogy>  (43) 
Cc1ccccc1Oc1ccc([N-]C(=O)c2cc(C(F)(F)F)cc(C(F)(F)F)c2)cc1 (protonated)
Cc1ccccc1Oc1ccc([N-]C(=O)c2cc(C(F)(F)F)cc(C(F)(F)F)c2)cc1 (3D coordinates assigned)
Cc1ccccc1Oc1ccc([N-]C(=O)c2cc(C(F)(F)F)cc(C(F)(F)F)c2)cc1 (optimized conformer: 59.43108170786207 kcal/mol)

>  <smiles>  (43) 
Cc1ccccc1Oc1ccc(NC(=O)c2cc(C(F)(F)F)cc(C(F)(F)F)c2)cc1

>  <score_type>  (43) 
oracle

>  <origin>  (43) 
adgpu

>  <m_score__min__energy>  (43) 
-10.449999999999999

>  <m_primary>  (43) 
energy

$$$$
43:0
     RDKit          3D

 24 25  0  0  0  0  0  0  0  0999 V2000
   -1.7670   20.3860  -30.6770 C   0  0  0  0  0  0  0  0  0  0  0  0
   -2.4820   21.6050  -31.1580 C   0  0  0  0  0  0  0  0  0  0  0  0
   -2.3830   21.9450  -32.3680 O   0  0  0  0  0  0  0  0  0  0  0  0
   -3.3320   22.3350  -30.2630 N   0  0  0  0  0  0  0  0  0  0  0  0
   -3.9680   23.5690  -30.6190 C   0  0  0  0  0  0  0  0  0  0  0  0
   -3.3880   24.7700  -30.4670 N   0  0  0  0  0  0  0  0  0  0  0  0
   -4.2880   25.6690  -30.8370 N   0  0  0  0  0  0  0  0  0  0  0  0
   -5.4180   25.0940  -31.2260 N   0  0  0  0  0  0  0  0  0  0  0  0
   -5.2470   23.7650  -31.1070 C   0  0  0  0  0  0  0  0  0  0  0  0
   -6.2470   22.7660  -31.5400 C   0  0  0  0  0  0  0  0  0  0  0  0
   -7.5970   22.8770  -31.1600 C   0  0  0  0  0  0  0  0  0  0  0  0
   -8.5260   21.9140  -31.5670 C   0  0  0  0  0  0  0  0  0  0  0  0
   -8.1150   20.8280  -32.3430 C   0  0  0  0  0  0  0  0  0  0  0  0
   -6.7730   20.6970  -32.7070 C   0  0  0  0  0  0  0  0  0  0  0  0
   -5.8390   21.6580  -32.3030 C   0  0  0  0  0  0  0  0  0  0  0  0
   -1.7604   20.3748  -29.5771 H   0  0  0  0  0  0  0  0  0  0  0  0
   -2.2816   19.4881  -31.0497 H   0  0  0  0  0  0  0  0  0  0  0  0
   -0.7321   20.3969  -31.0497 H   0  0  0  0  0  0  0  0  0  0  0  0
   -3.6360   21.8680  -29.3790 H   0  0  0  0  0  0  0  0  0  0  0  0
   -7.9233   23.7250  -30.5400 H   0  0  0  0  0  0  0  0  0  0  0  0
   -9.5821   22.0121  -31.2754 H   0  0  0  0  0  0  0  0  0  0  0  0
   -8.8486   20.0754  -32.6677 H   0  0  0  0  0  0  0  0  0  0  0  0
   -6.4496   19.8372  -33.3121 H   0  0  0  0  0  0  0  0  0  0  0  0
   -4.7813   21.5458  -32.5837 H   0  0  0  0  0  0  0  0  0  0  0  0
  1  2  1  0
  2  3  2  0
  2  4  1  0
  4  5  1  0
  5  6  2  0
  6  7  1  0
  7  8  1  0
  8  9  2  0
  9 10  1  0
 10 11  2  0
 11 12  1  0
 12 13  2  0
 13 14  1  0
 14 15  2  0
  9  5  1  0
 15 10  1  0
  1 16  1  0
  1 17  1  0
  1 18  1  0
  4 19  1  0
 11 20  1  0
 12 21  1  0
 13 22  1  0
 14 23  1  0
 15 24  1  0
M  CHG  1   7  -1
M  END
>  <UniqueID>  (44) 
37

>  <SMILES>  (44) 
CC(=O)Nc1n[n-]nc1-c1ccccc1

>  <Energy>  (44) 
64.86273495059055

>  <Genealogy>  (44) 
CC(=O)Nc1n[n-]nc1-c1ccccc1 (protonated)
CC(=O)Nc1n[n-]nc1-c1ccccc1 (3D coordinates assigned)
CC(=O)Nc1n[n-]nc1-c1ccccc1 (optimized conformer: 64.86273495059055 kcal/mol)

>  <smiles>  (44) 
CC(=O)Nc1n[nH]nc1-c1ccccc1

>  <score_type>  (44) 
oracle

>  <origin>  (44) 
adgpu

>  <m_score__min__energy>  (44) 
-7.9800000000000004

>  <m_primary>  (44) 
energy

$$$$
44:0
     RDKit          3D

 49 52  0  0  0  0  0  0  0  0999 V2000
   -5.9120   25.3330  -29.7180 C   0  0  0  0  0  0  0  0  0  0  0  0
   -5.2320   24.0080  -29.8950 C   0  0  0  0  0  0  0  0  0  0  0  0
   -5.6630   22.9150  -30.6400 C   0  0  0  0  0  0  0  0  0  0  0  0
   -6.8430   22.8210  -31.5160 C   0  0  0  0  0  0  0  0  0  0  0  0
   -6.8510   23.4760  -32.5940 O   0  0  0  0  0  0  0  0  0  0  0  0
   -7.9960   22.0560  -31.1320 N   0  0  0  0  0  0  0  0  0  0  0  0
   -9.1990   21.9720  -31.9600 C   0  0  0  0  0  0  0  0  0  0  0  0
   -9.4870   20.5210  -32.3580 C   0  0  0  0  0  0  0  0  0  0  0  0
   -8.2270   19.7150  -32.4460 C   0  0  0  0  0  0  0  0  0  0  0  0
   -7.9110   18.6100  -31.6660 C   0  0  0  0  0  0  0  0  0  0  0  0
   -6.6290   18.1080  -31.9180 C   0  0  0  0  0  0  0  0  0  0  0  0
   -5.9320   18.8170  -32.8870 C   0  0  0  0  0  0  0  0  0  0  0  0
   -6.9100   20.0740  -33.4290 S   0  0  0  0  0  0  0  0  0  0  0  0
   -4.8300   21.8750  -30.4330 N   0  0  0  0  0  0  0  0  0  0  0  0
   -3.8740   22.2750  -29.6090 N   0  0  0  0  0  0  0  0  0  0  0  0
   -2.8030   21.4170  -29.1920 C   0  0  0  0  0  0  0  0  0  0  0  0
   -2.7930   20.9220  -27.8790 C   0  0  0  0  0  0  0  0  0  0  0  0
   -1.7510   20.1010  -27.4420 C   0  0  0  0  0  0  0  0  0  0  0  0
   -0.7170   19.7580  -28.3160 C   0  0  0  0  0  0  0  0  0  0  0  0
   -0.7290   20.2260  -29.6320 C   0  0  0  0  0  0  0  0  0  0  0  0
   -1.7710   21.0500  -30.0790 C   0  0  0  0  0  0  0  0  0  0  0  0
   -1.7870   21.5480  -31.7650 Cl  0  0  0  0  0  0  0  0  0  0  0  0
   -4.0830   23.5640  -29.2560 C   0  0  0  0  0  0  0  0  0  0  0  0
   -3.2610   24.3310  -28.2930 C   0  0  0  0  0  0  0  0  0  0  0  0
   -3.7310   24.5640  -26.9890 C   0  0  0  0  0  0  0  0  0  0  0  0
   -2.9630   25.3020  -26.0840 C   0  0  0  0  0  0  0  0  0  0  0  0
   -1.7210   25.8140  -26.4710 C   0  0  0  0  0  0  0  0  0  0  0  0
   -0.7600   26.7410  -25.3350 Cl  0  0  0  0  0  0  0  0  0  0  0  0
   -1.2440   25.5820  -27.7660 C   0  0  0  0  0  0  0  0  0  0  0  0
   -2.0090   24.8440  -28.6730 C   0  0  0  0  0  0  0  0  0  0  0  0
   -6.0224   25.5480  -28.6449 H   0  0  0  0  0  0  0  0  0  0  0  0
   -5.3071   26.1215  -30.1896 H   0  0  0  0  0  0  0  0  0  0  0  0
   -6.9052   25.3013  -30.1896 H   0  0  0  0  0  0  0  0  0  0  0  0
   -8.0640   21.6950  -30.1550 H   0  0  0  0  0  0  0  0  0  0  0  0
  -10.0550   22.3668  -31.3931 H   0  0  0  0  0  0  0  0  0  0  0  0
   -9.0390   22.5626  -32.8741 H   0  0  0  0  0  0  0  0  0  0  0  0
  -10.1488   20.0685  -31.6049 H   0  0  0  0  0  0  0  0  0  0  0  0
   -9.9649   20.5234  -33.3488 H   0  0  0  0  0  0  0  0  0  0  0  0
   -8.5981   18.1740  -30.9259 H   0  0  0  0  0  0  0  0  0  0  0  0
   -6.2126   17.2333  -31.3969 H   0  0  0  0  0  0  0  0  0  0  0  0
   -4.9142   18.5948  -33.2401 H   0  0  0  0  0  0  0  0  0  0  0  0
   -3.6103   21.1820  -27.1902 H   0  0  0  0  0  0  0  0  0  0  0  0
   -1.7447   19.7242  -26.4086 H   0  0  0  0  0  0  0  0  0  0  0  0
    0.1076   19.1187  -27.9677 H   0  0  0  0  0  0  0  0  0  0  0  0
    0.0824   19.9468  -30.3202 H   0  0  0  0  0  0  0  0  0  0  0  0
   -4.7077   24.1637  -26.6793 H   0  0  0  0  0  0  0  0  0  0  0  0
   -3.3367   25.4804  -25.0649 H   0  0  0  0  0  0  0  0  0  0  0  0
   -0.2653   25.9813  -28.0704 H   0  0  0  0  0  0  0  0  0  0  0  0
   -1.6294   24.6637  -29.6895 H   0  0  0  0  0  0  0  0  0  0  0  0
  1  2  1  0
  2  3  1  0
  3  4  1  0
  4  5  2  0
  4  6  1  0
  6  7  1  0
  7  8  1  0
  8  9  1  0
  9 10  2  0
 10 11  1  0
 11 12  2  0
 12 13  1  0
  3 14  2  0
 14 15  1  0
 15 16  1  0
 16 17  2  0
 17 18  1  0
 18 19  2  0
 19 20  1  0
 20 21  2  0
 21 22  1  0
 15 23  1  0
 23 24  1  0
 24 25  2  0
 25 26  1  0
 26 27  2  0
 27 28  1  0
 27 29  1  0
 29 30  2  0
 23  2  2  0
 30 24  1  0
 13  9  1  0
 21 16  1  0
  1 31  1  0
  1 32  1  0
  1 33  1  0
  6 34  1  0
  7 35  1  0
  7 36  1  0
  8 37  1  0
  8 38  1  0
 10 39  1  0
 11 40  1  0
 12 41  1  0
 17 42  1  0
 18 43  1  0
 19 44  1  0
 20 45  1  0
 25 46  1  0
 26 47  1  0
 29 48  1  0
 30 49  1  0
M  END
>  <UniqueID>  (45) 
38

>  <SMILES>  (45) 
Cc1c(C(=O)NCCc2cccs2)nn(-c2ccccc2Cl)c1-c1ccc(Cl)cc1

>  <Energy>  (45) 
116.6594105022298

>  <Genealogy>  (45) 
Cc1c(C(=O)NCCc2cccs2)nn(-c2ccccc2Cl)c1-c1ccc(Cl)cc1 (3D coordinates assigned)
Cc1c(C(=O)NCCc2cccs2)nn(-c2ccccc2Cl)c1-c1ccc(Cl)cc1 (optimized conformer: 116.6594105022298 kcal/mol)

>  <smiles>  (45) 
Cc1c(C(=O)NCCc2cccs2)nn(-c2ccccc2Cl)c1-c1ccc(Cl)cc1

>  <score_type>  (45) 
oracle

>  <origin>  (45) 
adgpu

>  <m_score__min__energy>  (45) 
-9.9000000000000004

>  <m_primary>  (45) 
energy

$$$$
45:0
     RDKit          3D

 34 35  0  0  0  0  0  0  0  0999 V2000
   -1.6430   20.3390  -34.4920 O   0  0  0  0  0  0  0  0  0  0  0  0
   -2.1510   20.7580  -33.4180 C   0  0  0  0  0  0  0  0  0  0  0  0
   -3.3170   21.5120  -33.4490 C   0  0  0  0  0  0  0  0  0  0  0  0
   -3.8550   21.9790  -32.2470 C   0  0  0  0  0  0  0  0  0  0  0  0
   -5.3840   22.9380  -32.3330 S   0  0  0  0  0  0  0  0  0  0  0  0
   -6.4470   21.4940  -32.2360 C   0  0  0  0  0  0  0  0  0  0  0  0
   -6.0100   20.2540  -32.7210 C   0  0  0  0  0  0  0  0  0  0  0  0
   -6.8450   19.1350  -32.6450 C   0  0  0  0  0  0  0  0  0  0  0  0
   -8.1250   19.2520  -32.0930 C   0  0  0  0  0  0  0  0  0  0  0  0
   -8.9340   18.1670  -32.0200 F   0  0  0  0  0  0  0  0  0  0  0  0
   -8.5710   20.4910  -31.6240 C   0  0  0  0  0  0  0  0  0  0  0  0
   -7.7370   21.6110  -31.7000 C   0  0  0  0  0  0  0  0  0  0  0  0
   -3.2450   21.6700  -31.0520 N   0  0  0  0  0  0  0  0  0  0  0  0
   -3.8610   22.0600  -29.7710 C   0  0  0  0  0  0  0  0  0  0  0  0
   -3.6840   23.4480  -29.5770 O   0  0  0  0  0  0  0  0  0  0  0  0
   -4.9280   24.0830  -29.3410 C   0  0  0  0  0  0  0  0  0  0  0  0
   -5.1060   25.2850  -30.2720 C   0  0  0  0  0  0  0  0  0  0  0  0
   -3.8740   25.6670  -30.8230 O   0  0  0  0  0  0  0  0  0  0  0  0
   -2.1050   20.8990  -31.0560 C   0  0  0  0  0  0  0  0  0  0  0  0
   -1.5460   20.5710  -29.9730 O   0  0  0  0  0  0  0  0  0  0  0  0
   -1.5670   20.4680  -32.2290 N   0  0  0  0  0  0  0  0  0  0  0  0
   -3.8098   21.7383  -34.4060 H   0  0  0  0  0  0  0  0  0  0  0  0
   -5.0070   20.1607  -33.1629 H   0  0  0  0  0  0  0  0  0  0  0  0
   -6.4950   18.1618  -33.0196 H   0  0  0  0  0  0  0  0  0  0  0  0
   -9.5793   20.5852  -31.1946 H   0  0  0  0  0  0  0  0  0  0  0  0
   -8.0942   22.5864  -31.3382 H   0  0  0  0  0  0  0  0  0  0  0  0
   -4.9354   21.8250  -29.7922 H   0  0  0  0  0  0  0  0  0  0  0  0
   -3.3857   21.5070  -28.9475 H   0  0  0  0  0  0  0  0  0  0  0  0
   -5.7406   23.3636  -29.5204 H   0  0  0  0  0  0  0  0  0  0  0  0
   -4.9538   24.4352  -28.2992 H   0  0  0  0  0  0  0  0  0  0  0  0
   -5.7973   25.0147  -31.0838 H   0  0  0  0  0  0  0  0  0  0  0  0
   -5.5123   26.1267  -29.6920 H   0  0  0  0  0  0  0  0  0  0  0  0
   -3.4810   24.8540  -31.2360 H   0  0  0  0  0  0  0  0  0  0  0  0
   -0.6940   19.8910  -32.2140 H   0  0  0  0  0  0  0  0  0  0  0  0
  1  2  2  0
  2  3  1  0
  3  4  2  0
  4  5  1  0
  5  6  1  0
  6  7  2  0
  7  8  1  0
  8  9  2  0
  9 10  1  0
  9 11  1  0
 11 12  2  0
  4 13  1  0
 13 14  1  0
 14 15  1  0
 15 16  1  0
 16 17  1  0
 17 18  1  0
 13 19  1  0
 19 20  2  0
 19 21  1  0
 21  2  1  0
 12  6  1  0
  3 22  1  0
  7 23  1  0
  8 24  1  0
 11 25  1  0
 12 26  1  0
 14 27  1  0
 14 28  1  0
 16 29  1  0
 16 30  1  0
 17 31  1  0
 17 32  1  0
 18 33  1  0
 21 34  1  0
M  END
>  <UniqueID>  (46) 
39

>  <SMILES>  (46) 
O=c1cc(Sc2ccc(F)cc2)n(COCCO)c(=O)[nH]1

>  <Energy>  (46) 
34.96829479447906

>  <Genealogy>  (46) 
O=c1cc(Sc2ccc(F)cc2)n(COCCO)c(=O)[nH]1 (3D coordinates assigned)
O=c1cc(Sc2ccc(F)cc2)n(COCCO)c(=O)[nH]1 (optimized conformer: 34.96829479447906 kcal/mol)

>  <smiles>  (46) 
O=c1cc(Sc2ccc(F)cc2)n(COCCO)c(=O)[nH]1

>  <score_type>  (46) 
oracle

>  <origin>  (46) 
adgpu

>  <m_score__min__energy>  (46) 
-6.8399999999999999

>  <m_primary>  (46) 
energy

$$$$
