0:0
     RDKit          3D

 47 49  0  0  0  0  0  0  0  0999 V2000
   -1.7790   25.8510  -28.9630 O   0  0  0  0  0  0  0  0  0  0  0  0
   -1.1430   24.8060  -28.6580 C   0  0  0  0  0  0  0  0  0  0  0  0
    0.2430   24.8610  -28.5740 O   0  0  0  0  0  0  0  0  0  0  0  0
   -1.8640   23.5270  -28.4580 C   0  0  0  0  0  0  0  0  0  0  0  0
   -1.4630   22.6950  -27.3950 C   0  0  0  0  0  0  0  0  0  0  0  0
   -2.1750   21.5340  -27.0900 C   0  0  0  0  0  0  0  0  0  0  0  0
   -3.2970   21.1850  -27.8400 C   0  0  0  0  0  0  0  0  0  0  0  0
   -3.6990   21.9840  -28.9100 C   0  0  0  0  0  0  0  0  0  0  0  0
   -2.9830   23.1470  -29.2480 C   0  0  0  0  0  0  0  0  0  0  0  0
   -3.3890   23.8830  -30.4660 C   0  0  0  0  0  0  0  0  0  0  0  0
   -3.2930   23.3280  -31.5930 O   0  0  0  0  0  0  0  0  0  0  0  0
   -3.8330   25.2420  -30.3710 N   0  0  0  0  0  0  0  0  0  0  0  0
   -5.2310   25.6440  -30.4660 C   0  0  0  0  0  0  0  0  0  0  0  0
   -6.0940   24.4560  -30.7900 C   0  0  0  0  0  0  0  0  0  0  0  0
   -6.4020   24.1560  -32.1270 C   0  0  0  0  0  0  0  0  0  0  0  0
   -7.1850   23.0410  -32.4380 C   0  0  0  0  0  0  0  0  0  0  0  0
   -7.6610   22.2070  -31.4180 C   0  0  0  0  0  0  0  0  0  0  0  0
   -8.6670   20.8170  -31.8180 S   0  0  0  0  0  0  0  0  0  0  0  0
   -9.0390   20.1040  -30.5480 O   0  0  0  0  0  0  0  0  0  0  0  0
   -9.9300   21.2810  -32.4930 O   0  0  0  0  0  0  0  0  0  0  0  0
   -7.7870   19.7350  -32.8670 N   0  0  0  0  0  0  0  0  0  0  0  0
   -6.3730   20.1400  -32.9410 C   0  0  0  0  0  0  0  0  0  0  0  0
   -5.5730   19.1700  -33.8400 C   0  0  0  0  0  0  0  0  0  0  0  0
   -6.3280   18.0320  -34.2160 O   0  0  0  0  0  0  0  0  0  0  0  0
   -6.8770   17.4210  -33.0660 C   0  0  0  0  0  0  0  0  0  0  0  0
   -7.9120   18.3430  -32.3890 C   0  0  0  0  0  0  0  0  0  0  0  0
   -7.3580   22.5050  -30.0820 C   0  0  0  0  0  0  0  0  0  0  0  0
   -6.5760   23.6210  -29.7690 C   0  0  0  0  0  0  0  0  0  0  0  0
   -0.5787   22.9631  -26.7983 H   0  0  0  0  0  0  0  0  0  0  0  0
   -1.8504   20.8935  -26.2567 H   0  0  0  0  0  0  0  0  0  0  0  0
   -3.8661   20.2781  -27.5875 H   0  0  0  0  0  0  0  0  0  0  0  0
   -4.5859   21.7018  -29.4963 H   0  0  0  0  0  0  0  0  0  0  0  0
   -5.5511   26.0741  -29.5055 H   0  0  0  0  0  0  0  0  0  0  0  0
   -5.3352   26.3913  -31.2665 H   0  0  0  0  0  0  0  0  0  0  0  0
   -6.0250   24.8020  -32.9336 H   0  0  0  0  0  0  0  0  0  0  0  0
   -7.4284   22.8175  -33.4872 H   0  0  0  0  0  0  0  0  0  0  0  0
   -8.2130   19.8110  -33.8220 H   0  0  0  0  0  0  0  0  0  0  0  0
   -6.3097   21.1553  -33.3594 H   0  0  0  0  0  0  0  0  0  0  0  0
   -5.9452   20.1172  -31.9279 H   0  0  0  0  0  0  0  0  0  0  0  0
   -5.2648   19.7054  -34.7501 H   0  0  0  0  0  0  0  0  0  0  0  0
   -4.7042   18.8194  -33.2635 H   0  0  0  0  0  0  0  0  0  0  0  0
   -7.3692   16.4817  -33.3583 H   0  0  0  0  0  0  0  0  0  0  0  0
   -6.0635   17.2247  -32.3521 H   0  0  0  0  0  0  0  0  0  0  0  0
   -8.9231   17.9752  -32.6181 H   0  0  0  0  0  0  0  0  0  0  0  0
   -7.7292   18.3314  -31.3044 H   0  0  0  0  0  0  0  0  0  0  0  0
   -7.7369   21.8583  -29.2769 H   0  0  0  0  0  0  0  0  0  0  0  0
   -6.3374   23.8458  -28.7190 H   0  0  0  0  0  0  0  0  0  0  0  0
  1  2  2  0
  2  3  1  0
  2  4  1  0
  4  5  2  0
  5  6  1  0
  6  7  2  0
  7  8  1  0
  8  9  2  0
  9 10  1  0
 10 11  2  0
 10 12  1  0
 12 13  1  0
 13 14  1  0
 14 15  2  0
 15 16  1  0
 16 17  2  0
 17 18  1  0
 18 19  2  0
 18 20  2  0
 18 21  1  0
 21 22  1  0
 22 23  1  0
 23 24  1  0
 24 25  1  0
 25 26  1  0
 17 27  1  0
 27 28  2  0
  9  4  1  0
 28 14  1  0
 26 21  1  0
  5 29  1  0
  6 30  1  0
  7 31  1  0
  8 32  1  0
 13 33  1  0
 13 34  1  0
 15 35  1  0
 16 36  1  0
 21 37  1  0
 22 38  1  0
 22 39  1  0
 23 40  1  0
 23 41  1  0
 25 42  1  0
 25 43  1  0
 26 44  1  0
 26 45  1  0
 27 46  1  0
 28 47  1  0
M  CHG  3   3  -1  12  -1  21   1
M  END
>  <UniqueID>  (1) 
1

>  <SMILES>  (1) 
O=C([O-])c1ccccc1C(=O)[N-]Cc1ccc(S(=O)(=O)[NH+]2CCOCC2)cc1

>  <Energy>  (1) 
62.458044486519256

>  <Genealogy>  (1) 
O=C([O-])c1ccccc1C(=O)[N-]Cc1ccc(S(=O)(=O)[NH+]2CCOCC2)cc1 (protonated)
O=C([O-])c1ccccc1C(=O)[N-]Cc1ccc(S(=O)(=O)[NH+]2CCOCC2)cc1 (3D coordinates assigned)
O=C([O-])c1ccccc1C(=O)[N-]Cc1ccc(S(=O)(=O)[NH+]2CCOCC2)cc1 (nonaromatic ring conformer: 62.458044486519256 kcal/mol)

>  <smiles>  (1) 
O=C(O)c1ccccc1C(=O)NCc1ccc(S(=O)(=O)N2CCOCC2)cc1

>  <score_type>  (1) 
oracle

>  <origin>  (1) 
adgpu

>  <m_score__min__energy>  (1) 
-13.539999999999999

>  <m_primary>  (1) 
energy

$$$$
1:0
     RDKit          3D

 43 45  0  0  1  0  0  0  0  0999 V2000
   -8.8460   22.6510  -31.9620 C   0  0  0  0  0  0  0  0  0  0  0  0
   -7.4990   22.8760  -31.4440 C   0  0  0  0  0  0  0  0  0  0  0  0
   -7.2090   24.1450  -30.9390 C   0  0  0  0  0  0  0  0  0  0  0  0
   -5.9610   24.4410  -30.4340 C   0  0  0  0  0  0  0  0  0  0  0  0
   -5.0160   23.4390  -30.4490 C   0  0  0  0  0  0  0  0  0  0  0  0
   -3.6990   23.7080  -29.9310 N   0  0  0  0  0  0  0  0  0  0  0  0
   -3.5600   24.1560  -28.7160 C   0  0  0  0  0  0  0  0  0  0  0  0
   -4.6120   24.3860  -27.9010 N   0  0  0  0  0  0  0  0  0  0  0  0
   -4.1680   24.8360  -26.7280 N   0  0  0  0  0  0  0  0  0  0  0  0
   -2.8220   24.8990  -26.7850 C   0  0  0  0  0  0  0  0  0  0  0  0
   -1.9310   25.3570  -25.6730 C   0  0  0  0  0  0  0  0  0  0  0  0
   -2.4160   24.4730  -28.0320 C   0  0  0  0  0  0  0  0  0  0  0  0
   -1.0770   24.3730  -28.5390 C   0  0  0  0  0  0  0  0  0  0  0  0
    0.0130   24.2720  -28.9490 N   0  0  0  0  0  0  0  0  0  0  0  0
   -5.3080   22.1940  -30.9470 C   0  0  0  0  0  0  0  0  0  0  0  0
   -6.5650   21.8640  -31.4650 C   0  0  0  0  0  0  0  0  0  0  0  0
   -6.8960   20.2630  -32.0860 S   0  0  0  0  0  0  0  0  0  0  0  0
   -7.6610   20.4720  -33.3970 O   0  0  0  0  0  0  0  0  0  0  0  0
   -7.9100   19.5480  -31.2220 O   0  0  0  0  0  0  0  0  0  0  0  0
   -5.5820   19.3220  -32.4430 N   0  0  0  0  0  0  0  0  0  0  0  0
   -5.6250   17.9270  -32.3940 C   0  0  0  0  0  0  0  0  0  0  0  0
   -4.4370   17.4030  -33.1830 C   0  0  0  0  0  0  0  0  0  0  0  0
   -3.8200   18.6210  -33.8340 C   0  0  0  0  0  0  0  0  0  0  0  0
   -4.4510   19.7990  -33.1060 C   0  0  0  0  0  0  0  0  0  0  0  0
   -9.5469   22.5339  -31.1224 H   0  0  0  0  0  0  0  0  0  0  0  0
   -9.1507   23.5107  -32.5769 H   0  0  0  0  0  0  0  0  0  0  0  0
   -8.8548   21.7389  -32.5769 H   0  0  0  0  0  0  0  0  0  0  0  0
   -7.9888   24.9208  -30.9442 H   0  0  0  0  0  0  0  0  0  0  0  0
   -5.7287   25.4392  -30.0344 H   0  0  0  0  0  0  0  0  0  0  0  0
   -5.6190   24.2420  -28.1250 H   0  0  0  0  0  0  0  0  0  0  0  0
   -4.7770   25.0910  -25.9190 H   0  0  0  0  0  0  0  0  0  0  0  0
   -2.3980   25.1169  -24.7064 H   0  0  0  0  0  0  0  0  0  0  0  0
   -0.9595   24.8465  -25.7477 H   0  0  0  0  0  0  0  0  0  0  0  0
   -1.7807   26.4441  -25.7477 H   0  0  0  0  0  0  0  0  0  0  0  0
   -4.5220   21.4245  -30.9386 H   0  0  0  0  0  0  0  0  0  0  0  0
   -5.5618   17.5862  -31.3500 H   0  0  0  0  0  0  0  0  0  0  0  0
   -6.5675   17.5542  -32.8215 H   0  0  0  0  0  0  0  0  0  0  0  0
   -3.7134   16.9168  -32.5121 H   0  0  0  0  0  0  0  0  0  0  0  0
   -4.7387   16.6501  -33.9260 H   0  0  0  0  0  0  0  0  0  0  0  0
   -2.7279   18.6217  -33.7024 H   0  0  0  0  0  0  0  0  0  0  0  0
   -3.9996   18.6532  -34.9188 H   0  0  0  0  0  0  0  0  0  0  0  0
   -3.7384   20.2180  -32.3803 H   0  0  0  0  0  0  0  0  0  0  0  0
   -4.7232   20.5939  -33.8160 H   0  0  0  0  0  0  0  0  0  0  0  0
  1  2  1  0
  2  3  2  0
  3  4  1  0
  4  5  2  0
  5  6  1  0
  6  7  2  0
  7  8  1  0
  8  9  1  0
  9 10  1  0
 10 11  1  0
 10 12  2  0
 12 13  1  0
 13 14  3  0
  5 15  1  0
 15 16  2  0
 16 17  1  0
 17 18  2  0
 17 19  2  0
 17 20  1  0
 20 21  1  0
 21 22  1  0
 22 23  1  0
 23 24  1  0
 16  2  1  0
 24 20  1  0
 12  7  1  0
  1 25  1  0
  1 26  1  0
  1 27  1  0
  3 28  1  0
  4 29  1  0
  8 30  1  0
  9 31  1  0
 11 32  1  0
 11 33  1  0
 11 34  1  0
 15 35  1  0
 21 36  1  0
 21 37  1  0
 22 38  1  0
 22 39  1  0
 23 40  1  0
 23 41  1  0
 24 42  1  0
 24 43  1  0
M  END
>  <smiles>  (2) 
Cc1ccc(N=c2[nH][nH]c(C)c2C#N)cc1S(=O)(=O)N1CCCC1

>  <score_type>  (2) 
oracle

>  <origin>  (2) 
adgpu

>  <m_score__min__energy>  (2) 
-9.0199999999999996

>  <m_primary>  (2) 
energy

$$$$
2:0
     RDKit          3D

 54 56  0  0  0  0  0  0  0  0999 V2000
   -8.6780   20.1180  -32.1230 C   0  0  0  0  0  0  0  0  0  0  0  0
   -7.2310   19.8990  -32.4310 C   0  0  0  0  0  0  0  0  0  0  0  0
   -6.2420   20.4260  -31.5880 C   0  0  0  0  0  0  0  0  0  0  0  0
   -4.8970   20.1690  -31.8650 C   0  0  0  0  0  0  0  0  0  0  0  0
   -3.6130   20.8080  -30.7870 S   0  0  0  0  0  0  0  0  0  0  0  0
   -3.5120   22.4520  -31.5850 C   0  0  0  0  0  0  0  0  0  0  0  0
   -4.6430   23.3570  -31.1410 C   0  0  0  0  0  0  0  0  0  0  0  0
   -5.8090   23.3830  -31.9300 C   0  0  0  0  0  0  0  0  0  0  0  0
   -6.9060   24.1610  -31.5590 C   0  0  0  0  0  0  0  0  0  0  0  0
   -6.8650   24.9150  -30.3880 C   0  0  0  0  0  0  0  0  0  0  0  0
   -5.7220   24.9010  -29.5880 C   0  0  0  0  0  0  0  0  0  0  0  0
   -4.5980   24.1390  -29.9530 C   0  0  0  0  0  0  0  0  0  0  0  0
   -3.4290   24.1620  -29.0550 C   0  0  0  0  0  0  0  0  0  0  0  0
   -3.3690   23.3860  -28.0660 O   0  0  0  0  0  0  0  0  0  0  0  0
   -2.3470   25.0570  -29.3260 N   0  0  0  0  0  0  0  0  0  0  0  0
   -0.9490   24.6410  -29.3370 C   0  0  0  0  0  0  0  0  0  0  0  0
   -0.3810   24.5590  -27.9030 C   0  0  0  0  0  0  0  0  0  0  0  0
   -1.3320   25.0410  -26.8680 N   0  0  0  0  0  0  0  0  0  0  0  0
   -1.1360   26.4870  -26.5840 C   0  0  0  0  0  0  0  0  0  0  0  0
   -1.6250   26.8480  -25.1710 C   0  0  0  0  0  0  0  0  0  0  0  0
   -0.9350   26.1590  -24.1360 O   0  0  0  0  0  0  0  0  0  0  0  0
   -0.4100   24.9010  -24.5380 C   0  0  0  0  0  0  0  0  0  0  0  0
   -1.2410   24.2120  -25.6350 C   0  0  0  0  0  0  0  0  0  0  0  0
   -4.5550   19.4160  -32.9930 C   0  0  0  0  0  0  0  0  0  0  0  0
   -5.5680   18.8860  -33.8020 C   0  0  0  0  0  0  0  0  0  0  0  0
   -5.2230   18.0730  -35.0080 C   0  0  0  0  0  0  0  0  0  0  0  0
   -6.8730   19.1370  -33.5010 N   0  0  0  0  0  0  0  0  0  0  0  0
   -8.8216   20.1397  -31.0326 H   0  0  0  0  0  0  0  0  0  0  0  0
   -9.0040   21.0757  -32.5549 H   0  0  0  0  0  0  0  0  0  0  0  0
   -9.2728   19.2996  -32.5549 H   0  0  0  0  0  0  0  0  0  0  0  0
   -6.5226   21.0361  -30.7167 H   0  0  0  0  0  0  0  0  0  0  0  0
   -2.5535   22.9206  -31.3173 H   0  0  0  0  0  0  0  0  0  0  0  0
   -3.5899   22.3120  -32.6733 H   0  0  0  0  0  0  0  0  0  0  0  0
   -5.8555   22.7824  -32.8504 H   0  0  0  0  0  0  0  0  0  0  0  0
   -7.8052   24.1792  -32.1923 H   0  0  0  0  0  0  0  0  0  0  0  0
   -7.7343   25.5216  -30.0941 H   0  0  0  0  0  0  0  0  0  0  0  0
   -5.6999   25.4929  -28.6611 H   0  0  0  0  0  0  0  0  0  0  0  0
   -0.8726   23.6511  -29.8106 H   0  0  0  0  0  0  0  0  0  0  0  0
   -0.3677   25.3857  -29.9006 H   0  0  0  0  0  0  0  0  0  0  0  0
   -0.1300   23.5103  -27.6859 H   0  0  0  0  0  0  0  0  0  0  0  0
    0.5032   25.2122  -27.8639 H   0  0  0  0  0  0  0  0  0  0  0  0
   -2.3050   24.9170  -27.2390 H   0  0  0  0  0  0  0  0  0  0  0  0
   -0.0655   26.7267  -26.6653 H   0  0  0  0  0  0  0  0  0  0  0  0
   -1.7201   27.0674  -27.3134 H   0  0  0  0  0  0  0  0  0  0  0  0
   -1.4871   27.9290  -25.0210 H   0  0  0  0  0  0  0  0  0  0  0  0
   -2.6815   26.5482  -25.1091 H   0  0  0  0  0  0  0  0  0  0  0  0
    0.6103   25.0551  -24.9190 H   0  0  0  0  0  0  0  0  0  0  0  0
   -0.4307   24.2445  -23.6556 H   0  0  0  0  0  0  0  0  0  0  0  0
   -0.7692   23.2508  -25.8871 H   0  0  0  0  0  0  0  0  0  0  0  0
   -2.2601   24.0651  -25.2479 H   0  0  0  0  0  0  0  0  0  0  0  0
   -3.4981   19.2413  -33.2429 H   0  0  0  0  0  0  0  0  0  0  0  0
   -4.8115   17.1033  -34.6911 H   0  0  0  0  0  0  0  0  0  0  0  0
   -6.1286   17.9078  -35.6102 H   0  0  0  0  0  0  0  0  0  0  0  0
   -4.4750   18.6095  -35.6102 H   0  0  0  0  0  0  0  0  0  0  0  0
  1  2  1  0
  2  3  2  0
  3  4  1  0
  4  5  1  0
  5  6  1  0
  6  7  1  0
  7  8  2  0
  8  9  1  0
  9 10  2  0
 10 11  1  0
 11 12  2  0
 12 13  1  0
 13 14  2  0
 13 15  1  0
 15 16  1  0
 16 17  1  0
 17 18  1  0
 18 19  1  0
 19 20  1  0
 20 21  1  0
 21 22  1  0
 22 23  1  0
  4 24  2  0
 24 25  1  0
 25 26  1  0
 25 27  2  0
 27  2  1  0
 12  7  1  0
 23 18  1  0
  1 28  1  0
  1 29  1  0
  1 30  1  0
  3 31  1  0
  6 32  1  0
  6 33  1  0
  8 34  1  0
  9 35  1  0
 10 36  1  0
 11 37  1  0
 16 38  1  0
 16 39  1  0
 17 40  1  0
 17 41  1  0
 18 42  1  0
 19 43  1  0
 19 44  1  0
 20 45  1  0
 20 46  1  0
 22 47  1  0
 22 48  1  0
 23 49  1  0
 23 50  1  0
 24 51  1  0
 26 52  1  0
 26 53  1  0
 26 54  1  0
M  CHG  2  15  -1  18   1
M  END
>  <UniqueID>  (3) 
2

>  <SMILES>  (3) 
Cc1cc(SCc2ccccc2C(=O)[N-]CC[NH+]2CCOCC2)cc(C)n1

>  <Energy>  (3) 
66.38852326940132

>  <Genealogy>  (3) 
Cc1cc(SCc2ccccc2C(=O)[N-]CC[NH+]2CCOCC2)cc(C)n1 (protonated)
Cc1cc(SCc2ccccc2C(=O)[N-]CC[NH+]2CCOCC2)cc(C)n1 (3D coordinates assigned)
Cc1cc(SCc2ccccc2C(=O)[N-]CC[NH+]2CCOCC2)cc(C)n1 (nonaromatic ring conformer: 66.38852326940132 kcal/mol)

>  <smiles>  (3) 
Cc1cc(SCc2ccccc2C(=O)NCCN2CCOCC2)cc(C)n1

>  <score_type>  (3) 
oracle

>  <origin>  (3) 
adgpu

>  <m_score__min__energy>  (3) 
-9.2699999999999996

>  <m_primary>  (3) 
energy

$$$$
3:0
     RDKit          3D

 60 63  0  0  0  0  0  0  0  0999 V2000
   -2.1110   17.4990  -34.8560 C   0  0  0  0  0  0  0  0  0  0  0  0
   -2.4980   18.8450  -34.5940 O   0  0  0  0  0  0  0  0  0  0  0  0
   -2.4620   19.4640  -33.3350 C   0  0  0  0  0  0  0  0  0  0  0  0
   -3.3650   20.4950  -33.0110 C   0  0  0  0  0  0  0  0  0  0  0  0
   -3.3400   21.1040  -31.7510 C   0  0  0  0  0  0  0  0  0  0  0  0
   -4.2940   22.1900  -31.4230 C   0  0  0  0  0  0  0  0  0  0  0  0
   -3.7860   23.4580  -31.1100 C   0  0  0  0  0  0  0  0  0  0  0  0
   -4.6700   24.5050  -30.8410 C   0  0  0  0  0  0  0  0  0  0  0  0
   -4.2220   25.6490  -30.5650 O   0  0  0  0  0  0  0  0  0  0  0  0
   -5.9820   24.3060  -30.8800 O   0  0  0  0  0  0  0  0  0  0  0  0
   -6.5200   23.1220  -31.1580 C   0  0  0  0  0  0  0  0  0  0  0  0
   -7.9120   22.9890  -31.1790 C   0  0  0  0  0  0  0  0  0  0  0  0
   -8.4960   21.7520  -31.4570 C   0  0  0  0  0  0  0  0  0  0  0  0
   -7.6950   20.6300  -31.6940 C   0  0  0  0  0  0  0  0  0  0  0  0
   -8.4410   19.0830  -32.0870 S   0  0  0  0  0  0  0  0  0  0  0  0
   -9.4900   19.2990  -33.1430 O   0  0  0  0  0  0  0  0  0  0  0  0
   -9.1070   18.5130  -30.8630 O   0  0  0  0  0  0  0  0  0  0  0  0
   -7.2240   17.9810  -32.6810 N   0  0  0  0  0  0  0  0  0  0  0  0
   -6.5510   18.5640  -33.8610 C   0  0  0  0  0  0  0  0  0  0  0  0
   -5.2360   17.8350  -34.2210 C   0  0  0  0  0  0  0  0  0  0  0  0
   -5.1350   16.4380  -33.5790 C   0  0  0  0  0  0  0  0  0  0  0  0
   -6.1170   15.4510  -34.2340 C   0  0  0  0  0  0  0  0  0  0  0  0
   -5.3380   16.5180  -32.0450 C   0  0  0  0  0  0  0  0  0  0  0  0
   -6.2560   17.6790  -31.6170 C   0  0  0  0  0  0  0  0  0  0  0  0
   -6.3000   20.7530  -31.6730 C   0  0  0  0  0  0  0  0  0  0  0  0
   -5.6960   22.0030  -31.4300 C   0  0  0  0  0  0  0  0  0  0  0  0
   -2.3830   20.7070  -30.8130 C   0  0  0  0  0  0  0  0  0  0  0  0
   -1.4680   19.6840  -31.1140 C   0  0  0  0  0  0  0  0  0  0  0  0
   -0.5020   19.2590  -30.1870 O   0  0  0  0  0  0  0  0  0  0  0  0
    0.8870   19.5650  -30.2690 C   0  0  0  0  0  0  0  0  0  0  0  0
   -1.5030   19.0550  -32.3710 C   0  0  0  0  0  0  0  0  0  0  0  0
   -0.5580   18.0360  -32.5910 O   0  0  0  0  0  0  0  0  0  0  0  0
   -0.5180   16.7590  -31.9610 C   0  0  0  0  0  0  0  0  0  0  0  0
   -1.9587   16.9693  -33.9040 H   0  0  0  0  0  0  0  0  0  0  0  0
   -2.9009   16.9961  -35.4331 H   0  0  0  0  0  0  0  0  0  0  0  0
   -1.1746   17.4924  -35.4331 H   0  0  0  0  0  0  0  0  0  0  0  0
   -4.1005   20.8264  -33.7588 H   0  0  0  0  0  0  0  0  0  0  0  0
   -2.6996   23.6272  -31.0765 H   0  0  0  0  0  0  0  0  0  0  0  0
   -8.5490   23.8624  -30.9757 H   0  0  0  0  0  0  0  0  0  0  0  0
   -9.5916   21.6591  -31.4899 H   0  0  0  0  0  0  0  0  0  0  0  0
   -7.2339   18.5026  -34.7212 H   0  0  0  0  0  0  0  0  0  0  0  0
   -6.2962   19.6057  -33.6162 H   0  0  0  0  0  0  0  0  0  0  0  0
   -5.1829   17.7245  -35.3141 H   0  0  0  0  0  0  0  0  0  0  0  0
   -4.4037   18.4401  -33.8321 H   0  0  0  0  0  0  0  0  0  0  0  0
   -4.1204   16.0529  -33.7585 H   0  0  0  0  0  0  0  0  0  0  0  0
   -6.6624   14.9028  -33.4517 H   0  0  0  0  0  0  0  0  0  0  0  0
   -6.8320   16.0057  -34.8593 H   0  0  0  0  0  0  0  0  0  0  0  0
   -5.5586   14.7388  -34.8593 H   0  0  0  0  0  0  0  0  0  0  0  0
   -5.7846   15.5734  -31.7012 H   0  0  0  0  0  0  0  0  0  0  0  0
   -4.3514   16.6957  -31.5922 H   0  0  0  0  0  0  0  0  0  0  0  0
   -6.7980   17.3953  -30.7028 H   0  0  0  0  0  0  0  0  0  0  0  0
   -5.6410   18.5713  -31.4281 H   0  0  0  0  0  0  0  0  0  0  0  0
   -5.6712   19.8675  -31.8474 H   0  0  0  0  0  0  0  0  0  0  0  0
   -2.3458   21.1998  -29.8303 H   0  0  0  0  0  0  0  0  0  0  0  0
    1.3028   19.6566  -29.2547 H   0  0  0  0  0  0  0  0  0  0  0  0
    1.4086   18.7602  -30.8078 H   0  0  0  0  0  0  0  0  0  0  0  0
    1.0221   20.5144  -30.8078 H   0  0  0  0  0  0  0  0  0  0  0  0
   -0.5221   16.8887  -30.8687 H   0  0  0  0  0  0  0  0  0  0  0  0
   -1.3982   16.1730  -32.2639 H   0  0  0  0  0  0  0  0  0  0  0  0
    0.3972   16.2292  -32.2639 H   0  0  0  0  0  0  0  0  0  0  0  0
  1  2  1  0
  2  3  1  0
  3  4  2  0
  4  5  1  0
  5  6  1  0
  6  7  2  0
  7  8  1  0
  8  9  2  0
  8 10  1  0
 10 11  1  0
 11 12  2  0
 12 13  1  0
 13 14  2  0
 14 15  1  0
 15 16  2  0
 15 17  2  0
 15 18  1  0
 18 19  1  0
 19 20  1  0
 20 21  1  0
 21 22  1  0
 21 23  1  0
 23 24  1  0
 14 25  1  0
 25 26  2  0
  5 27  2  0
 27 28  1  0
 28 29  1  0
 29 30  1  0
 28 31  2  0
 31 32  1  0
 32 33  1  0
 31  3  1  0
 26  6  1  0
 26 11  1  0
 24 18  1  0
  1 34  1  0
  1 35  1  0
  1 36  1  0
  4 37  1  0
  7 38  1  0
 12 39  1  0
 13 40  1  0
 19 41  1  0
 19 42  1  0
 20 43  1  0
 20 44  1  0
 21 45  1  0
 22 46  1  0
 22 47  1  0
 22 48  1  0
 23 49  1  0
 23 50  1  0
 24 51  1  0
 24 52  1  0
 25 53  1  0
 27 54  1  0
 30 55  1  0
 30 56  1  0
 30 57  1  0
 33 58  1  0
 33 59  1  0
 33 60  1  0
M  END
>  <UniqueID>  (4) 
3

>  <SMILES>  (4) 
COc1cc(-c2cc(=O)oc3ccc(S(=O)(=O)N4CCC(C)CC4)cc23)cc(OC)c1OC

>  <Energy>  (4) 
77.27043856436718

>  <Genealogy>  (4) 
COc1cc(-c2cc(=O)oc3ccc(S(=O)(=O)N4CCC(C)CC4)cc23)cc(OC)c1OC (3D coordinates assigned)
COc1cc(-c2cc(=O)oc3ccc(S(=O)(=O)N4CCC(C)CC4)cc23)cc(OC)c1OC (nonaromatic ring conformer: 77.27043856436718 kcal/mol)

>  <smiles>  (4) 
COc1cc(-c2cc(=O)oc3ccc(S(=O)(=O)N4CCC(C)CC4)cc23)cc(OC)c1OC

>  <score_type>  (4) 
oracle

>  <origin>  (4) 
adgpu

>  <m_score__min__energy>  (4) 
-9.8100000000000005

>  <m_primary>  (4) 
energy

$$$$
4:0
     RDKit          3D

 48 51  0  0  0  0  0  0  0  0999 V2000
   -2.0460   19.3300  -26.2040 O   0  0  0  0  0  0  0  0  0  0  0  0
   -1.6420   20.3560  -26.8100 C   0  0  0  0  0  0  0  0  0  0  0  0
   -2.3580   20.8250  -28.0420 C   0  0  0  0  0  0  0  0  0  0  0  0
   -2.0850   22.2830  -28.3090 C   0  0  0  0  0  0  0  0  0  0  0  0
   -2.9900   23.0310  -29.0790 C   0  0  0  0  0  0  0  0  0  0  0  0
   -2.6900   24.3520  -29.4540 C   0  0  0  0  0  0  0  0  0  0  0  0
   -3.5600   25.1080  -30.3100 N   0  0  0  0  0  0  0  0  0  0  0  0
   -5.2760   24.8480  -30.4800 S   0  0  0  0  0  0  0  0  0  0  0  0
   -5.8600   25.9790  -31.2850 O   0  0  0  0  0  0  0  0  0  0  0  0
   -5.9120   24.8500  -29.1140 O   0  0  0  0  0  0  0  0  0  0  0  0
   -5.6440   23.3280  -31.3070 C   0  0  0  0  0  0  0  0  0  0  0  0
   -4.5990   22.4890  -31.7220 C   0  0  0  0  0  0  0  0  0  0  0  0
   -4.8680   21.3240  -32.4520 C   0  0  0  0  0  0  0  0  0  0  0  0
   -3.5400   20.2960  -32.9950 S   0  0  0  0  0  0  0  0  0  0  0  0
   -3.9730   19.5470  -34.2260 O   0  0  0  0  0  0  0  0  0  0  0  0
   -3.2200   19.2850  -31.9280 O   0  0  0  0  0  0  0  0  0  0  0  0
   -2.0990   21.2220  -33.3680 N   0  0  0  0  0  0  0  0  0  0  0  0
   -1.1790   20.4530  -34.2140 C   0  0  0  0  0  0  0  0  0  0  0  0
   -0.1190   19.8230  -33.3210 C   0  0  0  0  0  0  0  0  0  0  0  0
   -0.2230   20.5400  -31.9890 C   0  0  0  0  0  0  0  0  0  0  0  0
   -1.3520   21.5510  -32.1490 C   0  0  0  0  0  0  0  0  0  0  0  0
   -6.1920   20.9910  -32.7590 C   0  0  0  0  0  0  0  0  0  0  0  0
   -7.2400   21.8140  -32.3360 C   0  0  0  0  0  0  0  0  0  0  0  0
   -6.9710   22.9840  -31.6180 C   0  0  0  0  0  0  0  0  0  0  0  0
   -8.0260   23.8030  -31.2300 O   0  0  0  0  0  0  0  0  0  0  0  0
   -1.5150   24.9530  -28.9740 C   0  0  0  0  0  0  0  0  0  0  0  0
   -1.2250   26.2770  -29.2990 O   0  0  0  0  0  0  0  0  0  0  0  0
   -0.6180   24.2220  -28.1860 C   0  0  0  0  0  0  0  0  0  0  0  0
   -0.8910   22.8850  -27.8590 C   0  0  0  0  0  0  0  0  0  0  0  0
    0.1190   22.0690  -27.0940 C   0  0  0  0  0  0  0  0  0  0  0  0
   -0.5200   21.0410  -26.3360 O   0  0  0  0  0  0  0  0  0  0  0  0
   -2.0161   20.2323  -28.9033 H   0  0  0  0  0  0  0  0  0  0  0  0
   -3.4393   20.6957  -27.8871 H   0  0  0  0  0  0  0  0  0  0  0  0
   -3.9428   22.5789  -29.3917 H   0  0  0  0  0  0  0  0  0  0  0  0
   -3.5596   22.7481  -31.4721 H   0  0  0  0  0  0  0  0  0  0  0  0
   -1.7333   19.6653  -34.7454 H   0  0  0  0  0  0  0  0  0  0  0  0
   -0.7053   21.1134  -34.9552 H   0  0  0  0  0  0  0  0  0  0  0  0
   -0.3146   18.7480  -33.1939 H   0  0  0  0  0  0  0  0  0  0  0  0
    0.8868   19.9197  -33.7558 H   0  0  0  0  0  0  0  0  0  0  0  0
   -0.4594   19.8255  -31.1868 H   0  0  0  0  0  0  0  0  0  0  0  0
    0.7238   21.0299  -31.7178 H   0  0  0  0  0  0  0  0  0  0  0  0
   -2.0218   21.5008  -31.2779 H   0  0  0  0  0  0  0  0  0  0  0  0
   -0.9406   22.5686  -32.2209 H   0  0  0  0  0  0  0  0  0  0  0  0
   -6.4088   20.0791  -33.3348 H   0  0  0  0  0  0  0  0  0  0  0  0
   -8.2798   21.5405  -32.5686 H   0  0  0  0  0  0  0  0  0  0  0  0
    0.3045   24.6976  -27.8217 H   0  0  0  0  0  0  0  0  0  0  0  0
    0.8211   21.6081  -27.8044 H   0  0  0  0  0  0  0  0  0  0  0  0
    0.6532   22.7347  -26.4001 H   0  0  0  0  0  0  0  0  0  0  0  0
  1  2  2  0
  2  3  1  0
  3  4  1  0
  4  5  2  0
  5  6  1  0
  6  7  1  0
  7  8  1  0
  8  9  2  0
  8 10  2  0
  8 11  1  0
 11 12  2  0
 12 13  1  0
 13 14  1  0
 14 15  2  0
 14 16  2  0
 14 17  1  0
 17 18  1  0
 18 19  1  0
 19 20  1  0
 20 21  1  0
 13 22  2  0
 22 23  1  0
 23 24  2  0
 24 25  1  0
  6 26  2  0
 26 27  1  0
 26 28  1  0
 28 29  2  0
 29 30  1  0
 30 31  1  0
 31  2  1  0
 29  4  1  0
 24 11  1  0
 21 17  1  0
  3 32  1  0
  3 33  1  0
  5 34  1  0
 12 35  1  0
 18 36  1  0
 18 37  1  0
 19 38  1  0
 19 39  1  0
 20 40  1  0
 20 41  1  0
 21 42  1  0
 21 43  1  0
 22 44  1  0
 23 45  1  0
 28 46  1  0
 30 47  1  0
 30 48  1  0
M  CHG  3   7  -1  25  -1  27  -1
M  END
>  <UniqueID>  (5) 
4

>  <SMILES>  (5) 
O=C1Cc2cc([N-]S(=O)(=O)c3cc(S(=O)(=O)N4CCCC4)ccc3[O-])c([O-])cc2CO1

>  <Energy>  (5) 
59.98146782426032

>  <Genealogy>  (5) 
O=C1Cc2cc([N-]S(=O)(=O)c3cc(S(=O)(=O)N4CCCC4)ccc3[O-])c([O-])cc2CO1 (protonated)
O=C1Cc2cc([N-]S(=O)(=O)c3cc(S(=O)(=O)N4CCCC4)ccc3[O-])c([O-])cc2CO1 (3D coordinates assigned)
O=C1Cc2cc([N-]S(=O)(=O)c3cc(S(=O)(=O)N4CCCC4)ccc3[O-])c([O-])cc2CO1 (nonaromatic ring conformer: 59.98146782426032 kcal/mol)

>  <smiles>  (5) 
O=C1Cc2cc(NS(=O)(=O)c3cc(S(=O)(=O)N4CCCC4)ccc3O)c(O)cc2CO1

>  <score_type>  (5) 
oracle

>  <origin>  (5) 
adgpu

>  <m_score__min__energy>  (5) 
-14.140000000000001

>  <m_primary>  (5) 
energy

$$$$
5:0
     RDKit          3D

 49 52  0  0  0  0  0  0  0  0999 V2000
   -2.7790   20.0470  -27.7160 C   0  0  0  0  0  0  0  0  0  0  0  0
   -2.6640   21.2440  -28.6060 C   0  0  0  0  0  0  0  0  0  0  0  0
   -3.0280   22.5340  -28.2760 C   0  0  0  0  0  0  0  0  0  0  0  0
   -2.7090   23.2730  -29.4040 C   0  0  0  0  0  0  0  0  0  0  0  0
   -2.8870   24.7220  -29.5900 C   0  0  0  0  0  0  0  0  0  0  0  0
   -2.1360   25.5080  -28.9540 O   0  0  0  0  0  0  0  0  0  0  0  0
   -3.8470   25.2760  -30.5010 N   0  0  0  0  0  0  0  0  0  0  0  0
   -5.2980   25.3090  -30.3220 C   0  0  0  0  0  0  0  0  0  0  0  0
   -5.9290   24.0400  -30.8180 C   0  0  0  0  0  0  0  0  0  0  0  0
   -6.8660   24.0660  -31.8590 C   0  0  0  0  0  0  0  0  0  0  0  0
   -7.4060   22.8670  -32.3260 C   0  0  0  0  0  0  0  0  0  0  0  0
   -7.0120   21.6520  -31.7510 C   0  0  0  0  0  0  0  0  0  0  0  0
   -7.6750   20.1250  -32.3220 S   0  0  0  0  0  0  0  0  0  0  0  0
   -8.6710   20.4000  -33.4120 O   0  0  0  0  0  0  0  0  0  0  0  0
   -8.3590   19.3940  -31.2000 O   0  0  0  0  0  0  0  0  0  0  0  0
   -6.3820   19.1150  -32.9430 C   0  0  0  0  0  0  0  0  0  0  0  0
   -6.5250   17.8080  -33.2680 N   0  0  0  0  0  0  0  0  0  0  0  0
   -5.3550   17.3740  -33.7260 N   0  0  0  0  0  0  0  0  0  0  0  0
   -5.1140   16.0130  -34.1900 C   0  0  0  0  0  0  0  0  0  0  0  0
   -4.4720   18.3910  -33.7030 C   0  0  0  0  0  0  0  0  0  0  0  0
   -3.1340   18.4040  -34.1020 C   0  0  0  0  0  0  0  0  0  0  0  0
   -2.4300   19.6170  -33.9810 C   0  0  0  0  0  0  0  0  0  0  0  0
   -3.0700   20.7710  -33.4730 C   0  0  0  0  0  0  0  0  0  0  0  0
   -4.4210   20.7250  -33.0800 C   0  0  0  0  0  0  0  0  0  0  0  0
   -5.0870   19.5080  -33.2110 C   0  0  0  0  0  0  0  0  0  0  0  0
   -6.0760   21.6690  -30.7100 C   0  0  0  0  0  0  0  0  0  0  0  0
   -5.5630   22.8470  -30.2720 N   0  0  0  0  0  0  0  0  0  0  0  0
   -2.1570   22.4720  -30.3370 N   0  0  0  0  0  0  0  0  0  0  0  0
   -2.1340   21.2440  -29.8450 N   0  0  0  0  0  0  0  0  0  0  0  0
   -1.6330   20.0880  -30.5790 C   0  0  0  0  0  0  0  0  0  0  0  0
   -2.7482   20.3678  -26.6643 H   0  0  0  0  0  0  0  0  0  0  0  0
   -3.7307   19.5324  -27.9147 H   0  0  0  0  0  0  0  0  0  0  0  0
   -1.9427   19.3607  -27.9147 H   0  0  0  0  0  0  0  0  0  0  0  0
   -3.4696   22.8927  -27.3345 H   0  0  0  0  0  0  0  0  0  0  0  0
   -5.5261   25.4304  -29.2528 H   0  0  0  0  0  0  0  0  0  0  0  0
   -5.7039   26.1522  -30.9002 H   0  0  0  0  0  0  0  0  0  0  0  0
   -7.1735   25.0235  -32.3046 H   0  0  0  0  0  0  0  0  0  0  0  0
   -8.1404   22.8760  -33.1449 H   0  0  0  0  0  0  0  0  0  0  0  0
   -4.9958   15.3457  -33.3235 H   0  0  0  0  0  0  0  0  0  0  0  0
   -5.9666   15.6766  -34.7983 H   0  0  0  0  0  0  0  0  0  0  0  0
   -4.1978   15.9898  -34.7983 H   0  0  0  0  0  0  0  0  0  0  0  0
   -2.6478   17.4995  -34.4964 H   0  0  0  0  0  0  0  0  0  0  0  0
   -1.3738   19.6675  -34.2840 H   0  0  0  0  0  0  0  0  0  0  0  0
   -2.5077   21.7122  -33.3842 H   0  0  0  0  0  0  0  0  0  0  0  0
   -4.9314   21.6156  -32.6847 H   0  0  0  0  0  0  0  0  0  0  0  0
   -5.7553   20.7248  -30.2456 H   0  0  0  0  0  0  0  0  0  0  0  0
   -1.2994   19.3183  -29.8675 H   0  0  0  0  0  0  0  0  0  0  0  0
   -2.4349   19.6797  -31.2116 H   0  0  0  0  0  0  0  0  0  0  0  0
   -0.7867   20.3940  -31.2116 H   0  0  0  0  0  0  0  0  0  0  0  0
  1  2  1  0
  2  3  2  0
  3  4  1  0
  4  5  1  0
  5  6  2  0
  5  7  1  0
  7  8  1  0
  8  9  1  0
  9 10  2  0
 10 11  1  0
 11 12  2  0
 12 13  1  0
 13 14  2  0
 13 15  2  0
 13 16  1  0
 16 17  2  0
 17 18  1  0
 18 19  1  0
 18 20  1  0
 20 21  2  0
 21 22  1  0
 22 23  2  0
 23 24  1  0
 24 25  2  0
 12 26  1  0
 26 27  2  0
  4 28  2  0
 28 29  1  0
 29 30  1  0
 29  2  1  0
 27  9  1  0
 25 16  1  0
 25 20  1  0
  1 31  1  0
  1 32  1  0
  1 33  1  0
  3 34  1  0
  8 35  1  0
  8 36  1  0
 10 37  1  0
 11 38  1  0
 19 39  1  0
 19 40  1  0
 19 41  1  0
 21 42  1  0
 22 43  1  0
 23 44  1  0
 24 45  1  0
 26 46  1  0
 30 47  1  0
 30 48  1  0
 30 49  1  0
M  CHG  1   7  -1
M  END
>  <UniqueID>  (6) 
5

>  <SMILES>  (6) 
Cc1cc(C(=O)[N-]Cc2ccc(S(=O)(=O)c3nn(C)c4ccccc34)cn2)nn1C

>  <Energy>  (6) 
121.98847342072175

>  <Genealogy>  (6) 
Cc1cc(C(=O)[N-]Cc2ccc(S(=O)(=O)c3nn(C)c4ccccc34)cn2)nn1C (protonated)
Cc1cc(C(=O)[N-]Cc2ccc(S(=O)(=O)c3nn(C)c4ccccc34)cn2)nn1C (3D coordinates assigned)
Cc1cc(C(=O)[N-]Cc2ccc(S(=O)(=O)c3nn(C)c4ccccc34)cn2)nn1C (optimized conformer: 121.98847342072175 kcal/mol)

>  <smiles>  (6) 
Cc1cc(C(=O)NCc2ccc(S(=O)(=O)c3nn(C)c4ccccc34)cn2)nn1C

>  <score_type>  (6) 
oracle

>  <origin>  (6) 
adgpu

>  <m_score__min__energy>  (6) 
-11.890000000000001

>  <m_primary>  (6) 
energy

$$$$
6:0
     RDKit          3D

 28 29  0  0  0  0  0  0  0  0999 V2000
   -4.2220   25.6970  -30.5720 O   0  0  0  0  0  0  0  0  0  0  0  0
   -4.1790   24.4410  -30.4950 C   0  0  0  0  0  0  0  0  0  0  0  0
   -4.8320   23.6620  -31.5070 N   0  0  0  0  0  0  0  0  0  0  0  0
   -6.1830   23.8930  -32.0130 C   0  0  0  0  0  0  0  0  0  0  0  0
   -6.9900   22.6210  -31.9840 C   0  0  0  0  0  0  0  0  0  0  0  0
   -6.4120   21.3980  -32.3650 C   0  0  0  0  0  0  0  0  0  0  0  0
   -7.1770   20.2280  -32.3680 C   0  0  0  0  0  0  0  0  0  0  0  0
   -8.5210   20.2690  -31.9850 C   0  0  0  0  0  0  0  0  0  0  0  0
   -9.1010   21.4790  -31.5960 C   0  0  0  0  0  0  0  0  0  0  0  0
   -8.3390   22.6520  -31.5930 C   0  0  0  0  0  0  0  0  0  0  0  0
   -3.4350   23.8150  -29.3870 C   0  0  0  0  0  0  0  0  0  0  0  0
   -3.8540   22.5800  -28.8670 C   0  0  0  0  0  0  0  0  0  0  0  0
   -3.1410   21.9740  -27.8280 C   0  0  0  0  0  0  0  0  0  0  0  0
   -2.0100   22.5990  -27.2980 C   0  0  0  0  0  0  0  0  0  0  0  0
   -1.5930   23.8350  -27.8010 C   0  0  0  0  0  0  0  0  0  0  0  0
   -2.3010   24.4460  -28.8410 C   0  0  0  0  0  0  0  0  0  0  0  0
   -1.8640   25.6700  -29.3370 O   0  0  0  0  0  0  0  0  0  0  0  0
   -6.6786   24.6489  -31.3860 H   0  0  0  0  0  0  0  0  0  0  0  0
   -6.1147   24.2435  -33.0534 H   0  0  0  0  0  0  0  0  0  0  0  0
   -5.3535   21.3612  -32.6620 H   0  0  0  0  0  0  0  0  0  0  0  0
   -6.7211   19.2742  -32.6720 H   0  0  0  0  0  0  0  0  0  0  0  0
   -9.1222   19.3479  -31.9900 H   0  0  0  0  0  0  0  0  0  0  0  0
  -10.1577   21.5093  -31.2919 H   0  0  0  0  0  0  0  0  0  0  0  0
   -8.7979   23.6025  -31.2833 H   0  0  0  0  0  0  0  0  0  0  0  0
   -4.7470   22.0870  -29.2787 H   0  0  0  0  0  0  0  0  0  0  0  0
   -3.4712   21.0041  -27.4277 H   0  0  0  0  0  0  0  0  0  0  0  0
   -1.4470   22.1185  -26.4843 H   0  0  0  0  0  0  0  0  0  0  0  0
   -0.7056   24.3283  -27.3777 H   0  0  0  0  0  0  0  0  0  0  0  0
  1  2  2  0
  2  3  1  0
  3  4  1  0
  4  5  1  0
  5  6  2  0
  6  7  1  0
  7  8  2  0
  8  9  1  0
  9 10  2  0
  2 11  1  0
 11 12  2  0
 12 13  1  0
 13 14  2  0
 14 15  1  0
 15 16  2  0
 16 17  1  0
 10  5  1  0
 16 11  1  0
  4 18  1  0
  4 19  1  0
  6 20  1  0
  7 21  1  0
  8 22  1  0
  9 23  1  0
 10 24  1  0
 12 25  1  0
 13 26  1  0
 14 27  1  0
 15 28  1  0
M  CHG  2   3  -1  17  -1
M  END
>  <UniqueID>  (7) 
6

>  <SMILES>  (7) 
O=C([N-]Cc1ccccc1)c1ccccc1[O-]

>  <Energy>  (7) 
31.576519947423233

>  <Genealogy>  (7) 
O=C([N-]Cc1ccccc1)c1ccccc1[O-] (protonated)
O=C([N-]Cc1ccccc1)c1ccccc1[O-] (3D coordinates assigned)
O=C([N-]Cc1ccccc1)c1ccccc1[O-] (optimized conformer: 31.576519947423233 kcal/mol)

>  <smiles>  (7) 
O=C(NCc1ccccc1)c1ccccc1O

>  <score_type>  (7) 
oracle

>  <origin>  (7) 
adgpu

>  <m_score__min__energy>  (7) 
-11.359999999999999

>  <m_primary>  (7) 
energy

$$$$
7:0
     RDKit          3D

 57 60  0  0  0  0  0  0  0  0999 V2000
   -3.6720   24.4320  -26.5660 O   0  0  0  0  0  0  0  0  0  0  0  0
   -2.6360   24.9480  -27.0680 C   0  0  0  0  0  0  0  0  0  0  0  0
   -2.4110   24.8540  -28.4840 N   0  0  0  0  0  0  0  0  0  0  0  0
   -3.0970   23.9110  -29.3250 C   0  0  0  0  0  0  0  0  0  0  0  0
   -3.1150   22.5570  -28.9610 C   0  0  0  0  0  0  0  0  0  0  0  0
   -3.7780   21.6180  -29.7560 C   0  0  0  0  0  0  0  0  0  0  0  0
   -4.4400   22.0210  -30.9230 C   0  0  0  0  0  0  0  0  0  0  0  0
   -5.2810   20.8350  -31.9270 S   0  0  0  0  0  0  0  0  0  0  0  0
   -5.2350   19.4960  -31.2450 O   0  0  0  0  0  0  0  0  0  0  0  0
   -4.5620   20.7100  -33.2420 O   0  0  0  0  0  0  0  0  0  0  0  0
   -6.9480   21.2620  -32.2300 N   0  0  0  0  0  0  0  0  0  0  0  0
   -7.7590   20.0980  -32.5800 C   0  0  0  0  0  0  0  0  0  0  0  0
   -9.1910   20.4430  -32.2000 C   0  0  0  0  0  0  0  0  0  0  0  0
   -9.0790   21.5880  -31.2050 C   0  0  0  0  0  0  0  0  0  0  0  0
   -7.5890   21.8460  -31.0530 C   0  0  0  0  0  0  0  0  0  0  0  0
   -4.4560   23.3790  -31.2710 C   0  0  0  0  0  0  0  0  0  0  0  0
   -3.7970   24.3230  -30.4750 C   0  0  0  0  0  0  0  0  0  0  0  0
   -3.8690   25.6690  -30.8210 O   0  0  0  0  0  0  0  0  0  0  0  0
   -1.6880   25.6800  -26.1940 C   0  0  0  0  0  0  0  0  0  0  0  0
   -1.0610   26.8600  -26.6340 C   0  0  0  0  0  0  0  0  0  0  0  0
   -0.1650   27.5390  -25.8050 C   0  0  0  0  0  0  0  0  0  0  0  0
    0.1280   27.0470  -24.5270 C   0  0  0  0  0  0  0  0  0  0  0  0
    1.2480   27.9270  -23.4910 S   0  0  0  0  0  0  0  0  0  0  0  0
    1.3950   29.3410  -23.9810 O   0  0  0  0  0  0  0  0  0  0  0  0
    0.6840   27.9560  -22.0980 O   0  0  0  0  0  0  0  0  0  0  0  0
    2.7970   27.1080  -23.5000 N   0  0  0  0  0  0  0  0  0  0  0  0
    2.6560   25.6620  -23.7810 C   0  0  0  0  0  0  0  0  0  0  0  0
    2.9630   25.3060  -25.2470 C   0  0  0  0  0  0  0  0  0  0  0  0
    2.5850   26.3670  -26.0950 O   0  0  0  0  0  0  0  0  0  0  0  0
    3.4390   27.4800  -25.8980 C   0  0  0  0  0  0  0  0  0  0  0  0
    3.7540   27.7650  -24.4090 C   0  0  0  0  0  0  0  0  0  0  0  0
   -0.4880   25.8710  -24.0830 C   0  0  0  0  0  0  0  0  0  0  0  0
   -1.3840   25.1890  -24.9110 C   0  0  0  0  0  0  0  0  0  0  0  0
   -1.8720   25.6170  -28.9490 H   0  0  0  0  0  0  0  0  0  0  0  0
   -2.6036   22.2315  -28.0431 H   0  0  0  0  0  0  0  0  0  0  0  0
   -3.7800   20.5575  -29.4640 H   0  0  0  0  0  0  0  0  0  0  0  0
   -7.6897   19.8965  -33.6592 H   0  0  0  0  0  0  0  0  0  0  0  0
   -7.4123   19.1970  -32.0527 H   0  0  0  0  0  0  0  0  0  0  0  0
   -9.7596   20.7582  -33.0873 H   0  0  0  0  0  0  0  0  0  0  0  0
   -9.7207   19.5790  -31.7722 H   0  0  0  0  0  0  0  0  0  0  0  0
   -9.5874   22.4840  -31.5905 H   0  0  0  0  0  0  0  0  0  0  0  0
   -9.5519   21.3417  -30.2428 H   0  0  0  0  0  0  0  0  0  0  0  0
   -7.3924   22.9274  -31.0097 H   0  0  0  0  0  0  0  0  0  0  0  0
   -7.1996   21.4023  -30.1248 H   0  0  0  0  0  0  0  0  0  0  0  0
   -4.9901   23.7048  -32.1758 H   0  0  0  0  0  0  0  0  0  0  0  0
   -1.2781   27.2511  -27.6390 H   0  0  0  0  0  0  0  0  0  0  0  0
    0.3129   28.4648  -26.1578 H   0  0  0  0  0  0  0  0  0  0  0  0
    3.3507   25.1086  -23.1321 H   0  0  0  0  0  0  0  0  0  0  0  0
    1.6088   25.3875  -23.5860 H   0  0  0  0  0  0  0  0  0  0  0  0
    4.0414   25.1191  -25.3574 H   0  0  0  0  0  0  0  0  0  0  0  0
    2.3955   24.4053  -25.5241 H   0  0  0  0  0  0  0  0  0  0  0  0
    4.3864   27.2884  -26.4232 H   0  0  0  0  0  0  0  0  0  0  0  0
    2.9134   28.3629  -26.2908 H   0  0  0  0  0  0  0  0  0  0  0  0
    4.7657   27.3963  -24.1844 H   0  0  0  0  0  0  0  0  0  0  0  0
    3.6783   28.8509  -24.2504 H   0  0  0  0  0  0  0  0  0  0  0  0
   -0.2660   25.4820  -23.0783 H   0  0  0  0  0  0  0  0  0  0  0  0
   -1.8555   24.2605  -24.5566 H   0  0  0  0  0  0  0  0  0  0  0  0
  1  2  2  0
  2  3  1  0
  3  4  1  0
  4  5  2  0
  5  6  1  0
  6  7  2  0
  7  8  1  0
  8  9  2  0
  8 10  2  0
  8 11  1  0
 11 12  1  0
 12 13  1  0
 13 14  1  0
 14 15  1  0
  7 16  1  0
 16 17  2  0
 17 18  1  0
  2 19  1  0
 19 20  2  0
 20 21  1  0
 21 22  2  0
 22 23  1  0
 23 24  2  0
 23 25  2  0
 23 26  1  0
 26 27  1  0
 27 28  1  0
 28 29  1  0
 29 30  1  0
 30 31  1  0
 22 32  1  0
 32 33  2  0
 17  4  1  0
 33 19  1  0
 15 11  1  0
 31 26  1  0
  3 34  1  0
  5 35  1  0
  6 36  1  0
 12 37  1  0
 12 38  1  0
 13 39  1  0
 13 40  1  0
 14 41  1  0
 14 42  1  0
 15 43  1  0
 15 44  1  0
 16 45  1  0
 20 46  1  0
 21 47  1  0
 27 48  1  0
 27 49  1  0
 28 50  1  0
 28 51  1  0
 30 52  1  0
 30 53  1  0
 31 54  1  0
 31 55  1  0
 32 56  1  0
 33 57  1  0
M  CHG  1  18  -1
M  END
>  <UniqueID>  (8) 
7

>  <SMILES>  (8) 
O=C(Nc1ccc(S(=O)(=O)N2CCCC2)cc1[O-])c1ccc(S(=O)(=O)N2CCOCC2)cc1

>  <Energy>  (8) 
78.3545586462172

>  <Genealogy>  (8) 
O=C(Nc1ccc(S(=O)(=O)N2CCCC2)cc1[O-])c1ccc(S(=O)(=O)N2CCOCC2)cc1 (protonated)
O=C(Nc1ccc(S(=O)(=O)N2CCCC2)cc1[O-])c1ccc(S(=O)(=O)N2CCOCC2)cc1 (3D coordinates assigned)
O=C(Nc1ccc(S(=O)(=O)N2CCCC2)cc1[O-])c1ccc(S(=O)(=O)N2CCOCC2)cc1 (nonaromatic ring conformer: 78.3545586462172 kcal/mol)

>  <smiles>  (8) 
O=C(Nc1ccc(S(=O)(=O)N2CCCC2)cc1O)c1ccc(S(=O)(=O)N2CCOCC2)cc1

>  <score_type>  (8) 
oracle

>  <origin>  (8) 
adgpu

>  <m_score__min__energy>  (8) 
-12.01

>  <m_primary>  (8) 
energy

$$$$
8:0
     RDKit          3D

 46 49  0  0  0  0  0  0  0  0999 V2000
    1.4500   14.2970  -27.4410 C   0  0  0  0  0  0  0  0  0  0  0  0
    0.8130   15.5860  -27.2000 N   0  0  0  0  0  0  0  0  0  0  0  0
    0.9380   16.6720  -28.1320 C   0  0  0  0  0  0  0  0  0  0  0  0
    1.4920   16.4710  -29.2470 O   0  0  0  0  0  0  0  0  0  0  0  0
    0.4120   18.0220  -27.8140 C   0  0  0  0  0  0  0  0  0  0  0  0
   -0.8140   18.1880  -27.1450 C   0  0  0  0  0  0  0  0  0  0  0  0
   -1.2920   19.4680  -26.8480 C   0  0  0  0  0  0  0  0  0  0  0  0
   -0.5440   20.6050  -27.1940 C   0  0  0  0  0  0  0  0  0  0  0  0
   -1.0300   21.9310  -26.9210 N   0  0  0  0  0  0  0  0  0  0  0  0
   -2.0460   22.5980  -27.6900 C   0  0  0  0  0  0  0  0  0  0  0  0
   -3.3900   22.2350  -27.5180 C   0  0  0  0  0  0  0  0  0  0  0  0
   -4.3920   22.8500  -28.2740 C   0  0  0  0  0  0  0  0  0  0  0  0
   -4.0600   23.8290  -29.2210 C   0  0  0  0  0  0  0  0  0  0  0  0
   -5.3070   24.5920  -30.2000 S   0  0  0  0  0  0  0  0  0  0  0  0
   -4.6510   25.4900  -31.2120 O   0  0  0  0  0  0  0  0  0  0  0  0
   -6.2170   25.4280  -29.3440 O   0  0  0  0  0  0  0  0  0  0  0  0
   -6.2540   23.3410  -31.0040 C   0  0  0  0  0  0  0  0  0  0  0  0
   -7.6590   23.3220  -30.9020 C   0  0  0  0  0  0  0  0  0  0  0  0
   -8.4120   22.3280  -31.5590 C   0  0  0  0  0  0  0  0  0  0  0  0
   -7.7730   21.3440  -32.3270 C   0  0  0  0  0  0  0  0  0  0  0  0
   -6.3840   21.3830  -32.4170 C   0  0  0  0  0  0  0  0  0  0  0  0
   -5.3610   20.3560  -33.2590 S   0  0  0  0  0  0  0  0  0  0  0  0
   -3.9780   21.1980  -32.7660 C   0  0  0  0  0  0  0  0  0  0  0  0
   -4.2870   22.2510  -31.9700 N   0  0  0  0  0  0  0  0  0  0  0  0
   -5.6280   22.3510  -31.7770 C   0  0  0  0  0  0  0  0  0  0  0  0
   -2.7170   24.1740  -29.4160 C   0  0  0  0  0  0  0  0  0  0  0  0
   -1.7150   23.5600  -28.6610 C   0  0  0  0  0  0  0  0  0  0  0  0
    0.6710   20.4430  -27.8710 C   0  0  0  0  0  0  0  0  0  0  0  0
    1.1520   19.1640  -28.1680 C   0  0  0  0  0  0  0  0  0  0  0  0
    1.6862   13.8191  -26.4788 H   0  0  0  0  0  0  0  0  0  0  0  0
    0.7670   13.6517  -28.0130 H   0  0  0  0  0  0  0  0  0  0  0  0
    2.3774   14.4476  -28.0130 H   0  0  0  0  0  0  0  0  0  0  0  0
    0.2170   15.6870  -26.3490 H   0  0  0  0  0  0  0  0  0  0  0  0
   -1.4010   17.3046  -26.8534 H   0  0  0  0  0  0  0  0  0  0  0  0
   -2.2605   19.5851  -26.3399 H   0  0  0  0  0  0  0  0  0  0  0  0
   -0.6170   22.4440  -26.1090 H   0  0  0  0  0  0  0  0  0  0  0  0
   -3.6572   21.4612  -26.7833 H   0  0  0  0  0  0  0  0  0  0  0  0
   -5.4440   22.5650  -28.1255 H   0  0  0  0  0  0  0  0  0  0  0  0
   -8.1728   24.0895  -30.3045 H   0  0  0  0  0  0  0  0  0  0  0  0
   -9.5083   22.3241  -31.4687 H   0  0  0  0  0  0  0  0  0  0  0  0
   -8.3521   20.5641  -32.8432 H   0  0  0  0  0  0  0  0  0  0  0  0
   -2.9529   20.9241  -33.0562 H   0  0  0  0  0  0  0  0  0  0  0  0
   -2.4499   24.9319  -30.1671 H   0  0  0  0  0  0  0  0  0  0  0  0
   -0.6617   23.8303  -28.8267 H   0  0  0  0  0  0  0  0  0  0  0  0
    1.2511   21.3280  -28.1713 H   0  0  0  0  0  0  0  0  0  0  0  0
    2.1174   19.0503  -28.6829 H   0  0  0  0  0  0  0  0  0  0  0  0
  1  2  1  0
  2  3  1  0
  3  4  2  0
  3  5  1  0
  5  6  2  0
  6  7  1  0
  7  8  2  0
  8  9  1  0
  9 10  1  0
 10 11  2  0
 11 12  1  0
 12 13  2  0
 13 14  1  0
 14 15  2  0
 14 16  2  0
 14 17  1  0
 17 18  2  0
 18 19  1  0
 19 20  2  0
 20 21  1  0
 21 22  1  0
 22 23  1  0
 23 24  2  0
 24 25  1  0
 13 26  1  0
 26 27  2  0
  8 28  1  0
 28 29  2  0
 29  5  1  0
 27 10  1  0
 25 17  1  0
 25 21  2  0
  1 30  1  0
  1 31  1  0
  1 32  1  0
  2 33  1  0
  6 34  1  0
  7 35  1  0
  9 36  1  0
 11 37  1  0
 12 38  1  0
 18 39  1  0
 19 40  1  0
 20 41  1  0
 23 42  1  0
 26 43  1  0
 27 44  1  0
 28 45  1  0
 29 46  1  0
M  END
>  <UniqueID>  (9) 
8

>  <SMILES>  (9) 
CNC(=O)c1ccc(Nc2ccc(S(=O)(=O)c3cccc4scnc34)cc2)cc1

>  <Energy>  (9) 
91.90558420335276

>  <Genealogy>  (9) 
CNC(=O)c1ccc(Nc2ccc(S(=O)(=O)c3cccc4scnc34)cc2)cc1 (3D coordinates assigned)
CNC(=O)c1ccc(Nc2ccc(S(=O)(=O)c3cccc4scnc34)cc2)cc1 (optimized conformer: 91.90558420335276 kcal/mol)

>  <smiles>  (9) 
CNC(=O)c1ccc(Nc2ccc(S(=O)(=O)c3cccc4scnc34)cc2)cc1

>  <score_type>  (9) 
oracle

>  <origin>  (9) 
adgpu

>  <m_score__min__energy>  (9) 
-10.08

>  <m_primary>  (9) 
energy

$$$$
9:0
     RDKit          3D

 48 51  0  0  0  0  0  0  0  0999 V2000
   -4.9980   15.4000  -31.9820 N   0  0  0  0  0  0  0  0  0  0  0  0
   -5.4760   16.5920  -32.1640 C   0  0  0  0  0  0  0  0  0  0  0  0
   -6.4860   17.0760  -31.3990 N   0  0  0  0  0  0  0  0  0  0  0  0
   -6.6340   18.3310  -31.8590 C   0  0  0  0  0  0  0  0  0  0  0  0
   -7.5320   19.2950  -31.4060 C   0  0  0  0  0  0  0  0  0  0  0  0
   -7.5060   20.5630  -32.0210 C   0  0  0  0  0  0  0  0  0  0  0  0
   -8.6650   21.7940  -31.5230 S   0  0  0  0  0  0  0  0  0  0  0  0
   -9.8660   21.6920  -32.4310 O   0  0  0  0  0  0  0  0  0  0  0  0
   -9.1070   21.5410  -30.1030 O   0  0  0  0  0  0  0  0  0  0  0  0
   -8.0120   23.4050  -31.6400 N   0  0  0  0  0  0  0  0  0  0  0  0
   -6.7360   23.8330  -31.1450 C   0  0  0  0  0  0  0  0  0  0  0  0
   -6.6550   25.0720  -30.5010 C   0  0  0  0  0  0  0  0  0  0  0  0
   -5.4280   25.5440  -30.0300 C   0  0  0  0  0  0  0  0  0  0  0  0
   -4.2670   24.7780  -30.1860 C   0  0  0  0  0  0  0  0  0  0  0  0
   -3.0600   25.2950  -29.7220 O   0  0  0  0  0  0  0  0  0  0  0  0
   -4.3330   23.5060  -30.8030 C   0  0  0  0  0  0  0  0  0  0  0  0
   -3.1240   22.6590  -30.9910 C   0  0  0  0  0  0  0  0  0  0  0  0
   -1.9920   23.0410  -30.5870 O   0  0  0  0  0  0  0  0  0  0  0  0
   -3.2220   21.4260  -31.6280 O   0  0  0  0  0  0  0  0  0  0  0  0
   -5.5840   23.0360  -31.2530 C   0  0  0  0  0  0  0  0  0  0  0  0
   -6.5690   20.8310  -33.0490 C   0  0  0  0  0  0  0  0  0  0  0  0
   -5.6700   19.8380  -33.4780 C   0  0  0  0  0  0  0  0  0  0  0  0
   -5.7440   18.5850  -32.8650 C   0  0  0  0  0  0  0  0  0  0  0  0
   -5.0060   17.4800  -33.0860 N   0  0  0  0  0  0  0  0  0  0  0  0
   -3.6950   17.2950  -34.2210 S   0  0  0  0  0  0  0  0  0  0  0  0
   -3.1840   15.8810  -34.2180 O   0  0  0  0  0  0  0  0  0  0  0  0
   -4.1720   17.5940  -35.6170 O   0  0  0  0  0  0  0  0  0  0  0  0
   -2.4060   18.4090  -33.7790 C   0  0  0  0  0  0  0  0  0  0  0  0
   -2.4480   19.7390  -34.2200 C   0  0  0  0  0  0  0  0  0  0  0  0
   -1.4520   20.6390  -33.8300 C   0  0  0  0  0  0  0  0  0  0  0  0
   -0.4200   20.2250  -32.9800 C   0  0  0  0  0  0  0  0  0  0  0  0
   -0.3850   18.9010  -32.4980 C   0  0  0  0  0  0  0  0  0  0  0  0
    0.7300   18.4440  -31.5830 C   0  0  0  0  0  0  0  0  0  0  0  0
    0.1880   17.7230  -30.5270 F   0  0  0  0  0  0  0  0  0  0  0  0
    1.6350   17.6380  -32.2640 F   0  0  0  0  0  0  0  0  0  0  0  0
    1.4180   19.5420  -31.0820 F   0  0  0  0  0  0  0  0  0  0  0  0
   -1.3700   17.9930  -32.9270 C   0  0  0  0  0  0  0  0  0  0  0  0
   -4.2040   15.0060  -32.5270 H   0  0  0  0  0  0  0  0  0  0  0  0
   -8.2395   19.0734  -30.5934 H   0  0  0  0  0  0  0  0  0  0  0  0
   -7.5629   25.6780  -30.3648 H   0  0  0  0  0  0  0  0  0  0  0  0
   -5.3736   26.5240  -29.5333 H   0  0  0  0  0  0  0  0  0  0  0  0
   -5.6590   22.0314  -31.6947 H   0  0  0  0  0  0  0  0  0  0  0  0
   -6.5442   21.8263  -33.5167 H   0  0  0  0  0  0  0  0  0  0  0  0
   -4.9336   20.0412  -34.2694 H   0  0  0  0  0  0  0  0  0  0  0  0
   -3.2661   20.0750  -34.8741 H   0  0  0  0  0  0  0  0  0  0  0  0
   -1.4795   21.6771  -34.1927 H   0  0  0  0  0  0  0  0  0  0  0  0
    0.3668   20.9357  -32.6870 H   0  0  0  0  0  0  0  0  0  0  0  0
   -1.3284   16.9462  -32.5916 H   0  0  0  0  0  0  0  0  0  0  0  0
  1  2  2  3
  2  3  1  0
  3  4  1  0
  4  5  2  0
  5  6  1  0
  6  7  1  0
  7  8  2  0
  7  9  2  0
  7 10  1  0
 10 11  1  0
 11 12  2  0
 12 13  1  0
 13 14  2  0
 14 15  1  0
 14 16  1  0
 16 17  1  0
 17 18  2  0
 17 19  1  0
 16 20  2  0
  6 21  2  0
 21 22  1  0
 22 23  2  0
 23 24  1  0
 24 25  1  0
 25 26  2  0
 25 27  2  0
 25 28  1  0
 28 29  2  0
 29 30  1  0
 30 31  2  0
 31 32  1  0
 32 33  1  0
 33 34  1  0
 33 35  1  0
 33 36  1  0
 32 37  2  0
 24  2  1  0
 37 28  1  0
 23  4  1  0
 20 11  1  0
  1 38  1  0
  5 39  1  0
 12 40  1  0
 13 41  1  0
 20 42  1  0
 21 43  1  0
 22 44  1  0
 29 45  1  0
 30 46  1  0
 31 47  1  0
 37 48  1  0
M  CHG  4   3  -1  10  -1  15  -1  19  -1
M  END
>  <UniqueID>  (10) 
9

>  <SMILES>  (10) 
N=c1[n-]c2cc(S(=O)(=O)[N-]c3ccc([O-])c(C(=O)[O-])c3)ccc2n1S(=O)(=O)c1cccc(C(F)(F)F)c1

>  <Energy>  (10) 
104.56279371761234

>  <Genealogy>  (10) 
N=c1[n-]c2cc(S(=O)(=O)[N-]c3ccc([O-])c(C(=O)[O-])c3)ccc2n1S(=O)(=O)c1cccc(C(F)(F)F)c1 (protonated)
N=c1[n-]c2cc(S(=O)(=O)[N-]c3ccc([O-])c(C(=O)[O-])c3)ccc2n1S(=O)(=O)c1cccc(C(F)(F)F)c1 (3D coordinates assigned)
N=c1[n-]c2cc(S(=O)(=O)[N-]c3ccc([O-])c(C(=O)[O-])c3)ccc2n1S(=O)(=O)c1cccc(C(F)(F)F)c1 (optimized conformer: 104.56279371761234 kcal/mol)

>  <smiles>  (10) 
N=c1[nH]c2cc(S(=O)(=O)Nc3ccc(O)c(C(=O)O)c3)ccc2n1S(=O)(=O)c1cccc(C(F)(F)F)c1

>  <score_type>  (10) 
oracle

>  <origin>  (10) 
adgpu

>  <m_score__min__energy>  (10) 
-13.82

>  <m_primary>  (10) 
energy

$$$$
10:0
     RDKit          3D

 63 66  0  0  0  0  0  0  0  0999 V2000
   -2.7440   15.7740  -34.5830 C   0  0  0  0  0  0  0  0  0  0  0  0
   -4.1430   16.0550  -34.1080 C   0  0  0  0  0  0  0  0  0  0  0  0
   -4.8740   15.0770  -33.7820 O   0  0  0  0  0  0  0  0  0  0  0  0
   -4.6550   17.4020  -33.9840 N   0  0  0  0  0  0  0  0  0  0  0  0
   -3.7810   18.5770  -34.1500 C   0  0  0  0  0  0  0  0  0  0  0  0
   -4.1290   19.6590  -33.1170 C   0  0  0  0  0  0  0  0  0  0  0  0
   -5.5840   19.8500  -32.9910 N   0  0  0  0  0  0  0  0  0  0  0  0
   -6.1060   20.6470  -31.9080 C   0  0  0  0  0  0  0  0  0  0  0  0
   -7.0690   20.2080  -31.2240 O   0  0  0  0  0  0  0  0  0  0  0  0
   -5.5070   21.9550  -31.5560 C   0  0  0  0  0  0  0  0  0  0  0  0
   -6.2610   23.1330  -31.6810 C   0  0  0  0  0  0  0  0  0  0  0  0
   -5.7090   24.3650  -31.3200 C   0  0  0  0  0  0  0  0  0  0  0  0
   -4.3960   24.4380  -30.8430 C   0  0  0  0  0  0  0  0  0  0  0  0
   -3.8640   25.6750  -30.4880 O   0  0  0  0  0  0  0  0  0  0  0  0
   -3.6180   23.2720  -30.7440 C   0  0  0  0  0  0  0  0  0  0  0  0
   -2.2690   23.3470  -30.2610 N   0  0  0  0  0  0  0  0  0  0  0  0
   -1.4120   21.9230  -29.7670 S   0  0  0  0  0  0  0  0  0  0  0  0
   -2.2960   21.0670  -28.9030 O   0  0  0  0  0  0  0  0  0  0  0  0
   -0.1990   22.3240  -28.9730 O   0  0  0  0  0  0  0  0  0  0  0  0
   -0.8890   21.0470  -31.2030 C   0  0  0  0  0  0  0  0  0  0  0  0
    0.0910   20.0470  -31.1210 C   0  0  0  0  0  0  0  0  0  0  0  0
    0.5140   19.3830  -32.2760 C   0  0  0  0  0  0  0  0  0  0  0  0
   -0.0350   19.7180  -33.5250 C   0  0  0  0  0  0  0  0  0  0  0  0
    0.5530   18.9380  -34.9970 S   0  0  0  0  0  0  0  0  0  0  0  0
   -0.5850   18.2020  -35.6510 O   0  0  0  0  0  0  0  0  0  0  0  0
    1.6110   17.9290  -34.6390 O   0  0  0  0  0  0  0  0  0  0  0  0
    1.2250   20.0980  -36.1270 N   0  0  0  0  0  0  0  0  0  0  0  0
    2.3860   20.7830  -35.5490 C   0  0  0  0  0  0  0  0  0  0  0  0
    1.9110   22.1050  -34.9650 C   0  0  0  0  0  0  0  0  0  0  0  0
    0.5850   22.3930  -35.6420 C   0  0  0  0  0  0  0  0  0  0  0  0
    0.2510   21.1490  -36.4570 C   0  0  0  0  0  0  0  0  0  0  0  0
   -1.0330   20.6990  -33.6010 C   0  0  0  0  0  0  0  0  0  0  0  0
   -1.4530   21.3660  -32.4460 C   0  0  0  0  0  0  0  0  0  0  0  0
   -4.1770   22.0360  -31.1120 C   0  0  0  0  0  0  0  0  0  0  0  0
   -6.4950   19.0700  -33.8340 C   0  0  0  0  0  0  0  0  0  0  0  0
   -6.1020   17.5900  -33.7860 C   0  0  0  0  0  0  0  0  0  0  0  0
   -2.0818   15.6410  -33.7148 H   0  0  0  0  0  0  0  0  0  0  0  0
   -2.7403   14.8572  -35.1908 H   0  0  0  0  0  0  0  0  0  0  0  0
   -2.3866   16.6183  -35.1908 H   0  0  0  0  0  0  0  0  0  0  0  0
   -2.7334   18.2706  -34.0138 H   0  0  0  0  0  0  0  0  0  0  0  0
   -3.9284   18.9892  -35.1591 H   0  0  0  0  0  0  0  0  0  0  0  0
   -3.7234   19.3606  -32.1390 H   0  0  0  0  0  0  0  0  0  0  0  0
   -3.6885   20.6083  -33.4559 H   0  0  0  0  0  0  0  0  0  0  0  0
   -7.2908   23.0858  -32.0648 H   0  0  0  0  0  0  0  0  0  0  0  0
   -6.3099   25.2818  -31.4114 H   0  0  0  0  0  0  0  0  0  0  0  0
   -1.6920   24.1800  -30.5070 H   0  0  0  0  0  0  0  0  0  0  0  0
    0.5275   19.7848  -30.1460 H   0  0  0  0  0  0  0  0  0  0  0  0
    1.2791   18.5957  -32.2068 H   0  0  0  0  0  0  0  0  0  0  0  0
    2.8286   20.1624  -34.7559 H   0  0  0  0  0  0  0  0  0  0  0  0
    3.1487   20.9594  -36.3218 H   0  0  0  0  0  0  0  0  0  0  0  0
    1.7763   22.0184  -33.8767 H   0  0  0  0  0  0  0  0  0  0  0  0
    2.6396   22.9115  -35.1343 H   0  0  0  0  0  0  0  0  0  0  0  0
   -0.1960   22.5783  -34.8898 H   0  0  0  0  0  0  0  0  0  0  0  0
    0.6434   23.2882  -36.2785 H   0  0  0  0  0  0  0  0  0  0  0  0
   -0.7640   20.8049  -36.2093 H   0  0  0  0  0  0  0  0  0  0  0  0
    0.2960   21.3798  -37.5316 H   0  0  0  0  0  0  0  0  0  0  0  0
   -1.4873   20.9450  -34.5721 H   0  0  0  0  0  0  0  0  0  0  0  0
   -2.2283   22.1434  -32.5130 H   0  0  0  0  0  0  0  0  0  0  0  0
   -3.5666   21.1229  -31.0516 H   0  0  0  0  0  0  0  0  0  0  0  0
   -7.5248   19.1871  -33.4655 H   0  0  0  0  0  0  0  0  0  0  0  0
   -6.4308   19.4308  -34.8712 H   0  0  0  0  0  0  0  0  0  0  0  0
   -6.3837   17.1784  -32.8056 H   0  0  0  0  0  0  0  0  0  0  0  0
   -6.6290   17.0696  -34.5993 H   0  0  0  0  0  0  0  0  0  0  0  0
  1  2  1  0
  2  3  2  0
  2  4  1  0
  4  5  1  0
  5  6  1  0
  6  7  1  0
  7  8  1  0
  8  9  2  0
  8 10  1  0
 10 11  2  0
 11 12  1  0
 12 13  2  0
 13 14  1  0
 13 15  1  0
 15 16  1  0
 16 17  1  0
 17 18  2  0
 17 19  2  0
 17 20  1  0
 20 21  2  0
 21 22  1  0
 22 23  2  0
 23 24  1  0
 24 25  2  0
 24 26  2  0
 24 27  1  0
 27 28  1  0
 28 29  1  0
 29 30  1  0
 30 31  1  0
 23 32  1  0
 32 33  2  0
 15 34  2  0
  7 35  1  0
 35 36  1  0
 36  4  1  0
 34 10  1  0
 33 20  1  0
 31 27  1  0
  1 37  1  0
  1 38  1  0
  1 39  1  0
  5 40  1  0
  5 41  1  0
  6 42  1  0
  6 43  1  0
 11 44  1  0
 12 45  1  0
 16 46  1  0
 21 47  1  0
 22 48  1  0
 28 49  1  0
 28 50  1  0
 29 51  1  0
 29 52  1  0
 30 53  1  0
 30 54  1  0
 31 55  1  0
 31 56  1  0
 32 57  1  0
 33 58  1  0
 34 59  1  0
 35 60  1  0
 35 61  1  0
 36 62  1  0
 36 63  1  0
M  CHG  1  14  -1
M  END
>  <UniqueID>  (11) 
10

>  <SMILES>  (11) 
CC(=O)N1CCN(C(=O)c2ccc([O-])c(NS(=O)(=O)c3ccc(S(=O)(=O)N4CCCC4)cc3)c2)CC1

>  <Energy>  (11) 
75.44638944301491

>  <Genealogy>  (11) 
CC(=O)N1CCN(C(=O)c2ccc([O-])c(NS(=O)(=O)c3ccc(S(=O)(=O)N4CCCC4)cc3)c2)CC1 (protonated)
CC(=O)N1CCN(C(=O)c2ccc([O-])c(NS(=O)(=O)c3ccc(S(=O)(=O)N4CCCC4)cc3)c2)CC1 (3D coordinates assigned)
CC(=O)N1CCN(C(=O)c2ccc([O-])c(NS(=O)(=O)c3ccc(S(=O)(=O)N4CCCC4)cc3)c2)CC1 (nonaromatic ring conformer: 75.44638944301491 kcal/mol)

>  <smiles>  (11) 
CC(=O)N1CCN(C(=O)c2ccc(O)c(NS(=O)(=O)c3ccc(S(=O)(=O)N4CCCC4)cc3)c2)CC1

>  <score_type>  (11) 
oracle

>  <origin>  (11) 
adgpu

>  <m_score__min__energy>  (11) 
-14.970000000000001

>  <m_primary>  (11) 
energy

$$$$
11:0
     RDKit          3D

 57 60  0  0  0  0  0  0  0  0999 V2000
    0.1760   19.6180  -27.8650 C   0  0  0  0  0  0  0  0  0  0  0  0
   -0.6540   20.1720  -26.7780 N   0  0  0  0  0  0  0  0  0  0  0  0
   -2.0590   19.7290  -26.8450 C   0  0  0  0  0  0  0  0  0  0  0  0
   -2.7780   20.2460  -28.1010 C   0  0  0  0  0  0  0  0  0  0  0  0
   -2.4670   21.6920  -28.3890 C   0  0  0  0  0  0  0  0  0  0  0  0
   -3.2420   22.3800  -29.3350 C   0  0  0  0  0  0  0  0  0  0  0  0
   -2.9570   23.7160  -29.6600 C   0  0  0  0  0  0  0  0  0  0  0  0
   -3.7310   24.4410  -30.6280 N   0  0  0  0  0  0  0  0  0  0  0  0
   -5.4310   24.7660  -30.5110 S   0  0  0  0  0  0  0  0  0  0  0  0
   -5.7390   26.0560  -31.2190 O   0  0  0  0  0  0  0  0  0  0  0  0
   -5.8190   24.9070  -29.0630 O   0  0  0  0  0  0  0  0  0  0  0  0
   -6.3290   23.4650  -31.2850 C   0  0  0  0  0  0  0  0  0  0  0  0
   -7.7270   23.4300  -31.2370 C   0  0  0  0  0  0  0  0  0  0  0  0
   -8.4230   22.3570  -31.8030 C   0  0  0  0  0  0  0  0  0  0  0  0
   -7.7320   21.3130  -32.4280 C   0  0  0  0  0  0  0  0  0  0  0  0
   -8.4760   20.2510  -32.9440 O   0  0  0  0  0  0  0  0  0  0  0  0
   -6.3210   21.3610  -32.5120 C   0  0  0  0  0  0  0  0  0  0  0  0
   -5.4000   20.0930  -33.3290 S   0  0  0  0  0  0  0  0  0  0  0  0
   -4.0770   20.6390  -33.8040 O   0  0  0  0  0  0  0  0  0  0  0  0
   -6.1790   19.6270  -34.5300 O   0  0  0  0  0  0  0  0  0  0  0  0
   -5.1350   18.7730  -32.2050 N   0  0  0  0  0  0  0  0  0  0  0  0
   -4.3290   17.6850  -32.8150 C   0  0  0  0  0  0  0  0  0  0  0  0
   -5.0800   16.3450  -32.9470 C   0  0  0  0  0  0  0  0  0  0  0  0
   -6.5060   16.5680  -33.4540 C   0  0  0  0  0  0  0  0  0  0  0  0
   -7.2940   17.5410  -32.5590 C   0  0  0  0  0  0  0  0  0  0  0  0
   -6.3960   18.3260  -31.5820 C   0  0  0  0  0  0  0  0  0  0  0  0
   -5.6340   22.4350  -31.9260 C   0  0  0  0  0  0  0  0  0  0  0  0
   -1.8800   24.3550  -29.0360 C   0  0  0  0  0  0  0  0  0  0  0  0
   -1.5780   25.6820  -29.3410 O   0  0  0  0  0  0  0  0  0  0  0  0
   -1.0970   23.6690  -28.1040 C   0  0  0  0  0  0  0  0  0  0  0  0
   -1.3750   22.3350  -27.7800 C   0  0  0  0  0  0  0  0  0  0  0  0
   -0.5610   21.6430  -26.7100 C   0  0  0  0  0  0  0  0  0  0  0  0
    1.0177   19.0562  -27.4337 H   0  0  0  0  0  0  0  0  0  0  0  0
   -0.4341   18.9454  -28.4858 H   0  0  0  0  0  0  0  0  0  0  0  0
    0.5631   20.4394  -28.4858 H   0  0  0  0  0  0  0  0  0  0  0  0
   -2.0825   18.6293  -26.8522 H   0  0  0  0  0  0  0  0  0  0  0  0
   -2.5814   20.1381  -25.9677 H   0  0  0  0  0  0  0  0  0  0  0  0
   -2.4634   19.6390  -28.9627 H   0  0  0  0  0  0  0  0  0  0  0  0
   -3.8606   20.1655  -27.9237 H   0  0  0  0  0  0  0  0  0  0  0  0
   -4.0816   21.8674  -29.8272 H   0  0  0  0  0  0  0  0  0  0  0  0
   -8.2800   24.2484  -30.7529 H   0  0  0  0  0  0  0  0  0  0  0  0
   -9.5218   22.3336  -31.7565 H   0  0  0  0  0  0  0  0  0  0  0  0
   -8.2480   19.7700  -33.8030 H   0  0  0  0  0  0  0  0  0  0  0  0
   -4.0176   18.0071  -33.8196 H   0  0  0  0  0  0  0  0  0  0  0  0
   -3.4763   17.5065  -32.1434 H   0  0  0  0  0  0  0  0  0  0  0  0
   -4.5422   15.6987  -33.6563 H   0  0  0  0  0  0  0  0  0  0  0  0
   -5.1288   15.8696  -31.9563 H   0  0  0  0  0  0  0  0  0  0  0  0
   -6.4596   16.9814  -34.4723 H   0  0  0  0  0  0  0  0  0  0  0  0
   -7.0257   15.5986  -33.4396 H   0  0  0  0  0  0  0  0  0  0  0  0
   -7.8223   18.2593  -33.2031 H   0  0  0  0  0  0  0  0  0  0  0  0
   -7.9898   16.9405  -31.9547 H   0  0  0  0  0  0  0  0  0  0  0  0
   -6.9475   19.2100  -31.2293 H   0  0  0  0  0  0  0  0  0  0  0  0
   -6.1371   17.6518  -30.7523 H   0  0  0  0  0  0  0  0  0  0  0  0
   -4.5354   22.4670  -31.9715 H   0  0  0  0  0  0  0  0  0  0  0  0
   -0.2532   24.1821  -27.6195 H   0  0  0  0  0  0  0  0  0  0  0  0
    0.4933   21.9337  -26.8283 H   0  0  0  0  0  0  0  0  0  0  0  0
   -0.9651   21.9542  -25.7354 H   0  0  0  0  0  0  0  0  0  0  0  0
  1  2  1  0
  2  3  1  0
  3  4  1  0
  4  5  1  0
  5  6  2  0
  6  7  1  0
  7  8  1  0
  8  9  1  0
  9 10  2  0
  9 11  2  0
  9 12  1  0
 12 13  2  0
 13 14  1  0
 14 15  2  0
 15 16  1  0
 15 17  1  0
 17 18  1  0
 18 19  2  0
 18 20  2  0
 18 21  1  0
 21 22  1  0
 22 23  1  0
 23 24  1  0
 24 25  1  0
 25 26  1  0
 17 27  2  0
  7 28  2  0
 28 29  1  0
 28 30  1  0
 30 31  2  0
 31 32  1  0
 32  2  1  0
 31  5  1  0
 27 12  1  0
 26 21  1  0
  1 33  1  0
  1 34  1  0
  1 35  1  0
  3 36  1  0
  3 37  1  0
  4 38  1  0
  4 39  1  0
  6 40  1  0
 13 41  1  0
 14 42  1  0
 16 43  1  0
 22 44  1  0
 22 45  1  0
 23 46  1  0
 23 47  1  0
 24 48  1  0
 24 49  1  0
 25 50  1  0
 25 51  1  0
 26 52  1  0
 26 53  1  0
 27 54  1  0
 30 55  1  0
 32 56  1  0
 32 57  1  0
M  CHG  2   8  -1  29  -1
M  END
>  <UniqueID>  (12) 
11

>  <SMILES>  (12) 
CN1CCc2cc([N-]S(=O)(=O)c3ccc(O)c(S(=O)(=O)N4CCCCC4)c3)c([O-])cc2C1

>  <Energy>  (12) 
75.84525066298632

>  <Genealogy>  (12) 
CN1CCc2cc([N-]S(=O)(=O)c3ccc(O)c(S(=O)(=O)N4CCCCC4)c3)c([O-])cc2C1 (protonated)
CN1CCc2cc([N-]S(=O)(=O)c3ccc(O)c(S(=O)(=O)N4CCCCC4)c3)c([O-])cc2C1 (3D coordinates assigned)
CN1CCc2cc([N-]S(=O)(=O)c3ccc(O)c(S(=O)(=O)N4CCCCC4)c3)c([O-])cc2C1 (nonaromatic ring conformer: 75.84525066298632 kcal/mol)

>  <smiles>  (12) 
CN1CCc2cc(NS(=O)(=O)c3ccc(O)c(S(=O)(=O)N4CCCCC4)c3)c(O)cc2C1

>  <score_type>  (12) 
oracle

>  <origin>  (12) 
adgpu

>  <m_score__min__energy>  (12) 
-15.34

>  <m_primary>  (12) 
energy

$$$$
12:0
     RDKit          3D

 68 72  0  0  0  0  0  0  0  0999 V2000
   -8.0980   21.5950  -31.9100 C   0  0  0  0  0  0  0  0  0  0  0  0
   -6.9450   22.4920  -31.5680 C   0  0  0  0  0  0  0  0  0  0  0  0
   -5.6490   22.1820  -32.0020 C   0  0  0  0  0  0  0  0  0  0  0  0
   -4.5760   23.0020  -31.6480 C   0  0  0  0  0  0  0  0  0  0  0  0
   -4.7760   24.1300  -30.8450 C   0  0  0  0  0  0  0  0  0  0  0  0
   -3.6440   24.9380  -30.5100 N   0  0  0  0  0  0  0  0  0  0  0  0
   -2.9750   24.8930  -29.2450 C   0  0  0  0  0  0  0  0  0  0  0  0
   -1.7730   25.2590  -29.1470 O   0  0  0  0  0  0  0  0  0  0  0  0
   -3.6930   24.3980  -28.0240 C   0  0  0  0  0  0  0  0  0  0  0  0
   -2.7690   23.7200  -27.0900 N   0  0  0  0  0  0  0  0  0  0  0  0
   -1.8990   24.5230  -26.2630 C   0  0  0  0  0  0  0  0  0  0  0  0
   -2.3470   25.6740  -25.5860 C   0  0  0  0  0  0  0  0  0  0  0  0
   -1.4430   26.4480  -24.8480 C   0  0  0  0  0  0  0  0  0  0  0  0
   -0.0980   26.0760  -24.7750 C   0  0  0  0  0  0  0  0  0  0  0  0
    0.3440   24.9180  -25.4210 C   0  0  0  0  0  0  0  0  0  0  0  0
   -0.5590   24.1370  -26.1490 C   0  0  0  0  0  0  0  0  0  0  0  0
   -0.1230   22.9260  -26.7720 N   0  0  0  0  0  0  0  0  0  0  0  0
   -0.9440   22.0530  -27.2810 C   0  0  0  0  0  0  0  0  0  0  0  0
   -0.3600   20.7950  -27.7920 C   0  0  0  0  0  0  0  0  0  0  0  0
   -0.8030   19.5630  -27.2870 C   0  0  0  0  0  0  0  0  0  0  0  0
   -0.2740   18.3670  -27.7760 C   0  0  0  0  0  0  0  0  0  0  0  0
    0.6980   18.3840  -28.7840 C   0  0  0  0  0  0  0  0  0  0  0  0
    1.3770   16.8720  -29.4000 S   0  0  0  0  0  0  0  0  0  0  0  0
    2.2950   17.1810  -30.5500 O   0  0  0  0  0  0  0  0  0  0  0  0
    0.2590   16.0100  -29.9170 O   0  0  0  0  0  0  0  0  0  0  0  0
    2.2700   15.9860  -28.1880 N   0  0  0  0  0  0  0  0  0  0  0  0
    1.3950   15.1560  -27.3640 C   0  0  0  0  0  0  0  0  0  0  0  0
    2.1140   14.9590  -26.0370 C   0  0  0  0  0  0  0  0  0  0  0  0
    3.1490   16.0730  -25.9700 C   0  0  0  0  0  0  0  0  0  0  0  0
    2.9640   16.8700  -27.2520 C   0  0  0  0  0  0  0  0  0  0  0  0
    1.1160   19.6120  -29.3170 C   0  0  0  0  0  0  0  0  0  0  0  0
    0.5840   20.8100  -28.8320 C   0  0  0  0  0  0  0  0  0  0  0  0
   -2.4590   22.2650  -27.1610 C   0  0  2  0  0  0  0  0  0  0  0  0
   -3.2350   21.5280  -28.2760 C   0  0  0  0  0  0  0  0  0  0  0  0
   -6.0850   24.4690  -30.4300 C   0  0  0  0  0  0  0  0  0  0  0  0
   -6.3610   25.7060  -29.6160 C   0  0  0  0  0  0  0  0  0  0  0  0
   -7.1550   23.6260  -30.7730 C   0  0  0  0  0  0  0  0  0  0  0  0
   -8.5664   21.2306  -30.9838 H   0  0  0  0  0  0  0  0  0  0  0  0
   -8.8380   22.1572  -32.4985 H   0  0  0  0  0  0  0  0  0  0  0  0
   -7.7350   20.7395  -32.4985 H   0  0  0  0  0  0  0  0  0  0  0  0
   -5.4768   21.2905  -32.6230 H   0  0  0  0  0  0  0  0  0  0  0  0
   -3.5639   22.7589  -32.0038 H   0  0  0  0  0  0  0  0  0  0  0  0
   -4.1565   25.2533  -27.5105 H   0  0  0  0  0  0  0  0  0  0  0  0
   -4.4559   23.6724  -28.3425 H   0  0  0  0  0  0  0  0  0  0  0  0
   -3.4066   25.9648  -25.6370 H   0  0  0  0  0  0  0  0  0  0  0  0
   -1.7922   27.3504  -24.3248 H   0  0  0  0  0  0  0  0  0  0  0  0
    0.6134   26.6950  -24.2087 H   0  0  0  0  0  0  0  0  0  0  0  0
    1.4013   24.6213  -25.3568 H   0  0  0  0  0  0  0  0  0  0  0  0
   -1.5720   19.5394  -26.5008 H   0  0  0  0  0  0  0  0  0  0  0  0
   -0.6224   17.4069  -27.3676 H   0  0  0  0  0  0  0  0  0  0  0  0
    0.4315   15.6619  -27.2032 H   0  0  0  0  0  0  0  0  0  0  0  0
    1.1853   14.1921  -27.8508 H   0  0  0  0  0  0  0  0  0  0  0  0
    1.4056   15.0407  -25.1994 H   0  0  0  0  0  0  0  0  0  0  0  0
    2.5780   13.9642  -25.9664 H   0  0  0  0  0  0  0  0  0  0  0  0
    2.9726   16.7105  -25.0911 H   0  0  0  0  0  0  0  0  0  0  0  0
    4.1714   15.6780  -25.8765 H   0  0  0  0  0  0  0  0  0  0  0  0
    2.3603   17.7688  -27.0580 H   0  0  0  0  0  0  0  0  0  0  0  0
    3.9302   17.2036  -27.6585 H   0  0  0  0  0  0  0  0  0  0  0  0
    1.8665   19.6324  -30.1210 H   0  0  0  0  0  0  0  0  0  0  0  0
    0.9057   21.7681  -29.2663 H   0  0  0  0  0  0  0  0  0  0  0  0
   -2.8056   21.8123  -26.2203 H   0  0  0  0  0  0  0  0  0  0  0  0
   -3.9616   20.8379  -27.8224 H   0  0  0  0  0  0  0  0  0  0  0  0
   -3.7664   22.2620  -28.8996 H   0  0  0  0  0  0  0  0  0  0  0  0
   -2.5293   20.9595  -28.8996 H   0  0  0  0  0  0  0  0  0  0  0  0
   -6.3061   25.4601  -28.5452 H   0  0  0  0  0  0  0  0  0  0  0  0
   -5.6126   26.4762  -29.8542 H   0  0  0  0  0  0  0  0  0  0  0  0
   -7.3658   26.0850  -29.8542 H   0  0  0  0  0  0  0  0  0  0  0  0
   -8.1682   23.8588  -30.4136 H   0  0  0  0  0  0  0  0  0  0  0  0
  1  2  1  0
  2  3  2  0
  3  4  1  0
  4  5  2  0
  5  6  1  0
  6  7  1  0
  7  8  2  0
  7  9  1  0
  9 10  1  0
 10 11  1  0
 11 12  2  0
 12 13  1  0
 13 14  2  0
 14 15  1  0
 15 16  2  0
 16 17  1  0
 17 18  2  0
 18 19  1  0
 19 20  2  0
 20 21  1  0
 21 22  2  0
 22 23  1  0
 23 24  2  0
 23 25  2  0
 23 26  1  0
 26 27  1  0
 27 28  1  0
 28 29  1  0
 29 30  1  0
 22 31  1  0
 31 32  2  0
 18 33  1  0
 33 34  1  0
  5 35  1  0
 35 36  1  0
 35 37  2  0
 37  2  1  0
 33 10  1  0
 16 11  1  0
 32 19  1  0
 30 26  1  0
  1 38  1  0
  1 39  1  0
  1 40  1  0
  3 41  1  0
  4 42  1  0
  9 43  1  0
  9 44  1  0
 12 45  1  0
 13 46  1  0
 14 47  1  0
 15 48  1  0
 20 49  1  0
 21 50  1  0
 27 51  1  0
 27 52  1  0
 28 53  1  0
 28 54  1  0
 29 55  1  0
 29 56  1  0
 30 57  1  0
 30 58  1  0
 31 59  1  0
 32 60  1  0
 33 61  1  1
 34 62  1  0
 34 63  1  0
 34 64  1  0
 36 65  1  0
 36 66  1  0
 36 67  1  0
 37 68  1  0
M  CHG  1   6  -1
M  END
>  <UniqueID>  (13) 
12

>  <SMILES>  (13) 
Cc1ccc([N-]C(=O)CN2c3ccccc3N=C(c3ccc(S(=O)(=O)N4CCCC4)cc3)[C@@H]2C)c(C)c1

>  <Energy>  (13) 
92.41069311818937

>  <Genealogy>  (13) 
Cc1ccc([N-]C(=O)CN2c3ccccc3N=C(c3ccc(S(=O)(=O)N4CCCC4)cc3)C2C)c(C)c1 (protonated)
Cc1ccc([N-]C(=O)CN2c3ccccc3N=C(c3ccc(S(=O)(=O)N4CCCC4)cc3)[C@@H]2C)c(C)c1 (chirality)
Cc1ccc([N-]C(=O)CN2c3ccccc3N=C(c3ccc(S(=O)(=O)N4CCCC4)cc3)[C@@H]2C)c(C)c1 (3D coordinates assigned)
Cc1ccc([N-]C(=O)CN2c3ccccc3N=C(c3ccc(S(=O)(=O)N4CCCC4)cc3)[C@@H]2C)c(C)c1 (nonaromatic ring conformer: 92.41069311818937 kcal/mol)

>  <smiles>  (13) 
Cc1ccc(NC(=O)CN2c3ccccc3N=C(c3ccc(S(=O)(=O)N4CCCC4)cc3)C2C)c(C)c1

>  <score_type>  (13) 
oracle

>  <origin>  (13) 
adgpu

>  <m_score__min__energy>  (13) 
-11.609999999999999

>  <m_primary>  (13) 
energy

$$$$
13:0
     RDKit          3D

 46 48  0  0  0  0  0  0  0  0999 V2000
   -3.4510   25.6310  -31.5920 H   0  0  0  0  0  0  0  0  0  0  0  0
   -3.8850   25.6330  -30.6770 O   0  0  0  0  0  0  0  0  0  0  0  0
   -3.8150   24.5270  -29.8300 C   0  0  0  0  0  0  0  0  0  0  0  0
   -2.5760   24.1100  -29.3250 C   0  0  0  0  0  0  0  0  0  0  0  0
   -1.6683   24.6754  -29.5825 H   0  0  0  0  0  0  0  0  0  0  0  0
   -2.4750   22.9770  -28.4920 C   0  0  0  0  0  0  0  0  0  0  0  0
   -1.1910   22.5500  -27.9670 N   0  0  0  0  0  0  0  0  0  0  0  0
   -0.9260   21.1300  -27.7010 C   0  0  0  0  0  0  0  0  0  0  0  0
   -0.8943   20.9601  -26.6147 H   0  0  0  0  0  0  0  0  0  0  0  0
   -1.7255   20.5184  -28.1446 H   0  0  0  0  0  0  0  0  0  0  0  0
    0.0403   20.8480  -28.1446 H   0  0  0  0  0  0  0  0  0  0  0  0
   -0.1330   23.5300  -27.6940 C   0  0  0  0  0  0  0  0  0  0  0  0
   -0.0102   23.6437  -26.6068 H   0  0  0  0  0  0  0  0  0  0  0  0
    0.8124   23.1815  -28.1353 H   0  0  0  0  0  0  0  0  0  0  0  0
   -0.4083   24.4993  -28.1353 H   0  0  0  0  0  0  0  0  0  0  0  0
   -3.6530   22.2660  -28.1870 C   0  0  0  0  0  0  0  0  0  0  0  0
   -3.5981   21.3730  -27.5471 H   0  0  0  0  0  0  0  0  0  0  0  0
   -4.8890   22.6810  -28.6870 C   0  0  0  0  0  0  0  0  0  0  0  0
   -5.7956   22.1067  -28.4457 H   0  0  0  0  0  0  0  0  0  0  0  0
   -4.9840   23.8220  -29.4930 C   0  0  0  0  0  0  0  0  0  0  0  0
   -6.3120   24.2550  -29.9950 C   0  0  0  0  0  0  0  0  0  0  0  0
   -7.0030   23.5550  -30.8530 N   0  0  0  0  0  0  0  0  0  0  0  0
   -6.5880   22.3600  -31.5330 C   0  0  0  0  0  0  0  0  0  0  0  0
   -5.3840   22.3110  -32.2790 C   0  0  0  0  0  0  0  0  0  0  0  0
   -4.7368   23.1990  -32.3309 H   0  0  0  0  0  0  0  0  0  0  0  0
   -5.0120   21.1370  -32.9520 C   0  0  0  0  0  0  0  0  0  0  0  0
   -4.0712   21.0888  -33.5199 H   0  0  0  0  0  0  0  0  0  0  0  0
   -5.8610   20.0330  -32.8850 C   0  0  0  0  0  0  0  0  0  0  0  0
   -7.0390   20.0860  -32.1950 C   0  0  0  0  0  0  0  0  0  0  0  0
   -7.4380   21.2400  -31.5170 C   0  0  0  0  0  0  0  0  0  0  0  0
   -8.3981   21.2721  -30.9811 H   0  0  0  0  0  0  0  0  0  0  0  0
   -7.7390   18.8610  -32.2860 N   0  0  0  0  0  0  0  0  0  0  0  0
   -9.0160   18.5570  -31.6500 C   0  0  0  0  0  0  0  0  0  0  0  0
   -8.8971   18.5853  -30.5568 H   0  0  0  0  0  0  0  0  0  0  0  0
   -9.7650   19.3019  -31.9568 H   0  0  0  0  0  0  0  0  0  0  0  0
   -9.3490   17.5545  -31.9568 H   0  0  0  0  0  0  0  0  0  0  0  0
   -6.9610   17.9260  -33.0960 C   0  0  0  0  0  0  0  0  0  0  0  0
   -6.6923   17.0383  -32.5045 H   0  0  0  0  0  0  0  0  0  0  0  0
   -7.5315   17.5735  -33.9679 H   0  0  0  0  0  0  0  0  0  0  0  0
   -5.6860   18.6970  -33.5220 C   0  0  0  0  0  0  0  0  0  0  0  0
   -4.7804   18.1977  -33.1470 H   0  0  0  0  0  0  0  0  0  0  0  0
   -5.5637   18.7545  -34.6137 H   0  0  0  0  0  0  0  0  0  0  0  0
   -6.8820   25.5510  -29.5060 C   0  0  0  0  0  0  0  0  0  0  0  0
   -6.8852   25.5583  -28.4060 H   0  0  0  0  0  0  0  0  0  0  0  0
   -6.2675   26.3848  -29.8764 H   0  0  0  0  0  0  0  0  0  0  0  0
   -7.9118   25.6616  -29.8764 H   0  0  0  0  0  0  0  0  0  0  0  0
  1  2  1  0
  2  3  1  0
  3  4  2  0
  4  5  1  0
  4  6  1  0
  6  7  1  0
  7  8  1  0
  8  9  1  0
  8 10  1  0
  8 11  1  0
  7 12  1  0
 12 13  1  0
 12 14  1  0
 12 15  1  0
  6 16  2  0
 16 17  1  0
 16 18  1  0
 18 19  1  0
 18 20  2  0
 20 21  1  0
 21 22  2  0
 22 23  1  0
 23 24  2  0
 24 25  1  0
 24 26  1  0
 26 27  1  0
 26 28  2  0
 28 29  1  0
 29 30  2  0
 30 31  1  0
 29 32  1  0
 32 33  1  0
 33 34  1  0
 33 35  1  0
 33 36  1  0
 32 37  1  0
 37 38  1  0
 37 39  1  0
 37 40  1  0
 40 41  1  0
 40 42  1  0
 21 43  1  0
 43 44  1  0
 43 45  1  0
 43 46  1  0
 20  3  1  0
 30 23  1  0
 40 28  1  0
M  END
>  <UniqueID>  (14) 
13

>  <SMILES>  (14) 
C/C(=N/c1ccc2c(c1)N(C)CC2)c1ccc(N(C)C)cc1O

>  <Energy>  (14) 
71.18730823160023

>  <Genealogy>  (14) 
C/C(=N/c1ccc2c(c1)N(C)CC2)c1ccc(N(C)C)cc1O (cis-trans isomerization)
C/C(=N/c1ccc2c(c1)N(C)CC2)c1ccc(N(C)C)cc1O (3D coordinates assigned)
C/C(=N/c1ccc2c(c1)N(C)CC2)c1ccc(N(C)C)cc1O (nonaromatic ring conformer: 71.18730823160023 kcal/mol)

>  <smiles>  (14) 
CC(=Nc1ccc2c(c1)N(C)CC2)c1ccc(N(C)C)cc1O

>  <score_type>  (14) 
oracle

>  <origin>  (14) 
adgpu

>  <m_score__min__energy>  (14) 
-9.3699999999999992

>  <m_primary>  (14) 
energy

$$$$
14:0
     RDKit          3D

 50 53  0  0  0  0  0  0  0  0999 V2000
   -9.3620   21.4570  -31.9660 C   0  0  0  0  0  0  0  0  0  0  0  0
   -8.2740   20.4970  -32.1330 N   0  0  0  0  0  0  0  0  0  0  0  0
   -8.3690   19.1530  -32.2820 C   0  0  0  0  0  0  0  0  0  0  0  0
   -9.4680   18.5360  -32.3540 O   0  0  0  0  0  0  0  0  0  0  0  0
   -7.1610   18.5380  -32.3240 N   0  0  0  0  0  0  0  0  0  0  0  0
   -6.8880   17.1050  -32.3940 C   0  0  0  0  0  0  0  0  0  0  0  0
   -6.2760   19.5410  -32.1560 C   0  0  0  0  0  0  0  0  0  0  0  0
   -4.8890   19.4730  -32.0660 C   0  0  0  0  0  0  0  0  0  0  0  0
   -4.1700   20.6700  -31.8570 C   0  0  0  0  0  0  0  0  0  0  0  0
   -2.4060   20.5780  -31.7470 S   0  0  0  0  0  0  0  0  0  0  0  0
   -1.9190   19.4170  -32.5700 O   0  0  0  0  0  0  0  0  0  0  0  0
   -1.7790   21.8330  -32.2890 O   0  0  0  0  0  0  0  0  0  0  0  0
   -1.9360   20.3970  -30.0600 C   0  0  0  0  0  0  0  0  0  0  0  0
   -2.8670   20.6020  -29.0290 C   0  0  0  0  0  0  0  0  0  0  0  0
   -2.4740   20.4690  -27.6940 C   0  0  0  0  0  0  0  0  0  0  0  0
   -1.1540   20.1280  -27.3820 C   0  0  0  0  0  0  0  0  0  0  0  0
   -0.2250   19.9170  -28.4050 C   0  0  0  0  0  0  0  0  0  0  0  0
   -0.6150   20.0500  -29.7410 C   0  0  0  0  0  0  0  0  0  0  0  0
   -4.8700   21.9170  -31.7400 C   0  0  0  0  0  0  0  0  0  0  0  0
   -4.1470   23.1530  -31.5670 N   0  0  0  0  0  0  0  0  0  0  0  0
   -4.4500   24.2760  -30.2810 S   0  0  0  0  0  0  0  0  0  0  0  0
   -5.7860   23.9760  -29.6620 O   0  0  0  0  0  0  0  0  0  0  0  0
   -4.4830   25.6710  -30.8410 O   0  0  0  0  0  0  0  0  0  0  0  0
   -3.2000   24.1200  -29.0540 C   0  0  0  0  0  0  0  0  0  0  0  0
   -1.8930   23.7880  -29.4330 C   0  0  0  0  0  0  0  0  0  0  0  0
   -0.8870   23.6820  -28.4680 C   0  0  0  0  0  0  0  0  0  0  0  0
   -1.1820   23.9100  -27.1210 C   0  0  0  0  0  0  0  0  0  0  0  0
   -2.4840   24.2420  -26.7370 C   0  0  0  0  0  0  0  0  0  0  0  0
   -3.4930   24.3450  -27.7000 C   0  0  0  0  0  0  0  0  0  0  0  0
   -6.2850   21.9280  -31.8230 C   0  0  0  0  0  0  0  0  0  0  0  0
   -6.9470   20.7230  -32.0380 C   0  0  0  0  0  0  0  0  0  0  0  0
   -9.5462   21.6195  -30.8938 H   0  0  0  0  0  0  0  0  0  0  0  0
   -9.0854   22.4107  -32.4392 H   0  0  0  0  0  0  0  0  0  0  0  0
  -10.2738   21.0638  -32.4392 H   0  0  0  0  0  0  0  0  0  0  0  0
   -6.8102   16.6964  -31.3757 H   0  0  0  0  0  0  0  0  0  0  0  0
   -7.7064   16.6016  -32.9295 H   0  0  0  0  0  0  0  0  0  0  0  0
   -5.9418   16.9377  -32.9295 H   0  0  0  0  0  0  0  0  0  0  0  0
   -4.3654   18.5098  -32.1555 H   0  0  0  0  0  0  0  0  0  0  0  0
   -3.9065   20.8675  -29.2720 H   0  0  0  0  0  0  0  0  0  0  0  0
   -3.2041   20.6328  -26.8877 H   0  0  0  0  0  0  0  0  0  0  0  0
   -0.8466   20.0258  -26.3308 H   0  0  0  0  0  0  0  0  0  0  0  0
    0.8124   19.6464  -28.1590 H   0  0  0  0  0  0  0  0  0  0  0  0
    0.1168   19.8819  -30.5449 H   0  0  0  0  0  0  0  0  0  0  0  0
   -3.3990   23.4260  -32.2390 H   0  0  0  0  0  0  0  0  0  0  0  0
   -1.6575   23.6102  -30.4927 H   0  0  0  0  0  0  0  0  0  0  0  0
    0.1377   23.4189  -28.7692 H   0  0  0  0  0  0  0  0  0  0  0  0
   -0.3891   23.8281  -26.3629 H   0  0  0  0  0  0  0  0  0  0  0  0
   -2.7154   24.4224  -25.6769 H   0  0  0  0  0  0  0  0  0  0  0  0
   -4.5181   24.6028  -27.3956 H   0  0  0  0  0  0  0  0  0  0  0  0
   -6.8471   22.8679  -31.7198 H   0  0  0  0  0  0  0  0  0  0  0  0
  1  2  1  0
  2  3  1  0
  3  4  2  0
  3  5  1  0
  5  6  1  0
  5  7  1  0
  7  8  2  0
  8  9  1  0
  9 10  1  0
 10 11  2  0
 10 12  2  0
 10 13  1  0
 13 14  2  0
 14 15  1  0
 15 16  2  0
 16 17  1  0
 17 18  2  0
  9 19  2  0
 19 20  1  0
 20 21  1  0
 21 22  2  0
 21 23  2  0
 21 24  1  0
 24 25  2  0
 25 26  1  0
 26 27  2  0
 27 28  1  0
 28 29  2  0
 19 30  1  0
 30 31  2  0
 31  2  1  0
 31  7  1  0
 18 13  1  0
 29 24  1  0
  1 32  1  0
  1 33  1  0
  1 34  1  0
  6 35  1  0
  6 36  1  0
  6 37  1  0
  8 38  1  0
 14 39  1  0
 15 40  1  0
 16 41  1  0
 17 42  1  0
 18 43  1  0
 20 44  1  0
 25 45  1  0
 26 46  1  0
 27 47  1  0
 28 48  1  0
 29 49  1  0
 30 50  1  0
M  END
>  <UniqueID>  (15) 
14

>  <SMILES>  (15) 
Cn1c(=O)n(C)c2cc(S(=O)(=O)c3ccccc3)c(NS(=O)(=O)c3ccccc3)cc21

>  <Energy>  (15) 
101.01306770907412

>  <Genealogy>  (15) 
Cn1c(=O)n(C)c2cc(S(=O)(=O)c3ccccc3)c(NS(=O)(=O)c3ccccc3)cc21 (3D coordinates assigned)
Cn1c(=O)n(C)c2cc(S(=O)(=O)c3ccccc3)c(NS(=O)(=O)c3ccccc3)cc21 (optimized conformer: 101.01306770907412 kcal/mol)

>  <smiles>  (15) 
Cn1c(=O)n(C)c2cc(S(=O)(=O)c3ccccc3)c(NS(=O)(=O)c3ccccc3)cc21

>  <score_type>  (15) 
oracle

>  <origin>  (15) 
adgpu

>  <m_score__min__energy>  (15) 
-10.18

>  <m_primary>  (15) 
energy

$$$$
15:0
     RDKit          3D

 42 44  0  0  0  0  0  0  0  0999 V2000
   -4.5420   24.9880  -31.1360 O   0  0  0  0  0  0  0  0  0  0  0  0
   -5.5750   24.5500  -30.1370 S   0  0  0  0  0  0  0  0  0  0  0  0
   -6.5760   25.6570  -29.9510 O   0  0  0  0  0  0  0  0  0  0  0  0
   -4.7980   24.2270  -28.6210 N   0  0  0  0  0  0  0  0  0  0  0  0
   -3.6420   23.3980  -28.4410 C   0  0  0  0  0  0  0  0  0  0  0  0
   -3.7330   22.1010  -27.8990 C   0  0  0  0  0  0  0  0  0  0  0  0
   -2.5840   21.3200  -27.7450 C   0  0  0  0  0  0  0  0  0  0  0  0
   -2.7070   19.7060  -27.0710 Cl  0  0  0  0  0  0  0  0  0  0  0  0
   -1.3380   21.8250  -28.1240 C   0  0  0  0  0  0  0  0  0  0  0  0
   -1.2380   23.1110  -28.6590 C   0  0  0  0  0  0  0  0  0  0  0  0
   -2.3860   23.8990  -28.8180 C   0  0  0  0  0  0  0  0  0  0  0  0
   -2.2860   25.1830  -29.3510 O   0  0  0  0  0  0  0  0  0  0  0  0
   -6.3620   23.0920  -30.7340 C   0  0  0  0  0  0  0  0  0  0  0  0
   -7.7330   23.0910  -31.0220 C   0  0  0  0  0  0  0  0  0  0  0  0
   -8.3530   21.9250  -31.4830 C   0  0  0  0  0  0  0  0  0  0  0  0
   -7.6070   20.7520  -31.6580 C   0  0  0  0  0  0  0  0  0  0  0  0
   -8.3910   19.2980  -32.2670 S   0  0  0  0  0  0  0  0  0  0  0  0
   -9.5700   19.6930  -33.1110 O   0  0  0  0  0  0  0  0  0  0  0  0
   -8.8840   18.4630  -31.1170 O   0  0  0  0  0  0  0  0  0  0  0  0
   -7.2540   18.3960  -33.2360 N   0  0  0  0  0  0  0  0  0  0  0  0
   -6.3960   19.2860  -34.0190 C   0  0  0  0  0  0  0  0  0  0  0  0
   -5.0710   18.5610  -34.2150 C   0  0  0  0  0  0  0  0  0  0  0  0
   -5.0840   17.4130  -33.2180 C   0  0  0  0  0  0  0  0  0  0  0  0
   -6.3460   17.6150  -32.3980 C   0  0  0  0  0  0  0  0  0  0  0  0
   -6.2320   20.7570  -31.3810 C   0  0  0  0  0  0  0  0  0  0  0  0
   -5.6130   21.9220  -30.9190 C   0  0  0  0  0  0  0  0  0  0  0  0
   -4.7119   21.7013  -27.5958 H   0  0  0  0  0  0  0  0  0  0  0  0
   -0.4349   21.2092  -28.0009 H   0  0  0  0  0  0  0  0  0  0  0  0
   -0.2556   23.5066  -28.9564 H   0  0  0  0  0  0  0  0  0  0  0  0
   -3.0950   25.6710  -29.7190 H   0  0  0  0  0  0  0  0  0  0  0  0
   -8.3232   24.0091  -30.8853 H   0  0  0  0  0  0  0  0  0  0  0  0
   -9.4296   21.9290  -31.7088 H   0  0  0  0  0  0  0  0  0  0  0  0
   -6.8595   19.4976  -34.9939 H   0  0  0  0  0  0  0  0  0  0  0  0
   -6.2477   20.2458  -33.5026 H   0  0  0  0  0  0  0  0  0  0  0  0
   -4.9915   18.1767  -35.2426 H   0  0  0  0  0  0  0  0  0  0  0  0
   -4.2125   19.2300  -34.0555 H   0  0  0  0  0  0  0  0  0  0  0  0
   -5.1148   16.4465  -33.7424 H   0  0  0  0  0  0  0  0  0  0  0  0
   -4.1814   17.4030  -32.5894 H   0  0  0  0  0  0  0  0  0  0  0  0
   -6.7980   16.6439  -32.1476 H   0  0  0  0  0  0  0  0  0  0  0  0
   -6.1309   18.1303  -31.4503 H   0  0  0  0  0  0  0  0  0  0  0  0
   -5.6394   19.8420  -31.5277 H   0  0  0  0  0  0  0  0  0  0  0  0
   -4.5350   21.9205  -30.7000 H   0  0  0  0  0  0  0  0  0  0  0  0
  1  2  2  0
  2  3  2  0
  2  4  1  0
  4  5  1  0
  5  6  2  0
  6  7  1  0
  7  8  1  0
  7  9  2  0
  9 10  1  0
 10 11  2  0
 11 12  1  0
  2 13  1  0
 13 14  2  0
 14 15  1  0
 15 16  2  0
 16 17  1  0
 17 18  2  0
 17 19  2  0
 17 20  1  0
 20 21  1  0
 21 22  1  0
 22 23  1  0
 23 24  1  0
 16 25  1  0
 25 26  2  0
 11  5  1  0
 26 13  1  0
 24 20  1  0
  6 27  1  0
  9 28  1  0
 10 29  1  0
 12 30  1  0
 14 31  1  0
 15 32  1  0
 21 33  1  0
 21 34  1  0
 22 35  1  0
 22 36  1  0
 23 37  1  0
 23 38  1  0
 24 39  1  0
 24 40  1  0
 25 41  1  0
 26 42  1  0
M  CHG  1   4  -1
M  END
>  <UniqueID>  (16) 
15

>  <SMILES>  (16) 
O=S(=O)([N-]c1cc(Cl)ccc1O)c1ccc(S(=O)(=O)N2CCCC2)cc1

>  <Energy>  (16) 
46.44604305397076

>  <Genealogy>  (16) 
O=S(=O)([N-]c1cc(Cl)ccc1O)c1ccc(S(=O)(=O)N2CCCC2)cc1 (protonated)
O=S(=O)([N-]c1cc(Cl)ccc1O)c1ccc(S(=O)(=O)N2CCCC2)cc1 (3D coordinates assigned)
O=S(=O)([N-]c1cc(Cl)ccc1O)c1ccc(S(=O)(=O)N2CCCC2)cc1 (nonaromatic ring conformer: 46.44604305397076 kcal/mol)

>  <smiles>  (16) 
O=S(=O)(Nc1cc(Cl)ccc1O)c1ccc(S(=O)(=O)N2CCCC2)cc1

>  <score_type>  (16) 
oracle

>  <origin>  (16) 
adgpu

>  <m_score__min__energy>  (16) 
-12.75

>  <m_primary>  (16) 
energy

$$$$
16:0
     RDKit          3D

 48 51  0  0  0  0  0  0  0  0999 V2000
   -6.4820   23.2520  -32.2980 O   0  0  0  0  0  0  0  0  0  0  0  0
   -5.8980   22.7980  -31.2770 C   0  0  0  0  0  0  0  0  0  0  0  0
   -6.2790   21.5230  -30.7330 N   0  0  0  0  0  0  0  0  0  0  0  0
   -7.0430   20.5410  -31.4550 C   0  0  0  0  0  0  0  0  0  0  0  0
   -8.4460   20.4970  -31.3700 C   0  0  0  0  0  0  0  0  0  0  0  0
   -9.1670   19.5530  -32.1070 C   0  0  0  0  0  0  0  0  0  0  0  0
   -8.4980   18.6510  -32.9380 C   0  0  0  0  0  0  0  0  0  0  0  0
   -7.1040   18.6910  -33.0410 C   0  0  0  0  0  0  0  0  0  0  0  0
   -6.2720   17.5740  -34.1210 S   0  0  0  0  0  0  0  0  0  0  0  0
   -7.1650   16.4060  -34.4380 O   0  0  0  0  0  0  0  0  0  0  0  0
   -5.9480   18.2910  -35.4020 O   0  0  0  0  0  0  0  0  0  0  0  0
   -4.7970   17.0110  -33.3730 N   0  0  0  0  0  0  0  0  0  0  0  0
   -4.9280   15.5880  -33.0100 C   0  0  0  0  0  0  0  0  0  0  0  0
   -3.5430   14.9410  -32.8400 C   0  0  0  0  0  0  0  0  0  0  0  0
   -2.7290   14.9900  -34.0060 O   0  0  0  0  0  0  0  0  0  0  0  0
   -3.1040   16.0060  -34.9240 C   0  0  0  0  0  0  0  0  0  0  0  0
   -3.6250   17.2810  -34.2360 C   0  0  0  0  0  0  0  0  0  0  0  0
   -6.3800   19.6450  -32.3090 C   0  0  0  0  0  0  0  0  0  0  0  0
   -4.8570   23.6140  -30.6300 C   0  0  0  0  0  0  0  0  0  0  0  0
   -4.1730   23.3170  -29.4680 C   0  0  0  0  0  0  0  0  0  0  0  0
   -3.3160   24.3900  -29.2980 C   0  0  0  0  0  0  0  0  0  0  0  0
   -2.3690   24.6140  -28.1790 C   0  0  0  0  0  0  0  0  0  0  0  0
   -2.5090   23.8500  -27.0050 C   0  0  0  0  0  0  0  0  0  0  0  0
   -1.6320   24.0250  -25.9310 C   0  0  0  0  0  0  0  0  0  0  0  0
   -0.6060   24.9670  -26.0120 C   0  0  0  0  0  0  0  0  0  0  0  0
   -0.4610   25.7430  -27.1640 C   0  0  0  0  0  0  0  0  0  0  0  0
   -1.3390   25.5810  -28.2410 C   0  0  0  0  0  0  0  0  0  0  0  0
   -1.1930   26.4070  -29.3500 O   0  0  0  0  0  0  0  0  0  0  0  0
   -3.4990   25.2690  -30.3040 N   0  0  0  0  0  0  0  0  0  0  0  0
   -4.4300   24.7950  -31.1160 N   0  0  0  0  0  0  0  0  0  0  0  0
   -6.0790   21.3350  -29.7260 H   0  0  0  0  0  0  0  0  0  0  0  0
   -8.9781   21.2081  -30.7211 H   0  0  0  0  0  0  0  0  0  0  0  0
  -10.2640   19.5203  -32.0324 H   0  0  0  0  0  0  0  0  0  0  0  0
   -9.0694   17.9073  -33.5129 H   0  0  0  0  0  0  0  0  0  0  0  0
   -5.4834   15.5062  -32.0640 H   0  0  0  0  0  0  0  0  0  0  0  0
   -5.4662   15.0657  -33.8147 H   0  0  0  0  0  0  0  0  0  0  0  0
   -3.0153   15.4638  -32.0287 H   0  0  0  0  0  0  0  0  0  0  0  0
   -3.7161   13.8772  -32.6199 H   0  0  0  0  0  0  0  0  0  0  0  0
   -2.2258   16.2702  -35.5314 H   0  0  0  0  0  0  0  0  0  0  0  0
   -3.9248   15.6062  -35.5376 H   0  0  0  0  0  0  0  0  0  0  0  0
   -2.8197   17.7043  -33.6177 H   0  0  0  0  0  0  0  0  0  0  0  0
   -3.9385   17.9847  -35.0212 H   0  0  0  0  0  0  0  0  0  0  0  0
   -5.2852   19.6911  -32.4050 H   0  0  0  0  0  0  0  0  0  0  0  0
   -4.2838   22.4312  -28.8253 H   0  0  0  0  0  0  0  0  0  0  0  0
   -3.3172   23.1074  -26.9322 H   0  0  0  0  0  0  0  0  0  0  0  0
   -1.7508   23.4192  -25.0206 H   0  0  0  0  0  0  0  0  0  0  0  0
    0.0883   25.0984  -25.1690 H   0  0  0  0  0  0  0  0  0  0  0  0
    0.3481   26.4857  -27.2249 H   0  0  0  0  0  0  0  0  0  0  0  0
  1  2  2  0
  2  3  1  0
  3  4  1  0
  4  5  2  0
  5  6  1  0
  6  7  2  0
  7  8  1  0
  8  9  1  0
  9 10  2  0
  9 11  2  0
  9 12  1  0
 12 13  1  0
 13 14  1  0
 14 15  1  0
 15 16  1  0
 16 17  1  0
  8 18  2  0
  2 19  1  0
 19 20  1  0
 20 21  2  0
 21 22  1  0
 22 23  2  0
 23 24  1  0
 24 25  2  0
 25 26  1  0
 26 27  2  0
 27 28  1  0
 21 29  1  0
 29 30  1  0
 18  4  1  0
 30 19  2  0
 17 12  1  0
 27 22  1  0
  3 31  1  0
  5 32  1  0
  6 33  1  0
  7 34  1  0
 13 35  1  0
 13 36  1  0
 14 37  1  0
 14 38  1  0
 16 39  1  0
 16 40  1  0
 17 41  1  0
 17 42  1  0
 18 43  1  0
 20 44  1  0
 23 45  1  0
 24 46  1  0
 25 47  1  0
 26 48  1  0
M  CHG  2  28  -1  29  -1
M  END
>  <UniqueID>  (17) 
16

>  <SMILES>  (17) 
O=C(Nc1cccc(S(=O)(=O)N2CCOCC2)c1)c1cc(-c2ccccc2[O-])[n-]n1

>  <Energy>  (17) 
100.29220736316474

>  <Genealogy>  (17) 
O=C(Nc1cccc(S(=O)(=O)N2CCOCC2)c1)c1cc(-c2ccccc2[O-])[n-]n1 (protonated)
O=C(Nc1cccc(S(=O)(=O)N2CCOCC2)c1)c1cc(-c2ccccc2[O-])[n-]n1 (3D coordinates assigned)
O=C(Nc1cccc(S(=O)(=O)N2CCOCC2)c1)c1cc(-c2ccccc2[O-])[n-]n1 (nonaromatic ring conformer: 100.29220736316474 kcal/mol)

>  <smiles>  (17) 
O=C(Nc1cccc(S(=O)(=O)N2CCOCC2)c1)c1cc(-c2ccccc2O)[nH]n1

>  <score_type>  (17) 
oracle

>  <origin>  (17) 
adgpu

>  <m_score__min__energy>  (17) 
-14.699999999999999

>  <m_primary>  (17) 
energy

$$$$
17:0
     RDKit          3D

 42 45  0  0  0  0  0  0  0  0999 V2000
   -6.4870   17.9650  -34.4960 O   0  0  0  0  0  0  0  0  0  0  0  0
   -6.0900   18.9590  -33.8360 C   0  0  0  0  0  0  0  0  0  0  0  0
   -4.6380   19.1040  -33.4830 C   0  0  0  0  0  0  0  0  0  0  0  0
   -4.2340   20.5850  -33.4260 C   0  0  0  0  0  0  0  0  0  0  0  0
   -5.2190   21.4110  -32.6310 C   0  0  0  0  0  0  0  0  0  0  0  0
   -4.7960   22.5650  -31.9570 C   0  0  0  0  0  0  0  0  0  0  0  0
   -5.7270   23.3830  -31.3000 C   0  0  0  0  0  0  0  0  0  0  0  0
   -5.2130   24.8460  -30.4660 S   0  0  0  0  0  0  0  0  0  0  0  0
   -5.7200   24.8700  -29.0510 O   0  0  0  0  0  0  0  0  0  0  0  0
   -5.7670   26.0380  -31.1940 O   0  0  0  0  0  0  0  0  0  0  0  0
   -3.4820   24.9390  -30.4570 N   0  0  0  0  0  0  0  0  0  0  0  0
   -2.6140   24.1790  -29.6030 C   0  0  0  0  0  0  0  0  0  0  0  0
   -2.8560   22.8270  -29.3070 C   0  0  0  0  0  0  0  0  0  0  0  0
   -1.9790   22.1070  -28.4820 C   0  0  0  0  0  0  0  0  0  0  0  0
   -0.8290   22.7380  -27.9660 C   0  0  0  0  0  0  0  0  0  0  0  0
   -0.6030   24.0920  -28.2440 C   0  0  0  0  0  0  0  0  0  0  0  0
   -1.4860   24.8070  -29.0590 C   0  0  0  0  0  0  0  0  0  0  0  0
   -1.2340   26.1470  -29.3280 O   0  0  0  0  0  0  0  0  0  0  0  0
    0.1070   21.9990  -27.0400 C   0  0  0  0  0  0  0  0  0  0  0  0
    0.0110   20.5420  -27.1980 N   0  0  0  0  0  0  0  0  0  0  0  0
   -1.3830   20.1000  -27.0800 C   0  0  0  0  0  0  0  0  0  0  0  0
   -2.2300   20.6400  -28.2380 C   0  0  0  0  0  0  0  0  0  0  0  0
   -7.0870   23.0500  -31.3330 C   0  0  0  0  0  0  0  0  0  0  0  0
   -7.5170   21.9080  -32.0140 C   0  0  0  0  0  0  0  0  0  0  0  0
   -6.5900   21.0890  -32.6630 C   0  0  0  0  0  0  0  0  0  0  0  0
   -7.0340   19.9140  -33.3490 N   0  0  0  0  0  0  0  0  0  0  0  0
   -4.4583   18.6434  -32.5004 H   0  0  0  0  0  0  0  0  0  0  0  0
   -4.0362   18.6046  -34.2566 H   0  0  0  0  0  0  0  0  0  0  0  0
   -3.2428   20.6648  -32.9557 H   0  0  0  0  0  0  0  0  0  0  0  0
   -4.2188   20.9726  -34.4553 H   0  0  0  0  0  0  0  0  0  0  0  0
   -3.7286   22.8304  -31.9433 H   0  0  0  0  0  0  0  0  0  0  0  0
   -3.7421   22.3280  -29.7264 H   0  0  0  0  0  0  0  0  0  0  0  0
    0.2763   24.5970  -27.8177 H   0  0  0  0  0  0  0  0  0  0  0  0
    1.1392   22.3112  -27.2571 H   0  0  0  0  0  0  0  0  0  0  0  0
   -0.1778   22.2452  -26.0064 H   0  0  0  0  0  0  0  0  0  0  0  0
    0.3760   20.2790  -28.1440 H   0  0  0  0  0  0  0  0  0  0  0  0
   -1.4142   19.0005  -27.0936 H   0  0  0  0  0  0  0  0  0  0  0  0
   -1.7942   20.4854  -26.1353 H   0  0  0  0  0  0  0  0  0  0  0  0
   -1.9816   20.0799  -29.1516 H   0  0  0  0  0  0  0  0  0  0  0  0
   -3.2901   20.5151  -27.9722 H   0  0  0  0  0  0  0  0  0  0  0  0
   -7.8200   23.6903  -30.8205 H   0  0  0  0  0  0  0  0  0  0  0  0
   -8.5869   21.6537  -32.0390 H   0  0  0  0  0  0  0  0  0  0  0  0
  1  2  2  0
  2  3  1  0
  3  4  1  0
  4  5  1  0
  5  6  2  0
  6  7  1  0
  7  8  1  0
  8  9  2  0
  8 10  2  0
  8 11  1  0
 11 12  1  0
 12 13  2  0
 13 14  1  0
 14 15  2  0
 15 16  1  0
 16 17  2  0
 17 18  1  0
 15 19  1  0
 19 20  1  0
 20 21  1  0
 21 22  1  0
  7 23  2  0
 23 24  1  0
 24 25  2  0
 25 26  1  0
 26  2  1  0
 25  5  1  0
 17 12  1  0
 22 14  1  0
  3 27  1  0
  3 28  1  0
  4 29  1  0
  4 30  1  0
  6 31  1  0
 13 32  1  0
 16 33  1  0
 19 34  1  0
 19 35  1  0
 20 36  1  0
 21 37  1  0
 21 38  1  0
 22 39  1  0
 22 40  1  0
 23 41  1  0
 24 42  1  0
M  CHG  3  11  -1  18  -1  26  -1
M  END
>  <UniqueID>  (18) 
17

>  <SMILES>  (18) 
O=C1CCc2cc(S(=O)(=O)[N-]c3cc4c(cc3[O-])CNCC4)ccc2[N-]1

>  <Energy>  (18) 
50.38205397158555

>  <Genealogy>  (18) 
O=C1CCc2cc(S(=O)(=O)[N-]c3cc4c(cc3[O-])CNCC4)ccc2[N-]1 (protonated)
O=C1CCc2cc(S(=O)(=O)[N-]c3cc4c(cc3[O-])CNCC4)ccc2[N-]1 (3D coordinates assigned)
O=C1CCc2cc(S(=O)(=O)[N-]c3cc4c(cc3[O-])CNCC4)ccc2[N-]1 (nonaromatic ring conformer: 50.38205397158555 kcal/mol)

>  <smiles>  (18) 
O=C1CCc2cc(S(=O)(=O)Nc3cc4c(cc3O)CNCC4)ccc2N1

>  <score_type>  (18) 
oracle

>  <origin>  (18) 
adgpu

>  <m_score__min__energy>  (18) 
-14.1

>  <m_primary>  (18) 
energy

$$$$
18:0
     RDKit          3D

 61 65  0  0  0  0  0  0  0  0999 V2000
   -0.6660   20.2950  -28.3660 C   0  0  0  0  0  0  0  0  0  0  0  0
   -1.6190   20.7180  -27.3230 N   0  0  0  0  0  0  0  0  0  0  0  0
   -1.1890   21.9430  -26.6210 C   0  0  0  0  0  0  0  0  0  0  0  0
   -1.1550   23.1720  -27.5450 C   0  0  0  0  0  0  0  0  0  0  0  0
   -2.3520   23.2420  -28.4620 C   0  0  0  0  0  0  0  0  0  0  0  0
   -2.5890   24.4190  -29.1870 C   0  0  0  0  0  0  0  0  0  0  0  0
   -3.6380   24.4880  -30.1060 C   0  0  0  0  0  0  0  0  0  0  0  0
   -3.8480   25.6720  -30.8080 O   0  0  0  0  0  0  0  0  0  0  0  0
   -4.4620   23.3720  -30.3290 C   0  0  0  0  0  0  0  0  0  0  0  0
   -5.5290   23.4500  -31.2900 N   0  0  0  0  0  0  0  0  0  0  0  0
   -6.9910   22.5230  -31.1650 S   0  0  0  0  0  0  0  0  0  0  0  0
   -7.4410   22.4530  -29.7320 O   0  0  0  0  0  0  0  0  0  0  0  0
   -8.0640   23.1730  -31.9940 O   0  0  0  0  0  0  0  0  0  0  0  0
   -6.6820   20.8840  -31.7250 C   0  0  0  0  0  0  0  0  0  0  0  0
   -5.5520   20.1740  -31.2930 C   0  0  0  0  0  0  0  0  0  0  0  0
   -5.3130   18.8780  -31.7620 C   0  0  0  0  0  0  0  0  0  0  0  0
   -6.2020   18.2830  -32.6710 C   0  0  0  0  0  0  0  0  0  0  0  0
   -5.9230   16.6500  -33.2720 S   0  0  0  0  0  0  0  0  0  0  0  0
   -5.3700   15.8220  -32.1470 O   0  0  0  0  0  0  0  0  0  0  0  0
   -7.2220   16.0360  -33.7190 O   0  0  0  0  0  0  0  0  0  0  0  0
   -4.7670   16.6720  -34.5890 N   0  0  0  0  0  0  0  0  0  0  0  0
   -3.6210   15.7700  -34.3690 C   0  0  0  0  0  0  0  0  0  0  0  0
   -2.7300   16.2150  -33.2000 C   0  0  0  0  0  0  0  0  0  0  0  0
   -2.4830   17.7000  -33.2000 C   0  0  0  0  0  0  0  0  0  0  0  0
   -1.4910   18.2290  -32.3570 C   0  0  0  0  0  0  0  0  0  0  0  0
   -1.2760   19.6090  -32.2970 C   0  0  0  0  0  0  0  0  0  0  0  0
   -2.0550   20.4730  -33.0700 C   0  0  0  0  0  0  0  0  0  0  0  0
   -3.0540   19.9590  -33.9010 C   0  0  0  0  0  0  0  0  0  0  0  0
   -3.2880   18.5760  -33.9610 C   0  0  0  0  0  0  0  0  0  0  0  0
   -4.3330   18.0430  -34.9130 C   0  0  0  0  0  0  0  0  0  0  0  0
   -7.3320   18.9910  -33.0970 C   0  0  0  0  0  0  0  0  0  0  0  0
   -7.5710   20.2850  -32.6260 C   0  0  0  0  0  0  0  0  0  0  0  0
   -4.2360   22.1990  -29.5910 C   0  0  0  0  0  0  0  0  0  0  0  0
   -3.1740   22.1190  -28.6740 C   0  0  0  0  0  0  0  0  0  0  0  0
   -2.9890   20.8590  -27.8570 C   0  0  0  0  0  0  0  0  0  0  0  0
    0.2413   19.8923  -27.8921 H   0  0  0  0  0  0  0  0  0  0  0  0
   -1.1286   19.5177  -28.9919 H   0  0  0  0  0  0  0  0  0  0  0  0
   -0.3999   21.1595  -28.9919 H   0  0  0  0  0  0  0  0  0  0  0  0
   -1.8897   22.1412  -25.7965 H   0  0  0  0  0  0  0  0  0  0  0  0
   -0.1665   21.7746  -26.2521 H   0  0  0  0  0  0  0  0  0  0  0  0
   -1.1336   24.0795  -26.9236 H   0  0  0  0  0  0  0  0  0  0  0  0
   -0.2570   23.0905  -28.1750 H   0  0  0  0  0  0  0  0  0  0  0  0
   -1.9429   25.2953  -29.0303 H   0  0  0  0  0  0  0  0  0  0  0  0
   -5.3920   24.0000  -32.1690 H   0  0  0  0  0  0  0  0  0  0  0  0
   -4.8515   20.6379  -30.5830 H   0  0  0  0  0  0  0  0  0  0  0  0
   -4.4270   18.3242  -31.4180 H   0  0  0  0  0  0  0  0  0  0  0  0
   -4.0037   14.7611  -34.1551 H   0  0  0  0  0  0  0  0  0  0  0  0
   -3.0054   15.7879  -35.2804 H   0  0  0  0  0  0  0  0  0  0  0  0
   -3.2219   15.9387  -32.2557 H   0  0  0  0  0  0  0  0  0  0  0  0
   -1.7573   15.7131  -33.3095 H   0  0  0  0  0  0  0  0  0  0  0  0
   -0.8800   17.5532  -31.7406 H   0  0  0  0  0  0  0  0  0  0  0  0
   -0.4924   20.0149  -31.6403 H   0  0  0  0  0  0  0  0  0  0  0  0
   -1.8821   21.5584  -33.0246 H   0  0  0  0  0  0  0  0  0  0  0  0
   -3.6612   20.6427  -34.5124 H   0  0  0  0  0  0  0  0  0  0  0  0
   -5.2103   18.7056  -34.8760 H   0  0  0  0  0  0  0  0  0  0  0  0
   -3.8792   18.0146  -35.9146 H   0  0  0  0  0  0  0  0  0  0  0  0
   -8.0345   18.5272  -33.8051 H   0  0  0  0  0  0  0  0  0  0  0  0
   -8.4613   20.8353  -32.9645 H   0  0  0  0  0  0  0  0  0  0  0  0
   -4.8983   21.3321  -29.7323 H   0  0  0  0  0  0  0  0  0  0  0  0
   -3.6944   20.8807  -27.0132 H   0  0  0  0  0  0  0  0  0  0  0  0
   -3.1743   20.0030  -28.5225 H   0  0  0  0  0  0  0  0  0  0  0  0
  1  2  1  0
  2  3  1  0
  3  4  1  0
  4  5  1  0
  5  6  2  0
  6  7  1  0
  7  8  1  0
  7  9  2  0
  9 10  1  0
 10 11  1  0
 11 12  2  0
 11 13  2  0
 11 14  1  0
 14 15  2  0
 15 16  1  0
 16 17  2  0
 17 18  1  0
 18 19  2  0
 18 20  2  0
 18 21  1  0
 21 22  1  0
 22 23  1  0
 23 24  1  0
 24 25  2  0
 25 26  1  0
 26 27  2  0
 27 28  1  0
 28 29  2  0
 29 30  1  0
 17 31  1  0
 31 32  2  0
  9 33  1  0
 33 34  2  0
 34 35  1  0
 35  2  1  0
 34  5  1  0
 32 14  1  0
 30 21  1  0
 29 24  1  0
  1 36  1  0
  1 37  1  0
  1 38  1  0
  3 39  1  0
  3 40  1  0
  4 41  1  0
  4 42  1  0
  6 43  1  0
 10 44  1  0
 15 45  1  0
 16 46  1  0
 22 47  1  0
 22 48  1  0
 23 49  1  0
 23 50  1  0
 25 51  1  0
 26 52  1  0
 27 53  1  0
 28 54  1  0
 30 55  1  0
 30 56  1  0
 31 57  1  0
 32 58  1  0
 33 59  1  0
 35 60  1  0
 35 61  1  0
M  CHG  1   8  -1
M  END
>  <UniqueID>  (19) 
18

>  <SMILES>  (19) 
CN1CCc2cc([O-])c(NS(=O)(=O)c3ccc(S(=O)(=O)N4CCc5ccccc5C4)cc3)cc2C1

>  <Energy>  (19) 
80.46499554989683

>  <Genealogy>  (19) 
CN1CCc2cc([O-])c(NS(=O)(=O)c3ccc(S(=O)(=O)N4CCc5ccccc5C4)cc3)cc2C1 (protonated)
CN1CCc2cc([O-])c(NS(=O)(=O)c3ccc(S(=O)(=O)N4CCc5ccccc5C4)cc3)cc2C1 (3D coordinates assigned)
CN1CCc2cc([O-])c(NS(=O)(=O)c3ccc(S(=O)(=O)N4CCc5ccccc5C4)cc3)cc2C1 (nonaromatic ring conformer: 80.46499554989683 kcal/mol)

>  <smiles>  (19) 
CN1CCc2cc(O)c(NS(=O)(=O)c3ccc(S(=O)(=O)N4CCc5ccccc5C4)cc3)cc2C1

>  <score_type>  (19) 
oracle

>  <origin>  (19) 
adgpu

>  <m_score__min__energy>  (19) 
-14.92

>  <m_primary>  (19) 
energy

$$$$
19:0
     RDKit          3D

 34 37  0  0  0  0  0  0  0  0999 V2000
    0.0320   21.9040  -31.1130 O   0  0  0  0  0  0  0  0  0  0  0  0
   -0.8180   21.1220  -31.6110 C   0  0  0  0  0  0  0  0  0  0  0  0
   -2.1890   21.4580  -31.8170 N   0  0  0  0  0  0  0  0  0  0  0  0
   -2.7650   20.2840  -32.3920 C   0  0  0  0  0  0  0  0  0  0  0  0
   -4.0960   20.1120  -32.7690 C   0  0  0  0  0  0  0  0  0  0  0  0
   -4.4830   18.8720  -33.3160 C   0  0  0  0  0  0  0  0  0  0  0  0
   -6.1560   18.5900  -33.7860 S   0  0  0  0  0  0  0  0  0  0  0  0
   -6.4760   19.3030  -35.0710 O   0  0  0  0  0  0  0  0  0  0  0  0
   -6.3640   17.1150  -33.9790 O   0  0  0  0  0  0  0  0  0  0  0  0
   -7.2210   19.1570  -32.5410 N   0  0  0  0  0  0  0  0  0  0  0  0
   -7.4790   20.5360  -32.2400 C   0  0  0  0  0  0  0  0  0  0  0  0
   -8.7770   21.0740  -32.2530 C   0  0  0  0  0  0  0  0  0  0  0  0
   -8.9810   22.4250  -31.9660 C   0  0  0  0  0  0  0  0  0  0  0  0
   -7.8970   23.2500  -31.6610 C   0  0  0  0  0  0  0  0  0  0  0  0
   -6.5930   22.7290  -31.6380 C   0  0  0  0  0  0  0  0  0  0  0  0
   -5.4450   23.6000  -31.3100 C   0  0  0  0  0  0  0  0  0  0  0  0
   -4.1900   23.1620  -31.0950 N   0  0  0  0  0  0  0  0  0  0  0  0
   -3.4910   24.2540  -30.8380 N   0  0  0  0  0  0  0  0  0  0  0  0
   -4.2810   25.3160  -30.8930 N   0  0  0  0  0  0  0  0  0  0  0  0
   -5.5140   24.9400  -31.1880 N   0  0  0  0  0  0  0  0  0  0  0  0
   -6.3950   21.3680  -31.9270 C   0  0  0  0  0  0  0  0  0  0  0  0
   -3.5280   17.8400  -33.4760 C   0  0  0  0  0  0  0  0  0  0  0  0
   -2.1920   18.0350  -33.0890 C   0  0  0  0  0  0  0  0  0  0  0  0
   -1.8410   19.2680  -32.5470 C   0  0  0  0  0  0  0  0  0  0  0  0
   -0.5640   19.7590  -32.0570 C   0  0  0  0  0  0  0  0  0  0  0  0
    0.5300   19.1370  -32.0190 O   0  0  0  0  0  0  0  0  0  0  0  0
   -2.6650   22.3600  -31.5950 H   0  0  0  0  0  0  0  0  0  0  0  0
   -4.8267   20.9245  -32.6426 H   0  0  0  0  0  0  0  0  0  0  0  0
   -9.6355   20.4284  -32.4901 H   0  0  0  0  0  0  0  0  0  0  0  0
   -9.9993   22.8407  -31.9803 H   0  0  0  0  0  0  0  0  0  0  0  0
   -8.0651   24.3139  -31.4375 H   0  0  0  0  0  0  0  0  0  0  0  0
   -5.3774   20.9506  -31.9074 H   0  0  0  0  0  0  0  0  0  0  0  0
   -3.8349   16.8759  -33.9076 H   0  0  0  0  0  0  0  0  0  0  0  0
   -1.4450   17.2367  -33.2107 H   0  0  0  0  0  0  0  0  0  0  0  0
  1  2  2  0
  2  3  1  0
  3  4  1  0
  4  5  2  0
  5  6  1  0
  6  7  1  0
  7  8  2  0
  7  9  2  0
  7 10  1  0
 10 11  1  0
 11 12  2  0
 12 13  1  0
 13 14  2  0
 14 15  1  0
 15 16  1  0
 16 17  1  0
 17 18  2  0
 18 19  1  0
 19 20  1  0
 15 21  2  0
  6 22  2  0
 22 23  1  0
 23 24  2  0
 24 25  1  0
 25 26  2  0
 25  2  1  0
 24  4  1  0
 21 11  1  0
 20 16  2  0
  3 27  1  0
  5 28  1  0
 12 29  1  0
 13 30  1  0
 14 31  1  0
 21 32  1  0
 22 33  1  0
 23 34  1  0
M  CHG  2  10  -1  19  -1
M  END
>  <UniqueID>  (20) 
19

>  <SMILES>  (20) 
O=C1Nc2cc(S(=O)(=O)[N-]c3cccc(-c4nn[n-]n4)c3)ccc2C1=O

>  <Energy>  (20) 
111.90052446341427

>  <Genealogy>  (20) 
O=C1Nc2cc(S(=O)(=O)[N-]c3cccc(-c4nn[n-]n4)c3)ccc2C1=O (protonated)
O=C1Nc2cc(S(=O)(=O)[N-]c3cccc(-c4nn[n-]n4)c3)ccc2C1=O (3D coordinates assigned)
O=C1Nc2cc(S(=O)(=O)[N-]c3cccc(-c4nn[n-]n4)c3)ccc2C1=O (nonaromatic ring conformer: 111.90052446341427 kcal/mol)

>  <smiles>  (20) 
O=C1Nc2cc(S(=O)(=O)Nc3cccc(-c4nn[nH]n4)c3)ccc2C1=O

>  <score_type>  (20) 
oracle

>  <origin>  (20) 
adgpu

>  <m_score__min__energy>  (20) 
-10.51

>  <m_primary>  (20) 
energy

$$$$
20:0
     RDKit          3D

 44 47  0  0  0  0  0  0  0  0999 V2000
   -2.3190   25.2120  -29.3100 O   0  0  0  0  0  0  0  0  0  0  0  0
   -3.1500   24.5660  -29.9990 C   0  0  0  0  0  0  0  0  0  0  0  0
   -4.0800   25.2780  -30.8170 N   0  0  0  0  0  0  0  0  0  0  0  0
   -5.5130   25.2780  -30.5630 C   0  0  0  0  0  0  0  0  0  0  0  0
   -6.0880   23.9460  -30.9500 C   0  0  0  0  0  0  0  0  0  0  0  0
   -7.2630   23.4780  -30.3410 C   0  0  0  0  0  0  0  0  0  0  0  0
   -7.8170   22.2540  -30.7260 C   0  0  0  0  0  0  0  0  0  0  0  0
   -7.2070   21.4880  -31.7290 C   0  0  0  0  0  0  0  0  0  0  0  0
   -7.9200   19.9590  -32.2290 S   0  0  0  0  0  0  0  0  0  0  0  0
   -8.4200   19.2090  -31.0260 O   0  0  0  0  0  0  0  0  0  0  0  0
   -9.0840   20.2080  -33.1480 O   0  0  0  0  0  0  0  0  0  0  0  0
   -6.7100   19.0020  -33.0590 C   0  0  0  0  0  0  0  0  0  0  0  0
   -6.1280   19.2730  -34.2740 C   0  0  0  0  0  0  0  0  0  0  0  0
   -5.2250   18.3100  -34.5430 N   0  0  0  0  0  0  0  0  0  0  0  0
   -5.2160   17.4460  -33.5370 N   0  0  0  0  0  0  0  0  0  0  0  0
   -6.1120   17.8460  -32.6160 C   0  0  0  0  0  0  0  0  0  0  0  0
   -6.0480   21.9650  -32.3550 C   0  0  0  0  0  0  0  0  0  0  0  0
   -5.4930   23.1880  -31.9710 C   0  0  0  0  0  0  0  0  0  0  0  0
   -3.2050   23.1330  -29.9290 N   0  0  0  0  0  0  0  0  0  0  0  0
   -2.2710   22.2130  -30.5120 C   0  0  0  0  0  0  0  0  0  0  0  0
   -1.3550   21.4830  -29.7310 C   0  0  0  0  0  0  0  0  0  0  0  0
   -0.4430   20.6150  -30.3410 C   0  0  0  0  0  0  0  0  0  0  0  0
   -0.4330   20.4720  -31.7310 C   0  0  0  0  0  0  0  0  0  0  0  0
   -1.3220   21.2180  -32.5180 C   0  0  0  0  0  0  0  0  0  0  0  0
   -2.2310   22.0920  -31.9080 C   0  0  0  0  0  0  0  0  0  0  0  0
   -1.2520   21.1120  -33.9440 N   0  0  0  0  0  0  0  0  0  0  0  0
   -0.3510   20.1780  -34.5470 C   0  0  0  0  0  0  0  0  0  0  0  0
   -0.2050   20.1620  -35.7980 O   0  0  0  0  0  0  0  0  0  0  0  0
    0.3570   19.1640  -33.6950 C   0  0  0  0  0  0  0  0  0  0  0  0
    0.4850   19.6080  -32.3400 O   0  0  0  0  0  0  0  0  0  0  0  0
   -5.6962   25.4602  -29.4938 H   0  0  0  0  0  0  0  0  0  0  0  0
   -5.9914   26.0711  -31.1564 H   0  0  0  0  0  0  0  0  0  0  0  0
   -7.7498   24.0772  -29.5574 H   0  0  0  0  0  0  0  0  0  0  0  0
   -8.7347   21.8906  -30.2404 H   0  0  0  0  0  0  0  0  0  0  0  0
   -6.3606   20.1329  -34.9194 H   0  0  0  0  0  0  0  0  0  0  0  0
   -6.3296   17.3336  -31.6672 H   0  0  0  0  0  0  0  0  0  0  0  0
   -5.5731   21.3741  -33.1521 H   0  0  0  0  0  0  0  0  0  0  0  0
   -4.5859   23.5588  -32.4707 H   0  0  0  0  0  0  0  0  0  0  0  0
   -1.3564   21.5955  -28.6368 H   0  0  0  0  0  0  0  0  0  0  0  0
    0.2675   20.0440  -29.7253 H   0  0  0  0  0  0  0  0  0  0  0  0
   -2.9176   22.6870  -32.5282 H   0  0  0  0  0  0  0  0  0  0  0  0
   -1.8360   21.7320  -34.5500 H   0  0  0  0  0  0  0  0  0  0  0  0
   -0.2147   18.2244  -33.7098 H   0  0  0  0  0  0  0  0  0  0  0  0
    1.3672   19.0171  -34.1047 H   0  0  0  0  0  0  0  0  0  0  0  0
  1  2  2  0
  2  3  1  0
  3  4  1  0
  4  5  1  0
  5  6  2  0
  6  7  1  0
  7  8  2  0
  8  9  1  0
  9 10  2  0
  9 11  2  0
  9 12  1  0
 12 13  1  0
 13 14  2  0
 14 15  1  0
 15 16  1  0
  8 17  1  0
 17 18  2  0
  2 19  1  0
 19 20  1  0
 20 21  2  0
 21 22  1  0
 22 23  2  0
 23 24  1  0
 24 25  2  0
 24 26  1  0
 26 27  1  0
 27 28  2  0
 27 29  1  0
 29 30  1  0
 18  5  1  0
 25 20  1  0
 16 12  2  0
 30 23  1  0
  4 31  1  0
  4 32  1  0
  6 33  1  0
  7 34  1  0
 13 35  1  0
 16 36  1  0
 17 37  1  0
 18 38  1  0
 21 39  1  0
 22 40  1  0
 25 41  1  0
 26 42  1  0
 29 43  1  0
 29 44  1  0
M  CHG  3   3  -1  15  -1  19  -1
M  END
>  <UniqueID>  (21) 
20

>  <SMILES>  (21) 
O=C([N-]Cc1ccc(S(=O)(=O)c2cn[n-]c2)cc1)[N-]c1ccc2c(c1)NC(=O)CO2

>  <Energy>  (21) 
81.6605201090863

>  <Genealogy>  (21) 
O=C([N-]Cc1ccc(S(=O)(=O)c2cn[n-]c2)cc1)[N-]c1ccc2c(c1)NC(=O)CO2 (protonated)
O=C([N-]Cc1ccc(S(=O)(=O)c2cn[n-]c2)cc1)[N-]c1ccc2c(c1)NC(=O)CO2 (3D coordinates assigned)
O=C([N-]Cc1ccc(S(=O)(=O)c2cn[n-]c2)cc1)[N-]c1ccc2c(c1)NC(=O)CO2 (nonaromatic ring conformer: 81.6605201090863 kcal/mol)

>  <smiles>  (21) 
O=C1COc2ccc(NC(=O)NCc3ccc(S(=O)(=O)c4cn[nH]c4)cc3)cc2N1

>  <score_type>  (21) 
oracle

>  <origin>  (21) 
adgpu

>  <m_score__min__energy>  (21) 
-12.49

>  <m_primary>  (21) 
energy

$$$$
21:0
     RDKit          3D

 49 52  0  0  0  0  0  0  0  0999 V2000
   -0.8878   25.9446  -28.3069 H   0  0  0  0  0  0  0  0  0  0  0  0
   -1.3750   25.1370  -28.8730 C   0  0  0  0  0  0  0  0  0  0  0  0
   -2.6390   25.3000  -29.3300 N   0  0  0  0  0  0  0  0  0  0  0  0
   -3.2980   24.3130  -29.9900 C   0  0  0  0  0  0  0  0  0  0  0  0
   -4.6250   24.5260  -30.3790 C   0  0  0  0  0  0  0  0  0  0  0  0
   -5.0869   25.5134  -30.2315 H   0  0  0  0  0  0  0  0  0  0  0  0
   -5.3650   23.4920  -30.9530 C   0  0  0  0  0  0  0  0  0  0  0  0
   -7.0330   23.7600  -31.4240 Cl  0  0  0  0  0  0  0  0  0  0  0  0
   -4.7910   22.2300  -31.1050 C   0  0  0  0  0  0  0  0  0  0  0  0
   -5.3864   21.4050  -31.5232 H   0  0  0  0  0  0  0  0  0  0  0  0
   -3.4640   22.0080  -30.7290 C   0  0  0  0  0  0  0  0  0  0  0  0
   -3.0367   20.9982  -30.8169 H   0  0  0  0  0  0  0  0  0  0  0  0
   -2.6630   23.0640  -30.2370 C   0  0  0  0  0  0  0  0  0  0  0  0
   -1.2850   22.9280  -29.8700 C   0  0  0  0  0  0  0  0  0  0  0  0
   -0.5050   21.9370  -30.2190 N   0  0  0  0  0  0  0  0  0  0  0  0
   -0.6950   20.9270  -31.2180 C   0  0  0  0  0  0  0  0  0  0  0  0
   -0.7750   19.5700  -30.8630 C   0  0  0  0  0  0  0  0  0  0  0  0
   -0.6736   19.2716  -29.8091 H   0  0  0  0  0  0  0  0  0  0  0  0
   -0.9830   18.5990  -31.8450 C   0  0  0  0  0  0  0  0  0  0  0  0
   -1.0237   17.5361  -31.5648 H   0  0  0  0  0  0  0  0  0  0  0  0
   -1.1400   18.9740  -33.1860 C   0  0  0  0  0  0  0  0  0  0  0  0
   -1.3340   17.7330  -34.4200 S   0  0  0  0  0  0  0  0  0  0  0  0
   -0.5040   18.1070  -35.6160 O   0  0  0  0  0  0  0  0  0  0  0  0
   -0.8540   16.4070  -33.8970 O   0  0  0  0  0  0  0  0  0  0  0  0
   -3.0180   17.6190  -34.8800 N   0  0  0  0  0  0  0  0  0  0  0  0
   -3.0530   17.7830  -35.9150 H   0  0  0  0  0  0  0  0  0  0  0  0
   -3.5490   16.2550  -34.6200 C   0  0  0  0  0  0  0  0  0  0  0  0
   -2.7042   15.5533  -34.5566 H   0  0  0  0  0  0  0  0  0  0  0  0
   -4.2272   15.9962  -35.4465 H   0  0  0  0  0  0  0  0  0  0  0  0
   -4.3550   16.1780  -33.3100 C   0  0  0  0  0  0  0  0  0  0  0  0
   -3.6843   16.4062  -32.4685 H   0  0  0  0  0  0  0  0  0  0  0  0
   -4.7699   15.1624  -33.2302 H   0  0  0  0  0  0  0  0  0  0  0  0
   -5.4900   17.1340  -33.2880 N   0  0  0  0  0  0  0  0  0  0  0  0
   -6.7580   16.4730  -33.6350 C   0  0  0  0  0  0  0  0  0  0  0  0
   -7.2908   16.1952  -32.7136 H   0  0  0  0  0  0  0  0  0  0  0  0
   -7.3807   17.1612  -34.2254 H   0  0  0  0  0  0  0  0  0  0  0  0
   -6.5504   15.5684  -34.2254 H   0  0  0  0  0  0  0  0  0  0  0  0
   -5.2800   18.3290  -34.1370 C   0  0  0  0  0  0  0  0  0  0  0  0
   -5.8345   19.1763  -33.7074 H   0  0  0  0  0  0  0  0  0  0  0  0
   -5.6411   18.1035  -35.1513 H   0  0  0  0  0  0  0  0  0  0  0  0
   -3.7940   18.6950  -34.2210 C   0  0  0  0  0  0  0  0  0  0  0  0
   -3.4035   18.8489  -33.2042 H   0  0  0  0  0  0  0  0  0  0  0  0
   -3.6930   19.6145  -34.8163 H   0  0  0  0  0  0  0  0  0  0  0  0
   -1.1010   20.3330  -33.5340 C   0  0  0  0  0  0  0  0  0  0  0  0
   -1.2321   20.6344  -34.5838 H   0  0  0  0  0  0  0  0  0  0  0  0
   -0.8960   21.3050  -32.5500 C   0  0  0  0  0  0  0  0  0  0  0  0
   -0.8927   22.3703  -32.8240 H   0  0  0  0  0  0  0  0  0  0  0  0
   -0.6900   23.9490  -29.1180 C   0  0  0  0  0  0  0  0  0  0  0  0
    0.3255   23.8117  -28.7180 H   0  0  0  0  0  0  0  0  0  0  0  0
  1  2  1  0
  2  3  1  0
  3  4  1  0
  4  5  2  0
  5  6  1  0
  5  7  1  0
  7  8  1  0
  7  9  2  0
  9 10  1  0
  9 11  1  0
 11 12  1  0
 11 13  2  0
 13 14  1  0
 14 15  2  0
 15 16  1  0
 16 17  2  0
 17 18  1  0
 17 19  1  0
 19 20  1  0
 19 21  2  0
 21 22  1  0
 22 23  2  0
 22 24  2  0
 22 25  1  0
 25 26  1  0
 25 27  1  0
 27 28  1  0
 27 29  1  0
 27 30  1  0
 30 31  1  0
 30 32  1  0
 30 33  1  0
 33 34  1  0
 34 35  1  0
 34 36  1  0
 34 37  1  0
 33 38  1  0
 38 39  1  0
 38 40  1  0
 38 41  1  0
 41 42  1  0
 41 43  1  0
 21 44  1  0
 44 45  1  0
 44 46  2  0
 46 47  1  0
 14 48  1  0
 48 49  1  0
 48  2  2  0
 13  4  1  0
 46 16  1  0
 41 25  1  0
M  CHG  2   3  -1  25   1
M  END
>  <UniqueID>  (22) 
21

>  <SMILES>  (22) 
CN1CC[NH+](S(=O)(=O)c2ccc(/N=c3/cc[n-]c4cc(Cl)ccc34)cc2)CC1

>  <Energy>  (22) 
85.34313322549055

>  <Genealogy>  (22) 
CN1CC[NH+](S(=O)(=O)c2ccc(N=c3cc[n-]c4cc(Cl)ccc34)cc2)CC1 (protonated)
CN1CC[NH+](S(=O)(=O)c2ccc(/N=c3/cc[n-]c4cc(Cl)ccc34)cc2)CC1 (cis-trans isomerization)
CN1CC[NH+](S(=O)(=O)c2ccc(/N=c3/cc[n-]c4cc(Cl)ccc34)cc2)CC1 (3D coordinates assigned)
CN1CC[NH+](S(=O)(=O)c2ccc(/N=c3/cc[n-]c4cc(Cl)ccc34)cc2)CC1 (nonaromatic ring conformer: 85.34313322549055 kcal/mol)

>  <smiles>  (22) 
CN1CCN(S(=O)(=O)c2ccc(N=c3cc[nH]c4cc(Cl)ccc34)cc2)CC1

>  <score_type>  (22) 
oracle

>  <origin>  (22) 
adgpu

>  <m_score__min__energy>  (22) 
-9.4299999999999997

>  <m_primary>  (22) 
energy

$$$$
22:0
     RDKit          3D

 55 58  0  0  0  0  0  0  0  0999 V2000
   -4.4940   22.4100  -33.0900 O   0  0  0  0  0  0  0  0  0  0  0  0
   -3.4560   21.9800  -32.5230 C   0  0  0  0  0  0  0  0  0  0  0  0
   -2.7630   22.8330  -31.6000 N   0  0  0  0  0  0  0  0  0  0  0  0
   -3.0090   22.9320  -30.1890 C   0  0  0  0  0  0  0  0  0  0  0  0
   -2.9400   21.8050  -29.3450 C   0  0  0  0  0  0  0  0  0  0  0  0
   -3.1760   21.9360  -27.9740 C   0  0  0  0  0  0  0  0  0  0  0  0
   -3.5040   23.1820  -27.4330 C   0  0  0  0  0  0  0  0  0  0  0  0
   -3.6070   24.3000  -28.2680 C   0  0  0  0  0  0  0  0  0  0  0  0
   -3.3660   24.1760  -29.6420 C   0  0  0  0  0  0  0  0  0  0  0  0
   -3.4750   25.2950  -30.4610 O   0  0  0  0  0  0  0  0  0  0  0  0
   -2.9870   20.6160  -32.8350 C   0  0  0  0  0  0  0  0  0  0  0  0
   -3.8490   19.7590  -33.4420 N   0  0  0  0  0  0  0  0  0  0  0  0
   -3.4940   18.4790  -33.7270 C   0  0  0  0  0  0  0  0  0  0  0  0
   -4.6420   17.4100  -34.5080 S   0  0  0  0  0  0  0  0  0  0  0  0
   -5.3200   18.1380  -35.6340 O   0  0  0  0  0  0  0  0  0  0  0  0
   -3.9120   16.2190  -35.0630 O   0  0  0  0  0  0  0  0  0  0  0  0
   -5.8700   16.8680  -33.3300 C   0  0  0  0  0  0  0  0  0  0  0  0
   -6.6790   18.0360  -32.8360 C   0  0  0  0  0  0  0  0  0  0  0  0
   -6.6150   19.2730  -33.4940 C   0  0  0  0  0  0  0  0  0  0  0  0
   -7.3870   20.3500  -33.0490 C   0  0  0  0  0  0  0  0  0  0  0  0
   -8.2370   20.2020  -31.9450 C   0  0  0  0  0  0  0  0  0  0  0  0
   -9.1700   21.5750  -31.3600 S   0  0  0  0  0  0  0  0  0  0  0  0
   -9.8410   21.2170  -30.0610 O   0  0  0  0  0  0  0  0  0  0  0  0
  -10.2330   21.9090  -32.3700 O   0  0  0  0  0  0  0  0  0  0  0  0
   -8.1150   22.9490  -31.1390 N   0  0  0  0  0  0  0  0  0  0  0  0
   -7.2850   23.1470  -32.3420 C   0  0  0  0  0  0  0  0  0  0  0  0
   -6.1550   24.1610  -32.0720 C   0  0  0  0  0  0  0  0  0  0  0  0
   -6.3730   24.8530  -30.8580 O   0  0  0  0  0  0  0  0  0  0  0  0
   -6.3090   23.9430  -29.7730 C   0  0  0  0  0  0  0  0  0  0  0  0
   -7.2610   22.7400  -29.9590 C   0  0  0  0  0  0  0  0  0  0  0  0
   -8.3090   18.9640  -31.2900 C   0  0  0  0  0  0  0  0  0  0  0  0
   -7.5390   17.8840  -31.7360 C   0  0  0  0  0  0  0  0  0  0  0  0
   -2.2510   18.0340  -33.4120 N   0  0  0  0  0  0  0  0  0  0  0  0
   -1.3470   18.8540  -32.8190 C   0  0  0  0  0  0  0  0  0  0  0  0
   -1.6860   20.1740  -32.5200 C   0  0  0  0  0  0  0  0  0  0  0  0
   -0.4570   21.2360  -31.8420 Cl  0  0  0  0  0  0  0  0  0  0  0  0
   -2.6994   20.8183  -29.7675 H   0  0  0  0  0  0  0  0  0  0  0  0
   -3.1034   21.0556  -27.3186 H   0  0  0  0  0  0  0  0  0  0  0  0
   -3.6810   23.2837  -26.3521 H   0  0  0  0  0  0  0  0  0  0  0  0
   -3.8778   25.2784  -27.8444 H   0  0  0  0  0  0  0  0  0  0  0  0
   -6.5403   16.1424  -33.8140 H   0  0  0  0  0  0  0  0  0  0  0  0
   -5.3600   16.4015  -32.4742 H   0  0  0  0  0  0  0  0  0  0  0  0
   -5.9540   19.3962  -34.3646 H   0  0  0  0  0  0  0  0  0  0  0  0
   -7.3269   21.3181  -33.5679 H   0  0  0  0  0  0  0  0  0  0  0  0
   -6.8418   22.1841  -32.6359 H   0  0  0  0  0  0  0  0  0  0  0  0
   -7.9230   23.5391  -33.1477 H   0  0  0  0  0  0  0  0  0  0  0  0
   -5.1968   23.6241  -32.0127 H   0  0  0  0  0  0  0  0  0  0  0  0
   -6.1374   24.8924  -32.8935 H   0  0  0  0  0  0  0  0  0  0  0  0
   -5.2784   23.5683  -29.6860 H   0  0  0  0  0  0  0  0  0  0  0  0
   -6.6194   24.4802  -28.8647 H   0  0  0  0  0  0  0  0  0  0  0  0
   -6.6675   21.8242  -30.0970 H   0  0  0  0  0  0  0  0  0  0  0  0
   -7.8970   22.6428  -29.0668 H   0  0  0  0  0  0  0  0  0  0  0  0
   -8.9735   18.8414  -30.4220 H   0  0  0  0  0  0  0  0  0  0  0  0
   -7.6075   16.9131  -31.2235 H   0  0  0  0  0  0  0  0  0  0  0  0
   -0.3434   18.4767  -32.5732 H   0  0  0  0  0  0  0  0  0  0  0  0
  1  2  2  0
  2  3  1  0
  3  4  1  0
  4  5  2  0
  5  6  1  0
  6  7  2  0
  7  8  1  0
  8  9  2  0
  9 10  1  0
  2 11  1  0
 11 12  2  0
 12 13  1  0
 13 14  1  0
 14 15  2  0
 14 16  2  0
 14 17  1  0
 17 18  1  0
 18 19  2  0
 19 20  1  0
 20 21  2  0
 21 22  1  0
 22 23  2  0
 22 24  2  0
 22 25  1  0
 25 26  1  0
 26 27  1  0
 27 28  1  0
 28 29  1  0
 29 30  1  0
 21 31  1  0
 31 32  2  0
 13 33  2  0
 33 34  1  0
 34 35  2  0
 35 36  1  0
  9  4  1  0
 35 11  1  0
 32 18  1  0
 30 25  1  0
  5 37  1  0
  6 38  1  0
  7 39  1  0
  8 40  1  0
 17 41  1  0
 17 42  1  0
 19 43  1  0
 20 44  1  0
 26 45  1  0
 26 46  1  0
 27 47  1  0
 27 48  1  0
 29 49  1  0
 29 50  1  0
 30 51  1  0
 30 52  1  0
 31 53  1  0
 32 54  1  0
 34 55  1  0
M  CHG  2   3  -1  10  -1
M  END
>  <UniqueID>  (23) 
22

>  <SMILES>  (23) 
O=C([N-]c1ccccc1[O-])c1nc(S(=O)(=O)Cc2ccc(S(=O)(=O)N3CCOCC3)cc2)ncc1Cl

>  <Energy>  (23) 
71.34907956920603

>  <Genealogy>  (23) 
O=C([N-]c1ccccc1[O-])c1nc(S(=O)(=O)Cc2ccc(S(=O)(=O)N3CCOCC3)cc2)ncc1Cl (protonated)
O=C([N-]c1ccccc1[O-])c1nc(S(=O)(=O)Cc2ccc(S(=O)(=O)N3CCOCC3)cc2)ncc1Cl (3D coordinates assigned)
O=C([N-]c1ccccc1[O-])c1nc(S(=O)(=O)Cc2ccc(S(=O)(=O)N3CCOCC3)cc2)ncc1Cl (nonaromatic ring conformer: 71.34907956920603 kcal/mol)

>  <smiles>  (23) 
O=C(Nc1ccccc1O)c1nc(S(=O)(=O)Cc2ccc(S(=O)(=O)N3CCOCC3)cc2)ncc1Cl

>  <score_type>  (23) 
oracle

>  <origin>  (23) 
adgpu

>  <m_score__min__energy>  (23) 
-15.66

>  <m_primary>  (23) 
energy

$$$$
23:0
     RDKit          3D

 61 64  0  0  0  0  0  0  0  0999 V2000
   -5.5720   15.6650  -33.7810 C   0  0  0  0  0  0  0  0  0  0  0  0
   -5.7360   17.1260  -33.4630 C   0  0  0  0  0  0  0  0  0  0  0  0
   -7.0070   17.6180  -33.1310 C   0  0  0  0  0  0  0  0  0  0  0  0
   -7.1950   18.9720  -32.8290 C   0  0  0  0  0  0  0  0  0  0  0  0
   -8.5220   19.4600  -32.3920 C   0  0  0  0  0  0  0  0  0  0  0  0
   -9.3730   18.6430  -31.9500 O   0  0  0  0  0  0  0  0  0  0  0  0
   -8.8500   20.8570  -32.4360 N   0  0  0  0  0  0  0  0  0  0  0  0
   -8.0520   21.8760  -31.8200 C   0  0  0  0  0  0  0  0  0  0  0  0
   -7.2540   22.7340  -32.5960 C   0  0  0  0  0  0  0  0  0  0  0  0
   -6.3810   23.6300  -31.9790 C   0  0  0  0  0  0  0  0  0  0  0  0
   -6.2920   23.6770  -30.5820 C   0  0  0  0  0  0  0  0  0  0  0  0
   -5.0670   24.6720  -29.8050 S   0  0  0  0  0  0  0  0  0  0  0  0
   -5.7370   25.6690  -28.9040 O   0  0  0  0  0  0  0  0  0  0  0  0
   -4.2670   25.4230  -30.8290 O   0  0  0  0  0  0  0  0  0  0  0  0
   -4.0040   23.6380  -28.8570 C   0  0  0  0  0  0  0  0  0  0  0  0
   -4.2460   22.3130  -28.5490 C   0  0  0  0  0  0  0  0  0  0  0  0
   -3.1770   21.8340  -27.8830 N   0  0  0  0  0  0  0  0  0  0  0  0
   -2.9550   20.4580  -27.4650 C   0  0  0  0  0  0  0  0  0  0  0  0
   -2.3010   22.8580  -27.8230 C   0  0  0  0  0  0  0  0  0  0  0  0
   -1.1500   22.7650  -27.3190 O   0  0  0  0  0  0  0  0  0  0  0  0
   -2.7820   23.9850  -28.3880 N   0  0  0  0  0  0  0  0  0  0  0  0
   -2.0620   25.2400  -28.5890 C   0  0  0  0  0  0  0  0  0  0  0  0
   -7.1310   22.8640  -29.8090 C   0  0  0  0  0  0  0  0  0  0  0  0
   -8.0220   21.9810  -30.4270 C   0  0  0  0  0  0  0  0  0  0  0  0
   -6.1050   19.8470  -32.8810 C   0  0  0  0  0  0  0  0  0  0  0  0
   -4.8140   19.3720  -33.1610 C   0  0  0  0  0  0  0  0  0  0  0  0
   -3.4260   20.4870  -33.1150 S   0  0  0  0  0  0  0  0  0  0  0  0
   -3.9040   21.8600  -33.4940 O   0  0  0  0  0  0  0  0  0  0  0  0
   -2.4030   20.0450  -34.1250 O   0  0  0  0  0  0  0  0  0  0  0  0
   -2.6030   20.5550  -31.5690 N   0  0  0  0  0  0  0  0  0  0  0  0
   -1.4010   19.7170  -31.5260 C   0  0  0  0  0  0  0  0  0  0  0  0
   -0.3550   20.4680  -30.7230 C   0  0  0  0  0  0  0  0  0  0  0  0
   -0.7590   21.9250  -30.8060 C   0  0  0  0  0  0  0  0  0  0  0  0
   -2.2380   21.9180  -31.1650 C   0  0  0  0  0  0  0  0  0  0  0  0
   -4.6310   18.0070  -33.4760 C   0  0  0  0  0  0  0  0  0  0  0  0
   -3.3520   17.5450  -33.7990 O   0  0  0  0  0  0  0  0  0  0  0  0
   -5.5076   15.0910  -32.8449 H   0  0  0  0  0  0  0  0  0  0  0  0
   -6.4368   15.3176  -34.3653 H   0  0  0  0  0  0  0  0  0  0  0  0
   -4.6517   15.5180  -34.3653 H   0  0  0  0  0  0  0  0  0  0  0  0
   -7.8663   16.9317  -33.1077 H   0  0  0  0  0  0  0  0  0  0  0  0
   -7.3181   22.6988  -33.6936 H   0  0  0  0  0  0  0  0  0  0  0  0
   -5.7609   24.3014  -32.5911 H   0  0  0  0  0  0  0  0  0  0  0  0
   -5.1543   21.7470  -28.8035 H   0  0  0  0  0  0  0  0  0  0  0  0
   -2.9465   20.4054  -26.3663 H   0  0  0  0  0  0  0  0  0  0  0  0
   -3.7620   19.8212  -27.8564 H   0  0  0  0  0  0  0  0  0  0  0  0
   -1.9887   20.1073  -27.8564 H   0  0  0  0  0  0  0  0  0  0  0  0
   -1.8103   25.6788  -27.6122 H   0  0  0  0  0  0  0  0  0  0  0  0
   -1.1377   25.0462  -29.1531 H   0  0  0  0  0  0  0  0  0  0  0  0
   -2.6958   25.9401  -29.1531 H   0  0  0  0  0  0  0  0  0  0  0  0
   -7.0888   22.9204  -28.7113 H   0  0  0  0  0  0  0  0  0  0  0  0
   -8.7004   21.3680  -29.8154 H   0  0  0  0  0  0  0  0  0  0  0  0
   -6.2613   20.9207  -32.7002 H   0  0  0  0  0  0  0  0  0  0  0  0
   -1.6292   18.7562  -31.0414 H   0  0  0  0  0  0  0  0  0  0  0  0
   -1.0355   19.5083  -32.5423 H   0  0  0  0  0  0  0  0  0  0  0  0
   -0.3540   20.1272  -29.6771 H   0  0  0  0  0  0  0  0  0  0  0  0
    0.6599   20.3006  -31.1128 H   0  0  0  0  0  0  0  0  0  0  0  0
   -0.6008   22.4234  -29.8382 H   0  0  0  0  0  0  0  0  0  0  0  0
   -0.1614   22.4721  -31.5501 H   0  0  0  0  0  0  0  0  0  0  0  0
   -2.8350   22.2205  -30.2920 H   0  0  0  0  0  0  0  0  0  0  0  0
   -2.4342   22.6240  -31.9854 H   0  0  0  0  0  0  0  0  0  0  0  0
   -2.5920   18.1520  -34.0650 H   0  0  0  0  0  0  0  0  0  0  0  0
  1  2  1  0
  2  3  2  0
  3  4  1  0
  4  5  1  0
  5  6  2  0
  5  7  1  0
  7  8  1  0
  8  9  2  0
  9 10  1  0
 10 11  2  0
 11 12  1  0
 12 13  2  0
 12 14  2  0
 12 15  1  0
 15 16  2  0
 16 17  1  0
 17 18  1  0
 17 19  1  0
 19 20  2  0
 19 21  1  0
 21 22  1  0
 11 23  1  0
 23 24  2  0
  4 25  2  0
 25 26  1  0
 26 27  1  0
 27 28  2  0
 27 29  2  0
 27 30  1  0
 30 31  1  0
 31 32  1  0
 32 33  1  0
 33 34  1  0
 26 35  2  0
 35 36  1  0
 35  2  1  0
 24  8  1  0
 34 30  1  0
 21 15  1  0
  1 37  1  0
  1 38  1  0
  1 39  1  0
  3 40  1  0
  9 41  1  0
 10 42  1  0
 16 43  1  0
 18 44  1  0
 18 45  1  0
 18 46  1  0
 22 47  1  0
 22 48  1  0
 22 49  1  0
 23 50  1  0
 24 51  1  0
 25 52  1  0
 31 53  1  0
 31 54  1  0
 32 55  1  0
 32 56  1  0
 33 57  1  0
 33 58  1  0
 34 59  1  0
 34 60  1  0
 36 61  1  0
M  CHG  1   7  -1
M  END
>  <UniqueID>  (24) 
23

>  <SMILES>  (24) 
Cc1cc(C(=O)[N-]c2ccc(S(=O)(=O)c3cn(C)c(=O)n3C)cc2)cc(S(=O)(=O)N2CCCC2)c1O

>  <Energy>  (24) 
108.30282913069156

>  <Genealogy>  (24) 
Cc1cc(C(=O)[N-]c2ccc(S(=O)(=O)c3cn(C)c(=O)n3C)cc2)cc(S(=O)(=O)N2CCCC2)c1O (protonated)
Cc1cc(C(=O)[N-]c2ccc(S(=O)(=O)c3cn(C)c(=O)n3C)cc2)cc(S(=O)(=O)N2CCCC2)c1O (3D coordinates assigned)
Cc1cc(C(=O)[N-]c2ccc(S(=O)(=O)c3cn(C)c(=O)n3C)cc2)cc(S(=O)(=O)N2CCCC2)c1O (nonaromatic ring conformer: 108.30282913069156 kcal/mol)

>  <smiles>  (24) 
Cc1cc(C(=O)Nc2ccc(S(=O)(=O)c3cn(C)c(=O)n3C)cc2)cc(S(=O)(=O)N2CCCC2)c1O

>  <score_type>  (24) 
oracle

>  <origin>  (24) 
adgpu

>  <m_score__min__energy>  (24) 
-11.880000000000001

>  <m_primary>  (24) 
energy

$$$$
24:0
     RDKit          3D

 65 68  0  0  0  0  0  0  0  0999 V2000
   -2.9580   20.5230  -30.6980 O   0  0  0  0  0  0  0  0  0  0  0  0
   -2.0300   21.3520  -30.9110 C   0  0  0  0  0  0  0  0  0  0  0  0
   -0.6330   20.8480  -31.1060 C   0  0  0  0  0  0  0  0  0  0  0  0
   -0.5190   20.1170  -32.4150 C   0  0  0  0  0  0  0  0  0  0  0  0
    0.5240   20.4160  -33.3070 C   0  0  0  0  0  0  0  0  0  0  0  0
    0.6080   19.7580  -34.5370 C   0  0  0  0  0  0  0  0  0  0  0  0
   -0.3500   18.8060  -34.8900 C   0  0  0  0  0  0  0  0  0  0  0  0
   -1.3990   18.5040  -34.0110 C   0  0  0  0  0  0  0  0  0  0  0  0
   -2.6370   17.3350  -34.4610 S   0  0  0  0  0  0  0  0  0  0  0  0
   -2.2080   16.5890  -35.6950 O   0  0  0  0  0  0  0  0  0  0  0  0
   -2.7930   16.3540  -33.3330 O   0  0  0  0  0  0  0  0  0  0  0  0
   -4.1470   18.1720  -34.7510 N   0  0  0  0  0  0  0  0  0  0  0  0
   -5.2760   17.2300  -34.9650 C   0  0  0  0  0  0  0  0  0  0  0  0
   -6.3900   17.3340  -33.9080 C   0  0  0  0  0  0  0  0  0  0  0  0
   -5.7900   17.4370  -32.5060 C   0  0  0  0  0  0  0  0  0  0  0  0
   -4.8460   18.6440  -32.3770 C   0  0  0  0  0  0  0  0  0  0  0  0
   -4.4010   19.2170  -33.7380 C   0  0  0  0  0  0  0  0  0  0  0  0
   -1.4810   19.1610  -32.7780 C   0  0  0  0  0  0  0  0  0  0  0  0
   -2.2850   22.7670  -30.8710 N   0  0  0  0  0  0  0  0  0  0  0  0
   -3.5990   23.3550  -30.8440 C   0  0  0  0  0  0  0  0  0  0  0  0
   -4.7000   22.7130  -31.4420 C   0  0  0  0  0  0  0  0  0  0  0  0
   -5.9630   23.3170  -31.4430 C   0  0  0  0  0  0  0  0  0  0  0  0
   -7.3270   22.4840  -32.1830 S   0  0  0  0  0  0  0  0  0  0  0  0
   -6.8240   21.7270  -33.3800 O   0  0  0  0  0  0  0  0  0  0  0  0
   -8.3500   23.4830  -32.6490 O   0  0  0  0  0  0  0  0  0  0  0  0
   -8.0450   21.3650  -31.0490 N   0  0  0  0  0  0  0  0  0  0  0  0
   -9.5180   21.4580  -31.0350 C   0  0  0  0  0  0  0  0  0  0  0  0
  -10.1760   20.8060  -32.2660 C   0  0  0  0  0  0  0  0  0  0  0  0
   -9.4910   19.4960  -32.6950 C   0  0  0  0  0  0  0  0  0  0  0  0
   -8.5730   18.9450  -31.6030 C   0  0  0  0  0  0  0  0  0  0  0  0
   -7.5120   19.9890  -31.2160 C   0  0  0  0  0  0  0  0  0  0  0  0
   -6.1340   24.5720  -30.8460 C   0  0  0  0  0  0  0  0  0  0  0  0
   -5.0450   25.2240  -30.2680 C   0  0  0  0  0  0  0  0  0  0  0  0
   -3.7810   24.6270  -30.2720 C   0  0  0  0  0  0  0  0  0  0  0  0
   -2.7090   25.2990  -29.6970 O   0  0  0  0  0  0  0  0  0  0  0  0
    0.0634   21.6995  -31.1042 H   0  0  0  0  0  0  0  0  0  0  0  0
   -0.3851   20.1562  -30.2875 H   0  0  0  0  0  0  0  0  0  0  0  0
    1.2772   21.1706  -33.0365 H   0  0  0  0  0  0  0  0  0  0  0  0
    1.4310   19.9908  -35.2287 H   0  0  0  0  0  0  0  0  0  0  0  0
   -0.2814   18.2918  -35.8600 H   0  0  0  0  0  0  0  0  0  0  0  0
   -5.7158   17.4364  -35.9519 H   0  0  0  0  0  0  0  0  0  0  0  0
   -4.8605   16.2143  -34.8891 H   0  0  0  0  0  0  0  0  0  0  0  0
   -6.9969   18.2292  -34.1086 H   0  0  0  0  0  0  0  0  0  0  0  0
   -7.0164   16.4313  -33.9614 H   0  0  0  0  0  0  0  0  0  0  0  0
   -6.6061   17.5435  -31.7762 H   0  0  0  0  0  0  0  0  0  0  0  0
   -5.2065   16.5242  -32.3155 H   0  0  0  0  0  0  0  0  0  0  0  0
   -5.3657   19.4358  -31.8176 H   0  0  0  0  0  0  0  0  0  0  0  0
   -3.9408   18.2963  -31.8576 H   0  0  0  0  0  0  0  0  0  0  0  0
   -5.1919   19.8833  -34.1129 H   0  0  0  0  0  0  0  0  0  0  0  0
   -3.4544   19.7530  -33.5748 H   0  0  0  0  0  0  0  0  0  0  0  0
   -2.3052   18.9267  -32.0882 H   0  0  0  0  0  0  0  0  0  0  0  0
   -1.4590   23.4100  -30.8440 H   0  0  0  0  0  0  0  0  0  0  0  0
   -4.5667   21.7278  -31.9128 H   0  0  0  0  0  0  0  0  0  0  0  0
   -9.8920   20.9556  -30.1307 H   0  0  0  0  0  0  0  0  0  0  0  0
   -9.7795   22.5263  -31.0503 H   0  0  0  0  0  0  0  0  0  0  0  0
  -11.2276   20.5890  -32.0269 H   0  0  0  0  0  0  0  0  0  0  0  0
  -10.0810   21.5145  -33.1021 H   0  0  0  0  0  0  0  0  0  0  0  0
  -10.2651   18.7474  -32.9192 H   0  0  0  0  0  0  0  0  0  0  0  0
   -8.8750   19.7092  -33.5810 H   0  0  0  0  0  0  0  0  0  0  0  0
   -9.1743   18.6939  -30.7168 H   0  0  0  0  0  0  0  0  0  0  0  0
   -8.0662   18.0459  -31.9836 H   0  0  0  0  0  0  0  0  0  0  0  0
   -7.0534   19.6789  -30.2655 H   0  0  0  0  0  0  0  0  0  0  0  0
   -6.7897   20.0280  -32.0447 H   0  0  0  0  0  0  0  0  0  0  0  0
   -7.1276   25.0438  -30.8329 H   0  0  0  0  0  0  0  0  0  0  0  0
   -5.1814   26.2132  -29.8066 H   0  0  0  0  0  0  0  0  0  0  0  0
  1  2  2  0
  2  3  1  0
  3  4  1  0
  4  5  2  0
  5  6  1  0
  6  7  2  0
  7  8  1  0
  8  9  1  0
  9 10  2  0
  9 11  2  0
  9 12  1  0
 12 13  1  0
 13 14  1  0
 14 15  1  0
 15 16  1  0
 16 17  1  0
  8 18  2  0
  2 19  1  0
 19 20  1  0
 20 21  2  0
 21 22  1  0
 22 23  1  0
 23 24  2  0
 23 25  2  0
 23 26  1  0
 26 27  1  0
 27 28  1  0
 28 29  1  0
 29 30  1  0
 30 31  1  0
 22 32  2  0
 32 33  1  0
 33 34  2  0
 34 35  1  0
 18  4  1  0
 34 20  1  0
 17 12  1  0
 31 26  1  0
  3 36  1  0
  3 37  1  0
  5 38  1  0
  6 39  1  0
  7 40  1  0
 13 41  1  0
 13 42  1  0
 14 43  1  0
 14 44  1  0
 15 45  1  0
 15 46  1  0
 16 47  1  0
 16 48  1  0
 17 49  1  0
 17 50  1  0
 18 51  1  0
 19 52  1  0
 21 53  1  0
 27 54  1  0
 27 55  1  0
 28 56  1  0
 28 57  1  0
 29 58  1  0
 29 59  1  0
 30 60  1  0
 30 61  1  0
 31 62  1  0
 31 63  1  0
 32 64  1  0
 33 65  1  0
M  CHG  1  35  -1
M  END
>  <UniqueID>  (25) 
24

>  <SMILES>  (25) 
O=C(Cc1cccc(S(=O)(=O)N2CCCCC2)c1)Nc1cc(S(=O)(=O)N2CCCCC2)ccc1[O-]

>  <Energy>  (25) 
82.22442780991528

>  <Genealogy>  (25) 
O=C(Cc1cccc(S(=O)(=O)N2CCCCC2)c1)Nc1cc(S(=O)(=O)N2CCCCC2)ccc1[O-] (protonated)
O=C(Cc1cccc(S(=O)(=O)N2CCCCC2)c1)Nc1cc(S(=O)(=O)N2CCCCC2)ccc1[O-] (3D coordinates assigned)
O=C(Cc1cccc(S(=O)(=O)N2CCCCC2)c1)Nc1cc(S(=O)(=O)N2CCCCC2)ccc1[O-] (nonaromatic ring conformer: 82.22442780991528 kcal/mol)

>  <smiles>  (25) 
O=C(Cc1cccc(S(=O)(=O)N2CCCCC2)c1)Nc1cc(S(=O)(=O)N2CCCCC2)ccc1O

>  <score_type>  (25) 
oracle

>  <origin>  (25) 
adgpu

>  <m_score__min__energy>  (25) 
-13.99

>  <m_primary>  (25) 
energy

$$$$
25:0
     RDKit          3D

 60 63  0  0  0  0  0  0  0  0999 V2000
   -6.0970   25.3400  -31.0900 O   0  0  0  0  0  0  0  0  0  0  0  0
   -5.1470   24.5140  -31.0250 C   0  0  0  0  0  0  0  0  0  0  0  0
   -3.8890   24.9090  -30.4700 N   0  0  0  0  0  0  0  0  0  0  0  0
   -3.1200   24.1780  -29.5040 C   0  0  0  0  0  0  0  0  0  0  0  0
   -3.5610   22.9010  -29.1400 C   0  0  0  0  0  0  0  0  0  0  0  0
   -2.9030   22.1800  -28.1390 C   0  0  0  0  0  0  0  0  0  0  0  0
   -1.8030   22.7330  -27.4820 C   0  0  0  0  0  0  0  0  0  0  0  0
   -1.3430   24.0140  -27.8280 C   0  0  0  0  0  0  0  0  0  0  0  0
    0.0470   24.6880  -26.9580 S   0  0  0  0  0  0  0  0  0  0  0  0
    1.1610   24.9140  -27.9430 O   0  0  0  0  0  0  0  0  0  0  0  0
    0.5410   23.7070  -25.9340 O   0  0  0  0  0  0  0  0  0  0  0  0
   -0.3500   26.1890  -26.1450 N   0  0  0  0  0  0  0  0  0  0  0  0
   -0.2930   26.0100  -24.6780 C   0  0  0  0  0  0  0  0  0  0  0  0
   -0.4990   27.3460  -23.9210 C   0  0  0  0  0  0  0  0  0  0  0  0
   -0.9080   28.4900  -24.8600 C   0  0  0  0  0  0  0  0  0  0  0  0
    0.0870   28.6340  -26.0220 C   0  0  0  0  0  0  0  0  0  0  0  0
    0.5560   27.2710  -26.5760 C   0  0  0  0  0  0  0  0  0  0  0  0
   -2.0100   24.7450  -28.8370 C   0  0  0  0  0  0  0  0  0  0  0  0
   -1.5920   26.0380  -29.1520 O   0  0  0  0  0  0  0  0  0  0  0  0
   -5.2900   23.1950  -31.5710 N   0  0  0  0  0  0  0  0  0  0  0  0
   -6.5500   22.5290  -31.7670 C   0  0  0  0  0  0  0  0  0  0  0  0
   -7.7600   23.2440  -31.8220 C   0  0  0  0  0  0  0  0  0  0  0  0
   -8.9750   22.5660  -31.9580 C   0  0  0  0  0  0  0  0  0  0  0  0
   -8.9970   21.1730  -32.0260 C   0  0  0  0  0  0  0  0  0  0  0  0
   -7.8020   20.4460  -31.9560 C   0  0  0  0  0  0  0  0  0  0  0  0
   -7.8260   18.6810  -32.0370 S   0  0  0  0  0  0  0  0  0  0  0  0
   -7.0550   18.1240  -30.8720 O   0  0  0  0  0  0  0  0  0  0  0  0
   -9.2470   18.2040  -31.9200 O   0  0  0  0  0  0  0  0  0  0  0  0
   -7.1400   18.0800  -33.5320 N   0  0  0  0  0  0  0  0  0  0  0  0
   -6.4620   16.7950  -33.3300 C   0  0  0  0  0  0  0  0  0  0  0  0
   -4.9590   17.0400  -33.2810 C   0  0  0  0  0  0  0  0  0  0  0  0
   -4.7600   18.4930  -33.6460 C   0  0  0  0  0  0  0  0  0  0  0  0
   -6.1310   19.0000  -34.0620 C   0  0  0  0  0  0  0  0  0  0  0  0
   -6.5830   21.1280  -31.8250 C   0  0  0  0  0  0  0  0  0  0  0  0
   -4.4329   22.4605  -29.6457 H   0  0  0  0  0  0  0  0  0  0  0  0
   -3.2537   21.1731  -27.8683 H   0  0  0  0  0  0  0  0  0  0  0  0
   -1.2944   22.1634  -26.6902 H   0  0  0  0  0  0  0  0  0  0  0  0
   -1.0816   25.3053  -24.3755 H   0  0  0  0  0  0  0  0  0  0  0  0
    0.7050   25.6250  -24.4216 H   0  0  0  0  0  0  0  0  0  0  0  0
   -1.2881   27.2076  -23.1672 H   0  0  0  0  0  0  0  0  0  0  0  0
    0.4586   27.6196  -23.4540 H   0  0  0  0  0  0  0  0  0  0  0  0
   -1.9081   28.2805  -25.2672 H   0  0  0  0  0  0  0  0  0  0  0  0
   -0.9132   29.4284  -24.2860 H   0  0  0  0  0  0  0  0  0  0  0  0
   -0.3984   29.1958  -26.8336 H   0  0  0  0  0  0  0  0  0  0  0  0
    0.9735   29.1598  -25.6377 H   0  0  0  0  0  0  0  0  0  0  0  0
    0.5689   27.3139  -27.6751 H   0  0  0  0  0  0  0  0  0  0  0  0
    1.5639   27.0615  -26.1885 H   0  0  0  0  0  0  0  0  0  0  0  0
   -4.4120   22.6650  -31.7830 H   0  0  0  0  0  0  0  0  0  0  0  0
   -7.7502   24.3421  -31.7577 H   0  0  0  0  0  0  0  0  0  0  0  0
   -9.9163   23.1327  -32.0115 H   0  0  0  0  0  0  0  0  0  0  0  0
   -9.9553   20.6441  -32.1349 H   0  0  0  0  0  0  0  0  0  0  0  0
   -6.7951   16.3452  -32.3830 H   0  0  0  0  0  0  0  0  0  0  0  0
   -6.7039   16.1090  -34.1552 H   0  0  0  0  0  0  0  0  0  0  0  0
   -4.5728   16.8439  -32.2699 H   0  0  0  0  0  0  0  0  0  0  0  0
   -4.4202   16.3744  -33.9714 H   0  0  0  0  0  0  0  0  0  0  0  0
   -4.3876   19.0593  -32.7796 H   0  0  0  0  0  0  0  0  0  0  0  0
   -4.0196   18.6134  -34.4505 H   0  0  0  0  0  0  0  0  0  0  0  0
   -6.2949   20.0080  -33.6532 H   0  0  0  0  0  0  0  0  0  0  0  0
   -6.2009   19.0494  -35.1587 H   0  0  0  0  0  0  0  0  0  0  0  0
   -5.6438   20.5583  -31.7672 H   0  0  0  0  0  0  0  0  0  0  0  0
  1  2  2  0
  2  3  1  0
  3  4  1  0
  4  5  2  0
  5  6  1  0
  6  7  2  0
  7  8  1  0
  8  9  1  0
  9 10  2  0
  9 11  2  0
  9 12  1  0
 12 13  1  0
 13 14  1  0
 14 15  1  0
 15 16  1  0
 16 17  1  0
  8 18  2  0
 18 19  1  0
  2 20  1  0
 20 21  1  0
 21 22  2  0
 22 23  1  0
 23 24  2  0
 24 25  1  0
 25 26  1  0
 26 27  2  0
 26 28  2  0
 26 29  1  0
 29 30  1  0
 30 31  1  0
 31 32  1  0
 32 33  1  0
 25 34  2  0
 18  4  1  0
 34 21  1  0
 17 12  1  0
 33 29  1  0
  5 35  1  0
  6 36  1  0
  7 37  1  0
 13 38  1  0
 13 39  1  0
 14 40  1  0
 14 41  1  0
 15 42  1  0
 15 43  1  0
 16 44  1  0
 16 45  1  0
 17 46  1  0
 17 47  1  0
 20 48  1  0
 22 49  1  0
 23 50  1  0
 24 51  1  0
 30 52  1  0
 30 53  1  0
 31 54  1  0
 31 55  1  0
 32 56  1  0
 32 57  1  0
 33 58  1  0
 33 59  1  0
 34 60  1  0
M  CHG  2   3  -1  19  -1
M  END
>  <UniqueID>  (26) 
25

>  <SMILES>  (26) 
O=C([N-]c1cccc(S(=O)(=O)N2CCCCC2)c1[O-])Nc1cccc(S(=O)(=O)N2CCCC2)c1

>  <Energy>  (26) 
76.58327209581569

>  <Genealogy>  (26) 
O=C([N-]c1cccc(S(=O)(=O)N2CCCCC2)c1[O-])Nc1cccc(S(=O)(=O)N2CCCC2)c1 (protonated)
O=C([N-]c1cccc(S(=O)(=O)N2CCCCC2)c1[O-])Nc1cccc(S(=O)(=O)N2CCCC2)c1 (3D coordinates assigned)
O=C([N-]c1cccc(S(=O)(=O)N2CCCCC2)c1[O-])Nc1cccc(S(=O)(=O)N2CCCC2)c1 (nonaromatic ring conformer: 76.58327209581569 kcal/mol)

>  <smiles>  (26) 
O=C(Nc1cccc(S(=O)(=O)N2CCCC2)c1)Nc1cccc(S(=O)(=O)N2CCCCC2)c1O

>  <score_type>  (26) 
oracle

>  <origin>  (26) 
adgpu

>  <m_score__min__energy>  (26) 
-16.34

>  <m_primary>  (26) 
energy

$$$$
26:0
     RDKit          3D

 41 44  0  0  0  0  0  0  0  0999 V2000
   -7.8920   22.3760  -30.7140 C   0  0  0  0  0  0  0  0  0  0  0  0
   -7.1390   21.3080  -31.4670 C   0  0  0  0  0  0  0  0  0  0  0  0
   -7.8450   20.1590  -31.8980 C   0  0  0  0  0  0  0  0  0  0  0  0
   -7.1520   19.1920  -32.6140 C   0  0  0  0  0  0  0  0  0  0  0  0
   -7.6250   18.0290  -33.1000 N   0  0  0  0  0  0  0  0  0  0  0  0
   -6.5140   17.5100  -33.6890 C   0  0  0  0  0  0  0  0  0  0  0  0
   -6.5090   16.3950  -34.2780 O   0  0  0  0  0  0  0  0  0  0  0  0
   -5.4380   18.2750  -33.5850 O   0  0  0  0  0  0  0  0  0  0  0  0
   -5.8270   19.3270  -32.9120 C   0  0  0  0  0  0  0  0  0  0  0  0
   -5.0870   20.4350  -32.5210 C   0  0  0  0  0  0  0  0  0  0  0  0
   -5.7450   21.4480  -31.7830 C   0  0  0  0  0  0  0  0  0  0  0  0
   -4.8230   22.8670  -31.2640 S   0  0  0  0  0  0  0  0  0  0  0  0
   -3.5050   22.8760  -31.9880 O   0  0  0  0  0  0  0  0  0  0  0  0
   -5.5470   24.1480  -31.5840 O   0  0  0  0  0  0  0  0  0  0  0  0
   -4.5320   22.7800  -29.5590 N   0  0  0  0  0  0  0  0  0  0  0  0
   -3.3660   23.2810  -28.8890 C   0  0  0  0  0  0  0  0  0  0  0  0
   -2.7490   22.5570  -27.8520 C   0  0  0  0  0  0  0  0  0  0  0  0
   -1.6540   23.0950  -27.1590 C   0  0  0  0  0  0  0  0  0  0  0  0
   -1.1120   24.3340  -27.5550 C   0  0  0  0  0  0  0  0  0  0  0  0
   -1.7250   25.0520  -28.5940 C   0  0  0  0  0  0  0  0  0  0  0  0
   -2.8470   24.5390  -29.2540 C   0  0  0  0  0  0  0  0  0  0  0  0
   -3.4250   25.2950  -30.2820 O   0  0  0  0  0  0  0  0  0  0  0  0
    0.0320   24.9630  -26.7860 C   0  0  0  0  0  0  0  0  0  0  0  0
    0.7520   23.9660  -25.9740 N   0  0  0  0  0  0  0  0  0  0  0  0
   -0.1740   23.2010  -25.1420 C   0  0  0  0  0  0  0  0  0  0  0  0
   -1.0360   22.3110  -26.0320 C   0  0  0  0  0  0  0  0  0  0  0  0
   -7.7767   22.2125  -29.6324 H   0  0  0  0  0  0  0  0  0  0  0  0
   -7.4902   23.3648  -30.9802 H   0  0  0  0  0  0  0  0  0  0  0  0
   -8.9583   22.3297  -30.9802 H   0  0  0  0  0  0  0  0  0  0  0  0
   -8.9144   20.0356  -31.6716 H   0  0  0  0  0  0  0  0  0  0  0  0
   -4.0209   20.5230  -32.7772 H   0  0  0  0  0  0  0  0  0  0  0  0
   -3.1285   21.5604  -27.5823 H   0  0  0  0  0  0  0  0  0  0  0  0
   -1.3184   26.0295  -28.8928 H   0  0  0  0  0  0  0  0  0  0  0  0
   -3.5580   24.9270  -31.2160 H   0  0  0  0  0  0  0  0  0  0  0  0
    0.7350   25.4172  -27.4998 H   0  0  0  0  0  0  0  0  0  0  0  0
   -0.3850   25.7226  -26.1085 H   0  0  0  0  0  0  0  0  0  0  0  0
    1.3990   24.4820  -25.3340 H   0  0  0  0  0  0  0  0  0  0  0  0
    0.3953   22.5756  -24.4385 H   0  0  0  0  0  0  0  0  0  0  0  0
   -0.8182   23.8915  -24.5779 H   0  0  0  0  0  0  0  0  0  0  0  0
   -0.4088   21.5118  -26.4538 H   0  0  0  0  0  0  0  0  0  0  0  0
   -1.8460   21.8890  -25.4189 H   0  0  0  0  0  0  0  0  0  0  0  0
  1  2  1  0
  2  3  2  0
  3  4  1  0
  4  5  1  0
  5  6  1  0
  6  7  2  0
  6  8  1  0
  8  9  1  0
  9 10  1  0
 10 11  2  0
 11 12  1  0
 12 13  2  0
 12 14  2  0
 12 15  1  0
 15 16  1  0
 16 17  2  0
 17 18  1  0
 18 19  2  0
 19 20  1  0
 20 21  2  0
 21 22  1  0
 19 23  1  0
 23 24  1  0
 24 25  1  0
 25 26  1  0
 11  2  1  0
 21 16  1  0
  9  4  2  0
 26 18  1  0
  1 27  1  0
  1 28  1  0
  1 29  1  0
  3 30  1  0
 10 31  1  0
 17 32  1  0
 20 33  1  0
 22 34  1  0
 23 35  1  0
 23 36  1  0
 24 37  1  0
 25 38  1  0
 25 39  1  0
 26 40  1  0
 26 41  1  0
M  CHG  2   5  -1  15  -1
M  END
>  <UniqueID>  (27) 
26

>  <SMILES>  (27) 
Cc1cc2[n-]c(=O)oc2cc1S(=O)(=O)[N-]c1cc2c(cc1O)CNCC2

>  <Energy>  (27) 
89.63263817391301

>  <Genealogy>  (27) 
Cc1cc2[n-]c(=O)oc2cc1S(=O)(=O)[N-]c1cc2c(cc1O)CNCC2 (protonated)
Cc1cc2[n-]c(=O)oc2cc1S(=O)(=O)[N-]c1cc2c(cc1O)CNCC2 (3D coordinates assigned)
Cc1cc2[n-]c(=O)oc2cc1S(=O)(=O)[N-]c1cc2c(cc1O)CNCC2 (nonaromatic ring conformer: 89.63263817391301 kcal/mol)

>  <smiles>  (27) 
Cc1cc2[nH]c(=O)oc2cc1S(=O)(=O)Nc1cc2c(cc1O)CNCC2

>  <score_type>  (27) 
oracle

>  <origin>  (27) 
adgpu

>  <m_score__min__energy>  (27) 
-10.81

>  <m_primary>  (27) 
energy

$$$$
27:0
     RDKit          3D

 57 60  0  0  0  0  0  0  0  0999 V2000
   -9.4670   19.3300  -32.7350 C   0  0  0  0  0  0  0  0  0  0  0  0
   -8.2870   20.1740  -32.3710 C   0  0  0  0  0  0  0  0  0  0  0  0
   -8.3810   21.3260  -31.6670 N   0  0  0  0  0  0  0  0  0  0  0  0
   -7.1230   21.7800  -31.5340 C   0  0  0  0  0  0  0  0  0  0  0  0
   -6.7140   22.9250  -30.8540 C   0  0  0  0  0  0  0  0  0  0  0  0
   -5.3370   23.2150  -30.8110 C   0  0  0  0  0  0  0  0  0  0  0  0
   -4.7720   24.6300  -29.9310 S   0  0  0  0  0  0  0  0  0  0  0  0
   -4.2640   25.6730  -30.8870 O   0  0  0  0  0  0  0  0  0  0  0  0
   -5.9170   25.2090  -29.1480 O   0  0  0  0  0  0  0  0  0  0  0  0
   -3.4840   24.1600  -28.8400 C   0  0  0  0  0  0  0  0  0  0  0  0
   -3.6160   23.2970  -27.7600 C   0  0  0  0  0  0  0  0  0  0  0  0
   -2.4180   23.1040  -27.0660 C   0  0  0  0  0  0  0  0  0  0  0  0
   -1.3550   23.8120  -27.6110 C   0  0  0  0  0  0  0  0  0  0  0  0
    0.2950   23.8080  -27.0070 S   0  0  0  0  0  0  0  0  0  0  0  0
    1.1190   24.7570  -27.8320 O   0  0  0  0  0  0  0  0  0  0  0  0
    0.8700   22.4280  -27.1650 O   0  0  0  0  0  0  0  0  0  0  0  0
    0.3670   24.2810  -25.3270 N   0  0  0  0  0  0  0  0  0  0  0  0
   -0.1140   23.1830  -24.4800 C   0  0  0  0  0  0  0  0  0  0  0  0
    1.7470   24.6320  -24.9690 C   0  0  0  0  0  0  0  0  0  0  0  0
   -1.8900   24.6840  -28.9480 S   0  0  0  0  0  0  0  0  0  0  0  0
   -4.4110   22.3470  -31.4350 C   0  0  0  0  0  0  0  0  0  0  0  0
   -4.8520   21.1970  -32.1140 C   0  0  0  0  0  0  0  0  0  0  0  0
   -6.2240   20.9420  -32.1490 C   0  0  0  0  0  0  0  0  0  0  0  0
   -6.9590   19.9080  -32.7030 C   0  0  0  0  0  0  0  0  0  0  0  0
   -6.3630   18.4860  -33.5630 S   0  0  0  0  0  0  0  0  0  0  0  0
   -6.0900   18.8200  -35.0020 O   0  0  0  0  0  0  0  0  0  0  0  0
   -7.4320   17.4300  -33.5230 O   0  0  0  0  0  0  0  0  0  0  0  0
   -4.9170   17.8740  -32.7900 N   0  0  0  0  0  0  0  0  0  0  0  0
   -3.7100   18.1090  -33.6050 C   0  0  0  0  0  0  0  0  0  0  0  0
   -3.5850   17.1230  -34.7870 C   0  0  0  0  0  0  0  0  0  0  0  0
   -4.0740   15.7640  -34.4890 N   0  0  0  0  0  0  0  0  0  0  0  0
   -4.1240   15.4900  -33.0510 C   0  0  0  0  0  0  0  0  0  0  0  0
   -5.0760   16.4690  -32.3420 C   0  0  0  0  0  0  0  0  0  0  0  0
   -9.9615   18.9763  -31.8183 H   0  0  0  0  0  0  0  0  0  0  0  0
  -10.1761   19.9270  -33.3272 H   0  0  0  0  0  0  0  0  0  0  0  0
   -9.1311   18.4660  -33.3272 H   0  0  0  0  0  0  0  0  0  0  0  0
   -9.2510   21.7630  -31.2880 H   0  0  0  0  0  0  0  0  0  0  0  0
   -7.4463   23.5839  -30.3645 H   0  0  0  0  0  0  0  0  0  0  0  0
   -4.5645   22.8155  -27.4798 H   0  0  0  0  0  0  0  0  0  0  0  0
   -2.3268   22.4583  -26.1801 H   0  0  0  0  0  0  0  0  0  0  0  0
    0.0060   23.4569  -23.4214 H   0  0  0  0  0  0  0  0  0  0  0  0
   -1.1769   22.9950  -24.6919 H   0  0  0  0  0  0  0  0  0  0  0  0
    0.4684   22.2742  -24.6919 H   0  0  0  0  0  0  0  0  0  0  0  0
    1.8466   24.6573  -23.8738 H   0  0  0  0  0  0  0  0  0  0  0  0
    2.4356   23.8804  -25.3825 H   0  0  0  0  0  0  0  0  0  0  0  0
    1.9928   25.6213  -25.3825 H   0  0  0  0  0  0  0  0  0  0  0  0
   -3.3356   22.5735  -31.3888 H   0  0  0  0  0  0  0  0  0  0  0  0
   -4.1371   20.5188  -32.6029 H   0  0  0  0  0  0  0  0  0  0  0  0
   -3.7494   19.1332  -34.0043 H   0  0  0  0  0  0  0  0  0  0  0  0
   -2.8362   17.9583  -32.9540 H   0  0  0  0  0  0  0  0  0  0  0  0
   -4.1648   17.5215  -35.6326 H   0  0  0  0  0  0  0  0  0  0  0  0
   -2.5124   17.0326  -35.0138 H   0  0  0  0  0  0  0  0  0  0  0  0
   -5.0380   15.6500  -34.8820 H   0  0  0  0  0  0  0  0  0  0  0  0
   -4.4800   14.4615  -32.8918 H   0  0  0  0  0  0  0  0  0  0  0  0
   -3.1143   15.6142  -32.6327 H   0  0  0  0  0  0  0  0  0  0  0  0
   -6.1111   16.1546  -32.5411 H   0  0  0  0  0  0  0  0  0  0  0  0
   -4.8317   16.4404  -31.2699 H   0  0  0  0  0  0  0  0  0  0  0  0
  1  2  1  0
  2  3  1  0
  3  4  1  0
  4  5  2  0
  5  6  1  0
  6  7  1  0
  7  8  2  0
  7  9  2  0
  7 10  1  0
 10 11  2  0
 11 12  1  0
 12 13  2  0
 13 14  1  0
 14 15  2  0
 14 16  2  0
 14 17  1  0
 17 18  1  0
 17 19  1  0
 13 20  1  0
  6 21  2  0
 21 22  1  0
 22 23  2  0
 23 24  1  0
 24 25  1  0
 25 26  2  0
 25 27  2  0
 25 28  1  0
 28 29  1  0
 29 30  1  0
 30 31  1  0
 31 32  1  0
 32 33  1  0
 24  2  2  0
 33 28  1  0
 23  4  1  0
 20 10  1  0
  1 34  1  0
  1 35  1  0
  1 36  1  0
  3 37  1  0
  5 38  1  0
 11 39  1  0
 12 40  1  0
 18 41  1  0
 18 42  1  0
 18 43  1  0
 19 44  1  0
 19 45  1  0
 19 46  1  0
 21 47  1  0
 22 48  1  0
 29 49  1  0
 29 50  1  0
 30 51  1  0
 30 52  1  0
 31 53  1  0
 32 54  1  0
 32 55  1  0
 33 56  1  0
 33 57  1  0
M  END
>  <UniqueID>  (28) 
27

>  <SMILES>  (28) 
Cc1[nH]c2cc(S(=O)(=O)c3ccc(S(=O)(=O)N(C)C)s3)ccc2c1S(=O)(=O)N1CCNCC1

>  <Energy>  (28) 
126.86876653684156

>  <Genealogy>  (28) 
Cc1[nH]c2cc(S(=O)(=O)c3ccc(S(=O)(=O)N(C)C)s3)ccc2c1S(=O)(=O)N1CCNCC1 (3D coordinates assigned)
Cc1[nH]c2cc(S(=O)(=O)c3ccc(S(=O)(=O)N(C)C)s3)ccc2c1S(=O)(=O)N1CCNCC1 (nonaromatic ring conformer: 126.86876653684156 kcal/mol)

>  <smiles>  (28) 
Cc1[nH]c2cc(S(=O)(=O)c3ccc(S(=O)(=O)N(C)C)s3)ccc2c1S(=O)(=O)N1CCNCC1

>  <score_type>  (28) 
oracle

>  <origin>  (28) 
adgpu

>  <m_score__min__energy>  (28) 
-11.34

>  <m_primary>  (28) 
energy

$$$$
28:0
     RDKit          3D

 48 51  0  0  0  0  0  0  0  0999 V2000
   -5.9470   15.2970  -33.8750 C   0  0  0  0  0  0  0  0  0  0  0  0
   -6.3730   16.6240  -34.1600 O   0  0  0  0  0  0  0  0  0  0  0  0
   -5.6550   17.7780  -33.8100 C   0  0  0  0  0  0  0  0  0  0  0  0
   -4.4490   17.6270  -33.1150 C   0  0  0  0  0  0  0  0  0  0  0  0
   -3.6970   18.7450  -32.7460 C   0  0  0  0  0  0  0  0  0  0  0  0
   -4.1460   20.0320  -33.0630 C   0  0  0  0  0  0  0  0  0  0  0  0
   -3.1820   21.4410  -32.6210 S   0  0  0  0  0  0  0  0  0  0  0  0
   -2.0000   21.5330  -33.5430 O   0  0  0  0  0  0  0  0  0  0  0  0
   -4.0300   22.6710  -32.7860 O   0  0  0  0  0  0  0  0  0  0  0  0
   -2.6330   21.3070  -30.9500 C   0  0  0  0  0  0  0  0  0  0  0  0
   -1.6780   20.3590  -30.5450 C   0  0  0  0  0  0  0  0  0  0  0  0
   -1.3800   20.4220  -29.1900 C   0  0  0  0  0  0  0  0  0  0  0  0
   -0.3480   19.6050  -28.4900 C   0  0  0  0  0  0  0  0  0  0  0  0
   -2.2610   21.6700  -28.4940 S   0  0  0  0  0  0  0  0  0  0  0  0
   -3.0650   22.1230  -29.9000 C   0  0  0  0  0  0  0  0  0  0  0  0
   -4.1980   23.4680  -29.9830 S   0  0  0  0  0  0  0  0  0  0  0  0
   -3.6180   24.5600  -30.8380 O   0  0  0  0  0  0  0  0  0  0  0  0
   -4.4200   24.0090  -28.5990 O   0  0  0  0  0  0  0  0  0  0  0  0
   -5.7150   22.9410  -30.7010 C   0  0  0  0  0  0  0  0  0  0  0  0
   -6.6230   23.8910  -31.1880 C   0  0  0  0  0  0  0  0  0  0  0  0
   -7.8200   23.4820  -31.7820 C   0  0  0  0  0  0  0  0  0  0  0  0
   -8.1260   22.1210  -31.8760 C   0  0  0  0  0  0  0  0  0  0  0  0
   -7.2230   21.1640  -31.3890 C   0  0  0  0  0  0  0  0  0  0  0  0
   -6.0170   21.5750  -30.8030 C   0  0  0  0  0  0  0  0  0  0  0  0
   -7.5270   19.7750  -31.5430 N   0  0  0  0  0  0  0  0  0  0  0  0
   -8.7880   19.3760  -32.0910 C   0  0  0  0  0  0  0  0  0  0  0  0
   -9.0150   18.1610  -32.3330 O   0  0  0  0  0  0  0  0  0  0  0  0
   -9.8670   20.3990  -32.3080 C   0  0  0  0  0  0  0  0  0  0  0  0
   -9.3220   21.7110  -32.4770 O   0  0  0  0  0  0  0  0  0  0  0  0
   -5.3470   20.1920  -33.7650 C   0  0  0  0  0  0  0  0  0  0  0  0
   -6.1010   19.0740  -34.1350 C   0  0  0  0  0  0  0  0  0  0  0  0
   -5.9007   15.1528  -32.7855 H   0  0  0  0  0  0  0  0  0  0  0  0
   -6.6606   14.5815  -34.3096 H   0  0  0  0  0  0  0  0  0  0  0  0
   -4.9503   15.1306  -34.3096 H   0  0  0  0  0  0  0  0  0  0  0  0
   -4.0906   16.6195  -32.8573 H   0  0  0  0  0  0  0  0  0  0  0  0
   -2.7487   18.6133  -32.2044 H   0  0  0  0  0  0  0  0  0  0  0  0
   -1.2124   19.6382  -31.2333 H   0  0  0  0  0  0  0  0  0  0  0  0
   -0.4760   19.7063  -27.4022 H   0  0  0  0  0  0  0  0  0  0  0  0
   -0.4608   18.5487  -28.7757 H   0  0  0  0  0  0  0  0  0  0  0  0
    0.6542   19.9571  -28.7757 H   0  0  0  0  0  0  0  0  0  0  0  0
   -6.3925   24.9632  -31.1023 H   0  0  0  0  0  0  0  0  0  0  0  0
   -8.5221   24.2315  -32.1760 H   0  0  0  0  0  0  0  0  0  0  0  0
   -5.3072   20.8255  -30.4230 H   0  0  0  0  0  0  0  0  0  0  0  0
   -6.8270   19.0470  -31.2760 H   0  0  0  0  0  0  0  0  0  0  0  0
  -10.4375   20.1305  -33.2094 H   0  0  0  0  0  0  0  0  0  0  0  0
  -10.5166   20.4078  -31.4203 H   0  0  0  0  0  0  0  0  0  0  0  0
   -5.6986   21.2010  -34.0264 H   0  0  0  0  0  0  0  0  0  0  0  0
   -7.0461   19.2071  -34.6820 H   0  0  0  0  0  0  0  0  0  0  0  0
  1  2  1  0
  2  3  1  0
  3  4  2  0
  4  5  1  0
  5  6  2  0
  6  7  1  0
  7  8  2  0
  7  9  2  0
  7 10  1  0
 10 11  1  0
 11 12  2  0
 12 13  1  0
 12 14  1  0
 14 15  1  0
 15 16  1  0
 16 17  2  0
 16 18  2  0
 16 19  1  0
 19 20  2  0
 20 21  1  0
 21 22  2  0
 22 23  1  0
 23 24  2  0
 23 25  1  0
 25 26  1  0
 26 27  2  0
 26 28  1  0
 28 29  1  0
  6 30  1  0
 30 31  2  0
 31  3  1  0
 15 10  2  0
 24 19  1  0
 29 22  1  0
  1 32  1  0
  1 33  1  0
  1 34  1  0
  4 35  1  0
  5 36  1  0
 11 37  1  0
 13 38  1  0
 13 39  1  0
 13 40  1  0
 20 41  1  0
 21 42  1  0
 24 43  1  0
 25 44  1  0
 28 45  1  0
 28 46  1  0
 30 47  1  0
 31 48  1  0
M  END
>  <UniqueID>  (29) 
28

>  <SMILES>  (29) 
COc1ccc(S(=O)(=O)c2cc(C)sc2S(=O)(=O)c2ccc3c(c2)NC(=O)CO3)cc1

>  <Energy>  (29) 
80.91843812436294

>  <Genealogy>  (29) 
COc1ccc(S(=O)(=O)c2cc(C)sc2S(=O)(=O)c2ccc3c(c2)NC(=O)CO3)cc1 (3D coordinates assigned)
COc1ccc(S(=O)(=O)c2cc(C)sc2S(=O)(=O)c2ccc3c(c2)NC(=O)CO3)cc1 (nonaromatic ring conformer: 80.91843812436294 kcal/mol)

>  <smiles>  (29) 
COc1ccc(S(=O)(=O)c2cc(C)sc2S(=O)(=O)c2ccc3c(c2)NC(=O)CO3)cc1

>  <score_type>  (29) 
oracle

>  <origin>  (29) 
adgpu

>  <m_score__min__energy>  (29) 
-9.0399999999999991

>  <m_primary>  (29) 
energy

$$$$
29:0
     RDKit          3D

 70 74  0  0  0  0  0  0  0  0999 V2000
   -0.0650   19.2110  -31.0850 O   0  0  0  0  0  0  0  0  0  0  0  0
   -0.8840   20.1430  -30.8700 C   0  0  0  0  0  0  0  0  0  0  0  0
   -1.8350   20.4860  -31.8830 N   0  0  0  0  0  0  0  0  0  0  0  0
   -2.4560   19.5020  -32.7160 C   0  0  0  0  0  0  0  0  0  0  0  0
   -3.7040   18.9820  -32.3470 C   0  0  0  0  0  0  0  0  0  0  0  0
   -4.3480   18.0340  -33.1570 C   0  0  0  0  0  0  0  0  0  0  0  0
   -5.9300   17.3960  -32.7090 S   0  0  0  0  0  0  0  0  0  0  0  0
   -5.7570   16.3170  -31.6760 O   0  0  0  0  0  0  0  0  0  0  0  0
   -6.5880   16.7940  -33.9200 O   0  0  0  0  0  0  0  0  0  0  0  0
   -6.9070   18.6780  -32.0380 N   0  0  0  0  0  0  0  0  0  0  0  0
   -7.2300   19.7030  -33.0320 C   0  0  0  0  0  0  0  0  0  0  0  0
   -8.5460   20.3310  -32.5980 C   0  0  0  0  0  0  0  0  0  0  0  0
   -9.1550   19.3500  -31.6080 C   0  0  0  0  0  0  0  0  0  0  0  0
   -8.1980   18.1700  -31.5750 C   0  0  0  0  0  0  0  0  0  0  0  0
   -3.7270   17.5960  -34.3320 C   0  0  0  0  0  0  0  0  0  0  0  0
   -2.4800   18.1020  -34.7020 C   0  0  0  0  0  0  0  0  0  0  0  0
   -1.8320   19.0520  -33.8990 C   0  0  0  0  0  0  0  0  0  0  0  0
   -0.5040   19.4820  -34.2460 N   0  0  0  0  0  0  0  0  0  0  0  0
   -0.1460   20.9020  -34.2120 C   0  0  0  0  0  0  0  0  0  0  0  0
    0.4070   21.3530  -35.5840 C   0  0  0  0  0  0  0  0  0  0  0  0
    0.8200   20.2880  -36.4300 O   0  0  0  0  0  0  0  0  0  0  0  0
    1.4710   19.2760  -35.6880 C   0  0  0  0  0  0  0  0  0  0  0  0
    0.4410   18.5300  -34.8380 C   0  0  0  0  0  0  0  0  0  0  0  0
   -0.8850   20.8260  -29.5640 C   0  0  0  0  0  0  0  0  0  0  0  0
   -0.7560   20.0940  -28.3740 C   0  0  0  0  0  0  0  0  0  0  0  0
   -0.7900   20.7480  -27.1400 C   0  0  0  0  0  0  0  0  0  0  0  0
   -0.9950   22.1300  -27.0840 C   0  0  0  0  0  0  0  0  0  0  0  0
   -1.1580   22.8660  -28.2640 C   0  0  0  0  0  0  0  0  0  0  0  0
   -1.5180   24.5880  -28.1750 S   0  0  0  0  0  0  0  0  0  0  0  0
   -1.9760   24.9580  -26.7910 O   0  0  0  0  0  0  0  0  0  0  0  0
   -0.2700   25.3640  -28.4880 O   0  0  0  0  0  0  0  0  0  0  0  0
   -2.7510   25.0080  -29.3240 N   0  0  0  0  0  0  0  0  0  0  0  0
   -4.0570   24.4840  -28.9170 C   0  0  0  0  0  0  0  0  0  0  0  0
   -4.7370   23.8560  -30.0960 C   0  0  0  0  0  0  0  0  0  0  0  0
   -4.1130   22.8030  -30.7850 C   0  0  0  0  0  0  0  0  0  0  0  0
   -4.7410   22.2110  -31.8850 C   0  0  0  0  0  0  0  0  0  0  0  0
   -5.9980   22.6610  -32.3000 C   0  0  0  0  0  0  0  0  0  0  0  0
   -6.6290   23.7020  -31.6140 C   0  0  0  0  0  0  0  0  0  0  0  0
   -6.0050   24.2970  -30.5140 C   0  0  0  0  0  0  0  0  0  0  0  0
   -1.0800   22.2150  -29.5030 C   0  0  0  0  0  0  0  0  0  0  0  0
   -4.1823   19.3194  -31.4157 H   0  0  0  0  0  0  0  0  0  0  0  0
   -6.4376   20.4653  -33.0622 H   0  0  0  0  0  0  0  0  0  0  0  0
   -7.3117   19.2672  -34.0387 H   0  0  0  0  0  0  0  0  0  0  0  0
   -8.3678   21.3035  -32.1159 H   0  0  0  0  0  0  0  0  0  0  0  0
   -9.2126   20.5158  -33.4533 H   0  0  0  0  0  0  0  0  0  0  0  0
   -9.2364   19.8084  -30.6114 H   0  0  0  0  0  0  0  0  0  0  0  0
  -10.1707   19.0470  -31.9020 H   0  0  0  0  0  0  0  0  0  0  0  0
   -8.1089   17.7799  -30.5504 H   0  0  0  0  0  0  0  0  0  0  0  0
   -8.5556   17.3463  -32.2103 H   0  0  0  0  0  0  0  0  0  0  0  0
   -4.2245   16.8487  -34.9676 H   0  0  0  0  0  0  0  0  0  0  0  0
   -2.0022   17.7534  -35.6295 H   0  0  0  0  0  0  0  0  0  0  0  0
   -1.0399   21.4952  -33.9691 H   0  0  0  0  0  0  0  0  0  0  0  0
    0.6297   21.0556  -33.4473 H   0  0  0  0  0  0  0  0  0  0  0  0
   -0.3806   21.9190  -36.1031 H   0  0  0  0  0  0  0  0  0  0  0  0
    1.3038   21.9558  -35.3780 H   0  0  0  0  0  0  0  0  0  0  0  0
    1.9584   18.5709  -36.3774 H   0  0  0  0  0  0  0  0  0  0  0  0
    2.2298   19.7295  -35.0334 H   0  0  0  0  0  0  0  0  0  0  0  0
   -0.1079   17.8183  -35.4721 H   0  0  0  0  0  0  0  0  0  0  0  0
    0.9604   17.9888  -34.0334 H   0  0  0  0  0  0  0  0  0  0  0  0
   -0.6277   19.0022  -28.4128 H   0  0  0  0  0  0  0  0  0  0  0  0
   -0.6553   20.1748  -26.2109 H   0  0  0  0  0  0  0  0  0  0  0  0
   -1.0283   22.6405  -26.1102 H   0  0  0  0  0  0  0  0  0  0  0  0
   -3.9190   23.7289  -28.1291 H   0  0  0  0  0  0  0  0  0  0  0  0
   -4.6774   25.3075  -28.5336 H   0  0  0  0  0  0  0  0  0  0  0  0
   -3.1265   22.4427  -30.4579 H   0  0  0  0  0  0  0  0  0  0  0  0
   -4.2456   21.3903  -32.4245 H   0  0  0  0  0  0  0  0  0  0  0  0
   -6.4902   22.1955  -33.1666 H   0  0  0  0  0  0  0  0  0  0  0  0
   -7.6188   24.0539  -31.9403 H   0  0  0  0  0  0  0  0  0  0  0  0
   -6.5074   25.1128  -29.9736 H   0  0  0  0  0  0  0  0  0  0  0  0
   -1.1721   22.7957  -30.4327 H   0  0  0  0  0  0  0  0  0  0  0  0
  1  2  2  0
  2  3  1  0
  3  4  1  0
  4  5  2  0
  5  6  1  0
  6  7  1  0
  7  8  2  0
  7  9  2  0
  7 10  1  0
 10 11  1  0
 11 12  1  0
 12 13  1  0
 13 14  1  0
  6 15  2  0
 15 16  1  0
 16 17  2  0
 17 18  1  0
 18 19  1  0
 19 20  1  0
 20 21  1  0
 21 22  1  0
 22 23  1  0
  2 24  1  0
 24 25  2  0
 25 26  1  0
 26 27  2  0
 27 28  1  0
 28 29  1  0
 29 30  2  0
 29 31  2  0
 29 32  1  0
 32 33  1  0
 33 34  1  0
 34 35  2  0
 35 36  1  0
 36 37  2  0
 37 38  1  0
 38 39  2  0
 28 40  2  0
 17  4  1  0
 23 18  1  0
 40 24  1  0
 14 10  1  0
 39 34  1  0
  5 41  1  0
 11 42  1  0
 11 43  1  0
 12 44  1  0
 12 45  1  0
 13 46  1  0
 13 47  1  0
 14 48  1  0
 14 49  1  0
 15 50  1  0
 16 51  1  0
 19 52  1  0
 19 53  1  0
 20 54  1  0
 20 55  1  0
 22 56  1  0
 22 57  1  0
 23 58  1  0
 23 59  1  0
 25 60  1  0
 26 61  1  0
 27 62  1  0
 33 63  1  0
 33 64  1  0
 35 65  1  0
 36 66  1  0
 37 67  1  0
 38 68  1  0
 39 69  1  0
 40 70  1  0
M  CHG  2   3  -1  32  -1
M  END
>  <UniqueID>  (30) 
29

>  <SMILES>  (30) 
O=C([N-]c1cc(S(=O)(=O)N2CCCC2)ccc1N1CCOCC1)c1cccc(S(=O)(=O)[N-]Cc2ccccc2)c1

>  <Energy>  (30) 
87.00566897412266

>  <Genealogy>  (30) 
O=C([N-]c1cc(S(=O)(=O)N2CCCC2)ccc1N1CCOCC1)c1cccc(S(=O)(=O)[N-]Cc2ccccc2)c1 (protonated)
O=C([N-]c1cc(S(=O)(=O)N2CCCC2)ccc1N1CCOCC1)c1cccc(S(=O)(=O)[N-]Cc2ccccc2)c1 (3D coordinates assigned)
O=C([N-]c1cc(S(=O)(=O)N2CCCC2)ccc1N1CCOCC1)c1cccc(S(=O)(=O)[N-]Cc2ccccc2)c1 (nonaromatic ring conformer: 87.00566897412266 kcal/mol)

>  <smiles>  (30) 
O=C(Nc1cc(S(=O)(=O)N2CCCC2)ccc1N1CCOCC1)c1cccc(S(=O)(=O)NCc2ccccc2)c1

>  <score_type>  (30) 
oracle

>  <origin>  (30) 
adgpu

>  <m_score__min__energy>  (30) 
-11.960000000000001

>  <m_primary>  (30) 
energy

$$$$
30:0
     RDKit          3D

 57 60  0  0  0  0  0  0  0  0999 V2000
   -5.5260   16.6400  -31.7370 O   0  0  0  0  0  0  0  0  0  0  0  0
   -5.4940   17.5980  -32.5610 C   0  0  0  0  0  0  0  0  0  0  0  0
   -4.2310   18.3520  -32.6940 C   0  0  0  0  0  0  0  0  0  0  0  0
   -4.1270   19.6760  -32.2320 C   0  0  0  0  0  0  0  0  0  0  0  0
   -2.9540   20.4000  -32.4430 C   0  0  0  0  0  0  0  0  0  0  0  0
   -1.8620   19.7990  -33.0900 C   0  0  0  0  0  0  0  0  0  0  0  0
   -0.4080   20.7400  -33.4200 S   0  0  0  0  0  0  0  0  0  0  0  0
   -0.7970   21.9440  -34.2350 O   0  0  0  0  0  0  0  0  0  0  0  0
    0.1950   21.2160  -32.1220 O   0  0  0  0  0  0  0  0  0  0  0  0
    0.7430   19.7640  -34.3170 N   0  0  0  0  0  0  0  0  0  0  0  0
    2.0170   20.4800  -34.4770 C   0  0  0  0  0  0  0  0  0  0  0  0
    1.9530   21.2690  -35.7750 C   0  0  0  0  0  0  0  0  0  0  0  0
    0.8380   20.6270  -36.5790 C   0  0  0  0  0  0  0  0  0  0  0  0
    0.2610   19.5350  -35.6830 C   0  0  0  0  0  0  0  0  0  0  0  0
   -1.9450   18.4580  -33.4950 C   0  0  0  0  0  0  0  0  0  0  0  0
   -3.1220   17.7370  -33.2950 C   0  0  0  0  0  0  0  0  0  0  0  0
   -6.6720   17.8890  -33.3640 N   0  0  0  0  0  0  0  0  0  0  0  0
   -6.5250   19.1320  -34.1610 C   0  0  0  0  0  0  0  0  0  0  0  0
   -6.7710   20.4290  -33.3490 C   0  0  0  0  0  0  0  0  0  0  0  0
   -7.5190   20.1760  -32.1060 N   0  0  0  0  0  0  0  0  0  0  0  0
   -8.1630   21.6590  -31.4470 S   0  0  0  0  0  0  0  0  0  0  0  0
   -8.8850   21.3560  -30.1630 O   0  0  0  0  0  0  0  0  0  0  0  0
   -9.1570   22.2440  -32.4080 O   0  0  0  0  0  0  0  0  0  0  0  0
   -6.8890   22.8440  -31.1400 C   0  0  0  0  0  0  0  0  0  0  0  0
   -5.5500   22.5310  -31.4290 C   0  0  0  0  0  0  0  0  0  0  0  0
   -4.5410   23.4700  -31.1930 C   0  0  0  0  0  0  0  0  0  0  0  0
   -4.8650   24.7290  -30.6770 C   0  0  0  0  0  0  0  0  0  0  0  0
   -3.8610   25.6690  -30.4610 O   0  0  0  0  0  0  0  0  0  0  0  0
   -6.1990   25.0420  -30.3830 C   0  0  0  0  0  0  0  0  0  0  0  0
   -7.2100   24.1030  -30.6100 C   0  0  0  0  0  0  0  0  0  0  0  0
   -8.5760   19.1880  -32.3250 C   0  0  0  0  0  0  0  0  0  0  0  0
   -7.9330   17.8180  -32.5750 C   0  0  0  0  0  0  0  0  0  0  0  0
   -4.9721   20.1413  -31.7034 H   0  0  0  0  0  0  0  0  0  0  0  0
   -2.8839   21.4435  -32.1021 H   0  0  0  0  0  0  0  0  0  0  0  0
    2.1686   21.1658  -33.6304 H   0  0  0  0  0  0  0  0  0  0  0  0
    2.8548   19.7677  -34.5038 H   0  0  0  0  0  0  0  0  0  0  0  0
    1.7231   22.3255  -35.5728 H   0  0  0  0  0  0  0  0  0  0  0  0
    2.9114   21.2495  -36.3145 H   0  0  0  0  0  0  0  0  0  0  0  0
    0.0651   21.3701  -36.8247 H   0  0  0  0  0  0  0  0  0  0  0  0
    1.2067   20.2188  -37.5316 H   0  0  0  0  0  0  0  0  0  0  0  0
   -0.8380   19.5786  -35.7027 H   0  0  0  0  0  0  0  0  0  0  0  0
    0.5789   18.5435  -36.0379 H   0  0  0  0  0  0  0  0  0  0  0  0
   -1.0796   17.9742  -33.9714 H   0  0  0  0  0  0  0  0  0  0  0  0
   -3.1811   16.6844  -33.6089 H   0  0  0  0  0  0  0  0  0  0  0  0
   -6.7320   17.1180  -34.0750 H   0  0  0  0  0  0  0  0  0  0  0  0
   -5.5029   19.1652  -34.5662 H   0  0  0  0  0  0  0  0  0  0  0  0
   -7.2902   19.0985  -34.9505 H   0  0  0  0  0  0  0  0  0  0  0  0
   -5.7990   20.8756  -33.0924 H   0  0  0  0  0  0  0  0  0  0  0  0
   -7.3725   21.1074  -33.9719 H   0  0  0  0  0  0  0  0  0  0  0  0
   -5.2946   21.5441  -31.8422 H   0  0  0  0  0  0  0  0  0  0  0  0
   -3.4930   23.2186  -31.4131 H   0  0  0  0  0  0  0  0  0  0  0  0
   -6.4518   26.0305  -29.9719 H   0  0  0  0  0  0  0  0  0  0  0  0
   -8.2553   24.3509  -30.3735 H   0  0  0  0  0  0  0  0  0  0  0  0
   -9.2222   19.1358  -31.4364 H   0  0  0  0  0  0  0  0  0  0  0  0
   -9.1828   19.4788  -33.1952 H   0  0  0  0  0  0  0  0  0  0  0  0
   -7.7096   17.3555  -31.6023 H   0  0  0  0  0  0  0  0  0  0  0  0
   -8.6500   17.2265  -33.1632 H   0  0  0  0  0  0  0  0  0  0  0  0
  1  2  2  0
  2  3  1  0
  3  4  2  0
  4  5  1  0
  5  6  2  0
  6  7  1  0
  7  8  2  0
  7  9  2  0
  7 10  1  0
 10 11  1  0
 11 12  1  0
 12 13  1  0
 13 14  1  0
  6 15  1  0
 15 16  2  0
  2 17  1  0
 17 18  1  0
 18 19  1  0
 19 20  1  0
 20 21  1  0
 21 22  2  0
 21 23  2  0
 21 24  1  0
 24 25  2  0
 25 26  1  0
 26 27  2  0
 27 28  1  0
 27 29  1  0
 29 30  2  0
 20 31  1  0
 31 32  1  0
 16  3  1  0
 32 17  1  0
 14 10  1  0
 30 24  1  0
  4 33  1  0
  5 34  1  0
 11 35  1  0
 11 36  1  0
 12 37  1  0
 12 38  1  0
 13 39  1  0
 13 40  1  0
 14 41  1  0
 14 42  1  0
 15 43  1  0
 16 44  1  0
 17 45  1  0
 18 46  1  0
 18 47  1  0
 19 48  1  0
 19 49  1  0
 25 50  1  0
 26 51  1  0
 29 52  1  0
 30 53  1  0
 31 54  1  0
 31 55  1  0
 32 56  1  0
 32 57  1  0
M  CHG  2  17   1  28  -1
M  END
>  <UniqueID>  (31) 
30

>  <SMILES>  (31) 
O=C(c1ccc(S(=O)(=O)N2CCCC2)cc1)[NH+]1CCN(S(=O)(=O)c2ccc([O-])cc2)CC1

>  <Energy>  (31) 
78.57295979605142

>  <Genealogy>  (31) 
O=C(c1ccc(S(=O)(=O)N2CCCC2)cc1)[NH+]1CCN(S(=O)(=O)c2ccc([O-])cc2)CC1 (protonated)
O=C(c1ccc(S(=O)(=O)N2CCCC2)cc1)[NH+]1CCN(S(=O)(=O)c2ccc([O-])cc2)CC1 (3D coordinates assigned)
O=C(c1ccc(S(=O)(=O)N2CCCC2)cc1)[NH+]1CCN(S(=O)(=O)c2ccc([O-])cc2)CC1 (nonaromatic ring conformer: 78.57295979605142 kcal/mol)

>  <smiles>  (31) 
O=C(c1ccc(S(=O)(=O)N2CCCC2)cc1)N1CCN(S(=O)(=O)c2ccc(O)cc2)CC1

>  <score_type>  (31) 
oracle

>  <origin>  (31) 
adgpu

>  <m_score__min__energy>  (31) 
-12.35

>  <m_primary>  (31) 
energy

$$$$
31:0
     RDKit          3D

 59 63  0  0  0  0  0  0  0  0999 V2000
   -3.1530   15.9920  -33.2850 C   0  0  0  0  0  0  0  0  0  0  0  0
   -2.9700   16.8490  -34.4680 N   0  0  0  0  0  0  0  0  0  0  0  0
   -4.1770   16.9490  -35.2950 C   0  0  0  0  0  0  0  0  0  0  0  0
   -5.3320   17.6720  -34.5910 C   0  0  0  0  0  0  0  0  0  0  0  0
   -4.9230   18.7880  -33.7090 N   0  0  0  0  0  0  0  0  0  0  0  0
   -5.9630   19.5910  -33.0650 C   0  0  0  0  0  0  0  0  0  0  0  0
   -7.3130   19.1240  -32.9740 C   0  0  0  0  0  0  0  0  0  0  0  0
   -8.3150   19.8890  -32.3500 C   0  0  0  0  0  0  0  0  0  0  0  0
   -7.9630   21.1240  -31.8210 C   0  0  0  0  0  0  0  0  0  0  0  0
   -8.7640   22.0010  -31.1880 N   0  0  0  0  0  0  0  0  0  0  0  0
   -7.9790   23.0530  -30.8590 C   0  0  0  0  0  0  0  0  0  0  0  0
   -6.6780   22.8300  -31.2910 C   0  0  0  0  0  0  0  0  0  0  0  0
   -5.2980   23.8920  -31.0880 S   0  0  0  0  0  0  0  0  0  0  0  0
   -4.1770   23.3830  -31.9510 O   0  0  0  0  0  0  0  0  0  0  0  0
   -5.6490   25.2930  -31.5000 O   0  0  0  0  0  0  0  0  0  0  0  0
   -4.8400   23.8770  -29.4160 N   0  0  0  0  0  0  0  0  0  0  0  0
   -3.6300   23.2940  -28.9220 C   0  0  0  0  0  0  0  0  0  0  0  0
   -3.6830   22.0050  -28.3800 C   0  0  0  0  0  0  0  0  0  0  0  0
   -2.5210   21.3720  -27.9170 C   0  0  0  0  0  0  0  0  0  0  0  0
   -1.2830   22.0400  -28.0110 C   0  0  0  0  0  0  0  0  0  0  0  0
   -1.2410   23.3540  -28.5000 C   0  0  0  0  0  0  0  0  0  0  0  0
   -2.4060   23.9840  -28.9470 C   0  0  0  0  0  0  0  0  0  0  0  0
   -2.3390   25.3020  -29.3850 O   0  0  0  0  0  0  0  0  0  0  0  0
   -0.0150   21.4030  -27.4890 C   0  0  0  0  0  0  0  0  0  0  0  0
   -0.1010   19.9320  -27.4150 N   0  0  0  0  0  0  0  0  0  0  0  0
    0.0430   19.3030  -28.7400 C   0  0  0  0  0  0  0  0  0  0  0  0
   -1.3230   19.5000  -26.7100 C   0  0  0  0  0  0  0  0  0  0  0  0
   -2.6050   19.9500  -27.4270 C   0  0  0  0  0  0  0  0  0  0  0  0
   -6.6850   21.5950  -31.9030 C   0  0  0  0  0  0  0  0  0  0  0  0
   -5.6650   20.8700  -32.5140 C   0  0  0  0  0  0  0  0  0  0  0  0
   -3.5100   19.0220  -33.3400 C   0  0  0  0  0  0  0  0  0  0  0  0
   -2.4890   18.1930  -34.1330 C   0  0  0  0  0  0  0  0  0  0  0  0
   -3.0246   16.5935  -32.3731 H   0  0  0  0  0  0  0  0  0  0  0  0
   -4.1639   15.5586  -33.2990 H   0  0  0  0  0  0  0  0  0  0  0  0
   -2.4072   15.1835  -33.2990 H   0  0  0  0  0  0  0  0  0  0  0  0
   -3.9271   17.5004  -36.2134 H   0  0  0  0  0  0  0  0  0  0  0  0
   -4.5138   15.9237  -35.5081 H   0  0  0  0  0  0  0  0  0  0  0  0
   -6.0040   18.0751  -35.3630 H   0  0  0  0  0  0  0  0  0  0  0  0
   -5.8131   16.9258  -33.9416 H   0  0  0  0  0  0  0  0  0  0  0  0
   -7.5728   18.1445  -33.4018 H   0  0  0  0  0  0  0  0  0  0  0  0
   -9.3488   19.5193  -32.2828 H   0  0  0  0  0  0  0  0  0  0  0  0
   -9.7840   21.8950  -30.9900 H   0  0  0  0  0  0  0  0  0  0  0  0
   -8.3212   23.9531  -30.3272 H   0  0  0  0  0  0  0  0  0  0  0  0
   -4.6485   21.4818  -28.3164 H   0  0  0  0  0  0  0  0  0  0  0  0
   -0.2829   23.8934  -28.5320 H   0  0  0  0  0  0  0  0  0  0  0  0
    0.8150   21.6730  -28.1585 H   0  0  0  0  0  0  0  0  0  0  0  0
    0.1460   21.7765  -26.4670 H   0  0  0  0  0  0  0  0  0  0  0  0
    0.2869   18.2376  -28.6156 H   0  0  0  0  0  0  0  0  0  0  0  0
   -0.9007   19.4005  -29.2967 H   0  0  0  0  0  0  0  0  0  0  0  0
    0.8503   19.8014  -29.2967 H   0  0  0  0  0  0  0  0  0  0  0  0
   -1.3226   18.4020  -26.6436 H   0  0  0  0  0  0  0  0  0  0  0  0
   -1.3163   19.9650  -25.7132 H   0  0  0  0  0  0  0  0  0  0  0  0
   -2.7779   19.2891  -28.2891 H   0  0  0  0  0  0  0  0  0  0  0  0
   -3.4312   19.8934  -26.7030 H   0  0  0  0  0  0  0  0  0  0  0  0
   -4.6453   21.2787  -32.5702 H   0  0  0  0  0  0  0  0  0  0  0  0
   -3.2861   20.0866  -33.5028 H   0  0  0  0  0  0  0  0  0  0  0  0
   -3.4100   18.7118  -32.2894 H   0  0  0  0  0  0  0  0  0  0  0  0
   -2.2580   18.7245  -35.0679 H   0  0  0  0  0  0  0  0  0  0  0  0
   -1.6008   18.0723  -33.4954 H   0  0  0  0  0  0  0  0  0  0  0  0
  1  2  1  0
  2  3  1  0
  3  4  1  0
  4  5  1  0
  5  6  1  0
  6  7  2  0
  7  8  1  0
  8  9  2  0
  9 10  1  0
 10 11  1  0
 11 12  2  0
 12 13  1  0
 13 14  2  0
 13 15  2  0
 13 16  1  0
 16 17  1  0
 17 18  2  0
 18 19  1  0
 19 20  2  0
 20 21  1  0
 21 22  2  0
 22 23  1  0
 20 24  1  0
 24 25  1  0
 25 26  1  0
 25 27  1  0
 27 28  1  0
 12 29  1  0
 29 30  2  0
  5 31  1  0
 31 32  1  0
 32  2  1  0
 30  6  1  0
 29  9  1  0
 22 17  1  0
 28 19  1  0
  1 33  1  0
  1 34  1  0
  1 35  1  0
  3 36  1  0
  3 37  1  0
  4 38  1  0
  4 39  1  0
  7 40  1  0
  8 41  1  0
 10 42  1  0
 11 43  1  0
 18 44  1  0
 21 45  1  0
 24 46  1  0
 24 47  1  0
 26 48  1  0
 26 49  1  0
 26 50  1  0
 27 51  1  0
 27 52  1  0
 28 53  1  0
 28 54  1  0
 30 55  1  0
 31 56  1  0
 31 57  1  0
 32 58  1  0
 32 59  1  0
M  CHG  2  16  -1  23  -1
M  END
>  <UniqueID>  (32) 
31

>  <SMILES>  (32) 
CN1CCN(c2ccc3[nH]cc(S(=O)(=O)[N-]c4cc5c(cc4[O-])CN(C)CC5)c3c2)CC1

>  <Energy>  (32) 
116.82093235091698

>  <Genealogy>  (32) 
CN1CCN(c2ccc3[nH]cc(S(=O)(=O)[N-]c4cc5c(cc4[O-])CN(C)CC5)c3c2)CC1 (protonated)
CN1CCN(c2ccc3[nH]cc(S(=O)(=O)[N-]c4cc5c(cc4[O-])CN(C)CC5)c3c2)CC1 (3D coordinates assigned)
CN1CCN(c2ccc3[nH]cc(S(=O)(=O)[N-]c4cc5c(cc4[O-])CN(C)CC5)c3c2)CC1 (nonaromatic ring conformer: 116.82093235091698 kcal/mol)

>  <smiles>  (32) 
CN1CCN(c2ccc3[nH]cc(S(=O)(=O)Nc4cc5c(cc4O)CN(C)CC5)c3c2)CC1

>  <score_type>  (32) 
oracle

>  <origin>  (32) 
adgpu

>  <m_score__min__energy>  (32) 
-14.76

>  <m_primary>  (32) 
energy

$$$$
32:0
     RDKit          3D

 50 53  0  0  0  0  0  0  0  0999 V2000
   -1.3540   26.7910  -23.4600 C   0  0  0  0  0  0  0  0  0  0  0  0
   -0.7990   26.2760  -24.7240 N   0  0  0  0  0  0  0  0  0  0  0  0
   -0.1030   24.9970  -24.4940 C   0  0  0  0  0  0  0  0  0  0  0  0
    0.5970   24.5640  -25.7830 C   0  0  0  0  0  0  0  0  0  0  0  0
   -0.3390   24.5870  -26.9120 N   0  0  0  0  0  0  0  0  0  0  0  0
    0.1220   24.1890  -28.2170 C   0  0  0  0  0  0  0  0  0  0  0  0
    1.2820   24.5140  -28.5910 O   0  0  0  0  0  0  0  0  0  0  0  0
   -0.7390   23.4110  -29.1330 C   0  0  0  0  0  0  0  0  0  0  0  0
   -0.4010   22.0820  -29.4410 C   0  0  0  0  0  0  0  0  0  0  0  0
   -1.1950   21.3360  -30.3200 C   0  0  0  0  0  0  0  0  0  0  0  0
   -0.8560   20.0850  -30.6210 O   0  0  0  0  0  0  0  0  0  0  0  0
   -1.5650   19.3290  -31.4550 C   0  0  0  0  0  0  0  0  0  0  0  0
   -1.1850   18.1510  -31.6870 O   0  0  0  0  0  0  0  0  0  0  0  0
   -2.7250   19.8380  -32.0680 C   0  0  0  0  0  0  0  0  0  0  0  0
   -3.6770   18.8570  -33.1880 S   0  0  0  0  0  0  0  0  0  0  0  0
   -3.0810   17.4790  -33.2660 O   0  0  0  0  0  0  0  0  0  0  0  0
   -3.6520   19.4760  -34.5580 O   0  0  0  0  0  0  0  0  0  0  0  0
   -5.3570   18.7600  -32.6590 C   0  0  0  0  0  0  0  0  0  0  0  0
   -5.7320   17.8820  -31.6310 C   0  0  0  0  0  0  0  0  0  0  0  0
   -7.0610   17.8390  -31.1960 C   0  0  0  0  0  0  0  0  0  0  0  0
   -8.0170   18.6750  -31.7800 C   0  0  0  0  0  0  0  0  0  0  0  0
   -7.6470   19.5590  -32.8050 C   0  0  0  0  0  0  0  0  0  0  0  0
   -8.5890   20.4020  -33.3910 O   0  0  0  0  0  0  0  0  0  0  0  0
   -6.3180   19.6000  -33.2410 C   0  0  0  0  0  0  0  0  0  0  0  0
   -3.1200   21.1470  -31.7600 C   0  0  0  0  0  0  0  0  0  0  0  0
   -2.3500   21.9140  -30.8840 C   0  0  0  0  0  0  0  0  0  0  0  0
   -2.7040   23.2290  -30.5600 C   0  0  0  0  0  0  0  0  0  0  0  0
   -1.9100   23.9740  -29.6820 C   0  0  0  0  0  0  0  0  0  0  0  0
   -2.3050   25.2640  -29.3430 O   0  0  0  0  0  0  0  0  0  0  0  0
   -1.7420   24.9630  -26.6910 C   0  0  0  0  0  0  0  0  0  0  0  0
   -1.8420   26.2070  -25.7850 C   0  0  0  0  0  0  0  0  0  0  0  0
   -0.8399   26.3140  -22.6125 H   0  0  0  0  0  0  0  0  0  0  0  0
   -1.2073   27.8801  -23.4119 H   0  0  0  0  0  0  0  0  0  0  0  0
   -2.4291   26.5634  -23.4119 H   0  0  0  0  0  0  0  0  0  0  0  0
    0.6427   25.1229  -23.6952 H   0  0  0  0  0  0  0  0  0  0  0  0
   -0.8317   24.2294  -24.1945 H   0  0  0  0  0  0  0  0  0  0  0  0
    1.4303   25.2515  -25.9903 H   0  0  0  0  0  0  0  0  0  0  0  0
    0.9727   23.5381  -25.6549 H   0  0  0  0  0  0  0  0  0  0  0  0
    0.4920   21.6257  -28.9890 H   0  0  0  0  0  0  0  0  0  0  0  0
   -4.9804   17.2268  -31.1666 H   0  0  0  0  0  0  0  0  0  0  0  0
   -7.3540   17.1463  -30.3933 H   0  0  0  0  0  0  0  0  0  0  0  0
   -9.0611   18.6398  -31.4355 H   0  0  0  0  0  0  0  0  0  0  0  0
   -9.1160   20.1180  -34.2090 H   0  0  0  0  0  0  0  0  0  0  0  0
   -6.0257   20.2936  -34.0432 H   0  0  0  0  0  0  0  0  0  0  0  0
   -4.0328   21.5681  -32.2066 H   0  0  0  0  0  0  0  0  0  0  0  0
   -3.6085   23.6774  -30.9968 H   0  0  0  0  0  0  0  0  0  0  0  0
   -2.2125   25.1846  -27.6603 H   0  0  0  0  0  0  0  0  0  0  0  0
   -2.2566   24.1258  -26.1967 H   0  0  0  0  0  0  0  0  0  0  0  0
   -1.7503   27.1024  -26.4174 H   0  0  0  0  0  0  0  0  0  0  0  0
   -2.8123   26.1456  -25.2704 H   0  0  0  0  0  0  0  0  0  0  0  0
  1  2  1  0
  2  3  1  0
  3  4  1  0
  4  5  1  0
  5  6  1  0
  6  7  2  0
  6  8  1  0
  8  9  2  0
  9 10  1  0
 10 11  1  0
 11 12  1  0
 12 13  2  0
 12 14  1  0
 14 15  1  0
 15 16  2  0
 15 17  2  0
 15 18  1  0
 18 19  2  0
 19 20  1  0
 20 21  2  0
 21 22  1  0
 22 23  1  0
 22 24  2  0
 14 25  2  0
 25 26  1  0
 26 27  1  0
 27 28  2  0
 28 29  1  0
  5 30  1  0
 30 31  1  0
 31  2  1  0
 28  8  1  0
 26 10  2  0
 24 18  1  0
  1 32  1  0
  1 33  1  0
  1 34  1  0
  3 35  1  0
  3 36  1  0
  4 37  1  0
  4 38  1  0
  9 39  1  0
 19 40  1  0
 20 41  1  0
 21 42  1  0
 23 43  1  0
 24 44  1  0
 25 45  1  0
 27 46  1  0
 30 47  1  0
 30 48  1  0
 31 49  1  0
 31 50  1  0
M  CHG  1  29  -1
M  END
>  <UniqueID>  (33) 
32

>  <SMILES>  (33) 
CN1CCN(C(=O)c2cc3oc(=O)c(S(=O)(=O)c4cccc(O)c4)cc3cc2[O-])CC1

>  <Energy>  (33) 
72.28971722537761

>  <Genealogy>  (33) 
CN1CCN(C(=O)c2cc3oc(=O)c(S(=O)(=O)c4cccc(O)c4)cc3cc2[O-])CC1 (protonated)
CN1CCN(C(=O)c2cc3oc(=O)c(S(=O)(=O)c4cccc(O)c4)cc3cc2[O-])CC1 (3D coordinates assigned)
CN1CCN(C(=O)c2cc3oc(=O)c(S(=O)(=O)c4cccc(O)c4)cc3cc2[O-])CC1 (nonaromatic ring conformer: 72.28971722537761 kcal/mol)

>  <smiles>  (33) 
CN1CCN(C(=O)c2cc3oc(=O)c(S(=O)(=O)c4cccc(O)c4)cc3cc2O)CC1

>  <score_type>  (33) 
oracle

>  <origin>  (33) 
adgpu

>  <m_score__min__energy>  (33) 
-11.199999999999999

>  <m_primary>  (33) 
energy

$$$$
33:0
     RDKit          3D

 27 28  0  0  0  0  0  0  0  0999 V2000
   -4.1540   25.3090  -25.8400 C   0  0  0  0  0  0  0  0  0  0  0  0
   -4.0520   24.1150  -26.7990 C   0  0  0  0  0  0  0  0  0  0  0  0
   -3.2140   24.3620  -28.0840 C   0  0  0  0  0  0  0  0  0  0  0  0
   -3.6360   23.6310  -29.3700 C   0  0  0  0  0  0  0  0  0  0  0  0
   -3.9430   24.2650  -30.6030 C   0  0  0  0  0  0  0  0  0  0  0  0
   -3.8810   25.6410  -30.7610 O   0  0  0  0  0  0  0  0  0  0  0  0
   -4.3190   23.5220  -31.6750 N   0  0  0  0  0  0  0  0  0  0  0  0
   -4.4180   22.1730  -31.6040 C   0  0  0  0  0  0  0  0  0  0  0  0
   -4.7680   21.5130  -32.6150 O   0  0  0  0  0  0  0  0  0  0  0  0
   -4.1420   21.5360  -30.4420 N   0  0  0  0  0  0  0  0  0  0  0  0
   -3.7610   22.2220  -29.3350 C   0  0  0  0  0  0  0  0  0  0  0  0
   -3.5210   21.5810  -28.2770 O   0  0  0  0  0  0  0  0  0  0  0  0
   -1.7060   24.2850  -27.8270 C   0  0  0  0  0  0  0  0  0  0  0  0
   -0.7870   25.1670  -28.4390 C   0  0  0  0  0  0  0  0  0  0  0  0
   -1.2140   26.1720  -29.2990 O   0  0  0  0  0  0  0  0  0  0  0  0
    0.5430   25.0400  -28.1970 N   0  0  0  0  0  0  0  0  0  0  0  0
    1.0210   24.0670  -27.3850 C   0  0  0  0  0  0  0  0  0  0  0  0
    2.2580   23.9740  -27.1750 O   0  0  0  0  0  0  0  0  0  0  0  0
    0.1680   23.1890  -26.8010 N   0  0  0  0  0  0  0  0  0  0  0  0
   -1.1710   23.2680  -27.0060 C   0  0  0  0  0  0  0  0  0  0  0  0
   -1.9230   22.4200  -26.4550 O   0  0  0  0  0  0  0  0  0  0  0  0
   -4.1232   24.9486  -24.8012 H   0  0  0  0  0  0  0  0  0  0  0  0
   -3.3111   25.9935  -26.0158 H   0  0  0  0  0  0  0  0  0  0  0  0
   -5.1008   25.8406  -26.0158 H   0  0  0  0  0  0  0  0  0  0  0  0
   -3.5946   23.2779  -26.2512 H   0  0  0  0  0  0  0  0  0  0  0  0
   -5.0778   23.9120  -27.1404 H   0  0  0  0  0  0  0  0  0  0  0  0
   -3.4740   25.4032  -28.3255 H   0  0  0  0  0  0  0  0  0  0  0  0
  1  2  1  0
  2  3  1  0
  3  4  1  0
  4  5  2  0
  5  6  1  0
  5  7  1  0
  7  8  1  0
  8  9  2  0
  8 10  1  0
 10 11  1  0
 11 12  2  0
  3 13  1  0
 13 14  2  0
 14 15  1  0
 14 16  1  0
 16 17  1  0
 17 18  2  0
 17 19  1  0
 19 20  1  0
 20 21  2  0
 11  4  1  0
 20 13  1  0
  1 22  1  0
  1 23  1  0
  1 24  1  0
  2 25  1  0
  2 26  1  0
  3 27  1  0
M  CHG  6   6  -1   7  -1  10  -1  15  -1  16  -1  19  -1
M  END
>  <UniqueID>  (34) 
33

>  <SMILES>  (34) 
CCC(c1c([O-])[n-]c(=O)[n-]c1=O)c1c([O-])[n-]c(=O)[n-]c1=O

>  <Energy>  (34) 
43.51599260925004

>  <Genealogy>  (34) 
CCC(c1c([O-])[n-]c(=O)[n-]c1=O)c1c([O-])[n-]c(=O)[n-]c1=O (protonated)
CCC(c1c([O-])[n-]c(=O)[n-]c1=O)c1c([O-])[n-]c(=O)[n-]c1=O (3D coordinates assigned)
CCC(c1c([O-])[n-]c(=O)[n-]c1=O)c1c([O-])[n-]c(=O)[n-]c1=O (optimized conformer: 43.51599260925004 kcal/mol)

>  <smiles>  (34) 
CCC(c1c(O)[nH]c(=O)[nH]c1=O)c1c(O)[nH]c(=O)[nH]c1=O

>  <score_type>  (34) 
oracle

>  <origin>  (34) 
adgpu

>  <m_score__min__energy>  (34) 
-13.210000000000001

>  <m_primary>  (34) 
energy

$$$$
34:0
     RDKit          3D

 46 49  0  0  0  0  0  0  0  0999 V2000
   -0.3700   19.3750  -29.0200 C   0  0  0  0  0  0  0  0  0  0  0  0
   -0.1880   20.0130  -27.7050 N   0  0  0  0  0  0  0  0  0  0  0  0
   -1.3160   19.7590  -26.7870 C   0  0  0  0  0  0  0  0  0  0  0  0
   -2.6250   20.3940  -27.2770 C   0  0  0  0  0  0  0  0  0  0  0  0
   -2.4250   21.7970  -27.7880 C   0  0  0  0  0  0  0  0  0  0  0  0
   -3.5490   22.6030  -28.0210 C   0  0  0  0  0  0  0  0  0  0  0  0
   -3.4080   23.9100  -28.5220 C   0  0  0  0  0  0  0  0  0  0  0  0
   -4.5540   24.7570  -28.7200 N   0  0  0  0  0  0  0  0  0  0  0  0
   -5.3220   24.9640  -30.2630 S   0  0  0  0  0  0  0  0  0  0  0  0
   -6.5550   25.8070  -30.0990 O   0  0  0  0  0  0  0  0  0  0  0  0
   -4.3740   25.6610  -31.1970 O   0  0  0  0  0  0  0  0  0  0  0  0
   -5.7940   23.3930  -30.9020 C   0  0  0  0  0  0  0  0  0  0  0  0
   -4.8140   22.5570  -31.4840 C   0  0  0  0  0  0  0  0  0  0  0  0
   -5.1700   21.3240  -32.0550 C   0  0  0  0  0  0  0  0  0  0  0  0
   -6.5140   20.9420  -32.0270 C   0  0  0  0  0  0  0  0  0  0  0  0
   -7.4710   21.7630  -31.4560 C   0  0  0  0  0  0  0  0  0  0  0  0
   -7.1440   22.9910  -30.8870 C   0  0  0  0  0  0  0  0  0  0  0  0
   -8.7640   21.1260  -31.6380 C   0  0  0  0  0  0  0  0  0  0  0  0
   -9.8880   21.5650  -31.2780 O   0  0  0  0  0  0  0  0  0  0  0  0
   -8.4910   19.8880  -32.3540 C   0  0  0  0  0  0  0  0  0  0  0  0
   -9.3580   19.0680  -32.7550 O   0  0  0  0  0  0  0  0  0  0  0  0
   -7.0860   19.7460  -32.5720 N   0  0  0  0  0  0  0  0  0  0  0  0
   -6.4670   18.8700  -33.5600 C   0  0  0  0  0  0  0  0  0  0  0  0
   -2.1220   24.3850  -28.8320 C   0  0  0  0  0  0  0  0  0  0  0  0
   -1.9470   25.6700  -29.3340 O   0  0  0  0  0  0  0  0  0  0  0  0
   -1.0020   23.5750  -28.6250 C   0  0  0  0  0  0  0  0  0  0  0  0
   -1.1430   22.2780  -28.1140 C   0  0  0  0  0  0  0  0  0  0  0  0
    0.0930   21.4570  -27.8260 C   0  0  0  0  0  0  0  0  0  0  0  0
   -0.6693   18.3258  -28.8802 H   0  0  0  0  0  0  0  0  0  0  0  0
   -1.1520   19.9078  -29.5809 H   0  0  0  0  0  0  0  0  0  0  0  0
    0.5754   19.4150  -29.5809 H   0  0  0  0  0  0  0  0  0  0  0  0
   -1.4620   18.6723  -26.6992 H   0  0  0  0  0  0  0  0  0  0  0  0
   -1.0666   20.2124  -25.8163 H   0  0  0  0  0  0  0  0  0  0  0  0
   -3.0347   19.7767  -28.0900 H   0  0  0  0  0  0  0  0  0  0  0  0
   -3.3153   20.4430  -26.4220 H   0  0  0  0  0  0  0  0  0  0  0  0
   -4.5536   22.2081  -27.8093 H   0  0  0  0  0  0  0  0  0  0  0  0
   -5.0470   25.1600  -27.8910 H   0  0  0  0  0  0  0  0  0  0  0  0
   -3.7611   22.8755  -31.4898 H   0  0  0  0  0  0  0  0  0  0  0  0
   -4.4093   20.6748  -32.5131 H   0  0  0  0  0  0  0  0  0  0  0  0
   -7.9188   23.6298  -30.4380 H   0  0  0  0  0  0  0  0  0  0  0  0
   -5.9059   18.0759  -33.0456 H   0  0  0  0  0  0  0  0  0  0  0  0
   -7.2476   18.4183  -34.1898 H   0  0  0  0  0  0  0  0  0  0  0  0
   -5.7806   19.4550  -34.1898 H   0  0  0  0  0  0  0  0  0  0  0  0
    0.0001   23.9595  -28.8656 H   0  0  0  0  0  0  0  0  0  0  0  0
    0.8117   21.6066  -28.6452 H   0  0  0  0  0  0  0  0  0  0  0  0
    0.4947   21.7957  -26.8596 H   0  0  0  0  0  0  0  0  0  0  0  0
  1  2  1  0
  2  3  1  0
  3  4  1  0
  4  5  1  0
  5  6  2  0
  6  7  1  0
  7  8  1  0
  8  9  1  0
  9 10  2  0
  9 11  2  0
  9 12  1  0
 12 13  2  0
 13 14  1  0
 14 15  2  0
 15 16  1  0
 16 17  2  0
 16 18  1  0
 18 19  2  0
 18 20  1  0
 20 21  2  0
 20 22  1  0
 22 23  1  0
  7 24  2  0
 24 25  1  0
 24 26  1  0
 26 27  2  0
 27 28  1  0
 28  2  1  0
 27  5  1  0
 17 12  1  0
 22 15  1  0
  1 29  1  0
  1 30  1  0
  1 31  1  0
  3 32  1  0
  3 33  1  0
  4 34  1  0
  4 35  1  0
  6 36  1  0
  8 37  1  0
 13 38  1  0
 14 39  1  0
 17 40  1  0
 23 41  1  0
 23 42  1  0
 23 43  1  0
 26 44  1  0
 28 45  1  0
 28 46  1  0
M  CHG  1  25  -1
M  END
>  <UniqueID>  (35) 
34

>  <SMILES>  (35) 
CN1CCc2cc(NS(=O)(=O)c3ccc4c(c3)C(=O)C(=O)N4C)c([O-])cc2C1

>  <Energy>  (35) 
88.55166243210083

>  <Genealogy>  (35) 
CN1CCc2cc(NS(=O)(=O)c3ccc4c(c3)C(=O)C(=O)N4C)c([O-])cc2C1 (protonated)
CN1CCc2cc(NS(=O)(=O)c3ccc4c(c3)C(=O)C(=O)N4C)c([O-])cc2C1 (3D coordinates assigned)
CN1CCc2cc(NS(=O)(=O)c3ccc4c(c3)C(=O)C(=O)N4C)c([O-])cc2C1 (nonaromatic ring conformer: 88.55166243210083 kcal/mol)

>  <smiles>  (35) 
CN1CCc2cc(NS(=O)(=O)c3ccc4c(c3)C(=O)C(=O)N4C)c(O)cc2C1

>  <score_type>  (35) 
oracle

>  <origin>  (35) 
adgpu

>  <m_score__min__energy>  (35) 
-14.19

>  <m_primary>  (35) 
energy

$$$$
35:0
     RDKit          3D

 59 62  0  0  0  0  0  0  0  0999 V2000
   -3.5090   15.7790  -33.3860 C   0  0  0  0  0  0  0  0  0  0  0  0
   -3.3430   16.6290  -34.5750 N   0  0  0  0  0  0  0  0  0  0  0  0
   -2.4650   17.7740  -34.2820 C   0  0  0  0  0  0  0  0  0  0  0  0
   -4.6350   17.0360  -35.1770 C   0  0  0  0  0  0  0  0  0  0  0  0
   -5.6270   17.6020  -34.1790 C   0  0  0  0  0  0  0  0  0  0  0  0
   -6.6900   16.8160  -33.7090 C   0  0  0  0  0  0  0  0  0  0  0  0
   -7.5900   17.3360  -32.7770 C   0  0  0  0  0  0  0  0  0  0  0  0
   -7.4440   18.6420  -32.3040 C   0  0  0  0  0  0  0  0  0  0  0  0
   -6.3830   19.4460  -32.7640 C   0  0  0  0  0  0  0  0  0  0  0  0
   -6.2000   20.8240  -32.2460 C   0  0  0  0  0  0  0  0  0  0  0  0
   -5.1180   21.6160  -32.6810 C   0  0  0  0  0  0  0  0  0  0  0  0
   -4.9150   22.8920  -32.1490 C   0  0  0  0  0  0  0  0  0  0  0  0
   -5.7920   23.3970  -31.1790 C   0  0  0  0  0  0  0  0  0  0  0  0
   -5.4600   24.9420  -30.4020 S   0  0  0  0  0  0  0  0  0  0  0  0
   -6.0530   24.9480  -29.0210 O   0  0  0  0  0  0  0  0  0  0  0  0
   -6.0960   26.0430  -31.2020 O   0  0  0  0  0  0  0  0  0  0  0  0
   -3.7530   25.2360  -30.2910 N   0  0  0  0  0  0  0  0  0  0  0  0
   -2.8420   24.2770  -29.7430 C   0  0  0  0  0  0  0  0  0  0  0  0
   -3.1730   22.9170  -29.6940 C   0  0  0  0  0  0  0  0  0  0  0  0
   -2.3020   21.9930  -29.0980 C   0  0  0  0  0  0  0  0  0  0  0  0
   -1.0390   22.4240  -28.6370 C   0  0  0  0  0  0  0  0  0  0  0  0
   -0.6970   23.7820  -28.7250 C   0  0  0  0  0  0  0  0  0  0  0  0
   -1.5930   24.7050  -29.2770 C   0  0  0  0  0  0  0  0  0  0  0  0
   -1.2450   26.0530  -29.3390 O   0  0  0  0  0  0  0  0  0  0  0  0
   -0.1050   21.4640  -27.9370 C   0  0  0  0  0  0  0  0  0  0  0  0
   -0.4140   20.0590  -28.2720 N   0  0  0  0  0  0  0  0  0  0  0  0
    0.4330   19.1580  -27.4720 C   0  0  0  0  0  0  0  0  0  0  0  0
   -1.8370   19.7740  -28.0220 C   0  0  0  0  0  0  0  0  0  0  0  0
   -2.6960   20.5390  -29.0330 C   0  0  0  0  0  0  0  0  0  0  0  0
   -6.8850   22.6240  -30.7580 C   0  0  0  0  0  0  0  0  0  0  0  0
   -7.0860   21.3470  -31.2830 C   0  0  0  0  0  0  0  0  0  0  0  0
   -5.4860   18.9170  -33.7110 C   0  0  0  0  0  0  0  0  0  0  0  0
   -3.3897   16.3899  -32.4790 H   0  0  0  0  0  0  0  0  0  0  0  0
   -4.5122   15.3279  -33.3949 H   0  0  0  0  0  0  0  0  0  0  0  0
   -2.7492   14.9836  -33.3949 H   0  0  0  0  0  0  0  0  0  0  0  0
   -2.3719   17.8954  -33.1927 H   0  0  0  0  0  0  0  0  0  0  0  0
   -1.4708   17.5945  -34.7172 H   0  0  0  0  0  0  0  0  0  0  0  0
   -2.8963   18.6876  -34.7172 H   0  0  0  0  0  0  0  0  0  0  0  0
   -4.4353   17.8030  -35.9398 H   0  0  0  0  0  0  0  0  0  0  0  0
   -5.0902   16.1282  -35.5998 H   0  0  0  0  0  0  0  0  0  0  0  0
   -6.8147   15.7866  -34.0761 H   0  0  0  0  0  0  0  0  0  0  0  0
   -8.4199   16.7128  -32.4126 H   0  0  0  0  0  0  0  0  0  0  0  0
   -8.1590   19.0434  -31.5708 H   0  0  0  0  0  0  0  0  0  0  0  0
   -4.4286   21.2267  -33.4447 H   0  0  0  0  0  0  0  0  0  0  0  0
   -4.0657   23.5012  -32.4919 H   0  0  0  0  0  0  0  0  0  0  0  0
   -4.1234   22.5707  -30.1263 H   0  0  0  0  0  0  0  0  0  0  0  0
    0.2820   24.1236  -28.3577 H   0  0  0  0  0  0  0  0  0  0  0  0
    0.9282   21.6846  -28.2434 H   0  0  0  0  0  0  0  0  0  0  0  0
   -0.2305   21.5933  -26.8519 H   0  0  0  0  0  0  0  0  0  0  0  0
    0.2580   19.3441  -26.4021 H   0  0  0  0  0  0  0  0  0  0  0  0
    0.1824   18.1133  -27.7082 H   0  0  0  0  0  0  0  0  0  0  0  0
    1.4912   19.3436  -27.7082 H   0  0  0  0  0  0  0  0  0  0  0  0
   -2.0190   18.6944  -28.1288 H   0  0  0  0  0  0  0  0  0  0  0  0
   -2.1009   20.0912  -27.0023 H   0  0  0  0  0  0  0  0  0  0  0  0
   -2.5658   20.0877  -30.0277 H   0  0  0  0  0  0  0  0  0  0  0  0
   -3.7464   20.4781  -28.7122 H   0  0  0  0  0  0  0  0  0  0  0  0
   -7.5857   23.0263  -30.0115 H   0  0  0  0  0  0  0  0  0  0  0  0
   -7.9414   20.7447  -30.9431 H   0  0  0  0  0  0  0  0  0  0  0  0
   -4.6640   19.5426  -34.0889 H   0  0  0  0  0  0  0  0  0  0  0  0
  1  2  1  0
  2  3  1  0
  2  4  1  0
  4  5  1  0
  5  6  2  0
  6  7  1  0
  7  8  2  0
  8  9  1  0
  9 10  1  0
 10 11  2  0
 11 12  1  0
 12 13  2  0
 13 14  1  0
 14 15  2  0
 14 16  2  0
 14 17  1  0
 17 18  1  0
 18 19  2  0
 19 20  1  0
 20 21  2  0
 21 22  1  0
 22 23  2  0
 23 24  1  0
 21 25  1  0
 25 26  1  0
 26 27  1  0
 26 28  1  0
 28 29  1  0
 13 30  1  0
 30 31  2  0
  9 32  2  0
 32  5  1  0
 31 10  1  0
 23 18  1  0
 29 20  1  0
  1 33  1  0
  1 34  1  0
  1 35  1  0
  3 36  1  0
  3 37  1  0
  3 38  1  0
  4 39  1  0
  4 40  1  0
  6 41  1  0
  7 42  1  0
  8 43  1  0
 11 44  1  0
 12 45  1  0
 19 46  1  0
 22 47  1  0
 25 48  1  0
 25 49  1  0
 27 50  1  0
 27 51  1  0
 27 52  1  0
 28 53  1  0
 28 54  1  0
 29 55  1  0
 29 56  1  0
 30 57  1  0
 31 58  1  0
 32 59  1  0
M  CHG  2  17  -1  24  -1
M  END
>  <UniqueID>  (36) 
35

>  <SMILES>  (36) 
CN(C)Cc1cccc(-c2ccc(S(=O)(=O)[N-]c3cc4c(cc3[O-])CN(C)CC4)cc2)c1

>  <Energy>  (36) 
78.6712885207746

>  <Genealogy>  (36) 
CN(C)Cc1cccc(-c2ccc(S(=O)(=O)[N-]c3cc4c(cc3[O-])CN(C)CC4)cc2)c1 (protonated)
CN(C)Cc1cccc(-c2ccc(S(=O)(=O)[N-]c3cc4c(cc3[O-])CN(C)CC4)cc2)c1 (3D coordinates assigned)
CN(C)Cc1cccc(-c2ccc(S(=O)(=O)[N-]c3cc4c(cc3[O-])CN(C)CC4)cc2)c1 (nonaromatic ring conformer: 78.6712885207746 kcal/mol)

>  <smiles>  (36) 
CN(C)Cc1cccc(-c2ccc(S(=O)(=O)Nc3cc4c(cc3O)CN(C)CC4)cc2)c1

>  <score_type>  (36) 
oracle

>  <origin>  (36) 
adgpu

>  <m_score__min__energy>  (36) 
-14.5

>  <m_primary>  (36) 
energy

$$$$
36:0
     RDKit          3D

 70 74  0  0  1  0  0  0  0  0999 V2000
    1.9430   19.4180  -27.8210 C   0  0  0  0  0  0  0  0  0  0  0  0
    0.6560   20.0570  -28.1680 C   0  0  0  0  0  0  0  0  0  0  0  0
    0.3630   21.2980  -27.6440 C   0  0  0  0  0  0  0  0  0  0  0  0
   -0.8530   21.9060  -27.9710 C   0  0  0  0  0  0  0  0  0  0  0  0
   -1.7660   21.2920  -28.8050 C   0  0  0  0  0  0  0  0  0  0  0  0
   -3.0130   21.9970  -29.0930 C   0  0  0  0  0  0  0  0  0  0  0  0
   -3.8050   22.1720  -28.1230 O   0  0  0  0  0  0  0  0  0  0  0  0
   -3.3780   22.4820  -30.3560 N   0  0  0  0  0  0  0  0  0  0  0  0
   -4.6330   23.1640  -30.5300 C   0  0  0  0  0  0  0  0  0  0  0  0
   -5.7680   22.4950  -30.9430 C   0  0  0  0  0  0  0  0  0  0  0  0
   -6.9630   23.1870  -31.1010 C   0  0  0  0  0  0  0  0  0  0  0  0
   -8.1830   22.4600  -31.5460 C   0  0  0  0  0  0  0  0  0  0  0  0
   -8.8790   21.9080  -30.3190 C   0  0  0  0  0  0  0  0  0  0  0  0
   -9.0730   23.4110  -32.3300 C   0  0  0  0  0  0  0  0  0  0  0  0
   -7.7470   21.2860  -32.3910 C   0  0  0  0  0  0  0  0  0  0  0  0
   -6.9950   24.5510  -30.8380 C   0  0  0  0  0  0  0  0  0  0  0  0
   -5.8510   25.2260  -30.4230 C   0  0  0  0  0  0  0  0  0  0  0  0
   -4.6820   24.5210  -30.2730 C   0  0  0  0  0  0  0  0  0  0  0  0
   -3.5320   25.2020  -29.8550 O   0  0  0  0  0  0  0  0  0  0  0  0
   -1.4820   20.0500  -29.3340 C   0  0  0  0  0  0  0  0  0  0  0  0
   -0.2600   19.4010  -29.0270 C   0  0  0  0  0  0  0  0  0  0  0  0
    0.0500   18.2180  -29.6490 N   0  0  0  0  0  0  0  0  0  0  0  0
    0.4430   17.8890  -30.7800 C   0  0  0  0  0  0  0  0  0  0  0  0
    0.6560   16.5970  -31.0670 N   0  0  0  0  0  0  0  0  0  0  0  0
    1.0770   16.1460  -32.2600 C   0  0  0  0  0  0  0  0  0  0  0  0
    1.2940   17.0630  -33.2160 N   0  0  0  0  0  0  0  0  0  0  0  0
    1.0910   18.3690  -32.9660 C   0  0  0  0  0  0  0  0  0  0  0  0
    1.3220   19.2590  -33.9600 C   0  0  0  0  0  0  0  0  0  0  0  0
    1.1120   20.5930  -33.6970 C   0  0  0  0  0  0  0  0  0  0  0  0
    1.3260   21.5730  -34.7050 N   0  0  0  0  0  0  0  0  0  0  0  0
    2.6080   22.2040  -34.9490 C   0  0  0  0  0  0  0  0  0  0  0  0
    2.6460   22.5120  -36.4330 C   0  0  0  0  0  0  0  0  0  0  0  0
    1.6330   23.3470  -36.8390 O   0  0  0  0  0  0  0  0  0  0  0  0
    0.5150   23.3540  -36.0290 C   0  0  0  0  0  0  0  0  0  0  0  0
    0.1890   21.9460  -35.5100 C   0  0  0  0  0  0  0  0  0  0  0  0
    0.7010   21.0170  -32.5240 N   0  0  0  0  0  0  0  0  0  0  0  0
    0.4520   20.1550  -31.4810 C   0  0  0  0  0  0  0  0  0  0  0  0
    0.6570   18.8410  -31.7370 C   0  0  0  0  0  0  0  0  0  0  0  0
    2.0442   19.3678  -26.7268 H   0  0  0  0  0  0  0  0  0  0  0  0
    1.9719   18.4009  -28.2390 H   0  0  0  0  0  0  0  0  0  0  0  0
    2.7707   20.0098  -28.2390 H   0  0  0  0  0  0  0  0  0  0  0  0
    1.0768   21.8036  -26.9770 H   0  0  0  0  0  0  0  0  0  0  0  0
   -1.0876   22.8965  -27.5541 H   0  0  0  0  0  0  0  0  0  0  0  0
   -2.7310   22.3420  -31.1640 H   0  0  0  0  0  0  0  0  0  0  0  0
   -5.7265   21.4149  -31.1469 H   0  0  0  0  0  0  0  0  0  0  0  0
   -8.3893   22.2964  -29.4138 H   0  0  0  0  0  0  0  0  0  0  0  0
   -9.9347   22.2171  -30.3261 H   0  0  0  0  0  0  0  0  0  0  0  0
   -8.8185   20.8097  -30.3261 H   0  0  0  0  0  0  0  0  0  0  0  0
   -9.6531   24.0309  -31.6305 H   0  0  0  0  0  0  0  0  0  0  0  0
   -8.4492   24.0588  -32.9634 H   0  0  0  0  0  0  0  0  0  0  0  0
   -9.7607   22.8314  -32.9634 H   0  0  0  0  0  0  0  0  0  0  0  0
   -7.4392   20.4573  -31.7364 H   0  0  0  0  0  0  0  0  0  0  0  0
   -8.5841   20.9603  -33.0259 H   0  0  0  0  0  0  0  0  0  0  0  0
   -6.9002   21.5856  -33.0259 H   0  0  0  0  0  0  0  0  0  0  0  0
   -7.9376   25.1049  -30.9595 H   0  0  0  0  0  0  0  0  0  0  0  0
   -5.8825   26.3064  -30.2185 H   0  0  0  0  0  0  0  0  0  0  0  0
   -3.4120   25.3220  -28.8410 H   0  0  0  0  0  0  0  0  0  0  0  0
   -2.2089   19.5601  -29.9986 H   0  0  0  0  0  0  0  0  0  0  0  0
    0.4920   15.8710  -30.3310 H   0  0  0  0  0  0  0  0  0  0  0  0
    1.2368   15.0736  -32.4453 H   0  0  0  0  0  0  0  0  0  0  0  0
    1.6677   18.9250  -34.9494 H   0  0  0  0  0  0  0  0  0  0  0  0
    2.6952   23.1313  -34.3638 H   0  0  0  0  0  0  0  0  0  0  0  0
    3.4418   21.5511  -34.6514 H   0  0  0  0  0  0  0  0  0  0  0  0
    3.6084   22.9910  -36.6660 H   0  0  0  0  0  0  0  0  0  0  0  0
    2.5182   21.5593  -36.9678 H   0  0  0  0  0  0  0  0  0  0  0  0
    0.6989   24.0177  -35.1713 H   0  0  0  0  0  0  0  0  0  0  0  0
   -0.3398   23.7102  -36.6226 H   0  0  0  0  0  0  0  0  0  0  0  0
   -0.7274   21.9606  -34.9017 H   0  0  0  0  0  0  0  0  0  0  0  0
    0.0114   21.2341  -36.3296 H   0  0  0  0  0  0  0  0  0  0  0  0
    0.1074   20.5114  -30.4990 H   0  0  0  0  0  0  0  0  0  0  0  0
  1  2  1  0
  2  3  2  0
  3  4  1  0
  4  5  2  0
  5  6  1  0
  6  7  2  0
  6  8  1  0
  8  9  1  0
  9 10  2  0
 10 11  1  0
 11 12  1  0
 12 13  1  0
 12 14  1  0
 12 15  1  0
 11 16  2  0
 16 17  1  0
 17 18  2  0
 18 19  1  0
  5 20  1  0
 20 21  2  0
 21 22  1  0
 22 23  2  0
 23 24  1  0
 24 25  1  0
 25 26  2  0
 26 27  1  0
 27 28  2  0
 28 29  1  0
 29 30  1  0
 30 31  1  0
 31 32  1  0
 32 33  1  0
 33 34  1  0
 34 35  1  0
 29 36  2  0
 36 37  1  0
 37 38  2  0
 21  2  1  0
 38 23  1  0
 18  9  1  0
 38 27  1  0
 35 30  1  0
  1 39  1  0
  1 40  1  0
  1 41  1  0
  3 42  1  0
  4 43  1  0
  8 44  1  0
 10 45  1  0
 13 46  1  0
 13 47  1  0
 13 48  1  0
 14 49  1  0
 14 50  1  0
 14 51  1  0
 15 52  1  0
 15 53  1  0
 15 54  1  0
 16 55  1  0
 17 56  1  0
 19 57  1  0
 20 58  1  0
 24 59  1  0
 25 60  1  0
 28 61  1  0
 31 62  1  0
 31 63  1  0
 32 64  1  0
 32 65  1  0
 34 66  1  0
 34 67  1  0
 35 68  1  0
 35 69  1  0
 37 70  1  0
M  END
>  <smiles>  (37) 
Cc1ccc(C(=O)Nc2cc(C(C)(C)C)ccc2O)cc1N=c1[nH]cnc2cc(N3CCOCC3)ncc12

>  <score_type>  (37) 
oracle

>  <origin>  (37) 
adgpu

>  <m_score__min__energy>  (37) 
-10.460000000000001

>  <m_primary>  (37) 
energy

$$$$
37:0
     RDKit          3D

 61 64  0  0  0  0  0  0  0  0999 V2000
   -3.4880   25.2760  -30.5560 N   0  0  0  0  0  0  0  0  0  0  0  0
   -5.0630   24.9420  -29.9250 S   0  0  0  0  0  0  0  0  0  0  0  0
   -5.8820   26.2040  -29.9590 O   0  0  0  0  0  0  0  0  0  0  0  0
   -4.9500   24.4820  -28.4970 O   0  0  0  0  0  0  0  0  0  0  0  0
   -5.8340   23.6800  -30.8940 C   0  0  0  0  0  0  0  0  0  0  0  0
   -7.2340   23.6630  -30.9940 C   0  0  0  0  0  0  0  0  0  0  0  0
   -7.8820   22.6640  -31.7210 C   0  0  0  0  0  0  0  0  0  0  0  0
   -7.1390   21.6790  -32.3670 C   0  0  0  0  0  0  0  0  0  0  0  0
   -5.7470   21.6910  -32.2920 C   0  0  0  0  0  0  0  0  0  0  0  0
   -5.0740   22.6780  -31.5480 C   0  0  0  0  0  0  0  0  0  0  0  0
   -3.6340   22.6870  -31.4880 N   0  0  0  0  0  0  0  0  0  0  0  0
   -2.6780   21.3370  -30.9580 S   0  0  0  0  0  0  0  0  0  0  0  0
   -3.5530   20.1470  -30.6720 O   0  0  0  0  0  0  0  0  0  0  0  0
   -1.9750   21.7090  -29.6820 O   0  0  0  0  0  0  0  0  0  0  0  0
   -1.4830   20.9450  -32.1900 C   0  0  0  0  0  0  0  0  0  0  0  0
   -0.4580   20.0210  -31.9300 C   0  0  0  0  0  0  0  0  0  0  0  0
    0.4800   19.7160  -32.9220 C   0  0  0  0  0  0  0  0  0  0  0  0
    0.4080   20.3390  -34.1770 C   0  0  0  0  0  0  0  0  0  0  0  0
    1.5720   19.9460  -35.4380 S   0  0  0  0  0  0  0  0  0  0  0  0
    1.2070   18.6510  -36.1070 O   0  0  0  0  0  0  0  0  0  0  0  0
    2.9410   19.8020  -34.8340 O   0  0  0  0  0  0  0  0  0  0  0  0
    1.5920   21.2300  -36.5950 N   0  0  0  0  0  0  0  0  0  0  0  0
    1.9410   22.5560  -36.2030 C   0  0  0  0  0  0  0  0  0  0  0  0
    3.2000   22.8280  -35.6490 C   0  0  0  0  0  0  0  0  0  0  0  0
    3.5420   24.1380  -35.2990 C   0  0  0  0  0  0  0  0  0  0  0  0
    2.6320   25.1790  -35.5110 C   0  0  0  0  0  0  0  0  0  0  0  0
    1.3710   24.9120  -36.0660 C   0  0  0  0  0  0  0  0  0  0  0  0
    0.2590   26.2240  -36.4480 S   0  0  0  0  0  0  0  0  0  0  0  0
   -1.1120   25.6690  -36.7250 O   0  0  0  0  0  0  0  0  0  0  0  0
    0.7510   26.9160  -37.6880 O   0  0  0  0  0  0  0  0  0  0  0  0
    0.2130   27.3670  -35.1200 N   0  0  0  0  0  0  0  0  0  0  0  0
   -1.1700   27.7290  -34.7550 C   0  0  0  0  0  0  0  0  0  0  0  0
   -1.8230   28.6770  -35.7930 C   0  0  0  0  0  0  0  0  0  0  0  0
   -0.8850   29.3130  -36.6480 O   0  0  0  0  0  0  0  0  0  0  0  0
    0.2300   29.7570  -35.9070 C   0  0  0  0  0  0  0  0  0  0  0  0
    1.0490   28.5580  -35.3890 C   0  0  0  0  0  0  0  0  0  0  0  0
    1.0260   23.5960  -36.4020 C   0  0  0  0  0  0  0  0  0  0  0  0
   -0.6270   21.2470  -34.4430 C   0  0  0  0  0  0  0  0  0  0  0  0
   -1.5670   21.5490  -33.4530 C   0  0  0  0  0  0  0  0  0  0  0  0
   -3.5910   26.0680  -31.2290 H   0  0  0  0  0  0  0  0  0  0  0  0
   -7.8256   24.4444  -30.4946 H   0  0  0  0  0  0  0  0  0  0  0  0
   -8.9802   22.6543  -31.7840 H   0  0  0  0  0  0  0  0  0  0  0  0
   -7.6514   20.8902  -32.9374 H   0  0  0  0  0  0  0  0  0  0  0  0
   -5.1677   20.9197  -32.8207 H   0  0  0  0  0  0  0  0  0  0  0  0
   -3.1090   23.5570  -31.7190 H   0  0  0  0  0  0  0  0  0  0  0  0
   -0.3926   19.5363  -30.9447 H   0  0  0  0  0  0  0  0  0  0  0  0
    1.2765   18.9854  -32.7174 H   0  0  0  0  0  0  0  0  0  0  0  0
    3.9188   22.0108  -35.4897 H   0  0  0  0  0  0  0  0  0  0  0  0
    4.5267   24.3499  -34.8569 H   0  0  0  0  0  0  0  0  0  0  0  0
    2.9056   26.2099  -35.2419 H   0  0  0  0  0  0  0  0  0  0  0  0
   -1.7705   26.8098  -34.6884 H   0  0  0  0  0  0  0  0  0  0  0  0
   -1.1364   28.2574  -33.7908 H   0  0  0  0  0  0  0  0  0  0  0  0
   -2.5167   28.0899  -36.4127 H   0  0  0  0  0  0  0  0  0  0  0  0
   -2.3362   29.4699  -35.2291 H   0  0  0  0  0  0  0  0  0  0  0  0
    0.8681   30.3793  -36.5517 H   0  0  0  0  0  0  0  0  0  0  0  0
   -0.1261   30.3419  -35.0461 H   0  0  0  0  0  0  0  0  0  0  0  0
    1.8034   28.2946  -36.1450 H   0  0  0  0  0  0  0  0  0  0  0  0
    1.5127   28.8592  -34.4381 H   0  0  0  0  0  0  0  0  0  0  0  0
    0.0332   23.3799  -36.8234 H   0  0  0  0  0  0  0  0  0  0  0  0
   -0.6995   21.7225  -35.4323 H   0  0  0  0  0  0  0  0  0  0  0  0
   -2.3759   22.2634  -33.6656 H   0  0  0  0  0  0  0  0  0  0  0  0
  1  2  1  0
  2  3  2  0
  2  4  2  0
  2  5  1  0
  5  6  2  0
  6  7  1  0
  7  8  2  0
  8  9  1  0
  9 10  2  0
 10 11  1  0
 11 12  1  0
 12 13  2  0
 12 14  2  0
 12 15  1  0
 15 16  2  0
 16 17  1  0
 17 18  2  0
 18 19  1  0
 19 20  2  0
 19 21  2  0
 19 22  1  0
 22 23  1  0
 23 24  2  0
 24 25  1  0
 25 26  2  0
 26 27  1  0
 27 28  1  0
 28 29  2  0
 28 30  2  0
 28 31  1  0
 31 32  1  0
 32 33  1  0
 33 34  1  0
 34 35  1  0
 35 36  1  0
 27 37  2  0
 18 38  1  0
 38 39  2  0
 10  5  1  0
 39 15  1  0
 37 23  1  0
 36 31  1  0
  1 40  1  0
  6 41  1  0
  7 42  1  0
  8 43  1  0
  9 44  1  0
 11 45  1  0
 16 46  1  0
 17 47  1  0
 24 48  1  0
 25 49  1  0
 26 50  1  0
 32 51  1  0
 32 52  1  0
 33 53  1  0
 33 54  1  0
 35 55  1  0
 35 56  1  0
 36 57  1  0
 36 58  1  0
 37 59  1  0
 38 60  1  0
 39 61  1  0
M  CHG  2   1  -1  22  -1
M  END
>  <UniqueID>  (38) 
36

>  <SMILES>  (38) 
[NH-]S(=O)(=O)c1ccccc1NS(=O)(=O)c1ccc(S(=O)(=O)[N-]c2cccc(S(=O)(=O)N3CCOCC3)c2)cc1

>  <Energy>  (38) 
85.72618595810124

>  <Genealogy>  (38) 
[NH-]S(=O)(=O)c1ccccc1NS(=O)(=O)c1ccc(S(=O)(=O)[N-]c2cccc(S(=O)(=O)N3CCOCC3)c2)cc1 (protonated)
[NH-]S(=O)(=O)c1ccccc1NS(=O)(=O)c1ccc(S(=O)(=O)[N-]c2cccc(S(=O)(=O)N3CCOCC3)c2)cc1 (3D coordinates assigned)
[NH-]S(=O)(=O)c1ccccc1NS(=O)(=O)c1ccc(S(=O)(=O)[N-]c2cccc(S(=O)(=O)N3CCOCC3)c2)cc1 (nonaromatic ring conformer: 85.72618595810124 kcal/mol)

>  <smiles>  (38) 
NS(=O)(=O)c1ccccc1NS(=O)(=O)c1ccc(S(=O)(=O)Nc2cccc(S(=O)(=O)N3CCOCC3)c2)cc1

>  <score_type>  (38) 
oracle

>  <origin>  (38) 
adgpu

>  <m_score__min__energy>  (38) 
-14.34

>  <m_primary>  (38) 
energy

$$$$
38:0
     RDKit          3D

 59 62  0  0  0  0  0  0  0  0999 V2000
   -1.5350   23.3090  -29.8220 O   0  0  0  0  0  0  0  0  0  0  0  0
   -1.7890   23.8750  -28.7230 C   0  0  0  0  0  0  0  0  0  0  0  0
   -3.1120   24.3770  -28.4730 N   0  0  0  0  0  0  0  0  0  0  0  0
   -4.2610   23.9690  -29.2310 C   0  0  0  0  0  0  0  0  0  0  0  0
   -5.0040   22.8600  -28.8030 C   0  0  0  0  0  0  0  0  0  0  0  0
   -6.1200   22.4320  -29.5260 C   0  0  0  0  0  0  0  0  0  0  0  0
   -6.4970   23.0950  -30.7010 C   0  0  0  0  0  0  0  0  0  0  0  0
   -7.8940   22.5410  -31.6260 S   0  0  0  0  0  0  0  0  0  0  0  0
   -8.9490   22.0450  -30.6780 O   0  0  0  0  0  0  0  0  0  0  0  0
   -8.4700   23.7000  -32.3920 O   0  0  0  0  0  0  0  0  0  0  0  0
   -7.4760   21.2610  -32.7470 N   0  0  0  0  0  0  0  0  0  0  0  0
   -6.0690   20.8740  -32.6090 C   0  0  0  0  0  0  0  0  0  0  0  0
   -5.9960   19.6300  -31.7340 C   0  0  0  0  0  0  0  0  0  0  0  0
   -7.4120   19.0960  -31.6580 C   0  0  0  0  0  0  0  0  0  0  0  0
   -8.2620   20.0500  -32.4850 C   0  0  0  0  0  0  0  0  0  0  0  0
   -5.7470   24.1940  -31.1440 C   0  0  0  0  0  0  0  0  0  0  0  0
   -4.6270   24.6220  -30.4250 C   0  0  0  0  0  0  0  0  0  0  0  0
   -3.8670   25.6760  -30.9210 O   0  0  0  0  0  0  0  0  0  0  0  0
   -0.7060   24.0510  -27.7240 C   0  0  0  0  0  0  0  0  0  0  0  0
   -0.4540   23.0690  -26.7500 C   0  0  0  0  0  0  0  0  0  0  0  0
    0.5710   23.2430  -25.8160 C   0  0  0  0  0  0  0  0  0  0  0  0
    1.3620   24.3990  -25.8400 C   0  0  0  0  0  0  0  0  0  0  0  0
    2.6410   24.6270  -24.6440 S   0  0  0  0  0  0  0  0  0  0  0  0
    3.9770   24.4070  -25.2990 O   0  0  0  0  0  0  0  0  0  0  0  0
    2.4850   23.6050  -23.5520 O   0  0  0  0  0  0  0  0  0  0  0  0
    2.5940   26.2330  -23.9540 N   0  0  0  0  0  0  0  0  0  0  0  0
    3.2830   27.2210  -24.8210 C   0  0  0  0  0  0  0  0  0  0  0  0
    2.3090   28.1050  -25.6140 C   0  0  0  0  0  0  0  0  0  0  0  0
    1.3640   28.8730  -24.6730 C   0  0  0  0  0  0  0  0  0  0  0  0
    1.0600   28.1030  -23.3760 C   0  0  0  0  0  0  0  0  0  0  0  0
    1.2070   26.5930  -23.5840 C   0  0  0  0  0  0  0  0  0  0  0  0
    1.1280   25.3720  -26.8190 C   0  0  0  0  0  0  0  0  0  0  0  0
    0.1050   25.2010  -27.7550 C   0  0  0  0  0  0  0  0  0  0  0  0
   -3.2140   25.2030  -27.8410 H   0  0  0  0  0  0  0  0  0  0  0  0
   -4.7059   22.3226  -27.8907 H   0  0  0  0  0  0  0  0  0  0  0  0
   -6.7052   21.5708  -29.1712 H   0  0  0  0  0  0  0  0  0  0  0  0
   -5.6447   20.6563  -33.6003 H   0  0  0  0  0  0  0  0  0  0  0  0
   -5.4952   21.6928  -32.1503 H   0  0  0  0  0  0  0  0  0  0  0  0
   -5.3282   18.8820  -32.1863 H   0  0  0  0  0  0  0  0  0  0  0  0
   -5.5955   19.8598  -30.7356 H   0  0  0  0  0  0  0  0  0  0  0  0
   -7.4607   18.0797  -32.0760 H   0  0  0  0  0  0  0  0  0  0  0  0
   -7.7663   19.0370  -30.6183 H   0  0  0  0  0  0  0  0  0  0  0  0
   -8.5373   19.5724  -33.4369 H   0  0  0  0  0  0  0  0  0  0  0  0
   -9.1819   20.3068  -31.9393 H   0  0  0  0  0  0  0  0  0  0  0  0
   -6.0417   24.7224  -32.0627 H   0  0  0  0  0  0  0  0  0  0  0  0
   -1.0682   22.1568  -26.7228 H   0  0  0  0  0  0  0  0  0  0  0  0
    0.7577   22.4681  -25.0579 H   0  0  0  0  0  0  0  0  0  0  0  0
    3.9075   27.8681  -24.1875 H   0  0  0  0  0  0  0  0  0  0  0  0
    3.8838   26.6571  -25.5498 H   0  0  0  0  0  0  0  0  0  0  0  0
    2.8848   28.8268  -26.2119 H   0  0  0  0  0  0  0  0  0  0  0  0
    1.7028   27.4585  -26.2656 H   0  0  0  0  0  0  0  0  0  0  0  0
    1.8329   29.8328  -24.4104 H   0  0  0  0  0  0  0  0  0  0  0  0
    0.4116   29.0165  -25.2044 H   0  0  0  0  0  0  0  0  0  0  0  0
    1.7608   28.4277  -22.5928 H   0  0  0  0  0  0  0  0  0  0  0  0
    0.0225   28.3154  -23.0786 H   0  0  0  0  0  0  0  0  0  0  0  0
    0.9392   26.0752  -22.6512 H   0  0  0  0  0  0  0  0  0  0  0  0
    0.5393   26.2891  -24.4037 H   0  0  0  0  0  0  0  0  0  0  0  0
    1.7533   26.2764  -26.8515 H   0  0  0  0  0  0  0  0  0  0  0  0
   -0.0679   25.9706  -28.5217 H   0  0  0  0  0  0  0  0  0  0  0  0
  1  2  2  0
  2  3  1  0
  3  4  1  0
  4  5  2  0
  5  6  1  0
  6  7  2  0
  7  8  1  0
  8  9  2  0
  8 10  2  0
  8 11  1  0
 11 12  1  0
 12 13  1  0
 13 14  1  0
 14 15  1  0
  7 16  1  0
 16 17  2  0
 17 18  1  0
  2 19  1  0
 19 20  2  0
 20 21  1  0
 21 22  2  0
 22 23  1  0
 23 24  2  0
 23 25  2  0
 23 26  1  0
 26 27  1  0
 27 28  1  0
 28 29  1  0
 29 30  1  0
 30 31  1  0
 22 32  1  0
 32 33  2  0
 17  4  1  0
 33 19  1  0
 15 11  1  0
 31 26  1  0
  3 34  1  0
  5 35  1  0
  6 36  1  0
 12 37  1  0
 12 38  1  0
 13 39  1  0
 13 40  1  0
 14 41  1  0
 14 42  1  0
 15 43  1  0
 15 44  1  0
 16 45  1  0
 20 46  1  0
 21 47  1  0
 27 48  1  0
 27 49  1  0
 28 50  1  0
 28 51  1  0
 29 52  1  0
 29 53  1  0
 30 54  1  0
 30 55  1  0
 31 56  1  0
 31 57  1  0
 32 58  1  0
 33 59  1  0
M  CHG  1  18  -1
M  END
>  <UniqueID>  (39) 
37

>  <SMILES>  (39) 
O=C(Nc1ccc(S(=O)(=O)N2CCCC2)cc1[O-])c1ccc(S(=O)(=O)N2CCCCC2)cc1

>  <Energy>  (39) 
72.64209900076467

>  <Genealogy>  (39) 
O=C(Nc1ccc(S(=O)(=O)N2CCCC2)cc1[O-])c1ccc(S(=O)(=O)N2CCCCC2)cc1 (protonated)
O=C(Nc1ccc(S(=O)(=O)N2CCCC2)cc1[O-])c1ccc(S(=O)(=O)N2CCCCC2)cc1 (3D coordinates assigned)
O=C(Nc1ccc(S(=O)(=O)N2CCCC2)cc1[O-])c1ccc(S(=O)(=O)N2CCCCC2)cc1 (nonaromatic ring conformer: 72.64209900076467 kcal/mol)

>  <smiles>  (39) 
O=C(Nc1ccc(S(=O)(=O)N2CCCC2)cc1O)c1ccc(S(=O)(=O)N2CCCCC2)cc1

>  <score_type>  (39) 
oracle

>  <origin>  (39) 
adgpu

>  <m_score__min__energy>  (39) 
-12.779999999999999

>  <m_primary>  (39) 
energy

$$$$
39:0
     RDKit          3D

 51 53  0  0  0  0  0  0  0  0999 V2000
   -8.2070   19.3430  -32.3070 C   0  0  0  0  0  0  0  0  0  0  0  0
   -7.4290   20.4740  -31.6250 C   0  0  1  0  0  0  0  0  0  0  0  0
   -6.5780   21.2470  -32.6430 C   0  0  0  0  0  0  0  0  0  0  0  0
   -5.7870   22.4010  -31.9880 C   0  0  0  0  0  0  0  0  0  0  0  0
   -6.2730   22.7540  -30.6340 N   0  0  1  0  0  0  0  0  0  0  0  0
   -5.5590   24.2600  -30.0740 S   0  0  0  0  0  0  0  0  0  0  0  0
   -5.0150   25.0690  -31.2180 O   0  0  0  0  0  0  0  0  0  0  0  0
   -6.6550   25.0740  -29.4430 O   0  0  0  0  0  0  0  0  0  0  0  0
   -4.2980   24.0540  -28.8450 C   0  0  0  0  0  0  0  0  0  0  0  0
   -4.4190   24.5440  -27.5590 C   0  0  0  0  0  0  0  0  0  0  0  0
   -3.2690   24.1990  -26.8930 C   0  0  0  0  0  0  0  0  0  0  0  0
   -2.4450   23.5170  -27.7100 N   0  0  0  0  0  0  0  0  0  0  0  0
   -0.8920   22.9100  -27.2110 S   0  0  0  0  0  0  0  0  0  0  0  0
   -0.6240   23.3210  -25.7910 O   0  0  0  0  0  0  0  0  0  0  0  0
    0.1830   23.5030  -28.0790 O   0  0  0  0  0  0  0  0  0  0  0  0
   -0.8710   21.1530  -27.2790 C   0  0  0  0  0  0  0  0  0  0  0  0
    0.1930   20.4670  -27.8850 C   0  0  0  0  0  0  0  0  0  0  0  0
    0.1890   19.0700  -27.9370 C   0  0  0  0  0  0  0  0  0  0  0  0
   -0.8730   18.3520  -27.3790 C   0  0  0  0  0  0  0  0  0  0  0  0
   -1.9290   19.0300  -26.7640 C   0  0  0  0  0  0  0  0  0  0  0  0
   -1.9280   20.4270  -26.7110 C   0  0  0  0  0  0  0  0  0  0  0  0
   -3.0560   23.4150  -28.9170 C   0  0  0  0  0  0  0  0  0  0  0  0
   -2.3910   22.5280  -30.3080 S   0  0  0  0  0  0  0  0  0  0  0  0
   -2.7050   20.7800  -30.1470 C   0  0  0  0  0  0  0  0  0  0  0  0
   -0.9090   22.7520  -30.3950 O   0  0  0  0  0  0  0  0  0  0  0  0
   -2.9920   23.0140  -31.5930 O   0  0  0  0  0  0  0  0  0  0  0  0
   -7.7450   22.8050  -30.5760 C   0  0  0  0  0  0  0  0  0  0  0  0
   -8.3850   21.4330  -30.8860 C   0  0  0  0  0  0  0  0  0  0  0  0
   -8.6546   18.6923  -31.5414 H   0  0  0  0  0  0  0  0  0  0  0  0
   -9.0023   19.7716  -32.9345 H   0  0  0  0  0  0  0  0  0  0  0  0
   -7.5224   18.7535  -32.9345 H   0  0  0  0  0  0  0  0  0  0  0  0
   -6.7546   20.0184  -30.8850 H   0  0  0  0  0  0  0  0  0  0  0  0
   -5.8663   20.5508  -33.1107 H   0  0  0  0  0  0  0  0  0  0  0  0
   -7.2587   21.6851  -33.3878 H   0  0  0  0  0  0  0  0  0  0  0  0
   -4.7314   22.1010  -31.9122 H   0  0  0  0  0  0  0  0  0  0  0  0
   -5.9228   23.2888  -32.6231 H   0  0  0  0  0  0  0  0  0  0  0  0
   -5.9480   22.0170  -29.9650 H   0  0  0  0  0  0  0  0  0  0  0  0
   -5.2725   25.1030  -27.1478 H   0  0  0  0  0  0  0  0  0  0  0  0
   -3.0523   24.4446  -25.8429 H   0  0  0  0  0  0  0  0  0  0  0  0
    1.0320   21.0299  -28.3200 H   0  0  0  0  0  0  0  0  0  0  0  0
    1.0218   18.5354  -28.4172 H   0  0  0  0  0  0  0  0  0  0  0  0
   -0.8774   17.2529  -27.4241 H   0  0  0  0  0  0  0  0  0  0  0  0
   -2.7618   18.4639  -26.3212 H   0  0  0  0  0  0  0  0  0  0  0  0
   -2.7583   20.9581  -26.2226 H   0  0  0  0  0  0  0  0  0  0  0  0
   -2.7530   20.5127  -29.0810 H   0  0  0  0  0  0  0  0  0  0  0  0
   -3.6618   20.5333  -30.6303 H   0  0  0  0  0  0  0  0  0  0  0  0
   -1.8938   20.2157  -30.6303 H   0  0  0  0  0  0  0  0  0  0  0  0
   -8.0499   23.1191  -29.5668 H   0  0  0  0  0  0  0  0  0  0  0  0
   -8.0902   23.5204  -31.3370 H   0  0  0  0  0  0  0  0  0  0  0  0
   -8.6867   20.9648  -29.9374 H   0  0  0  0  0  0  0  0  0  0  0  0
   -9.2453   21.6136  -31.5473 H   0  0  0  0  0  0  0  0  0  0  0  0
  1  2  1  0
  2  3  1  0
  3  4  1  0
  4  5  1  0
  5  6  1  0
  6  7  2  0
  6  8  2  0
  6  9  1  0
  9 10  1  0
 10 11  2  0
 11 12  1  0
 12 13  1  0
 13 14  2  0
 13 15  2  0
 13 16  1  0
 16 17  2  0
 17 18  1  0
 18 19  2  0
 19 20  1  0
 20 21  2  0
 12 22  1  0
 22 23  1  0
 23 24  1  0
 23 25  2  0
 23 26  2  0
  5 27  1  0
 27 28  1  0
 28  2  1  0
 22  9  2  0
 21 16  1  0
  1 29  1  0
  1 30  1  0
  1 31  1  0
  2 32  1  6
  3 33  1  0
  3 34  1  0
  4 35  1  0
  4 36  1  0
  5 37  1  6
 10 38  1  0
 11 39  1  0
 17 40  1  0
 18 41  1  0
 19 42  1  0
 20 43  1  0
 21 44  1  0
 24 45  1  0
 24 46  1  0
 24 47  1  0
 27 48  1  0
 27 49  1  0
 28 50  1  0
 28 51  1  0
M  CHG  1   5   1
M  END
>  <UniqueID>  (40) 
38

>  <SMILES>  (40) 
CC1CC[NH+](S(=O)(=O)c2ccn(S(=O)(=O)c3ccccc3)c2S(C)(=O)=O)CC1

>  <Energy>  (40) 
85.2738729236741

>  <Genealogy>  (40) 
CC1CC[NH+](S(=O)(=O)c2ccn(S(=O)(=O)c3ccccc3)c2S(C)(=O)=O)CC1 (protonated)
CC1CC[NH+](S(=O)(=O)c2ccn(S(=O)(=O)c3ccccc3)c2S(C)(=O)=O)CC1 (3D coordinates assigned)
CC1CC[NH+](S(=O)(=O)c2ccn(S(=O)(=O)c3ccccc3)c2S(C)(=O)=O)CC1 (nonaromatic ring conformer: 85.2738729236741 kcal/mol)

>  <smiles>  (40) 
CC1CCN(S(=O)(=O)c2ccn(S(=O)(=O)c3ccccc3)c2S(C)(=O)=O)CC1

>  <score_type>  (40) 
oracle

>  <origin>  (40) 
adgpu

>  <m_score__min__energy>  (40) 
-9.6099999999999994

>  <m_primary>  (40) 
energy

$$$$
40:0
     RDKit          3D

 41 43  0  0  0  0  0  0  0  0999 V2000
    0.8850   20.2140  -32.1700 C   0  0  0  0  0  0  0  0  0  0  0  0
   -0.4970   20.6240  -32.5660 C   0  0  0  0  0  0  0  0  0  0  0  0
   -0.9860   20.5310  -33.8170 N   0  0  0  0  0  0  0  0  0  0  0  0
   -2.2210   21.0160  -33.7840 N   0  0  0  0  0  0  0  0  0  0  0  0
   -2.5340   21.4160  -32.5610 N   0  0  0  0  0  0  0  0  0  0  0  0
   -3.8380   21.9030  -32.2020 C   0  0  0  0  0  0  0  0  0  0  0  0
   -4.9990   21.3010  -32.7150 C   0  0  0  0  0  0  0  0  0  0  0  0
   -6.2600   21.7860  -32.3600 C   0  0  0  0  0  0  0  0  0  0  0  0
   -6.3730   22.8810  -31.5010 C   0  0  0  0  0  0  0  0  0  0  0  0
   -5.2230   23.5080  -31.0030 C   0  0  0  0  0  0  0  0  0  0  0  0
   -5.3650   24.8790  -29.9090 S   0  0  0  0  0  0  0  0  0  0  0  0
   -4.6450   24.4550  -28.3390 C   0  0  0  0  0  0  0  0  0  0  0  0
   -4.6480   26.0670  -30.4870 O   0  0  0  0  0  0  0  0  0  0  0  0
   -6.8130   25.2350  -29.7180 O   0  0  0  0  0  0  0  0  0  0  0  0
   -3.9580   23.0180  -31.3580 C   0  0  0  0  0  0  0  0  0  0  0  0
   -1.4660   21.1910  -31.7640 C   0  0  0  0  0  0  0  0  0  0  0  0
   -1.3250   21.5720  -30.3440 C   0  0  0  0  0  0  0  0  0  0  0  0
   -1.3200   20.6670  -29.4670 O   0  0  0  0  0  0  0  0  0  0  0  0
   -1.1930   22.9550  -29.9700 N   0  0  0  0  0  0  0  0  0  0  0  0
   -1.1230   23.4150  -28.6100 C   0  0  0  0  0  0  0  0  0  0  0  0
   -0.7770   22.5420  -27.5630 C   0  0  0  0  0  0  0  0  0  0  0  0
   -0.6890   23.0140  -26.2500 C   0  0  0  0  0  0  0  0  0  0  0  0
   -0.9310   24.3600  -25.9720 C   0  0  0  0  0  0  0  0  0  0  0  0
   -1.2530   25.2410  -27.0070 C   0  0  0  0  0  0  0  0  0  0  0  0
   -1.3430   24.7750  -28.3240 C   0  0  0  0  0  0  0  0  0  0  0  0
   -1.6610   25.6670  -29.3410 O   0  0  0  0  0  0  0  0  0  0  0  0
    0.9606   20.1916  -31.0728 H   0  0  0  0  0  0  0  0  0  0  0  0
    1.1002   19.2133  -32.5729 H   0  0  0  0  0  0  0  0  0  0  0  0
    1.6111   20.9354  -32.5729 H   0  0  0  0  0  0  0  0  0  0  0  0
   -4.9147   20.4439  -33.3993 H   0  0  0  0  0  0  0  0  0  0  0  0
   -7.1655   21.3045  -32.7578 H   0  0  0  0  0  0  0  0  0  0  0  0
   -7.3678   23.2526  -31.2143 H   0  0  0  0  0  0  0  0  0  0  0  0
   -5.2854   24.8322  -27.5281 H   0  0  0  0  0  0  0  0  0  0  0  0
   -4.5579   23.3614  -28.2589 H   0  0  0  0  0  0  0  0  0  0  0  0
   -3.6464   24.9092  -28.2589 H   0  0  0  0  0  0  0  0  0  0  0  0
   -3.0534   23.5109  -30.9723 H   0  0  0  0  0  0  0  0  0  0  0  0
   -1.2190   23.6760  -30.7230 H   0  0  0  0  0  0  0  0  0  0  0  0
   -0.5746   21.4824  -27.7783 H   0  0  0  0  0  0  0  0  0  0  0  0
   -0.4285   22.3232  -25.4346 H   0  0  0  0  0  0  0  0  0  0  0  0
   -0.8681   24.7274  -24.9371 H   0  0  0  0  0  0  0  0  0  0  0  0
   -1.4362   26.3030  -26.7868 H   0  0  0  0  0  0  0  0  0  0  0  0
  1  2  1  0
  2  3  1  0
  3  4  2  0
  4  5  1  0
  5  6  1  0
  6  7  2  0
  7  8  1  0
  8  9  2  0
  9 10  1  0
 10 11  1  0
 11 12  1  0
 11 13  2  0
 11 14  2  0
 10 15  2  0
  5 16  1  0
 16 17  1  0
 17 18  2  0
 17 19  1  0
 19 20  1  0
 20 21  2  0
 21 22  1  0
 22 23  2  0
 23 24  1  0
 24 25  2  0
 25 26  1  0
 16  2  2  0
 25 20  1  0
 15  6  1  0
  1 27  1  0
  1 28  1  0
  1 29  1  0
  7 30  1  0
  8 31  1  0
  9 32  1  0
 12 33  1  0
 12 34  1  0
 12 35  1  0
 15 36  1  0
 19 37  1  0
 21 38  1  0
 22 39  1  0
 23 40  1  0
 24 41  1  0
M  CHG  1  26  -1
M  END
>  <UniqueID>  (41) 
39

>  <SMILES>  (41) 
Cc1nnn(-c2cccc(S(C)(=O)=O)c2)c1C(=O)Nc1ccccc1[O-]

>  <Energy>  (41) 
86.6415029672498

>  <Genealogy>  (41) 
Cc1nnn(-c2cccc(S(C)(=O)=O)c2)c1C(=O)Nc1ccccc1[O-] (protonated)
Cc1nnn(-c2cccc(S(C)(=O)=O)c2)c1C(=O)Nc1ccccc1[O-] (3D coordinates assigned)
Cc1nnn(-c2cccc(S(C)(=O)=O)c2)c1C(=O)Nc1ccccc1[O-] (optimized conformer: 86.6415029672498 kcal/mol)

>  <smiles>  (41) 
Cc1nnn(-c2cccc(S(C)(=O)=O)c2)c1C(=O)Nc1ccccc1O

>  <score_type>  (41) 
oracle

>  <origin>  (41) 
adgpu

>  <m_score__min__energy>  (41) 
-11.699999999999999

>  <m_primary>  (41) 
energy

$$$$
41:0
     RDKit          3D

 49 53  0  0  0  0  0  0  0  0999 V2000
   -7.0280   22.9150  -30.3430 C   0  0  0  0  0  0  0  0  0  0  0  0
   -6.9030   21.9960  -31.3370 C   0  0  0  0  0  0  0  0  0  0  0  0
   -8.1200   21.4990  -31.8620 C   0  0  0  0  0  0  0  0  0  0  0  0
   -8.1530   20.4030  -32.7160 C   0  0  0  0  0  0  0  0  0  0  0  0
   -6.9750   19.7720  -33.0760 C   0  0  0  0  0  0  0  0  0  0  0  0
   -5.7520   20.2750  -32.6420 C   0  0  0  0  0  0  0  0  0  0  0  0
   -5.6690   21.4310  -31.8180 C   0  0  0  0  0  0  0  0  0  0  0  0
   -4.4500   22.0120  -31.6240 C   0  0  0  0  0  0  0  0  0  0  0  0
   -3.1850   21.3730  -32.0640 C   0  0  0  0  0  0  0  0  0  0  0  0
   -2.2480   20.9380  -31.1130 C   0  0  0  0  0  0  0  0  0  0  0  0
   -1.0430   20.3630  -31.5270 C   0  0  0  0  0  0  0  0  0  0  0  0
   -0.7630   20.2270  -32.8900 C   0  0  0  0  0  0  0  0  0  0  0  0
   -1.6870   20.6670  -33.8410 C   0  0  0  0  0  0  0  0  0  0  0  0
   -2.8940   21.2430  -33.4310 C   0  0  0  0  0  0  0  0  0  0  0  0
   -4.3270   23.3300  -31.0910 N   0  0  0  0  0  0  0  0  0  0  0  0
   -4.7730   23.5880  -29.7670 C   0  0  0  0  0  0  0  0  0  0  0  0
   -3.8170   24.1580  -28.7830 C   0  0  0  0  0  0  0  0  0  0  0  0
   -4.2120   24.3320  -27.4460 C   0  0  0  0  0  0  0  0  0  0  0  0
   -3.3240   24.8620  -26.5070 C   0  0  0  0  0  0  0  0  0  0  0  0
   -2.0180   25.2210  -26.8810 C   0  0  0  0  0  0  0  0  0  0  0  0
   -1.0730   25.7810  -25.8810 C   0  0  0  0  0  0  0  0  0  0  0  0
   -1.5440   26.4340  -24.7290 C   0  0  0  0  0  0  0  0  0  0  0  0
   -0.6430   26.9570  -23.7990 C   0  0  0  0  0  0  0  0  0  0  0  0
    0.7270   26.8240  -24.0250 C   0  0  0  0  0  0  0  0  0  0  0  0
    1.1740   26.1910  -25.1410 N   0  0  0  0  0  0  0  0  0  0  0  0
    0.3180   25.6750  -26.0640 C   0  0  0  0  0  0  0  0  0  0  0  0
   -1.6200   25.0370  -28.2170 C   0  0  0  0  0  0  0  0  0  0  0  0
   -2.5090   24.5100  -29.1580 C   0  0  0  0  0  0  0  0  0  0  0  0
   -5.9970   23.3190  -29.4300 N   0  0  0  0  0  0  0  0  0  0  0  0
   -8.0116   23.3938  -30.2277 H   0  0  0  0  0  0  0  0  0  0  0  0
   -9.0637   21.9928  -31.5870 H   0  0  0  0  0  0  0  0  0  0  0  0
   -9.1146   20.0374  -33.1055 H   0  0  0  0  0  0  0  0  0  0  0  0
   -7.0054   18.8711  -33.7064 H   0  0  0  0  0  0  0  0  0  0  0  0
   -4.8254   19.7650  -32.9443 H   0  0  0  0  0  0  0  0  0  0  0  0
   -2.4626   21.0499  -30.0400 H   0  0  0  0  0  0  0  0  0  0  0  0
   -0.3141   20.0171  -30.7794 H   0  0  0  0  0  0  0  0  0  0  0  0
    0.1853   19.7733  -33.2138 H   0  0  0  0  0  0  0  0  0  0  0  0
   -1.4652   20.5604  -34.9131 H   0  0  0  0  0  0  0  0  0  0  0  0
   -3.6169   21.5949  -34.1817 H   0  0  0  0  0  0  0  0  0  0  0  0
   -3.5540   23.9310  -31.4550 H   0  0  0  0  0  0  0  0  0  0  0  0
   -5.2287   24.0486  -27.1362 H   0  0  0  0  0  0  0  0  0  0  0  0
   -3.6500   24.9996  -25.4655 H   0  0  0  0  0  0  0  0  0  0  0  0
   -2.6263   26.5335  -24.5593 H   0  0  0  0  0  0  0  0  0  0  0  0
   -1.0101   27.4688  -22.8971 H   0  0  0  0  0  0  0  0  0  0  0  0
    1.4459   27.2319  -23.2992 H   0  0  0  0  0  0  0  0  0  0  0  0
    0.7155   25.1723  -26.9580 H   0  0  0  0  0  0  0  0  0  0  0  0
   -0.5998   25.3103  -28.5243 H   0  0  0  0  0  0  0  0  0  0  0  0
   -2.1827   24.3698  -30.1991 H   0  0  0  0  0  0  0  0  0  0  0  0
   -6.3140   23.5110  -28.4540 H   0  0  0  0  0  0  0  0  0  0  0  0
  1  2  2  0
  2  3  1  0
  3  4  2  0
  4  5  1  0
  5  6  2  0
  6  7  1  0
  7  8  2  0
  8  9  1  0
  9 10  2  0
 10 11  1  0
 11 12  2  0
 12 13  1  0
 13 14  2  0
  8 15  1  0
 15 16  1  0
 16 17  1  0
 17 18  2  0
 18 19  1  0
 19 20  2  0
 20 21  1  0
 21 22  2  0
 22 23  1  0
 23 24  2  0
 24 25  1  0
 25 26  2  0
 20 27  1  0
 27 28  2  0
 16 29  2  0
 29  1  1  0
  7  2  1  0
 14  9  1  0
 28 17  1  0
 26 21  1  0
  1 30  1  0
  3 31  1  0
  4 32  1  0
  5 33  1  0
  6 34  1  0
 10 35  1  0
 11 36  1  0
 12 37  1  0
 13 38  1  0
 14 39  1  0
 15 40  1  0
 18 41  1  0
 19 42  1  0
 22 43  1  0
 23 44  1  0
 24 45  1  0
 26 46  1  0
 27 47  1  0
 28 48  1  0
 29 49  1  0
M  CHG  1  29   1
M  END
>  <UniqueID>  (42) 
40

>  <SMILES>  (42) 
C1=c2ccccc2=C(c2ccccc2)NC(c2ccc(-c3cccnc3)cc2)=[NH+]1

>  <Energy>  (42) 
104.58587151209436

>  <Genealogy>  (42) 
C1=c2ccccc2=C(c2ccccc2)NC(c2ccc(-c3cccnc3)cc2)=[NH+]1 (protonated)
C1=c2ccccc2=C(c2ccccc2)NC(c2ccc(-c3cccnc3)cc2)=[NH+]1 (3D coordinates assigned)
C1=c2ccccc2=C(c2ccccc2)NC(c2ccc(-c3cccnc3)cc2)=[NH+]1 (nonaromatic ring conformer: 104.58587151209436 kcal/mol)

>  <smiles>  (42) 
C1=c2ccccc2=C(c2ccccc2)NC(c2ccc(-c3cccnc3)cc2)=N1

>  <score_type>  (42) 
oracle

>  <origin>  (42) 
adgpu

>  <m_score__min__energy>  (42) 
-8.9800000000000004

>  <m_primary>  (42) 
energy

$$$$
42:0
     RDKit          3D

 58 61  0  0  0  0  0  0  0  0999 V2000
    1.1090   19.8970  -31.7370 C   0  0  0  0  0  0  0  0  0  0  0  0
   -0.1070   20.9370  -32.5120 S   0  0  0  0  0  0  0  0  0  0  0  0
    0.5030   21.5790  -33.7260 O   0  0  0  0  0  0  0  0  0  0  0  0
   -0.5350   22.0140  -31.5550 O   0  0  0  0  0  0  0  0  0  0  0  0
   -1.5020   19.9650  -32.9700 C   0  0  0  0  0  0  0  0  0  0  0  0
   -2.6960   20.5720  -33.3820 C   0  0  0  0  0  0  0  0  0  0  0  0
   -3.7880   19.7900  -33.7670 C   0  0  0  0  0  0  0  0  0  0  0  0
   -3.6980   18.3910  -33.7520 C   0  0  0  0  0  0  0  0  0  0  0  0
   -5.0880   17.4160  -34.2350 S   0  0  0  0  0  0  0  0  0  0  0  0
   -4.8410   15.9770  -33.8850 O   0  0  0  0  0  0  0  0  0  0  0  0
   -5.2910   17.5310  -35.7190 O   0  0  0  0  0  0  0  0  0  0  0  0
   -6.5420   17.9380  -33.4070 C   0  0  0  0  0  0  0  0  0  0  0  0
   -7.3020   17.1290  -32.6340 N   0  0  0  0  0  0  0  0  0  0  0  0
   -8.3010   17.7690  -32.0270 N   0  0  0  0  0  0  0  0  0  0  0  0
   -8.3260   19.0920  -32.2990 C   0  0  0  0  0  0  0  0  0  0  0  0
   -9.1910   19.8990  -31.7550 N   0  0  0  0  0  0  0  0  0  0  0  0
   -9.1830   21.3310  -31.8780 C   0  0  0  0  0  0  0  0  0  0  0  0
  -10.2010   21.9100  -32.3400 O   0  0  0  0  0  0  0  0  0  0  0  0
   -8.0260   22.1370  -31.4260 C   0  0  0  0  0  0  0  0  0  0  0  0
   -7.1040   22.6410  -32.3580 C   0  0  0  0  0  0  0  0  0  0  0  0
   -5.9340   23.2690  -31.9200 C   0  0  0  0  0  0  0  0  0  0  0  0
   -5.6790   23.4100  -30.5490 C   0  0  0  0  0  0  0  0  0  0  0  0
   -4.1260   24.0470  -30.0100 S   0  0  0  0  0  0  0  0  0  0  0  0
   -3.7970   25.2660  -30.8260 O   0  0  0  0  0  0  0  0  0  0  0  0
   -4.2180   24.4430  -28.5620 O   0  0  0  0  0  0  0  0  0  0  0  0
   -2.8930   22.8200  -30.2300 N   0  0  0  0  0  0  0  0  0  0  0  0
   -3.4860   21.4550  -30.3280 C   0  0  0  0  0  0  0  0  0  0  0  0
   -3.0350   20.4920  -29.2200 C   0  0  0  0  0  0  0  0  0  0  0  0
   -3.1050   21.1850  -27.8640 C   0  0  0  0  0  0  0  0  0  0  0  0
   -2.2240   22.4450  -27.8230 C   0  0  0  0  0  0  0  0  0  0  0  0
   -1.8180   22.9530  -29.2220 C   0  0  0  0  0  0  0  0  0  0  0  0
   -6.6250   22.9640  -29.6200 C   0  0  0  0  0  0  0  0  0  0  0  0
   -7.7970   22.3410  -30.0550 C   0  0  0  0  0  0  0  0  0  0  0  0
   -7.1000   19.5230  -33.3810 S   0  0  0  0  0  0  0  0  0  0  0  0
   -2.5040   17.7840  -33.3300 C   0  0  0  0  0  0  0  0  0  0  0  0
   -1.4130   18.5670  -32.9440 C   0  0  0  0  0  0  0  0  0  0  0  0
    1.0162   19.9764  -30.6438 H   0  0  0  0  0  0  0  0  0  0  0  0
    0.9478   18.8530  -32.0439 H   0  0  0  0  0  0  0  0  0  0  0  0
    2.1153   20.2181  -32.0439 H   0  0  0  0  0  0  0  0  0  0  0  0
   -2.7739   21.6691  -33.4024 H   0  0  0  0  0  0  0  0  0  0  0  0
   -4.7234   20.2746  -34.0836 H   0  0  0  0  0  0  0  0  0  0  0  0
   -7.3029   22.5414  -33.4353 H   0  0  0  0  0  0  0  0  0  0  0  0
   -5.2109   23.6539  -32.6542 H   0  0  0  0  0  0  0  0  0  0  0  0
   -2.4540   23.0380  -31.1570 H   0  0  0  0  0  0  0  0  0  0  0  0
   -4.5807   21.5500  -30.2780 H   0  0  0  0  0  0  0  0  0  0  0  0
   -3.1385   21.0269  -31.2798 H   0  0  0  0  0  0  0  0  0  0  0  0
   -3.6938   19.6111  -29.2130 H   0  0  0  0  0  0  0  0  0  0  0  0
   -1.9975   20.1815  -29.4128 H   0  0  0  0  0  0  0  0  0  0  0  0
   -4.1478   21.4725  -27.6640 H   0  0  0  0  0  0  0  0  0  0  0  0
   -2.7362   20.4837  -27.1010 H   0  0  0  0  0  0  0  0  0  0  0  0
   -2.7804   23.2432  -27.3099 H   0  0  0  0  0  0  0  0  0  0  0  0
   -1.2981   22.1774  -27.2928 H   0  0  0  0  0  0  0  0  0  0  0  0
   -1.5449   24.0155  -29.1415 H   0  0  0  0  0  0  0  0  0  0  0  0
   -0.9759   22.3320  -29.5613 H   0  0  0  0  0  0  0  0  0  0  0  0
   -6.4454   23.1043  -28.5439 H   0  0  0  0  0  0  0  0  0  0  0  0
   -8.5448   22.0083  -29.3201 H   0  0  0  0  0  0  0  0  0  0  0  0
   -2.4273   16.6870  -33.3032 H   0  0  0  0  0  0  0  0  0  0  0  0
   -0.4801   18.0837  -32.6183 H   0  0  0  0  0  0  0  0  0  0  0  0
  1  2  1  0
  2  3  2  0
  2  4  2  0
  2  5  1  0
  5  6  2  0
  6  7  1  0
  7  8  2  0
  8  9  1  0
  9 10  2  0
  9 11  2  0
  9 12  1  0
 12 13  2  0
 13 14  1  0
 14 15  1  0
 15 16  2  3
 16 17  1  0
 17 18  2  0
 17 19  1  0
 19 20  2  0
 20 21  1  0
 21 22  2  0
 22 23  1  0
 23 24  2  0
 23 25  2  0
 23 26  1  0
 26 27  1  0
 27 28  1  0
 28 29  1  0
 29 30  1  0
 30 31  1  0
 22 32  1  0
 32 33  2  0
 15 34  1  0
  8 35  1  0
 35 36  2  0
 36  5  1  0
 34 12  1  0
 33 19  1  0
 31 26  1  0
  1 37  1  0
  1 38  1  0
  1 39  1  0
  6 40  1  0
  7 41  1  0
 20 42  1  0
 21 43  1  0
 26 44  1  0
 27 45  1  0
 27 46  1  0
 28 47  1  0
 28 48  1  0
 29 49  1  0
 29 50  1  0
 30 51  1  0
 30 52  1  0
 31 53  1  0
 31 54  1  0
 32 55  1  0
 33 56  1  0
 35 57  1  0
 36 58  1  0
M  CHG  2  14  -1  26   1
M  END
>  <UniqueID>  (43) 
41

>  <SMILES>  (43) 
CS(=O)(=O)c1ccc(S(=O)(=O)c2n[n-]c(=NC(=O)c3ccc(S(=O)(=O)[NH+]4CCCCC4)cc3)s2)cc1

>  <Energy>  (43) 
106.63172514915271

>  <Genealogy>  (43) 
CS(=O)(=O)c1ccc(S(=O)(=O)c2n[n-]c(=NC(=O)c3ccc(S(=O)(=O)[NH+]4CCCCC4)cc3)s2)cc1 (protonated)
CS(=O)(=O)c1ccc(S(=O)(=O)c2n[n-]c(=NC(=O)c3ccc(S(=O)(=O)[NH+]4CCCCC4)cc3)s2)cc1 (3D coordinates assigned)
CS(=O)(=O)c1ccc(S(=O)(=O)c2n[n-]c(=NC(=O)c3ccc(S(=O)(=O)[NH+]4CCCCC4)cc3)s2)cc1 (nonaromatic ring conformer: 106.63172514915271 kcal/mol)

>  <smiles>  (43) 
CS(=O)(=O)c1ccc(S(=O)(=O)c2n[nH]c(=NC(=O)c3ccc(S(=O)(=O)N4CCCCC4)cc3)s2)cc1

>  <score_type>  (43) 
oracle

>  <origin>  (43) 
adgpu

>  <m_score__min__energy>  (43) 
-13.43

>  <m_primary>  (43) 
energy

$$$$
43:0
     RDKit          3D

 53 56  0  0  0  0  0  0  0  0999 V2000
   -1.5540   20.4030  -25.6550 C   0  0  0  0  0  0  0  0  0  0  0  0
   -0.6540   20.3650  -26.8240 N   0  0  0  0  0  0  0  0  0  0  0  0
   -1.2560   19.6840  -27.9880 C   0  0  0  0  0  0  0  0  0  0  0  0
   -2.4590   20.4500  -28.5640 C   0  0  0  0  0  0  0  0  0  0  0  0
   -2.1950   21.9280  -28.6690 C   0  0  0  0  0  0  0  0  0  0  0  0
   -3.0470   22.7190  -29.4550 C   0  0  0  0  0  0  0  0  0  0  0  0
   -2.8220   24.0980  -29.5920 C   0  0  0  0  0  0  0  0  0  0  0  0
   -3.6100   24.9070  -30.4800 N   0  0  0  0  0  0  0  0  0  0  0  0
   -5.3260   25.1510  -30.3360 S   0  0  0  0  0  0  0  0  0  0  0  0
   -5.6570   25.4310  -28.8930 O   0  0  0  0  0  0  0  0  0  0  0  0
   -5.7360   26.3300  -31.1780 O   0  0  0  0  0  0  0  0  0  0  0  0
   -6.1980   23.7250  -30.8990 C   0  0  0  0  0  0  0  0  0  0  0  0
   -7.1820   23.1320  -30.0950 C   0  0  0  0  0  0  0  0  0  0  0  0
   -7.7950   21.9420  -30.4950 C   0  0  0  0  0  0  0  0  0  0  0  0
   -7.4430   21.3400  -31.7110 C   0  0  0  0  0  0  0  0  0  0  0  0
   -8.2060   19.8230  -32.1980 S   0  0  0  0  0  0  0  0  0  0  0  0
   -9.0750   20.0760  -33.4020 O   0  0  0  0  0  0  0  0  0  0  0  0
   -9.0950   19.3360  -31.0870 O   0  0  0  0  0  0  0  0  0  0  0  0
   -7.0270   18.5820  -32.5720 N   0  0  0  0  0  0  0  0  0  0  0  0
   -5.9920   18.5110  -31.5380 C   0  0  0  0  0  0  0  0  0  0  0  0
   -4.7930   19.3210  -32.0110 C   0  0  0  0  0  0  0  0  0  0  0  0
   -4.9610   19.4470  -33.5110 C   0  0  0  0  0  0  0  0  0  0  0  0
   -6.3330   18.8670  -33.8330 C   0  0  0  0  0  0  0  0  0  0  0  0
   -6.4740   21.9440  -32.5250 C   0  0  0  0  0  0  0  0  0  0  0  0
   -5.8560   23.1330  -32.1220 C   0  0  0  0  0  0  0  0  0  0  0  0
   -1.7830   24.6980  -28.8690 C   0  0  0  0  0  0  0  0  0  0  0  0
   -1.5590   26.0650  -28.9670 O   0  0  0  0  0  0  0  0  0  0  0  0
   -0.9490   23.9220  -28.0590 C   0  0  0  0  0  0  0  0  0  0  0  0
   -1.1450   22.5370  -27.9530 C   0  0  0  0  0  0  0  0  0  0  0  0
   -0.1460   21.7060  -27.1780 C   0  0  0  0  0  0  0  0  0  0  0  0
   -0.9568   20.3778  -24.7315 H   0  0  0  0  0  0  0  0  0  0  0  0
   -2.1501   21.3271  -25.6811 H   0  0  0  0  0  0  0  0  0  0  0  0
   -2.2259   19.5324  -25.6811 H   0  0  0  0  0  0  0  0  0  0  0  0
   -0.4918   19.5863  -28.7731 H   0  0  0  0  0  0  0  0  0  0  0  0
   -1.6174   18.7018  -27.6493 H   0  0  0  0  0  0  0  0  0  0  0  0
   -2.6812   20.0577  -29.5674 H   0  0  0  0  0  0  0  0  0  0  0  0
   -3.3090   20.3067  -27.8806 H   0  0  0  0  0  0  0  0  0  0  0  0
   -3.9006   22.2534  -29.9694 H   0  0  0  0  0  0  0  0  0  0  0  0
   -7.4724   23.6056  -29.1456 H   0  0  0  0  0  0  0  0  0  0  0  0
   -8.5569   21.4756  -29.8532 H   0  0  0  0  0  0  0  0  0  0  0  0
   -6.3766   18.9298  -30.5964 H   0  0  0  0  0  0  0  0  0  0  0  0
   -5.6997   17.4650  -31.3632 H   0  0  0  0  0  0  0  0  0  0  0  0
   -4.7892   20.3146  -31.5391 H   0  0  0  0  0  0  0  0  0  0  0  0
   -3.8414   18.8379  -31.7445 H   0  0  0  0  0  0  0  0  0  0  0  0
   -4.9128   20.5036  -33.8131 H   0  0  0  0  0  0  0  0  0  0  0  0
   -4.1634   18.9155  -34.0507 H   0  0  0  0  0  0  0  0  0  0  0  0
   -6.9141   19.5933  -34.4202 H   0  0  0  0  0  0  0  0  0  0  0  0
   -6.2227   17.9427  -34.4191 H   0  0  0  0  0  0  0  0  0  0  0  0
   -6.1986   21.4813  -33.4842 H   0  0  0  0  0  0  0  0  0  0  0  0
   -5.0997   23.6041  -32.7670 H   0  0  0  0  0  0  0  0  0  0  0  0
   -0.1320   24.4015  -27.4999 H   0  0  0  0  0  0  0  0  0  0  0  0
    0.7593   21.5861  -27.7912 H   0  0  0  0  0  0  0  0  0  0  0  0
    0.0595   22.2364  -26.2365 H   0  0  0  0  0  0  0  0  0  0  0  0
  1  2  1  0
  2  3  1  0
  3  4  1  0
  4  5  1  0
  5  6  2  0
  6  7  1  0
  7  8  1  0
  8  9  1  0
  9 10  2  0
  9 11  2  0
  9 12  1  0
 12 13  2  0
 13 14  1  0
 14 15  2  0
 15 16  1  0
 16 17  2  0
 16 18  2  0
 16 19  1  0
 19 20  1  0
 20 21  1  0
 21 22  1  0
 22 23  1  0
 15 24  1  0
 24 25  2  0
  7 26  2  0
 26 27  1  0
 26 28  1  0
 28 29  2  0
 29 30  1  0
 30  2  1  0
 29  5  1  0
 25 12  1  0
 23 19  1  0
  1 31  1  0
  1 32  1  0
  1 33  1  0
  3 34  1  0
  3 35  1  0
  4 36  1  0
  4 37  1  0
  6 38  1  0
 13 39  1  0
 14 40  1  0
 20 41  1  0
 20 42  1  0
 21 43  1  0
 21 44  1  0
 22 45  1  0
 22 46  1  0
 23 47  1  0
 23 48  1  0
 24 49  1  0
 25 50  1  0
 28 51  1  0
 30 52  1  0
 30 53  1  0
M  CHG  2   8  -1  27  -1
M  END
>  <UniqueID>  (44) 
42

>  <SMILES>  (44) 
CN1CCc2cc([N-]S(=O)(=O)c3ccc(S(=O)(=O)N4CCCC4)cc3)c([O-])cc2C1

>  <Energy>  (44) 
64.40715483643622

>  <Genealogy>  (44) 
CN1CCc2cc([N-]S(=O)(=O)c3ccc(S(=O)(=O)N4CCCC4)cc3)c([O-])cc2C1 (protonated)
CN1CCc2cc([N-]S(=O)(=O)c3ccc(S(=O)(=O)N4CCCC4)cc3)c([O-])cc2C1 (3D coordinates assigned)
CN1CCc2cc([N-]S(=O)(=O)c3ccc(S(=O)(=O)N4CCCC4)cc3)c([O-])cc2C1 (nonaromatic ring conformer: 64.40715483643622 kcal/mol)

>  <smiles>  (44) 
CN1CCc2cc(NS(=O)(=O)c3ccc(S(=O)(=O)N4CCCC4)cc3)c(O)cc2C1

>  <score_type>  (44) 
oracle

>  <origin>  (44) 
adgpu

>  <m_score__min__energy>  (44) 
-15.199999999999999

>  <m_primary>  (44) 
energy

$$$$
44:0
     RDKit          3D

 50 53  0  0  0  0  0  0  0  0999 V2000
   -2.0380   15.5920  -34.5620 C   0  0  0  0  0  0  0  0  0  0  0  0
   -2.2060   16.9790  -34.8380 O   0  0  0  0  0  0  0  0  0  0  0  0
   -3.3690   17.7130  -34.5570 C   0  0  0  0  0  0  0  0  0  0  0  0
   -4.6440   17.2760  -34.9700 C   0  0  0  0  0  0  0  0  0  0  0  0
   -5.7760   18.0520  -34.7060 C   0  0  0  0  0  0  0  0  0  0  0  0
   -5.6570   19.2780  -34.0470 C   0  0  0  0  0  0  0  0  0  0  0  0
   -6.8400   20.0380  -33.7790 N   0  0  0  0  0  0  0  0  0  0  0  0
   -7.2980   20.6580  -32.2220 S   0  0  0  0  0  0  0  0  0  0  0  0
   -7.0700   19.5890  -31.1870 O   0  0  0  0  0  0  0  0  0  0  0  0
   -8.7650   20.9920  -32.2430 O   0  0  0  0  0  0  0  0  0  0  0  0
   -6.3870   22.0960  -31.7620 C   0  0  0  0  0  0  0  0  0  0  0  0
   -6.9110   23.3870  -32.0240 C   0  0  0  0  0  0  0  0  0  0  0  0
   -6.2080   24.5380  -31.6260 C   0  0  0  0  0  0  0  0  0  0  0  0
   -4.9850   24.3690  -30.9790 C   0  0  0  0  0  0  0  0  0  0  0  0
   -4.1810   25.3430  -30.5110 N   0  0  0  0  0  0  0  0  0  0  0  0
   -3.1410   24.6670  -29.9670 C   0  0  0  0  0  0  0  0  0  0  0  0
   -2.0650   25.2980  -29.3580 O   0  0  0  0  0  0  0  0  0  0  0  0
   -3.2750   23.2900  -30.0830 C   0  0  0  0  0  0  0  0  0  0  0  0
   -4.4710   23.1220  -30.7370 C   0  0  0  0  0  0  0  0  0  0  0  0
   -5.1450   21.9590  -31.1070 C   0  0  0  0  0  0  0  0  0  0  0  0
   -4.3980   19.6940  -33.5920 C   0  0  0  0  0  0  0  0  0  0  0  0
   -3.2540   18.9240  -33.8520 C   0  0  0  0  0  0  0  0  0  0  0  0
   -1.9710   19.3770  -33.3930 N   0  0  0  0  0  0  0  0  0  0  0  0
   -1.4080   20.6090  -33.9560 C   0  0  0  0  0  0  0  0  0  0  0  0
   -0.0270   20.9030  -33.3570 C   0  0  0  0  0  0  0  0  0  0  0  0
    0.0070   20.6360  -31.9040 N   0  0  0  0  0  0  0  0  0  0  0  0
   -0.8400   21.5780  -31.1510 C   0  0  0  0  0  0  0  0  0  0  0  0
   -0.2960   19.2230  -31.5630 C   0  0  0  0  0  0  0  0  0  0  0  0
   -1.1100   18.4660  -32.6330 C   0  0  0  0  0  0  0  0  0  0  0  0
   -2.0189   15.4344  -33.4735 H   0  0  0  0  0  0  0  0  0  0  0  0
   -2.8743   15.0271  -34.9997 H   0  0  0  0  0  0  0  0  0  0  0  0
   -1.0910   15.2431  -34.9997 H   0  0  0  0  0  0  0  0  0  0  0  0
   -4.7485   16.3193  -35.5028 H   0  0  0  0  0  0  0  0  0  0  0  0
   -6.7680   17.6947  -35.0195 H   0  0  0  0  0  0  0  0  0  0  0  0
   -7.8755   23.4892  -32.5429 H   0  0  0  0  0  0  0  0  0  0  0  0
   -6.6116   25.5428  -31.8197 H   0  0  0  0  0  0  0  0  0  0  0  0
   -2.5818   22.5116  -29.7315 H   0  0  0  0  0  0  0  0  0  0  0  0
   -4.7218   20.9661  -30.8949 H   0  0  0  0  0  0  0  0  0  0  0  0
   -4.3060   20.6327  -33.0259 H   0  0  0  0  0  0  0  0  0  0  0  0
   -1.3112   20.4956  -35.0458 H   0  0  0  0  0  0  0  0  0  0  0  0
   -2.0809   21.4452  -33.7151 H   0  0  0  0  0  0  0  0  0  0  0  0
    0.7199   20.2664  -33.8539 H   0  0  0  0  0  0  0  0  0  0  0  0
    0.1953   21.9687  -33.5150 H   0  0  0  0  0  0  0  0  0  0  0  0
   -0.6964   21.4183  -30.0722 H   0  0  0  0  0  0  0  0  0  0  0  0
   -0.5600   22.6099  -31.4094 H   0  0  0  0  0  0  0  0  0  0  0  0
   -1.8958   21.4089  -31.4094 H   0  0  0  0  0  0  0  0  0  0  0  0
    0.6568   18.6929  -31.4177 H   0  0  0  0  0  0  0  0  0  0  0  0
   -0.9181   19.2470  -30.6562 H   0  0  0  0  0  0  0  0  0  0  0  0
   -0.4153   17.9686  -33.3258 H   0  0  0  0  0  0  0  0  0  0  0  0
   -1.7489   17.7287  -32.1249 H   0  0  0  0  0  0  0  0  0  0  0  0
  1  2  1  0
  2  3  1  0
  3  4  2  0
  4  5  1  0
  5  6  2  0
  6  7  1  0
  7  8  1  0
  8  9  2  0
  8 10  2  0
  8 11  1  0
 11 12  2  0
 12 13  1  0
 13 14  2  0
 14 15  1  0
 15 16  1  0
 16 17  1  0
 16 18  2  0
 18 19  1  0
 19 20  2  0
  6 21  1  0
 21 22  2  0
 22 23  1  0
 23 24  1  0
 24 25  1  0
 25 26  1  0
 26 27  1  0
 26 28  1  0
 28 29  1  0
 22  3  1  0
 29 23  1  0
 20 11  1  0
 19 14  1  0
  1 30  1  0
  1 31  1  0
  1 32  1  0
  4 33  1  0
  5 34  1  0
 12 35  1  0
 13 36  1  0
 18 37  1  0
 20 38  1  0
 21 39  1  0
 24 40  1  0
 24 41  1  0
 25 42  1  0
 25 43  1  0
 27 44  1  0
 27 45  1  0
 27 46  1  0
 28 47  1  0
 28 48  1  0
 29 49  1  0
 29 50  1  0
M  CHG  3   7  -1  15  -1  17  -1
M  END
>  <UniqueID>  (45) 
43

>  <SMILES>  (45) 
COc1ccc([N-]S(=O)(=O)c2ccc3[n-]c([O-])cc3c2)cc1N1CCN(C)CC1

>  <Energy>  (45) 
101.9696461655135

>  <Genealogy>  (45) 
COc1ccc([N-]S(=O)(=O)c2ccc3[n-]c([O-])cc3c2)cc1N1CCN(C)CC1 (protonated)
COc1ccc([N-]S(=O)(=O)c2ccc3[n-]c([O-])cc3c2)cc1N1CCN(C)CC1 (3D coordinates assigned)
COc1ccc([N-]S(=O)(=O)c2ccc3[n-]c([O-])cc3c2)cc1N1CCN(C)CC1 (nonaromatic ring conformer: 101.9696461655135 kcal/mol)

>  <smiles>  (45) 
COc1ccc(NS(=O)(=O)c2ccc3[nH]c(O)cc3c2)cc1N1CCN(C)CC1

>  <score_type>  (45) 
oracle

>  <origin>  (45) 
adgpu

>  <m_score__min__energy>  (45) 
-13

>  <m_primary>  (45) 
energy

$$$$
45:0
     RDKit          3D

 45 48  0  0  0  0  0  0  0  0999 V2000
   -3.3110   16.6790  -35.3150 C   0  0  0  0  0  0  0  0  0  0  0  0
   -4.6090   17.0000  -34.6580 C   0  0  0  0  0  0  0  0  0  0  0  0
   -4.9610   18.2170  -34.1140 C   0  0  0  0  0  0  0  0  0  0  0  0
   -6.2150   17.9830  -33.5820 C   0  0  0  0  0  0  0  0  0  0  0  0
   -7.0840   18.9470  -32.8670 C   0  0  0  0  0  0  0  0  0  0  0  0
   -8.2790   18.5040  -32.2760 C   0  0  0  0  0  0  0  0  0  0  0  0
   -9.1070   19.4000  -31.5950 C   0  0  0  0  0  0  0  0  0  0  0  0
   -8.7570   20.7480  -31.5030 C   0  0  0  0  0  0  0  0  0  0  0  0
   -7.5720   21.2070  -32.0900 C   0  0  0  0  0  0  0  0  0  0  0  0
   -7.1160   22.9050  -31.9810 S   0  0  0  0  0  0  0  0  0  0  0  0
   -7.0640   23.3510  -30.5430 O   0  0  0  0  0  0  0  0  0  0  0  0
   -8.1420   23.7380  -32.6980 O   0  0  0  0  0  0  0  0  0  0  0  0
   -5.5650   23.1530  -32.7130 N   0  0  0  0  0  0  0  0  0  0  0  0
   -4.4080   22.3910  -32.3280 C   0  0  0  0  0  0  0  0  0  0  0  0
   -3.9990   21.3120  -33.1230 C   0  0  0  0  0  0  0  0  0  0  0  0
   -2.8530   20.5880  -32.8080 C   0  0  0  0  0  0  0  0  0  0  0  0
   -2.0970   20.9140  -31.6780 C   0  0  0  0  0  0  0  0  0  0  0  0
   -0.9590   20.1570  -31.3600 C   0  0  0  0  0  0  0  0  0  0  0  0
   -0.2190   20.4460  -30.2120 C   0  0  0  0  0  0  0  0  0  0  0  0
   -0.6100   21.4870  -29.3710 C   0  0  0  0  0  0  0  0  0  0  0  0
   -1.7340   22.2580  -29.6780 C   0  0  0  0  0  0  0  0  0  0  0  0
   -2.4900   21.9960  -30.8460 C   0  0  0  0  0  0  0  0  0  0  0  0
   -3.6450   22.7550  -31.1890 C   0  0  0  0  0  0  0  0  0  0  0  0
   -4.0800   23.9050  -30.3620 C   0  0  0  0  0  0  0  0  0  0  0  0
   -3.8450   25.2410  -30.8080 N   0  0  0  0  0  0  0  0  0  0  0  0
   -4.6970   23.7070  -29.2800 O   0  0  0  0  0  0  0  0  0  0  0  0
   -6.7360   20.3080  -32.7670 C   0  0  0  0  0  0  0  0  0  0  0  0
   -6.5350   16.7270  -33.8040 O   0  0  0  0  0  0  0  0  0  0  0  0
   -5.5890   16.1030  -34.4440 N   0  0  0  0  0  0  0  0  0  0  0  0
   -2.5476   16.4902  -34.5459 H   0  0  0  0  0  0  0  0  0  0  0  0
   -3.4291   15.7830  -35.9421 H   0  0  0  0  0  0  0  0  0  0  0  0
   -2.9979   17.5268  -35.9421 H   0  0  0  0  0  0  0  0  0  0  0  0
   -4.3815   19.1520  -34.1054 H   0  0  0  0  0  0  0  0  0  0  0  0
   -8.5648   17.4444  -32.3499 H   0  0  0  0  0  0  0  0  0  0  0  0
  -10.0374   19.0420  -31.1300 H   0  0  0  0  0  0  0  0  0  0  0  0
   -9.4132   21.4506  -30.9685 H   0  0  0  0  0  0  0  0  0  0  0  0
   -5.4590   23.9810  -33.3430 H   0  0  0  0  0  0  0  0  0  0  0  0
   -4.5912   21.0337  -34.0072 H   0  0  0  0  0  0  0  0  0  0  0  0
   -2.5398   19.7535  -33.4525 H   0  0  0  0  0  0  0  0  0  0  0  0
   -0.6486   19.3322  -32.0183 H   0  0  0  0  0  0  0  0  0  0  0  0
    0.6743   19.8512  -29.9705 H   0  0  0  0  0  0  0  0  0  0  0  0
   -0.0306   21.7024  -28.4611 H   0  0  0  0  0  0  0  0  0  0  0  0
   -2.0342   23.0758  -29.0063 H   0  0  0  0  0  0  0  0  0  0  0  0
   -3.8810   26.0460  -30.1390 H   0  0  0  0  0  0  0  0  0  0  0  0
   -5.8020   20.6680  -33.2231 H   0  0  0  0  0  0  0  0  0  0  0  0
  1  2  1  0
  2  3  1  0
  3  4  2  0
  4  5  1  0
  5  6  2  0
  6  7  1  0
  7  8  2  0
  8  9  1  0
  9 10  1  0
 10 11  2  0
 10 12  2  0
 10 13  1  0
 13 14  1  0
 14 15  2  0
 15 16  1  0
 16 17  2  0
 17 18  1  0
 18 19  2  0
 19 20  1  0
 20 21  2  0
 21 22  1  0
 22 23  2  0
 23 24  1  0
 24 25  1  0
 24 26  2  0
  9 27  2  0
  4 28  1  0
 28 29  1  0
 29  2  2  0
 27  5  1  0
 23 14  1  0
 22 17  1  0
  1 30  1  0
  1 31  1  0
  1 32  1  0
  3 33  1  0
  6 34  1  0
  7 35  1  0
  8 36  1  0
 13 37  1  0
 15 38  1  0
 16 39  1  0
 18 40  1  0
 19 41  1  0
 20 42  1  0
 21 43  1  0
 25 44  1  0
 27 45  1  0
M  CHG  1  25  -1
M  END
>  <UniqueID>  (46) 
44

>  <SMILES>  (46) 
Cc1cc(-c2cccc(S(=O)(=O)Nc3ccc4ccccc4c3C([NH-])=O)c2)on1

>  <Energy>  (46) 
96.12111103930927

>  <Genealogy>  (46) 
Cc1cc(-c2cccc(S(=O)(=O)Nc3ccc4ccccc4c3C([NH-])=O)c2)on1 (protonated)
Cc1cc(-c2cccc(S(=O)(=O)Nc3ccc4ccccc4c3C([NH-])=O)c2)on1 (3D coordinates assigned)
Cc1cc(-c2cccc(S(=O)(=O)Nc3ccc4ccccc4c3C([NH-])=O)c2)on1 (optimized conformer: 96.12111103930927 kcal/mol)

>  <smiles>  (46) 
Cc1cc(-c2cccc(S(=O)(=O)Nc3ccc4ccccc4c3C(N)=O)c2)on1

>  <score_type>  (46) 
oracle

>  <origin>  (46) 
adgpu

>  <m_score__min__energy>  (46) 
-13.02

>  <m_primary>  (46) 
energy

$$$$
46:0
     RDKit          3D

 58 61  0  0  0  0  0  0  0  0999 V2000
   -3.2480   25.2660  -26.1680 C   0  0  0  0  0  0  0  0  0  0  0  0
   -2.2780   25.4490  -27.1920 O   0  0  0  0  0  0  0  0  0  0  0  0
   -1.9320   24.4770  -28.1420 C   0  0  0  0  0  0  0  0  0  0  0  0
   -0.6150   24.0180  -28.2970 C   0  0  0  0  0  0  0  0  0  0  0  0
   -0.3090   23.0380  -29.2450 C   0  0  0  0  0  0  0  0  0  0  0  0
   -1.3140   22.4920  -30.0680 C   0  0  0  0  0  0  0  0  0  0  0  0
   -1.0430   21.4140  -31.0650 C   0  0  0  0  0  0  0  0  0  0  0  0
   -0.1800   21.6240  -31.9630 O   0  0  0  0  0  0  0  0  0  0  0  0
   -1.7580   20.1630  -31.0660 N   0  0  0  0  0  0  0  0  0  0  0  0
   -1.6340   19.2030  -32.1300 C   0  0  0  0  0  0  0  0  0  0  0  0
   -0.6070   18.2440  -32.1050 C   0  0  0  0  0  0  0  0  0  0  0  0
   -0.4830   17.3160  -33.1430 C   0  0  0  0  0  0  0  0  0  0  0  0
   -1.3860   17.3240  -34.2040 C   0  0  0  0  0  0  0  0  0  0  0  0
   -2.4180   18.2630  -34.2330 C   0  0  0  0  0  0  0  0  0  0  0  0
   -2.5480   19.2050  -33.2020 C   0  0  0  0  0  0  0  0  0  0  0  0
   -3.8640   20.4250  -33.3100 S   0  0  0  0  0  0  0  0  0  0  0  0
   -5.1450   19.2280  -32.9460 C   0  0  0  0  0  0  0  0  0  0  0  0
   -5.7640   18.5270  -33.9890 C   0  0  0  0  0  0  0  0  0  0  0  0
   -6.7930   17.6260  -33.7110 C   0  0  0  0  0  0  0  0  0  0  0  0
   -7.2060   17.4180  -32.3920 C   0  0  0  0  0  0  0  0  0  0  0  0
   -6.5740   18.0990  -31.3470 C   0  0  0  0  0  0  0  0  0  0  0  0
   -5.5390   18.9980  -31.6230 C   0  0  0  0  0  0  0  0  0  0  0  0
   -2.6310   22.9650  -29.9100 C   0  0  0  0  0  0  0  0  0  0  0  0
   -2.9390   23.9410  -28.9560 C   0  0  0  0  0  0  0  0  0  0  0  0
   -4.2930   24.3530  -28.7840 N   0  0  0  0  0  0  0  0  0  0  0  0
   -5.2100   24.8990  -30.1460 S   0  0  0  0  0  0  0  0  0  0  0  0
   -6.0980   26.0350  -29.7250 O   0  0  0  0  0  0  0  0  0  0  0  0
   -4.2780   25.3920  -31.2170 O   0  0  0  0  0  0  0  0  0  0  0  0
   -6.1890   23.5710  -30.7620 C   0  0  0  0  0  0  0  0  0  0  0  0
   -7.1900   23.0080  -29.9590 C   0  0  0  0  0  0  0  0  0  0  0  0
   -8.0190   22.0060  -30.4690 C   0  0  0  0  0  0  0  0  0  0  0  0
   -7.8480   21.5480  -31.7840 C   0  0  0  0  0  0  0  0  0  0  0  0
   -8.7790   20.5150  -32.3480 C   0  0  0  0  0  0  0  0  0  0  0  0
   -6.8560   22.1240  -32.5920 C   0  0  0  0  0  0  0  0  0  0  0  0
   -6.0300   23.1280  -32.0810 C   0  0  0  0  0  0  0  0  0  0  0  0
   -2.7643   25.3572  -25.1843 H   0  0  0  0  0  0  0  0  0  0  0  0
   -4.0314   26.0322  -26.2639 H   0  0  0  0  0  0  0  0  0  0  0  0
   -3.6984   24.2670  -26.2639 H   0  0  0  0  0  0  0  0  0  0  0  0
    0.1844   24.4337  -27.6660 H   0  0  0  0  0  0  0  0  0  0  0  0
    0.7288   22.6887  -29.3500 H   0  0  0  0  0  0  0  0  0  0  0  0
   -2.4800   19.9660  -30.3480 H   0  0  0  0  0  0  0  0  0  0  0  0
    0.1026   18.2235  -31.2647 H   0  0  0  0  0  0  0  0  0  0  0  0
    0.3309   16.5763  -33.1221 H   0  0  0  0  0  0  0  0  0  0  0  0
   -1.2856   16.5909  -35.0180 H   0  0  0  0  0  0  0  0  0  0  0  0
   -3.1332   18.2644  -35.0688 H   0  0  0  0  0  0  0  0  0  0  0  0
   -5.4389   18.6868  -35.0276 H   0  0  0  0  0  0  0  0  0  0  0  0
   -7.2799   17.0785  -34.5315 H   0  0  0  0  0  0  0  0  0  0  0  0
   -8.0276   16.7191  -32.1762 H   0  0  0  0  0  0  0  0  0  0  0  0
   -6.8910   17.9276  -30.3077 H   0  0  0  0  0  0  0  0  0  0  0  0
   -5.0343   19.5247  -30.7997 H   0  0  0  0  0  0  0  0  0  0  0  0
   -3.4310   22.5603  -30.5473 H   0  0  0  0  0  0  0  0  0  0  0  0
   -7.3233   23.3561  -28.9241 H   0  0  0  0  0  0  0  0  0  0  0  0
   -8.8091   21.5743  -29.8370 H   0  0  0  0  0  0  0  0  0  0  0  0
   -9.2674   19.9731  -31.5247 H   0  0  0  0  0  0  0  0  0  0  0  0
   -9.5432   21.0087  -32.9663 H   0  0  0  0  0  0  0  0  0  0  0  0
   -8.2088   19.8061  -32.9663 H   0  0  0  0  0  0  0  0  0  0  0  0
   -6.7284   21.7841  -33.6304 H   0  0  0  0  0  0  0  0  0  0  0  0
   -5.2510   23.5727  -32.7177 H   0  0  0  0  0  0  0  0  0  0  0  0
  1  2  1  0
  2  3  1  0
  3  4  2  0
  4  5  1  0
  5  6  2  0
  6  7  1  0
  7  8  2  0
  7  9  1  0
  9 10  1  0
 10 11  2  0
 11 12  1  0
 12 13  2  0
 13 14  1  0
 14 15  2  0
 15 16  1  0
 16 17  1  0
 17 18  2  0
 18 19  1  0
 19 20  2  0
 20 21  1  0
 21 22  2  0
  6 23  1  0
 23 24  2  0
 24 25  1  0
 25 26  1  0
 26 27  2  0
 26 28  2  0
 26 29  1  0
 29 30  2  0
 30 31  1  0
 31 32  2  0
 32 33  1  0
 32 34  1  0
 34 35  2  0
 24  3  1  0
 35 29  1  0
 15 10  1  0
 22 17  1  0
  1 36  1  0
  1 37  1  0
  1 38  1  0
  4 39  1  0
  5 40  1  0
  9 41  1  0
 11 42  1  0
 12 43  1  0
 13 44  1  0
 14 45  1  0
 18 46  1  0
 19 47  1  0
 20 48  1  0
 21 49  1  0
 22 50  1  0
 23 51  1  0
 30 52  1  0
 31 53  1  0
 33 54  1  0
 33 55  1  0
 33 56  1  0
 34 57  1  0
 35 58  1  0
M  CHG  1  25  -1
M  END
>  <UniqueID>  (47) 
45

>  <SMILES>  (47) 
COc1ccc(C(=O)Nc2ccccc2Sc2ccccc2)cc1[N-]S(=O)(=O)c1ccc(C)cc1

>  <Energy>  (47) 
71.45891526909898

>  <Genealogy>  (47) 
COc1ccc(C(=O)Nc2ccccc2Sc2ccccc2)cc1[N-]S(=O)(=O)c1ccc(C)cc1 (protonated)
COc1ccc(C(=O)Nc2ccccc2Sc2ccccc2)cc1[N-]S(=O)(=O)c1ccc(C)cc1 (3D coordinates assigned)
COc1ccc(C(=O)Nc2ccccc2Sc2ccccc2)cc1[N-]S(=O)(=O)c1ccc(C)cc1 (optimized conformer: 71.45891526909898 kcal/mol)

>  <smiles>  (47) 
COc1ccc(C(=O)Nc2ccccc2Sc2ccccc2)cc1NS(=O)(=O)c1ccc(C)cc1

>  <score_type>  (47) 
oracle

>  <origin>  (47) 
adgpu

>  <m_score__min__energy>  (47) 
-11.460000000000001

>  <m_primary>  (47) 
energy

$$$$
47:0
     RDKit          3D

 35 36  0  0  0  0  0  0  0  0999 V2000
   -9.8280   20.9520  -31.9750 C   0  0  0  0  0  0  0  0  0  0  0  0
   -9.0990   19.6260  -32.1750 C   0  0  0  0  0  0  0  0  0  0  0  0
   -7.9700   19.7810  -33.0960 N   0  0  0  0  0  0  0  0  0  0  0  0
   -6.8090   20.5780  -32.7960 C   0  0  0  0  0  0  0  0  0  0  0  0
   -5.5360   19.9950  -32.8840 C   0  0  0  0  0  0  0  0  0  0  0  0
   -4.3900   20.7450  -32.6100 C   0  0  0  0  0  0  0  0  0  0  0  0
   -4.4970   22.0910  -32.2370 C   0  0  0  0  0  0  0  0  0  0  0  0
   -3.3460   22.8350  -31.9810 O   0  0  0  0  0  0  0  0  0  0  0  0
   -5.7670   22.6870  -32.1270 C   0  0  0  0  0  0  0  0  0  0  0  0
   -5.9040   24.1390  -31.7590 C   0  0  0  0  0  0  0  0  0  0  0  0
   -6.4380   24.2770  -30.0220 S   0  0  0  0  0  0  0  0  0  0  0  0
   -4.7970   23.9670  -29.3650 C   0  0  0  0  0  0  0  0  0  0  0  0
   -4.6200   22.9940  -28.3740 C   0  0  0  0  0  0  0  0  0  0  0  0
   -3.3470   22.7440  -27.8530 C   0  0  0  0  0  0  0  0  0  0  0  0
   -2.2460   23.4680  -28.3190 C   0  0  0  0  0  0  0  0  0  0  0  0
   -2.4170   24.4440  -29.3070 C   0  0  0  0  0  0  0  0  0  0  0  0
   -3.6900   24.6960  -29.8310 C   0  0  0  0  0  0  0  0  0  0  0  0
   -3.8480   25.6690  -30.8120 O   0  0  0  0  0  0  0  0  0  0  0  0
   -6.9140   21.9320  -32.4200 C   0  0  0  0  0  0  0  0  0  0  0  0
   -9.9377   21.1515  -30.8988 H   0  0  0  0  0  0  0  0  0  0  0  0
   -9.2488   21.7628  -32.4410 H   0  0  0  0  0  0  0  0  0  0  0  0
  -10.8229   20.8974  -32.4410 H   0  0  0  0  0  0  0  0  0  0  0  0
   -8.7245   19.2713  -31.2034 H   0  0  0  0  0  0  0  0  0  0  0  0
   -9.8045   18.8996  -32.6047 H   0  0  0  0  0  0  0  0  0  0  0  0
   -8.0030   19.2880  -34.0180 H   0  0  0  0  0  0  0  0  0  0  0  0
   -5.4395   18.9376  -33.1714 H   0  0  0  0  0  0  0  0  0  0  0  0
   -3.3980   20.2761  -32.6875 H   0  0  0  0  0  0  0  0  0  0  0  0
   -3.3690   23.8470  -31.9220 H   0  0  0  0  0  0  0  0  0  0  0  0
   -4.9343   24.6426  -31.8857 H   0  0  0  0  0  0  0  0  0  0  0  0
   -6.6515   24.6139  -32.4115 H   0  0  0  0  0  0  0  0  0  0  0  0
   -5.4853   22.4244  -28.0041 H   0  0  0  0  0  0  0  0  0  0  0  0
   -3.2118   21.9772  -27.0760 H   0  0  0  0  0  0  0  0  0  0  0  0
   -1.2446   23.2705  -27.9089 H   0  0  0  0  0  0  0  0  0  0  0  0
   -1.5499   25.0138  -29.6722 H   0  0  0  0  0  0  0  0  0  0  0  0
   -7.9060   22.4029  -32.3553 H   0  0  0  0  0  0  0  0  0  0  0  0
  1  2  1  0
  2  3  1  0
  3  4  1  0
  4  5  2  0
  5  6  1  0
  6  7  2  0
  7  8  1  0
  7  9  1  0
  9 10  1  0
 10 11  1  0
 11 12  1  0
 12 13  2  0
 13 14  1  0
 14 15  2  0
 15 16  1  0
 16 17  2  0
 17 18  1  0
  9 19  2  0
 19  4  1  0
 17 12  1  0
  1 20  1  0
  1 21  1  0
  1 22  1  0
  2 23  1  0
  2 24  1  0
  3 25  1  0
  5 26  1  0
  6 27  1  0
  8 28  1  0
 10 29  1  0
 10 30  1  0
 13 31  1  0
 14 32  1  0
 15 33  1  0
 16 34  1  0
 19 35  1  0
M  CHG  1  18  -1
M  END
>  <UniqueID>  (48) 
46

>  <SMILES>  (48) 
CCNc1ccc(O)c(CSc2ccccc2[O-])c1

>  <Energy>  (48) 
27.937848453348614

>  <Genealogy>  (48) 
CCNc1ccc(O)c(CSc2ccccc2[O-])c1 (protonated)
CCNc1ccc(O)c(CSc2ccccc2[O-])c1 (3D coordinates assigned)
CCNc1ccc(O)c(CSc2ccccc2[O-])c1 (optimized conformer: 27.937848453348614 kcal/mol)

>  <smiles>  (48) 
CCNc1ccc(O)c(CSc2ccccc2O)c1

>  <score_type>  (48) 
oracle

>  <origin>  (48) 
adgpu

>  <m_score__min__energy>  (48) 
-10.470000000000001

>  <m_primary>  (48) 
energy

$$$$
48:0
     RDKit          3D

 63 67  0  0  0  0  0  0  0  0999 V2000
   -5.5480   15.9180  -34.2690 C   0  0  0  0  0  0  0  0  0  0  0  0
   -4.8910   17.2750  -33.8660 C   0  0  2  0  0  0  0  0  0  0  0  0
   -3.4210   17.2850  -34.1550 N   0  0  0  0  0  0  0  0  0  0  0  0
   -2.5690   18.0070  -33.1920 C   0  0  0  0  0  0  0  0  0  0  0  0
   -1.2280   17.3020  -33.1700 C   0  0  0  0  0  0  0  0  0  0  0  0
   -1.5640   15.8710  -33.5120 C   0  0  0  0  0  0  0  0  0  0  0  0
   -2.7940   15.9700  -34.3970 C   0  0  0  0  0  0  0  0  0  0  0  0
   -5.0990   17.5060  -32.3410 C   0  0  0  0  0  0  0  0  0  0  0  0
   -6.5780   17.7070  -31.9380 C   0  0  0  0  0  0  0  0  0  0  0  0
   -7.3850   18.4260  -32.9560 N   0  0  1  0  0  0  0  0  0  0  0  0
   -8.6440   19.3680  -32.1890 S   0  0  0  0  0  0  0  0  0  0  0  0
   -8.9990   18.7520  -30.8640 O   0  0  0  0  0  0  0  0  0  0  0  0
   -9.8730   19.3520  -33.0550 O   0  0  0  0  0  0  0  0  0  0  0  0
   -8.1370   21.0410  -31.9380 C   0  0  0  0  0  0  0  0  0  0  0  0
   -9.0500   22.0880  -32.1220 C   0  0  0  0  0  0  0  0  0  0  0  0
   -8.6500   23.4120  -31.9300 C   0  0  0  0  0  0  0  0  0  0  0  0
   -7.3360   23.6990  -31.5570 C   0  0  0  0  0  0  0  0  0  0  0  0
   -6.4130   22.6610  -31.3770 C   0  0  0  0  0  0  0  0  0  0  0  0
   -4.7650   23.0310  -30.8820 S   0  0  0  0  0  0  0  0  0  0  0  0
   -4.5580   22.5820  -29.4630 O   0  0  0  0  0  0  0  0  0  0  0  0
   -4.5120   24.5120  -30.9520 O   0  0  0  0  0  0  0  0  0  0  0  0
   -3.6460   22.1940  -31.9410 C   0  0  0  0  0  0  0  0  0  0  0  0
   -3.8260   21.9260  -33.2920 C   0  0  0  0  0  0  0  0  0  0  0  0
   -2.7340   21.3060  -33.7960 N   0  0  0  0  0  0  0  0  0  0  0  0
   -1.8690   21.1870  -32.7730 C   0  0  0  0  0  0  0  0  0  0  0  0
   -0.5940   20.6230  -32.8060 C   0  0  0  0  0  0  0  0  0  0  0  0
    0.1520   20.6140  -31.6130 C   0  0  0  0  0  0  0  0  0  0  0  0
   -0.3880   21.1630  -30.4280 C   0  0  0  0  0  0  0  0  0  0  0  0
   -1.6760   21.7260  -30.4250 C   0  0  0  0  0  0  0  0  0  0  0  0
   -2.3910   21.7190  -31.6230 C   0  0  0  0  0  0  0  0  0  0  0  0
   -6.8180   21.3320  -31.5620 C   0  0  0  0  0  0  0  0  0  0  0  0
   -6.5640   19.2890  -33.8200 C   0  0  0  0  0  0  0  0  0  0  0  0
   -5.5680   18.4560  -34.6490 C   0  0  0  0  0  0  0  0  0  0  0  0
   -5.8191   15.3581  -33.3618 H   0  0  0  0  0  0  0  0  0  0  0  0
   -6.4524   16.1111  -34.8646 H   0  0  0  0  0  0  0  0  0  0  0  0
   -4.8356   15.3283  -34.8646 H   0  0  0  0  0  0  0  0  0  0  0  0
   -2.4410   19.0521  -33.5106 H   0  0  0  0  0  0  0  0  0  0  0  0
   -3.0258   18.0122  -32.1913 H   0  0  0  0  0  0  0  0  0  0  0  0
   -0.5468   17.7335  -33.9182 H   0  0  0  0  0  0  0  0  0  0  0  0
   -0.7147   17.3973  -32.2018 H   0  0  0  0  0  0  0  0  0  0  0  0
   -0.7329   15.3952  -34.0532 H   0  0  0  0  0  0  0  0  0  0  0  0
   -1.7416   15.2576  -32.6163 H   0  0  0  0  0  0  0  0  0  0  0  0
   -2.5021   15.8837  -35.4540 H   0  0  0  0  0  0  0  0  0  0  0  0
   -3.5003   15.1595  -34.1644 H   0  0  0  0  0  0  0  0  0  0  0  0
   -4.5338   18.4022  -32.0454 H   0  0  0  0  0  0  0  0  0  0  0  0
   -4.7468   16.5990  -31.8279 H   0  0  0  0  0  0  0  0  0  0  0  0
   -6.6069   18.2841  -31.0020 H   0  0  0  0  0  0  0  0  0  0  0  0
   -7.0190   16.7052  -31.8293 H   0  0  0  0  0  0  0  0  0  0  0  0
   -7.8780   17.7280  -33.5590 H   0  0  0  0  0  0  0  0  0  0  0  0
  -10.0857   21.8661  -32.4188 H   0  0  0  0  0  0  0  0  0  0  0  0
   -9.3715   24.2299  -32.0729 H   0  0  0  0  0  0  0  0  0  0  0  0
   -7.0246   24.7428  -31.4040 H   0  0  0  0  0  0  0  0  0  0  0  0
   -4.7269   22.1812  -33.8693 H   0  0  0  0  0  0  0  0  0  0  0  0
   -2.5920   20.9950  -34.7820 H   0  0  0  0  0  0  0  0  0  0  0  0
   -0.1847   20.1988  -33.7347 H   0  0  0  0  0  0  0  0  0  0  0  0
    1.1615   20.1771  -31.6026 H   0  0  0  0  0  0  0  0  0  0  0  0
    0.2041   21.1496  -29.5010 H   0  0  0  0  0  0  0  0  0  0  0  0
   -2.1057   22.1576  -29.5090 H   0  0  0  0  0  0  0  0  0  0  0  0
   -6.0981   20.5140  -31.4116 H   0  0  0  0  0  0  0  0  0  0  0  0
   -6.0044   19.9979  -33.1921 H   0  0  0  0  0  0  0  0  0  0  0  0
   -7.2298   19.8270  -34.5108 H   0  0  0  0  0  0  0  0  0  0  0  0
   -4.7749   19.1281  -35.0087 H   0  0  0  0  0  0  0  0  0  0  0  0
   -6.1480   17.9974  -35.4634 H   0  0  0  0  0  0  0  0  0  0  0  0
  2  1  1  6
  2  3  1  0
  3  4  1  0
  4  5  1  0
  5  6  1  0
  6  7  1  0
  2  8  1  0
  8  9  1  0
  9 10  1  0
 10 11  1  0
 11 12  2  0
 11 13  2  0
 11 14  1  0
 14 15  2  0
 15 16  1  0
 16 17  2  0
 17 18  1  0
 18 19  1  0
 19 20  2  0
 19 21  2  0
 19 22  1  0
 22 23  2  0
 23 24  1  0
 24 25  1  0
 25 26  2  0
 26 27  1  0
 27 28  2  0
 28 29  1  0
 29 30  2  0
 18 31  2  0
 10 32  1  0
 32 33  1  0
 33  2  1  0
  7  3  1  0
 31 14  1  0
 30 22  1  0
 30 25  1  0
  1 34  1  0
  1 35  1  0
  1 36  1  0
  4 37  1  0
  4 38  1  0
  5 39  1  0
  5 40  1  0
  6 41  1  0
  6 42  1  0
  7 43  1  0
  7 44  1  0
  8 45  1  0
  8 46  1  0
  9 47  1  0
  9 48  1  0
 10 49  1  6
 15 50  1  0
 16 51  1  0
 17 52  1  0
 23 53  1  0
 24 54  1  0
 26 55  1  0
 27 56  1  0
 28 57  1  0
 29 58  1  0
 31 59  1  0
 32 60  1  0
 32 61  1  0
 33 62  1  0
 33 63  1  0
M  CHG  1  10   1
M  END
>  <UniqueID>  (49) 
47

>  <SMILES>  (49) 
CC1(N2CCCC2)CC[NH+](S(=O)(=O)c2cccc(S(=O)(=O)c3c[nH]c4ccccc34)c2)CC1

>  <Energy>  (49) 
118.69869669535898

>  <Genealogy>  (49) 
CC1(N2CCCC2)CC[NH+](S(=O)(=O)c2cccc(S(=O)(=O)c3c[nH]c4ccccc34)c2)CC1 (protonated)
CC1(N2CCCC2)CC[NH+](S(=O)(=O)c2cccc(S(=O)(=O)c3c[nH]c4ccccc34)c2)CC1 (3D coordinates assigned)
CC1(N2CCCC2)CC[NH+](S(=O)(=O)c2cccc(S(=O)(=O)c3c[nH]c4ccccc34)c2)CC1 (nonaromatic ring conformer: 118.69869669535898 kcal/mol)

>  <smiles>  (49) 
CC1(N2CCCC2)CCN(S(=O)(=O)c2cccc(S(=O)(=O)c3c[nH]c4ccccc34)c2)CC1

>  <score_type>  (49) 
oracle

>  <origin>  (49) 
adgpu

>  <m_score__min__energy>  (49) 
-10.949999999999999

>  <m_primary>  (49) 
energy

$$$$
49:0
     RDKit          3D

 38 40  0  0  0  0  0  0  0  0999 V2000
    1.4920   24.1440  -27.8380 C   0  0  0  0  0  0  0  0  0  0  0  0
    0.1020   24.2140  -28.3720 C   0  0  0  0  0  0  0  0  0  0  0  0
   -0.6150   25.3590  -28.4460 N   0  0  0  0  0  0  0  0  0  0  0  0
   -1.8580   25.1720  -28.8870 N   0  0  0  0  0  0  0  0  0  0  0  0
   -2.1310   23.8740  -29.1510 C   0  0  0  0  0  0  0  0  0  0  0  0
   -3.2880   23.4400  -29.5530 N   0  0  0  0  0  0  0  0  0  0  0  0
   -4.6530   24.4740  -29.8330 S   0  0  0  0  0  0  0  0  0  0  0  0
   -4.2380   25.6090  -30.7250 O   0  0  0  0  0  0  0  0  0  0  0  0
   -5.1240   25.0250  -28.5160 O   0  0  0  0  0  0  0  0  0  0  0  0
   -5.9470   23.5760  -30.6200 C   0  0  0  0  0  0  0  0  0  0  0  0
   -5.9420   23.4160  -32.0110 C   0  0  0  0  0  0  0  0  0  0  0  0
   -6.9230   22.6410  -32.6330 C   0  0  0  0  0  0  0  0  0  0  0  0
   -7.9350   22.0330  -31.8690 C   0  0  0  0  0  0  0  0  0  0  0  0
   -8.9260   21.1850  -32.4630 N   0  0  0  0  0  0  0  0  0  0  0  0
   -8.9570   19.4590  -32.3020 S   0  0  0  0  0  0  0  0  0  0  0  0
   -9.1100   19.1000  -30.8510 O   0  0  0  0  0  0  0  0  0  0  0  0
  -10.1280   18.9120  -33.0710 O   0  0  0  0  0  0  0  0  0  0  0  0
   -7.4450   18.7830  -32.9010 C   0  0  0  0  0  0  0  0  0  0  0  0
   -7.0580   17.4920  -32.5170 C   0  0  0  0  0  0  0  0  0  0  0  0
   -5.8450   16.9590  -32.9630 C   0  0  0  0  0  0  0  0  0  0  0  0
   -5.0130   17.7130  -33.7950 C   0  0  0  0  0  0  0  0  0  0  0  0
   -3.3530   16.9870  -34.4000 Br  0  0  0  0  0  0  0  0  0  0  0  0
   -5.3950   19.0010  -34.1810 C   0  0  0  0  0  0  0  0  0  0  0  0
   -6.6080   19.5370  -33.7370 C   0  0  0  0  0  0  0  0  0  0  0  0
   -7.9720   22.2470  -30.4860 C   0  0  0  0  0  0  0  0  0  0  0  0
   -6.9770   23.0070  -29.8620 C   0  0  0  0  0  0  0  0  0  0  0  0
   -0.8140   22.8770  -28.8390 S   0  0  0  0  0  0  0  0  0  0  0  0
    1.4629   24.1455  -26.7384 H   0  0  0  0  0  0  0  0  0  0  0  0
    1.9742   23.2204  -28.1908 H   0  0  0  0  0  0  0  0  0  0  0  0
    2.0646   25.0144  -28.1908 H   0  0  0  0  0  0  0  0  0  0  0  0
   -5.1626   23.9025  -32.6159 H   0  0  0  0  0  0  0  0  0  0  0  0
   -6.9041   22.5056  -33.7245 H   0  0  0  0  0  0  0  0  0  0  0  0
   -7.7109   16.8960  -31.8624 H   0  0  0  0  0  0  0  0  0  0  0  0
   -5.5452   15.9453  -32.6588 H   0  0  0  0  0  0  0  0  0  0  0  0
   -4.7399   19.5945  -34.8356 H   0  0  0  0  0  0  0  0  0  0  0  0
   -6.9060   20.5505  -34.0435 H   0  0  0  0  0  0  0  0  0  0  0  0
   -8.7875   21.8154  -29.8870 H   0  0  0  0  0  0  0  0  0  0  0  0
   -7.0041   23.1578  -28.7727 H   0  0  0  0  0  0  0  0  0  0  0  0
  1  2  1  0
  2  3  2  0
  3  4  1  0
  4  5  1  0
  5  6  2  3
  6  7  1  0
  7  8  2  0
  7  9  2  0
  7 10  1  0
 10 11  2  0
 11 12  1  0
 12 13  2  0
 13 14  1  0
 14 15  1  0
 15 16  2  0
 15 17  2  0
 15 18  1  0
 18 19  2  0
 19 20  1  0
 20 21  2  0
 21 22  1  0
 21 23  1  0
 23 24  2  0
 13 25  1  0
 25 26  2  0
  5 27  1  0
 27  2  1  0
 26 10  1  0
 24 18  1  0
  1 28  1  0
  1 29  1  0
  1 30  1  0
 11 31  1  0
 12 32  1  0
 19 33  1  0
 20 34  1  0
 23 35  1  0
 24 36  1  0
 25 37  1  0
 26 38  1  0
M  CHG  2   4  -1  14  -1
M  END
>  <UniqueID>  (50) 
48

>  <SMILES>  (50) 
Cc1n[n-]c(=NS(=O)(=O)c2ccc([N-]S(=O)(=O)c3ccc(Br)cc3)cc2)s1

>  <Energy>  (50) 
77.75162743370139

>  <Genealogy>  (50) 
Cc1n[n-]c(=NS(=O)(=O)c2ccc([N-]S(=O)(=O)c3ccc(Br)cc3)cc2)s1 (protonated)
Cc1n[n-]c(=NS(=O)(=O)c2ccc([N-]S(=O)(=O)c3ccc(Br)cc3)cc2)s1 (3D coordinates assigned)
Cc1n[n-]c(=NS(=O)(=O)c2ccc([N-]S(=O)(=O)c3ccc(Br)cc3)cc2)s1 (optimized conformer: 77.75162743370139 kcal/mol)

>  <smiles>  (50) 
Cc1n[nH]c(=NS(=O)(=O)c2ccc(NS(=O)(=O)c3ccc(Br)cc3)cc2)s1

>  <score_type>  (50) 
oracle

>  <origin>  (50) 
adgpu

>  <m_score__min__energy>  (50) 
-11.369999999999999

>  <m_primary>  (50) 
energy

$$$$
