0:0
     RDKit          3D

 42 44  0  0  0  0  0  0  0  0999 V2000
   -9.0190   23.3960  -32.0190 C   0  0  0  0  0  0  0  0  0  0  0  0
   -8.9200   21.9070  -31.9640 C   0  0  0  0  0  0  0  0  0  0  0  0
   -9.9140   21.0740  -32.3340 N   0  0  0  0  0  0  0  0  0  0  0  0
   -9.4840   19.8590  -32.1470 O   0  0  0  0  0  0  0  0  0  0  0  0
   -8.2590   19.8560  -31.6710 C   0  0  0  0  0  0  0  0  0  0  0  0
   -7.4870   18.6190  -31.3510 C   0  0  0  0  0  0  0  0  0  0  0  0
   -7.8290   21.1640  -31.5510 C   0  0  0  0  0  0  0  0  0  0  0  0
   -6.5240   21.6650  -31.0020 C   0  0  0  0  0  0  0  0  0  0  0  0
   -5.5690   21.8490  -32.0470 O   0  0  0  0  0  0  0  0  0  0  0  0
   -4.9550   20.8230  -32.7870 C   0  0  0  0  0  0  0  0  0  0  0  0
   -5.7050   19.9530  -33.6060 C   0  0  0  0  0  0  0  0  0  0  0  0
   -5.0790   18.9140  -34.2960 C   0  0  0  0  0  0  0  0  0  0  0  0
   -3.7030   18.7240  -34.1790 C   0  0  0  0  0  0  0  0  0  0  0  0
   -2.9450   19.5800  -33.3780 C   0  0  0  0  0  0  0  0  0  0  0  0
   -3.5550   20.6430  -32.6880 C   0  0  0  0  0  0  0  0  0  0  0  0
   -2.7170   21.5310  -31.8460 C   0  0  0  0  0  0  0  0  0  0  0  0
   -1.4610   21.5020  -31.9730 O   0  0  0  0  0  0  0  0  0  0  0  0
   -3.3170   22.4660  -30.9350 N   0  0  0  0  0  0  0  0  0  0  0  0
   -2.5960   23.1050  -29.8700 C   0  0  0  0  0  0  0  0  0  0  0  0
   -1.7250   22.3400  -29.0770 C   0  0  0  0  0  0  0  0  0  0  0  0
   -1.0010   22.9350  -28.0410 C   0  0  0  0  0  0  0  0  0  0  0  0
   -1.1280   24.3040  -27.7960 C   0  0  0  0  0  0  0  0  0  0  0  0
   -1.9700   25.0810  -28.5940 C   0  0  0  0  0  0  0  0  0  0  0  0
   -2.6950   24.4940  -29.6370 C   0  0  0  0  0  0  0  0  0  0  0  0
   -3.4860   25.3000  -30.4470 O   0  0  0  0  0  0  0  0  0  0  0  0
   -9.0458   23.7997  -30.9961 H   0  0  0  0  0  0  0  0  0  0  0  0
   -8.1459   23.8021  -32.5507 H   0  0  0  0  0  0  0  0  0  0  0  0
   -9.9382   23.6830  -32.5507 H   0  0  0  0  0  0  0  0  0  0  0  0
   -7.4151   18.5038  -30.2594 H   0  0  0  0  0  0  0  0  0  0  0  0
   -8.0005   17.7454  -31.7789 H   0  0  0  0  0  0  0  0  0  0  0  0
   -6.4766   18.6964  -31.7789 H   0  0  0  0  0  0  0  0  0  0  0  0
   -6.6921   22.6263  -30.4943 H   0  0  0  0  0  0  0  0  0  0  0  0
   -6.1313   20.9202  -30.2941 H   0  0  0  0  0  0  0  0  0  0  0  0
   -6.7917   20.0947  -33.7015 H   0  0  0  0  0  0  0  0  0  0  0  0
   -5.6730   18.2431  -34.9340 H   0  0  0  0  0  0  0  0  0  0  0  0
   -3.2142   17.8991  -34.7181 H   0  0  0  0  0  0  0  0  0  0  0  0
   -1.8604   19.4216  -33.2856 H   0  0  0  0  0  0  0  0  0  0  0  0
   -4.2720   22.8240  -31.1640 H   0  0  0  0  0  0  0  0  0  0  0  0
   -1.6120   21.2636  -29.2733 H   0  0  0  0  0  0  0  0  0  0  0  0
   -0.3305   22.3249  -27.4179 H   0  0  0  0  0  0  0  0  0  0  0  0
   -0.5646   24.7702  -26.9743 H   0  0  0  0  0  0  0  0  0  0  0  0
   -2.0639   26.1600  -28.4018 H   0  0  0  0  0  0  0  0  0  0  0  0
  1  2  1  0
  2  3  2  0
  3  4  1  0
  4  5  1  0
  5  6  1  0
  5  7  2  0
  7  8  1  0
  8  9  1  0
  9 10  1  0
 10 11  2  0
 11 12  1  0
 12 13  2  0
 13 14  1  0
 14 15  2  0
 15 16  1  0
 16 17  2  0
 16 18  1  0
 18 19  1  0
 19 20  2  0
 20 21  1  0
 21 22  2  0
 22 23  1  0
 23 24  2  0
 24 25  1  0
  7  2  1  0
 15 10  1  0
 24 19  1  0
  1 26  1  0
  1 27  1  0
  1 28  1  0
  6 29  1  0
  6 30  1  0
  6 31  1  0
  8 32  1  0
  8 33  1  0
 11 34  1  0
 12 35  1  0
 13 36  1  0
 14 37  1  0
 18 38  1  0
 20 39  1  0
 21 40  1  0
 22 41  1  0
 23 42  1  0
M  CHG  1  25  -1
M  END
>  <UniqueID>  (1) 
1

>  <SMILES>  (1) 
Cc1noc(C)c1COc1ccccc1C(=O)Nc1ccccc1[O-]

>  <Energy>  (1) 
79.56360366746777

>  <Genealogy>  (1) 
Cc1noc(C)c1COc1ccccc1C(=O)Nc1ccccc1[O-] (protonated)
Cc1noc(C)c1COc1ccccc1C(=O)Nc1ccccc1[O-] (3D coordinates assigned)
Cc1noc(C)c1COc1ccccc1C(=O)Nc1ccccc1[O-] (optimized conformer: 79.56360366746777 kcal/mol)

>  <smiles>  (1) 
Cc1noc(C)c1COc1ccccc1C(=O)Nc1ccccc1O

>  <score_type>  (1) 
oracle

>  <origin>  (1) 
adgpu

>  <m_score__min__energy>  (1) 
-11.44

>  <m_primary>  (1) 
energy

$$$$
1:0
     RDKit          3D

 43 45  0  0  0  0  0  0  0  0999 V2000
   -4.5170   25.7290  -30.8530 O   0  0  0  0  0  0  0  0  0  0  0  0
   -5.3430   24.9110  -29.9000 S   0  0  0  0  0  0  0  0  0  0  0  0
   -6.5580   25.7010  -29.5040 O   0  0  0  0  0  0  0  0  0  0  0  0
   -4.4010   24.5500  -28.4870 N   0  0  0  0  0  0  0  0  0  0  0  0
   -3.2080   23.7500  -28.5410 C   0  0  0  0  0  0  0  0  0  0  0  0
   -3.2310   22.3890  -28.1820 C   0  0  0  0  0  0  0  0  0  0  0  0
   -2.0610   21.6250  -28.2220 C   0  0  0  0  0  0  0  0  0  0  0  0
   -0.8580   22.2080  -28.6220 C   0  0  0  0  0  0  0  0  0  0  0  0
   -0.8240   23.5540  -28.9940 C   0  0  0  0  0  0  0  0  0  0  0  0
   -1.9920   24.3250  -28.9590 C   0  0  0  0  0  0  0  0  0  0  0  0
   -1.9340   25.6640  -29.3260 O   0  0  0  0  0  0  0  0  0  0  0  0
   -5.8610   23.4030  -30.6430 C   0  0  0  0  0  0  0  0  0  0  0  0
   -7.2160   23.0480  -30.6780 C   0  0  0  0  0  0  0  0  0  0  0  0
   -7.6230   21.9040  -31.3700 C   0  0  0  0  0  0  0  0  0  0  0  0
   -6.6790   21.1090  -32.0370 C   0  0  0  0  0  0  0  0  0  0  0  0
   -7.2050   19.7340  -33.0060 S   0  0  0  0  0  0  0  0  0  0  0  0
   -6.8370   19.9820  -34.4420 O   0  0  0  0  0  0  0  0  0  0  0  0
   -8.7010   19.6170  -32.9290 O   0  0  0  0  0  0  0  0  0  0  0  0
   -6.4740   18.2300  -32.4750 N   0  0  0  0  0  0  0  0  0  0  0  0
   -5.0150   18.2000  -32.6940 C   0  0  0  0  0  0  0  0  0  0  0  0
   -4.6220   17.7900  -34.1340 C   0  0  0  0  0  0  0  0  0  0  0  0
   -5.7230   17.3650  -34.9100 O   0  0  0  0  0  0  0  0  0  0  0  0
   -6.4570   16.3970  -34.1990 C   0  0  0  0  0  0  0  0  0  0  0  0
   -7.1750   17.0380  -32.9990 C   0  0  0  0  0  0  0  0  0  0  0  0
   -5.3210   21.4460  -31.9700 C   0  0  0  0  0  0  0  0  0  0  0  0
   -4.9150   22.5910  -31.2800 C   0  0  0  0  0  0  0  0  0  0  0  0
   -4.8330   24.7680  -27.5620 H   0  0  0  0  0  0  0  0  0  0  0  0
   -4.1767   21.9232  -27.8677 H   0  0  0  0  0  0  0  0  0  0  0  0
   -2.0887   20.5627  -27.9377 H   0  0  0  0  0  0  0  0  0  0  0  0
    0.0635   21.6077  -28.6444 H   0  0  0  0  0  0  0  0  0  0  0  0
    0.1240   24.0098  -29.3156 H   0  0  0  0  0  0  0  0  0  0  0  0
   -7.9604   23.6706  -30.1601 H   0  0  0  0  0  0  0  0  0  0  0  0
   -8.6871   21.6260  -31.3917 H   0  0  0  0  0  0  0  0  0  0  0  0
   -4.6109   19.2033  -32.4937 H   0  0  0  0  0  0  0  0  0  0  0  0
   -4.5982   17.4428  -32.0136 H   0  0  0  0  0  0  0  0  0  0  0  0
   -4.1577   18.6552  -34.6298 H   0  0  0  0  0  0  0  0  0  0  0  0
   -3.9292   16.9393  -34.0548 H   0  0  0  0  0  0  0  0  0  0  0  0
   -7.2039   15.9455  -34.8685 H   0  0  0  0  0  0  0  0  0  0  0  0
   -5.7642   15.6270  -33.8287 H   0  0  0  0  0  0  0  0  0  0  0  0
   -8.1859   17.3362  -33.3139 H   0  0  0  0  0  0  0  0  0  0  0  0
   -7.1997   16.2901  -32.1927 H   0  0  0  0  0  0  0  0  0  0  0  0
   -4.5724   20.8075  -32.4619 H   0  0  0  0  0  0  0  0  0  0  0  0
   -3.8481   22.8555  -31.2371 H   0  0  0  0  0  0  0  0  0  0  0  0
  1  2  2  0
  2  3  2  0
  2  4  1  0
  4  5  1  0
  5  6  2  0
  6  7  1  0
  7  8  2  0
  8  9  1  0
  9 10  2  0
 10 11  1  0
  2 12  1  0
 12 13  2  0
 13 14  1  0
 14 15  2  0
 15 16  1  0
 16 17  2  0
 16 18  2  0
 16 19  1  0
 19 20  1  0
 20 21  1  0
 21 22  1  0
 22 23  1  0
 23 24  1  0
 15 25  1  0
 25 26  2  0
 10  5  1  0
 26 12  1  0
 24 19  1  0
  4 27  1  0
  6 28  1  0
  7 29  1  0
  8 30  1  0
  9 31  1  0
 13 32  1  0
 14 33  1  0
 20 34  1  0
 20 35  1  0
 21 36  1  0
 21 37  1  0
 23 38  1  0
 23 39  1  0
 24 40  1  0
 24 41  1  0
 25 42  1  0
 26 43  1  0
M  CHG  1  11  -1
M  END
>  <UniqueID>  (2) 
2

>  <SMILES>  (2) 
O=S(=O)(Nc1ccccc1[O-])c1ccc(S(=O)(=O)N2CCOCC2)cc1

>  <Energy>  (2) 
56.59084717251871

>  <Genealogy>  (2) 
O=S(=O)(Nc1ccccc1[O-])c1ccc(S(=O)(=O)N2CCOCC2)cc1 (protonated)
O=S(=O)(Nc1ccccc1[O-])c1ccc(S(=O)(=O)N2CCOCC2)cc1 (3D coordinates assigned)
O=S(=O)(Nc1ccccc1[O-])c1ccc(S(=O)(=O)N2CCOCC2)cc1 (nonaromatic ring conformer: 56.59084717251871 kcal/mol)

>  <smiles>  (2) 
O=S(=O)(Nc1ccccc1O)c1ccc(S(=O)(=O)N2CCOCC2)cc1

>  <score_type>  (2) 
oracle

>  <origin>  (2) 
adgpu

>  <m_score__min__energy>  (2) 
-13.34

>  <m_primary>  (2) 
energy

$$$$
2:0
     RDKit          3D

 61 65  0  0  0  0  0  0  0  0999 V2000
   -6.1260   25.7990  -28.9750 N   0  0  0  0  0  0  0  0  0  0  0  0
   -5.9760   24.8370  -30.0250 C   0  0  0  0  0  0  0  0  0  0  0  0
   -7.0920   24.4950  -30.8020 C   0  0  0  0  0  0  0  0  0  0  0  0
   -6.9590   23.6220  -31.8860 C   0  0  0  0  0  0  0  0  0  0  0  0
   -5.7100   23.0880  -32.2080 C   0  0  0  0  0  0  0  0  0  0  0  0
   -4.5930   23.4130  -31.4330 C   0  0  0  0  0  0  0  0  0  0  0  0
   -4.7180   24.2640  -30.3260 C   0  0  0  0  0  0  0  0  0  0  0  0
   -3.5590   24.5320  -29.5220 N   0  0  0  0  0  0  0  0  0  0  0  0
   -3.5860   24.4510  -28.0890 C   0  0  0  0  0  0  0  0  0  0  0  0
   -4.5910   23.9580  -27.5080 O   0  0  0  0  0  0  0  0  0  0  0  0
   -2.4230   24.8920  -27.2840 C   0  0  0  0  0  0  0  0  0  0  0  0
   -2.6490   25.6410  -26.1130 C   0  0  0  0  0  0  0  0  0  0  0  0
   -1.5780   26.0530  -25.3170 C   0  0  0  0  0  0  0  0  0  0  0  0
   -0.2730   25.7220  -25.6760 C   0  0  0  0  0  0  0  0  0  0  0  0
   -0.0310   24.9980  -26.8450 C   0  0  0  0  0  0  0  0  0  0  0  0
   -1.0950   24.6000  -27.6760 C   0  0  0  0  0  0  0  0  0  0  0  0
   -0.8500   23.8810  -28.8950 N   0  0  0  0  0  0  0  0  0  0  0  0
   -0.2860   22.5670  -29.0030 C   0  0  0  0  0  0  0  0  0  0  0  0
    0.6490   22.2160  -28.2300 O   0  0  0  0  0  0  0  0  0  0  0  0
   -0.8050   21.6190  -30.0130 C   0  0  0  0  0  0  0  0  0  0  0  0
   -2.0740   21.8190  -30.5860 C   0  0  0  0  0  0  0  0  0  0  0  0
   -2.5020   21.0220  -31.6510 C   0  0  0  0  0  0  0  0  0  0  0  0
   -1.6660   20.0210  -32.1690 C   0  0  0  0  0  0  0  0  0  0  0  0
   -1.9790   19.3860  -33.4650 C   0  0  0  0  0  0  0  0  0  0  0  0
   -1.1370   18.6140  -33.9960 O   0  0  0  0  0  0  0  0  0  0  0  0
   -3.2220   19.6360  -34.1440 N   0  0  0  0  0  0  0  0  0  0  0  0
   -4.4840   19.0170  -33.8420 C   0  0  0  0  0  0  0  0  0  0  0  0
   -4.6110   17.6310  -33.9740 C   0  0  0  0  0  0  0  0  0  0  0  0
   -5.7940   16.9950  -33.5920 C   0  0  0  0  0  0  0  0  0  0  0  0
   -6.8530   17.7340  -33.0550 C   0  0  0  0  0  0  0  0  0  0  0  0
   -6.7590   19.1330  -32.9430 C   0  0  0  0  0  0  0  0  0  0  0  0
   -7.8370   19.9160  -32.2860 C   0  0  0  0  0  0  0  0  0  0  0  0
   -9.1330   20.1220  -32.7630 C   0  0  0  0  0  0  0  0  0  0  0  0
   -9.8980   20.9790  -31.9620 C   0  0  0  0  0  0  0  0  0  0  0  0
   -9.2230   21.4580  -30.8490 C   0  0  0  0  0  0  0  0  0  0  0  0
   -7.6720   20.8150  -30.8670 S   0  0  0  0  0  0  0  0  0  0  0  0
   -5.5900   19.7670  -33.4010 C   0  0  0  0  0  0  0  0  0  0  0  0
   -0.4440   19.7530  -31.5360 C   0  0  0  0  0  0  0  0  0  0  0  0
   -0.0110   20.5520  -30.4730 C   0  0  0  0  0  0  0  0  0  0  0  0
   -6.9200   26.4740  -28.9630 H   0  0  0  0  0  0  0  0  0  0  0  0
   -5.4850   25.7920  -28.1520 H   0  0  0  0  0  0  0  0  0  0  0  0
   -8.0783   24.9162  -30.5572 H   0  0  0  0  0  0  0  0  0  0  0  0
   -7.8410   23.3552  -32.4868 H   0  0  0  0  0  0  0  0  0  0  0  0
   -5.6050   22.4127  -33.0700 H   0  0  0  0  0  0  0  0  0  0  0  0
   -3.6083   22.9978  -31.6938 H   0  0  0  0  0  0  0  0  0  0  0  0
   -2.6260   24.5470  -29.9960 H   0  0  0  0  0  0  0  0  0  0  0  0
   -3.6771   25.9036  -25.8231 H   0  0  0  0  0  0  0  0  0  0  0  0
   -1.7649   26.6396  -24.4054 H   0  0  0  0  0  0  0  0  0  0  0  0
    0.5676   26.0315  -25.0376 H   0  0  0  0  0  0  0  0  0  0  0  0
    1.0015   24.7360  -27.1193 H   0  0  0  0  0  0  0  0  0  0  0  0
   -2.7332   22.6073  -30.1935 H   0  0  0  0  0  0  0  0  0  0  0  0
   -3.5000   21.1802  -32.0858 H   0  0  0  0  0  0  0  0  0  0  0  0
   -3.7768   17.0399  -34.3799 H   0  0  0  0  0  0  0  0  0  0  0  0
   -5.8936   15.9063  -33.7142 H   0  0  0  0  0  0  0  0  0  0  0  0
   -7.7645   17.2184  -32.7184 H   0  0  0  0  0  0  0  0  0  0  0  0
   -9.5171   19.6549  -33.6818 H   0  0  0  0  0  0  0  0  0  0  0  0
  -10.9391   21.2477  -32.1943 H   0  0  0  0  0  0  0  0  0  0  0  0
   -9.6319   22.1393  -30.0883 H   0  0  0  0  0  0  0  0  0  0  0  0
   -5.5395   20.8658  -33.4147 H   0  0  0  0  0  0  0  0  0  0  0  0
    0.1765   18.9111  -31.8768 H   0  0  0  0  0  0  0  0  0  0  0  0
    0.9569   20.3450  -29.9931 H   0  0  0  0  0  0  0  0  0  0  0  0
  1  2  1  0
  2  3  2  0
  3  4  1  0
  4  5  2  0
  5  6  1  0
  6  7  2  0
  7  8  1  0
  8  9  1  0
  9 10  2  0
  9 11  1  0
 11 12  2  0
 12 13  1  0
 13 14  2  0
 14 15  1  0
 15 16  2  0
 16 17  1  0
 17 18  1  0
 18 19  2  0
 18 20  1  0
 20 21  2  0
 21 22  1  0
 22 23  2  0
 23 24  1  0
 24 25  2  0
 24 26  1  0
 26 27  1  0
 27 28  2  0
 28 29  1  0
 29 30  2  0
 30 31  1  0
 31 32  1  0
 32 33  2  0
 33 34  1  0
 34 35  2  0
 35 36  1  0
 31 37  2  0
 23 38  1  0
 38 39  2  0
  7  2  1  0
 16 11  1  0
 39 20  1  0
 37 27  1  0
 36 32  1  0
  1 40  1  0
  1 41  1  0
  3 42  1  0
  4 43  1  0
  5 44  1  0
  6 45  1  0
  8 46  1  0
 12 47  1  0
 13 48  1  0
 14 49  1  0
 15 50  1  0
 21 51  1  0
 22 52  1  0
 28 53  1  0
 29 54  1  0
 30 55  1  0
 33 56  1  0
 34 57  1  0
 35 58  1  0
 37 59  1  0
 38 60  1  0
 39 61  1  0
M  CHG  2  17  -1  26  -1
M  END
>  <UniqueID>  (3) 
3

>  <SMILES>  (3) 
Nc1ccccc1NC(=O)c1ccccc1[N-]C(=O)c1ccc(C(=O)[N-]c2cccc(-c3cccs3)c2)cc1

>  <Energy>  (3) 
117.07556203186192

>  <Genealogy>  (3) 
Nc1ccccc1NC(=O)c1ccccc1[N-]C(=O)c1ccc(C(=O)[N-]c2cccc(-c3cccs3)c2)cc1 (protonated)
Nc1ccccc1NC(=O)c1ccccc1[N-]C(=O)c1ccc(C(=O)[N-]c2cccc(-c3cccs3)c2)cc1 (3D coordinates assigned)
Nc1ccccc1NC(=O)c1ccccc1[N-]C(=O)c1ccc(C(=O)[N-]c2cccc(-c3cccs3)c2)cc1 (optimized conformer: 117.07556203186192 kcal/mol)

>  <smiles>  (3) 
Nc1ccccc1NC(=O)c1ccccc1NC(=O)c1ccc(C(=O)Nc2cccc(-c3cccs3)c2)cc1

>  <score_type>  (3) 
oracle

>  <origin>  (3) 
adgpu

>  <m_score__min__energy>  (3) 
-13.039999999999999

>  <m_primary>  (3) 
energy

$$$$
3:0
     RDKit          3D

 43 45  0  0  0  0  0  0  0  0999 V2000
   -0.2570   20.0780  -30.9020 O   0  0  0  0  0  0  0  0  0  0  0  0
   -0.6200   20.7010  -31.9220 N   0  0  0  0  0  0  0  0  0  0  0  0
    0.3060   21.4620  -32.5970 O   0  0  0  0  0  0  0  0  0  0  0  0
   -1.9810   20.6250  -32.3850 C   0  0  0  0  0  0  0  0  0  0  0  0
   -2.3630   19.6370  -33.3040 C   0  0  0  0  0  0  0  0  0  0  0  0
   -3.6830   19.5550  -33.7500 C   0  0  0  0  0  0  0  0  0  0  0  0
   -4.6480   20.4700  -33.2950 C   0  0  0  0  0  0  0  0  0  0  0  0
   -5.9830   20.3720  -33.7140 O   0  0  0  0  0  0  0  0  0  0  0  0
   -7.0070   19.7430  -32.9910 C   0  0  0  0  0  0  0  0  0  0  0  0
   -6.8520   18.4460  -32.4660 C   0  0  0  0  0  0  0  0  0  0  0  0
   -7.9010   17.8380  -31.7700 C   0  0  0  0  0  0  0  0  0  0  0  0
   -9.1130   18.5150  -31.6000 C   0  0  0  0  0  0  0  0  0  0  0  0
   -9.2760   19.7980  -32.1280 C   0  0  0  0  0  0  0  0  0  0  0  0
   -8.2270   20.4080  -32.8240 C   0  0  0  0  0  0  0  0  0  0  0  0
   -4.2760   21.4650  -32.3730 C   0  0  0  0  0  0  0  0  0  0  0  0
   -5.4560   22.6350  -31.7760 S   0  0  0  0  0  0  0  0  0  0  0  0
   -6.0530   22.1550  -30.4840 O   0  0  0  0  0  0  0  0  0  0  0  0
   -6.5710   22.7770  -32.7720 O   0  0  0  0  0  0  0  0  0  0  0  0
   -4.6880   24.1790  -31.5830 N   0  0  0  0  0  0  0  0  0  0  0  0
   -4.6030   24.9000  -30.3510 C   0  0  0  0  0  0  0  0  0  0  0  0
   -5.9590   25.5740  -29.7390 S   0  0  0  0  0  0  0  0  0  0  0  0
   -3.3650   25.0560  -29.6480 N   0  0  0  0  0  0  0  0  0  0  0  0
   -2.5410   23.9530  -29.2290 C   0  0  0  0  0  0  0  0  0  0  0  0
   -1.1360   23.9990  -29.3300 C   0  0  0  0  0  0  0  0  0  0  0  0
   -0.3620   22.9120  -28.9120 C   0  0  0  0  0  0  0  0  0  0  0  0
   -0.9790   21.7690  -28.3990 C   0  0  0  0  0  0  0  0  0  0  0  0
   -2.3710   21.7080  -28.3070 C   0  0  0  0  0  0  0  0  0  0  0  0
   -3.1490   22.7920  -28.7240 C   0  0  0  0  0  0  0  0  0  0  0  0
   -2.9490   21.5340  -31.9220 C   0  0  0  0  0  0  0  0  0  0  0  0
   -1.6160   18.9206  -33.6765 H   0  0  0  0  0  0  0  0  0  0  0  0
   -3.9703   18.7682  -34.4631 H   0  0  0  0  0  0  0  0  0  0  0  0
   -5.9020   17.9090  -32.6039 H   0  0  0  0  0  0  0  0  0  0  0  0
   -7.7731   16.8269  -31.3560 H   0  0  0  0  0  0  0  0  0  0  0  0
   -9.9376   18.0373  -31.0507 H   0  0  0  0  0  0  0  0  0  0  0  0
  -10.2302   20.3292  -31.9963 H   0  0  0  0  0  0  0  0  0  0  0  0
   -8.3619   21.4163  -33.2425 H   0  0  0  0  0  0  0  0  0  0  0  0
   -3.1430   26.0060  -29.2740 H   0  0  0  0  0  0  0  0  0  0  0  0
   -0.6458   24.8945  -29.7397 H   0  0  0  0  0  0  0  0  0  0  0  0
    0.7345   22.9573  -28.9874 H   0  0  0  0  0  0  0  0  0  0  0  0
   -0.3682   20.9164  -28.0673 H   0  0  0  0  0  0  0  0  0  0  0  0
   -2.8560   20.8058  -27.9059 H   0  0  0  0  0  0  0  0  0  0  0  0
   -4.2454   22.7353  -28.6561 H   0  0  0  0  0  0  0  0  0  0  0  0
   -2.6621   22.3095  -31.1966 H   0  0  0  0  0  0  0  0  0  0  0  0
  1  2  2  0
  2  3  1  0
  2  4  1  0
  4  5  2  0
  5  6  1  0
  6  7  2  0
  7  8  1  0
  8  9  1  0
  9 10  2  0
 10 11  1  0
 11 12  2  0
 12 13  1  0
 13 14  2  0
  7 15  1  0
 15 16  1  0
 16 17  2  0
 16 18  2  0
 16 19  1  0
 19 20  1  0
 20 21  2  0
 20 22  1  0
 22 23  1  0
 23 24  2  0
 24 25  1  0
 25 26  2  0
 26 27  1  0
 27 28  2  0
 15 29  2  0
 29  4  1  0
 14  9  1  0
 28 23  1  0
  5 30  1  0
  6 31  1  0
 10 32  1  0
 11 33  1  0
 12 34  1  0
 13 35  1  0
 14 36  1  0
 22 37  1  0
 24 38  1  0
 25 39  1  0
 26 40  1  0
 27 41  1  0
 28 42  1  0
 29 43  1  0
M  CHG  3   2   1   3  -1  19  -1
M  END
>  <UniqueID>  (4) 
4

>  <SMILES>  (4) 
O=[N+]([O-])c1ccc(Oc2ccccc2)c(S(=O)(=O)[N-]C(=S)Nc2ccccc2)c1

>  <Energy>  (4) 
62.09037931030964

>  <Genealogy>  (4) 
O=[N+]([O-])c1ccc(Oc2ccccc2)c(S(=O)(=O)[N-]C(=S)Nc2ccccc2)c1 (protonated)
O=[N+]([O-])c1ccc(Oc2ccccc2)c(S(=O)(=O)[N-]C(=S)Nc2ccccc2)c1 (3D coordinates assigned)
O=[N+]([O-])c1ccc(Oc2ccccc2)c(S(=O)(=O)[N-]C(=S)Nc2ccccc2)c1 (optimized conformer: 62.09037931030964 kcal/mol)

>  <smiles>  (4) 
O=[N+]([O-])c1ccc(Oc2ccccc2)c(S(=O)(=O)NC(=S)Nc2ccccc2)c1

>  <score_type>  (4) 
oracle

>  <origin>  (4) 
adgpu

>  <m_score__min__energy>  (4) 
-10.369999999999999

>  <m_primary>  (4) 
energy

$$$$
4:0
     RDKit          3D

 45 47  0  0  0  0  0  0  0  0999 V2000
   -5.8590   25.6380  -30.1760 C   0  0  0  0  0  0  0  0  0  0  0  0
   -5.8050   24.3290  -30.8970 C   0  0  0  0  0  0  0  0  0  0  0  0
   -6.9830   23.6820  -31.2810 C   0  0  0  0  0  0  0  0  0  0  0  0
   -6.8880   22.4690  -31.9600 C   0  0  0  0  0  0  0  0  0  0  0  0
   -8.0530   21.8050  -32.3530 O   0  0  0  0  0  0  0  0  0  0  0  0
   -8.7460   20.8970  -31.5040 C   0  0  0  0  0  0  0  0  0  0  0  0
   -8.1260   19.5290  -31.6260 C   0  0  0  0  0  0  0  0  0  0  0  0
   -8.6500   18.6000  -31.0280 O   0  0  0  0  0  0  0  0  0  0  0  0
   -6.9330   19.2850  -32.4190 N   0  0  0  0  0  0  0  0  0  0  0  0
   -7.1860   18.2450  -33.4500 C   0  0  0  0  0  0  0  0  0  0  0  0
   -5.8890   17.6050  -33.9970 C   0  0  0  0  0  0  0  0  0  0  0  0
   -4.6900   18.5410  -33.8430 C   0  0  0  0  0  0  0  0  0  0  0  0
   -4.4670   18.9290  -32.3700 C   0  0  0  0  0  0  0  0  0  0  0  0
   -5.7790   18.9510  -31.5580 C   0  0  0  0  0  0  0  0  0  0  0  0
   -5.6620   21.9470  -32.2350 N   0  0  0  0  0  0  0  0  0  0  0  0
   -4.5180   22.5840  -31.8620 C   0  0  0  0  0  0  0  0  0  0  0  0
   -3.1940   21.9920  -32.1760 C   0  0  0  0  0  0  0  0  0  0  0  0
   -2.9170   21.4950  -33.4640 C   0  0  0  0  0  0  0  0  0  0  0  0
   -1.6680   20.9370  -33.7560 C   0  0  0  0  0  0  0  0  0  0  0  0
   -0.6830   20.8690  -32.7700 C   0  0  0  0  0  0  0  0  0  0  0  0
   -0.9440   21.3580  -31.4870 C   0  0  0  0  0  0  0  0  0  0  0  0
   -2.1910   21.9160  -31.1890 C   0  0  0  0  0  0  0  0  0  0  0  0
   -4.6030   23.7690  -31.1970 N   0  0  0  0  0  0  0  0  0  0  0  0
   -5.8516   25.4594  -29.0906 H   0  0  0  0  0  0  0  0  0  0  0  0
   -4.9852   26.2458  -30.4535 H   0  0  0  0  0  0  0  0  0  0  0  0
   -6.7799   26.1717  -30.4535 H   0  0  0  0  0  0  0  0  0  0  0  0
   -7.9650   24.1215  -31.0518 H   0  0  0  0  0  0  0  0  0  0  0  0
   -8.6746   21.2412  -30.4617 H   0  0  0  0  0  0  0  0  0  0  0  0
   -9.8042   20.8497  -31.8007 H   0  0  0  0  0  0  0  0  0  0  0  0
   -6.7010   20.1780  -32.9190 H   0  0  0  0  0  0  0  0  0  0  0  0
   -7.8059   17.4533  -33.0039 H   0  0  0  0  0  0  0  0  0  0  0  0
   -7.6908   18.7365  -34.2948 H   0  0  0  0  0  0  0  0  0  0  0  0
   -5.6892   16.6753  -33.4441 H   0  0  0  0  0  0  0  0  0  0  0  0
   -6.0313   17.4024  -35.0688 H   0  0  0  0  0  0  0  0  0  0  0  0
   -3.7894   18.0343  -34.2201 H   0  0  0  0  0  0  0  0  0  0  0  0
   -4.8903   19.4581  -34.4165 H   0  0  0  0  0  0  0  0  0  0  0  0
   -3.7819   18.1996  -31.9132 H   0  0  0  0  0  0  0  0  0  0  0  0
   -4.0469   19.9455  -32.3527 H   0  0  0  0  0  0  0  0  0  0  0  0
   -5.9405   17.9596  -31.1096 H   0  0  0  0  0  0  0  0  0  0  0  0
   -5.6927   19.7199  -30.7761 H   0  0  0  0  0  0  0  0  0  0  0  0
   -3.6885   21.5459  -34.2464 H   0  0  0  0  0  0  0  0  0  0  0  0
   -1.4618   20.5509  -34.7652 H   0  0  0  0  0  0  0  0  0  0  0  0
    0.2987   20.4306  -33.0025 H   0  0  0  0  0  0  0  0  0  0  0  0
   -0.1670   21.3038  -30.7102 H   0  0  0  0  0  0  0  0  0  0  0  0
   -2.3905   22.2983  -30.1771 H   0  0  0  0  0  0  0  0  0  0  0  0
  1  2  1  0
  2  3  2  0
  3  4  1  0
  4  5  1  0
  5  6  1  0
  6  7  1  0
  7  8  2  0
  7  9  1  0
  9 10  1  0
 10 11  1  0
 11 12  1  0
 12 13  1  0
 13 14  1  0
  4 15  2  0
 15 16  1  0
 16 17  1  0
 17 18  2  0
 18 19  1  0
 19 20  2  0
 20 21  1  0
 21 22  2  0
 16 23  2  0
 23  2  1  0
 14  9  1  0
 22 17  1  0
  1 24  1  0
  1 25  1  0
  1 26  1  0
  3 27  1  0
  6 28  1  0
  6 29  1  0
  9 30  1  0
 10 31  1  0
 10 32  1  0
 11 33  1  0
 11 34  1  0
 12 35  1  0
 12 36  1  0
 13 37  1  0
 13 38  1  0
 14 39  1  0
 14 40  1  0
 18 41  1  0
 19 42  1  0
 20 43  1  0
 21 44  1  0
 22 45  1  0
M  CHG  1   9   1
M  END
>  <UniqueID>  (5) 
5

>  <SMILES>  (5) 
Cc1cc(OCC(=O)[NH+]2CCCCC2)nc(-c2ccccc2)n1

>  <Energy>  (5) 
50.87440032678921

>  <Genealogy>  (5) 
Cc1cc(OCC(=O)[NH+]2CCCCC2)nc(-c2ccccc2)n1 (protonated)
Cc1cc(OCC(=O)[NH+]2CCCCC2)nc(-c2ccccc2)n1 (3D coordinates assigned)
Cc1cc(OCC(=O)[NH+]2CCCCC2)nc(-c2ccccc2)n1 (nonaromatic ring conformer: 50.87440032678921 kcal/mol)

>  <smiles>  (5) 
Cc1cc(OCC(=O)N2CCCCC2)nc(-c2ccccc2)n1

>  <score_type>  (5) 
oracle

>  <origin>  (5) 
adgpu

>  <m_score__min__energy>  (5) 
-7.25

>  <m_primary>  (5) 
energy

$$$$
5:0
     RDKit          3D

 47 49  0  0  0  0  0  0  0  0999 V2000
   -0.3040   19.0030  -29.7320 N   0  0  0  0  0  0  0  0  0  0  0  0
   -0.7350   20.0190  -28.4000 S   0  0  0  0  0  0  0  0  0  0  0  0
   -1.6480   19.2560  -27.4800 O   0  0  0  0  0  0  0  0  0  0  0  0
    0.5020   20.4100  -27.6430 O   0  0  0  0  0  0  0  0  0  0  0  0
   -1.5400   21.4670  -28.9970 C   0  0  0  0  0  0  0  0  0  0  0  0
   -1.9720   21.5230  -30.3280 C   0  0  0  0  0  0  0  0  0  0  0  0
   -2.6400   22.6550  -30.8050 C   0  0  0  0  0  0  0  0  0  0  0  0
   -2.8920   23.7390  -29.9560 C   0  0  0  0  0  0  0  0  0  0  0  0
   -3.6300   24.8580  -30.4670 N   0  0  0  0  0  0  0  0  0  0  0  0
   -5.3120   25.1500  -30.1560 S   0  0  0  0  0  0  0  0  0  0  0  0
   -5.5180   25.3150  -28.6760 O   0  0  0  0  0  0  0  0  0  0  0  0
   -5.7360   26.4090  -30.8580 O   0  0  0  0  0  0  0  0  0  0  0  0
   -6.2580   23.8030  -30.7770 C   0  0  0  0  0  0  0  0  0  0  0  0
   -7.0660   23.0420  -29.9210 C   0  0  0  0  0  0  0  0  0  0  0  0
   -7.7140   21.9000  -30.4000 C   0  0  0  0  0  0  0  0  0  0  0  0
   -7.5550   21.5060  -31.7370 C   0  0  0  0  0  0  0  0  0  0  0  0
   -8.2670   19.9990  -32.3080 S   0  0  0  0  0  0  0  0  0  0  0  0
   -9.5070   20.3070  -33.0990 O   0  0  0  0  0  0  0  0  0  0  0  0
   -8.6750   19.1720  -31.1200 O   0  0  0  0  0  0  0  0  0  0  0  0
   -7.1570   19.0780  -33.3030 N   0  0  0  0  0  0  0  0  0  0  0  0
   -5.7680   19.5660  -33.2040 C   0  0  0  0  0  0  0  0  0  0  0  0
   -5.0050   18.9930  -31.9850 C   0  0  0  0  0  0  0  0  0  0  0  0
   -5.7270   17.9930  -31.2970 O   0  0  0  0  0  0  0  0  0  0  0  0
   -6.1860   17.0280  -32.2140 C   0  0  0  0  0  0  0  0  0  0  0  0
   -7.2890   17.6180  -33.1090 C   0  0  0  0  0  0  0  0  0  0  0  0
   -6.7820   22.2920  -32.6010 C   0  0  0  0  0  0  0  0  0  0  0  0
   -6.1350   23.4340  -32.1220 C   0  0  0  0  0  0  0  0  0  0  0  0
   -2.4340   23.6920  -28.6270 C   0  0  0  0  0  0  0  0  0  0  0  0
   -1.7640   22.5610  -28.1510 C   0  0  0  0  0  0  0  0  0  0  0  0
   -1.1480   18.9250  -30.3430 H   0  0  0  0  0  0  0  0  0  0  0  0
    0.4210   19.5120  -30.2840 H   0  0  0  0  0  0  0  0  0  0  0  0
   -1.7851   20.6731  -31.0008 H   0  0  0  0  0  0  0  0  0  0  0  0
   -2.9695   22.6939  -31.8538 H   0  0  0  0  0  0  0  0  0  0  0  0
   -7.1903   23.3440  -28.8706 H   0  0  0  0  0  0  0  0  0  0  0  0
   -8.3509   21.3081  -29.7263 H   0  0  0  0  0  0  0  0  0  0  0  0
   -5.2304   19.2783  -34.1195 H   0  0  0  0  0  0  0  0  0  0  0  0
   -5.8137   20.6577  -33.0770 H   0  0  0  0  0  0  0  0  0  0  0  0
   -4.0573   18.5600  -32.3377 H   0  0  0  0  0  0  0  0  0  0  0  0
   -4.8433   19.8226  -31.2809 H   0  0  0  0  0  0  0  0  0  0  0  0
   -5.3463   16.6986  -32.8437 H   0  0  0  0  0  0  0  0  0  0  0  0
   -6.5988   16.1746  -31.6560 H   0  0  0  0  0  0  0  0  0  0  0  0
   -7.2415   17.1281  -34.0927 H   0  0  0  0  0  0  0  0  0  0  0  0
   -8.2510   17.4387  -32.6067 H   0  0  0  0  0  0  0  0  0  0  0  0
   -6.6840   22.0094  -33.6596 H   0  0  0  0  0  0  0  0  0  0  0  0
   -5.5265   24.0457  -32.8044 H   0  0  0  0  0  0  0  0  0  0  0  0
   -2.6038   24.5492  -27.9589 H   0  0  0  0  0  0  0  0  0  0  0  0
   -1.4118   22.5300  -27.1094 H   0  0  0  0  0  0  0  0  0  0  0  0
  1  2  1  0
  2  3  2  0
  2  4  2  0
  2  5  1  0
  5  6  2  0
  6  7  1  0
  7  8  2  0
  8  9  1  0
  9 10  1  0
 10 11  2  0
 10 12  2  0
 10 13  1  0
 13 14  2  0
 14 15  1  0
 15 16  2  0
 16 17  1  0
 17 18  2  0
 17 19  2  0
 17 20  1  0
 20 21  1  0
 21 22  1  0
 22 23  1  0
 23 24  1  0
 24 25  1  0
 16 26  1  0
 26 27  2  0
  8 28  1  0
 28 29  2  0
 29  5  1  0
 27 13  1  0
 25 20  1  0
  1 30  1  0
  1 31  1  0
  6 32  1  0
  7 33  1  0
 14 34  1  0
 15 35  1  0
 21 36  1  0
 21 37  1  0
 22 38  1  0
 22 39  1  0
 24 40  1  0
 24 41  1  0
 25 42  1  0
 25 43  1  0
 26 44  1  0
 27 45  1  0
 28 46  1  0
 29 47  1  0
M  CHG  1   9  -1
M  END
>  <UniqueID>  (6) 
6

>  <SMILES>  (6) 
NS(=O)(=O)c1ccc([N-]S(=O)(=O)c2ccc(S(=O)(=O)N3CCOCC3)cc2)cc1

>  <Energy>  (6) 
58.141335238379526

>  <Genealogy>  (6) 
NS(=O)(=O)c1ccc([N-]S(=O)(=O)c2ccc(S(=O)(=O)N3CCOCC3)cc2)cc1 (protonated)
NS(=O)(=O)c1ccc([N-]S(=O)(=O)c2ccc(S(=O)(=O)N3CCOCC3)cc2)cc1 (3D coordinates assigned)
NS(=O)(=O)c1ccc([N-]S(=O)(=O)c2ccc(S(=O)(=O)N3CCOCC3)cc2)cc1 (nonaromatic ring conformer: 58.141335238379526 kcal/mol)

>  <smiles>  (6) 
NS(=O)(=O)c1ccc(NS(=O)(=O)c2ccc(S(=O)(=O)N3CCOCC3)cc2)cc1

>  <score_type>  (6) 
oracle

>  <origin>  (6) 
adgpu

>  <m_score__min__energy>  (6) 
-11.35

>  <m_primary>  (6) 
energy

$$$$
6:0
     RDKit          3D

 29 31  0  0  0  0  0  0  0  0999 V2000
   -5.2200   25.6720  -30.5630 C   0  0  0  0  0  0  0  0  0  0  0  0
   -3.8660   25.2310  -30.5690 O   0  0  0  0  0  0  0  0  0  0  0  0
   -3.2760   24.4520  -29.5610 C   0  0  0  0  0  0  0  0  0  0  0  0
   -2.1810   24.9200  -28.8070 C   0  0  0  0  0  0  0  0  0  0  0  0
   -1.6450   24.1410  -27.7800 C   0  0  0  0  0  0  0  0  0  0  0  0
   -2.1950   22.8920  -27.4880 C   0  0  0  0  0  0  0  0  0  0  0  0
   -3.2760   22.4140  -28.2310 C   0  0  0  0  0  0  0  0  0  0  0  0
   -3.8130   23.1770  -29.2800 C   0  0  0  0  0  0  0  0  0  0  0  0
   -4.9200   22.6590  -30.0340 N   0  0  0  0  0  0  0  0  0  0  0  0
   -6.5290   22.9720  -29.7220 S   0  0  0  0  0  0  0  0  0  0  0  0
   -7.1940   22.0350  -30.9320 C   0  0  0  0  0  0  0  0  0  0  0  0
   -8.5240   21.8180  -31.2710 C   0  0  0  0  0  0  0  0  0  0  0  0
   -8.7940   20.9560  -32.3470 C   0  0  0  0  0  0  0  0  0  0  0  0
   -7.7380   20.3380  -33.0470 C   0  0  0  0  0  0  0  0  0  0  0  0
   -6.4000   20.5740  -32.6800 C   0  0  0  0  0  0  0  0  0  0  0  0
   -6.1400   21.4370  -31.6100 C   0  0  0  0  0  0  0  0  0  0  0  0
   -4.8790   21.7910  -31.0870 C   0  0  0  0  0  0  0  0  0  0  0  0
   -3.7980   21.3210  -31.5340 O   0  0  0  0  0  0  0  0  0  0  0  0
   -5.5645   25.7842  -29.5244 H   0  0  0  0  0  0  0  0  0  0  0  0
   -5.2926   26.6402  -31.0800 H   0  0  0  0  0  0  0  0  0  0  0  0
   -5.8489   24.9322  -31.0800 H   0  0  0  0  0  0  0  0  0  0  0  0
   -1.7459   25.9055  -29.0292 H   0  0  0  0  0  0  0  0  0  0  0  0
   -0.7874   24.5124  -27.1998 H   0  0  0  0  0  0  0  0  0  0  0  0
   -1.7767   22.2841  -26.6723 H   0  0  0  0  0  0  0  0  0  0  0  0
   -3.7104   21.4319  -27.9926 H   0  0  0  0  0  0  0  0  0  0  0  0
   -9.3387   22.3051  -30.7151 H   0  0  0  0  0  0  0  0  0  0  0  0
   -9.8350   20.7623  -32.6448 H   0  0  0  0  0  0  0  0  0  0  0  0
   -7.9618   19.6651  -33.8879 H   0  0  0  0  0  0  0  0  0  0  0  0
   -5.5753   20.0897  -33.2235 H   0  0  0  0  0  0  0  0  0  0  0  0
  1  2  1  0
  2  3  1  0
  3  4  2  0
  4  5  1  0
  5  6  2  0
  6  7  1  0
  7  8  2  0
  8  9  1  0
  9 10  1  0
 10 11  1  0
 11 12  2  0
 12 13  1  0
 13 14  2  0
 14 15  1  0
 15 16  2  0
 16 17  1  0
 17 18  2  0
  8  3  1  0
 17  9  1  0
 16 11  1  0
  1 19  1  0
  1 20  1  0
  1 21  1  0
  4 22  1  0
  5 23  1  0
  6 24  1  0
  7 25  1  0
 12 26  1  0
 13 27  1  0
 14 28  1  0
 15 29  1  0
M  END
>  <UniqueID>  (7) 
7

>  <SMILES>  (7) 
COc1ccccc1-n1sc2ccccc2c1=O

>  <Energy>  (7) 
77.19756711300444

>  <Genealogy>  (7) 
COc1ccccc1-n1sc2ccccc2c1=O (3D coordinates assigned)
COc1ccccc1-n1sc2ccccc2c1=O (optimized conformer: 77.19756711300444 kcal/mol)

>  <smiles>  (7) 
COc1ccccc1-n1sc2ccccc2c1=O

>  <score_type>  (7) 
oracle

>  <origin>  (7) 
adgpu

>  <m_score__min__energy>  (7) 
-7.1200000000000001

>  <m_primary>  (7) 
energy

$$$$
7:0
     RDKit          3D

 53 56  0  0  0  0  0  0  0  0999 V2000
    0.6640   23.0100  -25.5570 C   0  0  0  0  0  0  0  0  0  0  0  0
    0.1350   22.5420  -26.7930 O   0  0  0  0  0  0  0  0  0  0  0  0
   -0.7950   23.2460  -27.5780 C   0  0  0  0  0  0  0  0  0  0  0  0
   -0.6960   24.6360  -27.7870 C   0  0  0  0  0  0  0  0  0  0  0  0
   -1.6140   25.2960  -28.6100 C   0  0  0  0  0  0  0  0  0  0  0  0
   -2.6490   24.5880  -29.2250 C   0  0  0  0  0  0  0  0  0  0  0  0
   -3.4890   25.2690  -30.1720 N   0  0  0  0  0  0  0  0  0  0  0  0
   -5.1890   24.9470  -30.3860 S   0  0  0  0  0  0  0  0  0  0  0  0
   -5.7920   26.0500  -31.2030 O   0  0  0  0  0  0  0  0  0  0  0  0
   -5.8610   24.9060  -29.0470 O   0  0  0  0  0  0  0  0  0  0  0  0
   -5.4450   23.4300  -31.2490 C   0  0  0  0  0  0  0  0  0  0  0  0
   -6.7330   22.9100  -31.4120 C   0  0  0  0  0  0  0  0  0  0  0  0
   -6.9120   21.6410  -31.9670 C   0  0  0  0  0  0  0  0  0  0  0  0
   -5.8080   20.8730  -32.3770 C   0  0  0  0  0  0  0  0  0  0  0  0
   -6.0260   19.5150  -32.9490 C   0  0  0  0  0  0  0  0  0  0  0  0
   -5.4640   19.1240  -34.1820 C   0  0  0  0  0  0  0  0  0  0  0  0
   -5.6980   17.8310  -34.6640 C   0  0  0  0  0  0  0  0  0  0  0  0
   -6.4760   16.9380  -33.9210 C   0  0  0  0  0  0  0  0  0  0  0  0
   -7.0040   17.3490  -32.6930 C   0  0  0  0  0  0  0  0  0  0  0  0
   -6.7710   18.6120  -32.2420 N   0  0  0  0  0  0  0  0  0  0  0  0
   -4.5190   21.4240  -32.2500 C   0  0  0  0  0  0  0  0  0  0  0  0
   -4.3420   22.6890  -31.6850 C   0  0  0  0  0  0  0  0  0  0  0  0
   -2.8080   23.2230  -28.9380 C   0  0  0  0  0  0  0  0  0  0  0  0
   -1.8570   22.5370  -28.1660 C   0  0  0  0  0  0  0  0  0  0  0  0
   -1.9350   21.1070  -28.0390 N   0  0  0  0  0  0  0  0  0  0  0  0
   -3.0280   20.4870  -27.2810 C   0  0  0  0  0  0  0  0  0  0  0  0
   -2.7410   18.9910  -27.0430 C   0  0  0  0  0  0  0  0  0  0  0  0
   -1.3110   18.7780  -26.7820 N   0  0  0  0  0  0  0  0  0  0  0  0
   -0.4680   19.1120  -27.9540 C   0  0  0  0  0  0  0  0  0  0  0  0
   -1.0420   20.2470  -28.8280 C   0  0  0  0  0  0  0  0  0  0  0  0
    0.1258   22.5339  -24.7241 H   0  0  0  0  0  0  0  0  0  0  0  0
    1.7326   22.7562  -25.4959 H   0  0  0  0  0  0  0  0  0  0  0  0
    0.5423   24.1015  -25.4959 H   0  0  0  0  0  0  0  0  0  0  0  0
    0.1088   25.2058  -27.2995 H   0  0  0  0  0  0  0  0  0  0  0  0
   -1.5203   26.3797  -28.7740 H   0  0  0  0  0  0  0  0  0  0  0  0
   -7.6070   23.5018  -31.1024 H   0  0  0  0  0  0  0  0  0  0  0  0
   -7.9286   21.2377  -32.0847 H   0  0  0  0  0  0  0  0  0  0  0  0
   -4.8475   19.8286  -34.7595 H   0  0  0  0  0  0  0  0  0  0  0  0
   -5.2698   17.5173  -35.6275 H   0  0  0  0  0  0  0  0  0  0  0  0
   -6.6707   15.9232  -34.2982 H   0  0  0  0  0  0  0  0  0  0  0  0
   -7.6070   16.6523  -32.0921 H   0  0  0  0  0  0  0  0  0  0  0  0
   -3.6448   20.8543  -32.5982 H   0  0  0  0  0  0  0  0  0  0  0  0
   -3.3289   23.1050  -31.5823 H   0  0  0  0  0  0  0  0  0  0  0  0
   -3.6873   22.6851  -29.3222 H   0  0  0  0  0  0  0  0  0  0  0  0
   -3.1288   20.9949  -26.3105 H   0  0  0  0  0  0  0  0  0  0  0  0
   -3.9595   20.5826  -27.8582 H   0  0  0  0  0  0  0  0  0  0  0  0
   -3.3230   18.6439  -26.1765 H   0  0  0  0  0  0  0  0  0  0  0  0
   -3.0272   18.4258  -27.9422 H   0  0  0  0  0  0  0  0  0  0  0  0
   -1.0240   19.3860  -25.9720 H   0  0  0  0  0  0  0  0  0  0  0  0
    0.5238   19.4204  -27.5918 H   0  0  0  0  0  0  0  0  0  0  0  0
   -0.4234   18.2119  -28.5847 H   0  0  0  0  0  0  0  0  0  0  0  0
   -0.2134   20.8528  -29.2236 H   0  0  0  0  0  0  0  0  0  0  0  0
   -1.6167   19.8023  -29.6538 H   0  0  0  0  0  0  0  0  0  0  0  0
  1  2  1  0
  2  3  1  0
  3  4  2  0
  4  5  1  0
  5  6  2  0
  6  7  1  0
  7  8  1  0
  8  9  2  0
  8 10  2  0
  8 11  1  0
 11 12  2  0
 12 13  1  0
 13 14  2  0
 14 15  1  0
 15 16  2  0
 16 17  1  0
 17 18  2  0
 18 19  1  0
 19 20  2  0
 14 21  1  0
 21 22  2  0
  6 23  1  0
 23 24  2  0
 24 25  1  0
 25 26  1  0
 26 27  1  0
 27 28  1  0
 28 29  1  0
 29 30  1  0
 24  3  1  0
 30 25  1  0
 22 11  1  0
 20 15  1  0
  1 31  1  0
  1 32  1  0
  1 33  1  0
  4 34  1  0
  5 35  1  0
 12 36  1  0
 13 37  1  0
 16 38  1  0
 17 39  1  0
 18 40  1  0
 19 41  1  0
 21 42  1  0
 22 43  1  0
 23 44  1  0
 26 45  1  0
 26 46  1  0
 27 47  1  0
 27 48  1  0
 28 49  1  0
 29 50  1  0
 29 51  1  0
 30 52  1  0
 30 53  1  0
M  CHG  1   7  -1
M  END
>  <UniqueID>  (8) 
8

>  <SMILES>  (8) 
COc1ccc([N-]S(=O)(=O)c2ccc(-c3ccccn3)cc2)cc1N1CCNCC1

>  <Energy>  (8) 
73.00028339173511

>  <Genealogy>  (8) 
COc1ccc([N-]S(=O)(=O)c2ccc(-c3ccccn3)cc2)cc1N1CCNCC1 (protonated)
COc1ccc([N-]S(=O)(=O)c2ccc(-c3ccccn3)cc2)cc1N1CCNCC1 (3D coordinates assigned)
COc1ccc([N-]S(=O)(=O)c2ccc(-c3ccccn3)cc2)cc1N1CCNCC1 (nonaromatic ring conformer: 73.00028339173511 kcal/mol)

>  <smiles>  (8) 
COc1ccc(NS(=O)(=O)c2ccc(-c3ccccn3)cc2)cc1N1CCNCC1

>  <score_type>  (8) 
oracle

>  <origin>  (8) 
adgpu

>  <m_score__min__energy>  (8) 
-10.84

>  <m_primary>  (8) 
energy

$$$$
8:0
     RDKit          3D

 34 36  0  0  0  0  0  0  0  0999 V2000
   -3.8273   25.3365  -30.1052 H   0  0  0  0  0  0  0  0  0  0  0  0
   -4.4420   24.5030  -30.4760 C   0  0  0  0  0  0  0  0  0  0  0  0
   -3.8550   23.4650  -31.1250 N   0  0  0  0  0  0  0  0  0  0  0  0
   -4.5660   22.4150  -31.6250 C   0  0  0  0  0  0  0  0  0  0  0  0
   -3.9520   21.4290  -32.2160 N   0  0  0  0  0  0  0  0  0  0  0  0
   -2.5490   21.3280  -32.5100 C   0  0  0  0  0  0  0  0  0  0  0  0
   -2.0730   21.1330  -33.8210 C   0  0  0  0  0  0  0  0  0  0  0  0
   -2.7823   21.0851  -34.6604 H   0  0  0  0  0  0  0  0  0  0  0  0
   -0.7010   21.0000  -34.0590 C   0  0  0  0  0  0  0  0  0  0  0  0
   -0.3326   20.8629  -35.0864 H   0  0  0  0  0  0  0  0  0  0  0  0
    0.2020   21.0410  -32.9940 C   0  0  0  0  0  0  0  0  0  0  0  0
    1.2814   20.9473  -33.1841 H   0  0  0  0  0  0  0  0  0  0  0  0
   -0.2660   21.2010  -31.6870 C   0  0  0  0  0  0  0  0  0  0  0  0
    0.4444   21.2231  -30.8475 H   0  0  0  0  0  0  0  0  0  0  0  0
   -1.6370   21.3330  -31.4460 C   0  0  0  0  0  0  0  0  0  0  0  0
   -2.0022   21.4415  -30.4141 H   0  0  0  0  0  0  0  0  0  0  0  0
   -5.9730   22.3840  -31.4560 C   0  0  0  0  0  0  0  0  0  0  0  0
   -6.8180   21.2700  -31.9670 C   0  0  0  0  0  0  0  0  0  0  0  0
   -7.6270   20.5080  -31.1960 N   0  0  0  0  0  0  0  0  0  0  0  0
   -8.1670   19.6630  -32.0950 C   0  0  0  0  0  0  0  0  0  0  0  0
   -9.1020   18.5570  -31.7410 C   0  0  0  0  0  0  0  0  0  0  0  0
   -9.1730   18.4731  -30.6465 H   0  0  0  0  0  0  0  0  0  0  0  0
  -10.0973   18.7708  -32.1577 H   0  0  0  0  0  0  0  0  0  0  0  0
   -8.7256   17.6111  -32.1577 H   0  0  0  0  0  0  0  0  0  0  0  0
   -7.6980   19.8870  -33.3330 N   0  0  0  0  0  0  0  0  0  0  0  0
   -7.9380   19.3660  -34.2050 H   0  0  0  0  0  0  0  0  0  0  0  0
   -6.8540   20.8990  -33.2660 N   0  0  0  0  0  0  0  0  0  0  0  0
   -6.5860   23.4570  -30.7850 C   0  0  0  0  0  0  0  0  0  0  0  0
   -7.6785   23.4642  -30.6572 H   0  0  0  0  0  0  0  0  0  0  0  0
   -5.8250   24.5150  -30.2780 C   0  0  0  0  0  0  0  0  0  0  0  0
   -6.4870   25.6750  -29.5980 C   0  0  0  0  0  0  0  0  0  0  0  0
   -6.4157   25.5501  -28.5074 H   0  0  0  0  0  0  0  0  0  0  0  0
   -5.9855   26.6083  -29.8937 H   0  0  0  0  0  0  0  0  0  0  0  0
   -7.5456   25.7180  -29.8937 H   0  0  0  0  0  0  0  0  0  0  0  0
  1  2  1  0
  2  3  1  0
  3  4  1  0
  4  5  2  0
  5  6  1  0
  6  7  2  0
  7  8  1  0
  7  9  1  0
  9 10  1  0
  9 11  2  0
 11 12  1  0
 11 13  1  0
 13 14  1  0
 13 15  2  0
 15 16  1  0
  4 17  1  0
 17 18  1  0
 18 19  1  0
 19 20  2  0
 20 21  1  0
 21 22  1  0
 21 23  1  0
 21 24  1  0
 20 25  1  0
 25 26  1  0
 25 27  1  0
 17 28  2  0
 28 29  1  0
 28 30  1  0
 30 31  1  0
 31 32  1  0
 31 33  1  0
 31 34  1  0
 30  2  2  0
 15  6  1  0
 27 18  2  0
M  CHG  1   3  -1
M  END
>  <UniqueID>  (9) 
9

>  <SMILES>  (9) 
Cc1c[n-]/c(=N\c2ccccc2)c(-c2n[nH]c(C)n2)c1

>  <Energy>  (9) 
76.4174936707631

>  <Genealogy>  (9) 
Cc1c[n-]c(=Nc2ccccc2)c(-c2n[nH]c(C)n2)c1 (protonated)
Cc1c[n-]/c(=N\c2ccccc2)c(-c2n[nH]c(C)n2)c1 (cis-trans isomerization)
Cc1c[n-]/c(=N\c2ccccc2)c(-c2n[nH]c(C)n2)c1 (3D coordinates assigned)
Cc1c[n-]/c(=N\c2ccccc2)c(-c2n[nH]c(C)n2)c1 (optimized conformer: 76.4174936707631 kcal/mol)

>  <smiles>  (9) 
Cc1c[nH]c(=Nc2ccccc2)c(-c2n[nH]c(C)n2)c1

>  <score_type>  (9) 
oracle

>  <origin>  (9) 
adgpu

>  <m_score__min__energy>  (9) 
-8.2599999999999998

>  <m_primary>  (9) 
energy

$$$$
9:0
     RDKit          3D

 53 56  0  0  0  0  0  0  0  0999 V2000
   -5.3910   26.5140  -30.4630 O   0  0  0  0  0  0  0  0  0  0  0  0
   -5.0510   25.3080  -30.5890 C   0  0  0  0  0  0  0  0  0  0  0  0
   -3.6650   24.9670  -30.4430 N   0  0  0  0  0  0  0  0  0  0  0  0
   -3.1230   23.6410  -30.3710 C   0  0  0  0  0  0  0  0  0  0  0  0
   -3.3780   22.7000  -31.3840 C   0  0  0  0  0  0  0  0  0  0  0  0
   -2.7980   21.4270  -31.3350 C   0  0  0  0  0  0  0  0  0  0  0  0
   -3.1240   20.2580  -32.6140 S   0  0  0  0  0  0  0  0  0  0  0  0
   -1.8620   19.4920  -32.9030 O   0  0  0  0  0  0  0  0  0  0  0  0
   -3.5120   20.9930  -33.8670 O   0  0  0  0  0  0  0  0  0  0  0  0
   -4.4000   19.1360  -32.1900 N   0  0  0  0  0  0  0  0  0  0  0  0
   -5.6670   19.8080  -31.8320 C   0  0  0  0  0  0  0  0  0  0  0  0
   -6.7120   19.7540  -32.9580 C   0  0  0  0  0  0  0  0  0  0  0  0
   -6.0780   19.7280  -34.2150 O   0  0  0  0  0  0  0  0  0  0  0  0
   -5.4320   18.4840  -34.3970 C   0  0  0  0  0  0  0  0  0  0  0  0
   -4.5610   18.0630  -33.1880 C   0  0  0  0  0  0  0  0  0  0  0  0
   -1.9530   21.0940  -30.2680 C   0  0  0  0  0  0  0  0  0  0  0  0
   -1.6800   22.0280  -29.2680 C   0  0  0  0  0  0  0  0  0  0  0  0
   -2.2590   23.3010  -29.3130 C   0  0  0  0  0  0  0  0  0  0  0  0
   -1.9620   24.2430  -28.2720 N   0  0  0  0  0  0  0  0  0  0  0  0
   -2.7560   24.2090  -27.0440 C   0  0  0  0  0  0  0  0  0  0  0  0
   -2.6630   25.5560  -26.3200 C   0  0  0  0  0  0  0  0  0  0  0  0
   -1.3150   25.9610  -26.1730 O   0  0  0  0  0  0  0  0  0  0  0  0
   -0.7450   26.2020  -27.4450 C   0  0  0  0  0  0  0  0  0  0  0  0
   -0.6550   24.9030  -28.2480 C   0  0  0  0  0  0  0  0  0  0  0  0
   -6.0870   24.2780  -30.8230 C   0  0  0  0  0  0  0  0  0  0  0  0
   -6.5050   23.9590  -32.1250 C   0  0  0  0  0  0  0  0  0  0  0  0
   -7.4840   22.9830  -32.3130 C   0  0  0  0  0  0  0  0  0  0  0  0
   -8.0400   22.3360  -31.2090 C   0  0  0  0  0  0  0  0  0  0  0  0
   -7.6110   22.6820  -29.9280 C   0  0  0  0  0  0  0  0  0  0  0  0
   -6.6560   23.6360  -29.7640 N   0  0  0  0  0  0  0  0  0  0  0  0
   -4.0388   22.9664  -32.2221 H   0  0  0  0  0  0  0  0  0  0  0  0
   -6.0853   19.3167  -30.9412 H   0  0  0  0  0  0  0  0  0  0  0  0
   -5.4373   20.8675  -31.6455 H   0  0  0  0  0  0  0  0  0  0  0  0
   -7.3236   18.8472  -32.8417 H   0  0  0  0  0  0  0  0  0  0  0  0
   -7.3483   20.6493  -32.8976 H   0  0  0  0  0  0  0  0  0  0  0  0
   -6.1993   17.7128  -34.5598 H   0  0  0  0  0  0  0  0  0  0  0  0
   -4.7600   18.5895  -35.2614 H   0  0  0  0  0  0  0  0  0  0  0  0
   -5.0345   17.1986  -32.6995 H   0  0  0  0  0  0  0  0  0  0  0  0
   -3.5597   17.8206  -33.5736 H   0  0  0  0  0  0  0  0  0  0  0  0
   -1.5028   20.0916  -30.2185 H   0  0  0  0  0  0  0  0  0  0  0  0
   -1.0062   21.7622  -28.4401 H   0  0  0  0  0  0  0  0  0  0  0  0
   -3.8068   24.0029  -27.2957 H   0  0  0  0  0  0  0  0  0  0  0  0
   -2.3671   23.4184  -26.3854 H   0  0  0  0  0  0  0  0  0  0  0  0
   -3.2053   26.3155  -26.9023 H   0  0  0  0  0  0  0  0  0  0  0  0
   -3.1073   25.4474  -25.3196 H   0  0  0  0  0  0  0  0  0  0  0  0
   -1.3713   26.9225  -27.9915 H   0  0  0  0  0  0  0  0  0  0  0  0
    0.2688   26.6066  -27.3091 H   0  0  0  0  0  0  0  0  0  0  0  0
   -0.3421   25.1311  -29.2776 H   0  0  0  0  0  0  0  0  0  0  0  0
    0.0806   24.2348  -27.7765 H   0  0  0  0  0  0  0  0  0  0  0  0
   -6.0637   24.4749  -32.9905 H   0  0  0  0  0  0  0  0  0  0  0  0
   -7.8167   22.7242  -33.3290 H   0  0  0  0  0  0  0  0  0  0  0  0
   -8.8085   21.5613  -31.3475 H   0  0  0  0  0  0  0  0  0  0  0  0
   -8.0455   22.1827  -29.0494 H   0  0  0  0  0  0  0  0  0  0  0  0
  1  2  2  0
  2  3  1  0
  3  4  1  0
  4  5  2  0
  5  6  1  0
  6  7  1  0
  7  8  2  0
  7  9  2  0
  7 10  1  0
 10 11  1  0
 11 12  1  0
 12 13  1  0
 13 14  1  0
 14 15  1  0
  6 16  2  0
 16 17  1  0
 17 18  2  0
 18 19  1  0
 19 20  1  0
 20 21  1  0
 21 22  1  0
 22 23  1  0
 23 24  1  0
  2 25  1  0
 25 26  2  0
 26 27  1  0
 27 28  2  0
 28 29  1  0
 29 30  2  0
 18  4  1  0
 24 19  1  0
 30 25  1  0
 15 10  1  0
  5 31  1  0
 11 32  1  0
 11 33  1  0
 12 34  1  0
 12 35  1  0
 14 36  1  0
 14 37  1  0
 15 38  1  0
 15 39  1  0
 16 40  1  0
 17 41  1  0
 20 42  1  0
 20 43  1  0
 21 44  1  0
 21 45  1  0
 23 46  1  0
 23 47  1  0
 24 48  1  0
 24 49  1  0
 26 50  1  0
 27 51  1  0
 28 52  1  0
 29 53  1  0
M  CHG  1   3  -1
M  END
>  <UniqueID>  (10) 
10

>  <SMILES>  (10) 
O=C([N-]c1cc(S(=O)(=O)N2CCOCC2)ccc1N1CCOCC1)c1ccccn1

>  <Energy>  (10) 
77.96261377132933

>  <Genealogy>  (10) 
O=C([N-]c1cc(S(=O)(=O)N2CCOCC2)ccc1N1CCOCC1)c1ccccn1 (protonated)
O=C([N-]c1cc(S(=O)(=O)N2CCOCC2)ccc1N1CCOCC1)c1ccccn1 (3D coordinates assigned)
O=C([N-]c1cc(S(=O)(=O)N2CCOCC2)ccc1N1CCOCC1)c1ccccn1 (nonaromatic ring conformer: 77.96261377132933 kcal/mol)

>  <smiles>  (10) 
O=C(Nc1cc(S(=O)(=O)N2CCOCC2)ccc1N1CCOCC1)c1ccccn1

>  <score_type>  (10) 
oracle

>  <origin>  (10) 
adgpu

>  <m_score__min__energy>  (10) 
-10.26

>  <m_primary>  (10) 
energy

$$$$
10:0
     RDKit          3D

 48 51  0  0  0  0  0  0  0  0999 V2000
    1.0890   23.8860  -23.3950 H   0  0  0  0  0  0  0  0  0  0  0  0
    1.0570   23.4960  -24.3290 O   0  0  0  0  0  0  0  0  0  0  0  0
   -0.0680   23.6390  -25.1380 C   0  0  0  0  0  0  0  0  0  0  0  0
   -0.7400   24.8670  -25.2170 C   0  0  0  0  0  0  0  0  0  0  0  0
   -0.3828   25.7274  -24.6321 H   0  0  0  0  0  0  0  0  0  0  0  0
   -1.8630   24.9990  -26.0380 C   0  0  0  0  0  0  0  0  0  0  0  0
   -2.3878   25.9638  -26.0989 H   0  0  0  0  0  0  0  0  0  0  0  0
   -2.3210   23.9080  -26.7820 C   0  0  0  0  0  0  0  0  0  0  0  0
   -3.2039   24.0180  -27.4288 H   0  0  0  0  0  0  0  0  0  0  0  0
   -1.6580   22.6710  -26.7070 C   0  0  0  0  0  0  0  0  0  0  0  0
   -2.1960   21.4800  -27.4540 C   0  0  0  0  0  0  0  0  0  0  0  0
   -3.2934   21.5418  -27.4986 H   0  0  0  0  0  0  0  0  0  0  0  0
   -1.8984   20.5584  -26.9323 H   0  0  0  0  0  0  0  0  0  0  0  0
   -1.6420   21.4630  -28.8440 C   0  0  0  0  0  0  0  0  0  0  0  0
   -1.2950   20.3690  -29.3660 O   0  0  0  0  0  0  0  0  0  0  0  0
   -1.5230   22.6840  -29.5790 N   0  0  0  0  0  0  0  0  0  0  0  0
   -2.6430   23.4990  -29.9420 C   0  0  0  0  0  0  0  0  0  0  0  0
   -2.7640   24.8610  -29.7300 C   0  0  0  0  0  0  0  0  0  0  0  0
   -1.7680   25.6740  -29.2080 O   0  0  0  0  0  0  0  0  0  0  0  0
   -3.9870   25.3210  -30.0890 N   0  0  0  0  0  0  0  0  0  0  0  0
   -4.6430   24.2200  -30.5120 C   0  0  0  0  0  0  0  0  0  0  0  0
   -5.9690   24.1520  -30.9360 C   0  0  0  0  0  0  0  0  0  0  0  0
   -6.5893   25.0570  -31.0148 H   0  0  0  0  0  0  0  0  0  0  0  0
   -6.4860   22.8820  -31.2600 C   0  0  0  0  0  0  0  0  0  0  0  0
   -7.7280   22.7750  -31.6370 N   0  0  0  0  0  0  0  0  0  0  0  0
   -8.3860   21.5580  -32.0260 C   0  0  0  0  0  0  0  0  0  0  0  0
   -9.6410   21.4930  -31.9440 O   0  0  0  0  0  0  0  0  0  0  0  0
   -7.6400   20.4490  -32.5490 N   0  0  0  0  0  0  0  0  0  0  0  0
   -6.7660   20.6600  -33.0790 H   0  0  0  0  0  0  0  0  0  0  0  0
   -8.0140   19.0790  -32.3310 C   0  0  0  0  0  0  0  0  0  0  0  0
   -9.1890   18.8000  -31.9660 O   0  0  0  0  0  0  0  0  0  0  0  0
   -7.0320   17.9820  -32.5170 C   0  0  0  0  0  0  0  0  0  0  0  0
   -6.7980   17.4540  -33.8020 C   0  0  0  0  0  0  0  0  0  0  0  0
   -7.3372   17.8658  -34.6678 H   0  0  0  0  0  0  0  0  0  0  0  0
   -5.8860   16.4110  -33.9850 C   0  0  0  0  0  0  0  0  0  0  0  0
   -5.7078   16.0085  -34.9931 H   0  0  0  0  0  0  0  0  0  0  0  0
   -5.2010   15.8790  -32.8920 C   0  0  0  0  0  0  0  0  0  0  0  0
   -4.4818   15.0598  -33.0389 H   0  0  0  0  0  0  0  0  0  0  0  0
   -5.4290   16.3870  -31.6120 C   0  0  0  0  0  0  0  0  0  0  0  0
   -4.8866   15.9687  -30.7513 H   0  0  0  0  0  0  0  0  0  0  0  0
   -6.3440   17.4250  -31.4210 C   0  0  0  0  0  0  0  0  0  0  0  0
   -6.5287   17.8103  -30.4074 H   0  0  0  0  0  0  0  0  0  0  0  0
   -5.6910   21.7690  -31.1250 N   0  0  0  0  0  0  0  0  0  0  0  0
   -4.3940   21.8390  -30.7150 C   0  0  0  0  0  0  0  0  0  0  0  0
   -3.7823   20.9302  -30.6152 H   0  0  0  0  0  0  0  0  0  0  0  0
   -3.8650   23.0930  -30.4260 C   0  0  0  0  0  0  0  0  0  0  0  0
   -0.5340   22.5420  -25.8740 C   0  0  0  0  0  0  0  0  0  0  0  0
   -0.0169   21.5740  -25.7993 H   0  0  0  0  0  0  0  0  0  0  0  0
  1  2  1  0
  2  3  1  0
  3  4  2  0
  4  5  1  0
  4  6  1  0
  6  7  1  0
  6  8  2  0
  8  9  1  0
  8 10  1  0
 10 11  1  0
 11 12  1  0
 11 13  1  0
 11 14  1  0
 14 15  2  0
 14 16  1  0
 16 17  1  0
 17 18  2  0
 18 19  1  0
 18 20  1  0
 20 21  1  0
 21 22  2  0
 22 23  1  0
 22 24  1  0
 24 25  2  0
 25 26  1  0
 26 27  2  0
 26 28  1  0
 28 29  1  0
 28 30  1  0
 30 31  2  0
 30 32  1  0
 32 33  2  0
 33 34  1  0
 33 35  1  0
 35 36  1  0
 35 37  2  0
 37 38  1  0
 37 39  1  0
 39 40  1  0
 39 41  2  0
 41 42  1  0
 24 43  1  0
 43 44  1  0
 44 45  1  0
 44 46  2  0
 10 47  2  0
 47 48  1  0
 47  3  1  0
 46 17  1  0
 46 21  1  0
 41 32  1  0
M  CHG  4  16  -1  19  -1  20  -1  43  -1
M  END
>  <UniqueID>  (11) 
11

>  <SMILES>  (11) 
O=C(Cc1cccc(O)c1)[N-]c1c([O-])[n-]c2c/c(=N/C(=O)NC(=O)c3ccccc3)[n-]cc12

>  <Energy>  (11) 
95.86880762144966

>  <Genealogy>  (11) 
O=C(Cc1cccc(O)c1)[N-]c1c([O-])[n-]c2cc(=NC(=O)NC(=O)c3ccccc3)[n-]cc12 (protonated)
O=C(Cc1cccc(O)c1)[N-]c1c([O-])[n-]c2c/c(=N/C(=O)NC(=O)c3ccccc3)[n-]cc12 (cis-trans isomerization)
O=C(Cc1cccc(O)c1)[N-]c1c([O-])[n-]c2c/c(=N/C(=O)NC(=O)c3ccccc3)[n-]cc12 (3D coordinates assigned)
O=C(Cc1cccc(O)c1)[N-]c1c([O-])[n-]c2c/c(=N/C(=O)NC(=O)c3ccccc3)[n-]cc12 (optimized conformer: 95.86880762144966 kcal/mol)

>  <smiles>  (11) 
O=C(Cc1cccc(O)c1)Nc1c(O)[nH]c2cc(=NC(=O)NC(=O)c3ccccc3)[nH]cc12

>  <score_type>  (11) 
oracle

>  <origin>  (11) 
adgpu

>  <m_score__min__energy>  (11) 
-14.6

>  <m_primary>  (11) 
energy

$$$$
11:0
     RDKit          3D

 37 39  0  0  0  0  0  0  0  0999 V2000
   -3.8890   17.0280  -35.2100 C   0  0  0  0  0  0  0  0  0  0  0  0
   -4.5410   18.1250  -34.4370 C   0  0  0  0  0  0  0  0  0  0  0  0
   -5.8900   18.1580  -34.3020 N   0  0  0  0  0  0  0  0  0  0  0  0
   -6.4940   19.1720  -33.6320 C   0  0  0  0  0  0  0  0  0  0  0  0
   -5.7140   20.2010  -33.0840 C   0  0  0  0  0  0  0  0  0  0  0  0
   -6.3100   21.3350  -32.3330 C   0  0  0  0  0  0  0  0  0  0  0  0
   -7.7040   21.5190  -32.3340 C   0  0  0  0  0  0  0  0  0  0  0  0
   -8.2800   22.5800  -31.6310 C   0  0  0  0  0  0  0  0  0  0  0  0
   -7.4750   23.4680  -30.9160 C   0  0  0  0  0  0  0  0  0  0  0  0
   -6.0840   23.3000  -30.8980 C   0  0  0  0  0  0  0  0  0  0  0  0
   -5.0660   24.4140  -29.9770 S   0  0  0  0  0  0  0  0  0  0  0  0
   -4.2800   25.2650  -30.9350 O   0  0  0  0  0  0  0  0  0  0  0  0
   -5.9450   25.3210  -29.1630 O   0  0  0  0  0  0  0  0  0  0  0  0
   -3.9550   23.5900  -28.9090 N   0  0  0  0  0  0  0  0  0  0  0  0
   -2.6030   23.5300  -29.4620 C   0  0  0  0  0  0  0  0  0  0  0  0
   -1.6600   23.3990  -28.2760 C   0  0  0  0  0  0  0  0  0  0  0  0
   -2.4540   23.8880  -27.0740 C   0  0  0  0  0  0  0  0  0  0  0  0
   -3.8200   24.2720  -27.6230 C   0  0  0  0  0  0  0  0  0  0  0  0
   -5.5070   22.2280  -31.5950 C   0  0  0  0  0  0  0  0  0  0  0  0
   -4.3650   20.1310  -33.2440 N   0  0  0  0  0  0  0  0  0  0  0  0
   -3.7920   19.1260  -33.9070 N   0  0  0  0  0  0  0  0  0  0  0  0
   -3.4542   16.2965  -34.5129 H   0  0  0  0  0  0  0  0  0  0  0  0
   -4.6381   16.5305  -35.8435 H   0  0  0  0  0  0  0  0  0  0  0  0
   -3.0940   17.4482  -35.8435 H   0  0  0  0  0  0  0  0  0  0  0  0
   -7.5881   19.1868  -33.5194 H   0  0  0  0  0  0  0  0  0  0  0  0
   -8.3460   20.8221  -32.8927 H   0  0  0  0  0  0  0  0  0  0  0  0
   -9.3715   22.7160  -31.6410 H   0  0  0  0  0  0  0  0  0  0  0  0
   -7.9338   24.3022  -30.3650 H   0  0  0  0  0  0  0  0  0  0  0  0
   -2.5020   22.6592  -30.1265 H   0  0  0  0  0  0  0  0  0  0  0  0
   -2.3747   24.4272  -30.0561 H   0  0  0  0  0  0  0  0  0  0  0  0
   -1.3587   22.3501  -28.1376 H   0  0  0  0  0  0  0  0  0  0  0  0
   -0.7369   23.9795  -28.4207 H   0  0  0  0  0  0  0  0  0  0  0  0
   -2.5509   23.0881  -26.3252 H   0  0  0  0  0  0  0  0  0  0  0  0
   -1.9607   24.7346  -26.5741 H   0  0  0  0  0  0  0  0  0  0  0  0
   -4.6126   23.9449  -26.9339 H   0  0  0  0  0  0  0  0  0  0  0  0
   -3.9111   25.3621  -27.7384 H   0  0  0  0  0  0  0  0  0  0  0  0
   -4.4170   22.0828  -31.5653 H   0  0  0  0  0  0  0  0  0  0  0  0
  1  2  1  0
  2  3  2  0
  3  4  1  0
  4  5  2  0
  5  6  1  0
  6  7  2  0
  7  8  1  0
  8  9  2  0
  9 10  1  0
 10 11  1  0
 11 12  2  0
 11 13  2  0
 11 14  1  0
 14 15  1  0
 15 16  1  0
 16 17  1  0
 17 18  1  0
 10 19  2  0
  5 20  1  0
 20 21  2  0
 21  2  1  0
 19  6  1  0
 18 14  1  0
  1 22  1  0
  1 23  1  0
  1 24  1  0
  4 25  1  0
  7 26  1  0
  8 27  1  0
  9 28  1  0
 15 29  1  0
 15 30  1  0
 16 31  1  0
 16 32  1  0
 17 33  1  0
 17 34  1  0
 18 35  1  0
 18 36  1  0
 19 37  1  0
M  END
>  <UniqueID>  (12) 
12

>  <SMILES>  (12) 
Cc1ncc(-c2cccc(S(=O)(=O)N3CCCC3)c2)nn1

>  <Energy>  (12) 
43.50087010466685

>  <Genealogy>  (12) 
Cc1ncc(-c2cccc(S(=O)(=O)N3CCCC3)c2)nn1 (3D coordinates assigned)
Cc1ncc(-c2cccc(S(=O)(=O)N3CCCC3)c2)nn1 (nonaromatic ring conformer: 43.50087010466685 kcal/mol)

>  <smiles>  (12) 
Cc1ncc(-c2cccc(S(=O)(=O)N3CCCC3)c2)nn1

>  <score_type>  (12) 
oracle

>  <origin>  (12) 
adgpu

>  <m_score__min__energy>  (12) 
-9.0199999999999996

>  <m_primary>  (12) 
energy

$$$$
12:0
     RDKit          3D

 33 35  0  0  0  0  0  0  0  0999 V2000
   -7.2480   23.7830  -31.1300 C   0  0  0  0  0  0  0  0  0  0  0  0
   -5.8360   24.0570  -30.7410 C   0  0  0  0  0  0  0  0  0  0  0  0
   -5.1620   23.3580  -29.8090 N   0  0  0  0  0  0  0  0  0  0  0  0
   -3.9510   23.9570  -29.8450 C   0  0  0  0  0  0  0  0  0  0  0  0
   -2.8110   23.5560  -28.9830 C   0  0  0  0  0  0  0  0  0  0  0  0
   -2.8190   22.2880  -28.3700 C   0  0  0  0  0  0  0  0  0  0  0  0
   -1.7560   21.8790  -27.5550 C   0  0  0  0  0  0  0  0  0  0  0  0
   -1.7720   20.2880  -26.8000 S   0  0  0  0  0  0  0  0  0  0  0  0
   -3.0900   19.6030  -27.0320 O   0  0  0  0  0  0  0  0  0  0  0  0
   -1.5580   20.4490  -25.3220 O   0  0  0  0  0  0  0  0  0  0  0  0
   -0.5000   19.3070  -27.4530 N   0  0  0  0  0  0  0  0  0  0  0  0
    0.0360   19.4280  -28.7770 C   0  0  0  0  0  0  0  0  0  0  0  0
   -0.8190   19.7950  -29.8220 C   0  0  0  0  0  0  0  0  0  0  0  0
   -0.3260   19.9170  -31.1230 C   0  0  0  0  0  0  0  0  0  0  0  0
    1.0260   19.6700  -31.3660 C   0  0  0  0  0  0  0  0  0  0  0  0
    1.8480   19.3150  -30.3430 N   0  0  0  0  0  0  0  0  0  0  0  0
    1.3910   19.1900  -29.0690 C   0  0  0  0  0  0  0  0  0  0  0  0
   -0.6770   22.7420  -27.3380 C   0  0  0  0  0  0  0  0  0  0  0  0
   -0.6540   24.0000  -27.9390 C   0  0  0  0  0  0  0  0  0  0  0  0
   -1.7100   24.4130  -28.7590 C   0  0  0  0  0  0  0  0  0  0  0  0
   -1.6490   25.6740  -29.3410 O   0  0  0  0  0  0  0  0  0  0  0  0
   -3.9050   24.9540  -30.7530 N   0  0  0  0  0  0  0  0  0  0  0  0
   -5.0870   24.9820  -31.2870 O   0  0  0  0  0  0  0  0  0  0  0  0
   -7.8613   23.6640  -30.2246 H   0  0  0  0  0  0  0  0  0  0  0  0
   -7.6337   24.6231  -31.7263 H   0  0  0  0  0  0  0  0  0  0  0  0
   -7.2915   22.8597  -31.7263 H   0  0  0  0  0  0  0  0  0  0  0  0
   -3.6703   21.6108  -28.5333 H   0  0  0  0  0  0  0  0  0  0  0  0
   -1.8826   19.9880  -29.6183 H   0  0  0  0  0  0  0  0  0  0  0  0
   -0.9957   20.2045  -31.9469 H   0  0  0  0  0  0  0  0  0  0  0  0
    1.4268   19.7627  -32.3862 H   0  0  0  0  0  0  0  0  0  0  0  0
    2.0830   18.9018  -28.2640 H   0  0  0  0  0  0  0  0  0  0  0  0
    0.1556   22.4275  -26.6916 H   0  0  0  0  0  0  0  0  0  0  0  0
    0.1997   24.6721  -27.7674 H   0  0  0  0  0  0  0  0  0  0  0  0
  1  2  1  0
  2  3  2  0
  3  4  1  0
  4  5  1  0
  5  6  2  0
  6  7  1  0
  7  8  1  0
  8  9  2  0
  8 10  2  0
  8 11  1  0
 11 12  1  0
 12 13  2  0
 13 14  1  0
 14 15  2  0
 15 16  1  0
 16 17  2  0
  7 18  2  0
 18 19  1  0
 19 20  2  0
 20 21  1  0
  4 22  2  0
 22 23  1  0
 23  2  1  0
 20  5  1  0
 17 12  1  0
  1 24  1  0
  1 25  1  0
  1 26  1  0
  6 27  1  0
 13 28  1  0
 14 29  1  0
 15 30  1  0
 17 31  1  0
 18 32  1  0
 19 33  1  0
M  CHG  2  11  -1  21  -1
M  END
>  <UniqueID>  (13) 
13

>  <SMILES>  (13) 
Cc1nc(-c2cc(S(=O)(=O)[N-]c3cccnc3)ccc2[O-])no1

>  <Energy>  (13) 
73.15083396775512

>  <Genealogy>  (13) 
Cc1nc(-c2cc(S(=O)(=O)[N-]c3cccnc3)ccc2[O-])no1 (protonated)
Cc1nc(-c2cc(S(=O)(=O)[N-]c3cccnc3)ccc2[O-])no1 (3D coordinates assigned)
Cc1nc(-c2cc(S(=O)(=O)[N-]c3cccnc3)ccc2[O-])no1 (optimized conformer: 73.15083396775512 kcal/mol)

>  <smiles>  (13) 
Cc1nc(-c2cc(S(=O)(=O)Nc3cccnc3)ccc2O)no1

>  <score_type>  (13) 
oracle

>  <origin>  (13) 
adgpu

>  <m_score__min__energy>  (13) 
-10.949999999999999

>  <m_primary>  (13) 
energy

$$$$
13:0
     RDKit          3D

 61 64  0  0  0  0  0  0  0  0999 V2000
   -1.3000   21.3080  -26.5090 C   0  0  0  0  0  0  0  0  0  0  0  0
   -2.1250   22.2920  -27.2960 C   0  0  0  0  0  0  0  0  0  0  0  0
   -3.4580   21.9520  -27.5820 C   0  0  0  0  0  0  0  0  0  0  0  0
   -4.2870   22.8260  -28.2800 C   0  0  0  0  0  0  0  0  0  0  0  0
   -3.8160   24.0740  -28.6840 C   0  0  0  0  0  0  0  0  0  0  0  0
   -4.7110   24.9580  -29.3770 N   0  0  0  0  0  0  0  0  0  0  0  0
   -4.9340   24.9500  -30.7930 C   0  0  0  0  0  0  0  0  0  0  0  0
   -5.4460   25.9590  -31.3430 O   0  0  0  0  0  0  0  0  0  0  0  0
   -4.5920   23.8110  -31.5930 N   0  0  0  0  0  0  0  0  0  0  0  0
   -5.4330   22.6610  -31.7280 C   0  0  0  0  0  0  0  0  0  0  0  0
   -6.8210   22.7990  -31.8890 C   0  0  0  0  0  0  0  0  0  0  0  0
   -7.6300   21.6700  -32.0190 C   0  0  0  0  0  0  0  0  0  0  0  0
   -7.0600   20.3890  -32.0180 C   0  0  0  0  0  0  0  0  0  0  0  0
   -8.0910   18.9660  -32.1840 S   0  0  0  0  0  0  0  0  0  0  0  0
   -8.6770   18.6170  -30.8430 O   0  0  0  0  0  0  0  0  0  0  0  0
   -9.2260   19.2930  -33.1140 O   0  0  0  0  0  0  0  0  0  0  0  0
   -7.2180   17.5800  -32.7920 N   0  0  0  0  0  0  0  0  0  0  0  0
   -6.4850   17.9140  -34.0200 C   0  0  0  0  0  0  0  0  0  0  0  0
   -5.8060   16.6430  -34.5750 C   0  0  0  0  0  0  0  0  0  0  0  0
   -5.8330   15.5680  -33.6490 O   0  0  0  0  0  0  0  0  0  0  0  0
   -5.3490   16.0040  -32.3930 C   0  0  0  0  0  0  0  0  0  0  0  0
   -6.2920   17.0580  -31.7750 C   0  0  0  0  0  0  0  0  0  0  0  0
   -5.6730   20.2510  -31.8550 C   0  0  0  0  0  0  0  0  0  0  0  0
   -4.8670   21.3820  -31.6910 C   0  0  0  0  0  0  0  0  0  0  0  0
   -2.4790   24.4310  -28.4230 C   0  0  0  0  0  0  0  0  0  0  0  0
   -1.9980   25.6520  -28.8850 O   0  0  0  0  0  0  0  0  0  0  0  0
   -1.6230   23.5550  -27.7170 C   0  0  0  0  0  0  0  0  0  0  0  0
    0.0500   24.0880  -27.3740 S   0  0  0  0  0  0  0  0  0  0  0  0
    0.8340   22.9150  -26.8520 O   0  0  0  0  0  0  0  0  0  0  0  0
    0.7360   24.5440  -28.6300 O   0  0  0  0  0  0  0  0  0  0  0  0
    0.1160   25.3790  -26.1940 N   0  0  0  0  0  0  0  0  0  0  0  0
   -0.4380   26.6260  -26.7440 C   0  0  0  0  0  0  0  0  0  0  0  0
   -0.5370   27.7070  -25.6470 C   0  0  0  0  0  0  0  0  0  0  0  0
    0.1380   27.3050  -24.4710 O   0  0  0  0  0  0  0  0  0  0  0  0
   -0.4830   26.1520  -23.9290 C   0  0  0  0  0  0  0  0  0  0  0  0
   -0.6000   25.0120  -24.9650 C   0  0  0  0  0  0  0  0  0  0  0  0
   -1.4473   21.4837  -25.4332 H   0  0  0  0  0  0  0  0  0  0  0  0
   -1.6133   20.2838  -26.7595 H   0  0  0  0  0  0  0  0  0  0  0  0
   -0.2368   21.4378  -26.7595 H   0  0  0  0  0  0  0  0  0  0  0  0
   -3.8525   20.9806  -27.2494 H   0  0  0  0  0  0  0  0  0  0  0  0
   -5.3202   22.5297  -28.5141 H   0  0  0  0  0  0  0  0  0  0  0  0
   -7.2725   23.8018  -31.9127 H   0  0  0  0  0  0  0  0  0  0  0  0
   -8.7190   21.7852  -32.1227 H   0  0  0  0  0  0  0  0  0  0  0  0
   -7.1857   18.3122  -34.7686 H   0  0  0  0  0  0  0  0  0  0  0  0
   -5.7192   18.6711  -33.7959 H   0  0  0  0  0  0  0  0  0  0  0  0
   -6.3303   16.3336  -35.4912 H   0  0  0  0  0  0  0  0  0  0  0  0
   -4.7523   16.8860  -34.7767 H   0  0  0  0  0  0  0  0  0  0  0  0
   -5.2795   15.1410  -31.7145 H   0  0  0  0  0  0  0  0  0  0  0  0
   -4.3585   16.4602  -32.5372 H   0  0  0  0  0  0  0  0  0  0  0  0
   -6.8706   16.5941  -30.9626 H   0  0  0  0  0  0  0  0  0  0  0  0
   -5.6880   17.8897  -31.3833 H   0  0  0  0  0  0  0  0  0  0  0  0
   -5.2181   19.2495  -31.8562 H   0  0  0  0  0  0  0  0  0  0  0  0
   -3.7847   21.2657  -31.5324 H   0  0  0  0  0  0  0  0  0  0  0  0
    0.2171   26.9880  -27.5501 H   0  0  0  0  0  0  0  0  0  0  0  0
   -1.4462   26.4240  -27.1347 H   0  0  0  0  0  0  0  0  0  0  0  0
   -0.0856   28.6385  -26.0193 H   0  0  0  0  0  0  0  0  0  0  0  0
   -1.5988   27.8608  -25.4041 H   0  0  0  0  0  0  0  0  0  0  0  0
    0.1135   25.7960  -23.0761 H   0  0  0  0  0  0  0  0  0  0  0  0
   -1.5002   26.4309  -23.6168 H   0  0  0  0  0  0  0  0  0  0  0  0
   -0.1617   24.0934  -24.5478 H   0  0  0  0  0  0  0  0  0  0  0  0
   -1.6612   24.8435  -25.2003 H   0  0  0  0  0  0  0  0  0  0  0  0
  1  2  1  0
  2  3  2  0
  3  4  1  0
  4  5  2  0
  5  6  1  0
  6  7  1  0
  7  8  2  0
  7  9  1  0
  9 10  1  0
 10 11  2  0
 11 12  1  0
 12 13  2  0
 13 14  1  0
 14 15  2  0
 14 16  2  0
 14 17  1  0
 17 18  1  0
 18 19  1  0
 19 20  1  0
 20 21  1  0
 21 22  1  0
 13 23  1  0
 23 24  2  0
  5 25  1  0
 25 26  1  0
 25 27  2  0
 27 28  1  0
 28 29  2  0
 28 30  2  0
 28 31  1  0
 31 32  1  0
 32 33  1  0
 33 34  1  0
 34 35  1  0
 35 36  1  0
 27  2  1  0
 36 31  1  0
 24 10  1  0
 22 17  1  0
  1 37  1  0
  1 38  1  0
  1 39  1  0
  3 40  1  0
  4 41  1  0
 11 42  1  0
 12 43  1  0
 18 44  1  0
 18 45  1  0
 19 46  1  0
 19 47  1  0
 21 48  1  0
 21 49  1  0
 22 50  1  0
 22 51  1  0
 23 52  1  0
 24 53  1  0
 32 54  1  0
 32 55  1  0
 33 56  1  0
 33 57  1  0
 35 58  1  0
 35 59  1  0
 36 60  1  0
 36 61  1  0
M  CHG  3   6  -1   9  -1  26  -1
M  END
>  <UniqueID>  (14) 
14

>  <SMILES>  (14) 
Cc1ccc([N-]C(=O)[N-]c2ccc(S(=O)(=O)N3CCOCC3)cc2)c([O-])c1S(=O)(=O)N1CCOCC1

>  <Energy>  (14) 
88.55590238343274

>  <Genealogy>  (14) 
Cc1ccc([N-]C(=O)[N-]c2ccc(S(=O)(=O)N3CCOCC3)cc2)c([O-])c1S(=O)(=O)N1CCOCC1 (protonated)
Cc1ccc([N-]C(=O)[N-]c2ccc(S(=O)(=O)N3CCOCC3)cc2)c([O-])c1S(=O)(=O)N1CCOCC1 (3D coordinates assigned)
Cc1ccc([N-]C(=O)[N-]c2ccc(S(=O)(=O)N3CCOCC3)cc2)c([O-])c1S(=O)(=O)N1CCOCC1 (nonaromatic ring conformer: 88.55590238343274 kcal/mol)

>  <smiles>  (14) 
Cc1ccc(NC(=O)Nc2ccc(S(=O)(=O)N3CCOCC3)cc2)c(O)c1S(=O)(=O)N1CCOCC1

>  <score_type>  (14) 
oracle

>  <origin>  (14) 
adgpu

>  <m_score__min__energy>  (14) 
-17.489999999999998

>  <m_primary>  (14) 
energy

$$$$
14:0
     RDKit          3D

 64 68  0  0  0  0  0  0  0  0999 V2000
   -9.5100   19.3450  -33.0790 C   0  0  0  0  0  0  0  0  0  0  0  0
   -8.6910   19.1200  -31.4680 S   0  0  0  0  0  0  0  0  0  0  0  0
   -7.8130   20.6820  -31.5610 C   0  0  0  0  0  0  0  0  0  0  0  0
   -8.5230   21.8880  -31.5430 C   0  0  0  0  0  0  0  0  0  0  0  0
   -7.8400   23.1040  -31.6150 C   0  0  0  0  0  0  0  0  0  0  0  0
   -6.4350   23.1220  -31.6910 C   0  0  0  0  0  0  0  0  0  0  0  0
   -5.7080   24.3600  -31.7140 N   0  0  0  0  0  0  0  0  0  0  0  0
   -4.8800   24.8380  -30.6450 C   0  0  0  0  0  0  0  0  0  0  0  0
   -4.7590   26.0810  -30.4790 O   0  0  0  0  0  0  0  0  0  0  0  0
   -4.1440   23.9060  -29.7600 C   0  0  0  0  0  0  0  0  0  0  0  0
   -4.8060   23.2670  -28.7010 C   0  0  0  0  0  0  0  0  0  0  0  0
   -4.1250   22.3460  -27.9020 C   0  0  0  0  0  0  0  0  0  0  0  0
   -2.7740   22.0600  -28.1320 C   0  0  0  0  0  0  0  0  0  0  0  0
   -1.9560   20.7240  -27.0210 Br  0  0  0  0  0  0  0  0  0  0  0  0
   -2.0850   22.7300  -29.1680 C   0  0  0  0  0  0  0  0  0  0  0  0
   -0.3790   22.4260  -29.5360 S   0  0  0  0  0  0  0  0  0  0  0  0
    0.4090   23.6880  -29.3100 O   0  0  0  0  0  0  0  0  0  0  0  0
    0.1920   21.3610  -28.6410 O   0  0  0  0  0  0  0  0  0  0  0  0
   -0.2070   21.9570  -31.1930 N   0  0  0  0  0  0  0  0  0  0  0  0
   -1.1160   21.0280  -31.7820 C   0  0  0  0  0  0  0  0  0  0  0  0
   -2.3460   21.4900  -32.2610 C   0  0  0  0  0  0  0  0  0  0  0  0
   -3.2780   20.5980  -32.7870 C   0  0  0  0  0  0  0  0  0  0  0  0
   -2.9990   19.2280  -32.8480 C   0  0  0  0  0  0  0  0  0  0  0  0
   -4.0000   18.3390  -33.3630 N   0  0  0  0  0  0  0  0  0  0  0  0
   -3.9400   17.9060  -34.7650 C   0  0  0  0  0  0  0  0  0  0  0  0
   -5.3540   17.7850  -35.3530 C   0  0  0  0  0  0  0  0  0  0  0  0
   -6.3510   17.0470  -34.4260 C   0  0  0  0  0  0  0  0  0  0  0  0
   -5.7440   16.6200  -33.0820 C   0  0  0  0  0  0  0  0  0  0  0  0
   -4.9970   17.7860  -32.4390 C   0  0  0  0  0  0  0  0  0  0  0  0
   -1.7550   18.7420  -32.3810 C   0  0  0  0  0  0  0  0  0  0  0  0
   -1.4480   17.3670  -32.4080 C   0  0  0  0  0  0  0  0  0  0  0  0
   -0.2150   16.9060  -31.9390 C   0  0  0  0  0  0  0  0  0  0  0  0
    0.7250   17.8030  -31.4350 C   0  0  0  0  0  0  0  0  0  0  0  0
    0.4370   19.1690  -31.3890 C   0  0  0  0  0  0  0  0  0  0  0  0
   -0.8010   19.6550  -31.8530 C   0  0  0  0  0  0  0  0  0  0  0  0
   -2.7790   23.6460  -29.9710 C   0  0  0  0  0  0  0  0  0  0  0  0
   -5.7310   21.9130  -31.7520 C   0  0  0  0  0  0  0  0  0  0  0  0
   -6.4170   20.6960  -31.6790 C   0  0  0  0  0  0  0  0  0  0  0  0
  -10.5595   19.6333  -32.9197 H   0  0  0  0  0  0  0  0  0  0  0  0
   -8.9947   20.1348  -33.6452 H   0  0  0  0  0  0  0  0  0  0  0  0
   -9.4705   18.4027  -33.6452 H   0  0  0  0  0  0  0  0  0  0  0  0
   -9.6207   21.8780  -31.4720 H   0  0  0  0  0  0  0  0  0  0  0  0
   -8.4016   24.0498  -31.6123 H   0  0  0  0  0  0  0  0  0  0  0  0
   -5.8638   23.4919  -28.4995 H   0  0  0  0  0  0  0  0  0  0  0  0
   -4.6562   21.8395  -27.0826 H   0  0  0  0  0  0  0  0  0  0  0  0
   -2.5790   22.5643  -32.2222 H   0  0  0  0  0  0  0  0  0  0  0  0
   -4.2427   20.9743  -33.1580 H   0  0  0  0  0  0  0  0  0  0  0  0
   -3.3680   18.6434  -35.3472 H   0  0  0  0  0  0  0  0  0  0  0  0
   -3.4502   16.9222  -34.8123 H   0  0  0  0  0  0  0  0  0  0  0  0
   -5.7396   18.7977  -35.5421 H   0  0  0  0  0  0  0  0  0  0  0  0
   -5.2699   17.1900  -36.2743 H   0  0  0  0  0  0  0  0  0  0  0  0
   -7.2004   17.7168  -34.2263 H   0  0  0  0  0  0  0  0  0  0  0  0
   -6.6550   16.1277  -34.9479 H   0  0  0  0  0  0  0  0  0  0  0  0
   -6.5495   16.2908  -32.4091 H   0  0  0  0  0  0  0  0  0  0  0  0
   -5.0360   15.7965  -33.2566 H   0  0  0  0  0  0  0  0  0  0  0  0
   -5.7177   18.5732  -32.1728 H   0  0  0  0  0  0  0  0  0  0  0  0
   -4.4798   17.4204  -31.5396 H   0  0  0  0  0  0  0  0  0  0  0  0
   -2.1846   16.6510  -32.8013 H   0  0  0  0  0  0  0  0  0  0  0  0
    0.0146   15.8306  -31.9677 H   0  0  0  0  0  0  0  0  0  0  0  0
    1.6960   17.4344  -31.0726 H   0  0  0  0  0  0  0  0  0  0  0  0
    1.1828   19.8707  -30.9873 H   0  0  0  0  0  0  0  0  0  0  0  0
   -2.2468   24.1695  -30.7789 H   0  0  0  0  0  0  0  0  0  0  0  0
   -4.6361   21.9203  -31.8576 H   0  0  0  0  0  0  0  0  0  0  0  0
   -5.8594   19.7484  -31.7143 H   0  0  0  0  0  0  0  0  0  0  0  0
  1  2  1  0
  2  3  1  0
  3  4  2  0
  4  5  1  0
  5  6  2  0
  6  7  1  0
  7  8  1  0
  8  9  2  0
  8 10  1  0
 10 11  2  0
 11 12  1  0
 12 13  2  0
 13 14  1  0
 13 15  1  0
 15 16  1  0
 16 17  2  0
 16 18  2  0
 16 19  1  0
 19 20  1  0
 20 21  2  0
 21 22  1  0
 22 23  2  0
 23 24  1  0
 24 25  1  0
 25 26  1  0
 26 27  1  0
 27 28  1  0
 28 29  1  0
 23 30  1  0
 30 31  2  0
 31 32  1  0
 32 33  2  0
 33 34  1  0
 34 35  2  0
 15 36  2  0
  6 37  1  0
 37 38  2  0
 38  3  1  0
 36 10  1  0
 35 20  1  0
 29 24  1  0
 35 30  1  0
  1 39  1  0
  1 40  1  0
  1 41  1  0
  4 42  1  0
  5 43  1  0
 11 44  1  0
 12 45  1  0
 21 46  1  0
 22 47  1  0
 25 48  1  0
 25 49  1  0
 26 50  1  0
 26 51  1  0
 27 52  1  0
 27 53  1  0
 28 54  1  0
 28 55  1  0
 29 56  1  0
 29 57  1  0
 31 58  1  0
 32 59  1  0
 33 60  1  0
 34 61  1  0
 36 62  1  0
 37 63  1  0
 38 64  1  0
M  CHG  2   7  -1  19  -1
M  END
>  <UniqueID>  (15) 
15

>  <SMILES>  (15) 
CSc1ccc([N-]C(=O)c2ccc(Br)c(S(=O)(=O)[N-]c3ccc(N4CCCCC4)c4ccccc34)c2)cc1

>  <Energy>  (15) 
91.01049525903338

>  <Genealogy>  (15) 
CSc1ccc([N-]C(=O)c2ccc(Br)c(S(=O)(=O)[N-]c3ccc(N4CCCCC4)c4ccccc34)c2)cc1 (protonated)
CSc1ccc([N-]C(=O)c2ccc(Br)c(S(=O)(=O)[N-]c3ccc(N4CCCCC4)c4ccccc34)c2)cc1 (3D coordinates assigned)
CSc1ccc([N-]C(=O)c2ccc(Br)c(S(=O)(=O)[N-]c3ccc(N4CCCCC4)c4ccccc34)c2)cc1 (nonaromatic ring conformer: 91.01049525903338 kcal/mol)

>  <smiles>  (15) 
CSc1ccc(NC(=O)c2ccc(Br)c(S(=O)(=O)Nc3ccc(N4CCCCC4)c4ccccc34)c2)cc1

>  <score_type>  (15) 
oracle

>  <origin>  (15) 
adgpu

>  <m_score__min__energy>  (15) 
-13.039999999999999

>  <m_primary>  (15) 
energy

$$$$
15:0
     RDKit          3D

 53 56  0  0  0  0  0  0  0  0999 V2000
   -9.0450   18.5300  -31.7140 C   0  0  0  0  0  0  0  0  0  0  0  0
   -7.7230   19.2010  -31.9420 C   0  0  0  0  0  0  0  0  0  0  0  0
   -6.5270   18.5380  -31.6270 C   0  0  0  0  0  0  0  0  0  0  0  0
   -5.2960   19.1500  -31.8750 C   0  0  0  0  0  0  0  0  0  0  0  0
   -5.2440   20.4260  -32.4530 C   0  0  0  0  0  0  0  0  0  0  0  0
   -3.6840   21.1800  -32.7660 S   0  0  0  0  0  0  0  0  0  0  0  0
   -3.8810   22.3900  -33.6360 O   0  0  0  0  0  0  0  0  0  0  0  0
   -2.7980   20.2150  -33.5050 O   0  0  0  0  0  0  0  0  0  0  0  0
   -2.9220   21.6600  -31.2710 N   0  0  0  0  0  0  0  0  0  0  0  0
   -3.3790   22.5880  -30.3970 C   0  0  0  0  0  0  0  0  0  0  0  0
   -4.7040   23.2370  -30.4420 C   0  0  0  0  0  0  0  0  0  0  0  0
   -4.8130   24.5970  -30.7740 C   0  0  0  0  0  0  0  0  0  0  0  0
   -6.0650   25.2190  -30.7990 C   0  0  0  0  0  0  0  0  0  0  0  0
   -7.2150   24.4910  -30.4790 C   0  0  0  0  0  0  0  0  0  0  0  0
   -7.1120   23.1420  -30.1270 C   0  0  0  0  0  0  0  0  0  0  0  0
   -5.8620   22.5180  -30.1020 C   0  0  0  0  0  0  0  0  0  0  0  0
   -2.4320   22.8370  -29.4240 C   0  0  0  0  0  0  0  0  0  0  0  0
   -1.3560   22.0140  -29.6970 C   0  0  0  0  0  0  0  0  0  0  0  0
   -0.1000   21.9900  -28.9220 C   0  0  0  0  0  0  0  0  0  0  0  0
    0.4790   20.8890  -28.7150 O   0  0  0  0  0  0  0  0  0  0  0  0
    0.4600   23.2000  -28.4020 N   0  0  0  0  0  0  0  0  0  0  0  0
   -0.2190   24.0830  -27.5010 C   0  0  0  0  0  0  0  0  0  0  0  0
   -0.1750   23.8000  -26.1300 C   0  0  0  0  0  0  0  0  0  0  0  0
   -0.8560   24.6100  -25.2160 C   0  0  0  0  0  0  0  0  0  0  0  0
   -1.5780   25.7170  -25.6680 C   0  0  0  0  0  0  0  0  0  0  0  0
   -1.6000   26.0290  -27.0300 C   0  0  0  0  0  0  0  0  0  0  0  0
   -0.9080   25.2340  -27.9520 C   0  0  0  0  0  0  0  0  0  0  0  0
   -0.8920   25.6300  -29.2890 O   0  0  0  0  0  0  0  0  0  0  0  0
   -1.6960   21.2800  -30.8310 C   0  0  0  0  0  0  0  0  0  0  0  0
   -0.8460   20.2230  -31.4780 C   0  0  0  0  0  0  0  0  0  0  0  0
   -6.4370   21.0850  -32.7810 C   0  0  0  0  0  0  0  0  0  0  0  0
   -7.6700   20.4730  -32.5330 C   0  0  0  0  0  0  0  0  0  0  0  0
   -9.2276   18.4373  -30.6332 H   0  0  0  0  0  0  0  0  0  0  0  0
   -9.8450   19.1312  -32.1708 H   0  0  0  0  0  0  0  0  0  0  0  0
   -9.0319   17.5294  -32.1708 H   0  0  0  0  0  0  0  0  0  0  0  0
   -6.5590   17.5321  -31.1829 H   0  0  0  0  0  0  0  0  0  0  0  0
   -4.3631   18.6282  -31.6155 H   0  0  0  0  0  0  0  0  0  0  0  0
   -3.9093   25.1757  -31.0155 H   0  0  0  0  0  0  0  0  0  0  0  0
   -6.1453   26.2819  -31.0706 H   0  0  0  0  0  0  0  0  0  0  0  0
   -8.2003   24.9795  -30.5042 H   0  0  0  0  0  0  0  0  0  0  0  0
   -8.0162   22.5710  -29.8694 H   0  0  0  0  0  0  0  0  0  0  0  0
   -5.7844   21.4590  -29.8148 H   0  0  0  0  0  0  0  0  0  0  0  0
   -2.5173   23.5520  -28.5924 H   0  0  0  0  0  0  0  0  0  0  0  0
    0.3996   22.9340  -25.7695 H   0  0  0  0  0  0  0  0  0  0  0  0
   -0.8232   24.3756  -24.1418 H   0  0  0  0  0  0  0  0  0  0  0  0
   -2.1295   26.3435  -24.9515 H   0  0  0  0  0  0  0  0  0  0  0  0
   -2.1650   26.9054  -27.3804 H   0  0  0  0  0  0  0  0  0  0  0  0
   -0.1950   25.3090  -29.9480 H   0  0  0  0  0  0  0  0  0  0  0  0
   -0.3588   19.6171  -30.6998 H   0  0  0  0  0  0  0  0  0  0  0  0
   -1.4784   19.5762  -32.1039 H   0  0  0  0  0  0  0  0  0  0  0  0
   -0.0786   20.7019  -32.1039 H   0  0  0  0  0  0  0  0  0  0  0  0
   -6.4033   22.0865  -33.2348 H   0  0  0  0  0  0  0  0  0  0  0  0
   -8.6023   20.9909  -32.8023 H   0  0  0  0  0  0  0  0  0  0  0  0
  1  2  1  0
  2  3  2  0
  3  4  1  0
  4  5  2  0
  5  6  1  0
  6  7  2  0
  6  8  2  0
  6  9  1  0
  9 10  1  0
 10 11  1  0
 11 12  2  0
 12 13  1  0
 13 14  2  0
 14 15  1  0
 15 16  2  0
 10 17  2  0
 17 18  1  0
 18 19  1  0
 19 20  2  0
 19 21  1  0
 21 22  1  0
 22 23  2  0
 23 24  1  0
 24 25  2  0
 25 26  1  0
 26 27  2  0
 27 28  1  0
 18 29  2  0
 29 30  1  0
  5 31  1  0
 31 32  2  0
 32  2  1  0
 29  9  1  0
 16 11  1  0
 27 22  1  0
  1 33  1  0
  1 34  1  0
  1 35  1  0
  3 36  1  0
  4 37  1  0
 12 38  1  0
 13 39  1  0
 14 40  1  0
 15 41  1  0
 16 42  1  0
 17 43  1  0
 23 44  1  0
 24 45  1  0
 25 46  1  0
 26 47  1  0
 28 48  1  0
 30 49  1  0
 30 50  1  0
 30 51  1  0
 31 52  1  0
 32 53  1  0
M  CHG  1  21  -1
M  END
>  <UniqueID>  (16) 
16

>  <SMILES>  (16) 
Cc1ccc(S(=O)(=O)n2c(-c3ccccc3)cc(C(=O)[N-]c3ccccc3O)c2C)cc1

>  <Energy>  (16) 
98.34919907207878

>  <Genealogy>  (16) 
Cc1ccc(S(=O)(=O)n2c(-c3ccccc3)cc(C(=O)[N-]c3ccccc3O)c2C)cc1 (protonated)
Cc1ccc(S(=O)(=O)n2c(-c3ccccc3)cc(C(=O)[N-]c3ccccc3O)c2C)cc1 (3D coordinates assigned)
Cc1ccc(S(=O)(=O)n2c(-c3ccccc3)cc(C(=O)[N-]c3ccccc3O)c2C)cc1 (optimized conformer: 98.34919907207878 kcal/mol)

>  <smiles>  (16) 
Cc1ccc(S(=O)(=O)n2c(-c3ccccc3)cc(C(=O)Nc3ccccc3O)c2C)cc1

>  <score_type>  (16) 
oracle

>  <origin>  (16) 
adgpu

>  <m_score__min__energy>  (16) 
-12.19

>  <m_primary>  (16) 
energy

$$$$
16:0
     RDKit          3D

 47 49  0  0  0  0  0  0  0  0999 V2000
   -6.1290   18.9640  -34.1170 C   0  0  0  0  0  0  0  0  0  0  0  0
   -6.8280   18.3900  -32.9570 N   0  0  0  0  0  0  0  0  0  0  0  0
   -5.8650   18.0190  -31.9060 C   0  0  0  0  0  0  0  0  0  0  0  0
   -7.9900   19.5430  -32.3250 S   0  0  0  0  0  0  0  0  0  0  0  0
   -8.7460   18.9200  -31.1780 O   0  0  0  0  0  0  0  0  0  0  0  0
   -8.9860   19.8800  -33.4060 O   0  0  0  0  0  0  0  0  0  0  0  0
   -7.2190   21.0380  -31.7620 C   0  0  0  0  0  0  0  0  0  0  0  0
   -6.3150   21.7220  -32.5910 C   0  0  0  0  0  0  0  0  0  0  0  0
   -5.7400   22.9240  -32.1690 C   0  0  0  0  0  0  0  0  0  0  0  0
   -6.0640   23.4570  -30.9140 C   0  0  0  0  0  0  0  0  0  0  0  0
   -5.3350   24.9720  -30.3720 S   0  0  0  0  0  0  0  0  0  0  0  0
   -5.8750   26.0980  -31.2140 O   0  0  0  0  0  0  0  0  0  0  0  0
   -5.7230   25.2200  -28.9440 O   0  0  0  0  0  0  0  0  0  0  0  0
   -3.6020   24.9720  -30.4930 N   0  0  0  0  0  0  0  0  0  0  0  0
   -2.7450   24.1230  -29.7240 C   0  0  0  0  0  0  0  0  0  0  0  0
   -3.0440   22.7630  -29.5570 C   0  0  0  0  0  0  0  0  0  0  0  0
   -2.2900   21.9650  -28.6850 C   0  0  0  0  0  0  0  0  0  0  0  0
   -1.1480   22.5120  -28.0520 C   0  0  0  0  0  0  0  0  0  0  0  0
   -0.7930   23.8500  -28.3080 C   0  0  0  0  0  0  0  0  0  0  0  0
   -1.5910   24.6560  -29.1280 C   0  0  0  0  0  0  0  0  0  0  0  0
   -1.2470   25.9910  -29.3270 O   0  0  0  0  0  0  0  0  0  0  0  0
   -0.3300   21.7040  -27.0440 C   0  0  0  0  0  0  0  0  0  0  0  0
   -0.8750   20.2870  -26.7560 C   0  0  0  0  0  0  0  0  0  0  0  0
   -2.3910   20.1830  -26.9670 C   0  0  0  0  0  0  0  0  0  0  0  0
   -2.7130   20.5430  -28.4190 C   0  0  0  0  0  0  0  0  0  0  0  0
   -6.9570   22.7660  -30.0780 C   0  0  0  0  0  0  0  0  0  0  0  0
   -7.5320   21.5650  -30.5010 C   0  0  0  0  0  0  0  0  0  0  0  0
   -5.3227   19.6261  -33.7685 H   0  0  0  0  0  0  0  0  0  0  0  0
   -5.7008   18.1535  -34.7250 H   0  0  0  0  0  0  0  0  0  0  0  0
   -6.8408   19.5417  -34.7250 H   0  0  0  0  0  0  0  0  0  0  0  0
   -6.3158   18.1927  -30.9178 H   0  0  0  0  0  0  0  0  0  0  0  0
   -5.6029   16.9555  -32.0077 H   0  0  0  0  0  0  0  0  0  0  0  0
   -4.9571   18.6317  -32.0077 H   0  0  0  0  0  0  0  0  0  0  0  0
   -6.0581   21.3095  -33.5778 H   0  0  0  0  0  0  0  0  0  0  0  0
   -5.0315   23.4529  -32.8235 H   0  0  0  0  0  0  0  0  0  0  0  0
   -3.8796   22.3173  -30.1165 H   0  0  0  0  0  0  0  0  0  0  0  0
    0.1209   24.2662  -27.8590 H   0  0  0  0  0  0  0  0  0  0  0  0
    0.6933   21.6043  -27.4350 H   0  0  0  0  0  0  0  0  0  0  0  0
   -0.3790   22.2543  -26.0928 H   0  0  0  0  0  0  0  0  0  0  0  0
   -0.3761   19.5743  -27.4291 H   0  0  0  0  0  0  0  0  0  0  0  0
   -0.6696   20.0598  -25.6995 H   0  0  0  0  0  0  0  0  0  0  0  0
   -2.7236   19.1554  -26.7585 H   0  0  0  0  0  0  0  0  0  0  0  0
   -2.9111   20.8735  -26.2867 H   0  0  0  0  0  0  0  0  0  0  0  0
   -2.1701   19.8656  -29.0946 H   0  0  0  0  0  0  0  0  0  0  0  0
   -3.7944   20.4415  -28.5928 H   0  0  0  0  0  0  0  0  0  0  0  0
   -7.2045   23.1723  -29.0862 H   0  0  0  0  0  0  0  0  0  0  0  0
   -8.2328   21.0310  -29.8424 H   0  0  0  0  0  0  0  0  0  0  0  0
  1  2  1  0
  2  3  1  0
  2  4  1  0
  4  5  2  0
  4  6  2  0
  4  7  1  0
  7  8  2  0
  8  9  1  0
  9 10  2  0
 10 11  1  0
 11 12  2  0
 11 13  2  0
 11 14  1  0
 14 15  1  0
 15 16  2  0
 16 17  1  0
 17 18  2  0
 18 19  1  0
 19 20  2  0
 20 21  1  0
 18 22  1  0
 22 23  1  0
 23 24  1  0
 24 25  1  0
 10 26  1  0
 26 27  2  0
 27  7  1  0
 20 15  1  0
 25 17  1  0
  1 28  1  0
  1 29  1  0
  1 30  1  0
  3 31  1  0
  3 32  1  0
  3 33  1  0
  8 34  1  0
  9 35  1  0
 16 36  1  0
 19 37  1  0
 22 38  1  0
 22 39  1  0
 23 40  1  0
 23 41  1  0
 24 42  1  0
 24 43  1  0
 25 44  1  0
 25 45  1  0
 26 46  1  0
 27 47  1  0
M  CHG  2  14  -1  21  -1
M  END
>  <UniqueID>  (17) 
17

>  <SMILES>  (17) 
CN(C)S(=O)(=O)c1ccc(S(=O)(=O)[N-]c2cc3c(cc2[O-])CCCC3)cc1

>  <Energy>  (17) 
55.3966099604187

>  <Genealogy>  (17) 
CN(C)S(=O)(=O)c1ccc(S(=O)(=O)[N-]c2cc3c(cc2[O-])CCCC3)cc1 (protonated)
CN(C)S(=O)(=O)c1ccc(S(=O)(=O)[N-]c2cc3c(cc2[O-])CCCC3)cc1 (3D coordinates assigned)
CN(C)S(=O)(=O)c1ccc(S(=O)(=O)[N-]c2cc3c(cc2[O-])CCCC3)cc1 (nonaromatic ring conformer: 55.3966099604187 kcal/mol)

>  <smiles>  (17) 
CN(C)S(=O)(=O)c1ccc(S(=O)(=O)Nc2cc3c(cc2O)CCCC3)cc1

>  <score_type>  (17) 
oracle

>  <origin>  (17) 
adgpu

>  <m_score__min__energy>  (17) 
-14.710000000000001

>  <m_primary>  (17) 
energy

$$$$
17:0
     RDKit          3D

 40 42  0  0  0  0  0  0  0  0999 V2000
   -1.2440   18.4970  -27.0460 C   0  0  0  0  0  0  0  0  0  0  0  0
   -0.8770   19.3870  -28.0950 O   0  0  0  0  0  0  0  0  0  0  0  0
   -1.6730   20.4490  -28.5480 C   0  0  0  0  0  0  0  0  0  0  0  0
   -2.5430   21.1570  -27.6980 C   0  0  0  0  0  0  0  0  0  0  0  0
   -3.3120   22.2110  -28.1970 C   0  0  0  0  0  0  0  0  0  0  0  0
   -3.2160   22.5840  -29.5460 C   0  0  0  0  0  0  0  0  0  0  0  0
   -4.0250   23.6980  -30.0740 C   0  0  0  0  0  0  0  0  0  0  0  0
   -3.4960   24.8960  -30.3940 N   0  0  0  0  0  0  0  0  0  0  0  0
   -4.4610   25.6690  -30.8690 N   0  0  0  0  0  0  0  0  0  0  0  0
   -5.6140   24.9760  -30.8540 C   0  0  0  0  0  0  0  0  0  0  0  0
   -5.3870   23.7150  -30.3410 C   0  0  0  0  0  0  0  0  0  0  0  0
   -6.4410   22.6610  -30.0800 C   0  0  0  0  0  0  0  0  0  0  0  0
   -7.2500   22.3090  -31.2680 N   0  0  0  0  0  0  0  0  0  0  0  0
   -8.4940   21.5730  -30.9500 C   0  0  0  0  0  0  0  0  0  0  0  0
   -9.1050   20.9630  -32.2170 C   0  0  0  0  0  0  0  0  0  0  0  0
   -8.1890   19.9950  -32.8590 N   0  0  0  0  0  0  0  0  0  0  0  0
   -6.7560   20.2530  -32.6020 C   0  0  0  0  0  0  0  0  0  0  0  0
   -6.4740   21.7490  -32.3990 C   0  0  0  0  0  0  0  0  0  0  0  0
   -2.3650   21.8630  -30.3990 C   0  0  0  0  0  0  0  0  0  0  0  0
   -2.2580   22.1980  -31.7110 F   0  0  0  0  0  0  0  0  0  0  0  0
   -1.5950   20.8100  -29.8980 C   0  0  0  0  0  0  0  0  0  0  0  0
   -1.0472   18.9742  -26.0746 H   0  0  0  0  0  0  0  0  0  0  0  0
   -2.3145   18.2570  -27.1265 H   0  0  0  0  0  0  0  0  0  0  0  0
   -0.6538   17.5722  -27.1265 H   0  0  0  0  0  0  0  0  0  0  0  0
   -2.6177   20.8792  -26.6363 H   0  0  0  0  0  0  0  0  0  0  0  0
   -3.9973   22.7520  -27.5279 H   0  0  0  0  0  0  0  0  0  0  0  0
   -6.5875   25.3558  -31.1976 H   0  0  0  0  0  0  0  0  0  0  0  0
   -5.9380   21.7505  -29.7224 H   0  0  0  0  0  0  0  0  0  0  0  0
   -7.1344   23.0826  -29.3374 H   0  0  0  0  0  0  0  0  0  0  0  0
   -8.2642   20.7677  -30.2368 H   0  0  0  0  0  0  0  0  0  0  0  0
   -9.2179   22.2766  -30.5131 H   0  0  0  0  0  0  0  0  0  0  0  0
  -10.0380   20.4459  -31.9486 H   0  0  0  0  0  0  0  0  0  0  0  0
   -9.2952   21.7781  -32.9308 H   0  0  0  0  0  0  0  0  0  0  0  0
   -8.3580   20.0120  -33.8930 H   0  0  0  0  0  0  0  0  0  0  0  0
   -8.4170   19.0320  -32.5190 H   0  0  0  0  0  0  0  0  0  0  0  0
   -6.4527   19.7073  -31.6964 H   0  0  0  0  0  0  0  0  0  0  0  0
   -6.1845   19.9128  -33.4782 H   0  0  0  0  0  0  0  0  0  0  0  0
   -5.4014   21.8843  -32.1959 H   0  0  0  0  0  0  0  0  0  0  0  0
   -6.7744   22.2798  -33.3144 H   0  0  0  0  0  0  0  0  0  0  0  0
   -0.9212   20.2596  -30.5710 H   0  0  0  0  0  0  0  0  0  0  0  0
  1  2  1  0
  2  3  1  0
  3  4  2  0
  4  5  1  0
  5  6  2  0
  6  7  1  0
  7  8  1  0
  8  9  1  0
  9 10  2  0
 10 11  1  0
 11 12  1  0
 12 13  1  0
 13 14  1  0
 14 15  1  0
 15 16  1  0
 16 17  1  0
 17 18  1  0
  6 19  1  0
 19 20  1  0
 19 21  2  0
 21  3  1  0
 11  7  2  0
 18 13  1  0
  1 22  1  0
  1 23  1  0
  1 24  1  0
  4 25  1  0
  5 26  1  0
 10 27  1  0
 12 28  1  0
 12 29  1  0
 14 30  1  0
 14 31  1  0
 15 32  1  0
 15 33  1  0
 16 34  1  0
 16 35  1  0
 17 36  1  0
 17 37  1  0
 18 38  1  0
 18 39  1  0
 21 40  1  0
M  CHG  2   8  -1  16   1
M  END
>  <UniqueID>  (18) 
18

>  <SMILES>  (18) 
COc1ccc(-c2[n-]ncc2CN2CC[NH2+]CC2)c(F)c1

>  <Energy>  (18) 
87.33524219189724

>  <Genealogy>  (18) 
COc1ccc(-c2[n-]ncc2CN2CC[NH2+]CC2)c(F)c1 (protonated)
COc1ccc(-c2[n-]ncc2CN2CC[NH2+]CC2)c(F)c1 (3D coordinates assigned)
COc1ccc(-c2[n-]ncc2CN2CC[NH2+]CC2)c(F)c1 (nonaromatic ring conformer: 87.33524219189724 kcal/mol)

>  <smiles>  (18) 
COc1ccc(-c2[nH]ncc2CN2CCNCC2)c(F)c1

>  <score_type>  (18) 
oracle

>  <origin>  (18) 
adgpu

>  <m_score__min__energy>  (18) 
-8.4600000000000009

>  <m_primary>  (18) 
energy

$$$$
18:0
     RDKit          3D

 52 55  0  0  0  0  0  0  0  0999 V2000
   -0.0660   23.4560  -24.4690 C   0  0  0  0  0  0  0  0  0  0  0  0
   -1.0310   24.4810  -24.6860 O   0  0  0  0  0  0  0  0  0  0  0  0
   -0.7310   25.8450  -24.8400 C   0  0  0  0  0  0  0  0  0  0  0  0
   -0.2290   26.6100  -23.7670 C   0  0  0  0  0  0  0  0  0  0  0  0
    0.1090   27.9510  -23.9490 C   0  0  0  0  0  0  0  0  0  0  0  0
   -0.0450   28.5480  -25.1990 C   0  0  0  0  0  0  0  0  0  0  0  0
   -0.5480   27.8080  -26.2700 C   0  0  0  0  0  0  0  0  0  0  0  0
   -0.9110   26.4580  -26.1030 C   0  0  0  0  0  0  0  0  0  0  0  0
   -1.4560   25.7190  -27.2680 C   0  0  0  0  0  0  0  0  0  0  0  0
   -2.1710   24.5360  -27.2470 C   0  0  0  0  0  0  0  0  0  0  0  0
   -2.4740   24.3050  -28.5730 C   0  0  0  0  0  0  0  0  0  0  0  0
   -3.2450   23.1680  -29.1000 C   0  0  0  0  0  0  0  0  0  0  0  0
   -3.3580   22.1220  -28.4040 O   0  0  0  0  0  0  0  0  0  0  0  0
   -3.8280   23.2340  -30.4110 N   0  0  0  0  0  0  0  0  0  0  0  0
   -4.7840   22.2840  -30.9150 C   0  0  0  0  0  0  0  0  0  0  0  0
   -6.1200   22.6750  -31.0830 C   0  0  0  0  0  0  0  0  0  0  0  0
   -7.0700   21.7650  -31.5540 C   0  0  0  0  0  0  0  0  0  0  0  0
   -6.7000   20.4470  -31.8530 C   0  0  0  0  0  0  0  0  0  0  0  0
   -7.8970   19.3040  -32.4690 S   0  0  0  0  0  0  0  0  0  0  0  0
   -8.9870   20.0600  -33.1760 O   0  0  0  0  0  0  0  0  0  0  0  0
   -8.5150   18.5650  -31.3140 O   0  0  0  0  0  0  0  0  0  0  0  0
   -7.1790   18.1520  -33.5730 N   0  0  0  0  0  0  0  0  0  0  0  0
   -6.1160   18.7950  -34.3690 C   0  0  0  0  0  0  0  0  0  0  0  0
   -5.1580   17.7400  -34.9450 C   0  0  0  0  0  0  0  0  0  0  0  0
   -4.5000   16.9530  -33.9600 O   0  0  0  0  0  0  0  0  0  0  0  0
   -5.1890   16.8950  -32.7180 C   0  0  0  0  0  0  0  0  0  0  0  0
   -6.7210   16.9340  -32.8700 C   0  0  0  0  0  0  0  0  0  0  0  0
   -5.3720   20.0430  -31.6540 C   0  0  0  0  0  0  0  0  0  0  0  0
   -4.4210   20.9530  -31.1840 C   0  0  0  0  0  0  0  0  0  0  0  0
   -1.9780   25.2990  -29.3330 N   0  0  0  0  0  0  0  0  0  0  0  0
   -1.3620   26.1610  -28.5390 N   0  0  0  0  0  0  0  0  0  0  0  0
    0.0741   23.3072  -23.3882 H   0  0  0  0  0  0  0  0  0  0  0  0
   -0.4174   22.5190  -24.9256 H   0  0  0  0  0  0  0  0  0  0  0  0
    0.8905   23.7503  -24.9256 H   0  0  0  0  0  0  0  0  0  0  0  0
   -0.1029   26.1452  -22.7780 H   0  0  0  0  0  0  0  0  0  0  0  0
    0.4979   28.5386  -23.1043 H   0  0  0  0  0  0  0  0  0  0  0  0
    0.2302   29.6034  -25.3415 H   0  0  0  0  0  0  0  0  0  0  0  0
   -0.6620   28.2845  -27.2549 H   0  0  0  0  0  0  0  0  0  0  0  0
   -2.4369   23.9210  -26.3746 H   0  0  0  0  0  0  0  0  0  0  0  0
   -3.4710   23.9610  -31.0720 H   0  0  0  0  0  0  0  0  0  0  0  0
   -6.4222   23.7049  -30.8424 H   0  0  0  0  0  0  0  0  0  0  0  0
   -8.1135   22.0849  -31.6907 H   0  0  0  0  0  0  0  0  0  0  0  0
   -6.5738   19.3575  -35.1961 H   0  0  0  0  0  0  0  0  0  0  0  0
   -5.5460   19.4733  -33.7171 H   0  0  0  0  0  0  0  0  0  0  0  0
   -5.7361   17.0669  -35.5952 H   0  0  0  0  0  0  0  0  0  0  0  0
   -4.3741   18.2872  -35.4891 H   0  0  0  0  0  0  0  0  0  0  0  0
   -4.9122   15.9603  -32.2083 H   0  0  0  0  0  0  0  0  0  0  0  0
   -4.8957   17.7840  -32.1404 H   0  0  0  0  0  0  0  0  0  0  0  0
   -7.0433   16.0516  -33.4423 H   0  0  0  0  0  0  0  0  0  0  0  0
   -7.1616   16.9384  -31.8621 H   0  0  0  0  0  0  0  0  0  0  0  0
   -5.0774   19.0052  -31.8688 H   0  0  0  0  0  0  0  0  0  0  0  0
   -3.3831   20.6259  -31.0238 H   0  0  0  0  0  0  0  0  0  0  0  0
  1  2  1  0
  2  3  1  0
  3  4  2  0
  4  5  1  0
  5  6  2  0
  6  7  1  0
  7  8  2  0
  8  9  1  0
  9 10  2  0
 10 11  1  0
 11 12  1  0
 12 13  2  0
 12 14  1  0
 14 15  1  0
 15 16  2  0
 16 17  1  0
 17 18  2  0
 18 19  1  0
 19 20  2  0
 19 21  2  0
 19 22  1  0
 22 23  1  0
 23 24  1  0
 24 25  1  0
 25 26  1  0
 26 27  1  0
 18 28  1  0
 28 29  2  0
 11 30  2  0
 30 31  1  0
  8  3  1  0
 31  9  1  0
 29 15  1  0
 27 22  1  0
  1 32  1  0
  1 33  1  0
  1 34  1  0
  4 35  1  0
  5 36  1  0
  6 37  1  0
  7 38  1  0
 10 39  1  0
 14 40  1  0
 16 41  1  0
 17 42  1  0
 23 43  1  0
 23 44  1  0
 24 45  1  0
 24 46  1  0
 26 47  1  0
 26 48  1  0
 27 49  1  0
 27 50  1  0
 28 51  1  0
 29 52  1  0
M  CHG  1  31  -1
M  END
>  <UniqueID>  (19) 
19

>  <SMILES>  (19) 
COc1ccccc1-c1cc(C(=O)Nc2ccc(S(=O)(=O)N3CCOCC3)cc2)n[n-]1

>  <Energy>  (19) 
102.7336885780871

>  <Genealogy>  (19) 
COc1ccccc1-c1cc(C(=O)Nc2ccc(S(=O)(=O)N3CCOCC3)cc2)n[n-]1 (protonated)
COc1ccccc1-c1cc(C(=O)Nc2ccc(S(=O)(=O)N3CCOCC3)cc2)n[n-]1 (3D coordinates assigned)
COc1ccccc1-c1cc(C(=O)Nc2ccc(S(=O)(=O)N3CCOCC3)cc2)n[n-]1 (nonaromatic ring conformer: 102.7336885780871 kcal/mol)

>  <smiles>  (19) 
COc1ccccc1-c1cc(C(=O)Nc2ccc(S(=O)(=O)N3CCOCC3)cc2)n[nH]1

>  <score_type>  (19) 
oracle

>  <origin>  (19) 
adgpu

>  <m_score__min__energy>  (19) 
-10.44

>  <m_primary>  (19) 
energy

$$$$
19:0
     RDKit          3D

 48 51  0  0  0  0  0  0  0  0999 V2000
   -8.7900   22.7070  -31.6790 C   0  0  0  0  0  0  0  0  0  0  0  0
   -7.6920   23.4540  -32.1950 O   0  0  0  0  0  0  0  0  0  0  0  0
   -6.4520   23.6060  -31.5530 C   0  0  0  0  0  0  0  0  0  0  0  0
   -6.1310   24.7840  -30.8510 C   0  0  0  0  0  0  0  0  0  0  0  0
   -4.8790   24.9410  -30.2570 C   0  0  0  0  0  0  0  0  0  0  0  0
   -3.9120   23.9300  -30.3520 C   0  0  0  0  0  0  0  0  0  0  0  0
   -2.5780   24.1010  -29.7290 C   0  0  0  0  0  0  0  0  0  0  0  0
   -1.6850   23.2290  -29.9050 O   0  0  0  0  0  0  0  0  0  0  0  0
   -2.2870   25.2840  -28.9690 N   0  0  0  0  0  0  0  0  0  0  0  0
   -1.3970   25.3850  -27.8490 C   0  0  0  0  0  0  0  0  0  0  0  0
   -0.0990   24.8470  -27.8770 C   0  0  0  0  0  0  0  0  0  0  0  0
    0.7310   24.9540  -26.7590 C   0  0  0  0  0  0  0  0  0  0  0  0
    0.2810   25.5960  -25.5960 C   0  0  0  0  0  0  0  0  0  0  0  0
   -1.0370   26.0920  -25.5430 C   0  0  0  0  0  0  0  0  0  0  0  0
   -1.8620   25.9890  -26.6750 C   0  0  0  0  0  0  0  0  0  0  0  0
   -1.5510   26.8150  -24.3270 C   0  0  0  0  0  0  0  0  0  0  0  0
   -0.6610   26.5960  -23.0920 C   0  0  0  0  0  0  0  0  0  0  0  0
    0.7800   26.6830  -23.4100 N   0  0  2  0  0  0  0  0  0  0  0  0
    1.1770   28.0320  -23.8590 C   0  0  0  0  0  0  0  0  0  0  0  0
    1.1780   25.6410  -24.3800 C   0  0  0  0  0  0  0  0  0  0  0  0
   -4.2310   22.7490  -31.0440 C   0  0  0  0  0  0  0  0  0  0  0  0
   -5.4960   22.5680  -31.6320 C   0  0  0  0  0  0  0  0  0  0  0  0
   -5.7780   21.2910  -32.3340 C   0  0  0  0  0  0  0  0  0  0  0  0
   -6.7160   20.3340  -31.9890 C   0  0  0  0  0  0  0  0  0  0  0  0
   -6.5440   19.3370  -32.9230 C   0  0  0  0  0  0  0  0  0  0  0  0
   -5.5560   19.6790  -33.7690 N   0  0  0  0  0  0  0  0  0  0  0  0
   -5.0870   20.8640  -33.4090 N   0  0  0  0  0  0  0  0  0  0  0  0
   -8.7620   22.7260  -30.5795 H   0  0  0  0  0  0  0  0  0  0  0  0
   -9.7331   23.1517  -32.0295 H   0  0  0  0  0  0  0  0  0  0  0  0
   -8.7227   21.6665  -32.0295 H   0  0  0  0  0  0  0  0  0  0  0  0
   -6.8761   25.5892  -30.7703 H   0  0  0  0  0  0  0  0  0  0  0  0
   -4.6480   25.8664  -29.7090 H   0  0  0  0  0  0  0  0  0  0  0  0
    0.2645   24.3398  -28.7828 H   0  0  0  0  0  0  0  0  0  0  0  0
    1.7460   24.5313  -26.7908 H   0  0  0  0  0  0  0  0  0  0  0  0
   -2.8864   26.3880  -26.6385 H   0  0  0  0  0  0  0  0  0  0  0  0
   -1.5901   27.8920  -24.5472 H   0  0  0  0  0  0  0  0  0  0  0  0
   -2.5485   26.4131  -24.0958 H   0  0  0  0  0  0  0  0  0  0  0  0
   -0.9036   27.3631  -22.3418 H   0  0  0  0  0  0  0  0  0  0  0  0
   -0.8590   25.5826  -22.7129 H   0  0  0  0  0  0  0  0  0  0  0  0
    1.3030   26.4950  -22.5200 H   0  0  0  0  0  0  0  0  0  0  0  0
    1.3647   28.6697  -22.9826 H   0  0  0  0  0  0  0  0  0  0  0  0
    2.0927   27.9622  -24.4645 H   0  0  0  0  0  0  0  0  0  0  0  0
    0.3695   28.4693  -24.4645 H   0  0  0  0  0  0  0  0  0  0  0  0
    2.2074   25.8439  -24.7105 H   0  0  0  0  0  0  0  0  0  0  0  0
    1.0952   24.6686  -23.8725 H   0  0  0  0  0  0  0  0  0  0  0  0
   -3.4777   21.9517  -31.1273 H   0  0  0  0  0  0  0  0  0  0  0  0
   -7.4356   20.3631  -31.1575 H   0  0  0  0  0  0  0  0  0  0  0  0
   -7.1252   18.4043  -32.9700 H   0  0  0  0  0  0  0  0  0  0  0  0
  1  2  1  0
  2  3  1  0
  3  4  2  0
  4  5  1  0
  5  6  2  0
  6  7  1  0
  7  8  2  0
  7  9  1  0
  9 10  1  0
 10 11  2  0
 11 12  1  0
 12 13  2  0
 13 14  1  0
 14 15  2  0
 14 16  1  0
 16 17  1  0
 17 18  1  0
 18 19  1  0
 18 20  1  0
  6 21  1  0
 21 22  2  0
 22 23  1  0
 23 24  1  0
 24 25  2  0
 25 26  1  0
 26 27  1  0
 22  3  1  0
 27 23  2  0
 15 10  1  0
 20 13  1  0
  1 28  1  0
  1 29  1  0
  1 30  1  0
  4 31  1  0
  5 32  1  0
 11 33  1  0
 12 34  1  0
 15 35  1  0
 16 36  1  0
 16 37  1  0
 17 38  1  0
 17 39  1  0
 18 40  1  1
 19 41  1  0
 19 42  1  0
 19 43  1  0
 20 44  1  0
 20 45  1  0
 21 46  1  0
 24 47  1  0
 25 48  1  0
M  CHG  3   9  -1  18   1  26  -1
M  END
>  <UniqueID>  (20) 
20

>  <SMILES>  (20) 
COc1ccc(C(=O)[N-]c2ccc3c(c2)CC[N@H+](C)C3)cc1-c1cc[n-]n1

>  <Energy>  (20) 
93.63362227256043

>  <Genealogy>  (20) 
COc1ccc(C(=O)[N-]c2ccc3c(c2)CC[NH+](C)C3)cc1-c1cc[n-]n1 (protonated)
COc1ccc(C(=O)[N-]c2ccc3c(c2)CC[N@H+](C)C3)cc1-c1cc[n-]n1 (chirality)
COc1ccc(C(=O)[N-]c2ccc3c(c2)CC[N@H+](C)C3)cc1-c1cc[n-]n1 (3D coordinates assigned)
COc1ccc(C(=O)[N-]c2ccc3c(c2)CC[N@H+](C)C3)cc1-c1cc[n-]n1 (nonaromatic ring conformer: 93.63362227256043 kcal/mol)

>  <smiles>  (20) 
COc1ccc(C(=O)Nc2ccc3c(c2)CCN(C)C3)cc1-c1cc[nH]n1

>  <score_type>  (20) 
oracle

>  <origin>  (20) 
adgpu

>  <m_score__min__energy>  (20) 
-10.19

>  <m_primary>  (20) 
energy

$$$$
20:0
     RDKit          3D

 30 31  0  0  0  0  0  0  0  0999 V2000
   -5.9570   18.4580  -34.2680 C   0  0  0  0  0  0  0  0  0  0  0  0
   -5.5280   19.2360  -33.0300 C   0  0  0  0  0  0  0  0  0  0  0  0
   -6.6930   19.9920  -32.4360 C   0  0  0  0  0  0  0  0  0  0  0  0
   -8.0010   19.5530  -32.7000 C   0  0  0  0  0  0  0  0  0  0  0  0
   -9.0980   20.2280  -32.1610 C   0  0  0  0  0  0  0  0  0  0  0  0
   -8.9010   21.3490  -31.3560 C   0  0  0  0  0  0  0  0  0  0  0  0
   -7.6070   21.7880  -31.0700 C   0  0  0  0  0  0  0  0  0  0  0  0
   -6.4900   21.0980  -31.5790 C   0  0  0  0  0  0  0  0  0  0  0  0
   -5.1520   21.5370  -31.2880 N   0  0  0  0  0  0  0  0  0  0  0  0
   -4.6990   22.8900  -31.1550 C   0  0  0  0  0  0  0  0  0  0  0  0
   -5.2460   23.7820  -31.8550 O   0  0  0  0  0  0  0  0  0  0  0  0
   -3.5520   23.2560  -30.2890 C   0  0  0  0  0  0  0  0  0  0  0  0
   -3.1710   24.6010  -30.0910 C   0  0  0  0  0  0  0  0  0  0  0  0
   -3.8890   25.6640  -30.6430 O   0  0  0  0  0  0  0  0  0  0  0  0
   -2.0900   24.8860  -29.3210 N   0  0  0  0  0  0  0  0  0  0  0  0
   -1.3680   23.9050  -28.7240 C   0  0  0  0  0  0  0  0  0  0  0  0
   -0.3740   24.2010  -28.0120 O   0  0  0  0  0  0  0  0  0  0  0  0
   -1.7180   22.6060  -28.8920 N   0  0  0  0  0  0  0  0  0  0  0  0
   -2.7830   22.2590  -29.6580 C   0  0  0  0  0  0  0  0  0  0  0  0
   -3.0590   21.0390  -29.8070 O   0  0  0  0  0  0  0  0  0  0  0  0
   -6.4671   17.5330  -33.9612 H   0  0  0  0  0  0  0  0  0  0  0  0
   -6.6433   19.0734  -34.8682 H   0  0  0  0  0  0  0  0  0  0  0  0
   -5.0703   18.2060  -34.8682 H   0  0  0  0  0  0  0  0  0  0  0  0
   -5.1360   18.5324  -32.2808 H   0  0  0  0  0  0  0  0  0  0  0  0
   -4.7524   19.9595  -33.3217 H   0  0  0  0  0  0  0  0  0  0  0  0
   -8.1623   18.6704  -33.3364 H   0  0  0  0  0  0  0  0  0  0  0  0
  -10.1183   19.8750  -32.3717 H   0  0  0  0  0  0  0  0  0  0  0  0
   -9.7670   21.8888  -30.9453 H   0  0  0  0  0  0  0  0  0  0  0  0
   -7.4589   22.6793  -30.4425 H   0  0  0  0  0  0  0  0  0  0  0  0
   -4.2160   25.6740  -31.5990 H   0  0  0  0  0  0  0  0  0  0  0  0
  1  2  1  0
  2  3  1  0
  3  4  2  0
  4  5  1  0
  5  6  2  0
  6  7  1  0
  7  8  2  0
  8  9  1  0
  9 10  1  0
 10 11  2  0
 10 12  1  0
 12 13  2  0
 13 14  1  0
 13 15  1  0
 15 16  1  0
 16 17  2  0
 16 18  1  0
 18 19  1  0
 19 20  2  0
  8  3  1  0
 19 12  1  0
  1 21  1  0
  1 22  1  0
  1 23  1  0
  2 24  1  0
  2 25  1  0
  4 26  1  0
  5 27  1  0
  6 28  1  0
  7 29  1  0
 14 30  1  0
M  CHG  3   9  -1  15  -1  18  -1
M  END
>  <UniqueID>  (21) 
21

>  <SMILES>  (21) 
CCc1ccccc1[N-]C(=O)c1c(O)[n-]c(=O)[n-]c1=O

>  <Energy>  (21) 
39.97917224200037

>  <Genealogy>  (21) 
CCc1ccccc1[N-]C(=O)c1c(O)[n-]c(=O)[n-]c1=O (protonated)
CCc1ccccc1[N-]C(=O)c1c(O)[n-]c(=O)[n-]c1=O (3D coordinates assigned)
CCc1ccccc1[N-]C(=O)c1c(O)[n-]c(=O)[n-]c1=O (optimized conformer: 39.97917224200037 kcal/mol)

>  <smiles>  (21) 
CCc1ccccc1NC(=O)c1c(O)[nH]c(=O)[nH]c1=O

>  <score_type>  (21) 
oracle

>  <origin>  (21) 
adgpu

>  <m_score__min__energy>  (21) 
-10.07

>  <m_primary>  (21) 
energy

$$$$
21:0
     RDKit          3D

 39 42  0  0  0  0  0  0  0  0999 V2000
   -9.2870   22.7900  -32.2140 O   0  0  0  0  0  0  0  0  0  0  0  0
   -8.4680   22.0700  -31.1790 S   0  0  0  0  0  0  0  0  0  0  0  0
   -9.2990   21.9420  -29.9320 O   0  0  0  0  0  0  0  0  0  0  0  0
   -7.0040   22.9820  -30.8330 C   0  0  0  0  0  0  0  0  0  0  0  0
   -6.1280   22.5520  -29.8260 C   0  0  0  0  0  0  0  0  0  0  0  0
   -4.9540   23.2630  -29.5650 C   0  0  0  0  0  0  0  0  0  0  0  0
   -4.6420   24.4070  -30.3140 C   0  0  0  0  0  0  0  0  0  0  0  0
   -3.4750   25.1250  -30.0630 O   0  0  0  0  0  0  0  0  0  0  0  0
   -5.5110   24.8310  -31.3250 C   0  0  0  0  0  0  0  0  0  0  0  0
   -6.6870   24.1210  -31.5870 C   0  0  0  0  0  0  0  0  0  0  0  0
   -8.0230   20.4740  -31.7660 C   0  0  0  0  0  0  0  0  0  0  0  0
   -8.9630   19.4140  -31.7260 C   0  0  0  0  0  0  0  0  0  0  0  0
   -8.6240   18.1370  -32.2100 C   0  0  0  0  0  0  0  0  0  0  0  0
   -7.3470   17.9570  -32.7360 C   0  0  0  0  0  0  0  0  0  0  0  0
   -6.8290   16.8510  -33.2260 O   0  0  0  0  0  0  0  0  0  0  0  0
   -5.5940   17.1360  -33.5980 C   0  0  0  0  0  0  0  0  0  0  0  0
   -5.3060   18.4700  -33.3650 C   0  0  0  0  0  0  0  0  0  0  0  0
   -6.4420   18.9880  -32.7900 C   0  0  0  0  0  0  0  0  0  0  0  0
   -6.7410   20.2620  -32.3120 C   0  0  0  0  0  0  0  0  0  0  0  0
   -3.9630   19.0970  -33.5810 C   0  0  0  0  0  0  0  0  0  0  0  0
   -3.1100   18.2190  -34.5160 C   0  0  0  0  0  0  0  0  0  0  0  0
   -3.1880   16.7260  -34.1290 C   0  0  0  0  0  0  0  0  0  0  0  0
   -4.6280   16.1820  -34.2280 C   0  0  0  0  0  0  0  0  0  0  0  0
   -6.3659   21.6521  -29.2398 H   0  0  0  0  0  0  0  0  0  0  0  0
   -4.2728   22.9248  -28.7703 H   0  0  0  0  0  0  0  0  0  0  0  0
   -3.5030   26.0770  -29.7190 H   0  0  0  0  0  0  0  0  0  0  0  0
   -5.2683   25.7263  -31.9162 H   0  0  0  0  0  0  0  0  0  0  0  0
   -7.3645   24.4566  -32.3860 H   0  0  0  0  0  0  0  0  0  0  0  0
   -9.9669   19.5913  -31.3127 H   0  0  0  0  0  0  0  0  0  0  0  0
   -9.3449   17.3069  -32.1741 H   0  0  0  0  0  0  0  0  0  0  0  0
   -6.0015   21.0750  -32.3591 H   0  0  0  0  0  0  0  0  0  0  0  0
   -4.0945   20.0902  -34.0351 H   0  0  0  0  0  0  0  0  0  0  0  0
   -3.4512   19.1918  -32.6119 H   0  0  0  0  0  0  0  0  0  0  0  0
   -3.4736   18.3391  -35.5472 H   0  0  0  0  0  0  0  0  0  0  0  0
   -2.0621   18.5414  -34.4265 H   0  0  0  0  0  0  0  0  0  0  0  0
   -2.5420   16.1485  -34.8067 H   0  0  0  0  0  0  0  0  0  0  0  0
   -2.8562   16.6261  -33.0850 H   0  0  0  0  0  0  0  0  0  0  0  0
   -4.8917   16.0468  -35.2873 H   0  0  0  0  0  0  0  0  0  0  0  0
   -4.6817   15.2198  -33.6977 H   0  0  0  0  0  0  0  0  0  0  0  0
  1  2  2  0
  2  3  2  0
  2  4  1  0
  4  5  2  0
  5  6  1  0
  6  7  2  0
  7  8  1  0
  7  9  1  0
  9 10  2  0
  2 11  1  0
 11 12  2  0
 12 13  1  0
 13 14  2  0
 14 15  1  0
 15 16  1  0
 16 17  2  0
 17 18  1  0
 18 19  2  0
 17 20  1  0
 20 21  1  0
 21 22  1  0
 22 23  1  0
 10  4  1  0
 19 11  1  0
 18 14  1  0
 23 16  1  0
  5 24  1  0
  6 25  1  0
  8 26  1  0
  9 27  1  0
 10 28  1  0
 12 29  1  0
 13 30  1  0
 19 31  1  0
 20 32  1  0
 20 33  1  0
 21 34  1  0
 21 35  1  0
 22 36  1  0
 22 37  1  0
 23 38  1  0
 23 39  1  0
M  END
>  <UniqueID>  (22) 
22

>  <SMILES>  (22) 
O=S(=O)(c1ccc(O)cc1)c1ccc2oc3c(c2c1)CCCC3

>  <Energy>  (22) 
77.71492927805546

>  <Genealogy>  (22) 
O=S(=O)(c1ccc(O)cc1)c1ccc2oc3c(c2c1)CCCC3 (3D coordinates assigned)
O=S(=O)(c1ccc(O)cc1)c1ccc2oc3c(c2c1)CCCC3 (nonaromatic ring conformer: 77.71492927805546 kcal/mol)

>  <smiles>  (22) 
O=S(=O)(c1ccc(O)cc1)c1ccc2oc3c(c2c1)CCCC3

>  <score_type>  (22) 
oracle

>  <origin>  (22) 
adgpu

>  <m_score__min__energy>  (22) 
-10.539999999999999

>  <m_primary>  (22) 
energy

$$$$
22:0
     RDKit          3D

 60 63  0  0  0  0  0  0  0  0999 V2000
   -1.5580   19.5210  -26.4810 C   0  0  0  0  0  0  0  0  0  0  0  0
   -1.7380   20.6980  -27.3910 C   0  0  0  0  0  0  0  0  0  0  0  0
   -1.7360   20.5210  -28.7800 C   0  0  0  0  0  0  0  0  0  0  0  0
   -1.9330   21.6140  -29.6280 C   0  0  0  0  0  0  0  0  0  0  0  0
   -2.1350   22.9040  -29.0980 C   0  0  0  0  0  0  0  0  0  0  0  0
   -2.3900   24.0290  -29.9530 N   0  0  0  0  0  0  0  0  0  0  0  0
   -3.6540   24.4410  -30.4920 C   0  0  0  0  0  0  0  0  0  0  0  0
   -3.9490   25.6690  -30.5370 O   0  0  0  0  0  0  0  0  0  0  0  0
   -4.6640   23.4280  -30.8800 C   0  0  0  0  0  0  0  0  0  0  0  0
   -4.2230   22.1660  -31.3120 C   0  0  0  0  0  0  0  0  0  0  0  0
   -5.1080   21.2430  -31.7720 N   0  0  0  0  0  0  0  0  0  0  0  0
   -6.4470   21.4810  -31.8150 C   0  0  0  0  0  0  0  0  0  0  0  0
   -7.2660   20.6150  -32.3350 N   0  0  0  0  0  0  0  0  0  0  0  0
   -6.8970   19.3260  -32.8540 C   0  0  0  0  0  0  0  0  0  0  0  0
   -5.7410   19.1780  -33.6440 C   0  0  0  0  0  0  0  0  0  0  0  0
   -5.3720   17.9170  -34.1430 C   0  0  0  0  0  0  0  0  0  0  0  0
   -4.1430   17.7540  -34.9510 C   0  0  0  0  0  0  0  0  0  0  0  0
   -4.1970   17.1830  -36.0760 O   0  0  0  0  0  0  0  0  0  0  0  0
   -2.8860   18.2280  -34.4570 N   0  0  0  0  0  0  0  0  0  0  0  0
   -2.6960   19.6010  -34.0050 C   0  0  0  0  0  0  0  0  0  0  0  0
   -1.2560   19.9080  -33.6310 C   0  0  0  0  0  0  0  0  0  0  0  0
   -2.3020   19.7140  -32.5410 C   0  0  0  0  0  0  0  0  0  0  0  0
   -6.1780   16.8020  -33.8470 C   0  0  0  0  0  0  0  0  0  0  0  0
   -7.3150   16.9400  -33.0490 C   0  0  0  0  0  0  0  0  0  0  0  0
   -7.6760   18.1950  -32.5350 C   0  0  0  0  0  0  0  0  0  0  0  0
   -8.8950   18.3250  -31.6630 C   0  0  0  0  0  0  0  0  0  0  0  0
   -6.9440   22.6980  -31.3480 C   0  0  0  0  0  0  0  0  0  0  0  0
   -6.0620   23.6800  -30.8620 C   0  0  0  0  0  0  0  0  0  0  0  0
   -6.6440   24.9660  -30.3350 C   0  0  0  0  0  0  0  0  0  0  0  0
   -2.1750   23.0790  -27.6990 C   0  0  0  0  0  0  0  0  0  0  0  0
   -2.4950   24.6750  -26.9950 S   0  0  0  0  0  0  0  0  0  0  0  0
   -4.2410   24.9440  -26.7220 C   0  0  0  0  0  0  0  0  0  0  0  0
   -1.9840   25.7380  -27.9310 O   0  0  0  0  0  0  0  0  0  0  0  0
   -1.7950   24.7910  -25.6700 O   0  0  0  0  0  0  0  0  0  0  0  0
   -1.9850   21.9710  -26.8560 C   0  0  0  0  0  0  0  0  0  0  0  0
   -1.6092   19.8555  -25.4344 H   0  0  0  0  0  0  0  0  0  0  0  0
   -2.3542   18.7860  -26.6703 H   0  0  0  0  0  0  0  0  0  0  0  0
   -0.5785   19.0575  -26.6703 H   0  0  0  0  0  0  0  0  0  0  0  0
   -1.5789   19.5186  -29.2049 H   0  0  0  0  0  0  0  0  0  0  0  0
   -1.9304   21.4663  -30.7180 H   0  0  0  0  0  0  0  0  0  0  0  0
   -3.1508   21.9226  -31.2776 H   0  0  0  0  0  0  0  0  0  0  0  0
   -5.1210   20.0574  -33.8727 H   0  0  0  0  0  0  0  0  0  0  0  0
   -3.4589   20.0724  -34.6420 H   0  0  0  0  0  0  0  0  0  0  0  0
   -0.4742   19.1496  -33.7844 H   0  0  0  0  0  0  0  0  0  0  0  0
   -0.5375   20.7004  -33.8876 H   0  0  0  0  0  0  0  0  0  0  0  0
   -2.2761   18.8154  -31.9071 H   0  0  0  0  0  0  0  0  0  0  0  0
   -2.6527   20.3078  -31.6840 H   0  0  0  0  0  0  0  0  0  0  0  0
   -5.9098   15.8134  -34.2478 H   0  0  0  0  0  0  0  0  0  0  0  0
   -7.9325   16.0586  -32.8214 H   0  0  0  0  0  0  0  0  0  0  0  0
   -8.5944   18.2929  -30.6054 H   0  0  0  0  0  0  0  0  0  0  0  0
   -9.3957   19.2816  -31.8730 H   0  0  0  0  0  0  0  0  0  0  0  0
   -9.5862   17.4955  -31.8730 H   0  0  0  0  0  0  0  0  0  0  0  0
   -8.0271   22.8899  -31.3599 H   0  0  0  0  0  0  0  0  0  0  0  0
   -6.6361   24.9485  -29.2352 H   0  0  0  0  0  0  0  0  0  0  0  0
   -6.0422   25.8145  -30.6925 H   0  0  0  0  0  0  0  0  0  0  0  0
   -7.6787   25.0739  -30.6925 H   0  0  0  0  0  0  0  0  0  0  0  0
   -4.4426   24.9751  -25.6411 H   0  0  0  0  0  0  0  0  0  0  0  0
   -4.5407   25.8989  -27.1785 H   0  0  0  0  0  0  0  0  0  0  0  0
   -4.8142   24.1236  -27.1785 H   0  0  0  0  0  0  0  0  0  0  0  0
   -2.0304   22.1033  -25.7649 H   0  0  0  0  0  0  0  0  0  0  0  0
  1  2  1  0
  2  3  2  0
  3  4  1  0
  4  5  2  0
  5  6  1  0
  6  7  1  0
  7  8  2  0
  7  9  1  0
  9 10  2  0
 10 11  1  0
 11 12  1  0
 12 13  2  3
 13 14  1  0
 14 15  2  0
 15 16  1  0
 16 17  1  0
 17 18  2  0
 17 19  1  0
 19 20  1  0
 20 21  1  0
 21 22  1  0
 16 23  2  0
 23 24  1  0
 24 25  2  0
 25 26  1  0
 12 27  1  0
 27 28  2  0
 28 29  1  0
  5 30  1  0
 30 31  1  0
 31 32  1  0
 31 33  2  0
 31 34  2  0
 30 35  2  0
 35  2  1  0
 28  9  1  0
 25 14  1  0
 22 20  1  0
  1 36  1  0
  1 37  1  0
  1 38  1  0
  3 39  1  0
  4 40  1  0
 10 41  1  0
 15 42  1  0
 20 43  1  0
 21 44  1  0
 21 45  1  0
 22 46  1  0
 22 47  1  0
 23 48  1  0
 24 49  1  0
 26 50  1  0
 26 51  1  0
 26 52  1  0
 27 53  1  0
 29 54  1  0
 29 55  1  0
 29 56  1  0
 32 57  1  0
 32 58  1  0
 32 59  1  0
 35 60  1  0
M  CHG  3   6  -1  11  -1  19  -1
M  END
>  <UniqueID>  (23) 
23

>  <SMILES>  (23) 
Cc1ccc([N-]C(=O)c2c[n-]c(=Nc3cc(C(=O)[N-]C4CC4)ccc3C)cc2C)c(S(C)(=O)=O)c1

>  <Energy>  (23) 
340.30556455313746

>  <Genealogy>  (23) 
Cc1ccc([N-]C(=O)c2c[n-]c(=Nc3cc(C(=O)[N-]C4CC4)ccc3C)cc2C)c(S(C)(=O)=O)c1 (protonated)
Cc1ccc([N-]C(=O)c2c[n-]c(=Nc3cc(C(=O)[N-]C4CC4)ccc3C)cc2C)c(S(C)(=O)=O)c1 (3D coordinates assigned)
Cc1ccc([N-]C(=O)c2c[n-]c(=Nc3cc(C(=O)[N-]C4CC4)ccc3C)cc2C)c(S(C)(=O)=O)c1 (nonaromatic ring conformer: 340.30556455313746 kcal/mol)

>  <smiles>  (23) 
Cc1ccc(NC(=O)c2c[nH]c(=Nc3cc(C(=O)NC4CC4)ccc3C)cc2C)c(S(C)(=O)=O)c1

>  <score_type>  (23) 
oracle

>  <origin>  (23) 
adgpu

>  <m_score__min__energy>  (23) 
-13.02

>  <m_primary>  (23) 
energy

$$$$
23:0
     RDKit          3D

 42 44  0  0  0  0  0  0  0  0999 V2000
   -4.0450   23.9440  -28.2330 C   0  0  0  0  0  0  0  0  0  0  0  0
   -3.1190   24.2800  -29.7130 S   0  0  0  0  0  0  0  0  0  0  0  0
   -1.7730   24.8440  -29.3510 O   0  0  0  0  0  0  0  0  0  0  0  0
   -3.8570   25.2900  -30.5460 O   0  0  0  0  0  0  0  0  0  0  0  0
   -2.9120   22.7870  -30.6200 C   0  0  0  0  0  0  0  0  0  0  0  0
   -1.6380   22.2290  -30.7830 C   0  0  0  0  0  0  0  0  0  0  0  0
   -1.4760   21.0610  -31.5300 C   0  0  0  0  0  0  0  0  0  0  0  0
   -2.5810   20.4480  -32.1240 C   0  0  0  0  0  0  0  0  0  0  0  0
   -3.8680   20.9950  -31.9760 C   0  0  0  0  0  0  0  0  0  0  0  0
   -5.0230   20.3530  -32.6460 C   0  0  0  0  0  0  0  0  0  0  0  0
   -5.0210   19.6740  -33.8520 C   0  0  0  0  0  0  0  0  0  0  0  0
   -6.2470   19.1690  -34.0510 N   0  0  0  0  0  0  0  0  0  0  0  0
   -6.9650   19.5440  -32.9750 C   0  0  0  0  0  0  0  0  0  0  0  0
   -8.3750   19.1050  -32.7230 C   0  0  0  0  0  0  0  0  0  0  0  0
   -8.8860   19.6700  -31.4640 N   0  0  0  0  0  0  0  0  0  0  0  0
   -9.4760   21.0100  -31.6380 C   0  0  0  0  0  0  0  0  0  0  0  0
   -8.4690   22.0850  -31.3230 C   0  0  0  0  0  0  0  0  0  0  0  0
   -7.9350   22.8810  -32.3480 C   0  0  0  0  0  0  0  0  0  0  0  0
   -6.9510   23.8280  -32.0570 C   0  0  0  0  0  0  0  0  0  0  0  0
   -6.5140   23.9780  -30.7390 C   0  0  0  0  0  0  0  0  0  0  0  0
   -7.0510   23.2110  -29.7530 N   0  0  0  0  0  0  0  0  0  0  0  0
   -8.0100   22.2820  -30.0110 C   0  0  0  0  0  0  0  0  0  0  0  0
   -6.2540   20.2790  -32.0960 N   0  0  0  0  0  0  0  0  0  0  0  0
   -4.0220   22.1730  -31.2200 C   0  0  0  0  0  0  0  0  0  0  0  0
   -3.4244   24.1692  -27.3531 H   0  0  0  0  0  0  0  0  0  0  0  0
   -4.9481   24.5717  -28.2151 H   0  0  0  0  0  0  0  0  0  0  0  0
   -4.3354   22.8832  -28.2151 H   0  0  0  0  0  0  0  0  0  0  0  0
   -0.7638   22.7117  -30.3218 H   0  0  0  0  0  0  0  0  0  0  0  0
   -0.4746   20.6221  -31.6511 H   0  0  0  0  0  0  0  0  0  0  0  0
   -2.4436   19.5291  -32.7129 H   0  0  0  0  0  0  0  0  0  0  0  0
   -4.1617   19.5671  -34.5303 H   0  0  0  0  0  0  0  0  0  0  0  0
   -6.5620   18.5780  -34.8520 H   0  0  0  0  0  0  0  0  0  0  0  0
   -9.0113   19.4439  -33.5538 H   0  0  0  0  0  0  0  0  0  0  0  0
   -8.3923   18.0077  -32.6473 H   0  0  0  0  0  0  0  0  0  0  0  0
   -8.0670   19.7730  -30.8190 H   0  0  0  0  0  0  0  0  0  0  0  0
   -9.8106   21.1238  -32.6797 H   0  0  0  0  0  0  0  0  0  0  0  0
  -10.3268   21.1120  -30.9482 H   0  0  0  0  0  0  0  0  0  0  0  0
   -8.2918   22.7588  -33.3813 H   0  0  0  0  0  0  0  0  0  0  0  0
   -6.5243   24.4497  -32.8579 H   0  0  0  0  0  0  0  0  0  0  0  0
   -5.7353   24.7168  -30.4986 H   0  0  0  0  0  0  0  0  0  0  0  0
   -8.4276   21.6827  -29.1886 H   0  0  0  0  0  0  0  0  0  0  0  0
   -5.0215   22.6159  -31.0987 H   0  0  0  0  0  0  0  0  0  0  0  0
  1  2  1  0
  2  3  2  0
  2  4  2  0
  2  5  1  0
  5  6  2  0
  6  7  1  0
  7  8  2  0
  8  9  1  0
  9 10  1  0
 10 11  2  0
 11 12  1  0
 12 13  1  0
 13 14  1  0
 14 15  1  0
 15 16  1  0
 16 17  1  0
 17 18  2  0
 18 19  1  0
 19 20  2  0
 20 21  1  0
 21 22  2  0
 13 23  2  0
  9 24  2  0
 24  5  1  0
 23 10  1  0
 22 17  1  0
  1 25  1  0
  1 26  1  0
  1 27  1  0
  6 28  1  0
  7 29  1  0
  8 30  1  0
 11 31  1  0
 12 32  1  0
 14 33  1  0
 14 34  1  0
 15 35  1  0
 16 36  1  0
 16 37  1  0
 18 38  1  0
 19 39  1  0
 20 40  1  0
 22 41  1  0
 24 42  1  0
M  END
>  <UniqueID>  (24) 
24

>  <SMILES>  (24) 
CS(=O)(=O)c1cccc(-c2c[nH]c(CNCc3cccnc3)n2)c1

>  <Energy>  (24) 
68.01379243494314

>  <Genealogy>  (24) 
CS(=O)(=O)c1cccc(-c2c[nH]c(CNCc3cccnc3)n2)c1 (3D coordinates assigned)
CS(=O)(=O)c1cccc(-c2c[nH]c(CNCc3cccnc3)n2)c1 (optimized conformer: 68.01379243494314 kcal/mol)

>  <smiles>  (24) 
CS(=O)(=O)c1cccc(-c2c[nH]c(CNCc3cccnc3)n2)c1

>  <score_type>  (24) 
oracle

>  <origin>  (24) 
adgpu

>  <m_score__min__energy>  (24) 
-8.7200000000000006

>  <m_primary>  (24) 
energy

$$$$
24:0
     RDKit          3D

 51 53  0  0  0  0  0  0  0  0999 V2000
   -7.6160   20.3800  -33.8560 O   0  0  0  0  0  0  0  0  0  0  0  0
   -7.6340   19.4020  -32.7160 S   0  0  0  0  0  0  0  0  0  0  0  0
   -8.9870   18.7500  -32.6770 O   0  0  0  0  0  0  0  0  0  0  0  0
   -7.3730   20.2540  -31.2240 N   0  0  0  0  0  0  0  0  0  0  0  0
   -8.4580   21.2150  -31.0090 C   0  0  0  0  0  0  0  0  0  0  0  0
   -7.9170   22.6490  -30.9910 C   0  0  0  0  0  0  0  0  0  0  0  0
   -6.9170   22.9000  -32.1290 C   0  0  0  0  0  0  0  0  0  0  0  0
   -5.8260   23.7890  -31.6720 N   0  0  0  0  0  0  0  0  0  0  0  0
   -4.6880   22.9980  -31.1610 C   0  0  0  0  0  0  0  0  0  0  0  0
   -3.6630   23.8980  -30.4420 C   0  0  0  0  0  0  0  0  0  0  0  0
   -3.8900   25.2590  -30.7430 O   0  0  0  0  0  0  0  0  0  0  0  0
   -5.1400   25.6660  -30.2140 C   0  0  0  0  0  0  0  0  0  0  0  0
   -6.2900   24.7240  -30.6290 C   0  0  0  0  0  0  0  0  0  0  0  0
   -6.4140   18.1420  -32.9130 C   0  0  0  0  0  0  0  0  0  0  0  0
   -6.8090   16.5620  -33.3300 S   0  0  0  0  0  0  0  0  0  0  0  0
   -5.2410   15.9650  -33.2910 C   0  0  0  0  0  0  0  0  0  0  0  0
   -4.7460   14.1610  -33.6520 Br  0  0  0  0  0  0  0  0  0  0  0  0
   -4.3790   16.9920  -32.9460 C   0  0  0  0  0  0  0  0  0  0  0  0
   -5.0260   18.2180  -32.7320 C   0  0  0  0  0  0  0  0  0  0  0  0
   -4.1350   19.6660  -32.2660 S   0  0  0  0  0  0  0  0  0  0  0  0
   -4.5230   20.0450  -30.8640 O   0  0  0  0  0  0  0  0  0  0  0  0
   -4.5030   20.7980  -33.1850 O   0  0  0  0  0  0  0  0  0  0  0  0
   -2.4130   19.3600  -32.3600 N   0  0  0  0  0  0  0  0  0  0  0  0
   -1.9590   19.3980  -33.7540 C   0  0  0  0  0  0  0  0  0  0  0  0
   -1.4720   20.8080  -34.0560 C   0  0  0  0  0  0  0  0  0  0  0  0
   -1.2900   21.4750  -32.7050 C   0  0  0  0  0  0  0  0  0  0  0  0
   -1.6640   20.4190  -31.6760 C   0  0  0  0  0  0  0  0  0  0  0  0
   -6.4790   20.7870  -31.3330 H   0  0  0  0  0  0  0  0  0  0  0  0
   -9.1934   21.1168  -31.8212 H   0  0  0  0  0  0  0  0  0  0  0  0
   -8.9303   21.0033  -30.0384 H   0  0  0  0  0  0  0  0  0  0  0  0
   -8.7596   23.3480  -31.0978 H   0  0  0  0  0  0  0  0  0  0  0  0
   -7.3918   22.8024  -30.0367 H   0  0  0  0  0  0  0  0  0  0  0  0
   -6.4897   21.9399  -32.4541 H   0  0  0  0  0  0  0  0  0  0  0  0
   -7.4432   23.3829  -32.9656 H   0  0  0  0  0  0  0  0  0  0  0  0
   -5.0636   22.2448  -30.4527 H   0  0  0  0  0  0  0  0  0  0  0  0
   -4.1893   22.5134  -32.0134 H   0  0  0  0  0  0  0  0  0  0  0  0
   -3.7525   23.7494  -29.3558 H   0  0  0  0  0  0  0  0  0  0  0  0
   -2.6539   23.6254  -30.7848 H   0  0  0  0  0  0  0  0  0  0  0  0
   -5.0719   25.6778  -29.1162 H   0  0  0  0  0  0  0  0  0  0  0  0
   -5.3642   26.6655  -30.6150 H   0  0  0  0  0  0  0  0  0  0  0  0
   -6.6273   24.1526  -29.7516 H   0  0  0  0  0  0  0  0  0  0  0  0
   -7.1221   25.3238  -31.0264 H   0  0  0  0  0  0  0  0  0  0  0  0
   -3.2913   16.8593  -32.8490 H   0  0  0  0  0  0  0  0  0  0  0  0
   -1.1371   18.6812  -33.8979 H   0  0  0  0  0  0  0  0  0  0  0  0
   -2.7833   19.1272  -34.4301 H   0  0  0  0  0  0  0  0  0  0  0  0
   -0.5166   20.7759  -34.6002 H   0  0  0  0  0  0  0  0  0  0  0  0
   -2.1843   21.3578  -34.6887 H   0  0  0  0  0  0  0  0  0  0  0  0
   -0.2449   21.7903  -32.5697 H   0  0  0  0  0  0  0  0  0  0  0  0
   -1.9122   22.3770  -32.6084 H   0  0  0  0  0  0  0  0  0  0  0  0
   -0.7529   19.9992  -31.2248 H   0  0  0  0  0  0  0  0  0  0  0  0
   -2.2770   20.8647  -30.8788 H   0  0  0  0  0  0  0  0  0  0  0  0
  1  2  2  0
  2  3  2  0
  2  4  1  0
  4  5  1  0
  5  6  1  0
  6  7  1  0
  7  8  1  0
  8  9  1  0
  9 10  1  0
 10 11  1  0
 11 12  1  0
 12 13  1  0
  2 14  1  0
 14 15  1  0
 15 16  1  0
 16 17  1  0
 16 18  2  0
 18 19  1  0
 19 20  1  0
 20 21  2  0
 20 22  2  0
 20 23  1  0
 23 24  1  0
 24 25  1  0
 25 26  1  0
 26 27  1  0
 13  8  1  0
 19 14  2  0
 27 23  1  0
  4 28  1  0
  5 29  1  0
  5 30  1  0
  6 31  1  0
  6 32  1  0
  7 33  1  0
  7 34  1  0
  9 35  1  0
  9 36  1  0
 10 37  1  0
 10 38  1  0
 12 39  1  0
 12 40  1  0
 13 41  1  0
 13 42  1  0
 18 43  1  0
 24 44  1  0
 24 45  1  0
 25 46  1  0
 25 47  1  0
 26 48  1  0
 26 49  1  0
 27 50  1  0
 27 51  1  0
M  END
>  <UniqueID>  (25) 
25

>  <SMILES>  (25) 
O=S(=O)(NCCCN1CCOCC1)c1sc(Br)cc1S(=O)(=O)N1CCCC1

>  <Energy>  (25) 
81.19813536815583

>  <Genealogy>  (25) 
O=S(=O)(NCCCN1CCOCC1)c1sc(Br)cc1S(=O)(=O)N1CCCC1 (3D coordinates assigned)
O=S(=O)(NCCCN1CCOCC1)c1sc(Br)cc1S(=O)(=O)N1CCCC1 (nonaromatic ring conformer: 81.19813536815583 kcal/mol)

>  <smiles>  (25) 
O=S(=O)(NCCCN1CCOCC1)c1sc(Br)cc1S(=O)(=O)N1CCCC1

>  <score_type>  (25) 
oracle

>  <origin>  (25) 
adgpu

>  <m_score__min__energy>  (25) 
-9.9199999999999999

>  <m_primary>  (25) 
energy

$$$$
25:0
     RDKit          3D

 26 27  0  0  0  0  0  0  0  0999 V2000
   -6.3480   25.6680  -29.6240 O   0  0  0  0  0  0  0  0  0  0  0  0
   -5.4180   24.5530  -30.0140 S   0  0  0  0  0  0  0  0  0  0  0  0
   -4.3450   25.0740  -30.9300 O   0  0  0  0  0  0  0  0  0  0  0  0
   -4.7130   23.8540  -28.5920 N   0  0  0  0  0  0  0  0  0  0  0  0
   -3.3880   23.3200  -28.4310 C   0  0  0  0  0  0  0  0  0  0  0  0
   -3.2750   22.0410  -27.8660 C   0  0  0  0  0  0  0  0  0  0  0  0
   -2.0250   21.4490  -27.6770 C   0  0  0  0  0  0  0  0  0  0  0  0
   -0.8670   22.1300  -28.0500 C   0  0  0  0  0  0  0  0  0  0  0  0
   -0.9570   23.4070  -28.6070 C   0  0  0  0  0  0  0  0  0  0  0  0
   -2.2090   24.0160  -28.7970 C   0  0  0  0  0  0  0  0  0  0  0  0
   -2.2590   25.2980  -29.3360 O   0  0  0  0  0  0  0  0  0  0  0  0
   -6.3280   23.3140  -30.8590 C   0  0  0  0  0  0  0  0  0  0  0  0
   -5.7610   22.6400  -31.9470 C   0  0  0  0  0  0  0  0  0  0  0  0
   -6.5040   21.6580  -32.6040 C   0  0  0  0  0  0  0  0  0  0  0  0
   -7.7980   21.3600  -32.1720 C   0  0  0  0  0  0  0  0  0  0  0  0
   -8.3310   22.0540  -31.0840 C   0  0  0  0  0  0  0  0  0  0  0  0
   -7.5920   23.0080  -30.4560 N   0  0  0  0  0  0  0  0  0  0  0  0
   -4.1836   21.4973  -27.5679 H   0  0  0  0  0  0  0  0  0  0  0  0
   -1.9536   20.4448  -27.2336 H   0  0  0  0  0  0  0  0  0  0  0  0
    0.1175   21.6611  -27.9054 H   0  0  0  0  0  0  0  0  0  0  0  0
   -0.0406   23.9406  -28.8994 H   0  0  0  0  0  0  0  0  0  0  0  0
   -3.1080   25.6750  -29.7410 H   0  0  0  0  0  0  0  0  0  0  0  0
   -4.7410   22.8817  -32.2805 H   0  0  0  0  0  0  0  0  0  0  0  0
   -6.0712   21.1200  -33.4603 H   0  0  0  0  0  0  0  0  0  0  0  0
   -8.3908   20.5871  -32.6831 H   0  0  0  0  0  0  0  0  0  0  0  0
   -9.3494   21.8291  -30.7343 H   0  0  0  0  0  0  0  0  0  0  0  0
  1  2  2  0
  2  3  2  0
  2  4  1  0
  4  5  1  0
  5  6  2  0
  6  7  1  0
  7  8  2  0
  8  9  1  0
  9 10  2  0
 10 11  1  0
  2 12  1  0
 12 13  2  0
 13 14  1  0
 14 15  2  0
 15 16  1  0
 16 17  2  0
 10  5  1  0
 17 12  1  0
  6 18  1  0
  7 19  1  0
  8 20  1  0
  9 21  1  0
 11 22  1  0
 13 23  1  0
 14 24  1  0
 15 25  1  0
 16 26  1  0
M  CHG  1   4  -1
M  END
>  <UniqueID>  (26) 
26

>  <SMILES>  (26) 
O=S(=O)([N-]c1ccccc1O)c1ccccn1

>  <Energy>  (26) 
34.389362335801884

>  <Genealogy>  (26) 
O=S(=O)([N-]c1ccccc1O)c1ccccn1 (protonated)
O=S(=O)([N-]c1ccccc1O)c1ccccn1 (3D coordinates assigned)
O=S(=O)([N-]c1ccccc1O)c1ccccn1 (optimized conformer: 34.389362335801884 kcal/mol)

>  <smiles>  (26) 
O=S(=O)(Nc1ccccc1O)c1ccccn1

>  <score_type>  (26) 
oracle

>  <origin>  (26) 
adgpu

>  <m_score__min__energy>  (26) 
-8.9900000000000002

>  <m_primary>  (26) 
energy

$$$$
26:0
     RDKit          3D

 22 23  0  0  0  0  0  0  0  0999 V2000
   -9.1870   18.2060  -31.5060 O   0  0  0  0  0  0  0  0  0  0  0  0
   -8.3520   18.9860  -32.0350 C   0  0  0  0  0  0  0  0  0  0  0  0
   -8.3820   20.3510  -31.7410 C   0  0  0  0  0  0  0  0  0  0  0  0
   -7.4420   21.1910  -32.3570 C   0  0  0  0  0  0  0  0  0  0  0  0
   -7.3930   22.5990  -32.0760 N   0  0  0  0  0  0  0  0  0  0  0  0
   -6.2640   23.2780  -31.5000 C   0  0  0  0  0  0  0  0  0  0  0  0
   -6.4120   24.5970  -31.0440 C   0  0  0  0  0  0  0  0  0  0  0  0
   -5.3360   25.2670  -30.4560 C   0  0  0  0  0  0  0  0  0  0  0  0
   -4.1060   24.6210  -30.3030 C   0  0  0  0  0  0  0  0  0  0  0  0
   -3.0410   25.2980  -29.7180 O   0  0  0  0  0  0  0  0  0  0  0  0
   -3.9530   23.2960  -30.7330 C   0  0  0  0  0  0  0  0  0  0  0  0
   -2.4200   22.4610  -30.5310 Cl  0  0  0  0  0  0  0  0  0  0  0  0
   -5.0310   22.6250  -31.3210 C   0  0  0  0  0  0  0  0  0  0  0  0
   -6.5110   20.6500  -33.1890 N   0  0  0  0  0  0  0  0  0  0  0  0
   -6.4970   19.3190  -33.4600 C   0  0  0  0  0  0  0  0  0  0  0  0
   -5.6320   18.8460  -34.2420 O   0  0  0  0  0  0  0  0  0  0  0  0
   -7.4150   18.4970  -32.8870 N   0  0  0  0  0  0  0  0  0  0  0  0
   -9.1266   20.7588  -31.0415 H   0  0  0  0  0  0  0  0  0  0  0  0
   -8.2420   23.1640  -32.3030 H   0  0  0  0  0  0  0  0  0  0  0  0
   -7.3811   25.1065  -31.1501 H   0  0  0  0  0  0  0  0  0  0  0  0
   -5.4572   26.3050  -30.1128 H   0  0  0  0  0  0  0  0  0  0  0  0
   -4.9135   21.5805  -31.6452 H   0  0  0  0  0  0  0  0  0  0  0  0
  1  2  2  0
  2  3  1  0
  3  4  2  0
  4  5  1  0
  5  6  1  0
  6  7  2  0
  7  8  1  0
  8  9  2  0
  9 10  1  0
  9 11  1  0
 11 12  1  0
 11 13  2  0
  4 14  1  0
 14 15  1  0
 15 16  2  0
 15 17  1  0
 17  2  1  0
 13  6  1  0
  3 18  1  0
  5 19  1  0
  7 20  1  0
  8 21  1  0
 13 22  1  0
M  CHG  3  10  -1  14  -1  17  -1
M  END
>  <UniqueID>  (27) 
27

>  <SMILES>  (27) 
O=c1cc(Nc2ccc([O-])c(Cl)c2)[n-]c(=O)[n-]1

>  <Energy>  (27) 
29.765774709878563

>  <Genealogy>  (27) 
O=c1cc(Nc2ccc([O-])c(Cl)c2)[n-]c(=O)[n-]1 (protonated)
O=c1cc(Nc2ccc([O-])c(Cl)c2)[n-]c(=O)[n-]1 (3D coordinates assigned)
O=c1cc(Nc2ccc([O-])c(Cl)c2)[n-]c(=O)[n-]1 (optimized conformer: 29.765774709878563 kcal/mol)

>  <smiles>  (27) 
O=c1cc(Nc2ccc(O)c(Cl)c2)[nH]c(=O)[nH]1

>  <score_type>  (27) 
oracle

>  <origin>  (27) 
adgpu

>  <m_score__min__energy>  (27) 
-9.5299999999999994

>  <m_primary>  (27) 
energy

$$$$
27:0
     RDKit          3D

 64 68  0  0  0  0  0  0  0  0999 V2000
   -2.3930   20.1800  -27.1760 C   0  0  0  0  0  0  0  0  0  0  0  0
   -1.5050   19.9760  -28.3510 C   0  0  0  0  0  0  0  0  0  0  0  0
   -0.8620   18.8160  -28.5700 N   0  0  0  0  0  0  0  0  0  0  0  0
   -0.0680   18.6550  -29.6360 C   0  0  0  0  0  0  0  0  0  0  0  0
    0.5300   17.5280  -29.8080 N   0  0  0  0  0  0  0  0  0  0  0  0
    0.1150   19.6510  -30.5270 N   0  0  0  0  0  0  0  0  0  0  0  0
   -0.4970   20.8380  -30.3700 C   0  0  0  0  0  0  0  0  0  0  0  0
   -0.3300   21.8080  -31.2220 N   0  0  0  0  0  0  0  0  0  0  0  0
   -1.3220   20.9980  -29.2610 C   0  0  0  0  0  0  0  0  0  0  0  0
   -1.9750   22.2980  -29.1160 C   0  0  0  0  0  0  0  0  0  0  0  0
   -1.4750   23.2770  -28.2820 C   0  0  0  0  0  0  0  0  0  0  0  0
   -2.0770   24.5150  -28.1280 C   0  0  0  0  0  0  0  0  0  0  0  0
   -1.5460   25.5190  -27.2600 N   0  0  0  0  0  0  0  0  0  0  0  0
   -0.6200   26.4590  -27.8420 C   0  0  0  0  0  0  0  0  0  0  0  0
   -0.1430   27.5290  -26.9250 C   0  0  0  0  0  0  0  0  0  0  0  0
   -0.2490   27.2000  -25.5340 N   0  0  0  0  0  0  0  0  0  0  0  0
    0.7060   26.1620  -25.1910 C   0  0  0  0  0  0  0  0  0  0  0  0
   -1.6040   26.7960  -25.2080 C   0  0  0  0  0  0  0  0  0  0  0  0
   -1.9780   25.5030  -25.8920 C   0  0  0  0  0  0  0  0  0  0  0  0
   -3.2040   24.7110  -28.8560 N   0  0  0  0  0  0  0  0  0  0  0  0
   -3.7260   23.7860  -29.6790 C   0  0  0  0  0  0  0  0  0  0  0  0
   -3.1260   22.5520  -29.8320 C   0  0  0  0  0  0  0  0  0  0  0  0
   -3.7140   21.5590  -30.7370 C   0  0  0  0  0  0  0  0  0  0  0  0
   -3.1740   20.4340  -30.8820 O   0  0  0  0  0  0  0  0  0  0  0  0
   -4.9040   21.9150  -31.4350 N   0  0  0  0  0  0  0  0  0  0  0  0
   -5.1950   21.2470  -32.6900 C   0  0  0  0  0  0  0  0  0  0  0  0
   -6.3750   20.3660  -32.4220 C   0  0  0  0  0  0  0  0  0  0  0  0
   -7.6680   20.8670  -32.3830 C   0  0  0  0  0  0  0  0  0  0  0  0
   -8.7120   19.9860  -32.1280 C   0  0  0  0  0  0  0  0  0  0  0  0
   -8.4970   18.6340  -31.9130 C   0  0  0  0  0  0  0  0  0  0  0  0
   -7.1920   18.1430  -31.9540 C   0  0  0  0  0  0  0  0  0  0  0  0
   -6.1540   19.0220  -32.2080 C   0  0  0  0  0  0  0  0  0  0  0  0
   -5.7490   22.9220  -30.8480 C   0  0  0  0  0  0  0  0  0  0  0  0
   -4.9710   24.1420  -30.4160 C   0  0  0  0  0  0  0  0  0  0  0  0
   -1.8132   20.0468  -26.2507 H   0  0  0  0  0  0  0  0  0  0  0  0
   -2.8103   21.1974  -27.2040 H   0  0  0  0  0  0  0  0  0  0  0  0
   -3.2125   19.4467  -27.2040 H   0  0  0  0  0  0  0  0  0  0  0  0
   -0.9970   18.0320  -27.8800 H   0  0  0  0  0  0  0  0  0  0  0  0
    1.1670   17.3430  -30.6260 H   0  0  0  0  0  0  0  0  0  0  0  0
    0.7420   19.5010  -31.3530 H   0  0  0  0  0  0  0  0  0  0  0  0
    0.3230   21.5570  -32.0230 H   0  0  0  0  0  0  0  0  0  0  0  0
   -0.5572   23.0648  -27.7140 H   0  0  0  0  0  0  0  0  0  0  0  0
    0.2575   25.8977  -28.1955 H   0  0  0  0  0  0  0  0  0  0  0  0
   -1.1689   26.9694  -28.6471 H   0  0  0  0  0  0  0  0  0  0  0  0
    0.9140   27.7322  -27.1520 H   0  0  0  0  0  0  0  0  0  0  0  0
   -0.7903   28.4022  -27.0939 H   0  0  0  0  0  0  0  0  0  0  0  0
    0.7813   26.0802  -24.0966 H   0  0  0  0  0  0  0  0  0  0  0  0
    0.3692   25.2015  -25.6082 H   0  0  0  0  0  0  0  0  0  0  0  0
    1.6912   26.4177  -25.6082 H   0  0  0  0  0  0  0  0  0  0  0  0
   -1.6839   26.6601  -24.1194 H   0  0  0  0  0  0  0  0  0  0  0  0
   -2.2907   27.5812  -25.5572 H   0  0  0  0  0  0  0  0  0  0  0  0
   -1.4961   24.6636  -25.3693 H   0  0  0  0  0  0  0  0  0  0  0  0
   -3.0715   25.3872  -25.8640 H   0  0  0  0  0  0  0  0  0  0  0  0
   -5.4375   21.9849  -33.4689 H   0  0  0  0  0  0  0  0  0  0  0  0
   -4.3316   20.6675  -33.0487 H   0  0  0  0  0  0  0  0  0  0  0  0
   -7.8624   21.9367  -32.5500 H   0  0  0  0  0  0  0  0  0  0  0  0
   -9.7409   20.3738  -32.0958 H   0  0  0  0  0  0  0  0  0  0  0  0
   -9.3420   17.9587  -31.7132 H   0  0  0  0  0  0  0  0  0  0  0  0
   -6.9914   17.0744  -31.7871 H   0  0  0  0  0  0  0  0  0  0  0  0
   -5.1238   18.6378  -32.2401 H   0  0  0  0  0  0  0  0  0  0  0  0
   -6.5028   23.2271  -31.5888 H   0  0  0  0  0  0  0  0  0  0  0  0
   -6.2183   22.4877  -29.9529 H   0  0  0  0  0  0  0  0  0  0  0  0
   -4.6994   24.7232  -31.3095 H   0  0  0  0  0  0  0  0  0  0  0  0
   -5.6095   24.7255  -29.7365 H   0  0  0  0  0  0  0  0  0  0  0  0
  1  2  1  0
  2  3  1  0
  3  4  1  0
  4  5  2  3
  4  6  1  0
  6  7  1  0
  7  8  2  3
  7  9  1  0
  9 10  1  0
 10 11  2  0
 11 12  1  0
 12 13  1  0
 13 14  1  0
 14 15  1  0
 15 16  1  0
 16 17  1  0
 16 18  1  0
 18 19  1  0
 12 20  2  0
 20 21  1  0
 21 22  2  0
 22 23  1  0
 23 24  2  0
 23 25  1  0
 25 26  1  0
 26 27  1  0
 27 28  2  0
 28 29  1  0
 29 30  2  0
 30 31  1  0
 31 32  2  0
 25 33  1  0
 33 34  1  0
  9  2  2  0
 22 10  1  0
 32 27  1  0
 19 13  1  0
 34 21  1  0
  1 35  1  0
  1 36  1  0
  1 37  1  0
  3 38  1  0
  5 39  1  0
  6 40  1  0
  8 41  1  0
 11 42  1  0
 14 43  1  0
 14 44  1  0
 15 45  1  0
 15 46  1  0
 17 47  1  0
 17 48  1  0
 17 49  1  0
 18 50  1  0
 18 51  1  0
 19 52  1  0
 19 53  1  0
 26 54  1  0
 26 55  1  0
 28 56  1  0
 29 57  1  0
 30 58  1  0
 31 59  1  0
 32 60  1  0
 33 61  1  0
 33 62  1  0
 34 63  1  0
 34 64  1  0
M  END
>  <smiles>  (28) 
Cc1[nH]c(=N)[nH]c(=N)c1-c1cc(N2CCN(C)CC2)nc2c1C(=O)N(Cc1ccccc1)CC2

>  <score_type>  (28) 
oracle

>  <origin>  (28) 
adgpu

>  <m_score__min__energy>  (28) 
-8.8599999999999994

>  <m_primary>  (28) 
energy

$$$$
28:0
     RDKit          3D

 63 66  0  0  0  0  0  0  0  0999 V2000
    0.6420   14.2300  -35.0820 C   0  0  0  0  0  0  0  0  0  0  0  0
   -0.4820   15.1630  -34.9950 N   0  0  0  0  0  0  0  0  0  0  0  0
   -0.2480   16.5810  -34.9760 C   0  0  0  0  0  0  0  0  0  0  0  0
   -0.5000   17.3280  -33.8120 C   0  0  0  0  0  0  0  0  0  0  0  0
   -0.2690   18.7080  -33.7930 C   0  0  0  0  0  0  0  0  0  0  0  0
    0.2120   19.3550  -34.9390 C   0  0  0  0  0  0  0  0  0  0  0  0
    0.4530   20.7750  -34.9170 C   0  0  0  0  0  0  0  0  0  0  0  0
    0.6480   21.9170  -34.8990 N   0  0  0  0  0  0  0  0  0  0  0  0
    0.4590   18.6170  -36.1030 C   0  0  0  0  0  0  0  0  0  0  0  0
    0.2290   17.2380  -36.1220 C   0  0  0  0  0  0  0  0  0  0  0  0
   -2.1030   14.5350  -34.9270 S   0  0  0  0  0  0  0  0  0  0  0  0
   -2.2200   13.5010  -33.8400 O   0  0  0  0  0  0  0  0  0  0  0  0
   -2.4480   13.8920  -36.2410 O   0  0  0  0  0  0  0  0  0  0  0  0
   -3.2110   15.8530  -34.5690 C   0  0  0  0  0  0  0  0  0  0  0  0
   -3.6160   16.0800  -33.2500 C   0  0  0  0  0  0  0  0  0  0  0  0
   -4.4720   17.1420  -32.9470 C   0  0  0  0  0  0  0  0  0  0  0  0
   -4.9250   18.0050  -33.9610 C   0  0  0  0  0  0  0  0  0  0  0  0
   -5.8270   19.1340  -33.6270 C   0  0  0  0  0  0  0  0  0  0  0  0
   -6.4780   19.7000  -34.5480 O   0  0  0  0  0  0  0  0  0  0  0  0
   -6.0030   19.5640  -32.2670 N   0  0  0  0  0  0  0  0  0  0  0  0
   -6.6230   20.8140  -31.9270 C   0  0  0  0  0  0  0  0  0  0  0  0
   -5.8830   21.7950  -31.2430 C   0  0  0  0  0  0  0  0  0  0  0  0
   -6.4760   23.0040  -30.8640 C   0  0  0  0  0  0  0  0  0  0  0  0
   -5.5180   24.2180  -30.0190 S   0  0  0  0  0  0  0  0  0  0  0  0
   -6.4580   25.2350  -29.4330 O   0  0  0  0  0  0  0  0  0  0  0  0
   -4.6090   24.9180  -30.9910 O   0  0  0  0  0  0  0  0  0  0  0  0
   -4.5890   23.4810  -28.7290 N   0  0  0  0  0  0  0  0  0  0  0  0
   -3.4750   22.6680  -29.2470 C   0  0  0  0  0  0  0  0  0  0  0  0
   -2.3200   23.5380  -29.7970 C   0  0  0  0  0  0  0  0  0  0  0  0
   -2.3480   24.8770  -29.3330 O   0  0  0  0  0  0  0  0  0  0  0  0
   -2.6690   24.9140  -27.9610 C   0  0  0  0  0  0  0  0  0  0  0  0
   -4.1330   24.4860  -27.7420 C   0  0  0  0  0  0  0  0  0  0  0  0
   -7.8190   23.2440  -31.1760 C   0  0  0  0  0  0  0  0  0  0  0  0
   -8.5680   22.2760  -31.8490 C   0  0  0  0  0  0  0  0  0  0  0  0
   -7.9840   21.0580  -32.2280 C   0  0  0  0  0  0  0  0  0  0  0  0
   -8.7720   20.1020  -32.9490 N   0  0  0  0  0  0  0  0  0  0  0  0
   -4.5200   17.7670  -35.2870 C   0  0  0  0  0  0  0  0  0  0  0  0
   -3.6670   16.7010  -35.5870 C   0  0  0  0  0  0  0  0  0  0  0  0
    0.9711   13.9568  -34.0685 H   0  0  0  0  0  0  0  0  0  0  0  0
    0.3263   13.3248  -35.6214 H   0  0  0  0  0  0  0  0  0  0  0  0
    1.4736   14.7070  -35.6214 H   0  0  0  0  0  0  0  0  0  0  0  0
   -0.8809   16.8248  -32.9111 H   0  0  0  0  0  0  0  0  0  0  0  0
   -0.4652   19.2854  -32.8775 H   0  0  0  0  0  0  0  0  0  0  0  0
    0.8348   19.1232  -37.0044 H   0  0  0  0  0  0  0  0  0  0  0  0
    0.4228   16.6641  -37.0402 H   0  0  0  0  0  0  0  0  0  0  0  0
   -3.2588   15.4190  -32.4466 H   0  0  0  0  0  0  0  0  0  0  0  0
   -4.7940   17.3043  -31.9078 H   0  0  0  0  0  0  0  0  0  0  0  0
   -5.7320   18.9170  -31.4930 H   0  0  0  0  0  0  0  0  0  0  0  0
   -4.8256   21.6095  -31.0032 H   0  0  0  0  0  0  0  0  0  0  0  0
   -3.0872   22.0391  -28.4321 H   0  0  0  0  0  0  0  0  0  0  0  0
   -3.8611   22.0574  -30.0765 H   0  0  0  0  0  0  0  0  0  0  0  0
   -1.3661   23.0837  -29.4909 H   0  0  0  0  0  0  0  0  0  0  0  0
   -2.4347   23.5729  -30.8904 H   0  0  0  0  0  0  0  0  0  0  0  0
   -2.0049   24.2282  -27.4144 H   0  0  0  0  0  0  0  0  0  0  0  0
   -2.5376   25.9414  -27.5906 H   0  0  0  0  0  0  0  0  0  0  0  0
   -4.2269   24.0565  -26.7337 H   0  0  0  0  0  0  0  0  0  0  0  0
   -4.7620   25.3801  -27.8639 H   0  0  0  0  0  0  0  0  0  0  0  0
   -8.2862   24.1980  -30.8903 H   0  0  0  0  0  0  0  0  0  0  0  0
   -9.6249   22.4703  -32.0839 H   0  0  0  0  0  0  0  0  0  0  0  0
   -8.5360   19.8590  -33.9380 H   0  0  0  0  0  0  0  0  0  0  0  0
   -9.5730   19.5990  -32.5120 H   0  0  0  0  0  0  0  0  0  0  0  0
   -4.8771   18.4244  -36.0934 H   0  0  0  0  0  0  0  0  0  0  0  0
   -3.3524   16.5271  -36.6266 H   0  0  0  0  0  0  0  0  0  0  0  0
  1  2  1  0
  2  3  1  0
  3  4  2  0
  4  5  1  0
  5  6  2  0
  6  7  1  0
  7  8  3  0
  6  9  1  0
  9 10  2  0
  2 11  1  0
 11 12  2  0
 11 13  2  0
 11 14  1  0
 14 15  2  0
 15 16  1  0
 16 17  2  0
 17 18  1  0
 18 19  2  0
 18 20  1  0
 20 21  1  0
 21 22  2  0
 22 23  1  0
 23 24  1  0
 24 25  2  0
 24 26  2  0
 24 27  1  0
 27 28  1  0
 28 29  1  0
 29 30  1  0
 30 31  1  0
 31 32  1  0
 23 33  2  0
 33 34  1  0
 34 35  2  0
 35 36  1  0
 17 37  1  0
 37 38  2  0
 10  3  1  0
 38 14  1  0
 35 21  1  0
 32 27  1  0
  1 39  1  0
  1 40  1  0
  1 41  1  0
  4 42  1  0
  5 43  1  0
  9 44  1  0
 10 45  1  0
 15 46  1  0
 16 47  1  0
 20 48  1  0
 22 49  1  0
 28 50  1  0
 28 51  1  0
 29 52  1  0
 29 53  1  0
 31 54  1  0
 31 55  1  0
 32 56  1  0
 32 57  1  0
 33 58  1  0
 34 59  1  0
 36 60  1  0
 36 61  1  0
 37 62  1  0
 38 63  1  0
M  END
>  <UniqueID>  (29) 
28

>  <SMILES>  (29) 
CN(c1ccc(C#N)cc1)S(=O)(=O)c1ccc(C(=O)Nc2cc(S(=O)(=O)N3CCOCC3)ccc2N)cc1

>  <Energy>  (29) 
88.02896252030419

>  <Genealogy>  (29) 
CN(c1ccc(C#N)cc1)S(=O)(=O)c1ccc(C(=O)Nc2cc(S(=O)(=O)N3CCOCC3)ccc2N)cc1 (3D coordinates assigned)
CN(c1ccc(C#N)cc1)S(=O)(=O)c1ccc(C(=O)Nc2cc(S(=O)(=O)N3CCOCC3)ccc2N)cc1 (nonaromatic ring conformer: 88.02896252030419 kcal/mol)

>  <smiles>  (29) 
CN(c1ccc(C#N)cc1)S(=O)(=O)c1ccc(C(=O)Nc2cc(S(=O)(=O)N3CCOCC3)ccc2N)cc1

>  <score_type>  (29) 
oracle

>  <origin>  (29) 
adgpu

>  <m_score__min__energy>  (29) 
-11.130000000000001

>  <m_primary>  (29) 
energy

$$$$
29:0
     RDKit          3D

 35 37  0  0  0  0  0  0  0  0999 V2000
   -3.2348   20.8746  -33.3922 H   0  0  0  0  0  0  0  0  0  0  0  0
   -4.2810   20.9990  -33.0760 C   0  0  0  0  0  0  0  0  0  0  0  0
   -5.2540   20.0660  -33.4920 C   0  0  0  0  0  0  0  0  0  0  0  0
   -4.9621   19.2217  -34.1339 H   0  0  0  0  0  0  0  0  0  0  0  0
   -6.5930   20.2080  -33.0920 C   0  0  0  0  0  0  0  0  0  0  0  0
   -7.3589   19.4853  -33.4099 H   0  0  0  0  0  0  0  0  0  0  0  0
   -6.9230   21.2950  -32.2780 C   0  0  0  0  0  0  0  0  0  0  0  0
   -5.9780   22.2100  -31.8810 C   0  0  0  0  0  0  0  0  0  0  0  0
   -4.6390   22.0870  -32.2600 C   0  0  0  0  0  0  0  0  0  0  0  0
   -3.8873   22.8192  -31.9301 H   0  0  0  0  0  0  0  0  0  0  0  0
   -6.6260   23.1510  -31.0940 C   0  0  0  0  0  0  0  0  0  0  0  0
   -6.0320   24.3590  -30.4760 C   0  0  0  0  0  0  0  0  0  0  0  0
   -6.7970   25.2970  -30.1220 O   0  0  0  0  0  0  0  0  0  0  0  0
   -4.5750   24.5030  -30.2500 C   0  0  0  0  0  0  0  0  0  0  0  0
   -3.9240   25.4030  -30.8420 O   0  0  0  0  0  0  0  0  0  0  0  0
   -3.8630   23.5880  -29.4050 N   0  0  0  0  0  0  0  0  0  0  0  0
   -2.6850   23.7970  -28.8880 C   0  0  0  0  0  0  0  0  0  0  0  0
   -1.9080   24.8700  -29.1530 N   0  0  0  0  0  0  0  0  0  0  0  0
   -2.0990   25.6710  -29.7950 H   0  0  0  0  0  0  0  0  0  0  0  0
   -0.7900   24.6800  -28.4270 C   0  0  0  0  0  0  0  0  0  0  0  0
    0.0719   25.3624  -28.3893 H   0  0  0  0  0  0  0  0  0  0  0  0
   -0.9020   23.4880  -27.7370 C   0  0  0  0  0  0  0  0  0  0  0  0
   -0.1513   23.0670  -27.0520 H   0  0  0  0  0  0  0  0  0  0  0  0
   -2.0880   22.9300  -28.0470 N   0  0  0  0  0  0  0  0  0  0  0  0
   -2.6430   21.6990  -27.4920 C   0  0  0  0  0  0  0  0  0  0  0  0
   -2.6203   21.7492  -26.3934 H   0  0  0  0  0  0  0  0  0  0  0  0
   -3.6822   21.5793  -27.8322 H   0  0  0  0  0  0  0  0  0  0  0  0
   -2.0446   20.8410  -27.8322 H   0  0  0  0  0  0  0  0  0  0  0  0
   -7.9630   22.7520  -31.0620 C   0  0  0  0  0  0  0  0  0  0  0  0
   -8.7651   23.2843  -30.5298 H   0  0  0  0  0  0  0  0  0  0  0  0
   -8.1320   21.6170  -31.7790 N   0  0  0  0  0  0  0  0  0  0  0  0
   -9.3940   20.9190  -32.0070 C   0  0  0  0  0  0  0  0  0  0  0  0
   -9.8526   20.6653  -31.0399 H   0  0  0  0  0  0  0  0  0  0  0  0
  -10.0748   21.5688  -32.5764 H   0  0  0  0  0  0  0  0  0  0  0  0
   -9.2054   19.9970  -32.5764 H   0  0  0  0  0  0  0  0  0  0  0  0
  1  2  1  0
  2  3  2  0
  3  4  1  0
  3  5  1  0
  5  6  1  0
  5  7  2  0
  7  8  1  0
  8  9  2  0
  9 10  1  0
  8 11  1  0
 11 12  1  0
 12 13  2  0
 12 14  1  0
 14 15  2  0
 14 16  1  0
 16 17  2  0
 17 18  1  0
 18 19  1  0
 18 20  1  0
 20 21  1  0
 20 22  2  0
 22 23  1  0
 22 24  1  0
 24 25  1  0
 25 26  1  0
 25 27  1  0
 25 28  1  0
 11 29  2  0
 29 30  1  0
 29 31  1  0
 31 32  1  0
 32 33  1  0
 32 34  1  0
 32 35  1  0
  9  2  1  0
 24 17  1  0
 31  7  1  0
M  END
>  <UniqueID>  (30) 
29

>  <SMILES>  (30) 
Cn1cc[nH]/c1=N\C(=O)C(=O)c1cn(C)c2ccccc12

>  <Energy>  (30) 
111.08998050109174

>  <Genealogy>  (30) 
Cn1cc[nH]/c1=N\C(=O)C(=O)c1cn(C)c2ccccc12 (cis-trans isomerization)
Cn1cc[nH]/c1=N\C(=O)C(=O)c1cn(C)c2ccccc12 (3D coordinates assigned)
Cn1cc[nH]/c1=N\C(=O)C(=O)c1cn(C)c2ccccc12 (optimized conformer: 111.08998050109174 kcal/mol)

>  <smiles>  (30) 
Cn1cc[nH]c1=NC(=O)C(=O)c1cn(C)c2ccccc12

>  <score_type>  (30) 
oracle

>  <origin>  (30) 
adgpu

>  <m_score__min__energy>  (30) 
-8.5999999999999996

>  <m_primary>  (30) 
energy

$$$$
30:0
     RDKit          3D

 48 50  0  0  0  0  0  0  0  0999 V2000
   -4.4620   18.8300  -34.0300 C   0  0  0  0  0  0  0  0  0  0  0  0
   -5.6360   19.5230  -33.4240 C   0  0  0  0  0  0  0  0  0  0  0  0
   -6.8950   18.9760  -33.2480 C   0  0  0  0  0  0  0  0  0  0  0  0
   -7.6400   20.0110  -32.7200 C   0  0  0  0  0  0  0  0  0  0  0  0
   -9.0680   19.9240  -32.2830 C   0  0  0  0  0  0  0  0  0  0  0  0
   -6.8450   21.0950  -32.5960 N   0  0  0  0  0  0  0  0  0  0  0  0
   -7.2920   22.6420  -31.9560 S   0  0  0  0  0  0  0  0  0  0  0  0
   -7.4900   23.6170  -33.0830 O   0  0  0  0  0  0  0  0  0  0  0  0
   -8.5820   22.5040  -31.1970 O   0  0  0  0  0  0  0  0  0  0  0  0
   -6.0110   23.2380  -30.9070 C   0  0  0  0  0  0  0  0  0  0  0  0
   -5.7100   24.6040  -30.8490 C   0  0  0  0  0  0  0  0  0  0  0  0
   -4.7030   25.0680  -30.0000 C   0  0  0  0  0  0  0  0  0  0  0  0
   -3.9770   24.1710  -29.1930 C   0  0  0  0  0  0  0  0  0  0  0  0
   -2.9360   24.6490  -28.3140 N   0  0  0  0  0  0  0  0  0  0  0  0
   -3.2160   24.9260  -26.8990 C   0  0  0  0  0  0  0  0  0  0  0  0
   -1.9540   24.6910  -26.0550 C   0  0  0  0  0  0  0  0  0  0  0  0
   -0.7680   25.4350  -26.5440 N   0  0  0  0  0  0  0  0  0  0  0  0
   -0.3440   26.7450  -25.4680 S   0  0  0  0  0  0  0  0  0  0  0  0
   -0.5090   26.2730  -23.7550 C   0  0  0  0  0  0  0  0  0  0  0  0
    1.0810   27.1510  -25.7230 O   0  0  0  0  0  0  0  0  0  0  0  0
   -1.2360   27.9260  -25.7350 O   0  0  0  0  0  0  0  0  0  0  0  0
   -0.8640   25.9250  -27.9350 C   0  0  0  0  0  0  0  0  0  0  0  0
   -1.5920   24.9260  -28.8390 C   0  0  0  0  0  0  0  0  0  0  0  0
   -4.2820   22.7990  -29.2630 C   0  0  0  0  0  0  0  0  0  0  0  0
   -5.2910   22.3380  -30.1140 C   0  0  0  0  0  0  0  0  0  0  0  0
   -5.6290   20.8120  -33.0320 N   0  0  0  0  0  0  0  0  0  0  0  0
   -3.8107   18.4455  -33.2313 H   0  0  0  0  0  0  0  0  0  0  0  0
   -4.8114   17.9933  -34.6528 H   0  0  0  0  0  0  0  0  0  0  0  0
   -3.8983   19.5402  -34.6528 H   0  0  0  0  0  0  0  0  0  0  0  0
   -7.2258   17.9521  -33.4763 H   0  0  0  0  0  0  0  0  0  0  0  0
   -9.1156   19.9211  -31.1840 H   0  0  0  0  0  0  0  0  0  0  0  0
   -9.6238   20.7899  -32.6718 H   0  0  0  0  0  0  0  0  0  0  0  0
   -9.5146   18.9970  -32.6718 H   0  0  0  0  0  0  0  0  0  0  0  0
   -6.2692   25.3150  -31.4750 H   0  0  0  0  0  0  0  0  0  0  0  0
   -4.4750   26.1434  -29.9613 H   0  0  0  0  0  0  0  0  0  0  0  0
   -3.5370   25.9724  -26.7898 H   0  0  0  0  0  0  0  0  0  0  0  0
   -4.0124   24.2518  -26.5510 H   0  0  0  0  0  0  0  0  0  0  0  0
   -2.1620   25.0074  -25.0222 H   0  0  0  0  0  0  0  0  0  0  0  0
   -1.7143   23.6196  -26.1230 H   0  0  0  0  0  0  0  0  0  0  0  0
   -0.2144   27.1158  -23.1124 H   0  0  0  0  0  0  0  0  0  0  0  0
   -1.5550   26.0025  -23.5483 H   0  0  0  0  0  0  0  0  0  0  0  0
    0.1407   25.4097  -23.5483 H   0  0  0  0  0  0  0  0  0  0  0  0
   -1.4146   26.8773  -27.9402 H   0  0  0  0  0  0  0  0  0  0  0  0
    0.1568   26.0574  -28.3229 H   0  0  0  0  0  0  0  0  0  0  0  0
   -1.6776   25.3480  -29.8512 H   0  0  0  0  0  0  0  0  0  0  0  0
   -1.0192   23.9874  -28.8694 H   0  0  0  0  0  0  0  0  0  0  0  0
   -3.7220   22.0834  -28.6431 H   0  0  0  0  0  0  0  0  0  0  0  0
   -5.5197   21.2630  -30.1602 H   0  0  0  0  0  0  0  0  0  0  0  0
  1  2  1  0
  2  3  1  0
  3  4  2  0
  4  5  1  0
  4  6  1  0
  6  7  1  0
  7  8  2  0
  7  9  2  0
  7 10  1  0
 10 11  2  0
 11 12  1  0
 12 13  2  0
 13 14  1  0
 14 15  1  0
 15 16  1  0
 16 17  1  0
 17 18  1  0
 18 19  1  0
 18 20  2  0
 18 21  2  0
 17 22  1  0
 22 23  1  0
 13 24  1  0
 24 25  2  0
  6 26  1  0
 26  2  2  0
 25 10  1  0
 23 14  1  0
  1 27  1  0
  1 28  1  0
  1 29  1  0
  3 30  1  0
  5 31  1  0
  5 32  1  0
  5 33  1  0
 11 34  1  0
 12 35  1  0
 15 36  1  0
 15 37  1  0
 16 38  1  0
 16 39  1  0
 19 40  1  0
 19 41  1  0
 19 42  1  0
 22 43  1  0
 22 44  1  0
 23 45  1  0
 23 46  1  0
 24 47  1  0
 25 48  1  0
M  END
>  <UniqueID>  (31) 
30

>  <SMILES>  (31) 
Cc1cc(C)n(S(=O)(=O)c2ccc(N3CCN(S(C)(=O)=O)CC3)cc2)n1

>  <Energy>  (31) 
81.40598506359356

>  <Genealogy>  (31) 
Cc1cc(C)n(S(=O)(=O)c2ccc(N3CCN(S(C)(=O)=O)CC3)cc2)n1 (3D coordinates assigned)
Cc1cc(C)n(S(=O)(=O)c2ccc(N3CCN(S(C)(=O)=O)CC3)cc2)n1 (nonaromatic ring conformer: 81.40598506359356 kcal/mol)

>  <smiles>  (31) 
Cc1cc(C)n(S(=O)(=O)c2ccc(N3CCN(S(C)(=O)=O)CC3)cc2)n1

>  <score_type>  (31) 
oracle

>  <origin>  (31) 
adgpu

>  <m_score__min__energy>  (31) 
-8.6500000000000004

>  <m_primary>  (31) 
energy

$$$$
31:0
     RDKit          3D

 60 64  0  0  0  0  0  0  0  0999 V2000
   -8.5860   19.7520  -33.8220 H   0  0  0  0  0  0  0  0  0  0  0  0
   -9.0010   20.3450  -33.1100 O   0  0  0  0  0  0  0  0  0  0  0  0
   -8.2150   21.1160  -32.2550 C   0  0  0  0  0  0  0  0  0  0  0  0
   -8.7660   22.2410  -31.6300 C   0  0  0  0  0  0  0  0  0  0  0  0
   -9.8210   22.5001  -31.8030 H   0  0  0  0  0  0  0  0  0  0  0  0
   -7.9860   23.0360  -30.7890 C   0  0  0  0  0  0  0  0  0  0  0  0
   -8.4250   23.9304  -30.3228 H   0  0  0  0  0  0  0  0  0  0  0  0
   -6.6480   22.7050  -30.5330 C   0  0  0  0  0  0  0  0  0  0  0  0
   -5.8750   23.5400  -29.6530 N   0  0  0  0  0  0  0  0  0  0  0  0
   -6.3890   24.1610  -28.9890 H   0  0  0  0  0  0  0  0  0  0  0  0
   -4.4850   23.3230  -29.3770 C   0  0  0  0  0  0  0  0  0  0  0  0
   -3.9960   22.0220  -29.0930 C   0  0  0  0  0  0  0  0  0  0  0  0
   -4.6870   21.1662  -29.1017 H   0  0  0  0  0  0  0  0  0  0  0  0
   -2.6340   21.8160  -28.8000 C   0  0  0  0  0  0  0  0  0  0  0  0
   -2.2509   20.8159  -28.5491 H   0  0  0  0  0  0  0  0  0  0  0  0
   -1.7860   22.9260  -28.8390 C   0  0  0  0  0  0  0  0  0  0  0  0
   -0.4410   23.1160  -28.5660 C   0  0  0  0  0  0  0  0  0  0  0  0
    0.5770   22.1280  -28.1680 C   0  0  0  0  0  0  0  0  0  0  0  0
    1.4463   22.4719  -27.5883 H   0  0  0  0  0  0  0  0  0  0  0  0
    0.4890   20.8290  -28.4820 C   0  0  0  0  0  0  0  0  0  0  0  0
   -0.4000   20.4933  -29.0360 H   0  0  0  0  0  0  0  0  0  0  0  0
    1.5110   19.8140  -28.1320 C   0  0  0  0  0  0  0  0  0  0  0  0
    1.0790   18.5700  -27.7880 N   0  0  0  0  0  0  0  0  0  0  0  0
    1.9380   17.5630  -27.4720 C   0  0  0  0  0  0  0  0  0  0  0  0
    1.5456   16.5726  -27.1979 H   0  0  0  0  0  0  0  0  0  0  0  0
    3.3140   17.7840  -27.4950 C   0  0  0  0  0  0  0  0  0  0  0  0
    4.0125   16.9767  -27.2297 H   0  0  0  0  0  0  0  0  0  0  0  0
    3.7940   19.0430  -27.8590 C   0  0  0  0  0  0  0  0  0  0  0  0
    4.8775   19.2304  -27.8891 H   0  0  0  0  0  0  0  0  0  0  0  0
    2.9000   20.0650  -28.1850 C   0  0  0  0  0  0  0  0  0  0  0  0
    3.2740   21.0564  -28.4804 H   0  0  0  0  0  0  0  0  0  0  0  0
   -0.1690   24.4380  -28.6690 N   0  0  0  0  0  0  0  0  0  0  0  0
   -1.2750   25.0870  -29.0130 N   0  0  0  0  0  0  0  0  0  0  0  0
   -2.2580   24.1780  -29.1180 C   0  0  0  0  0  0  0  0  0  0  0  0
   -3.5980   24.4170  -29.4040 C   0  0  0  0  0  0  0  0  0  0  0  0
   -3.9543   25.4296  -29.6440 H   0  0  0  0  0  0  0  0  0  0  0  0
   -6.1030   21.5590  -31.1430 C   0  0  0  0  0  0  0  0  0  0  0  0
   -5.0620   21.2739  -30.9308 H   0  0  0  0  0  0  0  0  0  0  0  0
   -6.8700   20.7770  -32.0170 C   0  0  0  0  0  0  0  0  0  0  0  0
   -6.0750   19.4310  -32.8430 S   0  0  0  0  0  0  0  0  0  0  0  0
   -6.4710   19.3690  -34.2920 O   0  0  0  0  0  0  0  0  0  0  0  0
   -6.4760   18.1490  -32.1690 O   0  0  0  0  0  0  0  0  0  0  0  0
   -4.3450   19.6460  -32.7230 N   0  0  0  0  0  0  0  0  0  0  0  0
   -3.9790   21.0190  -33.1240 C   0  0  0  0  0  0  0  0  0  0  0  0
   -4.1834   21.6993  -32.2841 H   0  0  0  0  0  0  0  0  0  0  0  0
   -4.5774   21.2822  -34.0087 H   0  0  0  0  0  0  0  0  0  0  0  0
   -2.4880   21.1390  -33.5090 C   0  0  0  0  0  0  0  0  0  0  0  0
   -2.1112   22.1122  -33.1614 H   0  0  0  0  0  0  0  0  0  0  0  0
   -2.4167   21.0447  -34.6026 H   0  0  0  0  0  0  0  0  0  0  0  0
   -1.6620   20.0710  -32.9120 N   0  0  0  0  0  0  0  0  0  0  0  0
   -1.5270   20.2290  -31.4540 C   0  0  0  0  0  0  0  0  0  0  0  0
   -2.1603   19.4878  -30.9447 H   0  0  0  0  0  0  0  0  0  0  0  0
   -0.4771   20.0752  -31.1642 H   0  0  0  0  0  0  0  0  0  0  0  0
   -1.8428   21.2421  -31.1642 H   0  0  0  0  0  0  0  0  0  0  0  0
   -2.1340   18.7170  -33.2910 C   0  0  0  0  0  0  0  0  0  0  0  0
   -1.8881   18.0206  -32.4758 H   0  0  0  0  0  0  0  0  0  0  0  0
   -1.6311   18.4480  -34.2316 H   0  0  0  0  0  0  0  0  0  0  0  0
   -3.6540   18.6510  -33.5500 C   0  0  0  0  0  0  0  0  0  0  0  0
   -4.0238   17.6464  -33.2971 H   0  0  0  0  0  0  0  0  0  0  0  0
   -3.8501   18.8632  -34.6114 H   0  0  0  0  0  0  0  0  0  0  0  0
  1  2  1  0
  2  3  1  0
  3  4  2  0
  4  5  1  0
  4  6  1  0
  6  7  1  0
  6  8  2  0
  8  9  1  0
  9 10  1  0
  9 11  1  0
 11 12  1  0
 12 13  1  0
 12 14  2  0
 14 15  1  0
 14 16  1  0
 16 17  2  0
 17 18  1  0
 18 19  1  0
 18 20  2  0
 20 21  1  0
 20 22  1  0
 22 23  2  0
 23 24  1  0
 24 25  1  0
 24 26  2  0
 26 27  1  0
 26 28  1  0
 28 29  1  0
 28 30  2  0
 30 31  1  0
 17 32  1  0
 32 33  1  0
 33 34  2  0
 34 35  1  0
 35 36  1  0
  8 37  1  0
 37 38  1  0
 37 39  2  0
 39 40  1  0
 40 41  2  0
 40 42  2  0
 40 43  1  0
 43 44  1  0
 44 45  1  0
 44 46  1  0
 44 47  1  0
 47 48  1  0
 47 49  1  0
 47 50  1  0
 50 51  1  0
 51 52  1  0
 51 53  1  0
 51 54  1  0
 50 55  1  0
 55 56  1  0
 55 57  1  0
 55 58  1  0
 58 59  1  0
 58 60  1  0
 39  3  1  0
 58 43  1  0
 35 11  2  0
 34 16  1  0
 30 22  1  0
M  CHG  1  32  -1
M  END
>  <UniqueID>  (32) 
31

>  <SMILES>  (32) 
CN1CCN(S(=O)(=O)c2cc(Nc3ccc4c(/C=C/c5ccccn5)[n-]nc4c3)ccc2O)CC1

>  <Energy>  (32) 
125.75638344805827

>  <Genealogy>  (32) 
CN1CCN(S(=O)(=O)c2cc(Nc3ccc4c(C=Cc5ccccn5)[n-]nc4c3)ccc2O)CC1 (protonated)
CN1CCN(S(=O)(=O)c2cc(Nc3ccc4c(/C=C/c5ccccn5)[n-]nc4c3)ccc2O)CC1 (cis-trans isomerization)
CN1CCN(S(=O)(=O)c2cc(Nc3ccc4c(/C=C/c5ccccn5)[n-]nc4c3)ccc2O)CC1 (3D coordinates assigned)
CN1CCN(S(=O)(=O)c2cc(Nc3ccc4c(/C=C/c5ccccn5)[n-]nc4c3)ccc2O)CC1 (nonaromatic ring conformer: 125.75638344805827 kcal/mol)

>  <smiles>  (32) 
CN1CCN(S(=O)(=O)c2cc(Nc3ccc4c(C=Cc5ccccn5)[nH]nc4c3)ccc2O)CC1

>  <score_type>  (32) 
oracle

>  <origin>  (32) 
adgpu

>  <m_score__min__energy>  (32) 
-11.81

>  <m_primary>  (32) 
energy

$$$$
32:0
     RDKit          3D

 29 30  0  0  0  0  0  0  0  0999 V2000
   -7.2480   23.7360  -30.9950 C   0  0  0  0  0  0  0  0  0  0  0  0
   -6.2160   22.8760  -31.6470 C   0  0  0  0  0  0  0  0  0  0  0  0
   -6.4870   21.9950  -32.6300 N   0  0  0  0  0  0  0  0  0  0  0  0
   -5.3530   21.4670  -32.9940 O   0  0  0  0  0  0  0  0  0  0  0  0
   -4.3520   21.9650  -32.3050 C   0  0  0  0  0  0  0  0  0  0  0  0
   -2.9240   21.5750  -32.4980 C   0  0  0  0  0  0  0  0  0  0  0  0
   -4.8530   22.8960  -31.4180 C   0  0  0  0  0  0  0  0  0  0  0  0
   -3.9720   23.9020  -30.2700 S   0  0  0  0  0  0  0  0  0  0  0  0
   -4.6970   23.9780  -28.9550 O   0  0  0  0  0  0  0  0  0  0  0  0
   -3.8460   25.2870  -30.8380 O   0  0  0  0  0  0  0  0  0  0  0  0
   -2.3880   23.2500  -30.0050 N   0  0  0  0  0  0  0  0  0  0  0  0
   -1.6620   23.3180  -28.7690 C   0  0  0  0  0  0  0  0  0  0  0  0
   -1.3280   22.1620  -28.0380 C   0  0  0  0  0  0  0  0  0  0  0  0
   -0.6100   22.2670  -26.8430 C   0  0  0  0  0  0  0  0  0  0  0  0
   -0.2230   23.5210  -26.3660 C   0  0  0  0  0  0  0  0  0  0  0  0
   -0.5530   24.6740  -27.0830 C   0  0  0  0  0  0  0  0  0  0  0  0
   -1.2720   24.5760  -28.2840 C   0  0  0  0  0  0  0  0  0  0  0  0
   -1.5990   25.7270  -29.0000 O   0  0  0  0  0  0  0  0  0  0  0  0
   -7.1535   23.6573  -29.9019 H   0  0  0  0  0  0  0  0  0  0  0  0
   -7.1004   24.7821  -31.3014 H   0  0  0  0  0  0  0  0  0  0  0  0
   -8.2503   23.4022  -31.3014 H   0  0  0  0  0  0  0  0  0  0  0  0
   -2.4439   21.4439  -31.5170 H   0  0  0  0  0  0  0  0  0  0  0  0
   -2.8746   20.6305  -33.0596 H   0  0  0  0  0  0  0  0  0  0  0  0
   -2.4013   22.3633  -33.0596 H   0  0  0  0  0  0  0  0  0  0  0  0
   -1.6332   21.1723  -28.4086 H   0  0  0  0  0  0  0  0  0  0  0  0
   -0.3495   21.3602  -26.2775 H   0  0  0  0  0  0  0  0  0  0  0  0
    0.3418   23.6012  -25.4255 H   0  0  0  0  0  0  0  0  0  0  0  0
   -0.2484   25.6611  -26.7050 H   0  0  0  0  0  0  0  0  0  0  0  0
   -2.0410   25.6770  -29.9100 H   0  0  0  0  0  0  0  0  0  0  0  0
  1  2  1  0
  2  3  2  0
  3  4  1  0
  4  5  1  0
  5  6  1  0
  5  7  2  0
  7  8  1  0
  8  9  2  0
  8 10  2  0
  8 11  1  0
 11 12  1  0
 12 13  2  0
 13 14  1  0
 14 15  2  0
 15 16  1  0
 16 17  2  0
 17 18  1  0
  7  2  1  0
 17 12  1  0
  1 19  1  0
  1 20  1  0
  1 21  1  0
  6 22  1  0
  6 23  1  0
  6 24  1  0
 13 25  1  0
 14 26  1  0
 15 27  1  0
 16 28  1  0
 18 29  1  0
M  CHG  1  11  -1
M  END
>  <UniqueID>  (33) 
32

>  <SMILES>  (33) 
Cc1noc(C)c1S(=O)(=O)[N-]c1ccccc1O

>  <Energy>  (33) 
60.532054545436516

>  <Genealogy>  (33) 
Cc1noc(C)c1S(=O)(=O)[N-]c1ccccc1O (protonated)
Cc1noc(C)c1S(=O)(=O)[N-]c1ccccc1O (3D coordinates assigned)
Cc1noc(C)c1S(=O)(=O)[N-]c1ccccc1O (optimized conformer: 60.532054545436516 kcal/mol)

>  <smiles>  (33) 
Cc1noc(C)c1S(=O)(=O)Nc1ccccc1O

>  <score_type>  (33) 
oracle

>  <origin>  (33) 
adgpu

>  <m_score__min__energy>  (33) 
-8.0700000000000003

>  <m_primary>  (33) 
energy

$$$$
33:0
     RDKit          3D

 62 66  0  0  0  0  0  0  0  0999 V2000
   -3.8840   25.6620  -30.8340 O   0  0  0  0  0  0  0  0  0  0  0  0
   -3.9050   24.4530  -30.4820 C   0  0  0  0  0  0  0  0  0  0  0  0
   -4.8310   23.5650  -31.1220 N   0  0  0  0  0  0  0  0  0  0  0  0
   -4.4840   22.4150  -31.9090 C   0  0  0  0  0  0  0  0  0  0  0  0
   -3.1520   22.1750  -32.2880 C   0  0  0  0  0  0  0  0  0  0  0  0
   -2.8140   21.0300  -33.0190 C   0  0  0  0  0  0  0  0  0  0  0  0
   -1.1370   20.7550  -33.4790 S   0  0  0  0  0  0  0  0  0  0  0  0
   -0.6100   21.9430  -34.2370 O   0  0  0  0  0  0  0  0  0  0  0  0
   -1.0770   19.5480  -34.3750 O   0  0  0  0  0  0  0  0  0  0  0  0
   -0.1680   20.4790  -32.0530 N   0  0  0  0  0  0  0  0  0  0  0  0
   -0.3130   19.0740  -31.6110 C   0  0  0  0  0  0  0  0  0  0  0  0
    0.1180   18.8960  -30.1530 C   0  0  0  0  0  0  0  0  0  0  0  0
   -0.7680   19.7260  -29.2090 C   0  0  0  0  0  0  0  0  0  0  0  0
   -1.3810   20.9560  -29.8980 C   0  0  0  0  0  0  0  0  0  0  0  0
   -0.4600   21.4900  -31.0040 C   0  0  0  0  0  0  0  0  0  0  0  0
   -3.8180   20.1320  -33.4010 C   0  0  0  0  0  0  0  0  0  0  0  0
   -5.1480   20.3780  -33.0540 C   0  0  0  0  0  0  0  0  0  0  0  0
   -5.4910   21.5210  -32.3210 C   0  0  0  0  0  0  0  0  0  0  0  0
   -6.8630   21.7400  -31.9640 N   0  0  0  0  0  0  0  0  0  0  0  0
   -7.4040   23.0990  -31.9060 C   0  0  0  0  0  0  0  0  0  0  0  0
   -8.9040   23.0640  -32.2080 C   0  0  0  0  0  0  0  0  0  0  0  0
   -9.5600   22.1270  -31.3720 O   0  0  0  0  0  0  0  0  0  0  0  0
   -9.1140   20.8180  -31.6740 C   0  0  0  0  0  0  0  0  0  0  0  0
   -7.6260   20.6580  -31.3410 C   0  0  0  0  0  0  0  0  0  0  0  0
   -3.0120   23.9980  -29.3920 C   0  0  0  0  0  0  0  0  0  0  0  0
   -3.4750   23.0940  -28.4160 C   0  0  0  0  0  0  0  0  0  0  0  0
   -2.6210   22.6490  -27.4020 C   0  0  0  0  0  0  0  0  0  0  0  0
   -1.3030   23.1070  -27.3500 C   0  0  0  0  0  0  0  0  0  0  0  0
   -0.8470   24.0390  -28.2900 C   0  0  0  0  0  0  0  0  0  0  0  0
   -1.6930   24.4790  -29.3120 C   0  0  0  0  0  0  0  0  0  0  0  0
    0.4630   24.5170  -28.1920 O   0  0  0  0  0  0  0  0  0  0  0  0
    1.2450   24.2950  -27.0150 C   0  0  0  0  0  0  0  0  0  0  0  0
    0.9830   22.8880  -26.4620 C   0  0  0  0  0  0  0  0  0  0  0  0
   -0.4240   22.6490  -26.3650 O   0  0  0  0  0  0  0  0  0  0  0  0
   -2.3678   22.8936  -32.0076 H   0  0  0  0  0  0  0  0  0  0  0  0
   -1.3669   18.7750  -31.7110 H   0  0  0  0  0  0  0  0  0  0  0  0
    0.3343   18.4460  -32.2408 H   0  0  0  0  0  0  0  0  0  0  0  0
    0.0358   17.8333  -29.8812 H   0  0  0  0  0  0  0  0  0  0  0  0
    1.1573   19.2417  -30.0510 H   0  0  0  0  0  0  0  0  0  0  0  0
   -1.5835   19.0869  -28.8394 H   0  0  0  0  0  0  0  0  0  0  0  0
   -0.1308   20.0882  -28.3887 H   0  0  0  0  0  0  0  0  0  0  0  0
   -2.3477   20.6744  -30.3410 H   0  0  0  0  0  0  0  0  0  0  0  0
   -1.5148   21.7463  -29.1447 H   0  0  0  0  0  0  0  0  0  0  0  0
   -0.9457   22.3562  -31.4771 H   0  0  0  0  0  0  0  0  0  0  0  0
    0.4963   21.7626  -30.5336 H   0  0  0  0  0  0  0  0  0  0  0  0
   -3.5585   19.2307  -33.9757 H   0  0  0  0  0  0  0  0  0  0  0  0
   -5.9319   19.6690  -33.3585 H   0  0  0  0  0  0  0  0  0  0  0  0
   -7.2419   23.5157  -30.9010 H   0  0  0  0  0  0  0  0  0  0  0  0
   -6.8946   23.7286  -32.6503 H   0  0  0  0  0  0  0  0  0  0  0  0
   -9.3308   24.0631  -32.0355 H   0  0  0  0  0  0  0  0  0  0  0  0
   -9.0474   22.7644  -33.2567 H   0  0  0  0  0  0  0  0  0  0  0  0
   -9.6952   20.0941  -31.0839 H   0  0  0  0  0  0  0  0  0  0  0  0
   -9.2554   20.6374  -32.7498 H   0  0  0  0  0  0  0  0  0  0  0  0
   -7.4892   20.6949  -30.2502 H   0  0  0  0  0  0  0  0  0  0  0  0
   -7.2682   19.6914  -31.7252 H   0  0  0  0  0  0  0  0  0  0  0  0
   -4.5145   22.7360  -28.4517 H   0  0  0  0  0  0  0  0  0  0  0  0
   -2.9872   21.9388  -26.6460 H   0  0  0  0  0  0  0  0  0  0  0  0
   -1.3264   25.2027  -30.0549 H   0  0  0  0  0  0  0  0  0  0  0  0
    2.3119   24.3948  -27.2635 H   0  0  0  0  0  0  0  0  0  0  0  0
    0.9656   25.0377  -26.2532 H   0  0  0  0  0  0  0  0  0  0  0  0
    1.4324   22.1434  -27.1356 H   0  0  0  0  0  0  0  0  0  0  0  0
    1.4305   22.8071  -25.4604 H   0  0  0  0  0  0  0  0  0  0  0  0
  1  2  2  0
  2  3  1  0
  3  4  1  0
  4  5  2  0
  5  6  1  0
  6  7  1  0
  7  8  2  0
  7  9  2  0
  7 10  1  0
 10 11  1  0
 11 12  1  0
 12 13  1  0
 13 14  1  0
 14 15  1  0
  6 16  2  0
 16 17  1  0
 17 18  2  0
 18 19  1  0
 19 20  1  0
 20 21  1  0
 21 22  1  0
 22 23  1  0
 23 24  1  0
  2 25  1  0
 25 26  2  0
 26 27  1  0
 27 28  2  0
 28 29  1  0
 29 30  2  0
 29 31  1  0
 31 32  1  0
 32 33  1  0
 33 34  1  0
 18  4  1  0
 24 19  1  0
 30 25  1  0
 15 10  1  0
 34 28  1  0
  5 35  1  0
 11 36  1  0
 11 37  1  0
 12 38  1  0
 12 39  1  0
 13 40  1  0
 13 41  1  0
 14 42  1  0
 14 43  1  0
 15 44  1  0
 15 45  1  0
 16 46  1  0
 17 47  1  0
 20 48  1  0
 20 49  1  0
 21 50  1  0
 21 51  1  0
 23 52  1  0
 23 53  1  0
 24 54  1  0
 24 55  1  0
 26 56  1  0
 27 57  1  0
 30 58  1  0
 32 59  1  0
 32 60  1  0
 33 61  1  0
 33 62  1  0
M  CHG  1   3  -1
M  END
>  <UniqueID>  (34) 
33

>  <SMILES>  (34) 
O=C([N-]c1cc(S(=O)(=O)N2CCCCC2)ccc1N1CCOCC1)c1ccc2c(c1)OCCO2

>  <Energy>  (34) 
83.85373192528962

>  <Genealogy>  (34) 
O=C([N-]c1cc(S(=O)(=O)N2CCCCC2)ccc1N1CCOCC1)c1ccc2c(c1)OCCO2 (protonated)
O=C([N-]c1cc(S(=O)(=O)N2CCCCC2)ccc1N1CCOCC1)c1ccc2c(c1)OCCO2 (3D coordinates assigned)
O=C([N-]c1cc(S(=O)(=O)N2CCCCC2)ccc1N1CCOCC1)c1ccc2c(c1)OCCO2 (nonaromatic ring conformer: 83.85373192528962 kcal/mol)

>  <smiles>  (34) 
O=C(Nc1cc(S(=O)(=O)N2CCCCC2)ccc1N1CCOCC1)c1ccc2c(c1)OCCO2

>  <score_type>  (34) 
oracle

>  <origin>  (34) 
adgpu

>  <m_score__min__energy>  (34) 
-10.65

>  <m_primary>  (34) 
energy

$$$$
34:0
     RDKit          3D

 56 59  0  0  0  0  0  0  0  0999 V2000
   -7.3650   19.7300  -33.8690 O   0  0  0  0  0  0  0  0  0  0  0  0
   -6.1630   19.5220  -33.5470 C   0  0  0  0  0  0  0  0  0  0  0  0
   -5.4200   20.5480  -32.8680 N   0  0  0  0  0  0  0  0  0  0  0  0
   -6.0410   21.5910  -32.0980 C   0  0  0  0  0  0  0  0  0  0  0  0
   -7.4410   21.6300  -31.9850 C   0  0  0  0  0  0  0  0  0  0  0  0
   -8.0630   22.6490  -31.2560 C   0  0  0  0  0  0  0  0  0  0  0  0
   -7.2940   23.6440  -30.6440 C   0  0  0  0  0  0  0  0  0  0  0  0
   -5.8970   23.6320  -30.7690 C   0  0  0  0  0  0  0  0  0  0  0  0
   -4.9270   24.9300  -30.0780 S   0  0  0  0  0  0  0  0  0  0  0  0
   -3.9070   25.4120  -31.0690 O   0  0  0  0  0  0  0  0  0  0  0  0
   -5.8300   26.0810  -29.7290 O   0  0  0  0  0  0  0  0  0  0  0  0
   -4.1560   24.3610  -28.6350 N   0  0  0  0  0  0  0  0  0  0  0  0
   -2.9030   23.6620  -28.6410 C   0  0  0  0  0  0  0  0  0  0  0  0
   -2.8760   22.3180  -28.2450 C   0  0  0  0  0  0  0  0  0  0  0  0
   -1.6730   21.6030  -28.2500 C   0  0  0  0  0  0  0  0  0  0  0  0
   -0.4860   22.2320  -28.6380 C   0  0  0  0  0  0  0  0  0  0  0  0
   -0.4990   23.5800  -29.0130 C   0  0  0  0  0  0  0  0  0  0  0  0
   -1.7000   24.3010  -29.0060 C   0  0  0  0  0  0  0  0  0  0  0  0
   -1.6780   25.6540  -29.3310 O   0  0  0  0  0  0  0  0  0  0  0  0
   -5.2760   22.6120  -31.5020 C   0  0  0  0  0  0  0  0  0  0  0  0
   -5.5230   18.2360  -33.9150 C   0  0  0  0  0  0  0  0  0  0  0  0
   -6.2510   17.0330  -33.8380 C   0  0  0  0  0  0  0  0  0  0  0  0
   -5.6500   15.8160  -34.1730 C   0  0  0  0  0  0  0  0  0  0  0  0
   -4.3110   15.7790  -34.5780 C   0  0  0  0  0  0  0  0  0  0  0  0
   -3.5710   14.2370  -35.0030 S   0  0  0  0  0  0  0  0  0  0  0  0
   -2.4840   14.4920  -36.0100 O   0  0  0  0  0  0  0  0  0  0  0  0
   -4.5990   13.3310  -35.6240 O   0  0  0  0  0  0  0  0  0  0  0  0
   -2.9030   13.5110  -33.5560 N   0  0  0  0  0  0  0  0  0  0  0  0
   -3.2360   14.2950  -32.3440 C   0  0  0  0  0  0  0  0  0  0  0  0
   -4.4340   13.7160  -31.5690 C   0  0  0  0  0  0  0  0  0  0  0  0
   -5.3440   13.1000  -32.4560 O   0  0  0  0  0  0  0  0  0  0  0  0
   -4.7700   11.9230  -33.0040 C   0  0  0  0  0  0  0  0  0  0  0  0
   -3.2890   12.0930  -33.4300 C   0  0  0  0  0  0  0  0  0  0  0  0
   -3.5770   16.9720  -34.6530 C   0  0  0  0  0  0  0  0  0  0  0  0
   -4.1770   18.1910  -34.3220 C   0  0  0  0  0  0  0  0  0  0  0  0
   -4.3890   20.6020  -33.0320 H   0  0  0  0  0  0  0  0  0  0  0  0
   -8.0511   20.8552  -32.4723 H   0  0  0  0  0  0  0  0  0  0  0  0
   -9.1590   22.6678  -31.1639 H   0  0  0  0  0  0  0  0  0  0  0  0
   -7.7860   24.4380  -30.0631 H   0  0  0  0  0  0  0  0  0  0  0  0
   -3.8056   21.8223  -27.9285 H   0  0  0  0  0  0  0  0  0  0  0  0
   -1.6612   20.5452  -27.9484 H   0  0  0  0  0  0  0  0  0  0  0  0
    0.4579   21.6672  -28.6484 H   0  0  0  0  0  0  0  0  0  0  0  0
    0.4362   24.0748  -29.3140 H   0  0  0  0  0  0  0  0  0  0  0  0
   -4.1816   22.6088  -31.6128 H   0  0  0  0  0  0  0  0  0  0  0  0
   -7.3013   17.0510  -33.5116 H   0  0  0  0  0  0  0  0  0  0  0  0
   -6.2318   14.8841  -34.1180 H   0  0  0  0  0  0  0  0  0  0  0  0
   -2.3592   14.3045  -31.6798 H   0  0  0  0  0  0  0  0  0  0  0  0
   -3.5117   15.3086  -32.6707 H   0  0  0  0  0  0  0  0  0  0  0  0
   -4.0716   12.9703  -30.8461 H   0  0  0  0  0  0  0  0  0  0  0  0
   -4.9475   14.5344  -31.0432 H   0  0  0  0  0  0  0  0  0  0  0  0
   -4.8248   11.1254  -32.2484 H   0  0  0  0  0  0  0  0  0  0  0  0
   -5.3403   11.6797  -33.9126 H   0  0  0  0  0  0  0  0  0  0  0  0
   -2.6466   11.6171  -32.6745 H   0  0  0  0  0  0  0  0  0  0  0  0
   -3.1658   11.6213  -34.4161 H   0  0  0  0  0  0  0  0  0  0  0  0
   -2.5250   16.9486  -34.9735 H   0  0  0  0  0  0  0  0  0  0  0  0
   -3.5926   19.1211  -34.3802 H   0  0  0  0  0  0  0  0  0  0  0  0
  1  2  2  0
  2  3  1  0
  3  4  1  0
  4  5  2  0
  5  6  1  0
  6  7  2  0
  7  8  1  0
  8  9  1  0
  9 10  2  0
  9 11  2  0
  9 12  1  0
 12 13  1  0
 13 14  2  0
 14 15  1  0
 15 16  2  0
 16 17  1  0
 17 18  2  0
 18 19  1  0
  8 20  2  0
  2 21  1  0
 21 22  2  0
 22 23  1  0
 23 24  2  0
 24 25  1  0
 25 26  2  0
 25 27  2  0
 25 28  1  0
 28 29  1  0
 29 30  1  0
 30 31  1  0
 31 32  1  0
 32 33  1  0
 24 34  1  0
 34 35  2  0
 20  4  1  0
 35 21  1  0
 18 13  1  0
 33 28  1  0
  3 36  1  0
  5 37  1  0
  6 38  1  0
  7 39  1  0
 14 40  1  0
 15 41  1  0
 16 42  1  0
 17 43  1  0
 20 44  1  0
 22 45  1  0
 23 46  1  0
 29 47  1  0
 29 48  1  0
 30 49  1  0
 30 50  1  0
 32 51  1  0
 32 52  1  0
 33 53  1  0
 33 54  1  0
 34 55  1  0
 35 56  1  0
M  CHG  2  12  -1  19  -1
M  END
>  <UniqueID>  (35) 
34

>  <SMILES>  (35) 
O=C(Nc1cccc(S(=O)(=O)[N-]c2ccccc2[O-])c1)c1ccc(S(=O)(=O)N2CCOCC2)cc1

>  <Energy>  (35) 
84.61032902572616

>  <Genealogy>  (35) 
O=C(Nc1cccc(S(=O)(=O)[N-]c2ccccc2[O-])c1)c1ccc(S(=O)(=O)N2CCOCC2)cc1 (protonated)
O=C(Nc1cccc(S(=O)(=O)[N-]c2ccccc2[O-])c1)c1ccc(S(=O)(=O)N2CCOCC2)cc1 (3D coordinates assigned)
O=C(Nc1cccc(S(=O)(=O)[N-]c2ccccc2[O-])c1)c1ccc(S(=O)(=O)N2CCOCC2)cc1 (nonaromatic ring conformer: 84.61032902572616 kcal/mol)

>  <smiles>  (35) 
O=C(Nc1cccc(S(=O)(=O)Nc2ccccc2O)c1)c1ccc(S(=O)(=O)N2CCOCC2)cc1

>  <score_type>  (35) 
oracle

>  <origin>  (35) 
adgpu

>  <m_score__min__energy>  (35) 
-14.01

>  <m_primary>  (35) 
energy

$$$$
35:0
     RDKit          3D

 43 45  0  0  0  0  0  0  0  0999 V2000
   -1.7320   25.1060  -26.2980 O   0  0  0  0  0  0  0  0  0  0  0  0
   -1.3060   25.8710  -27.2060 C   0  0  0  0  0  0  0  0  0  0  0  0
   -1.8320   25.7840  -28.5410 N   0  0  0  0  0  0  0  0  0  0  0  0
   -2.6860   24.7290  -29.0160 C   0  0  0  0  0  0  0  0  0  0  0  0
   -2.5220   23.2010  -28.4220 S   0  0  0  0  0  0  0  0  0  0  0  0
   -3.4440   24.9450  -30.2180 N   0  0  0  0  0  0  0  0  0  0  0  0
   -4.6240   24.2080  -30.5790 C   0  0  0  0  0  0  0  0  0  0  0  0
   -5.8490   24.5300  -29.9760 C   0  0  0  0  0  0  0  0  0  0  0  0
   -7.0050   23.8120  -30.2960 C   0  0  0  0  0  0  0  0  0  0  0  0
   -6.9480   22.7520  -31.2080 C   0  0  0  0  0  0  0  0  0  0  0  0
   -8.4190   21.8700  -31.6150 S   0  0  0  0  0  0  0  0  0  0  0  0
   -9.3650   22.8140  -32.3050 O   0  0  0  0  0  0  0  0  0  0  0  0
   -9.0780   21.3610  -30.3630 O   0  0  0  0  0  0  0  0  0  0  0  0
   -8.0340   20.5350  -32.6800 N   0  0  0  0  0  0  0  0  0  0  0  0
   -9.2030   19.6720  -32.8880 C   0  0  0  0  0  0  0  0  0  0  0  0
   -9.1330   18.5460  -31.8660 C   0  0  0  0  0  0  0  0  0  0  0  0
   -7.7050   18.5460  -31.3510 C   0  0  0  0  0  0  0  0  0  0  0  0
   -7.0000   19.6720  -32.0960 C   0  0  0  0  0  0  0  0  0  0  0  0
   -5.7230   22.4120  -31.7980 C   0  0  0  0  0  0  0  0  0  0  0  0
   -4.5670   23.1290  -31.4800 C   0  0  0  0  0  0  0  0  0  0  0  0
   -0.2870   26.8800  -26.8820 C   0  0  0  0  0  0  0  0  0  0  0  0
    0.7160   26.7460  -25.9410 C   0  0  0  0  0  0  0  0  0  0  0  0
    1.4250   27.9270  -25.9820 C   0  0  0  0  0  0  0  0  0  0  0  0
    0.8140   28.7070  -26.9440 C   0  0  0  0  0  0  0  0  0  0  0  0
   -0.2020   28.0550  -27.4610 O   0  0  0  0  0  0  0  0  0  0  0  0
   -1.6440   26.5810  -29.1910 H   0  0  0  0  0  0  0  0  0  0  0  0
   -3.1100   25.6850  -30.8770 H   0  0  0  0  0  0  0  0  0  0  0  0
   -5.9002   25.3523  -29.2471 H   0  0  0  0  0  0  0  0  0  0  0  0
   -7.9638   24.0814  -29.8289 H   0  0  0  0  0  0  0  0  0  0  0  0
   -7.7040   20.9260  -33.5940 H   0  0  0  0  0  0  0  0  0  0  0  0
  -10.1270   20.2514  -32.7447 H   0  0  0  0  0  0  0  0  0  0  0  0
   -9.2056   19.2657  -33.9102 H   0  0  0  0  0  0  0  0  0  0  0  0
   -9.8377   18.7317  -31.0421 H   0  0  0  0  0  0  0  0  0  0  0  0
   -9.4039   17.5770  -32.3107 H   0  0  0  0  0  0  0  0  0  0  0  0
   -7.6878   18.7332  -30.2672 H   0  0  0  0  0  0  0  0  0  0  0  0
   -7.2124   17.5768  -31.5182 H   0  0  0  0  0  0  0  0  0  0  0  0
   -6.3782   20.2517  -31.3979 H   0  0  0  0  0  0  0  0  0  0  0  0
   -6.3477   19.2650  -32.8826 H   0  0  0  0  0  0  0  0  0  0  0  0
   -5.6717   21.5781  -32.5136 H   0  0  0  0  0  0  0  0  0  0  0  0
   -3.6065   22.8483  -31.9368 H   0  0  0  0  0  0  0  0  0  0  0  0
    0.9084   25.8775  -25.2939 H   0  0  0  0  0  0  0  0  0  0  0  0
    2.3004   28.1943  -25.3719 H   0  0  0  0  0  0  0  0  0  0  0  0
    1.1302   29.7201  -27.2332 H   0  0  0  0  0  0  0  0  0  0  0  0
  1  2  2  0
  2  3  1  0
  3  4  1  0
  4  5  2  0
  4  6  1  0
  6  7  1  0
  7  8  2  0
  8  9  1  0
  9 10  2  0
 10 11  1  0
 11 12  2  0
 11 13  2  0
 11 14  1  0
 14 15  1  0
 15 16  1  0
 16 17  1  0
 17 18  1  0
 10 19  1  0
 19 20  2  0
  2 21  1  0
 21 22  2  0
 22 23  1  0
 23 24  2  0
 24 25  1  0
 20  7  1  0
 25 21  1  0
 18 14  1  0
  3 26  1  0
  6 27  1  0
  8 28  1  0
  9 29  1  0
 14 30  1  0
 15 31  1  0
 15 32  1  0
 16 33  1  0
 16 34  1  0
 17 35  1  0
 17 36  1  0
 18 37  1  0
 18 38  1  0
 19 39  1  0
 20 40  1  0
 22 41  1  0
 23 42  1  0
 24 43  1  0
M  CHG  1  14   1
M  END
>  <UniqueID>  (36) 
35

>  <SMILES>  (36) 
O=C(NC(=S)Nc1ccc(S(=O)(=O)[NH+]2CCCC2)cc1)c1ccco1

>  <Energy>  (36) 
77.68068707700314

>  <Genealogy>  (36) 
O=C(NC(=S)Nc1ccc(S(=O)(=O)[NH+]2CCCC2)cc1)c1ccco1 (protonated)
O=C(NC(=S)Nc1ccc(S(=O)(=O)[NH+]2CCCC2)cc1)c1ccco1 (3D coordinates assigned)
O=C(NC(=S)Nc1ccc(S(=O)(=O)[NH+]2CCCC2)cc1)c1ccco1 (nonaromatic ring conformer: 77.68068707700314 kcal/mol)

>  <smiles>  (36) 
O=C(NC(=S)Nc1ccc(S(=O)(=O)N2CCCC2)cc1)c1ccco1

>  <score_type>  (36) 
oracle

>  <origin>  (36) 
adgpu

>  <m_score__min__energy>  (36) 
-8.3300000000000001

>  <m_primary>  (36) 
energy

$$$$
36:0
     RDKit          3D

 46 48  0  0  0  0  0  0  0  0999 V2000
   -5.3210   25.6380  -30.4840 C   0  0  0  0  0  0  0  0  0  0  0  0
   -4.6480   24.2850  -30.4940 C   0  0  0  0  0  0  0  0  0  0  0  0
   -5.3590   23.1240  -30.8860 C   0  0  0  0  0  0  0  0  0  0  0  0
   -6.7710   23.1740  -31.3310 C   0  0  0  0  0  0  0  0  0  0  0  0
   -7.5980   23.8800  -30.6980 O   0  0  0  0  0  0  0  0  0  0  0  0
   -7.2390   22.3730  -32.4260 N   0  0  0  0  0  0  0  0  0  0  0  0
   -7.4800   20.9580  -32.3940 C   0  0  0  0  0  0  0  0  0  0  0  0
   -8.5320   20.4030  -31.6410 C   0  0  0  0  0  0  0  0  0  0  0  0
   -8.7390   19.0210  -31.6350 C   0  0  0  0  0  0  0  0  0  0  0  0
   -7.8910   18.1820  -32.3640 C   0  0  0  0  0  0  0  0  0  0  0  0
   -6.8270   18.7240  -33.0890 C   0  0  0  0  0  0  0  0  0  0  0  0
   -6.6170   20.1080  -33.0970 C   0  0  0  0  0  0  0  0  0  0  0  0
   -4.7070   21.8820  -30.8790 C   0  0  0  0  0  0  0  0  0  0  0  0
   -3.3640   21.7840  -30.5280 C   0  0  0  0  0  0  0  0  0  0  0  0
   -2.6320   22.9270  -30.1810 C   0  0  0  0  0  0  0  0  0  0  0  0
   -1.1470   22.8080  -29.8860 C   0  0  0  0  0  0  0  0  0  0  0  0
   -0.8390   21.9380  -28.7260 N   0  0  0  0  0  0  0  0  0  0  0  0
   -0.4510   20.5570  -29.1030 C   0  0  0  0  0  0  0  0  0  0  0  0
   -0.4060   19.6400  -27.8780 C   0  0  0  0  0  0  0  0  0  0  0  0
   -1.7940   19.5320  -27.2190 C   0  0  0  0  0  0  0  0  0  0  0  0
   -2.6680   20.7770  -27.4570 C   0  0  0  0  0  0  0  0  0  0  0  0
   -1.8050   22.0390  -27.6020 C   0  0  0  0  0  0  0  0  0  0  0  0
   -3.2920   24.1720  -30.1180 C   0  0  0  0  0  0  0  0  0  0  0  0
   -2.5930   25.2990  -29.6900 O   0  0  0  0  0  0  0  0  0  0  0  0
   -5.4812   25.9601  -29.4445 H   0  0  0  0  0  0  0  0  0  0  0  0
   -4.6817   26.3694  -31.0001 H   0  0  0  0  0  0  0  0  0  0  0  0
   -6.2900   25.5694  -31.0001 H   0  0  0  0  0  0  0  0  0  0  0  0
   -9.1930   21.0591  -31.0556 H   0  0  0  0  0  0  0  0  0  0  0  0
   -9.5704   18.5927  -31.0559 H   0  0  0  0  0  0  0  0  0  0  0  0
   -8.0616   17.0953  -32.3667 H   0  0  0  0  0  0  0  0  0  0  0  0
   -6.1536   18.0627  -33.6541 H   0  0  0  0  0  0  0  0  0  0  0  0
   -5.7702   20.5299  -33.6581 H   0  0  0  0  0  0  0  0  0  0  0  0
   -5.2642   20.9744  -31.1543 H   0  0  0  0  0  0  0  0  0  0  0  0
   -2.8726   20.7999  -30.5230 H   0  0  0  0  0  0  0  0  0  0  0  0
   -0.6485   22.3924  -30.7741 H   0  0  0  0  0  0  0  0  0  0  0  0
   -0.7864   23.8168  -29.6366 H   0  0  0  0  0  0  0  0  0  0  0  0
   -1.1850   20.1614  -29.8204 H   0  0  0  0  0  0  0  0  0  0  0  0
    0.5528   20.5877  -29.5518 H   0  0  0  0  0  0  0  0  0  0  0  0
   -0.0771   18.6379  -28.1905 H   0  0  0  0  0  0  0  0  0  0  0  0
    0.2972   20.0655  -27.1470 H   0  0  0  0  0  0  0  0  0  0  0  0
   -2.3122   18.6547  -27.6336 H   0  0  0  0  0  0  0  0  0  0  0  0
   -1.6383   19.4401  -26.1340 H   0  0  0  0  0  0  0  0  0  0  0  0
   -3.2534   20.6344  -28.3773 H   0  0  0  0  0  0  0  0  0  0  0  0
   -3.3341   20.9069  -26.5913 H   0  0  0  0  0  0  0  0  0  0  0  0
   -2.4657   22.9003  -27.7802 H   0  0  0  0  0  0  0  0  0  0  0  0
   -1.2278   22.1593  -26.6733 H   0  0  0  0  0  0  0  0  0  0  0  0
  1  2  1  0
  2  3  2  0
  3  4  1  0
  4  5  2  0
  4  6  1  0
  6  7  1  0
  7  8  2  0
  8  9  1  0
  9 10  2  0
 10 11  1  0
 11 12  2  0
  3 13  1  0
 13 14  2  0
 14 15  1  0
 15 16  1  0
 16 17  1  0
 17 18  1  0
 18 19  1  0
 19 20  1  0
 20 21  1  0
 21 22  1  0
 15 23  2  0
 23 24  1  0
 23  2  1  0
 12  7  1  0
 22 17  1  0
  1 25  1  0
  1 26  1  0
  1 27  1  0
  8 28  1  0
  9 29  1  0
 10 30  1  0
 11 31  1  0
 12 32  1  0
 13 33  1  0
 14 34  1  0
 16 35  1  0
 16 36  1  0
 18 37  1  0
 18 38  1  0
 19 39  1  0
 19 40  1  0
 20 41  1  0
 20 42  1  0
 21 43  1  0
 21 44  1  0
 22 45  1  0
 22 46  1  0
M  CHG  2   6  -1  24  -1
M  END
>  <UniqueID>  (37) 
36

>  <SMILES>  (37) 
Cc1c(C(=O)[N-]c2ccccc2)ccc(CN2CCCCC2)c1[O-]

>  <Energy>  (37) 
66.08733110377872

>  <Genealogy>  (37) 
Cc1c(C(=O)[N-]c2ccccc2)ccc(CN2CCCCC2)c1[O-] (protonated)
Cc1c(C(=O)[N-]c2ccccc2)ccc(CN2CCCCC2)c1[O-] (3D coordinates assigned)
Cc1c(C(=O)[N-]c2ccccc2)ccc(CN2CCCCC2)c1[O-] (nonaromatic ring conformer: 66.08733110377872 kcal/mol)

>  <smiles>  (37) 
Cc1c(C(=O)Nc2ccccc2)ccc(CN2CCCCC2)c1O

>  <score_type>  (37) 
oracle

>  <origin>  (37) 
adgpu

>  <m_score__min__energy>  (37) 
-11.279999999999999

>  <m_primary>  (37) 
energy

$$$$
37:0
     RDKit          3D

 60 63  0  0  0  0  0  0  0  0999 V2000
   -0.1040   20.2120  -32.2490 C   0  0  0  0  0  0  0  0  0  0  0  0
   -1.4450   19.7020  -32.6880 C   0  0  0  0  0  0  0  0  0  0  0  0
   -2.5840   19.9740  -31.9140 C   0  0  0  0  0  0  0  0  0  0  0  0
   -3.8400   19.5160  -32.3240 C   0  0  0  0  0  0  0  0  0  0  0  0
   -3.9700   18.7850  -33.5120 C   0  0  0  0  0  0  0  0  0  0  0  0
   -5.5340   18.1390  -34.0080 S   0  0  0  0  0  0  0  0  0  0  0  0
   -6.1000   18.9280  -35.1550 O   0  0  0  0  0  0  0  0  0  0  0  0
   -5.3540   16.7100  -34.4340 O   0  0  0  0  0  0  0  0  0  0  0  0
   -6.6340   18.2110  -32.6680 N   0  0  0  0  0  0  0  0  0  0  0  0
   -7.3980   19.3910  -32.3840 C   0  0  0  0  0  0  0  0  0  0  0  0
   -8.7850   19.3210  -32.1620 C   0  0  0  0  0  0  0  0  0  0  0  0
   -9.5230   20.4870  -31.9510 C   0  0  0  0  0  0  0  0  0  0  0  0
   -8.8890   21.7300  -31.9690 C   0  0  0  0  0  0  0  0  0  0  0  0
   -7.5030   21.8140  -32.1890 C   0  0  0  0  0  0  0  0  0  0  0  0
   -6.8380   23.0470  -32.2430 O   0  0  0  0  0  0  0  0  0  0  0  0
   -5.6700   23.3320  -31.5260 C   0  0  0  0  0  0  0  0  0  0  0  0
   -4.4820   22.6980  -31.9070 C   0  0  0  0  0  0  0  0  0  0  0  0
   -3.3050   22.9100  -31.1880 C   0  0  0  0  0  0  0  0  0  0  0  0
   -3.3010   23.7640  -30.0800 C   0  0  0  0  0  0  0  0  0  0  0  0
   -1.8300   23.9750  -29.1280 S   0  0  0  0  0  0  0  0  0  0  0  0
   -1.6120   25.4410  -28.8740 O   0  0  0  0  0  0  0  0  0  0  0  0
   -0.6610   23.4700  -29.9260 O   0  0  0  0  0  0  0  0  0  0  0  0
   -1.8960   23.1260  -27.5970 N   0  0  0  0  0  0  0  0  0  0  0  0
   -0.5870   22.5660  -27.1940 C   0  0  0  0  0  0  0  0  0  0  0  0
   -0.4780   21.0540  -27.4510 C   0  0  0  0  0  0  0  0  0  0  0  0
   -1.2770   20.6810  -28.5490 O   0  0  0  0  0  0  0  0  0  0  0  0
   -2.6440   20.7930  -28.2020 C   0  0  0  0  0  0  0  0  0  0  0  0
   -2.9980   22.1460  -27.5400 C   0  0  0  0  0  0  0  0  0  0  0  0
   -4.4750   24.4430  -29.7240 C   0  0  0  0  0  0  0  0  0  0  0  0
   -5.6600   24.2510  -30.4500 C   0  0  0  0  0  0  0  0  0  0  0  0
   -6.8970   25.0080  -30.0490 C   0  0  0  0  0  0  0  0  0  0  0  0
   -6.7610   20.6400  -32.3620 C   0  0  0  0  0  0  0  0  0  0  0  0
   -2.8370   18.5300  -34.2950 C   0  0  0  0  0  0  0  0  0  0  0  0
   -1.5810   18.9870  -33.8880 C   0  0  0  0  0  0  0  0  0  0  0  0
   -0.0599   20.2288  -31.1500 H   0  0  0  0  0  0  0  0  0  0  0  0
    0.6848   19.5511  -32.6376 H   0  0  0  0  0  0  0  0  0  0  0  0
    0.0463   21.2301  -32.6376 H   0  0  0  0  0  0  0  0  0  0  0  0
   -2.4882   20.5496  -30.9815 H   0  0  0  0  0  0  0  0  0  0  0  0
   -4.7285   19.7303  -31.7119 H   0  0  0  0  0  0  0  0  0  0  0  0
   -6.5420   17.4770  -31.9320 H   0  0  0  0  0  0  0  0  0  0  0  0
   -9.2901   18.3439  -32.1546 H   0  0  0  0  0  0  0  0  0  0  0  0
  -10.6063   20.4259  -31.7702 H   0  0  0  0  0  0  0  0  0  0  0  0
   -9.4755   22.6470  -31.8106 H   0  0  0  0  0  0  0  0  0  0  0  0
   -4.4760   22.0279  -32.7793 H   0  0  0  0  0  0  0  0  0  0  0  0
   -2.3773   22.4040  -31.4935 H   0  0  0  0  0  0  0  0  0  0  0  0
    0.2035   23.0766  -27.7635 H   0  0  0  0  0  0  0  0  0  0  0  0
   -0.4794   22.7252  -26.1109 H   0  0  0  0  0  0  0  0  0  0  0  0
    0.5705   20.7976  -27.6627 H   0  0  0  0  0  0  0  0  0  0  0  0
   -0.8274   20.5154  -26.5578 H   0  0  0  0  0  0  0  0  0  0  0  0
   -3.2464   20.6831  -29.1158 H   0  0  0  0  0  0  0  0  0  0  0  0
   -2.8594   20.0039  -27.4665 H   0  0  0  0  0  0  0  0  0  0  0  0
   -3.8709   22.5707  -28.0573 H   0  0  0  0  0  0  0  0  0  0  0  0
   -3.2042   21.9468  -26.4780 H   0  0  0  0  0  0  0  0  0  0  0  0
   -4.4668   25.1329  -28.8672 H   0  0  0  0  0  0  0  0  0  0  0  0
   -6.9627   25.0482  -28.9517 H   0  0  0  0  0  0  0  0  0  0  0  0
   -6.8475   26.0307  -30.4511 H   0  0  0  0  0  0  0  0  0  0  0  0
   -7.7851   24.4985  -30.4511 H   0  0  0  0  0  0  0  0  0  0  0  0
   -5.6690   20.6976  -32.4817 H   0  0  0  0  0  0  0  0  0  0  0  0
   -2.9365   17.9672  -35.2349 H   0  0  0  0  0  0  0  0  0  0  0  0
   -0.6962   18.7858  -34.5099 H   0  0  0  0  0  0  0  0  0  0  0  0
  1  2  1  0
  2  3  2  0
  3  4  1  0
  4  5  2  0
  5  6  1  0
  6  7  2  0
  6  8  2  0
  6  9  1  0
  9 10  1  0
 10 11  2  0
 11 12  1  0
 12 13  2  0
 13 14  1  0
 14 15  1  0
 15 16  1  0
 16 17  2  0
 17 18  1  0
 18 19  2  0
 19 20  1  0
 20 21  2  0
 20 22  2  0
 20 23  1  0
 23 24  1  0
 24 25  1  0
 25 26  1  0
 26 27  1  0
 27 28  1  0
 19 29  1  0
 29 30  2  0
 30 31  1  0
 14 32  2  0
  5 33  1  0
 33 34  2  0
 34  2  1  0
 32 10  1  0
 30 16  1  0
 28 23  1  0
  1 35  1  0
  1 36  1  0
  1 37  1  0
  3 38  1  0
  4 39  1  0
  9 40  1  0
 11 41  1  0
 12 42  1  0
 13 43  1  0
 17 44  1  0
 18 45  1  0
 24 46  1  0
 24 47  1  0
 25 48  1  0
 25 49  1  0
 27 50  1  0
 27 51  1  0
 28 52  1  0
 28 53  1  0
 29 54  1  0
 31 55  1  0
 31 56  1  0
 31 57  1  0
 32 58  1  0
 33 59  1  0
 34 60  1  0
M  END
>  <UniqueID>  (38) 
37

>  <SMILES>  (38) 
Cc1ccc(S(=O)(=O)Nc2cccc(Oc3ccc(S(=O)(=O)N4CCOCC4)cc3C)c2)cc1

>  <Energy>  (38) 
83.13107863411705

>  <Genealogy>  (38) 
Cc1ccc(S(=O)(=O)Nc2cccc(Oc3ccc(S(=O)(=O)N4CCOCC4)cc3C)c2)cc1 (3D coordinates assigned)
Cc1ccc(S(=O)(=O)Nc2cccc(Oc3ccc(S(=O)(=O)N4CCOCC4)cc3C)c2)cc1 (nonaromatic ring conformer: 83.13107863411705 kcal/mol)

>  <smiles>  (38) 
Cc1ccc(S(=O)(=O)Nc2cccc(Oc3ccc(S(=O)(=O)N4CCOCC4)cc3C)c2)cc1

>  <score_type>  (38) 
oracle

>  <origin>  (38) 
adgpu

>  <m_score__min__energy>  (38) 
-11.16

>  <m_primary>  (38) 
energy

$$$$
38:0
     RDKit          3D

 59 62  0  0  0  0  0  0  0  0999 V2000
   -0.3080   22.1800  -30.1600 O   0  0  0  0  0  0  0  0  0  0  0  0
   -0.7390   23.1200  -29.4410 C   0  0  0  0  0  0  0  0  0  0  0  0
    0.1920   24.0860  -28.9370 N   0  0  0  0  0  0  0  0  0  0  0  0
    0.0320   24.8360  -27.7270 C   0  0  0  0  0  0  0  0  0  0  0  0
    0.7470   24.4510  -26.5890 C   0  0  0  0  0  0  0  0  0  0  0  0
    0.6750   25.2140  -25.4190 C   0  0  0  0  0  0  0  0  0  0  0  0
   -0.1300   26.3610  -25.3730 C   0  0  0  0  0  0  0  0  0  0  0  0
   -0.1040   27.4090  -23.9500 S   0  0  0  0  0  0  0  0  0  0  0  0
   -1.1970   26.9930  -23.0050 O   0  0  0  0  0  0  0  0  0  0  0  0
   -0.3730   28.8280  -24.3740 O   0  0  0  0  0  0  0  0  0  0  0  0
    1.4400   27.3220  -23.1220 N   0  0  0  0  0  0  0  0  0  0  0  0
    2.5440   27.1990  -24.1030 C   0  0  0  0  0  0  0  0  0  0  0  0
    3.8780   27.6570  -23.4900 C   0  0  0  0  0  0  0  0  0  0  0  0
    3.8810   29.0090  -23.0470 O   0  0  0  0  0  0  0  0  0  0  0  0
    2.5870   29.5220  -22.7620 C   0  0  0  0  0  0  0  0  0  0  0  0
    1.6270   28.4630  -22.1920 C   0  0  0  0  0  0  0  0  0  0  0  0
   -0.9060   26.7030  -26.4880 C   0  0  0  0  0  0  0  0  0  0  0  0
   -0.8220   25.9510  -27.6630 C   0  0  0  0  0  0  0  0  0  0  0  0
   -2.1530   23.2360  -29.1870 N   0  0  0  0  0  0  0  0  0  0  0  0
   -2.9660   22.0310  -28.9840 C   0  0  0  0  0  0  0  0  0  0  0  0
   -4.2800   22.1730  -29.7580 C   0  0  0  0  0  0  0  0  0  0  0  0
   -5.0630   23.3500  -29.3160 N   0  0  0  0  0  0  0  0  0  0  0  0
   -6.1500   23.8770  -30.5800 S   0  0  0  0  0  0  0  0  0  0  0  0
   -7.1440   24.8540  -30.0160 O   0  0  0  0  0  0  0  0  0  0  0  0
   -5.3630   24.5810  -31.6490 O   0  0  0  0  0  0  0  0  0  0  0  0
   -7.0190   22.5160  -31.2990 C   0  0  0  0  0  0  0  0  0  0  0  0
   -6.3830   21.6880  -32.2360 C   0  0  0  0  0  0  0  0  0  0  0  0
   -7.0530   20.5780  -32.7630 C   0  0  0  0  0  0  0  0  0  0  0  0
   -8.3620   20.2930  -32.3660 C   0  0  0  0  0  0  0  0  0  0  0  0
   -9.0060   21.1230  -31.4440 C   0  0  0  0  0  0  0  0  0  0  0  0
   -8.3390   22.2330  -30.9140 C   0  0  0  0  0  0  0  0  0  0  0  0
   -4.2560   24.4750  -28.7840 C   0  0  0  0  0  0  0  0  0  0  0  0
   -2.8310   24.5290  -29.3610 C   0  0  0  0  0  0  0  0  0  0  0  0
    1.3689   23.5440  -26.6139 H   0  0  0  0  0  0  0  0  0  0  0  0
    1.2518   24.9132  -24.5320 H   0  0  0  0  0  0  0  0  0  0  0  0
    1.4210   26.4420  -22.5500 H   0  0  0  0  0  0  0  0  0  0  0  0
    2.6331   26.1478  -24.4146 H   0  0  0  0  0  0  0  0  0  0  0  0
    2.3174   27.8390  -24.9685 H   0  0  0  0  0  0  0  0  0  0  0  0
    4.1019   27.0109  -22.6284 H   0  0  0  0  0  0  0  0  0  0  0  0
    4.6342   27.5826  -24.2854 H   0  0  0  0  0  0  0  0  0  0  0  0
    2.6871   30.3346  -22.0274 H   0  0  0  0  0  0  0  0  0  0  0  0
    2.1585   29.8741  -23.7119 H   0  0  0  0  0  0  0  0  0  0  0  0
    2.0381   28.0847  -21.2444 H   0  0  0  0  0  0  0  0  0  0  0  0
    0.6477   28.9401  -22.0395 H   0  0  0  0  0  0  0  0  0  0  0  0
   -1.5845   27.5674  -26.4385 H   0  0  0  0  0  0  0  0  0  0  0  0
   -1.4250   26.2319  -28.5391 H   0  0  0  0  0  0  0  0  0  0  0  0
   -2.4169   21.1509  -29.3499 H   0  0  0  0  0  0  0  0  0  0  0  0
   -3.1803   21.9063  -27.9123 H   0  0  0  0  0  0  0  0  0  0  0  0
   -4.0511   22.2810  -30.8285 H   0  0  0  0  0  0  0  0  0  0  0  0
   -4.8840   21.2736  -29.5676 H   0  0  0  0  0  0  0  0  0  0  0  0
   -5.3551   21.9118  -32.5573 H   0  0  0  0  0  0  0  0  0  0  0  0
   -6.5474   19.9278  -33.4921 H   0  0  0  0  0  0  0  0  0  0  0  0
   -8.8846   19.4172  -32.7782 H   0  0  0  0  0  0  0  0  0  0  0  0
  -10.0385   20.9033  -31.1347 H   0  0  0  0  0  0  0  0  0  0  0  0
   -8.8512   22.8867  -30.1926 H   0  0  0  0  0  0  0  0  0  0  0  0
   -4.7675   25.4176  -29.0286 H   0  0  0  0  0  0  0  0  0  0  0  0
   -4.1621   24.3234  -27.6986 H   0  0  0  0  0  0  0  0  0  0  0  0
   -2.8840   24.7680  -30.4334 H   0  0  0  0  0  0  0  0  0  0  0  0
   -2.2610   25.3031  -28.8264 H   0  0  0  0  0  0  0  0  0  0  0  0
  1  2  2  0
  2  3  1  0
  3  4  1  0
  4  5  2  0
  5  6  1  0
  6  7  2  0
  7  8  1  0
  8  9  2  0
  8 10  2  0
  8 11  1  0
 11 12  1  0
 12 13  1  0
 13 14  1  0
 14 15  1  0
 15 16  1  0
  7 17  1  0
 17 18  2  0
  2 19  1  0
 19 20  1  0
 20 21  1  0
 21 22  1  0
 22 23  1  0
 23 24  2  0
 23 25  2  0
 23 26  1  0
 26 27  2  0
 27 28  1  0
 28 29  2  0
 29 30  1  0
 30 31  2  0
 22 32  1  0
 32 33  1  0
 18  4  1  0
 33 19  1  0
 16 11  1  0
 31 26  1  0
  5 34  1  0
  6 35  1  0
 11 36  1  0
 12 37  1  0
 12 38  1  0
 13 39  1  0
 13 40  1  0
 15 41  1  0
 15 42  1  0
 16 43  1  0
 16 44  1  0
 17 45  1  0
 18 46  1  0
 20 47  1  0
 20 48  1  0
 21 49  1  0
 21 50  1  0
 27 51  1  0
 28 52  1  0
 29 53  1  0
 30 54  1  0
 31 55  1  0
 32 56  1  0
 32 57  1  0
 33 58  1  0
 33 59  1  0
M  CHG  2   3  -1  11   1
M  END
>  <UniqueID>  (39) 
38

>  <SMILES>  (39) 
O=C([N-]c1ccc(S(=O)(=O)[NH+]2CCOCC2)cc1)N1CCN(S(=O)(=O)c2ccccc2)CC1

>  <Energy>  (39) 
83.4851728045499

>  <Genealogy>  (39) 
O=C([N-]c1ccc(S(=O)(=O)[NH+]2CCOCC2)cc1)N1CCN(S(=O)(=O)c2ccccc2)CC1 (protonated)
O=C([N-]c1ccc(S(=O)(=O)[NH+]2CCOCC2)cc1)N1CCN(S(=O)(=O)c2ccccc2)CC1 (3D coordinates assigned)
O=C([N-]c1ccc(S(=O)(=O)[NH+]2CCOCC2)cc1)N1CCN(S(=O)(=O)c2ccccc2)CC1 (nonaromatic ring conformer: 83.4851728045499 kcal/mol)

>  <smiles>  (39) 
O=C(Nc1ccc(S(=O)(=O)N2CCOCC2)cc1)N1CCN(S(=O)(=O)c2ccccc2)CC1

>  <score_type>  (39) 
oracle

>  <origin>  (39) 
adgpu

>  <m_score__min__energy>  (39) 
-11.81

>  <m_primary>  (39) 
energy

$$$$
39:0
     RDKit          3D

 43 45  0  0  0  0  0  0  0  0999 V2000
   -4.5180   25.1240  -31.0170 O   0  0  0  0  0  0  0  0  0  0  0  0
   -4.5180   23.6400  -30.7860 S   0  0  0  0  0  0  0  0  0  0  0  0
   -3.4300   23.0120  -31.6100 O   0  0  0  0  0  0  0  0  0  0  0  0
   -4.2080   23.3250  -29.1090 N   0  0  0  0  0  0  0  0  0  0  0  0
   -3.3640   24.1160  -28.2620 C   0  0  0  0  0  0  0  0  0  0  0  0
   -3.8580   24.5240  -27.0170 C   0  0  0  0  0  0  0  0  0  0  0  0
   -3.0680   25.2920  -26.1580 C   0  0  0  0  0  0  0  0  0  0  0  0
   -1.7720   25.6540  -26.5360 C   0  0  0  0  0  0  0  0  0  0  0  0
   -1.2670   25.2540  -27.7790 C   0  0  0  0  0  0  0  0  0  0  0  0
    0.0240   25.6090  -28.1670 O   0  0  0  0  0  0  0  0  0  0  0  0
   -2.0610   24.4900  -28.6410 C   0  0  0  0  0  0  0  0  0  0  0  0
   -6.0920   22.9910  -31.2390 C   0  0  0  0  0  0  0  0  0  0  0  0
   -7.2200   23.8210  -31.2570 C   0  0  0  0  0  0  0  0  0  0  0  0
   -8.4630   23.3070  -31.6350 C   0  0  0  0  0  0  0  0  0  0  0  0
   -8.5850   21.9620  -31.9960 C   0  0  0  0  0  0  0  0  0  0  0  0
   -7.4630   21.1240  -31.9780 C   0  0  0  0  0  0  0  0  0  0  0  0
   -7.6390   19.4270  -32.4150 S   0  0  0  0  0  0  0  0  0  0  0  0
   -8.9800   19.1920  -33.0560 O   0  0  0  0  0  0  0  0  0  0  0  0
   -7.5500   18.5980  -31.1640 O   0  0  0  0  0  0  0  0  0  0  0  0
   -6.3620   18.9730  -33.5160 N   0  0  0  0  0  0  0  0  0  0  0  0
   -6.5020   17.5550  -33.8940 C   0  0  0  0  0  0  0  0  0  0  0  0
   -5.2480   17.0630  -34.6480 C   0  0  0  0  0  0  0  0  0  0  0  0
   -4.4170   18.1470  -35.0150 O   0  0  0  0  0  0  0  0  0  0  0  0
   -3.9230   18.7860  -33.8520 C   0  0  0  0  0  0  0  0  0  0  0  0
   -5.0530   19.2030  -32.8870 C   0  0  0  0  0  0  0  0  0  0  0  0
   -6.2170   21.6410  -31.5940 C   0  0  0  0  0  0  0  0  0  0  0  0
   -4.8757   24.2377  -26.7130 H   0  0  0  0  0  0  0  0  0  0  0  0
   -3.4661   25.6119  -25.1838 H   0  0  0  0  0  0  0  0  0  0  0  0
   -1.1485   26.2535  -25.8565 H   0  0  0  0  0  0  0  0  0  0  0  0
    0.6430   24.9430  -28.6150 H   0  0  0  0  0  0  0  0  0  0  0  0
   -1.6652   24.1801  -29.6194 H   0  0  0  0  0  0  0  0  0  0  0  0
   -7.1271   24.8796  -30.9730 H   0  0  0  0  0  0  0  0  0  0  0  0
   -9.3469   23.9616  -31.6486 H   0  0  0  0  0  0  0  0  0  0  0  0
   -9.5647   21.5609  -32.2949 H   0  0  0  0  0  0  0  0  0  0  0  0
   -6.6364   16.9508  -32.9847 H   0  0  0  0  0  0  0  0  0  0  0  0
   -7.3749   17.4506  -34.5552 H   0  0  0  0  0  0  0  0  0  0  0  0
   -4.6819   16.3806  -33.9969 H   0  0  0  0  0  0  0  0  0  0  0  0
   -5.5711   16.5449  -35.5630 H   0  0  0  0  0  0  0  0  0  0  0  0
   -3.2479   18.0936  -33.3278 H   0  0  0  0  0  0  0  0  0  0  0  0
   -3.3967   19.6988  -34.1678 H   0  0  0  0  0  0  0  0  0  0  0  0
   -4.9825   18.6078  -31.9646 H   0  0  0  0  0  0  0  0  0  0  0  0
   -4.9492   20.2721  -32.6500 H   0  0  0  0  0  0  0  0  0  0  0  0
   -5.3347   20.9845  -31.5714 H   0  0  0  0  0  0  0  0  0  0  0  0
  1  2  2  0
  2  3  2  0
  2  4  1  0
  4  5  1  0
  5  6  2  0
  6  7  1  0
  7  8  2  0
  8  9  1  0
  9 10  1  0
  9 11  2  0
  2 12  1  0
 12 13  2  0
 13 14  1  0
 14 15  2  0
 15 16  1  0
 16 17  1  0
 17 18  2  0
 17 19  2  0
 17 20  1  0
 20 21  1  0
 21 22  1  0
 22 23  1  0
 23 24  1  0
 24 25  1  0
 16 26  2  0
 11  5  1  0
 26 12  1  0
 25 20  1  0
  6 27  1  0
  7 28  1  0
  8 29  1  0
 10 30  1  0
 11 31  1  0
 13 32  1  0
 14 33  1  0
 15 34  1  0
 21 35  1  0
 21 36  1  0
 22 37  1  0
 22 38  1  0
 24 39  1  0
 24 40  1  0
 25 41  1  0
 25 42  1  0
 26 43  1  0
M  CHG  1   4  -1
M  END
>  <UniqueID>  (40) 
39

>  <SMILES>  (40) 
O=S(=O)([N-]c1cccc(O)c1)c1cccc(S(=O)(=O)N2CCOCC2)c1

>  <Energy>  (40) 
53.83508530107866

>  <Genealogy>  (40) 
O=S(=O)([N-]c1cccc(O)c1)c1cccc(S(=O)(=O)N2CCOCC2)c1 (protonated)
O=S(=O)([N-]c1cccc(O)c1)c1cccc(S(=O)(=O)N2CCOCC2)c1 (3D coordinates assigned)
O=S(=O)([N-]c1cccc(O)c1)c1cccc(S(=O)(=O)N2CCOCC2)c1 (nonaromatic ring conformer: 53.83508530107866 kcal/mol)

>  <smiles>  (40) 
O=S(=O)(Nc1cccc(O)c1)c1cccc(S(=O)(=O)N2CCOCC2)c1

>  <score_type>  (40) 
oracle

>  <origin>  (40) 
adgpu

>  <m_score__min__energy>  (40) 
-9.9600000000000009

>  <m_primary>  (40) 
energy

$$$$
40:0
     RDKit          3D

 43 45  0  0  0  0  0  0  0  0999 V2000
   -5.9740   25.7940  -29.8450 O   0  0  0  0  0  0  0  0  0  0  0  0
   -5.0410   24.7020  -30.2920 S   0  0  0  0  0  0  0  0  0  0  0  0
   -4.0190   25.3130  -31.2100 O   0  0  0  0  0  0  0  0  0  0  0  0
   -4.2770   24.0180  -28.8930 N   0  0  0  0  0  0  0  0  0  0  0  0
   -2.9670   23.4340  -28.8410 C   0  0  0  0  0  0  0  0  0  0  0  0
   -2.7680   22.0620  -28.5930 C   0  0  0  0  0  0  0  0  0  0  0  0
   -1.4740   21.5320  -28.5490 C   0  0  0  0  0  0  0  0  0  0  0  0
   -1.2380   19.8210  -28.2400 Cl  0  0  0  0  0  0  0  0  0  0  0  0
   -0.3700   22.3640  -28.7520 C   0  0  0  0  0  0  0  0  0  0  0  0
   -0.5590   23.7220  -29.0140 C   0  0  0  0  0  0  0  0  0  0  0  0
   -1.8510   24.2570  -29.0620 C   0  0  0  0  0  0  0  0  0  0  0  0
   -2.0230   25.6110  -29.3260 O   0  0  0  0  0  0  0  0  0  0  0  0
   -5.9720   23.4590  -31.1250 C   0  0  0  0  0  0  0  0  0  0  0  0
   -7.3710   23.4640  -31.0560 C   0  0  0  0  0  0  0  0  0  0  0  0
   -8.1100   22.4620  -31.6880 C   0  0  0  0  0  0  0  0  0  0  0  0
   -7.4590   21.4290  -32.3790 C   0  0  0  0  0  0  0  0  0  0  0  0
   -8.2110   20.4370  -33.0060 O   0  0  0  0  0  0  0  0  0  0  0  0
   -6.0520   21.4070  -32.4320 C   0  0  0  0  0  0  0  0  0  0  0  0
   -5.1640   20.0990  -33.2210 S   0  0  0  0  0  0  0  0  0  0  0  0
   -3.7570   20.5640  -33.4740 O   0  0  0  0  0  0  0  0  0  0  0  0
   -5.8050   19.7340  -34.5310 O   0  0  0  0  0  0  0  0  0  0  0  0
   -5.1630   18.7110  -32.1510 N   0  0  0  0  0  0  0  0  0  0  0  0
   -6.3140   18.7340  -31.2200 C   0  0  0  0  0  0  0  0  0  0  0  0
   -7.4580   17.8060  -31.6660 C   0  0  0  0  0  0  0  0  0  0  0  0
   -7.5240   17.7550  -33.0730 O   0  0  0  0  0  0  0  0  0  0  0  0
   -6.3970   17.0700  -33.5930 C   0  0  0  0  0  0  0  0  0  0  0  0
   -5.0660   17.4450  -32.8970 C   0  0  0  0  0  0  0  0  0  0  0  0
   -5.3200   22.4340  -31.8220 C   0  0  0  0  0  0  0  0  0  0  0  0
   -3.6346   21.4036  -28.4330 H   0  0  0  0  0  0  0  0  0  0  0  0
    0.6477   21.9490  -28.7054 H   0  0  0  0  0  0  0  0  0  0  0  0
    0.3108   24.3738  -29.1833 H   0  0  0  0  0  0  0  0  0  0  0  0
   -7.8894   24.2603  -30.5018 H   0  0  0  0  0  0  0  0  0  0  0  0
   -9.2089   22.4826  -31.6439 H   0  0  0  0  0  0  0  0  0  0  0  0
   -7.8010   19.8100  -33.6880 H   0  0  0  0  0  0  0  0  0  0  0  0
   -5.9688   18.4141  -30.2258 H   0  0  0  0  0  0  0  0  0  0  0  0
   -6.7071   19.7612  -31.2033 H   0  0  0  0  0  0  0  0  0  0  0  0
   -7.2786   16.7940  -31.2739 H   0  0  0  0  0  0  0  0  0  0  0  0
   -8.4095   18.1970  -31.2763 H   0  0  0  0  0  0  0  0  0  0  0  0
   -6.5605   15.9891  -33.4707 H   0  0  0  0  0  0  0  0  0  0  0  0
   -6.3015   17.3628  -34.6490 H   0  0  0  0  0  0  0  0  0  0  0  0
   -4.7944   16.6415  -32.1965 H   0  0  0  0  0  0  0  0  0  0  0  0
   -4.3019   17.5722  -33.6780 H   0  0  0  0  0  0  0  0  0  0  0  0
   -4.2222   22.4354  -31.8912 H   0  0  0  0  0  0  0  0  0  0  0  0
  1  2  2  0
  2  3  2  0
  2  4  1  0
  4  5  1  0
  5  6  2  0
  6  7  1  0
  7  8  1  0
  7  9  2  0
  9 10  1  0
 10 11  2  0
 11 12  1  0
  2 13  1  0
 13 14  2  0
 14 15  1  0
 15 16  2  0
 16 17  1  0
 16 18  1  0
 18 19  1  0
 19 20  2  0
 19 21  2  0
 19 22  1  0
 22 23  1  0
 23 24  1  0
 24 25  1  0
 25 26  1  0
 26 27  1  0
 18 28  2  0
 11  5  1  0
 28 13  1  0
 27 22  1  0
  6 29  1  0
  9 30  1  0
 10 31  1  0
 14 32  1  0
 15 33  1  0
 17 34  1  0
 23 35  1  0
 23 36  1  0
 24 37  1  0
 24 38  1  0
 26 39  1  0
 26 40  1  0
 27 41  1  0
 27 42  1  0
 28 43  1  0
M  CHG  2   4  -1  12  -1
M  END
>  <UniqueID>  (41) 
40

>  <SMILES>  (41) 
O=S(=O)([N-]c1cc(Cl)ccc1[O-])c1ccc(O)c(S(=O)(=O)N2CCOCC2)c1

>  <Energy>  (41) 
58.82392169902562

>  <Genealogy>  (41) 
O=S(=O)([N-]c1cc(Cl)ccc1[O-])c1ccc(O)c(S(=O)(=O)N2CCOCC2)c1 (protonated)
O=S(=O)([N-]c1cc(Cl)ccc1[O-])c1ccc(O)c(S(=O)(=O)N2CCOCC2)c1 (3D coordinates assigned)
O=S(=O)([N-]c1cc(Cl)ccc1[O-])c1ccc(O)c(S(=O)(=O)N2CCOCC2)c1 (nonaromatic ring conformer: 58.82392169902562 kcal/mol)

>  <smiles>  (41) 
O=S(=O)(Nc1cc(Cl)ccc1O)c1ccc(O)c(S(=O)(=O)N2CCOCC2)c1

>  <score_type>  (41) 
oracle

>  <origin>  (41) 
adgpu

>  <m_score__min__energy>  (41) 
-13.65

>  <m_primary>  (41) 
energy

$$$$
41:0
     RDKit          3D

 39 41  0  0  0  0  0  0  0  0999 V2000
   -8.6940   19.1670  -31.2250 C   0  0  0  0  0  0  0  0  0  0  0  0
   -8.5250   20.6430  -31.3280 C   0  0  0  0  0  0  0  0  0  0  0  0
   -7.6200   21.3400  -30.6100 N   0  0  0  0  0  0  0  0  0  0  0  0
   -7.6980   22.6760  -30.8580 C   0  0  0  0  0  0  0  0  0  0  0  0
   -6.7840   23.6540  -30.1900 C   0  0  0  0  0  0  0  0  0  0  0  0
   -5.2000   23.6930  -31.0130 S   0  0  0  0  0  0  0  0  0  0  0  0
   -4.6030   25.0650  -30.8770 O   0  0  0  0  0  0  0  0  0  0  0  0
   -5.4280   23.4100  -32.4690 O   0  0  0  0  0  0  0  0  0  0  0  0
   -4.0900   22.5130  -30.3040 C   0  0  0  0  0  0  0  0  0  0  0  0
   -3.7320   22.4040  -28.9720 C   0  0  0  0  0  0  0  0  0  0  0  0
   -4.2390   23.2260  -27.8310 C   0  0  0  0  0  0  0  0  0  0  0  0
   -2.8800   21.3730  -28.8180 N   0  0  0  0  0  0  0  0  0  0  0  0
   -2.6830   20.8620  -29.9980 O   0  0  0  0  0  0  0  0  0  0  0  0
   -3.3700   21.4990  -30.9170 C   0  0  0  0  0  0  0  0  0  0  0  0
   -3.3190   21.0670  -32.6190 S   0  0  0  0  0  0  0  0  0  0  0  0
   -1.9770   20.4700  -32.9310 O   0  0  0  0  0  0  0  0  0  0  0  0
   -3.4910   22.3030  -33.4570 O   0  0  0  0  0  0  0  0  0  0  0  0
   -4.5630   19.8730  -32.9780 C   0  0  0  0  0  0  0  0  0  0  0  0
   -4.2790   18.5100  -32.8140 C   0  0  0  0  0  0  0  0  0  0  0  0
   -5.2400   17.5470  -33.1390 C   0  0  0  0  0  0  0  0  0  0  0  0
   -6.4920   17.9430  -33.6160 C   0  0  0  0  0  0  0  0  0  0  0  0
   -6.7830   19.3010  -33.7740 C   0  0  0  0  0  0  0  0  0  0  0  0
   -5.8190   20.2650  -33.4630 C   0  0  0  0  0  0  0  0  0  0  0  0
   -8.6740   23.0510  -31.7760 C   0  0  0  0  0  0  0  0  0  0  0  0
   -9.4750   21.6590  -32.2720 S   0  0  0  0  0  0  0  0  0  0  0  0
   -8.7275   18.8749  -30.1650 H   0  0  0  0  0  0  0  0  0  0  0  0
   -9.6320   18.8701  -31.7169 H   0  0  0  0  0  0  0  0  0  0  0  0
   -7.8474   18.6658  -31.7169 H   0  0  0  0  0  0  0  0  0  0  0  0
   -7.2362   24.6560  -30.2277 H   0  0  0  0  0  0  0  0  0  0  0  0
   -6.6343   23.3444  -29.1451 H   0  0  0  0  0  0  0  0  0  0  0  0
   -3.9478   22.7539  -26.8811 H   0  0  0  0  0  0  0  0  0  0  0  0
   -3.8067   24.2360  -27.8861 H   0  0  0  0  0  0  0  0  0  0  0  0
   -5.3356   23.2930  -27.8861 H   0  0  0  0  0  0  0  0  0  0  0  0
   -3.2975   18.1969  -32.4286 H   0  0  0  0  0  0  0  0  0  0  0  0
   -5.0100   16.4780  -33.0190 H   0  0  0  0  0  0  0  0  0  0  0  0
   -7.2492   17.1857  -33.8674 H   0  0  0  0  0  0  0  0  0  0  0  0
   -7.7714   19.6117  -34.1434 H   0  0  0  0  0  0  0  0  0  0  0  0
   -6.0463   21.3326  -33.5990 H   0  0  0  0  0  0  0  0  0  0  0  0
   -8.8840   24.0757  -32.1164 H   0  0  0  0  0  0  0  0  0  0  0  0
  1  2  1  0
  2  3  2  0
  3  4  1  0
  4  5  1  0
  5  6  1  0
  6  7  2  0
  6  8  2  0
  6  9  1  0
  9 10  1  0
 10 11  1  0
 10 12  2  0
 12 13  1  0
 13 14  1  0
 14 15  1  0
 15 16  2  0
 15 17  2  0
 15 18  1  0
 18 19  2  0
 19 20  1  0
 20 21  2  0
 21 22  1  0
 22 23  2  0
  4 24  2  0
 24 25  1  0
 25  2  1  0
 14  9  2  0
 23 18  1  0
  1 26  1  0
  1 27  1  0
  1 28  1  0
  5 29  1  0
  5 30  1  0
 11 31  1  0
 11 32  1  0
 11 33  1  0
 19 34  1  0
 20 35  1  0
 21 36  1  0
 22 37  1  0
 23 38  1  0
 24 39  1  0
M  END
>  <UniqueID>  (42) 
41

>  <SMILES>  (42) 
Cc1nc(CS(=O)(=O)c2c(C)noc2S(=O)(=O)c2ccccc2)cs1

>  <Energy>  (42) 
93.13963082692618

>  <Genealogy>  (42) 
Cc1nc(CS(=O)(=O)c2c(C)noc2S(=O)(=O)c2ccccc2)cs1 (3D coordinates assigned)
Cc1nc(CS(=O)(=O)c2c(C)noc2S(=O)(=O)c2ccccc2)cs1 (optimized conformer: 93.13963082692618 kcal/mol)

>  <smiles>  (42) 
Cc1nc(CS(=O)(=O)c2c(C)noc2S(=O)(=O)c2ccccc2)cs1

>  <score_type>  (42) 
oracle

>  <origin>  (42) 
adgpu

>  <m_score__min__energy>  (42) 
-9.0899999999999999

>  <m_primary>  (42) 
energy

$$$$
42:0
     RDKit          3D

 43 46  0  0  0  0  0  0  0  0999 V2000
   -3.8630   26.8110  -30.1690 H   0  0  0  0  0  0  0  0  0  0  0  0
   -4.4680   26.0580  -30.4760 O   0  0  0  0  0  0  0  0  0  0  0  0
   -4.0760   24.7210  -30.4110 C   0  0  0  0  0  0  0  0  0  0  0  0
   -4.9220   23.7380  -30.9350 C   0  0  0  0  0  0  0  0  0  0  0  0
   -5.8824   24.0313  -31.3841 H   0  0  0  0  0  0  0  0  0  0  0  0
   -4.5600   22.3780  -30.8950 C   0  0  0  0  0  0  0  0  0  0  0  0
   -5.4800   21.3520  -31.4510 C   0  0  0  0  0  0  0  0  0  0  0  0
   -4.9780   20.3700  -32.2650 N   0  0  0  0  0  0  0  0  0  0  0  0
   -5.7610   19.3880  -32.8050 C   0  0  0  0  0  0  0  0  0  0  0  0
   -5.2700   18.4780  -33.5960 N   0  0  0  0  0  0  0  0  0  0  0  0
   -3.8860   18.2980  -33.9410 C   0  0  0  0  0  0  0  0  0  0  0  0
   -3.3980   17.0800  -34.4490 C   0  0  0  0  0  0  0  0  0  0  0  0
   -4.0794   16.2253  -34.5721 H   0  0  0  0  0  0  0  0  0  0  0  0
   -2.0500   16.9520  -34.7980 C   0  0  0  0  0  0  0  0  0  0  0  0
   -1.6716   15.9926  -35.1807 H   0  0  0  0  0  0  0  0  0  0  0  0
   -1.1800   18.0410  -34.6620 C   0  0  0  0  0  0  0  0  0  0  0  0
    0.5160   17.8960  -35.1190 S   0  0  0  0  0  0  0  0  0  0  0  0
    1.3730   18.3270  -33.9640 O   0  0  0  0  0  0  0  0  0  0  0  0
    0.8420   16.4640  -35.4450 O   0  0  0  0  0  0  0  0  0  0  0  0
    0.8600   18.9030  -36.4920 N   0  0  0  0  0  0  0  0  0  0  0  0
    0.8950   20.3020  -36.0800 C   0  0  0  0  0  0  0  0  0  0  0  0
    0.8965   20.3608  -34.9816 H   0  0  0  0  0  0  0  0  0  0  0  0
    1.8053   20.7776  -36.4739 H   0  0  0  0  0  0  0  0  0  0  0  0
    0.0096   20.8225  -36.4739 H   0  0  0  0  0  0  0  0  0  0  0  0
   -1.6730   19.2660  -34.1960 C   0  0  0  0  0  0  0  0  0  0  0  0
   -0.9984   20.1303  -34.1066 H   0  0  0  0  0  0  0  0  0  0  0  0
   -3.0200   19.3940  -33.8440 C   0  0  0  0  0  0  0  0  0  0  0  0
   -3.4021   20.3623  -33.4884 H   0  0  0  0  0  0  0  0  0  0  0  0
   -7.1230   19.4170  -32.5170 C   0  0  0  0  0  0  0  0  0  0  0  0
   -8.0590   18.5490  -32.9540 N   0  0  0  0  0  0  0  0  0  0  0  0
   -9.1990   19.0070  -32.3820 C   0  0  0  0  0  0  0  0  0  0  0  0
  -10.1927   18.5526  -32.5084 H   0  0  0  0  0  0  0  0  0  0  0  0
   -8.9330   20.1300  -31.6150 C   0  0  0  0  0  0  0  0  0  0  0  0
   -9.6622   20.7135  -31.0338 H   0  0  0  0  0  0  0  0  0  0  0  0
   -7.6180   20.3700  -31.7160 N   0  0  0  0  0  0  0  0  0  0  0  0
   -6.8610   21.3460  -31.1570 C   0  0  0  0  0  0  0  0  0  0  0  0
   -7.3066   22.1058  -30.4982 H   0  0  0  0  0  0  0  0  0  0  0  0
   -3.3350   22.0210  -30.2980 C   0  0  0  0  0  0  0  0  0  0  0  0
   -3.0412   20.9623  -30.2450 H   0  0  0  0  0  0  0  0  0  0  0  0
   -2.4910   23.0020  -29.7730 C   0  0  0  0  0  0  0  0  0  0  0  0
   -1.5350   22.7117  -29.3128 H   0  0  0  0  0  0  0  0  0  0  0  0
   -2.8540   24.3500  -29.8290 C   0  0  0  0  0  0  0  0  0  0  0  0
   -2.0010   25.3130  -29.3020 O   0  0  0  0  0  0  0  0  0  0  0  0
  1  2  1  0
  2  3  1  0
  3  4  2  0
  4  5  1  0
  4  6  1  0
  6  7  1  0
  7  8  1  0
  8  9  1  0
  9 10  2  0
 10 11  1  0
 11 12  2  0
 12 13  1  0
 12 14  1  0
 14 15  1  0
 14 16  2  0
 16 17  1  0
 17 18  2  0
 17 19  2  0
 17 20  1  0
 20 21  1  0
 21 22  1  0
 21 23  1  0
 21 24  1  0
 16 25  1  0
 25 26  1  0
 25 27  2  0
 27 28  1  0
  9 29  1  0
 29 30  2  0
 30 31  1  0
 31 32  1  0
 31 33  2  0
 33 34  1  0
 33 35  1  0
 35 36  1  0
 36 37  1  0
  6 38  2  0
 38 39  1  0
 38 40  1  0
 40 41  1  0
 40 42  2  0
 42 43  1  0
 42  3  1  0
 36  7  2  0
 27 11  1  0
 35 29  1  0
M  CHG  3   8  -1  20  -1  43  -1
M  END
>  <UniqueID>  (43) 
42

>  <SMILES>  (43) 
C[N-]S(=O)(=O)c1ccc(/N=c2\[n-]c(-c3ccc([O-])c(O)c3)cn3ccnc23)cc1

>  <Energy>  (43) 
91.34548869517002

>  <Genealogy>  (43) 
C[N-]S(=O)(=O)c1ccc(N=c2[n-]c(-c3ccc([O-])c(O)c3)cn3ccnc23)cc1 (protonated)
C[N-]S(=O)(=O)c1ccc(/N=c2\[n-]c(-c3ccc([O-])c(O)c3)cn3ccnc23)cc1 (cis-trans isomerization)
C[N-]S(=O)(=O)c1ccc(/N=c2\[n-]c(-c3ccc([O-])c(O)c3)cn3ccnc23)cc1 (3D coordinates assigned)
C[N-]S(=O)(=O)c1ccc(/N=c2\[n-]c(-c3ccc([O-])c(O)c3)cn3ccnc23)cc1 (optimized conformer: 91.34548869517002 kcal/mol)

>  <smiles>  (43) 
CNS(=O)(=O)c1ccc(N=c2[nH]c(-c3ccc(O)c(O)c3)cn3ccnc23)cc1

>  <score_type>  (43) 
oracle

>  <origin>  (43) 
adgpu

>  <m_score__min__energy>  (43) 
-11.039999999999999

>  <m_primary>  (43) 
energy

$$$$
43:0
     RDKit          3D

 48 50  0  0  0  0  0  0  0  0999 V2000
   -0.2330   23.5640  -27.6300 C   0  0  0  0  0  0  0  0  0  0  0  0
   -1.3980   24.5670  -27.6040 C   0  0  1  0  0  0  0  0  0  0  0  0
   -1.8770   24.9340  -29.0240 C   0  0  0  0  0  0  0  0  0  0  0  0
   -2.6850   23.8040  -29.6810 C   0  0  0  0  0  0  0  0  0  0  0  0
   -3.8830   23.3710  -28.8120 C   0  0  2  0  0  0  0  0  0  0  0  0
   -4.8760   24.4630  -28.7270 N   0  0  0  0  0  0  0  0  0  0  0  0
   -5.7900   24.6140  -30.2020 S   0  0  0  0  0  0  0  0  0  0  0  0
   -4.9570   25.3350  -31.2250 O   0  0  0  0  0  0  0  0  0  0  0  0
   -7.0340   25.4210  -29.9500 O   0  0  0  0  0  0  0  0  0  0  0  0
   -6.2190   23.0280  -30.8320 C   0  0  0  0  0  0  0  0  0  0  0  0
   -7.5540   22.6040  -30.8430 C   0  0  0  0  0  0  0  0  0  0  0  0
   -7.8780   21.3100  -31.2590 C   0  0  0  0  0  0  0  0  0  0  0  0
   -6.8680   20.4200  -31.6540 C   0  0  0  0  0  0  0  0  0  0  0  0
   -7.2720   18.7640  -32.1310 S   0  0  0  0  0  0  0  0  0  0  0  0
   -8.7470   18.5490  -31.9360 O   0  0  0  0  0  0  0  0  0  0  0  0
   -6.5420   17.8080  -31.2310 O   0  0  0  0  0  0  0  0  0  0  0  0
   -6.8630   18.3970  -33.7950 N   0  0  0  0  0  0  0  0  0  0  0  0
   -6.3470   17.0300  -33.9340 C   0  0  0  0  0  0  0  0  0  0  0  0
   -4.9440   17.5040  -34.2630 C   0  0  0  0  0  0  0  0  0  0  0  0
   -5.5290   18.8980  -34.1460 C   0  0  0  0  0  0  0  0  0  0  0  0
   -5.5350   20.8590  -31.6760 C   0  0  0  0  0  0  0  0  0  0  0  0
   -5.2120   22.1530  -31.2590 C   0  0  0  0  0  0  0  0  0  0  0  0
   -3.3770   22.9540  -27.4120 C   0  0  0  0  0  0  0  0  0  0  0  0
   -2.5700   24.0710  -26.7320 C   0  0  0  0  0  0  0  0  0  0  0  0
    0.0581   23.3134  -26.5993 H   0  0  0  0  0  0  0  0  0  0  0  0
   -0.5478   22.6499  -28.1547 H   0  0  0  0  0  0  0  0  0  0  0  0
    0.6242   24.0112  -28.1547 H   0  0  0  0  0  0  0  0  0  0  0  0
   -1.0083   25.4850  -27.1400 H   0  0  0  0  0  0  0  0  0  0  0  0
   -0.9975   25.1486  -29.6489 H   0  0  0  0  0  0  0  0  0  0  0  0
   -2.5355   25.8111  -28.9392 H   0  0  0  0  0  0  0  0  0  0  0  0
   -2.0249   22.9374  -29.8333 H   0  0  0  0  0  0  0  0  0  0  0  0
   -3.0768   24.1782  -30.6383 H   0  0  0  0  0  0  0  0  0  0  0  0
   -4.3821   22.5059  -29.2730 H   0  0  0  0  0  0  0  0  0  0  0  0
   -5.5830   24.2560  -27.9840 H   0  0  0  0  0  0  0  0  0  0  0  0
   -8.3502   23.2922  -30.5230 H   0  0  0  0  0  0  0  0  0  0  0  0
   -8.9296   20.9877  -31.2769 H   0  0  0  0  0  0  0  0  0  0  0  0
   -6.4035   16.4453  -33.0040 H   0  0  0  0  0  0  0  0  0  0  0  0
   -6.8500   16.3436  -34.6310 H   0  0  0  0  0  0  0  0  0  0  0  0
   -4.1778   17.2536  -33.5145 H   0  0  0  0  0  0  0  0  0  0  0  0
   -4.3870   17.1600  -35.1469 H   0  0  0  0  0  0  0  0  0  0  0  0
   -5.0658   19.5004  -33.3507 H   0  0  0  0  0  0  0  0  0  0  0  0
   -5.4306   19.5854  -34.9991 H   0  0  0  0  0  0  0  0  0  0  0  0
   -4.7410   20.1814  -32.0231 H   0  0  0  0  0  0  0  0  0  0  0  0
   -4.1635   22.4856  -31.2661 H   0  0  0  0  0  0  0  0  0  0  0  0
   -2.7356   22.0665  -27.5166 H   0  0  0  0  0  0  0  0  0  0  0  0
   -4.2549   22.7406  -26.7845 H   0  0  0  0  0  0  0  0  0  0  0  0
   -2.1663   23.6873  -25.7834 H   0  0  0  0  0  0  0  0  0  0  0  0
   -3.2482   24.9214  -26.5681 H   0  0  0  0  0  0  0  0  0  0  0  0
  1  2  1  0
  2  3  1  0
  3  4  1  0
  4  5  1  0
  5  6  1  0
  6  7  1  0
  7  8  2  0
  7  9  2  0
  7 10  1  0
 10 11  2  0
 11 12  1  0
 12 13  2  0
 13 14  1  0
 14 15  2  0
 14 16  2  0
 14 17  1  0
 17 18  1  0
 18 19  1  0
 19 20  1  0
 13 21  1  0
 21 22  2  0
  5 23  1  0
 23 24  1  0
 24  2  1  0
 22 10  1  0
 20 17  1  0
  1 25  1  0
  1 26  1  0
  1 27  1  0
  2 28  1  1
  3 29  1  0
  3 30  1  0
  4 31  1  0
  4 32  1  0
  5 33  1  6
  6 34  1  0
 11 35  1  0
 12 36  1  0
 18 37  1  0
 18 38  1  0
 19 39  1  0
 19 40  1  0
 20 41  1  0
 20 42  1  0
 21 43  1  0
 22 44  1  0
 23 45  1  0
 23 46  1  0
 24 47  1  0
 24 48  1  0
M  END
>  <UniqueID>  (44) 
43

>  <SMILES>  (44) 
CC1CCC(NS(=O)(=O)c2ccc(S(=O)(=O)N3CCC3)cc2)CC1

>  <Energy>  (44) 
108.31667795949858

>  <Genealogy>  (44) 
CC1CCC(NS(=O)(=O)c2ccc(S(=O)(=O)N3CCC3)cc2)CC1 (3D coordinates assigned)
CC1CCC(NS(=O)(=O)c2ccc(S(=O)(=O)N3CCC3)cc2)CC1 (nonaromatic ring conformer: 108.31667795949858 kcal/mol)

>  <smiles>  (44) 
CC1CCC(NS(=O)(=O)c2ccc(S(=O)(=O)N3CCC3)cc2)CC1

>  <score_type>  (44) 
oracle

>  <origin>  (44) 
adgpu

>  <m_score__min__energy>  (44) 
-10.34

>  <m_primary>  (44) 
energy

$$$$
44:0
     RDKit          3D

 58 60  0  0  0  0  0  0  0  0999 V2000
   -0.4770   21.2100  -32.4770 C   0  0  0  0  0  0  0  0  0  0  0  0
   -1.9320   20.8360  -32.5680 C   0  0  0  0  0  0  0  0  0  0  0  0
   -2.3050   19.7380  -33.3580 C   0  0  0  0  0  0  0  0  0  0  0  0
   -3.6490   19.3840  -33.4930 C   0  0  0  0  0  0  0  0  0  0  0  0
   -4.6420   20.1230  -32.8410 C   0  0  0  0  0  0  0  0  0  0  0  0
   -6.3400   19.6710  -33.0080 S   0  0  0  0  0  0  0  0  0  0  0  0
   -6.5090   18.8280  -34.2420 O   0  0  0  0  0  0  0  0  0  0  0  0
   -7.1670   20.9150  -33.1810 O   0  0  0  0  0  0  0  0  0  0  0  0
   -6.9090   18.7820  -31.6160 N   0  0  0  0  0  0  0  0  0  0  0  0
   -8.3690   18.6430  -31.6780 C   0  0  0  0  0  0  0  0  0  0  0  0
   -6.2740   17.4590  -31.5770 C   0  0  0  0  0  0  0  0  0  0  0  0
   -4.2790   21.2110  -32.0380 C   0  0  0  0  0  0  0  0  0  0  0  0
   -2.9310   21.5560  -31.8710 C   0  0  0  0  0  0  0  0  0  0  0  0
   -2.6030   22.6580  -31.0110 N   0  0  0  0  0  0  0  0  0  0  0  0
   -2.4050   22.4930  -29.5990 C   0  0  0  0  0  0  0  0  0  0  0  0
   -2.7660   21.4210  -29.0390 O   0  0  0  0  0  0  0  0  0  0  0  0
   -1.8290   23.5840  -28.7790 C   0  0  0  0  0  0  0  0  0  0  0  0
   -0.8910   23.2720  -27.7780 C   0  0  0  0  0  0  0  0  0  0  0  0
   -0.3160   24.2830  -26.9950 C   0  0  0  0  0  0  0  0  0  0  0  0
    0.8800   23.8790  -25.7610 S   0  0  0  0  0  0  0  0  0  0  0  0
    0.5730   22.5190  -25.1980 O   0  0  0  0  0  0  0  0  0  0  0  0
    2.2440   23.8250  -26.3910 O   0  0  0  0  0  0  0  0  0  0  0  0
    0.8870   25.0550  -24.4670 N   0  0  0  0  0  0  0  0  0  0  0  0
   -0.5000   25.4150  -24.0940 C   0  0  0  0  0  0  0  0  0  0  0  0
   -0.5410   26.7170  -23.2860 C   0  0  0  0  0  0  0  0  0  0  0  0
   -0.0050   27.8990  -24.1130 C   0  0  0  0  0  0  0  0  0  0  0  0
    0.9830   27.4610  -25.2080 C   0  0  0  0  0  0  0  0  0  0  0  0
    1.7650   26.2100  -24.7800 C   0  0  0  0  0  0  0  0  0  0  0  0
   -0.6880   25.6160  -27.2070 C   0  0  0  0  0  0  0  0  0  0  0  0
   -1.6110   25.9380  -28.2020 C   0  0  0  0  0  0  0  0  0  0  0  0
   -2.1740   24.9340  -28.9960 C   0  0  0  0  0  0  0  0  0  0  0  0
   -3.0520   25.2960  -30.0130 O   0  0  0  0  0  0  0  0  0  0  0  0
   -0.1833   21.2855  -31.4196 H   0  0  0  0  0  0  0  0  0  0  0  0
    0.1314   20.4391  -32.9724 H   0  0  0  0  0  0  0  0  0  0  0  0
   -0.3158   22.1788  -32.9724 H   0  0  0  0  0  0  0  0  0  0  0  0
   -1.5319   19.1510  -33.8755 H   0  0  0  0  0  0  0  0  0  0  0  0
   -3.9282   18.5205  -34.1146 H   0  0  0  0  0  0  0  0  0  0  0  0
   -8.7773   18.6041  -30.6573 H   0  0  0  0  0  0  0  0  0  0  0  0
   -8.7970   19.5045  -32.2116 H   0  0  0  0  0  0  0  0  0  0  0  0
   -8.6268   17.7163  -32.2116 H   0  0  0  0  0  0  0  0  0  0  0  0
   -6.1273   17.1534  -30.5305 H   0  0  0  0  0  0  0  0  0  0  0  0
   -6.9191   16.7275  -32.0856 H   0  0  0  0  0  0  0  0  0  0  0  0
   -5.2997   17.5048  -32.0856 H   0  0  0  0  0  0  0  0  0  0  0  0
   -5.0589   21.8003  -31.5336 H   0  0  0  0  0  0  0  0  0  0  0  0
   -2.7370   23.6250  -31.3810 H   0  0  0  0  0  0  0  0  0  0  0  0
   -0.6056   22.2234  -27.6078 H   0  0  0  0  0  0  0  0  0  0  0  0
   -1.0953   25.5432  -25.0101 H   0  0  0  0  0  0  0  0  0  0  0  0
   -0.9120   24.6074  -23.4710 H   0  0  0  0  0  0  0  0  0  0  0  0
   -1.5806   26.9255  -22.9931 H   0  0  0  0  0  0  0  0  0  0  0  0
    0.0944   26.5963  -22.3962 H   0  0  0  0  0  0  0  0  0  0  0  0
   -0.8553   28.4084  -24.5901 H   0  0  0  0  0  0  0  0  0  0  0  0
    0.5365   28.5656  -23.4257 H   0  0  0  0  0  0  0  0  0  0  0  0
    0.4233   27.2373  -26.1281 H   0  0  0  0  0  0  0  0  0  0  0  0
    1.6988   28.2784  -25.3796 H   0  0  0  0  0  0  0  0  0  0  0  0
    2.4425   25.9235  -25.5978 H   0  0  0  0  0  0  0  0  0  0  0  0
    2.3139   26.4640  -23.8612 H   0  0  0  0  0  0  0  0  0  0  0  0
   -0.2508   26.4123  -26.5866 H   0  0  0  0  0  0  0  0  0  0  0  0
   -1.8977   26.9877  -28.3630 H   0  0  0  0  0  0  0  0  0  0  0  0
  1  2  1  0
  2  3  2  0
  3  4  1  0
  4  5  2  0
  5  6  1  0
  6  7  2  0
  6  8  2  0
  6  9  1  0
  9 10  1  0
  9 11  1  0
  5 12  1  0
 12 13  2  0
 13 14  1  0
 14 15  1  0
 15 16  2  0
 15 17  1  0
 17 18  2  0
 18 19  1  0
 19 20  1  0
 20 21  2  0
 20 22  2  0
 20 23  1  0
 23 24  1  0
 24 25  1  0
 25 26  1  0
 26 27  1  0
 27 28  1  0
 19 29  2  0
 29 30  1  0
 30 31  2  0
 31 32  1  0
 13  2  1  0
 31 17  1  0
 28 23  1  0
  1 33  1  0
  1 34  1  0
  1 35  1  0
  3 36  1  0
  4 37  1  0
 10 38  1  0
 10 39  1  0
 10 40  1  0
 11 41  1  0
 11 42  1  0
 11 43  1  0
 12 44  1  0
 14 45  1  0
 18 46  1  0
 24 47  1  0
 24 48  1  0
 25 49  1  0
 25 50  1  0
 26 51  1  0
 26 52  1  0
 27 53  1  0
 27 54  1  0
 28 55  1  0
 28 56  1  0
 29 57  1  0
 30 58  1  0
M  CHG  1  32  -1
M  END
>  <UniqueID>  (45) 
44

>  <SMILES>  (45) 
Cc1ccc(S(=O)(=O)N(C)C)cc1NC(=O)c1cc(S(=O)(=O)N2CCCCC2)ccc1[O-]

>  <Energy>  (45) 
69.90931538693415

>  <Genealogy>  (45) 
Cc1ccc(S(=O)(=O)N(C)C)cc1NC(=O)c1cc(S(=O)(=O)N2CCCCC2)ccc1[O-] (protonated)
Cc1ccc(S(=O)(=O)N(C)C)cc1NC(=O)c1cc(S(=O)(=O)N2CCCCC2)ccc1[O-] (3D coordinates assigned)
Cc1ccc(S(=O)(=O)N(C)C)cc1NC(=O)c1cc(S(=O)(=O)N2CCCCC2)ccc1[O-] (nonaromatic ring conformer: 69.90931538693415 kcal/mol)

>  <smiles>  (45) 
Cc1ccc(S(=O)(=O)N(C)C)cc1NC(=O)c1cc(S(=O)(=O)N2CCCCC2)ccc1O

>  <score_type>  (45) 
oracle

>  <origin>  (45) 
adgpu

>  <m_score__min__energy>  (45) 
-13.51

>  <m_primary>  (45) 
energy

$$$$
45:0
     RDKit          3D

 76 79  0  0  0  0  0  0  0  0999 V2000
   -3.1010   18.5850  -26.0860 C   0  0  0  0  0  0  0  0  0  0  0  0
   -2.0880   19.4790  -26.8030 C   0  0  0  0  0  0  0  0  0  0  0  0
   -0.8780   18.6480  -27.2440 C   0  0  0  0  0  0  0  0  0  0  0  0
   -2.7180   20.0470  -27.9390 O   0  0  0  0  0  0  0  0  0  0  0  0
   -3.4540   21.2080  -27.5970 C   0  0  0  0  0  0  0  0  0  0  0  0
   -2.7700   22.4490  -28.1120 C   0  0  0  0  0  0  0  0  0  0  0  0
   -1.5370   22.8500  -27.5720 C   0  0  0  0  0  0  0  0  0  0  0  0
   -0.9300   24.0290  -28.0100 C   0  0  0  0  0  0  0  0  0  0  0  0
   -1.5560   24.8290  -28.9690 C   0  0  0  0  0  0  0  0  0  0  0  0
   -2.8030   24.4500  -29.4970 C   0  0  0  0  0  0  0  0  0  0  0  0
   -3.4910   25.2630  -30.4540 N   0  0  0  0  0  0  0  0  0  0  0  0
   -4.9090   25.4470  -30.4970 C   0  0  0  0  0  0  0  0  0  0  0  0
   -5.3820   26.6090  -30.3890 O   0  0  0  0  0  0  0  0  0  0  0  0
   -5.7800   24.3370  -30.7370 N   0  0  0  0  0  0  0  0  0  0  0  0
   -6.1970   23.9200  -32.0690 C   0  0  0  0  0  0  0  0  0  0  0  0
   -6.2690   22.4200  -32.1150 C   0  0  0  0  0  0  0  0  0  0  0  0
   -7.5060   21.7870  -32.3210 C   0  0  0  0  0  0  0  0  0  0  0  0
   -7.6030   20.3960  -32.2650 C   0  0  0  0  0  0  0  0  0  0  0  0
   -6.4680   19.6180  -31.9990 C   0  0  0  0  0  0  0  0  0  0  0  0
   -6.5950   17.8630  -31.9290 S   0  0  0  0  0  0  0  0  0  0  0  0
   -6.3150   17.4060  -30.5240 O   0  0  0  0  0  0  0  0  0  0  0  0
   -7.9860   17.4340  -32.3010 O   0  0  0  0  0  0  0  0  0  0  0  0
   -5.4430   17.1450  -33.0490 C   0  0  0  0  0  0  0  0  0  0  0  0
   -5.7310   15.9440  -33.7040 C   0  0  0  0  0  0  0  0  0  0  0  0
   -4.8100   15.3940  -34.5950 C   0  0  0  0  0  0  0  0  0  0  0  0
   -3.5970   16.0430  -34.8620 C   0  0  0  0  0  0  0  0  0  0  0  0
   -2.6910   15.4030  -35.7100 O   0  0  0  0  0  0  0  0  0  0  0  0
   -3.3230   17.2970  -34.2590 C   0  0  0  0  0  0  0  0  0  0  0  0
   -2.0390   18.0560  -34.5500 C   0  0  0  0  0  0  0  0  0  0  0  0
   -1.7450   19.0790  -33.5210 N   0  0  0  0  0  0  0  0  0  0  0  0
   -2.4300   20.3590  -33.8160 C   0  0  0  0  0  0  0  0  0  0  0  0
   -1.8360   21.5450  -33.0170 C   0  0  0  0  0  0  0  0  0  0  0  0
   -1.0840   21.1080  -31.8250 N   0  0  0  0  0  0  0  0  0  0  0  0
   -1.9700   20.5760  -30.7750 C   0  0  0  0  0  0  0  0  0  0  0  0
    0.0130   20.1710  -32.1670 C   0  0  0  0  0  0  0  0  0  0  0  0
   -0.2930   19.2910  -33.3960 C   0  0  0  0  0  0  0  0  0  0  0  0
   -4.2350   17.8010  -33.3100 C   0  0  0  0  0  0  0  0  0  0  0  0
   -5.2300   20.2450  -31.8040 C   0  0  0  0  0  0  0  0  0  0  0  0
   -5.1330   21.6390  -31.8500 C   0  0  0  0  0  0  0  0  0  0  0  0
   -3.3900   23.2490  -29.0860 C   0  0  0  0  0  0  0  0  0  0  0  0
   -2.9793   18.6924  -24.9980 H   0  0  0  0  0  0  0  0  0  0  0  0
   -4.1204   18.8832  -26.3722 H   0  0  0  0  0  0  0  0  0  0  0  0
   -2.9318   17.5364  -26.3722 H   0  0  0  0  0  0  0  0  0  0  0  0
   -1.7412   20.2727  -26.1249 H   0  0  0  0  0  0  0  0  0  0  0  0
   -0.3426   18.2803  -26.3563 H   0  0  0  0  0  0  0  0  0  0  0  0
   -1.2200   17.7933  -27.8461 H   0  0  0  0  0  0  0  0  0  0  0  0
   -0.2031   19.2740  -27.8461 H   0  0  0  0  0  0  0  0  0  0  0  0
   -4.4590   21.1407  -28.0392 H   0  0  0  0  0  0  0  0  0  0  0  0
   -3.5204   21.2722  -26.5009 H   0  0  0  0  0  0  0  0  0  0  0  0
   -1.0485   22.2342  -26.8025 H   0  0  0  0  0  0  0  0  0  0  0  0
    0.0449   24.3289  -27.5982 H   0  0  0  0  0  0  0  0  0  0  0  0
   -1.0731   25.7561  -29.3114 H   0  0  0  0  0  0  0  0  0  0  0  0
   -7.1870   24.3433  -32.2943 H   0  0  0  0  0  0  0  0  0  0  0  0
   -5.4713   24.2790  -32.8136 H   0  0  0  0  0  0  0  0  0  0  0  0
   -8.4022   22.3905  -32.5274 H   0  0  0  0  0  0  0  0  0  0  0  0
   -8.5748   19.9079  -32.4304 H   0  0  0  0  0  0  0  0  0  0  0  0
   -6.6862   15.4318  -33.5161 H   0  0  0  0  0  0  0  0  0  0  0  0
   -5.0381   14.4404  -35.0936 H   0  0  0  0  0  0  0  0  0  0  0  0
   -2.5560   15.6500  -36.6810 H   0  0  0  0  0  0  0  0  0  0  0  0
   -1.2049   17.3397  -34.5850 H   0  0  0  0  0  0  0  0  0  0  0  0
   -2.1650   18.5736  -35.5124 H   0  0  0  0  0  0  0  0  0  0  0  0
   -2.3317   20.5726  -34.8906 H   0  0  0  0  0  0  0  0  0  0  0  0
   -3.4842   20.2507  -33.5210 H   0  0  0  0  0  0  0  0  0  0  0  0
   -1.1572   22.1078  -33.6747 H   0  0  0  0  0  0  0  0  0  0  0  0
   -2.6751   22.1666  -32.6714 H   0  0  0  0  0  0  0  0  0  0  0  0
   -1.5568   20.8241  -29.7862 H   0  0  0  0  0  0  0  0  0  0  0  0
   -2.9697   21.0233  -30.8774 H   0  0  0  0  0  0  0  0  0  0  0  0
   -2.0450   19.4833  -30.8774 H   0  0  0  0  0  0  0  0  0  0  0  0
    0.9200   20.7574  -32.3754 H   0  0  0  0  0  0  0  0  0  0  0  0
    0.1422   19.4956  -31.3085 H   0  0  0  0  0  0  0  0  0  0  0  0
    0.0807   19.7900  -34.3023 H   0  0  0  0  0  0  0  0  0  0  0  0
    0.2026   18.3168  -33.2722 H   0  0  0  0  0  0  0  0  0  0  0  0
   -3.9931   18.7256  -32.7654 H   0  0  0  0  0  0  0  0  0  0  0  0
   -4.3320   19.6387  -31.6142 H   0  0  0  0  0  0  0  0  0  0  0  0
   -4.1619   22.1261  -31.6777 H   0  0  0  0  0  0  0  0  0  0  0  0
   -4.3445   22.9284  -29.5289 H   0  0  0  0  0  0  0  0  0  0  0  0
  1  2  1  0
  2  3  1  0
  2  4  1  0
  4  5  1  0
  5  6  1  0
  6  7  2  0
  7  8  1  0
  8  9  2  0
  9 10  1  0
 10 11  1  0
 11 12  1  0
 12 13  2  0
 12 14  1  0
 14 15  1  0
 15 16  1  0
 16 17  2  0
 17 18  1  0
 18 19  2  0
 19 20  1  0
 20 21  2  0
 20 22  2  0
 20 23  1  0
 23 24  2  0
 24 25  1  0
 25 26  2  0
 26 27  1  0
 26 28  1  0
 28 29  1  0
 29 30  1  0
 30 31  1  0
 31 32  1  0
 32 33  1  0
 33 34  1  0
 33 35  1  0
 35 36  1  0
 28 37  2  0
 19 38  1  0
 38 39  2  0
 10 40  2  0
 40  6  1  0
 39 16  1  0
 37 23  1  0
 36 30  1  0
  1 41  1  0
  1 42  1  0
  1 43  1  0
  2 44  1  0
  3 45  1  0
  3 46  1  0
  3 47  1  0
  5 48  1  0
  5 49  1  0
  7 50  1  0
  8 51  1  0
  9 52  1  0
 15 53  1  0
 15 54  1  0
 17 55  1  0
 18 56  1  0
 24 57  1  0
 25 58  1  0
 27 59  1  0
 29 60  1  0
 29 61  1  0
 31 62  1  0
 31 63  1  0
 32 64  1  0
 32 65  1  0
 34 66  1  0
 34 67  1  0
 34 68  1  0
 35 69  1  0
 35 70  1  0
 36 71  1  0
 36 72  1  0
 37 73  1  0
 38 74  1  0
 39 75  1  0
 40 76  1  0
M  CHG  2  11  -1  14  -1
M  END
>  <UniqueID>  (46) 
45

>  <SMILES>  (46) 
CC(C)OCc1cccc([N-]C(=O)[N-]Cc2ccc(S(=O)(=O)c3ccc(O)c(CN4CCN(C)CC4)c3)cc2)c1

>  <Energy>  (46) 
94.81466876592116

>  <Genealogy>  (46) 
CC(C)OCc1cccc([N-]C(=O)[N-]Cc2ccc(S(=O)(=O)c3ccc(O)c(CN4CCN(C)CC4)c3)cc2)c1 (protonated)
CC(C)OCc1cccc([N-]C(=O)[N-]Cc2ccc(S(=O)(=O)c3ccc(O)c(CN4CCN(C)CC4)c3)cc2)c1 (3D coordinates assigned)
CC(C)OCc1cccc([N-]C(=O)[N-]Cc2ccc(S(=O)(=O)c3ccc(O)c(CN4CCN(C)CC4)c3)cc2)c1 (nonaromatic ring conformer: 94.81466876592116 kcal/mol)

>  <smiles>  (46) 
CC(C)OCc1cccc(NC(=O)NCc2ccc(S(=O)(=O)c3ccc(O)c(CN4CCN(C)CC4)c3)cc2)c1

>  <score_type>  (46) 
oracle

>  <origin>  (46) 
adgpu

>  <m_score__min__energy>  (46) 
-14.56

>  <m_primary>  (46) 
energy

$$$$
46:0
     RDKit          3D

 40 42  0  0  0  0  0  0  0  0999 V2000
   -5.6320   23.8820  -29.2660 O   0  0  0  0  0  0  0  0  0  0  0  0
   -4.9550   24.2490  -30.5560 S   0  0  0  0  0  0  0  0  0  0  0  0
   -5.7710   25.3030  -31.2510 O   0  0  0  0  0  0  0  0  0  0  0  0
   -3.3800   24.8840  -30.2120 N   0  0  0  0  0  0  0  0  0  0  0  0
   -2.4720   24.3680  -29.2280 C   0  0  0  0  0  0  0  0  0  0  0  0
   -2.6200   23.0800  -28.6760 C   0  0  0  0  0  0  0  0  0  0  0  0
   -1.7210   22.6220  -27.7090 C   0  0  0  0  0  0  0  0  0  0  0  0
   -0.6660   23.4350  -27.2890 C   0  0  0  0  0  0  0  0  0  0  0  0
   -0.5080   24.7100  -27.8360 C   0  0  0  0  0  0  0  0  0  0  0  0
   -1.4040   25.1760  -28.8040 C   0  0  0  0  0  0  0  0  0  0  0  0
   -1.2340   26.4460  -29.3400 O   0  0  0  0  0  0  0  0  0  0  0  0
   -4.8110   22.8060  -31.5550 C   0  0  0  0  0  0  0  0  0  0  0  0
   -3.5450   22.2960  -31.8560 C   0  0  0  0  0  0  0  0  0  0  0  0
   -3.4180   21.1710  -32.6730 C   0  0  0  0  0  0  0  0  0  0  0  0
   -4.5540   20.5600  -33.2120 C   0  0  0  0  0  0  0  0  0  0  0  0
   -4.3990   19.4490  -34.0340 O   0  0  0  0  0  0  0  0  0  0  0  0
   -5.8370   21.0720  -32.9340 C   0  0  0  0  0  0  0  0  0  0  0  0
   -7.0000   20.4520  -33.5200 N   0  0  0  0  0  0  0  0  0  0  0  0
   -7.7790   19.3930  -32.8760 C   0  0  0  0  0  0  0  0  0  0  0  0
   -6.9370   18.1600  -32.6810 C   0  0  0  0  0  0  0  0  0  0  0  0
   -6.5340   17.4010  -33.7870 C   0  0  0  0  0  0  0  0  0  0  0  0
   -5.7570   16.2570  -33.6040 C   0  0  0  0  0  0  0  0  0  0  0  0
   -5.3890   15.8810  -32.3100 C   0  0  0  0  0  0  0  0  0  0  0  0
   -5.7850   16.6270  -31.2460 N   0  0  0  0  0  0  0  0  0  0  0  0
   -6.5420   17.7460  -31.4010 C   0  0  0  0  0  0  0  0  0  0  0  0
   -5.9520   22.1880  -32.0830 C   0  0  0  0  0  0  0  0  0  0  0  0
   -3.4457   22.4330  -29.0072 H   0  0  0  0  0  0  0  0  0  0  0  0
   -1.8448   21.6179  -27.2773 H   0  0  0  0  0  0  0  0  0  0  0  0
    0.0399   23.0712  -26.5279 H   0  0  0  0  0  0  0  0  0  0  0  0
    0.3233   25.3497  -27.5048 H   0  0  0  0  0  0  0  0  0  0  0  0
   -2.6465   22.7822  -31.4482 H   0  0  0  0  0  0  0  0  0  0  0  0
   -2.4202   20.7638  -32.8934 H   0  0  0  0  0  0  0  0  0  0  0  0
   -7.3680   20.8240  -34.4250 H   0  0  0  0  0  0  0  0  0  0  0  0
   -8.1320   19.7484  -31.8967 H   0  0  0  0  0  0  0  0  0  0  0  0
   -8.6344   19.1403  -33.5198 H   0  0  0  0  0  0  0  0  0  0  0  0
   -6.8305   17.7073  -34.8010 H   0  0  0  0  0  0  0  0  0  0  0  0
   -5.4376   15.6575  -34.4692 H   0  0  0  0  0  0  0  0  0  0  0  0
   -4.7780   14.9800  -32.1524 H   0  0  0  0  0  0  0  0  0  0  0  0
   -6.8456   18.3286  -30.5187 H   0  0  0  0  0  0  0  0  0  0  0  0
   -6.9486   22.5788  -31.8300 H   0  0  0  0  0  0  0  0  0  0  0  0
  1  2  2  0
  2  3  2  0
  2  4  1  0
  4  5  1  0
  5  6  2  0
  6  7  1  0
  7  8  2  0
  8  9  1  0
  9 10  2  0
 10 11  1  0
  2 12  1  0
 12 13  2  0
 13 14  1  0
 14 15  2  0
 15 16  1  0
 15 17  1  0
 17 18  1  0
 18 19  1  0
 19 20  1  0
 20 21  2  0
 21 22  1  0
 22 23  2  0
 23 24  1  0
 24 25  2  0
 17 26  2  0
 10  5  1  0
 26 12  1  0
 25 20  1  0
  6 27  1  0
  7 28  1  0
  8 29  1  0
  9 30  1  0
 13 31  1  0
 14 32  1  0
 18 33  1  0
 19 34  1  0
 19 35  1  0
 21 36  1  0
 22 37  1  0
 23 38  1  0
 25 39  1  0
 26 40  1  0
M  CHG  3   4  -1  11  -1  16  -1
M  END
>  <UniqueID>  (47) 
46

>  <SMILES>  (47) 
O=S(=O)([N-]c1ccccc1[O-])c1ccc([O-])c(NCc2cccnc2)c1

>  <Energy>  (47) 
45.370628335588115

>  <Genealogy>  (47) 
O=S(=O)([N-]c1ccccc1[O-])c1ccc([O-])c(NCc2cccnc2)c1 (protonated)
O=S(=O)([N-]c1ccccc1[O-])c1ccc([O-])c(NCc2cccnc2)c1 (3D coordinates assigned)
O=S(=O)([N-]c1ccccc1[O-])c1ccc([O-])c(NCc2cccnc2)c1 (optimized conformer: 45.370628335588115 kcal/mol)

>  <smiles>  (47) 
O=S(=O)(Nc1ccccc1O)c1ccc(O)c(NCc2cccnc2)c1

>  <score_type>  (47) 
oracle

>  <origin>  (47) 
adgpu

>  <m_score__min__energy>  (47) 
-13.039999999999999

>  <m_primary>  (47) 
energy

$$$$
47:0
     RDKit          3D

 55 58  0  0  0  0  0  0  0  0999 V2000
   -4.3540   22.5530  -31.9130 O   0  0  0  0  0  0  0  0  0  0  0  0
   -3.2900   22.2100  -31.3280 C   0  0  0  0  0  0  0  0  0  0  0  0
   -2.8080   20.8670  -31.4680 N   0  0  0  0  0  0  0  0  0  0  0  0
   -3.3570   19.8870  -32.3590 C   0  0  0  0  0  0  0  0  0  0  0  0
   -4.6480   19.4090  -32.1040 C   0  0  0  0  0  0  0  0  0  0  0  0
   -5.2470   18.4760  -32.9560 C   0  0  0  0  0  0  0  0  0  0  0  0
   -6.8840   17.9180  -32.6220 S   0  0  0  0  0  0  0  0  0  0  0  0
   -7.2280   16.7590  -33.5190 O   0  0  0  0  0  0  0  0  0  0  0  0
   -6.9500   17.4560  -31.1930 O   0  0  0  0  0  0  0  0  0  0  0  0
   -8.0230   19.2200  -32.8750 N   0  0  0  0  0  0  0  0  0  0  0  0
   -8.7980   19.4550  -31.6310 C   0  0  0  0  0  0  0  0  0  0  0  0
   -9.4430   20.8450  -31.6200 C   0  0  0  0  0  0  0  0  0  0  0  0
   -8.3760   21.9530  -31.6700 C   0  0  0  0  0  0  0  0  0  0  0  0
   -7.0650   21.4850  -32.3230 C   0  0  0  0  0  0  0  0  0  0  0  0
   -7.3330   20.4290  -33.4050 C   0  0  0  0  0  0  0  0  0  0  0  0
   -4.5430   18.0060  -34.0720 C   0  0  0  0  0  0  0  0  0  0  0  0
   -3.2400   18.4460  -34.3150 C   0  0  0  0  0  0  0  0  0  0  0  0
   -2.6270   19.3760  -33.4590 C   0  0  0  0  0  0  0  0  0  0  0  0
   -1.2410   19.7120  -33.6600 N   0  0  0  0  0  0  0  0  0  0  0  0
   -0.3030   19.7770  -32.5370 C   0  0  0  0  0  0  0  0  0  0  0  0
    0.3230   21.1740  -32.4970 C   0  0  0  0  0  0  0  0  0  0  0  0
    0.9000   21.5020  -33.7500 O   0  0  0  0  0  0  0  0  0  0  0  0
   -0.1070   21.5770  -34.7450 C   0  0  0  0  0  0  0  0  0  0  0  0
   -0.7710   20.2120  -34.9530 C   0  0  0  0  0  0  0  0  0  0  0  0
   -2.5560   23.1970  -30.4940 C   0  0  0  0  0  0  0  0  0  0  0  0
   -1.2620   22.9010  -30.0310 C   0  0  0  0  0  0  0  0  0  0  0  0
   -0.5900   23.7880  -29.2560 N   0  0  0  0  0  0  0  0  0  0  0  0
   -1.1430   24.9780  -28.9130 C   0  0  0  0  0  0  0  0  0  0  0  0
   -0.5010   25.7870  -28.1950 O   0  0  0  0  0  0  0  0  0  0  0  0
   -2.3890   25.2960  -29.3440 N   0  0  0  0  0  0  0  0  0  0  0  0
   -3.1080   24.4420  -30.1200 C   0  0  0  0  0  0  0  0  0  0  0  0
   -4.2550   24.7890  -30.5060 O   0  0  0  0  0  0  0  0  0  0  0  0
   -5.1976   19.7717  -31.2229 H   0  0  0  0  0  0  0  0  0  0  0  0
   -8.6910   18.8880  -33.6100 H   0  0  0  0  0  0  0  0  0  0  0  0
   -9.5888   18.6943  -31.5545 H   0  0  0  0  0  0  0  0  0  0  0  0
   -8.1061   19.3909  -30.7783 H   0  0  0  0  0  0  0  0  0  0  0  0
  -10.1023   20.9418  -32.4952 H   0  0  0  0  0  0  0  0  0  0  0  0
  -10.0172   20.9556  -30.6883 H   0  0  0  0  0  0  0  0  0  0  0  0
   -8.7746   22.7996  -32.2483 H   0  0  0  0  0  0  0  0  0  0  0  0
   -8.1467   22.2406  -30.6333 H   0  0  0  0  0  0  0  0  0  0  0  0
   -6.5632   22.3499  -32.7815 H   0  0  0  0  0  0  0  0  0  0  0  0
   -6.4285   21.0359  -31.5463 H   0  0  0  0  0  0  0  0  0  0  0  0
   -7.9632   20.8788  -34.1864 H   0  0  0  0  0  0  0  0  0  0  0  0
   -6.3587   20.1067  -33.8010 H   0  0  0  0  0  0  0  0  0  0  0  0
   -5.0173   17.2890  -34.7583 H   0  0  0  0  0  0  0  0  0  0  0  0
   -2.6884   18.0606  -35.1851 H   0  0  0  0  0  0  0  0  0  0  0  0
   -0.8392   19.5851  -31.5959 H   0  0  0  0  0  0  0  0  0  0  0  0
    0.4836   19.0185  -32.6627 H   0  0  0  0  0  0  0  0  0  0  0  0
   -0.4560   21.9117  -32.2543 H   0  0  0  0  0  0  0  0  0  0  0  0
    1.1123   21.1854  -31.7309 H   0  0  0  0  0  0  0  0  0  0  0  0
   -0.8699   22.3048  -34.4315 H   0  0  0  0  0  0  0  0  0  0  0  0
    0.3565   21.8909  -35.6919 H   0  0  0  0  0  0  0  0  0  0  0  0
   -1.6233   20.3168  -35.6404 H   0  0  0  0  0  0  0  0  0  0  0  0
   -0.0458   19.5064  -35.3844 H   0  0  0  0  0  0  0  0  0  0  0  0
   -0.7915   21.9435  -30.2992 H   0  0  0  0  0  0  0  0  0  0  0  0
  1  2  2  0
  2  3  1  0
  3  4  1  0
  4  5  2  0
  5  6  1  0
  6  7  1  0
  7  8  2  0
  7  9  2  0
  7 10  1  0
 10 11  1  0
 11 12  1  0
 12 13  1  0
 13 14  1  0
 14 15  1  0
  6 16  2  0
 16 17  1  0
 17 18  2  0
 18 19  1  0
 19 20  1  0
 20 21  1  0
 21 22  1  0
 22 23  1  0
 23 24  1  0
  2 25  1  0
 25 26  2  0
 26 27  1  0
 27 28  1  0
 28 29  2  0
 28 30  1  0
 30 31  1  0
 31 32  2  0
 18  4  1  0
 24 19  1  0
 31 25  1  0
 15 10  1  0
  5 33  1  0
 10 34  1  0
 11 35  1  0
 11 36  1  0
 12 37  1  0
 12 38  1  0
 13 39  1  0
 13 40  1  0
 14 41  1  0
 14 42  1  0
 15 43  1  0
 15 44  1  0
 16 45  1  0
 17 46  1  0
 20 47  1  0
 20 48  1  0
 21 49  1  0
 21 50  1  0
 23 51  1  0
 23 52  1  0
 24 53  1  0
 24 54  1  0
 26 55  1  0
M  CHG  4   3  -1  10   1  27  -1  30  -1
M  END
>  <UniqueID>  (48) 
47

>  <SMILES>  (48) 
O=C([N-]c1cc(S(=O)(=O)[NH+]2CCCCC2)ccc1N1CCOCC1)c1c[n-]c(=O)[n-]c1=O

>  <Energy>  (48) 
77.60658213827492

>  <Genealogy>  (48) 
O=C([N-]c1cc(S(=O)(=O)[NH+]2CCCCC2)ccc1N1CCOCC1)c1c[n-]c(=O)[n-]c1=O (protonated)
O=C([N-]c1cc(S(=O)(=O)[NH+]2CCCCC2)ccc1N1CCOCC1)c1c[n-]c(=O)[n-]c1=O (3D coordinates assigned)
O=C([N-]c1cc(S(=O)(=O)[NH+]2CCCCC2)ccc1N1CCOCC1)c1c[n-]c(=O)[n-]c1=O (nonaromatic ring conformer: 77.60658213827492 kcal/mol)

>  <smiles>  (48) 
O=C(Nc1cc(S(=O)(=O)N2CCCCC2)ccc1N1CCOCC1)c1c[nH]c(=O)[nH]c1=O

>  <score_type>  (48) 
oracle

>  <origin>  (48) 
adgpu

>  <m_score__min__energy>  (48) 
-12.449999999999999

>  <m_primary>  (48) 
energy

$$$$
48:0
     RDKit          3D

 48 50  0  0  0  0  0  0  0  0999 V2000
   -4.5610   15.7870  -32.8180 C   0  0  0  0  0  0  0  0  0  0  0  0
   -5.5820   16.8850  -32.7780 C   0  0  0  0  0  0  0  0  0  0  0  0
   -6.3370   17.1130  -31.6170 C   0  0  0  0  0  0  0  0  0  0  0  0
   -7.2610   18.1610  -31.5720 C   0  0  0  0  0  0  0  0  0  0  0  0
   -7.4410   18.9950  -32.6860 C   0  0  0  0  0  0  0  0  0  0  0  0
   -8.4090   20.1410  -32.6250 C   0  0  0  0  0  0  0  0  0  0  0  0
   -8.4710   20.6440  -31.2560 N   0  0  0  0  0  0  0  0  0  0  0  0
   -7.7180   22.2080  -31.1680 S   0  0  0  0  0  0  0  0  0  0  0  0
   -7.8550   22.7450  -29.7710 O   0  0  0  0  0  0  0  0  0  0  0  0
   -8.4020   23.1540  -32.1150 O   0  0  0  0  0  0  0  0  0  0  0  0
   -6.0070   22.0680  -31.5620 C   0  0  0  0  0  0  0  0  0  0  0  0
   -5.5930   21.4330  -32.7400 C   0  0  0  0  0  0  0  0  0  0  0  0
   -4.2310   21.3100  -33.0280 C   0  0  0  0  0  0  0  0  0  0  0  0
   -3.2770   21.8080  -32.1380 C   0  0  0  0  0  0  0  0  0  0  0  0
   -3.6770   22.4300  -30.9430 C   0  0  0  0  0  0  0  0  0  0  0  0
   -2.6830   22.9790  -29.9930 C   0  0  0  0  0  0  0  0  0  0  0  0
   -1.8210   22.1250  -29.3830 N   0  0  0  0  0  0  0  0  0  0  0  0
   -0.8780   22.5400  -28.4990 C   0  0  0  0  0  0  0  0  0  0  0  0
   -0.1290   21.6800  -27.9650 O   0  0  0  0  0  0  0  0  0  0  0  0
   -0.7510   23.9090  -28.1860 C   0  0  0  0  0  0  0  0  0  0  0  0
    0.4920   24.4630  -27.0380 S   0  0  0  0  0  0  0  0  0  0  0  0
   -0.2740   25.4180  -25.7440 C   0  0  0  0  0  0  0  0  0  0  0  0
    1.2000   23.2980  -26.4070 O   0  0  0  0  0  0  0  0  0  0  0  0
    1.5180   25.2950  -27.7550 O   0  0  0  0  0  0  0  0  0  0  0  0
   -1.6390   24.8220  -28.8060 C   0  0  0  0  0  0  0  0  0  0  0  0
   -1.6120   26.1940  -28.5430 O   0  0  0  0  0  0  0  0  0  0  0  0
   -2.5930   24.3550  -29.7190 C   0  0  0  0  0  0  0  0  0  0  0  0
   -3.4240   25.2650  -30.3640 O   0  0  0  0  0  0  0  0  0  0  0  0
   -5.0490   22.5670  -30.6700 C   0  0  0  0  0  0  0  0  0  0  0  0
   -6.6610   18.7880  -33.8350 C   0  0  0  0  0  0  0  0  0  0  0  0
   -5.7380   17.7400  -33.8800 C   0  0  0  0  0  0  0  0  0  0  0  0
   -4.2926   15.4983  -31.7911 H   0  0  0  0  0  0  0  0  0  0  0  0
   -4.9785   14.9171  -33.3461 H   0  0  0  0  0  0  0  0  0  0  0  0
   -3.6631   16.1403  -33.3461 H   0  0  0  0  0  0  0  0  0  0  0  0
   -6.2011   16.4644  -30.7390 H   0  0  0  0  0  0  0  0  0  0  0  0
   -7.8498   18.3327  -30.6589 H   0  0  0  0  0  0  0  0  0  0  0  0
   -8.0717   20.9438  -33.2971 H   0  0  0  0  0  0  0  0  0  0  0  0
   -9.4064   19.7996  -32.9390 H   0  0  0  0  0  0  0  0  0  0  0  0
   -6.3408   21.0307  -33.4392 H   0  0  0  0  0  0  0  0  0  0  0  0
   -3.9094   20.8194  -33.9586 H   0  0  0  0  0  0  0  0  0  0  0  0
   -2.2067   21.7129  -32.3736 H   0  0  0  0  0  0  0  0  0  0  0  0
    0.0397   25.0269  -24.7649 H   0  0  0  0  0  0  0  0  0  0  0  0
    0.0333   26.4704  -25.8340 H   0  0  0  0  0  0  0  0  0  0  0  0
   -1.3680   25.3464  -25.8340 H   0  0  0  0  0  0  0  0  0  0  0  0
   -2.2440   26.8610  -28.9620 H   0  0  0  0  0  0  0  0  0  0  0  0
   -5.3734   23.0707  -29.7475 H   0  0  0  0  0  0  0  0  0  0  0  0
   -6.7770   19.4535  -34.7031 H   0  0  0  0  0  0  0  0  0  0  0  0
   -5.1305   17.5843  -34.7837 H   0  0  0  0  0  0  0  0  0  0  0  0
  1  2  1  0
  2  3  2  0
  3  4  1  0
  4  5  2  0
  5  6  1  0
  6  7  1  0
  7  8  1  0
  8  9  2  0
  8 10  2  0
  8 11  1  0
 11 12  2  0
 12 13  1  0
 13 14  2  0
 14 15  1  0
 15 16  1  0
 16 17  1  0
 17 18  1  0
 18 19  2  0
 18 20  1  0
 20 21  1  0
 21 22  1  0
 21 23  2  0
 21 24  2  0
 20 25  2  0
 25 26  1  0
 25 27  1  0
 27 28  1  0
 15 29  2  0
  5 30  1  0
 30 31  2  0
 31  2  1  0
 29 11  1  0
 27 16  2  0
  1 32  1  0
  1 33  1  0
  1 34  1  0
  3 35  1  0
  4 36  1  0
  6 37  1  0
  6 38  1  0
 12 39  1  0
 13 40  1  0
 14 41  1  0
 22 42  1  0
 22 43  1  0
 22 44  1  0
 26 45  1  0
 29 46  1  0
 30 47  1  0
 31 48  1  0
M  CHG  3   7  -1  17  -1  28  -1
M  END
>  <UniqueID>  (49) 
48

>  <SMILES>  (49) 
Cc1ccc(C[N-]S(=O)(=O)c2cccc(-c3[n-]c(=O)c(S(C)(=O)=O)c(O)c3[O-])c2)cc1

>  <Energy>  (49) 
55.70406590980603

>  <Genealogy>  (49) 
Cc1ccc(C[N-]S(=O)(=O)c2cccc(-c3[n-]c(=O)c(S(C)(=O)=O)c(O)c3[O-])c2)cc1 (protonated)
Cc1ccc(C[N-]S(=O)(=O)c2cccc(-c3[n-]c(=O)c(S(C)(=O)=O)c(O)c3[O-])c2)cc1 (3D coordinates assigned)
Cc1ccc(C[N-]S(=O)(=O)c2cccc(-c3[n-]c(=O)c(S(C)(=O)=O)c(O)c3[O-])c2)cc1 (optimized conformer: 55.70406590980603 kcal/mol)

>  <smiles>  (49) 
Cc1ccc(CNS(=O)(=O)c2cccc(-c3[nH]c(=O)c(S(C)(=O)=O)c(O)c3O)c2)cc1

>  <score_type>  (49) 
oracle

>  <origin>  (49) 
adgpu

>  <m_score__min__energy>  (49) 
-13.27

>  <m_primary>  (49) 
energy

$$$$
49:0
     RDKit          3D

 49 52  0  0  0  0  0  0  0  0999 V2000
   -4.8180   23.5660  -31.4010 O   0  0  0  0  0  0  0  0  0  0  0  0
   -4.3240   22.9140  -30.4420 C   0  0  0  0  0  0  0  0  0  0  0  0
   -4.1260   23.5740  -29.1870 N   0  0  0  0  0  0  0  0  0  0  0  0
   -2.9810   23.4330  -28.3330 C   0  0  0  0  0  0  0  0  0  0  0  0
   -2.7990   22.2900  -27.5420 C   0  0  0  0  0  0  0  0  0  0  0  0
   -1.7020   22.1930  -26.6890 C   0  0  0  0  0  0  0  0  0  0  0  0
   -0.7720   23.2320  -26.6060 C   0  0  0  0  0  0  0  0  0  0  0  0
    0.5590   23.0470  -25.4690 Cl  0  0  0  0  0  0  0  0  0  0  0  0
   -0.9380   24.3950  -27.3930 C   0  0  0  0  0  0  0  0  0  0  0  0
    0.2270   25.7310  -27.2860 S   0  0  0  0  0  0  0  0  0  0  0  0
   -0.1930   26.8760  -28.1670 O   0  0  0  0  0  0  0  0  0  0  0  0
    1.5770   25.2650  -27.7510 O   0  0  0  0  0  0  0  0  0  0  0  0
    0.3370   26.2500  -25.5750 C   0  0  0  0  0  0  0  0  0  0  0  0
   -0.4670   27.4890  -25.2170 C   0  0  0  0  0  0  0  0  0  0  0  0
   -0.9590   26.1130  -24.7930 C   0  0  0  0  0  0  0  0  0  0  0  0
   -2.0680   24.4940  -28.2370 C   0  0  0  0  0  0  0  0  0  0  0  0
   -2.2970   25.6440  -28.9840 O   0  0  0  0  0  0  0  0  0  0  0  0
   -3.8770   21.5640  -30.6410 N   0  0  0  0  0  0  0  0  0  0  0  0
   -4.3330   20.7160  -31.7080 C   0  0  0  0  0  0  0  0  0  0  0  0
   -5.3930   21.1410  -32.5190 C   0  0  0  0  0  0  0  0  0  0  0  0
   -5.8360   20.3510  -33.5790 C   0  0  0  0  0  0  0  0  0  0  0  0
   -5.2170   19.1240  -33.8690 C   0  0  0  0  0  0  0  0  0  0  0  0
   -4.1490   18.6860  -33.0530 C   0  0  0  0  0  0  0  0  0  0  0  0
   -3.7020   19.4950  -31.9940 C   0  0  0  0  0  0  0  0  0  0  0  0
   -3.4350   17.3930  -33.3540 C   0  0  0  0  0  0  0  0  0  0  0  0
   -4.3770   16.1860  -33.2020 C   0  0  0  0  0  0  0  0  0  0  0  0
   -5.1630   15.8850  -34.4120 N   0  0  0  0  0  0  0  0  0  0  0  0
   -6.2410   16.8550  -34.6620 C   0  0  0  0  0  0  0  0  0  0  0  0
   -5.7490   18.2840  -35.0190 C   0  0  0  0  0  0  0  0  0  0  0  0
   -3.5258   21.4660  -27.5952 H   0  0  0  0  0  0  0  0  0  0  0  0
   -1.5669   21.2902  -26.0753 H   0  0  0  0  0  0  0  0  0  0  0  0
    1.3805   25.9352  -25.4267 H   0  0  0  0  0  0  0  0  0  0  0  0
   -0.0857   28.1933  -24.4630 H   0  0  0  0  0  0  0  0  0  0  0  0
   -0.8965   28.3283  -25.7836 H   0  0  0  0  0  0  0  0  0  0  0  0
   -0.9334   25.8224  -23.7324 H   0  0  0  0  0  0  0  0  0  0  0  0
   -1.8916   25.5451  -24.9260 H   0  0  0  0  0  0  0  0  0  0  0  0
   -3.1110   21.2100  -30.0230 H   0  0  0  0  0  0  0  0  0  0  0  0
   -5.8802   22.1065  -32.3179 H   0  0  0  0  0  0  0  0  0  0  0  0
   -6.6804   20.6928  -34.1956 H   0  0  0  0  0  0  0  0  0  0  0  0
   -2.8482   19.1677  -31.3825 H   0  0  0  0  0  0  0  0  0  0  0  0
   -3.0566   17.4245  -34.3864 H   0  0  0  0  0  0  0  0  0  0  0  0
   -2.6066   17.2792  -32.6393 H   0  0  0  0  0  0  0  0  0  0  0  0
   -3.7704   15.3024  -32.9545 H   0  0  0  0  0  0  0  0  0  0  0  0
   -5.0962   16.4404  -32.4095 H   0  0  0  0  0  0  0  0  0  0  0  0
   -4.5420   15.7870  -35.2480 H   0  0  0  0  0  0  0  0  0  0  0  0
   -6.8516   16.4827  -35.4978 H   0  0  0  0  0  0  0  0  0  0  0  0
   -6.8071   16.9437  -33.7230 H   0  0  0  0  0  0  0  0  0  0  0  0
   -4.9433   18.1846  -35.7612 H   0  0  0  0  0  0  0  0  0  0  0  0
   -6.6402   18.8172  -35.3817 H   0  0  0  0  0  0  0  0  0  0  0  0
  1  2  2  0
  2  3  1  0
  3  4  1  0
  4  5  2  0
  5  6  1  0
  6  7  2  0
  7  8  1  0
  7  9  1  0
  9 10  1  0
 10 11  2  0
 10 12  2  0
 10 13  1  0
 13 14  1  0
 14 15  1  0
  9 16  2  0
 16 17  1  0
  2 18  1  0
 18 19  1  0
 19 20  2  0
 20 21  1  0
 21 22  2  0
 22 23  1  0
 23 24  2  0
 23 25  1  0
 25 26  1  0
 26 27  1  0
 27 28  1  0
 28 29  1  0
 16  4  1  0
 24 19  1  0
 15 13  1  0
 29 22  1  0
  5 30  1  0
  6 31  1  0
 13 32  1  0
 14 33  1  0
 14 34  1  0
 15 35  1  0
 15 36  1  0
 18 37  1  0
 20 38  1  0
 21 39  1  0
 24 40  1  0
 25 41  1  0
 25 42  1  0
 26 43  1  0
 26 44  1  0
 27 45  1  0
 28 46  1  0
 28 47  1  0
 29 48  1  0
 29 49  1  0
M  CHG  2   3  -1  17  -1
M  END
>  <UniqueID>  (50) 
49

>  <SMILES>  (50) 
O=C([N-]c1ccc(Cl)c(S(=O)(=O)C2CC2)c1[O-])Nc1ccc2c(c1)CCNCC2

>  <Energy>  (50) 
335.69501317576993

>  <Genealogy>  (50) 
O=C([N-]c1ccc(Cl)c(S(=O)(=O)C2CC2)c1[O-])Nc1ccc2c(c1)CCNCC2 (protonated)
O=C([N-]c1ccc(Cl)c(S(=O)(=O)C2CC2)c1[O-])Nc1ccc2c(c1)CCNCC2 (3D coordinates assigned)
O=C([N-]c1ccc(Cl)c(S(=O)(=O)C2CC2)c1[O-])Nc1ccc2c(c1)CCNCC2 (nonaromatic ring conformer: 335.69501317576993 kcal/mol)

>  <smiles>  (50) 
O=C(Nc1ccc2c(c1)CCNCC2)Nc1ccc(Cl)c(S(=O)(=O)C2CC2)c1O

>  <score_type>  (50) 
oracle

>  <origin>  (50) 
adgpu

>  <m_score__min__energy>  (50) 
-11.92

>  <m_primary>  (50) 
energy

$$$$
