0:0
     RDKit          3D

 37 39  0  0  0  0  0  0  0  0999 V2000
   -0.9450   19.0820  -33.3310 C   0  0  0  0  0  0  0  0  0  0  0  0
   -2.0450   19.9930  -32.8740 C   0  0  0  0  0  0  0  0  0  0  0  0
   -2.6210   19.8250  -31.6050 C   0  0  0  0  0  0  0  0  0  0  0  0
   -3.6210   20.6970  -31.1640 C   0  0  0  0  0  0  0  0  0  0  0  0
   -4.0420   21.7640  -31.9730 C   0  0  0  0  0  0  0  0  0  0  0  0
   -5.1090   22.6740  -31.4960 C   0  0  0  0  0  0  0  0  0  0  0  0
   -6.3980   22.2470  -31.5560 N   0  0  0  0  0  0  0  0  0  0  0  0
   -7.4090   23.0440  -31.1400 C   0  0  0  0  0  0  0  0  0  0  0  0
   -8.5980   22.6310  -31.2020 O   0  0  0  0  0  0  0  0  0  0  0  0
   -7.1410   24.2870  -30.6670 N   0  0  0  0  0  0  0  0  0  0  0  0
   -5.8580   24.7250  -30.5900 C   0  0  0  0  0  0  0  0  0  0  0  0
   -5.6290   25.8970  -30.1850 O   0  0  0  0  0  0  0  0  0  0  0  0
   -4.8270   23.9070  -30.9690 N   0  0  0  0  0  0  0  0  0  0  0  0
   -3.4860   24.3220  -30.8400 N   0  0  0  0  0  0  0  0  0  0  0  0
   -2.7340   24.2430  -29.6230 C   0  0  0  0  0  0  0  0  0  0  0  0
   -2.3310   25.3010  -29.0650 O   0  0  0  0  0  0  0  0  0  0  0  0
   -2.4710   22.9270  -28.9980 C   0  0  0  0  0  0  0  0  0  0  0  0
   -3.3740   22.3850  -28.0640 C   0  0  0  0  0  0  0  0  0  0  0  0
   -3.1260   21.1410  -27.4790 C   0  0  0  0  0  0  0  0  0  0  0  0
   -1.9780   20.4210  -27.8180 C   0  0  0  0  0  0  0  0  0  0  0  0
   -1.0740   20.9460  -28.7460 C   0  0  0  0  0  0  0  0  0  0  0  0
    0.3660   20.0400  -29.1750 Cl  0  0  0  0  0  0  0  0  0  0  0  0
   -1.3170   22.1930  -29.3340 C   0  0  0  0  0  0  0  0  0  0  0  0
   -3.4670   21.9270  -33.2440 C   0  0  0  0  0  0  0  0  0  0  0  0
   -2.4660   21.0560  -33.6860 C   0  0  0  0  0  0  0  0  0  0  0  0
   -0.4326   18.6577  -32.4550 H   0  0  0  0  0  0  0  0  0  0  0  0
   -1.3706   18.2683  -33.9366 H   0  0  0  0  0  0  0  0  0  0  0  0
   -0.2249   19.6518  -33.9366 H   0  0  0  0  0  0  0  0  0  0  0  0
   -2.2843   19.0040  -30.9549 H   0  0  0  0  0  0  0  0  0  0  0  0
   -4.0810   20.5458  -30.1763 H   0  0  0  0  0  0  0  0  0  0  0  0
   -7.9260   24.9100  -30.3660 H   0  0  0  0  0  0  0  0  0  0  0  0
   -4.2812   22.9449  -27.7929 H   0  0  0  0  0  0  0  0  0  0  0  0
   -3.8371   20.7270  -26.7490 H   0  0  0  0  0  0  0  0  0  0  0  0
   -1.7855   19.4419  -27.3552 H   0  0  0  0  0  0  0  0  0  0  0  0
   -0.6021   22.6021  -30.0631 H   0  0  0  0  0  0  0  0  0  0  0  0
   -3.8063   22.7452  -33.8962 H   0  0  0  0  0  0  0  0  0  0  0  0
   -2.0071   21.2054  -34.6745 H   0  0  0  0  0  0  0  0  0  0  0  0
  1  2  1  0
  2  3  2  0
  3  4  1  0
  4  5  2  0
  5  6  1  0
  6  7  2  0
  7  8  1  0
  8  9  2  0
  8 10  1  0
 10 11  1  0
 11 12  2  0
 11 13  1  0
 13 14  1  0
 14 15  1  0
 15 16  2  0
 15 17  1  0
 17 18  2  0
 18 19  1  0
 19 20  2  0
 20 21  1  0
 21 22  1  0
 21 23  2  0
  5 24  1  0
 24 25  2  0
 25  2  1  0
 13  6  1  0
 23 17  1  0
  1 26  1  0
  1 27  1  0
  1 28  1  0
  3 29  1  0
  4 30  1  0
 10 31  1  0
 18 32  1  0
 19 33  1  0
 20 34  1  0
 23 35  1  0
 24 36  1  0
 25 37  1  0
M  CHG  1  14  -1
M  END
>  <UniqueID>  (1) 
1

>  <SMILES>  (1) 
Cc1ccc(-c2nc(=O)[nH]c(=O)n2[N-]C(=O)c2cccc(Cl)c2)cc1

>  <Energy>  (1) 
52.68235466680126

>  <Genealogy>  (1) 
Cc1ccc(-c2nc(=O)[nH]c(=O)n2[N-]C(=O)c2cccc(Cl)c2)cc1 (protonated)
Cc1ccc(-c2nc(=O)[nH]c(=O)n2[N-]C(=O)c2cccc(Cl)c2)cc1 (3D coordinates assigned)
Cc1ccc(-c2nc(=O)[nH]c(=O)n2[N-]C(=O)c2cccc(Cl)c2)cc1 (optimized conformer: 52.68235466680126 kcal/mol)

>  <smiles>  (1) 
Cc1ccc(-c2nc(=O)[nH]c(=O)n2NC(=O)c2cccc(Cl)c2)cc1

>  <score_type>  (1) 
oracle

>  <origin>  (1) 
adgpu

>  <m_score__min__energy>  (1) 
-8.4199999999999999

>  <m_primary>  (1) 
energy

$$$$
1:0
     RDKit          3D

 59 62  0  0  0  0  0  0  0  0999 V2000
   -8.7770   18.7140  -31.6290 C   0  0  0  0  0  0  0  0  0  0  0  0
   -8.7970   19.7750  -32.7230 C   0  0  0  0  0  0  0  0  0  0  0  0
   -7.6960   20.7800  -32.5150 C   0  0  0  0  0  0  0  0  0  0  0  0
   -7.9980   21.9880  -32.3250 O   0  0  0  0  0  0  0  0  0  0  0  0
   -6.3250   20.3730  -32.3980 N   0  0  0  0  0  0  0  0  0  0  0  0
   -5.8150   19.1490  -33.0180 C   0  0  0  0  0  0  0  0  0  0  0  0
   -4.2780   19.3140  -33.1000 C   0  0  0  0  0  0  0  0  0  0  0  0
   -4.0380   20.6260  -32.4410 C   0  0  0  0  0  0  0  0  0  0  0  0
   -2.8140   21.2360  -32.1680 C   0  0  0  0  0  0  0  0  0  0  0  0
   -2.8110   22.4500  -31.4620 C   0  0  0  0  0  0  0  0  0  0  0  0
   -4.0250   23.0200  -31.0240 C   0  0  0  0  0  0  0  0  0  0  0  0
   -4.0300   24.4960  -30.0690 S   0  0  0  0  0  0  0  0  0  0  0  0
   -4.6700   25.6180  -30.8360 O   0  0  0  0  0  0  0  0  0  0  0  0
   -4.8200   24.2650  -28.8130 O   0  0  0  0  0  0  0  0  0  0  0  0
   -2.3860   24.9160  -29.7140 N   0  0  0  0  0  0  0  0  0  0  0  0
   -1.8800   25.1800  -28.4000 C   0  0  0  0  0  0  0  0  0  0  0  0
   -1.0990   26.3210  -28.1540 C   0  0  0  0  0  0  0  0  0  0  0  0
   -0.6080   26.5800  -26.8740 C   0  0  0  0  0  0  0  0  0  0  0  0
   -0.8890   25.7040  -25.8280 C   0  0  0  0  0  0  0  0  0  0  0  0
   -1.6430   24.5530  -26.0620 C   0  0  0  0  0  0  0  0  0  0  0  0
   -2.1220   24.2550  -27.3540 C   0  0  0  0  0  0  0  0  0  0  0  0
   -2.9150   23.0610  -27.5770 N   0  0  0  0  0  0  0  0  0  0  0  0
   -2.3020   21.8030  -27.0780 C   0  0  0  0  0  0  0  0  0  0  0  0
   -0.7860   21.6870  -27.4160 C   0  0  0  0  0  0  0  0  0  0  0  0
   -0.5060   20.6350  -28.4940 C   0  0  0  0  0  0  0  0  0  0  0  0
   -0.9920   19.2370  -28.0570 C   0  0  0  0  0  0  0  0  0  0  0  0
   -2.2820   19.2700  -27.2100 C   0  0  0  0  0  0  0  0  0  0  0  0
   -3.1050   20.5340  -27.4740 C   0  0  0  0  0  0  0  0  0  0  0  0
   -5.2420   22.3730  -31.3000 C   0  0  0  0  0  0  0  0  0  0  0  0
   -5.2200   21.1950  -32.0520 C   0  0  0  0  0  0  0  0  0  0  0  0
   -8.7862   19.2030  -30.6437 H   0  0  0  0  0  0  0  0  0  0  0  0
   -9.6632   18.0697  -31.7269 H   0  0  0  0  0  0  0  0  0  0  0  0
   -7.8672   18.1035  -31.7269 H   0  0  0  0  0  0  0  0  0  0  0  0
   -8.6606   19.2880  -33.6998 H   0  0  0  0  0  0  0  0  0  0  0  0
   -9.7634   20.2992  -32.6873 H   0  0  0  0  0  0  0  0  0  0  0  0
   -6.0722   18.2742  -32.4027 H   0  0  0  0  0  0  0  0  0  0  0  0
   -6.2547   18.9910  -34.0138 H   0  0  0  0  0  0  0  0  0  0  0  0
   -3.7655   18.5032  -32.5615 H   0  0  0  0  0  0  0  0  0  0  0  0
   -3.8956   19.2740  -34.1306 H   0  0  0  0  0  0  0  0  0  0  0  0
   -1.8710   20.7761  -32.4986 H   0  0  0  0  0  0  0  0  0  0  0  0
   -1.8588   22.9583  -31.2498 H   0  0  0  0  0  0  0  0  0  0  0  0
   -0.8728   27.0155  -28.9765 H   0  0  0  0  0  0  0  0  0  0  0  0
    0.0017   27.4770  -26.6906 H   0  0  0  0  0  0  0  0  0  0  0  0
   -0.5160   25.9197  -24.8159 H   0  0  0  0  0  0  0  0  0  0  0  0
   -1.8661   23.8705  -25.2287 H   0  0  0  0  0  0  0  0  0  0  0  0
   -3.1140   22.9520  -28.5990 H   0  0  0  0  0  0  0  0  0  0  0  0
   -3.8540   23.1830  -27.1300 H   0  0  0  0  0  0  0  0  0  0  0  0
   -2.3613   21.8639  -25.9813 H   0  0  0  0  0  0  0  0  0  0  0  0
   -0.4284   22.6636  -27.7743 H   0  0  0  0  0  0  0  0  0  0  0  0
   -0.2614   21.3764  -26.5004 H   0  0  0  0  0  0  0  0  0  0  0  0
   -1.0281   20.9224  -29.4186 H   0  0  0  0  0  0  0  0  0  0  0  0
    0.5808   20.5880  -28.6575 H   0  0  0  0  0  0  0  0  0  0  0  0
   -1.1831   18.6372  -28.9591 H   0  0  0  0  0  0  0  0  0  0  0  0
   -0.2022   18.8026  -27.4265 H   0  0  0  0  0  0  0  0  0  0  0  0
   -2.8929   18.3894  -27.4577 H   0  0  0  0  0  0  0  0  0  0  0  0
   -1.9936   19.2660  -26.1485 H   0  0  0  0  0  0  0  0  0  0  0  0
   -3.3563   20.5846  -28.5437 H   0  0  0  0  0  0  0  0  0  0  0  0
   -4.0225   20.4922  -26.8686 H   0  0  0  0  0  0  0  0  0  0  0  0
   -6.1928   22.7856  -30.9315 H   0  0  0  0  0  0  0  0  0  0  0  0
  1  2  1  0
  2  3  1  0
  3  4  2  0
  3  5  1  0
  5  6  1  0
  6  7  1  0
  7  8  1  0
  8  9  2  0
  9 10  1  0
 10 11  2  0
 11 12  1  0
 12 13  2  0
 12 14  2  0
 12 15  1  0
 15 16  1  0
 16 17  2  0
 17 18  1  0
 18 19  2  0
 19 20  1  0
 20 21  2  0
 21 22  1  0
 22 23  1  0
 23 24  1  0
 24 25  1  0
 25 26  1  0
 26 27  1  0
 27 28  1  0
 11 29  1  0
 29 30  2  0
 30  5  1  0
 30  8  1  0
 21 16  1  0
 28 23  1  0
  1 31  1  0
  1 32  1  0
  1 33  1  0
  2 34  1  0
  2 35  1  0
  6 36  1  0
  6 37  1  0
  7 38  1  0
  7 39  1  0
  9 40  1  0
 10 41  1  0
 17 42  1  0
 18 43  1  0
 19 44  1  0
 20 45  1  0
 22 46  1  0
 22 47  1  0
 23 48  1  0
 24 49  1  0
 24 50  1  0
 25 51  1  0
 25 52  1  0
 26 53  1  0
 26 54  1  0
 27 55  1  0
 27 56  1  0
 28 57  1  0
 28 58  1  0
 29 59  1  0
M  CHG  2  15  -1  22   1
M  END
>  <UniqueID>  (2) 
2

>  <SMILES>  (2) 
CCC(=O)N1CCc2ccc(S(=O)(=O)[N-]c3ccccc3[NH2+]C3CCCCC3)cc21

>  <Energy>  (2) 
92.68585810688347

>  <Genealogy>  (2) 
CCC(=O)N1CCc2ccc(S(=O)(=O)[N-]c3ccccc3[NH2+]C3CCCCC3)cc21 (protonated)
CCC(=O)N1CCc2ccc(S(=O)(=O)[N-]c3ccccc3[NH2+]C3CCCCC3)cc21 (3D coordinates assigned)
CCC(=O)N1CCc2ccc(S(=O)(=O)[N-]c3ccccc3[NH2+]C3CCCCC3)cc21 (nonaromatic ring conformer: 92.68585810688347 kcal/mol)

>  <smiles>  (2) 
CCC(=O)N1CCc2ccc(S(=O)(=O)Nc3ccccc3NC3CCCCC3)cc21

>  <score_type>  (2) 
oracle

>  <origin>  (2) 
adgpu

>  <m_score__min__energy>  (2) 
-10.44

>  <m_primary>  (2) 
energy

$$$$
2:0
     RDKit          3D

 37 39  0  0  0  0  0  0  0  0999 V2000
   -3.1816   22.3319  -32.1448 H   0  0  0  0  0  0  0  0  0  0  0  0
   -4.2780   22.3650  -32.0620 C   0  0  0  0  0  0  0  0  0  0  0  0
   -5.0490   21.3590  -32.6490 C   0  0  0  0  0  0  0  0  0  0  0  0
   -4.5560   20.5479  -33.2049 H   0  0  0  0  0  0  0  0  0  0  0  0
   -6.4490   21.3750  -32.5350 C   0  0  0  0  0  0  0  0  0  0  0  0
   -7.2520   20.2730  -33.1760 C   0  0  0  0  0  0  0  0  0  0  0  0
   -7.7073   19.6482  -32.3934 H   0  0  0  0  0  0  0  0  0  0  0  0
   -8.0434   20.7120  -33.8013 H   0  0  0  0  0  0  0  0  0  0  0  0
   -6.5916   19.6542  -33.8013 H   0  0  0  0  0  0  0  0  0  0  0  0
   -7.0740   22.4060  -31.7940 C   0  0  0  0  0  0  0  0  0  0  0  0
   -8.5700   22.4490  -31.6240 C   0  0  0  0  0  0  0  0  0  0  0  0
   -8.8172   22.4561  -30.5522 H   0  0  0  0  0  0  0  0  0  0  0  0
   -8.9669   23.3589  -32.0978 H   0  0  0  0  0  0  0  0  0  0  0  0
   -9.0185   21.5634  -32.0978 H   0  0  0  0  0  0  0  0  0  0  0  0
   -6.2850   23.4130  -31.2130 C   0  0  0  0  0  0  0  0  0  0  0  0
   -6.7656   24.2109  -30.6279 H   0  0  0  0  0  0  0  0  0  0  0  0
   -4.8900   23.4120  -31.3710 C   0  0  0  0  0  0  0  0  0  0  0  0
   -4.0690   24.4060  -30.7360 N   0  0  0  0  0  0  0  0  0  0  0  0
   -3.2580   24.2440  -29.7290 C   0  0  0  0  0  0  0  0  0  0  0  0
   -2.4950   25.2990  -29.3430 N   0  0  0  0  0  0  0  0  0  0  0  0
   -1.6270   25.2330  -28.3000 C   0  0  0  0  0  0  0  0  0  0  0  0
   -0.8650   26.3580  -27.9640 C   0  0  0  0  0  0  0  0  0  0  0  0
   -0.9747   27.2871  -28.5426 H   0  0  0  0  0  0  0  0  0  0  0  0
    0.0330   26.3050  -26.8980 C   0  0  0  0  0  0  0  0  0  0  0  0
    0.6304   27.1915  -26.6388 H   0  0  0  0  0  0  0  0  0  0  0  0
    0.1750   25.1280  -26.1590 C   0  0  0  0  0  0  0  0  0  0  0  0
    0.8837   25.0908  -25.3185 H   0  0  0  0  0  0  0  0  0  0  0  0
   -0.5810   23.9960  -26.4840 C   0  0  0  0  0  0  0  0  0  0  0  0
   -0.4637   23.0725  -25.8980 H   0  0  0  0  0  0  0  0  0  0  0  0
   -1.4930   24.0340  -27.5600 C   0  0  0  0  0  0  0  0  0  0  0  0
   -2.2860   22.9200  -27.9250 C   0  0  0  0  0  0  0  0  0  0  0  0
   -2.2150   21.6150  -27.1740 C   0  0  0  0  0  0  0  0  0  0  0  0
   -2.2258   21.8135  -26.0921 H   0  0  0  0  0  0  0  0  0  0  0  0
   -3.0805   20.9908  -27.4409 H   0  0  0  0  0  0  0  0  0  0  0  0
   -1.2869   21.0884  -27.4409 H   0  0  0  0  0  0  0  0  0  0  0  0
   -3.1740   23.0370  -29.0070 C   0  0  0  0  0  0  0  0  0  0  0  0
   -3.8062   22.1831  -29.2918 H   0  0  0  0  0  0  0  0  0  0  0  0
  1  2  1  0
  2  3  2  0
  3  4  1  0
  3  5  1  0
  5  6  1  0
  6  7  1  0
  6  8  1  0
  6  9  1  0
  5 10  2  0
 10 11  1  0
 11 12  1  0
 11 13  1  0
 11 14  1  0
 10 15  1  0
 15 16  1  0
 15 17  2  0
 17 18  1  0
 18 19  2  0
 19 20  1  0
 20 21  1  0
 21 22  2  0
 22 23  1  0
 22 24  1  0
 24 25  1  0
 24 26  2  0
 26 27  1  0
 26 28  1  0
 28 29  1  0
 28 30  2  0
 30 31  1  0
 31 32  1  0
 32 33  1  0
 32 34  1  0
 32 35  1  0
 31 36  2  0
 36 37  1  0
 17  2  1  0
 36 19  1  0
 30 21  1  0
M  CHG  1  20  -1
M  END
>  <UniqueID>  (3) 
3

>  <SMILES>  (3) 
Cc1ccc(/N=c2\cc(C)c3ccccc3[n-]2)cc1C

>  <Energy>  (3) 
53.53770709707603

>  <Genealogy>  (3) 
Cc1ccc(N=c2cc(C)c3ccccc3[n-]2)cc1C (protonated)
Cc1ccc(/N=c2\cc(C)c3ccccc3[n-]2)cc1C (cis-trans isomerization)
Cc1ccc(/N=c2\cc(C)c3ccccc3[n-]2)cc1C (3D coordinates assigned)
Cc1ccc(/N=c2\cc(C)c3ccccc3[n-]2)cc1C (optimized conformer: 53.53770709707603 kcal/mol)

>  <smiles>  (3) 
Cc1ccc(N=c2cc(C)c3ccccc3[nH]2)cc1C

>  <score_type>  (3) 
oracle

>  <origin>  (3) 
adgpu

>  <m_score__min__energy>  (3) 
-9.3599999999999994

>  <m_primary>  (3) 
energy

$$$$
3:0
     RDKit          3D

 38 40  0  0  1  0  0  0  0  0999 V2000
   -5.3550   25.9610  -30.4670 C   0  0  0  0  0  0  0  0  0  0  0  0
   -4.0530   25.3670  -30.5950 O   0  0  0  0  0  0  0  0  0  0  0  0
   -3.9890   23.9930  -30.8490 C   0  0  0  0  0  0  0  0  0  0  0  0
   -4.9930   23.4390  -31.5750 N   0  0  0  0  0  0  0  0  0  0  0  0
   -4.9610   22.1020  -31.8400 C   0  0  0  0  0  0  0  0  0  0  0  0
   -5.9300   21.6110  -32.5330 N   0  0  0  0  0  0  0  0  0  0  0  0
   -5.9030   20.2170  -32.8140 C   0  0  0  0  0  0  0  0  0  0  0  0
   -6.7370   19.3940  -32.0670 C   0  0  0  0  0  0  0  0  0  0  0  0
   -6.7770   18.0270  -32.2690 C   0  0  0  0  0  0  0  0  0  0  0  0
   -5.9530   17.5090  -33.2480 C   0  0  0  0  0  0  0  0  0  0  0  0
   -5.9330   16.1600  -33.5080 F   0  0  0  0  0  0  0  0  0  0  0  0
   -5.1240   18.3220  -33.9930 C   0  0  0  0  0  0  0  0  0  0  0  0
   -5.0900   19.6760  -33.7850 C   0  0  0  0  0  0  0  0  0  0  0  0
   -3.9060   21.3450  -31.3610 C   0  0  0  0  0  0  0  0  0  0  0  0
   -2.8910   21.9510  -30.6160 C   0  0  0  0  0  0  0  0  0  0  0  0
   -1.7880   21.1930  -30.1320 N   0  0  0  0  0  0  0  0  0  0  0  0
   -1.8480   20.3920  -28.9790 C   0  0  0  0  0  0  0  0  0  0  0  0
   -0.8810   19.4790  -28.6060 C   0  0  0  0  0  0  0  0  0  0  0  0
   -1.0730   18.7250  -27.4710 C   0  0  0  0  0  0  0  0  0  0  0  0
   -2.2180   18.8570  -26.6840 C   0  0  0  0  0  0  0  0  0  0  0  0
   -2.3650   18.1020  -25.5900 F   0  0  0  0  0  0  0  0  0  0  0  0
   -3.1980   19.7810  -27.0560 C   0  0  0  0  0  0  0  0  0  0  0  0
   -2.9930   20.5230  -28.1870 C   0  0  0  0  0  0  0  0  0  0  0  0
   -2.9570   23.2710  -30.3770 N   0  0  0  0  0  0  0  0  0  0  0  0
   -5.6032   26.0742  -29.4014 H   0  0  0  0  0  0  0  0  0  0  0  0
   -5.3565   26.9489  -30.9508 H   0  0  0  0  0  0  0  0  0  0  0  0
   -6.1021   25.3146  -30.9508 H   0  0  0  0  0  0  0  0  0  0  0  0
   -7.3813   19.8413  -31.2958 H   0  0  0  0  0  0  0  0  0  0  0  0
   -7.4378   17.3791  -31.6745 H   0  0  0  0  0  0  0  0  0  0  0  0
   -4.4804   17.8765  -34.7659 H   0  0  0  0  0  0  0  0  0  0  0  0
   -4.4261   20.3184  -34.3821 H   0  0  0  0  0  0  0  0  0  0  0  0
   -3.8665   20.2652  -31.5670 H   0  0  0  0  0  0  0  0  0  0  0  0
   -0.8750   21.2180  -30.6500 H   0  0  0  0  0  0  0  0  0  0  0  0
    0.0310   19.3562  -29.2086 H   0  0  0  0  0  0  0  0  0  0  0  0
   -0.3023   17.9978  -27.1757 H   0  0  0  0  0  0  0  0  0  0  0  0
   -4.1105   19.9085  -26.4551 H   0  0  0  0  0  0  0  0  0  0  0  0
   -3.7603   21.2525  -28.4856 H   0  0  0  0  0  0  0  0  0  0  0  0
   -2.2360   23.8090  -29.8430 H   0  0  0  0  0  0  0  0  0  0  0  0
  1  2  1  0
  2  3  1  0
  3  4  2  0
  4  5  1  0
  5  6  2  0
  6  7  1  0
  7  8  2  0
  8  9  1  0
  9 10  2  0
 10 11  1  0
 10 12  1  0
 12 13  2  0
  5 14  1  0
 14 15  2  0
 15 16  1  0
 16 17  1  0
 17 18  2  0
 18 19  1  0
 19 20  2  0
 20 21  1  0
 20 22  1  0
 22 23  2  0
 15 24  1  0
 24  3  1  0
 13  7  1  0
 23 17  1  0
  1 25  1  0
  1 26  1  0
  1 27  1  0
  8 28  1  0
  9 29  1  0
 12 30  1  0
 13 31  1  0
 14 32  1  0
 16 33  1  0
 18 34  1  0
 19 35  1  0
 22 36  1  0
 23 37  1  0
 24 38  1  0
M  END
>  <smiles>  (4) 
COc1nc(=Nc2ccc(F)cc2)cc(Nc2ccc(F)cc2)[nH]1

>  <score_type>  (4) 
oracle

>  <origin>  (4) 
adgpu

>  <m_score__min__energy>  (4) 
-8.2300000000000004

>  <m_primary>  (4) 
energy

$$$$
4:0
     RDKit          3D

 32 33  0  0  0  0  0  0  0  0999 V2000
   -6.4010   15.8770  -33.8550 C   0  0  0  0  0  0  0  0  0  0  0  0
   -7.1910   16.8600  -33.1940 O   0  0  0  0  0  0  0  0  0  0  0  0
   -6.8230   18.2060  -33.0520 C   0  0  0  0  0  0  0  0  0  0  0  0
   -7.6640   19.1600  -32.4500 C   0  0  0  0  0  0  0  0  0  0  0  0
   -7.2490   20.4900  -32.3330 C   0  0  0  0  0  0  0  0  0  0  0  0
   -5.9920   20.8940  -32.8090 C   0  0  0  0  0  0  0  0  0  0  0  0
   -5.5960   22.2700  -32.6610 N   0  0  0  0  0  0  0  0  0  0  0  0
   -5.6980   23.1570  -31.1710 S   0  0  0  0  0  0  0  0  0  0  0  0
   -6.5170   22.3670  -30.1890 O   0  0  0  0  0  0  0  0  0  0  0  0
   -6.3970   24.4570  -31.4520 O   0  0  0  0  0  0  0  0  0  0  0  0
   -4.0790   23.4170  -30.4760 C   0  0  0  0  0  0  0  0  0  0  0  0
   -3.2000   22.3460  -30.1890 C   0  0  0  0  0  0  0  0  0  0  0  0
   -3.5540   20.9130  -30.4560 C   0  0  0  0  0  0  0  0  0  0  0  0
   -1.9850   22.6080  -29.6370 N   0  0  0  0  0  0  0  0  0  0  0  0
   -1.5800   23.8750  -29.3780 C   0  0  0  0  0  0  0  0  0  0  0  0
   -0.4520   24.0820  -28.8650 O   0  0  0  0  0  0  0  0  0  0  0  0
   -2.3900   24.9190  -29.6790 N   0  0  0  0  0  0  0  0  0  0  0  0
   -3.6160   24.7230  -30.2260 C   0  0  0  0  0  0  0  0  0  0  0  0
   -4.3230   25.7250  -30.5100 O   0  0  0  0  0  0  0  0  0  0  0  0
   -5.1540   19.9360  -33.4100 C   0  0  0  0  0  0  0  0  0  0  0  0
   -5.5700   18.6070  -33.5270 C   0  0  0  0  0  0  0  0  0  0  0  0
   -5.8960   15.2486  -33.1067 H   0  0  0  0  0  0  0  0  0  0  0  0
   -7.0484   15.2489  -34.4845 H   0  0  0  0  0  0  0  0  0  0  0  0
   -5.6483   16.3741  -34.4845 H   0  0  0  0  0  0  0  0  0  0  0  0
   -8.6513   18.8584  -32.0701 H   0  0  0  0  0  0  0  0  0  0  0  0
   -7.9152   21.2281  -31.8626 H   0  0  0  0  0  0  0  0  0  0  0  0
   -5.2230   22.7830  -33.4910 H   0  0  0  0  0  0  0  0  0  0  0  0
   -3.6848   20.3835  -29.5007 H   0  0  0  0  0  0  0  0  0  0  0  0
   -4.4903   20.8677  -31.0315 H   0  0  0  0  0  0  0  0  0  0  0  0
   -2.7465   20.4369  -31.0315 H   0  0  0  0  0  0  0  0  0  0  0  0
   -4.1659   20.2351  -33.7898 H   0  0  0  0  0  0  0  0  0  0  0  0
   -4.9048   17.8682  -33.9978 H   0  0  0  0  0  0  0  0  0  0  0  0
  1  2  1  0
  2  3  1  0
  3  4  2  0
  4  5  1  0
  5  6  2  0
  6  7  1  0
  7  8  1  0
  8  9  2  0
  8 10  2  0
  8 11  1  0
 11 12  2  0
 12 13  1  0
 12 14  1  0
 14 15  1  0
 15 16  2  0
 15 17  1  0
 17 18  1  0
 18 19  2  0
  6 20  1  0
 20 21  2  0
 21  3  1  0
 18 11  1  0
  1 22  1  0
  1 23  1  0
  1 24  1  0
  4 25  1  0
  5 26  1  0
  7 27  1  0
 13 28  1  0
 13 29  1  0
 13 30  1  0
 20 31  1  0
 21 32  1  0
M  CHG  2  14  -1  17  -1
M  END
>  <UniqueID>  (5) 
4

>  <SMILES>  (5) 
COc1ccc(NS(=O)(=O)c2c(C)[n-]c(=O)[n-]c2=O)cc1

>  <Energy>  (5) 
38.608335681557314

>  <Genealogy>  (5) 
COc1ccc(NS(=O)(=O)c2c(C)[n-]c(=O)[n-]c2=O)cc1 (protonated)
COc1ccc(NS(=O)(=O)c2c(C)[n-]c(=O)[n-]c2=O)cc1 (3D coordinates assigned)
COc1ccc(NS(=O)(=O)c2c(C)[n-]c(=O)[n-]c2=O)cc1 (optimized conformer: 38.608335681557314 kcal/mol)

>  <smiles>  (5) 
COc1ccc(NS(=O)(=O)c2c(C)[nH]c(=O)[nH]c2=O)cc1

>  <score_type>  (5) 
oracle

>  <origin>  (5) 
adgpu

>  <m_score__min__energy>  (5) 
-9.7200000000000006

>  <m_primary>  (5) 
energy

$$$$
5:0
     RDKit          3D

 47 49  0  0  0  0  0  0  0  0999 V2000
   -0.2600   23.5970  -28.3130 C   0  0  0  0  0  0  0  0  0  0  0  0
   -1.5770   23.8740  -28.9540 C   0  0  0  0  0  0  0  0  0  0  0  0
   -1.9820   25.1040  -29.3230 N   0  0  0  0  0  0  0  0  0  0  0  0
   -3.1380   24.9180  -29.8810 O   0  0  0  0  0  0  0  0  0  0  0  0
   -3.4360   23.6410  -29.8710 C   0  0  0  0  0  0  0  0  0  0  0  0
   -4.6800   23.0730  -30.4260 C   0  0  0  0  0  0  0  0  0  0  0  0
   -5.9050   23.2340  -29.7650 C   0  0  0  0  0  0  0  0  0  0  0  0
   -7.0720   22.6910  -30.3050 C   0  0  0  0  0  0  0  0  0  0  0  0
   -7.0150   21.9800  -31.5210 C   0  0  0  0  0  0  0  0  0  0  0  0
   -8.2010   21.3910  -32.1150 N   0  0  0  0  0  0  0  0  0  0  0  0
   -9.5440   21.8460  -31.7320 C   0  0  0  0  0  0  0  0  0  0  0  0
   -8.0870   20.2870  -33.0830 C   0  0  0  0  0  0  0  0  0  0  0  0
   -8.4520   18.9390  -32.4430 C   0  0  0  0  0  0  0  0  0  0  0  0
   -7.3660   18.4420  -31.4720 C   0  0  0  0  0  0  0  0  0  0  0  0
   -6.2420   17.7530  -32.1420 N   0  0  0  0  0  0  0  0  0  0  0  0
   -6.6330   16.8000  -33.2080 C   0  0  0  0  0  0  0  0  0  0  0  0
   -6.1070   17.2020  -34.5910 C   0  0  0  0  0  0  0  0  0  0  0  0
   -6.1050   18.6580  -34.7120 N   0  0  0  0  0  0  0  0  0  0  0  0
   -5.0830   19.2410  -33.8320 C   0  0  0  0  0  0  0  0  0  0  0  0
   -5.0600   18.5940  -32.4270 C   0  0  0  0  0  0  0  0  0  0  0  0
   -5.8080   21.8400  -32.1380 N   0  0  0  0  0  0  0  0  0  0  0  0
   -4.6590   22.3590  -31.6310 C   0  0  0  0  0  0  0  0  0  0  0  0
   -2.4610   22.9120  -29.2910 N   0  0  0  0  0  0  0  0  0  0  0  0
   -0.3725   23.6207  -27.2190 H   0  0  0  0  0  0  0  0  0  0  0  0
    0.0973   22.6041  -28.6235 H   0  0  0  0  0  0  0  0  0  0  0  0
    0.4670   24.3619  -28.6235 H   0  0  0  0  0  0  0  0  0  0  0  0
   -5.9471   23.7904  -28.8170 H   0  0  0  0  0  0  0  0  0  0  0  0
   -8.0324   22.8174  -29.7838 H   0  0  0  0  0  0  0  0  0  0  0  0
   -9.6231   21.8728  -30.6352 H   0  0  0  0  0  0  0  0  0  0  0  0
   -9.7191   22.8536  -32.1370 H   0  0  0  0  0  0  0  0  0  0  0  0
  -10.2955   21.1523  -32.1370 H   0  0  0  0  0  0  0  0  0  0  0  0
   -8.7673   20.4787  -33.9259 H   0  0  0  0  0  0  0  0  0  0  0  0
   -7.0434   20.2351  -33.4269 H   0  0  0  0  0  0  0  0  0  0  0  0
   -9.3959   19.0537  -31.8898 H   0  0  0  0  0  0  0  0  0  0  0  0
   -8.5478   18.1976  -33.2499 H   0  0  0  0  0  0  0  0  0  0  0  0
   -6.9661   19.3084  -30.9248 H   0  0  0  0  0  0  0  0  0  0  0  0
   -7.8418   17.7084  -30.8046 H   0  0  0  0  0  0  0  0  0  0  0  0
   -6.2324   15.8072  -32.9553 H   0  0  0  0  0  0  0  0  0  0  0  0
   -7.7317   16.7972  -33.2611 H   0  0  0  0  0  0  0  0  0  0  0  0
   -5.0820   16.8231  -34.7169 H   0  0  0  0  0  0  0  0  0  0  0  0
   -6.7571   16.7724  -35.3674 H   0  0  0  0  0  0  0  0  0  0  0  0
   -5.8610   18.9040  -35.7000 H   0  0  0  0  0  0  0  0  0  0  0  0
   -4.0968   19.1019  -34.2989 H   0  0  0  0  0  0  0  0  0  0  0  0
   -5.3271   20.3056  -33.7018 H   0  0  0  0  0  0  0  0  0  0  0  0
   -4.1599   17.9666  -32.3480 H   0  0  0  0  0  0  0  0  0  0  0  0
   -5.0644   19.4146  -31.6945 H   0  0  0  0  0  0  0  0  0  0  0  0
   -3.7096   22.2180  -32.1684 H   0  0  0  0  0  0  0  0  0  0  0  0
  1  2  1  0
  2  3  2  0
  3  4  1  0
  4  5  1  0
  5  6  1  0
  6  7  2  0
  7  8  1  0
  8  9  2  0
  9 10  1  0
 10 11  1  0
 10 12  1  0
 12 13  1  0
 13 14  1  0
 14 15  1  0
 15 16  1  0
 16 17  1  0
 17 18  1  0
 18 19  1  0
 19 20  1  0
  9 21  1  0
 21 22  2  0
  5 23  2  0
 23  2  1  0
 22  6  1  0
 20 15  1  0
  1 24  1  0
  1 25  1  0
  1 26  1  0
  7 27  1  0
  8 28  1  0
 11 29  1  0
 11 30  1  0
 11 31  1  0
 12 32  1  0
 12 33  1  0
 13 34  1  0
 13 35  1  0
 14 36  1  0
 14 37  1  0
 16 38  1  0
 16 39  1  0
 17 40  1  0
 17 41  1  0
 18 42  1  0
 19 43  1  0
 19 44  1  0
 20 45  1  0
 20 46  1  0
 22 47  1  0
M  END
>  <UniqueID>  (6) 
5

>  <SMILES>  (6) 
Cc1noc(-c2ccc(N(C)CCCN3CCNCC3)nc2)n1

>  <Energy>  (6) 
89.96364904603983

>  <Genealogy>  (6) 
Cc1noc(-c2ccc(N(C)CCCN3CCNCC3)nc2)n1 (3D coordinates assigned)
Cc1noc(-c2ccc(N(C)CCCN3CCNCC3)nc2)n1 (nonaromatic ring conformer: 89.96364904603983 kcal/mol)

>  <smiles>  (6) 
Cc1noc(-c2ccc(N(C)CCCN3CCNCC3)nc2)n1

>  <score_type>  (6) 
oracle

>  <origin>  (6) 
adgpu

>  <m_score__min__energy>  (6) 
-8.0299999999999994

>  <m_primary>  (6) 
energy

$$$$
6:0
     RDKit          3D

 37 39  0  0  0  0  0  0  0  0999 V2000
   -2.0640   24.9250  -26.9860 C   0  0  0  0  0  0  0  0  0  0  0  0
   -2.8070   24.6020  -28.2370 C   0  0  0  0  0  0  0  0  0  0  0  0
   -3.6720   23.5750  -28.3550 N   0  0  0  0  0  0  0  0  0  0  0  0
   -4.0830   23.7270  -29.6300 C   0  0  0  0  0  0  0  0  0  0  0  0
   -5.0630   22.8150  -30.2980 C   0  0  0  0  0  0  0  0  0  0  0  0
   -6.3790   23.4780  -30.4140 N   0  0  0  0  0  0  0  0  0  0  0  0
   -6.7040   23.8170  -31.8170 C   0  0  0  0  0  0  0  0  0  0  0  0
   -6.8970   22.5540  -32.6720 C   0  0  0  0  0  0  0  0  0  0  0  0
   -7.5770   21.5070  -31.9020 N   0  0  0  0  0  0  0  0  0  0  0  0
   -7.4680   20.1260  -32.3000 C   0  0  0  0  0  0  0  0  0  0  0  0
   -8.2490   19.1390  -31.6710 C   0  0  0  0  0  0  0  0  0  0  0  0
   -8.1280   17.7990  -32.0480 C   0  0  0  0  0  0  0  0  0  0  0  0
   -7.2270   17.4290  -33.0490 C   0  0  0  0  0  0  0  0  0  0  0  0
   -6.4390   18.4000  -33.6740 C   0  0  0  0  0  0  0  0  0  0  0  0
   -5.3040   17.9360  -34.9280 Cl  0  0  0  0  0  0  0  0  0  0  0  0
   -6.5560   19.7440  -33.2990 C   0  0  0  0  0  0  0  0  0  0  0  0
   -8.3470   21.8990  -30.7170 C   0  0  0  0  0  0  0  0  0  0  0  0
   -7.4630   22.7080  -29.7460 C   0  0  0  0  0  0  0  0  0  0  0  0
   -3.5070   24.7800  -30.2420 N   0  0  0  0  0  0  0  0  0  0  0  0
   -2.7260   25.2980  -29.3440 O   0  0  0  0  0  0  0  0  0  0  0  0
   -2.6795   24.6574  -26.1145 H   0  0  0  0  0  0  0  0  0  0  0  0
   -1.1240   24.3543  -26.9601 H   0  0  0  0  0  0  0  0  0  0  0  0
   -1.8401   26.0017  -26.9601 H   0  0  0  0  0  0  0  0  0  0  0  0
   -4.6951   22.5591  -31.3026 H   0  0  0  0  0  0  0  0  0  0  0  0
   -5.1727   21.9017  -29.6948 H   0  0  0  0  0  0  0  0  0  0  0  0
   -7.6322   24.4069  -31.8363 H   0  0  0  0  0  0  0  0  0  0  0  0
   -5.8653   24.3924  -32.2360 H   0  0  0  0  0  0  0  0  0  0  0  0
   -7.5033   22.8046  -33.5550 H   0  0  0  0  0  0  0  0  0  0  0  0
   -5.9093   22.1813  -32.9812 H   0  0  0  0  0  0  0  0  0  0  0  0
   -8.9577   19.4234  -30.8793 H   0  0  0  0  0  0  0  0  0  0  0  0
   -8.7444   17.0330  -31.5548 H   0  0  0  0  0  0  0  0  0  0  0  0
   -7.1374   16.3735  -33.3456 H   0  0  0  0  0  0  0  0  0  0  0  0
   -5.9308   20.5050  -33.7889 H   0  0  0  0  0  0  0  0  0  0  0  0
   -9.2026   22.5163  -31.0284 H   0  0  0  0  0  0  0  0  0  0  0  0
   -8.7020   20.9921  -30.2056 H   0  0  0  0  0  0  0  0  0  0  0  0
   -8.1052   23.4158  -29.2015 H   0  0  0  0  0  0  0  0  0  0  0  0
   -6.9740   21.9817  -29.0801 H   0  0  0  0  0  0  0  0  0  0  0  0
  1  2  1  0
  2  3  2  0
  3  4  1  0
  4  5  1  0
  5  6  1  0
  6  7  1  0
  7  8  1  0
  8  9  1  0
  9 10  1  0
 10 11  2  0
 11 12  1  0
 12 13  2  0
 13 14  1  0
 14 15  1  0
 14 16  2  0
  9 17  1  0
 17 18  1  0
  4 19  2  0
 19 20  1  0
 20  2  1  0
 18  6  1  0
 16 10  1  0
  1 21  1  0
  1 22  1  0
  1 23  1  0
  5 24  1  0
  5 25  1  0
  7 26  1  0
  7 27  1  0
  8 28  1  0
  8 29  1  0
 11 30  1  0
 12 31  1  0
 13 32  1  0
 16 33  1  0
 17 34  1  0
 17 35  1  0
 18 36  1  0
 18 37  1  0
M  END
>  <UniqueID>  (7) 
6

>  <SMILES>  (7) 
Cc1nc(CN2CCN(c3cccc(Cl)c3)CC2)no1

>  <Energy>  (7) 
80.50354859141008

>  <Genealogy>  (7) 
Cc1nc(CN2CCN(c3cccc(Cl)c3)CC2)no1 (3D coordinates assigned)
Cc1nc(CN2CCN(c3cccc(Cl)c3)CC2)no1 (nonaromatic ring conformer: 80.50354859141008 kcal/mol)

>  <smiles>  (7) 
Cc1nc(CN2CCN(c3cccc(Cl)c3)CC2)no1

>  <score_type>  (7) 
oracle

>  <origin>  (7) 
adgpu

>  <m_score__min__energy>  (7) 
-8.1699999999999999

>  <m_primary>  (7) 
energy

$$$$
7:0
     RDKit          3D

 45 47  0  0  0  0  0  0  0  0999 V2000
   -1.8810   25.5400  -25.5660 C   0  0  0  0  0  0  0  0  0  0  0  0
   -1.6510   24.8430  -26.8750 C   0  0  0  0  0  0  0  0  0  0  0  0
   -0.3760   24.3580  -27.2010 C   0  0  0  0  0  0  0  0  0  0  0  0
   -0.1550   23.7390  -28.4330 C   0  0  0  0  0  0  0  0  0  0  0  0
   -1.1960   23.6150  -29.3550 C   0  0  0  0  0  0  0  0  0  0  0  0
   -2.4760   24.1210  -29.0590 C   0  0  0  0  0  0  0  0  0  0  0  0
   -3.5870   23.9970  -30.0320 C   0  0  0  0  0  0  0  0  0  0  0  0
   -3.8620   24.9690  -30.7880 O   0  0  0  0  0  0  0  0  0  0  0  0
   -4.3230   22.7680  -30.1580 N   0  0  0  0  0  0  0  0  0  0  0  0
   -5.6320   22.6780  -30.7470 C   0  0  0  0  0  0  0  0  0  0  0  0
   -6.4270   23.8300  -30.8410 C   0  0  0  0  0  0  0  0  0  0  0  0
   -7.6940   23.7710  -31.4240 C   0  0  0  0  0  0  0  0  0  0  0  0
   -8.1770   22.5620  -31.9310 C   0  0  0  0  0  0  0  0  0  0  0  0
   -7.3900   21.4020  -31.8630 C   0  0  0  0  0  0  0  0  0  0  0  0
   -7.8810   20.1600  -32.4050 N   0  0  0  0  0  0  0  0  0  0  0  0
   -9.3200   19.8770  -32.3670 C   0  0  0  0  0  0  0  0  0  0  0  0
   -6.9860   19.1930  -32.9990 C   0  0  0  0  0  0  0  0  0  0  0  0
   -6.5900   18.0380  -32.3040 C   0  0  0  0  0  0  0  0  0  0  0  0
   -5.7160   17.1420  -32.9270 C   0  0  0  0  0  0  0  0  0  0  0  0
   -5.2610   15.9080  -32.2140 C   0  0  0  0  0  0  0  0  0  0  0  0
   -5.2500   17.4130  -34.1750 N   0  0  0  0  0  0  0  0  0  0  0  0
   -5.6300   18.5380  -34.8330 C   0  0  0  0  0  0  0  0  0  0  0  0
   -6.4850   19.4150  -34.2450 N   0  0  0  0  0  0  0  0  0  0  0  0
   -6.1150   21.4670  -31.2790 C   0  0  0  0  0  0  0  0  0  0  0  0
   -2.6910   24.7340  -27.8100 C   0  0  0  0  0  0  0  0  0  0  0  0
   -1.6537   24.8513  -24.7390 H   0  0  0  0  0  0  0  0  0  0  0  0
   -1.2260   26.4213  -25.4998 H   0  0  0  0  0  0  0  0  0  0  0  0
   -2.9318   25.8584  -25.4998 H   0  0  0  0  0  0  0  0  0  0  0  0
    0.4517   24.4655  -26.4845 H   0  0  0  0  0  0  0  0  0  0  0  0
    0.8433   23.3475  -28.6781 H   0  0  0  0  0  0  0  0  0  0  0  0
   -1.0148   23.1184  -30.3196 H   0  0  0  0  0  0  0  0  0  0  0  0
   -3.8350   21.8760  -29.9150 H   0  0  0  0  0  0  0  0  0  0  0  0
   -6.0491   24.7871  -30.4523 H   0  0  0  0  0  0  0  0  0  0  0  0
   -8.3133   24.6781  -31.4843 H   0  0  0  0  0  0  0  0  0  0  0  0
   -9.1779   22.5192  -32.3852 H   0  0  0  0  0  0  0  0  0  0  0  0
   -9.6533   19.8115  -31.3208 H   0  0  0  0  0  0  0  0  0  0  0  0
   -9.8661   20.6849  -32.8759 H   0  0  0  0  0  0  0  0  0  0  0  0
   -9.5195   18.9224  -32.8759 H   0  0  0  0  0  0  0  0  0  0  0  0
   -6.9612   17.8420  -31.2872 H   0  0  0  0  0  0  0  0  0  0  0  0
   -5.3205   16.0693  -31.1275 H   0  0  0  0  0  0  0  0  0  0  0  0
   -5.9067   15.0630  -32.4951 H   0  0  0  0  0  0  0  0  0  0  0  0
   -4.2213   15.6844  -32.4951 H   0  0  0  0  0  0  0  0  0  0  0  0
   -5.2452   18.7398  -35.8435 H   0  0  0  0  0  0  0  0  0  0  0  0
   -5.4879   20.5642  -31.2366 H   0  0  0  0  0  0  0  0  0  0  0  0
   -3.6865   25.1323  -27.5643 H   0  0  0  0  0  0  0  0  0  0  0  0
  1  2  1  0
  2  3  2  0
  3  4  1  0
  4  5  2  0
  5  6  1  0
  6  7  1  0
  7  8  2  0
  7  9  1  0
  9 10  1  0
 10 11  2  0
 11 12  1  0
 12 13  2  0
 13 14  1  0
 14 15  1  0
 15 16  1  0
 15 17  1  0
 17 18  2  0
 18 19  1  0
 19 20  1  0
 19 21  2  0
 21 22  1  0
 22 23  2  0
 14 24  2  0
  6 25  2  0
 25  2  1  0
 24 10  1  0
 23 17  1  0
  1 26  1  0
  1 27  1  0
  1 28  1  0
  3 29  1  0
  4 30  1  0
  5 31  1  0
  9 32  1  0
 11 33  1  0
 12 34  1  0
 13 35  1  0
 16 36  1  0
 16 37  1  0
 16 38  1  0
 18 39  1  0
 20 40  1  0
 20 41  1  0
 20 42  1  0
 22 43  1  0
 24 44  1  0
 25 45  1  0
M  END
>  <UniqueID>  (8) 
7

>  <SMILES>  (8) 
Cc1cccc(C(=O)Nc2cccc(N(C)c3cc(C)ncn3)c2)c1

>  <Energy>  (8) 
58.85569690557938

>  <Genealogy>  (8) 
Cc1cccc(C(=O)Nc2cccc(N(C)c3cc(C)ncn3)c2)c1 (3D coordinates assigned)
Cc1cccc(C(=O)Nc2cccc(N(C)c3cc(C)ncn3)c2)c1 (optimized conformer: 58.85569690557938 kcal/mol)

>  <smiles>  (8) 
Cc1cccc(C(=O)Nc2cccc(N(C)c3cc(C)ncn3)c2)c1

>  <score_type>  (8) 
oracle

>  <origin>  (8) 
adgpu

>  <m_score__min__energy>  (8) 
-8.6999999999999993

>  <m_primary>  (8) 
energy

$$$$
8:0
     RDKit          3D

 39 41  0  0  0  0  0  0  0  0999 V2000
   -0.2910   28.9810  -24.9070 C   0  0  0  0  0  0  0  0  0  0  0  0
   -1.2410   27.9300  -24.7670 O   0  0  0  0  0  0  0  0  0  0  0  0
   -1.0930   26.6480  -25.3170 C   0  0  0  0  0  0  0  0  0  0  0  0
   -0.7800   25.5900  -24.4560 C   0  0  0  0  0  0  0  0  0  0  0  0
   -0.6220   24.2960  -24.9540 C   0  0  0  0  0  0  0  0  0  0  0  0
   -0.7740   24.0450  -26.3180 C   0  0  0  0  0  0  0  0  0  0  0  0
   -1.0880   25.0900  -27.2050 C   0  0  0  0  0  0  0  0  0  0  0  0
   -1.2470   24.8250  -28.6560 C   0  0  0  0  0  0  0  0  0  0  0  0
   -0.3350   24.2300  -29.2900 O   0  0  0  0  0  0  0  0  0  0  0  0
   -2.4160   25.2910  -29.3450 N   0  0  0  0  0  0  0  0  0  0  0  0
   -3.4980   24.4860  -29.8370 C   0  0  0  0  0  0  0  0  0  0  0  0
   -4.8350   24.9150  -29.7760 C   0  0  0  0  0  0  0  0  0  0  0  0
   -5.8580   24.1100  -30.2880 C   0  0  0  0  0  0  0  0  0  0  0  0
   -5.5620   22.8690  -30.8810 C   0  0  0  0  0  0  0  0  0  0  0  0
   -6.6490   22.0140  -31.4230 C   0  0  0  0  0  0  0  0  0  0  0  0
   -6.3460   20.8880  -32.2130 C   0  0  0  0  0  0  0  0  0  0  0  0
   -7.3710   20.0850  -32.7230 C   0  0  0  0  0  0  0  0  0  0  0  0
   -8.7050   20.3930  -32.4500 C   0  0  0  0  0  0  0  0  0  0  0  0
   -9.0180   21.5060  -31.6680 C   0  0  0  0  0  0  0  0  0  0  0  0
   -7.9980   22.3140  -31.1560 C   0  0  0  0  0  0  0  0  0  0  0  0
   -4.2200   22.4580  -30.9610 C   0  0  0  0  0  0  0  0  0  0  0  0
   -3.1990   23.2640  -30.4490 C   0  0  0  0  0  0  0  0  0  0  0  0
   -1.2460   26.3930  -26.6940 C   0  0  0  0  0  0  0  0  0  0  0  0
    0.0221   29.3274  -23.9110 H   0  0  0  0  0  0  0  0  0  0  0  0
    0.5858   28.6116  -25.4591 H   0  0  0  0  0  0  0  0  0  0  0  0
   -0.7468   29.8161  -25.4591 H   0  0  0  0  0  0  0  0  0  0  0  0
   -0.6577   25.7797  -23.3794 H   0  0  0  0  0  0  0  0  0  0  0  0
   -0.3768   23.4711  -24.2688 H   0  0  0  0  0  0  0  0  0  0  0  0
   -0.6473   23.0222  -26.7024 H   0  0  0  0  0  0  0  0  0  0  0  0
   -5.0780   25.8878  -29.3237 H   0  0  0  0  0  0  0  0  0  0  0  0
   -6.9023   24.4500  -30.2265 H   0  0  0  0  0  0  0  0  0  0  0  0
   -5.2968   20.6388  -32.4301 H   0  0  0  0  0  0  0  0  0  0  0  0
   -7.1256   19.2086  -33.3408 H   0  0  0  0  0  0  0  0  0  0  0  0
   -9.5092   19.7587  -32.8511 H   0  0  0  0  0  0  0  0  0  0  0  0
  -10.0695   21.7481  -31.4540 H   0  0  0  0  0  0  0  0  0  0  0  0
   -8.2516   23.1898  -30.5406 H   0  0  0  0  0  0  0  0  0  0  0  0
   -3.9714   21.4946  -31.4302 H   0  0  0  0  0  0  0  0  0  0  0  0
   -2.1524   22.9348  -30.5279 H   0  0  0  0  0  0  0  0  0  0  0  0
   -1.4913   27.2197  -27.3769 H   0  0  0  0  0  0  0  0  0  0  0  0
  1  2  1  0
  2  3  1  0
  3  4  2  0
  4  5  1  0
  5  6  2  0
  6  7  1  0
  7  8  1  0
  8  9  2  0
  8 10  1  0
 10 11  1  0
 11 12  2  0
 12 13  1  0
 13 14  2  0
 14 15  1  0
 15 16  2  0
 16 17  1  0
 17 18  2  0
 18 19  1  0
 19 20  2  0
 14 21  1  0
 21 22  2  0
  7 23  2  0
 23  3  1  0
 22 11  1  0
 20 15  1  0
  1 24  1  0
  1 25  1  0
  1 26  1  0
  4 27  1  0
  5 28  1  0
  6 29  1  0
 12 30  1  0
 13 31  1  0
 16 32  1  0
 17 33  1  0
 18 34  1  0
 19 35  1  0
 20 36  1  0
 21 37  1  0
 22 38  1  0
 23 39  1  0
M  CHG  1  10  -1
M  END
>  <UniqueID>  (9) 
8

>  <SMILES>  (9) 
COc1cccc(C(=O)[N-]c2ccc(-c3ccccc3)cc2)c1

>  <Energy>  (9) 
50.94515818774378

>  <Genealogy>  (9) 
COc1cccc(C(=O)[N-]c2ccc(-c3ccccc3)cc2)c1 (protonated)
COc1cccc(C(=O)[N-]c2ccc(-c3ccccc3)cc2)c1 (3D coordinates assigned)
COc1cccc(C(=O)[N-]c2ccc(-c3ccccc3)cc2)c1 (optimized conformer: 50.94515818774378 kcal/mol)

>  <smiles>  (9) 
COc1cccc(C(=O)Nc2ccc(-c3ccccc3)cc2)c1

>  <score_type>  (9) 
oracle

>  <origin>  (9) 
adgpu

>  <m_score__min__energy>  (9) 
-10.02

>  <m_primary>  (9) 
energy

$$$$
9:0
     RDKit          3D

 40 42  0  0  0  0  0  0  0  0999 V2000
    1.0340   24.3760  -26.8340 C   0  0  0  0  0  0  0  0  0  0  0  0
    0.7700   24.4680  -28.2310 O   0  0  0  0  0  0  0  0  0  0  0  0
   -0.4600   24.1500  -28.8260 C   0  0  0  0  0  0  0  0  0  0  0  0
   -1.6250   24.9090  -28.6070 C   0  0  0  0  0  0  0  0  0  0  0  0
   -2.8270   24.5520  -29.2240 C   0  0  0  0  0  0  0  0  0  0  0  0
   -2.8870   23.4360  -30.0780 C   0  0  0  0  0  0  0  0  0  0  0  0
   -4.1190   23.0470  -30.7160 N   0  0  0  0  0  0  0  0  0  0  0  0
   -4.9830   23.9060  -31.2390 N   0  0  0  0  0  0  0  0  0  0  0  0
   -6.0070   23.1720  -31.7260 C   0  0  0  0  0  0  0  0  0  0  0  0
   -7.1870   23.7750  -32.4200 C   0  0  0  0  0  0  0  0  0  0  0  0
   -5.8230   21.8490  -31.5020 N   0  0  0  0  0  0  0  0  0  0  0  0
   -6.6660   20.7430  -31.8560 C   0  0  0  0  0  0  0  0  0  0  0  0
   -7.9380   20.6280  -31.2730 C   0  0  0  0  0  0  0  0  0  0  0  0
   -8.7700   19.5550  -31.5970 C   0  0  0  0  0  0  0  0  0  0  0  0
   -8.3420   18.5900  -32.5100 C   0  0  0  0  0  0  0  0  0  0  0  0
   -7.0850   18.7010  -33.1100 C   0  0  0  0  0  0  0  0  0  0  0  0
   -6.2390   19.7840  -32.7960 C   0  0  0  0  0  0  0  0  0  0  0  0
   -4.9850   19.9480  -33.4080 O   0  0  0  0  0  0  0  0  0  0  0  0
   -3.8510   19.1260  -33.1580 C   0  0  0  0  0  0  0  0  0  0  0  0
   -4.6320   21.8090  -30.8760 C   0  0  0  0  0  0  0  0  0  0  0  0
   -4.0980   20.7490  -30.4480 O   0  0  0  0  0  0  0  0  0  0  0  0
   -1.7250   22.6740  -30.2820 C   0  0  0  0  0  0  0  0  0  0  0  0
   -0.5240   23.0310  -29.6650 C   0  0  0  0  0  0  0  0  0  0  0  0
    0.1417   24.6870  -26.2710 H   0  0  0  0  0  0  0  0  0  0  0  0
    1.2865   23.3369  -26.5762 H   0  0  0  0  0  0  0  0  0  0  0  0
    1.8776   25.0331  -26.5762 H   0  0  0  0  0  0  0  0  0  0  0  0
   -1.5891   25.7880  -27.9466 H   0  0  0  0  0  0  0  0  0  0  0  0
   -3.7330   25.1482  -29.0404 H   0  0  0  0  0  0  0  0  0  0  0  0
   -7.9047   24.1417  -31.6714 H   0  0  0  0  0  0  0  0  0  0  0  0
   -6.8533   24.6131  -33.0495 H   0  0  0  0  0  0  0  0  0  0  0  0
   -7.6707   23.0136  -33.0495 H   0  0  0  0  0  0  0  0  0  0  0  0
   -8.2812   21.3885  -30.5562 H   0  0  0  0  0  0  0  0  0  0  0  0
   -9.7635   19.4700  -31.1325 H   0  0  0  0  0  0  0  0  0  0  0  0
   -8.9955   17.7405  -32.7577 H   0  0  0  0  0  0  0  0  0  0  0  0
   -6.7538   17.9393  -33.8312 H   0  0  0  0  0  0  0  0  0  0  0  0
   -3.7063   19.0211  -32.0726 H   0  0  0  0  0  0  0  0  0  0  0  0
   -4.0121   18.1335  -33.6040 H   0  0  0  0  0  0  0  0  0  0  0  0
   -2.9578   19.5879  -33.6040 H   0  0  0  0  0  0  0  0  0  0  0  0
   -1.7611   21.7883  -30.9334 H   0  0  0  0  0  0  0  0  0  0  0  0
    0.3792   22.4279  -29.8397 H   0  0  0  0  0  0  0  0  0  0  0  0
  1  2  1  0
  2  3  1  0
  3  4  2  0
  4  5  1  0
  5  6  2  0
  6  7  1  0
  7  8  1  0
  8  9  2  0
  9 10  1  0
  9 11  1  0
 11 12  1  0
 12 13  2  0
 13 14  1  0
 14 15  2  0
 15 16  1  0
 16 17  2  0
 17 18  1  0
 18 19  1  0
 11 20  1  0
 20 21  2  0
  6 22  1  0
 22 23  2  0
 23  3  1  0
 20  7  1  0
 17 12  1  0
  1 24  1  0
  1 25  1  0
  1 26  1  0
  4 27  1  0
  5 28  1  0
 10 29  1  0
 10 30  1  0
 10 31  1  0
 13 32  1  0
 14 33  1  0
 15 34  1  0
 16 35  1  0
 19 36  1  0
 19 37  1  0
 19 38  1  0
 22 39  1  0
 23 40  1  0
M  END
>  <UniqueID>  (10) 
9

>  <SMILES>  (10) 
COc1ccc(-n2nc(C)n(-c3ccccc3OC)c2=O)cc1

>  <Energy>  (10) 
88.1621864571884

>  <Genealogy>  (10) 
COc1ccc(-n2nc(C)n(-c3ccccc3OC)c2=O)cc1 (3D coordinates assigned)
COc1ccc(-n2nc(C)n(-c3ccccc3OC)c2=O)cc1 (optimized conformer: 88.1621864571884 kcal/mol)

>  <smiles>  (10) 
COc1ccc(-n2nc(C)n(-c3ccccc3OC)c2=O)cc1

>  <score_type>  (10) 
oracle

>  <origin>  (10) 
adgpu

>  <m_score__min__energy>  (10) 
-6.9800000000000004

>  <m_primary>  (10) 
energy

$$$$
10:0
     RDKit          3D

 32 34  0  0  0  0  0  0  0  0999 V2000
   -6.5313   25.4624  -31.3523 H   0  0  0  0  0  0  0  0  0  0  0  0
   -5.5220   25.1690  -31.0280 C   0  0  0  0  0  0  0  0  0  0  0  0
   -4.6130   25.9900  -30.4700 N   0  0  0  0  0  0  0  0  0  0  0  0
   -3.5180   25.2930  -30.2070 N   0  0  0  0  0  0  0  0  0  0  0  0
   -3.7150   24.0200  -30.5970 C   0  0  0  0  0  0  0  0  0  0  0  0
   -2.9813   23.2054  -30.5069 H   0  0  0  0  0  0  0  0  0  0  0  0
   -4.9860   23.8980  -31.1290 C   0  0  0  0  0  0  0  0  0  0  0  0
   -5.6310   22.6780  -31.6810 C   0  0  0  0  0  0  0  0  0  0  0  0
   -6.9970   22.4230  -31.4560 C   0  0  0  0  0  0  0  0  0  0  0  0
   -7.5939   23.1341  -30.8661 H   0  0  0  0  0  0  0  0  0  0  0  0
   -7.6020   21.2750  -31.9750 C   0  0  0  0  0  0  0  0  0  0  0  0
   -8.6675   21.0840  -31.7794 H   0  0  0  0  0  0  0  0  0  0  0  0
   -6.8640   20.3670  -32.7410 C   0  0  0  0  0  0  0  0  0  0  0  0
   -7.5210   19.1920  -33.2380 N   0  0  0  0  0  0  0  0  0  0  0  0
   -7.9150   18.0500  -32.4700 C   0  0  0  0  0  0  0  0  0  0  0  0
   -8.5850   18.1950  -31.4120 O   0  0  0  0  0  0  0  0  0  0  0  0
   -7.4090   16.7610  -32.8450 N   0  0  0  0  0  0  0  0  0  0  0  0
   -6.3230   16.4750  -33.5090 C   0  0  0  0  0  0  0  0  0  0  0  0
   -6.0890   15.1370  -33.8550 C   0  0  0  0  0  0  0  0  0  0  0  0
   -6.8113   14.3590  -33.5669 H   0  0  0  0  0  0  0  0  0  0  0  0
   -4.9390   14.7940  -34.5650 C   0  0  0  0  0  0  0  0  0  0  0  0
   -4.7568   13.7467  -34.8479 H   0  0  0  0  0  0  0  0  0  0  0  0
   -4.0210   15.7830  -34.9150 C   0  0  0  0  0  0  0  0  0  0  0  0
   -2.5670   15.3680  -35.8040 Cl  0  0  0  0  0  0  0  0  0  0  0  0
   -4.2650   17.1050  -34.5370 C   0  0  0  0  0  0  0  0  0  0  0  0
   -3.5425   17.8914  -34.8007 H   0  0  0  0  0  0  0  0  0  0  0  0
   -5.3920   17.4260  -33.8440 N   0  0  0  0  0  0  0  0  0  0  0  0
   -5.4920   18.4190  -33.5460 H   0  0  0  0  0  0  0  0  0  0  0  0
   -5.4950   20.6020  -32.9510 C   0  0  0  0  0  0  0  0  0  0  0  0
   -4.8981   19.8800  -33.5275 H   0  0  0  0  0  0  0  0  0  0  0  0
   -4.8870   21.7490  -32.4310 C   0  0  0  0  0  0  0  0  0  0  0  0
   -3.8163   21.9266  -32.6102 H   0  0  0  0  0  0  0  0  0  0  0  0
  1  2  1  0
  2  3  2  0
  3  4  1  0
  4  5  1  0
  5  6  1  0
  5  7  2  0
  7  8  1  0
  8  9  2  0
  9 10  1  0
  9 11  1  0
 11 12  1  0
 11 13  2  0
 13 14  1  0
 14 15  1  0
 15 16  2  0
 15 17  1  0
 17 18  2  0
 18 19  1  0
 19 20  1  0
 19 21  2  0
 21 22  1  0
 21 23  1  0
 23 24  1  0
 23 25  2  0
 25 26  1  0
 25 27  1  0
 27 28  1  0
 13 29  1  0
 29 30  1  0
 29 31  2  0
 31 32  1  0
  7  2  1  0
 31  8  1  0
 27 18  1  0
M  CHG  2   4  -1  14  -1
M  END
>  <UniqueID>  (11) 
10

>  <SMILES>  (11) 
O=C(/N=c1/ccc(Cl)c[nH]1)[N-]c1ccc(-c2cn[n-]c2)cc1

>  <Energy>  (11) 
77.15206906435854

>  <Genealogy>  (11) 
O=C(N=c1ccc(Cl)c[nH]1)[N-]c1ccc(-c2cn[n-]c2)cc1 (protonated)
O=C(/N=c1/ccc(Cl)c[nH]1)[N-]c1ccc(-c2cn[n-]c2)cc1 (cis-trans isomerization)
O=C(/N=c1/ccc(Cl)c[nH]1)[N-]c1ccc(-c2cn[n-]c2)cc1 (3D coordinates assigned)
O=C(/N=c1/ccc(Cl)c[nH]1)[N-]c1ccc(-c2cn[n-]c2)cc1 (optimized conformer: 77.15206906435854 kcal/mol)

>  <smiles>  (11) 
O=C(N=c1ccc(Cl)c[nH]1)Nc1ccc(-c2cn[nH]c2)cc1

>  <score_type>  (11) 
oracle

>  <origin>  (11) 
adgpu

>  <m_score__min__energy>  (11) 
-9.8599999999999994

>  <m_primary>  (11) 
energy

$$$$
11:0
     RDKit          3D

 27 28  0  0  0  0  0  0  0  0999 V2000
   -8.4900   22.2690  -31.6030 C   0  0  0  0  0  0  0  0  0  0  0  0
   -7.5150   23.2610  -30.9820 C   0  0  0  0  0  0  0  0  0  0  0  0
   -6.1590   23.0150  -31.4720 N   0  0  0  0  0  0  0  0  0  0  0  0
   -5.7690   22.0520  -32.3260 C   0  0  0  0  0  0  0  0  0  0  0  0
   -4.4330   22.0690  -32.4990 N   0  0  0  0  0  0  0  0  0  0  0  0
   -3.9530   23.0460  -31.7410 N   0  0  0  0  0  0  0  0  0  0  0  0
   -5.0030   23.6090  -31.1140 C   0  0  0  0  0  0  0  0  0  0  0  0
   -4.8800   24.7720  -30.1740 C   0  0  0  0  0  0  0  0  0  0  0  0
   -3.5150   25.2920  -30.1700 N   0  0  0  0  0  0  0  0  0  0  0  0
   -2.4370   24.8390  -29.3390 C   0  0  0  0  0  0  0  0  0  0  0  0
   -1.5970   25.6830  -28.9270 O   0  0  0  0  0  0  0  0  0  0  0  0
   -2.2520   23.4240  -28.9790 C   0  0  0  0  0  0  0  0  0  0  0  0
   -1.4460   22.4970  -29.6330 C   0  0  0  0  0  0  0  0  0  0  0  0
   -1.5170   21.2130  -29.0790 C   0  0  0  0  0  0  0  0  0  0  0  0
   -2.3890   21.1330  -28.0030 C   0  0  0  0  0  0  0  0  0  0  0  0
   -2.7430   19.6880  -27.0800 Cl  0  0  0  0  0  0  0  0  0  0  0  0
   -3.0780   22.6410  -27.7380 S   0  0  0  0  0  0  0  0  0  0  0  0
   -9.0211   21.7287  -30.8055 H   0  0  0  0  0  0  0  0  0  0  0  0
   -9.2171   22.8106  -32.2260 H   0  0  0  0  0  0  0  0  0  0  0  0
   -7.9360   21.5514  -32.2260 H   0  0  0  0  0  0  0  0  0  0  0  0
   -7.8178   24.2838  -31.2505 H   0  0  0  0  0  0  0  0  0  0  0  0
   -7.5280   23.1387  -29.8889 H   0  0  0  0  0  0  0  0  0  0  0  0
   -6.4512   21.3435  -32.8186 H   0  0  0  0  0  0  0  0  0  0  0  0
   -5.5686   25.5683  -30.4931 H   0  0  0  0  0  0  0  0  0  0  0  0
   -5.1318   24.4332  -29.1582 H   0  0  0  0  0  0  0  0  0  0  0  0
   -0.8158   22.7480  -30.4990 H   0  0  0  0  0  0  0  0  0  0  0  0
   -0.9407   20.3561  -29.4579 H   0  0  0  0  0  0  0  0  0  0  0  0
  1  2  1  0
  2  3  1  0
  3  4  1  0
  4  5  2  0
  5  6  1  0
  6  7  2  0
  7  8  1  0
  8  9  1  0
  9 10  1  0
 10 11  2  0
 10 12  1  0
 12 13  2  0
 13 14  1  0
 14 15  2  0
 15 16  1  0
 15 17  1  0
  7  3  1  0
 17 12  1  0
  1 18  1  0
  1 19  1  0
  1 20  1  0
  2 21  1  0
  2 22  1  0
  4 23  1  0
  8 24  1  0
  8 25  1  0
 13 26  1  0
 14 27  1  0
M  CHG  1   9  -1
M  END
>  <UniqueID>  (12) 
11

>  <SMILES>  (12) 
CCn1cnnc1C[N-]C(=O)c1ccc(Cl)s1

>  <Energy>  (12) 
85.47591683356872

>  <Genealogy>  (12) 
CCn1cnnc1C[N-]C(=O)c1ccc(Cl)s1 (protonated)
CCn1cnnc1C[N-]C(=O)c1ccc(Cl)s1 (3D coordinates assigned)
CCn1cnnc1C[N-]C(=O)c1ccc(Cl)s1 (optimized conformer: 85.47591683356872 kcal/mol)

>  <smiles>  (12) 
CCn1cnnc1CNC(=O)c1ccc(Cl)s1

>  <score_type>  (12) 
oracle

>  <origin>  (12) 
adgpu

>  <m_score__min__energy>  (12) 
-8.5299999999999994

>  <m_primary>  (12) 
energy

$$$$
12:0
     RDKit          3D

 30 31  0  0  0  0  0  0  0  0999 V2000
   -2.7940   24.5350  -29.3900 C   0  0  0  0  0  0  0  0  0  0  0  0
   -3.6650   24.8840  -30.4610 O   0  0  0  0  0  0  0  0  0  0  0  0
   -4.8210   24.1690  -30.8070 C   0  0  0  0  0  0  0  0  0  0  0  0
   -6.0620   24.7640  -30.5880 C   0  0  0  0  0  0  0  0  0  0  0  0
   -7.2330   24.0800  -30.9210 C   0  0  0  0  0  0  0  0  0  0  0  0
   -7.1830   22.8220  -31.4640 N   0  0  0  0  0  0  0  0  0  0  0  0
   -8.3360   22.1500  -31.7910 C   0  0  0  0  0  0  0  0  0  0  0  0
   -9.4680   22.6730  -31.6010 O   0  0  0  0  0  0  0  0  0  0  0  0
   -8.2720   20.8700  -32.3420 C   0  0  0  0  0  0  0  0  0  0  0  0
   -7.0210   20.2820  -32.5570 C   0  0  0  0  0  0  0  0  0  0  0  0
   -6.8830   18.8990  -33.1500 C   0  0  0  0  0  0  0  0  0  0  0  0
   -5.6710   18.8150  -34.0850 C   0  0  0  0  0  0  0  0  0  0  0  0
   -6.8120   17.8300  -32.0530 C   0  0  0  0  0  0  0  0  0  0  0  0
   -5.9010   20.9730  -32.2220 N   0  0  0  0  0  0  0  0  0  0  0  0
   -5.9630   22.2200  -31.6860 C   0  0  0  0  0  0  0  0  0  0  0  0
   -4.7730   22.8810  -31.3610 C   0  0  0  0  0  0  0  0  0  0  0  0
   -3.2938   24.7353  -28.4308 H   0  0  0  0  0  0  0  0  0  0  0  0
   -2.5417   23.4664  -29.4559 H   0  0  0  0  0  0  0  0  0  0  0  0
   -1.8736   25.1338  -29.4559 H   0  0  0  0  0  0  0  0  0  0  0  0
   -6.1191   25.7726  -30.1528 H   0  0  0  0  0  0  0  0  0  0  0  0
   -8.2086   24.5568  -30.7453 H   0  0  0  0  0  0  0  0  0  0  0  0
   -9.1937   20.3298  -32.6041 H   0  0  0  0  0  0  0  0  0  0  0  0
   -7.7829   18.7019  -33.7511 H   0  0  0  0  0  0  0  0  0  0  0  0
   -4.7501   18.7512  -33.4868 H   0  0  0  0  0  0  0  0  0  0  0  0
   -5.7587   17.9208  -34.7196 H   0  0  0  0  0  0  0  0  0  0  0  0
   -5.6345   19.7128  -34.7196 H   0  0  0  0  0  0  0  0  0  0  0  0
   -6.8442   18.3147  -31.0661 H   0  0  0  0  0  0  0  0  0  0  0  0
   -7.6666   17.1447  -32.1530 H   0  0  0  0  0  0  0  0  0  0  0  0
   -5.8743   17.2637  -32.1530 H   0  0  0  0  0  0  0  0  0  0  0  0
   -3.8037   22.3925  -31.5393 H   0  0  0  0  0  0  0  0  0  0  0  0
  1  2  1  0
  2  3  1  0
  3  4  1  0
  4  5  2  0
  5  6  1  0
  6  7  1  0
  7  8  2  0
  7  9  1  0
  9 10  2  0
 10 11  1  0
 11 12  1  0
 11 13  1  0
 10 14  1  0
 14 15  2  0
 15 16  1  0
 16  3  2  0
 15  6  1  0
  1 17  1  0
  1 18  1  0
  1 19  1  0
  4 20  1  0
  5 21  1  0
  9 22  1  0
 11 23  1  0
 12 24  1  0
 12 25  1  0
 12 26  1  0
 13 27  1  0
 13 28  1  0
 13 29  1  0
 16 30  1  0
M  END
>  <UniqueID>  (13) 
12

>  <SMILES>  (13) 
COc1ccn2c(=O)cc(C(C)C)nc2c1

>  <Energy>  (13) 
30.84476035216416

>  <Genealogy>  (13) 
COc1ccn2c(=O)cc(C(C)C)nc2c1 (3D coordinates assigned)
COc1ccn2c(=O)cc(C(C)C)nc2c1 (optimized conformer: 30.84476035216416 kcal/mol)

>  <smiles>  (13) 
COc1ccn2c(=O)cc(C(C)C)nc2c1

>  <score_type>  (13) 
oracle

>  <origin>  (13) 
adgpu

>  <m_score__min__energy>  (13) 
-6.7599999999999998

>  <m_primary>  (13) 
energy

$$$$
13:0
     RDKit          3D

 41 43  0  0  0  0  0  0  0  0999 V2000
   -8.4403   22.3374  -32.6978 H   0  0  0  0  0  0  0  0  0  0  0  0
   -7.5670   22.8270  -32.2420 C   0  0  0  0  0  0  0  0  0  0  0  0
   -7.7470   23.8030  -31.2570 C   0  0  0  0  0  0  0  0  0  0  0  0
   -8.7621   24.0755  -30.9326 H   0  0  0  0  0  0  0  0  0  0  0  0
   -6.6380   24.4330  -30.6840 C   0  0  0  0  0  0  0  0  0  0  0  0
   -6.7829   25.1865  -29.8958 H   0  0  0  0  0  0  0  0  0  0  0  0
   -5.3440   24.1090  -31.1090 C   0  0  0  0  0  0  0  0  0  0  0  0
   -4.2200   24.7280  -30.4640 N   0  0  0  0  0  0  0  0  0  0  0  0
   -3.1990   24.1320  -29.9150 C   0  0  0  0  0  0  0  0  0  0  0  0
   -2.2850   24.8890  -29.2590 N   0  0  0  0  0  0  0  0  0  0  0  0
   -1.1980   24.3170  -28.6780 C   0  0  0  0  0  0  0  0  0  0  0  0
   -0.3200   25.0350  -28.0430 N   0  0  0  0  0  0  0  0  0  0  0  0
   -0.3940   26.4850  -27.8650 C   0  0  0  0  0  0  0  0  0  0  0  0
   -1.0998   26.9029  -28.5980 H   0  0  0  0  0  0  0  0  0  0  0  0
    0.6094   26.9104  -28.0143 H   0  0  0  0  0  0  0  0  0  0  0  0
   -0.8690   26.8340  -26.4580 C   0  0  0  0  0  0  0  0  0  0  0  0
   -0.2123   26.3515  -25.7191 H   0  0  0  0  0  0  0  0  0  0  0  0
   -0.8368   27.9249  -26.3202 H   0  0  0  0  0  0  0  0  0  0  0  0
   -1.9004   26.4773  -26.3202 H   0  0  0  0  0  0  0  0  0  0  0  0
   -1.0220   22.9770  -28.7650 N   0  0  0  0  0  0  0  0  0  0  0  0
   -1.9220   22.2020  -29.4260 C   0  0  0  0  0  0  0  0  0  0  0  0
   -1.7420   20.9160  -29.5460 N   0  0  0  0  0  0  0  0  0  0  0  0
   -0.6910   20.1330  -28.9540 C   0  0  0  0  0  0  0  0  0  0  0  0
    0.6360   20.4290  -29.2900 C   0  0  0  0  0  0  0  0  0  0  0  0
    0.8538   21.2626  -29.9738 H   0  0  0  0  0  0  0  0  0  0  0  0
    1.6850   19.6720  -28.7620 C   0  0  0  0  0  0  0  0  0  0  0  0
    2.7252   19.9219  -29.0181 H   0  0  0  0  0  0  0  0  0  0  0  0
    1.4160   18.5990  -27.9100 C   0  0  0  0  0  0  0  0  0  0  0  0
    2.2453   18.0118  -27.4887 H   0  0  0  0  0  0  0  0  0  0  0  0
    0.0920   18.2680  -27.5900 C   0  0  0  0  0  0  0  0  0  0  0  0
   -0.1850   17.1540  -26.7380 N   0  0  0  0  0  0  0  0  0  0  0  0
   -1.1420   17.0040  -26.3470 H   0  0  0  0  0  0  0  0  0  0  0  0
    0.5650   16.4720  -26.4890 H   0  0  0  0  0  0  0  0  0  0  0  0
   -0.9600   19.0290  -28.1210 C   0  0  0  0  0  0  0  0  0  0  0  0
   -2.0009   18.7623  -27.8857 H   0  0  0  0  0  0  0  0  0  0  0  0
   -3.0030   22.7830  -30.0150 N   0  0  0  0  0  0  0  0  0  0  0  0
   -3.6500   22.1780  -30.5700 H   0  0  0  0  0  0  0  0  0  0  0  0
   -5.1670   23.1030  -32.0750 C   0  0  0  0  0  0  0  0  0  0  0  0
   -4.1521   22.8098  -32.3818 H   0  0  0  0  0  0  0  0  0  0  0  0
   -6.2770   22.4740  -32.6470 C   0  0  0  0  0  0  0  0  0  0  0  0
   -6.1347   21.7008  -33.4163 H   0  0  0  0  0  0  0  0  0  0  0  0
  1  2  1  0
  2  3  2  0
  3  4  1  0
  3  5  1  0
  5  6  1  0
  5  7  2  0
  7  8  1  0
  8  9  2  3
  9 10  1  0
 10 11  1  0
 11 12  2  0
 12 13  1  0
 13 14  1  0
 13 15  1  0
 13 16  1  0
 16 17  1  0
 16 18  1  0
 16 19  1  0
 11 20  1  0
 20 21  1  0
 21 22  2  0
 22 23  1  0
 23 24  2  0
 24 25  1  0
 24 26  1  0
 26 27  1  0
 26 28  2  0
 28 29  1  0
 28 30  1  0
 30 31  1  0
 31 32  1  0
 31 33  1  0
 30 34  2  0
 34 35  1  0
 21 36  1  0
 36 37  1  0
  7 38  1  0
 38 39  1  0
 38 40  2  0
 40 41  1  0
 40  2  1  0
 36  9  1  0
 34 23  1  0
M  CHG  2  10  -1  20  -1
M  END
>  <UniqueID>  (14) 
13

>  <SMILES>  (14) 
CC/N=c1\[n-]c(=Nc2ccccc2)[nH]/c(=N/c2cccc(N)c2)[n-]1

>  <Energy>  (14) 
55.17630343995314

>  <Genealogy>  (14) 
CCN=c1[n-]c(=Nc2ccccc2)[nH]c(=Nc2cccc(N)c2)[n-]1 (protonated)
CC/N=c1\[n-]c(=Nc2ccccc2)[nH]/c(=N/c2cccc(N)c2)[n-]1 (cis-trans isomerization)
CC/N=c1\[n-]c(=Nc2ccccc2)[nH]/c(=N/c2cccc(N)c2)[n-]1 (3D coordinates assigned)
CC/N=c1\[n-]c(=Nc2ccccc2)[nH]/c(=N/c2cccc(N)c2)[n-]1 (optimized conformer: 55.17630343995314 kcal/mol)

>  <smiles>  (14) 
CCN=c1[nH]c(=Nc2ccccc2)[nH]c(=Nc2cccc(N)c2)[nH]1

>  <score_type>  (14) 
oracle

>  <origin>  (14) 
adgpu

>  <m_score__min__energy>  (14) 
-8.9900000000000002

>  <m_primary>  (14) 
energy

$$$$
14:0
     RDKit          3D

 32 33  0  0  0  0  0  0  0  0999 V2000
   -7.3640   17.8370  -31.9650 C   0  0  0  0  0  0  0  0  0  0  0  0
   -8.2290   18.9600  -32.4490 C   0  0  0  0  0  0  0  0  0  0  0  0
   -9.4770   18.8790  -32.2970 O   0  0  0  0  0  0  0  0  0  0  0  0
   -7.6780   20.1420  -33.0440 N   0  0  0  0  0  0  0  0  0  0  0  0
   -7.0540   21.2320  -32.3540 C   0  0  0  0  0  0  0  0  0  0  0  0
   -5.7190   21.5960  -32.6040 C   0  0  0  0  0  0  0  0  0  0  0  0
   -5.1490   22.6830  -31.9360 C   0  0  0  0  0  0  0  0  0  0  0  0
   -5.9090   23.4270  -31.0230 C   0  0  0  0  0  0  0  0  0  0  0  0
   -5.1940   24.7690  -30.1320 S   0  0  0  0  0  0  0  0  0  0  0  0
   -5.9260   26.0480  -30.4340 O   0  0  0  0  0  0  0  0  0  0  0  0
   -5.3130   24.4880  -28.6620 O   0  0  0  0  0  0  0  0  0  0  0  0
   -3.5090   24.9240  -30.5480 N   0  0  0  0  0  0  0  0  0  0  0  0
   -2.6640   24.0930  -29.6890 C   0  0  0  0  0  0  0  0  0  0  0  0
   -1.9370   24.9210  -28.6750 C   0  0  0  0  0  0  0  0  0  0  0  0
   -1.8330   24.6470  -27.3260 C   0  0  0  0  0  0  0  0  0  0  0  0
   -1.0720   25.6690  -26.7990 C   0  0  0  0  0  0  0  0  0  0  0  0
   -0.7690   26.5050  -27.8550 C   0  0  0  0  0  0  0  0  0  0  0  0
   -1.2990   26.0330  -28.9600 O   0  0  0  0  0  0  0  0  0  0  0  0
   -7.2470   23.0830  -30.7960 C   0  0  0  0  0  0  0  0  0  0  0  0
   -7.8180   21.9980  -31.4660 C   0  0  0  0  0  0  0  0  0  0  0  0
   -7.3567   17.8276  -30.8651 H   0  0  0  0  0  0  0  0  0  0  0  0
   -7.7615   16.8813  -32.3372 H   0  0  0  0  0  0  0  0  0  0  0  0
   -6.3385   17.9774  -32.3372 H   0  0  0  0  0  0  0  0  0  0  0  0
   -5.1212   21.0230  -33.3281 H   0  0  0  0  0  0  0  0  0  0  0  0
   -4.1006   22.9556  -32.1273 H   0  0  0  0  0  0  0  0  0  0  0  0
   -3.2959   23.3599  -29.1663 H   0  0  0  0  0  0  0  0  0  0  0  0
   -1.9199   23.5857  -30.3206 H   0  0  0  0  0  0  0  0  0  0  0  0
   -2.2662   23.7928  -26.7851 H   0  0  0  0  0  0  0  0  0  0  0  0
   -0.7678   25.7931  -25.7492 H   0  0  0  0  0  0  0  0  0  0  0  0
   -0.1736   27.4271  -27.7819 H   0  0  0  0  0  0  0  0  0  0  0  0
   -7.8509   23.6691  -30.0876 H   0  0  0  0  0  0  0  0  0  0  0  0
   -8.8745   21.7442  -31.2945 H   0  0  0  0  0  0  0  0  0  0  0  0
  1  2  1  0
  2  3  2  0
  2  4  1  0
  4  5  1  0
  5  6  2  0
  6  7  1  0
  7  8  2  0
  8  9  1  0
  9 10  2  0
  9 11  2  0
  9 12  1  0
 12 13  1  0
 13 14  1  0
 14 15  2  0
 15 16  1  0
 16 17  2  0
 17 18  1  0
  8 19  1  0
 19 20  2  0
 20  5  1  0
 18 14  1  0
  1 21  1  0
  1 22  1  0
  1 23  1  0
  6 24  1  0
  7 25  1  0
 13 26  1  0
 13 27  1  0
 15 28  1  0
 16 29  1  0
 17 30  1  0
 19 31  1  0
 20 32  1  0
M  CHG  2   4  -1  12  -1
M  END
>  <UniqueID>  (15) 
14

>  <SMILES>  (15) 
CC(=O)[N-]c1ccc(S(=O)(=O)[N-]Cc2ccco2)cc1

>  <Energy>  (15) 
56.82816270723819

>  <Genealogy>  (15) 
CC(=O)[N-]c1ccc(S(=O)(=O)[N-]Cc2ccco2)cc1 (protonated)
CC(=O)[N-]c1ccc(S(=O)(=O)[N-]Cc2ccco2)cc1 (3D coordinates assigned)
CC(=O)[N-]c1ccc(S(=O)(=O)[N-]Cc2ccco2)cc1 (optimized conformer: 56.82816270723819 kcal/mol)

>  <smiles>  (15) 
CC(=O)Nc1ccc(S(=O)(=O)NCc2ccco2)cc1

>  <score_type>  (15) 
oracle

>  <origin>  (15) 
adgpu

>  <m_score__min__energy>  (15) 
-9.4299999999999997

>  <m_primary>  (15) 
energy

$$$$
15:0
     RDKit          3D

 45 47  0  0  0  0  0  0  0  0999 V2000
    0.1520   21.6780  -27.8320 C   0  0  0  0  0  0  0  0  0  0  0  0
   -1.2140   22.1490  -26.7900 S   0  0  0  0  0  0  0  0  0  0  0  0
   -1.2550   21.2840  -25.5620 O   0  0  0  0  0  0  0  0  0  0  0  0
   -2.4780   21.9230  -27.5720 O   0  0  0  0  0  0  0  0  0  0  0  0
   -1.0870   23.8600  -26.3310 C   0  0  0  0  0  0  0  0  0  0  0  0
   -0.8550   24.1720  -24.9800 C   0  0  0  0  0  0  0  0  0  0  0  0
   -0.8330   25.4970  -24.5460 C   0  0  0  0  0  0  0  0  0  0  0  0
   -1.0510   26.5330  -25.4520 C   0  0  0  0  0  0  0  0  0  0  0  0
   -1.2790   26.2460  -26.7980 C   0  0  0  0  0  0  0  0  0  0  0  0
   -1.2830   24.9180  -27.2600 C   0  0  0  0  0  0  0  0  0  0  0  0
   -1.4820   24.6910  -28.7060 C   0  0  0  0  0  0  0  0  0  0  0  0
   -0.6260   24.0480  -29.3660 O   0  0  0  0  0  0  0  0  0  0  0  0
   -2.6020   25.2980  -29.3650 N   0  0  0  0  0  0  0  0  0  0  0  0
   -3.7640   24.6370  -29.8870 C   0  0  0  0  0  0  0  0  0  0  0  0
   -3.8140   23.2440  -30.0830 C   0  0  0  0  0  0  0  0  0  0  0  0
   -4.9750   22.6420  -30.5780 C   0  0  0  0  0  0  0  0  0  0  0  0
   -6.1050   23.4200  -30.8670 C   0  0  0  0  0  0  0  0  0  0  0  0
   -7.5790   22.6770  -31.4780 S   0  0  0  0  0  0  0  0  0  0  0  0
   -8.5380   23.7150  -31.9900 O   0  0  0  0  0  0  0  0  0  0  0  0
   -8.2390   21.9200  -30.3610 O   0  0  0  0  0  0  0  0  0  0  0  0
   -7.1900   21.5740  -32.7580 N   0  0  0  0  0  0  0  0  0  0  0  0
   -7.1090   20.1480  -32.6270 C   0  0  0  0  0  0  0  0  0  0  0  0
   -5.9190   19.5080  -32.9960 C   0  0  0  0  0  0  0  0  0  0  0  0
   -5.7940   18.1210  -32.8760 C   0  0  0  0  0  0  0  0  0  0  0  0
   -6.8600   17.3630  -32.3860 C   0  0  0  0  0  0  0  0  0  0  0  0
   -8.0520   17.9910  -32.0170 C   0  0  0  0  0  0  0  0  0  0  0  0
   -8.1800   19.3780  -32.1360 C   0  0  0  0  0  0  0  0  0  0  0  0
   -6.0660   24.8020  -30.6490 C   0  0  0  0  0  0  0  0  0  0  0  0
   -4.9040   25.4040  -30.1570 C   0  0  0  0  0  0  0  0  0  0  0  0
    1.0066   21.3833  -27.2053 H   0  0  0  0  0  0  0  0  0  0  0  0
   -0.1463   20.8308  -28.4671 H   0  0  0  0  0  0  0  0  0  0  0  0
    0.4392   22.5290  -28.4671 H   0  0  0  0  0  0  0  0  0  0  0  0
   -0.6887   23.3606  -24.2561 H   0  0  0  0  0  0  0  0  0  0  0  0
   -0.6432   25.7248  -23.4867 H   0  0  0  0  0  0  0  0  0  0  0  0
   -1.0433   27.5771  -25.1059 H   0  0  0  0  0  0  0  0  0  0  0  0
   -1.4578   27.0684  -27.5063 H   0  0  0  0  0  0  0  0  0  0  0  0
   -2.9355   22.6260  -29.8456 H   0  0  0  0  0  0  0  0  0  0  0  0
   -5.0018   21.5545  -30.7412 H   0  0  0  0  0  0  0  0  0  0  0  0
   -5.0771   20.1009  -33.3828 H   0  0  0  0  0  0  0  0  0  0  0  0
   -4.8558   17.6263  -33.1676 H   0  0  0  0  0  0  0  0  0  0  0  0
   -6.7609   16.2716  -32.2907 H   0  0  0  0  0  0  0  0  0  0  0  0
   -8.8913   17.3931  -31.6321 H   0  0  0  0  0  0  0  0  0  0  0  0
   -9.1204   19.8690  -31.8451 H   0  0  0  0  0  0  0  0  0  0  0  0
   -6.9524   25.4164  -30.8654 H   0  0  0  0  0  0  0  0  0  0  0  0
   -4.8851   26.4896  -29.9805 H   0  0  0  0  0  0  0  0  0  0  0  0
  1  2  1  0
  2  3  2  0
  2  4  2  0
  2  5  1  0
  5  6  2  0
  6  7  1  0
  7  8  2  0
  8  9  1  0
  9 10  2  0
 10 11  1  0
 11 12  2  0
 11 13  1  0
 13 14  1  0
 14 15  2  0
 15 16  1  0
 16 17  2  0
 17 18  1  0
 18 19  2  0
 18 20  2  0
 18 21  1  0
 21 22  1  0
 22 23  2  0
 23 24  1  0
 24 25  2  0
 25 26  1  0
 26 27  2  0
 17 28  1  0
 28 29  2  0
 10  5  1  0
 29 14  1  0
 27 22  1  0
  1 30  1  0
  1 31  1  0
  1 32  1  0
  6 33  1  0
  7 34  1  0
  8 35  1  0
  9 36  1  0
 15 37  1  0
 16 38  1  0
 23 39  1  0
 24 40  1  0
 25 41  1  0
 26 42  1  0
 27 43  1  0
 28 44  1  0
 29 45  1  0
M  CHG  2  13  -1  21  -1
M  END
>  <UniqueID>  (16) 
15

>  <SMILES>  (16) 
CS(=O)(=O)c1ccccc1C(=O)[N-]c1ccc(S(=O)(=O)[N-]c2ccccc2)cc1

>  <Energy>  (16) 
58.626054880355866

>  <Genealogy>  (16) 
CS(=O)(=O)c1ccccc1C(=O)[N-]c1ccc(S(=O)(=O)[N-]c2ccccc2)cc1 (protonated)
CS(=O)(=O)c1ccccc1C(=O)[N-]c1ccc(S(=O)(=O)[N-]c2ccccc2)cc1 (3D coordinates assigned)
CS(=O)(=O)c1ccccc1C(=O)[N-]c1ccc(S(=O)(=O)[N-]c2ccccc2)cc1 (optimized conformer: 58.626054880355866 kcal/mol)

>  <smiles>  (16) 
CS(=O)(=O)c1ccccc1C(=O)Nc1ccc(S(=O)(=O)Nc2ccccc2)cc1

>  <score_type>  (16) 
oracle

>  <origin>  (16) 
adgpu

>  <m_score__min__energy>  (16) 
-11.25

>  <m_primary>  (16) 
energy

$$$$
16:0
     RDKit          3D

 32 34  0  0  0  0  0  0  0  0999 V2000
   -4.2270   24.0450  -31.1940 O   0  0  0  0  0  0  0  0  0  0  0  0
   -4.6400   24.2780  -30.0250 C   0  0  0  0  0  0  0  0  0  0  0  0
   -6.0480   24.3580  -29.7600 N   0  0  0  0  0  0  0  0  0  0  0  0
   -7.0530   24.2260  -30.8120 C   0  0  0  0  0  0  0  0  0  0  0  0
   -7.3050   22.7810  -31.1040 C   0  0  0  0  0  0  0  0  0  0  0  0
   -6.5760   21.9680  -31.9420 C   0  0  0  0  0  0  0  0  0  0  0  0
   -7.2010   20.7740  -31.9480 N   0  0  0  0  0  0  0  0  0  0  0  0
   -6.8370   19.5830  -32.6780 C   0  0  0  0  0  0  0  0  0  0  0  0
   -6.0740   19.6880  -33.8560 C   0  0  0  0  0  0  0  0  0  0  0  0
   -5.7140   18.5420  -34.5730 C   0  0  0  0  0  0  0  0  0  0  0  0
   -6.1110   17.2820  -34.1260 C   0  0  0  0  0  0  0  0  0  0  0  0
   -6.8700   17.1630  -32.9610 C   0  0  0  0  0  0  0  0  0  0  0  0
   -7.2340   18.3030  -32.2390 C   0  0  0  0  0  0  0  0  0  0  0  0
   -8.2610   20.8660  -31.1560 N   0  0  0  0  0  0  0  0  0  0  0  0
   -8.3520   22.0790  -30.6310 N   0  0  0  0  0  0  0  0  0  0  0  0
   -3.6710   24.4660  -28.9350 C   0  0  0  0  0  0  0  0  0  0  0  0
   -3.6910   23.8230  -27.7110 C   0  0  0  0  0  0  0  0  0  0  0  0
   -2.6010   24.3040  -27.0180 C   0  0  0  0  0  0  0  0  0  0  0  0
   -1.9880   25.2060  -27.8620 C   0  0  0  0  0  0  0  0  0  0  0  0
   -0.4150   26.2070  -27.4630 Br  0  0  0  0  0  0  0  0  0  0  0  0
   -2.6440   25.2820  -28.9960 O   0  0  0  0  0  0  0  0  0  0  0  0
   -6.3760   24.5070  -28.7790 H   0  0  0  0  0  0  0  0  0  0  0  0
   -7.9896   24.6991  -30.4818 H   0  0  0  0  0  0  0  0  0  0  0  0
   -6.6859   24.7189  -31.7243 H   0  0  0  0  0  0  0  0  0  0  0  0
   -5.6652   22.2388  -32.4961 H   0  0  0  0  0  0  0  0  0  0  0  0
   -5.7584   20.6785  -34.2156 H   0  0  0  0  0  0  0  0  0  0  0  0
   -5.1163   18.6349  -35.4917 H   0  0  0  0  0  0  0  0  0  0  0  0
   -5.8260   16.3825  -34.6914 H   0  0  0  0  0  0  0  0  0  0  0  0
   -7.1828   16.1686  -32.6098 H   0  0  0  0  0  0  0  0  0  0  0  0
   -7.8339   18.2012  -31.3226 H   0  0  0  0  0  0  0  0  0  0  0  0
   -4.4248   23.0813  -27.3626 H   0  0  0  0  0  0  0  0  0  0  0  0
   -2.2853   24.0258  -26.0017 H   0  0  0  0  0  0  0  0  0  0  0  0
  1  2  2  0
  2  3  1  0
  3  4  1  0
  4  5  1  0
  5  6  2  0
  6  7  1  0
  7  8  1  0
  8  9  2  0
  9 10  1  0
 10 11  2  0
 11 12  1  0
 12 13  2  0
  7 14  1  0
 14 15  2  0
  2 16  1  0
 16 17  2  0
 17 18  1  0
 18 19  2  0
 19 20  1  0
 19 21  1  0
 15  5  1  0
 21 16  1  0
 13  8  1  0
  3 22  1  0
  4 23  1  0
  4 24  1  0
  6 25  1  0
  9 26  1  0
 10 27  1  0
 11 28  1  0
 12 29  1  0
 13 30  1  0
 17 31  1  0
 18 32  1  0
M  END
>  <UniqueID>  (17) 
16

>  <SMILES>  (17) 
O=C(NCc1cn(-c2ccccc2)nn1)c1ccc(Br)o1

>  <Energy>  (17) 
93.58482563342606

>  <Genealogy>  (17) 
O=C(NCc1cn(-c2ccccc2)nn1)c1ccc(Br)o1 (3D coordinates assigned)
O=C(NCc1cn(-c2ccccc2)nn1)c1ccc(Br)o1 (optimized conformer: 93.58482563342606 kcal/mol)

>  <smiles>  (17) 
O=C(NCc1cn(-c2ccccc2)nn1)c1ccc(Br)o1

>  <score_type>  (17) 
oracle

>  <origin>  (17) 
adgpu

>  <m_score__min__energy>  (17) 
-9.2799999999999994

>  <m_primary>  (17) 
energy

$$$$
17:0
     RDKit          3D

 52 54  0  0  0  0  0  0  0  0999 V2000
   -1.6130   20.0900  -26.1170 C   0  0  0  0  0  0  0  0  0  0  0  0
   -1.2940   21.4320  -26.4540 O   0  0  0  0  0  0  0  0  0  0  0  0
   -1.9320   22.1710  -27.4640 C   0  0  0  0  0  0  0  0  0  0  0  0
   -1.3320   23.2630  -28.1010 C   0  0  0  0  0  0  0  0  0  0  0  0
   -2.0210   23.9690  -29.0940 C   0  0  0  0  0  0  0  0  0  0  0  0
   -3.3230   23.6100  -29.4510 C   0  0  0  0  0  0  0  0  0  0  0  0
   -4.0680   24.3980  -30.4560 C   0  0  0  0  0  0  0  0  0  0  0  0
   -3.9240   25.6550  -30.4830 O   0  0  0  0  0  0  0  0  0  0  0  0
   -4.9220   23.7720  -31.4180 N   0  0  0  0  0  0  0  0  0  0  0  0
   -4.6430   22.5430  -32.1060 C   0  0  0  0  0  0  0  0  0  0  0  0
   -3.3240   22.2230  -32.4700 C   0  0  0  0  0  0  0  0  0  0  0  0
   -3.0250   21.0030  -33.0850 C   0  0  0  0  0  0  0  0  0  0  0  0
   -1.3680   20.6560  -33.5670 S   0  0  0  0  0  0  0  0  0  0  0  0
   -1.3930   19.5420  -34.5700 O   0  0  0  0  0  0  0  0  0  0  0  0
   -0.7490   21.8740  -34.1940 O   0  0  0  0  0  0  0  0  0  0  0  0
   -0.4410   20.1800  -32.1600 N   0  0  0  0  0  0  0  0  0  0  0  0
   -0.5710   21.2010  -31.1160 C   0  0  0  0  0  0  0  0  0  0  0  0
    0.9680   20.0240  -32.5350 C   0  0  0  0  0  0  0  0  0  0  0  0
   -4.0370   20.0630  -33.2850 C   0  0  0  0  0  0  0  0  0  0  0  0
   -5.3490   20.3490  -32.8990 C   0  0  0  0  0  0  0  0  0  0  0  0
   -5.6750   21.5940  -32.3230 C   0  0  0  0  0  0  0  0  0  0  0  0
   -7.0490   21.9000  -32.0040 N   0  0  0  0  0  0  0  0  0  0  0  0
   -7.6030   23.2480  -32.0290 C   0  0  0  0  0  0  0  0  0  0  0  0
   -9.1170   23.0730  -32.0450 C   0  0  0  0  0  0  0  0  0  0  0  0
   -9.3630   21.6580  -31.5350 C   0  0  0  0  0  0  0  0  0  0  0  0
   -8.0890   20.8900  -31.8460 C   0  0  0  0  0  0  0  0  0  0  0  0
   -3.9230   22.5190  -28.8130 C   0  0  0  0  0  0  0  0  0  0  0  0
   -3.2330   21.8030  -27.8310 C   0  0  0  0  0  0  0  0  0  0  0  0
   -1.6385   19.9829  -25.0225 H   0  0  0  0  0  0  0  0  0  0  0  0
   -2.5976   19.8314  -26.5337 H   0  0  0  0  0  0  0  0  0  0  0  0
   -0.8500   19.4160  -26.5337 H   0  0  0  0  0  0  0  0  0  0  0  0
   -0.3133   23.5682  -27.8198 H   0  0  0  0  0  0  0  0  0  0  0  0
   -1.5321   24.8154  -29.5986 H   0  0  0  0  0  0  0  0  0  0  0  0
   -2.5159   22.9416  -32.2686 H   0  0  0  0  0  0  0  0  0  0  0  0
   -0.5102   20.7237  -30.1268 H   0  0  0  0  0  0  0  0  0  0  0  0
    0.2408   21.9361  -31.2189 H   0  0  0  0  0  0  0  0  0  0  0  0
   -1.5411   21.7092  -31.2189 H   0  0  0  0  0  0  0  0  0  0  0  0
    1.5839   19.9558  -31.6262 H   0  0  0  0  0  0  0  0  0  0  0  0
    1.0897   19.1069  -33.1301 H   0  0  0  0  0  0  0  0  0  0  0  0
    1.2874   20.8923  -33.1301 H   0  0  0  0  0  0  0  0  0  0  0  0
   -3.8009   19.0936  -33.7481 H   0  0  0  0  0  0  0  0  0  0  0  0
   -6.1361   19.5948  -33.0460 H   0  0  0  0  0  0  0  0  0  0  0  0
   -7.2912   23.8072  -31.1345 H   0  0  0  0  0  0  0  0  0  0  0  0
   -7.2511   23.8148  -32.9036 H   0  0  0  0  0  0  0  0  0  0  0  0
   -9.5971   23.8098  -31.3842 H   0  0  0  0  0  0  0  0  0  0  0  0
   -9.5372   23.2258  -33.0500 H   0  0  0  0  0  0  0  0  0  0  0  0
   -9.5523   21.6669  -30.4514 H   0  0  0  0  0  0  0  0  0  0  0  0
  -10.2433   21.1994  -32.0091 H   0  0  0  0  0  0  0  0  0  0  0  0
   -7.8399   20.2089  -31.0189 H   0  0  0  0  0  0  0  0  0  0  0  0
   -8.1970   20.2730  -32.7502 H   0  0  0  0  0  0  0  0  0  0  0  0
   -4.9463   22.2223  -29.0866 H   0  0  0  0  0  0  0  0  0  0  0  0
   -3.7153   20.9436  -27.3423 H   0  0  0  0  0  0  0  0  0  0  0  0
  1  2  1  0
  2  3  1  0
  3  4  2  0
  4  5  1  0
  5  6  2  0
  6  7  1  0
  7  8  2  0
  7  9  1  0
  9 10  1  0
 10 11  2  0
 11 12  1  0
 12 13  1  0
 13 14  2  0
 13 15  2  0
 13 16  1  0
 16 17  1  0
 16 18  1  0
 12 19  2  0
 19 20  1  0
 20 21  2  0
 21 22  1  0
 22 23  1  0
 23 24  1  0
 24 25  1  0
 25 26  1  0
  6 27  1  0
 27 28  2  0
 28  3  1  0
 21 10  1  0
 26 22  1  0
  1 29  1  0
  1 30  1  0
  1 31  1  0
  4 32  1  0
  5 33  1  0
 11 34  1  0
 17 35  1  0
 17 36  1  0
 17 37  1  0
 18 38  1  0
 18 39  1  0
 18 40  1  0
 19 41  1  0
 20 42  1  0
 23 43  1  0
 23 44  1  0
 24 45  1  0
 24 46  1  0
 25 47  1  0
 25 48  1  0
 26 49  1  0
 26 50  1  0
 27 51  1  0
 28 52  1  0
M  CHG  1   9  -1
M  END
>  <UniqueID>  (18) 
17

>  <SMILES>  (18) 
COc1ccc(C(=O)[N-]c2cc(S(=O)(=O)N(C)C)ccc2N2CCCC2)cc1

>  <Energy>  (18) 
59.578524238608736

>  <Genealogy>  (18) 
COc1ccc(C(=O)[N-]c2cc(S(=O)(=O)N(C)C)ccc2N2CCCC2)cc1 (protonated)
COc1ccc(C(=O)[N-]c2cc(S(=O)(=O)N(C)C)ccc2N2CCCC2)cc1 (3D coordinates assigned)
COc1ccc(C(=O)[N-]c2cc(S(=O)(=O)N(C)C)ccc2N2CCCC2)cc1 (nonaromatic ring conformer: 59.578524238608736 kcal/mol)

>  <smiles>  (18) 
COc1ccc(C(=O)Nc2cc(S(=O)(=O)N(C)C)ccc2N2CCCC2)cc1

>  <score_type>  (18) 
oracle

>  <origin>  (18) 
adgpu

>  <m_score__min__energy>  (18) 
-10

>  <m_primary>  (18) 
energy

$$$$
18:0
     RDKit          3D

 39 41  0  0  0  0  0  0  0  0999 V2000
    0.6950   16.9410  -27.6140 C   0  0  0  0  0  0  0  0  0  0  0  0
   -0.1410   17.9890  -27.1380 O   0  0  0  0  0  0  0  0  0  0  0  0
   -0.7470   19.0120  -27.8920 C   0  0  0  0  0  0  0  0  0  0  0  0
   -0.0030   19.4960  -28.9750 C   0  0  0  0  0  0  0  0  0  0  0  0
   -0.4940   20.5100  -29.7950 C   0  0  0  0  0  0  0  0  0  0  0  0
   -1.7560   21.0750  -29.5560 C   0  0  0  0  0  0  0  0  0  0  0  0
   -2.2560   22.1260  -30.4150 N   0  0  0  0  0  0  0  0  0  0  0  0
   -2.5250   21.8910  -31.8450 C   0  0  0  0  0  0  0  0  0  0  0  0
   -3.9500   21.4480  -32.0730 C   0  0  0  0  0  0  0  0  0  0  0  0
   -4.2950   20.0870  -32.0190 C   0  0  0  0  0  0  0  0  0  0  0  0
   -5.6130   19.6890  -32.2450 C   0  0  0  0  0  0  0  0  0  0  0  0
   -6.5770   20.6530  -32.5420 C   0  0  0  0  0  0  0  0  0  0  0  0
   -6.2270   21.9630  -32.6180 N   0  0  0  0  0  0  0  0  0  0  0  0
   -4.9510   22.3780  -32.3990 C   0  0  0  0  0  0  0  0  0  0  0  0
   -2.4260   23.4470  -29.8700 C   0  0  0  0  0  0  0  0  0  0  0  0
   -1.4580   24.0050  -29.2890 O   0  0  0  0  0  0  0  0  0  0  0  0
   -3.7130   24.1530  -29.9580 C   0  0  0  0  0  0  0  0  0  0  0  0
   -4.9140   23.7440  -29.4110 C   0  0  0  0  0  0  0  0  0  0  0  0
   -5.8240   24.7260  -29.7360 C   0  0  0  0  0  0  0  0  0  0  0  0
   -5.1240   25.6750  -30.4540 C   0  0  0  0  0  0  0  0  0  0  0  0
   -3.8690   25.3070  -30.5670 O   0  0  0  0  0  0  0  0  0  0  0  0
   -2.5100   20.5960  -28.4730 C   0  0  0  0  0  0  0  0  0  0  0  0
   -2.0270   19.5770  -27.6410 C   0  0  0  0  0  0  0  0  0  0  0  0
   -3.0980   19.0800  -26.3340 Cl  0  0  0  0  0  0  0  0  0  0  0  0
    1.1269   16.3996  -26.7594 H   0  0  0  0  0  0  0  0  0  0  0  0
    0.1002   16.2464  -28.2253 H   0  0  0  0  0  0  0  0  0  0  0  0
    1.5044   17.3666  -28.2253 H   0  0  0  0  0  0  0  0  0  0  0  0
    0.9886   19.0673  -29.1825 H   0  0  0  0  0  0  0  0  0  0  0  0
    0.1136   20.8711  -30.6379 H   0  0  0  0  0  0  0  0  0  0  0  0
   -2.3472   22.8237  -32.4004 H   0  0  0  0  0  0  0  0  0  0  0  0
   -1.8545   21.0929  -32.1963 H   0  0  0  0  0  0  0  0  0  0  0  0
   -3.5244   19.3338  -31.7981 H   0  0  0  0  0  0  0  0  0  0  0  0
   -5.8894   18.6257  -32.1896 H   0  0  0  0  0  0  0  0  0  0  0  0
   -7.6208   20.3518  -32.7146 H   0  0  0  0  0  0  0  0  0  0  0  0
   -4.7014   23.4464  -32.4774 H   0  0  0  0  0  0  0  0  0  0  0  0
   -5.1040   22.8258  -28.8359 H   0  0  0  0  0  0  0  0  0  0  0  0
   -6.8926   24.7493  -29.4759 H   0  0  0  0  0  0  0  0  0  0  0  0
   -5.5529   26.5993  -30.8685 H   0  0  0  0  0  0  0  0  0  0  0  0
   -3.5009   21.0297  -28.2732 H   0  0  0  0  0  0  0  0  0  0  0  0
  1  2  1  0
  2  3  1  0
  3  4  2  0
  4  5  1  0
  5  6  2  0
  6  7  1  0
  7  8  1  0
  8  9  1  0
  9 10  2  0
 10 11  1  0
 11 12  2  0
 12 13  1  0
 13 14  2  0
  7 15  1  0
 15 16  2  0
 15 17  1  0
 17 18  2  0
 18 19  1  0
 19 20  2  0
 20 21  1  0
  6 22  1  0
 22 23  2  0
 23 24  1  0
 23  3  1  0
 14  9  1  0
 21 17  1  0
  1 25  1  0
  1 26  1  0
  1 27  1  0
  4 28  1  0
  5 29  1  0
  8 30  1  0
  8 31  1  0
 10 32  1  0
 11 33  1  0
 12 34  1  0
 14 35  1  0
 18 36  1  0
 19 37  1  0
 20 38  1  0
 22 39  1  0
M  END
>  <UniqueID>  (19) 
18

>  <SMILES>  (19) 
COc1ccc(N(Cc2cccnc2)C(=O)c2ccco2)cc1Cl

>  <Energy>  (19) 
82.11586023470723

>  <Genealogy>  (19) 
COc1ccc(N(Cc2cccnc2)C(=O)c2ccco2)cc1Cl (3D coordinates assigned)
COc1ccc(N(Cc2cccnc2)C(=O)c2ccco2)cc1Cl (optimized conformer: 82.11586023470723 kcal/mol)

>  <smiles>  (19) 
COc1ccc(N(Cc2cccnc2)C(=O)c2ccco2)cc1Cl

>  <score_type>  (19) 
oracle

>  <origin>  (19) 
adgpu

>  <m_score__min__energy>  (19) 
-7.8700000000000001

>  <m_primary>  (19) 
energy

$$$$
19:0
     RDKit          3D

 56 59  0  0  0  0  0  0  0  0999 V2000
   -1.5540   16.3370  -33.1020 C   0  0  0  0  0  0  0  0  0  0  0  0
   -2.1600   15.2300  -33.8690 N   0  0  0  0  0  0  0  0  0  0  0  0
   -3.2100   14.5250  -33.0770 C   0  0  0  0  0  0  0  0  0  0  0  0
   -4.6530   14.8970  -33.4750 C   0  0  0  0  0  0  0  0  0  0  0  0
   -4.7140   16.2780  -33.9610 N   0  0  0  0  0  0  0  0  0  0  0  0
   -5.6270   17.2350  -33.3890 C   0  0  0  0  0  0  0  0  0  0  0  0
   -5.9910   18.3880  -34.1050 C   0  0  0  0  0  0  0  0  0  0  0  0
   -6.8560   19.3300  -33.5420 C   0  0  0  0  0  0  0  0  0  0  0  0
   -7.3660   19.1440  -32.2430 C   0  0  0  0  0  0  0  0  0  0  0  0
   -8.2350   20.1130  -31.6250 N   0  0  0  0  0  0  0  0  0  0  0  0
   -8.4000   21.4860  -32.1050 C   0  0  0  0  0  0  0  0  0  0  0  0
   -7.1960   22.3170  -31.7430 C   0  0  0  0  0  0  0  0  0  0  0  0
   -5.9290   22.0030  -32.2560 C   0  0  0  0  0  0  0  0  0  0  0  0
   -4.8090   22.7440  -31.8720 C   0  0  0  0  0  0  0  0  0  0  0  0
   -4.9370   23.8020  -30.9680 C   0  0  0  0  0  0  0  0  0  0  0  0
   -3.7870   24.4960  -30.5750 O   0  0  0  0  0  0  0  0  0  0  0  0
   -2.9990   24.1560  -29.4680 C   0  0  0  0  0  0  0  0  0  0  0  0
   -1.8110   23.4460  -29.6820 C   0  0  0  0  0  0  0  0  0  0  0  0
   -0.9970   23.0870  -28.6000 C   0  0  0  0  0  0  0  0  0  0  0  0
   -1.3700   23.4300  -27.2970 C   0  0  0  0  0  0  0  0  0  0  0  0
   -2.5610   24.1260  -27.0740 C   0  0  0  0  0  0  0  0  0  0  0  0
   -3.3770   24.4840  -28.1500 C   0  0  0  0  0  0  0  0  0  0  0  0
   -6.2130   24.1550  -30.4890 C   0  0  0  0  0  0  0  0  0  0  0  0
   -6.4740   25.6790  -29.3650 Br  0  0  0  0  0  0  0  0  0  0  0  0
   -7.3320   23.4080  -30.8740 C   0  0  0  0  0  0  0  0  0  0  0  0
   -7.0110   17.9880  -31.5320 C   0  0  0  0  0  0  0  0  0  0  0  0
   -6.1440   17.0470  -32.0950 C   0  0  0  0  0  0  0  0  0  0  0  0
   -3.8220   16.6750  -35.0560 C   0  0  0  0  0  0  0  0  0  0  0  0
   -2.6470   15.6890  -35.1910 C   0  0  0  0  0  0  0  0  0  0  0  0
   -1.6622   16.1394  -32.0253 H   0  0  0  0  0  0  0  0  0  0  0  0
   -0.4864   16.4168  -33.3547 H   0  0  0  0  0  0  0  0  0  0  0  0
   -2.0620   17.2794  -33.3547 H   0  0  0  0  0  0  0  0  0  0  0  0
   -1.3880   14.5450  -34.0540 H   0  0  0  0  0  0  0  0  0  0  0  0
   -3.0807   13.4418  -33.2184 H   0  0  0  0  0  0  0  0  0  0  0  0
   -3.0794   14.8345  -32.0296 H   0  0  0  0  0  0  0  0  0  0  0  0
   -4.9950   14.2184  -34.2703 H   0  0  0  0  0  0  0  0  0  0  0  0
   -5.3002   14.8033  -32.5905 H   0  0  0  0  0  0  0  0  0  0  0  0
   -5.5917   18.5504  -35.1170 H   0  0  0  0  0  0  0  0  0  0  0  0
   -7.1404   20.2231  -34.1177 H   0  0  0  0  0  0  0  0  0  0  0  0
   -8.6960   19.8630  -30.7190 H   0  0  0  0  0  0  0  0  0  0  0  0
   -8.5180   21.4760  -33.1986 H   0  0  0  0  0  0  0  0  0  0  0  0
   -9.2915   21.9245  -31.6328 H   0  0  0  0  0  0  0  0  0  0  0  0
   -5.8168   21.1689  -32.9643 H   0  0  0  0  0  0  0  0  0  0  0  0
   -3.8202   22.4933  -32.2836 H   0  0  0  0  0  0  0  0  0  0  0  0
   -1.5156   23.1689  -30.7047 H   0  0  0  0  0  0  0  0  0  0  0  0
   -0.0625   22.5341  -28.7759 H   0  0  0  0  0  0  0  0  0  0  0  0
   -0.7270   23.1524  -26.4488 H   0  0  0  0  0  0  0  0  0  0  0  0
   -2.8568   24.3927  -26.0486 H   0  0  0  0  0  0  0  0  0  0  0  0
   -4.3180   25.0239  -27.9682 H   0  0  0  0  0  0  0  0  0  0  0  0
   -8.3269   23.6795  -30.4912 H   0  0  0  0  0  0  0  0  0  0  0  0
   -7.4179   17.8207  -30.5238 H   0  0  0  0  0  0  0  0  0  0  0  0
   -5.8638   16.1517  -31.5207 H   0  0  0  0  0  0  0  0  0  0  0  0
   -4.3910   16.6886  -35.9973 H   0  0  0  0  0  0  0  0  0  0  0  0
   -3.4190   17.6748  -34.8368 H   0  0  0  0  0  0  0  0  0  0  0  0
   -2.9798   14.8155  -35.7709 H   0  0  0  0  0  0  0  0  0  0  0  0
   -1.8209   16.2086  -35.6985 H   0  0  0  0  0  0  0  0  0  0  0  0
  1  2  1  0
  2  3  1  0
  3  4  1  0
  4  5  1  0
  5  6  1  0
  6  7  2  0
  7  8  1  0
  8  9  2  0
  9 10  1  0
 10 11  1  0
 11 12  1  0
 12 13  2  0
 13 14  1  0
 14 15  2  0
 15 16  1  0
 16 17  1  0
 17 18  2  0
 18 19  1  0
 19 20  2  0
 20 21  1  0
 21 22  2  0
 15 23  1  0
 23 24  1  0
 23 25  2  0
  9 26  1  0
 26 27  2  0
  5 28  1  0
 28 29  1  0
 29  2  1  0
 27  6  1  0
 25 12  1  0
 22 17  1  0
  1 30  1  0
  1 31  1  0
  1 32  1  0
  2 33  1  0
  3 34  1  0
  3 35  1  0
  4 36  1  0
  4 37  1  0
  7 38  1  0
  8 39  1  0
 10 40  1  0
 11 41  1  0
 11 42  1  0
 13 43  1  0
 14 44  1  0
 18 45  1  0
 19 46  1  0
 20 47  1  0
 21 48  1  0
 22 49  1  0
 25 50  1  0
 26 51  1  0
 27 52  1  0
 28 53  1  0
 28 54  1  0
 29 55  1  0
 29 56  1  0
M  CHG  1   2   1
M  END
>  <UniqueID>  (20) 
19

>  <SMILES>  (20) 
C[NH+]1CCN(c2ccc(NCc3ccc(Oc4ccccc4)c(Br)c3)cc2)CC1

>  <Energy>  (20) 
78.31295166331984

>  <Genealogy>  (20) 
C[NH+]1CCN(c2ccc(NCc3ccc(Oc4ccccc4)c(Br)c3)cc2)CC1 (protonated)
C[NH+]1CCN(c2ccc(NCc3ccc(Oc4ccccc4)c(Br)c3)cc2)CC1 (3D coordinates assigned)
C[NH+]1CCN(c2ccc(NCc3ccc(Oc4ccccc4)c(Br)c3)cc2)CC1 (nonaromatic ring conformer: 78.31295166331984 kcal/mol)

>  <smiles>  (20) 
CN1CCN(c2ccc(NCc3ccc(Oc4ccccc4)c(Br)c3)cc2)CC1

>  <score_type>  (20) 
oracle

>  <origin>  (20) 
adgpu

>  <m_score__min__energy>  (20) 
-10.08

>  <m_primary>  (20) 
energy

$$$$
20:0
     RDKit          3D

 52 56  0  0  0  0  0  0  0  0999 V2000
   -4.9564   22.2450  -32.3532 H   0  0  0  0  0  0  0  0  0  0  0  0
   -4.9000   22.9010  -31.4720 C   0  0  0  0  0  0  0  0  0  0  0  0
   -3.6550   23.2440  -30.9350 C   0  0  0  0  0  0  0  0  0  0  0  0
   -2.7351   22.8476  -31.3896 H   0  0  0  0  0  0  0  0  0  0  0  0
   -3.5730   24.0930  -29.8170 C   0  0  0  0  0  0  0  0  0  0  0  0
   -2.2660   24.4390  -29.2190 C   0  0  0  0  0  0  0  0  0  0  0  0
   -1.9920   25.6650  -28.7380 N   0  0  0  0  0  0  0  0  0  0  0  0
   -0.7660   25.5340  -28.1940 C   0  0  0  0  0  0  0  0  0  0  0  0
    0.0890   26.8820  -27.3870 S   0  0  0  0  0  0  0  0  0  0  0  0
   -0.9640   26.8070  -25.9050 C   0  0  0  0  0  0  0  0  0  0  0  0
   -0.3336   26.8519  -25.0047 H   0  0  0  0  0  0  0  0  0  0  0  0
   -1.6613   27.6578  -25.9072 H   0  0  0  0  0  0  0  0  0  0  0  0
   -1.5337   25.8660  -25.9072 H   0  0  0  0  0  0  0  0  0  0  0  0
   -0.2430   24.2960  -28.3050 N   0  0  0  0  0  0  0  0  0  0  0  0
   -1.1880   23.6020  -28.9630 C   0  0  0  0  0  0  0  0  0  0  0  0
   -0.9980   22.1980  -29.3720 C   0  0  0  0  0  0  0  0  0  0  0  0
   -1.1140   21.8720  -30.6860 N   0  0  0  0  0  0  0  0  0  0  0  0
   -0.9760   20.5920  -31.1220 C   0  0  0  0  0  0  0  0  0  0  0  0
   -1.0870   20.3510  -32.3960 N   0  0  0  0  0  0  0  0  0  0  0  0
   -0.9690   19.0400  -33.0310 C   0  0  0  0  0  0  0  0  0  0  0  0
   -0.7593   19.1697  -34.1030 H   0  0  0  0  0  0  0  0  0  0  0  0
   -0.1480   18.4784  -32.5614 H   0  0  0  0  0  0  0  0  0  0  0  0
   -2.2750   18.2700  -32.8580 C   0  0  0  0  0  0  0  0  0  0  0  0
   -2.3271   17.4712  -33.6124 H   0  0  0  0  0  0  0  0  0  0  0  0
   -2.3026   17.8382  -31.8467 H   0  0  0  0  0  0  0  0  0  0  0  0
   -3.4500   19.1860  -33.0270 C   0  0  0  0  0  0  0  0  0  0  0  0
   -3.4350   20.4490  -33.6140 C   0  0  0  0  0  0  0  0  0  0  0  0
   -2.5303   20.9688  -33.9624 H   0  0  0  0  0  0  0  0  0  0  0  0
   -4.6910   20.9460  -33.6950 N   0  0  0  0  0  0  0  0  0  0  0  0
   -4.9730   21.8680  -34.1010 H   0  0  0  0  0  0  0  0  0  0  0  0
   -5.4990   20.0030  -33.1780 C   0  0  0  0  0  0  0  0  0  0  0  0
   -6.8880   20.0460  -33.0730 C   0  0  0  0  0  0  0  0  0  0  0  0
   -7.4558   20.9255  -33.4107 H   0  0  0  0  0  0  0  0  0  0  0  0
   -7.5410   18.9280  -32.5210 C   0  0  0  0  0  0  0  0  0  0  0  0
   -8.6362   18.9305  -32.4188 H   0  0  0  0  0  0  0  0  0  0  0  0
   -6.7990   17.8020  -32.0970 C   0  0  0  0  0  0  0  0  0  0  0  0
   -7.3204   16.9338  -31.6675 H   0  0  0  0  0  0  0  0  0  0  0  0
   -5.3980   17.7850  -32.2210 C   0  0  0  0  0  0  0  0  0  0  0  0
   -4.8100   16.9126  -31.8997 H   0  0  0  0  0  0  0  0  0  0  0  0
   -4.7780   18.9110  -32.7650 C   0  0  0  0  0  0  0  0  0  0  0  0
   -0.7260   19.5970  -30.2150 N   0  0  0  0  0  0  0  0  0  0  0  0
   -0.6150   18.6010  -30.5100 H   0  0  0  0  0  0  0  0  0  0  0  0
   -0.6250   19.8760  -28.8880 C   0  0  0  0  0  0  0  0  0  0  0  0
   -0.4306   19.0653  -28.1704 H   0  0  0  0  0  0  0  0  0  0  0  0
   -0.7670   21.1850  -28.4350 C   0  0  0  0  0  0  0  0  0  0  0  0
   -0.6989   21.4180  -27.3621 H   0  0  0  0  0  0  0  0  0  0  0  0
   -4.7570   24.5640  -29.2270 C   0  0  0  0  0  0  0  0  0  0  0  0
   -4.7058   25.2062  -28.3354 H   0  0  0  0  0  0  0  0  0  0  0  0
   -6.0020   24.2210  -29.7670 C   0  0  0  0  0  0  0  0  0  0  0  0
   -6.9250   24.6046  -29.3077 H   0  0  0  0  0  0  0  0  0  0  0  0
   -6.0730   23.3910  -30.8900 C   0  0  0  0  0  0  0  0  0  0  0  0
   -7.2800   23.0560  -31.4090 F   0  0  0  0  0  0  0  0  0  0  0  0
  1  2  1  0
  2  3  2  0
  3  4  1  0
  3  5  1  0
  5  6  1  0
  6  7  1  0
  7  8  1  0
  8  9  1  0
  9 10  1  0
 10 11  1  0
 10 12  1  0
 10 13  1  0
  8 14  2  0
 14 15  1  0
 15 16  1  0
 16 17  2  0
 17 18  1  0
 18 19  2  0
 19 20  1  0
 20 21  1  0
 20 22  1  0
 20 23  1  0
 23 24  1  0
 23 25  1  0
 23 26  1  0
 26 27  2  0
 27 28  1  0
 27 29  1  0
 29 30  1  0
 29 31  1  0
 31 32  2  0
 32 33  1  0
 32 34  1  0
 34 35  1  0
 34 36  2  0
 36 37  1  0
 36 38  1  0
 38 39  1  0
 38 40  2  0
 18 41  1  0
 41 42  1  0
 41 43  1  0
 43 44  1  0
 43 45  2  0
 45 46  1  0
  5 47  2  0
 47 48  1  0
 47 49  1  0
 49 50  1  0
 49 51  2  0
 51 52  1  0
 51  2  1  0
 15  6  2  0
 45 16  1  0
 40 26  1  0
 40 31  1  0
M  CHG  1   7  -1
M  END
>  <UniqueID>  (21) 
20

>  <SMILES>  (21) 
CSc1nc(-c2cc[nH]/c(=N\CCc3c[nH]c4ccccc34)n2)c(-c2ccc(F)cc2)[n-]1

>  <Energy>  (21) 
120.24173277714543

>  <Genealogy>  (21) 
CSc1nc(-c2cc[nH]c(=NCCc3c[nH]c4ccccc34)n2)c(-c2ccc(F)cc2)[n-]1 (protonated)
CSc1nc(-c2cc[nH]/c(=N\CCc3c[nH]c4ccccc34)n2)c(-c2ccc(F)cc2)[n-]1 (cis-trans isomerization)
CSc1nc(-c2cc[nH]/c(=N\CCc3c[nH]c4ccccc34)n2)c(-c2ccc(F)cc2)[n-]1 (3D coordinates assigned)
CSc1nc(-c2cc[nH]/c(=N\CCc3c[nH]c4ccccc34)n2)c(-c2ccc(F)cc2)[n-]1 (optimized conformer: 120.24173277714543 kcal/mol)

>  <smiles>  (21) 
CSc1nc(-c2cc[nH]c(=NCCc3c[nH]c4ccccc34)n2)c(-c2ccc(F)cc2)[nH]1

>  <score_type>  (21) 
oracle

>  <origin>  (21) 
adgpu

>  <m_score__min__energy>  (21) 
-11.289999999999999

>  <m_primary>  (21) 
energy

$$$$
21:0
     RDKit          3D

 40 42  0  0  0  0  0  0  0  0999 V2000
   -2.3450   24.6810  -28.3940 C   0  0  0  0  0  0  0  0  0  0  0  0
   -3.0190   25.2590  -29.5070 O   0  0  0  0  0  0  0  0  0  0  0  0
   -4.0030   24.6060  -30.2630 C   0  0  0  0  0  0  0  0  0  0  0  0
   -5.2810   25.1570  -30.4770 C   0  0  0  0  0  0  0  0  0  0  0  0
   -6.2290   24.4650  -31.2380 C   0  0  0  0  0  0  0  0  0  0  0  0
   -5.9240   23.2150  -31.7850 C   0  0  0  0  0  0  0  0  0  0  0  0
   -6.8990   22.5590  -32.5510 O   0  0  0  0  0  0  0  0  0  0  0  0
   -7.1800   21.1850  -32.4960 C   0  0  0  0  0  0  0  0  0  0  0  0
   -8.3550   20.7540  -31.8780 C   0  0  0  0  0  0  0  0  0  0  0  0
   -9.4910   21.9060  -31.1950 Cl  0  0  0  0  0  0  0  0  0  0  0  0
   -8.6300   19.3920  -31.8170 C   0  0  0  0  0  0  0  0  0  0  0  0
   -7.7570   18.5050  -32.3560 N   0  0  0  0  0  0  0  0  0  0  0  0
   -6.6210   18.8920  -32.9460 N   0  0  0  0  0  0  0  0  0  0  0  0
   -5.7590   17.8740  -33.4900 C   0  0  0  0  0  0  0  0  0  0  0  0
   -5.3990   16.7500  -32.7270 C   0  0  0  0  0  0  0  0  0  0  0  0
   -4.5440   15.7780  -33.2570 C   0  0  0  0  0  0  0  0  0  0  0  0
   -4.0250   15.9220  -34.5570 C   0  0  0  0  0  0  0  0  0  0  0  0
   -3.1640   14.9750  -35.1330 O   0  0  0  0  0  0  0  0  0  0  0  0
   -3.5830   13.7170  -35.6490 C   0  0  0  0  0  0  0  0  0  0  0  0
   -4.3720   17.0500  -35.3090 C   0  0  0  0  0  0  0  0  0  0  0  0
   -5.2260   18.0220  -34.7810 C   0  0  0  0  0  0  0  0  0  0  0  0
   -6.2890   20.2220  -33.0020 C   0  0  0  0  0  0  0  0  0  0  0  0
   -5.1730   20.5850  -33.4680 O   0  0  0  0  0  0  0  0  0  0  0  0
   -4.6420   22.6710  -31.5860 C   0  0  0  0  0  0  0  0  0  0  0  0
   -3.6950   23.3620  -30.8260 C   0  0  0  0  0  0  0  0  0  0  0  0
   -2.7868   25.0599  -27.4606 H   0  0  0  0  0  0  0  0  0  0  0  0
   -2.4484   23.5865  -28.4307 H   0  0  0  0  0  0  0  0  0  0  0  0
   -1.2790   24.9500  -28.4307 H   0  0  0  0  0  0  0  0  0  0  0  0
   -5.5350   26.1357  -30.0439 H   0  0  0  0  0  0  0  0  0  0  0  0
   -7.2217   24.9075  -31.4073 H   0  0  0  0  0  0  0  0  0  0  0  0
   -9.5516   19.0357  -31.3336 H   0  0  0  0  0  0  0  0  0  0  0  0
   -5.7922   16.6338  -31.7063 H   0  0  0  0  0  0  0  0  0  0  0  0
   -4.2762   14.8972  -32.6549 H   0  0  0  0  0  0  0  0  0  0  0  0
   -3.8098   13.0360  -34.8155 H   0  0  0  0  0  0  0  0  0  0  0  0
   -4.4837   13.8550  -36.2652 H   0  0  0  0  0  0  0  0  0  0  0  0
   -2.7794   13.2874  -36.2652 H   0  0  0  0  0  0  0  0  0  0  0  0
   -3.9688   17.1727  -36.3251 H   0  0  0  0  0  0  0  0  0  0  0  0
   -5.4823   18.9083  -35.3800 H   0  0  0  0  0  0  0  0  0  0  0  0
   -4.3843   21.6983  -32.0303 H   0  0  0  0  0  0  0  0  0  0  0  0
   -2.6981   22.9244  -30.6686 H   0  0  0  0  0  0  0  0  0  0  0  0
  1  2  1  0
  2  3  1  0
  3  4  2  0
  4  5  1  0
  5  6  2  0
  6  7  1  0
  7  8  1  0
  8  9  2  0
  9 10  1  0
  9 11  1  0
 11 12  2  0
 12 13  1  0
 13 14  1  0
 14 15  2  0
 15 16  1  0
 16 17  2  0
 17 18  1  0
 18 19  1  0
 17 20  1  0
 20 21  2  0
 13 22  1  0
 22 23  2  0
  6 24  1  0
 24 25  2  0
 25  3  1  0
 22  8  1  0
 21 14  1  0
  1 26  1  0
  1 27  1  0
  1 28  1  0
  4 29  1  0
  5 30  1  0
 11 31  1  0
 15 32  1  0
 16 33  1  0
 19 34  1  0
 19 35  1  0
 19 36  1  0
 20 37  1  0
 21 38  1  0
 24 39  1  0
 25 40  1  0
M  END
>  <UniqueID>  (22) 
21

>  <SMILES>  (22) 
COc1ccc(Oc2c(Cl)cnn(-c3ccc(OC)cc3)c2=O)cc1

>  <Energy>  (22) 
57.32004927806566

>  <Genealogy>  (22) 
COc1ccc(Oc2c(Cl)cnn(-c3ccc(OC)cc3)c2=O)cc1 (3D coordinates assigned)
COc1ccc(Oc2c(Cl)cnn(-c3ccc(OC)cc3)c2=O)cc1 (optimized conformer: 57.32004927806566 kcal/mol)

>  <smiles>  (22) 
COc1ccc(Oc2c(Cl)cnn(-c3ccc(OC)cc3)c2=O)cc1

>  <score_type>  (22) 
oracle

>  <origin>  (22) 
adgpu

>  <m_score__min__energy>  (22) 
-8.1799999999999997

>  <m_primary>  (22) 
energy

$$$$
22:0
     RDKit          3D

 36 38  0  0  0  0  0  0  0  0999 V2000
   -3.3940   24.3180  -28.1370 O   0  0  0  0  0  0  0  0  0  0  0  0
   -2.8290   24.8990  -29.1010 C   0  0  0  0  0  0  0  0  0  0  0  0
   -3.4950   24.9370  -30.3670 N   0  0  0  0  0  0  0  0  0  0  0  0
   -4.6490   24.1670  -30.7340 C   0  0  0  0  0  0  0  0  0  0  0  0
   -5.9080   24.5750  -30.2820 C   0  0  0  0  0  0  0  0  0  0  0  0
   -7.0560   23.8640  -30.6470 C   0  0  0  0  0  0  0  0  0  0  0  0
   -6.9590   22.7530  -31.5050 C   0  0  0  0  0  0  0  0  0  0  0  0
   -8.1080   21.9720  -31.8760 N   0  0  0  0  0  0  0  0  0  0  0  0
   -8.1900   20.6740  -31.9220 C   0  0  0  0  0  0  0  0  0  0  0  0
   -9.3470   20.1000  -32.3460 N   0  0  0  0  0  0  0  0  0  0  0  0
   -9.4870   18.7490  -32.3860 C   0  0  0  0  0  0  0  0  0  0  0  0
   -8.4360   17.9280  -31.9810 C   0  0  0  0  0  0  0  0  0  0  0  0
   -7.2580   18.5290  -31.5390 C   0  0  0  0  0  0  0  0  0  0  0  0
   -7.1580   19.8840  -31.5130 N   0  0  0  0  0  0  0  0  0  0  0  0
   -5.6970   22.3450  -31.9520 C   0  0  0  0  0  0  0  0  0  0  0  0
   -4.5500   23.0560  -31.5870 C   0  0  0  0  0  0  0  0  0  0  0  0
   -1.5240   25.4830  -28.9360 N   0  0  0  0  0  0  0  0  0  0  0  0
   -0.8140   25.5250  -27.6870 C   0  0  0  0  0  0  0  0  0  0  0  0
   -1.2250   26.3730  -26.6420 C   0  0  0  0  0  0  0  0  0  0  0  0
   -0.5360   26.3780  -25.4250 C   0  0  0  0  0  0  0  0  0  0  0  0
    0.5580   25.5290  -25.2360 C   0  0  0  0  0  0  0  0  0  0  0  0
    0.9590   24.6670  -26.2600 C   0  0  0  0  0  0  0  0  0  0  0  0
    0.2730   24.6580  -27.4780 C   0  0  0  0  0  0  0  0  0  0  0  0
    0.6760   23.8170  -28.4640 F   0  0  0  0  0  0  0  0  0  0  0  0
   -5.9960   25.4605  -29.6354 H   0  0  0  0  0  0  0  0  0  0  0  0
   -8.0384   24.1746  -30.2618 H   0  0  0  0  0  0  0  0  0  0  0  0
  -10.4292   18.3035  -32.7378 H   0  0  0  0  0  0  0  0  0  0  0  0
   -8.5335   16.8327  -32.0094 H   0  0  0  0  0  0  0  0  0  0  0  0
   -6.4113   17.9075  -31.2120 H   0  0  0  0  0  0  0  0  0  0  0  0
   -5.6069   21.4576  -32.5958 H   0  0  0  0  0  0  0  0  0  0  0  0
   -3.5668   22.7441  -31.9692 H   0  0  0  0  0  0  0  0  0  0  0  0
   -1.0860   25.9650  -29.7540 H   0  0  0  0  0  0  0  0  0  0  0  0
   -2.0921   27.0350  -26.7830 H   0  0  0  0  0  0  0  0  0  0  0  0
   -0.8555   27.0509  -24.6156 H   0  0  0  0  0  0  0  0  0  0  0  0
    1.1035   25.5394  -24.2808 H   0  0  0  0  0  0  0  0  0  0  0  0
    1.8159   23.9944  -26.1075 H   0  0  0  0  0  0  0  0  0  0  0  0
  1  2  2  0
  2  3  1  0
  3  4  1  0
  4  5  2  0
  5  6  1  0
  6  7  2  0
  7  8  1  0
  8  9  2  3
  9 10  1  0
 10 11  2  0
 11 12  1  0
 12 13  2  0
 13 14  1  0
  7 15  1  0
 15 16  2  0
  2 17  1  0
 17 18  1  0
 18 19  2  0
 19 20  1  0
 20 21  2  0
 21 22  1  0
 22 23  2  0
 23 24  1  0
 16  4  1  0
 23 18  1  0
 14  9  1  0
  5 25  1  0
  6 26  1  0
 11 27  1  0
 12 28  1  0
 13 29  1  0
 15 30  1  0
 16 31  1  0
 17 32  1  0
 19 33  1  0
 20 34  1  0
 21 35  1  0
 22 36  1  0
M  CHG  2   3  -1  14  -1
M  END
>  <UniqueID>  (23) 
22

>  <SMILES>  (23) 
O=C([N-]c1ccc(N=c2nccc[n-]2)cc1)Nc1ccccc1F

>  <Energy>  (23) 
55.08412506802811

>  <Genealogy>  (23) 
O=C([N-]c1ccc(N=c2nccc[n-]2)cc1)Nc1ccccc1F (protonated)
O=C([N-]c1ccc(N=c2nccc[n-]2)cc1)Nc1ccccc1F (3D coordinates assigned)
O=C([N-]c1ccc(N=c2nccc[n-]2)cc1)Nc1ccccc1F (optimized conformer: 55.08412506802811 kcal/mol)

>  <smiles>  (23) 
O=C(Nc1ccc(N=c2nccc[nH]2)cc1)Nc1ccccc1F

>  <score_type>  (23) 
oracle

>  <origin>  (23) 
adgpu

>  <m_score__min__energy>  (23) 
-9.6500000000000004

>  <m_primary>  (23) 
energy

$$$$
23:0
     RDKit          3D

 53 57  0  0  0  0  0  0  0  0999 V2000
   -9.4790   18.7160  -31.2070 O   0  0  0  0  0  0  0  0  0  0  0  0
   -8.3850   19.0390  -31.7420 C   0  0  0  0  0  0  0  0  0  0  0  0
   -8.0680   20.3860  -31.9130 C   0  0  0  0  0  0  0  0  0  0  0  0
   -6.8490   20.7520  -32.5020 C   0  0  0  0  0  0  0  0  0  0  0  0
   -6.5530   22.1420  -32.7220 N   0  0  0  0  0  0  0  0  0  0  0  0
   -5.6640   22.9110  -31.8920 C   0  0  0  0  0  0  0  0  0  0  0  0
   -4.3630   22.4630  -31.6000 C   0  0  0  0  0  0  0  0  0  0  0  0
   -3.5110   23.2350  -30.8060 C   0  0  0  0  0  0  0  0  0  0  0  0
   -3.9460   24.4690  -30.2900 C   0  0  0  0  0  0  0  0  0  0  0  0
   -3.1160   25.2780  -29.5000 O   0  0  0  0  0  0  0  0  0  0  0  0
   -2.1790   24.8140  -28.5650 C   0  0  0  0  0  0  0  0  0  0  0  0
   -0.9740   24.2010  -28.9570 C   0  0  0  0  0  0  0  0  0  0  0  0
   -0.0750   23.7370  -27.9920 C   0  0  0  0  0  0  0  0  0  0  0  0
   -0.3750   23.8700  -26.6330 C   0  0  0  0  0  0  0  0  0  0  0  0
   -1.5780   24.4620  -26.2380 C   0  0  0  0  0  0  0  0  0  0  0  0
   -2.4790   24.9260  -27.2010 C   0  0  0  0  0  0  0  0  0  0  0  0
   -5.2270   24.9310  -30.6120 C   0  0  0  0  0  0  0  0  0  0  0  0
   -6.0800   24.1600  -31.4070 C   0  0  0  0  0  0  0  0  0  0  0  0
   -5.9620   19.7400  -32.9290 C   0  0  0  0  0  0  0  0  0  0  0  0
   -4.7140   20.0370  -33.5070 C   0  0  0  0  0  0  0  0  0  0  0  0
   -3.8590   19.0110  -33.9160 C   0  0  0  0  0  0  0  0  0  0  0  0
   -4.2340   17.6670  -33.7650 C   0  0  0  0  0  0  0  0  0  0  0  0
   -3.3550   16.5990  -34.1560 N   0  0  0  0  0  0  0  0  0  0  0  0
   -3.0730   15.4420  -33.3490 C   0  0  0  0  0  0  0  0  0  0  0  0
   -4.1060   14.6260  -32.8530 C   0  0  0  0  0  0  0  0  0  0  0  0
   -3.8080   13.5220  -32.0480 C   0  0  0  0  0  0  0  0  0  0  0  0
   -2.4820   13.2330  -31.7190 C   0  0  0  0  0  0  0  0  0  0  0  0
   -1.4500   14.0520  -32.1880 C   0  0  0  0  0  0  0  0  0  0  0  0
   -1.7450   15.1570  -32.9940 C   0  0  0  0  0  0  0  0  0  0  0  0
   -5.4600   17.3620  -33.1570 C   0  0  0  0  0  0  0  0  0  0  0  0
   -6.3280   18.3840  -32.7410 C   0  0  0  0  0  0  0  0  0  0  0  0
   -7.5200   18.0720  -32.1540 N   0  0  0  0  0  0  0  0  0  0  0  0
   -8.7749   21.1626  -31.5855 H   0  0  0  0  0  0  0  0  0  0  0  0
   -7.0590   22.6340  -33.4930 H   0  0  0  0  0  0  0  0  0  0  0  0
   -4.0142   21.4991  -31.9991 H   0  0  0  0  0  0  0  0  0  0  0  0
   -2.4953   22.8760  -30.5834 H   0  0  0  0  0  0  0  0  0  0  0  0
   -0.7390   24.0867  -30.0255 H   0  0  0  0  0  0  0  0  0  0  0  0
    0.8697   23.2666  -28.3025 H   0  0  0  0  0  0  0  0  0  0  0  0
    0.3355   23.5089  -25.8748 H   0  0  0  0  0  0  0  0  0  0  0  0
   -1.8159   24.5629  -25.1688 H   0  0  0  0  0  0  0  0  0  0  0  0
   -3.4292   25.3818  -26.8859 H   0  0  0  0  0  0  0  0  0  0  0  0
   -5.5653   25.9081  -30.2368 H   0  0  0  0  0  0  0  0  0  0  0  0
   -7.0841   24.5351  -31.6540 H   0  0  0  0  0  0  0  0  0  0  0  0
   -4.4092   21.0858  -33.6378 H   0  0  0  0  0  0  0  0  0  0  0  0
   -2.8836   19.2585  -34.3602 H   0  0  0  0  0  0  0  0  0  0  0  0
   -2.8860   16.6700  -35.0870 H   0  0  0  0  0  0  0  0  0  0  0  0
   -5.1528   14.8574  -33.0995 H   0  0  0  0  0  0  0  0  0  0  0  0
   -4.6192   12.8804  -31.6735 H   0  0  0  0  0  0  0  0  0  0  0  0
   -2.2491   12.3607  -31.0906 H   0  0  0  0  0  0  0  0  0  0  0  0
   -0.4062   13.8274  -31.9232 H   0  0  0  0  0  0  0  0  0  0  0  0
   -0.9319   15.8060  -33.3514 H   0  0  0  0  0  0  0  0  0  0  0  0
   -5.7449   16.3106  -33.0043 H   0  0  0  0  0  0  0  0  0  0  0  0
   -7.7850   17.0700  -32.0160 H   0  0  0  0  0  0  0  0  0  0  0  0
  1  2  2  0
  2  3  1  0
  3  4  2  0
  4  5  1  0
  5  6  1  0
  6  7  2  0
  7  8  1  0
  8  9  2  0
  9 10  1  0
 10 11  1  0
 11 12  2  0
 12 13  1  0
 13 14  2  0
 14 15  1  0
 15 16  2  0
  9 17  1  0
 17 18  2  0
  4 19  1  0
 19 20  2  0
 20 21  1  0
 21 22  2  0
 22 23  1  0
 23 24  1  0
 24 25  2  0
 25 26  1  0
 26 27  2  0
 27 28  1  0
 28 29  2  0
 22 30  1  0
 30 31  2  0
 31 32  1  0
 32  2  1  0
 18  6  1  0
 31 19  1  0
 16 11  1  0
 29 24  1  0
  3 33  1  0
  5 34  1  0
  7 35  1  0
  8 36  1  0
 12 37  1  0
 13 38  1  0
 14 39  1  0
 15 40  1  0
 16 41  1  0
 17 42  1  0
 18 43  1  0
 20 44  1  0
 21 45  1  0
 23 46  1  0
 25 47  1  0
 26 48  1  0
 27 49  1  0
 28 50  1  0
 29 51  1  0
 30 52  1  0
 32 53  1  0
M  END
>  <UniqueID>  (24) 
23

>  <SMILES>  (24) 
O=c1cc(Nc2ccc(Oc3ccccc3)cc2)c2ccc(Nc3ccccc3)cc2[nH]1

>  <Energy>  (24) 
82.73544689436513

>  <Genealogy>  (24) 
O=c1cc(Nc2ccc(Oc3ccccc3)cc2)c2ccc(Nc3ccccc3)cc2[nH]1 (3D coordinates assigned)
O=c1cc(Nc2ccc(Oc3ccccc3)cc2)c2ccc(Nc3ccccc3)cc2[nH]1 (optimized conformer: 82.73544689436513 kcal/mol)

>  <smiles>  (24) 
O=c1cc(Nc2ccc(Oc3ccccc3)cc2)c2ccc(Nc3ccccc3)cc2[nH]1

>  <score_type>  (24) 
oracle

>  <origin>  (24) 
adgpu

>  <m_score__min__energy>  (24) 
-9.7200000000000006

>  <m_primary>  (24) 
energy

$$$$
24:0
     RDKit          3D

 57 59  0  0  0  0  0  0  0  0999 V2000
   -6.2210   15.8940  -34.1940 C   0  0  0  0  0  0  0  0  0  0  0  0
   -4.9020   16.2230  -33.5030 C   0  0  0  0  0  0  0  0  0  0  0  0
   -5.0870   17.2370  -32.5140 O   0  0  0  0  0  0  0  0  0  0  0  0
   -6.1830   18.1150  -32.4340 C   0  0  0  0  0  0  0  0  0  0  0  0
   -7.3280   17.8250  -31.6650 C   0  0  0  0  0  0  0  0  0  0  0  0
   -8.3890   18.7300  -31.6080 C   0  0  0  0  0  0  0  0  0  0  0  0
   -8.3360   19.9300  -32.3290 C   0  0  0  0  0  0  0  0  0  0  0  0
   -9.4670   20.9200  -32.2430 C   0  0  0  0  0  0  0  0  0  0  0  0
   -9.5300   21.5460  -30.8470 C   0  0  0  0  0  0  0  0  0  0  0  0
   -8.2270   22.0820  -30.4620 N   0  0  0  0  0  0  0  0  0  0  0  0
   -7.5080   23.0290  -31.2720 C   0  0  0  0  0  0  0  0  0  0  0  0
   -8.0270   23.4660  -32.3350 O   0  0  0  0  0  0  0  0  0  0  0  0
   -6.1710   23.5190  -30.8640 C   0  0  0  0  0  0  0  0  0  0  0  0
   -5.1570   22.6230  -30.4790 C   0  0  0  0  0  0  0  0  0  0  0  0
   -3.9030   23.0990  -30.0880 C   0  0  0  0  0  0  0  0  0  0  0  0
   -3.6320   24.4720  -30.0880 C   0  0  0  0  0  0  0  0  0  0  0  0
   -2.3650   24.9080  -29.6690 O   0  0  0  0  0  0  0  0  0  0  0  0
   -2.0160   25.2540  -28.3550 C   0  0  0  0  0  0  0  0  0  0  0  0
   -2.8030   24.8750  -27.2530 C   0  0  0  0  0  0  0  0  0  0  0  0
   -2.4300   25.2530  -25.9590 C   0  0  0  0  0  0  0  0  0  0  0  0
   -1.2790   26.0210  -25.7560 C   0  0  0  0  0  0  0  0  0  0  0  0
   -0.8180   26.5050  -24.1330 Cl  0  0  0  0  0  0  0  0  0  0  0  0
   -0.5030   26.4160  -26.8510 C   0  0  0  0  0  0  0  0  0  0  0  0
   -0.8750   26.0400  -28.1460 C   0  0  0  0  0  0  0  0  0  0  0  0
   -4.6440   25.3710  -30.4620 C   0  0  0  0  0  0  0  0  0  0  0  0
   -5.8970   24.8980  -30.8610 C   0  0  0  0  0  0  0  0  0  0  0  0
   -7.1940   20.2280  -33.0890 C   0  0  0  0  0  0  0  0  0  0  0  0
   -6.1120   19.3270  -33.1410 C   0  0  0  0  0  0  0  0  0  0  0  0
   -4.9470   19.5910  -33.8830 O   0  0  0  0  0  0  0  0  0  0  0  0
   -3.6920   20.0090  -33.3440 C   0  0  0  0  0  0  0  0  0  0  0  0
   -3.6390   21.5290  -33.2090 C   0  0  0  0  0  0  0  0  0  0  0  0
   -6.9941   15.7012  -33.4356 H   0  0  0  0  0  0  0  0  0  0  0  0
   -6.5275   16.7432  -34.8224 H   0  0  0  0  0  0  0  0  0  0  0  0
   -6.0928   15.0003  -34.8224 H   0  0  0  0  0  0  0  0  0  0  0  0
   -4.5115   15.3151  -33.0201 H   0  0  0  0  0  0  0  0  0  0  0  0
   -4.1910   16.5913  -34.2572 H   0  0  0  0  0  0  0  0  0  0  0  0
   -7.3858   16.8793  -31.1061 H   0  0  0  0  0  0  0  0  0  0  0  0
   -9.2718   18.4997  -30.9935 H   0  0  0  0  0  0  0  0  0  0  0  0
   -9.3103   21.7136  -32.9884 H   0  0  0  0  0  0  0  0  0  0  0  0
  -10.4135   20.3952  -32.4395 H   0  0  0  0  0  0  0  0  0  0  0  0
  -10.2691   22.3607  -30.8497 H   0  0  0  0  0  0  0  0  0  0  0  0
   -9.8205   20.7694  -30.1241 H   0  0  0  0  0  0  0  0  0  0  0  0
   -7.8240   21.7670  -29.5510 H   0  0  0  0  0  0  0  0  0  0  0  0
   -5.3528   21.5406  -30.4859 H   0  0  0  0  0  0  0  0  0  0  0  0
   -3.1224   22.3888  -29.7776 H   0  0  0  0  0  0  0  0  0  0  0  0
   -3.7146   24.2795  -27.4091 H   0  0  0  0  0  0  0  0  0  0  0  0
   -3.0433   24.9455  -25.0992 H   0  0  0  0  0  0  0  0  0  0  0  0
    0.4007   27.0230  -26.6934 H   0  0  0  0  0  0  0  0  0  0  0  0
   -0.2685   26.3631  -29.0049 H   0  0  0  0  0  0  0  0  0  0  0  0
   -4.4493   26.4534  -30.4408 H   0  0  0  0  0  0  0  0  0  0  0  0
   -6.6746   25.6098  -31.1750 H   0  0  0  0  0  0  0  0  0  0  0  0
   -7.1434   21.1734  -33.6490 H   0  0  0  0  0  0  0  0  0  0  0  0
   -3.5561   19.5539  -32.3518 H   0  0  0  0  0  0  0  0  0  0  0  0
   -2.8909   19.6875  -34.0258 H   0  0  0  0  0  0  0  0  0  0  0  0
   -3.6295   21.8024  -32.1436 H   0  0  0  0  0  0  0  0  0  0  0  0
   -2.7271   21.9085  -33.6931 H   0  0  0  0  0  0  0  0  0  0  0  0
   -4.5223   21.9711  -33.6931 H   0  0  0  0  0  0  0  0  0  0  0  0
  1  2  1  0
  2  3  1  0
  3  4  1  0
  4  5  2  0
  5  6  1  0
  6  7  2  0
  7  8  1  0
  8  9  1  0
  9 10  1  0
 10 11  1  0
 11 12  2  0
 11 13  1  0
 13 14  2  0
 14 15  1  0
 15 16  2  0
 16 17  1  0
 17 18  1  0
 18 19  2  0
 19 20  1  0
 20 21  2  0
 21 22  1  0
 21 23  1  0
 23 24  2  0
 16 25  1  0
 25 26  2  0
  7 27  1  0
 27 28  2  0
 28 29  1  0
 29 30  1  0
 30 31  1  0
 28  4  1  0
 26 13  1  0
 24 18  1  0
  1 32  1  0
  1 33  1  0
  1 34  1  0
  2 35  1  0
  2 36  1  0
  5 37  1  0
  6 38  1  0
  8 39  1  0
  8 40  1  0
  9 41  1  0
  9 42  1  0
 10 43  1  0
 14 44  1  0
 15 45  1  0
 19 46  1  0
 20 47  1  0
 23 48  1  0
 24 49  1  0
 25 50  1  0
 26 51  1  0
 27 52  1  0
 30 53  1  0
 30 54  1  0
 31 55  1  0
 31 56  1  0
 31 57  1  0
M  END
>  <UniqueID>  (25) 
24

>  <SMILES>  (25) 
CCOc1ccc(CCNC(=O)c2ccc(Oc3ccc(Cl)cc3)cc2)cc1OCC

>  <Energy>  (25) 
59.622204446831645

>  <Genealogy>  (25) 
CCOc1ccc(CCNC(=O)c2ccc(Oc3ccc(Cl)cc3)cc2)cc1OCC (3D coordinates assigned)
CCOc1ccc(CCNC(=O)c2ccc(Oc3ccc(Cl)cc3)cc2)cc1OCC (optimized conformer: 59.622204446831645 kcal/mol)

>  <smiles>  (25) 
CCOc1ccc(CCNC(=O)c2ccc(Oc3ccc(Cl)cc3)cc2)cc1OCC

>  <score_type>  (25) 
oracle

>  <origin>  (25) 
adgpu

>  <m_score__min__energy>  (25) 
-9.5

>  <m_primary>  (25) 
energy

$$$$
25:0
     RDKit          3D

 41 42  0  0  0  0  0  0  0  0999 V2000
   -1.2410   26.8090  -24.5730 C   0  0  0  0  0  0  0  0  0  0  0  0
   -1.1640   26.2510  -25.9930 C   0  0  0  0  0  0  0  0  0  0  0  0
   -1.7300   24.8270  -26.1150 C   0  0  0  0  0  0  0  0  0  0  0  0
   -2.7040   24.6460  -27.2920 C   0  0  0  0  0  0  0  0  0  0  0  0
   -1.8370   24.4960  -28.8970 S   0  0  0  0  0  0  0  0  0  0  0  0
   -3.3350   24.2910  -29.8660 C   0  0  0  0  0  0  0  0  0  0  0  0
   -3.8950   25.2820  -30.5820 N   0  0  0  0  0  0  0  0  0  0  0  0
   -4.9770   24.7770  -31.1580 N   0  0  0  0  0  0  0  0  0  0  0  0
   -5.0560   23.4820  -30.7900 C   0  0  0  0  0  0  0  0  0  0  0  0
   -6.1380   22.5830  -31.2490 C   0  0  0  0  0  0  0  0  0  0  0  0
   -7.3880   22.5630  -30.6080 C   0  0  0  0  0  0  0  0  0  0  0  0
   -8.3910   21.6920  -31.0450 C   0  0  0  0  0  0  0  0  0  0  0  0
   -8.1540   20.8300  -32.1200 C   0  0  0  0  0  0  0  0  0  0  0  0
   -9.4410   19.7050  -32.6710 S   0  0  0  0  0  0  0  0  0  0  0  0
   -8.9310   18.3210  -31.5930 C   0  0  0  0  0  0  0  0  0  0  0  0
   -7.5460   17.8100  -31.9700 C   0  0  0  0  0  0  0  0  0  0  0  0
   -6.9010   20.8220  -32.7410 C   0  0  0  0  0  0  0  0  0  0  0  0
   -5.8960   21.6910  -32.3060 C   0  0  0  0  0  0  0  0  0  0  0  0
   -4.0460   23.1500  -29.9560 N   0  0  0  0  0  0  0  0  0  0  0  0
   -3.7740   21.8770  -29.2880 C   0  0  0  0  0  0  0  0  0  0  0  0
   -1.1277   25.9880  -23.8498 H   0  0  0  0  0  0  0  0  0  0  0  0
   -0.4357   27.5432  -24.4234 H   0  0  0  0  0  0  0  0  0  0  0  0
   -2.2151   27.2976  -24.4234 H   0  0  0  0  0  0  0  0  0  0  0  0
   -1.7356   26.9129  -26.6603 H   0  0  0  0  0  0  0  0  0  0  0  0
   -0.1002   26.2050  -26.2691 H   0  0  0  0  0  0  0  0  0  0  0  0
   -0.8898   24.1299  -26.2495 H   0  0  0  0  0  0  0  0  0  0  0  0
   -2.2984   24.6276  -25.1946 H   0  0  0  0  0  0  0  0  0  0  0  0
   -3.2962   23.7345  -27.1237 H   0  0  0  0  0  0  0  0  0  0  0  0
   -3.3443   25.5393  -27.3384 H   0  0  0  0  0  0  0  0  0  0  0  0
   -7.5786   23.2355  -29.7586 H   0  0  0  0  0  0  0  0  0  0  0  0
   -9.3690   21.6850  -30.5416 H   0  0  0  0  0  0  0  0  0  0  0  0
   -8.9138   18.6670  -30.5490 H   0  0  0  0  0  0  0  0  0  0  0  0
   -9.6512   17.4990  -31.7176 H   0  0  0  0  0  0  0  0  0  0  0  0
   -6.9720   17.5982  -31.0559 H   0  0  0  0  0  0  0  0  0  0  0  0
   -7.6440   16.8888  -32.5631 H   0  0  0  0  0  0  0  0  0  0  0  0
   -7.0222   18.5741  -32.5631 H   0  0  0  0  0  0  0  0  0  0  0  0
   -6.7057   20.1303  -33.5737 H   0  0  0  0  0  0  0  0  0  0  0  0
   -4.9105   21.6759  -32.7944 H   0  0  0  0  0  0  0  0  0  0  0  0
   -3.8048   22.0210  -28.1979 H   0  0  0  0  0  0  0  0  0  0  0  0
   -4.5347   21.1388  -29.5819 H   0  0  0  0  0  0  0  0  0  0  0  0
   -2.7780   21.5141  -29.5819 H   0  0  0  0  0  0  0  0  0  0  0  0
  1  2  1  0
  2  3  1  0
  3  4  1  0
  4  5  1  0
  5  6  1  0
  6  7  2  0
  7  8  1  0
  8  9  2  0
  9 10  1  0
 10 11  2  0
 11 12  1  0
 12 13  2  0
 13 14  1  0
 14 15  1  0
 15 16  1  0
 13 17  1  0
 17 18  2  0
  9 19  1  0
 19 20  1  0
 19  6  1  0
 18 10  1  0
  1 21  1  0
  1 22  1  0
  1 23  1  0
  2 24  1  0
  2 25  1  0
  3 26  1  0
  3 27  1  0
  4 28  1  0
  4 29  1  0
 11 30  1  0
 12 31  1  0
 15 32  1  0
 15 33  1  0
 16 34  1  0
 16 35  1  0
 16 36  1  0
 17 37  1  0
 18 38  1  0
 20 39  1  0
 20 40  1  0
 20 41  1  0
M  END
>  <UniqueID>  (26) 
25

>  <SMILES>  (26) 
CCCCSc1nnc(-c2ccc(SCC)cc2)n1C

>  <Energy>  (26) 
65.86305157307496

>  <Genealogy>  (26) 
CCCCSc1nnc(-c2ccc(SCC)cc2)n1C (3D coordinates assigned)
CCCCSc1nnc(-c2ccc(SCC)cc2)n1C (optimized conformer: 65.86305157307496 kcal/mol)

>  <smiles>  (26) 
CCCCSc1nnc(-c2ccc(SCC)cc2)n1C

>  <score_type>  (26) 
oracle

>  <origin>  (26) 
adgpu

>  <m_score__min__energy>  (26) 
-8.1199999999999992

>  <m_primary>  (26) 
energy

$$$$
26:0
     RDKit          3D

 42 45  0  0  0  0  0  0  0  0999 V2000
   -9.6800   19.1690  -33.5160 H   0  0  0  0  0  0  0  0  0  0  0  0
   -9.1350   19.9520  -33.0890 N   0  0  0  0  0  0  0  0  0  0  0  0
   -7.8510   19.8840  -32.9490 C   0  0  0  0  0  0  0  0  0  0  0  0
   -7.1740   18.7800  -33.3590 N   0  0  0  0  0  0  0  0  0  0  0  0
   -5.8240   18.6860  -33.2240 C   0  0  0  0  0  0  0  0  0  0  0  0
   -5.1350   17.4500  -33.6630 C   0  0  0  0  0  0  0  0  0  0  0  0
   -3.7540   17.4930  -33.9250 C   0  0  0  0  0  0  0  0  0  0  0  0
   -3.2037   18.4366  -33.7957 H   0  0  0  0  0  0  0  0  0  0  0  0
   -3.0750   16.3480  -34.3480 C   0  0  0  0  0  0  0  0  0  0  0  0
   -1.9962   16.3951  -34.5576 H   0  0  0  0  0  0  0  0  0  0  0  0
   -3.7630   15.1450  -34.5050 C   0  0  0  0  0  0  0  0  0  0  0  0
   -3.2276   14.2459  -34.8441 H   0  0  0  0  0  0  0  0  0  0  0  0
   -5.1310   15.0810  -34.2320 C   0  0  0  0  0  0  0  0  0  0  0  0
   -5.6697   14.1300  -34.3563 H   0  0  0  0  0  0  0  0  0  0  0  0
   -5.8220   16.2230  -33.8000 C   0  0  0  0  0  0  0  0  0  0  0  0
   -7.1780   16.1300  -33.4860 O   0  0  0  0  0  0  0  0  0  0  0  0
   -7.7350   16.9530  -33.2830 H   0  0  0  0  0  0  0  0  0  0  0  0
   -5.1220   19.7440  -32.6290 C   0  0  0  0  0  0  0  0  0  0  0  0
   -4.0335   19.6797  -32.4842 H   0  0  0  0  0  0  0  0  0  0  0  0
   -5.8280   20.8860  -32.2210 C   0  0  0  0  0  0  0  0  0  0  0  0
   -5.1430   22.0440  -31.5880 C   0  0  0  0  0  0  0  0  0  0  0  0
   -5.6410   23.3520  -31.7260 C   0  0  0  0  0  0  0  0  0  0  0  0
   -6.5493   23.5303  -32.3203 H   0  0  0  0  0  0  0  0  0  0  0  0
   -4.9920   24.4250  -31.1150 C   0  0  0  0  0  0  0  0  0  0  0  0
   -5.3900   25.4436  -31.2333 H   0  0  0  0  0  0  0  0  0  0  0  0
   -3.8400   24.2140  -30.3540 C   0  0  0  0  0  0  0  0  0  0  0  0
   -3.2330   25.3010  -29.7320 O   0  0  0  0  0  0  0  0  0  0  0  0
   -3.3220   22.9130  -30.2020 C   0  0  0  0  0  0  0  0  0  0  0  0
   -2.0960   22.6610  -29.4070 C   0  0  0  0  0  0  0  0  0  0  0  0
   -1.9360   21.4570  -28.6980 C   0  0  0  0  0  0  0  0  0  0  0  0
   -2.7234   20.6899  -28.7388 H   0  0  0  0  0  0  0  0  0  0  0  0
   -0.7830   21.2290  -27.9420 C   0  0  0  0  0  0  0  0  0  0  0  0
   -0.6633   20.2822  -27.3949 H   0  0  0  0  0  0  0  0  0  0  0  0
    0.2190   22.2030  -27.8800 C   0  0  0  0  0  0  0  0  0  0  0  0
    1.3640   21.9750  -27.1280 O   0  0  0  0  0  0  0  0  0  0  0  0
    0.0660   23.4060  -28.5750 C   0  0  0  0  0  0  0  0  0  0  0  0
    0.8534   24.1725  -28.5255 H   0  0  0  0  0  0  0  0  0  0  0  0
   -1.0860   23.6370  -29.3330 C   0  0  0  0  0  0  0  0  0  0  0  0
   -1.2030   24.5873  -29.8745 H   0  0  0  0  0  0  0  0  0  0  0  0
   -3.9880   21.8350  -30.8140 C   0  0  0  0  0  0  0  0  0  0  0  0
   -3.5994   20.8141  -30.6850 H   0  0  0  0  0  0  0  0  0  0  0  0
   -7.1790   20.9210  -32.3870 N   0  0  0  0  0  0  0  0  0  0  0  0
  1  2  1  0
  2  3  2  0
  3  4  1  0
  4  5  2  0
  5  6  1  0
  6  7  2  0
  7  8  1  0
  7  9  1  0
  9 10  1  0
  9 11  2  0
 11 12  1  0
 11 13  1  0
 13 14  1  0
 13 15  2  0
 15 16  1  0
 16 17  1  0
  5 18  1  0
 18 19  1  0
 18 20  2  0
 20 21  1  0
 21 22  2  0
 22 23  1  0
 22 24  1  0
 24 25  1  0
 24 26  2  0
 26 27  1  0
 26 28  1  0
 28 29  1  0
 29 30  2  0
 30 31  1  0
 30 32  1  0
 32 33  1  0
 32 34  2  0
 34 35  1  0
 34 36  1  0
 36 37  1  0
 36 38  2  0
 38 39  1  0
 28 40  2  0
 40 41  1  0
 20 42  1  0
 42  3  1  0
 15  6  1  0
 40 21  1  0
 38 29  1  0
M  CHG  3  27  -1  35  -1  42  -1
M  END
>  <UniqueID>  (27) 
26

>  <SMILES>  (27) 
[H]/N=c1\nc(-c2ccccc2O)cc(-c2ccc([O-])c(-c3ccc([O-])cc3)c2)[n-]1

>  <Energy>  (27) 
63.754261596729215

>  <Genealogy>  (27) 
N=c1nc(-c2ccccc2O)cc(-c2ccc([O-])c(-c3ccc([O-])cc3)c2)[n-]1 (protonated)
[H]/N=c1\nc(-c2ccccc2O)cc(-c2ccc([O-])c(-c3ccc([O-])cc3)c2)[n-]1 (cis-trans isomerization)
[H]/N=c1\nc(-c2ccccc2O)cc(-c2ccc([O-])c(-c3ccc([O-])cc3)c2)[n-]1 (3D coordinates assigned)
[H]/N=c1\nc(-c2ccccc2O)cc(-c2ccc([O-])c(-c3ccc([O-])cc3)c2)[n-]1 (optimized conformer: 63.754261596729215 kcal/mol)

>  <smiles>  (27) 
N=c1nc(-c2ccccc2O)cc(-c2ccc(O)c(-c3ccc(O)cc3)c2)[nH]1

>  <score_type>  (27) 
oracle

>  <origin>  (27) 
adgpu

>  <m_score__min__energy>  (27) 
-12.039999999999999

>  <m_primary>  (27) 
energy

$$$$
27:0
     RDKit          3D

 57 61  0  0  0  0  0  0  0  0999 V2000
   -0.2952   17.8252  -32.3005 H   0  0  0  0  0  0  0  0  0  0  0  0
   -0.2610   18.9230  -32.3610 C   0  0  0  0  0  0  0  0  0  0  0  0
   -0.2080   19.5360  -33.5720 N   0  0  0  0  0  0  0  0  0  0  0  0
   -0.1770   20.8910  -33.6690 C   0  0  0  0  0  0  0  0  0  0  0  0
   -0.0960   21.5430  -35.0090 C   0  0  0  0  0  0  0  0  0  0  0  0
    0.0387   22.6273  -34.8817 H   0  0  0  0  0  0  0  0  0  0  0  0
    0.7578   21.1304  -35.5665 H   0  0  0  0  0  0  0  0  0  0  0  0
   -1.0248   21.3519  -35.5665 H   0  0  0  0  0  0  0  0  0  0  0  0
   -0.1680   21.6520  -32.5420 N   0  0  0  0  0  0  0  0  0  0  0  0
   -0.1870   21.0800  -31.3090 C   0  0  0  0  0  0  0  0  0  0  0  0
   -0.2430   21.9120  -30.1450 N   0  0  0  0  0  0  0  0  0  0  0  0
   -1.1790   22.7350  -29.7440 C   0  0  0  0  0  0  0  0  0  0  0  0
   -0.8060   23.6380  -28.7440 C   0  0  0  0  0  0  0  0  0  0  0  0
    0.1703   23.5304  -28.2487 H   0  0  0  0  0  0  0  0  0  0  0  0
   -1.6610   24.6740  -28.3690 C   0  0  0  0  0  0  0  0  0  0  0  0
   -1.2700   25.6730  -27.3420 C   0  0  0  0  0  0  0  0  0  0  0  0
   -0.8640   26.9690  -27.7180 C   0  0  0  0  0  0  0  0  0  0  0  0
   -0.8257   27.2417  -28.7830 H   0  0  0  0  0  0  0  0  0  0  0  0
   -0.5090   27.9120  -26.7460 C   0  0  0  0  0  0  0  0  0  0  0  0
   -0.0100   29.5240  -27.2280 Cl  0  0  0  0  0  0  0  0  0  0  0  0
   -0.5590   27.5720  -25.3920 C   0  0  0  0  0  0  0  0  0  0  0  0
   -0.2780   28.3126  -24.6287 H   0  0  0  0  0  0  0  0  0  0  0  0
   -0.9650   26.2940  -25.0070 C   0  0  0  0  0  0  0  0  0  0  0  0
   -1.0030   26.0298  -23.9399 H   0  0  0  0  0  0  0  0  0  0  0  0
   -1.3240   25.3470  -25.9720 C   0  0  0  0  0  0  0  0  0  0  0  0
   -1.6950   24.1060  -25.5650 F   0  0  0  0  0  0  0  0  0  0  0  0
   -2.8660   24.7830  -28.9780 N   0  0  0  0  0  0  0  0  0  0  0  0
   -3.3220   23.9070  -29.9110 C   0  0  0  0  0  0  0  0  0  0  0  0
   -2.5200   22.7710  -30.2560 C   0  0  0  0  0  0  0  0  0  0  0  0
   -3.0760   21.5810  -31.0410 C   0  0  0  0  0  0  0  0  0  0  0  0
   -2.9881   21.8126  -32.1127 H   0  0  0  0  0  0  0  0  0  0  0  0
   -2.4850   20.7097  -30.7223 H   0  0  0  0  0  0  0  0  0  0  0  0
   -4.5380   21.2200  -30.7560 C   0  0  0  0  0  0  0  0  0  0  0  0
   -4.7201   20.1793  -31.0623 H   0  0  0  0  0  0  0  0  0  0  0  0
   -4.7299   21.3378  -29.6793 H   0  0  0  0  0  0  0  0  0  0  0  0
   -5.4390   22.1050  -31.4970 N   0  0  0  0  0  0  0  0  0  0  0  0
   -6.7870   21.6840  -31.7390 C   0  0  0  0  0  0  0  0  0  0  0  0
   -7.8050   22.3710  -31.1510 N   0  0  0  0  0  0  0  0  0  0  0  0
   -9.1050   22.0190  -31.3170 C   0  0  0  0  0  0  0  0  0  0  0  0
   -9.8997   22.6038  -30.8308 H   0  0  0  0  0  0  0  0  0  0  0  0
   -9.4330   20.9160  -32.1040 C   0  0  0  0  0  0  0  0  0  0  0  0
  -10.4844   20.6201  -32.2341 H   0  0  0  0  0  0  0  0  0  0  0  0
   -8.4160   20.1910  -32.7250 C   0  0  0  0  0  0  0  0  0  0  0  0
   -8.6672   19.3148  -33.3408 H   0  0  0  0  0  0  0  0  0  0  0  0
   -7.0710   20.5730  -32.5690 C   0  0  0  0  0  0  0  0  0  0  0  0
   -5.9660   19.7840  -33.2380 C   0  0  0  0  0  0  0  0  0  0  0  0
   -5.4250   18.8870  -32.3360 F   0  0  0  0  0  0  0  0  0  0  0  0
   -6.4390   19.0780  -34.3300 F   0  0  0  0  0  0  0  0  0  0  0  0
   -4.9720   20.6360  -33.6820 F   0  0  0  0  0  0  0  0  0  0  0  0
   -5.0660   23.4980  -31.7480 C   0  0  0  0  0  0  0  0  0  0  0  0
   -4.1953   23.5242  -32.4198 H   0  0  0  0  0  0  0  0  0  0  0  0
   -5.9183   24.0165  -32.2114 H   0  0  0  0  0  0  0  0  0  0  0  0
   -4.7120   24.2020  -30.4380 C   0  0  0  0  0  0  0  0  0  0  0  0
   -4.7929   25.2869  -30.6003 H   0  0  0  0  0  0  0  0  0  0  0  0
   -5.4156   23.8213  -29.6830 H   0  0  0  0  0  0  0  0  0  0  0  0
   -0.2720   19.6870  -31.1950 C   0  0  0  0  0  0  0  0  0  0  0  0
   -0.3458   19.2066  -30.2082 H   0  0  0  0  0  0  0  0  0  0  0  0
  1  2  1  0
  2  3  2  0
  3  4  1  0
  4  5  1  0
  5  6  1  0
  5  7  1  0
  5  8  1  0
  4  9  2  0
  9 10  1  0
 10 11  1  0
 11 12  2  0
 12 13  1  0
 13 14  1  0
 13 15  2  0
 15 16  1  0
 16 17  2  0
 17 18  1  0
 17 19  1  0
 19 20  1  0
 19 21  2  0
 21 22  1  0
 21 23  1  0
 23 24  1  0
 23 25  2  0
 25 26  1  0
 15 27  1  0
 27 28  1  0
 28 29  2  0
 29 30  1  0
 30 31  1  0
 30 32  1  0
 30 33  1  0
 33 34  1  0
 33 35  1  0
 33 36  1  0
 36 37  1  0
 37 38  2  0
 38 39  1  0
 39 40  1  0
 39 41  2  0
 41 42  1  0
 41 43  1  0
 43 44  1  0
 43 45  2  0
 45 46  1  0
 46 47  1  0
 46 48  1  0
 46 49  1  0
 36 50  1  0
 50 51  1  0
 50 52  1  0
 50 53  1  0
 53 54  1  0
 53 55  1  0
 10 56  2  0
 56 57  1  0
 56  2  1  0
 29 12  1  0
 45 37  1  0
 25 16  1  0
 53 28  1  0
M  CHG  1  27  -1
M  END
>  <UniqueID>  (28) 
27

>  <SMILES>  (28) 
Cc1nccc(/N=c2/cc(-c3cc(Cl)ccc3F)[n-]c3c2CCN(c2ncccc2C(F)(F)F)CC3)n1

>  <Energy>  (28) 
104.24486687321937

>  <Genealogy>  (28) 
Cc1nccc(N=c2cc(-c3cc(Cl)ccc3F)[n-]c3c2CCN(c2ncccc2C(F)(F)F)CC3)n1 (protonated)
Cc1nccc(/N=c2/cc(-c3cc(Cl)ccc3F)[n-]c3c2CCN(c2ncccc2C(F)(F)F)CC3)n1 (cis-trans isomerization)
Cc1nccc(/N=c2/cc(-c3cc(Cl)ccc3F)[n-]c3c2CCN(c2ncccc2C(F)(F)F)CC3)n1 (3D coordinates assigned)
Cc1nccc(/N=c2/cc(-c3cc(Cl)ccc3F)[n-]c3c2CCN(c2ncccc2C(F)(F)F)CC3)n1 (nonaromatic ring conformer: 104.24486687321937 kcal/mol)

>  <smiles>  (28) 
Cc1nccc(N=c2cc(-c3cc(Cl)ccc3F)[nH]c3c2CCN(c2ncccc2C(F)(F)F)CC3)n1

>  <score_type>  (28) 
oracle

>  <origin>  (28) 
adgpu

>  <m_score__min__energy>  (28) 
-8.6500000000000004

>  <m_primary>  (28) 
energy

$$$$
28:0
     RDKit          3D

 28 29  0  0  0  0  0  0  0  0999 V2000
   -6.1140   17.9400  -34.5930 C   0  0  0  0  0  0  0  0  0  0  0  0
   -6.1230   19.1870  -33.7460 C   0  0  0  0  0  0  0  0  0  0  0  0
   -7.3160   19.6820  -33.3080 N   0  0  0  0  0  0  0  0  0  0  0  0
   -7.4060   20.8010  -32.5330 C   0  0  0  0  0  0  0  0  0  0  0  0
   -8.7670   21.2550  -32.0720 C   0  0  0  0  0  0  0  0  0  0  0  0
   -6.2340   21.5130  -32.1920 C   0  0  0  0  0  0  0  0  0  0  0  0
   -6.2900   22.7660  -31.4020 C   0  0  0  0  0  0  0  0  0  0  0  0
   -5.7450   23.9900  -31.7770 C   0  0  0  0  0  0  0  0  0  0  0  0
   -5.9930   25.0130  -30.8530 C   0  0  0  0  0  0  0  0  0  0  0  0
   -6.7390   24.6060  -29.7560 C   0  0  0  0  0  0  0  0  0  0  0  0
   -7.0920   22.9730  -29.9360 S   0  0  0  0  0  0  0  0  0  0  0  0
   -4.9900   21.0110  -32.6190 C   0  0  0  0  0  0  0  0  0  0  0  0
   -3.9320   21.6380  -32.3340 O   0  0  0  0  0  0  0  0  0  0  0  0
   -4.9190   19.8260  -33.3750 C   0  0  0  0  0  0  0  0  0  0  0  0
   -3.5830   19.2940  -33.8420 C   0  0  0  0  0  0  0  0  0  0  0  0
   -6.1076   17.0540  -33.9411 H   0  0  0  0  0  0  0  0  0  0  0  0
   -7.0120   17.9216  -35.2280 H   0  0  0  0  0  0  0  0  0  0  0  0
   -5.2158   17.9345  -35.2280 H   0  0  0  0  0  0  0  0  0  0  0  0
   -8.1960   19.1820  -33.5720 H   0  0  0  0  0  0  0  0  0  0  0  0
   -8.7972   21.2651  -30.9725 H   0  0  0  0  0  0  0  0  0  0  0  0
   -8.9644   22.2677  -32.4535 H   0  0  0  0  0  0  0  0  0  0  0  0
   -9.5328   20.5637  -32.4535 H   0  0  0  0  0  0  0  0  0  0  0  0
   -5.1761   24.1394  -32.7065 H   0  0  0  0  0  0  0  0  0  0  0  0
   -5.6302   26.0431  -30.9847 H   0  0  0  0  0  0  0  0  0  0  0  0
   -7.0464   25.2429  -28.9134 H   0  0  0  0  0  0  0  0  0  0  0  0
   -2.9614   19.0465  -32.9689 H   0  0  0  0  0  0  0  0  0  0  0  0
   -3.7401   18.3898  -34.4484 H   0  0  0  0  0  0  0  0  0  0  0  0
   -3.0755   20.0587  -34.4484 H   0  0  0  0  0  0  0  0  0  0  0  0
  1  2  1  0
  2  3  1  0
  3  4  1  0
  4  5  1  0
  4  6  2  0
  6  7  1  0
  7  8  2  0
  8  9  1  0
  9 10  2  0
 10 11  1  0
  6 12  1  0
 12 13  2  0
 12 14  1  0
 14 15  1  0
 14  2  2  0
 11  7  1  0
  1 16  1  0
  1 17  1  0
  1 18  1  0
  3 19  1  0
  5 20  1  0
  5 21  1  0
  5 22  1  0
  8 23  1  0
  9 24  1  0
 10 25  1  0
 15 26  1  0
 15 27  1  0
 15 28  1  0
M  END
>  <UniqueID>  (29) 
28

>  <SMILES>  (29) 
Cc1[nH]c(C)c(-c2cccs2)c(=O)c1C

>  <Energy>  (29) 
63.58630338867522

>  <Genealogy>  (29) 
Cc1[nH]c(C)c(-c2cccs2)c(=O)c1C (3D coordinates assigned)
Cc1[nH]c(C)c(-c2cccs2)c(=O)c1C (optimized conformer: 63.58630338867522 kcal/mol)

>  <smiles>  (29) 
Cc1[nH]c(C)c(-c2cccs2)c(=O)c1C

>  <score_type>  (29) 
oracle

>  <origin>  (29) 
adgpu

>  <m_score__min__energy>  (29) 
-6.4299999999999997

>  <m_primary>  (29) 
energy

$$$$
29:0
     RDKit          3D

 41 45  0  0  0  0  0  0  0  0999 V2000
    1.5226   22.4727  -35.3127 H   0  0  0  0  0  0  0  0  0  0  0  0
    0.9080   21.7350  -34.7760 C   0  0  0  0  0  0  0  0  0  0  0  0
   -0.4300   21.8980  -34.5900 N   0  0  0  0  0  0  0  0  0  0  0  0
   -0.9830   20.8710  -33.9030 C   0  0  0  0  0  0  0  0  0  0  0  0
   -2.4220   20.7950  -33.5630 C   0  0  0  0  0  0  0  0  0  0  0  0
   -3.0900   21.9260  -33.0800 C   0  0  0  0  0  0  0  0  0  0  0  0
   -2.5389   22.8696  -32.9542 H   0  0  0  0  0  0  0  0  0  0  0  0
   -4.4460   21.8720  -32.7560 C   0  0  0  0  0  0  0  0  0  0  0  0
   -4.9482   22.7746  -32.3778 H   0  0  0  0  0  0  0  0  0  0  0  0
   -5.1860   20.6750  -32.9060 C   0  0  0  0  0  0  0  0  0  0  0  0
   -6.5730   20.5680  -32.6050 C   0  0  0  0  0  0  0  0  0  0  0  0
   -7.3420   21.6660  -32.1420 C   0  0  0  0  0  0  0  0  0  0  0  0
   -6.8606   22.6457  -32.0063 H   0  0  0  0  0  0  0  0  0  0  0  0
   -8.7000   21.5220  -31.8560 C   0  0  0  0  0  0  0  0  0  0  0  0
   -9.2780   22.3866  -31.4977 H   0  0  0  0  0  0  0  0  0  0  0  0
   -9.3260   20.2940  -32.0210 C   0  0  0  0  0  0  0  0  0  0  0  0
  -10.3967   20.1880  -31.7921 H   0  0  0  0  0  0  0  0  0  0  0  0
   -8.6000   19.1960  -32.4760 C   0  0  0  0  0  0  0  0  0  0  0  0
   -9.1033   18.2263  -32.6040 H   0  0  0  0  0  0  0  0  0  0  0  0
   -7.2240   19.3140  -32.7750 C   0  0  0  0  0  0  0  0  0  0  0  0
   -6.4870   18.1980  -33.2300 C   0  0  0  0  0  0  0  0  0  0  0  0
   -7.0930   17.0480  -33.3790 N   0  0  0  0  0  0  0  0  0  0  0  0
   -6.5040   15.7830  -33.7180 C   0  0  0  0  0  0  0  0  0  0  0  0
   -5.2580   15.3970  -33.1940 C   0  0  0  0  0  0  0  0  0  0  0  0
   -4.6960   16.0888  -32.5493 H   0  0  0  0  0  0  0  0  0  0  0  0
   -4.7310   14.1360  -33.4900 C   0  0  0  0  0  0  0  0  0  0  0  0
   -3.7462   13.8452  -33.0954 H   0  0  0  0  0  0  0  0  0  0  0  0
   -5.4550   13.2450  -34.2870 C   0  0  0  0  0  0  0  0  0  0  0  0
   -5.0368   12.2562  -34.5263 H   0  0  0  0  0  0  0  0  0  0  0  0
   -6.7110   13.6110  -34.7800 C   0  0  0  0  0  0  0  0  0  0  0  0
   -7.2842   12.9061  -35.4001 H   0  0  0  0  0  0  0  0  0  0  0  0
   -7.2400   14.8720  -34.4860 C   0  0  0  0  0  0  0  0  0  0  0  0
   -8.2370   15.1490  -34.8591 H   0  0  0  0  0  0  0  0  0  0  0  0
   -5.1660   18.3460  -33.5440 N   0  0  0  0  0  0  0  0  0  0  0  0
   -4.6360   17.5440  -33.9520 H   0  0  0  0  0  0  0  0  0  0  0  0
   -4.5050   19.5270  -33.3880 C   0  0  0  0  0  0  0  0  0  0  0  0
   -3.1400   19.6010  -33.7130 C   0  0  0  0  0  0  0  0  0  0  0  0
   -2.6257   18.7055  -34.0920 H   0  0  0  0  0  0  0  0  0  0  0  0
    0.1900   19.7240  -33.5090 S   0  0  0  0  0  0  0  0  0  0  0  0
    1.4420   20.5710  -34.2400 C   0  0  0  0  0  0  0  0  0  0  0  0
    2.4960   20.2596  -34.2860 H   0  0  0  0  0  0  0  0  0  0  0  0
  1  2  1  0
  2  3  1  0
  3  4  2  0
  4  5  1  0
  5  6  2  0
  6  7  1  0
  6  8  1  0
  8  9  1  0
  8 10  2  0
 10 11  1  0
 11 12  2  0
 12 13  1  0
 12 14  1  0
 14 15  1  0
 14 16  2  0
 16 17  1  0
 16 18  1  0
 18 19  1  0
 18 20  2  0
 20 21  1  0
 21 22  2  0
 22 23  1  0
 23 24  2  0
 24 25  1  0
 24 26  1  0
 26 27  1  0
 26 28  2  0
 28 29  1  0
 28 30  1  0
 30 31  1  0
 30 32  2  0
 32 33  1  0
 21 34  1  0
 34 35  1  0
 34 36  1  0
 36 37  2  0
 37 38  1  0
  4 39  1  0
 39 40  1  0
 40 41  1  0
 40  2  2  0
 37  5  1  0
 36 10  1  0
 20 11  1  0
 32 23  1  0
M  END
>  <UniqueID>  (30) 
29

>  <SMILES>  (30) 
c1ccc(/N=c2\[nH]c3cc(-c4nccs4)ccc3c3ccccc23)cc1

>  <Energy>  (30) 
101.3156746284652

>  <Genealogy>  (30) 
c1ccc(/N=c2\[nH]c3cc(-c4nccs4)ccc3c3ccccc23)cc1 (cis-trans isomerization)
c1ccc(/N=c2\[nH]c3cc(-c4nccs4)ccc3c3ccccc23)cc1 (3D coordinates assigned)
c1ccc(/N=c2\[nH]c3cc(-c4nccs4)ccc3c3ccccc23)cc1 (optimized conformer: 101.3156746284652 kcal/mol)

>  <smiles>  (30) 
c1ccc(N=c2[nH]c3cc(-c4nccs4)ccc3c3ccccc23)cc1

>  <score_type>  (30) 
oracle

>  <origin>  (30) 
adgpu

>  <m_score__min__energy>  (30) 
-8.6999999999999993

>  <m_primary>  (30) 
energy

$$$$
30:0
     RDKit          3D

 36 38  0  0  0  0  0  0  0  0999 V2000
   -5.7620   15.3360  -33.5450 C   0  0  0  0  0  0  0  0  0  0  0  0
   -5.9910   16.7990  -33.7180 C   0  0  0  0  0  0  0  0  0  0  0  0
   -6.4570   17.6070  -32.7500 N   0  0  0  0  0  0  0  0  0  0  0  0
   -6.5200   18.7940  -33.3930 C   0  0  0  0  0  0  0  0  0  0  0  0
   -6.9410   20.0720  -32.7660 C   0  0  0  0  0  0  0  0  0  0  0  0
   -8.2270   20.1430  -32.2010 C   0  0  0  0  0  0  0  0  0  0  0  0
   -8.6860   21.3200  -31.6160 C   0  0  0  0  0  0  0  0  0  0  0  0
   -7.8720   22.4480  -31.5810 C   0  0  0  0  0  0  0  0  0  0  0  0
   -6.5750   22.4120  -32.1180 C   0  0  0  0  0  0  0  0  0  0  0  0
   -5.7390   23.5820  -32.0650 N   0  0  0  0  0  0  0  0  0  0  0  0
   -5.1890   24.2750  -30.5710 S   0  0  0  0  0  0  0  0  0  0  0  0
   -4.2320   25.3940  -30.8640 O   0  0  0  0  0  0  0  0  0  0  0  0
   -6.3700   24.8220  -29.8190 O   0  0  0  0  0  0  0  0  0  0  0  0
   -4.3530   23.0510  -29.6190 C   0  0  0  0  0  0  0  0  0  0  0  0
   -4.2330   23.2120  -28.2330 C   0  0  0  0  0  0  0  0  0  0  0  0
   -3.5530   22.2590  -27.4690 C   0  0  0  0  0  0  0  0  0  0  0  0
   -2.9920   21.1350  -28.0880 C   0  0  0  0  0  0  0  0  0  0  0  0
   -2.2900   20.1540  -27.3030 C   0  0  0  0  0  0  0  0  0  0  0  0
   -1.7260   19.3660  -26.6720 N   0  0  0  0  0  0  0  0  0  0  0  0
   -3.1140   20.9690  -29.4740 C   0  0  0  0  0  0  0  0  0  0  0  0
   -3.7930   21.9240  -30.2370 C   0  0  0  0  0  0  0  0  0  0  0  0
   -6.1030   21.2180  -32.7130 C   0  0  0  0  0  0  0  0  0  0  0  0
   -4.4300   21.1530  -33.2820 Cl  0  0  0  0  0  0  0  0  0  0  0  0
   -6.1060   18.6970  -34.6740 N   0  0  0  0  0  0  0  0  0  0  0  0
   -5.7950   17.4480  -34.8380 O   0  0  0  0  0  0  0  0  0  0  0  0
   -5.7243   15.0951  -32.4724 H   0  0  0  0  0  0  0  0  0  0  0  0
   -6.5837   14.7778  -34.0175 H   0  0  0  0  0  0  0  0  0  0  0  0
   -4.8090   15.0556  -34.0175 H   0  0  0  0  0  0  0  0  0  0  0  0
   -8.8786   19.2570  -32.2216 H   0  0  0  0  0  0  0  0  0  0  0  0
   -9.6952   21.3584  -31.1801 H   0  0  0  0  0  0  0  0  0  0  0  0
   -8.2483   23.3772  -31.1282 H   0  0  0  0  0  0  0  0  0  0  0  0
   -5.3480   23.9870  -32.9430 H   0  0  0  0  0  0  0  0  0  0  0  0
   -4.6757   24.0920  -27.7435 H   0  0  0  0  0  0  0  0  0  0  0  0
   -3.4585   22.3920  -26.3812 H   0  0  0  0  0  0  0  0  0  0  0  0
   -2.6751   20.0864  -29.9624 H   0  0  0  0  0  0  0  0  0  0  0  0
   -3.8880   21.7907  -31.3248 H   0  0  0  0  0  0  0  0  0  0  0  0
  1  2  1  0
  2  3  2  0
  3  4  1  0
  4  5  1  0
  5  6  2  0
  6  7  1  0
  7  8  2  0
  8  9  1  0
  9 10  1  0
 10 11  1  0
 11 12  2  0
 11 13  2  0
 11 14  1  0
 14 15  2  0
 15 16  1  0
 16 17  2  0
 17 18  1  0
 18 19  3  0
 17 20  1  0
 20 21  2  0
  9 22  2  0
 22 23  1  0
  4 24  2  0
 24 25  1  0
 25  2  1  0
 22  5  1  0
 21 14  1  0
  1 26  1  0
  1 27  1  0
  1 28  1  0
  6 29  1  0
  7 30  1  0
  8 31  1  0
 10 32  1  0
 15 33  1  0
 16 34  1  0
 20 35  1  0
 21 36  1  0
M  END
>  <UniqueID>  (31) 
30

>  <SMILES>  (31) 
Cc1nc(-c2cccc(NS(=O)(=O)c3ccc(C#N)cc3)c2Cl)no1

>  <Energy>  (31) 
78.44091560663654

>  <Genealogy>  (31) 
Cc1nc(-c2cccc(NS(=O)(=O)c3ccc(C#N)cc3)c2Cl)no1 (3D coordinates assigned)
Cc1nc(-c2cccc(NS(=O)(=O)c3ccc(C#N)cc3)c2Cl)no1 (optimized conformer: 78.44091560663654 kcal/mol)

>  <smiles>  (31) 
Cc1nc(-c2cccc(NS(=O)(=O)c3ccc(C#N)cc3)c2Cl)no1

>  <score_type>  (31) 
oracle

>  <origin>  (31) 
adgpu

>  <m_score__min__energy>  (31) 
-10.02

>  <m_primary>  (31) 
energy

$$$$
31:0
     RDKit          3D

 53 56  0  0  0  0  0  0  0  0999 V2000
    1.1260   19.2010  -32.7580 C   0  0  0  0  0  0  0  0  0  0  0  0
   -0.2340   19.8410  -32.7480 C   0  0  0  0  0  0  0  0  0  0  0  0
   -1.0630   19.7070  -31.6220 C   0  0  0  0  0  0  0  0  0  0  0  0
   -2.3280   20.2980  -31.5990 C   0  0  0  0  0  0  0  0  0  0  0  0
   -2.7780   21.0460  -32.6980 C   0  0  0  0  0  0  0  0  0  0  0  0
   -4.0610   21.6870  -32.6940 N   0  0  0  0  0  0  0  0  0  0  0  0
   -4.5000   22.6830  -31.7600 C   0  0  0  0  0  0  0  0  0  0  0  0
   -3.6440   23.4320  -31.2210 O   0  0  0  0  0  0  0  0  0  0  0  0
   -5.9260   22.8700  -31.4280 C   0  0  0  0  0  0  0  0  0  0  0  0
   -6.4880   24.0880  -31.0500 C   0  0  0  0  0  0  0  0  0  0  0  0
   -5.7400   25.3350  -30.7080 C   0  0  0  0  0  0  0  0  0  0  0  0
   -7.8000   24.0220  -31.0920 O   0  0  0  0  0  0  0  0  0  0  0  0
   -8.1260   22.8120  -31.4750 C   0  0  0  0  0  0  0  0  0  0  0  0
   -9.4130   22.3390  -31.6880 C   0  0  0  0  0  0  0  0  0  0  0  0
   -9.5650   21.0240  -32.1390 C   0  0  0  0  0  0  0  0  0  0  0  0
   -8.4410   20.1850  -32.3120 C   0  0  0  0  0  0  0  0  0  0  0  0
   -8.6320   18.8870  -32.7820 O   0  0  0  0  0  0  0  0  0  0  0  0
   -7.1350   20.6560  -32.0170 C   0  0  0  0  0  0  0  0  0  0  0  0
   -5.9690   19.6800  -31.9690 C   0  0  0  0  0  0  0  0  0  0  0  0
   -6.0980   18.5450  -32.9130 N   0  0  0  0  0  0  0  0  0  0  0  0
   -5.9430   17.1860  -32.3440 C   0  0  0  0  0  0  0  0  0  0  0  0
   -5.0020   16.2870  -33.1620 C   0  0  0  0  0  0  0  0  0  0  0  0
   -3.7670   17.0720  -33.5950 C   0  0  0  0  0  0  0  0  0  0  0  0
   -4.1370   18.2790  -34.4710 C   0  0  0  0  0  0  0  0  0  0  0  0
   -5.5940   18.7510  -34.2850 C   0  0  0  0  0  0  0  0  0  0  0  0
   -7.0100   22.0270  -31.6750 C   0  0  0  0  0  0  0  0  0  0  0  0
   -1.9720   21.1490  -33.8360 C   0  0  0  0  0  0  0  0  0  0  0  0
   -0.7030   20.5610  -33.8650 C   0  0  0  0  0  0  0  0  0  0  0  0
    0.2780   20.7490  -35.3150 Cl  0  0  0  0  0  0  0  0  0  0  0  0
    1.4640   19.0419  -31.7234 H   0  0  0  0  0  0  0  0  0  0  0  0
    1.0722   18.2337  -33.2790 H   0  0  0  0  0  0  0  0  0  0  0  0
    1.8371   19.8590  -33.2790 H   0  0  0  0  0  0  0  0  0  0  0  0
   -0.7131   19.1322  -30.7518 H   0  0  0  0  0  0  0  0  0  0  0  0
   -2.9738   20.1769  -30.7168 H   0  0  0  0  0  0  0  0  0  0  0  0
   -5.6785   25.4375  -29.6145 H   0  0  0  0  0  0  0  0  0  0  0  0
   -4.7251   25.2809  -31.1288 H   0  0  0  0  0  0  0  0  0  0  0  0
   -6.2655   26.2049  -31.1288 H   0  0  0  0  0  0  0  0  0  0  0  0
  -10.2885   22.9800  -31.5073 H   0  0  0  0  0  0  0  0  0  0  0  0
  -10.5708   20.6383  -32.3616 H   0  0  0  0  0  0  0  0  0  0  0  0
   -8.1480   18.5410  -33.6020 H   0  0  0  0  0  0  0  0  0  0  0  0
   -5.0472   20.2292  -32.2113 H   0  0  0  0  0  0  0  0  0  0  0  0
   -5.9513   19.2526  -30.9556 H   0  0  0  0  0  0  0  0  0  0  0  0
   -5.5391   17.2783  -31.3250 H   0  0  0  0  0  0  0  0  0  0  0  0
   -6.9362   16.7132  -32.3555 H   0  0  0  0  0  0  0  0  0  0  0  0
   -4.6906   15.4309  -32.5455 H   0  0  0  0  0  0  0  0  0  0  0  0
   -5.5334   15.9318  -34.0572 H   0  0  0  0  0  0  0  0  0  0  0  0
   -3.2405   17.4308  -32.6983 H   0  0  0  0  0  0  0  0  0  0  0  0
   -3.1264   16.4025  -34.1878 H   0  0  0  0  0  0  0  0  0  0  0  0
   -3.4658   19.1126  -34.2166 H   0  0  0  0  0  0  0  0  0  0  0  0
   -4.0308   17.9627  -35.5192 H   0  0  0  0  0  0  0  0  0  0  0  0
   -5.6472   19.8242  -34.5202 H   0  0  0  0  0  0  0  0  0  0  0  0
   -6.2223   18.1504  -34.9592 H   0  0  0  0  0  0  0  0  0  0  0  0
   -2.3390   21.6972  -34.7162 H   0  0  0  0  0  0  0  0  0  0  0  0
  1  2  1  0
  2  3  2  0
  3  4  1  0
  4  5  2  0
  5  6  1  0
  6  7  1  0
  7  8  2  0
  7  9  1  0
  9 10  2  0
 10 11  1  0
 10 12  1  0
 12 13  1  0
 13 14  2  0
 14 15  1  0
 15 16  2  0
 16 17  1  0
 16 18  1  0
 18 19  1  0
 19 20  1  0
 20 21  1  0
 21 22  1  0
 22 23  1  0
 23 24  1  0
 24 25  1  0
 18 26  2  0
  5 27  1  0
 27 28  2  0
 28 29  1  0
 28  2  1  0
 26  9  1  0
 26 13  1  0
 25 20  1  0
  1 30  1  0
  1 31  1  0
  1 32  1  0
  3 33  1  0
  4 34  1  0
 11 35  1  0
 11 36  1  0
 11 37  1  0
 14 38  1  0
 15 39  1  0
 17 40  1  0
 19 41  1  0
 19 42  1  0
 21 43  1  0
 21 44  1  0
 22 45  1  0
 22 46  1  0
 23 47  1  0
 23 48  1  0
 24 49  1  0
 24 50  1  0
 25 51  1  0
 25 52  1  0
 27 53  1  0
M  CHG  1   6  -1
M  END
>  <UniqueID>  (32) 
31

>  <SMILES>  (32) 
Cc1ccc([N-]C(=O)c2c(C)oc3ccc(O)c(CN4CCCCC4)c23)cc1Cl

>  <Energy>  (32) 
113.69544966759003

>  <Genealogy>  (32) 
Cc1ccc([N-]C(=O)c2c(C)oc3ccc(O)c(CN4CCCCC4)c23)cc1Cl (protonated)
Cc1ccc([N-]C(=O)c2c(C)oc3ccc(O)c(CN4CCCCC4)c23)cc1Cl (3D coordinates assigned)
Cc1ccc([N-]C(=O)c2c(C)oc3ccc(O)c(CN4CCCCC4)c23)cc1Cl (nonaromatic ring conformer: 113.69544966759003 kcal/mol)

>  <smiles>  (32) 
Cc1ccc(NC(=O)c2c(C)oc3ccc(O)c(CN4CCCCC4)c23)cc1Cl

>  <score_type>  (32) 
oracle

>  <origin>  (32) 
adgpu

>  <m_score__min__energy>  (32) 
-9.75

>  <m_primary>  (32) 
energy

$$$$
32:0
     RDKit          3D

 42 44  0  0  0  0  0  0  0  0999 V2000
    0.9326   26.0758  -27.0705 H   0  0  0  0  0  0  0  0  0  0  0  0
   -0.1120   25.7420  -27.1560 C   0  0  0  0  0  0  0  0  0  0  0  0
   -0.6060   25.3590  -28.3640 N   0  0  0  0  0  0  0  0  0  0  0  0
   -1.8930   24.9430  -28.5250 C   0  0  0  0  0  0  0  0  0  0  0  0
   -2.2910   24.6060  -29.7180 N   0  0  0  0  0  0  0  0  0  0  0  0
   -3.8900   24.0930  -30.1640 S   0  0  0  0  0  0  0  0  0  0  0  0
   -4.6040   25.2200  -30.8560 O   0  0  0  0  0  0  0  0  0  0  0  0
   -4.6540   23.7230  -28.9250 O   0  0  0  0  0  0  0  0  0  0  0  0
   -3.7760   22.6780  -31.2060 C   0  0  0  0  0  0  0  0  0  0  0  0
   -2.9810   21.5810  -30.8460 C   0  0  0  0  0  0  0  0  0  0  0  0
   -2.3788   21.6178  -29.9262 H   0  0  0  0  0  0  0  0  0  0  0  0
   -2.9520   20.4400  -31.6540 C   0  0  0  0  0  0  0  0  0  0  0  0
   -2.3161   19.5870  -31.3747 H   0  0  0  0  0  0  0  0  0  0  0  0
   -3.7290   20.3790  -32.8170 C   0  0  0  0  0  0  0  0  0  0  0  0
   -3.6960   19.1940  -33.6220 N   0  0  0  0  0  0  0  0  0  0  0  0
   -4.8180   18.3400  -33.8870 C   0  0  0  0  0  0  0  0  0  0  0  0
   -5.3880   18.4130  -35.0080 O   0  0  0  0  0  0  0  0  0  0  0  0
   -5.2860   17.3180  -32.8910 C   0  0  0  0  0  0  0  0  0  0  0  0
   -5.9698   16.6115  -33.3842 H   0  0  0  0  0  0  0  0  0  0  0  0
   -4.4192   16.7709  -32.4919 H   0  0  0  0  0  0  0  0  0  0  0  0
   -5.9680   17.9730  -31.8230 O   0  0  0  0  0  0  0  0  0  0  0  0
   -7.0960   18.7900  -31.9810 C   0  0  0  0  0  0  0  0  0  0  0  0
   -8.3610   18.2750  -32.3280 C   0  0  0  0  0  0  0  0  0  0  0  0
   -8.4885   17.1939  -32.4860 H   0  0  0  0  0  0  0  0  0  0  0  0
   -9.4540   19.1340  -32.4720 C   0  0  0  0  0  0  0  0  0  0  0  0
  -10.4370   18.7282  -32.7532 H   0  0  0  0  0  0  0  0  0  0  0  0
   -9.3020   20.5060  -32.2600 C   0  0  0  0  0  0  0  0  0  0  0  0
  -10.1651   21.1790  -32.3701 H   0  0  0  0  0  0  0  0  0  0  0  0
   -8.0530   21.0230  -31.9080 C   0  0  0  0  0  0  0  0  0  0  0  0
   -7.8510   22.8960  -31.5920 Br  0  0  0  0  0  0  0  0  0  0  0  0
   -6.9510   20.1690  -31.7820 C   0  0  0  0  0  0  0  0  0  0  0  0
   -5.9650   20.5834  -31.5251 H   0  0  0  0  0  0  0  0  0  0  0  0
   -4.4850   21.4970  -33.2010 C   0  0  0  0  0  0  0  0  0  0  0  0
   -5.0552   21.4764  -34.1415 H   0  0  0  0  0  0  0  0  0  0  0  0
   -4.5160   22.6360  -32.3930 C   0  0  0  0  0  0  0  0  0  0  0  0
   -5.1242   23.5029  -32.6908 H   0  0  0  0  0  0  0  0  0  0  0  0
   -2.7420   24.9000  -27.4000 C   0  0  0  0  0  0  0  0  0  0  0  0
   -3.7851   24.5670  -27.5054 H   0  0  0  0  0  0  0  0  0  0  0  0
   -2.2490   25.2830  -26.1520 C   0  0  0  0  0  0  0  0  0  0  0  0
   -2.9022   25.2465  -25.2677 H   0  0  0  0  0  0  0  0  0  0  0  0
   -0.9280   25.7120  -26.0260 C   0  0  0  0  0  0  0  0  0  0  0  0
   -0.5347   26.0229  -25.0469 H   0  0  0  0  0  0  0  0  0  0  0  0
  1  2  1  0
  2  3  1  0
  3  4  1  0
  4  5  2  0
  5  6  1  0
  6  7  2  0
  6  8  2  0
  6  9  1  0
  9 10  2  0
 10 11  1  0
 10 12  1  0
 12 13  1  0
 12 14  2  0
 14 15  1  0
 15 16  1  0
 16 17  2  0
 16 18  1  0
 18 19  1  0
 18 20  1  0
 18 21  1  0
 21 22  1  0
 22 23  2  0
 23 24  1  0
 23 25  1  0
 25 26  1  0
 25 27  2  0
 27 28  1  0
 27 29  1  0
 29 30  1  0
 29 31  2  0
 31 32  1  0
 14 33  1  0
 33 34  1  0
 33 35  2  0
 35 36  1  0
  4 37  1  0
 37 38  1  0
 37 39  2  0
 39 40  1  0
 39 41  1  0
 41 42  1  0
 41  2  2  0
 35  9  1  0
 31 22  1  0
M  CHG  2   3  -1  15  -1
M  END
>  <UniqueID>  (33) 
32

>  <SMILES>  (33) 
O=C(COc1cccc(Br)c1)[N-]c1ccc(S(=O)(=O)/N=c2\cccc[n-]2)cc1

>  <Energy>  (33) 
51.1922471784226

>  <Genealogy>  (33) 
O=C(COc1cccc(Br)c1)[N-]c1ccc(S(=O)(=O)N=c2cccc[n-]2)cc1 (protonated)
O=C(COc1cccc(Br)c1)[N-]c1ccc(S(=O)(=O)/N=c2\cccc[n-]2)cc1 (cis-trans isomerization)
O=C(COc1cccc(Br)c1)[N-]c1ccc(S(=O)(=O)/N=c2\cccc[n-]2)cc1 (3D coordinates assigned)
O=C(COc1cccc(Br)c1)[N-]c1ccc(S(=O)(=O)/N=c2\cccc[n-]2)cc1 (optimized conformer: 51.1922471784226 kcal/mol)

>  <smiles>  (33) 
O=C(COc1cccc(Br)c1)Nc1ccc(S(=O)(=O)N=c2cccc[nH]2)cc1

>  <score_type>  (33) 
oracle

>  <origin>  (33) 
adgpu

>  <m_score__min__energy>  (33) 
-10.98

>  <m_primary>  (33) 
energy

$$$$
33:0
     RDKit          3D

 33 35  0  0  0  0  0  0  0  0999 V2000
   -6.7940   16.5730  -34.2590 O   0  0  0  0  0  0  0  0  0  0  0  0
   -6.2220   17.6720  -34.4140 N   0  0  0  0  0  0  0  0  0  0  0  0
   -5.4020   17.8450  -35.5050 O   0  0  0  0  0  0  0  0  0  0  0  0
   -6.4150   18.7400  -33.4680 C   0  0  0  0  0  0  0  0  0  0  0  0
   -7.5160   18.7330  -32.5910 C   0  0  0  0  0  0  0  0  0  0  0  0
   -7.6980   19.7720  -31.6740 C   0  0  0  0  0  0  0  0  0  0  0  0
   -6.7750   20.8310  -31.6070 C   0  0  0  0  0  0  0  0  0  0  0  0
   -6.9330   21.8980  -30.7100 O   0  0  0  0  0  0  0  0  0  0  0  0
   -6.1110   23.0320  -30.6440 C   0  0  0  0  0  0  0  0  0  0  0  0
   -6.5560   24.2200  -31.2320 C   0  0  0  0  0  0  0  0  0  0  0  0
   -5.7470   25.3560  -31.1890 C   0  0  0  0  0  0  0  0  0  0  0  0
   -4.5280   25.3030  -30.5910 N   0  0  0  0  0  0  0  0  0  0  0  0
   -4.0520   24.1600  -30.0240 C   0  0  0  0  0  0  0  0  0  0  0  0
   -2.7190   24.1640  -29.3990 C   0  0  0  0  0  0  0  0  0  0  0  0
   -2.0990   23.0470  -28.9570 N   0  0  0  0  0  0  0  0  0  0  0  0
   -0.9290   23.5040  -28.4750 C   0  0  0  0  0  0  0  0  0  0  0  0
    0.0940   22.6450  -27.8020 C   0  0  0  0  0  0  0  0  0  0  0  0
    1.2730   23.3480  -27.6440 F   0  0  0  0  0  0  0  0  0  0  0  0
   -0.3660   22.2510  -26.5580 F   0  0  0  0  0  0  0  0  0  0  0  0
    0.3330   21.5240  -28.5750 F   0  0  0  0  0  0  0  0  0  0  0  0
   -0.8750   24.8700  -28.6110 C   0  0  0  0  0  0  0  0  0  0  0  0
   -2.0050   25.2950  -29.2020 N   0  0  0  0  0  0  0  0  0  0  0  0
   -4.8380   22.9970  -30.0500 C   0  0  0  0  0  0  0  0  0  0  0  0
   -5.6930   20.8490  -32.4920 C   0  0  0  0  0  0  0  0  0  0  0  0
   -5.5080   19.8120  -33.4110 C   0  0  0  0  0  0  0  0  0  0  0  0
   -8.2382   17.9041  -32.6276 H   0  0  0  0  0  0  0  0  0  0  0  0
   -8.5680   19.7613  -31.0010 H   0  0  0  0  0  0  0  0  0  0  0  0
   -7.5382   24.2588  -31.7257 H   0  0  0  0  0  0  0  0  0  0  0  0
   -6.0967   26.2963  -31.6401 H   0  0  0  0  0  0  0  0  0  0  0  0
   -0.0420   25.5119  -28.2885 H   0  0  0  0  0  0  0  0  0  0  0  0
   -4.4594   22.0636  -29.6079 H   0  0  0  0  0  0  0  0  0  0  0  0
   -4.9807   21.6868  -32.4650 H   0  0  0  0  0  0  0  0  0  0  0  0
   -4.6464   19.8352  -34.0944 H   0  0  0  0  0  0  0  0  0  0  0  0
  1  2  2  0
  2  3  1  0
  2  4  1  0
  4  5  2  0
  5  6  1  0
  6  7  2  0
  7  8  1  0
  8  9  1  0
  9 10  2  0
 10 11  1  0
 11 12  2  0
 12 13  1  0
 13 14  1  0
 14 15  2  0
 15 16  1  0
 16 17  1  0
 17 18  1  0
 17 19  1  0
 17 20  1  0
 16 21  2  0
 21 22  1  0
 13 23  2  0
  7 24  1  0
 24 25  2  0
 25  4  1  0
 23  9  1  0
 22 14  1  0
  5 26  1  0
  6 27  1  0
 10 28  1  0
 11 29  1  0
 21 30  1  0
 23 31  1  0
 24 32  1  0
 25 33  1  0
M  CHG  3   2   1   3  -1  22  -1
M  END
>  <UniqueID>  (34) 
33

>  <SMILES>  (34) 
O=[N+]([O-])c1ccc(Oc2ccnc(-c3nc(C(F)(F)F)c[n-]3)c2)cc1

>  <Energy>  (34) 
70.24405761754677

>  <Genealogy>  (34) 
O=[N+]([O-])c1ccc(Oc2ccnc(-c3nc(C(F)(F)F)c[n-]3)c2)cc1 (protonated)
O=[N+]([O-])c1ccc(Oc2ccnc(-c3nc(C(F)(F)F)c[n-]3)c2)cc1 (3D coordinates assigned)
O=[N+]([O-])c1ccc(Oc2ccnc(-c3nc(C(F)(F)F)c[n-]3)c2)cc1 (optimized conformer: 70.24405761754677 kcal/mol)

>  <smiles>  (34) 
O=[N+]([O-])c1ccc(Oc2ccnc(-c3nc(C(F)(F)F)c[nH]3)c2)cc1

>  <score_type>  (34) 
oracle

>  <origin>  (34) 
adgpu

>  <m_score__min__energy>  (34) 
-8.3900000000000006

>  <m_primary>  (34) 
energy

$$$$
34:0
     RDKit          3D

 53 56  0  0  0  0  0  0  0  0999 V2000
   -2.2370   14.9240  -36.3570 C   0  0  0  0  0  0  0  0  0  0  0  0
   -3.5260   15.4460  -36.0490 O   0  0  0  0  0  0  0  0  0  0  0  0
   -3.7530   16.5580  -35.2240 C   0  0  0  0  0  0  0  0  0  0  0  0
   -4.8920   17.3700  -35.3520 C   0  0  0  0  0  0  0  0  0  0  0  0
   -5.0720   18.4660  -34.5080 C   0  0  0  0  0  0  0  0  0  0  0  0
   -4.1170   18.7800  -33.5290 C   0  0  0  0  0  0  0  0  0  0  0  0
   -4.3360   19.9430  -32.6400 C   0  0  0  0  0  0  0  0  0  0  0  0
   -3.3650   20.8200  -32.1980 C   0  0  0  0  0  0  0  0  0  0  0  0
   -3.9240   21.6640  -31.3030 N   0  0  0  0  0  0  0  0  0  0  0  0
   -3.2770   22.7440  -30.5950 C   0  0  0  0  0  0  0  0  0  0  0  0
   -1.9070   22.6960  -30.2690 C   0  0  0  0  0  0  0  0  0  0  0  0
   -1.2990   23.7600  -29.5950 C   0  0  0  0  0  0  0  0  0  0  0  0
   -2.0360   24.8950  -29.2480 C   0  0  0  0  0  0  0  0  0  0  0  0
   -1.3830   25.9570  -28.5390 N   0  0  0  0  0  0  0  0  0  0  0  0
   -0.3360   25.8190  -27.5680 C   0  0  0  0  0  0  0  0  0  0  0  0
    0.6420   25.0690  -27.8320 O   0  0  0  0  0  0  0  0  0  0  0  0
   -0.3570   26.5620  -26.2620 C   0  0  0  0  0  0  0  0  0  0  0  0
   -1.7070   25.9980  -25.2460 Cl  0  0  0  0  0  0  0  0  0  0  0  0
   -3.4090   24.9340  -29.5350 C   0  0  0  0  0  0  0  0  0  0  0  0
   -4.0200   23.8730  -30.2090 C   0  0  0  0  0  0  0  0  0  0  0  0
   -5.2070   21.3640  -31.1590 N   0  0  0  0  0  0  0  0  0  0  0  0
   -5.4900   20.3200  -31.9620 C   0  0  0  0  0  0  0  0  0  0  0  0
   -6.8480   19.7450  -32.0880 C   0  0  0  0  0  0  0  0  0  0  0  0
   -7.9540   20.5550  -32.3990 C   0  0  0  0  0  0  0  0  0  0  0  0
   -9.2310   19.9970  -32.5070 C   0  0  0  0  0  0  0  0  0  0  0  0
   -9.4180   18.6290  -32.2900 C   0  0  0  0  0  0  0  0  0  0  0  0
   -8.3280   17.8200  -31.9580 C   0  0  0  0  0  0  0  0  0  0  0  0
   -7.0490   18.3750  -31.8490 C   0  0  0  0  0  0  0  0  0  0  0  0
   -2.9720   17.9700  -33.3890 C   0  0  0  0  0  0  0  0  0  0  0  0
   -2.0180   18.3020  -32.4120 O   0  0  0  0  0  0  0  0  0  0  0  0
   -0.6990   18.7620  -32.6910 C   0  0  0  0  0  0  0  0  0  0  0  0
   -2.8040   16.8610  -34.2420 C   0  0  0  0  0  0  0  0  0  0  0  0
   -1.6973   14.7055  -35.4237 H   0  0  0  0  0  0  0  0  0  0  0  0
   -2.3462   13.9992  -36.9426 H   0  0  0  0  0  0  0  0  0  0  0  0
   -1.6720   15.6642  -36.9426 H   0  0  0  0  0  0  0  0  0  0  0  0
   -5.6448   17.1408  -36.1206 H   0  0  0  0  0  0  0  0  0  0  0  0
   -5.9717   19.0904  -34.6110 H   0  0  0  0  0  0  0  0  0  0  0  0
   -2.3133   20.8298  -32.5204 H   0  0  0  0  0  0  0  0  0  0  0  0
   -1.3108   21.8144  -30.5469 H   0  0  0  0  0  0  0  0  0  0  0  0
   -0.2315   23.7027  -29.3359 H   0  0  0  0  0  0  0  0  0  0  0  0
    0.5915   26.3899  -25.7321 H   0  0  0  0  0  0  0  0  0  0  0  0
   -0.4882   27.6351  -26.4649 H   0  0  0  0  0  0  0  0  0  0  0  0
   -4.0076   25.8043  -29.2279 H   0  0  0  0  0  0  0  0  0  0  0  0
   -5.0944   23.9220  -30.4400 H   0  0  0  0  0  0  0  0  0  0  0  0
   -7.8137   21.6343  -32.5583 H   0  0  0  0  0  0  0  0  0  0  0  0
  -10.0896   20.6351  -32.7630 H   0  0  0  0  0  0  0  0  0  0  0  0
  -10.4223   18.1895  -32.3805 H   0  0  0  0  0  0  0  0  0  0  0  0
   -8.4763   16.7443  -31.7820 H   0  0  0  0  0  0  0  0  0  0  0  0
   -6.1965   17.7362  -31.5749 H   0  0  0  0  0  0  0  0  0  0  0  0
   -0.1677   18.9473  -31.7458 H   0  0  0  0  0  0  0  0  0  0  0  0
   -0.1596   17.9989  -33.2713 H   0  0  0  0  0  0  0  0  0  0  0  0
   -0.7511   19.6950  -33.2713 H   0  0  0  0  0  0  0  0  0  0  0  0
   -1.9136   16.2242  -34.1341 H   0  0  0  0  0  0  0  0  0  0  0  0
  1  2  1  0
  2  3  1  0
  3  4  2  0
  4  5  1  0
  5  6  2  0
  6  7  1  0
  7  8  2  0
  8  9  1  0
  9 10  1  0
 10 11  2  0
 11 12  1  0
 12 13  2  0
 13 14  1  0
 14 15  1  0
 15 16  2  0
 15 17  1  0
 17 18  1  0
 13 19  1  0
 19 20  2  0
  9 21  1  0
 21 22  2  0
 22 23  1  0
 23 24  2  0
 24 25  1  0
 25 26  2  0
 26 27  1  0
 27 28  2  0
  6 29  1  0
 29 30  1  0
 30 31  1  0
 29 32  2  0
 32  3  1  0
 22  7  1  0
 28 23  1  0
 20 10  1  0
  1 33  1  0
  1 34  1  0
  1 35  1  0
  4 36  1  0
  5 37  1  0
  8 38  1  0
 11 39  1  0
 12 40  1  0
 17 41  1  0
 17 42  1  0
 19 43  1  0
 20 44  1  0
 24 45  1  0
 25 46  1  0
 26 47  1  0
 27 48  1  0
 28 49  1  0
 31 50  1  0
 31 51  1  0
 31 52  1  0
 32 53  1  0
M  CHG  1  14  -1
M  END
>  <UniqueID>  (35) 
34

>  <SMILES>  (35) 
COc1ccc(-c2cn(-c3ccc([N-]C(=O)CCl)cc3)nc2-c2ccccc2)c(OC)c1

>  <Energy>  (35) 
101.14759779321275

>  <Genealogy>  (35) 
COc1ccc(-c2cn(-c3ccc([N-]C(=O)CCl)cc3)nc2-c2ccccc2)c(OC)c1 (protonated)
COc1ccc(-c2cn(-c3ccc([N-]C(=O)CCl)cc3)nc2-c2ccccc2)c(OC)c1 (3D coordinates assigned)
COc1ccc(-c2cn(-c3ccc([N-]C(=O)CCl)cc3)nc2-c2ccccc2)c(OC)c1 (optimized conformer: 101.14759779321275 kcal/mol)

>  <smiles>  (35) 
COc1ccc(-c2cn(-c3ccc(NC(=O)CCl)cc3)nc2-c2ccccc2)c(OC)c1

>  <score_type>  (35) 
oracle

>  <origin>  (35) 
adgpu

>  <m_score__min__energy>  (35) 
-9.2400000000000002

>  <m_primary>  (35) 
energy

$$$$
35:0
     RDKit          3D

 52 54  0  0  0  0  0  0  0  0999 V2000
    0.4960   18.8040  -30.8480 C   0  0  0  0  0  0  0  0  0  0  0  0
   -0.4950   18.9220  -29.8310 O   0  0  0  0  0  0  0  0  0  0  0  0
   -1.1300   20.1210  -29.4730 C   0  0  0  0  0  0  0  0  0  0  0  0
   -1.1120   21.2540  -30.3090 C   0  0  0  0  0  0  0  0  0  0  0  0
   -1.7550   22.4300  -29.9200 C   0  0  0  0  0  0  0  0  0  0  0  0
   -2.4320   22.4950  -28.6950 C   0  0  0  0  0  0  0  0  0  0  0  0
   -3.1050   23.7750  -28.2710 C   0  0  0  0  0  0  0  0  0  0  0  0
   -2.7820   24.8990  -29.2210 C   0  0  0  0  0  0  0  0  0  0  0  0
   -1.8170   25.6670  -28.9660 O   0  0  0  0  0  0  0  0  0  0  0  0
   -3.5350   25.1100  -30.4230 N   0  0  0  0  0  0  0  0  0  0  0  0
   -4.7080   24.3880  -30.8220 C   0  0  0  0  0  0  0  0  0  0  0  0
   -5.9650   24.8610  -30.4280 C   0  0  0  0  0  0  0  0  0  0  0  0
   -7.1220   24.1620  -30.7780 C   0  0  0  0  0  0  0  0  0  0  0  0
   -7.0320   22.9810  -31.5190 C   0  0  0  0  0  0  0  0  0  0  0  0
   -5.7790   22.4850  -31.9150 C   0  0  0  0  0  0  0  0  0  0  0  0
   -5.6890   21.2170  -32.6780 C   0  0  0  0  0  0  0  0  0  0  0  0
   -6.7480   20.6750  -33.0960 O   0  0  0  0  0  0  0  0  0  0  0  0
   -4.3940   20.5670  -32.9700 C   0  0  0  0  0  0  0  0  0  0  0  0
   -4.0790   19.2260  -32.8160 C   0  0  0  0  0  0  0  0  0  0  0  0
   -2.7600   19.0960  -33.2060 C   0  0  0  0  0  0  0  0  0  0  0  0
   -1.9900   17.8130  -33.2190 C   0  0  0  0  0  0  0  0  0  0  0  0
   -2.2580   20.3000  -33.5560 N   0  0  0  0  0  0  0  0  0  0  0  0
   -0.9150   20.5770  -34.0590 C   0  0  0  0  0  0  0  0  0  0  0  0
   -3.2500   21.2020  -33.4170 C   0  0  0  0  0  0  0  0  0  0  0  0
   -4.6180   23.1800  -31.5330 C   0  0  0  0  0  0  0  0  0  0  0  0
   -2.4440   21.3730  -27.8520 C   0  0  0  0  0  0  0  0  0  0  0  0
   -1.7980   20.1820  -28.2390 C   0  0  0  0  0  0  0  0  0  0  0  0
   -1.7970   19.0370  -27.4250 O   0  0  0  0  0  0  0  0  0  0  0  0
   -2.7130   18.8030  -26.3600 C   0  0  0  0  0  0  0  0  0  0  0  0
    1.4860   18.6861  -30.3833 H   0  0  0  0  0  0  0  0  0  0  0  0
    0.2773   17.9256  -31.4729 H   0  0  0  0  0  0  0  0  0  0  0  0
    0.4897   19.7092  -31.4729 H   0  0  0  0  0  0  0  0  0  0  0  0
   -0.5877   21.2119  -31.2751 H   0  0  0  0  0  0  0  0  0  0  0  0
   -1.7302   23.3106  -30.5787 H   0  0  0  0  0  0  0  0  0  0  0  0
   -4.1939   23.6200  -28.2550 H   0  0  0  0  0  0  0  0  0  0  0  0
   -2.7382   24.0474  -27.2704 H   0  0  0  0  0  0  0  0  0  0  0  0
   -6.0418   25.7875  -29.8400 H   0  0  0  0  0  0  0  0  0  0  0  0
   -8.1070   24.5422  -30.4695 H   0  0  0  0  0  0  0  0  0  0  0  0
   -7.9475   22.4366  -31.7938 H   0  0  0  0  0  0  0  0  0  0  0  0
   -4.7443   18.4273  -32.4562 H   0  0  0  0  0  0  0  0  0  0  0  0
   -1.7967   17.4909  -32.1851 H   0  0  0  0  0  0  0  0  0  0  0  0
   -2.5737   17.0403  -33.7407 H   0  0  0  0  0  0  0  0  0  0  0  0
   -1.0335   17.9647  -33.7407 H   0  0  0  0  0  0  0  0  0  0  0  0
   -0.2281   20.7187  -33.2116 H   0  0  0  0  0  0  0  0  0  0  0  0
   -0.5713   19.7308  -34.6721 H   0  0  0  0  0  0  0  0  0  0  0  0
   -0.9342   21.4901  -34.6721 H   0  0  0  0  0  0  0  0  0  0  0  0
   -3.1628   22.2782  -33.6270 H   0  0  0  0  0  0  0  0  0  0  0  0
   -3.6295   22.7737  -31.7935 H   0  0  0  0  0  0  0  0  0  0  0  0
   -2.9612   21.4237  -26.8825 H   0  0  0  0  0  0  0  0  0  0  0  0
   -2.1974   18.9347  -25.3973 H   0  0  0  0  0  0  0  0  0  0  0  0
   -3.5469   19.5170  -26.4300 H   0  0  0  0  0  0  0  0  0  0  0  0
   -3.1023   17.7766  -26.4300 H   0  0  0  0  0  0  0  0  0  0  0  0
  1  2  1  0
  2  3  1  0
  3  4  2  0
  4  5  1  0
  5  6  2  0
  6  7  1  0
  7  8  1  0
  8  9  2  0
  8 10  1  0
 10 11  1  0
 11 12  2  0
 12 13  1  0
 13 14  2  0
 14 15  1  0
 15 16  1  0
 16 17  2  0
 16 18  1  0
 18 19  1  0
 19 20  2  0
 20 21  1  0
 20 22  1  0
 22 23  1  0
 22 24  1  0
 15 25  2  0
  6 26  1  0
 26 27  2  0
 27 28  1  0
 28 29  1  0
 27  3  1  0
 25 11  1  0
 24 18  2  0
  1 30  1  0
  1 31  1  0
  1 32  1  0
  4 33  1  0
  5 34  1  0
  7 35  1  0
  7 36  1  0
 12 37  1  0
 13 38  1  0
 14 39  1  0
 19 40  1  0
 21 41  1  0
 21 42  1  0
 21 43  1  0
 23 44  1  0
 23 45  1  0
 23 46  1  0
 24 47  1  0
 25 48  1  0
 26 49  1  0
 29 50  1  0
 29 51  1  0
 29 52  1  0
M  CHG  1  10  -1
M  END
>  <UniqueID>  (36) 
35

>  <SMILES>  (36) 
COc1ccc(CC(=O)[N-]c2cccc(C(=O)c3cc(C)n(C)c3)c2)cc1OC

>  <Energy>  (36) 
83.57563663398672

>  <Genealogy>  (36) 
COc1ccc(CC(=O)[N-]c2cccc(C(=O)c3cc(C)n(C)c3)c2)cc1OC (protonated)
COc1ccc(CC(=O)[N-]c2cccc(C(=O)c3cc(C)n(C)c3)c2)cc1OC (3D coordinates assigned)
COc1ccc(CC(=O)[N-]c2cccc(C(=O)c3cc(C)n(C)c3)c2)cc1OC (optimized conformer: 83.57563663398672 kcal/mol)

>  <smiles>  (36) 
COc1ccc(CC(=O)Nc2cccc(C(=O)c3cc(C)n(C)c3)c2)cc1OC

>  <score_type>  (36) 
oracle

>  <origin>  (36) 
adgpu

>  <m_score__min__energy>  (36) 
-10.699999999999999

>  <m_primary>  (36) 
energy

$$$$
36:0
     RDKit          3D

 50 53  0  0  0  0  0  0  0  0999 V2000
   -7.0153   24.2039  -31.2371 H   0  0  0  0  0  0  0  0  0  0  0  0
   -6.5810   23.1990  -31.1300 C   0  0  0  0  0  0  0  0  0  0  0  0
   -5.4260   23.0790  -30.4610 C   0  0  0  0  0  0  0  0  0  0  0  0
   -4.6620   24.1500  -29.8620 C   0  0  0  0  0  0  0  0  0  0  0  0
   -4.9540   25.3760  -29.8640 O   0  0  0  0  0  0  0  0  0  0  0  0
   -3.5420   23.5810  -29.1980 N   0  0  0  0  0  0  0  0  0  0  0  0
   -2.7840   24.2290  -28.1640 C   0  0  0  0  0  0  0  0  0  0  0  0
   -1.4210   24.5150  -28.3410 C   0  0  0  0  0  0  0  0  0  0  0  0
   -0.9209   24.2353  -29.2800 H   0  0  0  0  0  0  0  0  0  0  0  0
   -0.6960   25.1530  -27.3310 C   0  0  0  0  0  0  0  0  0  0  0  0
    0.3712   25.3748  -27.4787 H   0  0  0  0  0  0  0  0  0  0  0  0
   -1.3240   25.5110  -26.1310 C   0  0  0  0  0  0  0  0  0  0  0  0
   -0.4140   26.3100  -24.8540 S   0  0  0  0  0  0  0  0  0  0  0  0
    0.3720   27.4480  -25.4390 O   0  0  0  0  0  0  0  0  0  0  0  0
   -1.3560   26.8400  -23.8080 O   0  0  0  0  0  0  0  0  0  0  0  0
    0.6660   25.1810  -24.1130 N   0  0  0  0  0  0  0  0  0  0  0  0
    0.0790   24.4140  -23.7140 H   0  0  0  0  0  0  0  0  0  0  0  0
    1.1130   25.6700  -23.3060 H   0  0  0  0  0  0  0  0  0  0  0  0
   -2.6800   25.2110  -25.9440 C   0  0  0  0  0  0  0  0  0  0  0  0
   -3.1752   25.4780  -24.9988 H   0  0  0  0  0  0  0  0  0  0  0  0
   -3.4050   24.5740  -26.9540 C   0  0  0  0  0  0  0  0  0  0  0  0
   -4.4690   24.3415  -26.7998 H   0  0  0  0  0  0  0  0  0  0  0  0
   -3.7080   22.1650  -29.4130 C   0  0  0  0  0  0  0  0  0  0  0  0
   -2.7410   21.1420  -28.9540 C   0  0  0  0  0  0  0  0  0  0  0  0
   -2.8680   20.5700  -27.6760 C   0  0  0  0  0  0  0  0  0  0  0  0
   -3.6870   20.8873  -27.0137 H   0  0  0  0  0  0  0  0  0  0  0  0
   -1.9590   19.6000  -27.2420 C   0  0  0  0  0  0  0  0  0  0  0  0
   -2.0675   19.1540  -26.2424 H   0  0  0  0  0  0  0  0  0  0  0  0
   -0.9120   19.1960  -28.0770 C   0  0  0  0  0  0  0  0  0  0  0  0
    0.2260   17.9780  -27.5310 Cl  0  0  0  0  0  0  0  0  0  0  0  0
   -0.7750   19.7650  -29.3460 C   0  0  0  0  0  0  0  0  0  0  0  0
    0.0487   19.4488  -30.0029 H   0  0  0  0  0  0  0  0  0  0  0  0
   -1.6820   20.7350  -29.7830 C   0  0  0  0  0  0  0  0  0  0  0  0
   -1.5660   21.1821  -30.7813 H   0  0  0  0  0  0  0  0  0  0  0  0
   -4.7620   21.8640  -30.1180 N   0  0  0  0  0  0  0  0  0  0  0  0
   -5.0530   20.8970  -30.3820 H   0  0  0  0  0  0  0  0  0  0  0  0
   -7.3050   22.0610  -31.7320 C   0  0  0  0  0  0  0  0  0  0  0  0
   -8.6880   21.8930  -31.5450 C   0  0  0  0  0  0  0  0  0  0  0  0
   -9.2551   22.6291  -30.9563 H   0  0  0  0  0  0  0  0  0  0  0  0
   -9.3440   20.7950  -32.1040 C   0  0  0  0  0  0  0  0  0  0  0  0
  -10.4302   20.6806  -31.9731 H   0  0  0  0  0  0  0  0  0  0  0  0
   -8.6260   19.8410  -32.8290 C   0  0  0  0  0  0  0  0  0  0  0  0
   -9.1507   18.9864  -33.2811 H   0  0  0  0  0  0  0  0  0  0  0  0
   -7.2380   19.9700  -32.9820 C   0  0  0  0  0  0  0  0  0  0  0  0
   -6.4680   18.9610  -33.7810 C   0  0  0  0  0  0  0  0  0  0  0  0
   -5.9446   18.2751  -33.0987 H   0  0  0  0  0  0  0  0  0  0  0  0
   -7.1613   18.3891  -34.4152 H   0  0  0  0  0  0  0  0  0  0  0  0
   -5.7334   19.4788  -34.4152 H   0  0  0  0  0  0  0  0  0  0  0  0
   -6.5820   21.0860  -32.4350 C   0  0  0  0  0  0  0  0  0  0  0  0
   -5.4945   21.1956  -32.5590 H   0  0  0  0  0  0  0  0  0  0  0  0
  1  2  1  0
  2  3  2  0
  3  4  1  0
  4  5  2  0
  4  6  1  0
  6  7  1  0
  7  8  2  0
  8  9  1  0
  8 10  1  0
 10 11  1  0
 10 12  2  0
 12 13  1  0
 13 14  2  0
 13 15  2  0
 13 16  1  0
 16 17  1  0
 16 18  1  0
 12 19  1  0
 19 20  1  0
 19 21  2  0
 21 22  1  0
  6 23  1  0
 23 24  1  0
 24 25  2  0
 25 26  1  0
 25 27  1  0
 27 28  1  0
 27 29  2  0
 29 30  1  0
 29 31  1  0
 31 32  1  0
 31 33  2  0
 33 34  1  0
 23 35  2  0
 35 36  1  0
  2 37  1  0
 37 38  2  0
 38 39  1  0
 38 40  1  0
 40 41  1  0
 40 42  2  0
 42 43  1  0
 42 44  1  0
 44 45  1  0
 45 46  1  0
 45 47  1  0
 45 48  1  0
 44 49  2  0
 49 50  1  0
 35  3  1  0
 49 37  1  0
 21  7  1  0
 33 24  1  0
M  CHG  1  35   1
M  END
>  <UniqueID>  (37) 
36

>  <SMILES>  (37) 
Cc1cccc(/C=C2\[NH+]=C(c3ccc(Cl)cc3)N(c3ccc(S(N)(=O)=O)cc3)C2=O)c1

>  <Energy>  (37) 
95.1520338870181

>  <Genealogy>  (37) 
Cc1cccc(C=C2[NH+]=C(c3ccc(Cl)cc3)N(c3ccc(S(N)(=O)=O)cc3)C2=O)c1 (protonated)
Cc1cccc(/C=C2\[NH+]=C(c3ccc(Cl)cc3)N(c3ccc(S(N)(=O)=O)cc3)C2=O)c1 (cis-trans isomerization)
Cc1cccc(/C=C2\[NH+]=C(c3ccc(Cl)cc3)N(c3ccc(S(N)(=O)=O)cc3)C2=O)c1 (3D coordinates assigned)
Cc1cccc(/C=C2\[NH+]=C(c3ccc(Cl)cc3)N(c3ccc(S(N)(=O)=O)cc3)C2=O)c1 (nonaromatic ring conformer: 95.1520338870181 kcal/mol)

>  <smiles>  (37) 
Cc1cccc(C=C2N=C(c3ccc(Cl)cc3)N(c3ccc(S(N)(=O)=O)cc3)C2=O)c1

>  <score_type>  (37) 
oracle

>  <origin>  (37) 
adgpu

>  <m_score__min__energy>  (37) 
-10.140000000000001

>  <m_primary>  (37) 
energy

$$$$
37:0
     RDKit          3D

 51 53  0  0  0  0  0  0  0  0999 V2000
   -1.9070   19.4370  -27.8110 H   0  0  0  0  0  0  0  0  0  0  0  0
   -2.7240   20.0350  -27.8160 O   0  0  0  0  0  0  0  0  0  0  0  0
   -2.6760   21.3320  -28.3260 C   0  0  0  0  0  0  0  0  0  0  0  0
   -3.8320   22.1190  -28.3610 C   0  0  0  0  0  0  0  0  0  0  0  0
   -4.7800   21.7107  -27.9808 H   0  0  0  0  0  0  0  0  0  0  0  0
   -3.7950   23.4240  -28.8760 C   0  0  0  0  0  0  0  0  0  0  0  0
   -5.0320   24.1480  -29.0150 N   0  0  0  0  0  0  0  0  0  0  0  0
   -5.8620   23.7890  -28.4890 H   0  0  0  0  0  0  0  0  0  0  0  0
   -5.3020   25.1120  -30.0880 C   0  0  0  0  0  0  0  0  0  0  0  0
   -5.5930   26.0712  -29.6349 H   0  0  0  0  0  0  0  0  0  0  0  0
   -4.3850   25.2085  -30.6879 H   0  0  0  0  0  0  0  0  0  0  0  0
   -6.4270   24.6500  -31.0280 C   0  0  0  0  0  0  0  0  0  0  0  0
   -7.3808   24.6565  -30.4801 H   0  0  0  0  0  0  0  0  0  0  0  0
   -6.4749   25.3365  -31.8861 H   0  0  0  0  0  0  0  0  0  0  0  0
   -6.1660   23.2970  -31.5220 N   0  0  0  0  0  0  0  0  0  0  0  0
   -7.0500   22.3590  -31.7240 C   0  0  0  0  0  0  0  0  0  0  0  0
   -8.4130   22.5450  -31.4140 C   0  0  0  0  0  0  0  0  0  0  0  0
   -8.7532   23.4951  -30.9762 H   0  0  0  0  0  0  0  0  0  0  0  0
   -9.3300   21.5230  -31.6630 C   0  0  0  0  0  0  0  0  0  0  0  0
  -10.3912   21.6665  -31.4114 H   0  0  0  0  0  0  0  0  0  0  0  0
   -8.9190   20.3530  -32.2140 N   0  0  0  0  0  0  0  0  0  0  0  0
   -7.6190   20.1310  -32.5390 C   0  0  0  0  0  0  0  0  0  0  0  0
   -7.2510   18.9170  -33.1290 C   0  0  0  0  0  0  0  0  0  0  0  0
   -8.0104   18.1413  -33.3068 H   0  0  0  0  0  0  0  0  0  0  0  0
   -5.9220   18.6870  -33.4930 C   0  0  0  0  0  0  0  0  0  0  0  0
   -5.4700   17.1710  -34.2500 Cl  0  0  0  0  0  0  0  0  0  0  0  0
   -4.9520   19.6660  -33.2570 C   0  0  0  0  0  0  0  0  0  0  0  0
   -3.9060   19.4807  -33.5424 H   0  0  0  0  0  0  0  0  0  0  0  0
   -5.3060   20.8790  -32.6600 C   0  0  0  0  0  0  0  0  0  0  0  0
   -4.5357   21.6415  -32.4722 H   0  0  0  0  0  0  0  0  0  0  0  0
   -6.6450   21.1310  -32.2970 C   0  0  0  0  0  0  0  0  0  0  0  0
   -2.5620   23.9690  -29.2820 C   0  0  0  0  0  0  0  0  0  0  0  0
   -2.4680   25.2870  -29.7120 O   0  0  0  0  0  0  0  0  0  0  0  0
   -1.4050   23.1820  -29.2450 C   0  0  0  0  0  0  0  0  0  0  0  0
   -0.4428   23.6102  -29.5624 H   0  0  0  0  0  0  0  0  0  0  0  0
   -1.4640   21.8540  -28.8070 C   0  0  0  0  0  0  0  0  0  0  0  0
   -0.2760   21.0540  -28.8240 N   0  0  0  0  0  0  0  0  0  0  0  0
    0.0130   20.1780  -29.7430 C   0  0  0  0  0  0  0  0  0  0  0  0
    0.9222   19.5703  -29.6241 H   0  0  0  0  0  0  0  0  0  0  0  0
   -0.8470   19.9610  -30.9650 C   0  0  0  0  0  0  0  0  0  0  0  0
   -1.8853   19.7807  -30.6496 H   0  0  0  0  0  0  0  0  0  0  0  0
   -0.4633   19.0926  -31.5205 H   0  0  0  0  0  0  0  0  0  0  0  0
   -0.8050   21.1470  -31.8440 N   0  0  0  0  0  0  0  0  0  0  0  0
   -2.1670   21.5880  -32.1930 C   0  0  0  0  0  0  0  0  0  0  0  0
   -2.7396   21.7734  -31.2723 H   0  0  0  0  0  0  0  0  0  0  0  0
   -2.1124   22.5144  -32.7836 H   0  0  0  0  0  0  0  0  0  0  0  0
   -2.6657   20.8054  -32.7836 H   0  0  0  0  0  0  0  0  0  0  0  0
   -0.0620   20.8400  -33.0770 C   0  0  0  0  0  0  0  0  0  0  0  0
    0.9260   20.4318  -32.8177 H   0  0  0  0  0  0  0  0  0  0  0  0
   -0.6213   20.0993  -33.6674 H   0  0  0  0  0  0  0  0  0  0  0  0
    0.0646   21.7595  -33.6674 H   0  0  0  0  0  0  0  0  0  0  0  0
  1  2  1  0
  2  3  1  0
  3  4  2  0
  4  5  1  0
  4  6  1  0
  6  7  1  0
  7  8  1  0
  7  9  1  0
  9 10  1  0
  9 11  1  0
  9 12  1  0
 12 13  1  0
 12 14  1  0
 12 15  1  0
 15 16  2  0
 16 17  1  0
 17 18  1  0
 17 19  2  0
 19 20  1  0
 19 21  1  0
 21 22  1  0
 22 23  2  0
 23 24  1  0
 23 25  1  0
 25 26  1  0
 25 27  2  0
 27 28  1  0
 27 29  1  0
 29 30  1  0
 29 31  2  0
  6 32  2  0
 32 33  1  0
 32 34  1  0
 34 35  1  0
 34 36  2  0
 36 37  1  0
 37 38  2  0
 38 39  1  0
 38 40  1  0
 40 41  1  0
 40 42  1  0
 40 43  1  0
 43 44  1  0
 44 45  1  0
 44 46  1  0
 44 47  1  0
 43 48  1  0
 48 49  1  0
 48 50  1  0
 48 51  1  0
 36  3  1  0
 31 16  1  0
 31 22  1  0
M  CHG  2  21  -1  33  -1
M  END
>  <UniqueID>  (38) 
37

>  <SMILES>  (38) 
CN(C)C/C=N\c1cc([O-])c(NCC/N=c2\cc[n-]c3cc(Cl)ccc23)cc1O

>  <Energy>  (38) 
63.893580818330115

>  <Genealogy>  (38) 
CN(C)CC=Nc1cc([O-])c(NCCN=c2cc[n-]c3cc(Cl)ccc23)cc1O (protonated)
CN(C)C/C=N\c1cc([O-])c(NCC/N=c2\cc[n-]c3cc(Cl)ccc23)cc1O (cis-trans isomerization)
CN(C)C/C=N\c1cc([O-])c(NCC/N=c2\cc[n-]c3cc(Cl)ccc23)cc1O (3D coordinates assigned)
CN(C)C/C=N\c1cc([O-])c(NCC/N=c2\cc[n-]c3cc(Cl)ccc23)cc1O (optimized conformer: 63.893580818330115 kcal/mol)

>  <smiles>  (38) 
CN(C)CC=Nc1cc(O)c(NCCN=c2cc[nH]c3cc(Cl)ccc23)cc1O

>  <score_type>  (38) 
oracle

>  <origin>  (38) 
adgpu

>  <m_score__min__energy>  (38) 
-12.09

>  <m_primary>  (38) 
energy

$$$$
38:0
     RDKit          3D

 38 39  0  0  0  0  0  0  0  0999 V2000
   -2.7050   19.9960  -31.7020 C   0  0  0  0  0  0  0  0  0  0  0  0
   -3.2970   21.3640  -31.5460 C   0  0  0  0  0  0  0  0  0  0  0  0
   -2.7630   22.3840  -30.7860 C   0  0  0  0  0  0  0  0  0  0  0  0
   -3.6440   23.4310  -30.9780 C   0  0  0  0  0  0  0  0  0  0  0  0
   -3.5300   24.7310  -30.3950 N   0  0  0  0  0  0  0  0  0  0  0  0
   -4.2560   25.6650  -30.7970 O   0  0  0  0  0  0  0  0  0  0  0  0
   -2.6240   24.9640  -29.3870 O   0  0  0  0  0  0  0  0  0  0  0  0
   -4.6430   23.0660  -31.8040 N   0  0  0  0  0  0  0  0  0  0  0  0
   -4.4270   21.8050  -32.1450 N   0  0  0  0  0  0  0  0  0  0  0  0
   -5.3120   21.0590  -33.0410 C   0  0  0  0  0  0  0  0  0  0  0  0
   -6.7150   21.0200  -32.4760 C   0  0  0  0  0  0  0  0  0  0  0  0
   -7.3900   22.2460  -32.3280 C   0  0  0  0  0  0  0  0  0  0  0  0
   -8.6950   22.2890  -31.8390 C   0  0  0  0  0  0  0  0  0  0  0  0
   -9.3480   21.1100  -31.4910 C   0  0  0  0  0  0  0  0  0  0  0  0
   -8.6980   19.8820  -31.6310 C   0  0  0  0  0  0  0  0  0  0  0  0
   -7.3820   19.8170  -32.1200 C   0  0  0  0  0  0  0  0  0  0  0  0
   -6.6170   18.2250  -32.2690 S   0  0  0  0  0  0  0  0  0  0  0  0
   -6.1120   17.8010  -30.9170 O   0  0  0  0  0  0  0  0  0  0  0  0
   -7.6210   17.2070  -32.7380 O   0  0  0  0  0  0  0  0  0  0  0  0
   -5.2960   18.3070  -33.4090 N   0  0  0  0  0  0  0  0  0  0  0  0
   -4.3600   17.2060  -33.1540 C   0  0  0  0  0  0  0  0  0  0  0  0
   -5.8240   18.2150  -34.7760 C   0  0  0  0  0  0  0  0  0  0  0  0
   -2.5173   19.5623  -30.7087 H   0  0  0  0  0  0  0  0  0  0  0  0
   -3.4059   19.3541  -32.2559 H   0  0  0  0  0  0  0  0  0  0  0  0
   -1.7573   20.0676  -32.2559 H   0  0  0  0  0  0  0  0  0  0  0  0
   -1.8506   22.3677  -30.1717 H   0  0  0  0  0  0  0  0  0  0  0  0
   -5.3301   21.5497  -34.0253 H   0  0  0  0  0  0  0  0  0  0  0  0
   -4.9367   20.0299  -33.1414 H   0  0  0  0  0  0  0  0  0  0  0  0
   -6.8815   23.1823  -32.6016 H   0  0  0  0  0  0  0  0  0  0  0  0
   -9.2089   23.2553  -31.7281 H   0  0  0  0  0  0  0  0  0  0  0  0
  -10.3775   21.1457  -31.1052 H   0  0  0  0  0  0  0  0  0  0  0  0
   -9.2220   18.9549  -31.3554 H   0  0  0  0  0  0  0  0  0  0  0  0
   -4.2429   17.0682  -32.0690 H   0  0  0  0  0  0  0  0  0  0  0  0
   -4.7520   16.2805  -33.6009 H   0  0  0  0  0  0  0  0  0  0  0  0
   -3.3835   17.4440  -33.6009 H   0  0  0  0  0  0  0  0  0  0  0  0
   -6.9071   18.0263  -34.7388 H   0  0  0  0  0  0  0  0  0  0  0  0
   -5.6344   19.1597  -35.3066 H   0  0  0  0  0  0  0  0  0  0  0  0
   -5.3261   17.3901  -35.3066 H   0  0  0  0  0  0  0  0  0  0  0  0
  1  2  1  0
  2  3  2  0
  3  4  1  0
  4  5  1  0
  5  6  2  0
  5  7  1  0
  4  8  2  0
  8  9  1  0
  9 10  1  0
 10 11  1  0
 11 12  2  0
 12 13  1  0
 13 14  2  0
 14 15  1  0
 15 16  2  0
 16 17  1  0
 17 18  2  0
 17 19  2  0
 17 20  1  0
 20 21  1  0
 20 22  1  0
  9  2  1  0
 16 11  1  0
  1 23  1  0
  1 24  1  0
  1 25  1  0
  3 26  1  0
 10 27  1  0
 10 28  1  0
 12 29  1  0
 13 30  1  0
 14 31  1  0
 15 32  1  0
 21 33  1  0
 21 34  1  0
 21 35  1  0
 22 36  1  0
 22 37  1  0
 22 38  1  0
M  CHG  2   5   1   7  -1
M  END
>  <UniqueID>  (39) 
38

>  <SMILES>  (39) 
Cc1cc([N+](=O)[O-])nn1Cc1ccccc1S(=O)(=O)N(C)C

>  <Energy>  (39) 
65.32072492409516

>  <Genealogy>  (39) 
Cc1cc([N+](=O)[O-])nn1Cc1ccccc1S(=O)(=O)N(C)C (3D coordinates assigned)
Cc1cc([N+](=O)[O-])nn1Cc1ccccc1S(=O)(=O)N(C)C (optimized conformer: 65.32072492409516 kcal/mol)

>  <smiles>  (39) 
Cc1cc([N+](=O)[O-])nn1Cc1ccccc1S(=O)(=O)N(C)C

>  <score_type>  (39) 
oracle

>  <origin>  (39) 
adgpu

>  <m_score__min__energy>  (39) 
-9.3000000000000007

>  <m_primary>  (39) 
energy

$$$$
39:0
     RDKit          3D

 24 24  0  0  0  0  0  0  0  0999 V2000
   -8.8550   20.7130  -31.9900 C   0  0  0  0  0  0  0  0  0  0  0  0
   -8.4380   21.7600  -31.2750 C   0  0  0  0  0  0  0  0  0  0  0  0
   -8.0140   23.0360  -31.9490 C   0  0  0  0  0  0  0  0  0  0  0  0
   -6.7000   23.5320  -31.3920 C   0  0  0  0  0  0  0  0  0  0  0  0
   -6.7070   24.5800  -30.4560 C   0  0  0  0  0  0  0  0  0  0  0  0
   -5.5120   25.0590  -29.9170 C   0  0  0  0  0  0  0  0  0  0  0  0
   -4.2870   24.5000  -30.2910 C   0  0  0  0  0  0  0  0  0  0  0  0
   -3.1160   25.0200  -29.7220 O   0  0  0  0  0  0  0  0  0  0  0  0
   -2.4750   24.4840  -28.5690 C   0  0  0  0  0  0  0  0  0  0  0  0
   -4.2720   23.4410  -31.2170 C   0  0  0  0  0  0  0  0  0  0  0  0
   -5.4640   22.9490  -31.7630 C   0  0  0  0  0  0  0  0  0  0  0  0
   -5.3840   21.8810  -32.6590 O   0  0  0  0  0  0  0  0  0  0  0  0
   -9.1617   19.7869  -31.4817 H   0  0  0  0  0  0  0  0  0  0  0  0
   -8.8920   20.7762  -33.0876 H   0  0  0  0  0  0  0  0  0  0  0  0
   -8.4039   21.6887  -30.1778 H   0  0  0  0  0  0  0  0  0  0  0  0
   -7.9011   22.8527  -33.0277 H   0  0  0  0  0  0  0  0  0  0  0  0
   -8.7831   23.8010  -31.7664 H   0  0  0  0  0  0  0  0  0  0  0  0
   -7.6629   25.0269  -30.1453 H   0  0  0  0  0  0  0  0  0  0  0  0
   -5.5346   25.8847  -29.1906 H   0  0  0  0  0  0  0  0  0  0  0  0
   -2.9542   24.8847  -27.6635 H   0  0  0  0  0  0  0  0  0  0  0  0
   -2.5640   23.3876  -28.5764 H   0  0  0  0  0  0  0  0  0  0  0  0
   -1.4117   24.7656  -28.5764 H   0  0  0  0  0  0  0  0  0  0  0  0
   -3.3123   22.9940  -31.5158 H   0  0  0  0  0  0  0  0  0  0  0  0
   -5.0780   21.9820  -33.6180 H   0  0  0  0  0  0  0  0  0  0  0  0
  1  2  2  0
  2  3  1  0
  3  4  1  0
  4  5  2  0
  5  6  1  0
  6  7  2  0
  7  8  1  0
  8  9  1  0
  7 10  1  0
 10 11  2  0
 11 12  1  0
 11  4  1  0
  1 13  1  0
  1 14  1  0
  2 15  1  0
  3 16  1  0
  3 17  1  0
  5 18  1  0
  6 19  1  0
  9 20  1  0
  9 21  1  0
  9 22  1  0
 10 23  1  0
 12 24  1  0
M  END
>  <UniqueID>  (40) 
39

>  <SMILES>  (40) 
C=CCc1ccc(OC)cc1O

>  <Energy>  (40) 
19.75281568198539

>  <Genealogy>  (40) 
C=CCc1ccc(OC)cc1O (3D coordinates assigned)
C=CCc1ccc(OC)cc1O (optimized conformer: 19.75281568198539 kcal/mol)

>  <smiles>  (40) 
C=CCc1ccc(OC)cc1O

>  <score_type>  (40) 
oracle

>  <origin>  (40) 
adgpu

>  <m_score__min__energy>  (40) 
-5.25

>  <m_primary>  (40) 
energy

$$$$
40:0
     RDKit          3D

 51 54  0  0  0  0  0  0  0  0999 V2000
   -3.2100   18.9420  -33.8770 C   0  0  0  0  0  0  0  0  0  0  0  0
   -2.4540   20.1290  -33.6550 O   0  0  0  0  0  0  0  0  0  0  0  0
   -2.1810   20.6670  -32.3890 C   0  0  0  0  0  0  0  0  0  0  0  0
   -3.0270   20.3290  -31.3260 C   0  0  0  0  0  0  0  0  0  0  0  0
   -2.7960   20.8360  -30.0450 C   0  0  0  0  0  0  0  0  0  0  0  0
   -1.7110   21.6920  -29.8050 C   0  0  0  0  0  0  0  0  0  0  0  0
   -1.4600   22.2020  -28.4840 N   0  0  0  0  0  0  0  0  0  0  0  0
   -1.6430   23.4610  -28.0340 C   0  0  0  0  0  0  0  0  0  0  0  0
   -2.4010   24.7960  -28.9670 S   0  0  0  0  0  0  0  0  0  0  0  0
   -4.1020   24.1520  -28.7930 C   0  0  0  0  0  0  0  0  0  0  0  0
   -4.9940   24.6930  -29.8780 C   0  0  0  0  0  0  0  0  0  0  0  0
   -5.7470   25.6680  -29.6190 O   0  0  0  0  0  0  0  0  0  0  0  0
   -4.9570   24.1880  -31.2200 N   0  0  0  0  0  0  0  0  0  0  0  0
   -5.7110   23.0810  -31.7220 C   0  0  0  0  0  0  0  0  0  0  0  0
   -5.1290   22.1260  -32.5740 C   0  0  0  0  0  0  0  0  0  0  0  0
   -5.8830   21.0420  -33.0340 C   0  0  0  0  0  0  0  0  0  0  0  0
   -7.2140   20.8930  -32.6310 C   0  0  0  0  0  0  0  0  0  0  0  0
   -7.7880   21.8220  -31.7580 C   0  0  0  0  0  0  0  0  0  0  0  0
   -9.4520   21.6260  -31.2390 Cl  0  0  0  0  0  0  0  0  0  0  0  0
   -7.0350   22.9070  -31.2970 C   0  0  0  0  0  0  0  0  0  0  0  0
   -1.0960   23.6370  -26.8150 N   0  0  0  0  0  0  0  0  0  0  0  0
   -0.5580   22.4800  -26.4630 N   0  0  0  0  0  0  0  0  0  0  0  0
   -0.7820   21.6150  -27.4720 C   0  0  0  0  0  0  0  0  0  0  0  0
   -0.2980   20.2190  -27.4570 C   0  0  0  0  0  0  0  0  0  0  0  0
    1.0320   19.9730  -27.8300 C   0  0  0  0  0  0  0  0  0  0  0  0
    1.5110   18.6630  -27.8650 C   0  0  0  0  0  0  0  0  0  0  0  0
    2.6990   18.4330  -28.2120 O   0  0  0  0  0  0  0  0  0  0  0  0
    0.6950   17.6310  -27.5310 N   0  0  0  0  0  0  0  0  0  0  0  0
   -0.5930   17.8330  -27.1440 C   0  0  0  0  0  0  0  0  0  0  0  0
   -1.1200   19.1320  -27.0730 C   0  0  0  0  0  0  0  0  0  0  0  0
   -2.5390   19.3090  -26.6000 C   0  0  0  0  0  0  0  0  0  0  0  0
   -0.8630   22.0350  -30.8700 C   0  0  0  0  0  0  0  0  0  0  0  0
   -1.0930   21.5280  -32.1520 C   0  0  0  0  0  0  0  0  0  0  0  0
   -3.4914   18.5002  -32.9097 H   0  0  0  0  0  0  0  0  0  0  0  0
   -4.1187   19.1871  -34.4463 H   0  0  0  0  0  0  0  0  0  0  0  0
   -2.6036   18.2222  -34.4463 H   0  0  0  0  0  0  0  0  0  0  0  0
   -3.8811   19.6583  -31.5010 H   0  0  0  0  0  0  0  0  0  0  0  0
   -3.4692   20.5622  -29.2193 H   0  0  0  0  0  0  0  0  0  0  0  0
   -4.0801   23.0542  -28.8586 H   0  0  0  0  0  0  0  0  0  0  0  0
   -4.5007   24.4704  -27.8185 H   0  0  0  0  0  0  0  0  0  0  0  0
   -4.0776   22.2319  -32.8796 H   0  0  0  0  0  0  0  0  0  0  0  0
   -5.4289   20.3057  -33.7135 H   0  0  0  0  0  0  0  0  0  0  0  0
   -7.8091   20.0450  -33.0009 H   0  0  0  0  0  0  0  0  0  0  0  0
   -7.4843   23.6272  -30.5974 H   0  0  0  0  0  0  0  0  0  0  0  0
    1.6949   20.8102  -28.0940 H   0  0  0  0  0  0  0  0  0  0  0  0
   -1.2265   16.9719  -26.8847 H   0  0  0  0  0  0  0  0  0  0  0  0
   -2.5613   19.3118  -25.5002 H   0  0  0  0  0  0  0  0  0  0  0  0
   -2.9349   20.2635  -26.9772 H   0  0  0  0  0  0  0  0  0  0  0  0
   -3.1572   18.4810  -26.9772 H   0  0  0  0  0  0  0  0  0  0  0  0
   -0.0109   22.7080  -30.6941 H   0  0  0  0  0  0  0  0  0  0  0  0
   -0.4214   21.8028  -32.9787 H   0  0  0  0  0  0  0  0  0  0  0  0
  1  2  1  0
  2  3  1  0
  3  4  2  0
  4  5  1  0
  5  6  2  0
  6  7  1  0
  7  8  1  0
  8  9  1  0
  9 10  1  0
 10 11  1  0
 11 12  2  0
 11 13  1  0
 13 14  1  0
 14 15  2  0
 15 16  1  0
 16 17  2  0
 17 18  1  0
 18 19  1  0
 18 20  2  0
  8 21  2  0
 21 22  1  0
 22 23  2  0
 23 24  1  0
 24 25  2  0
 25 26  1  0
 26 27  2  0
 26 28  1  0
 28 29  1  0
 29 30  2  0
 30 31  1  0
  6 32  1  0
 32 33  2  0
 33  3  1  0
 23  7  1  0
 30 24  1  0
 20 14  1  0
  1 34  1  0
  1 35  1  0
  1 36  1  0
  4 37  1  0
  5 38  1  0
 10 39  1  0
 10 40  1  0
 15 41  1  0
 16 42  1  0
 17 43  1  0
 20 44  1  0
 25 45  1  0
 29 46  1  0
 31 47  1  0
 31 48  1  0
 31 49  1  0
 32 50  1  0
 33 51  1  0
M  CHG  2  13  -1  28  -1
M  END
>  <UniqueID>  (41) 
40

>  <SMILES>  (41) 
COc1ccc(-n2c(SCC(=O)[N-]c3cccc(Cl)c3)nnc2-c2cc(=O)[n-]cc2C)cc1

>  <Energy>  (41) 
103.19438601523073

>  <Genealogy>  (41) 
COc1ccc(-n2c(SCC(=O)[N-]c3cccc(Cl)c3)nnc2-c2cc(=O)[n-]cc2C)cc1 (protonated)
COc1ccc(-n2c(SCC(=O)[N-]c3cccc(Cl)c3)nnc2-c2cc(=O)[n-]cc2C)cc1 (3D coordinates assigned)
COc1ccc(-n2c(SCC(=O)[N-]c3cccc(Cl)c3)nnc2-c2cc(=O)[n-]cc2C)cc1 (optimized conformer: 103.19438601523073 kcal/mol)

>  <smiles>  (41) 
COc1ccc(-n2c(SCC(=O)Nc3cccc(Cl)c3)nnc2-c2cc(=O)[nH]cc2C)cc1

>  <score_type>  (41) 
oracle

>  <origin>  (41) 
adgpu

>  <m_score__min__energy>  (41) 
-10.880000000000001

>  <m_primary>  (41) 
energy

$$$$
41:0
     RDKit          3D

 62 65  0  0  0  0  0  0  0  0999 V2000
    1.7100   15.0580  -27.9810 C   0  0  0  0  0  0  0  0  0  0  0  0
    0.7270   15.9840  -27.4310 N   0  0  0  0  0  0  0  0  0  0  0  0
    0.6730   17.3580  -27.8450 C   0  0  0  0  0  0  0  0  0  0  0  0
    1.5170   17.7920  -28.6780 O   0  0  0  0  0  0  0  0  0  0  0  0
   -0.3580   18.2670  -27.2990 C   0  0  0  0  0  0  0  0  0  0  0  0
   -0.1970   19.6630  -27.3590 C   0  0  0  0  0  0  0  0  0  0  0  0
   -1.1850   20.5000  -26.8120 C   0  0  0  0  0  0  0  0  0  0  0  0
   -1.0730   21.8980  -26.8460 O   0  0  0  0  0  0  0  0  0  0  0  0
   -1.7370   22.7380  -27.7510 C   0  0  0  0  0  0  0  0  0  0  0  0
   -3.0950   23.0080  -27.5460 C   0  0  0  0  0  0  0  0  0  0  0  0
   -3.7920   23.8480  -28.4200 C   0  0  0  0  0  0  0  0  0  0  0  0
   -3.1410   24.4220  -29.5160 C   0  0  0  0  0  0  0  0  0  0  0  0
   -3.8770   25.3010  -30.3810 N   0  0  0  0  0  0  0  0  0  0  0  0
   -5.1350   25.0000  -30.9940 C   0  0  0  0  0  0  0  0  0  0  0  0
   -6.0120   25.8990  -31.1220 O   0  0  0  0  0  0  0  0  0  0  0  0
   -5.3860   23.6410  -31.5080 C   0  0  0  0  0  0  0  0  0  0  0  0
   -4.3320   22.8020  -31.8920 C   0  0  0  0  0  0  0  0  0  0  0  0
   -4.6090   21.5210  -32.3920 C   0  0  0  0  0  0  0  0  0  0  0  0
   -3.5380   20.6310  -32.7590 N   0  0  0  0  0  0  0  0  0  0  0  0
   -2.1500   20.9320  -32.3840 C   0  0  0  0  0  0  0  0  0  0  0  0
   -1.1750   20.5490  -33.5250 C   0  0  0  0  0  0  0  0  0  0  0  0
   -1.7690   19.7730  -34.5560 O   0  0  0  0  0  0  0  0  0  0  0  0
   -2.5620   18.7470  -34.0020 C   0  0  0  0  0  0  0  0  0  0  0  0
   -3.8390   19.3520  -33.4120 C   0  0  0  0  0  0  0  0  0  0  0  0
   -5.9440   21.1020  -32.4940 C   0  0  0  0  0  0  0  0  0  0  0  0
   -6.9850   21.9660  -32.1030 C   0  0  0  0  0  0  0  0  0  0  0  0
   -8.3750   21.5720  -32.1880 N   0  0  0  0  0  0  0  0  0  0  0  0
   -8.6970   20.1680  -32.4580 C   0  0  0  0  0  0  0  0  0  0  0  0
   -9.4580   22.5400  -31.9650 C   0  0  0  0  0  0  0  0  0  0  0  0
   -6.6670   23.2020  -31.6220 N   0  0  0  0  0  0  0  0  0  0  0  0
   -1.7670   24.1880  -29.7020 C   0  0  0  0  0  0  0  0  0  0  0  0
   -1.0670   23.3550  -28.8240 C   0  0  0  0  0  0  0  0  0  0  0  0
    0.2710   23.1970  -28.9930 F   0  0  0  0  0  0  0  0  0  0  0  0
   -2.3300   19.9300  -26.2520 C   0  0  0  0  0  0  0  0  0  0  0  0
   -2.4600   18.5410  -26.2140 C   0  0  0  0  0  0  0  0  0  0  0  0
   -1.4810   17.7510  -26.7270 N   0  0  0  0  0  0  0  0  0  0  0  0
    2.2419   14.5569  -27.1588 H   0  0  0  0  0  0  0  0  0  0  0  0
    1.1990   14.3055  -28.5995 H   0  0  0  0  0  0  0  0  0  0  0  0
    2.4307   15.6130  -28.5995 H   0  0  0  0  0  0  0  0  0  0  0  0
    0.0630   15.6280  -26.7100 H   0  0  0  0  0  0  0  0  0  0  0  0
    0.6967   20.0971  -27.8311 H   0  0  0  0  0  0  0  0  0  0  0  0
   -3.6181   22.5558  -26.6905 H   0  0  0  0  0  0  0  0  0  0  0  0
   -4.8574   24.0581  -28.2444 H   0  0  0  0  0  0  0  0  0  0  0  0
   -3.2912   23.1464  -31.8018 H   0  0  0  0  0  0  0  0  0  0  0  0
   -2.0579   22.0085  -32.1774 H   0  0  0  0  0  0  0  0  0  0  0  0
   -1.8922   20.3463  -31.4893 H   0  0  0  0  0  0  0  0  0  0  0  0
   -0.7835   21.4752  -33.9710 H   0  0  0  0  0  0  0  0  0  0  0  0
   -0.3856   19.9293  -33.0747 H   0  0  0  0  0  0  0  0  0  0  0  0
   -2.8275   18.0240  -34.7874 H   0  0  0  0  0  0  0  0  0  0  0  0
   -1.9979   18.2351  -33.2085 H   0  0  0  0  0  0  0  0  0  0  0  0
   -4.5686   19.5183  -34.2182 H   0  0  0  0  0  0  0  0  0  0  0  0
   -4.2548   18.6574  -32.6672 H   0  0  0  0  0  0  0  0  0  0  0  0
   -6.1776   20.0986  -32.8794 H   0  0  0  0  0  0  0  0  0  0  0  0
   -8.8203   19.6305  -31.5062 H   0  0  0  0  0  0  0  0  0  0  0  0
   -9.6316   20.1106  -33.0352 H   0  0  0  0  0  0  0  0  0  0  0  0
   -7.8808   19.7091  -33.0352 H   0  0  0  0  0  0  0  0  0  0  0  0
   -9.6109   22.6766  -30.8843 H   0  0  0  0  0  0  0  0  0  0  0  0
   -9.1883   23.5036  -32.4219 H   0  0  0  0  0  0  0  0  0  0  0  0
  -10.3854   22.1643  -32.4219 H   0  0  0  0  0  0  0  0  0  0  0  0
   -1.2401   24.6628  -30.5428 H   0  0  0  0  0  0  0  0  0  0  0  0
   -3.1245   20.5717  -25.8434 H   0  0  0  0  0  0  0  0  0  0  0  0
   -3.3563   18.0852  -25.7681 H   0  0  0  0  0  0  0  0  0  0  0  0
  1  2  1  0
  2  3  1  0
  3  4  2  0
  3  5  1  0
  5  6  2  0
  6  7  1  0
  7  8  1  0
  8  9  1  0
  9 10  2  0
 10 11  1  0
 11 12  2  0
 12 13  1  0
 13 14  1  0
 14 15  2  0
 14 16  1  0
 16 17  2  0
 17 18  1  0
 18 19  1  0
 19 20  1  0
 20 21  1  0
 21 22  1  0
 22 23  1  0
 23 24  1  0
 18 25  2  0
 25 26  1  0
 26 27  1  0
 27 28  1  0
 27 29  1  0
 26 30  2  0
 12 31  1  0
 31 32  2  0
 32 33  1  0
  7 34  2  0
 34 35  1  0
 35 36  2  0
 36  5  1  0
 32  9  1  0
 30 16  1  0
 24 19  1  0
  1 37  1  0
  1 38  1  0
  1 39  1  0
  2 40  1  0
  6 41  1  0
 10 42  1  0
 11 43  1  0
 17 44  1  0
 20 45  1  0
 20 46  1  0
 21 47  1  0
 21 48  1  0
 23 49  1  0
 23 50  1  0
 24 51  1  0
 24 52  1  0
 25 53  1  0
 28 54  1  0
 28 55  1  0
 28 56  1  0
 29 57  1  0
 29 58  1  0
 29 59  1  0
 31 60  1  0
 34 61  1  0
 35 62  1  0
M  CHG  1  13  -1
M  END
>  <UniqueID>  (42) 
41

>  <SMILES>  (42) 
CNC(=O)c1cc(Oc2ccc([N-]C(=O)c3cc(N4CCOCC4)cc(N(C)C)n3)cc2F)ccn1

>  <Energy>  (42) 
84.22787839372496

>  <Genealogy>  (42) 
CNC(=O)c1cc(Oc2ccc([N-]C(=O)c3cc(N4CCOCC4)cc(N(C)C)n3)cc2F)ccn1 (protonated)
CNC(=O)c1cc(Oc2ccc([N-]C(=O)c3cc(N4CCOCC4)cc(N(C)C)n3)cc2F)ccn1 (3D coordinates assigned)
CNC(=O)c1cc(Oc2ccc([N-]C(=O)c3cc(N4CCOCC4)cc(N(C)C)n3)cc2F)ccn1 (nonaromatic ring conformer: 84.22787839372496 kcal/mol)

>  <smiles>  (42) 
CNC(=O)c1cc(Oc2ccc(NC(=O)c3cc(N4CCOCC4)cc(N(C)C)n3)cc2F)ccn1

>  <score_type>  (42) 
oracle

>  <origin>  (42) 
adgpu

>  <m_score__min__energy>  (42) 
-10.710000000000001

>  <m_primary>  (42) 
energy

$$$$
42:0
     RDKit          3D

 34 37  0  0  0  0  0  0  0  0999 V2000
   -4.7460   26.7050  -30.8180 H   0  0  0  0  0  0  0  0  0  0  0  0
   -4.2470   25.8470  -30.4910 N   0  0  0  0  0  0  0  0  0  0  0  0
   -4.6560   24.6600  -30.8080 C   0  0  0  0  0  0  0  0  0  0  0  0
   -5.7740   24.5240  -31.5720 N   0  0  0  0  0  0  0  0  0  0  0  0
   -6.2830   23.3110  -31.9060 C   0  0  0  0  0  0  0  0  0  0  0  0
   -7.1830   23.2498  -32.5356 H   0  0  0  0  0  0  0  0  0  0  0  0
   -5.6680   22.1360  -31.4530 C   0  0  0  0  0  0  0  0  0  0  0  0
   -6.2230   20.8030  -31.8010 C   0  0  0  0  0  0  0  0  0  0  0  0
   -5.3890   19.7950  -32.3230 C   0  0  0  0  0  0  0  0  0  0  0  0
   -4.3181   19.9956  -32.4743 H   0  0  0  0  0  0  0  0  0  0  0  0
   -5.9140   18.5410  -32.6500 C   0  0  0  0  0  0  0  0  0  0  0  0
   -5.2554   17.7596  -33.0571 H   0  0  0  0  0  0  0  0  0  0  0  0
   -7.2730   18.2780  -32.4610 C   0  0  0  0  0  0  0  0  0  0  0  0
   -7.6840   17.2911  -32.7200 H   0  0  0  0  0  0  0  0  0  0  0  0
   -8.1090   19.2690  -31.9430 C   0  0  0  0  0  0  0  0  0  0  0  0
   -9.1788   19.0611  -31.7933 H   0  0  0  0  0  0  0  0  0  0  0  0
   -7.5900   20.5250  -31.6140 C   0  0  0  0  0  0  0  0  0  0  0  0
   -8.2545   21.3010  -31.2063 H   0  0  0  0  0  0  0  0  0  0  0  0
   -4.5140   22.2500  -30.6630 C   0  0  0  0  0  0  0  0  0  0  0  0
   -4.0194   21.3409  -30.2902 H   0  0  0  0  0  0  0  0  0  0  0  0
   -3.9820   23.5100  -30.3420 C   0  0  0  0  0  0  0  0  0  0  0  0
   -2.7490   23.5810  -29.5190 C   0  0  0  0  0  0  0  0  0  0  0  0
   -2.2180   22.4850  -28.9030 N   0  0  0  0  0  0  0  0  0  0  0  0
   -1.1160   22.9790  -28.3120 C   0  0  0  0  0  0  0  0  0  0  0  0
   -0.1700   22.3100  -27.5450 C   0  0  0  0  0  0  0  0  0  0  0  0
   -0.2629   21.2356  -27.3283 H   0  0  0  0  0  0  0  0  0  0  0  0
    0.9130   23.0670  -27.0570 C   0  0  0  0  0  0  0  0  0  0  0  0
    1.6892   22.5874  -26.4426 H   0  0  0  0  0  0  0  0  0  0  0  0
    0.9990   24.4470  -27.3600 C   0  0  0  0  0  0  0  0  0  0  0  0
    1.8457   25.0371  -26.9795 H   0  0  0  0  0  0  0  0  0  0  0  0
    0.0380   25.0530  -28.1220 N   0  0  0  0  0  0  0  0  0  0  0  0
   -0.9980   24.3040  -28.5750 C   0  0  0  0  0  0  0  0  0  0  0  0
   -2.0140   24.7120  -29.3400 N   0  0  0  0  0  0  0  0  0  0  0  0
   -2.1630   25.6660  -29.7370 H   0  0  0  0  0  0  0  0  0  0  0  0
  1  2  1  0
  2  3  2  0
  3  4  1  0
  4  5  1  0
  5  6  1  0
  5  7  2  0
  7  8  1  0
  8  9  2  0
  9 10  1  0
  9 11  1  0
 11 12  1  0
 11 13  2  0
 13 14  1  0
 13 15  1  0
 15 16  1  0
 15 17  2  0
 17 18  1  0
  7 19  1  0
 19 20  1  0
 19 21  2  0
 21 22  1  0
 22 23  2  0
 23 24  1  0
 24 25  2  0
 25 26  1  0
 25 27  1  0
 27 28  1  0
 27 29  2  0
 29 30  1  0
 29 31  1  0
 31 32  2  0
 32 33  1  0
 33 34  1  0
 21  3  1  0
 33 22  1  0
 17  8  1  0
 32 24  1  0
M  CHG  1   4  -1
M  END
>  <UniqueID>  (43) 
42

>  <SMILES>  (43) 
[H]/N=c1\[n-]cc(-c2ccccc2)cc1-c1nc2cccnc2[nH]1

>  <Energy>  (43) 
88.43880050371308

>  <Genealogy>  (43) 
N=c1[n-]cc(-c2ccccc2)cc1-c1nc2cccnc2[nH]1 (protonated)
[H]/N=c1\[n-]cc(-c2ccccc2)cc1-c1nc2cccnc2[nH]1 (cis-trans isomerization)
[H]/N=c1\[n-]cc(-c2ccccc2)cc1-c1nc2cccnc2[nH]1 (3D coordinates assigned)
[H]/N=c1\[n-]cc(-c2ccccc2)cc1-c1nc2cccnc2[nH]1 (optimized conformer: 88.43880050371308 kcal/mol)

>  <smiles>  (43) 
N=c1[nH]cc(-c2ccccc2)cc1-c1nc2cccnc2[nH]1

>  <score_type>  (43) 
oracle

>  <origin>  (43) 
adgpu

>  <m_score__min__energy>  (43) 
-10.220000000000001

>  <m_primary>  (43) 
energy

$$$$
43:0
     RDKit          3D

 34 36  0  0  0  0  0  0  0  0999 V2000
   -9.5130   21.6450  -31.9820 C   0  0  0  0  0  0  0  0  0  0  0  0
   -8.6170   20.4430  -32.0450 C   0  0  0  0  0  0  0  0  0  0  0  0
   -8.9040   19.3080  -31.2760 C   0  0  0  0  0  0  0  0  0  0  0  0
   -8.0920   18.1750  -31.3630 C   0  0  0  0  0  0  0  0  0  0  0  0
   -6.9850   18.1540  -32.2270 C   0  0  0  0  0  0  0  0  0  0  0  0
   -6.1280   16.9190  -32.3060 C   0  0  0  0  0  0  0  0  0  0  0  0
   -6.7160   19.2840  -33.0290 C   0  0  0  0  0  0  0  0  0  0  0  0
   -5.3460   19.3100  -34.1950 S   0  0  0  0  0  0  0  0  0  0  0  0
   -4.3980   20.4440  -33.1880 C   0  0  0  0  0  0  0  0  0  0  0  0
   -3.0510   20.3000  -33.0860 N   0  0  0  0  0  0  0  0  0  0  0  0
   -2.3160   21.1600  -32.3360 C   0  0  0  0  0  0  0  0  0  0  0  0
   -2.9420   22.2070  -31.6590 C   0  0  0  0  0  0  0  0  0  0  0  0
   -4.3340   22.3450  -31.7710 C   0  0  0  0  0  0  0  0  0  0  0  0
   -5.0730   23.4310  -31.0940 C   0  0  0  0  0  0  0  0  0  0  0  0
   -6.4430   23.5010  -30.8500 C   0  0  0  0  0  0  0  0  0  0  0  0
   -6.8300   24.6690  -30.1800 C   0  0  0  0  0  0  0  0  0  0  0  0
   -5.7750   25.5240  -29.8910 C   0  0  0  0  0  0  0  0  0  0  0  0
   -4.3620   24.8250  -30.4710 S   0  0  0  0  0  0  0  0  0  0  0  0
   -5.0260   21.4550  -32.5340 N   0  0  0  0  0  0  0  0  0  0  0  0
   -7.5290   20.4210  -32.9280 C   0  0  0  0  0  0  0  0  0  0  0  0
   -9.7059   21.9038  -30.9304 H   0  0  0  0  0  0  0  0  0  0  0  0
   -9.0249   22.4930  -32.4847 H   0  0  0  0  0  0  0  0  0  0  0  0
  -10.4651   21.4194  -32.4847 H   0  0  0  0  0  0  0  0  0  0  0  0
   -9.7724   19.3090  -30.6008 H   0  0  0  0  0  0  0  0  0  0  0  0
   -8.3215   17.2913  -30.7494 H   0  0  0  0  0  0  0  0  0  0  0  0
   -5.8882   16.5735  -31.2896 H   0  0  0  0  0  0  0  0  0  0  0  0
   -6.6726   16.1285  -32.8431 H   0  0  0  0  0  0  0  0  0  0  0  0
   -5.1969   17.1526  -32.8431 H   0  0  0  0  0  0  0  0  0  0  0  0
   -1.2261   21.0314  -32.2619 H   0  0  0  0  0  0  0  0  0  0  0  0
   -2.3559   22.9105  -31.0494 H   0  0  0  0  0  0  0  0  0  0  0  0
   -7.1513   22.7161  -31.1537 H   0  0  0  0  0  0  0  0  0  0  0  0
   -7.8731   24.8883  -29.9081 H   0  0  0  0  0  0  0  0  0  0  0  0
   -5.8512   26.4911  -29.3724 H   0  0  0  0  0  0  0  0  0  0  0  0
   -7.3113   21.3038  -33.5471 H   0  0  0  0  0  0  0  0  0  0  0  0
  1  2  1  0
  2  3  2  0
  3  4  1  0
  4  5  2  0
  5  6  1  0
  5  7  1  0
  7  8  1  0
  8  9  1  0
  9 10  2  0
 10 11  1  0
 11 12  2  0
 12 13  1  0
 13 14  1  0
 14 15  2  0
 15 16  1  0
 16 17  2  0
 17 18  1  0
 13 19  2  0
  7 20  2  0
 20  2  1  0
 19  9  1  0
 18 14  1  0
  1 21  1  0
  1 22  1  0
  1 23  1  0
  3 24  1  0
  4 25  1  0
  6 26  1  0
  6 27  1  0
  6 28  1  0
 11 29  1  0
 12 30  1  0
 15 31  1  0
 16 32  1  0
 17 33  1  0
 20 34  1  0
M  END
>  <UniqueID>  (44) 
43

>  <SMILES>  (44) 
Cc1ccc(C)c(Sc2nccc(-c3cccs3)n2)c1

>  <Energy>  (44) 
59.113299650860405

>  <Genealogy>  (44) 
Cc1ccc(C)c(Sc2nccc(-c3cccs3)n2)c1 (3D coordinates assigned)
Cc1ccc(C)c(Sc2nccc(-c3cccs3)n2)c1 (optimized conformer: 59.113299650860405 kcal/mol)

>  <smiles>  (44) 
Cc1ccc(C)c(Sc2nccc(-c3cccs3)n2)c1

>  <score_type>  (44) 
oracle

>  <origin>  (44) 
adgpu

>  <m_score__min__energy>  (44) 
-8.1500000000000004

>  <m_primary>  (44) 
energy

$$$$
44:0
     RDKit          3D

 51 54  0  0  0  0  0  0  0  0999 V2000
    2.4110   19.5010  -33.0609 H   0  0  0  0  0  0  0  0  0  0  0  0
    1.3770   19.7640  -32.7930 C   0  0  0  0  0  0  0  0  0  0  0  0
    1.0980   20.2390  -31.5520 N   0  0  0  0  0  0  0  0  0  0  0  0
   -0.1670   20.5750  -31.1940 C   0  0  0  0  0  0  0  0  0  0  0  0
   -0.3970   21.0050  -29.9880 N   0  0  0  0  0  0  0  0  0  0  0  0
   -1.6660   21.4490  -29.4730 C   0  0  0  0  0  0  0  0  0  0  0  0
   -2.4170   22.4360  -30.1360 C   0  0  0  0  0  0  0  0  0  0  0  0
   -2.0235   22.8959  -31.0545 H   0  0  0  0  0  0  0  0  0  0  0  0
   -3.6620   22.8380  -29.6360 C   0  0  0  0  0  0  0  0  0  0  0  0
   -4.6230   24.0280  -30.5160 S   0  0  0  0  0  0  0  0  0  0  0  0
   -3.8640   25.3240  -30.5870 O   0  0  0  0  0  0  0  0  0  0  0  0
   -4.8670   23.5460  -31.9190 O   0  0  0  0  0  0  0  0  0  0  0  0
   -6.1390   24.3030  -29.7130 N   0  0  0  0  0  0  0  0  0  0  0  0
   -5.9680   24.2060  -28.6850 H   0  0  0  0  0  0  0  0  0  0  0  0
   -7.1080   23.2800  -30.1040 C   0  0  0  0  0  0  0  0  0  0  0  0
   -7.5417   22.8222  -29.2027 H   0  0  0  0  0  0  0  0  0  0  0  0
   -7.9077   23.7418  -30.7017 H   0  0  0  0  0  0  0  0  0  0  0  0
   -6.6036   22.5065  -30.7017 H   0  0  0  0  0  0  0  0  0  0  0  0
   -4.1450   22.2770  -28.4480 C   0  0  0  0  0  0  0  0  0  0  0  0
   -5.1297   22.5768  -28.0600 H   0  0  0  0  0  0  0  0  0  0  0  0
   -3.3790   21.3370  -27.7540 C   0  0  0  0  0  0  0  0  0  0  0  0
   -3.7515   20.9177  -26.8077 H   0  0  0  0  0  0  0  0  0  0  0  0
   -2.1400   20.9270  -28.2580 C   0  0  0  0  0  0  0  0  0  0  0  0
   -1.2080   19.7310  -27.3690 Cl  0  0  0  0  0  0  0  0  0  0  0  0
   -1.1790   20.4230  -32.0910 N   0  0  0  0  0  0  0  0  0  0  0  0
   -0.9530   19.9750  -33.3520 C   0  0  0  0  0  0  0  0  0  0  0  0
   -2.0410   19.8610  -34.2280 O   0  0  0  0  0  0  0  0  0  0  0  0
   -3.3840   19.7880  -33.8320 C   0  0  0  0  0  0  0  0  0  0  0  0
   -3.9460   20.8780  -33.1610 C   0  0  0  0  0  0  0  0  0  0  0  0
   -3.3317   21.7665  -32.9532 H   0  0  0  0  0  0  0  0  0  0  0  0
   -5.2820   20.8480  -32.7520 C   0  0  0  0  0  0  0  0  0  0  0  0
   -5.7083   21.7098  -32.2176 H   0  0  0  0  0  0  0  0  0  0  0  0
   -6.0860   19.7250  -33.0180 C   0  0  0  0  0  0  0  0  0  0  0  0
   -7.4640   19.6880  -32.5870 N   0  0  0  0  0  0  0  0  0  0  0  0
   -8.2150   18.5950  -32.3350 C   0  0  0  0  0  0  0  0  0  0  0  0
   -7.8456   17.5640  -32.4380 H   0  0  0  0  0  0  0  0  0  0  0  0
   -9.4680   18.9050  -31.9430 N   0  0  0  0  0  0  0  0  0  0  0  0
   -9.4980   20.2530  -31.9550 C   0  0  0  0  0  0  0  0  0  0  0  0
  -10.3691   20.8706  -31.6908 H   0  0  0  0  0  0  0  0  0  0  0  0
   -8.2730   20.7370  -32.3480 C   0  0  0  0  0  0  0  0  0  0  0  0
   -8.0009   21.7979  -32.4496 H   0  0  0  0  0  0  0  0  0  0  0  0
   -5.5230   18.6380  -33.7120 C   0  0  0  0  0  0  0  0  0  0  0  0
   -6.1398   17.7551  -33.9356 H   0  0  0  0  0  0  0  0  0  0  0  0
   -4.1880   18.6710  -34.1190 C   0  0  0  0  0  0  0  0  0  0  0  0
   -3.7626   17.8178  -34.6676 H   0  0  0  0  0  0  0  0  0  0  0  0
    0.3470   19.6080  -33.7350 C   0  0  0  0  0  0  0  0  0  0  0  0
    0.5720   19.0870  -35.0180 O   0  0  0  0  0  0  0  0  0  0  0  0
   -0.0200   17.8930  -35.5180 C   0  0  0  0  0  0  0  0  0  0  0  0
   -0.3343   17.2590  -34.6758 H   0  0  0  0  0  0  0  0  0  0  0  0
   -0.8963   18.1476  -36.1323 H   0  0  0  0  0  0  0  0  0  0  0  0
    0.7131   17.3497  -36.1323 H   0  0  0  0  0  0  0  0  0  0  0  0
  1  2  1  0
  2  3  2  0
  3  4  1  0
  4  5  2  0
  5  6  1  0
  6  7  2  0
  7  8  1  0
  7  9  1  0
  9 10  1  0
 10 11  2  0
 10 12  2  0
 10 13  1  0
 13 14  1  0
 13 15  1  0
 15 16  1  0
 15 17  1  0
 15 18  1  0
  9 19  2  0
 19 20  1  0
 19 21  1  0
 21 22  1  0
 21 23  2  0
 23 24  1  0
  4 25  1  0
 25 26  1  0
 26 27  1  0
 27 28  1  0
 28 29  2  0
 29 30  1  0
 29 31  1  0
 31 32  1  0
 31 33  2  0
 33 34  1  0
 34 35  1  0
 35 36  1  0
 35 37  2  0
 37 38  1  0
 38 39  1  0
 38 40  2  0
 40 41  1  0
 33 42  1  0
 42 43  1  0
 42 44  2  0
 44 45  1  0
 26 46  2  0
 46 47  1  0
 47 48  1  0
 48 49  1  0
 48 50  1  0
 48 51  1  0
 46  2  1  0
 23  6  1  0
 44 28  1  0
 40 34  1  0
M  CHG  1  25  -1
M  END
>  <UniqueID>  (45) 
44

>  <SMILES>  (45) 
CNS(=O)(=O)c1ccc(Cl)c(/N=c2/ncc(OC)c(Oc3ccc(-n4ccnc4)cc3)[n-]2)c1

>  <Energy>  (45) 
98.51813279448353

>  <Genealogy>  (45) 
CNS(=O)(=O)c1ccc(Cl)c(N=c2ncc(OC)c(Oc3ccc(-n4ccnc4)cc3)[n-]2)c1 (protonated)
CNS(=O)(=O)c1ccc(Cl)c(/N=c2/ncc(OC)c(Oc3ccc(-n4ccnc4)cc3)[n-]2)c1 (cis-trans isomerization)
CNS(=O)(=O)c1ccc(Cl)c(/N=c2/ncc(OC)c(Oc3ccc(-n4ccnc4)cc3)[n-]2)c1 (3D coordinates assigned)
CNS(=O)(=O)c1ccc(Cl)c(/N=c2/ncc(OC)c(Oc3ccc(-n4ccnc4)cc3)[n-]2)c1 (optimized conformer: 98.51813279448353 kcal/mol)

>  <smiles>  (45) 
CNS(=O)(=O)c1ccc(Cl)c(N=c2ncc(OC)c(Oc3ccc(-n4ccnc4)cc3)[nH]2)c1

>  <score_type>  (45) 
oracle

>  <origin>  (45) 
adgpu

>  <m_score__min__energy>  (45) 
-10.27

>  <m_primary>  (45) 
energy

$$$$
45:0
     RDKit          3D

 47 49  0  0  0  0  0  0  0  0999 V2000
   -5.3980   11.4890  -34.6730 C   0  0  0  0  0  0  0  0  0  0  0  0
   -4.1930   12.3220  -34.7760 N   0  0  0  0  0  0  0  0  0  0  0  0
   -2.9480   11.7100  -35.2590 C   0  0  0  0  0  0  0  0  0  0  0  0
   -4.2310   13.7250  -34.4050 C   0  0  0  0  0  0  0  0  0  0  0  0
   -3.0460   14.4300  -34.1120 C   0  0  0  0  0  0  0  0  0  0  0  0
   -3.0840   15.7800  -33.7540 C   0  0  0  0  0  0  0  0  0  0  0  0
   -4.3080   16.4640  -33.6720 C   0  0  0  0  0  0  0  0  0  0  0  0
   -4.3570   17.8990  -33.3010 C   0  0  0  0  0  0  0  0  0  0  0  0
   -3.3740   18.4200  -32.7030 O   0  0  0  0  0  0  0  0  0  0  0  0
   -5.5000   18.7080  -33.6230 N   0  0  0  0  0  0  0  0  0  0  0  0
   -5.6410   20.0520  -33.1390 C   0  0  0  0  0  0  0  0  0  0  0  0
   -4.5590   20.9260  -33.2750 C   0  0  0  0  0  0  0  0  0  0  0  0
   -4.6240   22.2270  -32.7850 C   0  0  0  0  0  0  0  0  0  0  0  0
   -5.7860   22.6970  -32.1500 C   0  0  0  0  0  0  0  0  0  0  0  0
   -5.8580   24.0360  -31.6330 N   0  0  0  0  0  0  0  0  0  0  0  0
   -5.1320   24.5910  -30.1600 S   0  0  0  0  0  0  0  0  0  0  0  0
   -6.2450   25.7230  -29.3620 C   0  0  0  0  0  0  0  0  0  0  0  0
   -3.8420   25.3010  -30.4610 O   0  0  0  0  0  0  0  0  0  0  0  0
   -4.8760   23.4270  -29.2450 O   0  0  0  0  0  0  0  0  0  0  0  0
   -6.9030   21.8390  -32.0320 C   0  0  0  0  0  0  0  0  0  0  0  0
   -8.0950   22.2860  -31.4230 C   0  0  0  0  0  0  0  0  0  0  0  0
   -9.2060   21.4460  -31.3380 C   0  0  0  0  0  0  0  0  0  0  0  0
   -9.1520   20.1570  -31.8630 C   0  0  0  0  0  0  0  0  0  0  0  0
   -7.9830   19.6900  -32.4640 C   0  0  0  0  0  0  0  0  0  0  0  0
   -6.8380   20.5110  -32.5400 C   0  0  0  0  0  0  0  0  0  0  0  0
   -5.4910   15.7720  -33.9740 C   0  0  0  0  0  0  0  0  0  0  0  0
   -5.4550   14.4220  -34.3320 C   0  0  0  0  0  0  0  0  0  0  0  0
   -5.6390   11.3224  -33.6127 H   0  0  0  0  0  0  0  0  0  0  0  0
   -6.2395   11.9991  -35.1646 H   0  0  0  0  0  0  0  0  0  0  0  0
   -5.2181   10.5215  -35.1646 H   0  0  0  0  0  0  0  0  0  0  0  0
   -2.3312   11.4068  -34.4001 H   0  0  0  0  0  0  0  0  0  0  0  0
   -3.1865   10.8264  -35.8693 H   0  0  0  0  0  0  0  0  0  0  0  0
   -2.3940   12.4385  -35.8693 H   0  0  0  0  0  0  0  0  0  0  0  0
   -2.0781   13.9101  -34.1660 H   0  0  0  0  0  0  0  0  0  0  0  0
   -2.1466   16.3121  -33.5343 H   0  0  0  0  0  0  0  0  0  0  0  0
   -6.1060   18.4180  -34.4230 H   0  0  0  0  0  0  0  0  0  0  0  0
   -3.6429   20.5807  -33.7765 H   0  0  0  0  0  0  0  0  0  0  0  0
   -3.7566   22.8943  -32.8960 H   0  0  0  0  0  0  0  0  0  0  0  0
   -6.1481   25.6245  -28.2707 H   0  0  0  0  0  0  0  0  0  0  0  0
   -5.9975   26.7524  -29.6606 H   0  0  0  0  0  0  0  0  0  0  0  0
   -7.2784   25.4930  -29.6606 H   0  0  0  0  0  0  0  0  0  0  0  0
   -8.1488   23.3049  -31.0120 H   0  0  0  0  0  0  0  0  0  0  0  0
  -10.1275   21.8030  -30.8548 H   0  0  0  0  0  0  0  0  0  0  0  0
  -10.0354   19.5042  -31.8034 H   0  0  0  0  0  0  0  0  0  0  0  0
   -7.9536   18.6730  -32.8822 H   0  0  0  0  0  0  0  0  0  0  0  0
   -6.4562   16.2977  -33.9284 H   0  0  0  0  0  0  0  0  0  0  0  0
   -6.3937   13.8957  -34.5599 H   0  0  0  0  0  0  0  0  0  0  0  0
  1  2  1  0
  2  3  1  0
  2  4  1  0
  4  5  2  0
  5  6  1  0
  6  7  2  0
  7  8  1  0
  8  9  2  0
  8 10  1  0
 10 11  1  0
 11 12  2  0
 12 13  1  0
 13 14  2  0
 14 15  1  0
 15 16  1  0
 16 17  1  0
 16 18  2  0
 16 19  2  0
 14 20  1  0
 20 21  2  0
 21 22  1  0
 22 23  2  0
 23 24  1  0
 24 25  2  0
  7 26  1  0
 26 27  2  0
 27  4  1  0
 25 11  1  0
 25 20  1  0
  1 28  1  0
  1 29  1  0
  1 30  1  0
  3 31  1  0
  3 32  1  0
  3 33  1  0
  5 34  1  0
  6 35  1  0
 10 36  1  0
 12 37  1  0
 13 38  1  0
 17 39  1  0
 17 40  1  0
 17 41  1  0
 21 42  1  0
 22 43  1  0
 23 44  1  0
 24 45  1  0
 26 46  1  0
 27 47  1  0
M  CHG  1  15  -1
M  END
>  <UniqueID>  (46) 
45

>  <SMILES>  (46) 
CN(C)c1ccc(C(=O)Nc2ccc([N-]S(C)(=O)=O)c3ccccc23)cc1

>  <Energy>  (46) 
63.23028864078724

>  <Genealogy>  (46) 
CN(C)c1ccc(C(=O)Nc2ccc([N-]S(C)(=O)=O)c3ccccc23)cc1 (protonated)
CN(C)c1ccc(C(=O)Nc2ccc([N-]S(C)(=O)=O)c3ccccc23)cc1 (3D coordinates assigned)
CN(C)c1ccc(C(=O)Nc2ccc([N-]S(C)(=O)=O)c3ccccc23)cc1 (optimized conformer: 63.23028864078724 kcal/mol)

>  <smiles>  (46) 
CN(C)c1ccc(C(=O)Nc2ccc(NS(C)(=O)=O)c3ccccc23)cc1

>  <score_type>  (46) 
oracle

>  <origin>  (46) 
adgpu

>  <m_score__min__energy>  (46) 
-10.279999999999999

>  <m_primary>  (46) 
energy

$$$$
46:0
     RDKit          3D

 40 41  0  0  0  0  0  0  0  0999 V2000
   -8.6230   19.1350  -31.6540 C   0  0  0  0  0  0  0  0  0  0  0  0
   -9.1730   20.5180  -32.7010 S   0  0  0  0  0  0  0  0  0  0  0  0
   -8.2160   21.7370  -31.8000 C   0  0  0  0  0  0  0  0  0  0  0  0
   -7.6630   22.8330  -32.4720 C   0  0  0  0  0  0  0  0  0  0  0  0
   -6.9180   23.7850  -31.7690 C   0  0  0  0  0  0  0  0  0  0  0  0
   -6.7110   23.6430  -30.3880 C   0  0  0  0  0  0  0  0  0  0  0  0
   -5.9440   24.6910  -29.6230 C   0  0  0  0  0  0  0  0  0  0  0  0
   -5.2260   25.6540  -30.5700 C   0  0  0  0  0  0  0  0  0  0  0  0
   -3.8270   25.2700  -30.7150 N   0  0  0  0  0  0  0  0  0  0  0  0
   -3.1340   24.4750  -29.7500 C   0  0  0  0  0  0  0  0  0  0  0  0
   -2.9470   24.9210  -28.5850 O   0  0  0  0  0  0  0  0  0  0  0  0
   -2.6800   23.1190  -30.1170 C   0  0  0  0  0  0  0  0  0  0  0  0
   -1.5540   22.7300  -29.7050 O   0  0  0  0  0  0  0  0  0  0  0  0
   -3.4870   22.2130  -30.9690 C   0  0  0  0  0  0  0  0  0  0  0  0
   -3.8820   20.9420  -30.5140 C   0  0  0  0  0  0  0  0  0  0  0  0
   -4.6310   20.0960  -31.3380 C   0  0  0  0  0  0  0  0  0  0  0  0
   -4.9990   20.5060  -32.6270 C   0  0  0  0  0  0  0  0  0  0  0  0
   -5.7680   19.5810  -33.5240 C   0  0  0  0  0  0  0  0  0  0  0  0
   -4.5780   21.7580  -33.0970 C   0  0  0  0  0  0  0  0  0  0  0  0
   -3.8290   22.6050  -32.2750 C   0  0  0  0  0  0  0  0  0  0  0  0
   -7.2730   22.5430  -29.7160 C   0  0  0  0  0  0  0  0  0  0  0  0
   -8.0170   21.5930  -30.4220 C   0  0  0  0  0  0  0  0  0  0  0  0
   -8.7327   19.4108  -30.5948 H   0  0  0  0  0  0  0  0  0  0  0  0
   -9.2365   18.2472  -31.8671 H   0  0  0  0  0  0  0  0  0  0  0  0
   -7.5674   18.9110  -31.8671 H   0  0  0  0  0  0  0  0  0  0  0  0
   -7.8147   22.9459  -33.5556 H   0  0  0  0  0  0  0  0  0  0  0  0
   -6.4924   24.6489  -32.3006 H   0  0  0  0  0  0  0  0  0  0  0  0
   -6.6445   25.2611  -28.9952 H   0  0  0  0  0  0  0  0  0  0  0  0
   -5.1891   24.1859  -29.0025 H   0  0  0  0  0  0  0  0  0  0  0  0
   -5.7143   25.6259  -31.5553 H   0  0  0  0  0  0  0  0  0  0  0  0
   -5.2772   26.6709  -30.1537 H   0  0  0  0  0  0  0  0  0  0  0  0
   -3.5999   20.6113  -29.5035 H   0  0  0  0  0  0  0  0  0  0  0  0
   -4.9330   19.1034  -30.9727 H   0  0  0  0  0  0  0  0  0  0  0  0
   -6.3522   18.8782  -32.9118 H   0  0  0  0  0  0  0  0  0  0  0  0
   -6.4484   20.1675  -34.1589 H   0  0  0  0  0  0  0  0  0  0  0  0
   -5.0671   19.0192  -34.1589 H   0  0  0  0  0  0  0  0  0  0  0  0
   -4.8383   22.0753  -34.1175 H   0  0  0  0  0  0  0  0  0  0  0  0
   -3.5047   23.5858  -32.6530 H   0  0  0  0  0  0  0  0  0  0  0  0
   -7.1268   22.4297  -28.6317 H   0  0  0  0  0  0  0  0  0  0  0  0
   -8.4473   20.7298  -29.8930 H   0  0  0  0  0  0  0  0  0  0  0  0
  1  2  1  0
  2  3  1  0
  3  4  2  0
  4  5  1  0
  5  6  2  0
  6  7  1  0
  7  8  1  0
  8  9  1  0
  9 10  1  0
 10 11  2  0
 10 12  1  0
 12 13  2  0
 12 14  1  0
 14 15  2  0
 15 16  1  0
 16 17  2  0
 17 18  1  0
 17 19  1  0
 19 20  2  0
  6 21  1  0
 21 22  2  0
 22  3  1  0
 20 14  1  0
  1 23  1  0
  1 24  1  0
  1 25  1  0
  4 26  1  0
  5 27  1  0
  7 28  1  0
  7 29  1  0
  8 30  1  0
  8 31  1  0
 15 32  1  0
 16 33  1  0
 18 34  1  0
 18 35  1  0
 18 36  1  0
 19 37  1  0
 20 38  1  0
 21 39  1  0
 22 40  1  0
M  CHG  1   9  -1
M  END
>  <UniqueID>  (47) 
46

>  <SMILES>  (47) 
CSc1ccc(CC[N-]C(=O)C(=O)c2ccc(C)cc2)cc1

>  <Energy>  (47) 
33.50107663322945

>  <Genealogy>  (47) 
CSc1ccc(CC[N-]C(=O)C(=O)c2ccc(C)cc2)cc1 (protonated)
CSc1ccc(CC[N-]C(=O)C(=O)c2ccc(C)cc2)cc1 (3D coordinates assigned)
CSc1ccc(CC[N-]C(=O)C(=O)c2ccc(C)cc2)cc1 (optimized conformer: 33.50107663322945 kcal/mol)

>  <smiles>  (47) 
CSc1ccc(CCNC(=O)C(=O)c2ccc(C)cc2)cc1

>  <score_type>  (47) 
oracle

>  <origin>  (47) 
adgpu

>  <m_score__min__energy>  (47) 
-9.8200000000000003

>  <m_primary>  (47) 
energy

$$$$
47:0
     RDKit          3D

 39 42  0  0  0  0  0  0  0  0999 V2000
   -4.7060   24.9580  -31.1910 O   0  0  0  0  0  0  0  0  0  0  0  0
   -5.2950   23.5940  -30.9530 S   0  0  0  0  0  0  0  0  0  0  0  0
   -5.5080   23.3960  -29.4780 O   0  0  0  0  0  0  0  0  0  0  0  0
   -6.8040   23.4460  -31.7950 N   0  0  0  0  0  0  0  0  0  0  0  0
   -7.4490   22.1910  -32.0900 C   0  0  0  0  0  0  0  0  0  0  0  0
   -6.7140   21.0570  -32.4890 C   0  0  0  0  0  0  0  0  0  0  0  0
   -7.3620   19.8390  -32.7730 C   0  0  0  0  0  0  0  0  0  0  0  0
   -6.5930   18.6440  -33.1940 C   0  0  0  0  0  0  0  0  0  0  0  0
   -5.5090   18.7080  -34.0090 N   0  0  0  0  0  0  0  0  0  0  0  0
   -4.9880   17.4760  -34.2410 C   0  0  0  0  0  0  0  0  0  0  0  0
   -3.8710   17.2290  -35.0420 C   0  0  0  0  0  0  0  0  0  0  0  0
   -3.4340   15.9030  -35.2000 C   0  0  0  0  0  0  0  0  0  0  0  0
   -4.1130   14.8450  -34.5620 C   0  0  0  0  0  0  0  0  0  0  0  0
   -5.2360   15.1060  -33.7600 C   0  0  0  0  0  0  0  0  0  0  0  0
   -5.6470   16.4290  -33.6200 C   0  0  0  0  0  0  0  0  0  0  0  0
   -6.9340   17.0420  -32.7380 S   0  0  0  0  0  0  0  0  0  0  0  0
   -8.7600   19.7670  -32.6510 C   0  0  0  0  0  0  0  0  0  0  0  0
   -9.4930   20.8850  -32.2550 C   0  0  0  0  0  0  0  0  0  0  0  0
   -8.8460   22.0900  -31.9750 C   0  0  0  0  0  0  0  0  0  0  0  0
   -9.5860   23.1610  -31.5930 F   0  0  0  0  0  0  0  0  0  0  0  0
   -4.1820   22.3670  -31.5500 C   0  0  0  0  0  0  0  0  0  0  0  0
   -3.5710   21.4750  -30.6580 C   0  0  0  0  0  0  0  0  0  0  0  0
   -2.6990   20.4910  -31.1340 C   0  0  0  0  0  0  0  0  0  0  0  0
   -2.4390   20.3890  -32.5040 C   0  0  0  0  0  0  0  0  0  0  0  0
   -3.0540   21.2700  -33.3990 C   0  0  0  0  0  0  0  0  0  0  0  0
   -3.9260   22.2560  -32.9250 C   0  0  0  0  0  0  0  0  0  0  0  0
   -7.2540   24.3370  -32.1030 H   0  0  0  0  0  0  0  0  0  0  0  0
   -5.6198   21.1238  -32.5799 H   0  0  0  0  0  0  0  0  0  0  0  0
   -3.3436   18.0563  -35.5395 H   0  0  0  0  0  0  0  0  0  0  0  0
   -2.5554   15.6888  -35.8263 H   0  0  0  0  0  0  0  0  0  0  0  0
   -3.7618   13.8108  -34.6929 H   0  0  0  0  0  0  0  0  0  0  0  0
   -5.7750   14.2894  -33.2573 H   0  0  0  0  0  0  0  0  0  0  0  0
   -9.2796   18.8223  -32.8694 H   0  0  0  0  0  0  0  0  0  0  0  0
  -10.5870   20.8172  -32.1627 H   0  0  0  0  0  0  0  0  0  0  0  0
   -3.7781   21.5493  -29.5802 H   0  0  0  0  0  0  0  0  0  0  0  0
   -2.2172   19.7966  -30.4300 H   0  0  0  0  0  0  0  0  0  0  0  0
   -1.7511   19.6162  -32.8776 H   0  0  0  0  0  0  0  0  0  0  0  0
   -2.8519   21.1877  -34.4771 H   0  0  0  0  0  0  0  0  0  0  0  0
   -4.4117   22.9453  -33.6314 H   0  0  0  0  0  0  0  0  0  0  0  0
  1  2  2  0
  2  3  2  0
  2  4  1  0
  4  5  1  0
  5  6  2  0
  6  7  1  0
  7  8  1  0
  8  9  2  0
  9 10  1  0
 10 11  2  0
 11 12  1  0
 12 13  2  0
 13 14  1  0
 14 15  2  0
 15 16  1  0
  7 17  2  0
 17 18  1  0
 18 19  2  0
 19 20  1  0
  2 21  1  0
 21 22  2  0
 22 23  1  0
 23 24  2  0
 24 25  1  0
 25 26  2  0
 19  5  1  0
 26 21  1  0
 16  8  1  0
 15 10  1  0
  4 27  1  0
  6 28  1  0
 11 29  1  0
 12 30  1  0
 13 31  1  0
 14 32  1  0
 17 33  1  0
 18 34  1  0
 22 35  1  0
 23 36  1  0
 24 37  1  0
 25 38  1  0
 26 39  1  0
M  END
>  <UniqueID>  (48) 
47

>  <SMILES>  (48) 
O=S(=O)(Nc1cc(-c2nc3ccccc3s2)ccc1F)c1ccccc1

>  <Energy>  (48) 
83.62470809633373

>  <Genealogy>  (48) 
O=S(=O)(Nc1cc(-c2nc3ccccc3s2)ccc1F)c1ccccc1 (3D coordinates assigned)
O=S(=O)(Nc1cc(-c2nc3ccccc3s2)ccc1F)c1ccccc1 (optimized conformer: 83.62470809633373 kcal/mol)

>  <smiles>  (48) 
O=S(=O)(Nc1cc(-c2nc3ccccc3s2)ccc1F)c1ccccc1

>  <score_type>  (48) 
oracle

>  <origin>  (48) 
adgpu

>  <m_score__min__energy>  (48) 
-9.6500000000000004

>  <m_primary>  (48) 
energy

$$$$
48:0
     RDKit          3D

 41 44  0  0  0  0  0  0  0  0999 V2000
   -2.0078   21.3244  -33.0831 H   0  0  0  0  0  0  0  0  0  0  0  0
   -2.9190   21.2450  -32.4720 C   0  0  0  0  0  0  0  0  0  0  0  0
   -4.0650   20.9550  -33.1110 C   0  0  0  0  0  0  0  0  0  0  0  0
   -4.0202   20.8218  -34.2020 H   0  0  0  0  0  0  0  0  0  0  0  0
   -5.3880   20.8010  -32.4530 C   0  0  0  0  0  0  0  0  0  0  0  0
   -6.0670   19.5610  -32.5460 C   0  0  0  0  0  0  0  0  0  0  0  0
   -5.4980   18.3960  -33.2690 C   0  0  0  0  0  0  0  0  0  0  0  0
   -5.2200   17.2070  -32.5730 C   0  0  0  0  0  0  0  0  0  0  0  0
   -5.4169   17.1464  -31.4925 H   0  0  0  0  0  0  0  0  0  0  0  0
   -4.6940   16.1000  -33.2480 C   0  0  0  0  0  0  0  0  0  0  0  0
   -4.4722   15.1745  -32.6964 H   0  0  0  0  0  0  0  0  0  0  0  0
   -4.4500   16.1690  -34.6230 C   0  0  0  0  0  0  0  0  0  0  0  0
   -4.0338   15.2992  -35.1524 H   0  0  0  0  0  0  0  0  0  0  0  0
   -4.7350   17.3430  -35.3240 C   0  0  0  0  0  0  0  0  0  0  0  0
   -4.5458   17.3951  -36.4064 H   0  0  0  0  0  0  0  0  0  0  0  0
   -5.2600   18.4520  -34.6540 C   0  0  0  0  0  0  0  0  0  0  0  0
   -5.4878   19.3720  -35.2123 H   0  0  0  0  0  0  0  0  0  0  0  0
   -7.3240   19.4240  -31.9420 C   0  0  0  0  0  0  0  0  0  0  0  0
   -7.8595   18.4656  -32.0103 H   0  0  0  0  0  0  0  0  0  0  0  0
   -7.8860   20.4600  -31.2750 N   0  0  0  0  0  0  0  0  0  0  0  0
   -7.2570   21.6540  -31.1350 C   0  0  0  0  0  0  0  0  0  0  0  0
   -7.8810   22.6790  -30.4160 C   0  0  0  0  0  0  0  0  0  0  0  0
   -8.8854   22.5208  -29.9963 H   0  0  0  0  0  0  0  0  0  0  0  0
   -7.2340   23.9020  -30.2290 C   0  0  0  0  0  0  0  0  0  0  0  0
   -7.7352   24.7105  -29.6766 H   0  0  0  0  0  0  0  0  0  0  0  0
   -5.9510   24.0990  -30.7430 C   0  0  0  0  0  0  0  0  0  0  0  0
   -5.1310   25.6290  -30.4870 Cl  0  0  0  0  0  0  0  0  0  0  0  0
   -5.3170   23.0810  -31.4610 C   0  0  0  0  0  0  0  0  0  0  0  0
   -4.2984   23.2378  -31.8455 H   0  0  0  0  0  0  0  0  0  0  0  0
   -5.9730   21.8530  -31.6970 C   0  0  0  0  0  0  0  0  0  0  0  0
   -2.7790   21.4670  -31.0130 C   0  0  0  0  0  0  0  0  0  0  0  0
   -2.2480   22.6870  -30.5650 C   0  0  0  0  0  0  0  0  0  0  0  0
   -1.9504   23.4543  -31.2948 H   0  0  0  0  0  0  0  0  0  0  0  0
   -2.0950   22.9330  -29.1970 C   0  0  0  0  0  0  0  0  0  0  0  0
   -1.6654   23.8861  -28.8548 H   0  0  0  0  0  0  0  0  0  0  0  0
   -2.4870   21.9700  -28.2650 C   0  0  0  0  0  0  0  0  0  0  0  0
   -2.3581   22.1608  -27.1894 H   0  0  0  0  0  0  0  0  0  0  0  0
   -3.0430   20.7640  -28.6990 C   0  0  0  0  0  0  0  0  0  0  0  0
   -3.3588   20.0094  -27.9636 H   0  0  0  0  0  0  0  0  0  0  0  0
   -3.1990   20.5140  -30.0650 C   0  0  0  0  0  0  0  0  0  0  0  0
   -3.6515   19.5694  -30.4010 H   0  0  0  0  0  0  0  0  0  0  0  0
  1  2  1  0
  2  3  2  0
  3  4  1  0
  3  5  1  0
  5  6  1  0
  6  7  1  0
  7  8  2  0
  8  9  1  0
  8 10  1  0
 10 11  1  0
 10 12  2  0
 12 13  1  0
 12 14  1  0
 14 15  1  0
 14 16  2  0
 16 17  1  0
  6 18  2  0
 18 19  1  0
 18 20  1  0
 20 21  2  0
 21 22  1  0
 22 23  1  0
 22 24  2  0
 24 25  1  0
 24 26  1  0
 26 27  1  0
 26 28  2  0
 28 29  1  0
 28 30  1  0
  2 31  1  0
 31 32  2  0
 32 33  1  0
 32 34  1  0
 34 35  1  0
 34 36  2  0
 36 37  1  0
 36 38  1  0
 38 39  1  0
 38 40  2  0
 40 41  1  0
 30  5  2  0
 40 31  1  0
 16  7  1  0
 30 21  1  0
M  END
>  <UniqueID>  (49) 
48

>  <SMILES>  (49) 
Clc1ccc2ncc(-c3ccccc3)c(/C=C\c3ccccc3)c2c1

>  <Energy>  (49) 
68.40501571762661

>  <Genealogy>  (49) 
Clc1ccc2ncc(-c3ccccc3)c(/C=C\c3ccccc3)c2c1 (cis-trans isomerization)
Clc1ccc2ncc(-c3ccccc3)c(/C=C\c3ccccc3)c2c1 (3D coordinates assigned)
Clc1ccc2ncc(-c3ccccc3)c(/C=C\c3ccccc3)c2c1 (optimized conformer: 68.40501571762661 kcal/mol)

>  <smiles>  (49) 
Clc1ccc2ncc(-c3ccccc3)c(C=Cc3ccccc3)c2c1

>  <score_type>  (49) 
oracle

>  <origin>  (49) 
adgpu

>  <m_score__min__energy>  (49) 
-8.3300000000000001

>  <m_primary>  (49) 
energy

$$$$
49:0
     RDKit          3D

 44 47  0  0  0  0  0  0  0  0999 V2000
    1.4330   26.1470  -24.0910 C   0  0  0  0  0  0  0  0  0  0  0  0
    0.6580   26.0180  -25.3680 C   0  0  0  0  0  0  0  0  0  0  0  0
   -0.4870   26.7990  -25.5820 C   0  0  0  0  0  0  0  0  0  0  0  0
   -1.2300   26.6550  -26.7580 C   0  0  0  0  0  0  0  0  0  0  0  0
   -0.8580   25.7080  -27.7230 C   0  0  0  0  0  0  0  0  0  0  0  0
   -1.6270   25.5980  -28.9320 N   0  0  0  0  0  0  0  0  0  0  0  0
   -2.8910   24.9170  -29.0260 C   0  0  0  0  0  0  0  0  0  0  0  0
   -3.3680   24.3110  -28.0300 O   0  0  0  0  0  0  0  0  0  0  0  0
   -3.6180   24.8890  -30.2590 N   0  0  0  0  0  0  0  0  0  0  0  0
   -4.1800   23.7210  -30.8710 C   0  0  0  0  0  0  0  0  0  0  0  0
   -3.5710   22.4790  -30.6530 C   0  0  0  0  0  0  0  0  0  0  0  0
   -4.1070   21.3190  -31.2200 C   0  0  0  0  0  0  0  0  0  0  0  0
   -5.2660   21.3890  -32.0070 C   0  0  0  0  0  0  0  0  0  0  0  0
   -5.8340   20.1650  -32.6010 C   0  0  0  0  0  0  0  0  0  0  0  0
   -5.0670   19.3880  -33.4940 C   0  0  0  0  0  0  0  0  0  0  0  0
   -5.6000   18.1970  -34.0330 C   0  0  0  0  0  0  0  0  0  0  0  0
   -6.8620   17.7880  -33.7040 N   0  0  0  0  0  0  0  0  0  0  0  0
   -7.5970   18.5450  -32.8530 C   0  0  0  0  0  0  0  0  0  0  0  0
   -8.8550   18.2960  -32.4610 N   0  0  0  0  0  0  0  0  0  0  0  0
   -9.2180   19.2980  -31.6660 N   0  0  0  0  0  0  0  0  0  0  0  0
   -8.1920   20.1770  -31.5620 C   0  0  0  0  0  0  0  0  0  0  0  0
   -8.2690   21.4360  -30.7580 C   0  0  0  0  0  0  0  0  0  0  0  0
   -7.1260   19.7050  -32.3080 C   0  0  0  0  0  0  0  0  0  0  0  0
   -5.9070   22.6240  -32.1850 C   0  0  0  0  0  0  0  0  0  0  0  0
   -5.3690   23.7830  -31.6180 C   0  0  0  0  0  0  0  0  0  0  0  0
    0.2950   24.9300  -27.5100 C   0  0  0  0  0  0  0  0  0  0  0  0
    1.0380   25.0770  -26.3350 C   0  0  0  0  0  0  0  0  0  0  0  0
    0.7512   26.0335  -23.2353 H   0  0  0  0  0  0  0  0  0  0  0  0
    2.2057   25.3651  -24.0504 H   0  0  0  0  0  0  0  0  0  0  0  0
    1.9107   27.1370  -24.0504 H   0  0  0  0  0  0  0  0  0  0  0  0
   -0.8022   27.5283  -24.8212 H   0  0  0  0  0  0  0  0  0  0  0  0
   -2.1127   27.2892  -26.9273 H   0  0  0  0  0  0  0  0  0  0  0  0
   -1.2730   26.1090  -29.7700 H   0  0  0  0  0  0  0  0  0  0  0  0
   -2.6654   22.4157  -30.0318 H   0  0  0  0  0  0  0  0  0  0  0  0
   -3.6184   20.3485  -31.0485 H   0  0  0  0  0  0  0  0  0  0  0  0
   -4.0524   19.7104  -33.7708 H   0  0  0  0  0  0  0  0  0  0  0  0
   -4.9941   17.5926  -34.7241 H   0  0  0  0  0  0  0  0  0  0  0  0
   -8.2538   21.1882  -29.6864 H   0  0  0  0  0  0  0  0  0  0  0  0
   -7.4084   22.0776  -30.9982 H   0  0  0  0  0  0  0  0  0  0  0  0
   -9.2014   21.9680  -30.9982 H   0  0  0  0  0  0  0  0  0  0  0  0
   -6.8354   22.6806  -32.7723 H   0  0  0  0  0  0  0  0  0  0  0  0
   -5.8785   24.7479  -31.7571 H   0  0  0  0  0  0  0  0  0  0  0  0
    0.6132   24.2028  -28.2716 H   0  0  0  0  0  0  0  0  0  0  0  0
    1.9265   24.4503  -26.1682 H   0  0  0  0  0  0  0  0  0  0  0  0
  1  2  1  0
  2  3  2  0
  3  4  1  0
  4  5  2  0
  5  6  1  0
  6  7  1  0
  7  8  2  0
  7  9  1  0
  9 10  1  0
 10 11  2  0
 11 12  1  0
 12 13  2  0
 13 14  1  0
 14 15  2  0
 15 16  1  0
 16 17  2  0
 17 18  1  0
 18 19  2  0
 19 20  1  0
 20 21  1  0
 21 22  1  0
 21 23  2  0
 13 24  1  0
 24 25  2  0
  5 26  1  0
 26 27  2  0
 27  2  1  0
 25 10  1  0
 23 14  1  0
 23 18  1  0
  1 28  1  0
  1 29  1  0
  1 30  1  0
  3 31  1  0
  4 32  1  0
  6 33  1  0
 11 34  1  0
 12 35  1  0
 15 36  1  0
 16 37  1  0
 22 38  1  0
 22 39  1  0
 22 40  1  0
 24 41  1  0
 25 42  1  0
 26 43  1  0
 27 44  1  0
M  CHG  2   9  -1  20  -1
M  END
>  <UniqueID>  (50) 
49

>  <SMILES>  (50) 
Cc1ccc(NC(=O)[N-]c2ccc(-c3ccnc4n[n-]c(C)c34)cc2)cc1

>  <Energy>  (50) 
102.20346464545125

>  <Genealogy>  (50) 
Cc1ccc(NC(=O)[N-]c2ccc(-c3ccnc4n[n-]c(C)c34)cc2)cc1 (protonated)
Cc1ccc(NC(=O)[N-]c2ccc(-c3ccnc4n[n-]c(C)c34)cc2)cc1 (3D coordinates assigned)
Cc1ccc(NC(=O)[N-]c2ccc(-c3ccnc4n[n-]c(C)c34)cc2)cc1 (optimized conformer: 102.20346464545125 kcal/mol)

>  <smiles>  (50) 
Cc1ccc(NC(=O)Nc2ccc(-c3ccnc4n[nH]c(C)c34)cc2)cc1

>  <score_type>  (50) 
oracle

>  <origin>  (50) 
adgpu

>  <m_score__min__energy>  (50) 
-10.57

>  <m_primary>  (50) 
energy

$$$$
