0:0
     RDKit          3D

 39 41  0  0  0  0  0  0  0  0999 V2000
   -2.1120   25.2180  -28.9640 O   0  0  0  0  0  0  0  0  0  0  0  0
   -2.8940   24.5620  -29.7050 C   0  0  0  0  0  0  0  0  0  0  0  0
   -2.8130   23.0660  -29.7420 C   0  0  0  0  0  0  0  0  0  0  0  0
   -3.3620   22.4280  -28.4590 C   0  0  0  0  0  0  0  0  0  0  0  0
   -2.5580   21.2240  -28.0310 C   0  0  0  0  0  0  0  0  0  0  0  0
   -1.2450   21.0440  -28.4950 C   0  0  0  0  0  0  0  0  0  0  0  0
   -0.5070   19.9220  -28.1050 C   0  0  0  0  0  0  0  0  0  0  0  0
   -1.0660   18.9840  -27.2320 C   0  0  0  0  0  0  0  0  0  0  0  0
   -2.3660   19.1650  -26.7530 C   0  0  0  0  0  0  0  0  0  0  0  0
   -3.1130   20.2790  -27.1510 C   0  0  0  0  0  0  0  0  0  0  0  0
   -3.8620   25.2370  -30.5160 N   0  0  0  0  0  0  0  0  0  0  0  0
   -5.2650   25.3680  -30.1460 C   0  0  0  0  0  0  0  0  0  0  0  0
   -6.0510   24.2510  -30.7450 C   0  0  0  0  0  0  0  0  0  0  0  0
   -5.5030   23.1090  -31.2020 N   0  0  0  0  0  0  0  0  0  0  0  0
   -6.6000   22.4280  -31.6000 C   0  0  0  0  0  0  0  0  0  0  0  0
   -6.5580   21.0640  -32.1660 C   0  0  0  0  0  0  0  0  0  0  0  0
   -7.6910   20.2320  -32.1030 C   0  0  0  0  0  0  0  0  0  0  0  0
   -7.6600   18.9520  -32.6640 C   0  0  0  0  0  0  0  0  0  0  0  0
   -6.5010   18.4890  -33.2920 C   0  0  0  0  0  0  0  0  0  0  0  0
   -6.4630   16.7410  -34.0620 Br  0  0  0  0  0  0  0  0  0  0  0  0
   -5.3690   19.3070  -33.3570 C   0  0  0  0  0  0  0  0  0  0  0  0
   -5.3960   20.5880  -32.7980 C   0  0  0  0  0  0  0  0  0  0  0  0
   -7.7390   23.1200  -31.3880 N   0  0  0  0  0  0  0  0  0  0  0  0
   -7.3550   24.2420  -30.8580 O   0  0  0  0  0  0  0  0  0  0  0  0
   -3.3977   22.6999  -30.5988 H   0  0  0  0  0  0  0  0  0  0  0  0
   -1.7533   22.7856  -29.8340 H   0  0  0  0  0  0  0  0  0  0  0  0
   -3.3364   23.1758  -27.6527 H   0  0  0  0  0  0  0  0  0  0  0  0
   -4.3898   22.0927  -28.6620 H   0  0  0  0  0  0  0  0  0  0  0  0
   -0.7950   21.7887  -29.1681 H   0  0  0  0  0  0  0  0  0  0  0  0
    0.5148   19.7773  -28.4857 H   0  0  0  0  0  0  0  0  0  0  0  0
   -0.4828   18.1042  -26.9225 H   0  0  0  0  0  0  0  0  0  0  0  0
   -2.8032   18.4299  -26.0613 H   0  0  0  0  0  0  0  0  0  0  0  0
   -4.1374   20.4156  -26.7742 H   0  0  0  0  0  0  0  0  0  0  0  0
   -5.3586   25.3342  -29.0505 H   0  0  0  0  0  0  0  0  0  0  0  0
   -5.6519   26.3269  -30.5212 H   0  0  0  0  0  0  0  0  0  0  0  0
   -8.6063   20.5908  -31.6095 H   0  0  0  0  0  0  0  0  0  0  0  0
   -8.5501   18.3079  -32.6109 H   0  0  0  0  0  0  0  0  0  0  0  0
   -4.4554   18.9419  -33.8489 H   0  0  0  0  0  0  0  0  0  0  0  0
   -4.5026   21.2274  -32.8530 H   0  0  0  0  0  0  0  0  0  0  0  0
  1  2  2  0
  2  3  1  0
  3  4  1  0
  4  5  1  0
  5  6  2  0
  6  7  1  0
  7  8  2  0
  8  9  1  0
  9 10  2  0
  2 11  1  0
 11 12  1  0
 12 13  1  0
 13 14  2  0
 14 15  1  0
 15 16  1  0
 16 17  2  0
 17 18  1  0
 18 19  2  0
 19 20  1  0
 19 21  1  0
 21 22  2  0
 15 23  2  0
 23 24  1  0
 10  5  1  0
 24 13  1  0
 22 16  1  0
  3 25  1  0
  3 26  1  0
  4 27  1  0
  4 28  1  0
  6 29  1  0
  7 30  1  0
  8 31  1  0
  9 32  1  0
 10 33  1  0
 12 34  1  0
 12 35  1  0
 17 36  1  0
 18 37  1  0
 21 38  1  0
 22 39  1  0
M  CHG  1  11  -1
M  END
>  <UniqueID>  (1) 
1

>  <SMILES>  (1) 
O=C(CCc1ccccc1)[N-]Cc1nc(-c2ccc(Br)cc2)no1

>  <Energy>  (1) 
63.86052746660688

>  <Genealogy>  (1) 
O=C(CCc1ccccc1)[N-]Cc1nc(-c2ccc(Br)cc2)no1 (protonated)
O=C(CCc1ccccc1)[N-]Cc1nc(-c2ccc(Br)cc2)no1 (3D coordinates assigned)
O=C(CCc1ccccc1)[N-]Cc1nc(-c2ccc(Br)cc2)no1 (optimized conformer: 63.86052746660688 kcal/mol)

>  <smiles>  (1) 
O=C(CCc1ccccc1)NCc1nc(-c2ccc(Br)cc2)no1

>  <score_type>  (1) 
oracle

>  <origin>  (1) 
adgpu

>  <m_score__min__energy>  (1) 
-10.880000000000001

>  <m_primary>  (1) 
energy

$$$$
1:0
     RDKit          3D

 47 49  0  0  0  0  0  0  0  0999 V2000
   -5.3710   17.8660  -35.3390 C   0  0  0  0  0  0  0  0  0  0  0  0
   -5.1480   18.5580  -34.0710 N   0  0  0  0  0  0  0  0  0  0  0  0
   -6.2610   18.8810  -33.2290 C   0  0  0  0  0  0  0  0  0  0  0  0
   -6.9100   20.1190  -33.3600 C   0  0  0  0  0  0  0  0  0  0  0  0
   -8.0460   20.4010  -32.5930 C   0  0  0  0  0  0  0  0  0  0  0  0
   -8.5360   19.4490  -31.6920 C   0  0  0  0  0  0  0  0  0  0  0  0
   -7.8820   18.2200  -31.5450 C   0  0  0  0  0  0  0  0  0  0  0  0
   -6.7500   17.9350  -32.3150 C   0  0  0  0  0  0  0  0  0  0  0  0
   -3.5480   18.8630  -33.4680 S   0  0  0  0  0  0  0  0  0  0  0  0
   -2.6140   19.1280  -34.6180 O   0  0  0  0  0  0  0  0  0  0  0  0
   -3.0310   17.6790  -32.6990 O   0  0  0  0  0  0  0  0  0  0  0  0
   -3.6180   20.2670  -32.4110 C   0  0  0  0  0  0  0  0  0  0  0  0
   -4.0650   21.4980  -32.9140 C   0  0  0  0  0  0  0  0  0  0  0  0
   -4.2240   22.5900  -32.0570 C   0  0  0  0  0  0  0  0  0  0  0  0
   -3.9480   22.4560  -30.6900 C   0  0  0  0  0  0  0  0  0  0  0  0
   -4.1520   23.5690  -29.8070 N   0  0  0  0  0  0  0  0  0  0  0  0
   -3.7270   23.4320  -28.4100 C   0  0  0  0  0  0  0  0  0  0  0  0
   -2.6180   24.3960  -28.1190 C   0  0  0  0  0  0  0  0  0  0  0  0
   -1.9880   24.5600  -26.9010 C   0  0  0  0  0  0  0  0  0  0  0  0
   -1.0700   25.5730  -27.0940 C   0  0  0  0  0  0  0  0  0  0  0  0
   -1.2050   25.9650  -28.4110 C   0  0  0  0  0  0  0  0  0  0  0  0
   -2.1380   25.2480  -28.9940 O   0  0  0  0  0  0  0  0  0  0  0  0
   -4.8770   24.7410  -30.2510 C   0  0  0  0  0  0  0  0  0  0  0  0
   -4.2650   25.6670  -30.8510 O   0  0  0  0  0  0  0  0  0  0  0  0
   -6.3600   24.8770  -30.0490 C   0  0  0  0  0  0  0  0  0  0  0  0
   -7.2230   23.6040  -30.9490 Cl  0  0  0  0  0  0  0  0  0  0  0  0
   -3.4880   21.2310  -30.1890 C   0  0  0  0  0  0  0  0  0  0  0  0
   -3.3280   20.1380  -31.0450 C   0  0  0  0  0  0  0  0  0  0  0  0
   -5.7029   16.8361  -35.1412 H   0  0  0  0  0  0  0  0  0  0  0  0
   -6.1438   18.3960  -35.9150 H   0  0  0  0  0  0  0  0  0  0  0  0
   -4.4341   17.8451  -35.9150 H   0  0  0  0  0  0  0  0  0  0  0  0
   -6.5248   20.8687  -34.0668 H   0  0  0  0  0  0  0  0  0  0  0  0
   -8.5538   21.3711  -32.6984 H   0  0  0  0  0  0  0  0  0  0  0  0
   -9.4362   19.6666  -31.0985 H   0  0  0  0  0  0  0  0  0  0  0  0
   -8.2583   17.4790  -30.8243 H   0  0  0  0  0  0  0  0  0  0  0  0
   -6.2412   16.9661  -32.2039 H   0  0  0  0  0  0  0  0  0  0  0  0
   -4.2908   21.6037  -33.9854 H   0  0  0  0  0  0  0  0  0  0  0  0
   -4.5663   23.5562  -32.4561 H   0  0  0  0  0  0  0  0  0  0  0  0
   -4.5786   23.6444  -27.7469 H   0  0  0  0  0  0  0  0  0  0  0  0
   -3.3699   22.4058  -28.2385 H   0  0  0  0  0  0  0  0  0  0  0  0
   -2.1777   24.0012  -25.9727 H   0  0  0  0  0  0  0  0  0  0  0  0
   -0.3725   25.9844  -26.3495 H   0  0  0  0  0  0  0  0  0  0  0  0
   -0.6193   26.7583  -28.8984 H   0  0  0  0  0  0  0  0  0  0  0  0
   -6.5907   24.7845  -28.9775 H   0  0  0  0  0  0  0  0  0  0  0  0
   -6.6839   25.8608  -30.4193 H   0  0  0  0  0  0  0  0  0  0  0  0
   -3.2523   21.1294  -29.1194 H   0  0  0  0  0  0  0  0  0  0  0  0
   -2.9742   19.1755  -30.6469 H   0  0  0  0  0  0  0  0  0  0  0  0
  1  2  1  0
  2  3  1  0
  3  4  2  0
  4  5  1  0
  5  6  2  0
  6  7  1  0
  7  8  2  0
  2  9  1  0
  9 10  2  0
  9 11  2  0
  9 12  1  0
 12 13  2  0
 13 14  1  0
 14 15  2  0
 15 16  1  0
 16 17  1  0
 17 18  1  0
 18 19  2  0
 19 20  1  0
 20 21  2  0
 21 22  1  0
 16 23  1  0
 23 24  2  0
 23 25  1  0
 25 26  1  0
 15 27  1  0
 27 28  2  0
  8  3  1  0
 28 12  1  0
 22 18  1  0
  1 29  1  0
  1 30  1  0
  1 31  1  0
  4 32  1  0
  5 33  1  0
  6 34  1  0
  7 35  1  0
  8 36  1  0
 13 37  1  0
 14 38  1  0
 17 39  1  0
 17 40  1  0
 19 41  1  0
 20 42  1  0
 21 43  1  0
 25 44  1  0
 25 45  1  0
 27 46  1  0
 28 47  1  0
M  END
>  <UniqueID>  (2) 
2

>  <SMILES>  (2) 
CN(c1ccccc1)S(=O)(=O)c1ccc(N(Cc2ccco2)C(=O)CCl)cc1

>  <Energy>  (2) 
83.0439094411428

>  <Genealogy>  (2) 
CN(c1ccccc1)S(=O)(=O)c1ccc(N(Cc2ccco2)C(=O)CCl)cc1 (3D coordinates assigned)
CN(c1ccccc1)S(=O)(=O)c1ccc(N(Cc2ccco2)C(=O)CCl)cc1 (optimized conformer: 83.0439094411428 kcal/mol)

>  <smiles>  (2) 
CN(c1ccccc1)S(=O)(=O)c1ccc(N(Cc2ccco2)C(=O)CCl)cc1

>  <score_type>  (2) 
oracle

>  <origin>  (2) 
adgpu

>  <m_score__min__energy>  (2) 
-9.4499999999999993

>  <m_primary>  (2) 
energy

$$$$
2:0
     RDKit          3D

 65 69  0  0  0  0  0  0  0  0999 V2000
   -4.5050   17.0280  -35.0280 C   0  0  0  0  0  0  0  0  0  0  0  0
   -3.3330   17.2260  -34.2470 O   0  0  0  0  0  0  0  0  0  0  0  0
   -2.8710   18.4760  -33.8010 C   0  0  0  0  0  0  0  0  0  0  0  0
   -1.6300   19.0040  -34.2120 C   0  0  0  0  0  0  0  0  0  0  0  0
   -1.2180   20.2660  -33.7720 C   0  0  0  0  0  0  0  0  0  0  0  0
   -2.0340   21.0110  -32.9180 C   0  0  0  0  0  0  0  0  0  0  0  0
   -3.2620   20.4950  -32.4950 C   0  0  0  0  0  0  0  0  0  0  0  0
   -3.6770   19.2270  -32.9220 C   0  0  0  0  0  0  0  0  0  0  0  0
   -4.9280   18.7110  -32.4600 N   0  0  0  0  0  0  0  0  0  0  0  0
   -6.4310   19.2510  -33.1150 S   0  0  0  0  0  0  0  0  0  0  0  0
   -7.4900   18.2270  -32.8210 O   0  0  0  0  0  0  0  0  0  0  0  0
   -6.3050   19.3920  -34.6010 O   0  0  0  0  0  0  0  0  0  0  0  0
   -6.8950   20.7980  -32.4170 C   0  0  0  0  0  0  0  0  0  0  0  0
   -8.1700   20.9820  -31.8550 C   0  0  0  0  0  0  0  0  0  0  0  0
   -8.4930   22.1910  -31.2420 C   0  0  0  0  0  0  0  0  0  0  0  0
   -7.5710   23.2370  -31.2190 C   0  0  0  0  0  0  0  0  0  0  0  0
   -6.3040   23.0750  -31.8120 C   0  0  0  0  0  0  0  0  0  0  0  0
   -5.3450   24.1420  -31.8440 N   0  0  0  0  0  0  0  0  0  0  0  0
   -4.5550   24.6230  -30.7500 C   0  0  0  0  0  0  0  0  0  0  0  0
   -4.6020   25.8500  -30.4690 O   0  0  0  0  0  0  0  0  0  0  0  0
   -3.7330   23.7220  -29.9110 C   0  0  0  0  0  0  0  0  0  0  0  0
   -2.6040   23.0710  -30.4330 C   0  0  0  0  0  0  0  0  0  0  0  0
   -1.8270   22.2430  -29.6220 C   0  0  0  0  0  0  0  0  0  0  0  0
   -2.1680   22.0480  -28.2760 C   0  0  0  0  0  0  0  0  0  0  0  0
   -1.1490   21.0430  -27.2420 S   0  0  0  0  0  0  0  0  0  0  0  0
   -2.0130   20.3730  -26.2000 O   0  0  0  0  0  0  0  0  0  0  0  0
   -0.4950   19.9730  -28.0760 O   0  0  0  0  0  0  0  0  0  0  0  0
    0.0770   22.0070  -26.4450 N   0  0  0  0  0  0  0  0  0  0  0  0
    0.7060   22.9080  -27.4310 C   0  0  0  0  0  0  0  0  0  0  0  0
    1.7220   23.8220  -26.7530 C   0  0  0  0  0  0  0  0  0  0  0  0
    1.0000   24.6810  -25.7670 C   0  0  0  0  0  0  0  0  0  0  0  0
    1.3890   26.0130  -25.5450 C   0  0  0  0  0  0  0  0  0  0  0  0
    0.6760   26.8130  -24.6450 C   0  0  0  0  0  0  0  0  0  0  0  0
   -0.4100   26.2830  -23.9460 C   0  0  0  0  0  0  0  0  0  0  0  0
   -0.7900   24.9510  -24.1510 C   0  0  0  0  0  0  0  0  0  0  0  0
   -0.0940   24.1410  -25.0670 C   0  0  0  0  0  0  0  0  0  0  0  0
   -0.5050   22.6860  -25.2490 C   0  0  0  0  0  0  0  0  0  0  0  0
   -3.3040   22.6790  -27.7520 C   0  0  0  0  0  0  0  0  0  0  0  0
   -4.0870   23.5010  -28.5670 C   0  0  0  0  0  0  0  0  0  0  0  0
   -5.9680   21.8460  -32.3910 C   0  0  0  0  0  0  0  0  0  0  0  0
   -5.3687   16.8821  -34.3626 H   0  0  0  0  0  0  0  0  0  0  0  0
   -4.6760   17.9100  -35.6627 H   0  0  0  0  0  0  0  0  0  0  0  0
   -4.3768   16.1388  -35.6627 H   0  0  0  0  0  0  0  0  0  0  0  0
   -0.9822   18.4201  -34.8824 H   0  0  0  0  0  0  0  0  0  0  0  0
   -0.2496   20.6724  -34.0992 H   0  0  0  0  0  0  0  0  0  0  0  0
   -1.7097   22.0055  -32.5777 H   0  0  0  0  0  0  0  0  0  0  0  0
   -3.9041   21.0859  -31.8253 H   0  0  0  0  0  0  0  0  0  0  0  0
   -8.9127   20.1718  -31.8990 H   0  0  0  0  0  0  0  0  0  0  0  0
   -9.4800   22.3209  -30.7740 H   0  0  0  0  0  0  0  0  0  0  0  0
   -7.8338   24.1901  -30.7369 H   0  0  0  0  0  0  0  0  0  0  0  0
   -2.3300   23.2146  -31.4886 H   0  0  0  0  0  0  0  0  0  0  0  0
   -0.9425   21.7407  -30.0407 H   0  0  0  0  0  0  0  0  0  0  0  0
    1.2164   22.3056  -28.1969 H   0  0  0  0  0  0  0  0  0  0  0  0
   -0.0759   23.5286  -27.8931 H   0  0  0  0  0  0  0  0  0  0  0  0
    2.4785   23.2156  -26.2334 H   0  0  0  0  0  0  0  0  0  0  0  0
    2.2254   24.4494  -27.5033 H   0  0  0  0  0  0  0  0  0  0  0  0
    2.2560   26.4278  -26.0800 H   0  0  0  0  0  0  0  0  0  0  0  0
    0.9717   27.8608  -24.4881 H   0  0  0  0  0  0  0  0  0  0  0  0
   -0.9666   26.9111  -23.2349 H   0  0  0  0  0  0  0  0  0  0  0  0
   -1.6401   24.5342  -23.5910 H   0  0  0  0  0  0  0  0  0  0  0  0
   -0.1903   22.1288  -24.3543 H   0  0  0  0  0  0  0  0  0  0  0  0
   -1.5944   22.6927  -25.4011 H   0  0  0  0  0  0  0  0  0  0  0  0
   -3.5798   22.5272  -26.6980 H   0  0  0  0  0  0  0  0  0  0  0  0
   -4.9876   23.9793  -28.1545 H   0  0  0  0  0  0  0  0  0  0  0  0
   -4.9689   21.7029  -32.8284 H   0  0  0  0  0  0  0  0  0  0  0  0
  1  2  1  0
  2  3  1  0
  3  4  2  0
  4  5  1  0
  5  6  2  0
  6  7  1  0
  7  8  2  0
  8  9  1  0
  9 10  1  0
 10 11  2  0
 10 12  2  0
 10 13  1  0
 13 14  2  0
 14 15  1  0
 15 16  2  0
 16 17  1  0
 17 18  1  0
 18 19  1  0
 19 20  2  0
 19 21  1  0
 21 22  2  0
 22 23  1  0
 23 24  2  0
 24 25  1  0
 25 26  2  0
 25 27  2  0
 25 28  1  0
 28 29  1  0
 29 30  1  0
 30 31  1  0
 31 32  2  0
 32 33  1  0
 33 34  2  0
 34 35  1  0
 35 36  2  0
 36 37  1  0
 24 38  1  0
 38 39  2  0
 17 40  2  0
  8  3  1  0
 40 13  1  0
 39 21  1  0
 37 28  1  0
 36 31  1  0
  1 41  1  0
  1 42  1  0
  1 43  1  0
  4 44  1  0
  5 45  1  0
  6 46  1  0
  7 47  1  0
 14 48  1  0
 15 49  1  0
 16 50  1  0
 22 51  1  0
 23 52  1  0
 29 53  1  0
 29 54  1  0
 30 55  1  0
 30 56  1  0
 32 57  1  0
 33 58  1  0
 34 59  1  0
 35 60  1  0
 37 61  1  0
 37 62  1  0
 38 63  1  0
 39 64  1  0
 40 65  1  0
M  CHG  2   9  -1  18  -1
M  END
>  <UniqueID>  (3) 
3

>  <SMILES>  (3) 
COc1ccccc1[N-]S(=O)(=O)c1cccc([N-]C(=O)c2ccc(S(=O)(=O)N3CCc4ccccc4C3)cc2)c1

>  <Energy>  (3) 
92.90362773021506

>  <Genealogy>  (3) 
COc1ccccc1[N-]S(=O)(=O)c1cccc([N-]C(=O)c2ccc(S(=O)(=O)N3CCc4ccccc4C3)cc2)c1 (protonated)
COc1ccccc1[N-]S(=O)(=O)c1cccc([N-]C(=O)c2ccc(S(=O)(=O)N3CCc4ccccc4C3)cc2)c1 (3D coordinates assigned)
COc1ccccc1[N-]S(=O)(=O)c1cccc([N-]C(=O)c2ccc(S(=O)(=O)N3CCc4ccccc4C3)cc2)c1 (nonaromatic ring conformer: 92.90362773021506 kcal/mol)

>  <smiles>  (3) 
COc1ccccc1NS(=O)(=O)c1cccc(NC(=O)c2ccc(S(=O)(=O)N3CCc4ccccc4C3)cc2)c1

>  <score_type>  (3) 
oracle

>  <origin>  (3) 
adgpu

>  <m_score__min__energy>  (3) 
-13.94

>  <m_primary>  (3) 
energy

$$$$
3:0
     RDKit          3D

 36 38  0  0  0  0  0  0  0  0999 V2000
   -0.0420   17.7740  -31.5250 C   0  0  0  0  0  0  0  0  0  0  0  0
   -0.8440   18.5650  -32.3970 O   0  0  0  0  0  0  0  0  0  0  0  0
   -1.4580   19.7750  -32.0350 C   0  0  0  0  0  0  0  0  0  0  0  0
   -1.0230   20.5310  -30.9280 C   0  0  0  0  0  0  0  0  0  0  0  0
   -1.6630   21.7310  -30.6030 C   0  0  0  0  0  0  0  0  0  0  0  0
   -1.2540   22.4660  -29.5370 N   0  0  0  0  0  0  0  0  0  0  0  0
   -1.8630   23.6370  -29.1970 C   0  0  0  0  0  0  0  0  0  0  0  0
   -1.3740   24.3870  -28.0150 C   0  0  0  0  0  0  0  0  0  0  0  0
   -1.1910   23.7290  -26.7870 C   0  0  0  0  0  0  0  0  0  0  0  0
   -0.7020   24.4210  -25.6710 C   0  0  0  0  0  0  0  0  0  0  0  0
   -0.5540   23.7170  -24.3540 C   0  0  0  0  0  0  0  0  0  0  0  0
   -0.4150   25.7870  -25.7750 C   0  0  0  0  0  0  0  0  0  0  0  0
   -0.5710   26.4580  -26.9980 C   0  0  0  0  0  0  0  0  0  0  0  0
   -0.2610   27.9240  -27.0990 C   0  0  0  0  0  0  0  0  0  0  0  0
   -1.0560   25.7570  -28.1170 C   0  0  0  0  0  0  0  0  0  0  0  0
   -1.2370   26.4270  -29.3250 O   0  0  0  0  0  0  0  0  0  0  0  0
   -2.9380   24.0960  -29.9890 C   0  0  0  0  0  0  0  0  0  0  0  0
   -3.5090   25.1900  -29.7380 O   0  0  0  0  0  0  0  0  0  0  0  0
   -3.3490   23.3590  -31.0540 N   0  0  0  0  0  0  0  0  0  0  0  0
   -2.7420   22.1880  -31.3800 C   0  0  0  0  0  0  0  0  0  0  0  0
   -3.1770   21.4420  -32.4780 C   0  0  0  0  0  0  0  0  0  0  0  0
   -2.5380   20.2400  -32.8050 C   0  0  0  0  0  0  0  0  0  0  0  0
   -3.1040   19.3200  -34.1920 Cl  0  0  0  0  0  0  0  0  0  0  0  0
   -0.2876   18.0162  -30.4805 H   0  0  0  0  0  0  0  0  0  0  0  0
   -0.2403   16.7081  -31.7106 H   0  0  0  0  0  0  0  0  0  0  0  0
    1.0211   17.9870  -31.7106 H   0  0  0  0  0  0  0  0  0  0  0  0
   -0.1786   20.1765  -30.3186 H   0  0  0  0  0  0  0  0  0  0  0  0
   -1.4341   22.6597  -26.7009 H   0  0  0  0  0  0  0  0  0  0  0  0
   -0.7051   24.4357  -23.5351 H   0  0  0  0  0  0  0  0  0  0  0  0
   -1.3031   22.9149  -24.2808 H   0  0  0  0  0  0  0  0  0  0  0  0
    0.4547   23.2844  -24.2808 H   0  0  0  0  0  0  0  0  0  0  0  0
   -0.0642   26.3394  -24.8908 H   0  0  0  0  0  0  0  0  0  0  0  0
   -0.1709   28.3502  -26.0889 H   0  0  0  0  0  0  0  0  0  0  0  0
    0.6862   28.0620  -27.6410 H   0  0  0  0  0  0  0  0  0  0  0  0
   -1.0712   28.4336  -27.6410 H   0  0  0  0  0  0  0  0  0  0  0  0
   -4.0216   21.7990  -33.0857 H   0  0  0  0  0  0  0  0  0  0  0  0
  1  2  1  0
  2  3  1  0
  3  4  2  0
  4  5  1  0
  5  6  1  0
  6  7  2  0
  7  8  1  0
  8  9  2  0
  9 10  1  0
 10 11  1  0
 10 12  2  0
 12 13  1  0
 13 14  1  0
 13 15  2  0
 15 16  1  0
  7 17  1  0
 17 18  2  0
 17 19  1  0
 19 20  1  0
 20 21  1  0
 21 22  2  0
 22 23  1  0
 22  3  1  0
 20  5  2  0
 15  8  1  0
  1 24  1  0
  1 25  1  0
  1 26  1  0
  4 27  1  0
  9 28  1  0
 11 29  1  0
 11 30  1  0
 11 31  1  0
 12 32  1  0
 14 33  1  0
 14 34  1  0
 14 35  1  0
 21 36  1  0
M  CHG  2  16  -1  19  -1
M  END
>  <UniqueID>  (4) 
4

>  <SMILES>  (4) 
COc1cc2nc(-c3cc(C)cc(C)c3[O-])c(=O)[n-]c2cc1Cl

>  <Energy>  (4) 
48.31011852051173

>  <Genealogy>  (4) 
COc1cc2nc(-c3cc(C)cc(C)c3[O-])c(=O)[n-]c2cc1Cl (protonated)
COc1cc2nc(-c3cc(C)cc(C)c3[O-])c(=O)[n-]c2cc1Cl (3D coordinates assigned)
COc1cc2nc(-c3cc(C)cc(C)c3[O-])c(=O)[n-]c2cc1Cl (optimized conformer: 48.31011852051173 kcal/mol)

>  <smiles>  (4) 
COc1cc2nc(-c3cc(C)cc(C)c3O)c(=O)[nH]c2cc1Cl

>  <score_type>  (4) 
oracle

>  <origin>  (4) 
adgpu

>  <m_score__min__energy>  (4) 
-10.4

>  <m_primary>  (4) 
energy

$$$$
4:0
     RDKit          3D

 51 53  0  0  0  0  0  0  0  0999 V2000
   -2.0070   19.9980  -26.9780 C   0  0  0  0  0  0  0  0  0  0  0  0
   -1.5000   21.2900  -27.2960 O   0  0  0  0  0  0  0  0  0  0  0  0
   -2.1440   22.2130  -28.1350 C   0  0  0  0  0  0  0  0  0  0  0  0
   -2.8360   21.8150  -29.2960 C   0  0  0  0  0  0  0  0  0  0  0  0
   -3.4690   22.7680  -30.1170 C   0  0  0  0  0  0  0  0  0  0  0  0
   -4.2060   22.3940  -31.2540 O   0  0  0  0  0  0  0  0  0  0  0  0
   -3.6550   21.7660  -32.4090 C   0  0  0  0  0  0  0  0  0  0  0  0
   -3.3810   24.1350  -29.7840 C   0  0  0  0  0  0  0  0  0  0  0  0
   -4.0040   25.1460  -30.5870 N   0  0  0  0  0  0  0  0  0  0  0  0
   -5.2650   25.7750  -30.3190 C   0  0  0  0  0  0  0  0  0  0  0  0
   -5.3590   27.0250  -30.4410 O   0  0  0  0  0  0  0  0  0  0  0  0
   -6.4940   24.9770  -29.9470 C   0  0  0  0  0  0  0  0  0  0  0  0
   -6.5090   23.6450  -30.5960 N   0  0  0  0  0  0  0  0  0  0  0  0
   -7.2330   22.6420  -29.7680 C   0  0  0  0  0  0  0  0  0  0  0  0
   -7.8160   21.4590  -30.5760 C   0  0  0  0  0  0  0  0  0  0  0  0
   -7.1350   21.2810  -31.8660 N   0  0  0  0  0  0  0  0  0  0  0  0
   -6.9910   19.9630  -32.4310 C   0  0  0  0  0  0  0  0  0  0  0  0
   -6.1690   19.7490  -33.5520 C   0  0  0  0  0  0  0  0  0  0  0  0
   -6.0220   18.4650  -34.0890 C   0  0  0  0  0  0  0  0  0  0  0  0
   -6.6890   17.3810  -33.5090 C   0  0  0  0  0  0  0  0  0  0  0  0
   -6.4960   15.7700  -34.1750 Cl  0  0  0  0  0  0  0  0  0  0  0  0
   -7.5090   17.5840  -32.3950 C   0  0  0  0  0  0  0  0  0  0  0  0
   -7.6620   18.8660  -31.8600 C   0  0  0  0  0  0  0  0  0  0  0  0
   -6.8790   22.4520  -32.7170 C   0  0  0  0  0  0  0  0  0  0  0  0
   -7.1020   23.7540  -31.9440 C   0  0  0  0  0  0  0  0  0  0  0  0
   -2.7230   24.5230  -28.6130 C   0  0  0  0  0  0  0  0  0  0  0  0
   -2.0990   23.5740  -27.7980 C   0  0  0  0  0  0  0  0  0  0  0  0
   -1.2560   24.1070  -26.3510 Cl  0  0  0  0  0  0  0  0  0  0  0  0
   -2.0529   19.8809  -25.8852 H   0  0  0  0  0  0  0  0  0  0  0  0
   -3.0159   19.8856  -27.4016 H   0  0  0  0  0  0  0  0  0  0  0  0
   -1.3438   19.2294  -27.4016 H   0  0  0  0  0  0  0  0  0  0  0  0
   -2.8822   20.7491  -29.5638 H   0  0  0  0  0  0  0  0  0  0  0  0
   -2.9591   20.9728  -32.0983 H   0  0  0  0  0  0  0  0  0  0  0  0
   -4.4655   21.3279  -33.0100 H   0  0  0  0  0  0  0  0  0  0  0  0
   -3.1152   22.5126  -33.0100 H   0  0  0  0  0  0  0  0  0  0  0  0
   -6.5117   24.8404  -28.8557 H   0  0  0  0  0  0  0  0  0  0  0  0
   -7.3776   25.5333  -30.2930 H   0  0  0  0  0  0  0  0  0  0  0  0
   -5.5130   23.3300  -30.7060 H   0  0  0  0  0  0  0  0  0  0  0  0
   -6.5320   22.2389  -29.0223 H   0  0  0  0  0  0  0  0  0  0  0  0
   -8.0859   23.1646  -29.3103 H   0  0  0  0  0  0  0  0  0  0  0  0
   -7.7044   20.5374  -29.9860 H   0  0  0  0  0  0  0  0  0  0  0  0
   -8.8748   21.6772  -30.7795 H   0  0  0  0  0  0  0  0  0  0  0  0
   -5.6380   20.5966  -34.0098 H   0  0  0  0  0  0  0  0  0  0  0  0
   -5.3807   18.3080  -34.9688 H   0  0  0  0  0  0  0  0  0  0  0  0
   -8.0350   16.7326  -31.9385 H   0  0  0  0  0  0  0  0  0  0  0  0
   -8.3120   19.0186  -30.9858 H   0  0  0  0  0  0  0  0  0  0  0  0
   -5.8381   22.4182  -33.0711 H   0  0  0  0  0  0  0  0  0  0  0  0
   -7.5773   22.4260  -33.5665 H   0  0  0  0  0  0  0  0  0  0  0  0
   -6.6273   24.5856  -32.4853 H   0  0  0  0  0  0  0  0  0  0  0  0
   -8.1822   23.9399  -31.8509 H   0  0  0  0  0  0  0  0  0  0  0  0
   -2.6960   25.5857  -28.3302 H   0  0  0  0  0  0  0  0  0  0  0  0
  1  2  1  0
  2  3  1  0
  3  4  2  0
  4  5  1  0
  5  6  1  0
  6  7  1  0
  5  8  2  0
  8  9  1  0
  9 10  1  0
 10 11  2  0
 10 12  1  0
 12 13  1  0
 13 14  1  0
 14 15  1  0
 15 16  1  0
 16 17  1  0
 17 18  2  0
 18 19  1  0
 19 20  2  0
 20 21  1  0
 20 22  1  0
 22 23  2  0
 16 24  1  0
 24 25  1  0
  8 26  1  0
 26 27  2  0
 27 28  1  0
 27  3  1  0
 25 13  1  0
 23 17  1  0
  1 29  1  0
  1 30  1  0
  1 31  1  0
  4 32  1  0
  7 33  1  0
  7 34  1  0
  7 35  1  0
 12 36  1  0
 12 37  1  0
 13 38  1  0
 14 39  1  0
 14 40  1  0
 15 41  1  0
 15 42  1  0
 18 43  1  0
 19 44  1  0
 22 45  1  0
 23 46  1  0
 24 47  1  0
 24 48  1  0
 25 49  1  0
 25 50  1  0
 26 51  1  0
M  CHG  2   9  -1  13   1
M  END
>  <UniqueID>  (5) 
5

>  <SMILES>  (5) 
COc1cc(OC)c([N-]C(=O)C[NH+]2CCN(c3ccc(Cl)cc3)CC2)cc1Cl

>  <Energy>  (5) 
67.93163948277312

>  <Genealogy>  (5) 
COc1cc(OC)c([N-]C(=O)C[NH+]2CCN(c3ccc(Cl)cc3)CC2)cc1Cl (protonated)
COc1cc(OC)c([N-]C(=O)C[NH+]2CCN(c3ccc(Cl)cc3)CC2)cc1Cl (3D coordinates assigned)
COc1cc(OC)c([N-]C(=O)C[NH+]2CCN(c3ccc(Cl)cc3)CC2)cc1Cl (nonaromatic ring conformer: 67.93163948277312 kcal/mol)

>  <smiles>  (5) 
COc1cc(OC)c(NC(=O)CN2CCN(c3ccc(Cl)cc3)CC2)cc1Cl

>  <score_type>  (5) 
oracle

>  <origin>  (5) 
adgpu

>  <m_score__min__energy>  (5) 
-9.25

>  <m_primary>  (5) 
energy

$$$$
5:0
     RDKit          3D

 50 53  0  0  1  0  0  0  0  0999 V2000
   -8.7330   20.3740  -32.9050 O   0  0  0  0  0  0  0  0  0  0  0  0
   -7.7390   21.2760  -32.4960 C   0  0  0  0  0  0  0  0  0  0  0  0
   -6.3940   21.0230  -32.7300 C   0  0  0  0  0  0  0  0  0  0  0  0
   -5.4470   21.9570  -32.3000 C   0  0  0  0  0  0  0  0  0  0  0  0
   -5.8620   23.1180  -31.6490 C   0  0  0  0  0  0  0  0  0  0  0  0
   -4.8570   24.0360  -31.2330 N   0  0  0  0  0  0  0  0  0  0  0  0
   -4.2710   24.0040  -30.0920 C   0  0  0  0  0  0  0  0  0  0  0  0
   -4.6150   23.0460  -29.2130 N   0  0  0  0  0  0  0  0  0  0  0  0
   -4.0450   22.9420  -27.9900 C   0  0  0  0  0  0  0  0  0  0  0  0
   -3.0790   23.8840  -27.6830 C   0  0  0  0  0  0  0  0  0  0  0  0
   -2.7010   24.8810  -28.5590 C   0  0  0  0  0  0  0  0  0  0  0  0
   -1.7890   25.7570  -28.2500 N   0  0  0  0  0  0  0  0  0  0  0  0
   -1.1930   25.6410  -26.9560 C   0  0  0  0  0  0  0  0  0  0  0  0
   -1.5700   26.5710  -26.0180 C   0  0  0  0  0  0  0  0  0  0  0  0
   -1.0640   26.5540  -24.7520 C   0  0  0  0  0  0  0  0  0  0  0  0
   -0.1550   25.5700  -24.4350 C   0  0  0  0  0  0  0  0  0  0  0  0
    0.2220   24.6290  -25.3900 C   0  0  0  0  0  0  0  0  0  0  0  0
   -0.2710   24.6220  -26.6720 C   0  0  0  0  0  0  0  0  0  0  0  0
    0.0460   23.7010  -27.6770 N   0  0  0  0  0  0  0  0  0  0  0  0
    0.7120   22.4350  -27.5580 C   0  0  0  0  0  0  0  0  0  0  0  0
   -0.1840   21.2860  -27.3430 C   0  0  0  0  0  0  0  0  0  0  0  0
   -1.2270   21.2020  -26.4770 C   0  0  0  0  0  0  0  0  0  0  0  0
   -2.0020   20.0560  -26.3350 C   0  0  0  0  0  0  0  0  0  0  0  0
   -1.7310   18.9330  -27.0900 C   0  0  0  0  0  0  0  0  0  0  0  0
   -0.6680   18.9940  -27.9830 C   0  0  0  0  0  0  0  0  0  0  0  0
    0.0870   20.1410  -28.1070 C   0  0  0  0  0  0  0  0  0  0  0  0
   -3.3200   24.9220  -29.7740 N   0  0  0  0  0  0  0  0  0  0  0  0
   -7.2110   23.3300  -31.4380 C   0  0  0  0  0  0  0  0  0  0  0  0
   -8.1720   22.4240  -31.8500 C   0  0  0  0  0  0  0  0  0  0  0  0
   -8.6570   20.0090  -33.8570 H   0  0  0  0  0  0  0  0  0  0  0  0
   -6.0790   20.1034  -33.2449 H   0  0  0  0  0  0  0  0  0  0  0  0
   -4.3761   21.7763  -32.4749 H   0  0  0  0  0  0  0  0  0  0  0  0
   -5.3340   22.3520  -29.4510 H   0  0  0  0  0  0  0  0  0  0  0  0
   -4.3334   22.1530  -27.2799 H   0  0  0  0  0  0  0  0  0  0  0  0
   -2.5914   23.8360  -26.6982 H   0  0  0  0  0  0  0  0  0  0  0  0
   -2.2976   27.3481  -26.2949 H   0  0  0  0  0  0  0  0  0  0  0  0
   -1.3724   27.3028  -24.0076 H   0  0  0  0  0  0  0  0  0  0  0  0
    0.2752   25.5268  -23.4235 H   0  0  0  0  0  0  0  0  0  0  0  0
    0.9491   23.8547  -25.1040 H   0  0  0  0  0  0  0  0  0  0  0  0
   -0.2450   23.9700  -28.6670 H   0  0  0  0  0  0  0  0  0  0  0  0
    1.2798   22.2582  -28.4834 H   0  0  0  0  0  0  0  0  0  0  0  0
    1.3504   22.5026  -26.6647 H   0  0  0  0  0  0  0  0  0  0  0  0
   -1.4696   22.0799  -25.8602 H   0  0  0  0  0  0  0  0  0  0  0  0
   -2.8354   20.0446  -25.6171 H   0  0  0  0  0  0  0  0  0  0  0  0
   -2.3362   18.0201  -26.9883 H   0  0  0  0  0  0  0  0  0  0  0  0
   -0.4257   18.1155  -28.5991 H   0  0  0  0  0  0  0  0  0  0  0  0
    0.9223   20.1588  -28.8225 H   0  0  0  0  0  0  0  0  0  0  0  0
   -3.0480   25.6710  -30.4560 H   0  0  0  0  0  0  0  0  0  0  0  0
   -7.5313   24.2492  -30.9257 H   0  0  0  0  0  0  0  0  0  0  0  0
   -9.2417   22.6079  -31.6714 H   0  0  0  0  0  0  0  0  0  0  0  0
  1  2  1  0
  2  3  2  0
  3  4  1  0
  4  5  2  0
  5  6  1  0
  6  7  2  0
  7  8  1  0
  8  9  1  0
  9 10  2  0
 10 11  1  0
 11 12  2  0
 12 13  1  0
 13 14  2  0
 14 15  1  0
 15 16  2  0
 16 17  1  0
 17 18  2  0
 18 19  1  0
 19 20  1  0
 20 21  1  0
 21 22  2  0
 22 23  1  0
 23 24  2  0
 24 25  1  0
 25 26  2  0
 11 27  1  0
  5 28  1  0
 28 29  2  0
 29  2  1  0
 27  7  1  0
 18 13  1  0
 26 21  1  0
  1 30  1  0
  3 31  1  0
  4 32  1  0
  8 33  1  0
  9 34  1  0
 10 35  1  0
 14 36  1  0
 15 37  1  0
 16 38  1  0
 17 39  1  0
 19 40  1  0
 20 41  1  0
 20 42  1  0
 22 43  1  0
 23 44  1  0
 24 45  1  0
 25 46  1  0
 26 47  1  0
 27 48  1  0
 28 49  1  0
 29 50  1  0
M  END
>  <smiles>  (6) 
Oc1ccc(N=c2[nH]ccc(=Nc3ccccc3NCc3ccccc3)[nH]2)cc1

>  <score_type>  (6) 
oracle

>  <origin>  (6) 
adgpu

>  <m_score__min__energy>  (6) 
-10.24

>  <m_primary>  (6) 
energy

$$$$
6:0
     RDKit          3D

 25 26  0  0  1  0  0  0  0  0999 V2000
   -8.8730   22.2550  -32.3460 O   0  0  0  0  0  0  0  0  0  0  0  0
   -7.7080   21.7050  -31.5800 S   0  0  0  0  0  0  0  0  0  0  0  0
   -8.0900   21.5310  -30.1230 O   0  0  0  0  0  0  0  0  0  0  0  0
   -6.2860   22.6480  -31.7320 N   0  0  0  0  0  0  0  0  0  0  0  0
   -6.0970   23.7380  -31.1060 C   0  0  0  0  0  0  0  0  0  0  0  0
   -7.1100   24.1730  -30.2570 C   0  0  0  0  0  0  0  0  0  0  0  0
   -6.9530   25.3400  -29.5610 C   0  0  0  0  0  0  0  0  0  0  0  0
   -5.8140   26.0690  -29.7000 N   0  0  0  0  0  0  0  0  0  0  0  0
   -4.8330   25.6330  -30.5330 C   0  0  0  0  0  0  0  0  0  0  0  0
   -4.9750   24.4860  -31.2240 N   0  0  0  0  0  0  0  0  0  0  0  0
   -7.3530   20.1230  -32.2810 C   0  0  0  0  0  0  0  0  0  0  0  0
   -6.4280   19.9880  -33.3080 C   0  0  0  0  0  0  0  0  0  0  0  0
   -6.1570   18.7490  -33.8490 C   0  0  0  0  0  0  0  0  0  0  0  0
   -6.8210   17.6260  -33.3580 C   0  0  0  0  0  0  0  0  0  0  0  0
   -7.7390   17.7840  -32.3370 C   0  0  0  0  0  0  0  0  0  0  0  0
   -8.0310   19.0080  -31.7740 C   0  0  0  0  0  0  0  0  0  0  0  0
   -8.0312   23.5821  -30.1463 H   0  0  0  0  0  0  0  0  0  0  0  0
   -7.7497   25.6892  -28.8877 H   0  0  0  0  0  0  0  0  0  0  0  0
   -5.7130   26.9580  -29.1610 H   0  0  0  0  0  0  0  0  0  0  0  0
   -3.9119   26.2240  -30.6442 H   0  0  0  0  0  0  0  0  0  0  0  0
   -5.9071   20.8770  -33.6931 H   0  0  0  0  0  0  0  0  0  0  0  0
   -5.4226   18.6476  -34.6616 H   0  0  0  0  0  0  0  0  0  0  0  0
   -6.6175   16.6294  -33.7767 H   0  0  0  0  0  0  0  0  0  0  0  0
   -8.2600   16.8931  -31.9565 H   0  0  0  0  0  0  0  0  0  0  0  0
   -8.7655   19.1045  -30.9609 H   0  0  0  0  0  0  0  0  0  0  0  0
  1  2  2  0
  2  3  2  0
  2  4  1  0
  4  5  2  0
  5  6  1  0
  6  7  2  0
  7  8  1  0
  8  9  1  0
  9 10  2  0
  2 11  1  0
 11 12  2  0
 12 13  1  0
 13 14  2  0
 14 15  1  0
 15 16  2  0
 10  5  1  0
 16 11  1  0
  6 17  1  0
  7 18  1  0
  8 19  1  0
  9 20  1  0
 12 21  1  0
 13 22  1  0
 14 23  1  0
 15 24  1  0
 16 25  1  0
M  END
>  <smiles>  (7) 
O=S(=O)(N=c1cc[nH]cn1)c1ccccc1

>  <score_type>  (7) 
oracle

>  <origin>  (7) 
adgpu

>  <m_score__min__energy>  (7) 
-6.7599999999999998

>  <m_primary>  (7) 
energy

$$$$
7:0
     RDKit          3D

 41 44  0  0  0  0  0  0  0  0999 V2000
   -6.8920   16.9900  -33.6470 C   0  0  0  0  0  0  0  0  0  0  0  0
   -7.1130   18.2940  -32.9540 C   0  0  0  0  0  0  0  0  0  0  0  0
   -8.3340   18.8410  -32.7250 N   0  0  0  0  0  0  0  0  0  0  0  0
   -8.1500   20.0040  -32.1060 N   0  0  0  0  0  0  0  0  0  0  0  0
   -9.2290   20.8970  -31.7020 C   0  0  0  0  0  0  0  0  0  0  0  0
   -6.8300   20.2000  -31.9460 C   0  0  0  0  0  0  0  0  0  0  0  0
   -6.2090   21.2670  -31.3810 N   0  0  0  0  0  0  0  0  0  0  0  0
   -4.8350   21.2700  -31.3290 C   0  0  0  0  0  0  0  0  0  0  0  0
   -4.0940   22.4030  -30.7210 C   0  0  0  0  0  0  0  0  0  0  0  0
   -4.7170   23.6430  -30.4900 C   0  0  0  0  0  0  0  0  0  0  0  0
   -4.0060   24.6970  -29.9100 C   0  0  0  0  0  0  0  0  0  0  0  0
   -2.6700   24.5310  -29.5340 C   0  0  0  0  0  0  0  0  0  0  0  0
   -1.9870   25.6180  -28.9700 O   0  0  0  0  0  0  0  0  0  0  0  0
   -1.6180   25.7370  -27.6220 C   0  0  0  0  0  0  0  0  0  0  0  0
   -2.0190   24.7980  -26.6530 C   0  0  0  0  0  0  0  0  0  0  0  0
   -1.6440   24.9610  -25.3170 C   0  0  0  0  0  0  0  0  0  0  0  0
   -0.8770   26.0660  -24.9340 C   0  0  0  0  0  0  0  0  0  0  0  0
   -0.5160   26.2250  -23.6370 F   0  0  0  0  0  0  0  0  0  0  0  0
   -0.4930   27.0130  -25.8880 C   0  0  0  0  0  0  0  0  0  0  0  0
   -0.8670   26.8510  -27.2260 C   0  0  0  0  0  0  0  0  0  0  0  0
   -2.0380   23.2980  -29.7720 C   0  0  0  0  0  0  0  0  0  0  0  0
   -2.7480   22.2410  -30.3500 C   0  0  0  0  0  0  0  0  0  0  0  0
   -4.1310   20.2150  -31.8600 N   0  0  0  0  0  0  0  0  0  0  0  0
   -4.7570   19.1470  -32.4330 C   0  0  0  0  0  0  0  0  0  0  0  0
   -4.0890   18.1940  -32.9130 O   0  0  0  0  0  0  0  0  0  0  0  0
   -6.1430   19.1510  -32.4660 C   0  0  0  0  0  0  0  0  0  0  0  0
   -6.7573   16.1952  -32.8985 H   0  0  0  0  0  0  0  0  0  0  0  0
   -7.7635   16.7570  -34.2765 H   0  0  0  0  0  0  0  0  0  0  0  0
   -5.9924   17.0571  -34.2765 H   0  0  0  0  0  0  0  0  0  0  0  0
   -9.2790   20.9384  -30.6039 H   0  0  0  0  0  0  0  0  0  0  0  0
   -9.0385   21.9052  -32.0986 H   0  0  0  0  0  0  0  0  0  0  0  0
  -10.1838   20.5213  -32.0986 H   0  0  0  0  0  0  0  0  0  0  0  0
   -6.7750   22.0690  -31.0260 H   0  0  0  0  0  0  0  0  0  0  0  0
   -5.7719   23.7840  -30.7681 H   0  0  0  0  0  0  0  0  0  0  0  0
   -4.5019   25.6654  -29.7480 H   0  0  0  0  0  0  0  0  0  0  0  0
   -2.6300   23.9325  -26.9488 H   0  0  0  0  0  0  0  0  0  0  0  0
   -1.9524   24.2193  -24.5655 H   0  0  0  0  0  0  0  0  0  0  0  0
    0.1038   27.8863  -25.5861 H   0  0  0  0  0  0  0  0  0  0  0  0
   -0.5696   27.6030  -27.9717 H   0  0  0  0  0  0  0  0  0  0  0  0
   -0.9800   23.1641  -29.5023 H   0  0  0  0  0  0  0  0  0  0  0  0
   -2.2490   21.2748  -30.5157 H   0  0  0  0  0  0  0  0  0  0  0  0
  1  2  1  0
  2  3  2  0
  3  4  1  0
  4  5  1  0
  4  6  1  0
  6  7  1  0
  7  8  1  0
  8  9  1  0
  9 10  2  0
 10 11  1  0
 11 12  2  0
 12 13  1  0
 13 14  1  0
 14 15  2  0
 15 16  1  0
 16 17  2  0
 17 18  1  0
 17 19  1  0
 19 20  2  0
 12 21  1  0
 21 22  2  0
  8 23  2  0
 23 24  1  0
 24 25  2  0
 24 26  1  0
 26  2  1  0
 26  6  2  0
 22  9  1  0
 20 14  1  0
  1 27  1  0
  1 28  1  0
  1 29  1  0
  5 30  1  0
  5 31  1  0
  5 32  1  0
  7 33  1  0
 10 34  1  0
 11 35  1  0
 15 36  1  0
 16 37  1  0
 19 38  1  0
 20 39  1  0
 21 40  1  0
 22 41  1  0
M  END
>  <UniqueID>  (8) 
6

>  <SMILES>  (8) 
Cc1nn(C)c2[nH]c(-c3ccc(Oc4ccc(F)cc4)cc3)nc(=O)c12

>  <Energy>  (8) 
96.05353050772983

>  <Genealogy>  (8) 
Cc1nn(C)c2[nH]c(-c3ccc(Oc4ccc(F)cc4)cc3)nc(=O)c12 (3D coordinates assigned)
Cc1nn(C)c2[nH]c(-c3ccc(Oc4ccc(F)cc4)cc3)nc(=O)c12 (optimized conformer: 96.05353050772983 kcal/mol)

>  <smiles>  (8) 
Cc1nn(C)c2[nH]c(-c3ccc(Oc4ccc(F)cc4)cc3)nc(=O)c12

>  <score_type>  (8) 
oracle

>  <origin>  (8) 
adgpu

>  <m_score__min__energy>  (8) 
-7.7300000000000004

>  <m_primary>  (8) 
energy

$$$$
8:0
     RDKit          3D

 59 63  0  0  0  0  0  0  0  0999 V2000
   -5.7540   18.4540  -34.9470 C   0  0  0  0  0  0  0  0  0  0  0  0
   -5.7740   19.4800  -33.8450 C   0  0  0  0  0  0  0  0  0  0  0  0
   -7.0110   20.0530  -33.4510 C   0  0  0  0  0  0  0  0  0  0  0  0
   -7.0660   21.0180  -32.4340 C   0  0  0  0  0  0  0  0  0  0  0  0
   -5.8760   21.3880  -31.8230 C   0  0  0  0  0  0  0  0  0  0  0  0
   -5.7020   22.2830  -30.8410 N   0  0  0  0  0  0  0  0  0  0  0  0
   -4.3580   22.2510  -30.6370 C   0  0  0  0  0  0  0  0  0  0  0  0
   -3.6700   23.1010  -29.6390 C   0  0  0  0  0  0  0  0  0  0  0  0
   -4.3610   23.5630  -28.5050 C   0  0  0  0  0  0  0  0  0  0  0  0
   -3.7050   24.3340  -27.5410 C   0  0  0  0  0  0  0  0  0  0  0  0
   -2.3430   24.6550  -27.6900 C   0  0  0  0  0  0  0  0  0  0  0  0
   -1.6340   25.4310  -26.6410 C   0  0  0  0  0  0  0  0  0  0  0  0
   -1.0210   26.6600  -26.9490 C   0  0  0  0  0  0  0  0  0  0  0  0
   -0.3430   27.3800  -25.9620 C   0  0  0  0  0  0  0  0  0  0  0  0
   -0.2520   26.8820  -24.6540 C   0  0  0  0  0  0  0  0  0  0  0  0
    0.4840   27.6600  -23.5880 C   0  0  0  0  0  0  0  0  0  0  0  0
    1.5740   26.8770  -22.9740 N   0  0  0  0  0  0  0  0  0  0  0  0
    2.8300   26.9670  -23.7390 C   0  0  0  0  0  0  0  0  0  0  0  0
    2.7270   26.1610  -25.0090 C   0  0  0  0  0  0  0  0  0  0  0  0
    2.2590   24.8350  -24.9670 C   0  0  0  0  0  0  0  0  0  0  0  0
    2.1210   24.1000  -26.1480 C   0  0  0  0  0  0  0  0  0  0  0  0
    2.4350   24.6840  -27.3780 C   0  0  0  0  0  0  0  0  0  0  0  0
    2.8840   26.0070  -27.4290 C   0  0  0  0  0  0  0  0  0  0  0  0
    3.0250   26.7470  -26.2490 C   0  0  0  0  0  0  0  0  0  0  0  0
   -0.8580   25.6570  -24.3470 C   0  0  0  0  0  0  0  0  0  0  0  0
   -1.5480   24.9400  -25.3290 C   0  0  0  0  0  0  0  0  0  0  0  0
   -1.6600   24.2120  -28.8360 C   0  0  0  0  0  0  0  0  0  0  0  0
   -2.3170   23.4400  -29.7990 C   0  0  0  0  0  0  0  0  0  0  0  0
   -3.6950   21.3770  -31.4410 N   0  0  0  0  0  0  0  0  0  0  0  0
   -4.6800   20.8420  -32.1820 C   0  0  0  0  0  0  0  0  0  0  0  0
   -4.5720   19.8680  -33.1820 C   0  0  0  0  0  0  0  0  0  0  0  0
   -3.2290   19.3040  -33.5640 C   0  0  0  0  0  0  0  0  0  0  0  0
   -5.7343   17.4453  -34.5086 H   0  0  0  0  0  0  0  0  0  0  0  0
   -6.6545   18.5661  -35.5687 H   0  0  0  0  0  0  0  0  0  0  0  0
   -4.8586   18.6011  -35.5687 H   0  0  0  0  0  0  0  0  0  0  0  0
   -7.9390   19.7364  -33.9495 H   0  0  0  0  0  0  0  0  0  0  0  0
   -8.0229   21.4675  -32.1302 H   0  0  0  0  0  0  0  0  0  0  0  0
   -5.4251   23.3161  -28.3755 H   0  0  0  0  0  0  0  0  0  0  0  0
   -4.2573   24.6923  -26.6598 H   0  0  0  0  0  0  0  0  0  0  0  0
   -1.0761   27.0563  -27.9736 H   0  0  0  0  0  0  0  0  0  0  0  0
    0.1228   28.3445  -26.2126 H   0  0  0  0  0  0  0  0  0  0  0  0
    0.9120   28.5654  -24.0431 H   0  0  0  0  0  0  0  0  0  0  0  0
   -0.2373   27.9104  -22.7962 H   0  0  0  0  0  0  0  0  0  0  0  0
    1.7300   27.2000  -21.9890 H   0  0  0  0  0  0  0  0  0  0  0  0
    1.2700   25.8760  -22.9430 H   0  0  0  0  0  0  0  0  0  0  0  0
    3.0265   28.0194  -23.9918 H   0  0  0  0  0  0  0  0  0  0  0  0
    3.6518   26.5673  -23.1267 H   0  0  0  0  0  0  0  0  0  0  0  0
    2.0008   24.3751  -24.0017 H   0  0  0  0  0  0  0  0  0  0  0  0
    1.7646   23.0601  -26.1090 H   0  0  0  0  0  0  0  0  0  0  0  0
    2.3289   24.1029  -28.3059 H   0  0  0  0  0  0  0  0  0  0  0  0
    3.1269   26.4673  -28.3981 H   0  0  0  0  0  0  0  0  0  0  0  0
    3.3703   27.7905  -26.2938 H   0  0  0  0  0  0  0  0  0  0  0  0
   -0.7904   25.2559  -23.3250 H   0  0  0  0  0  0  0  0  0  0  0  0
   -2.0271   23.9839  -25.0714 H   0  0  0  0  0  0  0  0  0  0  0  0
   -0.6010   24.4746  -28.9762 H   0  0  0  0  0  0  0  0  0  0  0  0
   -1.7696   23.0956  -30.6888 H   0  0  0  0  0  0  0  0  0  0  0  0
   -2.6594   19.0648  -32.6538 H   0  0  0  0  0  0  0  0  0  0  0  0
   -3.3710   18.3895  -34.1586 H   0  0  0  0  0  0  0  0  0  0  0  0
   -2.6755   20.0457  -34.1586 H   0  0  0  0  0  0  0  0  0  0  0  0
  1  2  1  0
  2  3  2  0
  3  4  1  0
  4  5  2  0
  5  6  1  0
  6  7  1  0
  7  8  1  0
  8  9  2  0
  9 10  1  0
 10 11  2  0
 11 12  1  0
 12 13  2  0
 13 14  1  0
 14 15  2  0
 15 16  1  0
 16 17  1  0
 17 18  1  0
 18 19  1  0
 19 20  2  0
 20 21  1  0
 21 22  2  0
 22 23  1  0
 23 24  2  0
 15 25  1  0
 25 26  2  0
 11 27  1  0
 27 28  2  0
  7 29  2  0
 29 30  1  0
 30 31  2  0
 31 32  1  0
 31  2  1  0
 30  5  1  0
 28  8  1  0
 26 12  1  0
 24 19  1  0
  1 33  1  0
  1 34  1  0
  1 35  1  0
  3 36  1  0
  4 37  1  0
  9 38  1  0
 10 39  1  0
 13 40  1  0
 14 41  1  0
 16 42  1  0
 16 43  1  0
 17 44  1  0
 17 45  1  0
 18 46  1  0
 18 47  1  0
 20 48  1  0
 21 49  1  0
 22 50  1  0
 23 51  1  0
 24 52  1  0
 25 53  1  0
 26 54  1  0
 27 55  1  0
 28 56  1  0
 32 57  1  0
 32 58  1  0
 32 59  1  0
M  CHG  2   6  -1  17   1
M  END
>  <UniqueID>  (9) 
7

>  <SMILES>  (9) 
Cc1ccc2[n-]c(-c3ccc(-c4ccc(C[NH2+]Cc5ccccc5)cc4)cc3)nc2c1C

>  <Energy>  (9) 
105.46321101012603

>  <Genealogy>  (9) 
Cc1ccc2[n-]c(-c3ccc(-c4ccc(C[NH2+]Cc5ccccc5)cc4)cc3)nc2c1C (protonated)
Cc1ccc2[n-]c(-c3ccc(-c4ccc(C[NH2+]Cc5ccccc5)cc4)cc3)nc2c1C (3D coordinates assigned)
Cc1ccc2[n-]c(-c3ccc(-c4ccc(C[NH2+]Cc5ccccc5)cc4)cc3)nc2c1C (optimized conformer: 105.46321101012603 kcal/mol)

>  <smiles>  (9) 
Cc1ccc2[nH]c(-c3ccc(-c4ccc(CNCc5ccccc5)cc4)cc3)nc2c1C

>  <score_type>  (9) 
oracle

>  <origin>  (9) 
adgpu

>  <m_score__min__energy>  (9) 
-10.109999999999999

>  <m_primary>  (9) 
energy

$$$$
9:0
     RDKit          3D

 65 69  0  0  0  0  0  0  0  0999 V2000
   -1.0930   19.2620  -32.2050 C   0  0  0  0  0  0  0  0  0  0  0  0
   -2.4670   18.8020  -33.2390 S   0  0  0  0  0  0  0  0  0  0  0  0
   -2.7740   19.9460  -34.1660 O   0  0  0  0  0  0  0  0  0  0  0  0
   -3.6730   18.5360  -32.3830 O   0  0  0  0  0  0  0  0  0  0  0  0
   -2.0850   17.3570  -34.2270 C   0  0  0  0  0  0  0  0  0  0  0  0
   -3.2290   16.9220  -35.1640 C   0  0  0  0  0  0  0  0  0  0  0  0
   -4.5270   16.7010  -34.4960 N   0  0  0  0  0  0  0  0  0  0  0  0
   -5.6090   17.5770  -34.9700 C   0  0  0  0  0  0  0  0  0  0  0  0
   -6.3700   18.1820  -33.8190 C   0  0  0  0  0  0  0  0  0  0  0  0
   -7.2940   17.4150  -33.0950 C   0  0  0  0  0  0  0  0  0  0  0  0
   -7.9780   17.9740  -32.0140 C   0  0  0  0  0  0  0  0  0  0  0  0
   -7.7440   19.3010  -31.6450 C   0  0  0  0  0  0  0  0  0  0  0  0
   -6.8170   20.0860  -32.3550 C   0  0  0  0  0  0  0  0  0  0  0  0
   -6.5650   21.4960  -31.9610 C   0  0  0  0  0  0  0  0  0  0  0  0
   -7.4910   22.5020  -32.2860 C   0  0  0  0  0  0  0  0  0  0  0  0
   -7.2530   23.8280  -31.9180 C   0  0  0  0  0  0  0  0  0  0  0  0
   -6.0910   24.1670  -31.2240 C   0  0  0  0  0  0  0  0  0  0  0  0
   -5.1500   23.1780  -30.8870 C   0  0  0  0  0  0  0  0  0  0  0  0
   -3.9170   23.5390  -30.1520 C   0  0  0  0  0  0  0  0  0  0  0  0
   -3.0920   22.6120  -29.5940 N   0  0  0  0  0  0  0  0  0  0  0  0
   -2.1230   23.3610  -29.0490 C   0  0  0  0  0  0  0  0  0  0  0  0
   -1.0030   22.9520  -28.3150 C   0  0  0  0  0  0  0  0  0  0  0  0
   -0.7170   21.5600  -28.0580 N   0  0  0  0  0  0  0  0  0  0  0  0
   -1.1620   20.9430  -26.7980 C   0  0  0  0  0  0  0  0  0  0  0  0
   -1.3370   19.4300  -26.9680 C   0  0  0  0  0  0  0  0  0  0  0  0
   -0.0510   18.7490  -27.4700 C   0  0  0  0  0  0  0  0  0  0  0  0
    0.8410   19.6640  -28.3300 C   0  0  0  0  0  0  0  0  0  0  0  0
    0.0390   20.7620  -29.0360 C   0  0  0  0  0  0  0  0  0  0  0  0
   -0.1630   23.9800  -27.8240 C   0  0  0  0  0  0  0  0  0  0  0  0
   -0.4720   25.3340  -28.0890 C   0  0  0  0  0  0  0  0  0  0  0  0
   -1.5830   25.6650  -28.8110 N   0  0  0  0  0  0  0  0  0  0  0  0
   -2.3810   24.6740  -29.2750 C   0  0  0  0  0  0  0  0  0  0  0  0
   -3.5130   24.8270  -29.9740 N   0  0  0  0  0  0  0  0  0  0  0  0
   -5.3970   21.8450  -31.2600 C   0  0  0  0  0  0  0  0  0  0  0  0
   -6.1330   19.5150  -33.4440 C   0  0  0  0  0  0  0  0  0  0  0  0
   -1.3812   19.1655  -31.1478 H   0  0  0  0  0  0  0  0  0  0  0  0
   -0.2392   18.6007  -32.4141 H   0  0  0  0  0  0  0  0  0  0  0  0
   -0.8095   20.3041  -32.4141 H   0  0  0  0  0  0  0  0  0  0  0  0
   -1.2003   17.5811  -34.8411 H   0  0  0  0  0  0  0  0  0  0  0  0
   -1.9127   16.5269  -33.5261 H   0  0  0  0  0  0  0  0  0  0  0  0
   -3.3646   17.7050  -35.9246 H   0  0  0  0  0  0  0  0  0  0  0  0
   -2.9300   15.9519  -35.5878 H   0  0  0  0  0  0  0  0  0  0  0  0
   -4.4210   16.8150  -33.4640 H   0  0  0  0  0  0  0  0  0  0  0  0
   -5.1752   18.3855  -35.5767 H   0  0  0  0  0  0  0  0  0  0  0  0
   -6.3074   16.9726  -35.5675 H   0  0  0  0  0  0  0  0  0  0  0  0
   -7.4806   16.3690  -33.3799 H   0  0  0  0  0  0  0  0  0  0  0  0
   -8.7032   17.3680  -31.4512 H   0  0  0  0  0  0  0  0  0  0  0  0
   -8.2883   19.7352  -30.7934 H   0  0  0  0  0  0  0  0  0  0  0  0
   -8.4092   22.2433  -32.8338 H   0  0  0  0  0  0  0  0  0  0  0  0
   -7.9843   24.6081  -32.1762 H   0  0  0  0  0  0  0  0  0  0  0  0
   -5.9100   25.2139  -30.9389 H   0  0  0  0  0  0  0  0  0  0  0  0
   -0.4110   21.1342  -26.0173 H   0  0  0  0  0  0  0  0  0  0  0  0
   -2.1297   21.3811  -26.5121 H   0  0  0  0  0  0  0  0  0  0  0  0
   -1.6128   18.9939  -25.9966 H   0  0  0  0  0  0  0  0  0  0  0  0
   -2.1230   19.2631  -27.7192 H   0  0  0  0  0  0  0  0  0  0  0  0
    0.5305   18.4190  -26.5965 H   0  0  0  0  0  0  0  0  0  0  0  0
   -0.3613   17.9100  -28.1101 H   0  0  0  0  0  0  0  0  0  0  0  0
    1.5925   20.1369  -27.6807 H   0  0  0  0  0  0  0  0  0  0  0  0
    1.3133   19.0418  -29.1045 H   0  0  0  0  0  0  0  0  0  0  0  0
    0.7304   21.4201  -29.5827 H   0  0  0  0  0  0  0  0  0  0  0  0
   -0.6694   20.2914  -29.7337 H   0  0  0  0  0  0  0  0  0  0  0  0
    0.7309   23.7253  -27.2358 H   0  0  0  0  0  0  0  0  0  0  0  0
    0.1884   26.1280  -27.7102 H   0  0  0  0  0  0  0  0  0  0  0  0
   -4.6667   21.0646  -30.9999 H   0  0  0  0  0  0  0  0  0  0  0  0
   -5.4057   20.1182  -34.0072 H   0  0  0  0  0  0  0  0  0  0  0  0
  1  2  1  0
  2  3  2  0
  2  4  2  0
  2  5  1  0
  5  6  1  0
  6  7  1  0
  7  8  1  0
  8  9  1  0
  9 10  2  0
 10 11  1  0
 11 12  2  0
 12 13  1  0
 13 14  1  0
 14 15  2  0
 15 16  1  0
 16 17  2  0
 17 18  1  0
 18 19  1  0
 19 20  2  0
 20 21  1  0
 21 22  2  0
 22 23  1  0
 23 24  1  0
 24 25  1  0
 25 26  1  0
 26 27  1  0
 27 28  1  0
 22 29  1  0
 29 30  2  0
 30 31  1  0
 31 32  2  0
 32 33  1  0
 18 34  2  0
 13 35  2  0
 35  9  1  0
 34 14  1  0
 33 19  1  0
 32 21  1  0
 28 23  1  0
  1 36  1  0
  1 37  1  0
  1 38  1  0
  5 39  1  0
  5 40  1  0
  6 41  1  0
  6 42  1  0
  7 43  1  0
  8 44  1  0
  8 45  1  0
 10 46  1  0
 11 47  1  0
 12 48  1  0
 15 49  1  0
 16 50  1  0
 17 51  1  0
 24 52  1  0
 24 53  1  0
 25 54  1  0
 25 55  1  0
 26 56  1  0
 26 57  1  0
 27 58  1  0
 27 59  1  0
 28 60  1  0
 28 61  1  0
 29 62  1  0
 30 63  1  0
 34 64  1  0
 35 65  1  0
M  CHG  1  33  -1
M  END
>  <UniqueID>  (10) 
8

>  <SMILES>  (10) 
CS(=O)(=O)CCNCc1cccc(-c2cccc(-c3nc4c(N5CCCCC5)ccnc4[n-]3)c2)c1

>  <Energy>  (10) 
110.05637500066962

>  <Genealogy>  (10) 
CS(=O)(=O)CCNCc1cccc(-c2cccc(-c3nc4c(N5CCCCC5)ccnc4[n-]3)c2)c1 (protonated)
CS(=O)(=O)CCNCc1cccc(-c2cccc(-c3nc4c(N5CCCCC5)ccnc4[n-]3)c2)c1 (3D coordinates assigned)
CS(=O)(=O)CCNCc1cccc(-c2cccc(-c3nc4c(N5CCCCC5)ccnc4[n-]3)c2)c1 (nonaromatic ring conformer: 110.05637500066962 kcal/mol)

>  <smiles>  (10) 
CS(=O)(=O)CCNCc1cccc(-c2cccc(-c3nc4c(N5CCCCC5)ccnc4[nH]3)c2)c1

>  <score_type>  (10) 
oracle

>  <origin>  (10) 
adgpu

>  <m_score__min__energy>  (10) 
-12.15

>  <m_primary>  (10) 
energy

$$$$
10:0
     RDKit          3D

 73 79  0  0  0  0  0  0  0  0999 V2000
   -4.5720   12.4840  -31.5890 C   0  0  0  0  0  0  0  0  0  0  0  0
   -4.7460   13.5720  -32.6560 C   0  0  2  0  0  0  0  0  0  0  0  0
   -4.8320   12.9570  -34.0820 C   0  0  0  0  0  0  0  0  0  0  0  0
   -3.6710   13.3820  -34.9890 C   0  0  0  0  0  0  0  0  0  0  0  0
   -3.5610   14.9120  -35.0420 C   0  0  0  0  0  0  0  0  0  0  0  0
   -3.6280   15.5200  -33.7010 N   0  0  0  0  0  0  0  0  0  0  0  0
   -3.6700   16.9620  -33.5430 C   0  0  0  0  0  0  0  0  0  0  0  0
   -2.5630   17.7830  -33.9150 C   0  0  0  0  0  0  0  0  0  0  0  0
   -2.6390   19.1800  -33.7680 C   0  0  0  0  0  0  0  0  0  0  0  0
   -3.8150   19.7040  -33.2530 C   0  0  0  0  0  0  0  0  0  0  0  0
   -4.1280   20.9870  -33.0220 N   0  0  0  0  0  0  0  0  0  0  0  0
   -5.3890   20.8930  -32.5180 C   0  0  0  0  0  0  0  0  0  0  0  0
   -6.1800   22.0620  -32.1040 C   0  0  0  0  0  0  0  0  0  0  0  0
   -7.3260   22.4450  -32.7190 N   0  0  0  0  0  0  0  0  0  0  0  0
   -7.7990   23.5360  -32.1220 N   0  0  0  0  0  0  0  0  0  0  0  0
   -6.9450   23.8380  -31.1310 C   0  0  0  0  0  0  0  0  0  0  0  0
   -7.0390   24.8900  -30.2840 N   0  0  0  0  0  0  0  0  0  0  0  0
   -6.0660   25.0700  -29.3410 C   0  0  0  0  0  0  0  0  0  0  0  0
   -4.9680   24.1710  -29.2450 C   0  0  0  0  0  0  0  0  0  0  0  0
   -3.9090   24.3810  -28.2270 C   0  0  0  0  0  0  0  0  0  0  0  0
   -4.2310   24.8610  -26.9450 C   0  0  0  0  0  0  0  0  0  0  0  0
   -3.2310   25.0620  -25.9900 C   0  0  0  0  0  0  0  0  0  0  0  0
   -1.8890   24.7890  -26.3000 C   0  0  0  0  0  0  0  0  0  0  0  0
   -0.8060   24.9960  -25.2740 C   0  0  0  0  0  0  0  0  0  0  0  0
   -0.3190   26.3930  -25.3000 N   0  0  0  0  0  0  0  0  0  0  0  0
   -0.3280   27.0420  -23.9640 C   0  0  0  0  0  0  0  0  0  0  0  0
    1.0770   27.2040  -23.3460 C   0  0  0  0  0  0  0  0  0  0  0  0
    1.9350   26.0590  -23.6970 N   0  0  0  0  0  0  0  0  0  0  0  0
    3.2190   26.1450  -22.9810 C   0  0  0  0  0  0  0  0  0  0  0  0
    2.1590   25.9750  -25.1620 C   0  0  0  0  0  0  0  0  0  0  0  0
    0.9800   26.5360  -25.9900 C   0  0  0  0  0  0  0  0  0  0  0  0
   -1.5650   24.3000  -27.5740 C   0  0  0  0  0  0  0  0  0  0  0  0
   -2.5640   24.1010  -28.5300 C   0  0  0  0  0  0  0  0  0  0  0  0
   -4.8980   23.0780  -30.1400 C   0  0  0  0  0  0  0  0  0  0  0  0
   -5.9180   22.9470  -31.0790 C   0  0  0  0  0  0  0  0  0  0  0  0
   -5.8690   19.6220  -32.4260 N   0  0  0  0  0  0  0  0  0  0  0  0
   -4.8450   18.9040  -32.9010 C   0  0  0  0  0  0  0  0  0  0  0  0
   -4.7980   17.5570  -33.0350 N   0  0  0  0  0  0  0  0  0  0  0  0
   -3.6300   14.6300  -32.5260 C   0  0  0  0  0  0  0  0  0  0  0  0
   -4.6443   12.9363  -30.5889 H   0  0  0  0  0  0  0  0  0  0  0  0
   -5.3603   11.7259  -31.7064 H   0  0  0  0  0  0  0  0  0  0  0  0
   -3.5866   12.0095  -31.7064 H   0  0  0  0  0  0  0  0  0  0  0  0
   -5.7039   14.0860  -32.4881 H   0  0  0  0  0  0  0  0  0  0  0  0
   -4.8233   11.8607  -33.9920 H   0  0  0  0  0  0  0  0  0  0  0  0
   -5.7609   13.3239  -34.5430 H   0  0  0  0  0  0  0  0  0  0  0  0
   -2.7325   12.9653  -34.5946 H   0  0  0  0  0  0  0  0  0  0  0  0
   -3.8571   13.0038  -36.0050 H   0  0  0  0  0  0  0  0  0  0  0  0
   -2.6013   15.1826  -35.5065 H   0  0  0  0  0  0  0  0  0  0  0  0
   -4.4101   15.2923  -35.6289 H   0  0  0  0  0  0  0  0  0  0  0  0
   -1.6487   17.3223  -34.3174 H   0  0  0  0  0  0  0  0  0  0  0  0
   -1.7986   19.8311  -34.0505 H   0  0  0  0  0  0  0  0  0  0  0  0
   -6.1330   25.9211  -28.6474 H   0  0  0  0  0  0  0  0  0  0  0  0
   -5.2788   25.0801  -26.6919 H   0  0  0  0  0  0  0  0  0  0  0  0
   -3.4965   25.4360  -24.9902 H   0  0  0  0  0  0  0  0  0  0  0  0
   -1.2081   24.7726  -24.2748 H   0  0  0  0  0  0  0  0  0  0  0  0
    0.0339   24.3250  -25.5070 H   0  0  0  0  0  0  0  0  0  0  0  0
   -0.7805   28.0395  -24.0650 H   0  0  0  0  0  0  0  0  0  0  0  0
   -0.9026   26.3879  -23.2916 H   0  0  0  0  0  0  0  0  0  0  0  0
    1.5348   28.1287  -23.7273 H   0  0  0  0  0  0  0  0  0  0  0  0
    0.9789   27.2502  -22.2514 H   0  0  0  0  0  0  0  0  0  0  0  0
    1.4650   25.1820  -23.3700 H   0  0  0  0  0  0  0  0  0  0  0  0
    3.0356   26.1327  -21.8965 H   0  0  0  0  0  0  0  0  0  0  0  0
    3.8503   25.2871  -23.2559 H   0  0  0  0  0  0  0  0  0  0  0  0
    3.7302   27.0794  -23.2559 H   0  0  0  0  0  0  0  0  0  0  0  0
    3.0649   26.5473  -25.4108 H   0  0  0  0  0  0  0  0  0  0  0  0
    2.2610   24.9099  -25.4172 H   0  0  0  0  0  0  0  0  0  0  0  0
    1.1611   27.6039  -26.1819 H   0  0  0  0  0  0  0  0  0  0  0  0
    0.9255   25.9589  -26.9248 H   0  0  0  0  0  0  0  0  0  0  0  0
   -0.5179   24.0718  -27.8219 H   0  0  0  0  0  0  0  0  0  0  0  0
   -2.2969   23.7224  -29.5276 H   0  0  0  0  0  0  0  0  0  0  0  0
   -4.0679   22.3575  -30.0959 H   0  0  0  0  0  0  0  0  0  0  0  0
   -2.6564   14.1232  -32.4533 H   0  0  0  0  0  0  0  0  0  0  0  0
   -3.8109   15.2311  -31.6227 H   0  0  0  0  0  0  0  0  0  0  0  0
  1  2  1  0
  2  3  1  0
  3  4  1  0
  4  5  1  0
  5  6  1  0
  6  7  1  0
  7  8  2  0
  8  9  1  0
  9 10  2  0
 10 11  1  0
 11 12  1  0
 12 13  1  0
 13 14  2  0
 14 15  1  0
 15 16  1  0
 16 17  2  0
 17 18  1  0
 18 19  2  0
 19 20  1  0
 20 21  2  0
 21 22  1  0
 22 23  2  0
 23 24  1  0
 24 25  1  0
 25 26  1  0
 26 27  1  0
 27 28  1  0
 28 29  1  0
 28 30  1  0
 30 31  1  0
 23 32  1  0
 32 33  2  0
 19 34  1  0
 34 35  2  0
 12 36  2  0
 36 37  1  0
 37 38  2  0
  6 39  1  0
 39  2  1  0
 38  7  1  0
 37 10  1  0
 35 13  1  0
 35 16  1  0
 33 20  1  0
 31 25  1  0
  1 40  1  0
  1 41  1  0
  1 42  1  0
  2 43  1  1
  3 44  1  0
  3 45  1  0
  4 46  1  0
  4 47  1  0
  5 48  1  0
  5 49  1  0
  8 50  1  0
  9 51  1  0
 18 52  1  0
 21 53  1  0
 22 54  1  0
 24 55  1  0
 24 56  1  0
 26 57  1  0
 26 58  1  0
 27 59  1  0
 27 60  1  0
 28 61  1  0
 29 62  1  0
 29 63  1  0
 29 64  1  0
 30 65  1  0
 30 66  1  0
 31 67  1  0
 31 68  1  0
 32 69  1  0
 33 70  1  0
 34 71  1  0
 39 72  1  0
 39 73  1  0
M  CHG  3  11  -1  15  -1  28   1
M  END
>  <UniqueID>  (11) 
9

>  <SMILES>  (11) 
C[C@@H]1CCCN(c2ccc3[n-]c(-c4n[n-]c5ncc(-c6ccc(CN7CC[NH+](C)CC7)cc6)cc45)nc3n2)C1

>  <Energy>  (11) 
178.15046876741758

>  <Genealogy>  (11) 
CC1CCCN(c2ccc3[n-]c(-c4n[n-]c5ncc(-c6ccc(CN7CC[NH+](C)CC7)cc6)cc45)nc3n2)C1 (protonated)
C[C@@H]1CCCN(c2ccc3[n-]c(-c4n[n-]c5ncc(-c6ccc(CN7CC[NH+](C)CC7)cc6)cc45)nc3n2)C1 (chirality)
C[C@@H]1CCCN(c2ccc3[n-]c(-c4n[n-]c5ncc(-c6ccc(CN7CC[NH+](C)CC7)cc6)cc45)nc3n2)C1 (3D coordinates assigned)
C[C@@H]1CCCN(c2ccc3[n-]c(-c4n[n-]c5ncc(-c6ccc(CN7CC[NH+](C)CC7)cc6)cc45)nc3n2)C1 (nonaromatic ring conformer: 178.15046876741758 kcal/mol)

>  <smiles>  (11) 
CC1CCCN(c2ccc3[nH]c(-c4n[nH]c5ncc(-c6ccc(CN7CCN(C)CC7)cc6)cc45)nc3n2)C1

>  <score_type>  (11) 
oracle

>  <origin>  (11) 
adgpu

>  <m_score__min__energy>  (11) 
-13.109999999999999

>  <m_primary>  (11) 
energy

$$$$
11:0
     RDKit          3D

 66 70  0  0  0  0  0  0  0  0999 V2000
   -0.8530   26.7800  -27.7120 C   0  0  0  0  0  0  0  0  0  0  0  0
   -1.2430   26.0660  -28.8810 O   0  0  0  0  0  0  0  0  0  0  0  0
   -1.4860   24.6830  -28.9710 C   0  0  0  0  0  0  0  0  0  0  0  0
   -0.5930   23.8450  -28.2880 C   0  0  0  0  0  0  0  0  0  0  0  0
   -0.6940   22.4590  -28.3840 C   0  0  0  0  0  0  0  0  0  0  0  0
   -1.6950   21.8880  -29.1670 C   0  0  0  0  0  0  0  0  0  0  0  0
   -2.6100   22.7040  -29.8360 C   0  0  0  0  0  0  0  0  0  0  0  0
   -2.5450   24.1060  -29.7220 C   0  0  0  0  0  0  0  0  0  0  0  0
   -3.5390   24.9390  -30.3370 N   0  0  0  0  0  0  0  0  0  0  0  0
   -5.2080   25.0660  -29.8790 S   0  0  0  0  0  0  0  0  0  0  0  0
   -5.7320   26.4130  -30.2890 O   0  0  0  0  0  0  0  0  0  0  0  0
   -5.3430   24.9400  -28.3870 O   0  0  0  0  0  0  0  0  0  0  0  0
   -6.1250   23.8170  -30.7110 C   0  0  0  0  0  0  0  0  0  0  0  0
   -7.2470   24.1400  -31.4850 C   0  0  0  0  0  0  0  0  0  0  0  0
   -8.0560   23.1240  -32.0050 C   0  0  0  0  0  0  0  0  0  0  0  0
   -7.7650   21.7810  -31.7300 C   0  0  0  0  0  0  0  0  0  0  0  0
   -8.6750   20.7120  -32.1880 C   0  0  0  0  0  0  0  0  0  0  0  0
   -9.8530   20.7110  -31.7400 O   0  0  0  0  0  0  0  0  0  0  0  0
   -8.2630   19.6830  -33.1330 N   0  0  0  0  0  0  0  0  0  0  0  0
   -8.3000   18.3210  -32.5470 C   0  0  0  0  0  0  0  0  0  0  0  0
   -7.0080   17.9230  -31.8010 C   0  0  0  0  0  0  0  0  0  0  0  0
   -5.7530   18.2970  -32.4980 N   0  0  0  0  0  0  0  0  0  0  0  0
   -4.8570   19.1320  -31.6640 C   0  0  0  0  0  0  0  0  0  0  0  0
   -3.6730   19.5980  -32.4670 C   0  0  0  0  0  0  0  0  0  0  0  0
   -3.4310   20.9710  -32.6160 C   0  0  0  0  0  0  0  0  0  0  0  0
   -2.3830   21.4250  -33.4200 C   0  0  0  0  0  0  0  0  0  0  0  0
   -1.5530   20.5070  -34.0780 C   0  0  0  0  0  0  0  0  0  0  0  0
   -0.5010   20.9500  -34.8960 C   0  0  0  0  0  0  0  0  0  0  0  0
    0.3290   20.0220  -35.5350 C   0  0  0  0  0  0  0  0  0  0  0  0
    0.1140   18.6510  -35.3650 C   0  0  0  0  0  0  0  0  0  0  0  0
   -0.9360   18.1990  -34.5610 C   0  0  0  0  0  0  0  0  0  0  0  0
   -1.7750   19.1170  -33.9120 C   0  0  0  0  0  0  0  0  0  0  0  0
   -2.8360   18.6720  -33.1070 C   0  0  0  0  0  0  0  0  0  0  0  0
   -5.9710   18.8630  -33.8460 C   0  0  0  0  0  0  0  0  0  0  0  0
   -6.9900   20.0170  -33.8330 C   0  0  0  0  0  0  0  0  0  0  0  0
   -6.5670   21.4610  -31.0750 C   0  0  0  0  0  0  0  0  0  0  0  0
   -5.7670   22.4740  -30.5430 C   0  0  0  0  0  0  0  0  0  0  0  0
   -1.1607   26.2168  -26.8186 H   0  0  0  0  0  0  0  0  0  0  0  0
    0.2397   26.9068  -27.7073 H   0  0  0  0  0  0  0  0  0  0  0  0
   -1.3368   27.7679  -27.7073 H   0  0  0  0  0  0  0  0  0  0  0  0
    0.1992   24.2887  -27.6671 H   0  0  0  0  0  0  0  0  0  0  0  0
    0.0156   21.8162  -27.8424 H   0  0  0  0  0  0  0  0  0  0  0  0
   -1.7647   20.7940  -29.2583 H   0  0  0  0  0  0  0  0  0  0  0  0
   -3.3914   22.2456  -30.4599 H   0  0  0  0  0  0  0  0  0  0  0  0
   -7.4922   25.1937  -31.6841 H   0  0  0  0  0  0  0  0  0  0  0  0
   -8.9231   23.3800  -32.6316 H   0  0  0  0  0  0  0  0  0  0  0  0
   -9.0020   19.6680  -33.8780 H   0  0  0  0  0  0  0  0  0  0  0  0
   -9.1384   18.2728  -31.8366 H   0  0  0  0  0  0  0  0  0  0  0  0
   -8.4135   17.6171  -33.3846 H   0  0  0  0  0  0  0  0  0  0  0  0
   -7.0141   18.4153  -30.8173 H   0  0  0  0  0  0  0  0  0  0  0  0
   -7.0122   16.8251  -31.7336 H   0  0  0  0  0  0  0  0  0  0  0  0
   -5.4140   20.0074  -31.2988 H   0  0  0  0  0  0  0  0  0  0  0  0
   -4.4975   18.5307  -30.8159 H   0  0  0  0  0  0  0  0  0  0  0  0
   -4.0723   21.6972  -32.0950 H   0  0  0  0  0  0  0  0  0  0  0  0
   -2.2087   22.5048  -33.5370 H   0  0  0  0  0  0  0  0  0  0  0  0
   -0.3292   22.0276  -35.0346 H   0  0  0  0  0  0  0  0  0  0  0  0
    1.1535   20.3725  -36.1733 H   0  0  0  0  0  0  0  0  0  0  0  0
    0.7730   17.9262  -35.8654 H   0  0  0  0  0  0  0  0  0  0  0  0
   -1.1052   17.1192  -34.4366 H   0  0  0  0  0  0  0  0  0  0  0  0
   -3.0114   17.5938  -32.9779 H   0  0  0  0  0  0  0  0  0  0  0  0
   -5.0124   19.2409  -34.2311 H   0  0  0  0  0  0  0  0  0  0  0  0
   -6.3725   18.0645  -34.4872 H   0  0  0  0  0  0  0  0  0  0  0  0
   -6.5315   20.8797  -33.3276 H   0  0  0  0  0  0  0  0  0  0  0  0
   -7.2458   20.2325  -34.8809 H   0  0  0  0  0  0  0  0  0  0  0  0
   -6.2570   20.4098  -30.9802 H   0  0  0  0  0  0  0  0  0  0  0  0
   -4.8519   22.2160  -29.9897 H   0  0  0  0  0  0  0  0  0  0  0  0
  1  2  1  0
  2  3  1  0
  3  4  2  0
  4  5  1  0
  5  6  2  0
  6  7  1  0
  7  8  2  0
  8  9  1  0
  9 10  1  0
 10 11  2  0
 10 12  2  0
 10 13  1  0
 13 14  2  0
 14 15  1  0
 15 16  2  0
 16 17  1  0
 17 18  2  0
 17 19  1  0
 19 20  1  0
 20 21  1  0
 21 22  1  0
 22 23  1  0
 23 24  1  0
 24 25  2  0
 25 26  1  0
 26 27  2  0
 27 28  1  0
 28 29  2  0
 29 30  1  0
 30 31  2  0
 31 32  1  0
 32 33  2  0
 22 34  1  0
 34 35  1  0
 16 36  1  0
 36 37  2  0
  8  3  1  0
 37 13  1  0
 35 19  1  0
 33 24  1  0
 32 27  1  0
  1 38  1  0
  1 39  1  0
  1 40  1  0
  4 41  1  0
  5 42  1  0
  6 43  1  0
  7 44  1  0
 14 45  1  0
 15 46  1  0
 19 47  1  0
 20 48  1  0
 20 49  1  0
 21 50  1  0
 21 51  1  0
 23 52  1  0
 23 53  1  0
 25 54  1  0
 26 55  1  0
 28 56  1  0
 29 57  1  0
 30 58  1  0
 31 59  1  0
 33 60  1  0
 34 61  1  0
 34 62  1  0
 35 63  1  0
 35 64  1  0
 36 65  1  0
 37 66  1  0
M  CHG  2   9  -1  19   1
M  END
>  <UniqueID>  (12) 
10

>  <SMILES>  (12) 
COc1ccccc1[N-]S(=O)(=O)c1ccc(C(=O)[NH+]2CCN(Cc3ccc4ccccc4c3)CC2)cc1

>  <Energy>  (12) 
102.1665102402917

>  <Genealogy>  (12) 
COc1ccccc1[N-]S(=O)(=O)c1ccc(C(=O)[NH+]2CCN(Cc3ccc4ccccc4c3)CC2)cc1 (protonated)
COc1ccccc1[N-]S(=O)(=O)c1ccc(C(=O)[NH+]2CCN(Cc3ccc4ccccc4c3)CC2)cc1 (3D coordinates assigned)
COc1ccccc1[N-]S(=O)(=O)c1ccc(C(=O)[NH+]2CCN(Cc3ccc4ccccc4c3)CC2)cc1 (nonaromatic ring conformer: 102.1665102402917 kcal/mol)

>  <smiles>  (12) 
COc1ccccc1NS(=O)(=O)c1ccc(C(=O)N2CCN(Cc3ccc4ccccc4c3)CC2)cc1

>  <score_type>  (12) 
oracle

>  <origin>  (12) 
adgpu

>  <m_score__min__energy>  (12) 
-13.029999999999999

>  <m_primary>  (12) 
energy

$$$$
12:0
     RDKit          3D

 45 47  0  0  0  0  0  0  0  0999 V2000
   -5.6350   26.0460  -30.4540 C   0  0  0  0  0  0  0  0  0  0  0  0
   -4.4070   25.4440  -30.8510 O   0  0  0  0  0  0  0  0  0  0  0  0
   -3.8940   24.2570  -30.3070 C   0  0  0  0  0  0  0  0  0  0  0  0
   -3.4370   24.1730  -28.9780 C   0  0  0  0  0  0  0  0  0  0  0  0
   -2.9430   22.9640  -28.4800 C   0  0  0  0  0  0  0  0  0  0  0  0
   -2.8990   21.8330  -29.2990 C   0  0  0  0  0  0  0  0  0  0  0  0
   -3.3460   21.9030  -30.6290 C   0  0  0  0  0  0  0  0  0  0  0  0
   -3.3370   20.7020  -31.4870 C   0  0  0  0  0  0  0  0  0  0  0  0
   -4.2140   19.6830  -31.3520 N   0  0  0  0  0  0  0  0  0  0  0  0
   -3.8930   18.8530  -32.3630 C   0  0  0  0  0  0  0  0  0  0  0  0
   -4.7350   17.6800  -32.7590 C   0  0  0  0  0  0  0  0  0  0  0  0
   -6.0730   18.2150  -33.8200 S   0  0  0  0  0  0  0  0  0  0  0  0
   -5.5160   18.8990  -35.0370 O   0  0  0  0  0  0  0  0  0  0  0  0
   -6.8630   17.0160  -34.2660 O   0  0  0  0  0  0  0  0  0  0  0  0
   -7.1240   19.3310  -32.9450 C   0  0  0  0  0  0  0  0  0  0  0  0
   -8.3320   18.8810  -32.4030 C   0  0  0  0  0  0  0  0  0  0  0  0
   -9.1030   19.7320  -31.6090 C   0  0  0  0  0  0  0  0  0  0  0  0
   -8.6640   21.0310  -31.3380 C   0  0  0  0  0  0  0  0  0  0  0  0
   -7.4530   21.5020  -31.8750 C   0  0  0  0  0  0  0  0  0  0  0  0
   -6.9630   22.8570  -31.5180 C   0  0  0  0  0  0  0  0  0  0  0  0
   -6.3750   23.7240  -32.4930 N   0  0  0  0  0  0  0  0  0  0  0  0
   -7.0600   23.2620  -30.3290 O   0  0  0  0  0  0  0  0  0  0  0  0
   -6.6960   20.6430  -32.6930 C   0  0  0  0  0  0  0  0  0  0  0  0
   -2.8380   19.3960  -33.0690 C   0  0  0  0  0  0  0  0  0  0  0  0
   -2.1840   18.8490  -34.2930 C   0  0  0  0  0  0  0  0  0  0  0  0
   -2.5150   20.5310  -32.5000 O   0  0  0  0  0  0  0  0  0  0  0  0
   -3.8430   23.1200  -31.1240 C   0  0  0  0  0  0  0  0  0  0  0  0
   -5.6916   26.0737  -29.3558 H   0  0  0  0  0  0  0  0  0  0  0  0
   -5.6856   27.0711  -30.8498 H   0  0  0  0  0  0  0  0  0  0  0  0
   -6.4763   25.4582  -30.8498 H   0  0  0  0  0  0  0  0  0  0  0  0
   -3.4688   25.0612  -28.3298 H   0  0  0  0  0  0  0  0  0  0  0  0
   -2.5880   22.9029  -27.4407 H   0  0  0  0  0  0  0  0  0  0  0  0
   -2.5126   20.8833  -28.9006 H   0  0  0  0  0  0  0  0  0  0  0  0
   -4.1125   16.9505  -33.2979 H   0  0  0  0  0  0  0  0  0  0  0  0
   -5.1556   17.2165  -31.8544 H   0  0  0  0  0  0  0  0  0  0  0  0
   -8.6752   17.8551  -32.6025 H   0  0  0  0  0  0  0  0  0  0  0  0
  -10.0592   19.3790  -31.1953 H   0  0  0  0  0  0  0  0  0  0  0  0
   -9.2707   21.6900  -30.6996 H   0  0  0  0  0  0  0  0  0  0  0  0
   -5.9410   24.6230  -32.1890 H   0  0  0  0  0  0  0  0  0  0  0  0
   -6.4330   23.5250  -33.5140 H   0  0  0  0  0  0  0  0  0  0  0  0
   -5.7581   21.0043  -33.1399 H   0  0  0  0  0  0  0  0  0  0  0  0
   -1.3705   18.1686  -34.0011 H   0  0  0  0  0  0  0  0  0  0  0  0
   -2.9258   18.2986  -34.8903 H   0  0  0  0  0  0  0  0  0  0  0  0
   -1.7734   19.6765  -34.8903 H   0  0  0  0  0  0  0  0  0  0  0  0
   -4.1959   23.1810  -32.1641 H   0  0  0  0  0  0  0  0  0  0  0  0
  1  2  1  0
  2  3  1  0
  3  4  2  0
  4  5  1  0
  5  6  2  0
  6  7  1  0
  7  8  1  0
  8  9  2  0
  9 10  1  0
 10 11  1  0
 11 12  1  0
 12 13  2  0
 12 14  2  0
 12 15  1  0
 15 16  2  0
 16 17  1  0
 17 18  2  0
 18 19  1  0
 19 20  1  0
 20 21  1  0
 20 22  2  0
 19 23  2  0
 10 24  2  0
 24 25  1  0
 24 26  1  0
  7 27  2  0
 27  3  1  0
 26  8  1  0
 23 15  1  0
  1 28  1  0
  1 29  1  0
  1 30  1  0
  4 31  1  0
  5 32  1  0
  6 33  1  0
 11 34  1  0
 11 35  1  0
 16 36  1  0
 17 37  1  0
 18 38  1  0
 21 39  1  0
 21 40  1  0
 23 41  1  0
 25 42  1  0
 25 43  1  0
 25 44  1  0
 27 45  1  0
M  END
>  <UniqueID>  (13) 
11

>  <SMILES>  (13) 
COc1cccc(-c2nc(CS(=O)(=O)c3cccc(C(N)=O)c3)c(C)o2)c1

>  <Energy>  (13) 
69.45300089923796

>  <Genealogy>  (13) 
COc1cccc(-c2nc(CS(=O)(=O)c3cccc(C(N)=O)c3)c(C)o2)c1 (3D coordinates assigned)
COc1cccc(-c2nc(CS(=O)(=O)c3cccc(C(N)=O)c3)c(C)o2)c1 (optimized conformer: 69.45300089923796 kcal/mol)

>  <smiles>  (13) 
COc1cccc(-c2nc(CS(=O)(=O)c3cccc(C(N)=O)c3)c(C)o2)c1

>  <score_type>  (13) 
oracle

>  <origin>  (13) 
adgpu

>  <m_score__min__energy>  (13) 
-9.4499999999999993

>  <m_primary>  (13) 
energy

$$$$
13:0
     RDKit          3D

 34 36  0  0  0  0  0  0  0  0999 V2000
   -0.5270   24.5070  -28.9350 O   0  0  0  0  0  0  0  0  0  0  0  0
   -1.7380   24.5030  -28.5850 C   0  0  0  0  0  0  0  0  0  0  0  0
   -2.6730   25.2780  -29.3430 N   0  0  0  0  0  0  0  0  0  0  0  0
   -3.7530   24.7290  -30.1070 C   0  0  0  0  0  0  0  0  0  0  0  0
   -5.0230   25.3230  -30.1110 C   0  0  0  0  0  0  0  0  0  0  0  0
   -6.0570   24.7490  -30.8530 C   0  0  0  0  0  0  0  0  0  0  0  0
   -5.8160   23.5720  -31.5640 C   0  0  0  0  0  0  0  0  0  0  0  0
   -4.5870   22.9910  -31.5220 N   0  0  0  0  0  0  0  0  0  0  0  0
   -3.5640   23.5340  -30.8080 C   0  0  0  0  0  0  0  0  0  0  0  0
   -2.1630   23.7220  -27.3430 C   0  0  2  0  0  0  0  0  0  0  0  0
   -1.8080   22.2530  -27.5340 C   0  0  0  0  0  0  0  0  0  0  0  0
   -1.8240   21.6770  -28.8130 C   0  0  0  0  0  0  0  0  0  0  0  0
   -1.5400   20.3170  -28.9400 C   0  0  0  0  0  0  0  0  0  0  0  0
   -1.2600   19.5760  -27.8380 N   0  0  0  0  0  0  0  0  0  0  0  0
   -1.2540   20.1410  -26.6040 C   0  0  0  0  0  0  0  0  0  0  0  0
   -1.5310   21.4630  -26.4580 N   0  0  0  0  0  0  0  0  0  0  0  0
   -3.6570   23.9310  -27.0470 C   0  0  0  0  0  0  0  0  0  0  0  0
   -3.7010   25.2280  -26.2730 C   0  0  0  0  0  0  0  0  0  0  0  0
   -2.3160   25.3620  -25.6530 C   0  0  0  0  0  0  0  0  0  0  0  0
   -1.4700   24.2780  -26.1670 N   0  0  0  0  0  0  0  0  0  0  0  0
   -5.2044   26.2396  -29.5306 H   0  0  0  0  0  0  0  0  0  0  0  0
   -7.0511   25.2192  -30.8771 H   0  0  0  0  0  0  0  0  0  0  0  0
   -6.6205   23.1143  -32.1584 H   0  0  0  0  0  0  0  0  0  0  0  0
   -2.5858   23.0316  -30.7822 H   0  0  0  0  0  0  0  0  0  0  0  0
   -2.0561   22.2861  -29.6991 H   0  0  0  0  0  0  0  0  0  0  0  0
   -1.5430   19.8451  -29.9336 H   0  0  0  0  0  0  0  0  0  0  0  0
   -1.0244   19.5274  -25.7204 H   0  0  0  0  0  0  0  0  0  0  0  0
   -4.2323   24.0138  -27.9809 H   0  0  0  0  0  0  0  0  0  0  0  0
   -4.0987   23.0916  -26.4900 H   0  0  0  0  0  0  0  0  0  0  0  0
   -3.9072   26.0734  -26.9459 H   0  0  0  0  0  0  0  0  0  0  0  0
   -4.4966   25.2300  -25.5134 H   0  0  0  0  0  0  0  0  0  0  0  0
   -1.8798   26.3344  -25.9254 H   0  0  0  0  0  0  0  0  0  0  0  0
   -2.3855   25.2992  -24.5570 H   0  0  0  0  0  0  0  0  0  0  0  0
   -1.4190   23.5450  -25.4180 H   0  0  0  0  0  0  0  0  0  0  0  0
  1  2  2  0
  2  3  1  0
  3  4  1  0
  4  5  2  0
  5  6  1  0
  6  7  2  0
  7  8  1  0
  8  9  2  0
 10  2  1  6
 10 11  1  0
 11 12  2  0
 12 13  1  0
 13 14  2  0
 14 15  1  0
 15 16  2  0
 10 17  1  0
 17 18  1  0
 18 19  1  0
 19 20  1  0
  9  4  1  0
 20 10  1  0
 16 11  1  0
  5 21  1  0
  6 22  1  0
  7 23  1  0
  9 24  1  0
 12 25  1  0
 13 26  1  0
 15 27  1  0
 17 28  1  0
 17 29  1  0
 18 30  1  0
 18 31  1  0
 19 32  1  0
 19 33  1  0
 20 34  1  0
M  CHG  1   3  -1
M  END
>  <UniqueID>  (14) 
12

>  <SMILES>  (14) 
O=C([N-]c1cccnc1)[C@]1(c2ccncn2)CCCN1

>  <Energy>  (14) 
50.15620087000307

>  <Genealogy>  (14) 
O=C([N-]c1cccnc1)C1(c2ccncn2)CCCN1 (protonated)
O=C([N-]c1cccnc1)[C@]1(c2ccncn2)CCCN1 (chirality)
O=C([N-]c1cccnc1)[C@]1(c2ccncn2)CCCN1 (3D coordinates assigned)
O=C([N-]c1cccnc1)[C@]1(c2ccncn2)CCCN1 (nonaromatic ring conformer: 50.15620087000307 kcal/mol)

>  <smiles>  (14) 
O=C(Nc1cccnc1)C1(c2ccncn2)CCCN1

>  <score_type>  (14) 
oracle

>  <origin>  (14) 
adgpu

>  <m_score__min__energy>  (14) 
-7.6399999999999997

>  <m_primary>  (14) 
energy

$$$$
14:0
     RDKit          3D

 60 64  0  0  0  0  0  0  0  0999 V2000
   -4.2190   16.6190  -32.6650 C   0  0  0  0  0  0  0  0  0  0  0  0
   -4.1940   17.2530  -33.9950 N   0  0  1  0  0  0  0  0  0  0  0  0
   -5.5520   17.4670  -34.5500 C   0  0  0  0  0  0  0  0  0  0  0  0
   -6.4470   18.3330  -33.6840 C   0  0  0  0  0  0  0  0  0  0  0  0
   -7.1180   17.7830  -32.5790 C   0  0  0  0  0  0  0  0  0  0  0  0
   -7.9480   18.5830  -31.7850 C   0  0  0  0  0  0  0  0  0  0  0  0
   -8.1010   19.9420  -32.0780 C   0  0  0  0  0  0  0  0  0  0  0  0
   -9.1410   20.9450  -31.0810 Cl  0  0  0  0  0  0  0  0  0  0  0  0
   -7.4270   20.5000  -33.1700 C   0  0  0  0  0  0  0  0  0  0  0  0
   -6.6020   19.7010  -33.9680 C   0  0  0  0  0  0  0  0  0  0  0  0
   -3.4230   18.4840  -33.9820 C   0  0  0  0  0  0  0  0  0  0  0  0
   -2.3640   18.5740  -34.6650 O   0  0  0  0  0  0  0  0  0  0  0  0
   -3.7920   19.6160  -33.0990 C   0  0  0  0  0  0  0  0  0  0  0  0
   -3.6810   20.9300  -33.5740 C   0  0  0  0  0  0  0  0  0  0  0  0
   -4.0230   22.0140  -32.7610 C   0  0  0  0  0  0  0  0  0  0  0  0
   -4.5200   21.8130  -31.4530 C   0  0  0  0  0  0  0  0  0  0  0  0
   -4.8720   22.9710  -30.4920 C   0  0  2  0  0  0  0  0  0  0  0  0
   -3.7200   23.0620  -29.4770 C   0  0  0  0  0  0  0  0  0  0  0  0
   -3.7050   22.2950  -28.2890 C   0  0  0  0  0  0  0  0  0  0  0  0
   -2.6100   22.3410  -27.4210 C   0  0  0  0  0  0  0  0  0  0  0  0
   -1.4960   23.1190  -27.7360 C   0  0  0  0  0  0  0  0  0  0  0  0
   -1.4650   23.8370  -28.9310 C   0  0  0  0  0  0  0  0  0  0  0  0
   -2.5570   23.7950  -29.8030 C   0  0  0  0  0  0  0  0  0  0  0  0
   -6.2960   22.7320  -29.8640 C   0  0  0  0  0  0  0  0  0  0  0  0
   -7.1490   23.9010  -30.3920 C   0  0  1  0  0  0  0  0  0  0  0  0
   -6.7630   25.1680  -29.6220 C   0  0  0  0  0  0  0  0  0  0  0  0
   -5.3710   25.4810  -30.1810 C   0  0  0  0  0  0  0  0  0  0  0  0
   -5.1400   24.3480  -31.2120 C   0  0  2  0  0  0  0  0  0  0  0  0
   -6.5420   24.1600  -31.7480 C   0  0  0  0  0  0  0  0  0  0  0  0
   -4.6230   20.4840  -30.9880 C   0  0  0  0  0  0  0  0  0  0  0  0
   -4.2730   19.4030  -31.7990 C   0  0  0  0  0  0  0  0  0  0  0  0
   -4.1883   17.3966  -31.8875 H   0  0  0  0  0  0  0  0  0  0  0  0
   -5.1411   16.0290  -32.5573 H   0  0  0  0  0  0  0  0  0  0  0  0
   -3.3462   15.9582  -32.5573 H   0  0  0  0  0  0  0  0  0  0  0  0
   -3.7270   16.5660  -34.6300 H   0  0  0  0  0  0  0  0  0  0  0  0
   -5.4510   17.9499  -35.5331 H   0  0  0  0  0  0  0  0  0  0  0  0
   -6.0295   16.4778  -34.6088 H   0  0  0  0  0  0  0  0  0  0  0  0
   -6.9904   16.7177  -32.3364 H   0  0  0  0  0  0  0  0  0  0  0  0
   -8.4807   18.1422  -30.9294 H   0  0  0  0  0  0  0  0  0  0  0  0
   -7.5463   21.5688  -33.4011 H   0  0  0  0  0  0  0  0  0  0  0  0
   -6.0713   20.1456  -34.8228 H   0  0  0  0  0  0  0  0  0  0  0  0
   -3.3208   21.1099  -34.5977 H   0  0  0  0  0  0  0  0  0  0  0  0
   -3.9038   23.0381  -33.1443 H   0  0  0  0  0  0  0  0  0  0  0  0
   -4.5653   21.6544  -28.0449 H   0  0  0  0  0  0  0  0  0  0  0  0
   -2.6271   21.7615  -26.4862 H   0  0  0  0  0  0  0  0  0  0  0  0
   -0.6432   23.1661  -27.0428 H   0  0  0  0  0  0  0  0  0  0  0  0
   -0.5799   24.4374  -29.1880 H   0  0  0  0  0  0  0  0  0  0  0  0
   -2.5100   24.3407  -30.7570 H   0  0  0  0  0  0  0  0  0  0  0  0
   -6.7101   21.7679  -30.1941 H   0  0  0  0  0  0  0  0  0  0  0  0
   -6.2687   22.6959  -28.7649 H   0  0  0  0  0  0  0  0  0  0  0  0
   -8.2269   23.6870  -30.3440 H   0  0  0  0  0  0  0  0  0  0  0  0
   -7.4674   25.9879  -29.8260 H   0  0  0  0  0  0  0  0  0  0  0  0
   -6.7797   25.0408  -28.5295 H   0  0  0  0  0  0  0  0  0  0  0  0
   -5.3543   26.4670  -30.6683 H   0  0  0  0  0  0  0  0  0  0  0  0
   -4.5935   25.5220  -29.4039 H   0  0  0  0  0  0  0  0  0  0  0  0
   -4.3211   24.5886  -31.9060 H   0  0  0  0  0  0  0  0  0  0  0  0
   -6.9424   25.0613  -32.2352 H   0  0  0  0  0  0  0  0  0  0  0  0
   -6.6980   23.4091  -32.5365 H   0  0  0  0  0  0  0  0  0  0  0  0
   -4.9861   20.2966  -29.9667 H   0  0  0  0  0  0  0  0  0  0  0  0
   -4.3752   18.3770  -31.4157 H   0  0  0  0  0  0  0  0  0  0  0  0
  1  2  1  0
  2  3  1  0
  3  4  1  0
  4  5  2  0
  5  6  1  0
  6  7  2  0
  7  8  1  0
  7  9  1  0
  9 10  2  0
  2 11  1  0
 11 12  2  0
 11 13  1  0
 13 14  2  0
 14 15  1  0
 15 16  2  0
 17 16  1  6
 17 18  1  0
 18 19  2  0
 19 20  1  0
 20 21  2  0
 21 22  1  0
 22 23  2  0
 17 24  1  0
 24 25  1  0
 25 26  1  0
 26 27  1  0
 27 28  1  0
 28 29  1  0
 16 30  1  0
 30 31  2  0
 10  4  1  0
 31 13  1  0
 28 17  1  0
 23 18  1  0
 29 25  1  0
  1 32  1  0
  1 33  1  0
  1 34  1  0
  2 35  1  6
  3 36  1  0
  3 37  1  0
  5 38  1  0
  6 39  1  0
  9 40  1  0
 10 41  1  0
 14 42  1  0
 15 43  1  0
 19 44  1  0
 20 45  1  0
 21 46  1  0
 22 47  1  0
 23 48  1  0
 24 49  1  0
 24 50  1  0
 25 51  1  6
 26 52  1  0
 26 53  1  0
 27 54  1  0
 27 55  1  0
 28 56  1  6
 29 57  1  0
 29 58  1  0
 30 59  1  0
 31 60  1  0
M  CHG  1   2   1
M  END
>  <UniqueID>  (15) 
13

>  <SMILES>  (15) 
C[N@@H+](Cc1ccc(Cl)cc1)C(=O)c1ccc([C@]2(c3ccccc3)CC3CCC2C3)cc1

>  <Energy>  (15) 
111.19377347479322

>  <Genealogy>  (15) 
C[NH+](Cc1ccc(Cl)cc1)C(=O)c1ccc(C2(c3ccccc3)CC3CCC2C3)cc1 (protonated)
C[N@@H+](Cc1ccc(Cl)cc1)C(=O)c1ccc([C@]2(c3ccccc3)CC3CCC2C3)cc1 (chirality)
C[N@@H+](Cc1ccc(Cl)cc1)C(=O)c1ccc([C@]2(c3ccccc3)CC3CCC2C3)cc1 (3D coordinates assigned)
C[N@@H+](Cc1ccc(Cl)cc1)C(=O)c1ccc([C@]2(c3ccccc3)CC3CCC2C3)cc1 (nonaromatic ring conformer: 111.19377347479322 kcal/mol)

>  <smiles>  (15) 
CN(Cc1ccc(Cl)cc1)C(=O)c1ccc(C2(c3ccccc3)CC3CCC2C3)cc1

>  <score_type>  (15) 
oracle

>  <origin>  (15) 
adgpu

>  <m_score__min__energy>  (15) 
-9.9900000000000002

>  <m_primary>  (15) 
energy

$$$$
15:0
     RDKit          3D

 34 35  0  0  0  0  0  0  0  0999 V2000
   -7.7180   19.6470  -32.6150 C   0  0  0  0  0  0  0  0  0  0  0  0
   -8.2130   20.7080  -31.8040 O   0  0  0  0  0  0  0  0  0  0  0  0
   -7.4670   21.8360  -31.4350 C   0  0  0  0  0  0  0  0  0  0  0  0
   -7.6140   22.3350  -30.1360 C   0  0  0  0  0  0  0  0  0  0  0  0
   -6.8930   23.4580  -29.7190 C   0  0  0  0  0  0  0  0  0  0  0  0
   -6.0070   24.0960  -30.6000 C   0  0  0  0  0  0  0  0  0  0  0  0
   -5.2560   25.3210  -30.1530 C   0  0  0  0  0  0  0  0  0  0  0  0
   -3.8390   25.1840  -30.4710 N   0  0  0  0  0  0  0  0  0  0  0  0
   -2.8920   24.5460  -29.6090 C   0  0  0  0  0  0  0  0  0  0  0  0
   -2.0310   25.2350  -28.9970 O   0  0  0  0  0  0  0  0  0  0  0  0
   -2.8720   23.0780  -29.4670 C   0  0  0  0  0  0  0  0  0  0  0  0
   -3.2490   22.2610  -30.4770 N   0  0  0  0  0  0  0  0  0  0  0  0
   -3.1480   21.0180  -29.9700 C   0  0  0  0  0  0  0  0  0  0  0  0
   -2.7170   21.0990  -28.6650 C   0  0  0  0  0  0  0  0  0  0  0  0
   -2.5540   19.9820  -27.7790 N   0  0  0  0  0  0  0  0  0  0  0  0
   -3.4440   19.7160  -26.9460 O   0  0  0  0  0  0  0  0  0  0  0  0
   -1.3560   19.3100  -27.7080 O   0  0  0  0  0  0  0  0  0  0  0  0
   -2.5150   22.3960  -28.3480 N   0  0  0  0  0  0  0  0  0  0  0  0
   -1.9620   22.9350  -27.1040 C   0  0  0  0  0  0  0  0  0  0  0  0
   -5.8620   23.6040  -31.9050 C   0  0  0  0  0  0  0  0  0  0  0  0
   -6.5830   22.4800  -32.3220 C   0  0  0  0  0  0  0  0  0  0  0  0
   -7.3409   18.8387  -31.9713 H   0  0  0  0  0  0  0  0  0  0  0  0
   -8.5293   19.2617  -33.2501 H   0  0  0  0  0  0  0  0  0  0  0  0
   -6.9015   20.0212  -33.2501 H   0  0  0  0  0  0  0  0  0  0  0  0
   -8.3031   21.8392  -29.4365 H   0  0  0  0  0  0  0  0  0  0  0  0
   -7.0209   23.8427  -28.6964 H   0  0  0  0  0  0  0  0  0  0  0  0
   -5.6609   26.2043  -30.6686 H   0  0  0  0  0  0  0  0  0  0  0  0
   -5.3713   25.4371  -29.0652 H   0  0  0  0  0  0  0  0  0  0  0  0
   -3.3736   20.0874  -30.5113 H   0  0  0  0  0  0  0  0  0  0  0  0
   -2.4545   22.4550  -26.2455 H   0  0  0  0  0  0  0  0  0  0  0  0
   -0.8811   22.7343  -27.0660 H   0  0  0  0  0  0  0  0  0  0  0  0
   -2.1349   24.0207  -27.0660 H   0  0  0  0  0  0  0  0  0  0  0  0
   -5.1772   24.1049  -32.6051 H   0  0  0  0  0  0  0  0  0  0  0  0
   -6.4590   22.0980  -33.3461 H   0  0  0  0  0  0  0  0  0  0  0  0
  1  2  1  0
  2  3  1  0
  3  4  2  0
  4  5  1  0
  5  6  2  0
  6  7  1  0
  7  8  1  0
  8  9  1  0
  9 10  2  0
  9 11  1  0
 11 12  2  0
 12 13  1  0
 13 14  2  0
 14 15  1  0
 15 16  2  0
 15 17  1  0
 14 18  1  0
 18 19  1  0
  6 20  1  0
 20 21  2  0
 21  3  1  0
 18 11  1  0
  1 22  1  0
  1 23  1  0
  1 24  1  0
  4 25  1  0
  5 26  1  0
  7 27  1  0
  7 28  1  0
 13 29  1  0
 19 30  1  0
 19 31  1  0
 19 32  1  0
 20 33  1  0
 21 34  1  0
M  CHG  3   8  -1  15   1  17  -1
M  END
>  <UniqueID>  (16) 
14

>  <SMILES>  (16) 
COc1ccc(C[N-]C(=O)c2ncc([N+](=O)[O-])n2C)cc1

>  <Energy>  (16) 
65.10362765621862

>  <Genealogy>  (16) 
COc1ccc(C[N-]C(=O)c2ncc([N+](=O)[O-])n2C)cc1 (protonated)
COc1ccc(C[N-]C(=O)c2ncc([N+](=O)[O-])n2C)cc1 (3D coordinates assigned)
COc1ccc(C[N-]C(=O)c2ncc([N+](=O)[O-])n2C)cc1 (optimized conformer: 65.10362765621862 kcal/mol)

>  <smiles>  (16) 
COc1ccc(CNC(=O)c2ncc([N+](=O)[O-])n2C)cc1

>  <score_type>  (16) 
oracle

>  <origin>  (16) 
adgpu

>  <m_score__min__energy>  (16) 
-7.4100000000000001

>  <m_primary>  (16) 
energy

$$$$
16:0
     RDKit          3D

 42 44  0  0  0  0  0  0  0  0999 V2000
   -3.4630   25.2970  -30.2280 O   0  0  0  0  0  0  0  0  0  0  0  0
   -2.6380   24.4830  -29.4590 C   0  0  0  0  0  0  0  0  0  0  0  0
   -1.5150   25.0350  -28.8150 C   0  0  0  0  0  0  0  0  0  0  0  0
   -1.2140   26.3910  -28.9280 O   0  0  0  0  0  0  0  0  0  0  0  0
   -0.6820   24.2160  -28.0460 C   0  0  0  0  0  0  0  0  0  0  0  0
   -0.9600   22.8550  -27.9150 C   0  0  0  0  0  0  0  0  0  0  0  0
   -2.0720   22.3010  -28.5520 C   0  0  0  0  0  0  0  0  0  0  0  0
   -2.9210   23.1080  -29.3290 C   0  0  0  0  0  0  0  0  0  0  0  0
   -4.1360   22.4980  -29.9940 C   0  0  0  0  0  0  0  0  0  0  0  0
   -4.6630   23.3400  -31.0850 N   0  0  0  0  0  0  0  0  0  0  0  0
   -5.8110   22.7320  -31.7880 C   0  0  2  0  0  0  0  0  0  0  0  0
   -7.1520   23.2590  -31.2110 C   0  0  0  0  0  0  0  0  0  0  0  0
   -8.2840   22.2170  -31.1990 C   0  0  0  0  0  0  0  0  0  0  0  0
   -8.1840   21.2390  -32.3730 C   0  0  0  0  0  0  0  0  0  0  0  0
   -6.8660   20.5830  -32.4040 N   0  0  0  0  0  0  0  0  0  0  0  0
   -6.6960   19.3040  -33.0550 C   0  0  0  0  0  0  0  0  0  0  0  0
   -5.8960   19.1680  -34.2050 C   0  0  0  0  0  0  0  0  0  0  0  0
   -5.7560   17.9140  -34.8030 C   0  0  0  0  0  0  0  0  0  0  0  0
   -6.4040   16.8060  -34.2570 C   0  0  0  0  0  0  0  0  0  0  0  0
   -7.1850   16.9710  -33.1120 C   0  0  0  0  0  0  0  0  0  0  0  0
   -7.3110   18.1990  -32.5430 N   0  0  0  0  0  0  0  0  0  0  0  0
   -5.7320   21.1960  -31.6940 C   0  0  0  0  0  0  0  0  0  0  0  0
   -1.2460   26.8780  -29.8160 H   0  0  0  0  0  0  0  0  0  0  0  0
    0.1960   24.6466  -27.5423 H   0  0  0  0  0  0  0  0  0  0  0  0
   -0.3011   22.2166  -27.3081 H   0  0  0  0  0  0  0  0  0  0  0  0
   -2.2849   21.2271  -28.4452 H   0  0  0  0  0  0  0  0  0  0  0  0
   -3.8572   21.5176  -30.4077 H   0  0  0  0  0  0  0  0  0  0  0  0
   -4.9238   22.4051  -29.2320 H   0  0  0  0  0  0  0  0  0  0  0  0
   -4.9440   24.2630  -30.6800 H   0  0  0  0  0  0  0  0  0  0  0  0
   -5.7695   23.0189  -32.8491 H   0  0  0  0  0  0  0  0  0  0  0  0
   -6.9766   23.5902  -30.1768 H   0  0  0  0  0  0  0  0  0  0  0  0
   -7.4808   24.0766  -31.8693 H   0  0  0  0  0  0  0  0  0  0  0  0
   -8.2316   21.6482  -30.2589 H   0  0  0  0  0  0  0  0  0  0  0  0
   -9.2389   22.7555  -31.2891 H   0  0  0  0  0  0  0  0  0  0  0  0
   -8.9652   20.4716  -32.2691 H   0  0  0  0  0  0  0  0  0  0  0  0
   -8.3172   21.8011  -33.3091 H   0  0  0  0  0  0  0  0  0  0  0  0
   -5.3843   20.0441  -34.6300 H   0  0  0  0  0  0  0  0  0  0  0  0
   -5.1352   17.8000  -35.7039 H   0  0  0  0  0  0  0  0  0  0  0  0
   -6.3008   15.8149  -34.7228 H   0  0  0  0  0  0  0  0  0  0  0  0
   -7.6996   16.1055  -32.6692 H   0  0  0  0  0  0  0  0  0  0  0  0
   -5.7603   20.8950  -30.6364 H   0  0  0  0  0  0  0  0  0  0  0  0
   -4.7937   20.8565  -32.1568 H   0  0  0  0  0  0  0  0  0  0  0  0
  1  2  1  0
  2  3  2  0
  3  4  1  0
  3  5  1  0
  5  6  2  0
  6  7  1  0
  7  8  2  0
  8  9  1  0
  9 10  1  0
 10 11  1  0
 11 12  1  0
 12 13  1  0
 13 14  1  0
 14 15  1  0
 15 16  1  0
 16 17  2  0
 17 18  1  0
 18 19  2  0
 19 20  1  0
 20 21  2  0
 15 22  1  0
  8  2  1  0
 22 11  1  0
 21 16  1  0
  4 23  1  0
  5 24  1  0
  6 25  1  0
  7 26  1  0
  9 27  1  0
  9 28  1  0
 10 29  1  0
 11 30  1  6
 12 31  1  0
 12 32  1  0
 13 33  1  0
 13 34  1  0
 14 35  1  0
 14 36  1  0
 17 37  1  0
 18 38  1  0
 19 39  1  0
 20 40  1  0
 22 41  1  0
 22 42  1  0
M  CHG  1   1  -1
M  END
>  <UniqueID>  (17) 
15

>  <SMILES>  (17) 
[O-]c1c(O)cccc1CN[C@@H]1CCCN(c2ccccn2)C1

>  <Energy>  (17) 
49.93637303003081

>  <Genealogy>  (17) 
[O-]c1c(O)cccc1CNC1CCCN(c2ccccn2)C1 (protonated)
[O-]c1c(O)cccc1CN[C@@H]1CCCN(c2ccccn2)C1 (chirality)
[O-]c1c(O)cccc1CN[C@@H]1CCCN(c2ccccn2)C1 (3D coordinates assigned)
[O-]c1c(O)cccc1CN[C@@H]1CCCN(c2ccccn2)C1 (nonaromatic ring conformer: 49.93637303003081 kcal/mol)

>  <smiles>  (17) 
Oc1cccc(CNC2CCCN(c3ccccn3)C2)c1O

>  <score_type>  (17) 
oracle

>  <origin>  (17) 
adgpu

>  <m_score__min__energy>  (17) 
-12.57

>  <m_primary>  (17) 
energy

$$$$
17:0
     RDKit          3D

 40 42  0  0  0  0  0  0  0  0999 V2000
   -1.6130   25.6760  -28.9660 N   0  0  0  0  0  0  0  0  0  0  0  0
   -0.8060   24.6850  -27.8000 S   0  0  0  0  0  0  0  0  0  0  0  0
   -0.9090   25.3190  -26.4420 O   0  0  0  0  0  0  0  0  0  0  0  0
    0.6420   24.5720  -28.1790 O   0  0  0  0  0  0  0  0  0  0  0  0
   -1.5560   23.0860  -27.7660 C   0  0  0  0  0  0  0  0  0  0  0  0
   -0.7590   21.9510  -27.5490 C   0  0  0  0  0  0  0  0  0  0  0  0
   -1.3240   20.6770  -27.5760 C   0  0  0  0  0  0  0  0  0  0  0  0
   -2.6900   20.5230  -27.8190 C   0  0  0  0  0  0  0  0  0  0  0  0
   -3.4930   21.6460  -28.0280 C   0  0  0  0  0  0  0  0  0  0  0  0
   -2.9360   22.9360  -28.0080 C   0  0  0  0  0  0  0  0  0  0  0  0
   -3.7410   24.1020  -28.2370 N   0  0  0  0  0  0  0  0  0  0  0  0
   -4.5340   24.4920  -29.7290 S   0  0  0  0  0  0  0  0  0  0  0  0
   -3.5970   25.2870  -30.5930 O   0  0  0  0  0  0  0  0  0  0  0  0
   -5.7540   25.3220  -29.4470 O   0  0  0  0  0  0  0  0  0  0  0  0
   -4.9580   23.0050  -30.5700 C   0  0  0  0  0  0  0  0  0  0  0  0
   -6.2850   22.5710  -30.5930 C   0  0  0  0  0  0  0  0  0  0  0  0
   -6.6300   21.4050  -31.2810 C   0  0  0  0  0  0  0  0  0  0  0  0
   -5.6350   20.6770  -31.9600 C   0  0  0  0  0  0  0  0  0  0  0  0
   -5.9460   19.4310  -32.7100 C   0  0  0  0  0  0  0  0  0  0  0  0
   -5.2420   19.1300  -33.8900 C   0  0  0  0  0  0  0  0  0  0  0  0
   -5.5270   17.9660  -34.6120 C   0  0  0  0  0  0  0  0  0  0  0  0
   -6.5190   17.0910  -34.1680 C   0  0  0  0  0  0  0  0  0  0  0  0
   -7.2410   17.3850  -33.0070 C   0  0  0  0  0  0  0  0  0  0  0  0
   -6.9600   18.5480  -32.2840 C   0  0  0  0  0  0  0  0  0  0  0  0
   -4.3480   21.1230  -31.9120 N   0  0  0  0  0  0  0  0  0  0  0  0
   -3.9910   22.2520  -31.2430 C   0  0  0  0  0  0  0  0  0  0  0  0
   -2.6220   25.6960  -28.6980 H   0  0  0  0  0  0  0  0  0  0  0  0
   -1.5530   25.1830  -29.8850 H   0  0  0  0  0  0  0  0  0  0  0  0
    0.3177   22.0676  -27.3565 H   0  0  0  0  0  0  0  0  0  0  0  0
   -0.6930   19.7923  -27.4057 H   0  0  0  0  0  0  0  0  0  0  0  0
   -3.1338   19.5169  -27.8458 H   0  0  0  0  0  0  0  0  0  0  0  0
   -4.5705   21.5199  -28.2098 H   0  0  0  0  0  0  0  0  0  0  0  0
   -7.0604   23.1484  -30.0683 H   0  0  0  0  0  0  0  0  0  0  0  0
   -7.6737   21.0578  -31.2920 H   0  0  0  0  0  0  0  0  0  0  0  0
   -4.4603   19.8160  -34.2483 H   0  0  0  0  0  0  0  0  0  0  0  0
   -4.9677   17.7401  -35.5319 H   0  0  0  0  0  0  0  0  0  0  0  0
   -6.7330   16.1705  -34.7309 H   0  0  0  0  0  0  0  0  0  0  0  0
   -8.0304   16.7008  -32.6625 H   0  0  0  0  0  0  0  0  0  0  0  0
   -7.5350   18.7766  -31.3745 H   0  0  0  0  0  0  0  0  0  0  0  0
   -2.9391   22.5735  -31.2313 H   0  0  0  0  0  0  0  0  0  0  0  0
  1  2  1  0
  2  3  2  0
  2  4  2  0
  2  5  1  0
  5  6  2  0
  6  7  1  0
  7  8  2  0
  8  9  1  0
  9 10  2  0
 10 11  1  0
 11 12  1  0
 12 13  2  0
 12 14  2  0
 12 15  1  0
 15 16  2  0
 16 17  1  0
 17 18  2  0
 18 19  1  0
 19 20  2  0
 20 21  1  0
 21 22  2  0
 22 23  1  0
 23 24  2  0
 18 25  1  0
 25 26  2  0
 10  5  1  0
 26 15  1  0
 24 19  1  0
  1 27  1  0
  1 28  1  0
  6 29  1  0
  7 30  1  0
  8 31  1  0
  9 32  1  0
 16 33  1  0
 17 34  1  0
 20 35  1  0
 21 36  1  0
 22 37  1  0
 23 38  1  0
 24 39  1  0
 26 40  1  0
M  CHG  1  11  -1
M  END
>  <UniqueID>  (18) 
16

>  <SMILES>  (18) 
NS(=O)(=O)c1ccccc1[N-]S(=O)(=O)c1ccc(-c2ccccc2)nc1

>  <Energy>  (18) 
50.221611564371976

>  <Genealogy>  (18) 
NS(=O)(=O)c1ccccc1[N-]S(=O)(=O)c1ccc(-c2ccccc2)nc1 (protonated)
NS(=O)(=O)c1ccccc1[N-]S(=O)(=O)c1ccc(-c2ccccc2)nc1 (3D coordinates assigned)
NS(=O)(=O)c1ccccc1[N-]S(=O)(=O)c1ccc(-c2ccccc2)nc1 (optimized conformer: 50.221611564371976 kcal/mol)

>  <smiles>  (18) 
NS(=O)(=O)c1ccccc1NS(=O)(=O)c1ccc(-c2ccccc2)nc1

>  <score_type>  (18) 
oracle

>  <origin>  (18) 
adgpu

>  <m_score__min__energy>  (18) 
-9.5999999999999996

>  <m_primary>  (18) 
energy

$$$$
18:0
     RDKit          3D

 35 36  0  0  0  0  0  0  0  0999 V2000
   -5.8226   17.7629  -34.5059 H   0  0  0  0  0  0  0  0  0  0  0  0
   -5.7900   18.6340  -33.8350 C   0  0  0  0  0  0  0  0  0  0  0  0
   -4.6940   19.3380  -33.8070 N   0  0  0  0  0  0  0  0  0  0  0  0
   -4.3670   20.3870  -32.8860 C   0  0  0  0  0  0  0  0  0  0  0  0
   -3.1970   20.3350  -32.1100 C   0  0  0  0  0  0  0  0  0  0  0  0
   -2.5182   19.4740  -32.1984 H   0  0  0  0  0  0  0  0  0  0  0  0
   -2.8930   21.3740  -31.2260 C   0  0  0  0  0  0  0  0  0  0  0  0
   -1.9833   21.3208  -30.6098 H   0  0  0  0  0  0  0  0  0  0  0  0
   -3.7420   22.4820  -31.1220 C   0  0  0  0  0  0  0  0  0  0  0  0
   -3.3840   23.7490  -29.9520 S   0  0  0  0  0  0  0  0  0  0  0  0
   -4.1250   23.4610  -28.6760 O   0  0  0  0  0  0  0  0  0  0  0  0
   -1.9110   23.7760  -29.6490 O   0  0  0  0  0  0  0  0  0  0  0  0
   -3.8810   25.2990  -30.5640 N   0  0  0  0  0  0  0  0  0  0  0  0
   -5.3230   25.3310  -30.8220 C   0  0  0  0  0  0  0  0  0  0  0  0
   -5.6381   24.3652  -31.2437 H   0  0  0  0  0  0  0  0  0  0  0  0
   -5.5424   26.1410  -31.5332 H   0  0  0  0  0  0  0  0  0  0  0  0
   -6.0840   25.5870  -29.5270 C   0  0  0  0  0  0  0  0  0  0  0  0
   -5.4317   25.3676  -28.6689 H   0  0  0  0  0  0  0  0  0  0  0  0
   -6.3985   26.6404  -29.4886 H   0  0  0  0  0  0  0  0  0  0  0  0
   -6.9712   24.9379  -29.4886 H   0  0  0  0  0  0  0  0  0  0  0  0
   -4.8900   22.5520  -31.9230 C   0  0  0  0  0  0  0  0  0  0  0  0
   -5.5557   23.4248  -31.8516 H   0  0  0  0  0  0  0  0  0  0  0  0
   -5.1920   21.5170  -32.8120 C   0  0  0  0  0  0  0  0  0  0  0  0
   -6.0807   21.5897  -33.4561 H   0  0  0  0  0  0  0  0  0  0  0  0
   -6.9920   18.9260  -33.0270 C   0  0  0  0  0  0  0  0  0  0  0  0
   -7.6080   20.0850  -33.0590 O   0  0  0  0  0  0  0  0  0  0  0  0
   -8.6130   20.0450  -32.2140 C   0  0  0  0  0  0  0  0  0  0  0  0
   -9.5390   21.1840  -31.9590 C   0  0  0  0  0  0  0  0  0  0  0  0
   -9.6549   21.3266  -30.8745 H   0  0  0  0  0  0  0  0  0  0  0  0
   -9.1260   22.0997  -32.4071 H   0  0  0  0  0  0  0  0  0  0  0  0
  -10.5198   20.9666  -32.4071 H   0  0  0  0  0  0  0  0  0  0  0  0
   -8.6560   18.8170  -31.5830 C   0  0  0  0  0  0  0  0  0  0  0  0
   -9.3791   18.4854  -30.8233 H   0  0  0  0  0  0  0  0  0  0  0  0
   -7.6050   18.0940  -32.1030 C   0  0  0  0  0  0  0  0  0  0  0  0
   -7.3122   17.0670  -31.8391 H   0  0  0  0  0  0  0  0  0  0  0  0
  1  2  1  0
  2  3  2  0
  3  4  1  0
  4  5  2  0
  5  6  1  0
  5  7  1  0
  7  8  1  0
  7  9  2  0
  9 10  1  0
 10 11  2  0
 10 12  2  0
 10 13  1  0
 13 14  1  0
 14 15  1  0
 14 16  1  0
 14 17  1  0
 17 18  1  0
 17 19  1  0
 17 20  1  0
  9 21  1  0
 21 22  1  0
 21 23  2  0
 23 24  1  0
  2 25  1  0
 25 26  1  0
 26 27  1  0
 27 28  1  0
 28 29  1  0
 28 30  1  0
 28 31  1  0
 27 32  2  0
 32 33  1  0
 32 34  1  0
 34 35  1  0
 23  4  1  0
 34 25  2  0
M  CHG  1  13  -1
M  END
>  <UniqueID>  (19) 
17

>  <SMILES>  (19) 
CC[N-]S(=O)(=O)c1ccc(/N=C\c2ccc(C)o2)cc1

>  <Energy>  (19) 
65.59550779618905

>  <Genealogy>  (19) 
CC[N-]S(=O)(=O)c1ccc(N=Cc2ccc(C)o2)cc1 (protonated)
CC[N-]S(=O)(=O)c1ccc(/N=C\c2ccc(C)o2)cc1 (cis-trans isomerization)
CC[N-]S(=O)(=O)c1ccc(/N=C\c2ccc(C)o2)cc1 (3D coordinates assigned)
CC[N-]S(=O)(=O)c1ccc(/N=C\c2ccc(C)o2)cc1 (optimized conformer: 65.59550779618905 kcal/mol)

>  <smiles>  (19) 
CCNS(=O)(=O)c1ccc(N=Cc2ccc(C)o2)cc1

>  <score_type>  (19) 
oracle

>  <origin>  (19) 
adgpu

>  <m_score__min__energy>  (19) 
-9.0999999999999996

>  <m_primary>  (19) 
energy

$$$$
19:0
     RDKit          3D

 42 44  0  0  0  0  0  0  0  0999 V2000
   -2.4970   23.7140  -28.2260 C   0  0  0  0  0  0  0  0  0  0  0  0
   -2.4320   24.9230  -29.1080 C   0  0  0  0  0  0  0  0  0  0  0  0
   -1.4410   25.6940  -29.0110 O   0  0  0  0  0  0  0  0  0  0  0  0
   -3.4780   25.2520  -30.0330 N   0  0  0  0  0  0  0  0  0  0  0  0
   -4.6450   24.4670  -30.3180 C   0  0  0  0  0  0  0  0  0  0  0  0
   -4.5500   23.1310  -30.7420 C   0  0  0  0  0  0  0  0  0  0  0  0
   -5.7060   22.4040  -31.0400 C   0  0  0  0  0  0  0  0  0  0  0  0
   -6.9660   23.0060  -30.9330 C   0  0  0  0  0  0  0  0  0  0  0  0
   -8.4200   22.0990  -31.3330 S   0  0  0  0  0  0  0  0  0  0  0  0
   -9.2620   21.9020  -30.1020 O   0  0  0  0  0  0  0  0  0  0  0  0
   -9.2340   22.8650  -32.3380 O   0  0  0  0  0  0  0  0  0  0  0  0
   -7.9570   20.5320  -31.9870 C   0  0  0  0  0  0  0  0  0  0  0  0
   -6.9990   20.4590  -33.0050 C   0  0  0  0  0  0  0  0  0  0  0  0
   -6.6340   19.2220  -33.5420 C   0  0  0  0  0  0  0  0  0  0  0  0
   -7.2370   18.0390  -33.0780 C   0  0  0  0  0  0  0  0  0  0  0  0
   -6.8600   16.7510  -33.5940 N   0  0  0  0  0  0  0  0  0  0  0  0
   -5.6040   16.1140  -33.3090 C   0  0  0  0  0  0  0  0  0  0  0  0
   -4.6290   16.7980  -32.8950 O   0  0  0  0  0  0  0  0  0  0  0  0
   -5.4210   14.6710  -33.5360 C   0  0  0  0  0  0  0  0  0  0  0  0
   -4.4270   13.8600  -32.9940 C   0  0  0  0  0  0  0  0  0  0  0  0
   -4.5050   12.5290  -33.4200 C   0  0  0  0  0  0  0  0  0  0  0  0
   -5.5520   12.2830  -34.2970 C   0  0  0  0  0  0  0  0  0  0  0  0
   -6.3790   13.7240  -34.5460 S   0  0  0  0  0  0  0  0  0  0  0  0
   -8.1860   18.1170  -32.0470 C   0  0  0  0  0  0  0  0  0  0  0  0
   -8.5510   19.3560  -31.5110 C   0  0  0  0  0  0  0  0  0  0  0  0
   -7.0600   24.3500  -30.5480 C   0  0  0  0  0  0  0  0  0  0  0  0
   -5.9040   25.0770  -30.2500 C   0  0  0  0  0  0  0  0  0  0  0  0
   -2.4801   24.0278  -27.1719 H   0  0  0  0  0  0  0  0  0  0  0  0
   -3.4262   23.1614  -28.4292 H   0  0  0  0  0  0  0  0  0  0  0  0
   -1.6325   23.0650  -28.4292 H   0  0  0  0  0  0  0  0  0  0  0  0
   -3.5629   22.6556  -30.8398 H   0  0  0  0  0  0  0  0  0  0  0  0
   -5.6258   21.3546  -31.3599 H   0  0  0  0  0  0  0  0  0  0  0  0
   -6.5314   21.3798  -33.3839 H   0  0  0  0  0  0  0  0  0  0  0  0
   -5.8705   19.1729  -34.3324 H   0  0  0  0  0  0  0  0  0  0  0  0
   -7.4950   16.3020  -34.2920 H   0  0  0  0  0  0  0  0  0  0  0  0
   -3.6572   14.2288  -32.3002 H   0  0  0  0  0  0  0  0  0  0  0  0
   -3.8016   11.7502  -33.0902 H   0  0  0  0  0  0  0  0  0  0  0  0
   -5.7981   11.3117  -34.7510 H   0  0  0  0  0  0  0  0  0  0  0  0
   -8.6461   17.1968  -31.6577 H   0  0  0  0  0  0  0  0  0  0  0  0
   -9.3067   19.4073  -30.7133 H   0  0  0  0  0  0  0  0  0  0  0  0
   -8.0455   24.8339  -30.4801 H   0  0  0  0  0  0  0  0  0  0  0  0
   -5.9835   26.1351  -29.9602 H   0  0  0  0  0  0  0  0  0  0  0  0
  1  2  1  0
  2  3  2  0
  2  4  1  0
  4  5  1  0
  5  6  2  0
  6  7  1  0
  7  8  2  0
  8  9  1  0
  9 10  2  0
  9 11  2  0
  9 12  1  0
 12 13  2  0
 13 14  1  0
 14 15  2  0
 15 16  1  0
 16 17  1  0
 17 18  2  0
 17 19  1  0
 19 20  2  0
 20 21  1  0
 21 22  2  0
 22 23  1  0
 15 24  1  0
 24 25  2  0
  8 26  1  0
 26 27  2  0
 27  5  1  0
 25 12  1  0
 23 19  1  0
  1 28  1  0
  1 29  1  0
  1 30  1  0
  6 31  1  0
  7 32  1  0
 13 33  1  0
 14 34  1  0
 16 35  1  0
 20 36  1  0
 21 37  1  0
 22 38  1  0
 24 39  1  0
 25 40  1  0
 26 41  1  0
 27 42  1  0
M  CHG  1   4  -1
M  END
>  <UniqueID>  (20) 
18

>  <SMILES>  (20) 
CC(=O)[N-]c1ccc(S(=O)(=O)c2ccc(NC(=O)c3cccs3)cc2)cc1

>  <Energy>  (20) 
78.97856056104564

>  <Genealogy>  (20) 
CC(=O)[N-]c1ccc(S(=O)(=O)c2ccc(NC(=O)c3cccs3)cc2)cc1 (protonated)
CC(=O)[N-]c1ccc(S(=O)(=O)c2ccc(NC(=O)c3cccs3)cc2)cc1 (3D coordinates assigned)
CC(=O)[N-]c1ccc(S(=O)(=O)c2ccc(NC(=O)c3cccs3)cc2)cc1 (optimized conformer: 78.97856056104564 kcal/mol)

>  <smiles>  (20) 
CC(=O)Nc1ccc(S(=O)(=O)c2ccc(NC(=O)c3cccs3)cc2)cc1

>  <score_type>  (20) 
oracle

>  <origin>  (20) 
adgpu

>  <m_score__min__energy>  (20) 
-11.44

>  <m_primary>  (20) 
energy

$$$$
20:0
     RDKit          3D

 28 30  0  0  0  0  0  0  0  0999 V2000
   -4.1120   25.6540  -30.8270 O   0  0  0  0  0  0  0  0  0  0  0  0
   -4.2630   24.4240  -30.5900 C   0  0  0  0  0  0  0  0  0  0  0  0
   -5.3510   23.7550  -31.1500 C   0  0  0  0  0  0  0  0  0  0  0  0
   -5.5270   22.3860  -30.8930 C   0  0  0  0  0  0  0  0  0  0  0  0
   -6.6660   21.6210  -31.4630 C   0  0  0  0  0  0  0  0  0  0  0  0
   -6.4120   20.4450  -32.1930 C   0  0  0  0  0  0  0  0  0  0  0  0
   -7.4670   19.7020  -32.7320 C   0  0  0  0  0  0  0  0  0  0  0  0
   -8.7870   20.1180  -32.5410 C   0  0  0  0  0  0  0  0  0  0  0  0
   -9.8340   19.3780  -33.0780 O   0  0  0  0  0  0  0  0  0  0  0  0
   -9.0530   21.2760  -31.8080 C   0  0  0  0  0  0  0  0  0  0  0  0
   -8.0020   22.0230  -31.2660 C   0  0  0  0  0  0  0  0  0  0  0  0
   -4.6450   21.7460  -30.1280 O   0  0  0  0  0  0  0  0  0  0  0  0
   -3.5930   22.3370  -29.5720 C   0  0  0  0  0  0  0  0  0  0  0  0
   -2.7200   21.5790  -28.7790 C   0  0  0  0  0  0  0  0  0  0  0  0
   -2.9740   20.2200  -28.5900 O   0  0  0  0  0  0  0  0  0  0  0  0
   -1.6070   22.1920  -28.1830 C   0  0  0  0  0  0  0  0  0  0  0  0
   -0.7330   21.4530  -27.3940 O   0  0  0  0  0  0  0  0  0  0  0  0
   -1.3670   23.5540  -28.3820 C   0  0  0  0  0  0  0  0  0  0  0  0
   -2.2300   24.3200  -29.1720 C   0  0  0  0  0  0  0  0  0  0  0  0
   -1.9520   25.6730  -29.3420 O   0  0  0  0  0  0  0  0  0  0  0  0
   -3.3550   23.7170  -29.7770 C   0  0  0  0  0  0  0  0  0  0  0  0
   -6.0656   24.2956  -31.7880 H   0  0  0  0  0  0  0  0  0  0  0  0
   -5.3755   20.1076  -32.3408 H   0  0  0  0  0  0  0  0  0  0  0  0
   -7.2572   18.7883  -33.3074 H   0  0  0  0  0  0  0  0  0  0  0  0
  -10.0926   21.6020  -31.6562 H   0  0  0  0  0  0  0  0  0  0  0  0
   -8.2197   22.9297  -30.6825 H   0  0  0  0  0  0  0  0  0  0  0  0
   -2.3860   19.6370  -28.0060 H   0  0  0  0  0  0  0  0  0  0  0  0
   -0.4918   24.0277  -27.9133 H   0  0  0  0  0  0  0  0  0  0  0  0
  1  2  2  0
  2  3  1  0
  3  4  2  0
  4  5  1  0
  5  6  2  0
  6  7  1  0
  7  8  2  0
  8  9  1  0
  8 10  1  0
 10 11  2  0
  4 12  1  0
 12 13  1  0
 13 14  2  0
 14 15  1  0
 14 16  1  0
 16 17  1  0
 16 18  2  0
 18 19  1  0
 19 20  1  0
 19 21  2  0
 21  2  1  0
 11  5  1  0
 21 13  1  0
  3 22  1  0
  6 23  1  0
  7 24  1  0
 10 25  1  0
 11 26  1  0
 15 27  1  0
 18 28  1  0
M  CHG  3   9  -1  17  -1  20  -1
M  END
>  <UniqueID>  (21) 
19

>  <SMILES>  (21) 
O=c1cc(-c2ccc([O-])cc2)oc2c(O)c([O-])cc([O-])c12

>  <Energy>  (21) 
42.06616775797814

>  <Genealogy>  (21) 
O=c1cc(-c2ccc([O-])cc2)oc2c(O)c([O-])cc([O-])c12 (protonated)
O=c1cc(-c2ccc([O-])cc2)oc2c(O)c([O-])cc([O-])c12 (3D coordinates assigned)
O=c1cc(-c2ccc([O-])cc2)oc2c(O)c([O-])cc([O-])c12 (optimized conformer: 42.06616775797814 kcal/mol)

>  <smiles>  (21) 
O=c1cc(-c2ccc(O)cc2)oc2c(O)c(O)cc(O)c12

>  <score_type>  (21) 
oracle

>  <origin>  (21) 
adgpu

>  <m_score__min__energy>  (21) 
-9.8300000000000001

>  <m_primary>  (21) 
energy

$$$$
21:0
     RDKit          3D

 75 79  0  0  0  0  0  0  0  0999 V2000
   -9.4840   21.6130  -30.8530 C   0  0  0  0  0  0  0  0  0  0  0  0
   -8.4800   20.8180  -31.6460 C   0  0  0  0  0  0  0  0  0  0  0  0
   -8.5170   19.4160  -31.6150 C   0  0  0  0  0  0  0  0  0  0  0  0
   -7.5940   18.6670  -32.3460 C   0  0  0  0  0  0  0  0  0  0  0  0
   -6.5840   19.3010  -33.0930 C   0  0  0  0  0  0  0  0  0  0  0  0
   -5.6410   18.5200  -33.9360 C   0  0  0  0  0  0  0  0  0  0  0  0
   -6.0570   17.9660  -34.9940 O   0  0  0  0  0  0  0  0  0  0  0  0
   -4.2970   18.2750  -33.5150 N   0  0  0  0  0  0  0  0  0  0  0  0
   -3.2450   19.2490  -33.4950 C   0  0  0  0  0  0  0  0  0  0  0  0
   -3.5120   20.6140  -33.2840 C   0  0  0  0  0  0  0  0  0  0  0  0
   -2.4600   21.5260  -33.2170 C   0  0  0  0  0  0  0  0  0  0  0  0
   -1.1360   21.0890  -33.3600 C   0  0  0  0  0  0  0  0  0  0  0  0
   -0.8500   19.7300  -33.5950 C   0  0  0  0  0  0  0  0  0  0  0  0
    0.5210   19.2660  -33.6930 N   0  0  0  0  0  0  0  0  0  0  0  0
    1.5160   19.6450  -32.6800 C   0  0  0  0  0  0  0  0  0  0  0  0
    0.9300   18.3680  -34.7860 C   0  0  0  0  0  0  0  0  0  0  0  0
   -1.9280   18.8230  -33.6770 C   0  0  0  0  0  0  0  0  0  0  0  0
   -6.5220   20.7070  -33.0900 C   0  0  0  0  0  0  0  0  0  0  0  0
   -7.4690   21.4690  -32.3810 C   0  0  0  0  0  0  0  0  0  0  0  0
   -7.4550   22.9060  -32.4490 N   0  0  0  0  0  0  0  0  0  0  0  0
   -6.9350   23.7800  -31.4400 C   0  0  0  0  0  0  0  0  0  0  0  0
   -7.7380   24.5370  -30.8330 O   0  0  0  0  0  0  0  0  0  0  0  0
   -5.5090   23.7550  -31.0380 C   0  0  0  0  0  0  0  0  0  0  0  0
   -4.8460   22.5480  -30.7840 C   0  0  0  0  0  0  0  0  0  0  0  0
   -3.5620   22.5550  -30.3450 N   0  0  0  0  0  0  0  0  0  0  0  0
   -2.8910   23.7220  -30.1320 C   0  0  0  0  0  0  0  0  0  0  0  0
   -1.6590   23.7250  -29.7090 N   0  0  0  0  0  0  0  0  0  0  0  0
   -0.9030   22.5700  -29.3080 C   0  0  0  0  0  0  0  0  0  0  0  0
   -0.3350   22.5390  -28.0280 C   0  0  0  0  0  0  0  0  0  0  0  0
    0.3960   21.4250  -27.6010 C   0  0  0  0  0  0  0  0  0  0  0  0
    0.5430   20.3050  -28.4410 C   0  0  0  0  0  0  0  0  0  0  0  0
    1.3000   19.1550  -28.0100 N   0  0  0  0  0  0  0  0  0  0  0  0
    2.7650   19.1500  -28.1170 C   0  0  0  0  0  0  0  0  0  0  0  0
    3.3030   17.7040  -28.1270 C   0  0  0  0  0  0  0  0  0  0  0  0
    2.4270   16.7930  -28.8990 N   0  0  0  0  0  0  0  0  0  0  0  0
    2.4880   17.0750  -30.3450 C   0  0  0  0  0  0  0  0  0  0  0  0
    1.0280   16.7390  -28.3870 C   0  0  0  0  0  0  0  0  0  0  0  0
    0.6390   17.9420  -27.5130 C   0  0  0  0  0  0  0  0  0  0  0  0
   -0.0500   20.3290  -29.7170 C   0  0  0  0  0  0  0  0  0  0  0  0
   -0.7810   21.4410  -30.1380 C   0  0  0  0  0  0  0  0  0  0  0  0
   -3.5070   24.9050  -30.3850 N   0  0  0  0  0  0  0  0  0  0  0  0
   -4.7940   24.9460  -30.8220 C   0  0  0  0  0  0  0  0  0  0  0  0
   -9.3004   21.4676  -29.7782 H   0  0  0  0  0  0  0  0  0  0  0  0
   -9.3849   22.6801  -31.1008 H   0  0  0  0  0  0  0  0  0  0  0  0
  -10.5000   21.2719  -31.1008 H   0  0  0  0  0  0  0  0  0  0  0  0
   -9.2793   18.9033  -31.0100 H   0  0  0  0  0  0  0  0  0  0  0  0
   -7.6567   17.5688  -32.3382 H   0  0  0  0  0  0  0  0  0  0  0  0
   -4.5497   20.9612  -33.1720 H   0  0  0  0  0  0  0  0  0  0  0  0
   -2.6698   22.5930  -33.0512 H   0  0  0  0  0  0  0  0  0  0  0  0
   -0.3122   21.8144  -33.2880 H   0  0  0  0  0  0  0  0  0  0  0  0
    1.0962   19.4851  -31.6759 H   0  0  0  0  0  0  0  0  0  0  0  0
    2.4180   19.0275  -32.8029 H   0  0  0  0  0  0  0  0  0  0  0  0
    1.7786   20.7061  -32.8029 H   0  0  0  0  0  0  0  0  0  0  0  0
    1.3509   17.4438  -34.3632 H   0  0  0  0  0  0  0  0  0  0  0  0
    0.0549   18.1224  -35.4056 H   0  0  0  0  0  0  0  0  0  0  0  0
    1.6897   18.8669  -35.4056 H   0  0  0  0  0  0  0  0  0  0  0  0
   -1.7272   17.7623  -33.8879 H   0  0  0  0  0  0  0  0  0  0  0  0
   -5.7233   21.2166  -33.6489 H   0  0  0  0  0  0  0  0  0  0  0  0
   -5.3672   21.5921  -30.9407 H   0  0  0  0  0  0  0  0  0  0  0  0
   -0.4647   23.3977  -27.3528 H   0  0  0  0  0  0  0  0  0  0  0  0
    0.8586   21.4244  -26.6030 H   0  0  0  0  0  0  0  0  0  0  0  0
    3.0612   19.6525  -29.0496 H   0  0  0  0  0  0  0  0  0  0  0  0
    3.1861   19.6794  -27.2496 H   0  0  0  0  0  0  0  0  0  0  0  0
    4.3057   17.7010  -28.5794 H   0  0  0  0  0  0  0  0  0  0  0  0
    3.3352   17.3456  -27.0875 H   0  0  0  0  0  0  0  0  0  0  0  0
    2.7182   18.1392  -30.5016 H   0  0  0  0  0  0  0  0  0  0  0  0
    3.2735   16.4582  -30.8060 H   0  0  0  0  0  0  0  0  0  0  0  0
    1.5178   16.8380  -30.8060 H   0  0  0  0  0  0  0  0  0  0  0  0
    0.3449   16.7012  -29.2484 H   0  0  0  0  0  0  0  0  0  0  0  0
    0.9546   15.8446  -27.7509 H   0  0  0  0  0  0  0  0  0  0  0  0
   -0.4517   18.0806  -27.5478 H   0  0  0  0  0  0  0  0  0  0  0  0
    0.9571   17.7548  -26.4768 H   0  0  0  0  0  0  0  0  0  0  0  0
    0.0635   19.4646  -30.3878 H   0  0  0  0  0  0  0  0  0  0  0  0
   -1.2651   21.4344  -31.1257 H   0  0  0  0  0  0  0  0  0  0  0  0
   -5.2782   25.9161  -31.0075 H   0  0  0  0  0  0  0  0  0  0  0  0
  1  2  1  0
  2  3  2  0
  3  4  1  0
  4  5  2  0
  5  6  1  0
  6  7  2  0
  6  8  1  0
  8  9  1  0
  9 10  2  0
 10 11  1  0
 11 12  2  0
 12 13  1  0
 13 14  1  0
 14 15  1  0
 14 16  1  0
 13 17  2  0
  5 18  1  0
 18 19  2  0
 19 20  1  0
 20 21  1  0
 21 22  2  0
 21 23  1  0
 23 24  1  0
 24 25  2  0
 25 26  1  0
 26 27  2  3
 27 28  1  0
 28 29  2  0
 29 30  1  0
 30 31  2  0
 31 32  1  0
 32 33  1  0
 33 34  1  0
 34 35  1  0
 35 36  1  0
 35 37  1  0
 37 38  1  0
 31 39  1  0
 39 40  2  0
 26 41  1  0
 41 42  1  0
 19  2  1  0
 42 23  2  0
 17  9  1  0
 40 28  1  0
 38 32  1  0
  1 43  1  0
  1 44  1  0
  1 45  1  0
  3 46  1  0
  4 47  1  0
 10 48  1  0
 11 49  1  0
 12 50  1  0
 15 51  1  0
 15 52  1  0
 15 53  1  0
 16 54  1  0
 16 55  1  0
 16 56  1  0
 17 57  1  0
 18 58  1  0
 24 59  1  0
 29 60  1  0
 30 61  1  0
 33 62  1  0
 33 63  1  0
 34 64  1  0
 34 65  1  0
 36 66  1  0
 36 67  1  0
 36 68  1  0
 37 69  1  0
 37 70  1  0
 38 71  1  0
 38 72  1  0
 39 73  1  0
 40 74  1  0
 42 75  1  0
M  CHG  3   8  -1  20  -1  41  -1
M  END
>  <UniqueID>  (22) 
20

>  <SMILES>  (22) 
Cc1ccc(C(=O)[N-]c2cccc(N(C)C)c2)cc1[N-]C(=O)c1cnc(=Nc2ccc(N3CCN(C)CC3)cc2)[n-]c1

>  <Energy>  (22) 
119.52557698917315

>  <Genealogy>  (22) 
Cc1ccc(C(=O)[N-]c2cccc(N(C)C)c2)cc1[N-]C(=O)c1cnc(=Nc2ccc(N3CCN(C)CC3)cc2)[n-]c1 (protonated)
Cc1ccc(C(=O)[N-]c2cccc(N(C)C)c2)cc1[N-]C(=O)c1cnc(=Nc2ccc(N3CCN(C)CC3)cc2)[n-]c1 (3D coordinates assigned)
Cc1ccc(C(=O)[N-]c2cccc(N(C)C)c2)cc1[N-]C(=O)c1cnc(=Nc2ccc(N3CCN(C)CC3)cc2)[n-]c1 (nonaromatic ring conformer: 119.52557698917315 kcal/mol)

>  <smiles>  (22) 
Cc1ccc(C(=O)Nc2cccc(N(C)C)c2)cc1NC(=O)c1cnc(=Nc2ccc(N3CCN(C)CC3)cc2)[nH]c1

>  <score_type>  (22) 
oracle

>  <origin>  (22) 
adgpu

>  <m_score__min__energy>  (22) 
-11.380000000000001

>  <m_primary>  (22) 
energy

$$$$
22:0
     RDKit          3D

 49 51  0  0  0  0  0  0  0  0999 V2000
    1.9140   24.6790  -27.4710 C   0  0  0  0  0  0  0  0  0  0  0  0
    0.9610   24.2510  -28.4410 O   0  0  0  0  0  0  0  0  0  0  0  0
   -0.3050   23.7260  -28.1310 C   0  0  0  0  0  0  0  0  0  0  0  0
   -1.4960   24.4140  -28.4230 C   0  0  0  0  0  0  0  0  0  0  0  0
   -2.7440   23.8310  -28.1430 C   0  0  0  0  0  0  0  0  0  0  0  0
   -3.9740   24.5150  -28.4550 N   0  0  0  0  0  0  0  0  0  0  0  0
   -4.8320   24.1490  -29.5480 C   0  0  0  0  0  0  0  0  0  0  0  0
   -6.0460   24.8240  -29.7360 C   0  0  0  0  0  0  0  0  0  0  0  0
   -6.8570   24.5250  -30.8360 C   0  0  0  0  0  0  0  0  0  0  0  0
   -6.4630   23.5440  -31.7480 C   0  0  0  0  0  0  0  0  0  0  0  0
   -5.2720   22.8320  -31.5450 C   0  0  0  0  0  0  0  0  0  0  0  0
   -4.8610   21.8430  -32.4440 O   0  0  0  0  0  0  0  0  0  0  0  0
   -5.5380   20.6300  -32.6390 C   0  0  0  0  0  0  0  0  0  0  0  0
   -6.7660   20.3530  -32.0100 C   0  0  0  0  0  0  0  0  0  0  0  0
   -7.4440   19.1540  -32.2680 C   0  0  0  0  0  0  0  0  0  0  0  0
   -8.7690   18.8920  -31.6130 C   0  0  0  0  0  0  0  0  0  0  0  0
   -6.8870   18.2260  -33.1620 C   0  0  0  0  0  0  0  0  0  0  0  0
   -5.6510   18.4800  -33.7710 C   0  0  0  0  0  0  0  0  0  0  0  0
   -5.0490   17.4530  -34.6860 C   0  0  0  0  0  0  0  0  0  0  0  0
   -4.9920   19.6940  -33.5200 C   0  0  0  0  0  0  0  0  0  0  0  0
   -4.4790   23.1120  -30.4280 C   0  0  0  0  0  0  0  0  0  0  0  0
   -2.7900   22.5850  -27.5030 C   0  0  0  0  0  0  0  0  0  0  0  0
   -1.6140   21.8960  -27.1890 C   0  0  0  0  0  0  0  0  0  0  0  0
   -1.7210   20.6460  -26.5580 O   0  0  0  0  0  0  0  0  0  0  0  0
   -1.5130   19.3960  -27.2070 C   0  0  0  0  0  0  0  0  0  0  0  0
   -0.3730   22.4730  -27.5150 C   0  0  0  0  0  0  0  0  0  0  0  0
    1.5154   24.5000  -26.4615 H   0  0  0  0  0  0  0  0  0  0  0  0
    2.8489   24.1143  -27.6015 H   0  0  0  0  0  0  0  0  0  0  0  0
    2.1130   25.7529  -27.6015 H   0  0  0  0  0  0  0  0  0  0  0  0
   -1.4507   25.4162  -28.8741 H   0  0  0  0  0  0  0  0  0  0  0  0
   -4.2270   25.3620  -27.8940 H   0  0  0  0  0  0  0  0  0  0  0  0
   -6.3625   25.5924  -29.0153 H   0  0  0  0  0  0  0  0  0  0  0  0
   -7.8053   25.0629  -30.9824 H   0  0  0  0  0  0  0  0  0  0  0  0
   -7.0879   23.3292  -32.6274 H   0  0  0  0  0  0  0  0  0  0  0  0
   -7.1973   21.0837  -31.3100 H   0  0  0  0  0  0  0  0  0  0  0  0
   -8.6487   18.9158  -30.5199 H   0  0  0  0  0  0  0  0  0  0  0  0
   -9.4888   19.6652  -31.9196 H   0  0  0  0  0  0  0  0  0  0  0  0
   -9.1404   17.9030  -31.9196 H   0  0  0  0  0  0  0  0  0  0  0  0
   -7.4247   17.2929  -33.3860 H   0  0  0  0  0  0  0  0  0  0  0  0
   -4.5824   16.6570  -34.0872 H   0  0  0  0  0  0  0  0  0  0  0  0
   -5.8366   17.0206  -35.3206 H   0  0  0  0  0  0  0  0  0  0  0  0
   -4.2870   17.9290  -35.3206 H   0  0  0  0  0  0  0  0  0  0  0  0
   -4.0372   19.9098  -34.0217 H   0  0  0  0  0  0  0  0  0  0  0  0
   -3.5737   22.5171  -30.2370 H   0  0  0  0  0  0  0  0  0  0  0  0
   -3.7636   22.1432  -27.2443 H   0  0  0  0  0  0  0  0  0  0  0  0
   -1.3818   18.6077  -26.4511 H   0  0  0  0  0  0  0  0  0  0  0  0
   -2.3842   19.1598  -27.8357 H   0  0  0  0  0  0  0  0  0  0  0  0
   -0.6123   19.4547  -27.8357 H   0  0  0  0  0  0  0  0  0  0  0  0
    0.5556   21.9313  -27.2822 H   0  0  0  0  0  0  0  0  0  0  0  0
  1  2  1  0
  2  3  1  0
  3  4  2  0
  4  5  1  0
  5  6  1  0
  6  7  1  0
  7  8  2  0
  8  9  1  0
  9 10  2  0
 10 11  1  0
 11 12  1  0
 12 13  1  0
 13 14  2  0
 14 15  1  0
 15 16  1  0
 15 17  2  0
 17 18  1  0
 18 19  1  0
 18 20  2  0
 11 21  2  0
  5 22  2  0
 22 23  1  0
 23 24  1  0
 24 25  1  0
 23 26  2  0
 26  3  1  0
 21  7  1  0
 20 13  1  0
  1 27  1  0
  1 28  1  0
  1 29  1  0
  4 30  1  0
  6 31  1  0
  8 32  1  0
  9 33  1  0
 10 34  1  0
 14 35  1  0
 16 36  1  0
 16 37  1  0
 16 38  1  0
 17 39  1  0
 19 40  1  0
 19 41  1  0
 19 42  1  0
 20 43  1  0
 21 44  1  0
 22 45  1  0
 25 46  1  0
 25 47  1  0
 25 48  1  0
 26 49  1  0
M  END
>  <UniqueID>  (23) 
21

>  <SMILES>  (23) 
COc1cc(Nc2cccc(Oc3cc(C)cc(C)c3)c2)cc(OC)c1

>  <Energy>  (23) 
60.888037091817225

>  <Genealogy>  (23) 
COc1cc(Nc2cccc(Oc3cc(C)cc(C)c3)c2)cc(OC)c1 (3D coordinates assigned)
COc1cc(Nc2cccc(Oc3cc(C)cc(C)c3)c2)cc(OC)c1 (optimized conformer: 60.888037091817225 kcal/mol)

>  <smiles>  (23) 
COc1cc(Nc2cccc(Oc3cc(C)cc(C)c3)c2)cc(OC)c1

>  <score_type>  (23) 
oracle

>  <origin>  (23) 
adgpu

>  <m_score__min__energy>  (23) 
-8.5

>  <m_primary>  (23) 
energy

$$$$
23:0
     RDKit          3D

 33 35  0  0  0  0  0  0  0  0999 V2000
   -5.2710   25.6790  -30.4740 C   0  0  0  0  0  0  0  0  0  0  0  0
   -3.8970   25.3080  -30.5130 O   0  0  0  0  0  0  0  0  0  0  0  0
   -3.3800   24.1060  -30.0000 C   0  0  0  0  0  0  0  0  0  0  0  0
   -2.5670   24.0810  -28.8480 C   0  0  0  0  0  0  0  0  0  0  0  0
   -2.0660   22.8710  -28.3640 C   0  0  0  0  0  0  0  0  0  0  0  0
   -2.3720   21.6770  -29.0150 C   0  0  0  0  0  0  0  0  0  0  0  0
   -3.1760   21.6870  -30.1550 C   0  0  0  0  0  0  0  0  0  0  0  0
   -3.6770   22.8990  -30.6650 C   0  0  0  0  0  0  0  0  0  0  0  0
   -4.5260   22.9100  -31.8290 N   0  0  0  0  0  0  0  0  0  0  0  0
   -5.1870   21.7390  -32.3430 C   0  0  0  0  0  0  0  0  0  0  0  0
   -4.4560   20.7820  -33.0600 C   0  0  0  0  0  0  0  0  0  0  0  0
   -5.1170   19.6760  -33.5980 C   0  0  0  0  0  0  0  0  0  0  0  0
   -4.4680   18.8100  -34.2430 O   0  0  0  0  0  0  0  0  0  0  0  0
   -6.4270   19.5310  -33.4410 O   0  0  0  0  0  0  0  0  0  0  0  0
   -7.1710   20.4100  -32.7750 C   0  0  0  0  0  0  0  0  0  0  0  0
   -8.5460   20.1900  -32.6470 C   0  0  0  0  0  0  0  0  0  0  0  0
   -9.3390   21.0980  -31.9390 C   0  0  0  0  0  0  0  0  0  0  0  0
   -8.7610   22.2250  -31.3520 C   0  0  0  0  0  0  0  0  0  0  0  0
   -7.3870   22.4570  -31.4730 C   0  0  0  0  0  0  0  0  0  0  0  0
   -6.5770   21.5580  -32.1940 C   0  0  0  0  0  0  0  0  0  0  0  0
   -5.5974   25.7671  -29.4273 H   0  0  0  0  0  0  0  0  0  0  0  0
   -5.4044   26.6453  -30.9823 H   0  0  0  0  0  0  0  0  0  0  0  0
   -5.8727   24.9112  -30.9823 H   0  0  0  0  0  0  0  0  0  0  0  0
   -2.3262   25.0199  -28.3279 H   0  0  0  0  0  0  0  0  0  0  0  0
   -1.4287   22.8599  -27.4675 H   0  0  0  0  0  0  0  0  0  0  0  0
   -1.9787   20.7250  -28.6290 H   0  0  0  0  0  0  0  0  0  0  0  0
   -3.4202   20.7403  -30.6590 H   0  0  0  0  0  0  0  0  0  0  0  0
   -4.6280   23.8010  -32.3640 H   0  0  0  0  0  0  0  0  0  0  0  0
   -3.3712   20.9012  -33.1977 H   0  0  0  0  0  0  0  0  0  0  0  0
   -9.0046   19.3008  -33.1042 H   0  0  0  0  0  0  0  0  0  0  0  0
  -10.4210   20.9240  -31.8443 H   0  0  0  0  0  0  0  0  0  0  0  0
   -9.3888   22.9336  -30.7919 H   0  0  0  0  0  0  0  0  0  0  0  0
   -6.9375   23.3444  -31.0036 H   0  0  0  0  0  0  0  0  0  0  0  0
  1  2  1  0
  2  3  1  0
  3  4  2  0
  4  5  1  0
  5  6  2  0
  6  7  1  0
  7  8  2  0
  8  9  1  0
  9 10  1  0
 10 11  2  0
 11 12  1  0
 12 13  2  0
 12 14  1  0
 14 15  1  0
 15 16  2  0
 16 17  1  0
 17 18  2  0
 18 19  1  0
 19 20  2  0
  8  3  1  0
 20 10  1  0
 20 15  1  0
  1 21  1  0
  1 22  1  0
  1 23  1  0
  4 24  1  0
  5 25  1  0
  6 26  1  0
  7 27  1  0
  9 28  1  0
 11 29  1  0
 16 30  1  0
 17 31  1  0
 18 32  1  0
 19 33  1  0
M  END
>  <UniqueID>  (24) 
22

>  <SMILES>  (24) 
COc1ccccc1Nc1cc(=O)oc2ccccc12

>  <Energy>  (24) 
46.99677578125989

>  <Genealogy>  (24) 
COc1ccccc1Nc1cc(=O)oc2ccccc12 (3D coordinates assigned)
COc1ccccc1Nc1cc(=O)oc2ccccc12 (optimized conformer: 46.99677578125989 kcal/mol)

>  <smiles>  (24) 
COc1ccccc1Nc1cc(=O)oc2ccccc12

>  <score_type>  (24) 
oracle

>  <origin>  (24) 
adgpu

>  <m_score__min__energy>  (24) 
-7.6600000000000001

>  <m_primary>  (24) 
energy

$$$$
24:0
     RDKit          3D

 40 42  0  0  0  0  0  0  0  0999 V2000
   -7.9780   18.1950  -31.9460 C   0  0  0  0  0  0  0  0  0  0  0  0
   -6.6660   18.6400  -32.4970 C   0  0  0  0  0  0  0  0  0  0  0  0
   -6.1730   18.3410  -33.7610 C   0  0  0  0  0  0  0  0  0  0  0  0
   -4.9510   18.9650  -34.0380 C   0  0  0  0  0  0  0  0  0  0  0  0
   -4.4940   19.7670  -32.9970 C   0  0  0  0  0  0  0  0  0  0  0  0
   -3.2560   20.5570  -32.9950 C   0  0  0  0  0  0  0  0  0  0  0  0
   -3.1220   21.5130  -33.8070 O   0  0  0  0  0  0  0  0  0  0  0  0
   -2.1910   20.1990  -32.1060 N   0  0  0  0  0  0  0  0  0  0  0  0
   -1.8080   20.8900  -30.9080 C   0  0  0  0  0  0  0  0  0  0  0  0
   -0.8950   20.3420  -29.9890 C   0  0  0  0  0  0  0  0  0  0  0  0
   -0.5310   21.0600  -28.8470 C   0  0  0  0  0  0  0  0  0  0  0  0
   -1.0600   22.3310  -28.6180 C   0  0  0  0  0  0  0  0  0  0  0  0
   -1.9510   22.8980  -29.5380 C   0  0  0  0  0  0  0  0  0  0  0  0
   -2.5960   24.5080  -29.2420 S   0  0  0  0  0  0  0  0  0  0  0  0
   -1.4530   25.4800  -29.1400 O   0  0  0  0  0  0  0  0  0  0  0  0
   -3.3790   24.5410  -27.9600 O   0  0  0  0  0  0  0  0  0  0  0  0
   -3.6430   24.9450  -30.5520 N   0  0  0  0  0  0  0  0  0  0  0  0
   -4.9000   24.3050  -30.7750 C   0  0  0  0  0  0  0  0  0  0  0  0
   -5.0240   23.4220  -31.8550 C   0  0  0  0  0  0  0  0  0  0  0  0
   -6.2480   22.8040  -32.1250 C   0  0  0  0  0  0  0  0  0  0  0  0
   -7.3540   23.0570  -31.3100 C   0  0  0  0  0  0  0  0  0  0  0  0
   -7.2330   23.9160  -30.2150 C   0  0  0  0  0  0  0  0  0  0  0  0
   -6.0080   24.5300  -29.9280 C   0  0  0  0  0  0  0  0  0  0  0  0
   -5.9130   25.3300  -28.7880 O   0  0  0  0  0  0  0  0  0  0  0  0
   -2.3170   22.1770  -30.6830 C   0  0  0  0  0  0  0  0  0  0  0  0
   -5.6090   19.7040  -31.7360 S   0  0  0  0  0  0  0  0  0  0  0  0
   -7.9377   18.2087  -30.8468 H   0  0  0  0  0  0  0  0  0  0  0  0
   -8.7706   18.8746  -32.2923 H   0  0  0  0  0  0  0  0  0  0  0  0
   -8.1936   17.1735  -32.2923 H   0  0  0  0  0  0  0  0  0  0  0  0
   -6.6907   17.6806  -34.4723 H   0  0  0  0  0  0  0  0  0  0  0  0
   -4.4062   18.8343  -34.9846 H   0  0  0  0  0  0  0  0  0  0  0  0
   -0.4663   19.3453  -30.1699 H   0  0  0  0  0  0  0  0  0  0  0  0
    0.1749   20.6220  -28.1260 H   0  0  0  0  0  0  0  0  0  0  0  0
   -0.7766   22.8886  -27.7131 H   0  0  0  0  0  0  0  0  0  0  0  0
   -4.1533   23.2138  -32.4942 H   0  0  0  0  0  0  0  0  0  0  0  0
   -6.3406   22.1179  -32.9798 H   0  0  0  0  0  0  0  0  0  0  0  0
   -8.3203   22.5798  -31.5305 H   0  0  0  0  0  0  0  0  0  0  0  0
   -8.1056   24.1112  -29.5743 H   0  0  0  0  0  0  0  0  0  0  0  0
   -5.0290   25.6680  -28.4330 H   0  0  0  0  0  0  0  0  0  0  0  0
   -3.0094   22.6246  -31.4112 H   0  0  0  0  0  0  0  0  0  0  0  0
  1  2  1  0
  2  3  2  0
  3  4  1  0
  4  5  2  0
  5  6  1  0
  6  7  2  0
  6  8  1  0
  8  9  1  0
  9 10  2  0
 10 11  1  0
 11 12  2  0
 12 13  1  0
 13 14  1  0
 14 15  2  0
 14 16  2  0
 14 17  1  0
 17 18  1  0
 18 19  2  0
 19 20  1  0
 20 21  2  0
 21 22  1  0
 22 23  2  0
 23 24  1  0
 13 25  2  0
  5 26  1  0
 26  2  1  0
 25  9  1  0
 23 18  1  0
  1 27  1  0
  1 28  1  0
  1 29  1  0
  3 30  1  0
  4 31  1  0
 10 32  1  0
 11 33  1  0
 12 34  1  0
 19 35  1  0
 20 36  1  0
 21 37  1  0
 22 38  1  0
 24 39  1  0
 25 40  1  0
M  CHG  2   8  -1  17  -1
M  END
>  <UniqueID>  (25) 
23

>  <SMILES>  (25) 
Cc1ccc(C(=O)[N-]c2cccc(S(=O)(=O)[N-]c3ccccc3O)c2)s1

>  <Energy>  (25) 
80.13644152692531

>  <Genealogy>  (25) 
Cc1ccc(C(=O)[N-]c2cccc(S(=O)(=O)[N-]c3ccccc3O)c2)s1 (protonated)
Cc1ccc(C(=O)[N-]c2cccc(S(=O)(=O)[N-]c3ccccc3O)c2)s1 (3D coordinates assigned)
Cc1ccc(C(=O)[N-]c2cccc(S(=O)(=O)[N-]c3ccccc3O)c2)s1 (optimized conformer: 80.13644152692531 kcal/mol)

>  <smiles>  (25) 
Cc1ccc(C(=O)Nc2cccc(S(=O)(=O)Nc3ccccc3O)c2)s1

>  <score_type>  (25) 
oracle

>  <origin>  (25) 
adgpu

>  <m_score__min__energy>  (25) 
-10.19

>  <m_primary>  (25) 
energy

$$$$
25:0
     RDKit          3D

 41 43  0  0  0  0  0  0  0  0999 V2000
   -5.2770   17.7210  -34.9880 C   0  0  0  0  0  0  0  0  0  0  0  0
   -6.1540   18.1980  -33.8690 C   0  0  0  0  0  0  0  0  0  0  0  0
   -7.1350   17.3540  -33.3360 C   0  0  0  0  0  0  0  0  0  0  0  0
   -7.9670   17.8060  -32.3170 C   0  0  0  0  0  0  0  0  0  0  0  0
   -7.8440   19.1090  -31.8300 C   0  0  0  0  0  0  0  0  0  0  0  0
   -6.8830   20.0020  -32.3630 C   0  0  0  0  0  0  0  0  0  0  0  0
   -6.7580   21.3730  -31.8610 N   0  0  0  0  0  0  0  0  0  0  0  0
   -7.1670   21.6530  -30.4600 C   0  0  0  0  0  0  0  0  0  0  0  0
   -7.0980   23.1230  -30.0490 C   0  0  0  0  0  0  0  0  0  0  0  0
   -5.9570   23.7520  -30.6940 N   0  0  0  0  0  0  0  0  0  0  0  0
   -4.7430   24.0350  -29.9690 C   0  0  0  0  0  0  0  0  0  0  0  0
   -3.7830   24.9670  -30.3300 C   0  0  0  0  0  0  0  0  0  0  0  0
   -2.8130   24.8970  -29.3500 C   0  0  0  0  0  0  0  0  0  0  0  0
   -1.6610   25.6740  -29.3220 O   0  0  0  0  0  0  0  0  0  0  0  0
   -3.1270   23.9770  -28.4150 N   0  0  0  0  0  0  0  0  0  0  0  0
   -2.3620   23.6490  -27.2150 C   0  0  0  0  0  0  0  0  0  0  0  0
   -4.3140   23.4520  -28.7850 C   0  0  0  0  0  0  0  0  0  0  0  0
   -5.0080   22.4900  -28.0560 O   0  0  0  0  0  0  0  0  0  0  0  0
   -6.0400   23.8020  -32.1440 C   0  0  0  0  0  0  0  0  0  0  0  0
   -6.0800   22.3820  -32.7170 C   0  0  0  0  0  0  0  0  0  0  0  0
   -6.0410   19.5140  -33.3940 C   0  0  0  0  0  0  0  0  0  0  0  0
   -4.3827   17.2346  -34.5712 H   0  0  0  0  0  0  0  0  0  0  0  0
   -5.8316   17.0003  -35.6068 H   0  0  0  0  0  0  0  0  0  0  0  0
   -4.9733   18.5782  -35.6068 H   0  0  0  0  0  0  0  0  0  0  0  0
   -7.2483   16.3309  -33.7238 H   0  0  0  0  0  0  0  0  0  0  0  0
   -8.7264   17.1330  -31.8922 H   0  0  0  0  0  0  0  0  0  0  0  0
   -8.5050   19.4474  -31.0185 H   0  0  0  0  0  0  0  0  0  0  0  0
   -8.2048   21.3114  -30.3327 H   0  0  0  0  0  0  0  0  0  0  0  0
   -6.4501   21.1202  -29.8180 H   0  0  0  0  0  0  0  0  0  0  0  0
   -8.0218   23.6341  -30.3578 H   0  0  0  0  0  0  0  0  0  0  0  0
   -6.9879   23.1942  -28.9568 H   0  0  0  0  0  0  0  0  0  0  0  0
   -3.7919   25.6244  -31.2119 H   0  0  0  0  0  0  0  0  0  0  0  0
   -2.9531   23.9025  -26.3226 H   0  0  0  0  0  0  0  0  0  0  0  0
   -2.1323   22.5733  -27.2093 H   0  0  0  0  0  0  0  0  0  0  0  0
   -1.4244   24.2242  -27.2093 H   0  0  0  0  0  0  0  0  0  0  0  0
   -5.7680   21.9600  -28.4640 H   0  0  0  0  0  0  0  0  0  0  0  0
   -6.9538   24.3391  -32.4380 H   0  0  0  0  0  0  0  0  0  0  0  0
   -5.1561   24.3250  -32.5379 H   0  0  0  0  0  0  0  0  0  0  0  0
   -6.6070   22.4191  -33.6818 H   0  0  0  0  0  0  0  0  0  0  0  0
   -5.0325   22.0569  -32.8008 H   0  0  0  0  0  0  0  0  0  0  0  0
   -5.2831   20.1808  -33.8309 H   0  0  0  0  0  0  0  0  0  0  0  0
  1  2  1  0
  2  3  2  0
  3  4  1  0
  4  5  2  0
  5  6  1  0
  6  7  1  0
  7  8  1  0
  8  9  1  0
  9 10  1  0
 10 11  1  0
 11 12  1  0
 12 13  2  0
 13 14  1  0
 13 15  1  0
 15 16  1  0
 15 17  1  0
 17 18  1  0
 10 19  1  0
 19 20  1  0
  6 21  2  0
 21  2  1  0
 20  7  1  0
 17 11  2  0
  1 22  1  0
  1 23  1  0
  1 24  1  0
  3 25  1  0
  4 26  1  0
  5 27  1  0
  8 28  1  0
  8 29  1  0
  9 30  1  0
  9 31  1  0
 12 32  1  0
 16 33  1  0
 16 34  1  0
 16 35  1  0
 18 36  1  0
 19 37  1  0
 19 38  1  0
 20 39  1  0
 20 40  1  0
 21 41  1  0
M  CHG  1  14  -1
M  END
>  <UniqueID>  (26) 
24

>  <SMILES>  (26) 
Cc1cccc(N2CCN(c3cc([O-])n(C)c3O)CC2)c1

>  <Energy>  (26) 
81.81506909299043

>  <Genealogy>  (26) 
Cc1cccc(N2CCN(c3cc([O-])n(C)c3O)CC2)c1 (protonated)
Cc1cccc(N2CCN(c3cc([O-])n(C)c3O)CC2)c1 (3D coordinates assigned)
Cc1cccc(N2CCN(c3cc([O-])n(C)c3O)CC2)c1 (nonaromatic ring conformer: 81.81506909299043 kcal/mol)

>  <smiles>  (26) 
Cc1cccc(N2CCN(c3cc(O)n(C)c3O)CC2)c1

>  <score_type>  (26) 
oracle

>  <origin>  (26) 
adgpu

>  <m_score__min__energy>  (26) 
-8.7699999999999996

>  <m_primary>  (26) 
energy

$$$$
26:0
     RDKit          3D

 48 50  0  0  0  0  0  0  0  0999 V2000
   -1.5540   16.3520  -33.8620 C   0  0  0  0  0  0  0  0  0  0  0  0
   -2.4100   17.5750  -33.6940 C   0  0  0  0  0  0  0  0  0  0  0  0
   -3.7660   17.5410  -34.0490 C   0  0  0  0  0  0  0  0  0  0  0  0
   -4.5680   18.6810  -33.9080 C   0  0  0  0  0  0  0  0  0  0  0  0
   -6.0300   18.5900  -34.2600 C   0  0  0  0  0  0  0  0  0  0  0  0
   -3.9870   19.8940  -33.4640 C   0  0  0  0  0  0  0  0  0  0  0  0
   -4.7790   21.0850  -33.3640 N   0  0  0  0  0  0  0  0  0  0  0  0
   -6.0710   21.1950  -32.2130 S   0  0  0  0  0  0  0  0  0  0  0  0
   -5.9460   20.0770  -31.2130 O   0  0  0  0  0  0  0  0  0  0  0  0
   -7.3890   21.0550  -32.9230 O   0  0  0  0  0  0  0  0  0  0  0  0
   -6.0080   22.7520  -31.3960 C   0  0  0  0  0  0  0  0  0  0  0  0
   -7.1910   23.3230  -30.9030 C   0  0  0  0  0  0  0  0  0  0  0  0
   -7.1490   24.5340  -30.2050 C   0  0  0  0  0  0  0  0  0  0  0  0
   -5.9260   25.1770  -29.9920 C   0  0  0  0  0  0  0  0  0  0  0  0
   -4.7400   24.6320  -30.5020 C   0  0  0  0  0  0  0  0  0  0  0  0
   -3.4940   25.2950  -30.2380 N   0  0  0  0  0  0  0  0  0  0  0  0
   -2.4930   24.8270  -29.3290 C   0  0  0  0  0  0  0  0  0  0  0  0
   -1.6730   25.6540  -28.8500 O   0  0  0  0  0  0  0  0  0  0  0  0
   -2.3680   23.3910  -28.9890 C   0  0  0  0  0  0  0  0  0  0  0  0
   -1.3420   22.6120  -29.5470 C   0  0  0  0  0  0  0  0  0  0  0  0
   -1.2170   21.2710  -29.1770 C   0  0  0  0  0  0  0  0  0  0  0  0
   -2.0920   20.7200  -28.2930 N   0  0  0  0  0  0  0  0  0  0  0  0
   -3.0970   21.4480  -27.7380 C   0  0  0  0  0  0  0  0  0  0  0  0
   -3.2480   22.7980  -28.0670 C   0  0  0  0  0  0  0  0  0  0  0  0
   -4.7840   23.4110  -31.2000 C   0  0  0  0  0  0  0  0  0  0  0  0
   -2.6160   19.9340  -33.1230 C   0  0  0  0  0  0  0  0  0  0  0  0
   -1.9730   21.2030  -32.6240 C   0  0  0  0  0  0  0  0  0  0  0  0
   -1.8410   18.7700  -33.2340 C   0  0  0  0  0  0  0  0  0  0  0  0
   -1.2786   15.9585  -32.8724 H   0  0  0  0  0  0  0  0  0  0  0  0
   -2.1141   15.5860  -34.4183 H   0  0  0  0  0  0  0  0  0  0  0  0
   -0.6425   16.6160  -34.4183 H   0  0  0  0  0  0  0  0  0  0  0  0
   -4.2038   16.6114  -34.4415 H   0  0  0  0  0  0  0  0  0  0  0  0
   -6.6277   18.5528  -33.3373 H   0  0  0  0  0  0  0  0  0  0  0  0
   -6.3207   19.4718  -34.8499 H   0  0  0  0  0  0  0  0  0  0  0  0
   -6.2091   17.6790  -34.8499 H   0  0  0  0  0  0  0  0  0  0  0  0
   -4.7850   21.7590  -34.1640 H   0  0  0  0  0  0  0  0  0  0  0  0
   -8.1539   22.8168  -31.0660 H   0  0  0  0  0  0  0  0  0  0  0  0
   -8.0788   24.9810  -29.8233 H   0  0  0  0  0  0  0  0  0  0  0  0
   -5.8945   26.1164  -29.4206 H   0  0  0  0  0  0  0  0  0  0  0  0
   -0.6415   23.0546  -30.2705 H   0  0  0  0  0  0  0  0  0  0  0  0
   -0.4082   20.6583  -29.6019 H   0  0  0  0  0  0  0  0  0  0  0  0
   -3.7921   20.9741  -27.0293 H   0  0  0  0  0  0  0  0  0  0  0  0
   -4.0508   23.3930  -27.6071 H   0  0  0  0  0  0  0  0  0  0  0  0
   -3.8558   22.9712  -31.5936 H   0  0  0  0  0  0  0  0  0  0  0  0
   -1.9718   21.2054  -31.5240 H   0  0  0  0  0  0  0  0  0  0  0  0
   -0.9379   21.2588  -32.9920 H   0  0  0  0  0  0  0  0  0  0  0  0
   -2.5402   22.0707  -32.9920 H   0  0  0  0  0  0  0  0  0  0  0  0
   -0.7767   18.7956  -32.9573 H   0  0  0  0  0  0  0  0  0  0  0  0
  1  2  1  0
  2  3  2  0
  3  4  1  0
  4  5  1  0
  4  6  2  0
  6  7  1  0
  7  8  1  0
  8  9  2  0
  8 10  2  0
  8 11  1  0
 11 12  2  0
 12 13  1  0
 13 14  2  0
 14 15  1  0
 15 16  1  0
 16 17  1  0
 17 18  2  0
 17 19  1  0
 19 20  2  0
 20 21  1  0
 21 22  2  0
 22 23  1  0
 23 24  2  0
 15 25  2  0
  6 26  1  0
 26 27  1  0
 26 28  2  0
 28  2  1  0
 25 11  1  0
 24 19  1  0
  1 29  1  0
  1 30  1  0
  1 31  1  0
  3 32  1  0
  5 33  1  0
  5 34  1  0
  5 35  1  0
  7 36  1  0
 12 37  1  0
 13 38  1  0
 14 39  1  0
 20 40  1  0
 21 41  1  0
 23 42  1  0
 24 43  1  0
 25 44  1  0
 27 45  1  0
 27 46  1  0
 27 47  1  0
 28 48  1  0
M  CHG  1  16  -1
M  END
>  <UniqueID>  (27) 
25

>  <SMILES>  (27) 
Cc1cc(C)c(NS(=O)(=O)c2cccc([N-]C(=O)c3ccncc3)c2)c(C)c1

>  <Energy>  (27) 
62.713595518469795

>  <Genealogy>  (27) 
Cc1cc(C)c(NS(=O)(=O)c2cccc([N-]C(=O)c3ccncc3)c2)c(C)c1 (protonated)
Cc1cc(C)c(NS(=O)(=O)c2cccc([N-]C(=O)c3ccncc3)c2)c(C)c1 (3D coordinates assigned)
Cc1cc(C)c(NS(=O)(=O)c2cccc([N-]C(=O)c3ccncc3)c2)c(C)c1 (optimized conformer: 62.713595518469795 kcal/mol)

>  <smiles>  (27) 
Cc1cc(C)c(NS(=O)(=O)c2cccc(NC(=O)c3ccncc3)c2)c(C)c1

>  <score_type>  (27) 
oracle

>  <origin>  (27) 
adgpu

>  <m_score__min__energy>  (27) 
-11.949999999999999

>  <m_primary>  (27) 
energy

$$$$
27:0
     RDKit          3D

 46 48  0  0  0  0  0  0  0  0999 V2000
   -1.0774   26.9807  -27.9439 H   0  0  0  0  0  0  0  0  0  0  0  0
   -1.0120   25.9120  -28.1960 C   0  0  0  0  0  0  0  0  0  0  0  0
   -1.9710   25.3360  -28.9690 N   0  0  0  0  0  0  0  0  0  0  0  0
   -1.9390   24.0140  -29.3030 C   0  0  0  0  0  0  0  0  0  0  0  0
   -2.8520   23.4920  -30.0700 N   0  0  0  0  0  0  0  0  0  0  0  0
   -4.0150   24.1740  -30.5690 C   0  0  0  0  0  0  0  0  0  0  0  0
   -3.9410   25.4070  -30.8050 O   0  0  0  0  0  0  0  0  0  0  0  0
   -5.2760   23.4530  -30.8540 C   0  0  0  0  0  0  0  0  0  0  0  0
   -6.1970   23.2010  -29.8270 C   0  0  0  0  0  0  0  0  0  0  0  0
   -6.0011   23.5753  -28.8114 H   0  0  0  0  0  0  0  0  0  0  0  0
   -7.3630   22.4760  -30.0890 C   0  0  0  0  0  0  0  0  0  0  0  0
   -8.0730   22.2734  -29.2736 H   0  0  0  0  0  0  0  0  0  0  0  0
   -7.6370   22.0040  -31.3820 C   0  0  0  0  0  0  0  0  0  0  0  0
   -8.8210   21.2170  -31.6070 N   0  0  0  0  0  0  0  0  0  0  0  0
   -9.7560   21.6500  -31.4390 H   0  0  0  0  0  0  0  0  0  0  0  0
   -8.8000   19.5310  -32.0190 S   0  0  0  0  0  0  0  0  0  0  0  0
   -9.1390   18.7190  -30.8030 O   0  0  0  0  0  0  0  0  0  0  0  0
   -9.8320   19.2790  -33.0830 O   0  0  0  0  0  0  0  0  0  0  0  0
   -7.2010   19.0520  -32.5880 C   0  0  0  0  0  0  0  0  0  0  0  0
   -6.4450   18.1190  -31.8650 C   0  0  0  0  0  0  0  0  0  0  0  0
   -6.8386   17.7043  -30.9253 H   0  0  0  0  0  0  0  0  0  0  0  0
   -5.1920   17.7140  -32.3350 C   0  0  0  0  0  0  0  0  0  0  0  0
   -4.6088   16.9726  -31.7691 H   0  0  0  0  0  0  0  0  0  0  0  0
   -4.6750   18.2480  -33.5240 C   0  0  0  0  0  0  0  0  0  0  0  0
   -3.3490   17.7820  -34.0480 C   0  0  0  0  0  0  0  0  0  0  0  0
   -2.6831   17.5480  -33.2043 H   0  0  0  0  0  0  0  0  0  0  0  0
   -3.4935   16.8808  -34.6620 H   0  0  0  0  0  0  0  0  0  0  0  0
   -2.8980   18.5755  -34.6620 H   0  0  0  0  0  0  0  0  0  0  0  0
   -5.4380   19.1740  -34.2530 C   0  0  0  0  0  0  0  0  0  0  0  0
   -5.0498   19.5807  -35.1985 H   0  0  0  0  0  0  0  0  0  0  0  0
   -6.6900   19.5810  -33.7810 C   0  0  0  0  0  0  0  0  0  0  0  0
   -7.2759   20.3192  -34.3483 H   0  0  0  0  0  0  0  0  0  0  0  0
   -6.7380   22.3070  -32.4210 C   0  0  0  0  0  0  0  0  0  0  0  0
   -6.9607   21.9830  -33.4483 H   0  0  0  0  0  0  0  0  0  0  0  0
   -5.5640   23.0170  -32.1560 C   0  0  0  0  0  0  0  0  0  0  0  0
   -4.8611   23.2355  -32.9735 H   0  0  0  0  0  0  0  0  0  0  0  0
   -0.8850   23.2170  -28.8460 C   0  0  0  0  0  0  0  0  0  0  0  0
   -0.8402   22.1509  -29.1134 H   0  0  0  0  0  0  0  0  0  0  0  0
    0.1100   23.7840  -28.0480 C   0  0  0  0  0  0  0  0  0  0  0  0
    0.9354   23.1591  -27.6761 H   0  0  0  0  0  0  0  0  0  0  0  0
    0.0630   25.1420  -27.7190 C   0  0  0  0  0  0  0  0  0  0  0  0
    1.0910   25.6830  -26.9340 O   0  0  0  0  0  0  0  0  0  0  0  0
    0.9440   26.0580  -25.5680 C   0  0  0  0  0  0  0  0  0  0  0  0
    1.2692   25.2284  -24.9230 H   0  0  0  0  0  0  0  0  0  0  0  0
    1.5608   26.9454  -25.3630 H   0  0  0  0  0  0  0  0  0  0  0  0
   -0.1116   26.2898  -25.3630 H   0  0  0  0  0  0  0  0  0  0  0  0
  1  2  1  0
  2  3  1  0
  3  4  1  0
  4  5  2  0
  5  6  1  0
  6  7  2  0
  6  8  1  0
  8  9  2  0
  9 10  1  0
  9 11  1  0
 11 12  1  0
 11 13  2  0
 13 14  1  0
 14 15  1  0
 14 16  1  0
 16 17  2  0
 16 18  2  0
 16 19  1  0
 19 20  2  0
 20 21  1  0
 20 22  1  0
 22 23  1  0
 22 24  2  0
 24 25  1  0
 25 26  1  0
 25 27  1  0
 25 28  1  0
 24 29  1  0
 29 30  1  0
 29 31  2  0
 31 32  1  0
 13 33  1  0
 33 34  1  0
 33 35  2  0
 35 36  1  0
  4 37  1  0
 37 38  1  0
 37 39  2  0
 39 40  1  0
 39 41  1  0
 41 42  1  0
 42 43  1  0
 43 44  1  0
 43 45  1  0
 43 46  1  0
 41  2  2  0
 35  8  1  0
 31 19  1  0
M  CHG  1   3  -1
M  END
>  <UniqueID>  (28) 
26

>  <SMILES>  (28) 
COc1cc/c(=N/C(=O)c2ccc(NS(=O)(=O)c3ccc(C)cc3)cc2)[n-]c1

>  <Energy>  (28) 
56.25764422589043

>  <Genealogy>  (28) 
COc1ccc(=NC(=O)c2ccc(NS(=O)(=O)c3ccc(C)cc3)cc2)[n-]c1 (protonated)
COc1cc/c(=N/C(=O)c2ccc(NS(=O)(=O)c3ccc(C)cc3)cc2)[n-]c1 (cis-trans isomerization)
COc1cc/c(=N/C(=O)c2ccc(NS(=O)(=O)c3ccc(C)cc3)cc2)[n-]c1 (3D coordinates assigned)
COc1cc/c(=N/C(=O)c2ccc(NS(=O)(=O)c3ccc(C)cc3)cc2)[n-]c1 (optimized conformer: 56.25764422589043 kcal/mol)

>  <smiles>  (28) 
COc1ccc(=NC(=O)c2ccc(NS(=O)(=O)c3ccc(C)cc3)cc2)[nH]c1

>  <score_type>  (28) 
oracle

>  <origin>  (28) 
adgpu

>  <m_score__min__energy>  (28) 
-11.140000000000001

>  <m_primary>  (28) 
energy

$$$$
28:0
     RDKit          3D

 27 28  0  0  0  0  0  0  0  0999 V2000
   -5.7039   25.6135  -31.5075 H   0  0  0  0  0  0  0  0  0  0  0  0
   -5.1300   24.9580  -30.8360 C   0  0  0  0  0  0  0  0  0  0  0  0
   -3.8720   25.3080  -30.4570 N   0  0  0  0  0  0  0  0  0  0  0  0
   -3.1190   24.5320  -29.6290 C   0  0  0  0  0  0  0  0  0  0  0  0
   -1.9250   24.9440  -29.3130 N   0  0  0  0  0  0  0  0  0  0  0  0
   -0.7930   24.1340  -28.2710 S   0  0  0  0  0  0  0  0  0  0  0  0
   -1.2810   22.7380  -28.0040 O   0  0  0  0  0  0  0  0  0  0  0  0
    0.5390   24.0620  -28.9590 O   0  0  0  0  0  0  0  0  0  0  0  0
   -0.6050   25.0270  -26.7640 C   0  0  0  0  0  0  0  0  0  0  0  0
    0.6570   25.1510  -26.1670 C   0  0  0  0  0  0  0  0  0  0  0  0
    1.5365   24.6931  -26.6433 H   0  0  0  0  0  0  0  0  0  0  0  0
    0.8010   25.8550  -24.9680 C   0  0  0  0  0  0  0  0  0  0  0  0
    1.7935   25.9480  -24.5029 H   0  0  0  0  0  0  0  0  0  0  0  0
   -0.3150   26.4430  -24.3560 C   0  0  0  0  0  0  0  0  0  0  0  0
   -0.1690   27.1620  -23.1280 N   0  0  0  0  0  0  0  0  0  0  0  0
   -0.4890   28.1520  -23.0470 H   0  0  0  0  0  0  0  0  0  0  0  0
    0.2610   26.7070  -22.2910 H   0  0  0  0  0  0  0  0  0  0  0  0
   -1.5770   26.3230  -24.9570 C   0  0  0  0  0  0  0  0  0  0  0  0
   -2.4564   26.7829  -24.4826 H   0  0  0  0  0  0  0  0  0  0  0  0
   -1.7200   25.6200  -26.1580 C   0  0  0  0  0  0  0  0  0  0  0  0
   -2.7108   25.5327  -26.6278 H   0  0  0  0  0  0  0  0  0  0  0  0
   -3.6590   23.3230  -29.1460 C   0  0  0  0  0  0  0  0  0  0  0  0
   -3.0684   22.6795  -28.4773 H   0  0  0  0  0  0  0  0  0  0  0  0
   -4.9510   22.9490  -29.5240 C   0  0  0  0  0  0  0  0  0  0  0  0
   -5.3824   22.0083  -29.1511 H   0  0  0  0  0  0  0  0  0  0  0  0
   -5.6940   23.7680  -30.3740 C   0  0  0  0  0  0  0  0  0  0  0  0
   -6.7116   23.4796  -30.6764 H   0  0  0  0  0  0  0  0  0  0  0  0
  1  2  1  0
  2  3  1  0
  3  4  1  0
  4  5  2  0
  5  6  1  0
  6  7  2  0
  6  8  2  0
  6  9  1  0
  9 10  2  0
 10 11  1  0
 10 12  1  0
 12 13  1  0
 12 14  2  0
 14 15  1  0
 15 16  1  0
 15 17  1  0
 14 18  1  0
 18 19  1  0
 18 20  2  0
 20 21  1  0
  4 22  1  0
 22 23  1  0
 22 24  2  0
 24 25  1  0
 24 26  1  0
 26 27  1  0
 26  2  2  0
 20  9  1  0
M  CHG  1   3  -1
M  END
>  <UniqueID>  (29) 
27

>  <SMILES>  (29) 
Nc1ccc(S(=O)(=O)/N=c2\cccc[n-]2)cc1

>  <Energy>  (29) 
32.74215546245351

>  <Genealogy>  (29) 
Nc1ccc(S(=O)(=O)N=c2cccc[n-]2)cc1 (protonated)
Nc1ccc(S(=O)(=O)/N=c2\cccc[n-]2)cc1 (cis-trans isomerization)
Nc1ccc(S(=O)(=O)/N=c2\cccc[n-]2)cc1 (3D coordinates assigned)
Nc1ccc(S(=O)(=O)/N=c2\cccc[n-]2)cc1 (optimized conformer: 32.74215546245351 kcal/mol)

>  <smiles>  (29) 
Nc1ccc(S(=O)(=O)N=c2cccc[nH]2)cc1

>  <score_type>  (29) 
oracle

>  <origin>  (29) 
adgpu

>  <m_score__min__energy>  (29) 
-8.5700000000000003

>  <m_primary>  (29) 
energy

$$$$
29:0
     RDKit          3D

 45 47  0  0  0  0  0  0  0  0999 V2000
   -2.1000   25.6010  -28.7210 N   0  0  0  0  0  0  0  0  0  0  0  0
   -1.2370   24.1690  -28.2840 S   0  0  0  0  0  0  0  0  0  0  0  0
   -1.5230   23.8250  -26.8480 O   0  0  0  0  0  0  0  0  0  0  0  0
    0.2370   24.4210  -28.4430 O   0  0  0  0  0  0  0  0  0  0  0  0
   -1.7460   22.8290  -29.3190 C   0  0  0  0  0  0  0  0  0  0  0  0
   -1.1720   21.5610  -29.1470 C   0  0  0  0  0  0  0  0  0  0  0  0
   -1.5660   20.4920  -29.9540 C   0  0  0  0  0  0  0  0  0  0  0  0
   -2.5380   20.6790  -30.9370 C   0  0  0  0  0  0  0  0  0  0  0  0
   -3.1210   21.9350  -31.1150 C   0  0  0  0  0  0  0  0  0  0  0  0
   -2.7310   23.0220  -30.3090 C   0  0  0  0  0  0  0  0  0  0  0  0
   -3.3190   24.3220  -30.4700 N   0  0  0  0  0  0  0  0  0  0  0  0
   -4.9750   24.7260  -30.1620 S   0  0  0  0  0  0  0  0  0  0  0  0
   -5.2120   24.8450  -28.6820 O   0  0  0  0  0  0  0  0  0  0  0  0
   -5.3030   26.0290  -30.8350 O   0  0  0  0  0  0  0  0  0  0  0  0
   -5.9940   23.4400  -30.7980 C   0  0  0  0  0  0  0  0  0  0  0  0
   -6.7610   22.6390  -29.9390 C   0  0  0  0  0  0  0  0  0  0  0  0
   -7.5520   21.6110  -30.4610 C   0  0  0  0  0  0  0  0  0  0  0  0
   -7.5710   21.3690  -31.8400 C   0  0  0  0  0  0  0  0  0  0  0  0
   -8.5520   20.0240  -32.5090 S   0  0  0  0  0  0  0  0  0  0  0  0
   -7.4300   18.6960  -31.9390 C   0  0  0  0  0  0  0  0  0  0  0  0
   -6.1820   18.6240  -32.7880 C   0  0  0  0  0  0  0  0  0  0  0  0
   -5.2580   19.6810  -32.7160 C   0  0  0  0  0  0  0  0  0  0  0  0
   -4.0740   19.6420  -33.4590 C   0  0  0  0  0  0  0  0  0  0  0  0
   -3.8000   18.5480  -34.2800 C   0  0  0  0  0  0  0  0  0  0  0  0
   -4.7070   17.4910  -34.3610 C   0  0  0  0  0  0  0  0  0  0  0  0
   -5.8970   17.5180  -33.6240 C   0  0  0  0  0  0  0  0  0  0  0  0
   -6.9910   16.1460  -33.7800 Cl  0  0  0  0  0  0  0  0  0  0  0  0
   -6.8180   22.1790  -32.6990 C   0  0  0  0  0  0  0  0  0  0  0  0
   -6.0290   23.2080  -32.1790 C   0  0  0  0  0  0  0  0  0  0  0  0
   -3.1130   25.4170  -28.5450 H   0  0  0  0  0  0  0  0  0  0  0  0
   -1.9900   25.7210  -29.7530 H   0  0  0  0  0  0  0  0  0  0  0  0
   -0.4069   21.4078  -28.3717 H   0  0  0  0  0  0  0  0  0  0  0  0
   -1.1094   19.5010  -29.8145 H   0  0  0  0  0  0  0  0  0  0  0  0
   -2.8455   19.8357  -31.5728 H   0  0  0  0  0  0  0  0  0  0  0  0
   -3.8894   22.0764  -31.8893 H   0  0  0  0  0  0  0  0  0  0  0  0
   -6.7401   22.8197  -28.8542 H   0  0  0  0  0  0  0  0  0  0  0  0
   -8.1609   20.9908  -29.7867 H   0  0  0  0  0  0  0  0  0  0  0  0
   -7.1420   18.8943  -30.8961 H   0  0  0  0  0  0  0  0  0  0  0  0
   -7.9605   17.7360  -32.0226 H   0  0  0  0  0  0  0  0  0  0  0  0
   -5.4681   20.5460  -32.0698 H   0  0  0  0  0  0  0  0  0  0  0  0
   -3.3580   20.4747  -33.3960 H   0  0  0  0  0  0  0  0  0  0  0  0
   -2.8682   18.5187  -34.8639 H   0  0  0  0  0  0  0  0  0  0  0  0
   -4.4855   16.6300  -35.0088 H   0  0  0  0  0  0  0  0  0  0  0  0
   -6.8478   22.0048  -33.7847 H   0  0  0  0  0  0  0  0  0  0  0  0
   -5.4334   23.8379  -32.8561 H   0  0  0  0  0  0  0  0  0  0  0  0
  1  2  1  0
  2  3  2  0
  2  4  2  0
  2  5  1  0
  5  6  2  0
  6  7  1  0
  7  8  2  0
  8  9  1  0
  9 10  2  0
 10 11  1  0
 11 12  1  0
 12 13  2  0
 12 14  2  0
 12 15  1  0
 15 16  2  0
 16 17  1  0
 17 18  2  0
 18 19  1  0
 19 20  1  0
 20 21  1  0
 21 22  2  0
 22 23  1  0
 23 24  2  0
 24 25  1  0
 25 26  2  0
 26 27  1  0
 18 28  1  0
 28 29  2  0
 10  5  1  0
 29 15  1  0
 26 21  1  0
  1 30  1  0
  1 31  1  0
  6 32  1  0
  7 33  1  0
  8 34  1  0
  9 35  1  0
 16 36  1  0
 17 37  1  0
 20 38  1  0
 20 39  1  0
 22 40  1  0
 23 41  1  0
 24 42  1  0
 25 43  1  0
 28 44  1  0
 29 45  1  0
M  CHG  1  11  -1
M  END
>  <UniqueID>  (30) 
28

>  <SMILES>  (30) 
NS(=O)(=O)c1ccccc1[N-]S(=O)(=O)c1ccc(SCc2ccccc2Cl)cc1

>  <Energy>  (30) 
46.768494829925956

>  <Genealogy>  (30) 
NS(=O)(=O)c1ccccc1[N-]S(=O)(=O)c1ccc(SCc2ccccc2Cl)cc1 (protonated)
NS(=O)(=O)c1ccccc1[N-]S(=O)(=O)c1ccc(SCc2ccccc2Cl)cc1 (3D coordinates assigned)
NS(=O)(=O)c1ccccc1[N-]S(=O)(=O)c1ccc(SCc2ccccc2Cl)cc1 (optimized conformer: 46.768494829925956 kcal/mol)

>  <smiles>  (30) 
NS(=O)(=O)c1ccccc1NS(=O)(=O)c1ccc(SCc2ccccc2Cl)cc1

>  <score_type>  (30) 
oracle

>  <origin>  (30) 
adgpu

>  <m_score__min__energy>  (30) 
-11.710000000000001

>  <m_primary>  (30) 
energy

$$$$
30:0
     RDKit          3D

 61 63  0  0  0  0  0  0  0  0999 V2000
   -0.7520   27.0110  -27.7550 C   0  0  0  0  0  0  0  0  0  0  0  0
   -1.2510   26.3440  -28.9080 O   0  0  0  0  0  0  0  0  0  0  0  0
   -1.5070   24.9660  -29.0510 C   0  0  0  0  0  0  0  0  0  0  0  0
   -2.6690   24.4460  -29.6780 C   0  0  0  0  0  0  0  0  0  0  0  0
   -3.5600   25.3000  -30.4060 N   0  0  0  0  0  0  0  0  0  0  0  0
   -4.9940   25.2090  -30.4260 C   0  0  0  0  0  0  0  0  0  0  0  0
   -5.6540   26.2730  -30.2810 O   0  0  0  0  0  0  0  0  0  0  0  0
   -5.7210   23.9460  -30.7630 C   0  0  0  0  0  0  0  0  0  0  0  0
   -6.8840   23.5990  -30.0370 C   0  0  0  0  0  0  0  0  0  0  0  0
   -7.6100   22.4460  -30.3580 C   0  0  0  0  0  0  0  0  0  0  0  0
   -7.1960   21.6230  -31.4090 C   0  0  0  0  0  0  0  0  0  0  0  0
   -6.0480   21.9480  -32.1500 C   0  0  0  0  0  0  0  0  0  0  0  0
   -5.6020   21.0790  -33.2080 N   0  0  0  0  0  0  0  0  0  0  0  0
   -4.2290   20.6830  -33.3630 C   0  0  0  0  0  0  0  0  0  0  0  0
   -3.3150   21.5330  -33.1510 O   0  0  0  0  0  0  0  0  0  0  0  0
   -3.8620   19.2940  -33.7410 C   0  0  0  0  0  0  0  0  0  0  0  0
   -4.8160   18.3930  -34.2490 C   0  0  0  0  0  0  0  0  0  0  0  0
   -4.4490   17.0800  -34.5510 C   0  0  0  0  0  0  0  0  0  0  0  0
   -3.1320   16.6690  -34.3390 C   0  0  0  0  0  0  0  0  0  0  0  0
   -2.2190   17.5410  -33.8350 N   0  0  0  0  0  0  0  0  0  0  0  0
   -2.5470   18.8280  -33.5380 C   0  0  0  0  0  0  0  0  0  0  0  0
   -5.3130   23.1000  -31.8120 C   0  0  0  0  0  0  0  0  0  0  0  0
   -2.9230   23.0640  -29.6540 C   0  0  0  0  0  0  0  0  0  0  0  0
   -2.0000   22.1570  -29.0950 C   0  0  0  0  0  0  0  0  0  0  0  0
   -2.2030   20.6270  -29.1350 C   0  0  0  0  0  0  0  0  0  0  0  0
   -2.6690   20.0400  -27.7820 C   0  0  0  0  0  0  0  0  0  0  0  0
   -3.2760   20.2830  -30.1910 C   0  0  0  0  0  0  0  0  0  0  0  0
   -0.8770   19.9310  -29.5130 C   0  0  0  0  0  0  0  0  0  0  0  0
   -0.8170   22.6870  -28.5430 C   0  0  0  0  0  0  0  0  0  0  0  0
   -0.5560   24.0610  -28.5330 C   0  0  0  0  0  0  0  0  0  0  0  0
    0.7040   24.4820  -27.9860 N   0  0  0  0  0  0  0  0  0  0  0  0
    1.3730   24.0130  -26.4550 S   0  0  0  0  0  0  0  0  0  0  0  0
    0.7500   25.1090  -25.2000 C   0  0  0  0  0  0  0  0  0  0  0  0
    2.8740   24.1010  -26.5030 O   0  0  0  0  0  0  0  0  0  0  0  0
    0.9560   22.6120  -26.1080 O   0  0  0  0  0  0  0  0  0  0  0  0
   -1.1270   26.5098  -26.8504 H   0  0  0  0  0  0  0  0  0  0  0  0
    0.3476   26.9815  -27.7615 H   0  0  0  0  0  0  0  0  0  0  0  0
   -1.0907   28.0575  -27.7615 H   0  0  0  0  0  0  0  0  0  0  0  0
   -7.2218   24.2422  -29.2110 H   0  0  0  0  0  0  0  0  0  0  0  0
   -8.5098   22.1867  -29.7808 H   0  0  0  0  0  0  0  0  0  0  0  0
   -7.7708   20.7184  -31.6565 H   0  0  0  0  0  0  0  0  0  0  0  0
   -6.3020   20.7550  -33.9140 H   0  0  0  0  0  0  0  0  0  0  0  0
   -5.8529   18.7236  -34.4085 H   0  0  0  0  0  0  0  0  0  0  0  0
   -5.1918   16.3752  -34.9528 H   0  0  0  0  0  0  0  0  0  0  0  0
   -2.8326   15.6383  -34.5800 H   0  0  0  0  0  0  0  0  0  0  0  0
   -1.7815   19.5087  -33.1372 H   0  0  0  0  0  0  0  0  0  0  0  0
   -4.4022   23.3440  -32.3784 H   0  0  0  0  0  0  0  0  0  0  0  0
   -3.8622   22.6819  -30.0806 H   0  0  0  0  0  0  0  0  0  0  0  0
   -2.2154   20.6114  -26.9587 H   0  0  0  0  0  0  0  0  0  0  0  0
   -3.7649   20.1040  -27.7125 H   0  0  0  0  0  0  0  0  0  0  0  0
   -2.3581   18.9871  -27.7125 H   0  0  0  0  0  0  0  0  0  0  0  0
   -4.2061   19.9848  -29.6850 H   0  0  0  0  0  0  0  0  0  0  0  0
   -3.4673   21.1648  -30.8201 H   0  0  0  0  0  0  0  0  0  0  0  0
   -2.9189   19.4543  -30.8201 H   0  0  0  0  0  0  0  0  0  0  0  0
   -0.3375   19.6478  -28.5972 H   0  0  0  0  0  0  0  0  0  0  0  0
   -1.0920   19.0295  -30.1055 H   0  0  0  0  0  0  0  0  0  0  0  0
   -0.2572   20.6200  -30.1055 H   0  0  0  0  0  0  0  0  0  0  0  0
   -0.0769   21.9999  -28.1070 H   0  0  0  0  0  0  0  0  0  0  0  0
    0.9832   24.6988  -24.2063 H   0  0  0  0  0  0  0  0  0  0  0  0
    1.2216   26.0968  -25.3088 H   0  0  0  0  0  0  0  0  0  0  0  0
   -0.3400   25.2091  -25.3088 H   0  0  0  0  0  0  0  0  0  0  0  0
  1  2  1  0
  2  3  1  0
  3  4  2  0
  4  5  1  0
  5  6  1  0
  6  7  2  0
  6  8  1  0
  8  9  2  0
  9 10  1  0
 10 11  2  0
 11 12  1  0
 12 13  1  0
 13 14  1  0
 14 15  2  0
 14 16  1  0
 16 17  2  0
 17 18  1  0
 18 19  2  0
 19 20  1  0
 20 21  2  0
 12 22  2  0
  4 23  1  0
 23 24  2  0
 24 25  1  0
 25 26  1  0
 25 27  1  0
 25 28  1  0
 24 29  1  0
 29 30  2  0
 30 31  1  0
 31 32  1  0
 32 33  1  0
 32 34  2  0
 32 35  2  0
 30  3  1  0
 22  8  1  0
 21 16  1  0
  1 36  1  0
  1 37  1  0
  1 38  1  0
  9 39  1  0
 10 40  1  0
 11 41  1  0
 13 42  1  0
 17 43  1  0
 18 44  1  0
 19 45  1  0
 21 46  1  0
 22 47  1  0
 23 48  1  0
 26 49  1  0
 26 50  1  0
 26 51  1  0
 27 52  1  0
 27 53  1  0
 27 54  1  0
 28 55  1  0
 28 56  1  0
 28 57  1  0
 29 58  1  0
 33 59  1  0
 33 60  1  0
 33 61  1  0
M  CHG  2   5  -1  31  -1
M  END
>  <UniqueID>  (31) 
29

>  <SMILES>  (31) 
COc1c([N-]C(=O)c2cccc(NC(=O)c3cccnc3)c2)cc(C(C)(C)C)cc1[N-]S(C)(=O)=O

>  <Energy>  (31) 
85.47495246664941

>  <Genealogy>  (31) 
COc1c([N-]C(=O)c2cccc(NC(=O)c3cccnc3)c2)cc(C(C)(C)C)cc1[N-]S(C)(=O)=O (protonated)
COc1c([N-]C(=O)c2cccc(NC(=O)c3cccnc3)c2)cc(C(C)(C)C)cc1[N-]S(C)(=O)=O (3D coordinates assigned)
COc1c([N-]C(=O)c2cccc(NC(=O)c3cccnc3)c2)cc(C(C)(C)C)cc1[N-]S(C)(=O)=O (optimized conformer: 85.47495246664941 kcal/mol)

>  <smiles>  (31) 
COc1c(NC(=O)c2cccc(NC(=O)c3cccnc3)c2)cc(C(C)(C)C)cc1NS(C)(=O)=O

>  <score_type>  (31) 
oracle

>  <origin>  (31) 
adgpu

>  <m_score__min__energy>  (31) 
-13.390000000000001

>  <m_primary>  (31) 
energy

$$$$
31:0
     RDKit          3D

 36 38  0  0  0  0  0  0  0  0999 V2000
   -3.7665   24.6027  -26.8198 H   0  0  0  0  0  0  0  0  0  0  0  0
   -2.7590   24.8620  -27.1770 C   0  0  0  0  0  0  0  0  0  0  0  0
   -2.5190   24.8000  -28.4940 C   0  0  0  0  0  0  0  0  0  0  0  0
   -1.5166   25.0676  -28.8596 H   0  0  0  0  0  0  0  0  0  0  0  0
   -3.5420   24.3880  -29.4750 C   0  0  0  0  0  0  0  0  0  0  0  0
   -4.3150   23.2410  -29.4660 C   0  0  0  0  0  0  0  0  0  0  0  0
   -4.2994   22.4216  -28.7323 H   0  0  0  0  0  0  0  0  0  0  0  0
   -5.1140   23.3600  -30.5930 C   0  0  0  0  0  0  0  0  0  0  0  0
   -6.1830   22.4300  -31.0210 C   0  0  0  0  0  0  0  0  0  0  0  0
   -7.4470   22.5550  -30.4250 C   0  0  0  0  0  0  0  0  0  0  0  0
   -7.6206   23.3416  -29.6759 H   0  0  0  0  0  0  0  0  0  0  0  0
   -8.4850   21.6920  -30.7730 C   0  0  0  0  0  0  0  0  0  0  0  0
   -9.4695   21.7970  -30.2937 H   0  0  0  0  0  0  0  0  0  0  0  0
   -8.2790   20.6970  -31.7260 C   0  0  0  0  0  0  0  0  0  0  0  0
   -9.1006   20.0145  -31.9890 H   0  0  0  0  0  0  0  0  0  0  0  0
   -7.0310   20.5590  -32.3530 C   0  0  0  0  0  0  0  0  0  0  0  0
   -6.8450   19.4970  -33.4020 C   0  0  0  0  0  0  0  0  0  0  0  0
   -6.6749   18.5258  -32.9144 H   0  0  0  0  0  0  0  0  0  0  0  0
   -7.7467   19.4394  -34.0294 H   0  0  0  0  0  0  0  0  0  0  0  0
   -5.9774   19.7493  -34.0294 H   0  0  0  0  0  0  0  0  0  0  0  0
   -5.9780   21.4370  -32.0100 C   0  0  0  0  0  0  0  0  0  0  0  0
   -4.4470   21.3380  -32.8930 Cl  0  0  0  0  0  0  0  0  0  0  0  0
   -4.8450   24.5240  -31.2180 N   0  0  0  0  0  0  0  0  0  0  0  0
   -3.8870   25.1340  -30.5410 N   0  0  0  0  0  0  0  0  0  0  0  0
   -3.4840   26.0610  -30.8040 H   0  0  0  0  0  0  0  0  0  0  0  0
   -1.7410   25.2610  -26.1740 C   0  0  0  0  0  0  0  0  0  0  0  0
   -1.9150   26.3670  -25.3150 C   0  0  0  0  0  0  0  0  0  0  0  0
   -2.8292   26.9748  -25.3837 H   0  0  0  0  0  0  0  0  0  0  0  0
   -0.9310   26.6940  -24.3770 C   0  0  0  0  0  0  0  0  0  0  0  0
   -1.0711   27.5620  -23.7160 H   0  0  0  0  0  0  0  0  0  0  0  0
    0.2290   25.9230  -24.2760 C   0  0  0  0  0  0  0  0  0  0  0  0
    1.1800   26.2420  -23.3660 F   0  0  0  0  0  0  0  0  0  0  0  0
    0.4040   24.8150  -25.1100 C   0  0  0  0  0  0  0  0  0  0  0  0
    1.3148   24.2038  -25.0270 H   0  0  0  0  0  0  0  0  0  0  0  0
   -0.5770   24.4820  -26.0500 C   0  0  0  0  0  0  0  0  0  0  0  0
   -0.4367   23.6038  -26.6973 H   0  0  0  0  0  0  0  0  0  0  0  0
  1  2  1  0
  2  3  2  0
  3  4  1  0
  3  5  1  0
  5  6  2  0
  6  7  1  0
  6  8  1  0
  8  9  1  0
  9 10  2  0
 10 11  1  0
 10 12  1  0
 12 13  1  0
 12 14  2  0
 14 15  1  0
 14 16  1  0
 16 17  1  0
 17 18  1  0
 17 19  1  0
 17 20  1  0
 16 21  2  0
 21 22  1  0
  8 23  2  0
 23 24  1  0
 24 25  1  0
  2 26  1  0
 26 27  2  0
 27 28  1  0
 27 29  1  0
 29 30  1  0
 29 31  2  0
 31 32  1  0
 31 33  1  0
 33 34  1  0
 33 35  2  0
 35 36  1  0
 24  5  1  0
 35 26  1  0
 21  9  1  0
M  END
>  <UniqueID>  (32) 
30

>  <SMILES>  (32) 
Cc1cccc(-c2cc(/C=C/c3ccc(F)cc3)[nH]n2)c1Cl

>  <Energy>  (32) 
77.242787056059

>  <Genealogy>  (32) 
Cc1cccc(-c2cc(/C=C/c3ccc(F)cc3)[nH]n2)c1Cl (cis-trans isomerization)
Cc1cccc(-c2cc(/C=C/c3ccc(F)cc3)[nH]n2)c1Cl (3D coordinates assigned)
Cc1cccc(-c2cc(/C=C/c3ccc(F)cc3)[nH]n2)c1Cl (optimized conformer: 77.242787056059 kcal/mol)

>  <smiles>  (32) 
Cc1cccc(-c2cc(C=Cc3ccc(F)cc3)[nH]n2)c1Cl

>  <score_type>  (32) 
oracle

>  <origin>  (32) 
adgpu

>  <m_score__min__energy>  (32) 
-9.0299999999999994

>  <m_primary>  (32) 
energy

$$$$
32:0
     RDKit          3D

 50 52  0  0  1  0  0  0  0  0999 V2000
    0.9840   16.5340  -27.8570 C   0  0  0  0  0  0  0  0  0  0  0  0
    0.2130   17.4150  -27.0950 O   0  0  0  0  0  0  0  0  0  0  0  0
   -0.3320   18.5930  -27.5950 C   0  0  0  0  0  0  0  0  0  0  0  0
    0.3830   19.3860  -28.4680 C   0  0  0  0  0  0  0  0  0  0  0  0
   -0.2040   20.5540  -28.9420 C   0  0  0  0  0  0  0  0  0  0  0  0
   -1.4710   20.9510  -28.5720 C   0  0  0  0  0  0  0  0  0  0  0  0
   -2.1040   22.1720  -29.0560 C   0  0  0  0  0  0  0  0  0  0  0  0
   -2.9790   22.0750  -30.0710 N   0  0  0  0  0  0  0  0  0  0  0  0
   -3.5660   23.1970  -30.5230 C   0  0  0  0  0  0  0  0  0  0  0  0
   -4.4150   23.1410  -31.5010 N   0  0  0  0  0  0  0  0  0  0  0  0
   -4.7410   21.8970  -32.1110 C   0  0  0  0  0  0  0  0  0  0  0  0
   -3.9130   21.2070  -32.9440 C   0  0  0  0  0  0  0  0  0  0  0  0
   -4.3520   20.0040  -33.4740 C   0  0  0  0  0  0  0  0  0  0  0  0
   -5.6170   19.4960  -33.1700 C   0  0  0  0  0  0  0  0  0  0  0  0
   -6.1750   17.9800  -33.8350 S   0  0  0  0  0  0  0  0  0  0  0  0
   -5.2350   16.6570  -33.0740 C   0  0  0  0  0  0  0  0  0  0  0  0
   -7.6040   17.7880  -33.4160 O   0  0  0  0  0  0  0  0  0  0  0  0
   -6.0630   17.9270  -35.3290 O   0  0  0  0  0  0  0  0  0  0  0  0
   -6.4590   20.2090  -32.3160 C   0  0  0  0  0  0  0  0  0  0  0  0
   -6.0060   21.3860  -31.8090 C   0  0  0  0  0  0  0  0  0  0  0  0
   -3.3190   24.4490  -30.0000 C   0  0  0  0  0  0  0  0  0  0  0  0
   -3.9400   25.5820  -30.4880 O   0  0  0  0  0  0  0  0  0  0  0  0
   -5.3610   25.6890  -30.4200 C   0  0  0  0  0  0  0  0  0  0  0  0
   -2.4170   24.5190  -28.9590 C   0  0  0  0  0  0  0  0  0  0  0  0
   -1.8350   23.3700  -28.5180 N   0  0  0  0  0  0  0  0  0  0  0  0
   -2.1390   20.1120  -27.6900 C   0  0  0  0  0  0  0  0  0  0  0  0
   -1.6030   18.9530  -27.1980 C   0  0  0  0  0  0  0  0  0  0  0  0
   -2.2820   18.1200  -26.3160 O   0  0  0  0  0  0  0  0  0  0  0  0
   -3.5210   18.5550  -25.7840 C   0  0  0  0  0  0  0  0  0  0  0  0
    1.5590   15.8770  -27.1878 H   0  0  0  0  0  0  0  0  0  0  0  0
    0.3242   15.9241  -28.4916 H   0  0  0  0  0  0  0  0  0  0  0  0
    1.6760   17.1071  -28.4916 H   0  0  0  0  0  0  0  0  0  0  0  0
    1.3974   19.1002  -28.7830 H   0  0  0  0  0  0  0  0  0  0  0  0
    0.3651   21.1860  -29.6396 H   0  0  0  0  0  0  0  0  0  0  0  0
   -2.9147   21.5973  -33.1914 H   0  0  0  0  0  0  0  0  0  0  0  0
   -3.6912   19.4382  -34.1472 H   0  0  0  0  0  0  0  0  0  0  0  0
   -5.2977   16.7453  -31.9793 H   0  0  0  0  0  0  0  0  0  0  0  0
   -5.6474   15.6867  -33.3878 H   0  0  0  0  0  0  0  0  0  0  0  0
   -4.1831   16.7271  -33.3878 H   0  0  0  0  0  0  0  0  0  0  0  0
   -7.4596   19.8299  -32.0606 H   0  0  0  0  0  0  0  0  0  0  0  0
   -6.6604   21.9583  -31.1350 H   0  0  0  0  0  0  0  0  0  0  0  0
   -5.6769   25.7128  -29.3666 H   0  0  0  0  0  0  0  0  0  0  0  0
   -5.6834   26.6140  -30.9205 H   0  0  0  0  0  0  0  0  0  0  0  0
   -5.8183   24.8227  -30.9205 H   0  0  0  0  0  0  0  0  0  0  0  0
   -2.1724   25.4853  -28.4937 H   0  0  0  0  0  0  0  0  0  0  0  0
   -1.1650   23.4920  -27.7310 H   0  0  0  0  0  0  0  0  0  0  0  0
   -3.1529   20.3940  -27.3698 H   0  0  0  0  0  0  0  0  0  0  0  0
   -3.4742   18.5386  -24.6851 H   0  0  0  0  0  0  0  0  0  0  0  0
   -3.7278   19.5795  -26.1269 H   0  0  0  0  0  0  0  0  0  0  0  0
   -4.3229   17.8846  -26.1269 H   0  0  0  0  0  0  0  0  0  0  0  0
  1  2  1  0
  2  3  1  0
  3  4  2  0
  4  5  1  0
  5  6  2  0
  6  7  1  0
  7  8  2  0
  8  9  1  0
  9 10  2  0
 10 11  1  0
 11 12  2  0
 12 13  1  0
 13 14  2  0
 14 15  1  0
 15 16  1  0
 15 17  2  0
 15 18  2  0
 14 19  1  0
 19 20  2  0
  9 21  1  0
 21 22  1  0
 22 23  1  0
 21 24  2  0
 24 25  1  0
  6 26  1  0
 26 27  2  0
 27 28  1  0
 28 29  1  0
 27  3  1  0
 25  7  1  0
 20 11  1  0
  1 30  1  0
  1 31  1  0
  1 32  1  0
  4 33  1  0
  5 34  1  0
 12 35  1  0
 13 36  1  0
 16 37  1  0
 16 38  1  0
 16 39  1  0
 19 40  1  0
 20 41  1  0
 23 42  1  0
 23 43  1  0
 23 44  1  0
 24 45  1  0
 25 46  1  0
 26 47  1  0
 29 48  1  0
 29 49  1  0
 29 50  1  0
M  END
>  <smiles>  (33) 
COc1ccc(-c2nc(=Nc3ccc(S(C)(=O)=O)cc3)c(OC)c[nH]2)cc1OC

>  <score_type>  (33) 
oracle

>  <origin>  (33) 
adgpu

>  <m_score__min__energy>  (33) 
-8.8499999999999996

>  <m_primary>  (33) 
energy

$$$$
33:0
     RDKit          3D

 47 49  0  0  0  0  0  0  0  0999 V2000
    0.4660   25.2520  -25.2050 C   0  0  0  0  0  0  0  0  0  0  0  0
   -0.7280   26.0780  -25.7330 C   0  0  0  0  0  0  0  0  0  0  0  0
   -0.2110   27.4100  -26.3180 C   0  0  0  0  0  0  0  0  0  0  0  0
   -1.6350   26.4160  -24.5250 C   0  0  0  0  0  0  0  0  0  0  0  0
   -1.4590   25.2820  -26.8340 C   0  0  0  0  0  0  0  0  0  0  0  0
   -0.7680   24.9320  -28.0160 C   0  0  0  0  0  0  0  0  0  0  0  0
   -1.3970   24.2120  -29.0340 C   0  0  0  0  0  0  0  0  0  0  0  0
   -2.7340   23.8150  -28.9020 C   0  0  0  0  0  0  0  0  0  0  0  0
   -3.3870   23.0780  -29.9570 N   0  0  0  0  0  0  0  0  0  0  0  0
   -3.1700   21.7350  -30.0560 C   0  0  0  0  0  0  0  0  0  0  0  0
   -3.7940   20.9960  -31.0600 C   0  0  0  0  0  0  0  0  0  0  0  0
   -4.6290   21.6080  -31.9480 N   0  0  0  0  0  0  0  0  0  0  0  0
   -5.2500   20.8080  -33.0170 C   0  0  0  0  0  0  0  0  0  0  0  0
   -6.5930   20.2930  -32.5700 C   0  0  0  0  0  0  0  0  0  0  0  0
   -6.8100   18.9110  -32.4370 C   0  0  0  0  0  0  0  0  0  0  0  0
   -8.0660   18.4290  -32.0550 C   0  0  0  0  0  0  0  0  0  0  0  0
   -9.1120   19.3210  -31.8080 C   0  0  0  0  0  0  0  0  0  0  0  0
   -8.9070   20.6960  -31.9450 C   0  0  0  0  0  0  0  0  0  0  0  0
   -9.9250   21.5610  -31.7100 F   0  0  0  0  0  0  0  0  0  0  0  0
   -7.6520   21.1820  -32.3290 C   0  0  0  0  0  0  0  0  0  0  0  0
   -4.8390   22.9610  -31.8630 C   0  0  0  0  0  0  0  0  0  0  0  0
   -5.5940   23.5470  -32.6890 O   0  0  0  0  0  0  0  0  0  0  0  0
   -4.2090   23.7060  -30.8550 C   0  0  0  0  0  0  0  0  0  0  0  0
   -4.3940   24.9530  -30.7940 O   0  0  0  0  0  0  0  0  0  0  0  0
   -3.4360   24.1580  -27.7390 C   0  0  0  0  0  0  0  0  0  0  0  0
   -2.8100   24.8780  -26.7170 C   0  0  0  0  0  0  0  0  0  0  0  0
    0.4579   25.2576  -24.1050 H   0  0  0  0  0  0  0  0  0  0  0  0
    0.3842   24.2165  -25.5670 H   0  0  0  0  0  0  0  0  0  0  0  0
    1.4061   25.6938  -25.5670 H   0  0  0  0  0  0  0  0  0  0  0  0
    0.0540   28.0927  -25.4972 H   0  0  0  0  0  0  0  0  0  0  0  0
    0.6780   27.2182  -26.9368 H   0  0  0  0  0  0  0  0  0  0  0  0
   -0.9966   27.8682  -26.9368 H   0  0  0  0  0  0  0  0  0  0  0  0
   -1.0915   26.2134  -23.5904 H   0  0  0  0  0  0  0  0  0  0  0  0
   -1.9154   27.4790  -24.5631 H   0  0  0  0  0  0  0  0  0  0  0  0
   -2.5427   25.7958  -24.5631 H   0  0  0  0  0  0  0  0  0  0  0  0
    0.2835   25.2319  -28.1363 H   0  0  0  0  0  0  0  0  0  0  0  0
   -0.8386   23.9547  -29.9461 H   0  0  0  0  0  0  0  0  0  0  0  0
   -2.5006   21.2335  -29.3415 H   0  0  0  0  0  0  0  0  0  0  0  0
   -3.6120   19.9139  -31.1364 H   0  0  0  0  0  0  0  0  0  0  0  0
   -5.3810   21.4357  -33.9108 H   0  0  0  0  0  0  0  0  0  0  0  0
   -4.5979   19.9533  -33.2497 H   0  0  0  0  0  0  0  0  0  0  0  0
   -5.9891   18.2058  -32.6340 H   0  0  0  0  0  0  0  0  0  0  0  0
   -8.2303   17.3465  -31.9490 H   0  0  0  0  0  0  0  0  0  0  0  0
  -10.0986   18.9403  -31.5052 H   0  0  0  0  0  0  0  0  0  0  0  0
   -7.4950   22.2648  -32.4424 H   0  0  0  0  0  0  0  0  0  0  0  0
   -4.4886   23.8583  -27.6291 H   0  0  0  0  0  0  0  0  0  0  0  0
   -3.3758   25.1340  -25.8091 H   0  0  0  0  0  0  0  0  0  0  0  0
  1  2  1  0
  2  3  1  0
  2  4  1  0
  2  5  1  0
  5  6  2  0
  6  7  1  0
  7  8  2  0
  8  9  1  0
  9 10  1  0
 10 11  2  0
 11 12  1  0
 12 13  1  0
 13 14  1  0
 14 15  2  0
 15 16  1  0
 16 17  2  0
 17 18  1  0
 18 19  1  0
 18 20  2  0
 12 21  1  0
 21 22  2  0
 21 23  1  0
 23 24  2  0
  8 25  1  0
 25 26  2  0
 26  5  1  0
 23  9  1  0
 20 14  1  0
  1 27  1  0
  1 28  1  0
  1 29  1  0
  3 30  1  0
  3 31  1  0
  3 32  1  0
  4 33  1  0
  4 34  1  0
  4 35  1  0
  6 36  1  0
  7 37  1  0
 10 38  1  0
 11 39  1  0
 13 40  1  0
 13 41  1  0
 15 42  1  0
 16 43  1  0
 17 44  1  0
 20 45  1  0
 25 46  1  0
 26 47  1  0
M  END
>  <UniqueID>  (34) 
31

>  <SMILES>  (34) 
CC(C)(C)c1ccc(-n2ccn(Cc3cccc(F)c3)c(=O)c2=O)cc1

>  <Energy>  (34) 
61.58593489329191

>  <Genealogy>  (34) 
CC(C)(C)c1ccc(-n2ccn(Cc3cccc(F)c3)c(=O)c2=O)cc1 (3D coordinates assigned)
CC(C)(C)c1ccc(-n2ccn(Cc3cccc(F)c3)c(=O)c2=O)cc1 (optimized conformer: 61.58593489329191 kcal/mol)

>  <smiles>  (34) 
CC(C)(C)c1ccc(-n2ccn(Cc3cccc(F)c3)c(=O)c2=O)cc1

>  <score_type>  (34) 
oracle

>  <origin>  (34) 
adgpu

>  <m_score__min__energy>  (34) 
-8.9100000000000001

>  <m_primary>  (34) 
energy

$$$$
34:0
     RDKit          3D

 45 47  0  0  0  0  0  0  0  0999 V2000
   -1.9750   18.3690  -34.0870 C   0  0  0  0  0  0  0  0  0  0  0  0
   -3.4440   18.2180  -33.7950 C   0  0  0  0  0  0  0  0  0  0  0  0
   -4.3230   19.2620  -34.1280 C   0  0  0  0  0  0  0  0  0  0  0  0
   -5.6890   19.1510  -33.8670 C   0  0  0  0  0  0  0  0  0  0  0  0
   -6.2050   17.9870  -33.2790 C   0  0  0  0  0  0  0  0  0  0  0  0
   -7.6050   17.8440  -32.9980 N   0  0  0  0  0  0  0  0  0  0  0  0
   -8.3800   18.6800  -32.1270 C   0  0  0  0  0  0  0  0  0  0  0  0
   -9.4540   18.2260  -31.6540 O   0  0  0  0  0  0  0  0  0  0  0  0
   -7.9880   20.0790  -31.8400 C   0  0  0  0  0  0  0  0  0  0  0  0
   -6.7240   20.4830  -31.4470 C   0  0  0  0  0  0  0  0  0  0  0  0
   -6.7750   21.8610  -31.3020 C   0  0  0  0  0  0  0  0  0  0  0  0
   -5.6630   22.7480  -30.8790 C   0  0  0  0  0  0  0  0  0  0  0  0
   -5.9130   24.0920  -30.5410 C   0  0  0  0  0  0  0  0  0  0  0  0
   -4.8680   24.9280  -30.1430 C   0  0  0  0  0  0  0  0  0  0  0  0
   -3.5610   24.4420  -30.0770 C   0  0  0  0  0  0  0  0  0  0  0  0
   -2.5370   25.2910  -29.6690 O   0  0  0  0  0  0  0  0  0  0  0  0
   -3.2880   23.1080  -30.4200 C   0  0  0  0  0  0  0  0  0  0  0  0
   -1.8860   22.5720  -30.3290 C   0  0  0  0  0  0  0  0  0  0  0  0
   -4.3430   22.2650  -30.8110 C   0  0  0  0  0  0  0  0  0  0  0  0
   -8.0690   22.2410  -31.6210 C   0  0  0  0  0  0  0  0  0  0  0  0
   -8.8000   21.1570  -31.9440 N   0  0  0  0  0  0  0  0  0  0  0  0
  -10.2080   21.1730  -32.3290 C   0  0  0  0  0  0  0  0  0  0  0  0
   -5.3330   16.9580  -32.9110 C   0  0  0  0  0  0  0  0  0  0  0  0
   -3.9530   17.0580  -33.1610 C   0  0  0  0  0  0  0  0  0  0  0  0
   -3.0480   15.9190  -32.7720 C   0  0  0  0  0  0  0  0  0  0  0  0
   -1.4171   18.4263  -33.1407 H   0  0  0  0  0  0  0  0  0  0  0  0
   -1.6254   17.5021  -34.6668 H   0  0  0  0  0  0  0  0  0  0  0  0
   -1.8091   19.2889  -34.6668 H   0  0  0  0  0  0  0  0  0  0  0  0
   -3.9306   20.1754  -34.5989 H   0  0  0  0  0  0  0  0  0  0  0  0
   -6.3645   19.9804  -34.1236 H   0  0  0  0  0  0  0  0  0  0  0  0
   -5.8493   19.8368  -31.2818 H   0  0  0  0  0  0  0  0  0  0  0  0
   -6.9388   24.4860  -30.5909 H   0  0  0  0  0  0  0  0  0  0  0  0
   -5.0758   25.9757  -29.8799 H   0  0  0  0  0  0  0  0  0  0  0  0
   -1.6028   22.4637  -29.2716 H   0  0  0  0  0  0  0  0  0  0  0  0
   -1.8356   21.5912  -30.8244 H   0  0  0  0  0  0  0  0  0  0  0  0
   -1.1941   23.2690  -30.8244 H   0  0  0  0  0  0  0  0  0  0  0  0
   -4.1342   21.2157  -31.0667 H   0  0  0  0  0  0  0  0  0  0  0  0
   -8.4437   23.2752  -31.6117 H   0  0  0  0  0  0  0  0  0  0  0  0
  -10.8352   21.1801  -31.4253 H   0  0  0  0  0  0  0  0  0  0  0  0
  -10.4147   22.0736  -32.9259 H   0  0  0  0  0  0  0  0  0  0  0  0
  -10.4351   20.2774  -32.9259 H   0  0  0  0  0  0  0  0  0  0  0  0
   -5.7318   16.0584  -32.4194 H   0  0  0  0  0  0  0  0  0  0  0  0
   -2.9943   15.8514  -31.6754 H   0  0  0  0  0  0  0  0  0  0  0  0
   -3.4475   14.9781  -33.1782 H   0  0  0  0  0  0  0  0  0  0  0  0
   -2.0411   16.0955  -33.1782 H   0  0  0  0  0  0  0  0  0  0  0  0
  1  2  1  0
  2  3  2  0
  3  4  1  0
  4  5  2  0
  5  6  1  0
  6  7  1  0
  7  8  2  0
  7  9  1  0
  9 10  2  0
 10 11  1  0
 11 12  1  0
 12 13  2  0
 13 14  1  0
 14 15  2  0
 15 16  1  0
 15 17  1  0
 17 18  1  0
 17 19  2  0
 11 20  2  0
 20 21  1  0
 21 22  1  0
  5 23  1  0
 23 24  2  0
 24 25  1  0
 24  2  1  0
 21  9  1  0
 19 12  1  0
  1 26  1  0
  1 27  1  0
  1 28  1  0
  3 29  1  0
  4 30  1  0
 10 31  1  0
 13 32  1  0
 14 33  1  0
 18 34  1  0
 18 35  1  0
 18 36  1  0
 19 37  1  0
 20 38  1  0
 22 39  1  0
 22 40  1  0
 22 41  1  0
 23 42  1  0
 25 43  1  0
 25 44  1  0
 25 45  1  0
M  CHG  2   6  -1  16  -1
M  END
>  <UniqueID>  (35) 
32

>  <SMILES>  (35) 
Cc1ccc([N-]C(=O)c2cc(-c3ccc([O-])c(C)c3)cn2C)cc1C

>  <Energy>  (35) 
80.86499299628937

>  <Genealogy>  (35) 
Cc1ccc([N-]C(=O)c2cc(-c3ccc([O-])c(C)c3)cn2C)cc1C (protonated)
Cc1ccc([N-]C(=O)c2cc(-c3ccc([O-])c(C)c3)cn2C)cc1C (3D coordinates assigned)
Cc1ccc([N-]C(=O)c2cc(-c3ccc([O-])c(C)c3)cn2C)cc1C (optimized conformer: 80.86499299628937 kcal/mol)

>  <smiles>  (35) 
Cc1ccc(NC(=O)c2cc(-c3ccc(O)c(C)c3)cn2C)cc1C

>  <score_type>  (35) 
oracle

>  <origin>  (35) 
adgpu

>  <m_score__min__energy>  (35) 
-11.16

>  <m_primary>  (35) 
energy

$$$$
35:0
     RDKit          3D

 47 49  0  0  0  0  0  0  0  0999 V2000
   -2.8490   26.2877  -27.2653 H   0  0  0  0  0  0  0  0  0  0  0  0
   -2.2390   25.3730  -27.3000 C   0  0  0  0  0  0  0  0  0  0  0  0
   -1.7060   24.8490  -26.1200 C   0  0  0  0  0  0  0  0  0  0  0  0
   -1.8953   25.3547  -25.1617 H   0  0  0  0  0  0  0  0  0  0  0  0
   -0.9280   23.6770  -26.1520 C   0  0  0  0  0  0  0  0  0  0  0  0
   -0.3600   23.1160  -24.9970 O   0  0  0  0  0  0  0  0  0  0  0  0
    0.9270   23.4580  -24.4930 C   0  0  0  0  0  0  0  0  0  0  0  0
    0.9036   23.4518  -23.3933 H   0  0  0  0  0  0  0  0  0  0  0  0
    1.6665   22.7252  -24.8482 H   0  0  0  0  0  0  0  0  0  0  0  0
    1.2052   24.4612  -24.8482 H   0  0  0  0  0  0  0  0  0  0  0  0
   -0.7070   23.0370  -27.3780 C   0  0  0  0  0  0  0  0  0  0  0  0
   -0.1104   22.1133  -27.4084 H   0  0  0  0  0  0  0  0  0  0  0  0
   -1.2380   23.5600  -28.5710 C   0  0  0  0  0  0  0  0  0  0  0  0
   -0.9330   22.8950  -29.8890 C   0  0  0  0  0  0  0  0  0  0  0  0
   -0.0598   23.3814  -30.3482 H   0  0  0  0  0  0  0  0  0  0  0  0
   -0.7199   21.8302  -29.7136 H   0  0  0  0  0  0  0  0  0  0  0  0
   -2.0810   23.0110  -30.7900 N   0  0  0  0  0  0  0  0  0  0  0  0
   -2.3450   23.9730  -31.1010 H   0  0  0  0  0  0  0  0  0  0  0  0
   -2.7190   21.8880  -31.4270 C   0  0  0  0  0  0  0  0  0  0  0  0
   -3.7290   21.1480  -30.7820 C   0  0  0  0  0  0  0  0  0  0  0  0
   -4.0566   21.4347  -29.7718 H   0  0  0  0  0  0  0  0  0  0  0  0
   -4.3170   20.0520  -31.4180 C   0  0  0  0  0  0  0  0  0  0  0  0
   -5.0977   19.4741  -30.9018 H   0  0  0  0  0  0  0  0  0  0  0  0
   -3.9180   19.6850  -32.7090 C   0  0  0  0  0  0  0  0  0  0  0  0
   -4.6680   18.2920  -33.4820 S   0  0  0  0  0  0  0  0  0  0  0  0
   -3.6740   17.1690  -33.5760 O   0  0  0  0  0  0  0  0  0  0  0  0
   -5.1120   18.7050  -34.8570 O   0  0  0  0  0  0  0  0  0  0  0  0
   -6.0210   17.8090  -32.5090 N   0  0  0  0  0  0  0  0  0  0  0  0
   -7.1130   18.4620  -32.2260 C   0  0  0  0  0  0  0  0  0  0  0  0
   -8.0490   17.9360  -31.4720 O   0  0  0  0  0  0  0  0  0  0  0  0
   -9.0420   18.7580  -31.3020 N   0  0  0  0  0  0  0  0  0  0  0  0
   -8.7420   19.8850  -31.9760 C   0  0  0  0  0  0  0  0  0  0  0  0
   -9.6330   21.0860  -32.0070 C   0  0  0  0  0  0  0  0  0  0  0  0
   -9.8642   21.3977  -30.9777 H   0  0  0  0  0  0  0  0  0  0  0  0
   -9.1237   21.9069  -32.5330 H   0  0  0  0  0  0  0  0  0  0  0  0
  -10.5663   20.8367  -32.5330 H   0  0  0  0  0  0  0  0  0  0  0  0
   -7.5130   19.7460  -32.6050 C   0  0  0  0  0  0  0  0  0  0  0  0
   -6.8110   20.8050  -33.4020 C   0  0  0  0  0  0  0  0  0  0  0  0
   -6.3349   21.5232  -32.7183 H   0  0  0  0  0  0  0  0  0  0  0  0
   -6.0430   20.3380  -34.0361 H   0  0  0  0  0  0  0  0  0  0  0  0
   -7.5402   21.3305  -34.0361 H   0  0  0  0  0  0  0  0  0  0  0  0
   -2.9270   20.4290  -33.3650 C   0  0  0  0  0  0  0  0  0  0  0  0
   -2.6131   20.1494  -34.3815 H   0  0  0  0  0  0  0  0  0  0  0  0
   -2.3370   21.5260  -32.7290 C   0  0  0  0  0  0  0  0  0  0  0  0
   -1.5667   22.1106  -33.2534 H   0  0  0  0  0  0  0  0  0  0  0  0
   -2.0020   24.7420  -28.5250 C   0  0  0  0  0  0  0  0  0  0  0  0
   -2.5280   25.2960  -29.6900 O   0  0  0  0  0  0  0  0  0  0  0  0
  1  2  1  0
  2  3  2  0
  3  4  1  0
  3  5  1  0
  5  6  1  0
  6  7  1  0
  7  8  1  0
  7  9  1  0
  7 10  1  0
  5 11  2  0
 11 12  1  0
 11 13  1  0
 13 14  1  0
 14 15  1  0
 14 16  1  0
 14 17  1  0
 17 18  1  0
 17 19  1  0
 19 20  2  0
 20 21  1  0
 20 22  1  0
 22 23  1  0
 22 24  2  0
 24 25  1  0
 25 26  2  0
 25 27  2  0
 25 28  1  0
 28 29  2  0
 29 30  1  0
 30 31  1  0
 31 32  1  0
 32 33  1  0
 33 34  1  0
 33 35  1  0
 33 36  1  0
 32 37  2  0
 37 38  1  0
 38 39  1  0
 38 40  1  0
 38 41  1  0
 24 42  1  0
 42 43  1  0
 42 44  2  0
 44 45  1  0
 13 46  2  0
 46 47  1  0
 46  2  1  0
 44 19  1  0
 37 29  1  0
M  CHG  2  31  -1  47  -1
M  END
>  <UniqueID>  (36) 
33

>  <SMILES>  (36) 
COc1ccc([O-])c(CNc2ccc(S(=O)(=O)/N=c3/o[n-]c(C)c3C)cc2)c1

>  <Energy>  (36) 
89.18429040694662

>  <Genealogy>  (36) 
COc1ccc([O-])c(CNc2ccc(S(=O)(=O)N=c3o[n-]c(C)c3C)cc2)c1 (protonated)
COc1ccc([O-])c(CNc2ccc(S(=O)(=O)/N=c3/o[n-]c(C)c3C)cc2)c1 (cis-trans isomerization)
COc1ccc([O-])c(CNc2ccc(S(=O)(=O)/N=c3/o[n-]c(C)c3C)cc2)c1 (3D coordinates assigned)
COc1ccc([O-])c(CNc2ccc(S(=O)(=O)/N=c3/o[n-]c(C)c3C)cc2)c1 (optimized conformer: 89.18429040694662 kcal/mol)

>  <smiles>  (36) 
COc1ccc(O)c(CNc2ccc(S(=O)(=O)N=c3o[nH]c(C)c3C)cc2)c1

>  <score_type>  (36) 
oracle

>  <origin>  (36) 
adgpu

>  <m_score__min__energy>  (36) 
-11.4

>  <m_primary>  (36) 
energy

$$$$
36:0
     RDKit          3D

 40 42  0  0  0  0  0  0  0  0999 V2000
   -3.8680   26.4660  -30.1980 H   0  0  0  0  0  0  0  0  0  0  0  0
   -4.0240   25.5680  -30.6410 O   0  0  0  0  0  0  0  0  0  0  0  0
   -3.3180   24.4300  -30.2530 C   0  0  0  0  0  0  0  0  0  0  0  0
   -3.7140   23.1610  -30.6990 C   0  0  0  0  0  0  0  0  0  0  0  0
   -4.5886   23.0630  -31.3589 H   0  0  0  0  0  0  0  0  0  0  0  0
   -3.0030   22.0140  -30.3100 C   0  0  0  0  0  0  0  0  0  0  0  0
   -3.4400   20.6900  -30.7960 C   0  0  0  0  0  0  0  0  0  0  0  0
   -3.1288   19.7841  -30.2552 H   0  0  0  0  0  0  0  0  0  0  0  0
   -4.1860   20.5800  -31.8520 N   0  0  0  0  0  0  0  0  0  0  0  0
   -4.6750   19.3400  -32.3820 C   0  0  0  0  0  0  0  0  0  0  0  0
   -5.9860   18.8810  -32.5010 C   0  0  0  0  0  0  0  0  0  0  0  0
   -7.2370   19.6100  -32.1050 C   0  0  0  0  0  0  0  0  0  0  0  0
   -7.3062   19.6503  -31.0079 H   0  0  0  0  0  0  0  0  0  0  0  0
   -7.2086   20.6329  -32.5084 H   0  0  0  0  0  0  0  0  0  0  0  0
   -8.1130   19.0809  -32.5084 H   0  0  0  0  0  0  0  0  0  0  0  0
   -5.9560   17.6630  -33.1060 N   0  0  0  0  0  0  0  0  0  0  0  0
   -7.1340   16.8930  -33.5160 C   0  0  0  0  0  0  0  0  0  0  0  0
   -7.6715   16.5417  -32.6229 H   0  0  0  0  0  0  0  0  0  0  0  0
   -7.7987   17.5315  -34.1164 H   0  0  0  0  0  0  0  0  0  0  0  0
   -6.8159   16.0280  -34.1164 H   0  0  0  0  0  0  0  0  0  0  0  0
   -4.6930   17.3680  -33.4090 N   0  0  0  0  0  0  0  0  0  0  0  0
   -4.2360   16.1770  -34.0710 C   0  0  0  0  0  0  0  0  0  0  0  0
   -3.5750   16.2670  -35.3060 C   0  0  0  0  0  0  0  0  0  0  0  0
   -3.4238   17.2494  -35.7772 H   0  0  0  0  0  0  0  0  0  0  0  0
   -3.1080   15.1100  -35.9390 C   0  0  0  0  0  0  0  0  0  0  0  0
   -2.5963   15.1832  -36.9100 H   0  0  0  0  0  0  0  0  0  0  0  0
   -3.2910   13.8620  -35.3390 C   0  0  0  0  0  0  0  0  0  0  0  0
   -2.9264   12.9529  -35.8397 H   0  0  0  0  0  0  0  0  0  0  0  0
   -3.9370   13.7670  -34.1030 C   0  0  0  0  0  0  0  0  0  0  0  0
   -4.0779   12.7839  -33.6300 H   0  0  0  0  0  0  0  0  0  0  0  0
   -4.4040   14.9220  -33.4680 C   0  0  0  0  0  0  0  0  0  0  0  0
   -4.9051   14.8459  -32.4917 H   0  0  0  0  0  0  0  0  0  0  0  0
   -3.9070   18.3770  -32.9890 C   0  0  0  0  0  0  0  0  0  0  0  0
   -2.6540   18.4130  -33.1250 O   0  0  0  0  0  0  0  0  0  0  0  0
   -1.8860   22.1540  -29.4650 C   0  0  0  0  0  0  0  0  0  0  0  0
   -1.3204   21.2636  -29.1532 H   0  0  0  0  0  0  0  0  0  0  0  0
   -1.4920   23.4200  -29.0200 C   0  0  0  0  0  0  0  0  0  0  0  0
   -0.6180   23.5220  -28.3599 H   0  0  0  0  0  0  0  0  0  0  0  0
   -2.2060   24.5560  -29.4120 C   0  0  0  0  0  0  0  0  0  0  0  0
   -1.8070   25.8100  -28.9650 O   0  0  0  0  0  0  0  0  0  0  0  0
  1  2  1  0
  2  3  1  0
  3  4  2  0
  4  5  1  0
  4  6  1  0
  6  7  1  0
  7  8  1  0
  7  9  2  0
  9 10  1  0
 10 11  2  0
 11 12  1  0
 12 13  1  0
 12 14  1  0
 12 15  1  0
 11 16  1  0
 16 17  1  0
 17 18  1  0
 17 19  1  0
 17 20  1  0
 16 21  1  0
 21 22  1  0
 22 23  2  0
 23 24  1  0
 23 25  1  0
 25 26  1  0
 25 27  2  0
 27 28  1  0
 27 29  1  0
 29 30  1  0
 29 31  2  0
 31 32  1  0
 21 33  1  0
 33 34  2  0
  6 35  2  0
 35 36  1  0
 35 37  1  0
 37 38  1  0
 37 39  2  0
 39 40  1  0
 39  3  1  0
 33 10  1  0
 31 22  1  0
M  CHG  1  40  -1
M  END
>  <UniqueID>  (37) 
34

>  <SMILES>  (37) 
Cc1c(/N=C/c2ccc([O-])c(O)c2)c(=O)n(-c2ccccc2)n1C

>  <Energy>  (37) 
88.04377169871721

>  <Genealogy>  (37) 
Cc1c(N=Cc2ccc([O-])c(O)c2)c(=O)n(-c2ccccc2)n1C (protonated)
Cc1c(/N=C/c2ccc([O-])c(O)c2)c(=O)n(-c2ccccc2)n1C (cis-trans isomerization)
Cc1c(/N=C/c2ccc([O-])c(O)c2)c(=O)n(-c2ccccc2)n1C (3D coordinates assigned)
Cc1c(/N=C/c2ccc([O-])c(O)c2)c(=O)n(-c2ccccc2)n1C (optimized conformer: 88.04377169871721 kcal/mol)

>  <smiles>  (37) 
Cc1c(N=Cc2ccc(O)c(O)c2)c(=O)n(-c2ccccc2)n1C

>  <score_type>  (37) 
oracle

>  <origin>  (37) 
adgpu

>  <m_score__min__energy>  (37) 
-9.9299999999999997

>  <m_primary>  (37) 
energy

$$$$
37:0
     RDKit          3D

 51 54  0  0  0  0  0  0  0  0999 V2000
   -6.4460   16.6810  -32.7680 C   0  0  0  0  0  0  0  0  0  0  0  0
   -6.4650   16.6980  -34.2940 C   0  0  0  0  0  0  0  0  0  0  0  0
   -5.7950   17.8550  -34.7970 O   0  0  0  0  0  0  0  0  0  0  0  0
   -5.3630   18.9480  -34.0280 C   0  0  0  0  0  0  0  0  0  0  0  0
   -6.2460   19.9160  -33.5100 C   0  0  0  0  0  0  0  0  0  0  0  0
   -5.7580   20.9780  -32.7440 C   0  0  0  0  0  0  0  0  0  0  0  0
   -4.3830   21.0840  -32.4690 C   0  0  0  0  0  0  0  0  0  0  0  0
   -3.8480   22.1380  -31.7160 O   0  0  0  0  0  0  0  0  0  0  0  0
   -3.3890   22.0400  -30.3960 C   0  0  0  0  0  0  0  0  0  0  0  0
   -2.4990   21.0750  -30.0400 N   0  0  0  0  0  0  0  0  0  0  0  0
   -2.0260   20.9740  -28.7690 C   0  0  0  0  0  0  0  0  0  0  0  0
   -1.0690   19.8960  -28.4130 C   0  0  0  0  0  0  0  0  0  0  0  0
    0.1910   19.8180  -29.0370 C   0  0  0  0  0  0  0  0  0  0  0  0
    1.0900   18.8030  -28.6950 C   0  0  0  0  0  0  0  0  0  0  0  0
    0.7450   17.8560  -27.7280 C   0  0  0  0  0  0  0  0  0  0  0  0
   -0.5010   17.9230  -27.1010 C   0  0  0  0  0  0  0  0  0  0  0  0
   -1.4050   18.9350  -27.4390 C   0  0  0  0  0  0  0  0  0  0  0  0
   -2.4420   21.8670  -27.8300 N   0  0  0  0  0  0  0  0  0  0  0  0
   -3.3220   22.8530  -28.1370 C   0  0  0  0  0  0  0  0  0  0  0  0
   -3.8220   22.9650  -29.4380 C   0  0  0  0  0  0  0  0  0  0  0  0
   -4.9840   24.2240  -29.8550 S   0  0  0  0  0  0  0  0  0  0  0  0
   -4.3480   25.1770  -30.8290 O   0  0  0  0  0  0  0  0  0  0  0  0
   -5.3950   24.9930  -28.6300 O   0  0  0  0  0  0  0  0  0  0  0  0
   -6.4150   23.4790  -30.5610 C   0  0  0  0  0  0  0  0  0  0  0  0
   -7.1260   22.4890  -29.8640 C   0  0  0  0  0  0  0  0  0  0  0  0
   -8.2870   21.9400  -30.4140 C   0  0  0  0  0  0  0  0  0  0  0  0
   -8.7450   22.3760  -31.6610 C   0  0  0  0  0  0  0  0  0  0  0  0
   -8.0410   23.3620  -32.3590 C   0  0  0  0  0  0  0  0  0  0  0  0
   -6.8800   23.9140  -31.8100 C   0  0  0  0  0  0  0  0  0  0  0  0
   -3.5070   20.1330  -33.0000 C   0  0  0  0  0  0  0  0  0  0  0  0
   -3.9940   19.0710  -33.7670 C   0  0  0  0  0  0  0  0  0  0  0  0
   -7.2142   17.3683  -32.3841 H   0  0  0  0  0  0  0  0  0  0  0  0
   -6.6539   15.6619  -32.4100 H   0  0  0  0  0  0  0  0  0  0  0  0
   -5.4562   17.0005  -32.4100 H   0  0  0  0  0  0  0  0  0  0  0  0
   -5.9599   15.7964  -34.6710 H   0  0  0  0  0  0  0  0  0  0  0  0
   -7.5111   16.7211  -34.6332 H   0  0  0  0  0  0  0  0  0  0  0  0
   -7.3247   19.8354  -33.7095 H   0  0  0  0  0  0  0  0  0  0  0  0
   -6.4536   21.7356  -32.3538 H   0  0  0  0  0  0  0  0  0  0  0  0
    0.4700   20.5608  -29.7989 H   0  0  0  0  0  0  0  0  0  0  0  0
    2.0715   18.7502  -29.1888 H   0  0  0  0  0  0  0  0  0  0  0  0
    1.4539   17.0585  -27.4607 H   0  0  0  0  0  0  0  0  0  0  0  0
   -0.7722   17.1775  -26.3390 H   0  0  0  0  0  0  0  0  0  0  0  0
   -2.3848   18.9811  -26.9412 H   0  0  0  0  0  0  0  0  0  0  0  0
   -3.6423   23.5648  -27.3619 H   0  0  0  0  0  0  0  0  0  0  0  0
   -6.7680   22.1448  -28.8825 H   0  0  0  0  0  0  0  0  0  0  0  0
   -8.8412   21.1641  -29.8655 H   0  0  0  0  0  0  0  0  0  0  0  0
   -9.6594   21.9432  -32.0930 H   0  0  0  0  0  0  0  0  0  0  0  0
   -8.4010   23.7035  -33.3407 H   0  0  0  0  0  0  0  0  0  0  0  0
   -6.3297   24.6919  -32.3595 H   0  0  0  0  0  0  0  0  0  0  0  0
   -2.4266   20.2211  -32.8129 H   0  0  0  0  0  0  0  0  0  0  0  0
   -3.2938   18.3242  -34.1696 H   0  0  0  0  0  0  0  0  0  0  0  0
  1  2  1  0
  2  3  1  0
  3  4  1  0
  4  5  2  0
  5  6  1  0
  6  7  2  0
  7  8  1  0
  8  9  1  0
  9 10  2  0
 10 11  1  0
 11 12  1  0
 12 13  2  0
 13 14  1  0
 14 15  2  0
 15 16  1  0
 16 17  2  0
 11 18  2  0
 18 19  1  0
 19 20  2  0
 20 21  1  0
 21 22  2  0
 21 23  2  0
 21 24  1  0
 24 25  2  0
 25 26  1  0
 26 27  2  0
 27 28  1  0
 28 29  2  0
  7 30  1  0
 30 31  2  0
 31  4  1  0
 20  9  1  0
 29 24  1  0
 17 12  1  0
  1 32  1  0
  1 33  1  0
  1 34  1  0
  2 35  1  0
  2 36  1  0
  5 37  1  0
  6 38  1  0
 13 39  1  0
 14 40  1  0
 15 41  1  0
 16 42  1  0
 17 43  1  0
 19 44  1  0
 25 45  1  0
 26 46  1  0
 27 47  1  0
 28 48  1  0
 29 49  1  0
 30 50  1  0
 31 51  1  0
M  END
>  <UniqueID>  (38) 
35

>  <SMILES>  (38) 
CCOc1ccc(Oc2nc(-c3ccccc3)ncc2S(=O)(=O)c2ccccc2)cc1

>  <Energy>  (38) 
61.332873469242564

>  <Genealogy>  (38) 
CCOc1ccc(Oc2nc(-c3ccccc3)ncc2S(=O)(=O)c2ccccc2)cc1 (3D coordinates assigned)
CCOc1ccc(Oc2nc(-c3ccccc3)ncc2S(=O)(=O)c2ccccc2)cc1 (optimized conformer: 61.332873469242564 kcal/mol)

>  <smiles>  (38) 
CCOc1ccc(Oc2nc(-c3ccccc3)ncc2S(=O)(=O)c2ccccc2)cc1

>  <score_type>  (38) 
oracle

>  <origin>  (38) 
adgpu

>  <m_score__min__energy>  (38) 
-9.1400000000000006

>  <m_primary>  (38) 
energy

$$$$
38:0
     RDKit          3D

 56 59  0  0  0  0  0  0  0  0999 V2000
   -1.2150   20.8110  -29.0270 H   0  0  0  0  0  0  0  0  0  0  0  0
   -1.6930   21.4820  -28.4400 O   0  0  0  0  0  0  0  0  0  0  0  0
   -1.9780   22.7670  -28.8910 C   0  0  0  0  0  0  0  0  0  0  0  0
   -1.1410   23.8100  -28.7120 N   0  0  0  0  0  0  0  0  0  0  0  0
   -1.7550   24.8550  -29.3010 C   0  0  0  0  0  0  0  0  0  0  0  0
   -1.2330   26.1410  -29.2910 O   0  0  0  0  0  0  0  0  0  0  0  0
   -2.9620   24.4770  -29.8620 C   0  0  0  0  0  0  0  0  0  0  0  0
   -3.8930   25.2840  -30.5960 N   0  0  0  0  0  0  0  0  0  0  0  0
   -5.3170   25.1870  -30.5310 C   0  0  0  0  0  0  0  0  0  0  0  0
   -5.9020   25.5210  -29.4680 O   0  0  0  0  0  0  0  0  0  0  0  0
   -6.0540   24.6050  -31.6150 N   0  0  0  0  0  0  0  0  0  0  0  0
   -6.7760   23.3650  -31.5900 C   0  0  0  0  0  0  0  0  0  0  0  0
   -7.6140   23.0080  -30.5170 C   0  0  0  0  0  0  0  0  0  0  0  0
   -7.7207   23.6840  -29.6558 H   0  0  0  0  0  0  0  0  0  0  0  0
   -8.3120   21.7950  -30.5430 C   0  0  0  0  0  0  0  0  0  0  0  0
   -8.9570   21.5146  -29.6972 H   0  0  0  0  0  0  0  0  0  0  0  0
   -8.1910   20.9390  -31.6420 C   0  0  0  0  0  0  0  0  0  0  0  0
   -9.0660   19.4190  -31.6710 Cl  0  0  0  0  0  0  0  0  0  0  0  0
   -7.3800   21.3010  -32.7200 C   0  0  0  0  0  0  0  0  0  0  0  0
   -7.2903   20.6316  -33.5883 H   0  0  0  0  0  0  0  0  0  0  0  0
   -6.6820   22.5120  -32.6980 C   0  0  0  0  0  0  0  0  0  0  0  0
   -6.0551   22.7972  -33.5557 H   0  0  0  0  0  0  0  0  0  0  0  0
   -3.1300   23.1430  -29.5600 C   0  0  0  0  0  0  0  0  0  0  0  0
   -4.2100   22.2590  -30.0230 C   0  0  0  0  0  0  0  0  0  0  0  0
   -5.2036   22.3918  -29.5701 H   0  0  0  0  0  0  0  0  0  0  0  0
   -4.0770   21.3000  -30.9580 C   0  0  0  0  0  0  0  0  0  0  0  0
   -3.0150   21.0800  -31.8480 C   0  0  0  0  0  0  0  0  0  0  0  0
   -1.8120   21.9470  -32.1040 C   0  0  0  0  0  0  0  0  0  0  0  0
   -1.3757   22.2614  -31.1444 H   0  0  0  0  0  0  0  0  0  0  0  0
   -1.0653   21.3780  -32.6774 H   0  0  0  0  0  0  0  0  0  0  0  0
   -2.1156   22.8353  -32.6774 H   0  0  0  0  0  0  0  0  0  0  0  0
   -3.3420   19.9310  -32.5630 C   0  0  0  0  0  0  0  0  0  0  0  0
   -2.5290   19.2910  -33.6620 C   0  0  0  0  0  0  0  0  0  0  0  0
   -2.9016   18.2703  -33.8333 H   0  0  0  0  0  0  0  0  0  0  0  0
   -2.6332   19.9050  -34.5687 H   0  0  0  0  0  0  0  0  0  0  0  0
   -1.0660   19.2240  -33.3040 C   0  0  0  0  0  0  0  0  0  0  0  0
   -0.6740   18.3660  -32.4650 O   0  0  0  0  0  0  0  0  0  0  0  0
   -0.0950   20.0590  -33.9610 N   0  0  0  0  0  0  0  0  0  0  0  0
    1.3330   19.9340  -33.7290 C   0  0  0  0  0  0  0  0  0  0  0  0
    1.5906   20.2923  -32.7214 H   0  0  0  0  0  0  0  0  0  0  0  0
    1.6646   18.8872  -33.7941 H   0  0  0  0  0  0  0  0  0  0  0  0
    2.0000   20.8010  -34.7870 C   0  0  0  0  0  0  0  0  0  0  0  0
    2.8155   21.3890  -34.3408 H   0  0  0  0  0  0  0  0  0  0  0  0
    2.4395   20.1907  -35.5897 H   0  0  0  0  0  0  0  0  0  0  0  0
    0.9100   21.7260  -35.3210 C   0  0  0  0  0  0  0  0  0  0  0  0
    0.9846   22.7168  -34.8491 H   0  0  0  0  0  0  0  0  0  0  0  0
    1.0037   21.8739  -36.4070 H   0  0  0  0  0  0  0  0  0  0  0  0
   -0.4160   21.0660  -34.9600 C   0  0  0  0  0  0  0  0  0  0  0  0
   -1.1138   21.8086  -34.5457 H   0  0  0  0  0  0  0  0  0  0  0  0
   -0.9023   20.6229  -35.8416 H   0  0  0  0  0  0  0  0  0  0  0  0
   -4.6010   19.5450  -32.1290 C   0  0  0  0  0  0  0  0  0  0  0  0
   -5.3170   18.5120  -32.5850 C   0  0  0  0  0  0  0  0  0  0  0  0
   -4.9081   17.8658  -33.3757 H   0  0  0  0  0  0  0  0  0  0  0  0
   -6.3149   18.3084  -32.1694 H   0  0  0  0  0  0  0  0  0  0  0  0
   -5.0390   20.3760  -31.1640 N   0  0  0  0  0  0  0  0  0  0  0  0
   -5.9510   20.3050  -30.6570 H   0  0  0  0  0  0  0  0  0  0  0  0
  1  2  1  0
  2  3  1  0
  3  4  1  0
  4  5  1  0
  5  6  1  0
  5  7  2  0
  7  8  1  0
  8  9  1  0
  9 10  2  0
  9 11  1  0
 11 12  1  0
 12 13  2  0
 13 14  1  0
 13 15  1  0
 15 16  1  0
 15 17  2  0
 17 18  1  0
 17 19  1  0
 19 20  1  0
 19 21  2  0
 21 22  1  0
  7 23  1  0
 23 24  1  0
 24 25  1  0
 24 26  2  0
 26 27  1  0
 27 28  1  0
 28 29  1  0
 28 30  1  0
 28 31  1  0
 27 32  2  0
 32 33  1  0
 33 34  1  0
 33 35  1  0
 33 36  1  0
 36 37  2  0
 36 38  1  0
 38 39  1  0
 39 40  1  0
 39 41  1  0
 39 42  1  0
 42 43  1  0
 42 44  1  0
 42 45  1  0
 45 46  1  0
 45 47  1  0
 45 48  1  0
 48 49  1  0
 48 50  1  0
 32 51  1  0
 51 52  2  0
 52 53  1  0
 52 54  1  0
 51 55  1  0
 55 56  1  0
 23  3  2  0
 55 26  1  0
 21 12  1  0
 48 38  1  0
M  CHG  4   4  -1   6  -1   8  -1  11  -1
M  END
>  <UniqueID>  (39) 
36

>  <SMILES>  (39) 
C=c1[nH]/c(=C/c2c(O)[n-]c([O-])c2[N-]C(=O)[N-]c2ccc(Cl)cc2)c(C)c1CC(=O)N1CCCC1

>  <Energy>  (39) 
127.748887789008

>  <Genealogy>  (39) 
C=c1[nH]c(=Cc2c(O)[n-]c([O-])c2[N-]C(=O)[N-]c2ccc(Cl)cc2)c(C)c1CC(=O)N1CCCC1 (protonated)
C=c1[nH]/c(=C/c2c(O)[n-]c([O-])c2[N-]C(=O)[N-]c2ccc(Cl)cc2)c(C)c1CC(=O)N1CCCC1 (cis-trans isomerization)
C=c1[nH]/c(=C/c2c(O)[n-]c([O-])c2[N-]C(=O)[N-]c2ccc(Cl)cc2)c(C)c1CC(=O)N1CCCC1 (3D coordinates assigned)
C=c1[nH]/c(=C/c2c(O)[n-]c([O-])c2[N-]C(=O)[N-]c2ccc(Cl)cc2)c(C)c1CC(=O)N1CCCC1 (nonaromatic ring conformer: 127.748887789008 kcal/mol)

>  <smiles>  (39) 
C=c1[nH]c(=Cc2c(O)[nH]c(O)c2NC(=O)Nc2ccc(Cl)cc2)c(C)c1CC(=O)N1CCCC1

>  <score_type>  (39) 
oracle

>  <origin>  (39) 
adgpu

>  <m_score__min__energy>  (39) 
-14.24

>  <m_primary>  (39) 
energy

$$$$
39:0
     RDKit          3D

 46 49  0  0  0  0  0  0  0  0999 V2000
   -5.7280   26.6170  -30.3020 O   0  0  0  0  0  0  0  0  0  0  0  0
   -5.2460   25.4690  -30.4910 C   0  0  0  0  0  0  0  0  0  0  0  0
   -3.8260   25.2950  -30.3820 N   0  0  0  0  0  0  0  0  0  0  0  0
   -3.1290   24.0450  -30.2700 C   0  0  0  0  0  0  0  0  0  0  0  0
   -2.1070   23.9240  -29.3230 C   0  0  0  0  0  0  0  0  0  0  0  0
   -1.4010   22.7260  -29.1950 C   0  0  0  0  0  0  0  0  0  0  0  0
   -1.7070   21.6390  -30.0170 C   0  0  0  0  0  0  0  0  0  0  0  0
   -2.7180   21.7460  -30.9880 C   0  0  0  0  0  0  0  0  0  0  0  0
   -3.0400   20.5980  -31.8620 C   0  0  0  0  0  0  0  0  0  0  0  0
   -2.1450   19.6630  -32.2360 N   0  0  0  0  0  0  0  0  0  0  0  0
   -2.8100   18.8430  -32.9900 O   0  0  0  0  0  0  0  0  0  0  0  0
   -4.0560   19.2390  -33.0840 C   0  0  0  0  0  0  0  0  0  0  0  0
   -5.1100   18.4910  -33.8660 C   0  0  0  0  0  0  0  0  0  0  0  0
   -6.4890   19.2110  -33.8890 C   0  0  0  0  0  0  0  0  0  0  0  0
   -7.5030   18.6560  -32.8650 C   0  0  0  0  0  0  0  0  0  0  0  0
   -6.8190   18.1380  -31.5960 C   0  0  0  0  0  0  0  0  0  0  0  0
   -5.8080   17.0110  -31.8960 C   0  0  0  0  0  0  0  0  0  0  0  0
   -5.2460   17.0540  -33.3330 C   0  0  0  0  0  0  0  0  0  0  0  0
   -4.2670   20.3670  -32.3760 N   0  0  0  0  0  0  0  0  0  0  0  0
   -3.4170   22.9590  -31.1180 C   0  0  0  0  0  0  0  0  0  0  0  0
   -6.1580   24.3330  -30.7690 C   0  0  0  0  0  0  0  0  0  0  0  0
   -6.7500   23.6280  -29.7070 C   0  0  0  0  0  0  0  0  0  0  0  0
   -7.6240   22.5660  -29.9620 C   0  0  0  0  0  0  0  0  0  0  0  0
   -7.8970   22.1860  -31.2780 C   0  0  0  0  0  0  0  0  0  0  0  0
   -7.2950   22.8640  -32.3410 C   0  0  0  0  0  0  0  0  0  0  0  0
   -6.4250   23.9290  -32.0900 C   0  0  0  0  0  0  0  0  0  0  0  0
   -1.8579   24.7774  -28.6753 H   0  0  0  0  0  0  0  0  0  0  0  0
   -0.6015   22.6381  -28.4446 H   0  0  0  0  0  0  0  0  0  0  0  0
   -1.1543   20.6947  -29.9041 H   0  0  0  0  0  0  0  0  0  0  0  0
   -4.7690   18.4614  -34.9114 H   0  0  0  0  0  0  0  0  0  0  0  0
   -6.3265   20.2771  -33.6723 H   0  0  0  0  0  0  0  0  0  0  0  0
   -6.9197   19.0432  -34.8872 H   0  0  0  0  0  0  0  0  0  0  0  0
   -8.2022   19.4587  -32.5881 H   0  0  0  0  0  0  0  0  0  0  0  0
   -8.0288   17.8113  -33.3341 H   0  0  0  0  0  0  0  0  0  0  0  0
   -6.2871   18.9720  -31.1149 H   0  0  0  0  0  0  0  0  0  0  0  0
   -7.5977   17.7260  -30.9373 H   0  0  0  0  0  0  0  0  0  0  0  0
   -4.9683   17.0999  -31.1910 H   0  0  0  0  0  0  0  0  0  0  0  0
   -6.3452   16.0573  -31.7872 H   0  0  0  0  0  0  0  0  0  0  0  0
   -4.2536   16.5795  -33.3387 H   0  0  0  0  0  0  0  0  0  0  0  0
   -5.9517   16.5192  -33.9857 H   0  0  0  0  0  0  0  0  0  0  0  0
   -4.1953   23.0602  -31.8887 H   0  0  0  0  0  0  0  0  0  0  0  0
   -6.5246   23.9131  -28.6688 H   0  0  0  0  0  0  0  0  0  0  0  0
   -8.0965   22.0299  -29.1257 H   0  0  0  0  0  0  0  0  0  0  0  0
   -8.5864   21.3524  -31.4777 H   0  0  0  0  0  0  0  0  0  0  0  0
   -7.5059   22.5594  -33.3767 H   0  0  0  0  0  0  0  0  0  0  0  0
   -5.9465   24.4541  -32.9299 H   0  0  0  0  0  0  0  0  0  0  0  0
  1  2  2  0
  2  3  1  0
  3  4  1  0
  4  5  2  0
  5  6  1  0
  6  7  2  0
  7  8  1  0
  8  9  1  0
  9 10  2  0
 10 11  1  0
 11 12  1  0
 12 13  1  0
 13 14  1  0
 14 15  1  0
 15 16  1  0
 16 17  1  0
 17 18  1  0
 12 19  2  0
  8 20  2  0
  2 21  1  0
 21 22  2  0
 22 23  1  0
 23 24  2  0
 24 25  1  0
 25 26  2  0
 20  4  1  0
 26 21  1  0
 19  9  1  0
 18 13  1  0
  5 27  1  0
  6 28  1  0
  7 29  1  0
 13 30  1  0
 14 31  1  0
 14 32  1  0
 15 33  1  0
 15 34  1  0
 16 35  1  0
 16 36  1  0
 17 37  1  0
 17 38  1  0
 18 39  1  0
 18 40  1  0
 20 41  1  0
 22 42  1  0
 23 43  1  0
 24 44  1  0
 25 45  1  0
 26 46  1  0
M  CHG  1   3  -1
M  END
>  <UniqueID>  (40) 
37

>  <SMILES>  (40) 
O=C([N-]c1cccc(-c2noc(C3CCCCC3)n2)c1)c1ccccc1

>  <Energy>  (40) 
92.4727467961334

>  <Genealogy>  (40) 
O=C([N-]c1cccc(-c2noc(C3CCCCC3)n2)c1)c1ccccc1 (protonated)
O=C([N-]c1cccc(-c2noc(C3CCCCC3)n2)c1)c1ccccc1 (3D coordinates assigned)
O=C([N-]c1cccc(-c2noc(C3CCCCC3)n2)c1)c1ccccc1 (nonaromatic ring conformer: 92.4727467961334 kcal/mol)

>  <smiles>  (40) 
O=C(Nc1cccc(-c2noc(C3CCCCC3)n2)c1)c1ccccc1

>  <score_type>  (40) 
oracle

>  <origin>  (40) 
adgpu

>  <m_score__min__energy>  (40) 
-11.17

>  <m_primary>  (40) 
energy

$$$$
40:0
     RDKit          3D

 68 71  0  0  0  0  0  0  0  0999 V2000
    0.6289   15.4911  -26.5125 H   0  0  0  0  0  0  0  0  0  0  0  0
    0.6960   16.2340  -27.3210 C   0  0  0  0  0  0  0  0  0  0  0  0
   -0.0310   17.4260  -27.2360 C   0  0  0  0  0  0  0  0  0  0  0  0
   -0.6694   17.6193  -26.3613 H   0  0  0  0  0  0  0  0  0  0  0  0
    0.0530   18.3700  -28.2600 C   0  0  0  0  0  0  0  0  0  0  0  0
   -0.5439   19.2922  -28.2032 H   0  0  0  0  0  0  0  0  0  0  0  0
    0.8970   18.1500  -29.3660 C   0  0  0  0  0  0  0  0  0  0  0  0
    1.0070   19.1100  -30.4270 N   0  0  0  0  0  0  0  0  0  0  0  0
    1.8060   19.0190  -31.0980 H   0  0  0  0  0  0  0  0  0  0  0  0
    0.0600   20.1670  -30.6690 C   0  0  0  0  0  0  0  0  0  0  0  0
   -0.1650   20.5840  -32.0280 N   0  0  0  0  0  0  0  0  0  0  0  0
    0.6720   20.6510  -32.6570 H   0  0  0  0  0  0  0  0  0  0  0  0
   -1.4780   20.4940  -32.6620 C   0  0  0  0  0  0  0  0  0  0  0  0
   -2.1960   21.0936  -32.0833 H   0  0  0  0  0  0  0  0  0  0  0  0
   -1.3906   20.8726  -33.6911 H   0  0  0  0  0  0  0  0  0  0  0  0
   -1.9770   19.0390  -32.7240 C   0  0  0  0  0  0  0  0  0  0  0  0
   -1.1423   18.3700  -32.4679 H   0  0  0  0  0  0  0  0  0  0  0  0
   -2.8096   18.9438  -32.0115 H   0  0  0  0  0  0  0  0  0  0  0  0
   -2.5130   18.6480  -34.1220 C   0  0  0  0  0  0  0  0  0  0  0  0
   -3.1585   19.4584  -34.4916 H   0  0  0  0  0  0  0  0  0  0  0  0
   -1.6459   18.4895  -34.7800 H   0  0  0  0  0  0  0  0  0  0  0  0
   -3.3030   17.3790  -34.0980 N   0  0  0  0  0  0  0  0  0  0  0  0
   -2.6290   16.5900  -34.2730 H   0  0  0  0  0  0  0  0  0  0  0  0
   -3.9220   17.1030  -32.7580 C   0  0  0  0  0  0  0  0  0  0  0  0
   -3.4287   16.2225  -32.3206 H   0  0  0  0  0  0  0  0  0  0  0  0
   -3.7830   18.0049  -32.1438 H   0  0  0  0  0  0  0  0  0  0  0  0
   -5.4340   16.8300  -32.8290 C   0  0  0  0  0  0  0  0  0  0  0  0
   -5.6162   15.8807  -33.3539 H   0  0  0  0  0  0  0  0  0  0  0  0
   -5.8541   16.7588  -31.8149 H   0  0  0  0  0  0  0  0  0  0  0  0
   -6.0700   17.9360  -33.5650 N   0  0  0  0  0  0  0  0  0  0  0  0
   -6.9290   18.9150  -32.8940 C   0  0  0  0  0  0  0  0  0  0  0  0
   -8.2380   18.5380  -32.5000 C   0  0  0  0  0  0  0  0  0  0  0  0
   -8.5721   17.5043  -32.6730 H   0  0  0  0  0  0  0  0  0  0  0  0
   -9.1120   19.4410  -31.9000 C   0  0  0  0  0  0  0  0  0  0  0  0
  -10.1341   19.1264  -31.6425 H   0  0  0  0  0  0  0  0  0  0  0  0
   -8.6970   20.7370  -31.6260 C   0  0  0  0  0  0  0  0  0  0  0  0
   -9.3893   21.4445  -31.1463 H   0  0  0  0  0  0  0  0  0  0  0  0
   -7.4050   21.1450  -31.9570 C   0  0  0  0  0  0  0  0  0  0  0  0
   -6.9440   22.8010  -31.5550 Cl  0  0  0  0  0  0  0  0  0  0  0  0
   -6.5150   20.2590  -32.6040 C   0  0  0  0  0  0  0  0  0  0  0  0
   -4.9380   20.9180  -33.0580 Cl  0  0  0  0  0  0  0  0  0  0  0  0
   -5.5660   18.1500  -34.9340 C   0  0  0  0  0  0  0  0  0  0  0  0
   -6.3438   17.8427  -35.6485 H   0  0  0  0  0  0  0  0  0  0  0  0
   -5.3214   19.2174  -35.0376 H   0  0  0  0  0  0  0  0  0  0  0  0
   -4.2760   17.3400  -35.2240 C   0  0  0  0  0  0  0  0  0  0  0  0
   -4.5539   16.2924  -35.4118 H   0  0  0  0  0  0  0  0  0  0  0  0
   -3.7885   17.7967  -36.0979 H   0  0  0  0  0  0  0  0  0  0  0  0
   -0.5410   20.7590  -29.6660 N   0  0  0  0  0  0  0  0  0  0  0  0
   -0.3730   20.4210  -28.6880 H   0  0  0  0  0  0  0  0  0  0  0  0
   -1.4260   21.8840  -29.7880 C   0  0  0  0  0  0  0  0  0  0  0  0
   -0.9940   23.1470  -29.3650 C   0  0  0  0  0  0  0  0  0  0  0  0
    0.0091   23.2631  -28.9286 H   0  0  0  0  0  0  0  0  0  0  0  0
   -1.8270   24.2600  -29.4930 C   0  0  0  0  0  0  0  0  0  0  0  0
   -1.4860   25.2409  -29.1304 H   0  0  0  0  0  0  0  0  0  0  0  0
   -3.0950   24.1380  -30.0800 C   0  0  0  0  0  0  0  0  0  0  0  0
   -3.8910   25.2900  -30.1890 O   0  0  0  0  0  0  0  0  0  0  0  0
   -5.3110   25.3080  -30.0920 C   0  0  0  0  0  0  0  0  0  0  0  0
   -5.6061   25.3117  -29.0323 H   0  0  0  0  0  0  0  0  0  0  0  0
   -5.7007   26.2112  -30.5844 H   0  0  0  0  0  0  0  0  0  0  0  0
   -5.7235   24.4150  -30.5844 H   0  0  0  0  0  0  0  0  0  0  0  0
   -3.5230   22.8730  -30.5290 C   0  0  0  0  0  0  0  0  0  0  0  0
   -4.5149   22.7629  -30.9915 H   0  0  0  0  0  0  0  0  0  0  0  0
   -2.6910   21.7550  -30.3890 C   0  0  0  0  0  0  0  0  0  0  0  0
   -3.0282   20.7723  -30.7505 H   0  0  0  0  0  0  0  0  0  0  0  0
    1.6060   16.9360  -29.4530 C   0  0  0  0  0  0  0  0  0  0  0  0
    2.2403   16.7347  -30.3288 H   0  0  0  0  0  0  0  0  0  0  0  0
    1.5080   15.9850  -28.4320 C   0  0  0  0  0  0  0  0  0  0  0  0
    2.0694   15.0417  -28.5029 H   0  0  0  0  0  0  0  0  0  0  0  0
  1  2  1  0
  2  3  2  0
  3  4  1  0
  3  5  1  0
  5  6  1  0
  5  7  2  0
  7  8  1  0
  8  9  1  0
  8 10  1  0
 10 11  1  0
 11 12  1  0
 11 13  1  0
 13 14  1  0
 13 15  1  0
 13 16  1  0
 16 17  1  0
 16 18  1  0
 16 19  1  0
 19 20  1  0
 19 21  1  0
 19 22  1  0
 22 23  1  0
 22 24  1  0
 24 25  1  0
 24 26  1  0
 24 27  1  0
 27 28  1  0
 27 29  1  0
 27 30  1  0
 30 31  1  0
 31 32  2  0
 32 33  1  0
 32 34  1  0
 34 35  1  0
 34 36  2  0
 36 37  1  0
 36 38  1  0
 38 39  1  0
 38 40  2  0
 40 41  1  0
 30 42  1  0
 42 43  1  0
 42 44  1  0
 42 45  1  0
 45 46  1  0
 45 47  1  0
 10 48  2  0
 48 49  1  0
 48 50  1  0
 50 51  2  0
 51 52  1  0
 51 53  1  0
 53 54  1  0
 53 55  2  0
 55 56  1  0
 56 57  1  0
 57 58  1  0
 57 59  1  0
 57 60  1  0
 55 61  1  0
 61 62  1  0
 61 63  2  0
 63 64  1  0
  7 65  1  0
 65 66  1  0
 65 67  2  0
 67 68  1  0
 67  2  1  0
 45 22  1  0
 63 50  1  0
 40 31  1  0
M  CHG  2  22   1  48   1
M  END
>  <UniqueID>  (41) 
38

>  <SMILES>  (41) 
COc1ccc(/[NH+]=C(\NCCC[NH+]2CCN(c3cccc(Cl)c3Cl)CC2)Nc2ccccc2)cc1

>  <Energy>  (41) 
102.22977746228119

>  <Genealogy>  (41) 
COc1ccc([NH+]=C(NCCC[NH+]2CCN(c3cccc(Cl)c3Cl)CC2)Nc2ccccc2)cc1 (protonated)
COc1ccc(/[NH+]=C(\NCCC[NH+]2CCN(c3cccc(Cl)c3Cl)CC2)Nc2ccccc2)cc1 (cis-trans isomerization)
COc1ccc(/[NH+]=C(\NCCC[NH+]2CCN(c3cccc(Cl)c3Cl)CC2)Nc2ccccc2)cc1 (3D coordinates assigned)
COc1ccc(/[NH+]=C(\NCCC[NH+]2CCN(c3cccc(Cl)c3Cl)CC2)Nc2ccccc2)cc1 (nonaromatic ring conformer: 102.22977746228119 kcal/mol)

>  <smiles>  (41) 
COc1ccc(N=C(NCCCN2CCN(c3cccc(Cl)c3Cl)CC2)Nc2ccccc2)cc1

>  <score_type>  (41) 
oracle

>  <origin>  (41) 
adgpu

>  <m_score__min__energy>  (41) 
-8.6300000000000008

>  <m_primary>  (41) 
energy

$$$$
41:0
     RDKit          3D

 35 36  0  0  0  0  0  0  0  0999 V2000
   -8.4120   19.3880  -32.3100 C   0  0  0  0  0  0  0  0  0  0  0  0
   -7.0080   19.4020  -32.8400 C   0  0  0  0  0  0  0  0  0  0  0  0
   -6.4890   18.2690  -33.4850 C   0  0  0  0  0  0  0  0  0  0  0  0
   -5.1720   18.2670  -33.9530 C   0  0  0  0  0  0  0  0  0  0  0  0
   -4.3610   19.3880  -33.7680 C   0  0  0  0  0  0  0  0  0  0  0  0
   -4.8570   20.5180  -33.0980 C   0  0  0  0  0  0  0  0  0  0  0  0
   -3.9890   21.7350  -32.9200 C   0  0  0  0  0  0  0  0  0  0  0  0
   -3.6280   21.9290  -31.4460 C   0  0  0  0  0  0  0  0  0  0  0  0
   -3.1780   23.3040  -31.2180 N   0  0  0  0  0  0  0  0  0  0  0  0
   -4.3970   24.2400  -30.4010 S   0  0  0  0  0  0  0  0  0  0  0  0
   -4.1610   24.1840  -28.9170 O   0  0  0  0  0  0  0  0  0  0  0  0
   -4.2940   25.6720  -30.8430 O   0  0  0  0  0  0  0  0  0  0  0  0
   -6.0090   23.6370  -30.7810 C   0  0  0  0  0  0  0  0  0  0  0  0
   -6.7070   22.8400  -29.8600 C   0  0  0  0  0  0  0  0  0  0  0  0
   -7.9660   22.3300  -30.1890 C   0  0  0  0  0  0  0  0  0  0  0  0
   -8.5310   22.6070  -31.4370 C   0  0  0  0  0  0  0  0  0  0  0  0
   -7.8390   23.4000  -32.3570 C   0  0  0  0  0  0  0  0  0  0  0  0
   -6.5810   23.9140  -32.0310 C   0  0  0  0  0  0  0  0  0  0  0  0
   -6.1850   20.5220  -32.6410 C   0  0  0  0  0  0  0  0  0  0  0  0
   -8.3888   19.3882  -31.2102 H   0  0  0  0  0  0  0  0  0  0  0  0
   -8.9471   20.2809  -32.6656 H   0  0  0  0  0  0  0  0  0  0  0  0
   -8.9292   18.4847  -32.6656 H   0  0  0  0  0  0  0  0  0  0  0  0
   -7.1209   17.3792  -33.6228 H   0  0  0  0  0  0  0  0  0  0  0  0
   -4.7738   17.3804  -34.4681 H   0  0  0  0  0  0  0  0  0  0  0  0
   -3.3290   19.3862  -34.1487 H   0  0  0  0  0  0  0  0  0  0  0  0
   -3.0658   21.6090  -33.5046 H   0  0  0  0  0  0  0  0  0  0  0  0
   -4.5428   22.6192  -33.2685 H   0  0  0  0  0  0  0  0  0  0  0  0
   -4.5129   21.7274  -30.8245 H   0  0  0  0  0  0  0  0  0  0  0  0
   -2.8182   21.2346  -31.1778 H   0  0  0  0  0  0  0  0  0  0  0  0
   -6.2628   22.6167  -28.8788 H   0  0  0  0  0  0  0  0  0  0  0  0
   -8.5133   21.7094  -29.4643 H   0  0  0  0  0  0  0  0  0  0  0  0
   -9.5202   22.2010  -31.6953 H   0  0  0  0  0  0  0  0  0  0  0  0
   -8.2850   23.6196  -33.3383 H   0  0  0  0  0  0  0  0  0  0  0  0
   -6.0382   24.5374  -32.7567 H   0  0  0  0  0  0  0  0  0  0  0  0
   -6.5827   21.4078  -32.1241 H   0  0  0  0  0  0  0  0  0  0  0  0
  1  2  1  0
  2  3  2  0
  3  4  1  0
  4  5  2  0
  5  6  1  0
  6  7  1  0
  7  8  1  0
  8  9  1  0
  9 10  1  0
 10 11  2  0
 10 12  2  0
 10 13  1  0
 13 14  2  0
 14 15  1  0
 15 16  2  0
 16 17  1  0
 17 18  2  0
  6 19  2  0
 19  2  1  0
 18 13  1  0
  1 20  1  0
  1 21  1  0
  1 22  1  0
  3 23  1  0
  4 24  1  0
  5 25  1  0
  7 26  1  0
  7 27  1  0
  8 28  1  0
  8 29  1  0
 14 30  1  0
 15 31  1  0
 16 32  1  0
 17 33  1  0
 18 34  1  0
 19 35  1  0
M  CHG  1   9  -1
M  END
>  <UniqueID>  (42) 
39

>  <SMILES>  (42) 
Cc1cccc(CC[N-]S(=O)(=O)c2ccccc2)c1

>  <Energy>  (42) 
30.1608456721952

>  <Genealogy>  (42) 
Cc1cccc(CC[N-]S(=O)(=O)c2ccccc2)c1 (protonated)
Cc1cccc(CC[N-]S(=O)(=O)c2ccccc2)c1 (3D coordinates assigned)
Cc1cccc(CC[N-]S(=O)(=O)c2ccccc2)c1 (optimized conformer: 30.1608456721952 kcal/mol)

>  <smiles>  (42) 
Cc1cccc(CCNS(=O)(=O)c2ccccc2)c1

>  <score_type>  (42) 
oracle

>  <origin>  (42) 
adgpu

>  <m_score__min__energy>  (42) 
-8.8399999999999999

>  <m_primary>  (42) 
energy

$$$$
42:0
     RDKit          3D

 56 58  0  0  0  0  0  0  0  0999 V2000
    2.0880   25.4780  -24.5420 C   0  0  0  0  0  0  0  0  0  0  0  0
    1.0690   26.2510  -25.2560 N   0  0  0  0  0  0  0  0  0  0  0  0
   -0.1440   26.4730  -24.4500 C   0  0  0  0  0  0  0  0  0  0  0  0
   -1.4300   26.5380  -25.2930 C   0  0  0  0  0  0  0  0  0  0  0  0
   -1.1120   26.5420  -26.7250 N   0  0  0  0  0  0  0  0  0  0  0  0
   -0.8100   24.9200  -27.2680 S   0  0  0  0  0  0  0  0  0  0  0  0
    0.3970   24.9040  -28.1640 O   0  0  0  0  0  0  0  0  0  0  0  0
   -0.5290   24.0450  -26.0780 O   0  0  0  0  0  0  0  0  0  0  0  0
   -2.2110   24.2890  -28.1300 C   0  0  0  0  0  0  0  0  0  0  0  0
   -2.0490   23.7050  -29.3920 C   0  0  0  0  0  0  0  0  0  0  0  0
   -3.1500   23.1810  -30.0740 C   0  0  0  0  0  0  0  0  0  0  0  0
   -4.4360   23.2330  -29.5000 C   0  0  0  0  0  0  0  0  0  0  0  0
   -5.6070   22.6760  -30.2220 C   0  0  0  0  0  0  0  0  0  0  0  0
   -5.4390   21.9760  -31.4310 C   0  0  0  0  0  0  0  0  0  0  0  0
   -6.5430   21.4520  -32.1080 C   0  0  0  0  0  0  0  0  0  0  0  0
   -7.8340   21.6070  -31.5850 C   0  0  0  0  0  0  0  0  0  0  0  0
   -9.0240   21.0760  -32.3370 C   0  0  0  0  0  0  0  0  0  0  0  0
   -8.6140   19.9420  -33.1720 N   0  0  0  0  0  0  0  0  0  0  0  0
   -8.3520   18.7630  -32.3400 C   0  0  0  0  0  0  0  0  0  0  0  0
   -7.0560   18.1250  -32.7610 C   0  0  0  0  0  0  0  0  0  0  0  0
   -6.5110   17.0720  -32.0080 C   0  0  0  0  0  0  0  0  0  0  0  0
   -5.2890   16.5010  -32.3770 C   0  0  0  0  0  0  0  0  0  0  0  0
   -4.5980   16.9850  -33.4920 C   0  0  0  0  0  0  0  0  0  0  0  0
   -5.1260   18.0450  -34.2360 C   0  0  0  0  0  0  0  0  0  0  0  0
   -6.3480   18.6170  -33.8690 C   0  0  0  0  0  0  0  0  0  0  0  0
   -8.0110   22.3180  -30.3890 C   0  0  0  0  0  0  0  0  0  0  0  0
   -6.9070   22.8430  -29.7100 C   0  0  0  0  0  0  0  0  0  0  0  0
   -4.5890   23.8160  -28.2290 C   0  0  0  0  0  0  0  0  0  0  0  0
   -3.4850   24.3380  -27.5500 C   0  0  0  0  0  0  0  0  0  0  0  0
    1.9403   25.5900  -23.4577 H   0  0  0  0  0  0  0  0  0  0  0  0
    2.0016   24.4162  -24.8160 H   0  0  0  0  0  0  0  0  0  0  0  0
    3.0873   25.8473  -24.8160 H   0  0  0  0  0  0  0  0  0  0  0  0
    0.8210   25.7510  -26.1410 H   0  0  0  0  0  0  0  0  0  0  0  0
   -0.2402   25.6479  -23.7290 H   0  0  0  0  0  0  0  0  0  0  0  0
   -0.0309   27.4470  -23.9516 H   0  0  0  0  0  0  0  0  0  0  0  0
   -2.0560   25.6628  -25.0646 H   0  0  0  0  0  0  0  0  0  0  0  0
   -1.9671   27.4661  -25.0475 H   0  0  0  0  0  0  0  0  0  0  0  0
   -0.2250   27.0790  -26.8600 H   0  0  0  0  0  0  0  0  0  0  0  0
   -1.0495   23.6585  -29.8491 H   0  0  0  0  0  0  0  0  0  0  0  0
   -3.0122   22.7249  -31.0654 H   0  0  0  0  0  0  0  0  0  0  0  0
   -4.4297   21.8402  -31.8467 H   0  0  0  0  0  0  0  0  0  0  0  0
   -6.3982   20.9147  -33.0569 H   0  0  0  0  0  0  0  0  0  0  0  0
   -9.7910   20.7450  -31.6214 H   0  0  0  0  0  0  0  0  0  0  0  0
   -9.4351   21.8705  -32.9771 H   0  0  0  0  0  0  0  0  0  0  0  0
   -9.4120   19.7120  -33.8120 H   0  0  0  0  0  0  0  0  0  0  0  0
   -8.2844   19.0673  -31.2851 H   0  0  0  0  0  0  0  0  0  0  0  0
   -9.1717   18.0399  -32.4633 H   0  0  0  0  0  0  0  0  0  0  0  0
   -7.0474   16.6951  -31.1247 H   0  0  0  0  0  0  0  0  0  0  0  0
   -4.8710   15.6703  -31.7895 H   0  0  0  0  0  0  0  0  0  0  0  0
   -3.6391   16.5320  -33.7840 H   0  0  0  0  0  0  0  0  0  0  0  0
   -4.5798   18.4289  -35.1102 H   0  0  0  0  0  0  0  0  0  0  0  0
   -6.7564   19.4563  -34.4511 H   0  0  0  0  0  0  0  0  0  0  0  0
   -9.0230   22.4633  -29.9832 H   0  0  0  0  0  0  0  0  0  0  0  0
   -7.0560   23.3910  -28.7679 H   0  0  0  0  0  0  0  0  0  0  0  0
   -5.5858   23.8613  -27.7659 H   0  0  0  0  0  0  0  0  0  0  0  0
   -3.6170   24.7894  -26.5556 H   0  0  0  0  0  0  0  0  0  0  0  0
  1  2  1  0
  2  3  1  0
  3  4  1  0
  4  5  1  0
  5  6  1  0
  6  7  2  0
  6  8  2  0
  6  9  1  0
  9 10  2  0
 10 11  1  0
 11 12  2  0
 12 13  1  0
 13 14  2  0
 14 15  1  0
 15 16  2  0
 16 17  1  0
 17 18  1  0
 18 19  1  0
 19 20  1  0
 20 21  2  0
 21 22  1  0
 22 23  2  0
 23 24  1  0
 24 25  2  0
 16 26  1  0
 26 27  2  0
 12 28  1  0
 28 29  2  0
 29  9  1  0
 27 13  1  0
 25 20  1  0
  1 30  1  0
  1 31  1  0
  1 32  1  0
  2 33  1  0
  3 34  1  0
  3 35  1  0
  4 36  1  0
  4 37  1  0
  5 38  1  0
 10 39  1  0
 11 40  1  0
 14 41  1  0
 15 42  1  0
 17 43  1  0
 17 44  1  0
 18 45  1  0
 19 46  1  0
 19 47  1  0
 21 48  1  0
 22 49  1  0
 23 50  1  0
 24 51  1  0
 25 52  1  0
 26 53  1  0
 27 54  1  0
 28 55  1  0
 29 56  1  0
M  END
>  <UniqueID>  (43) 
40

>  <SMILES>  (43) 
CNCCNS(=O)(=O)c1ccc(-c2ccc(CNCc3ccccc3)cc2)cc1

>  <Energy>  (43) 
57.28188452621976

>  <Genealogy>  (43) 
CNCCNS(=O)(=O)c1ccc(-c2ccc(CNCc3ccccc3)cc2)cc1 (3D coordinates assigned)
CNCCNS(=O)(=O)c1ccc(-c2ccc(CNCc3ccccc3)cc2)cc1 (optimized conformer: 57.28188452621976 kcal/mol)

>  <smiles>  (43) 
CNCCNS(=O)(=O)c1ccc(-c2ccc(CNCc3ccccc3)cc2)cc1

>  <score_type>  (43) 
oracle

>  <origin>  (43) 
adgpu

>  <m_score__min__energy>  (43) 
-8.5199999999999996

>  <m_primary>  (43) 
energy

$$$$
43:0
     RDKit          3D

 40 43  0  0  0  0  0  0  0  0999 V2000
   -3.1110   25.2940  -29.7260 O   0  0  0  0  0  0  0  0  0  0  0  0
   -3.1890   24.0840  -30.4040 C   0  0  0  0  0  0  0  0  0  0  0  0
   -2.1120   23.1920  -30.3680 C   0  0  0  0  0  0  0  0  0  0  0  0
   -2.1880   21.9740  -31.0490 C   0  0  0  0  0  0  0  0  0  0  0  0
   -3.3400   21.6430  -31.7850 C   0  0  0  0  0  0  0  0  0  0  0  0
   -3.4350   20.3510  -32.5000 C   0  0  0  0  0  0  0  0  0  0  0  0
   -4.5410   19.5230  -32.4850 C   0  0  0  0  0  0  0  0  0  0  0  0
   -4.1390   18.3910  -33.1780 C   0  0  0  0  0  0  0  0  0  0  0  0
   -4.9430   17.1730  -33.4420 C   0  0  0  0  0  0  0  0  0  0  0  0
   -4.5270   15.9320  -32.9230 C   0  0  0  0  0  0  0  0  0  0  0  0
   -5.2740   14.7750  -33.1640 C   0  0  0  0  0  0  0  0  0  0  0  0
   -6.4460   14.8390  -33.9250 C   0  0  0  0  0  0  0  0  0  0  0  0
   -7.1990   13.6920  -34.1710 O   0  0  0  0  0  0  0  0  0  0  0  0
   -6.8680   16.0660  -34.4460 C   0  0  0  0  0  0  0  0  0  0  0  0
   -6.1230   17.2260  -34.2080 C   0  0  0  0  0  0  0  0  0  0  0  0
   -2.8650   18.5470  -33.5900 N   0  0  0  0  0  0  0  0  0  0  0  0
   -2.4420   19.7330  -33.1840 N   0  0  0  0  0  0  0  0  0  0  0  0
   -1.1440   20.2500  -33.5260 C   0  0  0  0  0  0  0  0  0  0  0  0
   -0.9840   21.1500  -34.5950 C   0  0  0  0  0  0  0  0  0  0  0  0
    0.2860   21.6320  -34.9260 C   0  0  0  0  0  0  0  0  0  0  0  0
    1.4060   21.2080  -34.2050 C   0  0  0  0  0  0  0  0  0  0  0  0
    2.6680   21.6880  -34.5350 O   0  0  0  0  0  0  0  0  0  0  0  0
    1.2580   20.2970  -33.1550 C   0  0  0  0  0  0  0  0  0  0  0  0
   -0.0120   19.8140  -32.8210 C   0  0  0  0  0  0  0  0  0  0  0  0
   -4.4230   22.5370  -31.8010 C   0  0  0  0  0  0  0  0  0  0  0  0
   -4.3440   23.7550  -31.1180 C   0  0  0  0  0  0  0  0  0  0  0  0
   -1.2041   23.4496  -29.8029 H   0  0  0  0  0  0  0  0  0  0  0  0
   -1.3430   21.2709  -31.0092 H   0  0  0  0  0  0  0  0  0  0  0  0
   -5.5214   19.7181  -32.0259 H   0  0  0  0  0  0  0  0  0  0  0  0
   -3.6069   15.8723  -32.3231 H   0  0  0  0  0  0  0  0  0  0  0  0
   -4.9389   13.8109  -32.7537 H   0  0  0  0  0  0  0  0  0  0  0  0
   -6.9910   12.8140  -33.7100 H   0  0  0  0  0  0  0  0  0  0  0  0
   -7.7890   16.1194  -35.0451 H   0  0  0  0  0  0  0  0  0  0  0  0
   -6.4618   18.1869  -34.6226 H   0  0  0  0  0  0  0  0  0  0  0  0
   -1.8614   21.4759  -35.1728 H   0  0  0  0  0  0  0  0  0  0  0  0
    0.4040   22.3457  -35.7547 H   0  0  0  0  0  0  0  0  0  0  0  0
    2.1403   19.9598  -32.5912 H   0  0  0  0  0  0  0  0  0  0  0  0
   -0.1235   19.0887  -32.0015 H   0  0  0  0  0  0  0  0  0  0  0  0
   -5.3382   22.2780  -32.3536 H   0  0  0  0  0  0  0  0  0  0  0  0
   -5.1923   24.4548  -31.1430 H   0  0  0  0  0  0  0  0  0  0  0  0
  1  2  1  0
  2  3  2  0
  3  4  1  0
  4  5  2  0
  5  6  1  0
  6  7  2  0
  7  8  1  0
  8  9  1  0
  9 10  2  0
 10 11  1  0
 11 12  2  0
 12 13  1  0
 12 14  1  0
 14 15  2  0
  8 16  2  0
 16 17  1  0
 17 18  1  0
 18 19  2  0
 19 20  1  0
 20 21  2  0
 21 22  1  0
 21 23  1  0
 23 24  2  0
  5 25  1  0
 25 26  2  0
 26  2  1  0
 17  6  1  0
 24 18  1  0
 15  9  1  0
  3 27  1  0
  4 28  1  0
  7 29  1  0
 10 30  1  0
 11 31  1  0
 13 32  1  0
 14 33  1  0
 15 34  1  0
 19 35  1  0
 20 36  1  0
 23 37  1  0
 24 38  1  0
 25 39  1  0
 26 40  1  0
M  CHG  2   1  -1  22  -1
M  END
>  <UniqueID>  (44) 
41

>  <SMILES>  (44) 
[O-]c1ccc(-c2cc(-c3ccc(O)cc3)nn2-c2ccc([O-])cc2)cc1

>  <Energy>  (44) 
85.22631631738919

>  <Genealogy>  (44) 
[O-]c1ccc(-c2cc(-c3ccc(O)cc3)nn2-c2ccc([O-])cc2)cc1 (protonated)
[O-]c1ccc(-c2cc(-c3ccc(O)cc3)nn2-c2ccc([O-])cc2)cc1 (3D coordinates assigned)
[O-]c1ccc(-c2cc(-c3ccc(O)cc3)nn2-c2ccc([O-])cc2)cc1 (optimized conformer: 85.22631631738919 kcal/mol)

>  <smiles>  (44) 
Oc1ccc(-c2cc(-c3ccc(O)cc3)n(-c3ccc(O)cc3)n2)cc1

>  <score_type>  (44) 
oracle

>  <origin>  (44) 
adgpu

>  <m_score__min__energy>  (44) 
-8.9499999999999993

>  <m_primary>  (44) 
energy

$$$$
44:0
     RDKit          3D

 70 74  0  0  0  0  0  0  0  0999 V2000
   -3.3830   25.5570  -25.6030 C   0  0  0  0  0  0  0  0  0  0  0  0
   -2.5580   25.1900  -26.8090 C   0  0  0  0  0  0  0  0  0  0  0  0
   -3.1240   24.3510  -27.7830 C   0  0  0  0  0  0  0  0  0  0  0  0
   -2.3930   23.9800  -28.9190 C   0  0  0  0  0  0  0  0  0  0  0  0
   -3.0220   23.1510  -29.9570 C   0  0  0  0  0  0  0  0  0  0  0  0
   -2.3580   22.1750  -30.5990 N   0  0  0  0  0  0  0  0  0  0  0  0
   -3.2420   21.7200  -31.5110 C   0  0  0  0  0  0  0  0  0  0  0  0
   -2.9280   20.6400  -32.4690 C   0  0  0  0  0  0  0  0  0  0  0  0
   -1.6320   20.5100  -32.9900 C   0  0  0  0  0  0  0  0  0  0  0  0
   -1.3240   19.4660  -33.8640 C   0  0  0  0  0  0  0  0  0  0  0  0
   -2.3090   18.5540  -34.2400 C   0  0  0  0  0  0  0  0  0  0  0  0
   -3.6150   18.6850  -33.7500 C   0  0  0  0  0  0  0  0  0  0  0  0
   -4.8760   17.5800  -34.2980 S   0  0  0  0  0  0  0  0  0  0  0  0
   -4.7950   17.4370  -35.7940 O   0  0  0  0  0  0  0  0  0  0  0  0
   -4.6300   16.2270  -33.6870 O   0  0  0  0  0  0  0  0  0  0  0  0
   -6.4580   18.1690  -33.8260 N   0  0  0  0  0  0  0  0  0  0  0  0
   -6.5170   19.6410  -34.0060 C   0  0  0  0  0  0  0  0  0  0  0  0
   -7.5880   20.2730  -33.1030 C   0  0  0  0  0  0  0  0  0  0  0  0
   -7.3100   20.0480  -31.6710 N   0  0  0  0  0  0  0  0  0  0  0  0
   -6.5300   18.8260  -31.4030 C   0  0  0  0  0  0  0  0  0  0  0  0
   -6.8040   17.7300  -32.4490 C   0  0  0  0  0  0  0  0  0  0  0  0
   -3.9180   19.7250  -32.8600 C   0  0  0  0  0  0  0  0  0  0  0  0
   -4.4320   22.3560  -31.4730 N   0  0  0  0  0  0  0  0  0  0  0  0
   -4.2980   23.2610  -30.4860 C   0  0  0  0  0  0  0  0  0  0  0  0
   -5.4440   24.1380  -30.0330 C   0  0  0  0  0  0  0  0  0  0  0  0
   -6.8060   23.5870  -30.4640 C   0  0  0  0  0  0  0  0  0  0  0  0
   -5.2590   25.5880  -30.4890 C   0  0  0  0  0  0  0  0  0  0  0  0
   -1.1100   24.5020  -29.1200 C   0  0  0  0  0  0  0  0  0  0  0  0
   -0.5280   25.3280  -28.1550 C   0  0  0  0  0  0  0  0  0  0  0  0
   -1.2290   25.6570  -26.9820 C   0  0  0  0  0  0  0  0  0  0  0  0
   -0.5570   26.4900  -25.9620 C   0  0  0  0  0  0  0  0  0  0  0  0
   -0.2700   27.8380  -26.2270 C   0  0  0  0  0  0  0  0  0  0  0  0
    0.3570   28.6300  -25.2610 C   0  0  0  0  0  0  0  0  0  0  0  0
    0.7130   28.0860  -24.0150 C   0  0  0  0  0  0  0  0  0  0  0  0
    1.3930   28.9220  -22.9990 C   0  0  0  0  0  0  0  0  0  0  0  0
    1.3730   28.5950  -21.7820 O   0  0  0  0  0  0  0  0  0  0  0  0
    2.0780   30.0710  -23.3770 O   0  0  0  0  0  0  0  0  0  0  0  0
    0.4290   26.7320  -23.7560 C   0  0  0  0  0  0  0  0  0  0  0  0
   -0.1960   25.9390  -24.7220 C   0  0  0  0  0  0  0  0  0  0  0  0
   -2.8253   25.3089  -24.6879 H   0  0  0  0  0  0  0  0  0  0  0  0
   -3.5980   26.6356  -25.6203 H   0  0  0  0  0  0  0  0  0  0  0  0
   -4.3281   24.9944  -25.6203 H   0  0  0  0  0  0  0  0  0  0  0  0
   -4.1518   23.9815  -27.6524 H   0  0  0  0  0  0  0  0  0  0  0  0
   -0.8541   21.2348  -32.7082 H   0  0  0  0  0  0  0  0  0  0  0  0
   -0.3018   19.3627  -34.2569 H   0  0  0  0  0  0  0  0  0  0  0  0
   -2.0601   17.7289  -34.9236 H   0  0  0  0  0  0  0  0  0  0  0  0
   -7.1490   17.7360  -34.4830 H   0  0  0  0  0  0  0  0  0  0  0  0
   -5.5367   20.0721  -33.7544 H   0  0  0  0  0  0  0  0  0  0  0  0
   -6.7784   19.8518  -35.0535 H   0  0  0  0  0  0  0  0  0  0  0  0
   -7.6177   21.3561  -33.2926 H   0  0  0  0  0  0  0  0  0  0  0  0
   -8.5525   19.7999  -33.3393 H   0  0  0  0  0  0  0  0  0  0  0  0
   -6.7630   20.8620  -31.3070 H   0  0  0  0  0  0  0  0  0  0  0  0
   -5.4590   19.0762  -31.4221 H   0  0  0  0  0  0  0  0  0  0  0  0
   -6.8291   18.4396  -30.4175 H   0  0  0  0  0  0  0  0  0  0  0  0
   -6.2034   16.8432  -32.1985 H   0  0  0  0  0  0  0  0  0  0  0  0
   -7.8803   17.5038  -32.4271 H   0  0  0  0  0  0  0  0  0  0  0  0
   -4.9398   19.8247  -32.4650 H   0  0  0  0  0  0  0  0  0  0  0  0
   -5.4302   24.1289  -28.9331 H   0  0  0  0  0  0  0  0  0  0  0  0
   -7.4028   23.3456  -29.5721 H   0  0  0  0  0  0  0  0  0  0  0  0
   -7.3337   24.3424  -31.0648 H   0  0  0  0  0  0  0  0  0  0  0  0
   -6.6600   22.6772  -31.0648 H   0  0  0  0  0  0  0  0  0  0  0  0
   -5.1756   26.2416  -29.6082 H   0  0  0  0  0  0  0  0  0  0  0  0
   -4.3433   25.6684  -31.0932 H   0  0  0  0  0  0  0  0  0  0  0  0
   -6.1252   25.8957  -31.0932 H   0  0  0  0  0  0  0  0  0  0  0  0
   -0.5581   24.2612  -30.0406 H   0  0  0  0  0  0  0  0  0  0  0  0
    0.4859   25.7236  -28.3144 H   0  0  0  0  0  0  0  0  0  0  0  0
   -0.5400   28.2736  -27.2003 H   0  0  0  0  0  0  0  0  0  0  0  0
    0.5733   29.6866  -25.4775 H   0  0  0  0  0  0  0  0  0  0  0  0
    0.7015   26.2941  -22.7844 H   0  0  0  0  0  0  0  0  0  0  0  0
   -0.4058   24.8801  -24.5104 H   0  0  0  0  0  0  0  0  0  0  0  0
  1  2  1  0
  2  3  2  0
  3  4  1  0
  4  5  1  0
  5  6  1  0
  6  7  2  0
  7  8  1  0
  8  9  2  0
  9 10  1  0
 10 11  2  0
 11 12  1  0
 12 13  1  0
 13 14  2  0
 13 15  2  0
 13 16  1  0
 16 17  1  0
 17 18  1  0
 18 19  1  0
 19 20  1  0
 20 21  1  0
 12 22  2  0
  7 23  1  0
 23 24  1  0
 24 25  1  0
 25 26  1  0
 25 27  1  0
  4 28  2  0
 28 29  1  0
 29 30  2  0
 30 31  1  0
 31 32  2  0
 32 33  1  0
 33 34  2  0
 34 35  1  0
 35 36  2  0
 35 37  1  0
 34 38  1  0
 38 39  2  0
 30  2  1  0
 39 31  1  0
 24  5  2  0
 22  8  1  0
 21 16  1  0
  1 40  1  0
  1 41  1  0
  1 42  1  0
  3 43  1  0
  9 44  1  0
 10 45  1  0
 11 46  1  0
 16 47  1  0
 17 48  1  0
 17 49  1  0
 18 50  1  0
 18 51  1  0
 19 52  1  0
 20 53  1  0
 20 54  1  0
 21 55  1  0
 21 56  1  0
 22 57  1  0
 25 58  1  0
 26 59  1  0
 26 60  1  0
 26 61  1  0
 27 62  1  0
 27 63  1  0
 27 64  1  0
 28 65  1  0
 29 66  1  0
 32 67  1  0
 33 68  1  0
 38 69  1  0
 39 70  1  0
M  CHG  3  16   1  23  -1  37  -1
M  END
>  <UniqueID>  (45) 
42

>  <SMILES>  (45) 
Cc1cc(-c2nc(-c3cccc(S(=O)(=O)[NH+]4CCNCC4)c3)[n-]c2C(C)C)ccc1-c1ccc(C(=O)[O-])cc1

>  <Energy>  (45) 
124.6848222606115

>  <Genealogy>  (45) 
Cc1cc(-c2nc(-c3cccc(S(=O)(=O)[NH+]4CCNCC4)c3)[n-]c2C(C)C)ccc1-c1ccc(C(=O)[O-])cc1 (protonated)
Cc1cc(-c2nc(-c3cccc(S(=O)(=O)[NH+]4CCNCC4)c3)[n-]c2C(C)C)ccc1-c1ccc(C(=O)[O-])cc1 (3D coordinates assigned)
Cc1cc(-c2nc(-c3cccc(S(=O)(=O)[NH+]4CCNCC4)c3)[n-]c2C(C)C)ccc1-c1ccc(C(=O)[O-])cc1 (nonaromatic ring conformer: 124.6848222606115 kcal/mol)

>  <smiles>  (45) 
Cc1cc(-c2nc(-c3cccc(S(=O)(=O)N4CCNCC4)c3)[nH]c2C(C)C)ccc1-c1ccc(C(=O)O)cc1

>  <score_type>  (45) 
oracle

>  <origin>  (45) 
adgpu

>  <m_score__min__energy>  (45) 
-9.9800000000000004

>  <m_primary>  (45) 
energy

$$$$
45:0
     RDKit          3D

 48 51  0  0  0  0  0  0  0  0999 V2000
   -2.7030   18.9730  -26.6560 C   0  0  0  0  0  0  0  0  0  0  0  0
   -2.4240   20.0430  -27.7090 C   0  0  0  0  0  0  0  0  0  0  0  0
   -3.4560   21.1730  -27.6400 C   0  0  0  0  0  0  0  0  0  0  0  0
   -2.8370   22.4520  -28.0200 N   0  0  0  0  0  0  0  0  0  0  0  0
   -1.7590   22.9700  -27.3300 C   0  0  0  0  0  0  0  0  0  0  0  0
   -1.2630   22.3390  -26.3560 O   0  0  0  0  0  0  0  0  0  0  0  0
   -1.2160   24.1780  -27.6920 N   0  0  0  0  0  0  0  0  0  0  0  0
   -1.7280   24.9060  -28.7280 C   0  0  0  0  0  0  0  0  0  0  0  0
   -1.2240   26.0140  -29.0530 O   0  0  0  0  0  0  0  0  0  0  0  0
   -2.8200   24.3880  -29.4040 C   0  0  0  0  0  0  0  0  0  0  0  0
   -3.4970   24.9090  -30.4380 N   0  0  0  0  0  0  0  0  0  0  0  0
   -4.4540   23.9670  -30.6540 C   0  0  0  0  0  0  0  0  0  0  0  0
   -5.4430   24.0650  -31.7700 C   0  0  0  0  0  0  0  0  0  0  0  0
   -6.4820   22.9870  -31.6290 C   0  0  0  0  0  0  0  0  0  0  0  0
   -7.7600   23.2950  -31.1400 C   0  0  0  0  0  0  0  0  0  0  0  0
   -8.7110   22.2870  -30.9740 C   0  0  0  0  0  0  0  0  0  0  0  0
   -8.3900   20.9620  -31.2760 C   0  0  0  0  0  0  0  0  0  0  0  0
   -7.1040   20.6280  -31.7380 C   0  0  0  0  0  0  0  0  0  0  0  0
   -6.7520   19.2260  -32.0680 C   0  0  0  0  0  0  0  0  0  0  0  0
   -7.4710   18.2950  -31.6130 O   0  0  0  0  0  0  0  0  0  0  0  0
   -5.5840   18.8800  -32.9150 C   0  0  0  0  0  0  0  0  0  0  0  0
   -4.2870   19.3070  -32.5710 C   0  0  0  0  0  0  0  0  0  0  0  0
   -3.1980   18.9890  -33.3870 C   0  0  0  0  0  0  0  0  0  0  0  0
   -3.3900   18.2520  -34.5580 C   0  0  0  0  0  0  0  0  0  0  0  0
   -4.6750   17.8370  -34.9190 C   0  0  0  0  0  0  0  0  0  0  0  0
   -5.7680   18.1540  -34.1050 C   0  0  0  0  0  0  0  0  0  0  0  0
   -6.1580   21.6510  -31.9230 C   0  0  0  0  0  0  0  0  0  0  0  0
   -4.3930   22.8910  -29.8240 N   0  0  0  0  0  0  0  0  0  0  0  0
   -3.3460   23.1980  -29.0420 C   0  0  0  0  0  0  0  0  0  0  0  0
   -2.5895   19.4081  -25.6521 H   0  0  0  0  0  0  0  0  0  0  0  0
   -3.7293   18.5966  -26.7787 H   0  0  0  0  0  0  0  0  0  0  0  0
   -1.9911   18.1434  -26.7787 H   0  0  0  0  0  0  0  0  0  0  0  0
   -1.4215   20.4621  -27.5374 H   0  0  0  0  0  0  0  0  0  0  0  0
   -2.4853   19.5765  -28.7033 H   0  0  0  0  0  0  0  0  0  0  0  0
   -4.2839   20.9513  -28.3295 H   0  0  0  0  0  0  0  0  0  0  0  0
   -3.8345   21.2501  -26.6101 H   0  0  0  0  0  0  0  0  0  0  0  0
   -0.3950   24.5530  -27.1610 H   0  0  0  0  0  0  0  0  0  0  0  0
   -5.9324   25.0496  -31.7383 H   0  0  0  0  0  0  0  0  0  0  0  0
   -4.9198   23.9406  -32.7296 H   0  0  0  0  0  0  0  0  0  0  0  0
   -8.0137   24.3349  -30.8864 H   0  0  0  0  0  0  0  0  0  0  0  0
   -9.7163   22.5371  -30.6042 H   0  0  0  0  0  0  0  0  0  0  0  0
   -9.1477   20.1743  -31.1518 H   0  0  0  0  0  0  0  0  0  0  0  0
   -4.1301   19.8945  -31.6543 H   0  0  0  0  0  0  0  0  0  0  0  0
   -2.1871   19.3199  -33.1065 H   0  0  0  0  0  0  0  0  0  0  0  0
   -2.5304   17.9984  -35.1957 H   0  0  0  0  0  0  0  0  0  0  0  0
   -4.8271   17.2608  -35.8436 H   0  0  0  0  0  0  0  0  0  0  0  0
   -6.7785   17.8330  -34.3981 H   0  0  0  0  0  0  0  0  0  0  0  0
   -5.1551   21.4040  -32.3013 H   0  0  0  0  0  0  0  0  0  0  0  0
  1  2  1  0
  2  3  1  0
  3  4  1  0
  4  5  1  0
  5  6  2  0
  5  7  1  0
  7  8  1  0
  8  9  2  0
  8 10  1  0
 10 11  1  0
 11 12  1  0
 12 13  1  0
 13 14  1  0
 14 15  2  0
 15 16  1  0
 16 17  2  0
 17 18  1  0
 18 19  1  0
 19 20  2  0
 19 21  1  0
 21 22  2  0
 22 23  1  0
 23 24  2  0
 24 25  1  0
 25 26  2  0
 18 27  2  0
 12 28  2  0
 28 29  1  0
 29  4  1  0
 29 10  2  0
 27 14  1  0
 26 21  1  0
  1 30  1  0
  1 31  1  0
  1 32  1  0
  2 33  1  0
  2 34  1  0
  3 35  1  0
  3 36  1  0
  7 37  1  0
 13 38  1  0
 13 39  1  0
 15 40  1  0
 16 41  1  0
 17 42  1  0
 22 43  1  0
 23 44  1  0
 24 45  1  0
 25 46  1  0
 26 47  1  0
 27 48  1  0
M  CHG  1  11  -1
M  END
>  <UniqueID>  (46) 
43

>  <SMILES>  (46) 
CCCn1c(=O)[nH]c(=O)c2[n-]c(Cc3cccc(C(=O)c4ccccc4)c3)nc21

>  <Energy>  (46) 
90.55641877417166

>  <Genealogy>  (46) 
CCCn1c(=O)[nH]c(=O)c2[n-]c(Cc3cccc(C(=O)c4ccccc4)c3)nc21 (protonated)
CCCn1c(=O)[nH]c(=O)c2[n-]c(Cc3cccc(C(=O)c4ccccc4)c3)nc21 (3D coordinates assigned)
CCCn1c(=O)[nH]c(=O)c2[n-]c(Cc3cccc(C(=O)c4ccccc4)c3)nc21 (optimized conformer: 90.55641877417166 kcal/mol)

>  <smiles>  (46) 
CCCn1c(=O)[nH]c(=O)c2[nH]c(Cc3cccc(C(=O)c4ccccc4)c3)nc21

>  <score_type>  (46) 
oracle

>  <origin>  (46) 
adgpu

>  <m_score__min__energy>  (46) 
-10.6

>  <m_primary>  (46) 
energy

$$$$
46:0
     RDKit          3D

 44 46  0  0  0  0  0  0  0  0999 V2000
   -7.6070   14.0060  -35.0410 C   0  0  0  0  0  0  0  0  0  0  0  0
   -6.8060   14.3110  -33.9040 O   0  0  0  0  0  0  0  0  0  0  0  0
   -6.2140   15.5590  -33.6640 C   0  0  0  0  0  0  0  0  0  0  0  0
   -5.3760   15.7980  -32.5590 C   0  0  0  0  0  0  0  0  0  0  0  0
   -4.8080   17.0610  -32.3640 C   0  0  0  0  0  0  0  0  0  0  0  0
   -5.0690   18.1010  -33.2680 C   0  0  0  0  0  0  0  0  0  0  0  0
   -4.4670   19.4420  -33.0610 C   0  0  0  0  0  0  0  0  0  0  0  0
   -3.0720   19.6280  -33.2000 C   0  0  0  0  0  0  0  0  0  0  0  0
   -2.2070   18.5290  -33.5720 C   0  0  0  0  0  0  0  0  0  0  0  0
   -1.5150   17.6500  -33.8690 N   0  0  0  0  0  0  0  0  0  0  0  0
   -2.5230   20.9050  -33.0020 C   0  0  0  0  0  0  0  0  0  0  0  0
   -1.1090   21.1090  -33.1420 N   0  0  0  0  0  0  0  0  0  0  0  0
   -0.4010   21.2450  -34.3800 C   0  0  0  0  0  0  0  0  0  0  0  0
   -0.3570   20.0940  -35.3280 C   0  0  0  0  0  0  0  0  0  0  0  0
    0.2270   22.3030  -34.6570 O   0  0  0  0  0  0  0  0  0  0  0  0
   -3.3380   21.9450  -32.6820 N   0  0  0  0  0  0  0  0  0  0  0  0
   -4.6790   21.8050  -32.5340 C   0  0  0  0  0  0  0  0  0  0  0  0
   -5.6410   23.2560  -32.0850 S   0  0  0  0  0  0  0  0  0  0  0  0
   -4.7080   23.5180  -30.5760 C   0  0  0  0  0  0  0  0  0  0  0  0
   -4.9750   22.7460  -29.4390 C   0  0  0  0  0  0  0  0  0  0  0  0
   -4.2410   22.9470  -28.2660 C   0  0  0  0  0  0  0  0  0  0  0  0
   -3.2410   23.9230  -28.2260 C   0  0  0  0  0  0  0  0  0  0  0  0
   -2.9750   24.7010  -29.3590 C   0  0  0  0  0  0  0  0  0  0  0  0
   -1.9820   25.6730  -29.3180 O   0  0  0  0  0  0  0  0  0  0  0  0
   -3.7090   24.5000  -30.5320 C   0  0  0  0  0  0  0  0  0  0  0  0
   -5.2790   20.5480  -32.7230 C   0  0  0  0  0  0  0  0  0  0  0  0
   -6.7070   20.3940  -32.5520 C   0  0  0  0  0  0  0  0  0  0  0  0
   -7.8500   20.2700  -32.4150 N   0  0  0  0  0  0  0  0  0  0  0  0
   -5.9040   17.8630  -34.3690 C   0  0  0  0  0  0  0  0  0  0  0  0
   -6.4720   16.6010  -34.5630 C   0  0  0  0  0  0  0  0  0  0  0  0
   -8.5872   13.6328  -34.7095 H   0  0  0  0  0  0  0  0  0  0  0  0
   -7.7459   14.9142  -35.6459 H   0  0  0  0  0  0  0  0  0  0  0  0
   -7.1067   13.2355  -35.6459 H   0  0  0  0  0  0  0  0  0  0  0  0
   -5.1667   14.9876  -31.8453 H   0  0  0  0  0  0  0  0  0  0  0  0
   -4.1538   17.2395  -31.4979 H   0  0  0  0  0  0  0  0  0  0  0  0
   -0.3210   19.1525  -34.7602 H   0  0  0  0  0  0  0  0  0  0  0  0
   -1.2563   20.1061  -35.9614 H   0  0  0  0  0  0  0  0  0  0  0  0
    0.5387   20.1747  -35.9614 H   0  0  0  0  0  0  0  0  0  0  0  0
   -5.7637   21.9798  -29.4685 H   0  0  0  0  0  0  0  0  0  0  0  0
   -4.4504   22.3372  -27.3748 H   0  0  0  0  0  0  0  0  0  0  0  0
   -2.6627   24.0798  -27.3035 H   0  0  0  0  0  0  0  0  0  0  0  0
   -3.5021   25.1134  -31.4214 H   0  0  0  0  0  0  0  0  0  0  0  0
   -6.1129   18.6732  -35.0831 H   0  0  0  0  0  0  0  0  0  0  0  0
   -7.1271   16.4248  -35.4289 H   0  0  0  0  0  0  0  0  0  0  0  0
  1  2  1  0
  2  3  1  0
  3  4  2  0
  4  5  1  0
  5  6  2  0
  6  7  1  0
  7  8  2  0
  8  9  1  0
  9 10  3  0
  8 11  1  0
 11 12  1  0
 12 13  1  0
 13 14  1  0
 13 15  2  0
 11 16  2  0
 16 17  1  0
 17 18  1  0
 18 19  1  0
 19 20  2  0
 20 21  1  0
 21 22  2  0
 22 23  1  0
 23 24  1  0
 23 25  2  0
 17 26  2  0
 26 27  1  0
 27 28  3  0
  6 29  1  0
 29 30  2  0
 30  3  1  0
 26  7  1  0
 25 19  1  0
  1 31  1  0
  1 32  1  0
  1 33  1  0
  4 34  1  0
  5 35  1  0
 14 36  1  0
 14 37  1  0
 14 38  1  0
 20 39  1  0
 21 40  1  0
 22 41  1  0
 25 42  1  0
 29 43  1  0
 30 44  1  0
M  CHG  2  12  -1  24  -1
M  END
>  <UniqueID>  (47) 
44

>  <SMILES>  (47) 
COc1ccc(-c2c(C#N)c([N-]C(C)=O)nc(Sc3cccc([O-])c3)c2C#N)cc1

>  <Energy>  (47) 
50.10200060668665

>  <Genealogy>  (47) 
COc1ccc(-c2c(C#N)c([N-]C(C)=O)nc(Sc3cccc([O-])c3)c2C#N)cc1 (protonated)
COc1ccc(-c2c(C#N)c([N-]C(C)=O)nc(Sc3cccc([O-])c3)c2C#N)cc1 (3D coordinates assigned)
COc1ccc(-c2c(C#N)c([N-]C(C)=O)nc(Sc3cccc([O-])c3)c2C#N)cc1 (optimized conformer: 50.10200060668665 kcal/mol)

>  <smiles>  (47) 
COc1ccc(-c2c(C#N)c(NC(C)=O)nc(Sc3cccc(O)c3)c2C#N)cc1

>  <score_type>  (47) 
oracle

>  <origin>  (47) 
adgpu

>  <m_score__min__energy>  (47) 
-12.6

>  <m_primary>  (47) 
energy

$$$$
47:0
     RDKit          3D

 41 44  0  0  0  0  0  0  0  0999 V2000
   -1.9753   22.2585  -32.6613 H   0  0  0  0  0  0  0  0  0  0  0  0
   -2.9520   21.7750  -32.5120 C   0  0  0  0  0  0  0  0  0  0  0  0
   -3.8640   21.7610  -33.5200 N   0  0  0  0  0  0  0  0  0  0  0  0
   -5.0790   21.1670  -33.3760 C   0  0  0  0  0  0  0  0  0  0  0  0
   -5.7968   21.1794  -34.2094 H   0  0  0  0  0  0  0  0  0  0  0  0
   -5.4210   20.5380  -32.1680 C   0  0  0  0  0  0  0  0  0  0  0  0
   -6.7270   19.8520  -32.0190 C   0  0  0  0  0  0  0  0  0  0  0  0
   -7.9470   20.5610  -31.8740 C   0  0  0  0  0  0  0  0  0  0  0  0
   -7.9970   21.9600  -31.7720 O   0  0  0  0  0  0  0  0  0  0  0  0
   -6.9740   22.7640  -31.2480 C   0  0  0  0  0  0  0  0  0  0  0  0
   -6.4250   23.7660  -32.0560 C   0  0  0  0  0  0  0  0  0  0  0  0
   -6.8346   23.9433  -33.0614 H   0  0  0  0  0  0  0  0  0  0  0  0
   -5.3590   24.5430  -31.5930 C   0  0  0  0  0  0  0  0  0  0  0  0
   -4.9395   25.3345  -32.2314 H   0  0  0  0  0  0  0  0  0  0  0  0
   -4.8240   24.3170  -30.3200 C   0  0  0  0  0  0  0  0  0  0  0  0
   -3.7270   25.1230  -29.8640 N   0  0  0  0  0  0  0  0  0  0  0  0
   -2.6300   24.7040  -29.2970 C   0  0  0  0  0  0  0  0  0  0  0  0
   -1.7360   25.6300  -28.8530 N   0  0  0  0  0  0  0  0  0  0  0  0
   -0.5610   25.2820  -28.2620 C   0  0  0  0  0  0  0  0  0  0  0  0
    0.1305   26.0622  -27.9111 H   0  0  0  0  0  0  0  0  0  0  0  0
   -0.2330   23.9350  -28.1010 C   0  0  0  0  0  0  0  0  0  0  0  0
    0.7127   23.6468  -27.6188 H   0  0  0  0  0  0  0  0  0  0  0  0
   -1.1170   22.9590  -28.5580 C   0  0  0  0  0  0  0  0  0  0  0  0
   -0.8684   21.8937  -28.4420 H   0  0  0  0  0  0  0  0  0  0  0  0
   -2.3180   23.3340  -29.1630 C   0  0  0  0  0  0  0  0  0  0  0  0
   -3.0156   22.5679  -29.5323 H   0  0  0  0  0  0  0  0  0  0  0  0
   -5.4220   23.3660  -29.4780 C   0  0  0  0  0  0  0  0  0  0  0  0
   -5.0471   23.2282  -28.4531 H   0  0  0  0  0  0  0  0  0  0  0  0
   -6.4920   22.5940  -29.9380 C   0  0  0  0  0  0  0  0  0  0  0  0
   -6.9584   21.8515  -29.2738 H   0  0  0  0  0  0  0  0  0  0  0  0
   -9.1210   19.8750  -31.8440 N   0  0  0  0  0  0  0  0  0  0  0  0
   -9.1710   18.5200  -31.9080 C   0  0  0  0  0  0  0  0  0  0  0  0
  -10.1424   18.0045  -31.8817 H   0  0  0  0  0  0  0  0  0  0  0  0
   -7.9940   17.7810  -32.0070 C   0  0  0  0  0  0  0  0  0  0  0  0
   -8.0288   16.6820  -32.0398 H   0  0  0  0  0  0  0  0  0  0  0  0
   -6.7720   18.4490  -32.0640 C   0  0  0  0  0  0  0  0  0  0  0  0
   -5.8377   17.8741  -32.1447 H   0  0  0  0  0  0  0  0  0  0  0  0
   -4.4950   20.5630  -31.1130 C   0  0  0  0  0  0  0  0  0  0  0  0
   -4.7482   20.0988  -30.1484 H   0  0  0  0  0  0  0  0  0  0  0  0
   -3.2540   21.1760  -31.2870 C   0  0  0  0  0  0  0  0  0  0  0  0
   -2.5205   21.1875  -30.4674 H   0  0  0  0  0  0  0  0  0  0  0  0
  1  2  1  0
  2  3  2  0
  3  4  1  0
  4  5  1  0
  4  6  2  0
  6  7  1  0
  7  8  1  0
  8  9  1  0
  9 10  1  0
 10 11  2  0
 11 12  1  0
 11 13  1  0
 13 14  1  0
 13 15  2  0
 15 16  1  0
 16 17  2  0
 17 18  1  0
 18 19  1  0
 19 20  1  0
 19 21  2  0
 21 22  1  0
 21 23  1  0
 23 24  1  0
 23 25  2  0
 25 26  1  0
 15 27  1  0
 27 28  1  0
 27 29  2  0
 29 30  1  0
  8 31  2  0
 31 32  1  0
 32 33  1  0
 32 34  2  0
 34 35  1  0
 34 36  1  0
 36 37  1  0
  6 38  1  0
 38 39  1  0
 38 40  2  0
 40 41  1  0
 40  2  1  0
 36  7  2  0
 29 10  1  0
 25 17  1  0
M  CHG  1  18  -1
M  END
>  <UniqueID>  (48) 
45

>  <SMILES>  (48) 
c1cc/c(=N\c2ccc(Oc3ncccc3-c3cccnc3)cc2)[n-]c1

>  <Energy>  (48) 
69.82739822972903

>  <Genealogy>  (48) 
c1ccc(=Nc2ccc(Oc3ncccc3-c3cccnc3)cc2)[n-]c1 (protonated)
c1cc/c(=N\c2ccc(Oc3ncccc3-c3cccnc3)cc2)[n-]c1 (cis-trans isomerization)
c1cc/c(=N\c2ccc(Oc3ncccc3-c3cccnc3)cc2)[n-]c1 (3D coordinates assigned)
c1cc/c(=N\c2ccc(Oc3ncccc3-c3cccnc3)cc2)[n-]c1 (optimized conformer: 69.82739822972903 kcal/mol)

>  <smiles>  (48) 
c1ccc(=Nc2ccc(Oc3ncccc3-c3cccnc3)cc2)[nH]c1

>  <score_type>  (48) 
oracle

>  <origin>  (48) 
adgpu

>  <m_score__min__energy>  (48) 
-10.359999999999999

>  <m_primary>  (48) 
energy

$$$$
48:0
     RDKit          3D

 48 51  0  0  0  0  0  0  0  0999 V2000
   -0.9240   22.8867  -28.0541 H   0  0  0  0  0  0  0  0  0  0  0  0
   -1.6930   22.8560  -28.8400 C   0  0  0  0  0  0  0  0  0  0  0  0
   -2.1840   21.6310  -29.3100 C   0  0  0  0  0  0  0  0  0  0  0  0
   -1.7300   20.3760  -28.7730 N   0  0  0  0  0  0  0  0  0  0  0  0
   -2.2340   19.6570  -27.6620 C   0  0  0  0  0  0  0  0  0  0  0  0
   -3.1960   20.0370  -26.9450 O   0  0  0  0  0  0  0  0  0  0  0  0
   -1.5080   18.5200  -27.4000 O   0  0  0  0  0  0  0  0  0  0  0  0
   -0.4430   18.4070  -28.3380 C   0  0  0  0  0  0  0  0  0  0  0  0
   -0.5619   17.4983  -28.9464 H   0  0  0  0  0  0  0  0  0  0  0  0
    0.5339   18.3335  -27.8378 H   0  0  0  0  0  0  0  0  0  0  0  0
   -0.5370   19.6690  -29.2280 C   0  0  0  0  0  0  0  0  0  0  0  0
   -0.6370   19.3869  -30.2865 H   0  0  0  0  0  0  0  0  0  0  0  0
    0.3645   20.2942  -29.1480 H   0  0  0  0  0  0  0  0  0  0  0  0
   -3.1410   21.6300  -30.2760 N   0  0  0  0  0  0  0  0  0  0  0  0
   -3.6200   22.7850  -30.8100 C   0  0  0  0  0  0  0  0  0  0  0  0
   -4.5100   22.7720  -31.7590 N   0  0  0  0  0  0  0  0  0  0  0  0
   -5.1670   21.6160  -32.3080 C   0  0  0  0  0  0  0  0  0  0  0  0
   -4.5210   20.7460  -33.2080 C   0  0  0  0  0  0  0  0  0  0  0  0
   -3.4913   20.9582  -33.5316 H   0  0  0  0  0  0  0  0  0  0  0  0
   -5.1830   19.6150  -33.6910 C   0  0  0  0  0  0  0  0  0  0  0  0
   -4.6781   18.9467  -34.4040 H   0  0  0  0  0  0  0  0  0  0  0  0
   -6.4850   19.3300  -33.2710 C   0  0  0  0  0  0  0  0  0  0  0  0
   -7.0050   18.4416  -33.6587 H   0  0  0  0  0  0  0  0  0  0  0  0
   -7.1290   20.1740  -32.3570 C   0  0  0  0  0  0  0  0  0  0  0  0
   -8.7550   19.7980  -31.7980 S   0  0  0  0  0  0  0  0  0  0  0  0
   -9.1390   20.7330  -30.6850 O   0  0  0  0  0  0  0  0  0  0  0  0
   -9.7340   19.9660  -32.9270 O   0  0  0  0  0  0  0  0  0  0  0  0
   -8.8110   18.1680  -31.2270 N   0  0  0  0  0  0  0  0  0  0  0  0
   -9.7330   18.0420  -30.7530 H   0  0  0  0  0  0  0  0  0  0  0  0
   -8.0780   18.0790  -30.4870 H   0  0  0  0  0  0  0  0  0  0  0  0
   -6.4600   21.3050  -31.8670 C   0  0  0  0  0  0  0  0  0  0  0  0
   -6.9550   21.9540  -31.1296 H   0  0  0  0  0  0  0  0  0  0  0  0
   -3.1330   23.9750  -30.3760 N   0  0  0  0  0  0  0  0  0  0  0  0
   -2.2000   24.0430  -29.3900 C   0  0  0  0  0  0  0  0  0  0  0  0
   -1.7120   25.3300  -28.9790 N   0  0  0  0  0  0  0  0  0  0  0  0
   -1.5910   26.0580  -29.7190 H   0  0  0  0  0  0  0  0  0  0  0  0
   -1.3890   25.6860  -27.6230 C   0  0  0  0  0  0  0  0  0  0  0  0
   -2.1920   25.2660  -26.5470 C   0  0  0  0  0  0  0  0  0  0  0  0
   -3.0732   24.6351  -26.7351 H   0  0  0  0  0  0  0  0  0  0  0  0
   -1.8750   25.6470  -25.2390 C   0  0  0  0  0  0  0  0  0  0  0  0
   -2.4991   25.3040  -24.4007 H   0  0  0  0  0  0  0  0  0  0  0  0
   -0.7650   26.4640  -24.9950 C   0  0  0  0  0  0  0  0  0  0  0  0
   -0.4400   26.8560  -23.6490 C   0  0  0  0  0  0  0  0  0  0  0  0
   -0.1780   27.1730  -22.5660 N   0  0  0  0  0  0  0  0  0  0  0  0
    0.0230   26.9060  -26.0650 C   0  0  0  0  0  0  0  0  0  0  0  0
    0.8918   27.5538  -25.8764 H   0  0  0  0  0  0  0  0  0  0  0  0
   -0.2930   26.5250  -27.3730 C   0  0  0  0  0  0  0  0  0  0  0  0
    0.3217   26.8855  -28.2109 H   0  0  0  0  0  0  0  0  0  0  0  0
  1  2  1  0
  2  3  1  0
  3  4  1  0
  4  5  1  0
  5  6  2  0
  5  7  1  0
  7  8  1  0
  8  9  1  0
  8 10  1  0
  8 11  1  0
 11 12  1  0
 11 13  1  0
  3 14  2  0
 14 15  1  0
 15 16  2  0
 16 17  1  0
 17 18  2  0
 18 19  1  0
 18 20  1  0
 20 21  1  0
 20 22  2  0
 22 23  1  0
 22 24  1  0
 24 25  1  0
 25 26  2  0
 25 27  2  0
 25 28  1  0
 28 29  1  0
 28 30  1  0
 24 31  2  0
 31 32  1  0
 15 33  1  0
 33 34  1  0
 34 35  1  0
 35 36  1  0
 35 37  1  0
 37 38  2  0
 38 39  1  0
 38 40  1  0
 40 41  1  0
 40 42  2  0
 42 43  1  0
 43 44  3  0
 42 45  1  0
 45 46  1  0
 45 47  2  0
 47 48  1  0
 34  2  2  0
 47 37  1  0
 11  4  1  0
 31 17  1  0
M  CHG  1  33  -1
M  END
>  <UniqueID>  (49) 
46

>  <SMILES>  (49) 
N#Cc1ccc(Nc2cc(N3CCOC3=O)n/c(=N\c3cccc(S(N)(=O)=O)c3)[n-]2)cc1

>  <Energy>  (49) 
78.64357811080755

>  <Genealogy>  (49) 
N#Cc1ccc(Nc2cc(N3CCOC3=O)nc(=Nc3cccc(S(N)(=O)=O)c3)[n-]2)cc1 (protonated)
N#Cc1ccc(Nc2cc(N3CCOC3=O)n/c(=N\c3cccc(S(N)(=O)=O)c3)[n-]2)cc1 (cis-trans isomerization)
N#Cc1ccc(Nc2cc(N3CCOC3=O)n/c(=N\c3cccc(S(N)(=O)=O)c3)[n-]2)cc1 (3D coordinates assigned)
N#Cc1ccc(Nc2cc(N3CCOC3=O)n/c(=N\c3cccc(S(N)(=O)=O)c3)[n-]2)cc1 (nonaromatic ring conformer: 78.64357811080755 kcal/mol)

>  <smiles>  (49) 
N#Cc1ccc(Nc2cc(N3CCOC3=O)nc(=Nc3cccc(S(N)(=O)=O)c3)[nH]2)cc1

>  <score_type>  (49) 
oracle

>  <origin>  (49) 
adgpu

>  <m_score__min__energy>  (49) 
-11.380000000000001

>  <m_primary>  (49) 
energy

$$$$
