0:0
     RDKit          3D

 86 90  0  0  0  0  0  0  0  0999 V2000
   -2.1070   17.9370  -34.5810 C   0  0  0  0  0  0  0  0  0  0  0  0
   -1.8720   18.6320  -33.3060 N   0  0  0  0  0  0  0  0  0  0  0  0
   -2.2420   20.0510  -33.4210 C   0  0  0  0  0  0  0  0  0  0  0  0
   -2.2530   20.6970  -32.0320 C   0  0  0  0  0  0  0  0  0  0  0  0
   -1.1610   20.1960  -31.1860 N   0  0  0  0  0  0  0  0  0  0  0  0
   -1.1480   20.3690  -29.7430 C   0  0  0  0  0  0  0  0  0  0  0  0
   -0.6570   19.4400  -29.0380 O   0  0  0  0  0  0  0  0  0  0  0  0
   -1.5170   21.6440  -29.0440 C   0  0  0  0  0  0  0  0  0  0  0  0
   -1.2880   21.8810  -27.6700 C   0  0  0  0  0  0  0  0  0  0  0  0
   -1.7360   23.0570  -27.0590 C   0  0  0  0  0  0  0  0  0  0  0  0
   -2.3330   24.0670  -27.8230 C   0  0  0  0  0  0  0  0  0  0  0  0
   -2.7170   25.2700  -27.2240 O   0  0  0  0  0  0  0  0  0  0  0  0
   -1.8530   26.0160  -26.4170 C   0  0  0  0  0  0  0  0  0  0  0  0
   -1.9430   25.9390  -25.0190 C   0  0  0  0  0  0  0  0  0  0  0  0
   -1.1250   26.7410  -24.2180 C   0  0  0  0  0  0  0  0  0  0  0  0
   -0.1890   27.5960  -24.8050 C   0  0  0  0  0  0  0  0  0  0  0  0
   -0.0710   27.6630  -26.2050 C   0  0  0  0  0  0  0  0  0  0  0  0
    0.9790   28.4950  -26.8280 C   0  0  0  0  0  0  0  0  0  0  0  0
    2.0920   27.9610  -27.0880 O   0  0  0  0  0  0  0  0  0  0  0  0
    0.7630   29.8870  -27.1410 N   0  0  0  0  0  0  0  0  0  0  0  0
   -0.5750   30.3690  -27.5150 C   0  0  0  0  0  0  0  0  0  0  0  0
    1.9260   30.7780  -27.2380 C   0  0  0  0  0  0  0  0  0  0  0  0
   -0.9070   26.8680  -27.0100 C   0  0  0  0  0  0  0  0  0  0  0  0
   -2.4880   23.8950  -29.2010 C   0  0  0  0  0  0  0  0  0  0  0  0
   -3.1120   24.9320  -29.9670 N   0  0  0  0  0  0  0  0  0  0  0  0
   -4.4730   24.8980  -30.3990 C   0  0  0  0  0  0  0  0  0  0  0  0
   -5.3180   25.6250  -29.8100 O   0  0  0  0  0  0  0  0  0  0  0  0
   -4.8340   24.1600  -31.5710 N   0  0  0  0  0  0  0  0  0  0  0  0
   -5.6720   22.9970  -31.6200 C   0  0  0  0  0  0  0  0  0  0  0  0
   -6.8670   22.9040  -30.8800 C   0  0  0  0  0  0  0  0  0  0  0  0
   -7.6740   21.7640  -30.9890 C   0  0  0  0  0  0  0  0  0  0  0  0
   -7.2900   20.7050  -31.8260 C   0  0  0  0  0  0  0  0  0  0  0  0
   -8.3330   19.2970  -32.0230 S   0  0  0  0  0  0  0  0  0  0  0  0
   -9.3410   19.5730  -33.1070 O   0  0  0  0  0  0  0  0  0  0  0  0
   -9.0870   19.0530  -30.7450 O   0  0  0  0  0  0  0  0  0  0  0  0
   -7.4080   17.8700  -32.4230 N   0  0  0  0  0  0  0  0  0  0  0  0
   -6.4180   17.5870  -31.3720 C   0  0  0  0  0  0  0  0  0  0  0  0
   -5.4650   16.4740  -31.8300 C   0  0  0  0  0  0  0  0  0  0  0  0
   -4.7010   16.8530  -33.0460 N   0  0  0  0  0  0  0  0  0  0  0  0
   -4.4520   15.6840  -33.9090 C   0  0  0  0  0  0  0  0  0  0  0  0
   -5.2990   17.9720  -33.8110 C   0  0  0  0  0  0  0  0  0  0  0  0
   -6.8400   17.9390  -33.7910 C   0  0  0  0  0  0  0  0  0  0  0  0
   -6.0750   20.7770  -32.5210 C   0  0  0  0  0  0  0  0  0  0  0  0
   -5.2690   21.9130  -32.4100 C   0  0  0  0  0  0  0  0  0  0  0  0
   -2.1080   22.6810  -29.7980 C   0  0  0  0  0  0  0  0  0  0  0  0
   -0.0150   19.5290  -31.8340 C   0  0  0  0  0  0  0  0  0  0  0  0
   -0.4630   18.4750  -32.8750 C   0  0  0  0  0  0  0  0  0  0  0  0
   -2.4535   16.9122  -34.3816 H   0  0  0  0  0  0  0  0  0  0  0  0
   -2.8724   18.4772  -35.1574 H   0  0  0  0  0  0  0  0  0  0  0  0
   -1.1708   17.9018  -35.1574 H   0  0  0  0  0  0  0  0  0  0  0  0
   -1.5107   20.5688  -34.0591 H   0  0  0  0  0  0  0  0  0  0  0  0
   -3.2442   20.1307  -33.8673 H   0  0  0  0  0  0  0  0  0  0  0  0
   -2.1443   21.7857  -32.1453 H   0  0  0  0  0  0  0  0  0  0  0  0
   -3.2059   20.4422  -31.5451 H   0  0  0  0  0  0  0  0  0  0  0  0
   -0.7500   21.1304  -27.0725 H   0  0  0  0  0  0  0  0  0  0  0  0
   -1.6187   23.1888  -25.9732 H   0  0  0  0  0  0  0  0  0  0  0  0
   -2.6587   25.2461  -24.5523 H   0  0  0  0  0  0  0  0  0  0  0  0
   -1.2185   26.6988  -23.1228 H   0  0  0  0  0  0  0  0  0  0  0  0
    0.4580   28.2191  -24.1701 H   0  0  0  0  0  0  0  0  0  0  0  0
   -1.1568   30.5786  -26.6053 H   0  0  0  0  0  0  0  0  0  0  0  0
   -0.4801   31.2895  -28.1097 H   0  0  0  0  0  0  0  0  0  0  0  0
   -1.0889   29.5995  -28.1097 H   0  0  0  0  0  0  0  0  0  0  0  0
    2.2708   31.0422  -26.2274 H   0  0  0  0  0  0  0  0  0  0  0  0
    2.7355   30.2667  -27.7796 H   0  0  0  0  0  0  0  0  0  0  0  0
    1.6430   31.6926  -27.7796 H   0  0  0  0  0  0  0  0  0  0  0  0
   -0.8196   26.9137  -28.1056 H   0  0  0  0  0  0  0  0  0  0  0  0
   -7.1670   23.7277  -30.2155 H   0  0  0  0  0  0  0  0  0  0  0  0
   -8.6113   21.6988  -30.4169 H   0  0  0  0  0  0  0  0  0  0  0  0
   -5.8389   18.4985  -31.1629 H   0  0  0  0  0  0  0  0  0  0  0  0
   -6.9427   17.2596  -30.4623 H   0  0  0  0  0  0  0  0  0  0  0  0
   -4.7545   16.2599  -31.0180 H   0  0  0  0  0  0  0  0  0  0  0  0
   -6.0721   15.5901  -32.0751 H   0  0  0  0  0  0  0  0  0  0  0  0
   -4.2636   14.7995  -33.2828 H   0  0  0  0  0  0  0  0  0  0  0  0
   -5.3317   15.5030  -34.5441 H   0  0  0  0  0  0  0  0  0  0  0  0
   -3.5749   15.8772  -34.5441 H   0  0  0  0  0  0  0  0  0  0  0  0
   -4.9601   18.9216  -33.3713 H   0  0  0  0  0  0  0  0  0  0  0  0
   -4.9746   17.8744  -34.8575 H   0  0  0  0  0  0  0  0  0  0  0  0
   -7.2150   18.8507  -34.2791 H   0  0  0  0  0  0  0  0  0  0  0  0
   -7.1530   17.0267  -34.3199 H   0  0  0  0  0  0  0  0  0  0  0  0
   -5.7552   19.9372  -33.1554 H   0  0  0  0  0  0  0  0  0  0  0  0
   -4.3102   21.9563  -32.9474 H   0  0  0  0  0  0  0  0  0  0  0  0
   -2.2745   22.5356  -30.8756 H   0  0  0  0  0  0  0  0  0  0  0  0
    0.5970   20.2896  -32.3410 H   0  0  0  0  0  0  0  0  0  0  0  0
    0.5584   19.0088  -31.0526 H   0  0  0  0  0  0  0  0  0  0  0  0
    0.1838   18.5632  -33.7603 H   0  0  0  0  0  0  0  0  0  0  0  0
   -0.3796   17.4893  -32.3940 H   0  0  0  0  0  0  0  0  0  0  0  0
  1  2  1  0
  2  3  1  0
  3  4  1  0
  4  5  1  0
  5  6  1  0
  6  7  2  0
  6  8  1  0
  8  9  2  0
  9 10  1  0
 10 11  2  0
 11 12  1  0
 12 13  1  0
 13 14  2  0
 14 15  1  0
 15 16  2  0
 16 17  1  0
 17 18  1  0
 18 19  2  0
 18 20  1  0
 20 21  1  0
 20 22  1  0
 17 23  2  0
 11 24  1  0
 24 25  1  0
 25 26  1  0
 26 27  2  0
 26 28  1  0
 28 29  1  0
 29 30  2  0
 30 31  1  0
 31 32  2  0
 32 33  1  0
 33 34  2  0
 33 35  2  0
 33 36  1  0
 36 37  1  0
 37 38  1  0
 38 39  1  0
 39 40  1  0
 39 41  1  0
 41 42  1  0
 32 43  1  0
 43 44  2  0
 24 45  2  0
  5 46  1  0
 46 47  1  0
 47  2  1  0
 45  8  1  0
 23 13  1  0
 44 29  1  0
 42 36  1  0
  1 48  1  0
  1 49  1  0
  1 50  1  0
  3 51  1  0
  3 52  1  0
  4 53  1  0
  4 54  1  0
  9 55  1  0
 10 56  1  0
 14 57  1  0
 15 58  1  0
 16 59  1  0
 21 60  1  0
 21 61  1  0
 21 62  1  0
 22 63  1  0
 22 64  1  0
 22 65  1  0
 23 66  1  0
 30 67  1  0
 31 68  1  0
 37 69  1  0
 37 70  1  0
 38 71  1  0
 38 72  1  0
 40 73  1  0
 40 74  1  0
 40 75  1  0
 41 76  1  0
 41 77  1  0
 42 78  1  0
 42 79  1  0
 43 80  1  0
 44 81  1  0
 45 82  1  0
 46 83  1  0
 46 84  1  0
 47 85  1  0
 47 86  1  0
M  CHG  2  25  -1  28  -1
M  END
>  <UniqueID>  (1) 
1

>  <SMILES>  (1) 
CN1CCN(C(=O)c2ccc(Oc3cccc(C(=O)N(C)C)c3)c([N-]C(=O)[N-]c3ccc(S(=O)(=O)N4CCN(C)CC4)cc3)c2)CC1

>  <Energy>  (1) 
140.23213956820132

>  <Genealogy>  (1) 
CN1CCN(C(=O)c2ccc(Oc3cccc(C(=O)N(C)C)c3)c([N-]C(=O)[N-]c3ccc(S(=O)(=O)N4CCN(C)CC4)cc3)c2)CC1 (protonated)
CN1CCN(C(=O)c2ccc(Oc3cccc(C(=O)N(C)C)c3)c([N-]C(=O)[N-]c3ccc(S(=O)(=O)N4CCN(C)CC4)cc3)c2)CC1 (3D coordinates assigned)
CN1CCN(C(=O)c2ccc(Oc3cccc(C(=O)N(C)C)c3)c([N-]C(=O)[N-]c3ccc(S(=O)(=O)N4CCN(C)CC4)cc3)c2)CC1 (nonaromatic ring conformer: 140.23213956820132 kcal/mol)

>  <smiles>  (1) 
CN1CCN(C(=O)c2ccc(Oc3cccc(C(=O)N(C)C)c3)c(NC(=O)Nc3ccc(S(=O)(=O)N4CCN(C)CC4)cc3)c2)CC1

>  <score_type>  (1) 
oracle

>  <origin>  (1) 
adgpu

>  <m_score__min__energy>  (1) 
-14.02

>  <m_primary>  (1) 
energy

$$$$
1:0
     RDKit          3D

 57 59  0  0  0  0  0  0  0  0999 V2000
   -4.1040   25.2561  -27.8701 H   0  0  0  0  0  0  0  0  0  0  0  0
   -4.1740   24.2240  -28.2440 C   0  0  0  0  0  0  0  0  0  0  0  0
   -3.4780   23.2700  -27.6060 C   0  0  0  0  0  0  0  0  0  0  0  0
   -2.8782   23.5699  -26.7341 H   0  0  0  0  0  0  0  0  0  0  0  0
   -3.4620   21.8140  -28.0030 C   0  0  0  0  0  0  0  0  0  0  0  0
   -4.4743   21.5190  -28.3163 H   0  0  0  0  0  0  0  0  0  0  0  0
   -3.1305   21.2258  -27.1346 H   0  0  0  0  0  0  0  0  0  0  0  0
   -2.5040   21.5550  -29.1390 C   0  0  0  0  0  0  0  0  0  0  0  0
   -2.3260   22.5150  -30.1440 C   0  0  0  0  0  0  0  0  0  0  0  0
   -2.8472   23.4813  -30.0759 H   0  0  0  0  0  0  0  0  0  0  0  0
   -1.4910   22.2520  -31.2310 C   0  0  0  0  0  0  0  0  0  0  0  0
   -1.3603   23.0113  -32.0161 H   0  0  0  0  0  0  0  0  0  0  0  0
   -0.8150   21.0210  -31.3290 C   0  0  0  0  0  0  0  0  0  0  0  0
    0.0060   20.7040  -32.4240 O   0  0  0  0  0  0  0  0  0  0  0  0
   -0.4420   20.5360  -33.7700 C   0  0  0  0  0  0  0  0  0  0  0  0
    0.4161   20.2694  -34.4044 H   0  0  0  0  0  0  0  0  0  0  0  0
   -0.8933   21.4797  -34.1103 H   0  0  0  0  0  0  0  0  0  0  0  0
   -1.4780   19.4480  -33.8600 C   0  0  0  0  0  0  0  0  0  0  0  0
   -1.1010   18.2850  -34.1730 O   0  0  0  0  0  0  0  0  0  0  0  0
   -2.9170   19.7040  -33.5950 C   0  0  0  0  0  0  0  0  0  0  0  0
   -3.3910   21.0030  -33.3430 C   0  0  0  0  0  0  0  0  0  0  0  0
   -2.6878   21.8489  -33.3406 H   0  0  0  0  0  0  0  0  0  0  0  0
   -4.7450   21.2290  -33.0960 C   0  0  0  0  0  0  0  0  0  0  0  0
   -5.1000   22.2507  -32.8957 H   0  0  0  0  0  0  0  0  0  0  0  0
   -5.6600   20.1610  -33.1010 C   0  0  0  0  0  0  0  0  0  0  0  0
   -7.0320   20.3530  -32.8690 O   0  0  0  0  0  0  0  0  0  0  0  0
   -7.7780   19.6900  -31.8540 C   0  0  0  0  0  0  0  0  0  0  0  0
   -7.4174   20.0105  -30.8654 H   0  0  0  0  0  0  0  0  0  0  0  0
   -8.8432   19.9449  -31.9561 H   0  0  0  0  0  0  0  0  0  0  0  0
   -7.6499   18.6023  -31.9561 H   0  0  0  0  0  0  0  0  0  0  0  0
   -5.2030   18.8590  -33.3550 C   0  0  0  0  0  0  0  0  0  0  0  0
   -6.1420   17.8150  -33.3690 O   0  0  0  0  0  0  0  0  0  0  0  0
   -6.0900   16.6940  -34.2450 C   0  0  0  0  0  0  0  0  0  0  0  0
   -6.0470   15.7678  -33.6531 H   0  0  0  0  0  0  0  0  0  0  0  0
   -6.9886   16.6824  -34.8794 H   0  0  0  0  0  0  0  0  0  0  0  0
   -5.1942   16.7656  -34.8794 H   0  0  0  0  0  0  0  0  0  0  0  0
   -3.8320   18.6360  -33.5960 C   0  0  0  0  0  0  0  0  0  0  0  0
   -3.4734   17.6138  -33.7872 H   0  0  0  0  0  0  0  0  0  0  0  0
   -0.9610   20.0670  -30.3110 C   0  0  0  0  0  0  0  0  0  0  0  0
   -0.2620   18.8550  -30.4300 O   0  0  0  0  0  0  0  0  0  0  0  0
    1.1530   18.7250  -30.3310 C   0  0  0  0  0  0  0  0  0  0  0  0
    1.4455   18.6981  -29.2709 H   0  0  0  0  0  0  0  0  0  0  0  0
    1.4710   17.7939  -30.8228 H   0  0  0  0  0  0  0  0  0  0  0  0
    1.6353   19.5826  -30.8228 H   0  0  0  0  0  0  0  0  0  0  0  0
   -1.8040   20.3410  -29.2160 C   0  0  0  0  0  0  0  0  0  0  0  0
   -1.9146   19.5965  -28.4139 H   0  0  0  0  0  0  0  0  0  0  0  0
   -5.0270   23.9650  -29.4180 C   0  0  0  0  0  0  0  0  0  0  0  0
   -6.0110   22.9660  -29.3430 C   0  0  0  0  0  0  0  0  0  0  0  0
   -6.1246   22.3753  -28.4220 H   0  0  0  0  0  0  0  0  0  0  0  0
   -6.8460   22.7210  -30.4360 C   0  0  0  0  0  0  0  0  0  0  0  0
   -7.6245   21.9468  -30.3688 H   0  0  0  0  0  0  0  0  0  0  0  0
   -6.6950   23.4560  -31.6130 C   0  0  0  0  0  0  0  0  0  0  0  0
   -7.3566   23.2628  -32.4703 H   0  0  0  0  0  0  0  0  0  0  0  0
   -5.7040   24.4370  -31.7030 C   0  0  0  0  0  0  0  0  0  0  0  0
   -5.5833   25.0111  -32.6335 H   0  0  0  0  0  0  0  0  0  0  0  0
   -4.8650   24.6910  -30.6130 C   0  0  0  0  0  0  0  0  0  0  0  0
   -3.8700   25.6560  -30.7280 O   0  0  0  0  0  0  0  0  0  0  0  0
  1  2  1  0
  2  3  2  0
  3  4  1  0
  3  5  1  0
  5  6  1  0
  5  7  1  0
  5  8  1  0
  8  9  2  0
  9 10  1  0
  9 11  1  0
 11 12  1  0
 11 13  2  0
 13 14  1  0
 14 15  1  0
 15 16  1  0
 15 17  1  0
 15 18  1  0
 18 19  2  0
 18 20  1  0
 20 21  2  0
 21 22  1  0
 21 23  1  0
 23 24  1  0
 23 25  2  0
 25 26  1  0
 26 27  1  0
 27 28  1  0
 27 29  1  0
 27 30  1  0
 25 31  1  0
 31 32  1  0
 32 33  1  0
 33 34  1  0
 33 35  1  0
 33 36  1  0
 31 37  2  0
 37 38  1  0
 13 39  1  0
 39 40  1  0
 40 41  1  0
 41 42  1  0
 41 43  1  0
 41 44  1  0
 39 45  2  0
 45 46  1  0
  2 47  1  0
 47 48  2  0
 48 49  1  0
 48 50  1  0
 50 51  1  0
 50 52  2  0
 52 53  1  0
 52 54  1  0
 54 55  1  0
 54 56  2  0
 56 57  1  0
 45  8  1  0
 56 47  1  0
 37 20  1  0
M  CHG  1  57  -1
M  END
>  <UniqueID>  (2) 
2

>  <SMILES>  (2) 
COc1ccc(C(=O)COc2ccc(C/C=C\c3ccccc3[O-])cc2OC)cc1OC

>  <Energy>  (2) 
58.88844328790703

>  <Genealogy>  (2) 
COc1ccc(C(=O)COc2ccc(CC=Cc3ccccc3[O-])cc2OC)cc1OC (protonated)
COc1ccc(C(=O)COc2ccc(C/C=C\c3ccccc3[O-])cc2OC)cc1OC (cis-trans isomerization)
COc1ccc(C(=O)COc2ccc(C/C=C\c3ccccc3[O-])cc2OC)cc1OC (3D coordinates assigned)
COc1ccc(C(=O)COc2ccc(C/C=C\c3ccccc3[O-])cc2OC)cc1OC (optimized conformer: 58.88844328790703 kcal/mol)

>  <smiles>  (2) 
COc1ccc(C(=O)COc2ccc(CC=Cc3ccccc3O)cc2OC)cc1OC

>  <score_type>  (2) 
oracle

>  <origin>  (2) 
adgpu

>  <m_score__min__energy>  (2) 
-11.81

>  <m_primary>  (2) 
energy

$$$$
2:0
     RDKit          3D

 48 51  0  0  0  0  0  0  0  0999 V2000
   -2.0890   24.5480  -26.9370 C   0  0  0  0  0  0  0  0  0  0  0  0
   -1.1740   23.6450  -27.5560 O   0  0  0  0  0  0  0  0  0  0  0  0
   -1.5140   22.7580  -28.5860 C   0  0  0  0  0  0  0  0  0  0  0  0
   -1.0560   22.9270  -29.9090 C   0  0  0  0  0  0  0  0  0  0  0  0
   -1.4330   22.0180  -30.9060 C   0  0  0  0  0  0  0  0  0  0  0  0
   -2.2670   20.9260  -30.5940 C   0  0  0  0  0  0  0  0  0  0  0  0
   -2.7290   20.0220  -31.6100 N   0  0  0  0  0  0  0  0  0  0  0  0
   -3.7490   20.3460  -32.5630 C   0  0  0  0  0  0  0  0  0  0  0  0
   -3.5630   21.2840  -33.3870 O   0  0  0  0  0  0  0  0  0  0  0  0
   -5.0710   19.6160  -32.5560 C   0  0  1  0  0  0  0  0  0  0  0  0
   -6.3690   20.3810  -33.6210 S   0  0  0  0  0  0  0  0  0  0  0  0
   -7.6490   20.6130  -32.3810 C   0  0  0  0  0  0  0  0  0  0  0  0
   -8.7470   19.8410  -32.2730 N   0  0  0  0  0  0  0  0  0  0  0  0
   -9.4190   20.3440  -31.2430 N   0  0  0  0  0  0  0  0  0  0  0  0
   -8.7660   21.3800  -30.7320 N   0  0  0  0  0  0  0  0  0  0  0  0
   -7.6540   21.5650  -31.4240 N   0  0  0  0  0  0  0  0  0  0  0  0
   -6.7030   22.6160  -31.1650 C   0  0  0  0  0  0  0  0  0  0  0  0
   -5.4570   22.3080  -30.5910 C   0  0  0  0  0  0  0  0  0  0  0  0
   -4.5140   23.3190  -30.3570 C   0  0  0  0  0  0  0  0  0  0  0  0
   -4.8110   24.6460  -30.6880 C   0  0  0  0  0  0  0  0  0  0  0  0
   -3.8670   25.6470  -30.4820 O   0  0  0  0  0  0  0  0  0  0  0  0
   -6.0640   24.9680  -31.2210 C   0  0  0  0  0  0  0  0  0  0  0  0
   -7.0100   23.9620  -31.4470 C   0  0  0  0  0  0  0  0  0  0  0  0
   -4.8360   18.1710  -32.9600 C   0  0  0  0  0  0  0  0  0  0  0  0
   -3.8330   17.8380  -33.9000 C   0  0  0  0  0  0  0  0  0  0  0  0
   -3.5300   16.4960  -34.1660 C   0  0  0  0  0  0  0  0  0  0  0  0
   -4.2170   15.4770  -33.5000 C   0  0  0  0  0  0  0  0  0  0  0  0
   -5.2180   15.7960  -32.5700 C   0  0  0  0  0  0  0  0  0  0  0  0
   -5.5240   17.1350  -32.2990 C   0  0  0  0  0  0  0  0  0  0  0  0
   -2.7260   20.7650  -29.2790 C   0  0  0  0  0  0  0  0  0  0  0  0
   -2.3460   21.6700  -28.2810 C   0  0  0  0  0  0  0  0  0  0  0  0
   -2.0039   24.4640  -25.8435 H   0  0  0  0  0  0  0  0  0  0  0  0
   -1.8534   25.5773  -27.2451 H   0  0  0  0  0  0  0  0  0  0  0  0
   -3.1151   24.2988  -27.2451 H   0  0  0  0  0  0  0  0  0  0  0  0
   -0.4011   23.7747  -30.1587 H   0  0  0  0  0  0  0  0  0  0  0  0
   -1.0763   22.1574  -31.9372 H   0  0  0  0  0  0  0  0  0  0  0  0
   -5.4658   19.6806  -31.5313 H   0  0  0  0  0  0  0  0  0  0  0  0
   -5.2205   21.2675  -30.3238 H   0  0  0  0  0  0  0  0  0  0  0  0
   -3.5394   23.0688  -29.9126 H   0  0  0  0  0  0  0  0  0  0  0  0
   -6.3058   26.0135  -31.4627 H   0  0  0  0  0  0  0  0  0  0  0  0
   -8.0004   24.2238  -31.8477 H   0  0  0  0  0  0  0  0  0  0  0  0
   -3.2881   18.6365  -34.4249 H   0  0  0  0  0  0  0  0  0  0  0  0
   -2.7504   16.2440  -34.9000 H   0  0  0  0  0  0  0  0  0  0  0  0
   -3.9727   14.4243  -33.7051 H   0  0  0  0  0  0  0  0  0  0  0  0
   -5.7633   14.9927  -32.0530 H   0  0  0  0  0  0  0  0  0  0  0  0
   -6.3064   17.3794  -31.5655 H   0  0  0  0  0  0  0  0  0  0  0  0
   -3.3884   19.9228  -29.0302 H   0  0  0  0  0  0  0  0  0  0  0  0
   -2.7022   21.5272  -27.2501 H   0  0  0  0  0  0  0  0  0  0  0  0
  1  2  1  0
  2  3  1  0
  3  4  2  0
  4  5  1  0
  5  6  2  0
  6  7  1  0
  7  8  1  0
  8  9  2  0
  8 10  1  0
 10 11  1  0
 11 12  1  0
 12 13  2  0
 13 14  1  0
 14 15  2  0
 15 16  1  0
 16 17  1  0
 17 18  2  0
 18 19  1  0
 19 20  2  0
 20 21  1  0
 20 22  1  0
 22 23  2  0
 10 24  1  0
 24 25  2  0
 25 26  1  0
 26 27  2  0
 27 28  1  0
 28 29  2  0
  6 30  1  0
 30 31  2  0
 31  3  1  0
 16 12  1  0
 23 17  1  0
 29 24  1  0
  1 32  1  0
  1 33  1  0
  1 34  1  0
  4 35  1  0
  5 36  1  0
 10 37  1  1
 18 38  1  0
 19 39  1  0
 22 40  1  0
 23 41  1  0
 25 42  1  0
 26 43  1  0
 27 44  1  0
 28 45  1  0
 29 46  1  0
 30 47  1  0
 31 48  1  0
M  CHG  2   7  -1  21  -1
M  END
>  <UniqueID>  (3) 
3

>  <SMILES>  (3) 
COc1ccc([N-]C(=O)[C@@H](Sc2nnnn2-c2ccc([O-])cc2)c2ccccc2)cc1

>  <Energy>  (3) 
101.15352977832515

>  <Genealogy>  (3) 
COc1ccc([N-]C(=O)C(Sc2nnnn2-c2ccc([O-])cc2)c2ccccc2)cc1 (protonated)
COc1ccc([N-]C(=O)[C@@H](Sc2nnnn2-c2ccc([O-])cc2)c2ccccc2)cc1 (chirality)
COc1ccc([N-]C(=O)[C@@H](Sc2nnnn2-c2ccc([O-])cc2)c2ccccc2)cc1 (3D coordinates assigned)
COc1ccc([N-]C(=O)[C@@H](Sc2nnnn2-c2ccc([O-])cc2)c2ccccc2)cc1 (optimized conformer: 101.15352977832515 kcal/mol)

>  <smiles>  (3) 
COc1ccc(NC(=O)C(Sc2nnnn2-c2ccc(O)cc2)c2ccccc2)cc1

>  <score_type>  (3) 
oracle

>  <origin>  (3) 
adgpu

>  <m_score__min__energy>  (3) 
-11.9

>  <m_primary>  (3) 
energy

$$$$
3:0
     RDKit          3D

 61 64  0  0  0  0  0  0  0  0999 V2000
   -2.4980   21.7180  -27.6990 O   0  0  0  0  0  0  0  0  0  0  0  0
   -3.1010   22.6880  -28.2330 C   0  0  0  0  0  0  0  0  0  0  0  0
   -4.1620   23.4140  -27.4620 C   0  0  0  0  0  0  0  0  0  0  0  0
   -4.8040   24.3920  -28.2820 O   0  0  0  0  0  0  0  0  0  0  0  0
   -5.4240   24.1330  -29.5170 C   0  0  0  0  0  0  0  0  0  0  0  0
   -6.5090   23.2440  -29.6460 C   0  0  0  0  0  0  0  0  0  0  0  0
   -7.0890   23.0060  -30.8990 C   0  0  0  0  0  0  0  0  0  0  0  0
   -8.4550   21.8980  -31.0470 S   0  0  0  0  0  0  0  0  0  0  0  0
   -9.2320   21.8980  -29.7590 O   0  0  0  0  0  0  0  0  0  0  0  0
   -9.3690   22.3860  -32.1370 O   0  0  0  0  0  0  0  0  0  0  0  0
   -7.9390   20.2640  -31.4080 N   0  0  0  0  0  0  0  0  0  0  0  0
   -8.3250   19.8720  -32.7690 C   0  0  0  0  0  0  0  0  0  0  0  0
   -7.1210   20.0540  -33.6820 C   0  0  0  0  0  0  0  0  0  0  0  0
   -5.9300   20.2430  -32.7630 C   0  0  0  0  0  0  0  0  0  0  0  0
   -6.4790   20.1440  -31.3460 C   0  0  0  0  0  0  0  0  0  0  0  0
   -6.5840   23.6580  -32.0320 C   0  0  0  0  0  0  0  0  0  0  0  0
   -5.5140   24.5460  -31.9090 C   0  0  0  0  0  0  0  0  0  0  0  0
   -4.9350   24.7840  -30.6590 C   0  0  0  0  0  0  0  0  0  0  0  0
   -3.8680   25.6670  -30.5520 O   0  0  0  0  0  0  0  0  0  0  0  0
   -2.7420   23.1300  -29.5490 N   0  0  0  0  0  0  0  0  0  0  0  0
   -2.2220   22.2550  -30.5640 C   0  0  0  0  0  0  0  0  0  0  0  0
   -0.9130   21.7670  -30.4490 C   0  0  0  0  0  0  0  0  0  0  0  0
   -0.3720   20.9490  -31.4450 C   0  0  0  0  0  0  0  0  0  0  0  0
   -1.1250   20.6270  -32.5820 C   0  0  0  0  0  0  0  0  0  0  0  0
   -0.4280   19.6240  -33.8590 S   0  0  0  0  0  0  0  0  0  0  0  0
   -0.7960   20.2010  -35.1970 O   0  0  0  0  0  0  0  0  0  0  0  0
    1.0710   19.6430  -33.7400 O   0  0  0  0  0  0  0  0  0  0  0  0
   -0.9970   17.9740  -33.7650 N   0  0  0  0  0  0  0  0  0  0  0  0
   -2.4000   17.8850  -34.2130 C   0  0  0  0  0  0  0  0  0  0  0  0
   -2.7560   16.4390  -34.5940 C   0  0  0  0  0  0  0  0  0  0  0  0
   -1.9570   15.8960  -35.6410 O   0  0  0  0  0  0  0  0  0  0  0  0
   -0.7100   16.5560  -35.8090 C   0  0  0  0  0  0  0  0  0  0  0  0
   -0.0980   17.0420  -34.4820 C   0  0  0  0  0  0  0  0  0  0  0  0
   -2.4310   21.1210  -32.7060 C   0  0  0  0  0  0  0  0  0  0  0  0
   -2.9750   21.9340  -31.7080 C   0  0  0  0  0  0  0  0  0  0  0  0
   -4.9116   22.6899  -27.1101 H   0  0  0  0  0  0  0  0  0  0  0  0
   -3.6917   23.9231  -26.6078 H   0  0  0  0  0  0  0  0  0  0  0  0
   -6.9041   22.7325  -28.7559 H   0  0  0  0  0  0  0  0  0  0  0  0
   -8.6408   18.8183  -32.7765 H   0  0  0  0  0  0  0  0  0  0  0  0
   -9.1615   20.4950  -33.1185 H   0  0  0  0  0  0  0  0  0  0  0  0
   -6.9806   19.1638  -34.3127 H   0  0  0  0  0  0  0  0  0  0  0  0
   -7.2513   20.9125  -34.3573 H   0  0  0  0  0  0  0  0  0  0  0  0
   -5.1815   19.4565  -32.9395 H   0  0  0  0  0  0  0  0  0  0  0  0
   -5.4331   21.2086  -32.9379 H   0  0  0  0  0  0  0  0  0  0  0  0
   -6.2039   19.1734  -30.9076 H   0  0  0  0  0  0  0  0  0  0  0  0
   -6.0593   20.9455  -30.7203 H   0  0  0  0  0  0  0  0  0  0  0  0
   -7.0312   23.4699  -33.0192 H   0  0  0  0  0  0  0  0  0  0  0  0
   -5.1246   25.0608  -32.7997 H   0  0  0  0  0  0  0  0  0  0  0  0
   -2.8800   24.1390  -29.7840 H   0  0  0  0  0  0  0  0  0  0  0  0
   -0.3074   22.0295  -29.5690 H   0  0  0  0  0  0  0  0  0  0  0  0
    0.6497   20.5562  -31.3357 H   0  0  0  0  0  0  0  0  0  0  0  0
   -3.0611   18.2175  -33.3991 H   0  0  0  0  0  0  0  0  0  0  0  0
   -2.5314   18.5269  -35.0965 H   0  0  0  0  0  0  0  0  0  0  0  0
   -2.6316   15.8070  -33.7023 H   0  0  0  0  0  0  0  0  0  0  0  0
   -3.7917   16.4562  -34.9641 H   0  0  0  0  0  0  0  0  0  0  0  0
   -0.0056   15.8572  -36.2838 H   0  0  0  0  0  0  0  0  0  0  0  0
   -0.8915   17.4452  -36.4306 H   0  0  0  0  0  0  0  0  0  0  0  0
    0.0951   16.1702  -33.8397 H   0  0  0  0  0  0  0  0  0  0  0  0
    0.8333   17.5794  -34.7141 H   0  0  0  0  0  0  0  0  0  0  0  0
   -3.0303   20.8676  -33.5929 H   0  0  0  0  0  0  0  0  0  0  0  0
   -3.9973   22.3250  -31.8176 H   0  0  0  0  0  0  0  0  0  0  0  0
  1  2  2  0
  2  3  1  0
  3  4  1  0
  4  5  1  0
  5  6  2  0
  6  7  1  0
  7  8  1  0
  8  9  2  0
  8 10  2  0
  8 11  1  0
 11 12  1  0
 12 13  1  0
 13 14  1  0
 14 15  1  0
  7 16  2  0
 16 17  1  0
 17 18  2  0
 18 19  1  0
  2 20  1  0
 20 21  1  0
 21 22  2  0
 22 23  1  0
 23 24  2  0
 24 25  1  0
 25 26  2  0
 25 27  2  0
 25 28  1  0
 28 29  1  0
 29 30  1  0
 30 31  1  0
 31 32  1  0
 32 33  1  0
 24 34  1  0
 34 35  2  0
 18  5  1  0
 35 21  1  0
 15 11  1  0
 33 28  1  0
  3 36  1  0
  3 37  1  0
  6 38  1  0
 12 39  1  0
 12 40  1  0
 13 41  1  0
 13 42  1  0
 14 43  1  0
 14 44  1  0
 15 45  1  0
 15 46  1  0
 16 47  1  0
 17 48  1  0
 20 49  1  0
 22 50  1  0
 23 51  1  0
 29 52  1  0
 29 53  1  0
 30 54  1  0
 30 55  1  0
 32 56  1  0
 32 57  1  0
 33 58  1  0
 33 59  1  0
 34 60  1  0
 35 61  1  0
M  CHG  1  19  -1
M  END
>  <UniqueID>  (4) 
4

>  <SMILES>  (4) 
O=C(COc1cc(S(=O)(=O)N2CCCC2)ccc1[O-])Nc1ccc(S(=O)(=O)N2CCOCC2)cc1

>  <Energy>  (4) 
75.68951642418601

>  <Genealogy>  (4) 
O=C(COc1cc(S(=O)(=O)N2CCCC2)ccc1[O-])Nc1ccc(S(=O)(=O)N2CCOCC2)cc1 (protonated)
O=C(COc1cc(S(=O)(=O)N2CCCC2)ccc1[O-])Nc1ccc(S(=O)(=O)N2CCOCC2)cc1 (3D coordinates assigned)
O=C(COc1cc(S(=O)(=O)N2CCCC2)ccc1[O-])Nc1ccc(S(=O)(=O)N2CCOCC2)cc1 (nonaromatic ring conformer: 75.68951642418601 kcal/mol)

>  <smiles>  (4) 
O=C(COc1cc(S(=O)(=O)N2CCCC2)ccc1O)Nc1ccc(S(=O)(=O)N2CCOCC2)cc1

>  <score_type>  (4) 
oracle

>  <origin>  (4) 
adgpu

>  <m_score__min__energy>  (4) 
-12.9

>  <m_primary>  (4) 
energy

$$$$
4:0
     RDKit          3D

 81 85  0  0  0  0  0  0  0  0999 V2000
   -1.1830   18.2510  -27.0870 C   0  0  0  0  0  0  0  0  0  0  0  0
   -0.7500   19.3960  -27.8140 O   0  0  0  0  0  0  0  0  0  0  0  0
   -1.5900   20.3910  -28.3420 C   0  0  0  0  0  0  0  0  0  0  0  0
   -2.6390   20.9090  -27.5490 C   0  0  0  0  0  0  0  0  0  0  0  0
   -3.4970   21.8840  -28.0390 C   0  0  0  0  0  0  0  0  0  0  0  0
   -3.3550   22.3480  -29.3430 C   0  0  0  0  0  0  0  0  0  0  0  0
   -4.4070   23.6190  -29.9670 S   0  0  0  0  0  0  0  0  0  0  0  0
   -3.6160   24.5560  -30.8370 O   0  0  0  0  0  0  0  0  0  0  0  0
   -4.9830   24.3890  -28.8110 O   0  0  0  0  0  0  0  0  0  0  0  0
   -5.6980   22.8960  -30.8920 N   0  0  0  0  0  0  0  0  0  0  0  0
   -6.8790   22.6210  -30.0700 C   0  0  0  0  0  0  0  0  0  0  0  0
   -8.0800   22.6630  -31.0050 C   0  0  0  0  0  0  0  0  0  0  0  0
   -7.6070   23.4050  -32.2470 C   0  0  0  0  0  0  0  0  0  0  0  0
   -6.1580   23.7750  -31.9710 C   0  0  0  0  0  0  0  0  0  0  0  0
   -2.3420   21.8340  -30.1560 C   0  0  0  0  0  0  0  0  0  0  0  0
   -1.4010   20.8820  -29.6780 C   0  0  0  0  0  0  0  0  0  0  0  0
   -0.2700   20.4810  -30.5370 N   0  0  0  0  0  0  0  0  0  0  0  0
    0.8290   19.7050  -29.9160 C   0  0  0  0  0  0  0  0  0  0  0  0
    1.9130   19.1850  -30.8780 C   0  0  0  0  0  0  0  0  0  0  0  0
    1.4160   18.9200  -32.2360 N   0  0  0  0  0  0  0  0  0  0  0  0
    0.4270   17.8180  -32.3000 C   0  0  0  0  0  0  0  0  0  0  0  0
    0.8110   16.7800  -33.3670 C   0  0  0  0  0  0  0  0  0  0  0  0
    0.3270   17.2140  -34.7510 C   0  0  0  0  0  0  0  0  0  0  0  0
   -1.0420   16.8480  -34.9090 O   0  0  0  0  0  0  0  0  0  0  0  0
   -2.1230   17.5180  -34.3190 C   0  0  0  0  0  0  0  0  0  0  0  0
   -3.2770   16.8460  -33.8770 C   0  0  0  0  0  0  0  0  0  0  0  0
   -4.3490   17.5680  -33.3460 C   0  0  0  0  0  0  0  0  0  0  0  0
   -4.2920   18.9670  -33.2620 C   0  0  0  0  0  0  0  0  0  0  0  0
   -5.6910   19.8830  -32.6930 S   0  0  0  0  0  0  0  0  0  0  0  0
   -5.6350   19.9930  -31.1930 O   0  0  0  0  0  0  0  0  0  0  0  0
   -5.6440   21.2750  -33.2620 O   0  0  0  0  0  0  0  0  0  0  0  0
   -7.1970   19.1140  -33.1540 N   0  0  0  0  0  0  0  0  0  0  0  0
   -8.3230   20.0480  -33.0330 C   0  0  0  0  0  0  0  0  0  0  0  0
   -9.0790   19.6890  -31.7740 C   0  0  0  0  0  0  0  0  0  0  0  0
   -8.8570   18.2040  -31.6360 C   0  0  0  0  0  0  0  0  0  0  0  0
   -7.5000   17.9620  -32.2850 C   0  0  0  0  0  0  0  0  0  0  0  0
   -3.1260   19.6310  -33.6690 C   0  0  0  0  0  0  0  0  0  0  0  0
   -2.0470   18.9080  -34.1860 C   0  0  0  0  0  0  0  0  0  0  0  0
    0.8890   20.1770  -32.7800 C   0  0  0  0  0  0  0  0  0  0  0  0
   -0.3310   20.6860  -32.0010 C   0  0  0  0  0  0  0  0  0  0  0  0
   -1.1072   18.4515  -26.0081 H   0  0  0  0  0  0  0  0  0  0  0  0
   -2.2283   18.0261  -27.3456 H   0  0  0  0  0  0  0  0  0  0  0  0
   -0.5481   17.3908  -27.3456 H   0  0  0  0  0  0  0  0  0  0  0  0
   -2.7781   20.5326  -26.5248 H   0  0  0  0  0  0  0  0  0  0  0  0
   -4.2908   22.2906  -27.3951 H   0  0  0  0  0  0  0  0  0  0  0  0
   -5.3560   21.9960  -31.3040 H   0  0  0  0  0  0  0  0  0  0  0  0
   -6.7947   21.6277  -29.6050 H   0  0  0  0  0  0  0  0  0  0  0  0
   -6.9800   23.3600  -29.2615 H   0  0  0  0  0  0  0  0  0  0  0  0
   -8.3995   21.6432  -31.2655 H   0  0  0  0  0  0  0  0  0  0  0  0
   -8.9422   23.1609  -30.5374 H   0  0  0  0  0  0  0  0  0  0  0  0
   -7.6762   22.7560  -33.1324 H   0  0  0  0  0  0  0  0  0  0  0  0
   -8.2233   24.2928  -32.4519 H   0  0  0  0  0  0  0  0  0  0  0  0
   -5.5483   23.6191  -32.8732 H   0  0  0  0  0  0  0  0  0  0  0  0
   -6.0670   24.8334  -31.6856 H   0  0  0  0  0  0  0  0  0  0  0  0
   -2.2703   22.1767  -31.1988 H   0  0  0  0  0  0  0  0  0  0  0  0
    1.3196   20.3511  -29.1731 H   0  0  0  0  0  0  0  0  0  0  0  0
    0.3557   18.8086  -29.4888 H   0  0  0  0  0  0  0  0  0  0  0  0
    2.7125   19.9379  -30.9409 H   0  0  0  0  0  0  0  0  0  0  0  0
    2.2716   18.2273  -30.4729 H   0  0  0  0  0  0  0  0  0  0  0  0
    0.3798   17.3222  -31.3192 H   0  0  0  0  0  0  0  0  0  0  0  0
   -0.5502   18.2454  -32.5691 H   0  0  0  0  0  0  0  0  0  0  0  0
    1.9055   16.6714  -33.3861 H   0  0  0  0  0  0  0  0  0  0  0  0
    0.3337   15.8221  -33.1127 H   0  0  0  0  0  0  0  0  0  0  0  0
    0.4293   18.3047  -34.8505 H   0  0  0  0  0  0  0  0  0  0  0  0
    0.9320   16.7184  -35.5245 H   0  0  0  0  0  0  0  0  0  0  0  0
   -3.3356   15.7500  -33.9495 H   0  0  0  0  0  0  0  0  0  0  0  0
   -5.2438   17.0356  -32.9914 H   0  0  0  0  0  0  0  0  0  0  0  0
   -7.9489   21.0802  -32.9648 H   0  0  0  0  0  0  0  0  0  0  0  0
   -8.9802   19.9780  -33.9124 H   0  0  0  0  0  0  0  0  0  0  0  0
   -8.6736   20.2287  -30.9055 H   0  0  0  0  0  0  0  0  0  0  0  0
  -10.1443   19.9582  -31.8247 H   0  0  0  0  0  0  0  0  0  0  0  0
   -8.8397   17.9098  -30.5762 H   0  0  0  0  0  0  0  0  0  0  0  0
   -9.6579   17.6147  -32.1064 H   0  0  0  0  0  0  0  0  0  0  0  0
   -6.7267   17.8669  -31.5084 H   0  0  0  0  0  0  0  0  0  0  0  0
   -7.5193   17.0338  -32.8749 H   0  0  0  0  0  0  0  0  0  0  0  0
   -3.0600   20.7255  -33.5811 H   0  0  0  0  0  0  0  0  0  0  0  0
   -1.1315   19.4363  -34.4904 H   0  0  0  0  0  0  0  0  0  0  0  0
    1.6800   20.9402  -32.7356 H   0  0  0  0  0  0  0  0  0  0  0  0
    0.5700   19.9866  -33.8154 H   0  0  0  0  0  0  0  0  0  0  0  0
   -0.4305   21.7650  -32.1903 H   0  0  0  0  0  0  0  0  0  0  0  0
   -1.1897   20.0982  -32.3575 H   0  0  0  0  0  0  0  0  0  0  0  0
  1  2  1  0
  2  3  1  0
  3  4  2  0
  4  5  1  0
  5  6  2  0
  6  7  1  0
  7  8  2  0
  7  9  2  0
  7 10  1  0
 10 11  1  0
 11 12  1  0
 12 13  1  0
 13 14  1  0
  6 15  1  0
 15 16  2  0
 16 17  1  0
 17 18  1  0
 18 19  1  0
 19 20  1  0
 20 21  1  0
 21 22  1  0
 22 23  1  0
 23 24  1  0
 24 25  1  0
 25 26  2  0
 26 27  1  0
 27 28  2  0
 28 29  1  0
 29 30  2  0
 29 31  2  0
 29 32  1  0
 32 33  1  0
 33 34  1  0
 34 35  1  0
 35 36  1  0
 28 37  1  0
 37 38  2  0
 20 39  1  0
 39 40  1  0
 16  3  1  0
 40 17  1  0
 14 10  1  0
 38 25  1  0
 36 32  1  0
  1 41  1  0
  1 42  1  0
  1 43  1  0
  4 44  1  0
  5 45  1  0
 10 46  1  0
 11 47  1  0
 11 48  1  0
 12 49  1  0
 12 50  1  0
 13 51  1  0
 13 52  1  0
 14 53  1  0
 14 54  1  0
 15 55  1  0
 18 56  1  0
 18 57  1  0
 19 58  1  0
 19 59  1  0
 21 60  1  0
 21 61  1  0
 22 62  1  0
 22 63  1  0
 23 64  1  0
 23 65  1  0
 26 66  1  0
 27 67  1  0
 33 68  1  0
 33 69  1  0
 34 70  1  0
 34 71  1  0
 35 72  1  0
 35 73  1  0
 36 74  1  0
 36 75  1  0
 37 76  1  0
 38 77  1  0
 39 78  1  0
 39 79  1  0
 40 80  1  0
 40 81  1  0
M  CHG  1  10   1
M  END
>  <UniqueID>  (5) 
5

>  <SMILES>  (5) 
COc1ccc(S(=O)(=O)[NH+]2CCCC2)cc1N1CCN(CCCOc2ccc(S(=O)(=O)N3CCCC3)cc2)CC1

>  <Energy>  (5) 
96.65470789424786

>  <Genealogy>  (5) 
COc1ccc(S(=O)(=O)[NH+]2CCCC2)cc1N1CCN(CCCOc2ccc(S(=O)(=O)N3CCCC3)cc2)CC1 (protonated)
COc1ccc(S(=O)(=O)[NH+]2CCCC2)cc1N1CCN(CCCOc2ccc(S(=O)(=O)N3CCCC3)cc2)CC1 (3D coordinates assigned)
COc1ccc(S(=O)(=O)[NH+]2CCCC2)cc1N1CCN(CCCOc2ccc(S(=O)(=O)N3CCCC3)cc2)CC1 (nonaromatic ring conformer: 96.65470789424786 kcal/mol)

>  <smiles>  (5) 
COc1ccc(S(=O)(=O)N2CCCC2)cc1N1CCN(CCCOc2ccc(S(=O)(=O)N3CCCC3)cc2)CC1

>  <score_type>  (5) 
oracle

>  <origin>  (5) 
adgpu

>  <m_score__min__energy>  (5) 
-11.359999999999999

>  <m_primary>  (5) 
energy

$$$$
5:0
     RDKit          3D

 60 63  0  0  1  0  0  0  0  0999 V2000
   -4.0670   21.5070  -33.0110 C   0  0  0  0  0  0  0  0  0  0  0  0
   -5.4000   21.7320  -32.3680 C   0  0  0  0  0  0  0  0  0  0  0  0
   -6.4140   20.8360  -32.6630 C   0  0  0  0  0  0  0  0  0  0  0  0
   -7.6870   20.9740  -32.1060 C   0  0  0  0  0  0  0  0  0  0  0  0
   -8.6980   20.0310  -32.4360 C   0  0  0  0  0  0  0  0  0  0  0  0
   -9.5320   19.2630  -32.6880 N   0  0  0  0  0  0  0  0  0  0  0  0
   -7.8810   22.0420  -31.2510 C   0  0  0  0  0  0  0  0  0  0  0  0
   -6.8560   22.9360  -30.9620 C   0  0  0  0  0  0  0  0  0  0  0  0
   -7.0640   24.0840  -30.0450 C   0  0  0  0  0  0  0  0  0  0  0  0
   -5.5900   22.8000  -31.5160 C   0  0  0  0  0  0  0  0  0  0  0  0
   -4.5870   23.6860  -31.2240 O   0  0  0  0  0  0  0  0  0  0  0  0
   -3.5330   23.4470  -30.3530 C   0  0  0  0  0  0  0  0  0  0  0  0
   -2.9690   24.5320  -29.7140 C   0  0  0  0  0  0  0  0  0  0  0  0
   -1.9260   24.2750  -28.8530 C   0  0  0  0  0  0  0  0  0  0  0  0
   -1.3600   25.2540  -28.2280 N   0  0  0  0  0  0  0  0  0  0  0  0
   -0.2780   25.0640  -27.3230 C   0  0  0  0  0  0  0  0  0  0  0  0
   -0.3680   25.3440  -25.9710 C   0  0  0  0  0  0  0  0  0  0  0  0
    0.7230   25.1420  -25.1200 C   0  0  0  0  0  0  0  0  0  0  0  0
    1.8920   24.6500  -25.6890 C   0  0  0  0  0  0  0  0  0  0  0  0
    3.0330   24.4370  -24.8060 C   0  0  0  0  0  0  0  0  0  0  0  0
    2.8550   24.5120  -23.3830 N   0  0  0  0  0  0  0  0  0  0  0  0
    4.1920   24.1850  -25.2430 O   0  0  0  0  0  0  0  0  0  0  0  0
    1.9940   24.3740  -26.9970 N   0  0  0  0  0  0  0  0  0  0  0  0
    0.9350   24.5760  -27.7980 C   0  0  0  0  0  0  0  0  0  0  0  0
   -1.4820   22.9990  -28.6510 N   0  0  0  0  0  0  0  0  0  0  0  0
   -2.0380   21.9510  -29.2790 C   0  0  0  0  0  0  0  0  0  0  0  0
   -1.5880   20.6160  -29.0810 N   0  0  0  0  0  0  0  0  0  0  0  0
   -1.8330   19.8370  -27.9100 C   0  0  0  0  0  0  0  0  0  0  0  0
   -0.5350   19.2310  -27.4240 C   0  0  0  0  0  0  0  0  0  0  0  0
    0.1700   18.5010  -28.4240 N   0  0  0  0  0  0  0  0  0  0  0  0
    1.5170   18.2640  -27.8790 C   0  0  0  0  0  0  0  0  0  0  0  0
    0.3460   19.1870  -29.6600 C   0  0  0  0  0  0  0  0  0  0  0  0
   -0.8110   19.9780  -30.1530 C   0  0  0  0  0  0  0  0  0  0  0  0
   -3.0540   22.2120  -30.1150 N   0  0  0  0  0  0  0  0  0  0  0  0
   -3.3013   21.3777  -32.2319 H   0  0  0  0  0  0  0  0  0  0  0  0
   -4.1096   20.6033  -33.6368 H   0  0  0  0  0  0  0  0  0  0  0  0
   -3.8106   22.3746  -33.6368 H   0  0  0  0  0  0  0  0  0  0  0  0
   -6.2128   19.9999  -33.3490 H   0  0  0  0  0  0  0  0  0  0  0  0
   -8.8684   22.1882  -30.7887 H   0  0  0  0  0  0  0  0  0  0  0  0
   -7.0011   23.7371  -29.0030 H   0  0  0  0  0  0  0  0  0  0  0  0
   -6.2888   24.8431  -30.2261 H   0  0  0  0  0  0  0  0  0  0  0  0
   -8.0563   24.5228  -30.2261 H   0  0  0  0  0  0  0  0  0  0  0  0
   -3.3357   25.5549  -29.8846 H   0  0  0  0  0  0  0  0  0  0  0  0
   -1.3118   25.7312  -25.5595 H   0  0  0  0  0  0  0  0  0  0  0  0
    0.6588   25.3633  -24.0444 H   0  0  0  0  0  0  0  0  0  0  0  0
    2.1780   25.1860  -22.9510 H   0  0  0  0  0  0  0  0  0  0  0  0
    3.4020   23.8880  -22.7310 H   0  0  0  0  0  0  0  0  0  0  0  0
    1.0304   24.3470  -28.8697 H   0  0  0  0  0  0  0  0  0  0  0  0
   -0.7040   22.8920  -27.9970 H   0  0  0  0  0  0  0  0  0  0  0  0
   -2.2539   20.4806  -27.1234 H   0  0  0  0  0  0  0  0  0  0  0  0
   -2.5453   19.0333  -28.1479 H   0  0  0  0  0  0  0  0  0  0  0  0
    0.1141   20.0436  -27.0657 H   0  0  0  0  0  0  0  0  0  0  0  0
   -0.7936   18.5163  -26.6289 H   0  0  0  0  0  0  0  0  0  0  0  0
    1.4744   18.2715  -26.7799 H   0  0  0  0  0  0  0  0  0  0  0  0
    1.8859   17.2872  -28.2250 H   0  0  0  0  0  0  0  0  0  0  0  0
    2.1972   19.0563  -28.2250 H   0  0  0  0  0  0  0  0  0  0  0  0
    1.1950   19.8763  -29.5411 H   0  0  0  0  0  0  0  0  0  0  0  0
    0.4981   18.3974  -30.4106 H   0  0  0  0  0  0  0  0  0  0  0  0
   -0.4342   20.7639  -30.8241 H   0  0  0  0  0  0  0  0  0  0  0  0
   -1.4854   19.2769  -30.6664 H   0  0  0  0  0  0  0  0  0  0  0  0
  1  2  1  0
  2  3  2  0
  3  4  1  0
  4  5  1  0
  5  6  3  0
  4  7  2  0
  7  8  1  0
  8  9  1  0
  8 10  2  0
 10 11  1  0
 11 12  1  0
 12 13  2  0
 13 14  1  0
 14 15  2  0
 15 16  1  0
 16 17  2  0
 17 18  1  0
 18 19  2  0
 19 20  1  0
 20 21  1  0
 20 22  2  0
 19 23  1  0
 23 24  2  0
 14 25  1  0
 25 26  1  0
 26 27  1  0
 27 28  1  0
 28 29  1  0
 29 30  1  0
 30 31  1  0
 30 32  1  0
 32 33  1  0
 26 34  2  0
 10  2  1  0
 34 12  1  0
 24 16  1  0
 33 27  1  0
  1 35  1  0
  1 36  1  0
  1 37  1  0
  3 38  1  0
  7 39  1  0
  9 40  1  0
  9 41  1  0
  9 42  1  0
 13 43  1  0
 17 44  1  0
 18 45  1  0
 21 46  1  0
 21 47  1  0
 24 48  1  0
 25 49  1  0
 28 50  1  0
 28 51  1  0
 29 52  1  0
 29 53  1  0
 31 54  1  0
 31 55  1  0
 31 56  1  0
 32 57  1  0
 32 58  1  0
 33 59  1  0
 33 60  1  0
M  END
>  <smiles>  (6) 
Cc1cc(C#N)cc(C)c1Oc1cc(=Nc2ccc(C(N)=O)nc2)[nH]c(N2CCN(C)CC2)n1

>  <score_type>  (6) 
oracle

>  <origin>  (6) 
adgpu

>  <m_score__min__energy>  (6) 
-9

>  <m_primary>  (6) 
energy

$$$$
6:0
     RDKit          3D

 36 37  0  0  0  0  0  0  0  0999 V2000
   -3.5630   19.7010  -32.4870 C   0  0  0  0  0  0  0  0  0  0  0  0
   -2.5680   20.8390  -32.1770 C   0  0  0  0  0  0  0  0  0  0  0  0
   -1.7470   21.1280  -33.4560 C   0  0  0  0  0  0  0  0  0  0  0  0
   -1.5950   20.3910  -31.0680 C   0  0  0  0  0  0  0  0  0  0  0  0
   -3.3330   22.0840  -31.7250 C   0  0  0  0  0  0  0  0  0  0  0  0
   -2.7640   23.0000  -30.8200 C   0  0  0  0  0  0  0  0  0  0  0  0
   -3.5070   24.1150  -30.4330 C   0  0  0  0  0  0  0  0  0  0  0  0
   -3.0230   24.9500  -29.6250 O   0  0  0  0  0  0  0  0  0  0  0  0
   -4.7580   24.3000  -30.9250 N   0  0  0  0  0  0  0  0  0  0  0  0
   -5.3030   23.4100  -31.7940 C   0  0  0  0  0  0  0  0  0  0  0  0
   -6.9680   23.6590  -32.4010 S   0  0  0  0  0  0  0  0  0  0  0  0
   -7.7400   22.5220  -31.1960 C   0  0  0  0  0  0  0  0  0  0  0  0
   -7.8110   21.1220  -31.7410 C   0  0  0  0  0  0  0  0  0  0  0  0
   -8.7450   20.2090  -31.2230 C   0  0  0  0  0  0  0  0  0  0  0  0
   -8.7900   18.8980  -31.7060 C   0  0  0  0  0  0  0  0  0  0  0  0
   -7.9030   18.4880  -32.7040 C   0  0  0  0  0  0  0  0  0  0  0  0
   -6.9680   19.3880  -33.2220 C   0  0  0  0  0  0  0  0  0  0  0  0
   -6.9210   20.7020  -32.7430 C   0  0  0  0  0  0  0  0  0  0  0  0
   -4.5930   22.3210  -32.1860 N   0  0  0  0  0  0  0  0  0  0  0  0
   -3.9366   19.2737  -31.5447 H   0  0  0  0  0  0  0  0  0  0  0  0
   -4.4070   20.1002  -33.0686 H   0  0  0  0  0  0  0  0  0  0  0  0
   -3.0547   18.9178  -33.0686 H   0  0  0  0  0  0  0  0  0  0  0  0
   -0.7437   21.4812  -33.1757 H   0  0  0  0  0  0  0  0  0  0  0  0
   -1.6586   20.2070  -34.0509 H   0  0  0  0  0  0  0  0  0  0  0  0
   -2.2550   21.9013  -34.0509 H   0  0  0  0  0  0  0  0  0  0  0  0
   -2.0412   20.5964  -30.0838 H   0  0  0  0  0  0  0  0  0  0  0  0
   -1.4005   19.3127  -31.1645 H   0  0  0  0  0  0  0  0  0  0  0  0
   -0.6492   20.9443  -31.1645 H   0  0  0  0  0  0  0  0  0  0  0  0
   -1.7502   22.8390  -30.4247 H   0  0  0  0  0  0  0  0  0  0  0  0
   -7.1428   22.5180  -30.2722 H   0  0  0  0  0  0  0  0  0  0  0  0
   -8.7635   22.8703  -30.9933 H   0  0  0  0  0  0  0  0  0  0  0  0
   -9.4432   20.5270  -30.4347 H   0  0  0  0  0  0  0  0  0  0  0  0
   -9.5253   18.1880  -31.2994 H   0  0  0  0  0  0  0  0  0  0  0  0
   -7.9405   17.4558  -33.0825 H   0  0  0  0  0  0  0  0  0  0  0  0
   -6.2686   19.0635  -34.0066 H   0  0  0  0  0  0  0  0  0  0  0  0
   -6.1842   21.4086  -33.1528 H   0  0  0  0  0  0  0  0  0  0  0  0
  1  2  1  0
  2  3  1  0
  2  4  1  0
  2  5  1  0
  5  6  2  0
  6  7  1  0
  7  8  2  0
  7  9  1  0
  9 10  1  0
 10 11  1  0
 11 12  1  0
 12 13  1  0
 13 14  2  0
 14 15  1  0
 15 16  2  0
 16 17  1  0
 17 18  2  0
 10 19  2  0
 19  5  1  0
 18 13  1  0
  1 20  1  0
  1 21  1  0
  1 22  1  0
  3 23  1  0
  3 24  1  0
  3 25  1  0
  4 26  1  0
  4 27  1  0
  4 28  1  0
  6 29  1  0
 12 30  1  0
 12 31  1  0
 14 32  1  0
 15 33  1  0
 16 34  1  0
 17 35  1  0
 18 36  1  0
M  CHG  1   9  -1
M  END
>  <UniqueID>  (7) 
6

>  <SMILES>  (7) 
CC(C)(C)c1cc(=O)[n-]c(SCc2ccccc2)n1

>  <Energy>  (7) 
29.70026771139673

>  <Genealogy>  (7) 
CC(C)(C)c1cc(=O)[n-]c(SCc2ccccc2)n1 (protonated)
CC(C)(C)c1cc(=O)[n-]c(SCc2ccccc2)n1 (3D coordinates assigned)
CC(C)(C)c1cc(=O)[n-]c(SCc2ccccc2)n1 (optimized conformer: 29.70026771139673 kcal/mol)

>  <smiles>  (7) 
CC(C)(C)c1cc(=O)[nH]c(SCc2ccccc2)n1

>  <score_type>  (7) 
oracle

>  <origin>  (7) 
adgpu

>  <m_score__min__energy>  (7) 
-8

>  <m_primary>  (7) 
energy

$$$$
7:0
     RDKit          3D

 40 42  0  0  0  0  0  0  0  0999 V2000
   -8.8210   21.5900  -31.9250 C   0  0  0  0  0  0  0  0  0  0  0  0
   -7.4680   22.0230  -31.4320 C   0  0  0  0  0  0  0  0  0  0  0  0
   -7.3620   23.0680  -30.5010 C   0  0  0  0  0  0  0  0  0  0  0  0
   -6.1120   23.4810  -30.0360 C   0  0  0  0  0  0  0  0  0  0  0  0
   -4.9410   22.8550  -30.4910 C   0  0  0  0  0  0  0  0  0  0  0  0
   -3.6490   23.2860  -30.0240 N   0  0  0  0  0  0  0  0  0  0  0  0
   -2.6900   22.4950  -29.4890 C   0  0  0  0  0  0  0  0  0  0  0  0
   -1.5730   23.2510  -29.1750 C   0  0  0  0  0  0  0  0  0  0  0  0
   -0.3620   22.7860  -28.4870 C   0  0  0  0  0  0  0  0  0  0  0  0
    0.4610   23.6430  -28.0780 O   0  0  0  0  0  0  0  0  0  0  0  0
   -0.0610   21.3930  -28.2950 N   0  0  0  0  0  0  0  0  0  0  0  0
   -0.3230   20.5360  -27.1310 C   0  0  0  0  0  0  0  0  0  0  0  0
   -1.5930   20.9410  -26.3850 C   0  0  0  0  0  0  0  0  0  0  0  0
   -2.3070   19.6440  -26.0330 C   0  0  0  0  0  0  0  0  0  0  0  0
   -1.8400   18.6150  -27.0500 C   0  0  0  0  0  0  0  0  0  0  0  0
   -0.4500   19.0510  -27.4920 C   0  0  0  0  0  0  0  0  0  0  0  0
   -1.8930   24.5600  -29.4810 C   0  0  0  0  0  0  0  0  0  0  0  0
   -1.1010   25.6870  -29.2800 O   0  0  0  0  0  0  0  0  0  0  0  0
   -3.1610   24.5470  -30.0090 C   0  0  0  0  0  0  0  0  0  0  0  0
   -3.8630   25.6710  -30.4270 O   0  0  0  0  0  0  0  0  0  0  0  0
   -5.0440   21.8150  -31.4310 C   0  0  0  0  0  0  0  0  0  0  0  0
   -6.2950   21.3970  -31.8990 C   0  0  0  0  0  0  0  0  0  0  0  0
   -6.3580   20.0830  -33.0700 Cl  0  0  0  0  0  0  0  0  0  0  0  0
   -9.4748   21.3808  -31.0654 H   0  0  0  0  0  0  0  0  0  0  0  0
   -9.2628   22.3916  -32.5351 H   0  0  0  0  0  0  0  0  0  0  0  0
   -8.7152   20.6808  -32.5351 H   0  0  0  0  0  0  0  0  0  0  0  0
   -8.2718   23.5660  -30.1345 H   0  0  0  0  0  0  0  0  0  0  0  0
   -6.0444   24.3028  -29.3079 H   0  0  0  0  0  0  0  0  0  0  0  0
   -2.7840   21.4110  -29.3273 H   0  0  0  0  0  0  0  0  0  0  0  0
    0.5566   20.6793  -26.4862 H   0  0  0  0  0  0  0  0  0  0  0  0
   -1.3379   21.4968  -25.4706 H   0  0  0  0  0  0  0  0  0  0  0  0
   -2.2285   21.5959  -26.9992 H   0  0  0  0  0  0  0  0  0  0  0  0
   -2.0378   19.3243  -25.0155 H   0  0  0  0  0  0  0  0  0  0  0  0
   -3.3997   19.7673  -26.0595 H   0  0  0  0  0  0  0  0  0  0  0  0
   -1.7976   17.6168  -26.5898 H   0  0  0  0  0  0  0  0  0  0  0  0
   -2.5306   18.5552  -27.9041 H   0  0  0  0  0  0  0  0  0  0  0  0
    0.3174   18.4650  -26.9650 H   0  0  0  0  0  0  0  0  0  0  0  0
   -0.3076   18.8908  -28.5709 H   0  0  0  0  0  0  0  0  0  0  0  0
   -0.1310   25.6020  -29.0080 H   0  0  0  0  0  0  0  0  0  0  0  0
   -4.1321   21.3247  -31.8026 H   0  0  0  0  0  0  0  0  0  0  0  0
  1  2  1  0
  2  3  2  0
  3  4  1  0
  4  5  2  0
  5  6  1  0
  6  7  1  0
  7  8  2  0
  8  9  1  0
  9 10  2  0
  9 11  1  0
 11 12  1  0
 12 13  1  0
 13 14  1  0
 14 15  1  0
 15 16  1  0
  8 17  1  0
 17 18  1  0
 17 19  2  0
 19 20  1  0
  5 21  1  0
 21 22  2  0
 22 23  1  0
 22  2  1  0
 19  6  1  0
 16 12  1  0
  1 24  1  0
  1 25  1  0
  1 26  1  0
  3 27  1  0
  4 28  1  0
  7 29  1  0
 12 30  1  0
 13 31  1  0
 13 32  1  0
 14 33  1  0
 14 34  1  0
 15 35  1  0
 15 36  1  0
 16 37  1  0
 16 38  1  0
 18 39  1  0
 21 40  1  0
M  CHG  2  11  -1  20  -1
M  END
>  <UniqueID>  (8) 
7

>  <SMILES>  (8) 
Cc1ccc(-n2cc(C(=O)[N-]C3CCCC3)c(O)c2[O-])cc1Cl

>  <Energy>  (8) 
82.43724898949016

>  <Genealogy>  (8) 
Cc1ccc(-n2cc(C(=O)[N-]C3CCCC3)c(O)c2[O-])cc1Cl (protonated)
Cc1ccc(-n2cc(C(=O)[N-]C3CCCC3)c(O)c2[O-])cc1Cl (3D coordinates assigned)
Cc1ccc(-n2cc(C(=O)[N-]C3CCCC3)c(O)c2[O-])cc1Cl (nonaromatic ring conformer: 82.43724898949016 kcal/mol)

>  <smiles>  (8) 
Cc1ccc(-n2cc(C(=O)NC3CCCC3)c(O)c2O)cc1Cl

>  <score_type>  (8) 
oracle

>  <origin>  (8) 
adgpu

>  <m_score__min__energy>  (8) 
-11.720000000000001

>  <m_primary>  (8) 
energy

$$$$
8:0
     RDKit          3D

 54 57  0  0  0  0  0  0  0  0999 V2000
   -1.0410   20.6830  -30.3810 O   0  0  0  0  0  0  0  0  0  0  0  0
   -1.9950   21.2450  -30.9840 C   0  0  0  0  0  0  0  0  0  0  0  0
   -2.3160   22.6190  -30.7170 N   0  0  0  0  0  0  0  0  0  0  0  0
   -1.7870   23.3380  -29.5950 C   0  0  0  0  0  0  0  0  0  0  0  0
   -0.8900   22.6930  -28.7310 C   0  0  0  0  0  0  0  0  0  0  0  0
   -0.3590   23.3710  -27.6300 C   0  0  0  0  0  0  0  0  0  0  0  0
   -0.7340   24.6940  -27.3760 C   0  0  0  0  0  0  0  0  0  0  0  0
   -1.6480   25.3360  -28.2150 C   0  0  0  0  0  0  0  0  0  0  0  0
   -2.1860   24.6610  -29.3170 C   0  0  0  0  0  0  0  0  0  0  0  0
   -3.1320   25.2980  -30.1110 O   0  0  0  0  0  0  0  0  0  0  0  0
   -2.7830   20.4720  -31.9640 C   0  0  0  0  0  0  0  0  0  0  0  0
   -4.1330   20.2040  -31.6820 C   0  0  0  0  0  0  0  0  0  0  0  0
   -4.9050   19.4300  -32.5550 C   0  0  0  0  0  0  0  0  0  0  0  0
   -6.5950   19.1030  -32.1820 S   0  0  0  0  0  0  0  0  0  0  0  0
   -6.6740   17.9620  -31.2080 O   0  0  0  0  0  0  0  0  0  0  0  0
   -7.3250   18.7110  -33.4380 O   0  0  0  0  0  0  0  0  0  0  0  0
   -7.3170   20.5250  -31.4710 N   0  0  0  0  0  0  0  0  0  0  0  0
   -6.9270   21.7350  -32.1950 C   0  0  0  0  0  0  0  0  0  0  0  0
   -8.0400   22.7460  -31.9680 C   0  0  0  0  0  0  0  0  0  0  0  0
   -9.2620   21.9190  -31.6030 C   0  0  0  0  0  0  0  0  0  0  0  0
   -8.7770   20.4770  -31.5490 C   0  0  0  0  0  0  0  0  0  0  0  0
   -4.3340   18.9380  -33.7330 C   0  0  0  0  0  0  0  0  0  0  0  0
   -3.0010   19.2160  -34.0360 C   0  0  0  0  0  0  0  0  0  0  0  0
   -2.2130   19.9840  -33.1650 C   0  0  0  0  0  0  0  0  0  0  0  0
   -0.8720   20.3280  -33.5610 N   0  0  0  0  0  0  0  0  0  0  0  0
   -0.6320   21.5620  -34.3180 C   0  0  0  0  0  0  0  0  0  0  0  0
    0.7270   21.4990  -35.0120 C   0  0  0  0  0  0  0  0  0  0  0  0
    0.9040   20.2130  -35.5630 O   0  0  0  0  0  0  0  0  0  0  0  0
    1.1670   19.2700  -34.5370 C   0  0  0  0  0  0  0  0  0  0  0  0
    0.2330   19.3910  -33.3090 C   0  0  0  0  0  0  0  0  0  0  0  0
   -3.0880   23.0670  -31.2590 H   0  0  0  0  0  0  0  0  0  0  0  0
   -0.6029   21.6482  -28.9208 H   0  0  0  0  0  0  0  0  0  0  0  0
    0.3539   22.8638  -26.9633 H   0  0  0  0  0  0  0  0  0  0  0  0
   -0.3088   25.2298  -26.5145 H   0  0  0  0  0  0  0  0  0  0  0  0
   -1.9457   26.3747  -28.0091 H   0  0  0  0  0  0  0  0  0  0  0  0
   -4.5878   20.6070  -30.7651 H   0  0  0  0  0  0  0  0  0  0  0  0
   -5.9748   22.1226  -31.8038 H   0  0  0  0  0  0  0  0  0  0  0  0
   -6.7846   21.5312  -33.2665 H   0  0  0  0  0  0  0  0  0  0  0  0
   -7.7781   23.4301  -31.1473 H   0  0  0  0  0  0  0  0  0  0  0  0
   -8.2163   23.3695  -32.8569 H   0  0  0  0  0  0  0  0  0  0  0  0
   -9.6571   22.2285  -30.6241 H   0  0  0  0  0  0  0  0  0  0  0  0
  -10.0749   22.0487  -32.3326 H   0  0  0  0  0  0  0  0  0  0  0  0
   -9.1873   19.9724  -30.6618 H   0  0  0  0  0  0  0  0  0  0  0  0
   -9.1067   19.9161  -32.4359 H   0  0  0  0  0  0  0  0  0  0  0  0
   -4.9378   18.3300  -34.4227 H   0  0  0  0  0  0  0  0  0  0  0  0
   -2.5628   18.8290  -34.9678 H   0  0  0  0  0  0  0  0  0  0  0  0
   -1.4211   21.6834  -35.0747 H   0  0  0  0  0  0  0  0  0  0  0  0
   -0.6418   22.4160  -33.6248 H   0  0  0  0  0  0  0  0  0  0  0  0
    0.7669   22.2518  -35.8131 H   0  0  0  0  0  0  0  0  0  0  0  0
    1.5253   21.7033  -34.2833 H   0  0  0  0  0  0  0  0  0  0  0  0
    1.0530   18.2605  -34.9589 H   0  0  0  0  0  0  0  0  0  0  0  0
    2.1876   19.4696  -34.1785 H   0  0  0  0  0  0  0  0  0  0  0  0
   -0.1847   18.3997  -33.0789 H   0  0  0  0  0  0  0  0  0  0  0  0
    0.8234   19.7738  -32.4635 H   0  0  0  0  0  0  0  0  0  0  0  0
  1  2  2  0
  2  3  1  0
  3  4  1  0
  4  5  2  0
  5  6  1  0
  6  7  2  0
  7  8  1  0
  8  9  2  0
  9 10  1  0
  2 11  1  0
 11 12  2  0
 12 13  1  0
 13 14  1  0
 14 15  2  0
 14 16  2  0
 14 17  1  0
 17 18  1  0
 18 19  1  0
 19 20  1  0
 20 21  1  0
 13 22  2  0
 22 23  1  0
 23 24  2  0
 24 25  1  0
 25 26  1  0
 26 27  1  0
 27 28  1  0
 28 29  1  0
 29 30  1  0
  9  4  1  0
 24 11  1  0
 30 25  1  0
 21 17  1  0
  3 31  1  0
  5 32  1  0
  6 33  1  0
  7 34  1  0
  8 35  1  0
 12 36  1  0
 18 37  1  0
 18 38  1  0
 19 39  1  0
 19 40  1  0
 20 41  1  0
 20 42  1  0
 21 43  1  0
 21 44  1  0
 22 45  1  0
 23 46  1  0
 26 47  1  0
 26 48  1  0
 27 49  1  0
 27 50  1  0
 29 51  1  0
 29 52  1  0
 30 53  1  0
 30 54  1  0
M  CHG  1  10  -1
M  END
>  <UniqueID>  (9) 
8

>  <SMILES>  (9) 
O=C(Nc1ccccc1[O-])c1cc(S(=O)(=O)N2CCCC2)ccc1N1CCOCC1

>  <Energy>  (9) 
77.86787850437645

>  <Genealogy>  (9) 
O=C(Nc1ccccc1[O-])c1cc(S(=O)(=O)N2CCCC2)ccc1N1CCOCC1 (protonated)
O=C(Nc1ccccc1[O-])c1cc(S(=O)(=O)N2CCCC2)ccc1N1CCOCC1 (3D coordinates assigned)
O=C(Nc1ccccc1[O-])c1cc(S(=O)(=O)N2CCCC2)ccc1N1CCOCC1 (nonaromatic ring conformer: 77.86787850437645 kcal/mol)

>  <smiles>  (9) 
O=C(Nc1ccccc1O)c1cc(S(=O)(=O)N2CCCC2)ccc1N1CCOCC1

>  <score_type>  (9) 
oracle

>  <origin>  (9) 
adgpu

>  <m_score__min__energy>  (9) 
-11.75

>  <m_primary>  (9) 
energy

$$$$
9:0
     RDKit          3D

 56 59  0  0  0  0  0  0  0  0999 V2000
   -2.2130   22.6250  -30.4960 O   0  0  0  0  0  0  0  0  0  0  0  0
   -3.3240   22.4240  -29.9350 C   0  0  0  0  0  0  0  0  0  0  0  0
   -3.3880   21.6180  -28.7460 N   0  0  0  0  0  0  0  0  0  0  0  0
   -2.4000   20.6350  -28.3920 C   0  0  0  0  0  0  0  0  0  0  0  0
   -2.4270   20.0610  -27.1140 C   0  0  0  0  0  0  0  0  0  0  0  0
   -1.4900   19.0890  -26.7550 C   0  0  0  0  0  0  0  0  0  0  0  0
   -0.5280   18.6680  -27.6770 C   0  0  0  0  0  0  0  0  0  0  0  0
   -0.5080   19.2070  -28.9700 C   0  0  0  0  0  0  0  0  0  0  0  0
    0.6990   18.6650  -30.1420 S   0  0  0  0  0  0  0  0  0  0  0  0
    2.0290   19.2690  -29.7870 O   0  0  0  0  0  0  0  0  0  0  0  0
    0.8300   17.1700  -30.0540 O   0  0  0  0  0  0  0  0  0  0  0  0
    0.2960   19.1050  -31.7850 N   0  0  0  0  0  0  0  0  0  0  0  0
   -1.0280   18.6250  -32.1740 C   0  0  0  0  0  0  0  0  0  0  0  0
   -1.5090   19.5470  -33.2840 C   0  0  0  0  0  0  0  0  0  0  0  0
   -0.6650   20.8070  -33.1550 C   0  0  0  0  0  0  0  0  0  0  0  0
    0.2590   20.5530  -31.9730 C   0  0  0  0  0  0  0  0  0  0  0  0
   -1.4420   20.1930  -29.3230 C   0  0  0  0  0  0  0  0  0  0  0  0
   -4.5400   23.0830  -30.4700 C   0  0  0  0  0  0  0  0  0  0  0  0
   -5.6900   22.3120  -30.7220 C   0  0  0  0  0  0  0  0  0  0  0  0
   -6.8530   22.9070  -31.2310 C   0  0  0  0  0  0  0  0  0  0  0  0
   -8.2970   21.9460  -31.5370 S   0  0  0  0  0  0  0  0  0  0  0  0
   -9.4190   22.8330  -32.0050 O   0  0  0  0  0  0  0  0  0  0  0  0
   -8.7120   21.2890  -30.2500 O   0  0  0  0  0  0  0  0  0  0  0  0
   -7.9460   20.7230  -32.7390 N   0  0  0  0  0  0  0  0  0  0  0  0
   -9.0470   19.7560  -32.8280 C   0  0  0  0  0  0  0  0  0  0  0  0
   -8.7290   18.5880  -31.9050 C   0  0  0  0  0  0  0  0  0  0  0  0
   -7.2500   18.7100  -31.5880 C   0  0  0  0  0  0  0  0  0  0  0  0
   -6.7700   19.9390  -32.3460 C   0  0  0  0  0  0  0  0  0  0  0  0
   -6.8740   24.2830  -31.4780 C   0  0  0  0  0  0  0  0  0  0  0  0
   -5.7440   25.0610  -31.2190 C   0  0  0  0  0  0  0  0  0  0  0  0
   -4.5830   24.4730  -30.7100 C   0  0  0  0  0  0  0  0  0  0  0  0
   -3.4900   25.2860  -30.4210 O   0  0  0  0  0  0  0  0  0  0  0  0
   -4.1410   21.8330  -28.0530 H   0  0  0  0  0  0  0  0  0  0  0  0
   -3.1909   20.3778  -26.3887 H   0  0  0  0  0  0  0  0  0  0  0  0
   -1.5095   18.6543  -25.7447 H   0  0  0  0  0  0  0  0  0  0  0  0
    0.2157   17.9112  -27.3867 H   0  0  0  0  0  0  0  0  0  0  0  0
   -0.9651   17.5895  -32.5398 H   0  0  0  0  0  0  0  0  0  0  0  0
   -1.7218   18.6321  -31.3205 H   0  0  0  0  0  0  0  0  0  0  0  0
   -1.3545   19.0790  -34.2674 H   0  0  0  0  0  0  0  0  0  0  0  0
   -2.5841   19.7637  -33.1995 H   0  0  0  0  0  0  0  0  0  0  0  0
   -0.0806   20.9746  -34.0717 H   0  0  0  0  0  0  0  0  0  0  0  0
   -1.2859   21.7025  -33.0048 H   0  0  0  0  0  0  0  0  0  0  0  0
    1.2677   20.9349  -32.1892 H   0  0  0  0  0  0  0  0  0  0  0  0
   -0.1001   21.0645  -31.0678 H   0  0  0  0  0  0  0  0  0  0  0  0
   -1.4251   20.6236  -30.3351 H   0  0  0  0  0  0  0  0  0  0  0  0
   -5.6763   21.2313  -30.5175 H   0  0  0  0  0  0  0  0  0  0  0  0
   -9.9877   20.2327  -32.5150 H   0  0  0  0  0  0  0  0  0  0  0  0
   -9.1599   19.4025  -33.8635 H   0  0  0  0  0  0  0  0  0  0  0  0
   -9.3260   18.6532  -30.9834 H   0  0  0  0  0  0  0  0  0  0  0  0
   -8.9666   17.6218  -32.3741 H   0  0  0  0  0  0  0  0  0  0  0  0
   -7.0986   18.8423  -30.5065 H   0  0  0  0  0  0  0  0  0  0  0  0
   -6.6945   17.8073  -31.8821 H   0  0  0  0  0  0  0  0  0  0  0  0
   -6.1180   20.5444  -31.6992 H   0  0  0  0  0  0  0  0  0  0  0  0
   -6.1993   19.6374  -33.2367 H   0  0  0  0  0  0  0  0  0  0  0  0
   -7.7840   24.7543  -31.8778 H   0  0  0  0  0  0  0  0  0  0  0  0
   -5.7677   26.1428  -31.4167 H   0  0  0  0  0  0  0  0  0  0  0  0
  1  2  2  0
  2  3  1  0
  3  4  1  0
  4  5  2  0
  5  6  1  0
  6  7  2  0
  7  8  1  0
  8  9  1  0
  9 10  2  0
  9 11  2  0
  9 12  1  0
 12 13  1  0
 13 14  1  0
 14 15  1  0
 15 16  1  0
  8 17  2  0
  2 18  1  0
 18 19  2  0
 19 20  1  0
 20 21  1  0
 21 22  2  0
 21 23  2  0
 21 24  1  0
 24 25  1  0
 25 26  1  0
 26 27  1  0
 27 28  1  0
 20 29  2  0
 29 30  1  0
 30 31  2  0
 31 32  1  0
 17  4  1  0
 31 18  1  0
 16 12  1  0
 28 24  1  0
  3 33  1  0
  5 34  1  0
  6 35  1  0
  7 36  1  0
 13 37  1  0
 13 38  1  0
 14 39  1  0
 14 40  1  0
 15 41  1  0
 15 42  1  0
 16 43  1  0
 16 44  1  0
 17 45  1  0
 19 46  1  0
 25 47  1  0
 25 48  1  0
 26 49  1  0
 26 50  1  0
 27 51  1  0
 27 52  1  0
 28 53  1  0
 28 54  1  0
 29 55  1  0
 30 56  1  0
M  CHG  1  32  -1
M  END
>  <UniqueID>  (10) 
9

>  <SMILES>  (10) 
O=C(Nc1cccc(S(=O)(=O)N2CCCC2)c1)c1cc(S(=O)(=O)N2CCCC2)ccc1[O-]

>  <Energy>  (10) 
67.27209635104295

>  <Genealogy>  (10) 
O=C(Nc1cccc(S(=O)(=O)N2CCCC2)c1)c1cc(S(=O)(=O)N2CCCC2)ccc1[O-] (protonated)
O=C(Nc1cccc(S(=O)(=O)N2CCCC2)c1)c1cc(S(=O)(=O)N2CCCC2)ccc1[O-] (3D coordinates assigned)
O=C(Nc1cccc(S(=O)(=O)N2CCCC2)c1)c1cc(S(=O)(=O)N2CCCC2)ccc1[O-] (nonaromatic ring conformer: 67.27209635104295 kcal/mol)

>  <smiles>  (10) 
O=C(Nc1cccc(S(=O)(=O)N2CCCC2)c1)c1cc(S(=O)(=O)N2CCCC2)ccc1O

>  <score_type>  (10) 
oracle

>  <origin>  (10) 
adgpu

>  <m_score__min__energy>  (10) 
-13.92

>  <m_primary>  (10) 
energy

$$$$
10:0
     RDKit          3D

 61 64  0  0  0  0  0  0  0  0999 V2000
   -4.6710   13.2840  -30.9680 C   0  0  0  0  0  0  0  0  0  0  0  0
   -4.5040   14.1260  -32.1620 N   0  0  0  0  0  0  0  0  0  0  0  0
   -3.0680   14.3460  -32.4380 C   0  0  0  0  0  0  0  0  0  0  0  0
   -2.8480   15.0540  -33.7950 C   0  0  0  0  0  0  0  0  0  0  0  0
   -4.1000   15.5310  -34.4100 N   0  0  0  0  0  0  0  0  0  0  0  0
   -4.7270   16.9680  -33.6160 S   0  0  0  0  0  0  0  0  0  0  0  0
   -5.9870   17.4510  -34.2830 O   0  0  0  0  0  0  0  0  0  0  0  0
   -5.0350   16.7090  -32.1650 O   0  0  0  0  0  0  0  0  0  0  0  0
   -3.5130   18.2420  -33.7100 C   0  0  0  0  0  0  0  0  0  0  0  0
   -2.2080   17.9470  -34.1310 C   0  0  0  0  0  0  0  0  0  0  0  0
   -1.2580   18.9670  -34.2280 C   0  0  0  0  0  0  0  0  0  0  0  0
   -1.6080   20.2850  -33.9200 C   0  0  0  0  0  0  0  0  0  0  0  0
   -2.9080   20.5950  -33.5000 C   0  0  0  0  0  0  0  0  0  0  0  0
   -3.2110   21.9580  -33.1640 N   0  0  0  0  0  0  0  0  0  0  0  0
   -3.3810   22.5320  -31.8590 C   0  0  0  0  0  0  0  0  0  0  0  0
   -2.3970   22.5290  -31.0720 O   0  0  0  0  0  0  0  0  0  0  0  0
   -4.6500   23.1560  -31.4130 C   0  0  0  0  0  0  0  0  0  0  0  0
   -5.8600   22.4740  -31.6330 C   0  0  0  0  0  0  0  0  0  0  0  0
   -7.0790   23.0360  -31.2400 C   0  0  0  0  0  0  0  0  0  0  0  0
   -8.5770   22.1430  -31.4890 S   0  0  0  0  0  0  0  0  0  0  0  0
   -9.4890   22.9670  -32.3560 O   0  0  0  0  0  0  0  0  0  0  0  0
   -9.2440   21.9010  -30.1610 O   0  0  0  0  0  0  0  0  0  0  0  0
   -8.2490   20.6200  -32.2790 N   0  0  0  0  0  0  0  0  0  0  0  0
   -7.1970   19.8710  -31.5900 C   0  0  0  0  0  0  0  0  0  0  0  0
   -7.4540   18.3990  -31.8820 C   0  0  0  0  0  0  0  0  0  0  0  0
   -8.9020   18.3250  -32.3420 C   0  0  0  0  0  0  0  0  0  0  0  0
   -9.4230   19.7490  -32.2480 C   0  0  0  0  0  0  0  0  0  0  0  0
   -7.0940   24.2850  -30.6100 C   0  0  0  0  0  0  0  0  0  0  0  0
   -5.8990   24.9660  -30.3750 C   0  0  0  0  0  0  0  0  0  0  0  0
   -4.6730   24.4050  -30.7580 C   0  0  0  0  0  0  0  0  0  0  0  0
   -3.4830   25.0750  -30.4720 O   0  0  0  0  0  0  0  0  0  0  0  0
   -3.8530   19.5590  -33.3700 C   0  0  0  0  0  0  0  0  0  0  0  0
   -5.0960   14.4460  -34.5490 C   0  0  0  0  0  0  0  0  0  0  0  0
   -5.1580   13.5070  -33.3260 C   0  0  0  0  0  0  0  0  0  0  0  0
   -4.5488   13.9000  -30.0649 H   0  0  0  0  0  0  0  0  0  0  0  0
   -5.6755   12.8358  -30.9730 H   0  0  0  0  0  0  0  0  0  0  0  0
   -3.9136   12.4863  -30.9730 H   0  0  0  0  0  0  0  0  0  0  0  0
   -2.6426   14.9693  -31.6377 H   0  0  0  0  0  0  0  0  0  0  0  0
   -2.5726   13.3647  -32.4791 H   0  0  0  0  0  0  0  0  0  0  0  0
   -2.1855   15.9175  -33.6356 H   0  0  0  0  0  0  0  0  0  0  0  0
   -2.4067   14.3162  -34.4813 H   0  0  0  0  0  0  0  0  0  0  0  0
   -1.9325   16.9127  -34.3848 H   0  0  0  0  0  0  0  0  0  0  0  0
   -0.2319   18.7323  -34.5476 H   0  0  0  0  0  0  0  0  0  0  0  0
   -0.8573   21.0842  -34.0081 H   0  0  0  0  0  0  0  0  0  0  0  0
   -5.8476   21.4876  -32.1196 H   0  0  0  0  0  0  0  0  0  0  0  0
   -6.2082   20.1671  -31.9702 H   0  0  0  0  0  0  0  0  0  0  0  0
   -7.2092   20.0705  -30.5083 H   0  0  0  0  0  0  0  0  0  0  0  0
   -6.7799   18.0404  -32.6738 H   0  0  0  0  0  0  0  0  0  0  0  0
   -7.2728   17.7691  -30.9986 H   0  0  0  0  0  0  0  0  0  0  0  0
   -8.9594   17.9609  -33.3784 H   0  0  0  0  0  0  0  0  0  0  0  0
   -9.4933   17.6295  -31.7283 H   0  0  0  0  0  0  0  0  0  0  0  0
  -10.0833   19.9697  -33.0997 H   0  0  0  0  0  0  0  0  0  0  0  0
  -10.0080   19.9001  -31.3288 H   0  0  0  0  0  0  0  0  0  0  0  0
   -8.0501   24.7313  -30.2992 H   0  0  0  0  0  0  0  0  0  0  0  0
   -5.9193   25.9508  -29.8853 H   0  0  0  0  0  0  0  0  0  0  0  0
   -2.5810   24.6220  -30.5660 H   0  0  0  0  0  0  0  0  0  0  0  0
   -4.8639   19.7844  -32.9995 H   0  0  0  0  0  0  0  0  0  0  0  0
   -6.0880   14.8999  -34.6901 H   0  0  0  0  0  0  0  0  0  0  0  0
   -4.7905   13.8348  -35.4110 H   0  0  0  0  0  0  0  0  0  0  0  0
   -6.2106   13.3010  -33.0817 H   0  0  0  0  0  0  0  0  0  0  0  0
   -4.6333   12.5717  -33.5709 H   0  0  0  0  0  0  0  0  0  0  0  0
  1  2  1  0
  2  3  1  0
  3  4  1  0
  4  5  1  0
  5  6  1  0
  6  7  2  0
  6  8  2  0
  6  9  1  0
  9 10  2  0
 10 11  1  0
 11 12  2  0
 12 13  1  0
 13 14  1  0
 14 15  1  0
 15 16  2  0
 15 17  1  0
 17 18  2  0
 18 19  1  0
 19 20  1  0
 20 21  2  0
 20 22  2  0
 20 23  1  0
 23 24  1  0
 24 25  1  0
 25 26  1  0
 26 27  1  0
 19 28  2  0
 28 29  1  0
 29 30  2  0
 30 31  1  0
 13 32  2  0
  5 33  1  0
 33 34  1  0
 34  2  1  0
 32  9  1  0
 30 17  1  0
 27 23  1  0
  1 35  1  0
  1 36  1  0
  1 37  1  0
  3 38  1  0
  3 39  1  0
  4 40  1  0
  4 41  1  0
 10 42  1  0
 11 43  1  0
 12 44  1  0
 18 45  1  0
 24 46  1  0
 24 47  1  0
 25 48  1  0
 25 49  1  0
 26 50  1  0
 26 51  1  0
 27 52  1  0
 27 53  1  0
 28 54  1  0
 29 55  1  0
 31 56  1  0
 32 57  1  0
 33 58  1  0
 33 59  1  0
 34 60  1  0
 34 61  1  0
M  CHG  1  14  -1
M  END
>  <UniqueID>  (11) 
10

>  <SMILES>  (11) 
CN1CCN(S(=O)(=O)c2cccc([N-]C(=O)c3cc(S(=O)(=O)N4CCCC4)ccc3O)c2)CC1

>  <Energy>  (11) 
79.97344653894274

>  <Genealogy>  (11) 
CN1CCN(S(=O)(=O)c2cccc([N-]C(=O)c3cc(S(=O)(=O)N4CCCC4)ccc3O)c2)CC1 (protonated)
CN1CCN(S(=O)(=O)c2cccc([N-]C(=O)c3cc(S(=O)(=O)N4CCCC4)ccc3O)c2)CC1 (3D coordinates assigned)
CN1CCN(S(=O)(=O)c2cccc([N-]C(=O)c3cc(S(=O)(=O)N4CCCC4)ccc3O)c2)CC1 (nonaromatic ring conformer: 79.97344653894274 kcal/mol)

>  <smiles>  (11) 
CN1CCN(S(=O)(=O)c2cccc(NC(=O)c3cc(S(=O)(=O)N4CCCC4)ccc3O)c2)CC1

>  <score_type>  (11) 
oracle

>  <origin>  (11) 
adgpu

>  <m_score__min__energy>  (11) 
-11.16

>  <m_primary>  (11) 
energy

$$$$
11:0
     RDKit          3D

 54 57  0  0  0  0  0  0  0  0999 V2000
   -4.0970   24.9040  -30.8100 O   0  0  0  0  0  0  0  0  0  0  0  0
   -5.1030   24.5750  -30.1250 C   0  0  0  0  0  0  0  0  0  0  0  0
   -6.4750   24.8890  -30.6390 C   0  0  0  0  0  0  0  0  0  0  0  0
   -6.7300   24.1640  -31.9620 C   0  0  0  0  0  0  0  0  0  0  0  0
   -6.9470   22.7390  -31.7240 N   0  0  0  0  0  0  0  0  0  0  0  0
   -5.9820   21.6980  -31.9090 C   0  0  0  0  0  0  0  0  0  0  0  0
   -4.7420   21.8920  -32.0090 O   0  0  0  0  0  0  0  0  0  0  0  0
   -6.6490   20.4060  -32.0040 C   0  0  0  0  0  0  0  0  0  0  0  0
   -6.1300   19.1240  -32.1890 C   0  0  0  0  0  0  0  0  0  0  0  0
   -7.0360   18.0530  -32.2750 C   0  0  0  0  0  0  0  0  0  0  0  0
   -8.4290   18.2820  -32.1790 C   0  0  0  0  0  0  0  0  0  0  0  0
   -8.9260   19.5840  -31.9950 C   0  0  0  0  0  0  0  0  0  0  0  0
   -8.0060   20.6280  -31.9090 C   0  0  0  0  0  0  0  0  0  0  0  0
   -8.2090   22.0650  -31.7540 C   0  0  0  0  0  0  0  0  0  0  0  0
   -9.3220   22.6460  -31.6910 O   0  0  0  0  0  0  0  0  0  0  0  0
   -4.9450   23.9030  -28.8650 N   0  0  0  0  0  0  0  0  0  0  0  0
   -3.6910   23.4020  -28.3740 C   0  0  0  0  0  0  0  0  0  0  0  0
   -3.5350   22.0550  -28.0030 C   0  0  0  0  0  0  0  0  0  0  0  0
   -2.3120   21.5970  -27.5050 C   0  0  0  0  0  0  0  0  0  0  0  0
   -1.2380   22.4790  -27.3630 C   0  0  0  0  0  0  0  0  0  0  0  0
   -1.3880   23.8290  -27.7100 C   0  0  0  0  0  0  0  0  0  0  0  0
   -0.0510   24.9630  -27.5260 S   0  0  0  0  0  0  0  0  0  0  0  0
    1.1700   24.4320  -28.2230 O   0  0  0  0  0  0  0  0  0  0  0  0
   -0.4460   26.2700  -28.1560 O   0  0  0  0  0  0  0  0  0  0  0  0
    0.2770   25.1830  -25.8210 N   0  0  0  0  0  0  0  0  0  0  0  0
    1.0100   26.4490  -25.5550 C   0  0  0  0  0  0  0  0  0  0  0  0
    0.2390   27.4450  -24.6700 C   0  0  0  0  0  0  0  0  0  0  0  0
   -1.2200   27.5410  -25.1140 C   0  0  0  0  0  0  0  0  0  0  0  0
   -1.9190   26.1690  -25.0940 C   0  0  0  0  0  0  0  0  0  0  0  0
   -0.9340   24.9880  -25.0000 C   0  0  0  0  0  0  0  0  0  0  0  0
   -2.6160   24.2870  -28.2060 C   0  0  0  0  0  0  0  0  0  0  0  0
   -7.2217   24.5654  -29.8990 H   0  0  0  0  0  0  0  0  0  0  0  0
   -6.5528   25.9734  -30.8066 H   0  0  0  0  0  0  0  0  0  0  0  0
   -7.6214   24.5915  -32.4444 H   0  0  0  0  0  0  0  0  0  0  0  0
   -5.8530   24.2890  -32.6141 H   0  0  0  0  0  0  0  0  0  0  0  0
   -5.0454   18.9568  -32.2652 H   0  0  0  0  0  0  0  0  0  0  0  0
   -6.6595   17.0294  -32.4180 H   0  0  0  0  0  0  0  0  0  0  0  0
   -9.1278   17.4354  -32.2488 H   0  0  0  0  0  0  0  0  0  0  0  0
  -10.0071   19.7732  -31.9212 H   0  0  0  0  0  0  0  0  0  0  0  0
   -5.7710   23.8610  -28.2280 H   0  0  0  0  0  0  0  0  0  0  0  0
   -4.3798   21.3579  -28.1052 H   0  0  0  0  0  0  0  0  0  0  0  0
   -2.1949   20.5399  -27.2243 H   0  0  0  0  0  0  0  0  0  0  0  0
   -0.2741   22.1140  -26.9787 H   0  0  0  0  0  0  0  0  0  0  0  0
    1.9570   26.2015  -25.0530 H   0  0  0  0  0  0  0  0  0  0  0  0
    1.1618   26.9392  -26.5279 H   0  0  0  0  0  0  0  0  0  0  0  0
    0.2772   27.1045  -23.6247 H   0  0  0  0  0  0  0  0  0  0  0  0
    0.7045   28.4372  -24.7641 H   0  0  0  0  0  0  0  0  0  0  0  0
   -1.7541   28.2219  -24.4349 H   0  0  0  0  0  0  0  0  0  0  0  0
   -1.2372   27.9168  -26.1477 H   0  0  0  0  0  0  0  0  0  0  0  0
   -2.5928   26.1324  -24.2253 H   0  0  0  0  0  0  0  0  0  0  0  0
   -2.4640   26.0656  -26.0439 H   0  0  0  0  0  0  0  0  0  0  0  0
   -0.6302   24.8671  -23.9497 H   0  0  0  0  0  0  0  0  0  0  0  0
   -1.4514   24.0956  -25.3819 H   0  0  0  0  0  0  0  0  0  0  0  0
   -2.7378   25.3490  -28.4656 H   0  0  0  0  0  0  0  0  0  0  0  0
  1  2  2  0
  2  3  1  0
  3  4  1  0
  4  5  1  0
  5  6  1  0
  6  7  2  0
  6  8  1  0
  8  9  2  0
  9 10  1  0
 10 11  2  0
 11 12  1  0
 12 13  2  0
 13 14  1  0
 14 15  2  0
  2 16  1  0
 16 17  1  0
 17 18  2  0
 18 19  1  0
 19 20  2  0
 20 21  1  0
 21 22  1  0
 22 23  2  0
 22 24  2  0
 22 25  1  0
 25 26  1  0
 26 27  1  0
 27 28  1  0
 28 29  1  0
 29 30  1  0
 21 31  2  0
 14  5  1  0
 31 17  1  0
 13  8  1  0
 30 25  1  0
  3 32  1  0
  3 33  1  0
  4 34  1  0
  4 35  1  0
  9 36  1  0
 10 37  1  0
 11 38  1  0
 12 39  1  0
 16 40  1  0
 18 41  1  0
 19 42  1  0
 20 43  1  0
 26 44  1  0
 26 45  1  0
 27 46  1  0
 27 47  1  0
 28 48  1  0
 28 49  1  0
 29 50  1  0
 29 51  1  0
 30 52  1  0
 30 53  1  0
 31 54  1  0
M  END
>  <UniqueID>  (12) 
11

>  <SMILES>  (12) 
O=C(CCN1C(=O)c2ccccc2C1=O)Nc1cccc(S(=O)(=O)N2CCCCC2)c1

>  <Energy>  (12) 
94.89915697862573

>  <Genealogy>  (12) 
O=C(CCN1C(=O)c2ccccc2C1=O)Nc1cccc(S(=O)(=O)N2CCCCC2)c1 (3D coordinates assigned)
O=C(CCN1C(=O)c2ccccc2C1=O)Nc1cccc(S(=O)(=O)N2CCCCC2)c1 (nonaromatic ring conformer: 94.89915697862573 kcal/mol)

>  <smiles>  (12) 
O=C(CCN1C(=O)c2ccccc2C1=O)Nc1cccc(S(=O)(=O)N2CCCCC2)c1

>  <score_type>  (12) 
oracle

>  <origin>  (12) 
adgpu

>  <m_score__min__energy>  (12) 
-11.710000000000001

>  <m_primary>  (12) 
energy

$$$$
12:0
     RDKit          3D

 32 33  0  0  0  0  0  0  0  0999 V2000
   -9.1640   20.3310  -32.3090 C   0  0  0  0  0  0  0  0  0  0  0  0
   -7.7710   20.8800  -32.3910 C   0  0  0  0  0  0  0  0  0  0  0  0
   -6.7530   20.1330  -33.0010 C   0  0  0  0  0  0  0  0  0  0  0  0
   -5.4470   20.6250  -33.0430 C   0  0  0  0  0  0  0  0  0  0  0  0
   -5.1380   21.8610  -32.4600 C   0  0  0  0  0  0  0  0  0  0  0  0
   -3.8280   22.3410  -32.4900 O   0  0  0  0  0  0  0  0  0  0  0  0
   -6.1480   22.6050  -31.8230 C   0  0  0  0  0  0  0  0  0  0  0  0
   -5.8310   23.8900  -31.1730 C   0  0  0  0  0  0  0  0  0  0  0  0
   -6.7710   24.6120  -30.7490 O   0  0  0  0  0  0  0  0  0  0  0  0
   -4.4820   24.3590  -31.0460 N   0  0  0  0  0  0  0  0  0  0  0  0
   -3.8940   24.9200  -29.8290 C   0  0  0  0  0  0  0  0  0  0  0  0
   -2.7160   24.0950  -29.3660 C   0  0  0  0  0  0  0  0  0  0  0  0
   -2.8760   22.7120  -29.1650 C   0  0  0  0  0  0  0  0  0  0  0  0
   -1.8090   21.9350  -28.7060 C   0  0  0  0  0  0  0  0  0  0  0  0
   -0.5700   22.5270  -28.4530 C   0  0  0  0  0  0  0  0  0  0  0  0
   -0.3930   23.8950  -28.6670 C   0  0  0  0  0  0  0  0  0  0  0  0
   -1.4540   24.6810  -29.1290 C   0  0  0  0  0  0  0  0  0  0  0  0
   -1.2450   26.0390  -29.3450 O   0  0  0  0  0  0  0  0  0  0  0  0
   -7.4600   22.1100  -31.7930 C   0  0  0  0  0  0  0  0  0  0  0  0
   -9.4519   20.2176  -31.2534 H   0  0  0  0  0  0  0  0  0  0  0  0
   -9.8603   21.0220  -32.8067 H   0  0  0  0  0  0  0  0  0  0  0  0
   -9.2017   19.3508  -32.8067 H   0  0  0  0  0  0  0  0  0  0  0  0
   -6.9844   19.1551  -33.4484 H   0  0  0  0  0  0  0  0  0  0  0  0
   -4.6570   20.0395  -33.5361 H   0  0  0  0  0  0  0  0  0  0  0  0
   -3.5440   23.1400  -31.9350 H   0  0  0  0  0  0  0  0  0  0  0  0
   -3.5559   25.9467  -30.0332 H   0  0  0  0  0  0  0  0  0  0  0  0
   -4.6574   24.9156  -29.0371 H   0  0  0  0  0  0  0  0  0  0  0  0
   -3.8476   22.2389  -29.3705 H   0  0  0  0  0  0  0  0  0  0  0  0
   -1.9454   20.8556  -28.5438 H   0  0  0  0  0  0  0  0  0  0  0  0
    0.2668   21.9152  -28.0850 H   0  0  0  0  0  0  0  0  0  0  0  0
    0.5858   24.3573  -28.4714 H   0  0  0  0  0  0  0  0  0  0  0  0
   -8.2512   22.6910  -31.2966 H   0  0  0  0  0  0  0  0  0  0  0  0
  1  2  1  0
  2  3  2  0
  3  4  1  0
  4  5  2  0
  5  6  1  0
  5  7  1  0
  7  8  1  0
  8  9  2  0
  8 10  1  0
 10 11  1  0
 11 12  1  0
 12 13  2  0
 13 14  1  0
 14 15  2  0
 15 16  1  0
 16 17  2  0
 17 18  1  0
  7 19  2  0
 19  2  1  0
 17 12  1  0
  1 20  1  0
  1 21  1  0
  1 22  1  0
  3 23  1  0
  4 24  1  0
  6 25  1  0
 11 26  1  0
 11 27  1  0
 13 28  1  0
 14 29  1  0
 15 30  1  0
 16 31  1  0
 19 32  1  0
M  CHG  2  10  -1  18  -1
M  END
>  <UniqueID>  (13) 
12

>  <SMILES>  (13) 
Cc1ccc(O)c(C(=O)[N-]Cc2ccccc2[O-])c1

>  <Energy>  (13) 
34.81526042944334

>  <Genealogy>  (13) 
Cc1ccc(O)c(C(=O)[N-]Cc2ccccc2[O-])c1 (protonated)
Cc1ccc(O)c(C(=O)[N-]Cc2ccccc2[O-])c1 (3D coordinates assigned)
Cc1ccc(O)c(C(=O)[N-]Cc2ccccc2[O-])c1 (optimized conformer: 34.81526042944334 kcal/mol)

>  <smiles>  (13) 
Cc1ccc(O)c(C(=O)NCc2ccccc2O)c1

>  <score_type>  (13) 
oracle

>  <origin>  (13) 
adgpu

>  <m_score__min__energy>  (13) 
-11.15

>  <m_primary>  (13) 
energy

$$$$
13:0
     RDKit          3D

 56 59  0  0  0  0  0  0  0  0999 V2000
   -2.3070   22.0960  -32.0410 O   0  0  0  0  0  0  0  0  0  0  0  0
   -2.3670   20.6940  -32.5800 S   0  0  0  0  0  0  0  0  0  0  0  0
   -1.7800   19.7730  -31.5470 O   0  0  0  0  0  0  0  0  0  0  0  0
   -4.0540   20.2530  -32.8560 C   0  0  0  0  0  0  0  0  0  0  0  0
   -4.3900   19.3380  -33.8620 C   0  0  0  0  0  0  0  0  0  0  0  0
   -5.7290   19.0280  -34.1090 C   0  0  0  0  0  0  0  0  0  0  0  0
   -6.7380   19.6290  -33.3530 C   0  0  0  0  0  0  0  0  0  0  0  0
   -6.4210   20.5390  -32.3320 C   0  0  0  0  0  0  0  0  0  0  0  0
   -7.4880   21.1510  -31.5790 N   0  0  0  0  0  0  0  0  0  0  0  0
   -7.6860   22.6020  -31.4500 C   0  0  2  0  0  0  0  0  0  0  0  0
   -8.0030   23.1600  -32.6990 O   0  0  0  0  0  0  0  0  0  0  0  0
   -6.4690   23.2850  -30.8770 C   0  0  0  0  0  0  0  0  0  0  0  0
   -5.8090   24.3580  -31.4500 C   0  0  0  0  0  0  0  0  0  0  0  0
   -4.7580   24.6380  -30.6040 C   0  0  0  0  0  0  0  0  0  0  0  0
   -3.8560   25.6790  -30.7820 O   0  0  0  0  0  0  0  0  0  0  0  0
   -4.7260   23.7790  -29.5670 N   0  0  0  0  0  0  0  0  0  0  0  0
   -3.8170   23.8420  -28.4200 C   0  0  0  0  0  0  0  0  0  0  0  0
   -2.8080   22.7250  -28.4640 C   0  0  0  0  0  0  0  0  0  0  0  0
   -3.0870   21.5000  -27.8380 C   0  0  0  0  0  0  0  0  0  0  0  0
   -2.1370   20.4730  -27.8470 C   0  0  0  0  0  0  0  0  0  0  0  0
   -0.9020   20.6660  -28.4720 C   0  0  0  0  0  0  0  0  0  0  0  0
   -0.6130   21.8880  -29.0860 C   0  0  0  0  0  0  0  0  0  0  0  0
   -1.5600   22.9170  -29.0800 C   0  0  0  0  0  0  0  0  0  0  0  0
   -5.7820   22.9530  -29.7190 C   0  0  0  0  0  0  0  0  0  0  0  0
   -5.0670   20.8390  -32.0850 C   0  0  0  0  0  0  0  0  0  0  0  0
   -1.4270   20.6040  -34.0500 N   0  0  0  0  0  0  0  0  0  0  0  0
   -0.9330   19.2340  -34.2740 C   0  0  0  0  0  0  0  0  0  0  0  0
   -0.0700   19.1680  -35.5560 C   0  0  0  0  0  0  0  0  0  0  0  0
    0.1200   20.4430  -36.1410 O   0  0  0  0  0  0  0  0  0  0  0  0
    0.6690   21.3280  -35.1860 C   0  0  0  0  0  0  0  0  0  0  0  0
   -0.3040   21.5600  -34.0090 C   0  0  0  0  0  0  0  0  0  0  0  0
   -3.5975   18.8627  -34.4586 H   0  0  0  0  0  0  0  0  0  0  0  0
   -5.9895   18.3095  -34.9001 H   0  0  0  0  0  0  0  0  0  0  0  0
   -7.7910   19.3870  -33.5595 H   0  0  0  0  0  0  0  0  0  0  0  0
   -8.1270   20.5230  -31.0410 H   0  0  0  0  0  0  0  0  0  0  0  0
   -8.5215   22.7618  -30.7526 H   0  0  0  0  0  0  0  0  0  0  0  0
   -7.1880   23.1030  -33.2650 H   0  0  0  0  0  0  0  0  0  0  0  0
   -6.0687   24.8778  -32.3840 H   0  0  0  0  0  0  0  0  0  0  0  0
   -3.2867   24.8056  -28.4348 H   0  0  0  0  0  0  0  0  0  0  0  0
   -4.4100   23.7402  -27.4991 H   0  0  0  0  0  0  0  0  0  0  0  0
   -4.0553   21.3471  -27.3390 H   0  0  0  0  0  0  0  0  0  0  0  0
   -2.3625   19.5121  -27.3614 H   0  0  0  0  0  0  0  0  0  0  0  0
   -0.1574   19.8563  -28.4807 H   0  0  0  0  0  0  0  0  0  0  0  0
    0.3607   22.0405  -29.5746 H   0  0  0  0  0  0  0  0  0  0  0  0
   -1.3271   23.8795  -29.5590 H   0  0  0  0  0  0  0  0  0  0  0  0
   -6.0560   22.1406  -29.0299 H   0  0  0  0  0  0  0  0  0  0  0  0
   -4.8023   21.5397  -31.2795 H   0  0  0  0  0  0  0  0  0  0  0  0
   -2.0650   20.8660  -34.8380 H   0  0  0  0  0  0  0  0  0  0  0  0
   -0.3239   18.9241  -33.4121 H   0  0  0  0  0  0  0  0  0  0  0  0
   -1.7954   18.5615  -34.3926 H   0  0  0  0  0  0  0  0  0  0  0  0
    0.9130   18.7462  -35.2995 H   0  0  0  0  0  0  0  0  0  0  0  0
   -0.5990   18.5378  -36.2861 H   0  0  0  0  0  0  0  0  0  0  0  0
    1.6050   20.9001  -34.7977 H   0  0  0  0  0  0  0  0  0  0  0  0
    0.8562   22.2946  -35.6766 H   0  0  0  0  0  0  0  0  0  0  0  0
    0.2412   21.4329  -33.0621 H   0  0  0  0  0  0  0  0  0  0  0  0
   -0.7105   22.5791  -34.0882 H   0  0  0  0  0  0  0  0  0  0  0  0
  1  2  2  0
  2  3  2  0
  2  4  1  0
  4  5  2  0
  5  6  1  0
  6  7  2  0
  7  8  1  0
  8  9  1  0
  9 10  1  0
 10 11  1  0
 10 12  1  0
 12 13  1  0
 13 14  2  0
 14 15  1  0
 14 16  1  0
 16 17  1  0
 17 18  1  0
 18 19  2  0
 19 20  1  0
 20 21  2  0
 21 22  1  0
 22 23  2  0
 16 24  1  0
  8 25  2  0
  2 26  1  0
 26 27  1  0
 27 28  1  0
 28 29  1  0
 29 30  1  0
 30 31  1  0
 25  4  1  0
 31 26  1  0
 24 12  2  0
 23 18  1  0
  5 32  1  0
  6 33  1  0
  7 34  1  0
  9 35  1  0
 10 36  1  1
 11 37  1  0
 13 38  1  0
 17 39  1  0
 17 40  1  0
 19 41  1  0
 20 42  1  0
 21 43  1  0
 22 44  1  0
 23 45  1  0
 24 46  1  0
 25 47  1  0
 26 48  1  0
 27 49  1  0
 27 50  1  0
 28 51  1  0
 28 52  1  0
 30 53  1  0
 30 54  1  0
 31 55  1  0
 31 56  1  0
M  CHG  2  15  -1  26   1
M  END
>  <UniqueID>  (14) 
13

>  <SMILES>  (14) 
O=S(=O)(c1cccc(N[C@H](O)c2cc([O-])n(Cc3ccccc3)c2)c1)[NH+]1CCOCC1

>  <Energy>  (14) 
90.3560293623674

>  <Genealogy>  (14) 
O=S(=O)(c1cccc(NC(O)c2cc([O-])n(Cc3ccccc3)c2)c1)[NH+]1CCOCC1 (protonated)
O=S(=O)(c1cccc(N[C@H](O)c2cc([O-])n(Cc3ccccc3)c2)c1)[NH+]1CCOCC1 (chirality)
O=S(=O)(c1cccc(N[C@H](O)c2cc([O-])n(Cc3ccccc3)c2)c1)[NH+]1CCOCC1 (3D coordinates assigned)
O=S(=O)(c1cccc(N[C@H](O)c2cc([O-])n(Cc3ccccc3)c2)c1)[NH+]1CCOCC1 (nonaromatic ring conformer: 90.3560293623674 kcal/mol)

>  <smiles>  (14) 
O=S(=O)(c1cccc(NC(O)c2cc(O)n(Cc3ccccc3)c2)c1)N1CCOCC1

>  <score_type>  (14) 
oracle

>  <origin>  (14) 
adgpu

>  <m_score__min__energy>  (14) 
-11.48

>  <m_primary>  (14) 
energy

$$$$
14:0
     RDKit          3D

 42 44  0  0  0  0  0  0  0  0999 V2000
   -3.7121   25.2441  -25.4411 H   0  0  0  0  0  0  0  0  0  0  0  0
   -2.7650   25.3620  -25.9880 C   0  0  0  0  0  0  0  0  0  0  0  0
   -1.7580   26.1780  -25.4650 C   0  0  0  0  0  0  0  0  0  0  0  0
   -1.9050   26.6770  -24.4958 H   0  0  0  0  0  0  0  0  0  0  0  0
   -0.5600   26.3630  -26.1720 C   0  0  0  0  0  0  0  0  0  0  0  0
    0.5370   27.2070  -25.5930 C   0  0  0  0  0  0  0  0  0  0  0  0
    0.4879   27.1692  -24.4947 H   0  0  0  0  0  0  0  0  0  0  0  0
    1.5114   26.8235  -25.9299 H   0  0  0  0  0  0  0  0  0  0  0  0
    0.4160   28.2471  -25.9299 H   0  0  0  0  0  0  0  0  0  0  0  0
   -0.3760   25.7080  -27.3990 C   0  0  0  0  0  0  0  0  0  0  0  0
    0.5654   25.8368  -27.9532 H   0  0  0  0  0  0  0  0  0  0  0  0
   -1.3850   24.8920  -27.9200 C   0  0  0  0  0  0  0  0  0  0  0  0
   -1.2452   24.4032  -28.8955 H   0  0  0  0  0  0  0  0  0  0  0  0
   -2.5760   24.6940  -27.2030 C   0  0  0  0  0  0  0  0  0  0  0  0
   -3.6480   23.9030  -27.7380 N   0  0  0  0  0  0  0  0  0  0  0  0
   -4.2690   24.1070  -28.8630 C   0  0  0  0  0  0  0  0  0  0  0  0
   -5.5740   23.1810  -29.3790 S   0  0  0  0  0  0  0  0  0  0  0  0
   -5.6430   24.0520  -30.8210 C   0  0  0  0  0  0  0  0  0  0  0  0
   -6.8230   23.7540  -32.1340 S   0  0  0  0  0  0  0  0  0  0  0  0
   -7.2230   22.0490  -31.6050 C   0  0  0  0  0  0  0  0  0  0  0  0
   -7.0498   21.9597  -30.5224 H   0  0  0  0  0  0  0  0  0  0  0  0
   -8.2768   21.8480  -31.8482 H   0  0  0  0  0  0  0  0  0  0  0  0
   -6.3640   21.0340  -32.3270 C   0  0  0  0  0  0  0  0  0  0  0  0
   -5.0050   21.3370  -32.5220 C   0  0  0  0  0  0  0  0  0  0  0  0
   -4.6008   22.2853  -32.1381 H   0  0  0  0  0  0  0  0  0  0  0  0
   -4.1580   20.4490  -33.1980 C   0  0  0  0  0  0  0  0  0  0  0  0
   -2.7230   20.8110  -33.4400 C   0  0  0  0  0  0  0  0  0  0  0  0
   -2.2099   20.9404  -32.4757 H   0  0  0  0  0  0  0  0  0  0  0  0
   -2.2336   20.0082  -34.0109 H   0  0  0  0  0  0  0  0  0  0  0  0
   -2.6730   21.7499  -34.0109 H   0  0  0  0  0  0  0  0  0  0  0  0
   -4.6790   19.2550  -33.7080 C   0  0  0  0  0  0  0  0  0  0  0  0
   -4.0263   18.5673  -34.2657 H   0  0  0  0  0  0  0  0  0  0  0  0
   -6.0220   18.9320  -33.5130 C   0  0  0  0  0  0  0  0  0  0  0  0
   -6.4156   17.9830  -33.9062 H   0  0  0  0  0  0  0  0  0  0  0  0
   -6.8780   19.8050  -32.8200 C   0  0  0  0  0  0  0  0  0  0  0  0
   -8.3170   19.4040  -32.6220 C   0  0  0  0  0  0  0  0  0  0  0  0
   -8.5359   19.3430  -31.5457 H   0  0  0  0  0  0  0  0  0  0  0  0
   -8.9739   20.1533  -33.0879 H   0  0  0  0  0  0  0  0  0  0  0  0
   -8.4917   18.4230  -33.0879 H   0  0  0  0  0  0  0  0  0  0  0  0
   -4.6870   25.0040  -30.8790 N   0  0  0  0  0  0  0  0  0  0  0  0
   -3.9200   25.0320  -29.7910 N   0  0  0  0  0  0  0  0  0  0  0  0
   -3.1100   25.6850  -29.7140 H   0  0  0  0  0  0  0  0  0  0  0  0
  1  2  1  0
  2  3  2  0
  3  4  1  0
  3  5  1  0
  5  6  1  0
  6  7  1  0
  6  8  1  0
  6  9  1  0
  5 10  2  0
 10 11  1  0
 10 12  1  0
 12 13  1  0
 12 14  2  0
 14 15  1  0
 15 16  2  0
 16 17  1  0
 17 18  1  0
 18 19  1  0
 19 20  1  0
 20 21  1  0
 20 22  1  0
 20 23  1  0
 23 24  2  0
 24 25  1  0
 24 26  1  0
 26 27  1  0
 27 28  1  0
 27 29  1  0
 27 30  1  0
 26 31  2  0
 31 32  1  0
 31 33  1  0
 33 34  1  0
 33 35  2  0
 35 36  1  0
 36 37  1  0
 36 38  1  0
 36 39  1  0
 18 40  2  0
 40 41  1  0
 41 42  1  0
 14  2  1  0
 41 16  1  0
 35 23  1  0
M  END
>  <UniqueID>  (15) 
14

>  <SMILES>  (15) 
Cc1ccc(/N=c2\[nH]nc(SCc3cc(C)ccc3C)s2)cc1

>  <Energy>  (15) 
80.24198770942462

>  <Genealogy>  (15) 
Cc1ccc(/N=c2\[nH]nc(SCc3cc(C)ccc3C)s2)cc1 (cis-trans isomerization)
Cc1ccc(/N=c2\[nH]nc(SCc3cc(C)ccc3C)s2)cc1 (3D coordinates assigned)
Cc1ccc(/N=c2\[nH]nc(SCc3cc(C)ccc3C)s2)cc1 (optimized conformer: 80.24198770942462 kcal/mol)

>  <smiles>  (15) 
Cc1ccc(N=c2[nH]nc(SCc3cc(C)ccc3C)s2)cc1

>  <score_type>  (15) 
oracle

>  <origin>  (15) 
adgpu

>  <m_score__min__energy>  (15) 
-9.5999999999999996

>  <m_primary>  (15) 
energy

$$$$
16:0
     RDKit          3D

 54 57  0  0  0  0  0  0  0  0999 V2000
   -3.5270   25.2950  -30.4630 O   0  0  0  0  0  0  0  0  0  0  0  0
   -3.6290   24.0370  -30.4430 C   0  0  0  0  0  0  0  0  0  0  0  0
   -4.9690   23.4680  -30.6900 C   0  0  0  0  0  0  0  0  0  0  0  0
   -5.4150   23.2990  -32.0060 C   0  0  0  0  0  0  0  0  0  0  0  0
   -6.6780   22.7500  -32.2530 C   0  0  0  0  0  0  0  0  0  0  0  0
   -7.5030   22.3680  -31.1880 C   0  0  0  0  0  0  0  0  0  0  0  0
   -9.0890   21.6780  -31.5250 S   0  0  0  0  0  0  0  0  0  0  0  0
   -9.8260   22.5920  -32.4630 O   0  0  0  0  0  0  0  0  0  0  0  0
   -9.8810   21.5490  -30.2520 O   0  0  0  0  0  0  0  0  0  0  0  0
   -8.8840   20.1090  -32.2650 N   0  0  0  0  0  0  0  0  0  0  0  0
   -7.6940   20.0590  -33.1260 C   0  0  0  0  0  0  0  0  0  0  0  0
   -6.9000   18.8080  -32.7600 C   0  0  0  0  0  0  0  0  0  0  0  0
   -7.8160   18.0140  -31.8570 C   0  0  0  0  0  0  0  0  0  0  0  0
   -8.7270   19.0620  -31.2540 C   0  0  0  0  0  0  0  0  0  0  0  0
   -7.0480   22.5210  -29.8700 C   0  0  0  0  0  0  0  0  0  0  0  0
   -5.7850   23.0740  -29.6200 C   0  0  0  0  0  0  0  0  0  0  0  0
   -2.4460   23.2150  -30.2310 N   0  0  0  0  0  0  0  0  0  0  0  0
   -2.5400   21.9030  -30.9170 C   0  0  0  0  0  0  0  0  0  0  0  0
   -1.2780   21.0520  -30.6980 C   0  0  0  0  0  0  0  0  0  0  0  0
   -0.9370   20.9670  -29.2720 N   0  0  0  0  0  0  0  0  0  0  0  0
   -0.2030   19.8300  -28.7620 C   0  0  0  0  0  0  0  0  0  0  0  0
   -0.8220   18.8890  -27.9160 C   0  0  0  0  0  0  0  0  0  0  0  0
   -0.1170   17.7670  -27.4640 C   0  0  0  0  0  0  0  0  0  0  0  0
    1.2120   17.5730  -27.8440 C   0  0  0  0  0  0  0  0  0  0  0  0
    1.8430   18.5030  -28.6770 C   0  0  0  0  0  0  0  0  0  0  0  0
    3.5130   18.2550  -29.1590 Cl  0  0  0  0  0  0  0  0  0  0  0  0
    1.1420   19.6240  -29.1360 C   0  0  0  0  0  0  0  0  0  0  0  0
   -0.9640   22.2130  -28.4990 C   0  0  0  0  0  0  0  0  0  0  0  0
   -2.2540   22.9870  -28.7800 C   0  0  0  0  0  0  0  0  0  0  0  0
   -4.7719   23.5981  -32.8468 H   0  0  0  0  0  0  0  0  0  0  0  0
   -7.0245   22.6178  -33.2886 H   0  0  0  0  0  0  0  0  0  0  0  0
   -7.9988   20.0122  -34.1819 H   0  0  0  0  0  0  0  0  0  0  0  0
   -7.0784   20.9589  -32.9801 H   0  0  0  0  0  0  0  0  0  0  0  0
   -6.6508   18.2304  -33.6624 H   0  0  0  0  0  0  0  0  0  0  0  0
   -5.9463   19.0526  -32.2694 H   0  0  0  0  0  0  0  0  0  0  0  0
   -8.3942   17.2780  -32.4349 H   0  0  0  0  0  0  0  0  0  0  0  0
   -7.2685   17.4381  -31.0963 H   0  0  0  0  0  0  0  0  0  0  0  0
   -9.7044   18.6204  -31.0095 H   0  0  0  0  0  0  0  0  0  0  0  0
   -8.3040   19.4684  -30.3235 H   0  0  0  0  0  0  0  0  0  0  0  0
   -7.6846   22.2059  -29.0301 H   0  0  0  0  0  0  0  0  0  0  0  0
   -5.4339   23.1989  -28.5850 H   0  0  0  0  0  0  0  0  0  0  0  0
   -1.6210   23.7510  -30.6040 H   0  0  0  0  0  0  0  0  0  0  0  0
   -3.4102   21.3571  -30.5236 H   0  0  0  0  0  0  0  0  0  0  0  0
   -2.6442   22.0883  -31.9963 H   0  0  0  0  0  0  0  0  0  0  0  0
   -1.4570   20.0381  -31.0854 H   0  0  0  0  0  0  0  0  0  0  0  0
   -0.4402   21.5273  -31.2293 H   0  0  0  0  0  0  0  0  0  0  0  0
   -1.8676   19.0369  -27.6080 H   0  0  0  0  0  0  0  0  0  0  0  0
   -0.6119   17.0362  -26.8075 H   0  0  0  0  0  0  0  0  0  0  0  0
    1.7627   16.6895  -27.4887 H   0  0  0  0  0  0  0  0  0  0  0  0
    1.6432   20.3499  -29.7932 H   0  0  0  0  0  0  0  0  0  0  0  0
   -0.9102   21.9754  -27.4263 H   0  0  0  0  0  0  0  0  0  0  0  0
   -0.1044   22.8336  -28.7921 H   0  0  0  0  0  0  0  0  0  0  0  0
   -3.1076   22.4114  -28.3927 H   0  0  0  0  0  0  0  0  0  0  0  0
   -2.1838   23.9660  -28.2834 H   0  0  0  0  0  0  0  0  0  0  0  0
  1  2  2  0
  2  3  1  0
  3  4  2  0
  4  5  1  0
  5  6  2  0
  6  7  1  0
  7  8  2  0
  7  9  2  0
  7 10  1  0
 10 11  1  0
 11 12  1  0
 12 13  1  0
 13 14  1  0
  6 15  1  0
 15 16  2  0
  2 17  1  0
 17 18  1  0
 18 19  1  0
 19 20  1  0
 20 21  1  0
 21 22  2  0
 22 23  1  0
 23 24  2  0
 24 25  1  0
 25 26  1  0
 25 27  2  0
 20 28  1  0
 28 29  1  0
 16  3  1  0
 29 17  1  0
 14 10  1  0
 27 21  1  0
  4 30  1  0
  5 31  1  0
 11 32  1  0
 11 33  1  0
 12 34  1  0
 12 35  1  0
 13 36  1  0
 13 37  1  0
 14 38  1  0
 14 39  1  0
 15 40  1  0
 16 41  1  0
 17 42  1  0
 18 43  1  0
 18 44  1  0
 19 45  1  0
 19 46  1  0
 22 47  1  0
 23 48  1  0
 24 49  1  0
 27 50  1  0
 28 51  1  0
 28 52  1  0
 29 53  1  0
 29 54  1  0
M  CHG  1  17   1
M  END
>  <UniqueID>  (16) 
15

>  <SMILES>  (16) 
O=C(c1ccc(S(=O)(=O)N2CCCC2)cc1)[NH+]1CCN(c2cccc(Cl)c2)CC1

>  <Energy>  (16) 
73.85756156158831

>  <Genealogy>  (16) 
O=C(c1ccc(S(=O)(=O)N2CCCC2)cc1)[NH+]1CCN(c2cccc(Cl)c2)CC1 (protonated)
O=C(c1ccc(S(=O)(=O)N2CCCC2)cc1)[NH+]1CCN(c2cccc(Cl)c2)CC1 (3D coordinates assigned)
O=C(c1ccc(S(=O)(=O)N2CCCC2)cc1)[NH+]1CCN(c2cccc(Cl)c2)CC1 (nonaromatic ring conformer: 73.85756156158831 kcal/mol)

>  <smiles>  (16) 
O=C(c1ccc(S(=O)(=O)N2CCCC2)cc1)N1CCN(c2cccc(Cl)c2)CC1

>  <score_type>  (16) 
oracle

>  <origin>  (16) 
adgpu

>  <m_score__min__energy>  (16) 
-10.289999999999999

>  <m_primary>  (16) 
energy

$$$$
17:0
     RDKit          3D

 60 63  0  0  1  0  0  0  0  0999 V2000
   -2.5210   18.4450  -33.6980 N   0  0  0  0  0  0  0  0  0  0  0  0
   -3.6170   18.7570  -33.4520 C   0  0  0  0  0  0  0  0  0  0  0  0
   -4.9670   19.1170  -33.1640 C   0  0  0  0  0  0  0  0  0  0  0  0
   -5.9520   18.2310  -33.5720 C   0  0  0  0  0  0  0  0  0  0  0  0
   -5.5940   16.9790  -34.2700 C   0  0  0  0  0  0  0  0  0  0  0  0
   -4.9630   17.2910  -35.4430 F   0  0  0  0  0  0  0  0  0  0  0  0
   -4.8060   16.2240  -33.4250 F   0  0  0  0  0  0  0  0  0  0  0  0
   -6.7400   16.2480  -34.5750 F   0  0  0  0  0  0  0  0  0  0  0  0
   -7.2350   18.5290  -33.3220 N   0  0  0  0  0  0  0  0  0  0  0  0
   -7.6590   19.6270  -32.7000 C   0  0  0  0  0  0  0  0  0  0  0  0
   -9.3160   20.0600  -32.3180 S   0  0  0  0  0  0  0  0  0  0  0  0
   -9.5390   21.7790  -31.9350 C   0  0  0  0  0  0  0  0  0  0  0  0
   -8.2970   22.4760  -31.5600 C   0  0  0  0  0  0  0  0  0  0  0  0
   -7.8530   22.2900  -30.2480 C   0  0  0  0  0  0  0  0  0  0  0  0
   -6.6890   22.8690  -29.7830 C   0  0  0  0  0  0  0  0  0  0  0  0
   -5.9070   23.6630  -30.6010 C   0  0  0  0  0  0  0  0  0  0  0  0
   -4.4550   24.3680  -29.9700 S   0  0  0  0  0  0  0  0  0  0  0  0
   -4.4630   24.5310  -28.2580 N   0  0  0  0  0  0  0  0  0  0  0  0
   -3.3060   23.4600  -30.3510 O   0  0  0  0  0  0  0  0  0  0  0  0
   -4.2360   25.6910  -30.6380 O   0  0  0  0  0  0  0  0  0  0  0  0
   -6.3390   23.8500  -31.8970 C   0  0  0  0  0  0  0  0  0  0  0  0
   -7.5200   23.2590  -32.3580 C   0  0  0  0  0  0  0  0  0  0  0  0
   -6.6770   20.4960  -32.3010 N   0  0  0  0  0  0  0  0  0  0  0  0
   -5.3710   20.2500  -32.5260 C   0  0  0  0  0  0  0  0  0  0  0  0
   -4.5290   21.1010  -32.1250 N   0  0  0  0  0  0  0  0  0  0  0  0
   -3.1400   21.0330  -32.2550 C   0  0  0  0  0  0  0  0  0  0  0  0
   -2.5700   21.5100  -33.4240 C   0  0  0  0  0  0  0  0  0  0  0  0
   -1.2000   21.4010  -33.5570 C   0  0  0  0  0  0  0  0  0  0  0  0
   -0.4290   20.8290  -32.5440 C   0  0  0  0  0  0  0  0  0  0  0  0
   -1.0390   20.3630  -31.3900 C   0  0  0  0  0  0  0  0  0  0  0  0
   -0.0930   19.6510  -30.1260 S   0  0  0  0  0  0  0  0  0  0  0  0
    1.3780   19.7210  -30.4070 O   0  0  0  0  0  0  0  0  0  0  0  0
   -0.4830   18.2050  -30.0070 O   0  0  0  0  0  0  0  0  0  0  0  0
   -0.4840   20.4360  -28.6400 N   0  0  0  0  0  0  0  0  0  0  0  0
   -1.7220   19.9330  -28.0770 C   0  0  0  0  0  0  0  0  0  0  0  0
   -2.3300   21.0870  -27.3090 C   0  0  0  0  0  0  0  0  0  0  0  0
   -1.5960   22.3180  -27.7860 C   0  0  0  0  0  0  0  0  0  0  0  0
   -0.7060   21.8430  -28.9060 C   0  0  0  0  0  0  0  0  0  0  0  0
   -2.4090   20.4610  -31.2330 C   0  0  0  0  0  0  0  0  0  0  0  0
   -7.9480   17.8570  -33.6540 H   0  0  0  0  0  0  0  0  0  0  0  0
   -9.9621   22.2782  -32.8192 H   0  0  0  0  0  0  0  0  0  0  0  0
  -10.2061   21.8261  -31.0616 H   0  0  0  0  0  0  0  0  0  0  0  0
   -8.4479   21.6644  -29.5663 H   0  0  0  0  0  0  0  0  0  0  0  0
   -6.3781   22.6953  -28.7423 H   0  0  0  0  0  0  0  0  0  0  0  0
   -5.4180   24.3990  -27.8560 H   0  0  0  0  0  0  0  0  0  0  0  0
   -4.0770   25.4670  -27.9700 H   0  0  0  0  0  0  0  0  0  0  0  0
   -5.7447   24.4747  -32.5801 H   0  0  0  0  0  0  0  0  0  0  0  0
   -7.8310   23.4324  -33.3988 H   0  0  0  0  0  0  0  0  0  0  0  0
   -3.1861   21.9590  -34.2170 H   0  0  0  0  0  0  0  0  0  0  0  0
   -0.7110   21.7689  -34.4711 H   0  0  0  0  0  0  0  0  0  0  0  0
    0.6617   20.7481  -32.6613 H   0  0  0  0  0  0  0  0  0  0  0  0
   -2.4015   19.6068  -28.8782 H   0  0  0  0  0  0  0  0  0  0  0  0
   -1.5449   19.0643  -27.4258 H   0  0  0  0  0  0  0  0  0  0  0  0
   -3.4048   21.1710  -27.5277 H   0  0  0  0  0  0  0  0  0  0  0  0
   -2.2348   20.9499  -26.2217 H   0  0  0  0  0  0  0  0  0  0  0  0
   -2.3074   23.0725  -28.1530 H   0  0  0  0  0  0  0  0  0  0  0  0
   -1.0195   22.7903  -26.9770 H   0  0  0  0  0  0  0  0  0  0  0  0
   -1.2026   21.9787  -29.8781 H   0  0  0  0  0  0  0  0  0  0  0  0
    0.2368   22.4079  -28.9515 H   0  0  0  0  0  0  0  0  0  0  0  0
   -2.9021   20.0941  -30.3207 H   0  0  0  0  0  0  0  0  0  0  0  0
  1  2  3  0
  2  3  1  0
  3  4  2  0
  4  5  1  0
  5  6  1  0
  5  7  1  0
  5  8  1  0
  4  9  1  0
  9 10  1  0
 10 11  1  0
 11 12  1  0
 12 13  1  0
 13 14  2  0
 14 15  1  0
 15 16  2  0
 16 17  1  0
 17 18  1  0
 17 19  2  0
 17 20  2  0
 16 21  1  0
 21 22  2  0
 10 23  2  0
 23 24  1  0
 24 25  2  0
 25 26  1  0
 26 27  2  0
 27 28  1  0
 28 29  2  0
 29 30  1  0
 30 31  1  0
 31 32  2  0
 31 33  2  0
 31 34  1  0
 34 35  1  0
 35 36  1  0
 36 37  1  0
 37 38  1  0
 30 39  2  0
 24  3  1  0
 39 26  1  0
 22 13  1  0
 38 34  1  0
  9 40  1  0
 12 41  1  0
 12 42  1  0
 14 43  1  0
 15 44  1  0
 18 45  1  0
 18 46  1  0
 21 47  1  0
 22 48  1  0
 27 49  1  0
 28 50  1  0
 29 51  1  0
 35 52  1  0
 35 53  1  0
 36 54  1  0
 36 55  1  0
 37 56  1  0
 37 57  1  0
 38 58  1  0
 38 59  1  0
 39 60  1  0
M  END
>  <smiles>  (17) 
N#Cc1c(C(F)(F)F)[nH]c(SCc2ccc(S(N)(=O)=O)cc2)nc1=Nc1cccc(S(=O)(=O)N2CCCC2)c1

>  <score_type>  (17) 
oracle

>  <origin>  (17) 
adgpu

>  <m_score__min__energy>  (17) 
-11.99

>  <m_primary>  (17) 
energy

$$$$
18:0
     RDKit          3D

 43 45  0  0  0  0  0  0  0  0999 V2000
   -7.0766   16.9797  -32.8655 H   0  0  0  0  0  0  0  0  0  0  0  0
   -7.3890   18.0190  -32.6860 C   0  0  0  0  0  0  0  0  0  0  0  0
   -8.3530   18.3010  -31.7130 C   0  0  0  0  0  0  0  0  0  0  0  0
   -8.7980   17.4838  -31.1264 H   0  0  0  0  0  0  0  0  0  0  0  0
   -8.7510   19.6220  -31.4860 C   0  0  0  0  0  0  0  0  0  0  0  0
   -9.5079   19.8435  -30.7192 H   0  0  0  0  0  0  0  0  0  0  0  0
   -8.1870   20.6640  -32.2340 C   0  0  0  0  0  0  0  0  0  0  0  0
   -8.6960   22.3580  -31.9410 S   0  0  0  0  0  0  0  0  0  0  0  0
   -7.7780   22.4920  -30.3730 C   0  0  0  0  0  0  0  0  0  0  0  0
   -7.8928   21.5604  -29.7995 H   0  0  0  0  0  0  0  0  0  0  0  0
   -8.1739   23.3336  -29.7856 H   0  0  0  0  0  0  0  0  0  0  0  0
   -6.3250   22.7240  -30.6660 C   0  0  0  0  0  0  0  0  0  0  0  0
   -5.7640   23.9940  -30.4910 C   0  0  0  0  0  0  0  0  0  0  0  0
   -6.3728   24.8298  -30.1157 H   0  0  0  0  0  0  0  0  0  0  0  0
   -4.4180   24.1780  -30.8020 C   0  0  0  0  0  0  0  0  0  0  0  0
   -3.8790   25.3050  -30.6450 O   0  0  0  0  0  0  0  0  0  0  0  0
   -3.6870   23.1380  -31.2750 N   0  0  0  0  0  0  0  0  0  0  0  0
   -4.2420   21.9100  -31.4670 C   0  0  0  0  0  0  0  0  0  0  0  0
   -3.5310   20.9100  -31.9050 N   0  0  0  0  0  0  0  0  0  0  0  0
   -2.1550   20.9500  -32.3250 C   0  0  0  0  0  0  0  0  0  0  0  0
   -1.8060   21.0720  -33.6840 C   0  0  0  0  0  0  0  0  0  0  0  0
   -2.5963   21.1570  -34.4444 H   0  0  0  0  0  0  0  0  0  0  0  0
   -0.4600   21.0860  -34.0760 C   0  0  0  0  0  0  0  0  0  0  0  0
   -0.0980   21.1860  -35.5290 C   0  0  0  0  0  0  0  0  0  0  0  0
    0.9583   21.4778  -35.6245 H   0  0  0  0  0  0  0  0  0  0  0  0
   -0.2543   20.2110  -36.0138 H   0  0  0  0  0  0  0  0  0  0  0  0
   -0.7326   21.9425  -36.0138 H   0  0  0  0  0  0  0  0  0  0  0  0
    0.5400   20.9240  -33.1090 C   0  0  0  0  0  0  0  0  0  0  0  0
    1.5976   20.9189  -33.4113 H   0  0  0  0  0  0  0  0  0  0  0  0
    0.2020   20.7690  -31.7640 C   0  0  0  0  0  0  0  0  0  0  0  0
    0.9952   20.6420  -31.0126 H   0  0  0  0  0  0  0  0  0  0  0  0
   -1.1480   20.7740  -31.3620 C   0  0  0  0  0  0  0  0  0  0  0  0
   -1.5250   20.6130  -30.0190 O   0  0  0  0  0  0  0  0  0  0  0  0
   -1.7970   21.6860  -29.1230 C   0  0  0  0  0  0  0  0  0  0  0  0
   -1.7067   21.3298  -28.0862 H   0  0  0  0  0  0  0  0  0  0  0  0
   -1.0766   22.4992  -29.2954 H   0  0  0  0  0  0  0  0  0  0  0  0
   -2.8178   22.0578  -29.2954 H   0  0  0  0  0  0  0  0  0  0  0  0
   -5.5540   21.7100  -31.1570 N   0  0  0  0  0  0  0  0  0  0  0  0
   -5.9780   20.7650  -31.3020 H   0  0  0  0  0  0  0  0  0  0  0  0
   -7.2190   20.3790  -33.2050 C   0  0  0  0  0  0  0  0  0  0  0  0
   -6.7707   21.1954  -33.7903 H   0  0  0  0  0  0  0  0  0  0  0  0
   -6.8220   19.0580  -33.4310 C   0  0  0  0  0  0  0  0  0  0  0  0
   -6.0630   18.8354  -34.1954 H   0  0  0  0  0  0  0  0  0  0  0  0
  1  2  1  0
  2  3  2  0
  3  4  1  0
  3  5  1  0
  5  6  1  0
  5  7  2  0
  7  8  1  0
  8  9  1  0
  9 10  1  0
  9 11  1  0
  9 12  1  0
 12 13  2  0
 13 14  1  0
 13 15  1  0
 15 16  2  0
 15 17  1  0
 17 18  1  0
 18 19  2  0
 19 20  1  0
 20 21  2  0
 21 22  1  0
 21 23  1  0
 23 24  1  0
 24 25  1  0
 24 26  1  0
 24 27  1  0
 23 28  2  0
 28 29  1  0
 28 30  1  0
 30 31  1  0
 30 32  2  0
 32 33  1  0
 33 34  1  0
 34 35  1  0
 34 36  1  0
 34 37  1  0
 18 38  1  0
 38 39  1  0
  7 40  1  0
 40 41  1  0
 40 42  2  0
 42 43  1  0
 42  2  1  0
 38 12  1  0
 32 20  1  0
M  CHG  1  17  -1
M  END
>  <UniqueID>  (18) 
16

>  <SMILES>  (18) 
COc1ccc(C)cc1/N=c1\[n-]c(=O)cc(CSc2ccccc2)[nH]1

>  <Energy>  (18) 
46.56810801797702

>  <Genealogy>  (18) 
COc1ccc(C)cc1N=c1[n-]c(=O)cc(CSc2ccccc2)[nH]1 (protonated)
COc1ccc(C)cc1/N=c1\[n-]c(=O)cc(CSc2ccccc2)[nH]1 (cis-trans isomerization)
COc1ccc(C)cc1/N=c1\[n-]c(=O)cc(CSc2ccccc2)[nH]1 (3D coordinates assigned)
COc1ccc(C)cc1/N=c1\[n-]c(=O)cc(CSc2ccccc2)[nH]1 (optimized conformer: 46.56810801797702 kcal/mol)

>  <smiles>  (18) 
COc1ccc(C)cc1N=c1[nH]c(CSc2ccccc2)cc(=O)[nH]1

>  <score_type>  (18) 
oracle

>  <origin>  (18) 
adgpu

>  <m_score__min__energy>  (18) 
-9.7599999999999998

>  <m_primary>  (18) 
energy

$$$$
19:0
     RDKit          3D

 24 26  0  0  0  0  0  0  0  0999 V2000
   -2.4870   21.7460  -32.5800 N   0  0  0  0  0  0  0  0  0  0  0  0
   -3.5800   22.0320  -32.2780 C   0  0  0  0  0  0  0  0  0  0  0  0
   -4.9250   22.3620  -31.9230 C   0  0  0  0  0  0  0  0  0  0  0  0
   -6.0420   21.6400  -32.3500 C   0  0  0  0  0  0  0  0  0  0  0  0
   -7.1560   22.2290  -31.8270 N   0  0  0  0  0  0  0  0  0  0  0  0
   -8.4860   21.7520  -32.0570 C   0  0  0  0  0  0  0  0  0  0  0  0
   -9.4690   21.5790  -30.9710 C   0  0  0  0  0  0  0  0  0  0  0  0
   -8.7280   20.3470  -31.4600 C   0  0  0  0  0  0  0  0  0  0  0  0
   -6.7930   23.2960  -31.0840 C   0  0  0  0  0  0  0  0  0  0  0  0
   -7.5070   24.1830  -30.3800 N   0  0  0  0  0  0  0  0  0  0  0  0
   -6.8530   25.1610  -29.7280 C   0  0  0  0  0  0  0  0  0  0  0  0
   -5.4940   25.2590  -29.7740 N   0  0  0  0  0  0  0  0  0  0  0  0
   -4.7530   24.3840  -30.4720 C   0  0  0  0  0  0  0  0  0  0  0  0
   -3.4790   24.5410  -30.4690 N   0  0  0  0  0  0  0  0  0  0  0  0
   -5.4170   23.3830  -31.1400 C   0  0  0  0  0  0  0  0  0  0  0  0
   -6.0262   20.7501  -32.9964 H   0  0  0  0  0  0  0  0  0  0  0  0
   -8.5658   22.2734  -33.0223 H   0  0  0  0  0  0  0  0  0  0  0  0
   -9.2519   21.9833  -29.9713 H   0  0  0  0  0  0  0  0  0  0  0  0
  -10.5321   21.8358  -30.8535 H   0  0  0  0  0  0  0  0  0  0  0  0
   -7.9628   19.8708  -30.8294 H   0  0  0  0  0  0  0  0  0  0  0  0
   -9.0079   19.3577  -31.8512 H   0  0  0  0  0  0  0  0  0  0  0  0
   -7.4266   25.8970  -29.1456 H   0  0  0  0  0  0  0  0  0  0  0  0
   -5.0300   26.0490  -29.2420 H   0  0  0  0  0  0  0  0  0  0  0  0
   -2.7850   23.9520  -30.9560 H   0  0  0  0  0  0  0  0  0  0  0  0
  1  2  3  0
  2  3  1  0
  3  4  2  0
  4  5  1  0
  5  6  1  0
  6  7  1  0
  7  8  1  0
  5  9  1  0
  9 10  1  0
 10 11  2  0
 11 12  1  0
 12 13  1  0
 13 14  2  3
 13 15  1  0
 15  3  1  0
  8  6  1  0
 15  9  2  0
  4 16  1  0
  6 17  1  0
  7 18  1  0
  7 19  1  0
  8 20  1  0
  8 21  1  0
 11 22  1  0
 12 23  1  0
 14 24  1  0
M  END
>  <smiles>  (19) 
N#Cc1cn(C2CC2)c2nc[nH]c(=N)c12

>  <score_type>  (19) 
oracle

>  <origin>  (19) 
adgpu

>  <m_score__min__energy>  (19) 
-6.3700000000000001

>  <m_primary>  (19) 
energy

$$$$
20:0
     RDKit          3D

 44 45  0  0  0  0  0  0  0  0999 V2000
   -1.1970   28.3910  -38.4650 C   0  0  0  0  0  0  0  0  0  0  0  0
   -0.5190   27.5150  -37.4420 C   0  0  0  0  0  0  0  0  0  0  0  0
   -0.6730   27.8220  -36.0810 C   0  0  0  0  0  0  0  0  0  0  0  0
   -0.0610   27.0410  -35.1040 C   0  0  0  0  0  0  0  0  0  0  0  0
    0.7030   25.9360  -35.4700 C   0  0  0  0  0  0  0  0  0  0  0  0
    0.8640   25.5950  -36.8240 C   0  0  0  0  0  0  0  0  0  0  0  0
    1.6600   24.4570  -37.1950 N   0  0  0  0  0  0  0  0  0  0  0  0
    2.0720   23.3880  -36.3330 C   0  0  0  0  0  0  0  0  0  0  0  0
    3.2680   23.0030  -36.3870 O   0  0  0  0  0  0  0  0  0  0  0  0
    1.0970   22.6670  -35.4850 C   0  0  0  0  0  0  0  0  0  0  0  0
   -0.1060   22.6240  -35.8510 O   0  0  0  0  0  0  0  0  0  0  0  0
    1.4590   22.0010  -34.2650 N   0  0  0  0  0  0  0  0  0  0  0  0
    1.0370   20.6770  -33.8150 C   0  0  0  0  0  0  0  0  0  0  0  0
   -0.4450   20.4460  -34.1290 C   0  0  0  0  0  0  0  0  0  0  0  0
   -1.3420   21.1480  -33.1450 C   0  0  0  0  0  0  0  0  0  0  0  0
   -0.8450   21.5570  -31.8970 C   0  0  0  0  0  0  0  0  0  0  0  0
   -1.6640   22.2550  -31.0060 C   0  0  0  0  0  0  0  0  0  0  0  0
   -2.9900   22.5490  -31.3500 C   0  0  0  0  0  0  0  0  0  0  0  0
   -4.0110   23.4560  -30.2380 S   0  0  0  0  0  0  0  0  0  0  0  0
   -3.7370   25.1480  -30.4560 N   0  0  0  0  0  0  0  0  0  0  0  0
   -3.6880   23.0720  -28.8210 O   0  0  0  0  0  0  0  0  0  0  0  0
   -5.4570   23.1450  -30.5050 O   0  0  0  0  0  0  0  0  0  0  0  0
   -3.4880   22.1480  -32.5960 C   0  0  0  0  0  0  0  0  0  0  0  0
   -2.6690   21.4520  -33.4900 C   0  0  0  0  0  0  0  0  0  0  0  0
    0.2920   26.4150  -37.8250 C   0  0  0  0  0  0  0  0  0  0  0  0
    0.4740   26.0680  -39.2860 C   0  0  0  0  0  0  0  0  0  0  0  0
   -1.7925   29.1604  -37.9519 H   0  0  0  0  0  0  0  0  0  0  0  0
   -0.4363   28.8755  -39.0947 H   0  0  0  0  0  0  0  0  0  0  0  0
   -1.8568   27.7761  -39.0947 H   0  0  0  0  0  0  0  0  0  0  0  0
   -1.2829   28.6877  -35.7834 H   0  0  0  0  0  0  0  0  0  0  0  0
   -0.1813   27.2975  -34.0411 H   0  0  0  0  0  0  0  0  0  0  0  0
    1.1847   25.3246  -34.6928 H   0  0  0  0  0  0  0  0  0  0  0  0
    1.6385   19.9123  -34.3283 H   0  0  0  0  0  0  0  0  0  0  0  0
    1.1830   20.6098  -32.7268 H   0  0  0  0  0  0  0  0  0  0  0  0
   -0.6582   20.8262  -35.1390 H   0  0  0  0  0  0  0  0  0  0  0  0
   -0.6439   19.3662  -34.0623 H   0  0  0  0  0  0  0  0  0  0  0  0
    0.1942   21.3267  -31.6195 H   0  0  0  0  0  0  0  0  0  0  0  0
   -1.2666   22.5747  -30.0314 H   0  0  0  0  0  0  0  0  0  0  0  0
   -2.7030   25.2960  -30.4210 H   0  0  0  0  0  0  0  0  0  0  0  0
   -4.5269   22.3814  -32.8721 H   0  0  0  0  0  0  0  0  0  0  0  0
   -3.0656   21.1412  -34.4678 H   0  0  0  0  0  0  0  0  0  0  0  0
    0.9834   25.0968  -39.3715 H   0  0  0  0  0  0  0  0  0  0  0  0
   -0.5099   26.0103  -39.7745 H   0  0  0  0  0  0  0  0  0  0  0  0
    1.0809   26.8446  -39.7745 H   0  0  0  0  0  0  0  0  0  0  0  0
  1  2  1  0
  2  3  2  0
  3  4  1  0
  4  5  2  0
  5  6  1  0
  6  7  1  0
  7  8  1  0
  8  9  2  0
  8 10  1  0
 10 11  2  0
 10 12  1  0
 12 13  1  0
 13 14  1  0
 14 15  1  0
 15 16  2  0
 16 17  1  0
 17 18  2  0
 18 19  1  0
 19 20  1  0
 19 21  2  0
 19 22  2  0
 18 23  1  0
 23 24  2  0
  6 25  2  0
 25 26  1  0
 25  2  1  0
 24 15  1  0
  1 27  1  0
  1 28  1  0
  1 29  1  0
  3 30  1  0
  4 31  1  0
  5 32  1  0
 13 33  1  0
 13 34  1  0
 14 35  1  0
 14 36  1  0
 16 37  1  0
 17 38  1  0
 20 39  1  0
 23 40  1  0
 24 41  1  0
 26 42  1  0
 26 43  1  0
 26 44  1  0
M  CHG  3   7  -1  12  -1  20  -1
M  END
>  <UniqueID>  (20) 
17

>  <SMILES>  (20) 
Cc1cccc([N-]C(=O)C(=O)[N-]CCc2ccc(S([NH-])(=O)=O)cc2)c1C

>  <Energy>  (20) 
50.45929716310516

>  <Genealogy>  (20) 
Cc1cccc([N-]C(=O)C(=O)[N-]CCc2ccc(S([NH-])(=O)=O)cc2)c1C (protonated)
Cc1cccc([N-]C(=O)C(=O)[N-]CCc2ccc(S([NH-])(=O)=O)cc2)c1C (3D coordinates assigned)
Cc1cccc([N-]C(=O)C(=O)[N-]CCc2ccc(S([NH-])(=O)=O)cc2)c1C (optimized conformer: 50.45929716310516 kcal/mol)

>  <smiles>  (20) 
Cc1cccc(NC(=O)C(=O)NCCc2ccc(S(N)(=O)=O)cc2)c1C

>  <score_type>  (20) 
oracle

>  <origin>  (20) 
adgpu

>  <m_score__min__energy>  (20) 
-11.220000000000001

>  <m_primary>  (20) 
energy

$$$$
21:0
     RDKit          3D

 41 44  0  0  0  0  0  0  0  0999 V2000
   -7.5730   17.7860  -33.0180 C   0  0  0  0  0  0  0  0  0  0  0  0
   -7.5420   19.1700  -32.4400 C   0  0  0  0  0  0  0  0  0  0  0  0
   -8.7120   19.7280  -31.8770 C   0  0  0  0  0  0  0  0  0  0  0  0
   -8.6880   21.0100  -31.2990 C   0  0  0  0  0  0  0  0  0  0  0  0
   -7.4840   21.7170  -31.2800 C   0  0  0  0  0  0  0  0  0  0  0  0
   -7.2860   22.9940  -30.7450 C   0  0  0  0  0  0  0  0  0  0  0  0
   -5.9650   23.4160  -30.8760 C   0  0  0  0  0  0  0  0  0  0  0  0
   -5.3330   24.9620  -30.3460 S   0  0  0  0  0  0  0  0  0  0  0  0
   -5.8790   26.0470  -31.2330 O   0  0  0  0  0  0  0  0  0  0  0  0
   -5.7590   25.2020  -28.9260 O   0  0  0  0  0  0  0  0  0  0  0  0
   -3.6040   24.9200  -30.4590 N   0  0  0  0  0  0  0  0  0  0  0  0
   -2.6720   24.2530  -29.5890 C   0  0  0  0  0  0  0  0  0  0  0  0
   -2.9300   22.9110  -29.2820 C   0  0  0  0  0  0  0  0  0  0  0  0
   -2.0790   22.1830  -28.4390 C   0  0  0  0  0  0  0  0  0  0  0  0
   -0.9240   22.7970  -27.9190 C   0  0  0  0  0  0  0  0  0  0  0  0
   -0.6700   24.1450  -28.2070 C   0  0  0  0  0  0  0  0  0  0  0  0
   -1.5300   24.8740  -29.0360 C   0  0  0  0  0  0  0  0  0  0  0  0
   -1.2260   26.2060  -29.2840 O   0  0  0  0  0  0  0  0  0  0  0  0
   -0.0130   22.0530  -26.9700 C   0  0  0  0  0  0  0  0  0  0  0  0
   -0.1430   20.5960  -27.0980 N   0  0  0  0  0  0  0  0  0  0  0  0
   -1.5500   20.1890  -26.9970 C   0  0  0  0  0  0  0  0  0  0  0  0
   -2.3620   20.7250  -28.1820 C   0  0  0  0  0  0  0  0  0  0  0  0
   -5.0500   22.2240  -31.6500 S   0  0  0  0  0  0  0  0  0  0  0  0
   -6.3360   21.1570  -31.8200 C   0  0  0  0  0  0  0  0  0  0  0  0
   -6.3320   19.8910  -32.3990 C   0  0  0  0  0  0  0  0  0  0  0  0
   -7.5895   17.0482  -32.2023 H   0  0  0  0  0  0  0  0  0  0  0  0
   -8.4740   17.6676  -33.6378 H   0  0  0  0  0  0  0  0  0  0  0  0
   -6.6782   17.6274  -33.6378 H   0  0  0  0  0  0  0  0  0  0  0  0
   -9.6504   19.1542  -31.8910 H   0  0  0  0  0  0  0  0  0  0  0  0
   -9.6012   21.4478  -30.8697 H   0  0  0  0  0  0  0  0  0  0  0  0
   -8.0797   23.5942  -30.2762 H   0  0  0  0  0  0  0  0  0  0  0  0
   -3.8162   22.4196  -29.7100 H   0  0  0  0  0  0  0  0  0  0  0  0
    0.2155   24.6355  -27.7765 H   0  0  0  0  0  0  0  0  0  0  0  0
    1.0282   22.3353  -27.1852 H   0  0  0  0  0  0  0  0  0  0  0  0
   -0.3004   22.3271  -25.9442 H   0  0  0  0  0  0  0  0  0  0  0  0
    0.2330   20.3010  -28.0300 H   0  0  0  0  0  0  0  0  0  0  0  0
   -1.6073   19.0905  -26.9888 H   0  0  0  0  0  0  0  0  0  0  0  0
   -1.9694   20.6030  -26.0682 H   0  0  0  0  0  0  0  0  0  0  0  0
   -2.1028   20.1477  -29.0818 H   0  0  0  0  0  0  0  0  0  0  0  0
   -3.4301   20.6208  -27.9404 H   0  0  0  0  0  0  0  0  0  0  0  0
   -5.4072   19.4641  -32.8142 H   0  0  0  0  0  0  0  0  0  0  0  0
  1  2  1  0
  2  3  2  0
  3  4  1  0
  4  5  2  0
  5  6  1  0
  6  7  2  0
  7  8  1  0
  8  9  2  0
  8 10  2  0
  8 11  1  0
 11 12  1  0
 12 13  2  0
 13 14  1  0
 14 15  2  0
 15 16  1  0
 16 17  2  0
 17 18  1  0
 15 19  1  0
 19 20  1  0
 20 21  1  0
 21 22  1  0
  7 23  1  0
 23 24  1  0
 24 25  2  0
 25  2  1  0
 24  5  1  0
 17 12  1  0
 22 14  1  0
  1 26  1  0
  1 27  1  0
  1 28  1  0
  3 29  1  0
  4 30  1  0
  6 31  1  0
 13 32  1  0
 16 33  1  0
 19 34  1  0
 19 35  1  0
 20 36  1  0
 21 37  1  0
 21 38  1  0
 22 39  1  0
 22 40  1  0
 25 41  1  0
M  CHG  2  11  -1  18  -1
M  END
>  <UniqueID>  (21) 
18

>  <SMILES>  (21) 
Cc1ccc2cc(S(=O)(=O)[N-]c3cc4c(cc3[O-])CNCC4)sc2c1

>  <Energy>  (21) 
84.11454331196752

>  <Genealogy>  (21) 
Cc1ccc2cc(S(=O)(=O)[N-]c3cc4c(cc3[O-])CNCC4)sc2c1 (protonated)
Cc1ccc2cc(S(=O)(=O)[N-]c3cc4c(cc3[O-])CNCC4)sc2c1 (3D coordinates assigned)
Cc1ccc2cc(S(=O)(=O)[N-]c3cc4c(cc3[O-])CNCC4)sc2c1 (nonaromatic ring conformer: 84.11454331196752 kcal/mol)

>  <smiles>  (21) 
Cc1ccc2cc(S(=O)(=O)Nc3cc4c(cc3O)CNCC4)sc2c1

>  <score_type>  (21) 
oracle

>  <origin>  (21) 
adgpu

>  <m_score__min__energy>  (21) 
-14.34

>  <m_primary>  (21) 
energy

$$$$
22:0
     RDKit          3D

 64 67  0  0  0  0  0  0  0  0999 V2000
   -5.7690   19.2730  -34.0710 C   0  0  0  0  0  0  0  0  0  0  0  0
   -5.5200   20.3990  -33.1040 C   0  0  0  0  0  0  0  0  0  0  0  0
   -6.5470   20.8700  -32.2710 C   0  0  0  0  0  0  0  0  0  0  0  0
   -6.3090   21.9250  -31.3880 C   0  0  0  0  0  0  0  0  0  0  0  0
   -5.0450   22.5300  -31.3360 C   0  0  0  0  0  0  0  0  0  0  0  0
   -4.7610   23.8550  -30.2050 S   0  0  0  0  0  0  0  0  0  0  0  0
   -5.7430   24.9550  -30.5040 O   0  0  0  0  0  0  0  0  0  0  0  0
   -4.9590   23.4090  -28.7830 O   0  0  0  0  0  0  0  0  0  0  0  0
   -3.1470   24.4630  -30.4030 N   0  0  0  0  0  0  0  0  0  0  0  0
   -2.0430   24.1140  -29.5630 C   0  0  0  0  0  0  0  0  0  0  0  0
   -1.6730   22.7680  -29.4790 C   0  0  0  0  0  0  0  0  0  0  0  0
   -0.6080   22.3520  -28.6520 C   0  0  0  0  0  0  0  0  0  0  0  0
   -0.2880   20.9020  -28.4980 C   0  0  0  0  0  0  0  0  0  0  0  0
   -1.2380   19.9930  -27.9910 C   0  0  0  0  0  0  0  0  0  0  0  0
   -0.9260   18.6370  -27.8500 C   0  0  0  0  0  0  0  0  0  0  0  0
    0.3540   18.1680  -28.1740 C   0  0  0  0  0  0  0  0  0  0  0  0
    0.6950   16.7470  -27.9560 C   0  0  0  0  0  0  0  0  0  0  0  0
    0.9680   16.3340  -26.7930 O   0  0  0  0  0  0  0  0  0  0  0  0
    0.6580   15.8310  -29.0600 N   0  0  0  0  0  0  0  0  0  0  0  0
    1.1240   16.1680  -30.4030 C   0  0  0  0  0  0  0  0  0  0  0  0
   -0.0550   16.6380  -31.2640 C   0  0  0  0  0  0  0  0  0  0  0  0
    0.1320   18.0780  -31.7490 C   0  0  0  0  0  0  0  0  0  0  0  0
   -1.1910   18.6730  -32.0660 N   0  0  0  0  0  0  0  0  0  0  0  0
   -1.3950   19.9860  -31.4240 C   0  0  0  0  0  0  0  0  0  0  0  0
   -0.5920   21.1050  -32.1330 C   0  0  0  0  0  0  0  0  0  0  0  0
    0.0260   20.6610  -33.3260 O   0  0  0  0  0  0  0  0  0  0  0  0
   -0.9320   20.0400  -34.1590 C   0  0  0  0  0  0  0  0  0  0  0  0
   -1.4620   18.7350  -33.5230 C   0  0  0  0  0  0  0  0  0  0  0  0
    1.3030   19.0610  -28.6980 C   0  0  0  0  0  0  0  0  0  0  0  0
    2.5650   18.6120  -29.0770 O   0  0  0  0  0  0  0  0  0  0  0  0
    0.9760   20.4080  -28.8730 C   0  0  0  0  0  0  0  0  0  0  0  0
    0.0980   23.3360  -27.9370 C   0  0  0  0  0  0  0  0  0  0  0  0
   -0.2480   24.6810  -28.0410 C   0  0  0  0  0  0  0  0  0  0  0  0
   -1.3050   25.0790  -28.8530 C   0  0  0  0  0  0  0  0  0  0  0  0
   -1.6030   26.4330  -28.9660 O   0  0  0  0  0  0  0  0  0  0  0  0
   -4.0240   22.0810  -32.1830 C   0  0  0  0  0  0  0  0  0  0  0  0
   -4.2620   21.0170  -33.0620 C   0  0  0  0  0  0  0  0  0  0  0  0
   -5.9735   18.3480  -33.5119 H   0  0  0  0  0  0  0  0  0  0  0  0
   -6.6347   19.5179  -34.7039 H   0  0  0  0  0  0  0  0  0  0  0  0
   -4.8808   19.1301  -34.7039 H   0  0  0  0  0  0  0  0  0  0  0  0
   -7.5434   20.4060  -32.3141 H   0  0  0  0  0  0  0  0  0  0  0  0
   -7.1155   22.2827  -30.7311 H   0  0  0  0  0  0  0  0  0  0  0  0
   -2.2225   22.0195  -30.0687 H   0  0  0  0  0  0  0  0  0  0  0  0
   -2.2363   20.3541  -27.7029 H   0  0  0  0  0  0  0  0  0  0  0  0
   -1.6893   17.9351  -27.4829 H   0  0  0  0  0  0  0  0  0  0  0  0
    1.8714   16.9725  -30.3382 H   0  0  0  0  0  0  0  0  0  0  0  0
    1.5749   15.2765  -30.8634 H   0  0  0  0  0  0  0  0  0  0  0  0
   -0.1429   15.9766  -32.1385 H   0  0  0  0  0  0  0  0  0  0  0  0
   -0.9646   16.6012  -30.6466 H   0  0  0  0  0  0  0  0  0  0  0  0
    0.6198   18.6695  -30.9602 H   0  0  0  0  0  0  0  0  0  0  0  0
    0.7594   18.0804  -32.6525 H   0  0  0  0  0  0  0  0  0  0  0  0
   -2.4651   20.2378  -31.4610 H   0  0  0  0  0  0  0  0  0  0  0  0
   -1.0403   19.9170  -30.3850 H   0  0  0  0  0  0  0  0  0  0  0  0
   -1.2779   21.9295  -32.3776 H   0  0  0  0  0  0  0  0  0  0  0  0
    0.2043   21.4287  -31.4466 H   0  0  0  0  0  0  0  0  0  0  0  0
   -1.7736   20.7308  -34.3152 H   0  0  0  0  0  0  0  0  0  0  0  0
   -0.4522   19.7912  -35.1171 H   0  0  0  0  0  0  0  0  0  0  0  0
   -2.5486   18.6779  -33.6842 H   0  0  0  0  0  0  0  0  0  0  0  0
   -0.9423   17.8909  -33.9999 H   0  0  0  0  0  0  0  0  0  0  0  0
    1.7173   21.0930  -29.3104 H   0  0  0  0  0  0  0  0  0  0  0  0
    0.9345   23.0394  -27.2871 H   0  0  0  0  0  0  0  0  0  0  0  0
    0.3195   25.4352  -27.4761 H   0  0  0  0  0  0  0  0  0  0  0  0
   -3.0359   22.5637  -32.1579 H   0  0  0  0  0  0  0  0  0  0  0  0
   -3.4572   20.6639  -33.7235 H   0  0  0  0  0  0  0  0  0  0  0  0
  1  2  1  0
  2  3  2  0
  3  4  1  0
  4  5  2  0
  5  6  1  0
  6  7  2  0
  6  8  2  0
  6  9  1  0
  9 10  1  0
 10 11  2  0
 11 12  1  0
 12 13  1  0
 13 14  2  0
 14 15  1  0
 15 16  2  0
 16 17  1  0
 17 18  2  0
 17 19  1  0
 19 20  1  0
 20 21  1  0
 21 22  1  0
 22 23  1  0
 23 24  1  0
 24 25  1  0
 25 26  1  0
 26 27  1  0
 27 28  1  0
 16 29  1  0
 29 30  1  0
 29 31  2  0
 12 32  2  0
 32 33  1  0
 33 34  2  0
 34 35  1  0
  5 36  1  0
 36 37  2  0
 37  2  1  0
 34 10  1  0
 31 13  1  0
 28 23  1  0
  1 38  1  0
  1 39  1  0
  1 40  1  0
  3 41  1  0
  4 42  1  0
 11 43  1  0
 14 44  1  0
 15 45  1  0
 20 46  1  0
 20 47  1  0
 21 48  1  0
 21 49  1  0
 22 50  1  0
 22 51  1  0
 24 52  1  0
 24 53  1  0
 25 54  1  0
 25 55  1  0
 27 56  1  0
 27 57  1  0
 28 58  1  0
 28 59  1  0
 31 60  1  0
 32 61  1  0
 33 62  1  0
 36 63  1  0
 37 64  1  0
M  CHG  4   9  -1  19  -1  30  -1  35  -1
M  END
>  <UniqueID>  (22) 
19

>  <SMILES>  (22) 
Cc1ccc(S(=O)(=O)[N-]c2cc(-c3ccc(C(=O)[N-]CCCN4CCOCC4)c([O-])c3)ccc2[O-])cc1

>  <Energy>  (22) 
93.22813970072987

>  <Genealogy>  (22) 
Cc1ccc(S(=O)(=O)[N-]c2cc(-c3ccc(C(=O)[N-]CCCN4CCOCC4)c([O-])c3)ccc2[O-])cc1 (protonated)
Cc1ccc(S(=O)(=O)[N-]c2cc(-c3ccc(C(=O)[N-]CCCN4CCOCC4)c([O-])c3)ccc2[O-])cc1 (3D coordinates assigned)
Cc1ccc(S(=O)(=O)[N-]c2cc(-c3ccc(C(=O)[N-]CCCN4CCOCC4)c([O-])c3)ccc2[O-])cc1 (nonaromatic ring conformer: 93.22813970072987 kcal/mol)

>  <smiles>  (22) 
Cc1ccc(S(=O)(=O)Nc2cc(-c3ccc(C(=O)NCCCN4CCOCC4)c(O)c3)ccc2O)cc1

>  <score_type>  (22) 
oracle

>  <origin>  (22) 
adgpu

>  <m_score__min__energy>  (22) 
-14.029999999999999

>  <m_primary>  (22) 
energy

$$$$
23:0
     RDKit          3D

 24 26  0  0  0  0  0  0  0  0999 V2000
   -2.7280   25.2970  -29.7190 O   0  0  0  0  0  0  0  0  0  0  0  0
   -3.8710   24.6410  -30.1630 C   0  0  0  0  0  0  0  0  0  0  0  0
   -5.0960   25.3120  -30.1890 C   0  0  0  0  0  0  0  0  0  0  0  0
   -6.2480   24.6550  -30.6350 C   0  0  0  0  0  0  0  0  0  0  0  0
   -6.1810   23.3160  -31.0570 C   0  0  0  0  0  0  0  0  0  0  0  0
   -7.3970   22.6260  -31.5260 C   0  0  0  0  0  0  0  0  0  0  0  0
   -8.5230   23.2500  -31.9280 N   0  0  0  0  0  0  0  0  0  0  0  0
   -9.3760   22.2970  -32.2730 N   0  0  0  0  0  0  0  0  0  0  0  0
   -8.7380   21.1310  -32.0670 C   0  0  0  0  0  0  0  0  0  0  0  0
   -9.4540   19.5270  -32.3850 S   0  0  0  0  0  0  0  0  0  0  0  0
   -7.8590   18.7230  -32.3450 C   0  0  0  0  0  0  0  0  0  0  0  0
   -7.4910   17.8410  -31.3910 N   0  0  0  0  0  0  0  0  0  0  0  0
   -6.2540   17.3790  -31.5660 N   0  0  0  0  0  0  0  0  0  0  0  0
   -5.6380   17.8890  -32.6530 C   0  0  0  0  0  0  0  0  0  0  0  0
   -4.1170   17.5000  -33.1070 S   0  0  0  0  0  0  0  0  0  0  0  0
   -6.6320   18.9720  -33.4740 S   0  0  0  0  0  0  0  0  0  0  0  0
   -7.5250   21.3220  -31.6080 O   0  0  0  0  0  0  0  0  0  0  0  0
   -4.9430   22.6490  -31.0280 C   0  0  0  0  0  0  0  0  0  0  0  0
   -3.7940   23.3100  -30.5810 C   0  0  0  0  0  0  0  0  0  0  0  0
   -5.1550   26.3594  -29.8580 H   0  0  0  0  0  0  0  0  0  0  0  0
   -7.2098   25.1884  -30.6554 H   0  0  0  0  0  0  0  0  0  0  0  0
   -5.8180   16.6890  -30.9160 H   0  0  0  0  0  0  0  0  0  0  0  0
   -4.8780   21.6019  -31.3586 H   0  0  0  0  0  0  0  0  0  0  0  0
   -2.8295   22.7817  -30.5586 H   0  0  0  0  0  0  0  0  0  0  0  0
  1  2  1  0
  2  3  2  0
  3  4  1  0
  4  5  2  0
  5  6  1  0
  6  7  2  0
  7  8  1  0
  8  9  2  0
  9 10  1  0
 10 11  1  0
 11 12  2  0
 12 13  1  0
 13 14  1  0
 14 15  2  0
 14 16  1  0
  9 17  1  0
  5 18  1  0
 18 19  2  0
 19  2  1  0
 17  6  1  0
 16 11  1  0
  3 20  1  0
  4 21  1  0
 13 22  1  0
 18 23  1  0
 19 24  1  0
M  CHG  1   1  -1
M  END
>  <UniqueID>  (23) 
20

>  <SMILES>  (23) 
[O-]c1ccc(-c2nnc(Sc3n[nH]c(=S)s3)o2)cc1

>  <Energy>  (23) 
91.7771048322437

>  <Genealogy>  (23) 
[O-]c1ccc(-c2nnc(Sc3n[nH]c(=S)s3)o2)cc1 (protonated)
[O-]c1ccc(-c2nnc(Sc3n[nH]c(=S)s3)o2)cc1 (3D coordinates assigned)
[O-]c1ccc(-c2nnc(Sc3n[nH]c(=S)s3)o2)cc1 (optimized conformer: 91.7771048322437 kcal/mol)

>  <smiles>  (23) 
Oc1ccc(-c2nnc(Sc3n[nH]c(=S)s3)o2)cc1

>  <score_type>  (23) 
oracle

>  <origin>  (23) 
adgpu

>  <m_score__min__energy>  (23) 
-10.859999999999999

>  <m_primary>  (23) 
energy

$$$$
24:0
     RDKit          3D

 54 56  0  0  0  0  0  0  0  0999 V2000
   -8.9300   21.7160  -30.5590 C   0  0  0  0  0  0  0  0  0  0  0  0
   -7.8000   21.0150  -31.2460 C   0  0  0  0  0  0  0  0  0  0  0  0
   -7.8390   19.7140  -31.5940 N   0  0  0  0  0  0  0  0  0  0  0  0
   -6.6620   19.4240  -32.1810 C   0  0  0  0  0  0  0  0  0  0  0  0
   -6.3140   18.0660  -32.7020 C   0  0  0  0  0  0  0  0  0  0  0  0
   -5.8590   20.5550  -32.2210 C   0  0  0  0  0  0  0  0  0  0  0  0
   -4.2260   20.6700  -32.8870 S   0  0  0  0  0  0  0  0  0  0  0  0
   -3.8830   19.4270  -33.6590 O   0  0  0  0  0  0  0  0  0  0  0  0
   -4.1720   21.8420  -33.8270 O   0  0  0  0  0  0  0  0  0  0  0  0
   -3.0560   20.8820  -31.5890 C   0  0  0  0  0  0  0  0  0  0  0  0
   -3.4260   20.6330  -30.2580 C   0  0  0  0  0  0  0  0  0  0  0  0
   -2.4950   20.7980  -29.2270 C   0  0  0  0  0  0  0  0  0  0  0  0
   -1.1910   21.2130  -29.5200 C   0  0  0  0  0  0  0  0  0  0  0  0
   -0.2900   21.3720  -28.5180 F   0  0  0  0  0  0  0  0  0  0  0  0
   -0.8200   21.4680  -30.8430 C   0  0  0  0  0  0  0  0  0  0  0  0
   -1.7490   21.3070  -31.8760 C   0  0  0  0  0  0  0  0  0  0  0  0
   -6.5780   21.5660  -31.6000 C   0  0  0  0  0  0  0  0  0  0  0  0
   -6.0500   23.2320  -31.3380 S   0  0  0  0  0  0  0  0  0  0  0  0
   -4.7960   23.4990  -32.1230 O   0  0  0  0  0  0  0  0  0  0  0  0
   -7.1230   24.1760  -31.8010 O   0  0  0  0  0  0  0  0  0  0  0  0
   -5.7410   23.4630  -29.6470 N   0  0  0  0  0  0  0  0  0  0  0  0
   -4.4350   23.7080  -29.0950 C   0  0  0  0  0  0  0  0  0  0  0  0
   -4.2330   23.5270  -27.7180 C   0  0  0  0  0  0  0  0  0  0  0  0
   -2.9750   23.7430  -27.1490 C   0  0  0  0  0  0  0  0  0  0  0  0
   -1.8940   24.1380  -27.9490 C   0  0  0  0  0  0  0  0  0  0  0  0
   -0.5610   24.3680  -27.3540 C   0  0  0  0  0  0  0  0  0  0  0  0
    0.2210   25.1840  -27.9150 O   0  0  0  0  0  0  0  0  0  0  0  0
   -0.1330   23.6720  -26.1650 N   0  0  0  0  0  0  0  0  0  0  0  0
   -0.6770   22.3470  -25.8430 C   0  0  0  0  0  0  0  0  0  0  0  0
    0.9580   24.2320  -25.3640 C   0  0  0  0  0  0  0  0  0  0  0  0
   -2.0990   24.3520  -29.3200 C   0  0  0  0  0  0  0  0  0  0  0  0
   -3.3550   24.1330  -29.8910 C   0  0  0  0  0  0  0  0  0  0  0  0
   -8.8023   21.6368  -29.4693 H   0  0  0  0  0  0  0  0  0  0  0  0
   -8.9356   22.7764  -30.8514 H   0  0  0  0  0  0  0  0  0  0  0  0
   -9.8825   21.2500  -30.8514 H   0  0  0  0  0  0  0  0  0  0  0  0
   -8.6320   19.0510  -31.4340 H   0  0  0  0  0  0  0  0  0  0  0  0
   -6.1390   17.3831  -31.8576 H   0  0  0  0  0  0  0  0  0  0  0  0
   -7.1436   17.6851  -33.3158 H   0  0  0  0  0  0  0  0  0  0  0  0
   -5.4035   18.1310  -33.3158 H   0  0  0  0  0  0  0  0  0  0  0  0
   -4.4506   20.3073  -30.0251 H   0  0  0  0  0  0  0  0  0  0  0  0
   -2.7881   20.6014  -28.1852 H   0  0  0  0  0  0  0  0  0  0  0  0
    0.2046   21.7960  -31.0723 H   0  0  0  0  0  0  0  0  0  0  0  0
   -1.4550   21.5138  -32.9156 H   0  0  0  0  0  0  0  0  0  0  0  0
   -6.5540   23.3560  -29.0000 H   0  0  0  0  0  0  0  0  0  0  0  0
   -5.0726   23.2122  -27.0808 H   0  0  0  0  0  0  0  0  0  0  0  0
   -2.8324   23.6023  -26.0674 H   0  0  0  0  0  0  0  0  0  0  0  0
   -0.7265   22.2265  -24.7507 H   0  0  0  0  0  0  0  0  0  0  0  0
   -1.6869   22.2520  -26.2685 H   0  0  0  0  0  0  0  0  0  0  0  0
   -0.0252   21.5697  -26.2685 H   0  0  0  0  0  0  0  0  0  0  0  0
    0.7266   24.1132  -24.2952 H   0  0  0  0  0  0  0  0  0  0  0  0
    1.8935   23.7026  -25.5976 H   0  0  0  0  0  0  0  0  0  0  0  0
    1.0732   25.3007  -25.5976 H   0  0  0  0  0  0  0  0  0  0  0  0
   -1.2649   24.6947  -29.9500 H   0  0  0  0  0  0  0  0  0  0  0  0
   -3.5007   24.2937  -30.9694 H   0  0  0  0  0  0  0  0  0  0  0  0
  1  2  1  0
  2  3  1  0
  3  4  1  0
  4  5  1  0
  4  6  2  0
  6  7  1  0
  7  8  2  0
  7  9  2  0
  7 10  1  0
 10 11  2  0
 11 12  1  0
 12 13  2  0
 13 14  1  0
 13 15  1  0
 15 16  2  0
  6 17  1  0
 17 18  1  0
 18 19  2  0
 18 20  2  0
 18 21  1  0
 21 22  1  0
 22 23  2  0
 23 24  1  0
 24 25  2  0
 25 26  1  0
 26 27  2  0
 26 28  1  0
 28 29  1  0
 28 30  1  0
 25 31  1  0
 31 32  2  0
 17  2  2  0
 32 22  1  0
 16 10  1  0
  1 33  1  0
  1 34  1  0
  1 35  1  0
  3 36  1  0
  5 37  1  0
  5 38  1  0
  5 39  1  0
 11 40  1  0
 12 41  1  0
 15 42  1  0
 16 43  1  0
 21 44  1  0
 23 45  1  0
 24 46  1  0
 29 47  1  0
 29 48  1  0
 29 49  1  0
 30 50  1  0
 30 51  1  0
 30 52  1  0
 31 53  1  0
 32 54  1  0
M  END
>  <UniqueID>  (24) 
21

>  <SMILES>  (24) 
Cc1[nH]c(C)c(S(=O)(=O)c2ccc(F)cc2)c1S(=O)(=O)Nc1ccc(C(=O)N(C)C)cc1

>  <Energy>  (24) 
88.79445653297451

>  <Genealogy>  (24) 
Cc1[nH]c(C)c(S(=O)(=O)c2ccc(F)cc2)c1S(=O)(=O)Nc1ccc(C(=O)N(C)C)cc1 (3D coordinates assigned)
Cc1[nH]c(C)c(S(=O)(=O)c2ccc(F)cc2)c1S(=O)(=O)Nc1ccc(C(=O)N(C)C)cc1 (optimized conformer: 88.79445653297451 kcal/mol)

>  <smiles>  (24) 
Cc1[nH]c(C)c(S(=O)(=O)c2ccc(F)cc2)c1S(=O)(=O)Nc1ccc(C(=O)N(C)C)cc1

>  <score_type>  (24) 
oracle

>  <origin>  (24) 
adgpu

>  <m_score__min__energy>  (24) 
-10.23

>  <m_primary>  (24) 
energy

$$$$
25:0
     RDKit          3D

 64 68  0  0  0  0  0  0  0  0999 V2000
   -0.2420   25.2140  -36.4810 C   0  0  0  0  0  0  0  0  0  0  0  0
    0.9350   24.3690  -36.1090 C   0  0  0  0  0  0  0  0  0  0  0  0
    2.2330   24.8740  -36.2190 C   0  0  0  0  0  0  0  0  0  0  0  0
    3.3020   24.0530  -35.8440 C   0  0  0  0  0  0  0  0  0  0  0  0
    4.7070   24.5550  -35.9260 C   0  0  0  0  0  0  0  0  0  0  0  0
    3.0570   22.8060  -35.3640 N   0  0  0  0  0  0  0  0  0  0  0  0
    1.7900   22.3310  -35.2530 C   0  0  0  0  0  0  0  0  0  0  0  0
    1.6010   21.1300  -34.8000 N   0  0  0  0  0  0  0  0  0  0  0  0
    0.0480   20.3700  -34.6140 S   0  0  0  0  0  0  0  0  0  0  0  0
    0.1560   18.8870  -34.8280 O   0  0  0  0  0  0  0  0  0  0  0  0
   -0.8730   20.9360  -35.6570 O   0  0  0  0  0  0  0  0  0  0  0  0
   -0.6000   20.6990  -33.0090 C   0  0  0  0  0  0  0  0  0  0  0  0
   -1.9760   20.5920  -32.7650 C   0  0  0  0  0  0  0  0  0  0  0  0
   -2.4910   20.8610  -31.4940 C   0  0  0  0  0  0  0  0  0  0  0  0
   -1.6340   21.2560  -30.4520 C   0  0  0  0  0  0  0  0  0  0  0  0
   -2.1320   21.5150  -29.1310 N   0  0  0  0  0  0  0  0  0  0  0  0
   -3.0910   22.3320  -28.8010 C   0  0  0  0  0  0  0  0  0  0  0  0
   -3.7220   23.2870  -29.7350 C   0  0  0  0  0  0  0  0  0  0  0  0
   -3.3880   24.6180  -29.9740 C   0  0  0  0  0  0  0  0  0  0  0  0
   -2.3420   25.2980  -29.3650 O   0  0  0  0  0  0  0  0  0  0  0  0
   -4.2350   25.2100  -30.8490 N   0  0  0  0  0  0  0  0  0  0  0  0
   -5.1230   24.2450  -31.1500 C   0  0  0  0  0  0  0  0  0  0  0  0
   -6.2130   24.3590  -32.0090 C   0  0  0  0  0  0  0  0  0  0  0  0
   -7.0410   23.2360  -32.1820 C   0  0  0  0  0  0  0  0  0  0  0  0
   -6.7660   22.0270  -31.4980 C   0  0  0  0  0  0  0  0  0  0  0  0
   -7.8240   20.6350  -31.7050 S   0  0  0  0  0  0  0  0  0  0  0  0
   -8.7330   20.8850  -32.8760 O   0  0  0  0  0  0  0  0  0  0  0  0
   -8.6690   20.4560  -30.4740 O   0  0  0  0  0  0  0  0  0  0  0  0
   -6.8740   19.2010  -31.9980 N   0  0  0  0  0  0  0  0  0  0  0  0
   -7.7550   18.1000  -32.4480 C   0  0  0  0  0  0  0  0  0  0  0  0
   -6.9670   16.9280  -33.0790 C   0  0  0  0  0  0  0  0  0  0  0  0
   -5.4880   16.9730  -32.6910 C   0  0  0  0  0  0  0  0  0  0  0  0
   -4.8490   18.3110  -33.1020 C   0  0  0  0  0  0  0  0  0  0  0  0
   -5.8340   19.4890  -32.9980 C   0  0  0  0  0  0  0  0  0  0  0  0
   -5.6590   21.9430  -30.6310 C   0  0  0  0  0  0  0  0  0  0  0  0
   -4.8560   23.0740  -30.4840 C   0  0  0  0  0  0  0  0  0  0  0  0
   -0.2550   21.3150  -30.6850 C   0  0  0  0  0  0  0  0  0  0  0  0
    0.2580   21.0510  -31.9580 C   0  0  0  0  0  0  0  0  0  0  0  0
    0.7410   23.1160  -35.6230 N   0  0  0  0  0  0  0  0  0  0  0  0
   -0.7400   25.5715  -35.5677 H   0  0  0  0  0  0  0  0  0  0  0  0
    0.0980   26.0755  -37.0744 H   0  0  0  0  0  0  0  0  0  0  0  0
   -0.9495   24.6163  -37.0744 H   0  0  0  0  0  0  0  0  0  0  0  0
    2.4104   25.8936  -36.5918 H   0  0  0  0  0  0  0  0  0  0  0  0
    5.1054   24.6973  -34.9106 H   0  0  0  0  0  0  0  0  0  0  0  0
    5.3272   23.8228  -36.4639 H   0  0  0  0  0  0  0  0  0  0  0  0
    4.7228   25.5144  -36.4639 H   0  0  0  0  0  0  0  0  0  0  0  0
   -2.6543   20.2947  -33.5784 H   0  0  0  0  0  0  0  0  0  0  0  0
   -3.5708   20.7633  -31.3083 H   0  0  0  0  0  0  0  0  0  0  0  0
   -3.4536   22.3096  -27.7627 H   0  0  0  0  0  0  0  0  0  0  0  0
   -6.4204   25.3012  -32.5374 H   0  0  0  0  0  0  0  0  0  0  0  0
   -7.9096   23.2970  -32.8542 H   0  0  0  0  0  0  0  0  0  0  0  0
   -8.3161   17.7210  -31.5811 H   0  0  0  0  0  0  0  0  0  0  0  0
   -8.4260   18.5045  -33.2202 H   0  0  0  0  0  0  0  0  0  0  0  0
   -7.3991   15.9783  -32.7306 H   0  0  0  0  0  0  0  0  0  0  0  0
   -7.0393   17.0133  -34.1733 H   0  0  0  0  0  0  0  0  0  0  0  0
   -5.3984   16.8516  -31.6014 H   0  0  0  0  0  0  0  0  0  0  0  0
   -4.9641   16.1597  -33.2146 H   0  0  0  0  0  0  0  0  0  0  0  0
   -3.9905   18.5094  -32.4435 H   0  0  0  0  0  0  0  0  0  0  0  0
   -4.5392   18.2252  -34.1540 H   0  0  0  0  0  0  0  0  0  0  0  0
   -5.2856   20.3948  -32.7001 H   0  0  0  0  0  0  0  0  0  0  0  0
   -6.3124   19.6416  -33.9767 H   0  0  0  0  0  0  0  0  0  0  0  0
   -5.4347   21.0139  -30.0865 H   0  0  0  0  0  0  0  0  0  0  0  0
    0.4285   21.5705  -29.8619 H   0  0  0  0  0  0  0  0  0  0  0  0
    1.3413   21.1199  -32.1361 H   0  0  0  0  0  0  0  0  0  0  0  0
  1  2  1  0
  2  3  1  0
  3  4  2  0
  4  5  1  0
  4  6  1  0
  6  7  1  0
  7  8  2  3
  8  9  1  0
  9 10  2  0
  9 11  2  0
  9 12  1  0
 12 13  2  0
 13 14  1  0
 14 15  2  0
 15 16  1  0
 16 17  2  3
 17 18  1  0
 18 19  2  0
 19 20  1  0
 19 21  1  0
 21 22  1  0
 22 23  2  0
 23 24  1  0
 24 25  2  0
 25 26  1  0
 26 27  2  0
 26 28  2  0
 26 29  1  0
 29 30  1  0
 30 31  1  0
 31 32  1  0
 32 33  1  0
 33 34  1  0
 25 35  1  0
 35 36  2  0
 15 37  1  0
 37 38  2  0
  7 39  1  0
 39  2  2  0
 38 12  1  0
 36 18  1  0
 36 22  1  0
 34 29  1  0
  1 40  1  0
  1 41  1  0
  1 42  1  0
  3 43  1  0
  5 44  1  0
  5 45  1  0
  5 46  1  0
 13 47  1  0
 14 48  1  0
 17 49  1  0
 23 50  1  0
 24 51  1  0
 30 52  1  0
 30 53  1  0
 31 54  1  0
 31 55  1  0
 32 56  1  0
 32 57  1  0
 33 58  1  0
 33 59  1  0
 34 60  1  0
 34 61  1  0
 35 62  1  0
 37 63  1  0
 38 64  1  0
M  CHG  3   6  -1  20  -1  21  -1
M  END
>  <UniqueID>  (25) 
22

>  <SMILES>  (25) 
Cc1cc(C)[n-]c(=NS(=O)(=O)c2ccc(N=Cc3c([O-])[n-]c4ccc(S(=O)(=O)N5CCCCC5)cc34)cc2)n1

>  <Energy>  (25) 
117.56391918024707

>  <Genealogy>  (25) 
Cc1cc(C)[n-]c(=NS(=O)(=O)c2ccc(N=Cc3c([O-])[n-]c4ccc(S(=O)(=O)N5CCCCC5)cc34)cc2)n1 (protonated)
Cc1cc(C)[n-]c(=NS(=O)(=O)c2ccc(N=Cc3c([O-])[n-]c4ccc(S(=O)(=O)N5CCCCC5)cc34)cc2)n1 (3D coordinates assigned)
Cc1cc(C)[n-]c(=NS(=O)(=O)c2ccc(N=Cc3c([O-])[n-]c4ccc(S(=O)(=O)N5CCCCC5)cc34)cc2)n1 (nonaromatic ring conformer: 117.56391918024707 kcal/mol)

>  <smiles>  (25) 
Cc1cc(C)[nH]c(=NS(=O)(=O)c2ccc(N=Cc3c(O)[nH]c4ccc(S(=O)(=O)N5CCCCC5)cc34)cc2)n1

>  <score_type>  (25) 
oracle

>  <origin>  (25) 
adgpu

>  <m_score__min__energy>  (25) 
-16.98

>  <m_primary>  (25) 
energy

$$$$
26:0
     RDKit          3D

 59 63  0  0  0  0  0  0  0  0999 V2000
   -2.3140   24.7380  -27.7140 C   0  0  0  0  0  0  0  0  0  0  0  0
   -2.2230   23.6480  -28.7480 C   0  0  0  0  0  0  0  0  0  0  0  0
   -1.5250   22.4710  -28.4320 C   0  0  0  0  0  0  0  0  0  0  0  0
   -1.4340   21.4290  -29.3580 C   0  0  0  0  0  0  0  0  0  0  0  0
   -2.0350   21.5470  -30.6160 C   0  0  0  0  0  0  0  0  0  0  0  0
   -1.8710   20.2530  -31.8070 S   0  0  0  0  0  0  0  0  0  0  0  0
   -3.2250   19.6580  -32.0740 O   0  0  0  0  0  0  0  0  0  0  0  0
   -0.9920   19.1720  -31.2390 O   0  0  0  0  0  0  0  0  0  0  0  0
   -1.1860   20.8090  -33.3160 N   0  0  0  0  0  0  0  0  0  0  0  0
   -1.2420   19.7840  -34.3550 C   0  0  0  0  0  0  0  0  0  0  0  0
   -0.1330   20.1170  -35.3410 C   0  0  0  0  0  0  0  0  0  0  0  0
    0.8480   20.9790  -34.5640 C   0  0  0  0  0  0  0  0  0  0  0  0
    0.2290   21.1540  -33.1840 C   0  0  0  0  0  0  0  0  0  0  0  0
   -2.7460   22.7110  -30.9330 C   0  0  0  0  0  0  0  0  0  0  0  0
   -2.8090   23.7790  -30.0300 C   0  0  0  0  0  0  0  0  0  0  0  0
   -3.4810   24.9770  -30.4410 N   0  0  0  0  0  0  0  0  0  0  0  0
   -4.8820   25.0770  -30.7280 C   0  0  0  0  0  0  0  0  0  0  0  0
   -5.3930   26.2210  -30.8540 O   0  0  0  0  0  0  0  0  0  0  0  0
   -5.7450   23.8780  -30.8550 C   0  0  0  0  0  0  0  0  0  0  0  0
   -6.8440   23.6760  -29.9770 C   0  0  0  0  0  0  0  0  0  0  0  0
   -7.6590   22.5380  -30.0950 C   0  0  0  0  0  0  0  0  0  0  0  0
   -7.3710   21.6280  -31.1070 C   0  0  0  0  0  0  0  0  0  0  0  0
   -6.3210   21.8240  -31.9750 C   0  0  0  0  0  0  0  0  0  0  0  0
   -5.4930   22.9390  -31.8800 C   0  0  0  0  0  0  0  0  0  0  0  0
   -6.2960   20.6960  -32.9000 C   0  0  0  0  0  0  0  0  0  0  0  0
   -5.4500   20.5160  -33.8140 O   0  0  0  0  0  0  0  0  0  0  0  0
   -7.3740   19.8010  -32.6120 N   0  0  0  0  0  0  0  0  0  0  0  0
   -7.5240   18.4330  -33.1000 C   0  0  0  0  0  0  0  0  0  0  0  0
   -6.1790   17.8540  -33.4430 C   0  0  0  0  0  0  0  0  0  0  0  0
   -5.7220   17.8450  -34.7680 C   0  0  0  0  0  0  0  0  0  0  0  0
   -4.4850   17.2780  -35.0750 C   0  0  0  0  0  0  0  0  0  0  0  0
   -3.7170   16.7150  -34.0530 C   0  0  0  0  0  0  0  0  0  0  0  0
   -4.1780   16.7190  -32.7740 N   0  0  0  0  0  0  0  0  0  0  0  0
   -5.3810   17.2660  -32.4510 C   0  0  0  0  0  0  0  0  0  0  0  0
   -8.0240   20.3770  -31.4770 C   0  0  0  0  0  0  0  0  0  0  0  0
   -9.0070   19.8590  -30.8840 O   0  0  0  0  0  0  0  0  0  0  0  0
   -2.2769   24.2936  -26.7085 H   0  0  0  0  0  0  0  0  0  0  0  0
   -1.4708   25.4332  -27.8389 H   0  0  0  0  0  0  0  0  0  0  0  0
   -3.2608   25.2838  -27.8389 H   0  0  0  0  0  0  0  0  0  0  0  0
   -1.0459   22.3688  -27.4471 H   0  0  0  0  0  0  0  0  0  0  0  0
   -0.8871   20.5111  -29.0968 H   0  0  0  0  0  0  0  0  0  0  0  0
   -1.0768   18.7884  -33.9175 H   0  0  0  0  0  0  0  0  0  0  0  0
   -2.2249   19.7673  -34.8485 H   0  0  0  0  0  0  0  0  0  0  0  0
    0.3574   19.1979  -35.6943 H   0  0  0  0  0  0  0  0  0  0  0  0
   -0.5179   20.6347  -36.2320 H   0  0  0  0  0  0  0  0  0  0  0  0
    1.8239   20.4772  -34.4871 H   0  0  0  0  0  0  0  0  0  0  0  0
    1.0235   21.9456  -35.0587 H   0  0  0  0  0  0  0  0  0  0  0  0
    0.7174   20.4843  -32.4609 H   0  0  0  0  0  0  0  0  0  0  0  0
    0.3546   22.1843  -32.8198 H   0  0  0  0  0  0  0  0  0  0  0  0
   -3.2607   22.7871  -31.9022 H   0  0  0  0  0  0  0  0  0  0  0  0
   -7.0591   24.4197  -29.1956 H   0  0  0  0  0  0  0  0  0  0  0  0
   -8.5008   22.3712  -29.4069 H   0  0  0  0  0  0  0  0  0  0  0  0
   -4.6624   23.0854  -32.5861 H   0  0  0  0  0  0  0  0  0  0  0  0
   -7.9959   17.8183  -32.3193 H   0  0  0  0  0  0  0  0  0  0  0  0
   -8.1525   18.4406  -34.0027 H   0  0  0  0  0  0  0  0  0  0  0  0
   -6.3387   18.2850  -35.5656 H   0  0  0  0  0  0  0  0  0  0  0  0
   -4.1179   17.2743  -36.1119 H   0  0  0  0  0  0  0  0  0  0  0  0
   -2.7386   16.2681  -34.2832 H   0  0  0  0  0  0  0  0  0  0  0  0
   -5.7291   17.2470  -31.4077 H   0  0  0  0  0  0  0  0  0  0  0  0
  1  2  1  0
  2  3  2  0
  3  4  1  0
  4  5  2  0
  5  6  1  0
  6  7  2  0
  6  8  2  0
  6  9  1  0
  9 10  1  0
 10 11  1  0
 11 12  1  0
 12 13  1  0
  5 14  1  0
 14 15  2  0
 15 16  1  0
 16 17  1  0
 17 18  2  0
 17 19  1  0
 19 20  2  0
 20 21  1  0
 21 22  2  0
 22 23  1  0
 23 24  2  0
 23 25  1  0
 25 26  2  0
 25 27  1  0
 27 28  1  0
 28 29  1  0
 29 30  2  0
 30 31  1  0
 31 32  2  0
 32 33  1  0
 33 34  2  0
 27 35  1  0
 35 36  2  0
 15  2  1  0
 24 19  1  0
 34 29  1  0
 13  9  1  0
 35 22  1  0
  1 37  1  0
  1 38  1  0
  1 39  1  0
  3 40  1  0
  4 41  1  0
 10 42  1  0
 10 43  1  0
 11 44  1  0
 11 45  1  0
 12 46  1  0
 12 47  1  0
 13 48  1  0
 13 49  1  0
 14 50  1  0
 20 51  1  0
 21 52  1  0
 24 53  1  0
 28 54  1  0
 28 55  1  0
 30 56  1  0
 31 57  1  0
 32 58  1  0
 34 59  1  0
M  CHG  1  16  -1
M  END
>  <UniqueID>  (26) 
23

>  <SMILES>  (26) 
Cc1ccc(S(=O)(=O)N2CCCC2)cc1[N-]C(=O)c1ccc2c(c1)C(=O)N(Cc1cccnc1)C2=O

>  <Energy>  (26) 
104.24534271219758

>  <Genealogy>  (26) 
Cc1ccc(S(=O)(=O)N2CCCC2)cc1[N-]C(=O)c1ccc2c(c1)C(=O)N(Cc1cccnc1)C2=O (protonated)
Cc1ccc(S(=O)(=O)N2CCCC2)cc1[N-]C(=O)c1ccc2c(c1)C(=O)N(Cc1cccnc1)C2=O (3D coordinates assigned)
Cc1ccc(S(=O)(=O)N2CCCC2)cc1[N-]C(=O)c1ccc2c(c1)C(=O)N(Cc1cccnc1)C2=O (nonaromatic ring conformer: 104.24534271219758 kcal/mol)

>  <smiles>  (26) 
Cc1ccc(S(=O)(=O)N2CCCC2)cc1NC(=O)c1ccc2c(c1)C(=O)N(Cc1cccnc1)C2=O

>  <score_type>  (26) 
oracle

>  <origin>  (26) 
adgpu

>  <m_score__min__energy>  (26) 
-12.210000000000001

>  <m_primary>  (26) 
energy

$$$$
27:0
     RDKit          3D

 51 53  0  0  0  0  0  0  0  0999 V2000
   -1.2310   19.2700  -28.2280 C   0  0  0  0  0  0  0  0  0  0  0  0
   -1.8500   19.5970  -26.9410 N   0  0  0  0  0  0  0  0  0  0  0  0
   -2.4980   18.5400  -26.1670 C   0  0  0  0  0  0  0  0  0  0  0  0
   -1.5750   20.8660  -26.3190 C   0  0  0  0  0  0  0  0  0  0  0  0
   -1.2900   20.9050  -25.0910 O   0  0  0  0  0  0  0  0  0  0  0  0
   -1.6040   22.1250  -27.0930 C   0  0  0  0  0  0  0  0  0  0  0  0
   -0.4120   22.7420  -27.5000 C   0  0  0  0  0  0  0  0  0  0  0  0
   -0.4460   23.9200  -28.2480 C   0  0  0  0  0  0  0  0  0  0  0  0
   -1.6680   24.4980  -28.5970 C   0  0  0  0  0  0  0  0  0  0  0  0
   -1.6750   25.6750  -29.3400 O   0  0  0  0  0  0  0  0  0  0  0  0
   -2.8740   23.9000  -28.1910 C   0  0  0  0  0  0  0  0  0  0  0  0
   -4.1310   24.5210  -28.5160 N   0  0  0  0  0  0  0  0  0  0  0  0
   -4.7560   24.5480  -30.1340 S   0  0  0  0  0  0  0  0  0  0  0  0
   -6.2370   24.8010  -30.0990 O   0  0  0  0  0  0  0  0  0  0  0  0
   -4.0970   25.6660  -30.8940 O   0  0  0  0  0  0  0  0  0  0  0  0
   -4.4560   22.9840  -30.9190 C   0  0  0  0  0  0  0  0  0  0  0  0
   -3.1340   22.6530  -31.2520 C   0  0  0  0  0  0  0  0  0  0  0  0
   -2.8300   21.4230  -31.8240 C   0  0  0  0  0  0  0  0  0  0  0  0
   -3.8360   20.4950  -32.0770 C   0  0  0  0  0  0  0  0  0  0  0  0
   -5.1750   20.7850  -31.7530 C   0  0  0  0  0  0  0  0  0  0  0  0
   -6.2070   19.8500  -32.0200 C   0  0  0  0  0  0  0  0  0  0  0  0
   -5.9130   18.5510  -32.5660 N   0  0  0  0  0  0  0  0  0  0  0  0
   -6.1930   18.1770  -33.9250 C   0  0  0  0  0  0  0  0  0  0  0  0
   -6.3000   16.7900  -34.2590 N   0  0  0  0  0  0  0  0  0  0  0  0
   -6.2960   19.0750  -34.8600 N   0  0  0  0  0  0  0  0  0  0  0  0
   -7.5310   20.1730  -31.6990 C   0  0  0  0  0  0  0  0  0  0  0  0
   -7.8450   21.4030  -31.1330 C   0  0  0  0  0  0  0  0  0  0  0  0
   -6.8420   22.3350  -30.8720 C   0  0  0  0  0  0  0  0  0  0  0  0
   -5.4950   22.0480  -31.1740 C   0  0  0  0  0  0  0  0  0  0  0  0
   -2.8320   22.6980  -27.4600 C   0  0  0  0  0  0  0  0  0  0  0  0
   -0.2705   18.7626  -28.0545 H   0  0  0  0  0  0  0  0  0  0  0  0
   -1.8984   18.6068  -28.7979 H   0  0  0  0  0  0  0  0  0  0  0  0
   -1.0593   20.1951  -28.7979 H   0  0  0  0  0  0  0  0  0  0  0  0
   -2.3735   18.7431  -25.0931 H   0  0  0  0  0  0  0  0  0  0  0  0
   -3.5698   18.5101  -26.4127 H   0  0  0  0  0  0  0  0  0  0  0  0
   -2.0384   17.5713  -26.4127 H   0  0  0  0  0  0  0  0  0  0  0  0
    0.5555   22.2948  -27.2281 H   0  0  0  0  0  0  0  0  0  0  0  0
    0.4944   24.3952  -28.5640 H   0  0  0  0  0  0  0  0  0  0  0  0
   -4.7920   24.7810  -27.7500 H   0  0  0  0  0  0  0  0  0  0  0  0
   -2.3278   23.3758  -31.0580 H   0  0  0  0  0  0  0  0  0  0  0  0
   -1.7874   21.1815  -32.0784 H   0  0  0  0  0  0  0  0  0  0  0  0
   -3.5827   19.5270  -32.5339 H   0  0  0  0  0  0  0  0  0  0  0  0
   -5.5430   17.8160  -31.9220 H   0  0  0  0  0  0  0  0  0  0  0  0
   -6.1950   16.0580  -33.5210 H   0  0  0  0  0  0  0  0  0  0  0  0
   -6.4870   16.4870  -35.2380 H   0  0  0  0  0  0  0  0  0  0  0  0
   -6.4820   18.7950  -35.8490 H   0  0  0  0  0  0  0  0  0  0  0  0
   -6.1700   20.0910  -34.6630 H   0  0  0  0  0  0  0  0  0  0  0  0
   -8.3317   19.4452  -31.8970 H   0  0  0  0  0  0  0  0  0  0  0  0
   -8.8907   21.6422  -30.8897 H   0  0  0  0  0  0  0  0  0  0  0  0
   -7.1043   23.3054  -30.4254 H   0  0  0  0  0  0  0  0  0  0  0  0
   -3.7712   22.2023  -27.1732 H   0  0  0  0  0  0  0  0  0  0  0  0
  1  2  1  0
  2  3  1  0
  2  4  1  0
  4  5  2  0
  4  6  1  0
  6  7  2  0
  7  8  1  0
  8  9  2  0
  9 10  1  0
  9 11  1  0
 11 12  1  0
 12 13  1  0
 13 14  2  0
 13 15  2  0
 13 16  1  0
 16 17  2  0
 17 18  1  0
 18 19  2  0
 19 20  1  0
 20 21  2  0
 21 22  1  0
 22 23  1  0
 23 24  1  0
 23 25  2  0
 21 26  1  0
 26 27  2  0
 27 28  1  0
 28 29  2  0
 11 30  2  0
 30  6  1  0
 29 16  1  0
 29 20  1  0
  1 31  1  0
  1 32  1  0
  1 33  1  0
  3 34  1  0
  3 35  1  0
  3 36  1  0
  7 37  1  0
  8 38  1  0
 12 39  1  0
 17 40  1  0
 18 41  1  0
 19 42  1  0
 22 43  1  0
 24 44  1  0
 24 45  1  0
 25 46  1  0
 25 47  1  0
 26 48  1  0
 27 49  1  0
 28 50  1  0
 30 51  1  0
M  CHG  2  10  -1  25   1
M  END
>  <UniqueID>  (27) 
24

>  <SMILES>  (27) 
CN(C)C(=O)c1ccc([O-])c(NS(=O)(=O)c2cccc3c(NC(N)=[NH2+])cccc23)c1

>  <Energy>  (27) 
69.42588551611577

>  <Genealogy>  (27) 
CN(C)C(=O)c1ccc([O-])c(NS(=O)(=O)c2cccc3c(NC(N)=[NH2+])cccc23)c1 (protonated)
CN(C)C(=O)c1ccc([O-])c(NS(=O)(=O)c2cccc3c(NC(N)=[NH2+])cccc23)c1 (3D coordinates assigned)
CN(C)C(=O)c1ccc([O-])c(NS(=O)(=O)c2cccc3c(NC(N)=[NH2+])cccc23)c1 (optimized conformer: 69.42588551611577 kcal/mol)

>  <smiles>  (27) 
CN(C)C(=O)c1ccc(O)c(NS(=O)(=O)c2cccc3c(NC(=N)N)cccc23)c1

>  <score_type>  (27) 
oracle

>  <origin>  (27) 
adgpu

>  <m_score__min__energy>  (27) 
-13.619999999999999

>  <m_primary>  (27) 
energy

$$$$
28:0
     RDKit          3D

 29 31  0  0  0  0  0  0  0  0999 V2000
   -1.5010   21.8230  -30.2920 O   0  0  0  0  0  0  0  0  0  0  0  0
   -2.1750   22.8870  -30.2630 C   0  0  0  0  0  0  0  0  0  0  0  0
   -3.1310   23.1180  -31.3080 N   0  0  0  0  0  0  0  0  0  0  0  0
   -4.5210   23.4280  -31.1250 C   0  0  0  0  0  0  0  0  0  0  0  0
   -4.8610   24.7130  -30.6750 C   0  0  0  0  0  0  0  0  0  0  0  0
   -3.8670   25.6590  -30.4490 O   0  0  0  0  0  0  0  0  0  0  0  0
   -6.1930   25.0490  -30.4320 C   0  0  0  0  0  0  0  0  0  0  0  0
   -7.2050   24.1130  -30.6380 C   0  0  0  0  0  0  0  0  0  0  0  0
   -6.8970   22.8340  -31.1200 C   0  0  0  0  0  0  0  0  0  0  0  0
   -7.9220   21.9040  -31.3510 C   0  0  0  0  0  0  0  0  0  0  0  0
   -7.6230   20.6410  -31.8640 C   0  0  0  0  0  0  0  0  0  0  0  0
   -6.3040   20.3000  -32.1600 C   0  0  0  0  0  0  0  0  0  0  0  0
   -5.2710   21.2130  -31.9340 C   0  0  0  0  0  0  0  0  0  0  0  0
   -5.5470   22.4840  -31.3880 C   0  0  0  0  0  0  0  0  0  0  0  0
   -1.9420   23.8660  -29.1760 C   0  0  0  0  0  0  0  0  0  0  0  0
   -2.7490   23.8760  -28.0300 C   0  0  0  0  0  0  0  0  0  0  0  0
   -2.5010   24.8100  -27.0260 C   0  0  0  0  0  0  0  0  0  0  0  0
   -1.4470   25.7090  -27.1810 C   0  0  0  0  0  0  0  0  0  0  0  0
   -1.2000   26.5630  -26.2900 O   0  0  0  0  0  0  0  0  0  0  0  0
   -0.6840   25.6580  -28.3030 N   0  0  0  0  0  0  0  0  0  0  0  0
   -0.9230   24.7650  -29.2660 N   0  0  0  0  0  0  0  0  0  0  0  0
   -6.4461   26.0585  -30.0758 H   0  0  0  0  0  0  0  0  0  0  0  0
   -8.2500   24.3796  -30.4212 H   0  0  0  0  0  0  0  0  0  0  0  0
   -8.9652   22.1714  -31.1269 H   0  0  0  0  0  0  0  0  0  0  0  0
   -8.4297   19.9131  -32.0352 H   0  0  0  0  0  0  0  0  0  0  0  0
   -6.0754   19.3067  -32.5737 H   0  0  0  0  0  0  0  0  0  0  0  0
   -4.2353   20.9389  -32.1835 H   0  0  0  0  0  0  0  0  0  0  0  0
   -3.5710   23.1528  -27.9241 H   0  0  0  0  0  0  0  0  0  0  0  0
   -3.1287   24.8375  -26.1231 H   0  0  0  0  0  0  0  0  0  0  0  0
  1  2  2  0
  2  3  1  0
  3  4  1  0
  4  5  2  0
  5  6  1  0
  5  7  1  0
  7  8  2  0
  8  9  1  0
  9 10  2  0
 10 11  1  0
 11 12  2  0
 12 13  1  0
 13 14  2  0
  2 15  1  0
 15 16  1  0
 16 17  2  0
 17 18  1  0
 18 19  2  0
 18 20  1  0
 20 21  1  0
 14  4  1  0
 21 15  2  0
 14  9  1  0
  7 22  1  0
  8 23  1  0
 10 24  1  0
 11 25  1  0
 12 26  1  0
 13 27  1  0
 16 28  1  0
 17 29  1  0
M  CHG  3   3  -1   6  -1  20  -1
M  END
>  <UniqueID>  (28) 
25

>  <SMILES>  (28) 
O=C([N-]c1c([O-])ccc2ccccc12)c1ccc(=O)[n-]n1

>  <Energy>  (28) 
46.33020319964998

>  <Genealogy>  (28) 
O=C([N-]c1c([O-])ccc2ccccc12)c1ccc(=O)[n-]n1 (protonated)
O=C([N-]c1c([O-])ccc2ccccc12)c1ccc(=O)[n-]n1 (3D coordinates assigned)
O=C([N-]c1c([O-])ccc2ccccc12)c1ccc(=O)[n-]n1 (optimized conformer: 46.33020319964998 kcal/mol)

>  <smiles>  (28) 
O=C(Nc1c(O)ccc2ccccc12)c1ccc(=O)[nH]n1

>  <score_type>  (28) 
oracle

>  <origin>  (28) 
adgpu

>  <m_score__min__energy>  (28) 
-12.31

>  <m_primary>  (28) 
energy

$$$$
29:0
     RDKit          3D

 53 56  0  0  0  0  0  0  0  0999 V2000
    1.3430   19.2670  -27.8410 C   0  0  0  0  0  0  0  0  0  0  0  0
    0.1290   20.0940  -27.7470 N   0  0  0  0  0  0  0  0  0  0  0  0
   -1.0410   19.3310  -28.2160 C   0  0  0  0  0  0  0  0  0  0  0  0
   -2.3220   20.1080  -27.9010 C   0  0  0  0  0  0  0  0  0  0  0  0
   -2.2220   21.5480  -28.3300 C   0  0  0  0  0  0  0  0  0  0  0  0
   -3.3860   22.3270  -28.4080 C   0  0  0  0  0  0  0  0  0  0  0  0
   -3.3170   23.6750  -28.7770 C   0  0  0  0  0  0  0  0  0  0  0  0
   -4.5210   24.4380  -28.8740 N   0  0  0  0  0  0  0  0  0  0  0  0
   -5.2210   24.8280  -30.4120 S   0  0  0  0  0  0  0  0  0  0  0  0
   -4.2360   25.6380  -31.2110 O   0  0  0  0  0  0  0  0  0  0  0  0
   -6.4660   25.6430  -30.1960 O   0  0  0  0  0  0  0  0  0  0  0  0
   -5.6420   23.3380  -31.2610 C   0  0  0  0  0  0  0  0  0  0  0  0
   -4.6230   22.4360  -31.5980 C   0  0  0  0  0  0  0  0  0  0  0  0
   -4.9180   21.2600  -32.2990 C   0  0  0  0  0  0  0  0  0  0  0  0
   -3.6100   20.1630  -32.7270 S   0  0  0  0  0  0  0  0  0  0  0  0
   -4.0280   18.7370  -32.4920 O   0  0  0  0  0  0  0  0  0  0  0  0
   -3.2850   20.3410  -34.1840 O   0  0  0  0  0  0  0  0  0  0  0  0
   -2.2070   20.5460  -31.7630 N   0  0  0  0  0  0  0  0  0  0  0  0
   -1.3480   19.3750  -31.5770 C   0  0  0  0  0  0  0  0  0  0  0  0
    0.0860   19.8840  -31.4710 C   0  0  0  0  0  0  0  0  0  0  0  0
    0.0290   21.3490  -31.8740 C   0  0  0  0  0  0  0  0  0  0  0  0
   -1.3710   21.5500  -32.4180 C   0  0  0  0  0  0  0  0  0  0  0  0
   -6.2440   20.9700  -32.6430 C   0  0  0  0  0  0  0  0  0  0  0  0
   -7.2680   21.8500  -32.2840 C   0  0  0  0  0  0  0  0  0  0  0  0
   -6.9760   23.0310  -31.5930 C   0  0  0  0  0  0  0  0  0  0  0  0
   -8.0150   23.8840  -31.2400 O   0  0  0  0  0  0  0  0  0  0  0  0
   -2.0690   24.2660  -29.0200 C   0  0  0  0  0  0  0  0  0  0  0  0
   -1.9780   25.6170  -29.3320 O   0  0  0  0  0  0  0  0  0  0  0  0
   -0.9040   23.5000  -28.9310 C   0  0  0  0  0  0  0  0  0  0  0  0
   -0.9670   22.1460  -28.5740 C   0  0  0  0  0  0  0  0  0  0  0  0
    0.2950   21.3190  -28.5570 C   0  0  0  0  0  0  0  0  0  0  0  0
    1.7001   19.0237  -26.8294 H   0  0  0  0  0  0  0  0  0  0  0  0
    1.1124   18.3374  -28.3819 H   0  0  0  0  0  0  0  0  0  0  0  0
    2.1237   19.8219  -28.3819 H   0  0  0  0  0  0  0  0  0  0  0  0
   -0.9650   19.1757  -29.3023 H   0  0  0  0  0  0  0  0  0  0  0  0
   -1.0701   18.3571  -27.7054 H   0  0  0  0  0  0  0  0  0  0  0  0
   -3.1636   19.6365  -28.4296 H   0  0  0  0  0  0  0  0  0  0  0  0
   -2.4768   20.0854  -26.8122 H   0  0  0  0  0  0  0  0  0  0  0  0
   -4.3615   21.8742  -28.1771 H   0  0  0  0  0  0  0  0  0  0  0  0
   -3.5840   22.6536  -31.3097 H   0  0  0  0  0  0  0  0  0  0  0  0
   -1.6289   18.8433  -30.6559 H   0  0  0  0  0  0  0  0  0  0  0  0
   -1.4538   18.6739  -32.4180 H   0  0  0  0  0  0  0  0  0  0  0  0
    0.4542   19.7833  -30.4394 H   0  0  0  0  0  0  0  0  0  0  0  0
    0.7706   19.3108  -32.1135 H   0  0  0  0  0  0  0  0  0  0  0  0
    0.2021   21.9971  -31.0023 H   0  0  0  0  0  0  0  0  0  0  0  0
    0.8014   21.6050  -32.6142 H   0  0  0  0  0  0  0  0  0  0  0  0
   -1.7317   22.5616  -32.1801 H   0  0  0  0  0  0  0  0  0  0  0  0
   -1.3966   21.4430  -33.5125 H   0  0  0  0  0  0  0  0  0  0  0  0
   -6.4795   20.0488  -33.1962 H   0  0  0  0  0  0  0  0  0  0  0  0
   -8.3097   21.6130  -32.5461 H   0  0  0  0  0  0  0  0  0  0  0  0
    0.0709   23.9634  -29.1429 H   0  0  0  0  0  0  0  0  0  0  0  0
    0.5493   21.0337  -29.5885 H   0  0  0  0  0  0  0  0  0  0  0  0
    1.0975   21.9231  -28.1086 H   0  0  0  0  0  0  0  0  0  0  0  0
  1  2  1  0
  2  3  1  0
  3  4  1  0
  4  5  1  0
  5  6  2  0
  6  7  1  0
  7  8  1  0
  8  9  1  0
  9 10  2  0
  9 11  2  0
  9 12  1  0
 12 13  2  0
 13 14  1  0
 14 15  1  0
 15 16  2  0
 15 17  2  0
 15 18  1  0
 18 19  1  0
 19 20  1  0
 20 21  1  0
 21 22  1  0
 14 23  2  0
 23 24  1  0
 24 25  2  0
 25 26  1  0
  7 27  2  0
 27 28  1  0
 27 29  1  0
 29 30  2  0
 30 31  1  0
 31  2  1  0
 30  5  1  0
 25 12  1  0
 22 18  1  0
  1 32  1  0
  1 33  1  0
  1 34  1  0
  3 35  1  0
  3 36  1  0
  4 37  1  0
  4 38  1  0
  6 39  1  0
 13 40  1  0
 19 41  1  0
 19 42  1  0
 20 43  1  0
 20 44  1  0
 21 45  1  0
 21 46  1  0
 22 47  1  0
 22 48  1  0
 23 49  1  0
 24 50  1  0
 29 51  1  0
 31 52  1  0
 31 53  1  0
M  CHG  3   8  -1  26  -1  28  -1
M  END
>  <UniqueID>  (29) 
26

>  <SMILES>  (29) 
CN1CCc2cc([N-]S(=O)(=O)c3cc(S(=O)(=O)N4CCCC4)ccc3[O-])c([O-])cc2C1

>  <Energy>  (29) 
68.26751155060934

>  <Genealogy>  (29) 
CN1CCc2cc([N-]S(=O)(=O)c3cc(S(=O)(=O)N4CCCC4)ccc3[O-])c([O-])cc2C1 (protonated)
CN1CCc2cc([N-]S(=O)(=O)c3cc(S(=O)(=O)N4CCCC4)ccc3[O-])c([O-])cc2C1 (3D coordinates assigned)
CN1CCc2cc([N-]S(=O)(=O)c3cc(S(=O)(=O)N4CCCC4)ccc3[O-])c([O-])cc2C1 (nonaromatic ring conformer: 68.26751155060934 kcal/mol)

>  <smiles>  (29) 
CN1CCc2cc(NS(=O)(=O)c3cc(S(=O)(=O)N4CCCC4)ccc3O)c(O)cc2C1

>  <score_type>  (29) 
oracle

>  <origin>  (29) 
adgpu

>  <m_score__min__energy>  (29) 
-16.149999999999999

>  <m_primary>  (29) 
energy

$$$$
30:0
     RDKit          3D

 54 56  0  0  0  0  0  0  0  0999 V2000
   -2.7240   15.6420  -33.1020 C   0  0  0  0  0  0  0  0  0  0  0  0
   -4.0450   15.7430  -34.2860 S   0  0  0  0  0  0  0  0  0  0  0  0
   -3.5020   16.1740  -35.6190 O   0  0  0  0  0  0  0  0  0  0  0  0
   -4.6790   14.3880  -34.4370 O   0  0  0  0  0  0  0  0  0  0  0  0
   -5.2370   16.9130  -33.7270 C   0  0  0  0  0  0  0  0  0  0  0  0
   -5.8350   16.7780  -32.4670 C   0  0  0  0  0  0  0  0  0  0  0  0
   -6.7550   17.7300  -32.0210 C   0  0  0  0  0  0  0  0  0  0  0  0
   -7.0850   18.8370  -32.8240 C   0  0  0  0  0  0  0  0  0  0  0  0
   -8.0260   19.8760  -32.3420 C   0  0  0  0  0  0  0  0  0  0  0  0
   -9.1150   20.0500  -32.9490 O   0  0  0  0  0  0  0  0  0  0  0  0
   -7.7170   20.6790  -31.1910 N   0  0  0  0  0  0  0  0  0  0  0  0
   -8.3400   21.9820  -30.9590 C   0  0  0  0  0  0  0  0  0  0  0  0
   -7.7670   23.0380  -31.9120 C   0  0  0  0  0  0  0  0  0  0  0  0
   -6.4930   23.6420  -31.3770 C   0  0  0  0  0  0  0  0  0  0  0  0
   -6.4880   24.9510  -30.8720 C   0  0  0  0  0  0  0  0  0  0  0  0
   -5.3230   25.4870  -30.3180 C   0  0  0  0  0  0  0  0  0  0  0  0
   -4.1530   24.7280  -30.2660 C   0  0  0  0  0  0  0  0  0  0  0  0
   -3.0080   25.2920  -29.7150 O   0  0  0  0  0  0  0  0  0  0  0  0
   -4.1420   23.4150  -30.7750 C   0  0  0  0  0  0  0  0  0  0  0  0
   -2.6750   22.4270  -30.7470 S   0  0  0  0  0  0  0  0  0  0  0  0
   -2.9500   21.1810  -29.9510 O   0  0  0  0  0  0  0  0  0  0  0  0
   -1.5720   23.1710  -30.0490 O   0  0  0  0  0  0  0  0  0  0  0  0
   -2.1430   21.9710  -32.3520 N   0  0  0  0  0  0  0  0  0  0  0  0
   -3.2610   21.6020  -33.2410 C   0  0  0  0  0  0  0  0  0  0  0  0
   -3.7130   20.1310  -33.0770 C   0  0  0  0  0  0  0  0  0  0  0  0
   -2.8740   19.3860  -32.2160 O   0  0  0  0  0  0  0  0  0  0  0  0
   -1.5330   19.5430  -32.6130 C   0  0  0  0  0  0  0  0  0  0  0  0
   -1.0490   20.9770  -32.3330 C   0  0  0  0  0  0  0  0  0  0  0  0
   -5.3170   22.8790  -31.3230 C   0  0  0  0  0  0  0  0  0  0  0  0
   -6.4720   18.9710  -34.0830 C   0  0  0  0  0  0  0  0  0  0  0  0
   -5.5580   18.0140  -34.5340 C   0  0  0  0  0  0  0  0  0  0  0  0
   -3.1405   15.6738  -32.0844 H   0  0  0  0  0  0  0  0  0  0  0  0
   -2.1753   14.6993  -33.2443 H   0  0  0  0  0  0  0  0  0  0  0  0
   -2.0384   16.4903  -33.2443 H   0  0  0  0  0  0  0  0  0  0  0  0
   -5.5794   15.9203  -31.8275 H   0  0  0  0  0  0  0  0  0  0  0  0
   -7.2254   17.6130  -31.0335 H   0  0  0  0  0  0  0  0  0  0  0  0
   -6.9510   20.3830  -30.5450 H   0  0  0  0  0  0  0  0  0  0  0  0
   -9.4242   21.8977  -31.1243 H   0  0  0  0  0  0  0  0  0  0  0  0
   -8.1330   22.2921  -29.9241 H   0  0  0  0  0  0  0  0  0  0  0  0
   -7.5568   22.5651  -32.8827 H   0  0  0  0  0  0  0  0  0  0  0  0
   -8.5094   23.8428  -32.0171 H   0  0  0  0  0  0  0  0  0  0  0  0
   -7.4048   25.5574  -30.9125 H   0  0  0  0  0  0  0  0  0  0  0  0
   -5.3278   26.5127  -29.9207 H   0  0  0  0  0  0  0  0  0  0  0  0
   -4.1159   22.2570  -33.0173 H   0  0  0  0  0  0  0  0  0  0  0  0
   -2.9076   21.7210  -34.2759 H   0  0  0  0  0  0  0  0  0  0  0  0
   -4.7332   20.1219  -32.6659 H   0  0  0  0  0  0  0  0  0  0  0  0
   -3.6652   19.6603  -34.0700 H   0  0  0  0  0  0  0  0  0  0  0  0
   -0.9051   18.8339  -32.0536 H   0  0  0  0  0  0  0  0  0  0  0  0
   -1.4579   19.3481  -33.6930 H   0  0  0  0  0  0  0  0  0  0  0  0
   -0.5730   20.9988  -31.3415 H   0  0  0  0  0  0  0  0  0  0  0  0
   -0.3447   21.2482  -33.1333 H   0  0  0  0  0  0  0  0  0  0  0  0
   -5.3162   21.8508  -31.7140 H   0  0  0  0  0  0  0  0  0  0  0  0
   -6.7138   19.8360  -34.7180 H   0  0  0  0  0  0  0  0  0  0  0  0
   -5.0900   18.1248  -35.5233 H   0  0  0  0  0  0  0  0  0  0  0  0
  1  2  1  0
  2  3  2  0
  2  4  2  0
  2  5  1  0
  5  6  2  0
  6  7  1  0
  7  8  2  0
  8  9  1  0
  9 10  2  0
  9 11  1  0
 11 12  1  0
 12 13  1  0
 13 14  1  0
 14 15  2  0
 15 16  1  0
 16 17  2  0
 17 18  1  0
 17 19  1  0
 19 20  1  0
 20 21  2  0
 20 22  2  0
 20 23  1  0
 23 24  1  0
 24 25  1  0
 25 26  1  0
 26 27  1  0
 27 28  1  0
 19 29  2  0
  8 30  1  0
 30 31  2  0
 31  5  1  0
 29 14  1  0
 28 23  1  0
  1 32  1  0
  1 33  1  0
  1 34  1  0
  6 35  1  0
  7 36  1  0
 11 37  1  0
 12 38  1  0
 12 39  1  0
 13 40  1  0
 13 41  1  0
 15 42  1  0
 16 43  1  0
 24 44  1  0
 24 45  1  0
 25 46  1  0
 25 47  1  0
 27 48  1  0
 27 49  1  0
 28 50  1  0
 28 51  1  0
 29 52  1  0
 30 53  1  0
 31 54  1  0
M  CHG  1  18  -1
M  END
>  <UniqueID>  (30) 
27

>  <SMILES>  (30) 
CS(=O)(=O)c1ccc(C(=O)NCCc2ccc([O-])c(S(=O)(=O)N3CCOCC3)c2)cc1

>  <Energy>  (30) 
61.25542877637179

>  <Genealogy>  (30) 
CS(=O)(=O)c1ccc(C(=O)NCCc2ccc([O-])c(S(=O)(=O)N3CCOCC3)c2)cc1 (protonated)
CS(=O)(=O)c1ccc(C(=O)NCCc2ccc([O-])c(S(=O)(=O)N3CCOCC3)c2)cc1 (3D coordinates assigned)
CS(=O)(=O)c1ccc(C(=O)NCCc2ccc([O-])c(S(=O)(=O)N3CCOCC3)c2)cc1 (nonaromatic ring conformer: 61.25542877637179 kcal/mol)

>  <smiles>  (30) 
CS(=O)(=O)c1ccc(C(=O)NCCc2ccc(O)c(S(=O)(=O)N3CCOCC3)c2)cc1

>  <score_type>  (30) 
oracle

>  <origin>  (30) 
adgpu

>  <m_score__min__energy>  (30) 
-12.42

>  <m_primary>  (30) 
energy

$$$$
31:0
     RDKit          3D

 46 48  0  0  0  0  0  0  0  0999 V2000
   -1.6160   26.0030  -28.9550 N   0  0  0  0  0  0  0  0  0  0  0  0
   -1.0490   24.9660  -27.6940 S   0  0  0  0  0  0  0  0  0  0  0  0
    0.4310   24.7520  -27.8410 O   0  0  0  0  0  0  0  0  0  0  0  0
   -1.3160   25.6310  -26.3730 O   0  0  0  0  0  0  0  0  0  0  0  0
   -1.8830   23.4070  -27.7800 C   0  0  0  0  0  0  0  0  0  0  0  0
   -1.1480   22.2320  -27.5550 C   0  0  0  0  0  0  0  0  0  0  0  0
   -1.7760   20.9850  -27.5790 C   0  0  0  0  0  0  0  0  0  0  0  0
   -3.1440   20.8990  -27.8310 C   0  0  0  0  0  0  0  0  0  0  0  0
   -3.8880   22.0560  -28.0620 C   0  0  0  0  0  0  0  0  0  0  0  0
   -3.2740   23.3230  -28.0350 C   0  0  0  0  0  0  0  0  0  0  0  0
   -4.0540   24.5060  -28.2830 N   0  0  0  0  0  0  0  0  0  0  0  0
   -4.7780   24.8420  -29.8240 S   0  0  0  0  0  0  0  0  0  0  0  0
   -5.7910   25.9410  -29.6700 O   0  0  0  0  0  0  0  0  0  0  0  0
   -3.7120   25.2910  -30.7850 O   0  0  0  0  0  0  0  0  0  0  0  0
   -5.5960   23.4020  -30.4210 C   0  0  0  0  0  0  0  0  0  0  0  0
   -6.9540   23.1840  -30.1530 C   0  0  0  0  0  0  0  0  0  0  0  0
   -7.5970   22.0520  -30.6620 C   0  0  0  0  0  0  0  0  0  0  0  0
   -6.8880   21.1230  -31.4360 C   0  0  0  0  0  0  0  0  0  0  0  0
   -7.7040   19.6970  -32.0890 S   0  0  0  0  0  0  0  0  0  0  0  0
   -8.7010   20.1370  -33.1250 O   0  0  0  0  0  0  0  0  0  0  0  0
   -8.4570   19.0160  -30.9810 O   0  0  0  0  0  0  0  0  0  0  0  0
   -6.5990   18.5530  -32.8140 N   0  0  0  0  0  0  0  0  0  0  0  0
   -7.2300   17.2580  -33.0580 C   0  0  0  0  0  0  0  0  0  0  0  0
   -6.4540   16.6100  -34.1930 C   0  0  0  0  0  0  0  0  0  0  0  0
   -5.7280   17.7530  -34.8890 C   0  0  0  0  0  0  0  0  0  0  0  0
   -6.1180   19.0050  -34.1180 C   0  0  0  0  0  0  0  0  0  0  0  0
   -5.5300   21.3460  -31.7090 C   0  0  0  0  0  0  0  0  0  0  0  0
   -4.8870   22.4770  -31.2000 C   0  0  0  0  0  0  0  0  0  0  0  0
   -2.6580   25.9270  -28.9650 H   0  0  0  0  0  0  0  0  0  0  0  0
   -0.0676   22.2944  -27.3580 H   0  0  0  0  0  0  0  0  0  0  0  0
   -1.1912   20.0709  -27.3991 H   0  0  0  0  0  0  0  0  0  0  0  0
   -3.6382   19.9164  -27.8478 H   0  0  0  0  0  0  0  0  0  0  0  0
   -4.9658   21.9779  -28.2674 H   0  0  0  0  0  0  0  0  0  0  0  0
   -4.2910   25.1540  -27.5010 H   0  0  0  0  0  0  0  0  0  0  0  0
   -7.5153   23.9052  -29.5408 H   0  0  0  0  0  0  0  0  0  0  0  0
   -8.6649   21.8894  -30.4541 H   0  0  0  0  0  0  0  0  0  0  0  0
   -7.1765   16.6325  -32.1548 H   0  0  0  0  0  0  0  0  0  0  0  0
   -8.2927   17.3745  -33.3169 H   0  0  0  0  0  0  0  0  0  0  0  0
   -5.7327   15.8793  -33.7983 H   0  0  0  0  0  0  0  0  0  0  0  0
   -7.1154   16.0648  -34.8824 H   0  0  0  0  0  0  0  0  0  0  0  0
   -4.6395   17.5992  -34.8489 H   0  0  0  0  0  0  0  0  0  0  0  0
   -6.0004   17.8247  -35.9523 H   0  0  0  0  0  0  0  0  0  0  0  0
   -5.2453   19.6631  -33.9944 H   0  0  0  0  0  0  0  0  0  0  0  0
   -6.8908   19.5777  -34.6517 H   0  0  0  0  0  0  0  0  0  0  0  0
   -4.9697   20.6279  -32.3258 H   0  0  0  0  0  0  0  0  0  0  0  0
   -3.8202   22.6423  -31.4113 H   0  0  0  0  0  0  0  0  0  0  0  0
  1  2  1  0
  2  3  2  0
  2  4  2  0
  2  5  1  0
  5  6  2  0
  6  7  1  0
  7  8  2  0
  8  9  1  0
  9 10  2  0
 10 11  1  0
 11 12  1  0
 12 13  2  0
 12 14  2  0
 12 15  1  0
 15 16  2  0
 16 17  1  0
 17 18  2  0
 18 19  1  0
 19 20  2  0
 19 21  2  0
 19 22  1  0
 22 23  1  0
 23 24  1  0
 24 25  1  0
 25 26  1  0
 18 27  1  0
 27 28  2  0
 10  5  1  0
 28 15  1  0
 26 22  1  0
  1 29  1  0
  6 30  1  0
  7 31  1  0
  8 32  1  0
  9 33  1  0
 11 34  1  0
 16 35  1  0
 17 36  1  0
 23 37  1  0
 23 38  1  0
 24 39  1  0
 24 40  1  0
 25 41  1  0
 25 42  1  0
 26 43  1  0
 26 44  1  0
 27 45  1  0
 28 46  1  0
M  CHG  1   1  -1
M  END
>  <UniqueID>  (31) 
28

>  <SMILES>  (31) 
[NH-]S(=O)(=O)c1ccccc1NS(=O)(=O)c1ccc(S(=O)(=O)N2CCCC2)cc1

>  <Energy>  (31) 
52.46825512387699

>  <Genealogy>  (31) 
[NH-]S(=O)(=O)c1ccccc1NS(=O)(=O)c1ccc(S(=O)(=O)N2CCCC2)cc1 (protonated)
[NH-]S(=O)(=O)c1ccccc1NS(=O)(=O)c1ccc(S(=O)(=O)N2CCCC2)cc1 (3D coordinates assigned)
[NH-]S(=O)(=O)c1ccccc1NS(=O)(=O)c1ccc(S(=O)(=O)N2CCCC2)cc1 (nonaromatic ring conformer: 52.46825512387699 kcal/mol)

>  <smiles>  (31) 
NS(=O)(=O)c1ccccc1NS(=O)(=O)c1ccc(S(=O)(=O)N2CCCC2)cc1

>  <score_type>  (31) 
oracle

>  <origin>  (31) 
adgpu

>  <m_score__min__energy>  (31) 
-13.220000000000001

>  <m_primary>  (31) 
energy

$$$$
32:0
     RDKit          3D

 73 77  0  0  0  0  0  0  0  0999 V2000
   -8.3500   22.1490  -30.7090 C   0  0  0  0  0  0  0  0  0  0  0  0
   -7.1590   23.0590  -30.6410 C   0  0  0  0  0  0  0  0  0  0  0  0
   -7.3340   24.4360  -30.4480 C   0  0  0  0  0  0  0  0  0  0  0  0
   -6.2300   25.2910  -30.4340 C   0  0  0  0  0  0  0  0  0  0  0  0
   -4.9410   24.7820  -30.6200 C   0  0  0  0  0  0  0  0  0  0  0  0
   -3.8630   25.6600  -30.6470 O   0  0  0  0  0  0  0  0  0  0  0  0
   -4.7500   23.3980  -30.8010 C   0  0  0  0  0  0  0  0  0  0  0  0
   -3.3980   22.8290  -30.9890 C   0  0  0  0  0  0  0  0  0  0  0  0
   -3.0290   22.0050  -32.0330 C   0  0  0  0  0  0  0  0  0  0  0  0
   -1.6700   21.8170  -31.8560 C   0  0  0  0  0  0  0  0  0  0  0  0
   -0.7700   21.0400  -32.7240 C   0  0  0  0  0  0  0  0  0  0  0  0
    0.0060   20.1940  -32.2020 O   0  0  0  0  0  0  0  0  0  0  0  0
   -0.7830   21.2190  -34.1480 N   0  0  0  0  0  0  0  0  0  0  0  0
    0.2040   20.6260  -35.0040 C   0  0  0  0  0  0  0  0  0  0  0  0
    0.2300   19.2320  -35.1390 C   0  0  0  0  0  0  0  0  0  0  0  0
    1.1900   18.6090  -35.9450 C   0  0  0  0  0  0  0  0  0  0  0  0
    1.2050   16.8530  -36.0860 S   0  0  0  0  0  0  0  0  0  0  0  0
    1.7050   16.2740  -34.7910 O   0  0  0  0  0  0  0  0  0  0  0  0
    2.1380   16.4380  -37.1900 O   0  0  0  0  0  0  0  0  0  0  0  0
   -0.4190   16.2910  -36.4170 N   0  0  0  0  0  0  0  0  0  0  0  0
   -0.4390   14.8660  -36.8380 C   0  0  0  0  0  0  0  0  0  0  0  0
   -1.2240   13.9420  -35.8900 C   0  0  0  0  0  0  0  0  0  0  0  0
   -0.8810   14.2530  -34.4350 C   0  0  0  0  0  0  0  0  0  0  0  0
   -1.1540   15.7250  -34.0800 C   0  0  0  0  0  0  0  0  0  0  0  0
   -1.3480   16.6220  -35.3180 C   0  0  0  0  0  0  0  0  0  0  0  0
    2.1200   19.3900  -36.6410 C   0  0  0  0  0  0  0  0  0  0  0  0
    2.0850   20.7830  -36.5380 C   0  0  0  0  0  0  0  0  0  0  0  0
    1.1190   21.4160  -35.7400 C   0  0  0  0  0  0  0  0  0  0  0  0
    1.0870   22.9200  -35.6910 C   0  0  0  0  0  0  0  0  0  0  0  0
   -1.2530   22.4830  -30.7620 N   0  0  0  0  0  0  0  0  0  0  0  0
   -2.3050   23.0900  -30.2310 N   0  0  0  0  0  0  0  0  0  0  0  0
   -2.2330   23.8380  -29.0050 C   0  0  0  0  0  0  0  0  0  0  0  0
   -3.1720   23.6380  -27.9830 C   0  0  0  0  0  0  0  0  0  0  0  0
   -3.0900   24.3650  -26.7950 C   0  0  0  0  0  0  0  0  0  0  0  0
   -2.0600   25.2990  -26.5990 C   0  0  0  0  0  0  0  0  0  0  0  0
   -1.9970   26.0670  -25.3040 C   0  0  0  0  0  0  0  0  0  0  0  0
   -1.0980   25.4950  -27.6170 C   0  0  0  0  0  0  0  0  0  0  0  0
    0.0310   26.4780  -27.4460 C   0  0  0  0  0  0  0  0  0  0  0  0
   -1.1900   24.7530  -28.8070 C   0  0  0  0  0  0  0  0  0  0  0  0
   -5.8670   22.5470  -30.8370 C   0  0  0  0  0  0  0  0  0  0  0  0
   -8.6784   21.8981  -29.6896 H   0  0  0  0  0  0  0  0  0  0  0  0
   -9.1677   22.6546  -31.2436 H   0  0  0  0  0  0  0  0  0  0  0  0
   -8.0771   21.2272  -31.2436 H   0  0  0  0  0  0  0  0  0  0  0  0
   -8.3453   24.8451  -30.3069 H   0  0  0  0  0  0  0  0  0  0  0  0
   -6.3751   26.3699  -30.2759 H   0  0  0  0  0  0  0  0  0  0  0  0
   -3.6700   21.5917  -32.8257 H   0  0  0  0  0  0  0  0  0  0  0  0
   -1.6390   21.6160  -34.5950 H   0  0  0  0  0  0  0  0  0  0  0  0
   -0.5123   18.6200  -34.6056 H   0  0  0  0  0  0  0  0  0  0  0  0
   -0.8976   14.8070  -37.8361 H   0  0  0  0  0  0  0  0  0  0  0  0
    0.6044   14.5177  -36.8287 H   0  0  0  0  0  0  0  0  0  0  0  0
   -2.3021   14.0928  -36.0480 H   0  0  0  0  0  0  0  0  0  0  0  0
   -0.9518   12.8980  -36.1044 H   0  0  0  0  0  0  0  0  0  0  0  0
   -1.4903   13.6113  -33.7816 H   0  0  0  0  0  0  0  0  0  0  0  0
    0.1928   14.0625  -34.2910 H   0  0  0  0  0  0  0  0  0  0  0  0
   -2.0659   15.7734  -33.4668 H   0  0  0  0  0  0  0  0  0  0  0  0
   -0.2723   16.0999  -33.5395 H   0  0  0  0  0  0  0  0  0  0  0  0
   -2.3792   16.5010  -35.6813 H   0  0  0  0  0  0  0  0  0  0  0  0
   -1.1417   17.6580  -35.0113 H   0  0  0  0  0  0  0  0  0  0  0  0
    2.8807   18.9057  -37.2709 H   0  0  0  0  0  0  0  0  0  0  0  0
    2.8208   21.3889  -37.0870 H   0  0  0  0  0  0  0  0  0  0  0  0
    1.0799   23.2526  -34.6425 H   0  0  0  0  0  0  0  0  0  0  0  0
    1.9768   23.3224  -36.1973 H   0  0  0  0  0  0  0  0  0  0  0  0
    0.1809   23.2842  -36.1973 H   0  0  0  0  0  0  0  0  0  0  0  0
   -3.9789   22.9028  -28.1188 H   0  0  0  0  0  0  0  0  0  0  0  0
   -3.8387   24.2051  -26.0051 H   0  0  0  0  0  0  0  0  0  0  0  0
   -2.0545   25.3656  -24.4586 H   0  0  0  0  0  0  0  0  0  0  0  0
   -1.0501   26.6246  -25.2541 H   0  0  0  0  0  0  0  0  0  0  0  0
   -2.8404   26.7714  -25.2541 H   0  0  0  0  0  0  0  0  0  0  0  0
    0.2170   26.6399  -26.3740 H   0  0  0  0  0  0  0  0  0  0  0  0
    0.9399   26.0785  -27.9196 H   0  0  0  0  0  0  0  0  0  0  0  0
   -0.2396   27.4332  -27.9196 H   0  0  0  0  0  0  0  0  0  0  0  0
   -0.4335   24.8922  -29.5933 H   0  0  0  0  0  0  0  0  0  0  0  0
   -5.7281   21.4713  -31.0202 H   0  0  0  0  0  0  0  0  0  0  0  0
  1  2  1  0
  2  3  2  0
  3  4  1  0
  4  5  2  0
  5  6  1  0
  5  7  1  0
  7  8  1  0
  8  9  2  0
  9 10  1  0
 10 11  1  0
 11 12  2  0
 11 13  1  0
 13 14  1  0
 14 15  2  0
 15 16  1  0
 16 17  1  0
 17 18  2  0
 17 19  2  0
 17 20  1  0
 20 21  1  0
 21 22  1  0
 22 23  1  0
 23 24  1  0
 24 25  1  0
 16 26  2  0
 26 27  1  0
 27 28  2  0
 28 29  1  0
 10 30  2  0
 30 31  1  0
 31 32  1  0
 32 33  2  0
 33 34  1  0
 34 35  2  0
 35 36  1  0
 35 37  1  0
 37 38  1  0
 37 39  2  0
  7 40  2  0
 40  2  1  0
 31  8  1  0
 39 32  1  0
 28 14  1  0
 25 20  1  0
  1 41  1  0
  1 42  1  0
  1 43  1  0
  3 44  1  0
  4 45  1  0
  9 46  1  0
 13 47  1  0
 15 48  1  0
 21 49  1  0
 21 50  1  0
 22 51  1  0
 22 52  1  0
 23 53  1  0
 23 54  1  0
 24 55  1  0
 24 56  1  0
 25 57  1  0
 25 58  1  0
 26 59  1  0
 27 60  1  0
 29 61  1  0
 29 62  1  0
 29 63  1  0
 33 64  1  0
 34 65  1  0
 36 66  1  0
 36 67  1  0
 36 68  1  0
 38 69  1  0
 38 70  1  0
 38 71  1  0
 39 72  1  0
 40 73  1  0
M  CHG  1   6  -1
M  END
>  <UniqueID>  (32) 
29

>  <SMILES>  (32) 
Cc1ccc([O-])c(-c2cc(C(=O)Nc3cc(S(=O)(=O)N4CCCCC4)ccc3C)nn2-c2ccc(C)c(C)c2)c1

>  <Energy>  (32) 
129.48724611554982

>  <Genealogy>  (32) 
Cc1ccc([O-])c(-c2cc(C(=O)Nc3cc(S(=O)(=O)N4CCCCC4)ccc3C)nn2-c2ccc(C)c(C)c2)c1 (protonated)
Cc1ccc([O-])c(-c2cc(C(=O)Nc3cc(S(=O)(=O)N4CCCCC4)ccc3C)nn2-c2ccc(C)c(C)c2)c1 (3D coordinates assigned)
Cc1ccc([O-])c(-c2cc(C(=O)Nc3cc(S(=O)(=O)N4CCCCC4)ccc3C)nn2-c2ccc(C)c(C)c2)c1 (nonaromatic ring conformer: 129.48724611554982 kcal/mol)

>  <smiles>  (32) 
Cc1ccc(O)c(-c2cc(C(=O)Nc3cc(S(=O)(=O)N4CCCCC4)ccc3C)nn2-c2ccc(C)c(C)c2)c1

>  <score_type>  (32) 
oracle

>  <origin>  (32) 
adgpu

>  <m_score__min__energy>  (32) 
-12.800000000000001

>  <m_primary>  (32) 
energy

$$$$
33:0
     RDKit          3D

 51 54  0  0  0  0  0  0  0  0999 V2000
   -1.9590   25.5120  -28.8630 O   0  0  0  0  0  0  0  0  0  0  0  0
   -2.5560   24.5740  -29.4550 C   0  0  0  0  0  0  0  0  0  0  0  0
   -3.4990   24.9050  -30.4840 N   0  0  0  0  0  0  0  0  0  0  0  0
   -4.6740   24.1530  -30.8230 C   0  0  0  0  0  0  0  0  0  0  0  0
   -4.5280   22.9460  -31.5180 C   0  0  0  0  0  0  0  0  0  0  0  0
   -5.6500   22.1830  -31.8520 C   0  0  0  0  0  0  0  0  0  0  0  0
   -6.9280   22.6130  -31.4770 C   0  0  0  0  0  0  0  0  0  0  0  0
   -8.3690   21.6370  -31.9090 S   0  0  0  0  0  0  0  0  0  0  0  0
   -7.3840   20.2040  -32.3370 C   0  0  0  0  0  0  0  0  0  0  0  0
   -6.8980   20.0440  -33.6350 C   0  0  0  0  0  0  0  0  0  0  0  0
   -6.1320   18.9150  -33.9220 C   0  0  0  0  0  0  0  0  0  0  0  0
   -5.8760   18.0040  -32.9470 N   0  0  0  0  0  0  0  0  0  0  0  0
   -6.3550   18.1780  -31.6880 C   0  0  0  0  0  0  0  0  0  0  0  0
   -7.1040   19.2710  -31.3900 N   0  0  0  0  0  0  0  0  0  0  0  0
   -7.0800   23.8080  -30.7650 C   0  0  0  0  0  0  0  0  0  0  0  0
   -5.9580   24.5720  -30.4300 C   0  0  0  0  0  0  0  0  0  0  0  0
   -2.3020   23.1720  -29.0420 C   0  0  0  0  0  0  0  0  0  0  0  0
   -2.8670   22.6560  -27.8630 C   0  0  0  0  0  0  0  0  0  0  0  0
   -2.6200   21.3370  -27.4800 C   0  0  0  0  0  0  0  0  0  0  0  0
   -1.7940   20.5160  -28.2590 C   0  0  0  0  0  0  0  0  0  0  0  0
   -1.5550   19.1980  -27.8700 O   0  0  0  0  0  0  0  0  0  0  0  0
   -1.2050   21.0260  -29.4280 C   0  0  0  0  0  0  0  0  0  0  0  0
   -0.1410   20.0100  -30.4030 S   0  0  0  0  0  0  0  0  0  0  0  0
   -0.7620   18.6530  -30.6020 O   0  0  0  0  0  0  0  0  0  0  0  0
    1.1650   19.8460  -29.6800 O   0  0  0  0  0  0  0  0  0  0  0  0
    0.1310   20.7660  -31.9530 N   0  0  0  0  0  0  0  0  0  0  0  0
    1.1830   20.0440  -32.6900 C   0  0  0  0  0  0  0  0  0  0  0  0
    1.2240   20.4870  -34.1660 C   0  0  0  0  0  0  0  0  0  0  0  0
    0.5050   21.6920  -34.3490 O   0  0  0  0  0  0  0  0  0  0  0  0
   -0.8730   21.4700  -34.0940 C   0  0  0  0  0  0  0  0  0  0  0  0
   -1.1170   20.7860  -32.7330 C   0  0  0  0  0  0  0  0  0  0  0  0
   -1.4620   22.3510  -29.8130 C   0  0  0  0  0  0  0  0  0  0  0  0
   -3.5245   22.5966  -31.8026 H   0  0  0  0  0  0  0  0  0  0  0  0
   -5.5286   21.2431  -32.4104 H   0  0  0  0  0  0  0  0  0  0  0  0
   -7.1140   20.7907  -34.4133 H   0  0  0  0  0  0  0  0  0  0  0  0
   -5.7354   18.7620  -34.9365 H   0  0  0  0  0  0  0  0  0  0  0  0
   -6.1361   17.4329  -30.9090 H   0  0  0  0  0  0  0  0  0  0  0  0
   -8.0836   24.1468  -30.4684 H   0  0  0  0  0  0  0  0  0  0  0  0
   -6.0797   25.5034  -29.8575 H   0  0  0  0  0  0  0  0  0  0  0  0
   -3.5078   23.2957  -27.2384 H   0  0  0  0  0  0  0  0  0  0  0  0
   -3.0763   20.9396  -26.5614 H   0  0  0  0  0  0  0  0  0  0  0  0
   -1.0060   18.5680  -28.4430 H   0  0  0  0  0  0  0  0  0  0  0  0
    2.1573   20.2531  -32.2241 H   0  0  0  0  0  0  0  0  0  0  0  0
    0.9622   18.9670  -32.6525 H   0  0  0  0  0  0  0  0  0  0  0  0
    2.2706   20.6422  -34.4670 H   0  0  0  0  0  0  0  0  0  0  0  0
    0.7606   19.7027  -34.7826 H   0  0  0  0  0  0  0  0  0  0  0  0
   -1.3940   22.4388  -34.1008 H   0  0  0  0  0  0  0  0  0  0  0  0
   -1.2555   20.8008  -34.8788 H   0  0  0  0  0  0  0  0  0  0  0  0
   -1.8858   21.3428  -32.1773 H   0  0  0  0  0  0  0  0  0  0  0  0
   -1.4559   19.7532  -32.9017 H   0  0  0  0  0  0  0  0  0  0  0  0
   -1.0009   22.7509  -30.7281 H   0  0  0  0  0  0  0  0  0  0  0  0
  1  2  2  0
  2  3  1  0
  3  4  1  0
  4  5  2  0
  5  6  1  0
  6  7  2  0
  7  8  1  0
  8  9  1  0
  9 10  2  0
 10 11  1  0
 11 12  2  0
 12 13  1  0
 13 14  2  0
  7 15  1  0
 15 16  2  0
  2 17  1  0
 17 18  2  0
 18 19  1  0
 19 20  2  0
 20 21  1  0
 20 22  1  0
 22 23  1  0
 23 24  2  0
 23 25  2  0
 23 26  1  0
 26 27  1  0
 27 28  1  0
 28 29  1  0
 29 30  1  0
 30 31  1  0
 22 32  2  0
 16  4  1  0
 32 17  1  0
 14  9  1  0
 31 26  1  0
  5 33  1  0
  6 34  1  0
 10 35  1  0
 11 36  1  0
 13 37  1  0
 15 38  1  0
 16 39  1  0
 18 40  1  0
 19 41  1  0
 21 42  1  0
 27 43  1  0
 27 44  1  0
 28 45  1  0
 28 46  1  0
 30 47  1  0
 30 48  1  0
 31 49  1  0
 31 50  1  0
 32 51  1  0
M  CHG  1   3  -1
M  END
>  <UniqueID>  (33) 
30

>  <SMILES>  (33) 
O=C([N-]c1ccc(Sc2ccncn2)cc1)c1ccc(O)c(S(=O)(=O)N2CCOCC2)c1

>  <Energy>  (33) 
65.73985137225392

>  <Genealogy>  (33) 
O=C([N-]c1ccc(Sc2ccncn2)cc1)c1ccc(O)c(S(=O)(=O)N2CCOCC2)c1 (protonated)
O=C([N-]c1ccc(Sc2ccncn2)cc1)c1ccc(O)c(S(=O)(=O)N2CCOCC2)c1 (3D coordinates assigned)
O=C([N-]c1ccc(Sc2ccncn2)cc1)c1ccc(O)c(S(=O)(=O)N2CCOCC2)c1 (nonaromatic ring conformer: 65.73985137225392 kcal/mol)

>  <smiles>  (33) 
O=C(Nc1ccc(Sc2ccncn2)cc1)c1ccc(O)c(S(=O)(=O)N2CCOCC2)c1

>  <score_type>  (33) 
oracle

>  <origin>  (33) 
adgpu

>  <m_score__min__energy>  (33) 
-10.789999999999999

>  <m_primary>  (33) 
energy

$$$$
34:0
     RDKit          3D

 59 62  0  0  0  0  0  0  0  0999 V2000
   -0.5660   26.6870  -25.8230 C   0  0  0  0  0  0  0  0  0  0  0  0
    0.0410   26.1200  -26.9800 O   0  0  0  0  0  0  0  0  0  0  0  0
   -0.5890   25.2130  -27.8470 C   0  0  0  0  0  0  0  0  0  0  0  0
   -1.9460   25.3320  -28.1950 C   0  0  0  0  0  0  0  0  0  0  0  0
   -2.5560   24.4060  -29.0550 C   0  0  0  0  0  0  0  0  0  0  0  0
   -4.0210   24.5810  -29.3850 C   0  0  0  0  0  0  0  0  0  0  0  0
   -4.1670   25.3510  -30.5470 O   0  0  0  0  0  0  0  0  0  0  0  0
   -1.7840   23.3520  -29.6000 C   0  0  0  0  0  0  0  0  0  0  0  0
   -2.3610   22.3700  -30.5440 C   0  0  0  0  0  0  0  0  0  0  0  0
   -2.9800   22.8090  -31.6750 N   0  0  0  0  0  0  0  0  0  0  0  0
   -3.5280   21.9530  -32.5780 C   0  0  0  0  0  0  0  0  0  0  0  0
   -3.4560   20.5690  -32.3690 C   0  0  0  0  0  0  0  0  0  0  0  0
   -4.0820   19.6330  -33.3240 C   0  0  0  0  0  0  0  0  0  0  0  0
   -5.4810   19.6810  -33.4590 C   0  0  0  0  0  0  0  0  0  0  0  0
   -6.1500   18.7520  -34.2550 C   0  0  0  0  0  0  0  0  0  0  0  0
   -5.4330   17.7560  -34.9130 C   0  0  0  0  0  0  0  0  0  0  0  0
   -4.0430   17.7020  -34.8010 C   0  0  0  0  0  0  0  0  0  0  0  0
   -3.3390   18.6570  -34.0450 C   0  0  0  0  0  0  0  0  0  0  0  0
   -1.5530   18.5820  -33.9880 S   0  0  0  0  0  0  0  0  0  0  0  0
   -1.1050   18.2100  -32.6020 O   0  0  0  0  0  0  0  0  0  0  0  0
   -1.0970   17.5080  -34.9360 O   0  0  0  0  0  0  0  0  0  0  0  0
   -0.7480   20.0880  -34.3690 N   0  0  0  0  0  0  0  0  0  0  0  0
    0.2170   20.4930  -33.3290 C   0  0  0  0  0  0  0  0  0  0  0  0
    1.2000   21.5470  -33.8680 C   0  0  0  0  0  0  0  0  0  0  0  0
    0.5940   22.2950  -34.9020 O   0  0  0  0  0  0  0  0  0  0  0  0
    0.4020   21.4810  -36.0490 C   0  0  0  0  0  0  0  0  0  0  0  0
   -0.1610   20.0810  -35.7170 C   0  0  0  0  0  0  0  0  0  0  0  0
   -2.8360   20.0940  -31.2060 C   0  0  0  0  0  0  0  0  0  0  0  0
   -2.2770   20.9910  -30.2950 C   0  0  0  0  0  0  0  0  0  0  0  0
   -1.6920   20.5190  -29.1640 F   0  0  0  0  0  0  0  0  0  0  0  0
   -0.4300   23.2390  -29.2480 C   0  0  0  0  0  0  0  0  0  0  0  0
    0.1710   24.1630  -28.3750 C   0  0  0  0  0  0  0  0  0  0  0  0
    1.5260   24.0730  -28.0120 O   0  0  0  0  0  0  0  0  0  0  0  0
    1.9990   23.9760  -26.6730 C   0  0  0  0  0  0  0  0  0  0  0  0
   -0.1066   26.2579  -24.9203 H   0  0  0  0  0  0  0  0  0  0  0  0
   -0.4170   27.7769  -25.8276 H   0  0  0  0  0  0  0  0  0  0  0  0
   -1.6432   26.4642  -25.8276 H   0  0  0  0  0  0  0  0  0  0  0  0
   -2.5387   26.1639  -27.7868 H   0  0  0  0  0  0  0  0  0  0  0  0
   -4.4781   23.5932  -29.5439 H   0  0  0  0  0  0  0  0  0  0  0  0
   -4.5182   25.0949  -28.5491 H   0  0  0  0  0  0  0  0  0  0  0  0
   -3.6000   24.9260  -31.2410 H   0  0  0  0  0  0  0  0  0  0  0  0
   -4.0289   22.3474  -33.4744 H   0  0  0  0  0  0  0  0  0  0  0  0
   -6.0529   20.4587  -32.9317 H   0  0  0  0  0  0  0  0  0  0  0  0
   -7.2433   18.8059  -34.3631 H   0  0  0  0  0  0  0  0  0  0  0  0
   -5.9636   17.0098  -35.5227 H   0  0  0  0  0  0  0  0  0  0  0  0
   -3.4893   16.9004  -35.3117 H   0  0  0  0  0  0  0  0  0  0  0  0
   -0.3316   20.9166  -32.4748 H   0  0  0  0  0  0  0  0  0  0  0  0
    0.7897   19.6066  -33.0185 H   0  0  0  0  0  0  0  0  0  0  0  0
    1.4902   22.2245  -33.0514 H   0  0  0  0  0  0  0  0  0  0  0  0
    2.0895   21.0376  -34.2671 H   0  0  0  0  0  0  0  0  0  0  0  0
   -0.3020   21.9894  -36.7242 H   0  0  0  0  0  0  0  0  0  0  0  0
    1.3883   21.3340  -36.5133 H   0  0  0  0  0  0  0  0  0  0  0  0
   -0.9356   19.8152  -36.4514 H   0  0  0  0  0  0  0  0  0  0  0  0
    0.6539   19.3431  -35.7548 H   0  0  0  0  0  0  0  0  0  0  0  0
   -2.7898   19.0125  -31.0107 H   0  0  0  0  0  0  0  0  0  0  0  0
    0.1701   22.4150  -29.6614 H   0  0  0  0  0  0  0  0  0  0  0  0
    1.1651   24.1470  -25.9763 H   0  0  0  0  0  0  0  0  0  0  0  0
    2.4183   22.9732  -26.5040 H   0  0  0  0  0  0  0  0  0  0  0  0
    2.7791   24.7329  -26.5040 H   0  0  0  0  0  0  0  0  0  0  0  0
  1  2  1  0
  2  3  1  0
  3  4  2  0
  4  5  1  0
  5  6  1  0
  6  7  1  0
  5  8  2  0
  8  9  1  0
  9 10  2  0
 10 11  1  0
 11 12  2  0
 12 13  1  0
 13 14  2  0
 14 15  1  0
 15 16  2  0
 16 17  1  0
 17 18  2  0
 18 19  1  0
 19 20  2  0
 19 21  2  0
 19 22  1  0
 22 23  1  0
 23 24  1  0
 24 25  1  0
 25 26  1  0
 26 27  1  0
 12 28  1  0
 28 29  2  0
 29 30  1  0
  8 31  1  0
 31 32  2  0
 32 33  1  0
 33 34  1  0
 32  3  1  0
 29  9  1  0
 18 13  1  0
 27 22  1  0
  1 35  1  0
  1 36  1  0
  1 37  1  0
  4 38  1  0
  6 39  1  0
  6 40  1  0
  7 41  1  0
 11 42  1  0
 14 43  1  0
 15 44  1  0
 16 45  1  0
 17 46  1  0
 23 47  1  0
 23 48  1  0
 24 49  1  0
 24 50  1  0
 26 51  1  0
 26 52  1  0
 27 53  1  0
 27 54  1  0
 28 55  1  0
 31 56  1  0
 34 57  1  0
 34 58  1  0
 34 59  1  0
M  END
>  <UniqueID>  (34) 
31

>  <SMILES>  (34) 
COc1cc(CO)c(-c2ncc(-c3ccccc3S(=O)(=O)N3CCOCC3)cc2F)cc1OC

>  <Energy>  (34) 
90.12124817490266

>  <Genealogy>  (34) 
COc1cc(CO)c(-c2ncc(-c3ccccc3S(=O)(=O)N3CCOCC3)cc2F)cc1OC (3D coordinates assigned)
COc1cc(CO)c(-c2ncc(-c3ccccc3S(=O)(=O)N3CCOCC3)cc2F)cc1OC (nonaromatic ring conformer: 90.12124817490266 kcal/mol)

>  <smiles>  (34) 
COc1cc(CO)c(-c2ncc(-c3ccccc3S(=O)(=O)N3CCOCC3)cc2F)cc1OC

>  <score_type>  (34) 
oracle

>  <origin>  (34) 
adgpu

>  <m_score__min__energy>  (34) 
-9.1799999999999997

>  <m_primary>  (34) 
energy

$$$$
35:0
     RDKit          3D

 64 67  0  0  0  0  0  0  0  0999 V2000
   -9.1080   22.2930  -31.9200 C   0  0  0  0  0  0  0  0  0  0  0  0
   -8.6480   21.1510  -31.0130 C   0  0  0  0  0  0  0  0  0  0  0  0
   -8.6060   19.5710  -31.8670 S   0  0  0  0  0  0  0  0  0  0  0  0
   -9.1090   18.5250  -30.9110 O   0  0  0  0  0  0  0  0  0  0  0  0
   -9.5390   19.6210  -33.0450 O   0  0  0  0  0  0  0  0  0  0  0  0
   -7.0050   19.1040  -32.4000 N   0  0  0  0  0  0  0  0  0  0  0  0
   -6.4240   20.1350  -33.2720 C   0  0  0  0  0  0  0  0  0  0  0  0
   -4.9400   19.8240  -33.5090 C   0  0  0  0  0  0  0  0  0  0  0  0
   -4.7330   18.3900  -33.7400 N   0  0  0  0  0  0  0  0  0  0  0  0
   -3.4040   17.8300  -33.7100 C   0  0  0  0  0  0  0  0  0  0  0  0
   -3.1770   16.5520  -33.1730 C   0  0  0  0  0  0  0  0  0  0  0  0
   -1.8830   16.0280  -33.1150 C   0  0  0  0  0  0  0  0  0  0  0  0
   -0.7940   16.7630  -33.5950 C   0  0  0  0  0  0  0  0  0  0  0  0
    0.4900   16.2100  -33.4750 O   0  0  0  0  0  0  0  0  0  0  0  0
    1.4500   16.6030  -32.4960 C   0  0  0  0  0  0  0  0  0  0  0  0
    0.8000   17.5270  -31.5180 C   0  0  0  0  0  0  0  0  0  0  0  0
    0.2930   18.7300  -31.8470 N   0  0  0  0  0  0  0  0  0  0  0  0
   -0.2630   19.1620  -30.6910 C   0  0  0  0  0  0  0  0  0  0  0  0
   -0.9650   20.4550  -30.5520 C   0  0  0  0  0  0  0  0  0  0  0  0
   -1.1200   21.0440  -29.2870 C   0  0  0  0  0  0  0  0  0  0  0  0
   -1.8150   22.2500  -29.1480 C   0  0  0  0  0  0  0  0  0  0  0  0
   -2.3750   22.8790  -30.2700 C   0  0  0  0  0  0  0  0  0  0  0  0
   -3.1200   24.1440  -30.1100 C   0  0  0  0  0  0  0  0  0  0  0  0
   -4.2220   24.2850  -30.7000 O   0  0  0  0  0  0  0  0  0  0  0  0
   -2.6040   25.2410  -29.3420 N   0  0  0  0  0  0  0  0  0  0  0  0
   -1.2460   25.3190  -28.8190 C   0  0  0  0  0  0  0  0  0  0  0  0
   -2.1880   22.3110  -31.5400 C   0  0  0  0  0  0  0  0  0  0  0  0
   -1.4950   21.1050  -31.6790 C   0  0  0  0  0  0  0  0  0  0  0  0
   -0.1290   18.2950  -29.7090 O   0  0  0  0  0  0  0  0  0  0  0  0
    0.5190   17.2650  -30.1950 C   0  0  0  0  0  0  0  0  0  0  0  0
    0.8670   16.0360  -29.4220 C   0  0  0  0  0  0  0  0  0  0  0  0
   -1.0210   18.0270  -34.1690 C   0  0  0  0  0  0  0  0  0  0  0  0
   -2.3150   18.5540  -34.2250 C   0  0  0  0  0  0  0  0  0  0  0  0
   -5.8980   17.5540  -34.0590 C   0  0  0  0  0  0  0  0  0  0  0  0
   -7.0050   17.7490  -33.0040 C   0  0  0  0  0  0  0  0  0  0  0  0
   -9.4481   23.1374  -31.3025 H   0  0  0  0  0  0  0  0  0  0  0  0
   -8.2703   22.6171  -32.5550 H   0  0  0  0  0  0  0  0  0  0  0  0
   -9.9365   21.9460  -32.5550 H   0  0  0  0  0  0  0  0  0  0  0  0
   -7.6376   21.3792  -30.6428 H   0  0  0  0  0  0  0  0  0  0  0  0
   -9.3706   21.0667  -30.1880 H   0  0  0  0  0  0  0  0  0  0  0  0
   -6.9556   20.1436  -34.2350 H   0  0  0  0  0  0  0  0  0  0  0  0
   -6.5212   21.1200  -32.7921 H   0  0  0  0  0  0  0  0  0  0  0  0
   -4.5913   20.3840  -34.3892 H   0  0  0  0  0  0  0  0  0  0  0  0
   -4.3730   20.1199  -32.6141 H   0  0  0  0  0  0  0  0  0  0  0  0
   -4.0236   15.9597  -32.7956 H   0  0  0  0  0  0  0  0  0  0  0  0
   -1.7191   15.0277  -32.6877 H   0  0  0  0  0  0  0  0  0  0  0  0
    1.8245   15.7130  -31.9691 H   0  0  0  0  0  0  0  0  0  0  0  0
    2.2916   17.1142  -32.9862 H   0  0  0  0  0  0  0  0  0  0  0  0
   -0.6923   20.5541  -28.3998 H   0  0  0  0  0  0  0  0  0  0  0  0
   -1.9230   22.7076  -28.1536 H   0  0  0  0  0  0  0  0  0  0  0  0
   -1.2759   25.3173  -27.7194 H   0  0  0  0  0  0  0  0  0  0  0  0
   -0.6670   24.4526  -29.1714 H   0  0  0  0  0  0  0  0  0  0  0  0
   -0.7700   26.2460  -29.1714 H   0  0  0  0  0  0  0  0  0  0  0  0
   -2.5888   22.8175  -32.4304 H   0  0  0  0  0  0  0  0  0  0  0  0
   -1.3638   20.6621  -32.6773 H   0  0  0  0  0  0  0  0  0  0  0  0
    0.8062   16.2508  -28.3449 H   0  0  0  0  0  0  0  0  0  0  0  0
    0.1614   15.2312  -29.6758 H   0  0  0  0  0  0  0  0  0  0  0  0
    1.8898   15.7205  -29.6758 H   0  0  0  0  0  0  0  0  0  0  0  0
   -0.1769   18.6034  -34.5756 H   0  0  0  0  0  0  0  0  0  0  0  0
   -2.4820   19.5434  -34.6758 H   0  0  0  0  0  0  0  0  0  0  0  0
   -6.2867   17.8365  -35.0485 H   0  0  0  0  0  0  0  0  0  0  0  0
   -5.5894   16.4982  -34.0612 H   0  0  0  0  0  0  0  0  0  0  0  0
   -7.9798   17.5807  -33.4850 H   0  0  0  0  0  0  0  0  0  0  0  0
   -6.8143   17.0300  -32.1936 H   0  0  0  0  0  0  0  0  0  0  0  0
  1  2  1  0
  2  3  1  0
  3  4  2  0
  3  5  2  0
  3  6  1  0
  6  7  1  0
  7  8  1  0
  8  9  1  0
  9 10  1  0
 10 11  2  0
 11 12  1  0
 12 13  2  0
 13 14  1  0
 14 15  1  0
 15 16  1  0
 16 17  1  0
 17 18  2  0
 18 19  1  0
 19 20  2  0
 20 21  1  0
 21 22  2  0
 22 23  1  0
 23 24  2  0
 23 25  1  0
 25 26  1  0
 22 27  1  0
 27 28  2  0
 18 29  1  0
 29 30  1  0
 30 31  1  0
 13 32  1  0
 32 33  2  0
  9 34  1  0
 34 35  1  0
 35  6  1  0
 33 10  1  0
 30 16  2  0
 28 19  1  0
  1 36  1  0
  1 37  1  0
  1 38  1  0
  2 39  1  0
  2 40  1  0
  7 41  1  0
  7 42  1  0
  8 43  1  0
  8 44  1  0
 11 45  1  0
 12 46  1  0
 15 47  1  0
 15 48  1  0
 20 49  1  0
 21 50  1  0
 26 51  1  0
 26 52  1  0
 26 53  1  0
 27 54  1  0
 28 55  1  0
 31 56  1  0
 31 57  1  0
 31 58  1  0
 32 59  1  0
 33 60  1  0
 34 61  1  0
 34 62  1  0
 35 63  1  0
 35 64  1  0
M  CHG  1  25  -1
M  END
>  <UniqueID>  (35) 
32

>  <SMILES>  (35) 
CCS(=O)(=O)N1CCN(c2ccc(OCc3nc(-c4ccc(C(=O)[N-]C)cc4)oc3C)cc2)CC1

>  <Energy>  (35) 
100.21289978591192

>  <Genealogy>  (35) 
CCS(=O)(=O)N1CCN(c2ccc(OCc3nc(-c4ccc(C(=O)[N-]C)cc4)oc3C)cc2)CC1 (protonated)
CCS(=O)(=O)N1CCN(c2ccc(OCc3nc(-c4ccc(C(=O)[N-]C)cc4)oc3C)cc2)CC1 (3D coordinates assigned)
CCS(=O)(=O)N1CCN(c2ccc(OCc3nc(-c4ccc(C(=O)[N-]C)cc4)oc3C)cc2)CC1 (nonaromatic ring conformer: 100.21289978591192 kcal/mol)

>  <smiles>  (35) 
CCS(=O)(=O)N1CCN(c2ccc(OCc3nc(-c4ccc(C(=O)NC)cc4)oc3C)cc2)CC1

>  <score_type>  (35) 
oracle

>  <origin>  (35) 
adgpu

>  <m_score__min__energy>  (35) 
-10.24

>  <m_primary>  (35) 
energy

$$$$
36:0
     RDKit          3D

 47 49  0  0  0  0  0  0  0  0999 V2000
   -0.3170   21.9150  -34.4330 N   0  0  0  0  0  0  0  0  0  0  0  0
   -1.4740   20.8550  -33.7090 S   0  0  0  0  0  0  0  0  0  0  0  0
   -1.6190   19.6500  -34.5960 O   0  0  0  0  0  0  0  0  0  0  0  0
   -2.8040   21.5440  -33.6020 O   0  0  0  0  0  0  0  0  0  0  0  0
   -0.9370   20.3430  -32.1020 C   0  0  0  0  0  0  0  0  0  0  0  0
   -0.0650   19.2440  -32.0150 C   0  0  0  0  0  0  0  0  0  0  0  0
    0.4650   18.8510  -30.7850 C   0  0  0  0  0  0  0  0  0  0  0  0
    0.1300   19.5470  -29.6250 C   0  0  0  0  0  0  0  0  0  0  0  0
   -0.7360   20.6390  -29.6940 C   0  0  0  0  0  0  0  0  0  0  0  0
   -1.2970   21.0320  -30.9160 C   0  0  0  0  0  0  0  0  0  0  0  0
   -2.1510   22.1830  -30.9180 N   0  0  0  0  0  0  0  0  0  0  0  0
   -3.2470   22.4520  -30.0330 C   0  0  0  0  0  0  0  0  0  0  0  0
   -3.1370   22.0920  -28.8310 O   0  0  0  0  0  0  0  0  0  0  0  0
   -4.5140   23.0870  -30.4830 C   0  0  0  0  0  0  0  0  0  0  0  0
   -5.6610   22.3070  -30.7210 C   0  0  0  0  0  0  0  0  0  0  0  0
   -6.8650   22.9080  -31.1150 C   0  0  0  0  0  0  0  0  0  0  0  0
   -8.2860   21.9170  -31.4540 S   0  0  0  0  0  0  0  0  0  0  0  0
   -9.3150   22.7530  -32.1630 O   0  0  0  0  0  0  0  0  0  0  0  0
   -8.8860   21.4440  -30.1580 O   0  0  0  0  0  0  0  0  0  0  0  0
   -7.8810   20.5350  -32.4460 N   0  0  0  0  0  0  0  0  0  0  0  0
   -7.9960   19.2870  -31.6600 C   0  0  0  0  0  0  0  0  0  0  0  0
   -7.2570   18.1320  -32.3440 C   0  0  0  0  0  0  0  0  0  0  0  0
   -5.7490   18.4220  -32.4340 C   0  0  0  0  0  0  0  0  0  0  0  0
   -5.4370   19.9280  -32.4690 C   0  0  0  0  0  0  0  0  0  0  0  0
   -6.5770   20.7170  -33.1320 C   0  0  0  0  0  0  0  0  0  0  0  0
   -6.9340   24.3000  -31.2420 C   0  0  0  0  0  0  0  0  0  0  0  0
   -5.8080   25.0830  -30.9990 C   0  0  0  0  0  0  0  0  0  0  0  0
   -4.6020   24.4880  -30.6230 C   0  0  0  0  0  0  0  0  0  0  0  0
   -3.4920   25.2990  -30.4060 O   0  0  0  0  0  0  0  0  0  0  0  0
   -0.8540   22.6300  -34.9730 H   0  0  0  0  0  0  0  0  0  0  0  0
    0.2025   18.6879  -32.9256 H   0  0  0  0  0  0  0  0  0  0  0  0
    1.1482   17.9906  -30.7312 H   0  0  0  0  0  0  0  0  0  0  0  0
    0.5478   19.2359  -28.6561 H   0  0  0  0  0  0  0  0  0  0  0  0
   -0.9809   21.1975  -28.7785 H   0  0  0  0  0  0  0  0  0  0  0  0
   -5.6125   21.2151  -30.5967 H   0  0  0  0  0  0  0  0  0  0  0  0
   -7.5622   19.4499  -30.6624 H   0  0  0  0  0  0  0  0  0  0  0  0
   -9.0606   19.0216  -31.5811 H   0  0  0  0  0  0  0  0  0  0  0  0
   -7.4126   17.2108  -31.7634 H   0  0  0  0  0  0  0  0  0  0  0  0
   -7.6539   18.0153  -33.3632 H   0  0  0  0  0  0  0  0  0  0  0  0
   -5.2523   17.9796  -31.5579 H   0  0  0  0  0  0  0  0  0  0  0  0
   -5.3810   17.9837  -33.3734 H   0  0  0  0  0  0  0  0  0  0  0  0
   -5.3016   20.2903  -31.4392 H   0  0  0  0  0  0  0  0  0  0  0  0
   -4.5203   20.0800  -33.0576 H   0  0  0  0  0  0  0  0  0  0  0  0
   -6.3188   21.7862  -33.1171 H   0  0  0  0  0  0  0  0  0  0  0  0
   -6.6881   20.3369  -34.1582 H   0  0  0  0  0  0  0  0  0  0  0  0
   -7.8808   24.7774  -31.5347 H   0  0  0  0  0  0  0  0  0  0  0  0
   -5.8691   26.1763  -31.1039 H   0  0  0  0  0  0  0  0  0  0  0  0
  1  2  1  0
  2  3  2  0
  2  4  2  0
  2  5  1  0
  5  6  2  0
  6  7  1  0
  7  8  2  0
  8  9  1  0
  9 10  2  0
 10 11  1  0
 11 12  1  0
 12 13  2  0
 12 14  1  0
 14 15  2  0
 15 16  1  0
 16 17  1  0
 17 18  2  0
 17 19  2  0
 17 20  1  0
 20 21  1  0
 21 22  1  0
 22 23  1  0
 23 24  1  0
 24 25  1  0
 16 26  2  0
 26 27  1  0
 27 28  2  0
 28 29  1  0
 10  5  1  0
 28 14  1  0
 25 20  1  0
  1 30  1  0
  6 31  1  0
  7 32  1  0
  8 33  1  0
  9 34  1  0
 15 35  1  0
 21 36  1  0
 21 37  1  0
 22 38  1  0
 22 39  1  0
 23 40  1  0
 23 41  1  0
 24 42  1  0
 24 43  1  0
 25 44  1  0
 25 45  1  0
 26 46  1  0
 27 47  1  0
M  CHG  3   1  -1  11  -1  29  -1
M  END
>  <UniqueID>  (36) 
33

>  <SMILES>  (36) 
[NH-]S(=O)(=O)c1ccccc1[N-]C(=O)c1cc(S(=O)(=O)N2CCCCC2)ccc1[O-]

>  <Energy>  (36) 
61.19172272904258

>  <Genealogy>  (36) 
[NH-]S(=O)(=O)c1ccccc1[N-]C(=O)c1cc(S(=O)(=O)N2CCCCC2)ccc1[O-] (protonated)
[NH-]S(=O)(=O)c1ccccc1[N-]C(=O)c1cc(S(=O)(=O)N2CCCCC2)ccc1[O-] (3D coordinates assigned)
[NH-]S(=O)(=O)c1ccccc1[N-]C(=O)c1cc(S(=O)(=O)N2CCCCC2)ccc1[O-] (nonaromatic ring conformer: 61.19172272904258 kcal/mol)

>  <smiles>  (36) 
NS(=O)(=O)c1ccccc1NC(=O)c1cc(S(=O)(=O)N2CCCCC2)ccc1O

>  <score_type>  (36) 
oracle

>  <origin>  (36) 
adgpu

>  <m_score__min__energy>  (36) 
-15.890000000000001

>  <m_primary>  (36) 
energy

$$$$
37:0
     RDKit          3D

 55 58  0  0  0  0  0  0  0  0999 V2000
   -7.6760   19.9740  -32.3460 C   0  0  0  0  0  0  0  0  0  0  0  0
   -7.0290   21.1680  -31.6960 C   0  0  0  0  0  0  0  0  0  0  0  0
   -7.8220   21.9710  -30.8560 C   0  0  0  0  0  0  0  0  0  0  0  0
   -7.3080   23.1320  -30.2820 C   0  0  0  0  0  0  0  0  0  0  0  0
   -5.9960   23.5210  -30.5430 C   0  0  0  0  0  0  0  0  0  0  0  0
   -5.3930   25.0420  -29.8860 S   0  0  0  0  0  0  0  0  0  0  0  0
   -6.5240   25.9890  -29.5950 O   0  0  0  0  0  0  0  0  0  0  0  0
   -4.4800   25.6750  -30.8970 O   0  0  0  0  0  0  0  0  0  0  0  0
   -4.5090   24.7310  -28.4250 N   0  0  0  0  0  0  0  0  0  0  0  0
   -3.3630   23.8620  -28.3830 C   0  0  0  0  0  0  0  0  0  0  0  0
   -3.4700   22.5510  -27.8900 C   0  0  0  0  0  0  0  0  0  0  0  0
   -2.3690   21.6820  -27.9070 C   0  0  0  0  0  0  0  0  0  0  0  0
   -1.1170   22.1550  -28.3610 C   0  0  0  0  0  0  0  0  0  0  0  0
   -1.0070   23.4710  -28.8320 C   0  0  0  0  0  0  0  0  0  0  0  0
   -2.1180   24.3200  -28.8430 C   0  0  0  0  0  0  0  0  0  0  0  0
   -1.9770   25.6150  -29.3290 O   0  0  0  0  0  0  0  0  0  0  0  0
    0.0860   21.2450  -28.4540 C   0  0  0  0  0  0  0  0  0  0  0  0
   -0.0500   19.9930  -27.5790 C   0  0  0  0  0  0  0  0  0  0  0  0
   -1.4170   19.3420  -27.7890 C   0  0  0  0  0  0  0  0  0  0  0  0
   -2.5320   20.2900  -27.3430 C   0  0  0  0  0  0  0  0  0  0  0  0
   -5.1930   22.7350  -31.3750 C   0  0  0  0  0  0  0  0  0  0  0  0
   -5.6810   21.5460  -31.9460 C   0  0  0  0  0  0  0  0  0  0  0  0
   -4.5650   20.6240  -32.9910 S   0  0  0  0  0  0  0  0  0  0  0  0
   -5.3200   19.7010  -33.9050 O   0  0  0  0  0  0  0  0  0  0  0  0
   -3.8350   21.6080  -33.8650 O   0  0  0  0  0  0  0  0  0  0  0  0
   -3.3740   19.6940  -32.0960 N   0  0  0  0  0  0  0  0  0  0  0  0
   -2.2440   19.3010  -32.9450 C   0  0  0  0  0  0  0  0  0  0  0  0
   -1.1170   20.3080  -32.7350 C   0  0  0  0  0  0  0  0  0  0  0  0
   -1.5290   21.1380  -31.5310 C   0  0  0  0  0  0  0  0  0  0  0  0
   -2.7880   20.4710  -31.0040 C   0  0  0  0  0  0  0  0  0  0  0  0
   -8.0469   19.2896  -31.5688 H   0  0  0  0  0  0  0  0  0  0  0  0
   -8.5166   20.3079  -32.9720 H   0  0  0  0  0  0  0  0  0  0  0  0
   -6.9373   19.4521  -32.9720 H   0  0  0  0  0  0  0  0  0  0  0  0
   -8.8620   21.6783  -30.6495 H   0  0  0  0  0  0  0  0  0  0  0  0
   -7.9400   23.7431  -29.6209 H   0  0  0  0  0  0  0  0  0  0  0  0
   -4.7250   25.3390  -27.6040 H   0  0  0  0  0  0  0  0  0  0  0  0
   -4.4309   22.2009  -27.4848 H   0  0  0  0  0  0  0  0  0  0  0  0
   -0.0368   23.8394  -29.1966 H   0  0  0  0  0  0  0  0  0  0  0  0
    0.2096   20.9309  -29.5009 H   0  0  0  0  0  0  0  0  0  0  0  0
    0.9583   21.8095  -28.0930 H   0  0  0  0  0  0  0  0  0  0  0  0
    0.7386   19.2750  -27.8485 H   0  0  0  0  0  0  0  0  0  0  0  0
    0.0483   20.2836  -26.5226 H   0  0  0  0  0  0  0  0  0  0  0  0
   -1.5464   19.1063  -28.8556 H   0  0  0  0  0  0  0  0  0  0  0  0
   -1.4700   18.4210  -27.1898 H   0  0  0  0  0  0  0  0  0  0  0  0
   -3.4967   19.8834  -27.6808 H   0  0  0  0  0  0  0  0  0  0  0  0
   -2.4865   20.3665  -26.2466 H   0  0  0  0  0  0  0  0  0  0  0  0
   -4.1612   23.0522  -31.5867 H   0  0  0  0  0  0  0  0  0  0  0  0
   -1.9006   18.2941  -32.6653 H   0  0  0  0  0  0  0  0  0  0  0  0
   -2.5494   19.2874  -34.0017 H   0  0  0  0  0  0  0  0  0  0  0  0
   -0.1689   19.7870  -32.5358 H   0  0  0  0  0  0  0  0  0  0  0  0
   -0.9594   20.9338  -33.6258 H   0  0  0  0  0  0  0  0  0  0  0  0
   -0.7381   21.1290  -30.7666 H   0  0  0  0  0  0  0  0  0  0  0  0
   -1.7002   22.1919  -31.7955 H   0  0  0  0  0  0  0  0  0  0  0  0
   -2.5357   19.8058  -30.1650 H   0  0  0  0  0  0  0  0  0  0  0  0
   -3.5016   21.2273  -30.6450 H   0  0  0  0  0  0  0  0  0  0  0  0
  1  2  1  0
  2  3  2  0
  3  4  1  0
  4  5  2  0
  5  6  1  0
  6  7  2  0
  6  8  2  0
  6  9  1  0
  9 10  1  0
 10 11  2  0
 11 12  1  0
 12 13  2  0
 13 14  1  0
 14 15  2  0
 15 16  1  0
 13 17  1  0
 17 18  1  0
 18 19  1  0
 19 20  1  0
  5 21  1  0
 21 22  2  0
 22 23  1  0
 23 24  2  0
 23 25  2  0
 23 26  1  0
 26 27  1  0
 27 28  1  0
 28 29  1  0
 29 30  1  0
 22  2  1  0
 30 26  1  0
 15 10  1  0
 20 12  1  0
  1 31  1  0
  1 32  1  0
  1 33  1  0
  3 34  1  0
  4 35  1  0
  9 36  1  0
 11 37  1  0
 14 38  1  0
 17 39  1  0
 17 40  1  0
 18 41  1  0
 18 42  1  0
 19 43  1  0
 19 44  1  0
 20 45  1  0
 20 46  1  0
 21 47  1  0
 27 48  1  0
 27 49  1  0
 28 50  1  0
 28 51  1  0
 29 52  1  0
 29 53  1  0
 30 54  1  0
 30 55  1  0
M  CHG  1  16  -1
M  END
>  <UniqueID>  (37) 
34

>  <SMILES>  (37) 
Cc1ccc(S(=O)(=O)Nc2cc3c(cc2[O-])CCCC3)cc1S(=O)(=O)N1CCCC1

>  <Energy>  (37) 
62.78300305128255

>  <Genealogy>  (37) 
Cc1ccc(S(=O)(=O)Nc2cc3c(cc2[O-])CCCC3)cc1S(=O)(=O)N1CCCC1 (protonated)
Cc1ccc(S(=O)(=O)Nc2cc3c(cc2[O-])CCCC3)cc1S(=O)(=O)N1CCCC1 (3D coordinates assigned)
Cc1ccc(S(=O)(=O)Nc2cc3c(cc2[O-])CCCC3)cc1S(=O)(=O)N1CCCC1 (nonaromatic ring conformer: 62.78300305128255 kcal/mol)

>  <smiles>  (37) 
Cc1ccc(S(=O)(=O)Nc2cc3c(cc2O)CCCC3)cc1S(=O)(=O)N1CCCC1

>  <score_type>  (37) 
oracle

>  <origin>  (37) 
adgpu

>  <m_score__min__energy>  (37) 
-14.75

>  <m_primary>  (37) 
energy

$$$$
38:0
     RDKit          3D

 70 73  0  0  0  0  0  0  0  0999 V2000
   -9.0010   23.3910  -32.3130 C   0  0  0  0  0  0  0  0  0  0  0  0
   -8.6730   22.1250  -31.6390 N   0  0  0  0  0  0  0  0  0  0  0  0
   -7.2750   21.7120  -31.9110 C   0  0  0  0  0  0  0  0  0  0  0  0
   -7.1780   20.6910  -33.0600 C   0  0  0  0  0  0  0  0  0  0  0  0
   -7.9880   19.4620  -32.8120 N   0  0  0  0  0  0  0  0  0  0  0  0
   -7.1440   18.3190  -32.3820 C   0  0  0  0  0  0  0  0  0  0  0  0
   -5.7090   18.4110  -32.9390 C   0  0  0  0  0  0  0  0  0  0  0  0
   -4.7960   19.1920  -31.9830 C   0  0  0  0  0  0  0  0  0  0  0  0
   -3.6960   19.8460  -32.7150 N   0  0  0  0  0  0  0  0  0  0  0  0
   -2.7590   19.0210  -33.4880 C   0  0  0  0  0  0  0  0  0  0  0  0
   -1.4400   19.7310  -33.6040 C   0  0  0  0  0  0  0  0  0  0  0  0
   -0.3320   19.3130  -32.8240 C   0  0  0  0  0  0  0  0  0  0  0  0
    0.9200   19.9390  -32.9690 C   0  0  0  0  0  0  0  0  0  0  0  0
    1.0300   20.9610  -33.9060 C   0  0  0  0  0  0  0  0  0  0  0  0
   -0.0210   21.3570  -34.6650 C   0  0  0  0  0  0  0  0  0  0  0  0
   -1.2770   20.7680  -34.5500 C   0  0  0  0  0  0  0  0  0  0  0  0
    0.3760   22.3740  -35.5100 O   0  0  0  0  0  0  0  0  0  0  0  0
    1.7660   22.6340  -35.2650 C   0  0  0  0  0  0  0  0  0  0  0  0
    2.1430   21.7110  -34.2330 O   0  0  0  0  0  0  0  0  0  0  0  0
   -3.5680   21.2860  -32.7480 C   0  0  0  0  0  0  0  0  0  0  0  0
   -3.8930   21.9180  -33.7890 O   0  0  0  0  0  0  0  0  0  0  0  0
   -3.0280   22.0420  -31.6020 C   0  0  0  0  0  0  0  0  0  0  0  0
   -1.7270   21.7980  -31.1330 C   0  0  0  0  0  0  0  0  0  0  0  0
   -1.1940   22.5760  -30.1030 C   0  0  0  0  0  0  0  0  0  0  0  0
   -1.9630   23.5880  -29.5130 C   0  0  0  0  0  0  0  0  0  0  0  0
   -1.2460   24.6360  -28.2930 S   0  0  0  0  0  0  0  0  0  0  0  0
   -1.5880   26.0630  -28.6180 O   0  0  0  0  0  0  0  0  0  0  0  0
    0.2520   24.4880  -28.3120 O   0  0  0  0  0  0  0  0  0  0  0  0
   -1.8740   24.2250  -26.7170 N   0  0  0  0  0  0  0  0  0  0  0  0
   -0.7610   24.0650  -25.7690 C   0  0  0  0  0  0  0  0  0  0  0  0
   -2.7740   25.2910  -26.2600 C   0  0  0  0  0  0  0  0  0  0  0  0
   -3.2780   23.8020  -29.9480 C   0  0  0  0  0  0  0  0  0  0  0  0
   -3.8110   23.0260  -30.9800 C   0  0  0  0  0  0  0  0  0  0  0  0
   -9.0820   19.6790  -31.8310 C   0  0  0  0  0  0  0  0  0  0  0  0
   -9.6750   21.0850  -31.9700 C   0  0  0  0  0  0  0  0  0  0  0  0
   -9.2019   24.1664  -31.5591 H   0  0  0  0  0  0  0  0  0  0  0  0
   -8.1537   23.7018  -32.9419 H   0  0  0  0  0  0  0  0  0  0  0  0
   -9.8926   23.2513  -32.9419 H   0  0  0  0  0  0  0  0  0  0  0  0
   -6.6892   22.6033  -32.1799 H   0  0  0  0  0  0  0  0  0  0  0  0
   -6.8838   21.2322  -31.0017 H   0  0  0  0  0  0  0  0  0  0  0  0
   -7.5362   21.1673  -33.9845 H   0  0  0  0  0  0  0  0  0  0  0  0
   -6.1252   20.3828  -33.1410 H   0  0  0  0  0  0  0  0  0  0  0  0
   -8.4520   19.2030  -33.7170 H   0  0  0  0  0  0  0  0  0  0  0  0
   -7.0971   18.3072  -31.2831 H   0  0  0  0  0  0  0  0  0  0  0  0
   -7.5993   17.3975  -32.7738 H   0  0  0  0  0  0  0  0  0  0  0  0
   -5.3081   17.3950  -33.0694 H   0  0  0  0  0  0  0  0  0  0  0  0
   -5.7408   18.9398  -33.9030 H   0  0  0  0  0  0  0  0  0  0  0  0
   -5.3901   19.9600  -31.4661 H   0  0  0  0  0  0  0  0  0  0  0  0
   -4.3627   18.4861  -31.2591 H   0  0  0  0  0  0  0  0  0  0  0  0
   -2.6126   18.0576  -32.9777 H   0  0  0  0  0  0  0  0  0  0  0  0
   -3.1696   18.8464  -34.4934 H   0  0  0  0  0  0  0  0  0  0  0  0
   -0.4520   18.4934  -32.1003 H   0  0  0  0  0  0  0  0  0  0  0  0
    1.7833   19.6302  -32.3613 H   0  0  0  0  0  0  0  0  0  0  0  0
   -2.1177   21.0999  -35.1769 H   0  0  0  0  0  0  0  0  0  0  0  0
    2.3580   22.4583  -36.1753 H   0  0  0  0  0  0  0  0  0  0  0  0
    1.9439   23.6783  -34.9688 H   0  0  0  0  0  0  0  0  0  0  0  0
   -1.1259   20.9916  -31.5783 H   0  0  0  0  0  0  0  0  0  0  0  0
   -0.1670   22.3938  -29.7536 H   0  0  0  0  0  0  0  0  0  0  0  0
   -1.1452   24.1202  -24.7398 H   0  0  0  0  0  0  0  0  0  0  0  0
   -0.2805   23.0885  -25.9291 H   0  0  0  0  0  0  0  0  0  0  0  0
   -0.0249   24.8666  -25.9291 H   0  0  0  0  0  0  0  0  0  0  0  0
   -2.7905   25.3106  -25.1603 H   0  0  0  0  0  0  0  0  0  0  0  0
   -2.4167   26.2600  -26.6386 H   0  0  0  0  0  0  0  0  0  0  0  0
   -3.7892   25.1012  -26.6386 H   0  0  0  0  0  0  0  0  0  0  0  0
   -3.8919   24.5830  -29.4756 H   0  0  0  0  0  0  0  0  0  0  0  0
   -4.8490   23.1871  -31.3064 H   0  0  0  0  0  0  0  0  0  0  0  0
   -9.8740   18.9359  -32.0056 H   0  0  0  0  0  0  0  0  0  0  0  0
   -8.6691   19.5721  -30.8171 H   0  0  0  0  0  0  0  0  0  0  0  0
  -10.0140   21.2305  -33.0063 H   0  0  0  0  0  0  0  0  0  0  0  0
  -10.5177   21.1781  -31.2692 H   0  0  0  0  0  0  0  0  0  0  0  0
  1  2  1  0
  2  3  1  0
  3  4  1  0
  4  5  1  0
  5  6  1  0
  6  7  1  0
  7  8  1  0
  8  9  1  0
  9 10  1  0
 10 11  1  0
 11 12  2  0
 12 13  1  0
 13 14  2  0
 14 15  1  0
 15 16  2  0
 15 17  1  0
 17 18  1  0
 18 19  1  0
  9 20  1  0
 20 21  2  0
 20 22  1  0
 22 23  2  0
 23 24  1  0
 24 25  2  0
 25 26  1  0
 26 27  2  0
 26 28  2  0
 26 29  1  0
 29 30  1  0
 29 31  1  0
 25 32  1  0
 32 33  2  0
  5 34  1  0
 34 35  1  0
 35  2  1  0
 16 11  1  0
 33 22  1  0
 19 14  1  0
  1 36  1  0
  1 37  1  0
  1 38  1  0
  3 39  1  0
  3 40  1  0
  4 41  1  0
  4 42  1  0
  5 43  1  0
  6 44  1  0
  6 45  1  0
  7 46  1  0
  7 47  1  0
  8 48  1  0
  8 49  1  0
 10 50  1  0
 10 51  1  0
 12 52  1  0
 13 53  1  0
 16 54  1  0
 18 55  1  0
 18 56  1  0
 23 57  1  0
 24 58  1  0
 30 59  1  0
 30 60  1  0
 30 61  1  0
 31 62  1  0
 31 63  1  0
 31 64  1  0
 32 65  1  0
 33 66  1  0
 34 67  1  0
 34 68  1  0
 35 69  1  0
 35 70  1  0
M  CHG  1   5   1
M  END
>  <UniqueID>  (38) 
35

>  <SMILES>  (38) 
CN1CC[NH+](CCCN(Cc2ccc3c(c2)OCO3)C(=O)c2ccc(S(=O)(=O)N(C)C)cc2)CC1

>  <Energy>  (38) 
110.07666982927128

>  <Genealogy>  (38) 
CN1CC[NH+](CCCN(Cc2ccc3c(c2)OCO3)C(=O)c2ccc(S(=O)(=O)N(C)C)cc2)CC1 (protonated)
CN1CC[NH+](CCCN(Cc2ccc3c(c2)OCO3)C(=O)c2ccc(S(=O)(=O)N(C)C)cc2)CC1 (3D coordinates assigned)
CN1CC[NH+](CCCN(Cc2ccc3c(c2)OCO3)C(=O)c2ccc(S(=O)(=O)N(C)C)cc2)CC1 (nonaromatic ring conformer: 110.07666982927128 kcal/mol)

>  <smiles>  (38) 
CN1CCN(CCCN(Cc2ccc3c(c2)OCO3)C(=O)c2ccc(S(=O)(=O)N(C)C)cc2)CC1

>  <score_type>  (38) 
oracle

>  <origin>  (38) 
adgpu

>  <m_score__min__energy>  (38) 
-9.5500000000000007

>  <m_primary>  (38) 
energy

$$$$
39:0
     RDKit          3D

 49 51  0  0  0  0  0  0  0  0999 V2000
   -8.6810   19.7040  -31.3700 C   0  0  0  0  0  0  0  0  0  0  0  0
   -7.8950   20.9680  -31.5490 C   0  0  0  0  0  0  0  0  0  0  0  0
   -6.5340   20.9140  -31.8850 C   0  0  0  0  0  0  0  0  0  0  0  0
   -5.8030   22.0930  -32.0550 C   0  0  0  0  0  0  0  0  0  0  0  0
   -6.4250   23.3390  -31.8830 C   0  0  0  0  0  0  0  0  0  0  0  0
   -5.6790   24.5610  -31.9560 N   0  0  0  0  0  0  0  0  0  0  0  0
   -5.1550   25.2960  -30.8390 C   0  0  0  0  0  0  0  0  0  0  0  0
   -5.9530   25.9330  -30.1050 O   0  0  0  0  0  0  0  0  0  0  0  0
   -3.7560   25.2990  -30.5080 N   0  0  0  0  0  0  0  0  0  0  0  0
   -3.0880   24.3700  -29.6430 C   0  0  0  0  0  0  0  0  0  0  0  0
   -3.6780   23.1240  -29.4390 C   0  0  0  0  0  0  0  0  0  0  0  0
   -3.1640   22.2440  -28.4920 C   0  0  0  0  0  0  0  0  0  0  0  0
   -2.0450   22.5930  -27.7230 C   0  0  0  0  0  0  0  0  0  0  0  0
   -1.5660   21.6240  -26.6730 C   0  0  0  0  0  0  0  0  0  0  0  0
   -1.4210   23.8510  -27.9280 C   0  0  0  0  0  0  0  0  0  0  0  0
   -0.0290   24.3500  -26.9350 S   0  0  0  0  0  0  0  0  0  0  0  0
    0.6160   23.1610  -26.2770 O   0  0  0  0  0  0  0  0  0  0  0  0
    1.0000   24.9960  -27.8200 O   0  0  0  0  0  0  0  0  0  0  0  0
   -0.5590   25.4860  -25.7210 N   0  0  0  0  0  0  0  0  0  0  0  0
    0.3600   25.4620  -24.5750 C   0  0  0  0  0  0  0  0  0  0  0  0
   -0.0670   26.5100  -23.5250 C   0  0  0  0  0  0  0  0  0  0  0  0
   -1.1800   27.2720  -23.9560 O   0  0  0  0  0  0  0  0  0  0  0  0
   -0.8820   27.8890  -25.1950 C   0  0  0  0  0  0  0  0  0  0  0  0
   -0.6250   26.8400  -26.2960 C   0  0  0  0  0  0  0  0  0  0  0  0
   -1.9040   24.7040  -28.9490 C   0  0  0  0  0  0  0  0  0  0  0  0
   -1.1930   25.8610  -29.2730 O   0  0  0  0  0  0  0  0  0  0  0  0
   -7.7970   23.3940  -31.6150 C   0  0  0  0  0  0  0  0  0  0  0  0
   -8.5300   22.2160  -31.4440 C   0  0  0  0  0  0  0  0  0  0  0  0
   -8.8078   19.5000  -30.2965 H   0  0  0  0  0  0  0  0  0  0  0  0
   -9.6686   19.8166  -31.8411 H   0  0  0  0  0  0  0  0  0  0  0  0
   -8.1432   18.8680  -31.8411 H   0  0  0  0  0  0  0  0  0  0  0  0
   -6.0402   19.9397  -32.0152 H   0  0  0  0  0  0  0  0  0  0  0  0
   -4.7376   22.0441  -32.3243 H   0  0  0  0  0  0  0  0  0  0  0  0
   -4.5579   22.8338  -30.0320 H   0  0  0  0  0  0  0  0  0  0  0  0
   -3.6408   21.2637  -28.3450 H   0  0  0  0  0  0  0  0  0  0  0  0
   -1.7697   22.0360  -25.6736 H   0  0  0  0  0  0  0  0  0  0  0  0
   -2.0945   20.6663  -26.7895 H   0  0  0  0  0  0  0  0  0  0  0  0
   -0.4842   21.4623  -26.7895 H   0  0  0  0  0  0  0  0  0  0  0  0
    0.3435   24.4619  -24.1173 H   0  0  0  0  0  0  0  0  0  0  0  0
    1.3755   25.6989  -24.9252 H   0  0  0  0  0  0  0  0  0  0  0  0
   -0.3325   25.9903  -22.5926 H   0  0  0  0  0  0  0  0  0  0  0  0
    0.7765   27.1990  -23.3712 H   0  0  0  0  0  0  0  0  0  0  0  0
   -1.7310   28.5214  -25.4938 H   0  0  0  0  0  0  0  0  0  0  0  0
    0.0289   28.4932  -25.0717 H   0  0  0  0  0  0  0  0  0  0  0  0
   -1.4424   26.8805  -27.0310 H   0  0  0  0  0  0  0  0  0  0  0  0
    0.3364   27.0651  -26.7808 H   0  0  0  0  0  0  0  0  0  0  0  0
   -0.1880   25.9310  -29.1840 H   0  0  0  0  0  0  0  0  0  0  0  0
   -8.3013   24.3686  -31.5385 H   0  0  0  0  0  0  0  0  0  0  0  0
   -9.6071   22.2668  -31.2266 H   0  0  0  0  0  0  0  0  0  0  0  0
  1  2  1  0
  2  3  2  0
  3  4  1  0
  4  5  2  0
  5  6  1  0
  6  7  1  0
  7  8  2  0
  7  9  1  0
  9 10  1  0
 10 11  2  0
 11 12  1  0
 12 13  2  0
 13 14  1  0
 13 15  1  0
 15 16  1  0
 16 17  2  0
 16 18  2  0
 16 19  1  0
 19 20  1  0
 20 21  1  0
 21 22  1  0
 22 23  1  0
 23 24  1  0
 15 25  2  0
 25 26  1  0
  5 27  1  0
 27 28  2  0
 28  2  1  0
 25 10  1  0
 24 19  1  0
  1 29  1  0
  1 30  1  0
  1 31  1  0
  3 32  1  0
  4 33  1  0
 11 34  1  0
 12 35  1  0
 14 36  1  0
 14 37  1  0
 14 38  1  0
 20 39  1  0
 20 40  1  0
 21 41  1  0
 21 42  1  0
 23 43  1  0
 23 44  1  0
 24 45  1  0
 24 46  1  0
 26 47  1  0
 27 48  1  0
 28 49  1  0
M  CHG  2   6  -1   9  -1
M  END
>  <UniqueID>  (39) 
36

>  <SMILES>  (39) 
Cc1ccc([N-]C(=O)[N-]c2ccc(C)c(S(=O)(=O)N3CCOCC3)c2O)cc1

>  <Energy>  (39) 
68.3014323343512

>  <Genealogy>  (39) 
Cc1ccc([N-]C(=O)[N-]c2ccc(C)c(S(=O)(=O)N3CCOCC3)c2O)cc1 (protonated)
Cc1ccc([N-]C(=O)[N-]c2ccc(C)c(S(=O)(=O)N3CCOCC3)c2O)cc1 (3D coordinates assigned)
Cc1ccc([N-]C(=O)[N-]c2ccc(C)c(S(=O)(=O)N3CCOCC3)c2O)cc1 (nonaromatic ring conformer: 68.3014323343512 kcal/mol)

>  <smiles>  (39) 
Cc1ccc(NC(=O)Nc2ccc(C)c(S(=O)(=O)N3CCOCC3)c2O)cc1

>  <score_type>  (39) 
oracle

>  <origin>  (39) 
adgpu

>  <m_score__min__energy>  (39) 
-13.25

>  <m_primary>  (39) 
energy

$$$$
40:0
     RDKit          3D

 55 57  0  0  0  0  0  0  0  0999 V2000
   -9.5140   21.7070  -30.8960 C   0  0  0  0  0  0  0  0  0  0  0  0
   -8.6580   21.9660  -32.0030 O   0  0  0  0  0  0  0  0  0  0  0  0
   -7.5250   21.2040  -32.3330 C   0  0  0  0  0  0  0  0  0  0  0  0
   -7.6310   19.8820  -32.7970 C   0  0  0  0  0  0  0  0  0  0  0  0
   -6.4900   19.1480  -33.1380 C   0  0  0  0  0  0  0  0  0  0  0  0
   -6.7250   17.4830  -33.6650 Cl  0  0  0  0  0  0  0  0  0  0  0  0
   -5.2090   19.7330  -33.0380 C   0  0  0  0  0  0  0  0  0  0  0  0
   -3.7600   18.7900  -33.4800 S   0  0  0  0  0  0  0  0  0  0  0  0
   -3.8150   18.5050  -34.9560 O   0  0  0  0  0  0  0  0  0  0  0  0
   -3.8110   17.4840  -32.7390 O   0  0  0  0  0  0  0  0  0  0  0  0
   -2.2170   19.5470  -33.1590 N   0  0  0  0  0  0  0  0  0  0  0  0
   -1.8430   20.5100  -34.2100 C   0  0  0  0  0  0  0  0  0  0  0  0
   -0.4680   21.1510  -33.9080 C   0  0  0  0  0  0  0  0  0  0  0  0
   -0.0430   20.9840  -32.5650 O   0  0  0  0  0  0  0  0  0  0  0  0
   -1.1190   21.2210  -31.6830 C   0  0  0  0  0  0  0  0  0  0  0  0
   -2.1250   20.0690  -31.7810 C   0  0  0  0  0  0  0  0  0  0  0  0
   -5.1080   21.0470  -32.5490 C   0  0  0  0  0  0  0  0  0  0  0  0
   -6.2490   21.7830  -32.1950 C   0  0  0  0  0  0  0  0  0  0  0  0
   -6.0970   23.2090  -31.7280 C   0  0  0  0  0  0  0  0  0  0  0  0
   -4.8840   23.3400  -30.8540 C   0  0  0  0  0  0  0  0  0  0  0  0
   -4.1570   24.3640  -30.9630 O   0  0  0  0  0  0  0  0  0  0  0  0
   -4.6050   22.3440  -29.8560 N   0  0  0  0  0  0  0  0  0  0  0  0
   -3.4640   22.3780  -28.9820 C   0  0  0  0  0  0  0  0  0  0  0  0
   -3.0870   21.2570  -28.2270 C   0  0  0  0  0  0  0  0  0  0  0  0
   -1.9880   21.3230  -27.3690 C   0  0  0  0  0  0  0  0  0  0  0  0
   -1.2540   22.5130  -27.2330 C   0  0  0  0  0  0  0  0  0  0  0  0
   -0.0660   22.5380  -26.3090 C   0  0  0  0  0  0  0  0  0  0  0  0
   -1.6350   23.6510  -27.9840 C   0  0  0  0  0  0  0  0  0  0  0  0
   -0.7510   25.1800  -27.8660 S   0  0  0  0  0  0  0  0  0  0  0  0
   -1.1960   26.1060  -28.9630 O   0  0  0  0  0  0  0  0  0  0  0  0
    0.7280   24.9430  -27.9990 O   0  0  0  0  0  0  0  0  0  0  0  0
   -1.0330   25.8910  -26.3760 F   0  0  0  0  0  0  0  0  0  0  0  0
   -2.7460   23.5720  -28.8400 C   0  0  0  0  0  0  0  0  0  0  0  0
   -8.9624   21.8739  -29.9590 H   0  0  0  0  0  0  0  0  0  0  0  0
  -10.3807   22.3831  -30.9366 H   0  0  0  0  0  0  0  0  0  0  0  0
   -9.8605   20.6638  -30.9366 H   0  0  0  0  0  0  0  0  0  0  0  0
   -8.6238   19.4183  -32.8933 H   0  0  0  0  0  0  0  0  0  0  0  0
   -1.7919   19.9867  -35.1762 H   0  0  0  0  0  0  0  0  0  0  0  0
   -2.6018   21.3057  -34.2434 H   0  0  0  0  0  0  0  0  0  0  0  0
    0.2818   20.6918  -34.5690 H   0  0  0  0  0  0  0  0  0  0  0  0
   -0.5732   22.2324  -34.0795 H   0  0  0  0  0  0  0  0  0  0  0  0
   -0.7399   21.2898  -30.6527 H   0  0  0  0  0  0  0  0  0  0  0  0
   -1.6149   22.1643  -31.9557 H   0  0  0  0  0  0  0  0  0  0  0  0
   -1.8048   19.2569  -31.1117 H   0  0  0  0  0  0  0  0  0  0  0  0
   -3.1150   20.4494  -31.4891 H   0  0  0  0  0  0  0  0  0  0  0  0
   -4.1148   21.5074  -32.4417 H   0  0  0  0  0  0  0  0  0  0  0  0
   -5.9885   23.8682  -32.6019 H   0  0  0  0  0  0  0  0  0  0  0  0
   -6.9886   23.4954  -31.1510 H   0  0  0  0  0  0  0  0  0  0  0  0
   -5.3360   21.6230  -29.6670 H   0  0  0  0  0  0  0  0  0  0  0  0
   -3.6601   20.3219  -28.3117 H   0  0  0  0  0  0  0  0  0  0  0  0
   -1.6934   20.4334  -26.7930 H   0  0  0  0  0  0  0  0  0  0  0  0
   -0.4131   22.5307  -25.2652 H   0  0  0  0  0  0  0  0  0  0  0  0
    0.5605   21.6528  -26.4933 H   0  0  0  0  0  0  0  0  0  0  0  0
    0.5227   23.4487  -26.4933 H   0  0  0  0  0  0  0  0  0  0  0  0
   -3.0568   24.4616  -29.4075 H   0  0  0  0  0  0  0  0  0  0  0  0
  1  2  1  0
  2  3  1  0
  3  4  2  0
  4  5  1  0
  5  6  1  0
  5  7  2  0
  7  8  1  0
  8  9  2  0
  8 10  2  0
  8 11  1  0
 11 12  1  0
 12 13  1  0
 13 14  1  0
 14 15  1  0
 15 16  1  0
  7 17  1  0
 17 18  2  0
 18 19  1  0
 19 20  1  0
 20 21  2  0
 20 22  1  0
 22 23  1  0
 23 24  2  0
 24 25  1  0
 25 26  2  0
 26 27  1  0
 26 28  1  0
 28 29  1  0
 29 30  2  0
 29 31  2  0
 29 32  1  0
 28 33  2  0
 18  3  1  0
 33 23  1  0
 16 11  1  0
  1 34  1  0
  1 35  1  0
  1 36  1  0
  4 37  1  0
 12 38  1  0
 12 39  1  0
 13 40  1  0
 13 41  1  0
 15 42  1  0
 15 43  1  0
 16 44  1  0
 16 45  1  0
 17 46  1  0
 19 47  1  0
 19 48  1  0
 22 49  1  0
 24 50  1  0
 25 51  1  0
 27 52  1  0
 27 53  1  0
 27 54  1  0
 33 55  1  0
M  END
>  <UniqueID>  (40) 
37

>  <SMILES>  (40) 
COc1cc(Cl)c(S(=O)(=O)N2CCOCC2)cc1CC(=O)Nc1ccc(C)c(S(=O)(=O)F)c1

>  <Energy>  (40) 
74.11709992319786

>  <Genealogy>  (40) 
COc1cc(Cl)c(S(=O)(=O)N2CCOCC2)cc1CC(=O)Nc1ccc(C)c(S(=O)(=O)F)c1 (3D coordinates assigned)
COc1cc(Cl)c(S(=O)(=O)N2CCOCC2)cc1CC(=O)Nc1ccc(C)c(S(=O)(=O)F)c1 (nonaromatic ring conformer: 74.11709992319786 kcal/mol)

>  <smiles>  (40) 
COc1cc(Cl)c(S(=O)(=O)N2CCOCC2)cc1CC(=O)Nc1ccc(C)c(S(=O)(=O)F)c1

>  <score_type>  (40) 
oracle

>  <origin>  (40) 
adgpu

>  <m_score__min__energy>  (40) 
-10.81

>  <m_primary>  (40) 
energy

$$$$
41:0
     RDKit          3D

 57 61  0  0  0  0  0  0  0  0999 V2000
   -3.0340   20.5120  -26.8960 O   0  0  0  0  0  0  0  0  0  0  0  0
   -2.1980   21.0510  -27.6730 C   0  0  0  0  0  0  0  0  0  0  0  0
   -2.6380   22.2380  -28.4350 C   0  0  0  0  0  0  0  0  0  0  0  0
   -2.1050   23.4960  -28.1230 C   0  0  0  0  0  0  0  0  0  0  0  0
   -2.5140   24.6280  -28.8300 C   0  0  0  0  0  0  0  0  0  0  0  0
   -3.4640   24.5180  -29.8510 C   0  0  0  0  0  0  0  0  0  0  0  0
   -3.8670   25.6630  -30.5280 O   0  0  0  0  0  0  0  0  0  0  0  0
   -4.0150   23.2610  -30.1730 C   0  0  0  0  0  0  0  0  0  0  0  0
   -4.9310   23.1170  -31.2810 N   0  0  0  0  0  0  0  0  0  0  0  0
   -6.2590   23.7330  -31.2600 C   0  0  0  0  0  0  0  0  0  0  0  0
   -7.3200   22.6440  -31.0820 C   0  0  0  0  0  0  0  0  0  0  0  0
   -7.0680   21.4540  -31.9780 C   0  0  0  0  0  0  0  0  0  0  0  0
   -8.0800   20.5010  -32.1550 C   0  0  0  0  0  0  0  0  0  0  0  0
   -7.8590   19.3930  -32.9090 N   0  0  0  0  0  0  0  0  0  0  0  0
   -6.6640   19.1630  -33.5100 C   0  0  0  0  0  0  0  0  0  0  0  0
   -6.5050   18.1280  -34.2100 O   0  0  0  0  0  0  0  0  0  0  0  0
   -5.6140   20.0690  -33.3460 C   0  0  0  0  0  0  0  0  0  0  0  0
   -5.8020   21.2140  -32.5610 C   0  0  0  0  0  0  0  0  0  0  0  0
   -4.6500   22.1710  -32.3680 C   0  0  0  0  0  0  0  0  0  0  0  0
   -3.6240   22.1340  -29.4280 C   0  0  0  0  0  0  0  0  0  0  0  0
   -0.8480   20.5130  -27.7500 N   0  0  0  0  0  0  0  0  0  0  0  0
    0.0710   21.3760  -28.5290 C   0  0  0  0  0  0  0  0  0  0  0  0
   -0.0570   21.2100  -30.0620 C   0  0  0  0  0  0  0  0  0  0  0  0
   -0.8070   19.9950  -30.4200 N   0  0  0  0  0  0  0  0  0  0  0  0
   -0.8400   19.7300  -31.8710 C   0  0  0  0  0  0  0  0  0  0  0  0
   -2.1870   20.0750  -32.5320 C   0  0  0  0  0  0  0  0  0  0  0  0
   -2.0340   20.8250  -33.8510 C   0  0  0  0  0  0  0  0  0  0  0  0
   -2.5030   19.3790  -33.8480 C   0  0  0  0  0  0  0  0  0  0  0  0
   -0.3950   18.8460  -29.6080 C   0  0  0  0  0  0  0  0  0  0  0  0
   -0.8120   19.0770  -28.1450 C   0  0  0  0  0  0  0  0  0  0  0  0
   -1.3615   23.5917  -27.3179 H   0  0  0  0  0  0  0  0  0  0  0  0
   -2.0872   25.6113  -28.5831 H   0  0  0  0  0  0  0  0  0  0  0  0
   -6.3202   24.4455  -30.4242 H   0  0  0  0  0  0  0  0  0  0  0  0
   -6.4330   24.2652  -32.2068 H   0  0  0  0  0  0  0  0  0  0  0  0
   -7.3111   22.3078  -30.0347 H   0  0  0  0  0  0  0  0  0  0  0  0
   -8.2954   23.0732  -31.3548 H   0  0  0  0  0  0  0  0  0  0  0  0
   -9.0606   20.6513  -31.6798 H   0  0  0  0  0  0  0  0  0  0  0  0
   -4.6440   19.8845  -33.8309 H   0  0  0  0  0  0  0  0  0  0  0  0
   -3.7436   21.5985  -32.1218 H   0  0  0  0  0  0  0  0  0  0  0  0
   -4.5050   22.7386  -33.2990 H   0  0  0  0  0  0  0  0  0  0  0  0
   -4.0963   21.1604  -29.6259 H   0  0  0  0  0  0  0  0  0  0  0  0
   -0.4780   20.5430  -26.7690 H   0  0  0  0  0  0  0  0  0  0  0  0
   -0.1419   22.4251  -28.2758 H   0  0  0  0  0  0  0  0  0  0  0  0
    1.0943   21.0745  -28.2608 H   0  0  0  0  0  0  0  0  0  0  0  0
   -0.5811   22.0857  -30.4723 H   0  0  0  0  0  0  0  0  0  0  0  0
    0.9559   21.1225  -30.4820 H   0  0  0  0  0  0  0  0  0  0  0  0
   -0.0533   20.3301  -32.3517 H   0  0  0  0  0  0  0  0  0  0  0  0
   -0.6836   18.6494  -32.0044 H   0  0  0  0  0  0  0  0  0  0  0  0
   -2.7418   20.2121  -31.5921 H   0  0  0  0  0  0  0  0  0  0  0  0
   -2.7366   21.6306  -34.1104 H   0  0  0  0  0  0  0  0  0  0  0  0
   -1.2193   21.3776  -34.3418 H   0  0  0  0  0  0  0  0  0  0  0  0
   -3.5449   19.1387  -34.1062 H   0  0  0  0  0  0  0  0  0  0  0  0
   -2.1674   18.4525  -34.3369 H   0  0  0  0  0  0  0  0  0  0  0  0
   -0.8804   17.9351  -29.9883 H   0  0  0  0  0  0  0  0  0  0  0  0
    0.6974   18.7297  -29.6643 H   0  0  0  0  0  0  0  0  0  0  0  0
   -1.8160   18.6519  -27.9992 H   0  0  0  0  0  0  0  0  0  0  0  0
   -0.0532   18.5901  -27.5147 H   0  0  0  0  0  0  0  0  0  0  0  0
  1  2  2  0
  2  3  1  0
  3  4  2  0
  4  5  1  0
  5  6  2  0
  6  7  1  0
  6  8  1  0
  8  9  1  0
  9 10  1  0
 10 11  1  0
 11 12  1  0
 12 13  2  0
 13 14  1  0
 14 15  1  0
 15 16  2  0
 15 17  1  0
 17 18  2  0
 18 19  1  0
  8 20  2  0
  2 21  1  0
 21 22  1  0
 22 23  1  0
 23 24  1  0
 24 25  1  0
 25 26  1  0
 26 27  1  0
 27 28  1  0
 24 29  1  0
 29 30  1  0
 20  3  1  0
 30 21  1  0
 19  9  1  0
 28 26  1  0
 18 12  1  0
  4 31  1  0
  5 32  1  0
 10 33  1  0
 10 34  1  0
 11 35  1  0
 11 36  1  0
 13 37  1  0
 17 38  1  0
 19 39  1  0
 19 40  1  0
 20 41  1  0
 21 42  1  0
 22 43  1  0
 22 44  1  0
 23 45  1  0
 23 46  1  0
 25 47  1  0
 25 48  1  0
 26 49  1  0
 27 50  1  0
 27 51  1  0
 28 52  1  0
 28 53  1  0
 29 54  1  0
 29 55  1  0
 30 56  1  0
 30 57  1  0
M  CHG  3   7  -1  14  -1  21   1
M  END
>  <UniqueID>  (41) 
38

>  <SMILES>  (41) 
O=C(c1ccc([O-])c(N2CCc3c[n-]c(=O)cc3C2)c1)[NH+]1CCN(CC2CC2)CC1

>  <Energy>  (41) 
351.1083624129312

>  <Genealogy>  (41) 
O=C(c1ccc([O-])c(N2CCc3c[n-]c(=O)cc3C2)c1)[NH+]1CCN(CC2CC2)CC1 (protonated)
O=C(c1ccc([O-])c(N2CCc3c[n-]c(=O)cc3C2)c1)[NH+]1CCN(CC2CC2)CC1 (3D coordinates assigned)
O=C(c1ccc([O-])c(N2CCc3c[n-]c(=O)cc3C2)c1)[NH+]1CCN(CC2CC2)CC1 (nonaromatic ring conformer: 351.1083624129312 kcal/mol)

>  <smiles>  (41) 
O=C(c1ccc(O)c(N2CCc3c[nH]c(=O)cc3C2)c1)N1CCN(CC2CC2)CC1

>  <score_type>  (41) 
oracle

>  <origin>  (41) 
adgpu

>  <m_score__min__energy>  (41) 
-12.02

>  <m_primary>  (41) 
energy

$$$$
42:0
     RDKit          3D

 48 50  0  0  0  0  0  0  0  0999 V2000
   -9.8368   22.2175  -31.1758 H   0  0  0  0  0  0  0  0  0  0  0  0
   -8.8270   22.0610  -31.5830 C   0  0  0  0  0  0  0  0  0  0  0  0
   -8.5210   20.8750  -32.2510 C   0  0  0  0  0  0  0  0  0  0  0  0
   -9.2937   20.1029  -32.3804 H   0  0  0  0  0  0  0  0  0  0  0  0
   -7.2350   20.6660  -32.7560 C   0  0  0  0  0  0  0  0  0  0  0  0
   -6.9976   19.7258  -33.2753 H   0  0  0  0  0  0  0  0  0  0  0  0
   -6.2410   21.6520  -32.6040 C   0  0  0  0  0  0  0  0  0  0  0  0
   -4.9250   21.4550  -33.0520 O   0  0  0  0  0  0  0  0  0  0  0  0
   -3.9440   20.6870  -32.3640 C   0  0  0  0  0  0  0  0  0  0  0  0
   -4.0860   20.7982  -31.2789 H   0  0  0  0  0  0  0  0  0  0  0  0
   -4.0475   19.6274  -32.6407 H   0  0  0  0  0  0  0  0  0  0  0  0
   -2.9402   21.0418  -32.6407 H   0  0  0  0  0  0  0  0  0  0  0  0
   -6.5680   22.8660  -31.9630 C   0  0  0  0  0  0  0  0  0  0  0  0
   -5.5910   23.9000  -31.7770 N   0  0  0  0  0  0  0  0  0  0  0  0
   -4.6910   23.9210  -30.8390 C   0  0  0  0  0  0  0  0  0  0  0  0
   -3.8260   24.9460  -30.6960 N   0  0  0  0  0  0  0  0  0  0  0  0
   -2.9630   24.7300  -29.6670 C   0  0  0  0  0  0  0  0  0  0  0  0
   -1.9850   25.6590  -29.3350 O   0  0  0  0  0  0  0  0  0  0  0  0
   -3.1370   23.5270  -28.9810 C   0  0  0  0  0  0  0  0  0  0  0  0
   -2.3220   23.0260  -27.8600 C   0  0  0  0  0  0  0  0  0  0  0  0
   -2.7810   22.1260  -27.1070 O   0  0  0  0  0  0  0  0  0  0  0  0
   -1.0250   23.5800  -27.5840 N   0  0  0  0  0  0  0  0  0  0  0  0
   -0.9360   24.8190  -26.8550 C   0  0  0  0  0  0  0  0  0  0  0  0
   -1.9730   25.1690  -25.9770 C   0  0  0  0  0  0  0  0  0  0  0  0
   -2.8303   24.4916  -25.8496 H   0  0  0  0  0  0  0  0  0  0  0  0
   -1.9280   26.3670  -25.2640 C   0  0  0  0  0  0  0  0  0  0  0  0
   -2.7510   26.6273  -24.5821 H   0  0  0  0  0  0  0  0  0  0  0  0
   -0.8460   27.2390  -25.4090 C   0  0  0  0  0  0  0  0  0  0  0  0
   -0.8530   28.4330  -24.6720 O   0  0  0  0  0  0  0  0  0  0  0  0
    0.2600   29.3130  -24.5530 C   0  0  0  0  0  0  0  0  0  0  0  0
    0.4786   29.4859  -23.4889 H   0  0  0  0  0  0  0  0  0  0  0  0
    1.1377   28.8620  -25.0391 H   0  0  0  0  0  0  0  0  0  0  0  0
    0.0236   30.2710  -25.0391 H   0  0  0  0  0  0  0  0  0  0  0  0
    0.2040   26.8920  -26.2780 C   0  0  0  0  0  0  0  0  0  0  0  0
    1.0599   27.5729  -26.3958 H   0  0  0  0  0  0  0  0  0  0  0  0
    0.1720   25.6810  -27.0000 C   0  0  0  0  0  0  0  0  0  0  0  0
    1.2280   25.2990  -27.8440 O   0  0  0  0  0  0  0  0  0  0  0  0
    2.6040   25.3090  -27.4790 C   0  0  0  0  0  0  0  0  0  0  0  0
    2.6925   25.3096  -26.3826 H   0  0  0  0  0  0  0  0  0  0  0  0
    3.0979   24.4144  -27.8862 H   0  0  0  0  0  0  0  0  0  0  0  0
    3.0848   26.2107  -27.8862 H   0  0  0  0  0  0  0  0  0  0  0  0
    0.1730   22.7900  -27.8790 C   0  0  0  0  0  0  0  0  0  0  0  0
    0.6472   22.4773  -26.9370 H   0  0  0  0  0  0  0  0  0  0  0  0
   -0.1088   21.9000  -28.4608 H   0  0  0  0  0  0  0  0  0  0  0  0
    0.8801   23.3996  -28.4608 H   0  0  0  0  0  0  0  0  0  0  0  0
   -4.4060   22.6950  -29.7130 S   0  0  0  0  0  0  0  0  0  0  0  0
   -7.8530   23.0490  -31.4310 C   0  0  0  0  0  0  0  0  0  0  0  0
   -8.0944   23.9764  -30.8910 H   0  0  0  0  0  0  0  0  0  0  0  0
  1  2  1  0
  2  3  2  0
  3  4  1  0
  3  5  1  0
  5  6  1  0
  5  7  2  0
  7  8  1  0
  8  9  1  0
  9 10  1  0
  9 11  1  0
  9 12  1  0
  7 13  1  0
 13 14  1  0
 14 15  2  0
 15 16  1  0
 16 17  1  0
 17 18  1  0
 17 19  2  0
 19 20  1  0
 20 21  2  0
 20 22  1  0
 22 23  1  0
 23 24  2  0
 24 25  1  0
 24 26  1  0
 26 27  1  0
 26 28  2  0
 28 29  1  0
 29 30  1  0
 30 31  1  0
 30 32  1  0
 30 33  1  0
 28 34  1  0
 34 35  1  0
 34 36  2  0
 36 37  1  0
 37 38  1  0
 38 39  1  0
 38 40  1  0
 38 41  1  0
 22 42  1  0
 42 43  1  0
 42 44  1  0
 42 45  1  0
 19 46  1  0
 13 47  2  0
 47 48  1  0
 47  2  1  0
 46 15  1  0
 36 23  1  0
M  CHG  2  16  -1  18  -1
M  END
>  <UniqueID>  (42) 
39

>  <SMILES>  (42) 
COc1ccc(N(C)C(=O)c2s/c(=N\c3ccccc3OC)[n-]c2[O-])c(OC)c1

>  <Energy>  (42) 
97.28562738419065

>  <Genealogy>  (42) 
COc1ccc(N(C)C(=O)c2sc(=Nc3ccccc3OC)[n-]c2[O-])c(OC)c1 (protonated)
COc1ccc(N(C)C(=O)c2s/c(=N\c3ccccc3OC)[n-]c2[O-])c(OC)c1 (cis-trans isomerization)
COc1ccc(N(C)C(=O)c2s/c(=N\c3ccccc3OC)[n-]c2[O-])c(OC)c1 (3D coordinates assigned)
COc1ccc(N(C)C(=O)c2s/c(=N\c3ccccc3OC)[n-]c2[O-])c(OC)c1 (optimized conformer: 97.28562738419065 kcal/mol)

>  <smiles>  (42) 
COc1ccc(N(C)C(=O)c2sc(=Nc3ccccc3OC)[nH]c2O)c(OC)c1

>  <score_type>  (42) 
oracle

>  <origin>  (42) 
adgpu

>  <m_score__min__energy>  (42) 
-12.16

>  <m_primary>  (42) 
energy

$$$$
43:0
     RDKit          3D

 51 54  0  0  0  0  0  0  0  0999 V2000
   -6.8740   16.7950  -33.6660 C   0  0  0  0  0  0  0  0  0  0  0  0
   -6.1230   18.0460  -33.3190 C   0  0  0  0  0  0  0  0  0  0  0  0
   -6.8110   19.1780  -32.8560 C   0  0  0  0  0  0  0  0  0  0  0  0
   -6.1100   20.3390  -32.5170 C   0  0  0  0  0  0  0  0  0  0  0  0
   -4.7150   20.3810  -32.6390 C   0  0  0  0  0  0  0  0  0  0  0  0
   -3.8120   21.8240  -32.1880 S   0  0  0  0  0  0  0  0  0  0  0  0
   -2.5160   21.9240  -32.9430 O   0  0  0  0  0  0  0  0  0  0  0  0
   -4.6600   23.0020  -32.5840 O   0  0  0  0  0  0  0  0  0  0  0  0
   -3.4870   21.8640  -30.4370 C   0  0  0  0  0  0  0  0  0  0  0  0
   -2.5670   20.9160  -29.9560 C   0  0  0  0  0  0  0  0  0  0  0  0
   -2.1820   20.8990  -28.6230 C   0  0  0  0  0  0  0  0  0  0  0  0
   -2.7080   21.8250  -27.7370 C   0  0  0  0  0  0  0  0  0  0  0  0
   -3.6530   22.7640  -28.1620 C   0  0  0  0  0  0  0  0  0  0  0  0
   -4.2330   23.9280  -26.9120 S   0  0  0  0  0  0  0  0  0  0  0  0
   -2.7480   24.9300  -27.0010 C   0  0  0  0  0  0  0  0  0  0  0  0
   -2.0040   24.9810  -28.1850 C   0  0  0  0  0  0  0  0  0  0  0  0
   -0.8490   25.7660  -28.2340 C   0  0  0  0  0  0  0  0  0  0  0  0
   -0.4540   26.4890  -27.1070 C   0  0  0  0  0  0  0  0  0  0  0  0
   -1.2260   26.4190  -25.9460 C   0  0  0  0  0  0  0  0  0  0  0  0
   -2.3460   25.6500  -25.9180 N   0  0  0  0  0  0  0  0  0  0  0  0
   -4.0710   22.8030  -29.5250 C   0  0  0  0  0  0  0  0  0  0  0  0
   -5.2190   24.0760  -30.0610 S   0  0  0  0  0  0  0  0  0  0  0  0
   -5.5170   25.0320  -28.9440 O   0  0  0  0  0  0  0  0  0  0  0  0
   -4.6320   24.8920  -31.1760 O   0  0  0  0  0  0  0  0  0  0  0  0
   -6.7280   23.3700  -30.6360 C   0  0  0  0  0  0  0  0  0  0  0  0
   -7.3740   22.3560  -29.9100 C   0  0  0  0  0  0  0  0  0  0  0  0
   -8.5610   21.7950  -30.3890 C   0  0  0  0  0  0  0  0  0  0  0  0
   -9.1070   22.2360  -31.5980 C   0  0  0  0  0  0  0  0  0  0  0  0
   -8.4630   23.2370  -32.3300 C   0  0  0  0  0  0  0  0  0  0  0  0
   -7.2760   23.8000  -31.8530 C   0  0  0  0  0  0  0  0  0  0  0  0
   -4.0240   19.2410  -33.0700 C   0  0  0  0  0  0  0  0  0  0  0  0
   -4.7230   18.0780  -33.4050 C   0  0  0  0  0  0  0  0  0  0  0  0
   -7.1811   16.2834  -32.7419 H   0  0  0  0  0  0  0  0  0  0  0  0
   -7.7659   17.0543  -34.2553 H   0  0  0  0  0  0  0  0  0  0  0  0
   -6.2258   16.1297  -34.2553 H   0  0  0  0  0  0  0  0  0  0  0  0
   -7.9064   19.1517  -32.7594 H   0  0  0  0  0  0  0  0  0  0  0  0
   -6.6554   21.2223  -32.1533 H   0  0  0  0  0  0  0  0  0  0  0  0
   -2.1445   20.1739  -30.6493 H   0  0  0  0  0  0  0  0  0  0  0  0
   -1.4585   20.1496  -28.2695 H   0  0  0  0  0  0  0  0  0  0  0  0
   -2.3786   21.8216  -26.6875 H   0  0  0  0  0  0  0  0  0  0  0  0
   -2.3250   24.4091  -29.0681 H   0  0  0  0  0  0  0  0  0  0  0  0
   -0.2531   25.8141  -29.1574 H   0  0  0  0  0  0  0  0  0  0  0  0
    0.4556   27.1071  -27.1335 H   0  0  0  0  0  0  0  0  0  0  0  0
   -0.9273   26.9871  -25.0527 H   0  0  0  0  0  0  0  0  0  0  0  0
   -6.9442   22.0022  -28.9612 H   0  0  0  0  0  0  0  0  0  0  0  0
   -9.0664   21.0052  -29.8138 H   0  0  0  0  0  0  0  0  0  0  0  0
  -10.0427   21.7954  -31.9727 H   0  0  0  0  0  0  0  0  0  0  0  0
   -8.8907   23.5823  -33.2828 H   0  0  0  0  0  0  0  0  0  0  0  0
   -6.7694   24.5840  -32.4349 H   0  0  0  0  0  0  0  0  0  0  0  0
   -2.9268   19.2613  -33.1451 H   0  0  0  0  0  0  0  0  0  0  0  0
   -4.1737   17.1848  -33.7372 H   0  0  0  0  0  0  0  0  0  0  0  0
  1  2  1  0
  2  3  2  0
  3  4  1  0
  4  5  2  0
  5  6  1  0
  6  7  2  0
  6  8  2  0
  6  9  1  0
  9 10  2  0
 10 11  1  0
 11 12  2  0
 12 13  1  0
 13 14  1  0
 14 15  1  0
 15 16  2  0
 16 17  1  0
 17 18  2  0
 18 19  1  0
 19 20  2  0
 13 21  2  0
 21 22  1  0
 22 23  2  0
 22 24  2  0
 22 25  1  0
 25 26  2  0
 26 27  1  0
 27 28  2  0
 28 29  1  0
 29 30  2  0
  5 31  1  0
 31 32  2  0
 32  2  1  0
 21  9  1  0
 30 25  1  0
 20 15  1  0
  1 33  1  0
  1 34  1  0
  1 35  1  0
  3 36  1  0
  4 37  1  0
 10 38  1  0
 11 39  1  0
 12 40  1  0
 16 41  1  0
 17 42  1  0
 18 43  1  0
 19 44  1  0
 26 45  1  0
 27 46  1  0
 28 47  1  0
 29 48  1  0
 30 49  1  0
 31 50  1  0
 32 51  1  0
M  END
>  <UniqueID>  (43) 
40

>  <SMILES>  (43) 
Cc1ccc(S(=O)(=O)c2cccc(Sc3ccccn3)c2S(=O)(=O)c2ccccc2)cc1

>  <Energy>  (43) 
60.61291953425376

>  <Genealogy>  (43) 
Cc1ccc(S(=O)(=O)c2cccc(Sc3ccccn3)c2S(=O)(=O)c2ccccc2)cc1 (3D coordinates assigned)
Cc1ccc(S(=O)(=O)c2cccc(Sc3ccccn3)c2S(=O)(=O)c2ccccc2)cc1 (optimized conformer: 60.61291953425376 kcal/mol)

>  <smiles>  (43) 
Cc1ccc(S(=O)(=O)c2cccc(Sc3ccccn3)c2S(=O)(=O)c2ccccc2)cc1

>  <score_type>  (43) 
oracle

>  <origin>  (43) 
adgpu

>  <m_score__min__energy>  (43) 
-11.039999999999999

>  <m_primary>  (43) 
energy

$$$$
44:0
     RDKit          3D

 61 64  0  0  1  0  0  0  0  0999 V2000
   -8.7520   22.3150  -31.6010 C   0  0  0  0  0  0  0  0  0  0  0  0
   -7.8910   21.1510  -31.3390 N   0  0  0  0  0  0  0  0  0  0  0  0
   -8.7140   19.9960  -31.5880 C   0  0  0  0  0  0  0  0  0  0  0  0
   -8.3590   19.3260  -32.9080 C   0  0  0  0  0  0  0  0  0  0  0  0
   -6.9510   18.9490  -32.8310 N   0  0  0  0  0  0  0  0  0  0  0  0
   -6.6190   17.6170  -33.1440 C   0  0  0  0  0  0  0  0  0  0  0  0
   -7.5780   16.8510  -33.4700 O   0  0  0  0  0  0  0  0  0  0  0  0
   -5.2980   17.0420  -33.1310 C   0  0  0  0  0  0  0  0  0  0  0  0
   -5.1450   15.7900  -32.5570 C   0  0  0  0  0  0  0  0  0  0  0  0
   -3.9010   15.1560  -32.5010 C   0  0  0  0  0  0  0  0  0  0  0  0
   -2.7740   15.7640  -33.0210 C   0  0  0  0  0  0  0  0  0  0  0  0
   -2.9170   17.0100  -33.5930 C   0  0  0  0  0  0  0  0  0  0  0  0
   -1.8420   17.7470  -34.1600 N   0  0  0  0  0  0  0  0  0  0  0  0
   -1.7070   18.9880  -33.9340 C   0  0  0  0  0  0  0  0  0  0  0  0
   -2.5730   19.6980  -33.1380 C   0  0  0  0  0  0  0  0  0  0  0  0
   -2.4210   21.0690  -32.8950 C   0  0  0  0  0  0  0  0  0  0  0  0
   -3.3100   21.7450  -32.0370 N   0  0  0  0  0  0  0  0  0  0  0  0
   -3.2390   21.8430  -30.6370 C   0  0  0  0  0  0  0  0  0  0  0  0
   -2.5110   20.8310  -29.9910 C   0  0  0  0  0  0  0  0  0  0  0  0
   -2.3940   20.7720  -28.6230 C   0  0  0  0  0  0  0  0  0  0  0  0
   -3.0200   21.7440  -27.8860 C   0  0  0  0  0  0  0  0  0  0  0  0
   -3.7310   22.7290  -28.5210 C   0  0  0  0  0  0  0  0  0  0  0  0
   -3.8740   22.8270  -29.8900 C   0  0  0  0  0  0  0  0  0  0  0  0
   -4.8160   24.0790  -30.6050 S   0  0  0  0  0  0  0  0  0  0  0  0
   -6.0830   24.6810  -29.5130 C   0  0  0  0  0  0  0  0  0  0  0  0
   -3.8690   25.2770  -30.7880 O   0  0  0  0  0  0  0  0  0  0  0  0
   -5.2980   23.7700  -31.9740 O   0  0  0  0  0  0  0  0  0  0  0  0
   -1.3620   21.6390  -33.5010 N   0  0  0  0  0  0  0  0  0  0  0  0
   -0.5040   20.9510  -34.2860 C   0  0  0  0  0  0  0  0  0  0  0  0
    0.4860   21.6160  -34.8210 N   0  0  0  0  0  0  0  0  0  0  0  0
   -0.6570   19.6350  -34.5130 N   0  0  0  0  0  0  0  0  0  0  0  0
   -4.1680   17.6400  -33.6460 C   0  0  0  0  0  0  0  0  0  0  0  0
   -6.0140   19.9750  -32.4390 C   0  0  0  0  0  0  0  0  0  0  0  0
   -6.7850   21.2830  -32.2630 C   0  0  0  0  0  0  0  0  0  0  0  0
   -9.0764   22.7535  -30.6458 H   0  0  0  0  0  0  0  0  0  0  0  0
   -8.1896   23.0650  -32.1766 H   0  0  0  0  0  0  0  0  0  0  0  0
   -9.6337   21.9967  -32.1766 H   0  0  0  0  0  0  0  0  0  0  0  0
   -8.5704   19.2732  -30.7713 H   0  0  0  0  0  0  0  0  0  0  0  0
   -9.7618   20.3266  -31.6420 H   0  0  0  0  0  0  0  0  0  0  0  0
   -8.9818   18.4316  -33.0570 H   0  0  0  0  0  0  0  0  0  0  0  0
   -8.5371   20.0065  -33.7537 H   0  0  0  0  0  0  0  0  0  0  0  0
   -6.0249   15.2825  -32.1349 H   0  0  0  0  0  0  0  0  0  0  0  0
   -3.8178   14.1618  -32.0378 H   0  0  0  0  0  0  0  0  0  0  0  0
   -1.7927   15.2686  -32.9797 H   0  0  0  0  0  0  0  0  0  0  0  0
   -3.4184   19.1693  -32.6736 H   0  0  0  0  0  0  0  0  0  0  0  0
   -4.1340   22.2440  -32.4950 H   0  0  0  0  0  0  0  0  0  0  0  0
   -2.0177   20.0594  -30.6004 H   0  0  0  0  0  0  0  0  0  0  0  0
   -1.8175   19.9719  -28.1357 H   0  0  0  0  0  0  0  0  0  0  0  0
   -2.9519   21.7334  -26.7882 H   0  0  0  0  0  0  0  0  0  0  0  0
   -4.2201   23.4921  -27.8978 H   0  0  0  0  0  0  0  0  0  0  0  0
   -5.7689   24.5318  -28.4694 H   0  0  0  0  0  0  0  0  0  0  0  0
   -6.2466   25.7531  -29.6969 H   0  0  0  0  0  0  0  0  0  0  0  0
   -7.0175   24.1306  -29.6969 H   0  0  0  0  0  0  0  0  0  0  0  0
   -1.2470   22.6760  -33.3160 H   0  0  0  0  0  0  0  0  0  0  0  0
    0.5380   22.6330  -34.6000 H   0  0  0  0  0  0  0  0  0  0  0  0
    0.0290   19.1570  -35.1220 H   0  0  0  0  0  0  0  0  0  0  0  0
   -4.2498   18.6344  -34.1092 H   0  0  0  0  0  0  0  0  0  0  0  0
   -5.5318   19.6963  -31.4904 H   0  0  0  0  0  0  0  0  0  0  0  0
   -5.2357   20.0928  -33.2074 H   0  0  0  0  0  0  0  0  0  0  0  0
   -6.0958   22.0509  -31.8817 H   0  0  0  0  0  0  0  0  0  0  0  0
   -7.1982   21.5634  -33.2431 H   0  0  0  0  0  0  0  0  0  0  0  0
  1  2  1  0
  2  3  1  0
  3  4  1  0
  4  5  1  0
  5  6  1  0
  6  7  2  0
  6  8  1  0
  8  9  2  0
  9 10  1  0
 10 11  2  0
 11 12  1  0
 12 13  1  0
 13 14  2  0
 14 15  1  0
 15 16  2  0
 16 17  1  0
 17 18  1  0
 18 19  2  0
 19 20  1  0
 20 21  2  0
 21 22  1  0
 22 23  2  0
 23 24  1  0
 24 25  1  0
 24 26  2  0
 24 27  2  0
 16 28  1  0
 28 29  1  0
 29 30  2  3
 29 31  1  0
 12 32  2  0
  5 33  1  0
 33 34  1  0
 34  2  1  0
 32  8  1  0
 31 14  1  0
 23 18  1  0
  1 35  1  0
  1 36  1  0
  1 37  1  0
  3 38  1  0
  3 39  1  0
  4 40  1  0
  4 41  1  0
  9 42  1  0
 10 43  1  0
 11 44  1  0
 15 45  1  0
 17 46  1  0
 19 47  1  0
 20 48  1  0
 21 49  1  0
 22 50  1  0
 25 51  1  0
 25 52  1  0
 25 53  1  0
 28 54  1  0
 30 55  1  0
 31 56  1  0
 32 57  1  0
 33 58  1  0
 33 59  1  0
 34 60  1  0
 34 61  1  0
M  END
>  <smiles>  (44) 
CN1CCN(C(=O)c2cccc(N=c3cc(Nc4ccccc4S(C)(=O)=O)[nH]c(=N)[nH]3)c2)CC1

>  <score_type>  (44) 
oracle

>  <origin>  (44) 
adgpu

>  <m_score__min__energy>  (44) 
-10.949999999999999

>  <m_primary>  (44) 
energy

$$$$
45:0
     RDKit          3D

 42 44  0  0  0  0  0  0  0  0999 V2000
   -2.4950   18.1820  -25.9620 C   0  0  0  0  0  0  0  0  0  0  0  0
   -2.2870   19.2220  -27.0230 C   0  0  0  0  0  0  0  0  0  0  0  0
   -3.1750   20.3020  -27.1360 C   0  0  0  0  0  0  0  0  0  0  0  0
   -2.9640   21.2890  -28.1020 C   0  0  0  0  0  0  0  0  0  0  0  0
   -1.8640   21.2050  -28.9670 C   0  0  0  0  0  0  0  0  0  0  0  0
   -1.6010   22.4350  -30.1980 S   0  0  0  0  0  0  0  0  0  0  0  0
   -2.0750   23.7770  -29.7130 O   0  0  0  0  0  0  0  0  0  0  0  0
   -0.1260   22.5150  -30.4730 O   0  0  0  0  0  0  0  0  0  0  0  0
   -2.4520   22.0360  -31.6890 C   0  0  0  0  0  0  0  0  0  0  0  0
   -1.8840   21.4020  -32.7760 C   0  0  0  0  0  0  0  0  0  0  0  0
   -2.8000   21.2550  -33.7500 N   0  0  0  0  0  0  0  0  0  0  0  0
   -3.9510   21.7890  -33.3030 C   0  0  0  0  0  0  0  0  0  0  0  0
   -3.7740   22.2850  -32.0270 C   0  0  0  0  0  0  0  0  0  0  0  0
   -5.0300   23.0570  -31.0630 S   0  0  0  0  0  0  0  0  0  0  0  0
   -4.9900   24.5390  -31.3040 O   0  0  0  0  0  0  0  0  0  0  0  0
   -4.7700   22.8000  -29.6050 O   0  0  0  0  0  0  0  0  0  0  0  0
   -6.6160   22.4040  -31.4600 C   0  0  0  0  0  0  0  0  0  0  0  0
   -7.7020   23.2720  -31.6290 C   0  0  0  0  0  0  0  0  0  0  0  0
   -8.9710   22.7610  -31.9130 C   0  0  0  0  0  0  0  0  0  0  0  0
   -9.1600   21.3810  -32.0380 C   0  0  0  0  0  0  0  0  0  0  0  0
   -8.0720   20.5060  -31.9020 C   0  0  0  0  0  0  0  0  0  0  0  0
   -8.2780   19.0220  -31.9860 C   0  0  0  0  0  0  0  0  0  0  0  0
   -6.8020   21.0220  -31.6080 C   0  0  0  0  0  0  0  0  0  0  0  0
   -0.9560   20.1470  -28.8320 C   0  0  0  0  0  0  0  0  0  0  0  0
   -1.1650   19.1610  -27.8630 C   0  0  0  0  0  0  0  0  0  0  0  0
   -2.4020   18.6470  -24.9695 H   0  0  0  0  0  0  0  0  0  0  0  0
   -3.4985   17.7443  -26.0693 H   0  0  0  0  0  0  0  0  0  0  0  0
   -1.7371   17.3921  -26.0693 H   0  0  0  0  0  0  0  0  0  0  0  0
   -4.0410   20.3721  -26.4613 H   0  0  0  0  0  0  0  0  0  0  0  0
   -3.6630   22.1344  -28.1841 H   0  0  0  0  0  0  0  0  0  0  0  0
   -0.8380   21.0669  -32.8365 H   0  0  0  0  0  0  0  0  0  0  0  0
   -2.6460   20.8090  -34.6810 H   0  0  0  0  0  0  0  0  0  0  0  0
   -4.8930   21.8250  -33.8699 H   0  0  0  0  0  0  0  0  0  0  0  0
   -7.5556   24.3584  -31.5380 H   0  0  0  0  0  0  0  0  0  0  0  0
   -9.8230   23.4454  -32.0385 H   0  0  0  0  0  0  0  0  0  0  0  0
  -10.1638   20.9809  -32.2434 H   0  0  0  0  0  0  0  0  0  0  0  0
   -8.3363   18.6019  -30.9711 H   0  0  0  0  0  0  0  0  0  0  0  0
   -9.2140   18.8116  -32.5243 H   0  0  0  0  0  0  0  0  0  0  0  0
   -7.4347   18.5646  -32.5243 H   0  0  0  0  0  0  0  0  0  0  0  0
   -5.9472   20.3393  -31.4928 H   0  0  0  0  0  0  0  0  0  0  0  0
   -0.0763   20.0917  -29.4900 H   0  0  0  0  0  0  0  0  0  0  0  0
   -0.4469   18.3342  -27.7589 H   0  0  0  0  0  0  0  0  0  0  0  0
  1  2  1  0
  2  3  2  0
  3  4  1  0
  4  5  2  0
  5  6  1  0
  6  7  2  0
  6  8  2  0
  6  9  1  0
  9 10  2  0
 10 11  1  0
 11 12  1  0
 12 13  2  0
 13 14  1  0
 14 15  2  0
 14 16  2  0
 14 17  1  0
 17 18  2  0
 18 19  1  0
 19 20  2  0
 20 21  1  0
 21 22  1  0
 21 23  2  0
  5 24  1  0
 24 25  2  0
 25  2  1  0
 13  9  1  0
 23 17  1  0
  1 26  1  0
  1 27  1  0
  1 28  1  0
  3 29  1  0
  4 30  1  0
 10 31  1  0
 11 32  1  0
 12 33  1  0
 18 34  1  0
 19 35  1  0
 20 36  1  0
 22 37  1  0
 22 38  1  0
 22 39  1  0
 23 40  1  0
 24 41  1  0
 25 42  1  0
M  END
>  <UniqueID>  (45) 
41

>  <SMILES>  (45) 
Cc1ccc(S(=O)(=O)c2c[nH]cc2S(=O)(=O)c2cccc(C)c2)cc1

>  <Energy>  (45) 
69.0625309334081

>  <Genealogy>  (45) 
Cc1ccc(S(=O)(=O)c2c[nH]cc2S(=O)(=O)c2cccc(C)c2)cc1 (3D coordinates assigned)
Cc1ccc(S(=O)(=O)c2c[nH]cc2S(=O)(=O)c2cccc(C)c2)cc1 (optimized conformer: 69.0625309334081 kcal/mol)

>  <smiles>  (45) 
Cc1ccc(S(=O)(=O)c2c[nH]cc2S(=O)(=O)c2cccc(C)c2)cc1

>  <score_type>  (45) 
oracle

>  <origin>  (45) 
adgpu

>  <m_score__min__energy>  (45) 
-9.2200000000000006

>  <m_primary>  (45) 
energy

$$$$
46:0
     RDKit          3D

 55 58  0  0  0  0  0  0  0  0999 V2000
    1.4200   28.9900  -24.2380 C   0  0  0  0  0  0  0  0  0  0  0  0
    0.2600   28.1880  -23.8090 N   0  0  0  0  0  0  0  0  0  0  0  0
   -0.8440   28.2700  -24.8050 C   0  0  0  0  0  0  0  0  0  0  0  0
   -0.8940   27.0340  -25.7140 C   0  0  0  0  0  0  0  0  0  0  0  0
   -1.1340   25.8070  -24.9270 N   0  0  0  0  0  0  0  0  0  0  0  0
   -0.6790   24.3940  -25.8500 S   0  0  0  0  0  0  0  0  0  0  0  0
    0.7850   24.4690  -26.1850 O   0  0  0  0  0  0  0  0  0  0  0  0
   -0.9040   23.1610  -25.0210 O   0  0  0  0  0  0  0  0  0  0  0  0
   -1.6100   24.2670  -27.3460 C   0  0  0  0  0  0  0  0  0  0  0  0
   -0.9910   23.8480  -28.5310 C   0  0  0  0  0  0  0  0  0  0  0  0
   -1.7230   23.7670  -29.7190 C   0  0  0  0  0  0  0  0  0  0  0  0
   -3.0930   24.0890  -29.7300 C   0  0  0  0  0  0  0  0  0  0  0  0
   -3.8620   24.0250  -30.9020 O   0  0  0  0  0  0  0  0  0  0  0  0
   -4.8770   23.0880  -31.1390 C   0  0  0  0  0  0  0  0  0  0  0  0
   -4.5500   21.9050  -31.8110 C   0  0  0  0  0  0  0  0  0  0  0  0
   -5.5260   20.9360  -32.0560 C   0  0  0  0  0  0  0  0  0  0  0  0
   -6.8470   21.1460  -31.6410 C   0  0  0  0  0  0  0  0  0  0  0  0
   -8.0790   19.9190  -31.9160 S   0  0  0  0  0  0  0  0  0  0  0  0
   -8.7710   20.1460  -33.2320 O   0  0  0  0  0  0  0  0  0  0  0  0
   -9.0960   19.9950  -30.8120 O   0  0  0  0  0  0  0  0  0  0  0  0
   -7.3540   18.3430  -31.9170 N   0  0  0  0  0  0  0  0  0  0  0  0
   -6.5780   17.8970  -32.8580 C   0  0  0  0  0  0  0  0  0  0  0  0
   -6.0310   16.6650  -32.8140 N   0  0  0  0  0  0  0  0  0  0  0  0
   -5.2540   16.4230  -33.9040 C   0  0  0  0  0  0  0  0  0  0  0  0
   -5.1810   17.4640  -34.8230 C   0  0  0  0  0  0  0  0  0  0  0  0
   -6.1240   18.7340  -34.2500 S   0  0  0  0  0  0  0  0  0  0  0  0
   -7.1900   22.3430  -30.9980 C   0  0  0  0  0  0  0  0  0  0  0  0
   -6.2140   23.3190  -30.7500 C   0  0  0  0  0  0  0  0  0  0  0  0
   -6.6130   24.5650  -30.1440 C   0  0  0  0  0  0  0  0  0  0  0  0
   -6.9320   25.5660  -29.6570 N   0  0  0  0  0  0  0  0  0  0  0  0
   -3.7060   24.5150  -28.5470 C   0  0  0  0  0  0  0  0  0  0  0  0
   -2.9730   24.5960  -27.3590 C   0  0  0  0  0  0  0  0  0  0  0  0
   -0.4940   25.8170  -23.5900 C   0  0  0  0  0  0  0  0  0  0  0  0
    0.6870   26.7970  -23.5130 C   0  0  0  0  0  0  0  0  0  0  0  0
    1.9568   29.3611  -23.3525 H   0  0  0  0  0  0  0  0  0  0  0  0
    2.0952   28.3649  -24.8408 H   0  0  0  0  0  0  0  0  0  0  0  0
    1.0736   29.8424  -24.8408 H   0  0  0  0  0  0  0  0  0  0  0  0
   -0.0880   28.6110  -22.9160 H   0  0  0  0  0  0  0  0  0  0  0  0
   -1.8005   28.3546  -24.2683 H   0  0  0  0  0  0  0  0  0  0  0  0
   -0.6634   29.1503  -25.4395 H   0  0  0  0  0  0  0  0  0  0  0  0
   -1.7070   27.1575  -26.4446 H   0  0  0  0  0  0  0  0  0  0  0  0
    0.0741   26.9372  -26.2273 H   0  0  0  0  0  0  0  0  0  0  0  0
    0.0762   23.5815  -28.5264 H   0  0  0  0  0  0  0  0  0  0  0  0
   -1.2267   23.4506  -30.6483 H   0  0  0  0  0  0  0  0  0  0  0  0
   -3.5168   21.7368  -32.1489 H   0  0  0  0  0  0  0  0  0  0  0  0
   -5.2561   20.0052  -32.5764 H   0  0  0  0  0  0  0  0  0  0  0  0
   -4.7213   15.4715  -34.0482 H   0  0  0  0  0  0  0  0  0  0  0  0
   -4.6067   17.4582  -35.7612 H   0  0  0  0  0  0  0  0  0  0  0  0
   -8.2303   22.5179  -30.6862 H   0  0  0  0  0  0  0  0  0  0  0  0
   -4.7716   24.7880  -28.5513 H   0  0  0  0  0  0  0  0  0  0  0  0
   -3.4675   24.9191  -26.4310 H   0  0  0  0  0  0  0  0  0  0  0  0
   -1.2449   26.1092  -22.8411 H   0  0  0  0  0  0  0  0  0  0  0  0
   -0.1043   24.8066  -23.3972 H   0  0  0  0  0  0  0  0  0  0  0  0
    1.1148   26.7623  -22.5002 H   0  0  0  0  0  0  0  0  0  0  0  0
    1.4332   26.4979  -24.2638 H   0  0  0  0  0  0  0  0  0  0  0  0
  1  2  1  0
  2  3  1  0
  3  4  1  0
  4  5  1  0
  5  6  1  0
  6  7  2  0
  6  8  2  0
  6  9  1  0
  9 10  2  0
 10 11  1  0
 11 12  2  0
 12 13  1  0
 13 14  1  0
 14 15  2  0
 15 16  1  0
 16 17  2  0
 17 18  1  0
 18 19  2  0
 18 20  2  0
 18 21  1  0
 21 22  2  3
 22 23  1  0
 23 24  1  0
 24 25  2  0
 25 26  1  0
 17 27  1  0
 27 28  2  0
 28 29  1  0
 29 30  3  0
 12 31  1  0
 31 32  2  0
  5 33  1  0
 33 34  1  0
 34  2  1  0
 32  9  1  0
 28 14  1  0
 26 22  1  0
  1 35  1  0
  1 36  1  0
  1 37  1  0
  2 38  1  0
  3 39  1  0
  3 40  1  0
  4 41  1  0
  4 42  1  0
 10 43  1  0
 11 44  1  0
 15 45  1  0
 16 46  1  0
 24 47  1  0
 25 48  1  0
 27 49  1  0
 31 50  1  0
 32 51  1  0
 33 52  1  0
 33 53  1  0
 34 54  1  0
 34 55  1  0
M  CHG  2   2   1  23  -1
M  END
>  <UniqueID>  (46) 
42

>  <SMILES>  (46) 
C[NH+]1CCN(S(=O)(=O)c2ccc(Oc3ccc(S(=O)(=O)N=c4[n-]ccs4)cc3C#N)cc2)CC1

>  <Energy>  (46) 
108.57712826544743

>  <Genealogy>  (46) 
C[NH+]1CCN(S(=O)(=O)c2ccc(Oc3ccc(S(=O)(=O)N=c4[n-]ccs4)cc3C#N)cc2)CC1 (protonated)
C[NH+]1CCN(S(=O)(=O)c2ccc(Oc3ccc(S(=O)(=O)N=c4[n-]ccs4)cc3C#N)cc2)CC1 (3D coordinates assigned)
C[NH+]1CCN(S(=O)(=O)c2ccc(Oc3ccc(S(=O)(=O)N=c4[n-]ccs4)cc3C#N)cc2)CC1 (nonaromatic ring conformer: 108.57712826544743 kcal/mol)

>  <smiles>  (46) 
CN1CCN(S(=O)(=O)c2ccc(Oc3ccc(S(=O)(=O)N=c4[nH]ccs4)cc3C#N)cc2)CC1

>  <score_type>  (46) 
oracle

>  <origin>  (46) 
adgpu

>  <m_score__min__energy>  (46) 
-11.34

>  <m_primary>  (46) 
energy

$$$$
47:0
     RDKit          3D

 56 60  0  0  0  0  0  0  0  0999 V2000
   -3.9560   24.1580  -31.0900 O   0  0  0  0  0  0  0  0  0  0  0  0
   -3.7690   23.5010  -29.7520 S   0  0  0  0  0  0  0  0  0  0  0  0
   -5.0700   22.8670  -29.3450 O   0  0  0  0  0  0  0  0  0  0  0  0
   -3.3170   24.7030  -28.5870 N   0  0  0  0  0  0  0  0  0  0  0  0
   -2.0960   24.7140  -27.8350 C   0  0  0  0  0  0  0  0  0  0  0  0
   -1.9050   23.8900  -26.7100 C   0  0  0  0  0  0  0  0  0  0  0  0
   -0.6960   23.9250  -26.0060 C   0  0  0  0  0  0  0  0  0  0  0  0
   -0.4550   22.8710  -24.6260 Cl  0  0  0  0  0  0  0  0  0  0  0  0
    0.3270   24.7850  -26.4150 C   0  0  0  0  0  0  0  0  0  0  0  0
    0.1390   25.6160  -27.5210 C   0  0  0  0  0  0  0  0  0  0  0  0
   -1.0660   25.5820  -28.2310 C   0  0  0  0  0  0  0  0  0  0  0  0
   -1.2350   26.4090  -29.3390 O   0  0  0  0  0  0  0  0  0  0  0  0
   -2.4910   22.2980  -29.8830 C   0  0  0  0  0  0  0  0  0  0  0  0
   -2.0820   21.5890  -28.7280 C   0  0  0  0  0  0  0  0  0  0  0  0
   -1.0770   20.6090  -28.8060 C   0  0  0  0  0  0  0  0  0  0  0  0
   -0.5010   20.3600  -30.0490 C   0  0  0  0  0  0  0  0  0  0  0  0
    0.4530   19.4470  -30.3240 N   0  0  0  0  0  0  0  0  0  0  0  0
    0.6570   19.5730  -31.6560 C   0  0  0  0  0  0  0  0  0  0  0  0
    1.5300   18.7610  -32.3670 O   0  0  0  0  0  0  0  0  0  0  0  0
   -0.1440   20.5660  -32.2070 C   0  0  0  0  0  0  0  0  0  0  0  0
   -0.3130   20.8840  -33.5970 N   0  0  0  0  0  0  0  0  0  0  0  0
   -1.3030   20.5140  -34.3160 N   0  0  0  0  0  0  0  0  0  0  0  0
   -2.3120   19.5800  -33.9040 C   0  0  0  0  0  0  0  0  0  0  0  0
   -1.9600   18.2460  -33.6670 C   0  0  0  0  0  0  0  0  0  0  0  0
   -2.9290   17.3270  -33.2550 C   0  0  0  0  0  0  0  0  0  0  0  0
   -4.2470   17.7430  -33.0490 C   0  0  0  0  0  0  0  0  0  0  0  0
   -4.6040   19.0850  -33.2440 C   0  0  0  0  0  0  0  0  0  0  0  0
   -6.2560   19.6250  -32.9240 S   0  0  0  0  0  0  0  0  0  0  0  0
   -7.0280   18.4880  -32.3120 O   0  0  0  0  0  0  0  0  0  0  0  0
   -6.9150   19.9810  -34.2270 O   0  0  0  0  0  0  0  0  0  0  0  0
   -6.3330   21.0120  -31.8630 N   0  0  0  0  0  0  0  0  0  0  0  0
   -6.0140   22.2540  -32.5600 C   0  0  0  0  0  0  0  0  0  0  0  0
   -6.6360   23.3560  -31.7300 C   0  0  0  0  0  0  0  0  0  0  0  0
   -7.8630   22.7130  -31.1110 C   0  0  0  0  0  0  0  0  0  0  0  0
   -7.6620   21.2080  -31.2790 C   0  0  0  0  0  0  0  0  0  0  0  0
   -3.6300   20.0030  -33.6610 C   0  0  0  0  0  0  0  0  0  0  0  0
   -0.8980   21.0450  -31.1700 C   0  0  0  0  0  0  0  0  0  0  0  0
   -1.8890   22.0240  -31.1290 C   0  0  0  0  0  0  0  0  0  0  0  0
   -2.7098   23.2154  -26.3826 H   0  0  0  0  0  0  0  0  0  0  0  0
    1.2798   24.8071  -25.8657 H   0  0  0  0  0  0  0  0  0  0  0  0
    0.9412   26.2999  -27.8353 H   0  0  0  0  0  0  0  0  0  0  0  0
   -2.5555   21.8071  -27.7594 H   0  0  0  0  0  0  0  0  0  0  0  0
   -0.7552   20.0554  -27.9116 H   0  0  0  0  0  0  0  0  0  0  0  0
   -0.9185   17.9204  -33.8053 H   0  0  0  0  0  0  0  0  0  0  0  0
   -2.6537   16.2745  -33.0926 H   0  0  0  0  0  0  0  0  0  0  0  0
   -5.0079   17.0145  -32.7324 H   0  0  0  0  0  0  0  0  0  0  0  0
   -4.9243   22.3897  -32.6241 H   0  0  0  0  0  0  0  0  0  0  0  0
   -6.3985   22.2534  -33.5906 H   0  0  0  0  0  0  0  0  0  0  0  0
   -5.9393   23.6967  -30.9499 H   0  0  0  0  0  0  0  0  0  0  0  0
   -6.8845   24.2441  -32.3296 H   0  0  0  0  0  0  0  0  0  0  0  0
   -7.9380   22.9745  -30.0452 H   0  0  0  0  0  0  0  0  0  0  0  0
   -8.7909   23.0574  -31.5909 H   0  0  0  0  0  0  0  0  0  0  0  0
   -7.7215   20.7082  -30.3009 H   0  0  0  0  0  0  0  0  0  0  0  0
   -8.4408   20.7796  -31.9270 H   0  0  0  0  0  0  0  0  0  0  0  0
   -3.8989   21.0607  -33.7988 H   0  0  0  0  0  0  0  0  0  0  0  0
   -2.1916   22.5649  -32.0377 H   0  0  0  0  0  0  0  0  0  0  0  0
  1  2  2  0
  2  3  2  0
  2  4  1  0
  4  5  1  0
  5  6  2  0
  6  7  1  0
  7  8  1  0
  7  9  2  0
  9 10  1  0
 10 11  2  0
 11 12  1  0
  2 13  1  0
 13 14  2  0
 14 15  1  0
 15 16  2  0
 16 17  1  0
 17 18  1  0
 18 19  1  0
 18 20  2  0
 20 21  1  0
 21 22  2  3
 22 23  1  0
 23 24  2  0
 24 25  1  0
 25 26  2  0
 26 27  1  0
 27 28  1  0
 28 29  2  0
 28 30  2  0
 28 31  1  0
 31 32  1  0
 32 33  1  0
 33 34  1  0
 34 35  1  0
 27 36  2  0
 20 37  1  0
 37 38  2  0
 11  5  1  0
 38 13  1  0
 37 16  1  0
 36 23  1  0
 35 31  1  0
  6 39  1  0
  9 40  1  0
 10 41  1  0
 14 42  1  0
 15 43  1  0
 24 44  1  0
 25 45  1  0
 26 46  1  0
 32 47  1  0
 32 48  1  0
 33 49  1  0
 33 50  1  0
 34 51  1  0
 34 52  1  0
 35 53  1  0
 35 54  1  0
 36 55  1  0
 38 56  1  0
M  CHG  4   4  -1  12  -1  17  -1  19  -1
M  END
>  <UniqueID>  (47) 
43

>  <SMILES>  (47) 
O=S(=O)([N-]c1cc(Cl)ccc1[O-])c1ccc2[n-]c([O-])c(N=Nc3cccc(S(=O)(=O)N4CCCC4)c3)c2c1

>  <Energy>  (47) 
110.1166559898598

>  <Genealogy>  (47) 
O=S(=O)([N-]c1cc(Cl)ccc1[O-])c1ccc2[n-]c([O-])c(N=Nc3cccc(S(=O)(=O)N4CCCC4)c3)c2c1 (protonated)
O=S(=O)([N-]c1cc(Cl)ccc1[O-])c1ccc2[n-]c([O-])c(N=Nc3cccc(S(=O)(=O)N4CCCC4)c3)c2c1 (3D coordinates assigned)
O=S(=O)([N-]c1cc(Cl)ccc1[O-])c1ccc2[n-]c([O-])c(N=Nc3cccc(S(=O)(=O)N4CCCC4)c3)c2c1 (nonaromatic ring conformer: 110.1166559898598 kcal/mol)

>  <smiles>  (47) 
O=S(=O)(Nc1cc(Cl)ccc1O)c1ccc2[nH]c(O)c(N=Nc3cccc(S(=O)(=O)N4CCCC4)c3)c2c1

>  <score_type>  (47) 
oracle

>  <origin>  (47) 
adgpu

>  <m_score__min__energy>  (47) 
-15.119999999999999

>  <m_primary>  (47) 
energy

$$$$
48:0
     RDKit          3D

 42 44  0  0  0  0  0  0  0  0999 V2000
   -0.1740   24.5770  -26.9670 C   0  0  0  0  0  0  0  0  0  0  0  0
   -1.2510   24.3450  -27.9210 N   0  0  0  0  0  0  0  0  0  0  0  0
   -2.0160   23.2350  -28.0050 C   0  0  0  0  0  0  0  0  0  0  0  0
   -2.9940   23.4080  -28.9790 C   0  0  0  0  0  0  0  0  0  0  0  0
   -4.0170   22.4310  -29.4060 C   0  0  0  0  0  0  0  0  0  0  0  0
   -3.6510   21.3220  -29.8770 O   0  0  0  0  0  0  0  0  0  0  0  0
   -5.4190   22.6850  -29.2530 N   0  0  0  0  0  0  0  0  0  0  0  0
   -6.4000   22.6800  -30.3000 C   0  0  0  0  0  0  0  0  0  0  0  0
   -7.0140   21.4670  -30.6360 C   0  0  0  0  0  0  0  0  0  0  0  0
   -7.9840   21.4150  -31.6470 C   0  0  0  0  0  0  0  0  0  0  0  0
   -8.7520   19.8860  -32.0630 S   0  0  0  0  0  0  0  0  0  0  0  0
  -10.0460   20.1620  -32.7780 O   0  0  0  0  0  0  0  0  0  0  0  0
   -9.0550   19.1120  -30.8090 O   0  0  0  0  0  0  0  0  0  0  0  0
   -7.6930   18.9730  -33.1080 N   0  0  0  0  0  0  0  0  0  0  0  0
   -6.5590   19.7820  -33.5530 C   0  0  0  0  0  0  0  0  0  0  0  0
   -5.4230   18.8140  -33.8400 C   0  0  0  0  0  0  0  0  0  0  0  0
   -5.7770   17.5420  -33.0850 C   0  0  0  0  0  0  0  0  0  0  0  0
   -7.1060   17.8330  -32.4050 C   0  0  0  0  0  0  0  0  0  0  0  0
   -8.3180   22.5800  -32.3460 C   0  0  0  0  0  0  0  0  0  0  0  0
   -7.6870   23.7880  -32.0410 C   0  0  0  0  0  0  0  0  0  0  0  0
   -6.7190   23.8450  -31.0300 C   0  0  0  0  0  0  0  0  0  0  0  0
   -6.0600   25.0470  -30.7690 O   0  0  0  0  0  0  0  0  0  0  0  0
   -2.7980   24.6780  -29.4920 C   0  0  0  0  0  0  0  0  0  0  0  0
   -3.5400   25.2940  -30.4920 O   0  0  0  0  0  0  0  0  0  0  0  0
   -1.7350   25.2270  -28.8160 C   0  0  0  0  0  0  0  0  0  0  0  0
   -1.2290   26.5060  -29.0110 O   0  0  0  0  0  0  0  0  0  0  0  0
   -0.5667   24.4924  -25.9430 H   0  0  0  0  0  0  0  0  0  0  0  0
    0.6179   23.8288  -27.1190 H   0  0  0  0  0  0  0  0  0  0  0  0
    0.2397   25.5849  -27.1190 H   0  0  0  0  0  0  0  0  0  0  0  0
   -1.8852   22.3294  -27.3944 H   0  0  0  0  0  0  0  0  0  0  0  0
   -6.7329   20.5472  -30.1022 H   0  0  0  0  0  0  0  0  0  0  0  0
   -6.8236   20.3380  -34.4645 H   0  0  0  0  0  0  0  0  0  0  0  0
   -6.2706   20.5171  -32.7872 H   0  0  0  0  0  0  0  0  0  0  0  0
   -5.3512   18.6138  -34.9192 H   0  0  0  0  0  0  0  0  0  0  0  0
   -4.4501   19.2196  -33.5254 H   0  0  0  0  0  0  0  0  0  0  0  0
   -5.8779   16.6965  -33.7814 H   0  0  0  0  0  0  0  0  0  0  0  0
   -4.9976   17.2665  -32.3593 H   0  0  0  0  0  0  0  0  0  0  0  0
   -7.7696   16.9588  -32.4786 H   0  0  0  0  0  0  0  0  0  0  0  0
   -6.9654   18.0547  -31.3368 H   0  0  0  0  0  0  0  0  0  0  0  0
   -9.0801   22.5444  -33.1384 H   0  0  0  0  0  0  0  0  0  0  0  0
   -7.9514   24.6993  -32.5974 H   0  0  0  0  0  0  0  0  0  0  0  0
   -5.1530   25.0690  -30.3200 H   0  0  0  0  0  0  0  0  0  0  0  0
  1  2  1  0
  2  3  1  0
  3  4  2  0
  4  5  1  0
  5  6  2  0
  5  7  1  0
  7  8  1  0
  8  9  2  0
  9 10  1  0
 10 11  1  0
 11 12  2  0
 11 13  2  0
 11 14  1  0
 14 15  1  0
 15 16  1  0
 16 17  1  0
 17 18  1  0
 10 19  2  0
 19 20  1  0
 20 21  2  0
 21 22  1  0
  4 23  1  0
 23 24  1  0
 23 25  2  0
 25 26  1  0
 25  2  1  0
 21  8  1  0
 18 14  1  0
  1 27  1  0
  1 28  1  0
  1 29  1  0
  3 30  1  0
  9 31  1  0
 15 32  1  0
 15 33  1  0
 16 34  1  0
 16 35  1  0
 17 36  1  0
 17 37  1  0
 18 38  1  0
 18 39  1  0
 19 40  1  0
 20 41  1  0
 22 42  1  0
M  CHG  3   7  -1  24  -1  26  -1
M  END
>  <UniqueID>  (48) 
44

>  <SMILES>  (48) 
Cn1cc(C(=O)[N-]c2cc(S(=O)(=O)N3CCCC3)ccc2O)c([O-])c1[O-]

>  <Energy>  (48) 
78.34358300262836

>  <Genealogy>  (48) 
Cn1cc(C(=O)[N-]c2cc(S(=O)(=O)N3CCCC3)ccc2O)c([O-])c1[O-] (protonated)
Cn1cc(C(=O)[N-]c2cc(S(=O)(=O)N3CCCC3)ccc2O)c([O-])c1[O-] (3D coordinates assigned)
Cn1cc(C(=O)[N-]c2cc(S(=O)(=O)N3CCCC3)ccc2O)c([O-])c1[O-] (nonaromatic ring conformer: 78.34358300262836 kcal/mol)

>  <smiles>  (48) 
Cn1cc(C(=O)Nc2cc(S(=O)(=O)N3CCCC3)ccc2O)c(O)c1O

>  <score_type>  (48) 
oracle

>  <origin>  (48) 
adgpu

>  <m_score__min__energy>  (48) 
-14.5

>  <m_primary>  (48) 
energy

$$$$
