0:0
     RDKit          3D

 57 60  0  0  0  0  0  0  0  0999 V2000
   -5.4650   26.5430  -30.4700 O   0  0  0  0  0  0  0  0  0  0  0  0
   -4.9550   25.3910  -30.4680 C   0  0  0  0  0  0  0  0  0  0  0  0
   -3.5550   25.2570  -30.1810 N   0  0  0  0  0  0  0  0  0  0  0  0
   -2.9140   24.0930  -29.6350 C   0  0  0  0  0  0  0  0  0  0  0  0
   -2.3580   23.1120  -30.4760 C   0  0  0  0  0  0  0  0  0  0  0  0
   -1.7150   21.9920  -29.9370 C   0  0  0  0  0  0  0  0  0  0  0  0
   -0.9900   20.7910  -31.0080 S   0  0  0  0  0  0  0  0  0  0  0  0
   -0.2500   19.7750  -30.1830 O   0  0  0  0  0  0  0  0  0  0  0  0
    0.0060   21.4720  -31.9040 O   0  0  0  0  0  0  0  0  0  0  0  0
   -2.1880   19.9740  -31.9900 N   0  0  0  0  0  0  0  0  0  0  0  0
   -3.5330   20.1410  -31.4300 C   0  0  0  0  0  0  0  0  0  0  0  0
   -4.2230   21.2780  -32.1690 C   0  0  0  0  0  0  0  0  0  0  0  0
   -3.3940   21.5220  -33.4150 C   0  0  0  0  0  0  0  0  0  0  0  0
   -2.2360   20.5370  -33.3440 C   0  0  0  0  0  0  0  0  0  0  0  0
   -1.6480   21.8350  -28.5470 C   0  0  0  0  0  0  0  0  0  0  0  0
   -2.2340   22.7840  -27.7050 C   0  0  0  0  0  0  0  0  0  0  0  0
   -2.8690   23.9100  -28.2400 C   0  0  0  0  0  0  0  0  0  0  0  0
   -3.4390   24.8370  -27.3670 O   0  0  0  0  0  0  0  0  0  0  0  0
   -5.8010   24.2210  -30.7900 C   0  0  0  0  0  0  0  0  0  0  0  0
   -6.1580   23.9540  -32.1230 C   0  0  0  0  0  0  0  0  0  0  0  0
   -7.0130   22.8900  -32.4250 C   0  0  0  0  0  0  0  0  0  0  0  0
   -7.5120   22.0720  -31.4030 C   0  0  0  0  0  0  0  0  0  0  0  0
   -8.6290   20.7590  -31.7760 S   0  0  0  0  0  0  0  0  0  0  0  0
   -9.1660   20.1860  -30.4940 O   0  0  0  0  0  0  0  0  0  0  0  0
   -9.7880   21.3060  -32.5620 O   0  0  0  0  0  0  0  0  0  0  0  0
   -7.8550   19.4910  -32.6950 N   0  0  0  0  0  0  0  0  0  0  0  0
   -7.2950   18.4700  -31.7950 C   0  0  0  0  0  0  0  0  0  0  0  0
   -6.5140   17.4120  -32.6020 C   0  0  0  0  0  0  0  0  0  0  0  0
   -6.6160   17.6390  -33.9960 O   0  0  0  0  0  0  0  0  0  0  0  0
   -6.0790   18.9100  -34.3140 C   0  0  0  0  0  0  0  0  0  0  0  0
   -6.7950   20.0450  -33.5510 C   0  0  0  0  0  0  0  0  0  0  0  0
   -7.1280   22.3120  -30.0770 C   0  0  0  0  0  0  0  0  0  0  0  0
   -6.2760   23.3770  -29.7720 C   0  0  0  0  0  0  0  0  0  0  0  0
   -2.4293   23.2263  -31.5677 H   0  0  0  0  0  0  0  0  0  0  0  0
   -4.1071   19.2116  -31.5589 H   0  0  0  0  0  0  0  0  0  0  0  0
   -3.4695   20.3716  -30.3563 H   0  0  0  0  0  0  0  0  0  0  0  0
   -5.2493   20.9910  -32.4416 H   0  0  0  0  0  0  0  0  0  0  0  0
   -4.2947   22.1819  -31.5462 H   0  0  0  0  0  0  0  0  0  0  0  0
   -3.9964   21.3402  -34.3172 H   0  0  0  0  0  0  0  0  0  0  0  0
   -3.0379   22.5615  -33.4664 H   0  0  0  0  0  0  0  0  0  0  0  0
   -2.3891   19.7305  -34.0763 H   0  0  0  0  0  0  0  0  0  0  0  0
   -1.2900   21.0493  -33.5736 H   0  0  0  0  0  0  0  0  0  0  0  0
   -1.1332   20.9631  -28.1172 H   0  0  0  0  0  0  0  0  0  0  0  0
   -2.1957   22.6448  -26.6145 H   0  0  0  0  0  0  0  0  0  0  0  0
   -3.9960   25.6170  -27.6940 H   0  0  0  0  0  0  0  0  0  0  0  0
   -5.7627   24.5853  -32.9325 H   0  0  0  0  0  0  0  0  0  0  0  0
   -7.2953   22.6942  -33.4700 H   0  0  0  0  0  0  0  0  0  0  0  0
   -6.6154   18.9528  -31.0773 H   0  0  0  0  0  0  0  0  0  0  0  0
   -8.1190   17.9746  -31.2606 H   0  0  0  0  0  0  0  0  0  0  0  0
   -5.4540   17.4517  -32.3106 H   0  0  0  0  0  0  0  0  0  0  0  0
   -6.9455   16.4244  -32.3820 H   0  0  0  0  0  0  0  0  0  0  0  0
   -5.0115   18.9215  -34.0488 H   0  0  0  0  0  0  0  0  0  0  0  0
   -6.2219   19.0805  -35.3913 H   0  0  0  0  0  0  0  0  0  0  0  0
   -6.0649   20.5794  -32.9255 H   0  0  0  0  0  0  0  0  0  0  0  0
   -7.2452   20.7377  -34.2773 H   0  0  0  0  0  0  0  0  0  0  0  0
   -7.4987   21.6595  -29.2728 H   0  0  0  0  0  0  0  0  0  0  0  0
   -5.9755   23.5555  -28.7290 H   0  0  0  0  0  0  0  0  0  0  0  0
  1  2  2  0
  2  3  1  0
  3  4  1  0
  4  5  2  0
  5  6  1  0
  6  7  1  0
  7  8  2  0
  7  9  2  0
  7 10  1  0
 10 11  1  0
 11 12  1  0
 12 13  1  0
 13 14  1  0
  6 15  2  0
 15 16  1  0
 16 17  2  0
 17 18  1  0
  2 19  1  0
 19 20  2  0
 20 21  1  0
 21 22  2  0
 22 23  1  0
 23 24  2  0
 23 25  2  0
 23 26  1  0
 26 27  1  0
 27 28  1  0
 28 29  1  0
 29 30  1  0
 30 31  1  0
 22 32  1  0
 32 33  2  0
 17  4  1  0
 33 19  1  0
 14 10  1  0
 31 26  1  0
  5 34  1  0
 11 35  1  0
 11 36  1  0
 12 37  1  0
 12 38  1  0
 13 39  1  0
 13 40  1  0
 14 41  1  0
 14 42  1  0
 15 43  1  0
 16 44  1  0
 18 45  1  0
 20 46  1  0
 21 47  1  0
 27 48  1  0
 27 49  1  0
 28 50  1  0
 28 51  1  0
 30 52  1  0
 30 53  1  0
 31 54  1  0
 31 55  1  0
 32 56  1  0
 33 57  1  0
M  CHG  1   3  -1
M  END
>  <UniqueID>  (1) 
1

>  <SMILES>  (1) 
O=C([N-]c1cc(S(=O)(=O)N2CCCC2)ccc1O)c1ccc(S(=O)(=O)N2CCOCC2)cc1

>  <Energy>  (1) 
70.36930771245424

>  <Genealogy>  (1) 
O=C([N-]c1cc(S(=O)(=O)N2CCCC2)ccc1O)c1ccc(S(=O)(=O)N2CCOCC2)cc1 (protonated)
O=C([N-]c1cc(S(=O)(=O)N2CCCC2)ccc1O)c1ccc(S(=O)(=O)N2CCOCC2)cc1 (3D coordinates assigned)
O=C([N-]c1cc(S(=O)(=O)N2CCCC2)ccc1O)c1ccc(S(=O)(=O)N2CCOCC2)cc1 (nonaromatic ring conformer: 70.36930771245424 kcal/mol)

>  <smiles>  (1) 
O=C(Nc1cc(S(=O)(=O)N2CCCC2)ccc1O)c1ccc(S(=O)(=O)N2CCOCC2)cc1

>  <score_type>  (1) 
oracle

>  <origin>  (1) 
adgpu

>  <m_score__min__energy>  (1) 
-13.109999999999999

>  <m_primary>  (1) 
energy

$$$$
1:0
     RDKit          3D

 25 27  0  0  0  0  0  0  0  0999 V2000
   -6.1751   25.2765  -31.7306 H   0  0  0  0  0  0  0  0  0  0  0  0
   -5.3870   24.9590  -31.0320 C   0  0  0  0  0  0  0  0  0  0  0  0
   -4.2450   25.6460  -30.8080 N   0  0  0  0  0  0  0  0  0  0  0  0
   -3.5690   24.9170  -29.9000 C   0  0  0  0  0  0  0  0  0  0  0  0
   -2.3400   25.2960  -29.3780 O   0  0  0  0  0  0  0  0  0  0  0  0
   -4.2530   23.7740  -29.5630 C   0  0  0  0  0  0  0  0  0  0  0  0
   -3.8550   22.8510  -28.5390 N   0  0  0  0  0  0  0  0  0  0  0  0
   -2.9470   21.9250  -28.6220 C   0  0  0  0  0  0  0  0  0  0  0  0
   -2.6990   21.0850  -27.5740 N   0  0  0  0  0  0  0  0  0  0  0  0
   -1.6900   20.2670  -27.9340 C   0  0  0  0  0  0  0  0  0  0  0  0
   -1.0760   19.3000  -27.2500 N   0  0  0  0  0  0  0  0  0  0  0  0
   -0.1360   18.9030  -28.1660 C   0  0  0  0  0  0  0  0  0  0  0  0
    0.8300   17.8270  -27.8970 C   0  0  0  0  0  0  0  0  0  0  0  0
    1.9930   17.9060  -28.3750 O   0  0  0  0  0  0  0  0  0  0  0  0
    0.4580   16.6940  -27.0990 N   0  0  0  0  0  0  0  0  0  0  0  0
   -0.5070   16.6290  -26.7040 H   0  0  0  0  0  0  0  0  0  0  0  0
    1.3960   15.6140  -26.8180 C   0  0  0  0  0  0  0  0  0  0  0  0
    1.5008   15.4933  -25.7297 H   0  0  0  0  0  0  0  0  0  0  0  0
    1.0194   14.6780  -27.2561 H   0  0  0  0  0  0  0  0  0  0  0  0
    2.3756   15.8558  -27.2561 H   0  0  0  0  0  0  0  0  0  0  0  0
   -0.1530   19.5870  -29.3540 N   0  0  0  0  0  0  0  0  0  0  0  0
   -1.1640   20.4280  -29.1300 C   0  0  0  0  0  0  0  0  0  0  0  0
   -1.8970   21.6680  -29.9730 S   0  0  0  0  0  0  0  0  0  0  0  0
   -5.4380   23.8050  -30.2700 C   0  0  0  0  0  0  0  0  0  0  0  0
   -6.2527   23.0667  -30.2350 H   0  0  0  0  0  0  0  0  0  0  0  0
  1  2  1  0
  2  3  1  0
  3  4  1  0
  4  5  1  0
  4  6  2  0
  6  7  1  0
  7  8  2  0
  8  9  1  0
  9 10  1  0
 10 11  1  0
 11 12  2  0
 12 13  1  0
 13 14  2  0
 13 15  1  0
 15 16  1  0
 15 17  1  0
 17 18  1  0
 17 19  1  0
 17 20  1  0
 12 21  1  0
 21 22  1  0
 22 23  1  0
  6 24  1  0
 24 25  1  0
 24  2  2  0
 23  8  1  0
 22 10  2  0
M  CHG  4   3  -1   5  -1   9  -1  21  -1
M  END
>  <UniqueID>  (2) 
2

>  <SMILES>  (2) 
CNC(=O)c1nc2[n-]/c(=N/c3cc[n-]c3[O-])sc2[n-]1

>  <Energy>  (2) 
137.77478672912025

>  <Genealogy>  (2) 
CNC(=O)c1nc2[n-]c(=Nc3cc[n-]c3[O-])sc2[n-]1 (protonated)
CNC(=O)c1nc2[n-]/c(=N/c3cc[n-]c3[O-])sc2[n-]1 (cis-trans isomerization)
CNC(=O)c1nc2[n-]/c(=N/c3cc[n-]c3[O-])sc2[n-]1 (3D coordinates assigned)
CNC(=O)c1nc2[n-]/c(=N/c3cc[n-]c3[O-])sc2[n-]1 (optimized conformer: 137.77478672912025 kcal/mol)

>  <smiles>  (2) 
CNC(=O)c1nc2[nH]c(=Nc3cc[nH]c3O)sc2[nH]1

>  <score_type>  (2) 
oracle

>  <origin>  (2) 
adgpu

>  <m_score__min__energy>  (2) 
-11

>  <m_primary>  (2) 
energy

$$$$
2:0
     RDKit          3D

 65 68  0  0  0  0  0  0  0  0999 V2000
   -4.2610   25.3170  -30.8640 O   0  0  0  0  0  0  0  0  0  0  0  0
   -5.0490   24.3340  -30.8780 C   0  0  0  0  0  0  0  0  0  0  0  0
   -6.4960   24.5360  -31.2160 C   0  0  0  0  0  0  0  0  0  0  0  0
   -6.9170   23.6270  -32.2330 O   0  0  0  0  0  0  0  0  0  0  0  0
   -8.0850   22.8570  -32.1460 C   0  0  0  0  0  0  0  0  0  0  0  0
   -9.2090   23.4220  -32.0320 O   0  0  0  0  0  0  0  0  0  0  0  0
   -7.9980   21.3810  -32.1880 C   0  0  0  0  0  0  0  0  0  0  0  0
   -9.0380   20.5920  -31.6670 C   0  0  0  0  0  0  0  0  0  0  0  0
   -8.9560   19.1990  -31.7070 C   0  0  0  0  0  0  0  0  0  0  0  0
   -7.8380   18.5760  -32.2650 C   0  0  0  0  0  0  0  0  0  0  0  0
   -6.7910   19.3450  -32.7870 C   0  0  0  0  0  0  0  0  0  0  0  0
   -5.3720   18.5610  -33.4860 S   0  0  0  0  0  0  0  0  0  0  0  0
   -5.3120   17.1370  -33.0070 O   0  0  0  0  0  0  0  0  0  0  0  0
   -5.5030   18.5400  -34.9850 O   0  0  0  0  0  0  0  0  0  0  0  0
   -3.8930   19.3800  -33.0480 N   0  0  0  0  0  0  0  0  0  0  0  0
   -3.9370   20.7880  -33.4680 C   0  0  0  0  0  0  0  0  0  0  0  0
   -2.6360   21.5030  -33.0430 C   0  0  0  0  0  0  0  0  0  0  0  0
   -1.6630   20.5990  -32.5470 O   0  0  0  0  0  0  0  0  0  0  0  0
   -1.4560   19.5570  -33.4800 C   0  0  0  0  0  0  0  0  0  0  0  0
   -2.7310   18.7050  -33.6510 C   0  0  0  0  0  0  0  0  0  0  0  0
   -6.8730   20.7440  -32.7460 C   0  0  0  0  0  0  0  0  0  0  0  0
   -4.6040   23.0380  -30.4560 N   0  0  0  0  0  0  0  0  0  0  0  0
   -3.3510   22.7360  -29.8260 C   0  0  0  0  0  0  0  0  0  0  0  0
   -2.8680   21.4190  -29.7230 C   0  0  0  0  0  0  0  0  0  0  0  0
   -1.6530   21.1640  -29.0820 C   0  0  0  0  0  0  0  0  0  0  0  0
   -0.9150   22.2140  -28.5320 C   0  0  0  0  0  0  0  0  0  0  0  0
   -1.3950   23.5290  -28.6140 C   0  0  0  0  0  0  0  0  0  0  0  0
   -0.4870   24.8550  -27.8920 S   0  0  0  0  0  0  0  0  0  0  0  0
    0.9890   24.5990  -28.0390 O   0  0  0  0  0  0  0  0  0  0  0  0
   -0.8250   26.1260  -28.6190 O   0  0  0  0  0  0  0  0  0  0  0  0
   -0.8990   25.0190  -26.2010 N   0  0  0  0  0  0  0  0  0  0  0  0
    0.3330   25.1760  -25.3950 C   0  0  0  0  0  0  0  0  0  0  0  0
    0.0320   25.7760  -24.0180 C   0  0  0  0  0  0  0  0  0  0  0  0
   -0.5690   27.1870  -24.1480 C   0  0  0  0  0  0  0  0  0  0  0  0
   -1.2940   27.4010  -25.4880 C   0  0  0  0  0  0  0  0  0  0  0  0
   -1.9070   26.0910  -26.0020 C   0  0  0  0  0  0  0  0  0  0  0  0
   -2.6190   23.7810  -29.2470 C   0  0  0  0  0  0  0  0  0  0  0  0
   -7.1024   24.3712  -30.3132 H   0  0  0  0  0  0  0  0  0  0  0  0
   -6.6283   25.5627  -31.5879 H   0  0  0  0  0  0  0  0  0  0  0  0
   -9.9219   21.0751  -31.2251 H   0  0  0  0  0  0  0  0  0  0  0  0
   -9.7753   18.5899  -31.2974 H   0  0  0  0  0  0  0  0  0  0  0  0
   -7.7797   17.4779  -32.2946 H   0  0  0  0  0  0  0  0  0  0  0  0
   -4.0411   20.8394  -34.5619 H   0  0  0  0  0  0  0  0  0  0  0  0
   -4.7953   21.2824  -32.9897 H   0  0  0  0  0  0  0  0  0  0  0  0
   -2.2194   22.0276  -33.9155 H   0  0  0  0  0  0  0  0  0  0  0  0
   -2.8865   22.2052  -32.2342 H   0  0  0  0  0  0  0  0  0  0  0  0
   -1.1824   19.9937  -34.4518 H   0  0  0  0  0  0  0  0  0  0  0  0
   -0.6492   18.9087  -33.1073 H   0  0  0  0  0  0  0  0  0  0  0  0
   -2.9202   18.5494  -34.7234 H   0  0  0  0  0  0  0  0  0  0  0  0
   -2.5815   17.7394  -33.1458 H   0  0  0  0  0  0  0  0  0  0  0  0
   -6.0505   21.3500  -33.1537 H   0  0  0  0  0  0  0  0  0  0  0  0
   -3.4486   20.5872  -30.1484 H   0  0  0  0  0  0  0  0  0  0  0  0
   -1.2767   20.1329  -29.0104 H   0  0  0  0  0  0  0  0  0  0  0  0
    0.0441   22.0094  -28.0338 H   0  0  0  0  0  0  0  0  0  0  0  0
    0.7999   24.1892  -25.2603 H   0  0  0  0  0  0  0  0  0  0  0  0
    1.0090   25.8602  -25.9287 H   0  0  0  0  0  0  0  0  0  0  0  0
   -0.6842   25.1274  -23.4922 H   0  0  0  0  0  0  0  0  0  0  0  0
    0.9740   25.8479  -23.4546 H   0  0  0  0  0  0  0  0  0  0  0  0
   -1.2884   27.3401  -23.3300 H   0  0  0  0  0  0  0  0  0  0  0  0
    0.2605   27.9078  -24.0996 H   0  0  0  0  0  0  0  0  0  0  0  0
   -2.0952   28.1417  -25.3484 H   0  0  0  0  0  0  0  0  0  0  0  0
   -0.5617   27.7570  -26.2276 H   0  0  0  0  0  0  0  0  0  0  0  0
   -2.6511   25.7415  -25.2712 H   0  0  0  0  0  0  0  0  0  0  0  0
   -2.3616   26.3018  -26.9812 H   0  0  0  0  0  0  0  0  0  0  0  0
   -3.0090   24.8087  -29.2899 H   0  0  0  0  0  0  0  0  0  0  0  0
  1  2  2  0
  2  3  1  0
  3  4  1  0
  4  5  1  0
  5  6  2  0
  5  7  1  0
  7  8  2  0
  8  9  1  0
  9 10  2  0
 10 11  1  0
 11 12  1  0
 12 13  2  0
 12 14  2  0
 12 15  1  0
 15 16  1  0
 16 17  1  0
 17 18  1  0
 18 19  1  0
 19 20  1  0
 11 21  2  0
  2 22  1  0
 22 23  1  0
 23 24  2  0
 24 25  1  0
 25 26  2  0
 26 27  1  0
 27 28  1  0
 28 29  2  0
 28 30  2  0
 28 31  1  0
 31 32  1  0
 32 33  1  0
 33 34  1  0
 34 35  1  0
 35 36  1  0
 27 37  2  0
 21  7  1  0
 37 23  1  0
 20 15  1  0
 36 31  1  0
  3 38  1  0
  3 39  1  0
  8 40  1  0
  9 41  1  0
 10 42  1  0
 16 43  1  0
 16 44  1  0
 17 45  1  0
 17 46  1  0
 19 47  1  0
 19 48  1  0
 20 49  1  0
 20 50  1  0
 21 51  1  0
 24 52  1  0
 25 53  1  0
 26 54  1  0
 32 55  1  0
 32 56  1  0
 33 57  1  0
 33 58  1  0
 34 59  1  0
 34 60  1  0
 35 61  1  0
 35 62  1  0
 36 63  1  0
 36 64  1  0
 37 65  1  0
M  CHG  1  22  -1
M  END
>  <UniqueID>  (3) 
3

>  <SMILES>  (3) 
O=C(COC(=O)c1cccc(S(=O)(=O)N2CCOCC2)c1)[N-]c1cccc(S(=O)(=O)N2CCCCC2)c1

>  <Energy>  (3) 
81.5201166917049

>  <Genealogy>  (3) 
O=C(COC(=O)c1cccc(S(=O)(=O)N2CCOCC2)c1)[N-]c1cccc(S(=O)(=O)N2CCCCC2)c1 (protonated)
O=C(COC(=O)c1cccc(S(=O)(=O)N2CCOCC2)c1)[N-]c1cccc(S(=O)(=O)N2CCCCC2)c1 (3D coordinates assigned)
O=C(COC(=O)c1cccc(S(=O)(=O)N2CCOCC2)c1)[N-]c1cccc(S(=O)(=O)N2CCCCC2)c1 (nonaromatic ring conformer: 81.5201166917049 kcal/mol)

>  <smiles>  (3) 
O=C(COC(=O)c1cccc(S(=O)(=O)N2CCOCC2)c1)Nc1cccc(S(=O)(=O)N2CCCCC2)c1

>  <score_type>  (3) 
oracle

>  <origin>  (3) 
adgpu

>  <m_score__min__energy>  (3) 
-12.75

>  <m_primary>  (3) 
energy

$$$$
3:0
     RDKit          3D

 56 59  0  0  0  0  0  0  0  0999 V2000
   -2.1340   20.7960  -27.3050 C   0  0  0  0  0  0  0  0  0  0  0  0
   -1.4090   21.9820  -26.7650 C   0  0  0  0  0  0  0  0  0  0  0  0
   -0.5840   21.9370  -25.7000 N   0  0  0  0  0  0  0  0  0  0  0  0
   -0.0990   23.1570  -25.5250 N   0  0  0  0  0  0  0  0  0  0  0  0
    0.8910   23.5040  -24.5070 C   0  0  0  0  0  0  0  0  0  0  0  0
   -0.5790   23.9890  -26.4700 C   0  0  0  0  0  0  0  0  0  0  0  0
   -1.4270   23.2670  -27.2790 C   0  0  0  0  0  0  0  0  0  0  0  0
   -2.2600   23.8390  -28.7190 S   0  0  0  0  0  0  0  0  0  0  0  0
   -1.9120   25.2870  -28.9330 O   0  0  0  0  0  0  0  0  0  0  0  0
   -1.8360   23.0230  -29.9110 O   0  0  0  0  0  0  0  0  0  0  0  0
   -3.9740   23.6880  -28.4860 N   0  0  0  0  0  0  0  0  0  0  0  0
   -4.9500   23.7030  -29.5370 C   0  0  0  0  0  0  0  0  0  0  0  0
   -5.9730   22.7370  -29.6180 C   0  0  0  0  0  0  0  0  0  0  0  0
   -6.8850   22.7430  -30.6900 C   0  0  0  0  0  0  0  0  0  0  0  0
   -7.9350   21.6950  -30.7770 C   0  0  0  0  0  0  0  0  0  0  0  0
   -8.9380   21.7740  -30.0150 O   0  0  0  0  0  0  0  0  0  0  0  0
   -7.8260   20.5720  -31.6740 N   0  0  0  0  0  0  0  0  0  0  0  0
   -7.4430   20.7560  -33.0840 C   0  0  0  0  0  0  0  0  0  0  0  0
   -6.4660   19.6500  -33.5160 C   0  0  0  0  0  0  0  0  0  0  0  0
   -6.8450   18.3450  -32.9540 N   0  0  0  0  0  0  0  0  0  0  0  0
   -5.9340   17.2310  -33.0500 C   0  0  0  0  0  0  0  0  0  0  0  0
   -5.3400   16.9120  -34.2830 C   0  0  0  0  0  0  0  0  0  0  0  0
   -4.4540   15.8340  -34.3830 C   0  0  0  0  0  0  0  0  0  0  0  0
   -4.1450   15.0740  -33.2520 C   0  0  0  0  0  0  0  0  0  0  0  0
   -4.7120   15.3920  -32.0190 C   0  0  0  0  0  0  0  0  0  0  0  0
   -5.5950   16.4790  -31.9060 C   0  0  0  0  0  0  0  0  0  0  0  0
   -6.1100   16.8280  -30.6600 O   0  0  0  0  0  0  0  0  0  0  0  0
   -8.1500   18.1860  -32.3000 C   0  0  0  0  0  0  0  0  0  0  0  0
   -8.3250   19.2620  -31.2220 C   0  0  0  0  0  0  0  0  0  0  0  0
   -6.7430   23.7140  -31.6970 C   0  0  0  0  0  0  0  0  0  0  0  0
   -5.7540   24.6970  -31.5980 C   0  0  0  0  0  0  0  0  0  0  0  0
   -4.8660   24.6980  -30.5210 C   0  0  0  0  0  0  0  0  0  0  0  0
   -3.8840   25.6810  -30.4400 O   0  0  0  0  0  0  0  0  0  0  0  0
   -2.5081   20.1840  -26.4711 H   0  0  0  0  0  0  0  0  0  0  0  0
   -2.9806   21.1330  -27.9211 H   0  0  0  0  0  0  0  0  0  0  0  0
   -1.4480   20.1962  -27.9211 H   0  0  0  0  0  0  0  0  0  0  0  0
    0.4577   23.3521  -23.5074 H   0  0  0  0  0  0  0  0  0  0  0  0
    1.7772   22.8629  -24.6238 H   0  0  0  0  0  0  0  0  0  0  0  0
    1.1830   24.5581  -24.6238 H   0  0  0  0  0  0  0  0  0  0  0  0
   -0.3361   25.0566  -26.5762 H   0  0  0  0  0  0  0  0  0  0  0  0
   -6.0597   21.9697  -28.8346 H   0  0  0  0  0  0  0  0  0  0  0  0
   -8.3436   20.7121  -33.7141 H   0  0  0  0  0  0  0  0  0  0  0  0
   -6.9526   21.7339  -33.1987 H   0  0  0  0  0  0  0  0  0  0  0  0
   -6.4680   19.5804  -34.6138 H   0  0  0  0  0  0  0  0  0  0  0  0
   -5.4647   19.9090  -33.1413 H   0  0  0  0  0  0  0  0  0  0  0  0
   -5.5730   17.5131  -35.1743 H   0  0  0  0  0  0  0  0  0  0  0  0
   -4.0000   15.5844  -35.3533 H   0  0  0  0  0  0  0  0  0  0  0  0
   -3.4529   14.2230  -33.3348 H   0  0  0  0  0  0  0  0  0  0  0  0
   -4.4673   14.7899  -31.1315 H   0  0  0  0  0  0  0  0  0  0  0  0
   -5.8680   16.3170  -29.8190 H   0  0  0  0  0  0  0  0  0  0  0  0
   -8.9488   18.2866  -33.0495 H   0  0  0  0  0  0  0  0  0  0  0  0
   -8.2034   17.1916  -31.8327 H   0  0  0  0  0  0  0  0  0  0  0  0
   -9.3939   19.3523  -30.9786 H   0  0  0  0  0  0  0  0  0  0  0  0
   -7.7438   18.9599  -30.3383 H   0  0  0  0  0  0  0  0  0  0  0  0
   -7.4144   23.7000  -32.5682 H   0  0  0  0  0  0  0  0  0  0  0  0
   -5.6751   25.4738  -32.3729 H   0  0  0  0  0  0  0  0  0  0  0  0
  1  2  1  0
  2  3  2  0
  3  4  1  0
  4  5  1  0
  4  6  1  0
  6  7  2  0
  7  8  1  0
  8  9  2  0
  8 10  2  0
  8 11  1  0
 11 12  1  0
 12 13  2  0
 13 14  1  0
 14 15  1  0
 15 16  2  0
 15 17  1  0
 17 18  1  0
 18 19  1  0
 19 20  1  0
 20 21  1  0
 21 22  2  0
 22 23  1  0
 23 24  2  0
 24 25  1  0
 25 26  2  0
 26 27  1  0
 20 28  1  0
 28 29  1  0
 14 30  2  0
 30 31  1  0
 31 32  2  0
 32 33  1  0
  7  2  1  0
 32 12  1  0
 29 17  1  0
 26 21  1  0
  1 34  1  0
  1 35  1  0
  1 36  1  0
  5 37  1  0
  5 38  1  0
  5 39  1  0
  6 40  1  0
 13 41  1  0
 18 42  1  0
 18 43  1  0
 19 44  1  0
 19 45  1  0
 22 46  1  0
 23 47  1  0
 24 48  1  0
 25 49  1  0
 27 50  1  0
 28 51  1  0
 28 52  1  0
 29 53  1  0
 29 54  1  0
 30 55  1  0
 31 56  1  0
M  CHG  2  11  -1  33  -1
M  END
>  <UniqueID>  (4) 
4

>  <SMILES>  (4) 
Cc1nn(C)cc1S(=O)(=O)[N-]c1cc(C(=O)N2CCN(c3ccccc3O)CC2)ccc1[O-]

>  <Energy>  (4) 
102.53138165197126

>  <Genealogy>  (4) 
Cc1nn(C)cc1S(=O)(=O)[N-]c1cc(C(=O)N2CCN(c3ccccc3O)CC2)ccc1[O-] (protonated)
Cc1nn(C)cc1S(=O)(=O)[N-]c1cc(C(=O)N2CCN(c3ccccc3O)CC2)ccc1[O-] (3D coordinates assigned)
Cc1nn(C)cc1S(=O)(=O)[N-]c1cc(C(=O)N2CCN(c3ccccc3O)CC2)ccc1[O-] (nonaromatic ring conformer: 102.53138165197126 kcal/mol)

>  <smiles>  (4) 
Cc1nn(C)cc1S(=O)(=O)Nc1cc(C(=O)N2CCN(c3ccccc3O)CC2)ccc1O

>  <score_type>  (4) 
oracle

>  <origin>  (4) 
adgpu

>  <m_score__min__energy>  (4) 
-14.039999999999999

>  <m_primary>  (4) 
energy

$$$$
4:0
     RDKit          3D

 79 84  0  0  0  0  0  0  0  0999 V2000
   -2.6920   13.9420  -35.5120 C   0  0  0  0  0  0  0  0  0  0  0  0
   -2.2330   13.4630  -34.1590 C   0  0  0  0  0  0  0  0  0  0  0  0
   -0.9840   12.8260  -34.0690 C   0  0  0  0  0  0  0  0  0  0  0  0
   -0.5120   12.3490  -32.8450 C   0  0  0  0  0  0  0  0  0  0  0  0
   -1.2940   12.4750  -31.7000 C   0  0  0  0  0  0  0  0  0  0  0  0
   -2.5470   13.0800  -31.7710 C   0  0  0  0  0  0  0  0  0  0  0  0
   -3.0360   13.5800  -32.9940 C   0  0  0  0  0  0  0  0  0  0  0  0
   -4.6140   14.3920  -33.0050 S   0  0  0  0  0  0  0  0  0  0  0  0
   -4.9640   14.8030  -31.5990 O   0  0  0  0  0  0  0  0  0  0  0  0
   -5.6630   13.4220  -33.4830 O   0  0  0  0  0  0  0  0  0  0  0  0
   -4.6510   15.8090  -34.0190 N   0  0  0  0  0  0  0  0  0  0  0  0
   -5.3610   17.0260  -33.7470 C   0  0  0  0  0  0  0  0  0  0  0  0
   -6.6030   17.0290  -33.0870 C   0  0  0  0  0  0  0  0  0  0  0  0
   -7.2140   18.2350  -32.7220 C   0  0  0  0  0  0  0  0  0  0  0  0
   -6.6330   19.4490  -33.1140 C   0  0  0  0  0  0  0  0  0  0  0  0
   -5.4420   19.4510  -33.8540 C   0  0  0  0  0  0  0  0  0  0  0  0
   -4.8020   18.2440  -34.1610 C   0  0  0  0  0  0  0  0  0  0  0  0
   -3.5970   18.2490  -34.8640 O   0  0  0  0  0  0  0  0  0  0  0  0
   -7.3010   20.7210  -32.6990 C   0  0  0  0  0  0  0  0  0  0  0  0
   -7.7630   20.5630  -31.3050 N   0  0  0  0  0  0  0  0  0  0  0  0
   -8.1220   21.8430  -30.6500 C   0  0  0  0  0  0  0  0  0  0  0  0
   -6.9960   22.8590  -30.6320 C   0  0  0  0  0  0  0  0  0  0  0  0
   -7.2630   24.2300  -30.7620 C   0  0  0  0  0  0  0  0  0  0  0  0
   -6.2200   25.1580  -30.7410 C   0  0  0  0  0  0  0  0  0  0  0  0
   -4.8940   24.7290  -30.6120 C   0  0  0  0  0  0  0  0  0  0  0  0
   -3.8620   25.6630  -30.6080 O   0  0  0  0  0  0  0  0  0  0  0  0
   -4.6100   23.3630  -30.4960 C   0  0  0  0  0  0  0  0  0  0  0  0
   -3.2760   22.9450  -30.3840 O   0  0  0  0  0  0  0  0  0  0  0  0
   -2.6840   21.9560  -31.1870 C   0  0  0  0  0  0  0  0  0  0  0  0
   -1.7220   21.0650  -30.6730 C   0  0  0  0  0  0  0  0  0  0  0  0
   -1.0750   20.1620  -31.5150 C   0  0  0  0  0  0  0  0  0  0  0  0
   -1.4050   20.1120  -32.8780 C   0  0  0  0  0  0  0  0  0  0  0  0
   -0.5030   19.0510  -33.9630 S   0  0  0  0  0  0  0  0  0  0  0  0
    0.9220   18.9530  -33.4940 O   0  0  0  0  0  0  0  0  0  0  0  0
   -0.4920   19.6590  -35.3390 O   0  0  0  0  0  0  0  0  0  0  0  0
   -1.2100   17.4470  -34.0480 N   0  0  0  0  0  0  0  0  0  0  0  0
   -1.6150   16.9300  -32.7190 C   0  0  0  0  0  0  0  0  0  0  0  0
   -0.6340   15.8840  -32.1580 C   0  0  0  0  0  0  0  0  0  0  0  0
    0.6760   16.1490  -32.6070 O   0  0  0  0  0  0  0  0  0  0  0  0
    0.7710   15.8750  -33.9930 C   0  0  0  0  0  0  0  0  0  0  0  0
   -0.3830   16.4980  -34.8200 C   0  0  0  0  0  0  0  0  0  0  0  0
   -2.4290   20.9370  -33.3750 C   0  0  0  0  0  0  0  0  0  0  0  0
   -3.0630   21.8570  -32.5340 C   0  0  0  0  0  0  0  0  0  0  0  0
   -5.6680   22.4370  -30.4630 C   0  0  0  0  0  0  0  0  0  0  0  0
   -8.8160   19.5260  -31.1620 C   0  0  0  0  0  0  0  0  0  0  0  0
   -8.5290   18.2290  -31.9750 C   0  0  0  0  0  0  0  0  0  0  0  0
   -3.4479   14.7309  -35.3846 H   0  0  0  0  0  0  0  0  0  0  0  0
   -1.8331   14.3438  -36.0695 H   0  0  0  0  0  0  0  0  0  0  0  0
   -3.1300   13.1010  -36.0695 H   0  0  0  0  0  0  0  0  0  0  0  0
   -0.3708   12.7017  -34.9737 H   0  0  0  0  0  0  0  0  0  0  0  0
    0.4781   11.8734  -32.7851 H   0  0  0  0  0  0  0  0  0  0  0  0
   -0.9216   12.0959  -30.7369 H   0  0  0  0  0  0  0  0  0  0  0  0
   -3.1610   13.1682  -30.8626 H   0  0  0  0  0  0  0  0  0  0  0  0
   -7.0991   16.0750  -32.8553 H   0  0  0  0  0  0  0  0  0  0  0  0
   -5.0093   20.4033  -34.1943 H   0  0  0  0  0  0  0  0  0  0  0  0
   -3.0880   17.3930  -35.0650 H   0  0  0  0  0  0  0  0  0  0  0  0
   -6.5869   21.5552  -32.7628 H   0  0  0  0  0  0  0  0  0  0  0  0
   -8.1527   20.9376  -33.3605 H   0  0  0  0  0  0  0  0  0  0  0  0
   -8.9754   22.2807  -31.1887 H   0  0  0  0  0  0  0  0  0  0  0  0
   -8.3601   21.6104  -29.6016 H   0  0  0  0  0  0  0  0  0  0  0  0
   -8.3003   24.5760  -30.8812 H   0  0  0  0  0  0  0  0  0  0  0  0
   -6.4416   26.2321  -30.8263 H   0  0  0  0  0  0  0  0  0  0  0  0
   -1.4797   21.0818  -29.6002 H   0  0  0  0  0  0  0  0  0  0  0  0
   -0.3052   19.4882  -31.1108 H   0  0  0  0  0  0  0  0  0  0  0  0
   -1.6682   17.7740  -32.0155 H   0  0  0  0  0  0  0  0  0  0  0  0
   -2.5902   16.4359  -32.8405 H   0  0  0  0  0  0  0  0  0  0  0  0
   -0.6548   15.9203  -31.0588 H   0  0  0  0  0  0  0  0  0  0  0  0
   -0.9367   14.8863  -32.5088 H   0  0  0  0  0  0  0  0  0  0  0  0
    1.7245   16.2785  -34.3644 H   0  0  0  0  0  0  0  0  0  0  0  0
    0.7081   14.7836  -34.1152 H   0  0  0  0  0  0  0  0  0  0  0  0
    0.0513   17.0317  -35.6782 H   0  0  0  0  0  0  0  0  0  0  0  0
   -1.0405   15.6737  -35.1334 H   0  0  0  0  0  0  0  0  0  0  0  0
   -2.7327   20.8586  -34.4293 H   0  0  0  0  0  0  0  0  0  0  0  0
   -3.8600   22.5039  -32.9293 H   0  0  0  0  0  0  0  0  0  0  0  0
   -5.4524   21.3703  -30.3030 H   0  0  0  0  0  0  0  0  0  0  0  0
   -8.8983   19.2584  -30.0982 H   0  0  0  0  0  0  0  0  0  0  0  0
   -9.7476   19.9557  -31.5589 H   0  0  0  0  0  0  0  0  0  0  0  0
   -8.5232   17.3796  -31.2760 H   0  0  0  0  0  0  0  0  0  0  0  0
   -9.3204   18.1550  -32.7354 H   0  0  0  0  0  0  0  0  0  0  0  0
  1  2  1  0
  2  3  2  0
  3  4  1  0
  4  5  2  0
  5  6  1  0
  6  7  2  0
  7  8  1  0
  8  9  2  0
  8 10  2  0
  8 11  1  0
 11 12  1  0
 12 13  2  0
 13 14  1  0
 14 15  2  0
 15 16  1  0
 16 17  2  0
 17 18  1  0
 15 19  1  0
 19 20  1  0
 20 21  1  0
 21 22  1  0
 22 23  2  0
 23 24  1  0
 24 25  2  0
 25 26  1  0
 25 27  1  0
 27 28  1  0
 28 29  1  0
 29 30  2  0
 30 31  1  0
 31 32  2  0
 32 33  1  0
 33 34  2  0
 33 35  2  0
 33 36  1  0
 36 37  1  0
 37 38  1  0
 38 39  1  0
 39 40  1  0
 40 41  1  0
 32 42  1  0
 42 43  2  0
 27 44  2  0
 20 45  1  0
 45 46  1  0
  7  2  1  0
 17 12  1  0
 44 22  1  0
 46 14  1  0
 43 29  1  0
 41 36  1  0
  1 47  1  0
  1 48  1  0
  1 49  1  0
  3 50  1  0
  4 51  1  0
  5 52  1  0
  6 53  1  0
 13 54  1  0
 16 55  1  0
 18 56  1  0
 19 57  1  0
 19 58  1  0
 21 59  1  0
 21 60  1  0
 23 61  1  0
 24 62  1  0
 30 63  1  0
 31 64  1  0
 37 65  1  0
 37 66  1  0
 38 67  1  0
 38 68  1  0
 40 69  1  0
 40 70  1  0
 41 71  1  0
 41 72  1  0
 42 73  1  0
 43 74  1  0
 44 75  1  0
 45 76  1  0
 45 77  1  0
 46 78  1  0
 46 79  1  0
M  CHG  2  11  -1  26  -1
M  END
>  <UniqueID>  (5) 
5

>  <SMILES>  (5) 
Cc1ccccc1S(=O)(=O)[N-]c1cc2c(cc1O)CN(Cc1ccc([O-])c(Oc3ccc(S(=O)(=O)N4CCOCC4)cc3)c1)CC2

>  <Energy>  (5) 
119.62749257629405

>  <Genealogy>  (5) 
Cc1ccccc1S(=O)(=O)[N-]c1cc2c(cc1O)CN(Cc1ccc([O-])c(Oc3ccc(S(=O)(=O)N4CCOCC4)cc3)c1)CC2 (protonated)
Cc1ccccc1S(=O)(=O)[N-]c1cc2c(cc1O)CN(Cc1ccc([O-])c(Oc3ccc(S(=O)(=O)N4CCOCC4)cc3)c1)CC2 (3D coordinates assigned)
Cc1ccccc1S(=O)(=O)[N-]c1cc2c(cc1O)CN(Cc1ccc([O-])c(Oc3ccc(S(=O)(=O)N4CCOCC4)cc3)c1)CC2 (nonaromatic ring conformer: 119.62749257629405 kcal/mol)

>  <smiles>  (5) 
Cc1ccccc1S(=O)(=O)Nc1cc2c(cc1O)CN(Cc1ccc(O)c(Oc3ccc(S(=O)(=O)N4CCOCC4)cc3)c1)CC2

>  <score_type>  (5) 
oracle

>  <origin>  (5) 
adgpu

>  <m_score__min__energy>  (5) 
-13.84

>  <m_primary>  (5) 
energy

$$$$
5:0
     RDKit          3D

 45 47  0  0  0  0  0  0  0  0999 V2000
   -9.0390   21.8880  -29.8500 O   0  0  0  0  0  0  0  0  0  0  0  0
   -8.3060   21.8610  -31.1600 S   0  0  0  0  0  0  0  0  0  0  0  0
   -9.2160   22.4040  -32.2270 O   0  0  0  0  0  0  0  0  0  0  0  0
   -7.8680   20.2170  -31.5330 N   0  0  0  0  0  0  0  0  0  0  0  0
   -7.4980   20.0650  -32.9420 C   0  0  0  0  0  0  0  0  0  0  0  0
   -6.6820   18.8170  -33.1610 C   0  0  0  0  0  0  0  0  0  0  0  0
   -6.4680   17.9120  -32.1080 C   0  0  0  0  0  0  0  0  0  0  0  0
   -5.7370   16.7400  -32.3230 C   0  0  0  0  0  0  0  0  0  0  0  0
   -5.2060   16.4680  -33.5870 C   0  0  0  0  0  0  0  0  0  0  0  0
   -5.3930   17.3750  -34.6340 C   0  0  0  0  0  0  0  0  0  0  0  0
   -6.1210   18.5490  -34.4220 C   0  0  0  0  0  0  0  0  0  0  0  0
   -6.8600   22.8570  -31.0180 C   0  0  0  0  0  0  0  0  0  0  0  0
   -6.9740   24.2510  -31.0590 C   0  0  0  0  0  0  0  0  0  0  0  0
   -5.8450   25.0520  -30.8820 C   0  0  0  0  0  0  0  0  0  0  0  0
   -4.5940   24.4700  -30.6560 C   0  0  0  0  0  0  0  0  0  0  0  0
   -3.4880   25.2940  -30.4840 O   0  0  0  0  0  0  0  0  0  0  0  0
   -4.4700   23.0680  -30.6070 C   0  0  0  0  0  0  0  0  0  0  0  0
   -2.9160   22.2810  -30.3070 S   0  0  0  0  0  0  0  0  0  0  0  0
   -3.1050   21.2440  -29.2360 O   0  0  0  0  0  0  0  0  0  0  0  0
   -1.9020   23.2810  -29.8230 O   0  0  0  0  0  0  0  0  0  0  0  0
   -2.3460   21.5080  -31.7670 N   0  0  0  0  0  0  0  0  0  0  0  0
   -2.3700   20.0420  -31.6040 C   0  0  0  0  0  0  0  0  0  0  0  0
   -2.3450   19.3460  -32.9750 C   0  0  0  0  0  0  0  0  0  0  0  0
   -3.4300   19.6900  -33.8300 O   0  0  0  0  0  0  0  0  0  0  0  0
   -4.0800   20.9000  -33.4710 C   0  0  0  0  0  0  0  0  0  0  0  0
   -3.1070   21.9710  -32.9490 C   0  0  0  0  0  0  0  0  0  0  0  0
   -5.6050   22.2700  -30.8060 C   0  0  0  0  0  0  0  0  0  0  0  0
   -8.4136   20.0058  -33.5488 H   0  0  0  0  0  0  0  0  0  0  0  0
   -6.8913   20.9335  -33.2379 H   0  0  0  0  0  0  0  0  0  0  0  0
   -6.8775   18.1266  -31.1099 H   0  0  0  0  0  0  0  0  0  0  0  0
   -5.5795   16.0312  -31.4967 H   0  0  0  0  0  0  0  0  0  0  0  0
   -4.6408   15.5399  -33.7579 H   0  0  0  0  0  0  0  0  0  0  0  0
   -4.9667   17.1645  -35.6259 H   0  0  0  0  0  0  0  0  0  0  0  0
   -6.2556   19.2662  -35.2451 H   0  0  0  0  0  0  0  0  0  0  0  0
   -7.9557   24.7165  -31.2311 H   0  0  0  0  0  0  0  0  0  0  0  0
   -5.9399   26.1472  -30.9205 H   0  0  0  0  0  0  0  0  0  0  0  0
   -1.4904   19.7282  -31.0229 H   0  0  0  0  0  0  0  0  0  0  0  0
   -3.2936   19.7581  -31.0782 H   0  0  0  0  0  0  0  0  0  0  0  0
   -1.4078   19.6188  -33.4821 H   0  0  0  0  0  0  0  0  0  0  0  0
   -2.4293   18.2667  -32.7802 H   0  0  0  0  0  0  0  0  0  0  0  0
   -4.5964   21.2972  -34.3573 H   0  0  0  0  0  0  0  0  0  0  0  0
   -4.7826   20.6680  -32.6571 H   0  0  0  0  0  0  0  0  0  0  0  0
   -2.3971   22.2249  -33.7499 H   0  0  0  0  0  0  0  0  0  0  0  0
   -3.7000   22.8467  -32.6465 H   0  0  0  0  0  0  0  0  0  0  0  0
   -5.5100   21.1742  -30.7957 H   0  0  0  0  0  0  0  0  0  0  0  0
  1  2  2  0
  2  3  2  0
  2  4  1  0
  4  5  1  0
  5  6  1  0
  6  7  2  0
  7  8  1  0
  8  9  2  0
  9 10  1  0
 10 11  2  0
  2 12  1  0
 12 13  2  0
 13 14  1  0
 14 15  2  0
 15 16  1  0
 15 17  1  0
 17 18  1  0
 18 19  2  0
 18 20  2  0
 18 21  1  0
 21 22  1  0
 22 23  1  0
 23 24  1  0
 24 25  1  0
 25 26  1  0
 17 27  2  0
 11  6  1  0
 27 12  1  0
 26 21  1  0
  5 28  1  0
  5 29  1  0
  7 30  1  0
  8 31  1  0
  9 32  1  0
 10 33  1  0
 11 34  1  0
 13 35  1  0
 14 36  1  0
 22 37  1  0
 22 38  1  0
 23 39  1  0
 23 40  1  0
 25 41  1  0
 25 42  1  0
 26 43  1  0
 26 44  1  0
 27 45  1  0
M  CHG  2   4  -1  16  -1
M  END
>  <UniqueID>  (6) 
6

>  <SMILES>  (6) 
O=S(=O)([N-]Cc1ccccc1)c1ccc([O-])c(S(=O)(=O)N2CCOCC2)c1

>  <Energy>  (6) 
54.84448412819095

>  <Genealogy>  (6) 
O=S(=O)([N-]Cc1ccccc1)c1ccc([O-])c(S(=O)(=O)N2CCOCC2)c1 (protonated)
O=S(=O)([N-]Cc1ccccc1)c1ccc([O-])c(S(=O)(=O)N2CCOCC2)c1 (3D coordinates assigned)
O=S(=O)([N-]Cc1ccccc1)c1ccc([O-])c(S(=O)(=O)N2CCOCC2)c1 (nonaromatic ring conformer: 54.84448412819095 kcal/mol)

>  <smiles>  (6) 
O=S(=O)(NCc1ccccc1)c1ccc(O)c(S(=O)(=O)N2CCOCC2)c1

>  <score_type>  (6) 
oracle

>  <origin>  (6) 
adgpu

>  <m_score__min__energy>  (6) 
-12.08

>  <m_primary>  (6) 
energy

$$$$
6:0
     RDKit          3D

 50 53  0  0  0  0  0  0  0  0999 V2000
   -3.1200   21.4300  -33.4550 C   0  0  0  0  0  0  0  0  0  0  0  0
   -1.9450   20.5730  -32.9820 C   0  0  0  0  0  0  0  0  0  0  0  0
   -2.2750   19.0690  -32.9760 C   0  0  0  0  0  0  0  0  0  0  0  0
   -3.4720   18.7080  -33.8600 C   0  0  0  0  0  0  0  0  0  0  0  0
   -4.1320   17.5100  -33.3450 N   0  0  0  0  0  0  0  0  0  0  0  0
   -5.8010   17.4980  -33.8270 S   0  0  0  0  0  0  0  0  0  0  0  0
   -6.4040   16.1620  -33.5050 O   0  0  0  0  0  0  0  0  0  0  0  0
   -5.9010   17.7370  -35.3080 O   0  0  0  0  0  0  0  0  0  0  0  0
   -6.6660   18.7490  -32.9400 C   0  0  0  0  0  0  0  0  0  0  0  0
   -8.0240   18.6000  -32.6280 C   0  0  0  0  0  0  0  0  0  0  0  0
   -8.7010   19.6170  -31.9500 C   0  0  0  0  0  0  0  0  0  0  0  0
   -8.0270   20.7840  -31.5780 C   0  0  0  0  0  0  0  0  0  0  0  0
   -6.6620   20.9400  -31.8720 C   0  0  0  0  0  0  0  0  0  0  0  0
   -5.9440   22.1860  -31.5060 C   0  0  0  0  0  0  0  0  0  0  0  0
   -4.7400   22.1060  -30.7840 C   0  0  0  0  0  0  0  0  0  0  0  0
   -4.0220   23.2620  -30.4290 C   0  0  0  0  0  0  0  0  0  0  0  0
   -2.7510   23.1240  -29.6730 C   0  0  0  0  0  0  0  0  0  0  0  0
   -2.2600   21.9170  -29.2790 N   0  0  0  0  0  0  0  0  0  0  0  0
   -1.1230   22.2470  -28.6530 C   0  0  0  0  0  0  0  0  0  0  0  0
   -0.2030   21.3930  -28.0470 C   0  0  0  0  0  0  0  0  0  0  0  0
    0.9300   21.9770  -27.4480 C   0  0  0  0  0  0  0  0  0  0  0  0
    1.1100   23.3790  -27.4740 C   0  0  0  0  0  0  0  0  0  0  0  0
    0.1590   24.2080  -28.0980 C   0  0  0  0  0  0  0  0  0  0  0  0
   -0.9500   23.5950  -28.6780 C   0  0  0  0  0  0  0  0  0  0  0  0
   -1.9700   24.1810  -29.3200 N   0  0  0  0  0  0  0  0  0  0  0  0
   -4.5350   24.5220  -30.8070 C   0  0  0  0  0  0  0  0  0  0  0  0
   -3.8680   25.6980  -30.4810 O   0  0  0  0  0  0  0  0  0  0  0  0
   -5.7360   24.6070  -31.5150 C   0  0  0  0  0  0  0  0  0  0  0  0
   -6.4440   23.4530  -31.8600 C   0  0  0  0  0  0  0  0  0  0  0  0
   -7.6550   23.5810  -32.5330 O   0  0  0  0  0  0  0  0  0  0  0  0
   -5.9900   19.9140  -32.5590 C   0  0  0  0  0  0  0  0  0  0  0  0
   -3.6609   21.8245  -32.5822 H   0  0  0  0  0  0  0  0  0  0  0  0
   -2.7429   22.2666  -34.0615 H   0  0  0  0  0  0  0  0  0  0  0  0
   -3.8014   20.8153  -34.0615 H   0  0  0  0  0  0  0  0  0  0  0  0
   -1.0911   20.7438  -33.6540 H   0  0  0  0  0  0  0  0  0  0  0  0
   -1.7122   20.8676  -31.9481 H   0  0  0  0  0  0  0  0  0  0  0  0
   -1.3949   18.5170  -33.3376 H   0  0  0  0  0  0  0  0  0  0  0  0
   -2.5391   18.7975  -31.9433 H   0  0  0  0  0  0  0  0  0  0  0  0
   -4.1868   19.5441  -33.8642 H   0  0  0  0  0  0  0  0  0  0  0  0
   -3.1187   18.5133  -34.8834 H   0  0  0  0  0  0  0  0  0  0  0  0
   -8.5571   17.6822  -32.9169 H   0  0  0  0  0  0  0  0  0  0  0  0
   -9.7676   19.4991  -31.7082 H   0  0  0  0  0  0  0  0  0  0  0  0
   -8.5683   21.5844  -31.0523 H   0  0  0  0  0  0  0  0  0  0  0  0
   -4.3519   21.1193  -30.4910 H   0  0  0  0  0  0  0  0  0  0  0  0
   -0.3562   20.3038  -28.0370 H   0  0  0  0  0  0  0  0  0  0  0  0
    1.6792   21.3385  -26.9571 H   0  0  0  0  0  0  0  0  0  0  0  0
    1.9988   23.8248  -27.0036 H   0  0  0  0  0  0  0  0  0  0  0  0
    0.2865   25.3002  -28.1268 H   0  0  0  0  0  0  0  0  0  0  0  0
   -6.1286   25.5931  -31.8040 H   0  0  0  0  0  0  0  0  0  0  0  0
   -4.9227   20.0278  -32.7995 H   0  0  0  0  0  0  0  0  0  0  0  0
  1  2  1  0
  2  3  1  0
  3  4  1  0
  4  5  1  0
  5  6  1  0
  6  7  2  0
  6  8  2  0
  6  9  1  0
  9 10  2  0
 10 11  1  0
 11 12  2  0
 12 13  1  0
 13 14  1  0
 14 15  2  0
 15 16  1  0
 16 17  1  0
 17 18  2  0
 18 19  1  0
 19 20  2  0
 20 21  1  0
 21 22  2  0
 22 23  1  0
 23 24  2  0
 24 25  1  0
 16 26  2  0
 26 27  1  0
 26 28  1  0
 28 29  2  0
 29 30  1  0
 13 31  2  0
 31  9  1  0
 29 14  1  0
 25 17  1  0
 24 19  1  0
  1 32  1  0
  1 33  1  0
  1 34  1  0
  2 35  1  0
  2 36  1  0
  3 37  1  0
  3 38  1  0
  4 39  1  0
  4 40  1  0
 10 41  1  0
 11 42  1  0
 12 43  1  0
 15 44  1  0
 20 45  1  0
 21 46  1  0
 22 47  1  0
 23 48  1  0
 28 49  1  0
 31 50  1  0
M  CHG  4   5  -1  25  -1  27  -1  30  -1
M  END
>  <UniqueID>  (7) 
7

>  <SMILES>  (7) 
CCCC[N-]S(=O)(=O)c1cccc(-c2cc(-c3nc4ccccc4[n-]3)c([O-])cc2[O-])c1

>  <Energy>  (7) 
87.84098752481721

>  <Genealogy>  (7) 
CCCC[N-]S(=O)(=O)c1cccc(-c2cc(-c3nc4ccccc4[n-]3)c([O-])cc2[O-])c1 (protonated)
CCCC[N-]S(=O)(=O)c1cccc(-c2cc(-c3nc4ccccc4[n-]3)c([O-])cc2[O-])c1 (3D coordinates assigned)
CCCC[N-]S(=O)(=O)c1cccc(-c2cc(-c3nc4ccccc4[n-]3)c([O-])cc2[O-])c1 (optimized conformer: 87.84098752481721 kcal/mol)

>  <smiles>  (7) 
CCCCNS(=O)(=O)c1cccc(-c2cc(-c3nc4ccccc4[nH]3)c(O)cc2O)c1

>  <score_type>  (7) 
oracle

>  <origin>  (7) 
adgpu

>  <m_score__min__energy>  (7) 
-12.74

>  <m_primary>  (7) 
energy

$$$$
7:0
     RDKit          3D

 56 60  0  0  0  0  0  0  0  0999 V2000
   -6.1150   19.1180  -34.9730 O   0  0  0  0  0  0  0  0  0  0  0  0
   -6.4870   18.8890  -33.7900 C   0  0  0  0  0  0  0  0  0  0  0  0
   -6.3500   17.4940  -33.2350 C   0  0  0  0  0  0  0  0  0  0  0  0
   -6.4720   17.4190  -31.7170 C   0  0  0  0  0  0  0  0  0  0  0  0
   -5.1180   17.2350  -32.3730 C   0  0  0  0  0  0  0  0  0  0  0  0
   -7.0530   19.9400  -32.9820 N   0  0  0  0  0  0  0  0  0  0  0  0
   -8.4540   19.9590  -32.5370 C   0  0  0  0  0  0  0  0  0  0  0  0
   -8.5930   21.1680  -31.5860 C   0  0  0  0  0  0  0  0  0  0  0  0
   -7.2230   21.7550  -31.5730 C   0  0  0  0  0  0  0  0  0  0  0  0
   -6.7820   22.8620  -30.8460 C   0  0  0  0  0  0  0  0  0  0  0  0
   -5.4360   23.2510  -30.9580 C   0  0  0  0  0  0  0  0  0  0  0  0
   -4.7990   24.5640  -29.9770 S   0  0  0  0  0  0  0  0  0  0  0  0
   -4.2700   25.6520  -30.8630 O   0  0  0  0  0  0  0  0  0  0  0  0
   -5.8800   25.1400  -29.1090 O   0  0  0  0  0  0  0  0  0  0  0  0
   -3.5460   23.9300  -28.9670 N   0  0  0  0  0  0  0  0  0  0  0  0
   -2.7410   22.8200  -29.3680 C   0  0  0  0  0  0  0  0  0  0  0  0
   -3.0780   21.5130  -28.9860 C   0  0  0  0  0  0  0  0  0  0  0  0
   -2.2710   20.4390  -29.3730 C   0  0  0  0  0  0  0  0  0  0  0  0
   -1.1170   20.6610  -30.1440 C   0  0  0  0  0  0  0  0  0  0  0  0
   -0.1020   19.3030  -30.6370 S   0  0  0  0  0  0  0  0  0  0  0  0
    1.3380   19.6320  -30.3490 O   0  0  0  0  0  0  0  0  0  0  0  0
   -0.4710   18.0920  -29.8240 O   0  0  0  0  0  0  0  0  0  0  0  0
   -0.2910   18.9280  -32.3380 N   0  0  0  0  0  0  0  0  0  0  0  0
   -1.6100   18.3480  -32.6060 C   0  0  0  0  0  0  0  0  0  0  0  0
   -2.5270   19.4530  -33.1060 C   0  0  0  0  0  0  0  0  0  0  0  0
   -1.6070   20.5700  -33.5530 C   0  0  0  0  0  0  0  0  0  0  0  0
   -0.1960   20.1350  -33.1660 C   0  0  0  0  0  0  0  0  0  0  0  0
   -0.7800   21.9690  -30.5170 C   0  0  0  0  0  0  0  0  0  0  0  0
   -1.5980   23.0420  -30.1430 C   0  0  0  0  0  0  0  0  0  0  0  0
   -4.5690   22.5330  -31.8050 C   0  0  0  0  0  0  0  0  0  0  0  0
   -5.0340   21.4250  -32.5290 C   0  0  0  0  0  0  0  0  0  0  0  0
   -6.3740   21.0390  -32.3780 C   0  0  0  0  0  0  0  0  0  0  0  0
   -6.8091   16.9845  -34.0950 H   0  0  0  0  0  0  0  0  0  0  0  0
   -6.6822   18.3298  -31.1371 H   0  0  0  0  0  0  0  0  0  0  0  0
   -7.0811   16.8304  -31.0152 H   0  0  0  0  0  0  0  0  0  0  0  0
   -4.3468   18.0124  -32.2690 H   0  0  0  0  0  0  0  0  0  0  0  0
   -4.3398   16.4581  -32.3437 H   0  0  0  0  0  0  0  0  0  0  0  0
   -9.1258   20.0748  -33.4003 H   0  0  0  0  0  0  0  0  0  0  0  0
   -8.7245   19.0205  -32.0311 H   0  0  0  0  0  0  0  0  0  0  0  0
   -9.3273   21.8903  -31.9720 H   0  0  0  0  0  0  0  0  0  0  0  0
   -8.9503   20.8880  -30.5840 H   0  0  0  0  0  0  0  0  0  0  0  0
   -7.4745   23.4192  -30.1979 H   0  0  0  0  0  0  0  0  0  0  0  0
   -3.9788   21.3328  -28.3809 H   0  0  0  0  0  0  0  0  0  0  0  0
   -2.5404   19.4156  -29.0727 H   0  0  0  0  0  0  0  0  0  0  0  0
   -1.5222   17.5631  -33.3717 H   0  0  0  0  0  0  0  0  0  0  0  0
   -2.0207   17.9022  -31.6881 H   0  0  0  0  0  0  0  0  0  0  0  0
   -3.1357   19.0953  -33.9495 H   0  0  0  0  0  0  0  0  0  0  0  0
   -3.2264   19.7876  -32.3257 H   0  0  0  0  0  0  0  0  0  0  0  0
   -1.6782   20.7109  -34.6416 H   0  0  0  0  0  0  0  0  0  0  0  0
   -1.8767   21.5265  -33.0814 H   0  0  0  0  0  0  0  0  0  0  0  0
    0.3870   19.9176  -34.0731 H   0  0  0  0  0  0  0  0  0  0  0  0
    0.3051   20.9378  -32.6053 H   0  0  0  0  0  0  0  0  0  0  0  0
    0.1306   22.1535  -31.1058 H   0  0  0  0  0  0  0  0  0  0  0  0
   -1.3408   24.0635  -30.4599 H   0  0  0  0  0  0  0  0  0  0  0  0
   -3.5181   22.8439  -31.8995 H   0  0  0  0  0  0  0  0  0  0  0  0
   -4.3621   20.8707  -33.2008 H   0  0  0  0  0  0  0  0  0  0  0  0
  1  2  2  0
  2  3  1  0
  3  4  1  0
  4  5  1  0
  2  6  1  0
  6  7  1  0
  7  8  1  0
  8  9  1  0
  9 10  2  0
 10 11  1  0
 11 12  1  0
 12 13  2  0
 12 14  2  0
 12 15  1  0
 15 16  1  0
 16 17  2  0
 17 18  1  0
 18 19  2  0
 19 20  1  0
 20 21  2  0
 20 22  2  0
 20 23  1  0
 23 24  1  0
 24 25  1  0
 25 26  1  0
 26 27  1  0
 19 28  1  0
 28 29  2  0
 11 30  2  0
 30 31  1  0
 31 32  2  0
  5  3  1  0
 32  6  1  0
 32  9  1  0
 29 16  1  0
 27 23  1  0
  3 33  1  0
  4 34  1  0
  4 35  1  0
  5 36  1  0
  5 37  1  0
  7 38  1  0
  7 39  1  0
  8 40  1  0
  8 41  1  0
 10 42  1  0
 17 43  1  0
 18 44  1  0
 24 45  1  0
 24 46  1  0
 25 47  1  0
 25 48  1  0
 26 49  1  0
 26 50  1  0
 27 51  1  0
 27 52  1  0
 28 53  1  0
 29 54  1  0
 30 55  1  0
 31 56  1  0
M  CHG  1  15  -1
M  END
>  <UniqueID>  (8) 
8

>  <SMILES>  (8) 
O=C(C1CC1)N1CCc2cc(S(=O)(=O)[N-]c3ccc(S(=O)(=O)N4CCCC4)cc3)ccc21

>  <Energy>  (8) 
347.70277568181535

>  <Genealogy>  (8) 
O=C(C1CC1)N1CCc2cc(S(=O)(=O)[N-]c3ccc(S(=O)(=O)N4CCCC4)cc3)ccc21 (protonated)
O=C(C1CC1)N1CCc2cc(S(=O)(=O)[N-]c3ccc(S(=O)(=O)N4CCCC4)cc3)ccc21 (3D coordinates assigned)
O=C(C1CC1)N1CCc2cc(S(=O)(=O)[N-]c3ccc(S(=O)(=O)N4CCCC4)cc3)ccc21 (nonaromatic ring conformer: 347.70277568181535 kcal/mol)

>  <smiles>  (8) 
O=C(C1CC1)N1CCc2cc(S(=O)(=O)Nc3ccc(S(=O)(=O)N4CCCC4)cc3)ccc21

>  <score_type>  (8) 
oracle

>  <origin>  (8) 
adgpu

>  <m_score__min__energy>  (8) 
-12.41

>  <m_primary>  (8) 
energy

$$$$
8:0
     RDKit          3D

 59 63  0  0  0  0  0  0  0  0999 V2000
   -1.4560   21.5130  -29.9750 O   0  0  0  0  0  0  0  0  0  0  0  0
   -1.8970   21.7620  -31.1280 C   0  0  0  0  0  0  0  0  0  0  0  0
   -2.5210   23.0330  -31.3610 N   0  0  0  0  0  0  0  0  0  0  0  0
   -3.7950   23.4670  -30.8710 C   0  0  0  0  0  0  0  0  0  0  0  0
   -4.9300   22.7230  -31.2170 C   0  0  0  0  0  0  0  0  0  0  0  0
   -6.2000   23.0960  -30.7540 C   0  0  0  0  0  0  0  0  0  0  0  0
   -7.6220   22.1460  -31.1950 S   0  0  0  0  0  0  0  0  0  0  0  0
   -8.5770   22.1190  -30.0330 O   0  0  0  0  0  0  0  0  0  0  0  0
   -8.3160   22.8120  -32.3500 O   0  0  0  0  0  0  0  0  0  0  0  0
   -7.2260   20.5030  -31.6420 N   0  0  0  0  0  0  0  0  0  0  0  0
   -6.5330   20.4320  -32.9280 C   0  0  0  0  0  0  0  0  0  0  0  0
   -6.8150   19.0470  -33.4930 C   0  0  0  0  0  0  0  0  0  0  0  0
   -8.0360   18.5410  -32.7330 C   0  0  0  0  0  0  0  0  0  0  0  0
   -8.4210   19.6740  -31.7960 C   0  0  0  0  0  0  0  0  0  0  0  0
   -6.3310   24.2280  -29.9370 C   0  0  0  0  0  0  0  0  0  0  0  0
   -5.2000   24.9620  -29.5680 C   0  0  0  0  0  0  0  0  0  0  0  0
   -3.9300   24.5810  -30.0170 C   0  0  0  0  0  0  0  0  0  0  0  0
   -2.8170   25.2970  -29.5910 O   0  0  0  0  0  0  0  0  0  0  0  0
   -1.8290   20.7120  -32.1740 C   0  0  0  0  0  0  0  0  0  0  0  0
   -2.3770   20.9240  -33.4520 C   0  0  0  0  0  0  0  0  0  0  0  0
   -2.3280   19.9150  -34.4180 C   0  0  0  0  0  0  0  0  0  0  0  0
   -1.7440   18.6830  -34.1180 C   0  0  0  0  0  0  0  0  0  0  0  0
   -1.2070   18.4480  -32.8460 C   0  0  0  0  0  0  0  0  0  0  0  0
   -0.4620   16.8940  -32.4810 S   0  0  0  0  0  0  0  0  0  0  0  0
    0.8900   16.8210  -33.1340 O   0  0  0  0  0  0  0  0  0  0  0  0
   -0.2950   16.7590  -30.9940 O   0  0  0  0  0  0  0  0  0  0  0  0
   -1.4580   15.6050  -33.0750 N   0  0  0  0  0  0  0  0  0  0  0  0
   -0.9570   14.3520  -33.6340 C   0  0  0  0  0  0  0  0  0  0  0  0
   -2.2070   13.5790  -34.1280 C   0  0  0  0  0  0  0  0  0  0  0  0
   -3.3350   14.4940  -33.7890 C   0  0  0  0  0  0  0  0  0  0  0  0
   -4.7000   14.3010  -34.0120 C   0  0  0  0  0  0  0  0  0  0  0  0
   -5.5940   15.3090  -33.6110 C   0  0  0  0  0  0  0  0  0  0  0  0
   -5.1110   16.4830  -32.9980 C   0  0  0  0  0  0  0  0  0  0  0  0
   -3.7320   16.6560  -32.7910 C   0  0  0  0  0  0  0  0  0  0  0  0
   -2.8660   15.6370  -33.2000 C   0  0  0  0  0  0  0  0  0  0  0  0
   -1.2520   19.4610  -31.8780 C   0  0  0  0  0  0  0  0  0  0  0  0
   -4.8240   21.8362  -31.8591 H   0  0  0  0  0  0  0  0  0  0  0  0
   -6.9158   21.2059  -33.6095 H   0  0  0  0  0  0  0  0  0  0  0  0
   -5.4527   20.6012  -32.8084 H   0  0  0  0  0  0  0  0  0  0  0  0
   -7.0297   19.1071  -34.5702 H   0  0  0  0  0  0  0  0  0  0  0  0
   -5.9526   18.3741  -33.3765 H   0  0  0  0  0  0  0  0  0  0  0  0
   -8.8588   18.3196  -33.4287 H   0  0  0  0  0  0  0  0  0  0  0  0
   -7.8231   17.6104  -32.1865 H   0  0  0  0  0  0  0  0  0  0  0  0
   -9.2412   20.2649  -32.2297 H   0  0  0  0  0  0  0  0  0  0  0  0
   -8.7690   19.2898  -30.8258 H   0  0  0  0  0  0  0  0  0  0  0  0
   -7.3259   24.5391  -29.5857 H   0  0  0  0  0  0  0  0  0  0  0  0
   -5.3087   25.8447  -28.9206 H   0  0  0  0  0  0  0  0  0  0  0  0
   -2.8467   21.8892  -33.6925 H   0  0  0  0  0  0  0  0  0  0  0  0
   -2.7510   20.0923  -35.4178 H   0  0  0  0  0  0  0  0  0  0  0  0
   -1.7055   17.8939  -34.8834 H   0  0  0  0  0  0  0  0  0  0  0  0
   -0.2747   14.5528  -34.4731 H   0  0  0  0  0  0  0  0  0  0  0  0
   -0.3923   13.7735  -32.8880 H   0  0  0  0  0  0  0  0  0  0  0  0
   -2.1567   13.4010  -35.2123 H   0  0  0  0  0  0  0  0  0  0  0  0
   -2.3070   12.5849  -33.6678 H   0  0  0  0  0  0  0  0  0  0  0  0
   -5.0673   13.3812  -34.4905 H   0  0  0  0  0  0  0  0  0  0  0  0
   -6.6740   15.1813  -33.7761 H   0  0  0  0  0  0  0  0  0  0  0  0
   -5.8157   17.2659  -32.6808 H   0  0  0  0  0  0  0  0  0  0  0  0
   -3.3433   17.5703  -32.3189 H   0  0  0  0  0  0  0  0  0  0  0  0
   -0.8328   19.2775  -30.8777 H   0  0  0  0  0  0  0  0  0  0  0  0
  1  2  2  0
  2  3  1  0
  3  4  1  0
  4  5  2  0
  5  6  1  0
  6  7  1  0
  7  8  2  0
  7  9  2  0
  7 10  1  0
 10 11  1  0
 11 12  1  0
 12 13  1  0
 13 14  1  0
  6 15  2  0
 15 16  1  0
 16 17  2  0
 17 18  1  0
  2 19  1  0
 19 20  2  0
 20 21  1  0
 21 22  2  0
 22 23  1  0
 23 24  1  0
 24 25  2  0
 24 26  2  0
 24 27  1  0
 27 28  1  0
 28 29  1  0
 29 30  1  0
 30 31  2  0
 31 32  1  0
 32 33  2  0
 33 34  1  0
 34 35  2  0
 23 36  2  0
 17  4  1  0
 36 19  1  0
 14 10  1  0
 35 27  1  0
 35 30  1  0
  5 37  1  0
 11 38  1  0
 11 39  1  0
 12 40  1  0
 12 41  1  0
 13 42  1  0
 13 43  1  0
 14 44  1  0
 14 45  1  0
 15 46  1  0
 16 47  1  0
 20 48  1  0
 21 49  1  0
 22 50  1  0
 28 51  1  0
 28 52  1  0
 29 53  1  0
 29 54  1  0
 31 55  1  0
 32 56  1  0
 33 57  1  0
 34 58  1  0
 36 59  1  0
M  CHG  2   3  -1  18  -1
M  END
>  <UniqueID>  (9) 
9

>  <SMILES>  (9) 
O=C([N-]c1cc(S(=O)(=O)N2CCCC2)ccc1[O-])c1cccc(S(=O)(=O)N2CCc3ccccc32)c1

>  <Energy>  (9) 
89.69997477991862

>  <Genealogy>  (9) 
O=C([N-]c1cc(S(=O)(=O)N2CCCC2)ccc1[O-])c1cccc(S(=O)(=O)N2CCc3ccccc32)c1 (protonated)
O=C([N-]c1cc(S(=O)(=O)N2CCCC2)ccc1[O-])c1cccc(S(=O)(=O)N2CCc3ccccc32)c1 (3D coordinates assigned)
O=C([N-]c1cc(S(=O)(=O)N2CCCC2)ccc1[O-])c1cccc(S(=O)(=O)N2CCc3ccccc32)c1 (nonaromatic ring conformer: 89.69997477991862 kcal/mol)

>  <smiles>  (9) 
O=C(Nc1cc(S(=O)(=O)N2CCCC2)ccc1O)c1cccc(S(=O)(=O)N2CCc3ccccc32)c1

>  <score_type>  (9) 
oracle

>  <origin>  (9) 
adgpu

>  <m_score__min__energy>  (9) 
-15.25

>  <m_primary>  (9) 
energy

$$$$
9:0
     RDKit          3D

 28 29  0  0  0  0  0  0  0  0999 V2000
   -3.9400   18.5160  -33.9860 C   0  0  0  0  0  0  0  0  0  0  0  0
   -5.4000   18.5200  -34.3070 C   0  0  0  0  0  0  0  0  0  0  0  0
   -5.7810   18.1680  -35.4550 O   0  0  0  0  0  0  0  0  0  0  0  0
   -6.3850   18.9310  -33.2880 C   0  0  0  0  0  0  0  0  0  0  0  0
   -7.1360   20.0460  -33.3870 N   0  0  0  0  0  0  0  0  0  0  0  0
   -7.8730   20.0250  -32.2560 C   0  0  0  0  0  0  0  0  0  0  0  0
   -9.0640   21.2900  -31.8380 S   0  0  0  0  0  0  0  0  0  0  0  0
   -7.7810   22.4950  -31.5060 C   0  0  0  0  0  0  0  0  0  0  0  0
   -7.4220   22.7980  -30.1890 C   0  0  0  0  0  0  0  0  0  0  0  0
   -6.4150   23.7350  -29.9540 C   0  0  0  0  0  0  0  0  0  0  0  0
   -5.7780   24.3610  -31.0340 C   0  0  0  0  0  0  0  0  0  0  0  0
   -4.7440   25.3230  -30.8080 N   0  0  0  0  0  0  0  0  0  0  0  0
   -6.1700   24.0300  -32.3370 C   0  0  0  0  0  0  0  0  0  0  0  0
   -7.1540   23.1130  -32.5420 N   0  0  0  0  0  0  0  0  0  0  0  0
   -7.6200   18.9870  -31.4940 O   0  0  0  0  0  0  0  0  0  0  0  0
   -6.6980   18.2850  -32.1040 C   0  0  0  0  0  0  0  0  0  0  0  0
   -6.1200   17.0160  -31.5690 C   0  0  0  0  0  0  0  0  0  0  0  0
   -3.8046   18.5156  -32.8944 H   0  0  0  0  0  0  0  0  0  0  0  0
   -3.4730   17.6166  -34.4137 H   0  0  0  0  0  0  0  0  0  0  0  0
   -3.4681   19.4129  -34.4137 H   0  0  0  0  0  0  0  0  0  0  0  0
   -7.9280   22.3030  -29.3471 H   0  0  0  0  0  0  0  0  0  0  0  0
   -6.1217   23.9818  -28.9229 H   0  0  0  0  0  0  0  0  0  0  0  0
   -4.1510   25.6650  -31.5960 H   0  0  0  0  0  0  0  0  0  0  0  0
   -4.5660   25.6990  -29.8490 H   0  0  0  0  0  0  0  0  0  0  0  0
   -5.6814   24.5123  -33.1965 H   0  0  0  0  0  0  0  0  0  0  0  0
   -6.1321   17.0425  -30.4694 H   0  0  0  0  0  0  0  0  0  0  0  0
   -6.7185   16.1631  -31.9218 H   0  0  0  0  0  0  0  0  0  0  0  0
   -5.0838   16.9077  -31.9218 H   0  0  0  0  0  0  0  0  0  0  0  0
  1  2  1  0
  2  3  2  0
  2  4  1  0
  4  5  1  0
  5  6  2  0
  6  7  1  0
  7  8  1  0
  8  9  2  0
  9 10  1  0
 10 11  2  0
 11 12  1  0
 11 13  1  0
 13 14  2  0
  6 15  1  0
 15 16  1  0
 16 17  1  0
 16  4  2  0
 14  8  1  0
  1 18  1  0
  1 19  1  0
  1 20  1  0
  9 21  1  0
 10 22  1  0
 12 23  1  0
 12 24  1  0
 13 25  1  0
 17 26  1  0
 17 27  1  0
 17 28  1  0
M  END
>  <UniqueID>  (10) 
10

>  <SMILES>  (10) 
CC(=O)c1nc(Sc2ccc(N)cn2)oc1C

>  <Energy>  (10) 
50.99770353267483

>  <Genealogy>  (10) 
CC(=O)c1nc(Sc2ccc(N)cn2)oc1C (3D coordinates assigned)
CC(=O)c1nc(Sc2ccc(N)cn2)oc1C (optimized conformer: 50.99770353267483 kcal/mol)

>  <smiles>  (10) 
CC(=O)c1nc(Sc2ccc(N)cn2)oc1C

>  <score_type>  (10) 
oracle

>  <origin>  (10) 
adgpu

>  <m_score__min__energy>  (10) 
-7.0599999999999996

>  <m_primary>  (10) 
energy

$$$$
10:0
     RDKit          3D

 68 71  0  0  0  0  0  0  0  0999 V2000
   -4.9200   14.4580  -32.2600 C   0  0  0  0  0  0  0  0  0  0  0  0
   -5.4550   14.7340  -33.6740 C   0  0  0  0  0  0  0  0  0  0  0  0
   -4.3120   14.7780  -34.7040 C   0  0  0  0  0  0  0  0  0  0  0  0
   -3.3920   15.9990  -34.4960 C   0  0  0  0  0  0  0  0  0  0  0  0
   -4.1030   17.1680  -33.9140 N   0  0  0  0  0  0  0  0  0  0  0  0
   -3.4050   18.4700  -34.0900 C   0  0  1  0  0  0  0  0  0  0  0  0
   -4.1580   19.6080  -33.3660 C   0  0  0  0  0  0  0  0  0  0  0  0
   -3.3690   20.9200  -33.4690 C   0  0  0  0  0  0  0  0  0  0  0  0
   -1.9390   20.8390  -32.8140 C   0  0  1  0  0  0  0  0  0  0  0  0
   -0.9450   21.5530  -33.7910 C   0  0  0  0  0  0  0  0  0  0  0  0
    0.4130   20.9810  -33.8100 C   0  0  0  0  0  0  0  0  0  0  0  0
    1.4790   20.5330  -33.8280 N   0  0  0  0  0  0  0  0  0  0  0  0
   -1.9460   21.5280  -31.4990 N   0  0  0  0  0  0  0  0  0  0  0  0
   -1.2080   21.1980  -30.4130 C   0  0  0  0  0  0  0  0  0  0  0  0
   -1.3970   22.1470  -29.4310 C   0  0  0  0  0  0  0  0  0  0  0  0
   -0.9710   21.9870  -28.0290 C   0  0  0  0  0  0  0  0  0  0  0  0
   -1.6350   21.0680  -27.1610 N   0  0  0  0  0  0  0  0  0  0  0  0
    0.0420   22.6110  -27.6140 O   0  0  0  0  0  0  0  0  0  0  0  0
   -2.2420   23.0850  -30.0250 C   0  0  0  0  0  0  0  0  0  0  0  0
   -2.6450   24.2310  -29.5520 N   0  0  0  0  0  0  0  0  0  0  0  0
   -2.1810   24.8990  -28.3720 C   0  0  0  0  0  0  0  0  0  0  0  0
   -1.0090   25.6620  -28.4290 C   0  0  0  0  0  0  0  0  0  0  0  0
   -0.5270   26.3030  -27.2840 C   0  0  0  0  0  0  0  0  0  0  0  0
   -1.1980   26.1580  -26.0620 C   0  0  0  0  0  0  0  0  0  0  0  0
   -0.6260   27.0040  -24.6280 S   0  0  0  0  0  0  0  0  0  0  0  0
    0.9800   26.3810  -24.1840 C   0  0  0  0  0  0  0  0  0  0  0  0
   -1.5820   26.7910  -23.4880 O   0  0  0  0  0  0  0  0  0  0  0  0
   -0.5340   28.4770  -24.9120 O   0  0  0  0  0  0  0  0  0  0  0  0
   -2.3450   25.3590  -25.9920 C   0  0  0  0  0  0  0  0  0  0  0  0
   -2.8250   24.7180  -27.1370 C   0  0  0  0  0  0  0  0  0  0  0  0
   -2.5600   22.6810  -31.2670 N   0  0  0  0  0  0  0  0  0  0  0  0
   -1.5160   19.3550  -32.5710 C   0  0  0  0  0  0  0  0  0  0  0  0
   -1.8860   18.4270  -33.7360 C   0  0  0  0  0  0  0  0  0  0  0  0
   -5.5250   17.2280  -34.3120 C   0  0  0  0  0  0  0  0  0  0  0  0
   -6.2960   16.0340  -33.7220 C   0  0  0  0  0  0  0  0  0  0  0  0
   -5.6404   14.8296  -31.5164 H   0  0  0  0  0  0  0  0  0  0  0  0
   -4.7801   13.3752  -32.1258 H   0  0  0  0  0  0  0  0  0  0  0  0
   -3.9566   14.9716  -32.1258 H   0  0  0  0  0  0  0  0  0  0  0  0
   -6.1196   13.8991  -33.9408 H   0  0  0  0  0  0  0  0  0  0  0  0
   -3.7121   13.8610  -34.6079 H   0  0  0  0  0  0  0  0  0  0  0  0
   -4.7604   14.8576  -35.7053 H   0  0  0  0  0  0  0  0  0  0  0  0
   -2.5756   15.7115  -33.8172 H   0  0  0  0  0  0  0  0  0  0  0  0
   -3.0160   16.3007  -35.4847 H   0  0  0  0  0  0  0  0  0  0  0  0
   -3.4274   18.6898  -35.1676 H   0  0  0  0  0  0  0  0  0  0  0  0
   -5.1463   19.7417  -33.8302 H   0  0  0  0  0  0  0  0  0  0  0  0
   -4.2724   19.3422  -32.3047 H   0  0  0  0  0  0  0  0  0  0  0  0
   -3.2521   21.1747  -34.5327 H   0  0  0  0  0  0  0  0  0  0  0  0
   -3.9364   21.6858  -32.9198 H   0  0  0  0  0  0  0  0  0  0  0  0
   -1.3585   21.4893  -34.8083 H   0  0  0  0  0  0  0  0  0  0  0  0
   -0.8428   22.5874  -33.4311 H   0  0  0  0  0  0  0  0  0  0  0  0
   -0.5603   20.3130  -30.3277 H   0  0  0  0  0  0  0  0  0  0  0  0
   -2.3720   20.4230  -27.5240 H   0  0  0  0  0  0  0  0  0  0  0  0
   -1.3630   21.0080  -26.1540 H   0  0  0  0  0  0  0  0  0  0  0  0
   -0.4643   25.7578  -29.3798 H   0  0  0  0  0  0  0  0  0  0  0  0
    0.3803   26.9222  -27.3422 H   0  0  0  0  0  0  0  0  0  0  0  0
    1.0697   26.3462  -23.0882 H   0  0  0  0  0  0  0  0  0  0  0  0
    1.1069   25.3684  -24.5946 H   0  0  0  0  0  0  0  0  0  0  0  0
    1.7565   27.0431  -24.5946 H   0  0  0  0  0  0  0  0  0  0  0  0
   -2.8699   25.2354  -25.0332 H   0  0  0  0  0  0  0  0  0  0  0  0
   -3.7107   24.0691  -27.0709 H   0  0  0  0  0  0  0  0  0  0  0  0
   -0.4259   19.3203  -32.4279 H   0  0  0  0  0  0  0  0  0  0  0  0
   -2.0586   18.9997  -31.6825 H   0  0  0  0  0  0  0  0  0  0  0  0
   -1.3105   18.7309  -34.6228 H   0  0  0  0  0  0  0  0  0  0  0  0
   -1.6491   17.3986  -33.4259 H   0  0  0  0  0  0  0  0  0  0  0  0
   -5.9666   18.1644  -33.9403 H   0  0  0  0  0  0  0  0  0  0  0  0
   -5.5912   17.1895  -35.4093 H   0  0  0  0  0  0  0  0  0  0  0  0
   -6.6062   16.2887  -32.6978 H   0  0  0  0  0  0  0  0  0  0  0  0
   -7.1588   15.8435  -34.3772 H   0  0  0  0  0  0  0  0  0  0  0  0
  1  2  1  0
  2  3  1  0
  3  4  1  0
  4  5  1  0
  5  6  1  0
  6  7  1  0
  7  8  1  0
  8  9  1  0
  9 10  1  6
 10 11  1  0
 11 12  3  0
  9 13  1  0
 13 14  1  0
 14 15  2  0
 15 16  1  0
 16 17  1  0
 16 18  2  0
 15 19  1  0
 19 20  2  3
 20 21  1  0
 21 22  2  0
 22 23  1  0
 23 24  2  0
 24 25  1  0
 25 26  1  0
 25 27  2  0
 25 28  2  0
 24 29  1  0
 29 30  2  0
 19 31  1  0
  9 32  1  0
 32 33  1  0
  5 34  1  0
 34 35  1  0
 35  2  1  0
 33  6  1  0
 31 13  1  0
 30 21  1  0
  1 36  1  0
  1 37  1  0
  1 38  1  0
  2 39  1  0
  3 40  1  0
  3 41  1  0
  4 42  1  0
  4 43  1  0
  6 44  1  6
  7 45  1  0
  7 46  1  0
  8 47  1  0
  8 48  1  0
 10 49  1  0
 10 50  1  0
 14 51  1  0
 17 52  1  0
 17 53  1  0
 22 54  1  0
 23 55  1  0
 26 56  1  0
 26 57  1  0
 26 58  1  0
 29 59  1  0
 30 60  1  0
 32 61  1  0
 32 62  1  0
 33 63  1  0
 33 64  1  0
 34 65  1  0
 34 66  1  0
 35 67  1  0
 35 68  1  0
M  CHG  1  31  -1
M  END
>  <UniqueID>  (11) 
11

>  <SMILES>  (11) 
CC1CCN(C2CCC(CC#N)(n3cc(C(N)=O)c(=Nc4ccc(S(C)(=O)=O)cc4)[n-]3)CC2)CC1

>  <Energy>  (11) 
130.02983256325717

>  <Genealogy>  (11) 
CC1CCN(C2CCC(CC#N)(n3cc(C(N)=O)c(=Nc4ccc(S(C)(=O)=O)cc4)[n-]3)CC2)CC1 (protonated)
CC1CCN(C2CCC(CC#N)(n3cc(C(N)=O)c(=Nc4ccc(S(C)(=O)=O)cc4)[n-]3)CC2)CC1 (3D coordinates assigned)
CC1CCN(C2CCC(CC#N)(n3cc(C(N)=O)c(=Nc4ccc(S(C)(=O)=O)cc4)[n-]3)CC2)CC1 (nonaromatic ring conformer: 130.02983256325717 kcal/mol)

>  <smiles>  (11) 
CC1CCN(C2CCC(CC#N)(n3cc(C(N)=O)c(=Nc4ccc(S(C)(=O)=O)cc4)[nH]3)CC2)CC1

>  <score_type>  (11) 
oracle

>  <origin>  (11) 
adgpu

>  <m_score__min__energy>  (11) 
-11.74

>  <m_primary>  (11) 
energy

$$$$
11:0
     RDKit          3D

 54 57  0  0  0  0  0  0  0  0999 V2000
   -3.8320   17.6260  -34.6130 C   0  0  0  0  0  0  0  0  0  0  0  0
   -3.9940   18.9270  -33.9020 C   0  0  0  0  0  0  0  0  0  0  0  0
   -5.1910   19.4980  -33.5270 C   0  0  0  0  0  0  0  0  0  0  0  0
   -4.8080   20.6880  -32.9370 C   0  0  0  0  0  0  0  0  0  0  0  0
   -5.6850   21.6960  -32.3000 C   0  0  0  0  0  0  0  0  0  0  0  0
   -7.0800   21.5910  -32.4340 C   0  0  0  0  0  0  0  0  0  0  0  0
   -7.9180   22.5710  -31.8920 C   0  0  0  0  0  0  0  0  0  0  0  0
   -7.3730   23.6730  -31.2300 C   0  0  0  0  0  0  0  0  0  0  0  0
   -5.9860   23.7910  -31.0830 C   0  0  0  0  0  0  0  0  0  0  0  0
   -5.2950   25.2430  -30.3590 S   0  0  0  0  0  0  0  0  0  0  0  0
   -5.8030   25.4370  -28.9580 O   0  0  0  0  0  0  0  0  0  0  0  0
   -5.6930   26.4410  -31.1770 O   0  0  0  0  0  0  0  0  0  0  0  0
   -3.5660   25.1030  -30.3640 N   0  0  0  0  0  0  0  0  0  0  0  0
   -2.8430   24.3200  -29.4050 C   0  0  0  0  0  0  0  0  0  0  0  0
   -3.3070   23.0610  -28.9990 C   0  0  0  0  0  0  0  0  0  0  0  0
   -2.5310   22.2630  -28.1490 C   0  0  0  0  0  0  0  0  0  0  0  0
   -1.3020   22.7320  -27.6770 C   0  0  0  0  0  0  0  0  0  0  0  0
   -0.8700   24.0190  -28.0180 C   0  0  0  0  0  0  0  0  0  0  0  0
   -1.6340   24.8120  -28.8880 C   0  0  0  0  0  0  0  0  0  0  0  0
   -1.1850   26.0780  -29.2620 O   0  0  0  0  0  0  0  0  0  0  0  0
   -0.5110   21.8430  -26.7550 C   0  0  0  0  0  0  0  0  0  0  0  0
   -0.5360   20.4200  -27.1860 N   0  0  0  0  0  0  0  0  0  0  0  0
    0.7280   19.9700  -27.8300 C   0  0  0  0  0  0  0  0  0  0  0  0
    0.4800   19.4560  -29.2560 C   0  0  0  0  0  0  0  0  0  0  0  0
    1.8330   21.0450  -27.8180 C   0  0  0  0  0  0  0  0  0  0  0  0
   -1.7830   19.9360  -27.8490 C   0  0  0  0  0  0  0  0  0  0  0  0
   -2.9700   20.8980  -27.7210 C   0  0  0  0  0  0  0  0  0  0  0  0
   -5.1480   22.7920  -31.6010 C   0  0  0  0  0  0  0  0  0  0  0  0
   -3.4960   20.7860  -33.0010 O   0  0  0  0  0  0  0  0  0  0  0  0
   -2.9720   19.7450  -33.5810 N   0  0  0  0  0  0  0  0  0  0  0  0
   -3.7311   16.8155  -33.8761 H   0  0  0  0  0  0  0  0  0  0  0  0
   -4.7140   17.4405  -35.2436 H   0  0  0  0  0  0  0  0  0  0  0  0
   -2.9315   17.6624  -35.2436 H   0  0  0  0  0  0  0  0  0  0  0  0
   -6.2079   19.1016  -33.6643 H   0  0  0  0  0  0  0  0  0  0  0  0
   -7.5152   20.7335  -32.9680 H   0  0  0  0  0  0  0  0  0  0  0  0
   -9.0095   22.4733  -31.9875 H   0  0  0  0  0  0  0  0  0  0  0  0
   -8.0357   24.4508  -30.8227 H   0  0  0  0  0  0  0  0  0  0  0  0
   -4.2846   22.6984  -29.3495 H   0  0  0  0  0  0  0  0  0  0  0  0
    0.0708   24.4098  -27.6030 H   0  0  0  0  0  0  0  0  0  0  0  0
   -1.2450   26.4000  -30.2220 H   0  0  0  0  0  0  0  0  0  0  0  0
    0.5329   22.1895  -26.7385 H   0  0  0  0  0  0  0  0  0  0  0  0
   -0.9687   21.9008  -25.7564 H   0  0  0  0  0  0  0  0  0  0  0  0
    1.0974   19.1346  -27.2171 H   0  0  0  0  0  0  0  0  0  0  0  0
    0.0024   18.4661  -29.2111 H   0  0  0  0  0  0  0  0  0  0  0  0
   -0.1789   20.1572  -29.7891 H   0  0  0  0  0  0  0  0  0  0  0  0
    1.4389   19.3766  -29.7891 H   0  0  0  0  0  0  0  0  0  0  0  0
    2.0900   21.2950  -26.7781 H   0  0  0  0  0  0  0  0  0  0  0  0
    2.7250   20.6597  -28.3337 H   0  0  0  0  0  0  0  0  0  0  0  0
    1.4724   21.9473  -28.3337 H   0  0  0  0  0  0  0  0  0  0  0  0
   -1.5713   19.7879  -28.9182 H   0  0  0  0  0  0  0  0  0  0  0  0
   -2.0723   19.0037  -27.3418 H   0  0  0  0  0  0  0  0  0  0  0  0
   -3.7944   20.5560  -28.3640 H   0  0  0  0  0  0  0  0  0  0  0  0
   -3.3178   20.9266  -26.6778 H   0  0  0  0  0  0  0  0  0  0  0  0
   -4.0598   22.8667  -31.4590 H   0  0  0  0  0  0  0  0  0  0  0  0
  1  2  1  0
  2  3  1  0
  3  4  2  0
  4  5  1  0
  5  6  2  0
  6  7  1  0
  7  8  2  0
  8  9  1  0
  9 10  1  0
 10 11  2  0
 10 12  2  0
 10 13  1  0
 13 14  1  0
 14 15  2  0
 15 16  1  0
 16 17  2  0
 17 18  1  0
 18 19  2  0
 19 20  1  0
 17 21  1  0
 21 22  1  0
 22 23  1  0
 23 24  1  0
 23 25  1  0
 22 26  1  0
 26 27  1  0
  9 28  2  0
  4 29  1  0
 29 30  1  0
 30  2  2  0
 28  5  1  0
 19 14  1  0
 27 16  1  0
  1 31  1  0
  1 32  1  0
  1 33  1  0
  3 34  1  0
  6 35  1  0
  7 36  1  0
  8 37  1  0
 15 38  1  0
 18 39  1  0
 20 40  1  0
 21 41  1  0
 21 42  1  0
 23 43  1  0
 24 44  1  0
 24 45  1  0
 24 46  1  0
 25 47  1  0
 25 48  1  0
 25 49  1  0
 26 50  1  0
 26 51  1  0
 27 52  1  0
 27 53  1  0
 28 54  1  0
M  CHG  1  13  -1
M  END
>  <UniqueID>  (12) 
12

>  <SMILES>  (12) 
Cc1cc(-c2cccc(S(=O)(=O)[N-]c3cc4c(cc3O)CN(C(C)C)CC4)c2)on1

>  <Energy>  (12) 
99.53647077565316

>  <Genealogy>  (12) 
Cc1cc(-c2cccc(S(=O)(=O)[N-]c3cc4c(cc3O)CN(C(C)C)CC4)c2)on1 (protonated)
Cc1cc(-c2cccc(S(=O)(=O)[N-]c3cc4c(cc3O)CN(C(C)C)CC4)c2)on1 (3D coordinates assigned)
Cc1cc(-c2cccc(S(=O)(=O)[N-]c3cc4c(cc3O)CN(C(C)C)CC4)c2)on1 (nonaromatic ring conformer: 99.53647077565316 kcal/mol)

>  <smiles>  (12) 
Cc1cc(-c2cccc(S(=O)(=O)Nc3cc4c(cc3O)CN(C(C)C)CC4)c2)on1

>  <score_type>  (12) 
oracle

>  <origin>  (12) 
adgpu

>  <m_score__min__energy>  (12) 
-11.9

>  <m_primary>  (12) 
energy

$$$$
12:0
     RDKit          3D

 50 53  0  0  0  0  0  0  0  0999 V2000
   -5.9610   25.6340  -29.8000 O   0  0  0  0  0  0  0  0  0  0  0  0
   -5.0490   25.1940  -30.5490 C   0  0  0  0  0  0  0  0  0  0  0  0
   -3.6890   25.2910  -30.1230 N   0  0  0  0  0  0  0  0  0  0  0  0
   -3.0540   24.2930  -29.3170 C   0  0  0  0  0  0  0  0  0  0  0  0
   -3.7670   23.1740  -28.8590 C   0  0  0  0  0  0  0  0  0  0  0  0
   -3.1420   22.2340  -28.0360 C   0  0  0  0  0  0  0  0  0  0  0  0
   -1.8120   22.4160  -27.6480 C   0  0  0  0  0  0  0  0  0  0  0  0
   -1.0960   23.5370  -28.0920 C   0  0  0  0  0  0  0  0  0  0  0  0
    0.5320   23.8470  -27.4850 S   0  0  0  0  0  0  0  0  0  0  0  0
    1.1590   22.5500  -27.0560 O   0  0  0  0  0  0  0  0  0  0  0  0
    1.3710   24.4290  -28.5900 O   0  0  0  0  0  0  0  0  0  0  0  0
    0.4990   24.9600  -26.1350 N   0  0  0  0  0  0  0  0  0  0  0  0
    0.2190   26.3490  -26.5760 C   0  0  0  0  0  0  0  0  0  0  0  0
   -1.2350   26.7780  -26.3200 C   0  0  0  0  0  0  0  0  0  0  0  0
   -1.5910   26.6760  -24.8270 C   0  0  0  0  0  0  0  0  0  0  0  0
   -0.8050   25.5700  -24.1020 C   0  0  0  0  0  0  0  0  0  0  0  0
   -0.4010   24.4550  -25.0730 C   0  0  0  0  0  0  0  0  0  0  0  0
   -1.7100   24.4520  -28.9580 C   0  0  0  0  0  0  0  0  0  0  0  0
   -5.3650   24.4980  -31.7620 N   0  0  0  0  0  0  0  0  0  0  0  0
   -5.3940   23.0790  -31.9830 C   0  0  0  0  0  0  0  0  0  0  0  0
   -4.2070   22.3430  -32.1530 C   0  0  0  0  0  0  0  0  0  0  0  0
   -4.2510   20.9620  -32.3470 C   0  0  0  0  0  0  0  0  0  0  0  0
   -5.4730   20.2900  -32.3620 C   0  0  0  0  0  0  0  0  0  0  0  0
   -6.6680   20.9960  -32.1710 C   0  0  0  0  0  0  0  0  0  0  0  0
   -7.8980   20.3200  -32.1730 C   0  0  0  0  0  0  0  0  0  0  0  0
   -9.0890   21.0250  -31.9800 C   0  0  0  0  0  0  0  0  0  0  0  0
   -9.0640   22.4060  -31.7850 C   0  0  0  0  0  0  0  0  0  0  0  0
   -7.8470   23.0940  -31.7800 C   0  0  0  0  0  0  0  0  0  0  0  0
   -6.6340   22.4010  -31.9730 C   0  0  0  0  0  0  0  0  0  0  0  0
   -4.8193   23.0371  -29.1485 H   0  0  0  0  0  0  0  0  0  0  0  0
   -3.6978   21.3490  -27.6928 H   0  0  0  0  0  0  0  0  0  0  0  0
   -1.3256   21.6783  -26.9928 H   0  0  0  0  0  0  0  0  0  0  0  0
    0.8873   27.0316  -26.0305 H   0  0  0  0  0  0  0  0  0  0  0  0
    0.3883   26.3902  -27.6621 H   0  0  0  0  0  0  0  0  0  0  0  0
   -1.3650   27.8194  -26.6494 H   0  0  0  0  0  0  0  0  0  0  0  0
   -1.9002   26.1069  -26.8831 H   0  0  0  0  0  0  0  0  0  0  0  0
   -1.3675   27.6395  -24.3456 H   0  0  0  0  0  0  0  0  0  0  0  0
   -2.6594   26.4237  -24.7573 H   0  0  0  0  0  0  0  0  0  0  0  0
    0.1020   26.0058  -23.6576 H   0  0  0  0  0  0  0  0  0  0  0  0
   -1.4481   25.1380  -23.3211 H   0  0  0  0  0  0  0  0  0  0  0  0
    0.1170   23.6630  -24.5123 H   0  0  0  0  0  0  0  0  0  0  0  0
   -1.3126   24.0653  -25.5496 H   0  0  0  0  0  0  0  0  0  0  0  0
   -1.1333   25.2992  -29.3576 H   0  0  0  0  0  0  0  0  0  0  0  0
   -3.2365   22.8605  -32.1328 H   0  0  0  0  0  0  0  0  0  0  0  0
   -3.3162   20.3999  -32.4890 H   0  0  0  0  0  0  0  0  0  0  0  0
   -5.4987   19.2023  -32.5243 H   0  0  0  0  0  0  0  0  0  0  0  0
   -7.9246   19.2312  -32.3271 H   0  0  0  0  0  0  0  0  0  0  0  0
  -10.0496   20.4891  -31.9819 H   0  0  0  0  0  0  0  0  0  0  0  0
  -10.0050   22.9555  -31.6347 H   0  0  0  0  0  0  0  0  0  0  0  0
   -7.8355   24.1829  -31.6245 H   0  0  0  0  0  0  0  0  0  0  0  0
  1  2  2  0
  2  3  1  0
  3  4  1  0
  4  5  2  0
  5  6  1  0
  6  7  2  0
  7  8  1  0
  8  9  1  0
  9 10  2  0
  9 11  2  0
  9 12  1  0
 12 13  1  0
 13 14  1  0
 14 15  1  0
 15 16  1  0
 16 17  1  0
  8 18  2  0
  2 19  1  0
 19 20  1  0
 20 21  2  0
 21 22  1  0
 22 23  2  0
 23 24  1  0
 24 25  2  0
 25 26  1  0
 26 27  2  0
 27 28  1  0
 28 29  2  0
 18  4  1  0
 29 20  1  0
 17 12  1  0
 29 24  1  0
  5 30  1  0
  6 31  1  0
  7 32  1  0
 13 33  1  0
 13 34  1  0
 14 35  1  0
 14 36  1  0
 15 37  1  0
 15 38  1  0
 16 39  1  0
 16 40  1  0
 17 41  1  0
 17 42  1  0
 18 43  1  0
 21 44  1  0
 22 45  1  0
 23 46  1  0
 25 47  1  0
 26 48  1  0
 27 49  1  0
 28 50  1  0
M  CHG  2   3  -1  19  -1
M  END
>  <UniqueID>  (13) 
13

>  <SMILES>  (13) 
O=C([N-]c1cccc(S(=O)(=O)N2CCCCC2)c1)[N-]c1cccc2ccccc12

>  <Energy>  (13) 
68.63448802732535

>  <Genealogy>  (13) 
O=C([N-]c1cccc(S(=O)(=O)N2CCCCC2)c1)[N-]c1cccc2ccccc12 (protonated)
O=C([N-]c1cccc(S(=O)(=O)N2CCCCC2)c1)[N-]c1cccc2ccccc12 (3D coordinates assigned)
O=C([N-]c1cccc(S(=O)(=O)N2CCCCC2)c1)[N-]c1cccc2ccccc12 (nonaromatic ring conformer: 68.63448802732535 kcal/mol)

>  <smiles>  (13) 
O=C(Nc1cccc(S(=O)(=O)N2CCCCC2)c1)Nc1cccc2ccccc12

>  <score_type>  (13) 
oracle

>  <origin>  (13) 
adgpu

>  <m_score__min__energy>  (13) 
-12.99

>  <m_primary>  (13) 
energy

$$$$
13:0
     RDKit          3D

 45 47  0  0  0  0  0  0  0  0999 V2000
   -9.8560   20.4410  -32.1100 C   0  0  0  0  0  0  0  0  0  0  0  0
   -8.5910   21.2540  -32.0140 C   0  0  0  0  0  0  0  0  0  0  0  0
   -8.6930   22.6540  -32.0300 C   0  0  0  0  0  0  0  0  0  0  0  0
   -7.5560   23.4510  -31.9390 C   0  0  0  0  0  0  0  0  0  0  0  0
   -6.2910   22.8670  -31.8120 C   0  0  0  0  0  0  0  0  0  0  0  0
   -5.1090   23.6750  -31.7070 N   0  0  0  0  0  0  0  0  0  0  0  0
   -4.9840   24.8670  -30.9190 C   0  0  0  0  0  0  0  0  0  0  0  0
   -6.0080   25.5650  -30.7000 O   0  0  0  0  0  0  0  0  0  0  0  0
   -3.7240   25.2900  -30.3780 N   0  0  0  0  0  0  0  0  0  0  0  0
   -2.9750   24.6030  -29.3660 C   0  0  0  0  0  0  0  0  0  0  0  0
   -3.5000   23.4210  -28.8280 C   0  0  0  0  0  0  0  0  0  0  0  0
   -2.7830   22.7000  -27.8690 C   0  0  0  0  0  0  0  0  0  0  0  0
   -1.5430   23.1670  -27.4260 C   0  0  0  0  0  0  0  0  0  0  0  0
   -1.0270   24.3640  -27.9290 C   0  0  0  0  0  0  0  0  0  0  0  0
   -1.7420   25.0920  -28.8860 C   0  0  0  0  0  0  0  0  0  0  0  0
   -1.2310   26.3050  -29.3350 O   0  0  0  0  0  0  0  0  0  0  0  0
   -6.1680   21.4710  -31.8120 C   0  0  0  0  0  0  0  0  0  0  0  0
   -4.8960   20.9150  -31.7320 O   0  0  0  0  0  0  0  0  0  0  0  0
   -7.3150   20.6480  -31.8820 C   0  0  0  0  0  0  0  0  0  0  0  0
   -7.1510   18.8750  -31.8430 S   0  0  0  0  0  0  0  0  0  0  0  0
   -8.3790   18.2830  -31.2100 O   0  0  0  0  0  0  0  0  0  0  0  0
   -5.9610   18.4560  -31.0230 O   0  0  0  0  0  0  0  0  0  0  0  0
   -6.9790   18.2640  -33.4720 N   0  0  0  0  0  0  0  0  0  0  0  0
   -5.8370   18.9200  -34.1370 C   0  0  0  0  0  0  0  0  0  0  0  0
   -5.3490   18.0790  -35.3260 C   0  0  0  0  0  0  0  0  0  0  0  0
   -4.9170   16.7690  -34.9780 O   0  0  0  0  0  0  0  0  0  0  0  0
   -5.4490   16.2990  -33.7470 C   0  0  0  0  0  0  0  0  0  0  0  0
   -6.8840   16.7860  -33.4810 C   0  0  0  0  0  0  0  0  0  0  0  0
  -10.2194   20.2074  -31.0984 H   0  0  0  0  0  0  0  0  0  0  0  0
  -10.6216   21.0166  -32.6509 H   0  0  0  0  0  0  0  0  0  0  0  0
   -9.6505   19.5055  -32.6509 H   0  0  0  0  0  0  0  0  0  0  0  0
   -9.6828   23.1262  -32.1154 H   0  0  0  0  0  0  0  0  0  0  0  0
   -7.6523   24.5464  -31.9671 H   0  0  0  0  0  0  0  0  0  0  0  0
   -4.4830   23.0578  -29.1624 H   0  0  0  0  0  0  0  0  0  0  0  0
   -3.1952   21.7645  -27.4629 H   0  0  0  0  0  0  0  0  0  0  0  0
   -0.9730   22.5923  -26.6812 H   0  0  0  0  0  0  0  0  0  0  0  0
   -0.0553   24.7352  -27.5713 H   0  0  0  0  0  0  0  0  0  0  0  0
   -6.1495   19.9107  -34.4988 H   0  0  0  0  0  0  0  0  0  0  0  0
   -5.0151   19.0216  -33.4130 H   0  0  0  0  0  0  0  0  0  0  0  0
   -6.1752   17.9893  -36.0467 H   0  0  0  0  0  0  0  0  0  0  0  0
   -4.4737   18.5994  -35.7419 H   0  0  0  0  0  0  0  0  0  0  0  0
   -5.4507   15.1991  -33.7642 H   0  0  0  0  0  0  0  0  0  0  0  0
   -4.8140   16.6989  -32.9428 H   0  0  0  0  0  0  0  0  0  0  0  0
   -7.5435   16.3931  -34.2689 H   0  0  0  0  0  0  0  0  0  0  0  0
   -7.1864   16.4215  -32.4882 H   0  0  0  0  0  0  0  0  0  0  0  0
  1  2  1  0
  2  3  2  0
  3  4  1  0
  4  5  2  0
  5  6  1  0
  6  7  1  0
  7  8  2  0
  7  9  1  0
  9 10  1  0
 10 11  2  0
 11 12  1  0
 12 13  2  0
 13 14  1  0
 14 15  2  0
 15 16  1  0
  5 17  1  0
 17 18  1  0
 17 19  2  0
 19 20  1  0
 20 21  2  0
 20 22  2  0
 20 23  1  0
 23 24  1  0
 24 25  1  0
 25 26  1  0
 26 27  1  0
 27 28  1  0
 19  2  1  0
 28 23  1  0
 15 10  1  0
  1 29  1  0
  1 30  1  0
  1 31  1  0
  3 32  1  0
  4 33  1  0
 11 34  1  0
 12 35  1  0
 13 36  1  0
 14 37  1  0
 24 38  1  0
 24 39  1  0
 25 40  1  0
 25 41  1  0
 27 42  1  0
 27 43  1  0
 28 44  1  0
 28 45  1  0
M  CHG  4   6  -1   9  -1  16  -1  18  -1
M  END
>  <UniqueID>  (14) 
14

>  <SMILES>  (14) 
Cc1ccc([N-]C(=O)[N-]c2ccccc2[O-])c([O-])c1S(=O)(=O)N1CCOCC1

>  <Energy>  (14) 
70.60206123566947

>  <Genealogy>  (14) 
Cc1ccc([N-]C(=O)[N-]c2ccccc2[O-])c([O-])c1S(=O)(=O)N1CCOCC1 (protonated)
Cc1ccc([N-]C(=O)[N-]c2ccccc2[O-])c([O-])c1S(=O)(=O)N1CCOCC1 (3D coordinates assigned)
Cc1ccc([N-]C(=O)[N-]c2ccccc2[O-])c([O-])c1S(=O)(=O)N1CCOCC1 (nonaromatic ring conformer: 70.60206123566947 kcal/mol)

>  <smiles>  (14) 
Cc1ccc(NC(=O)Nc2ccccc2O)c(O)c1S(=O)(=O)N1CCOCC1

>  <score_type>  (14) 
oracle

>  <origin>  (14) 
adgpu

>  <m_score__min__energy>  (14) 
-14.970000000000001

>  <m_primary>  (14) 
energy

$$$$
14:0
     RDKit          3D

 44 46  0  0  0  0  0  0  0  0999 V2000
   -6.8520   17.1030  -33.9110 C   0  0  0  0  0  0  0  0  0  0  0  0
   -6.2720   18.3480  -33.3070 C   0  0  0  0  0  0  0  0  0  0  0  0
   -4.9730   18.7580  -33.6430 C   0  0  0  0  0  0  0  0  0  0  0  0
   -4.4180   19.8960  -33.0540 C   0  0  0  0  0  0  0  0  0  0  0  0
   -5.1470   20.6410  -32.1080 C   0  0  0  0  0  0  0  0  0  0  0  0
   -4.5590   21.8510  -31.4810 C   0  0  0  0  0  0  0  0  0  0  0  0
   -5.3110   23.0310  -31.3660 C   0  0  0  0  0  0  0  0  0  0  0  0
   -4.7580   24.1710  -30.7750 C   0  0  0  0  0  0  0  0  0  0  0  0
   -5.7280   25.6310  -30.6500 Cl  0  0  0  0  0  0  0  0  0  0  0  0
   -3.4420   24.1480  -30.2940 C   0  0  0  0  0  0  0  0  0  0  0  0
   -2.9100   25.2920  -29.7050 O   0  0  0  0  0  0  0  0  0  0  0  0
   -2.6700   22.9750  -30.4090 C   0  0  0  0  0  0  0  0  0  0  0  0
   -1.2400   22.9150  -29.9060 C   0  0  0  0  0  0  0  0  0  0  0  0
   -1.1200   23.4000  -28.5050 N   0  0  0  0  0  0  0  0  0  0  0  0
   -2.1300   22.7830  -27.5920 C   0  0  0  0  0  0  0  0  0  0  0  0
   -1.5540   21.7340  -26.6180 C   0  0  0  0  0  0  0  0  0  0  0  0
   -0.4700   20.8950  -27.2910 C   0  0  0  0  0  0  0  0  0  0  0  0
    0.6750   21.7710  -27.8260 C   0  0  0  0  0  0  0  0  0  0  0  0
    0.2670   23.2470  -28.0060 C   0  0  0  0  0  0  0  0  0  0  0  0
   -3.2400   21.8330  -30.9960 C   0  0  0  0  0  0  0  0  0  0  0  0
   -6.4430   20.2150  -31.7620 C   0  0  0  0  0  0  0  0  0  0  0  0
   -6.9970   19.0740  -32.3530 C   0  0  0  0  0  0  0  0  0  0  0  0
   -7.1700   16.4203  -33.1093 H   0  0  0  0  0  0  0  0  0  0  0  0
   -7.7197   17.3672  -34.5333 H   0  0  0  0  0  0  0  0  0  0  0  0
   -6.0915   16.6087  -34.5333 H   0  0  0  0  0  0  0  0  0  0  0  0
   -4.3887   18.1801  -34.3742 H   0  0  0  0  0  0  0  0  0  0  0  0
   -3.4020   20.2131  -33.3318 H   0  0  0  0  0  0  0  0  0  0  0  0
   -6.3437   23.0588  -31.7440 H   0  0  0  0  0  0  0  0  0  0  0  0
   -0.8911   21.8728  -29.9519 H   0  0  0  0  0  0  0  0  0  0  0  0
   -0.6280   23.5687  -30.5449 H   0  0  0  0  0  0  0  0  0  0  0  0
   -1.3000   24.4330  -28.5150 H   0  0  0  0  0  0  0  0  0  0  0  0
   -2.5927   23.5855  -26.9987 H   0  0  0  0  0  0  0  0  0  0  0  0
   -2.8498   22.2532  -28.2333 H   0  0  0  0  0  0  0  0  0  0  0  0
   -1.1206   22.2506  -25.7489 H   0  0  0  0  0  0  0  0  0  0  0  0
   -2.3686   21.0649  -26.3037 H   0  0  0  0  0  0  0  0  0  0  0  0
   -0.0623   20.1839  -26.5574 H   0  0  0  0  0  0  0  0  0  0  0  0
   -0.9239   20.3657  -28.1418 H   0  0  0  0  0  0  0  0  0  0  0  0
    1.5146   21.7228  -27.1170 H   0  0  0  0  0  0  0  0  0  0  0  0
    0.9532   21.3821  -28.8166 H   0  0  0  0  0  0  0  0  0  0  0  0
    0.3496   23.7560  -27.0343 H   0  0  0  0  0  0  0  0  0  0  0  0
    0.9404   23.6889  -28.7552 H   0  0  0  0  0  0  0  0  0  0  0  0
   -2.6453   20.9112  -31.0772 H   0  0  0  0  0  0  0  0  0  0  0  0
   -7.0248   20.7833  -31.0214 H   0  0  0  0  0  0  0  0  0  0  0  0
   -8.0071   18.7453  -32.0670 H   0  0  0  0  0  0  0  0  0  0  0  0
  1  2  1  0
  2  3  2  0
  3  4  1  0
  4  5  2  0
  5  6  1  0
  6  7  2  0
  7  8  1  0
  8  9  1  0
  8 10  2  0
 10 11  1  0
 10 12  1  0
 12 13  1  0
 13 14  1  0
 14 15  1  0
 15 16  1  0
 16 17  1  0
 17 18  1  0
 18 19  1  0
 12 20  2  0
  5 21  1  0
 21 22  2  0
 22  2  1  0
 20  6  1  0
 19 14  1  0
  1 23  1  0
  1 24  1  0
  1 25  1  0
  3 26  1  0
  4 27  1  0
  7 28  1  0
 13 29  1  0
 13 30  1  0
 14 31  1  0
 15 32  1  0
 15 33  1  0
 16 34  1  0
 16 35  1  0
 17 36  1  0
 17 37  1  0
 18 38  1  0
 18 39  1  0
 19 40  1  0
 19 41  1  0
 20 42  1  0
 21 43  1  0
 22 44  1  0
M  CHG  2  11  -1  14   1
M  END
>  <UniqueID>  (15) 
15

>  <SMILES>  (15) 
Cc1ccc(-c2cc(Cl)c([O-])c(C[NH+]3CCCCC3)c2)cc1

>  <Energy>  (15) 
59.94798051690378

>  <Genealogy>  (15) 
Cc1ccc(-c2cc(Cl)c([O-])c(C[NH+]3CCCCC3)c2)cc1 (protonated)
Cc1ccc(-c2cc(Cl)c([O-])c(C[NH+]3CCCCC3)c2)cc1 (3D coordinates assigned)
Cc1ccc(-c2cc(Cl)c([O-])c(C[NH+]3CCCCC3)c2)cc1 (nonaromatic ring conformer: 59.94798051690378 kcal/mol)

>  <smiles>  (15) 
Cc1ccc(-c2cc(Cl)c(O)c(CN3CCCCC3)c2)cc1

>  <score_type>  (15) 
oracle

>  <origin>  (15) 
adgpu

>  <m_score__min__energy>  (15) 
-9.6099999999999994

>  <m_primary>  (15) 
energy

$$$$
15:0
     RDKit          3D

 50 53  0  0  0  0  0  0  0  0999 V2000
   -1.5170   21.2940  -29.6410 C   0  0  0  0  0  0  0  0  0  0  0  0
   -2.0690   21.3840  -28.3320 O   0  0  0  0  0  0  0  0  0  0  0  0
   -1.6850   22.3250  -27.3620 C   0  0  0  0  0  0  0  0  0  0  0  0
   -0.8790   21.9580  -26.2650 C   0  0  0  0  0  0  0  0  0  0  0  0
   -0.4670   22.9150  -25.3360 C   0  0  0  0  0  0  0  0  0  0  0  0
   -0.8460   24.2470  -25.4890 C   0  0  0  0  0  0  0  0  0  0  0  0
   -0.4380   25.1750  -24.5890 F   0  0  0  0  0  0  0  0  0  0  0  0
   -1.6500   24.6260  -26.5650 C   0  0  0  0  0  0  0  0  0  0  0  0
   -2.0910   23.6740  -27.5030 C   0  0  0  0  0  0  0  0  0  0  0  0
   -2.9550   24.1230  -28.6210 C   0  0  0  0  0  0  0  0  0  0  0  0
   -4.3000   23.8500  -28.8000 C   0  0  0  0  0  0  0  0  0  0  0  0
   -4.6240   24.5200  -29.9610 C   0  0  0  0  0  0  0  0  0  0  0  0
   -5.9600   24.5720  -30.5830 C   0  0  0  0  0  0  0  0  0  0  0  0
   -6.8460   25.3100  -30.0790 O   0  0  0  0  0  0  0  0  0  0  0  0
   -6.2620   23.8520  -31.7860 N   0  0  0  0  0  0  0  0  0  0  0  0
   -7.1910   22.7660  -31.9100 C   0  0  0  0  0  0  0  0  0  0  0  0
   -8.5620   23.0360  -31.8400 C   0  0  0  0  0  0  0  0  0  0  0  0
   -9.4910   21.9960  -31.9360 C   0  0  0  0  0  0  0  0  0  0  0  0
   -9.0550   20.6770  -32.0830 C   0  0  0  0  0  0  0  0  0  0  0  0
   -7.6840   20.3890  -32.1230 C   0  0  0  0  0  0  0  0  0  0  0  0
   -7.1290   18.7220  -32.2820 S   0  0  0  0  0  0  0  0  0  0  0  0
   -8.2790   17.7920  -32.0060 O   0  0  0  0  0  0  0  0  0  0  0  0
   -6.0640   18.4560  -31.2560 O   0  0  0  0  0  0  0  0  0  0  0  0
   -6.4860   18.3900  -33.8770 N   0  0  0  0  0  0  0  0  0  0  0  0
   -6.3460   16.9470  -34.1010 C   0  0  0  0  0  0  0  0  0  0  0  0
   -4.9000   16.5590  -33.8250 C   0  0  0  0  0  0  0  0  0  0  0  0
   -4.1200   17.8580  -33.8160 C   0  0  0  0  0  0  0  0  0  0  0  0
   -5.1440   18.9610  -34.0390 C   0  0  0  0  0  0  0  0  0  0  0  0
   -6.7540   21.4340  -32.0310 C   0  0  0  0  0  0  0  0  0  0  0  0
   -3.5420   25.1690  -30.4300 N   0  0  0  0  0  0  0  0  0  0  0  0
   -2.5270   24.9290  -29.6150 N   0  0  0  0  0  0  0  0  0  0  0  0
   -0.4336   21.1174  -29.5707 H   0  0  0  0  0  0  0  0  0  0  0  0
   -1.9900   20.4611  -30.1819 H   0  0  0  0  0  0  0  0  0  0  0  0
   -1.7009   22.2340  -30.1819 H   0  0  0  0  0  0  0  0  0  0  0  0
   -0.5723   20.9090  -26.1401 H   0  0  0  0  0  0  0  0  0  0  0  0
    0.1582   22.6169  -24.4814 H   0  0  0  0  0  0  0  0  0  0  0  0
   -1.9421   25.6801  -26.6812 H   0  0  0  0  0  0  0  0  0  0  0  0
   -4.9580   23.2400  -28.1637 H   0  0  0  0  0  0  0  0  0  0  0  0
   -8.9103   24.0711  -31.7089 H   0  0  0  0  0  0  0  0  0  0  0  0
  -10.5679   22.2167  -31.8957 H   0  0  0  0  0  0  0  0  0  0  0  0
   -9.7895   19.8625  -32.1676 H   0  0  0  0  0  0  0  0  0  0  0  0
   -7.0146   16.3984  -33.4213 H   0  0  0  0  0  0  0  0  0  0  0  0
   -6.6146   16.6964  -35.1379 H   0  0  0  0  0  0  0  0  0  0  0  0
   -4.8176   16.0557  -32.8504 H   0  0  0  0  0  0  0  0  0  0  0  0
   -4.5158   15.8607  -34.5831 H   0  0  0  0  0  0  0  0  0  0  0  0
   -3.6153   17.9945  -32.8482 H   0  0  0  0  0  0  0  0  0  0  0  0
   -3.3413   17.8668  -34.5929 H   0  0  0  0  0  0  0  0  0  0  0  0
   -4.9910   19.7638  -33.3027 H   0  0  0  0  0  0  0  0  0  0  0  0
   -5.0323   19.3803  -35.0498 H   0  0  0  0  0  0  0  0  0  0  0  0
   -5.6770   21.2115  -32.0535 H   0  0  0  0  0  0  0  0  0  0  0  0
  1  2  1  0
  2  3  1  0
  3  4  2  0
  4  5  1  0
  5  6  2  0
  6  7  1  0
  6  8  1  0
  8  9  2  0
  9 10  1  0
 10 11  1  0
 11 12  2  0
 12 13  1  0
 13 14  2  0
 13 15  1  0
 15 16  1  0
 16 17  2  0
 17 18  1  0
 18 19  2  0
 19 20  1  0
 20 21  1  0
 21 22  2  0
 21 23  2  0
 21 24  1  0
 24 25  1  0
 25 26  1  0
 26 27  1  0
 27 28  1  0
 20 29  2  0
 12 30  1  0
 30 31  1  0
  9  3  1  0
 31 10  2  0
 29 16  1  0
 28 24  1  0
  1 32  1  0
  1 33  1  0
  1 34  1  0
  4 35  1  0
  5 36  1  0
  8 37  1  0
 11 38  1  0
 17 39  1  0
 18 40  1  0
 19 41  1  0
 25 42  1  0
 25 43  1  0
 26 44  1  0
 26 45  1  0
 27 46  1  0
 27 47  1  0
 28 48  1  0
 28 49  1  0
 29 50  1  0
M  CHG  2  15  -1  30  -1
M  END
>  <UniqueID>  (16) 
16

>  <SMILES>  (16) 
COc1ccc(F)cc1-c1cc(C(=O)[N-]c2cccc(S(=O)(=O)N3CCCC3)c2)[n-]n1

>  <Energy>  (16) 
90.3116464718078

>  <Genealogy>  (16) 
COc1ccc(F)cc1-c1cc(C(=O)[N-]c2cccc(S(=O)(=O)N3CCCC3)c2)[n-]n1 (protonated)
COc1ccc(F)cc1-c1cc(C(=O)[N-]c2cccc(S(=O)(=O)N3CCCC3)c2)[n-]n1 (3D coordinates assigned)
COc1ccc(F)cc1-c1cc(C(=O)[N-]c2cccc(S(=O)(=O)N3CCCC3)c2)[n-]n1 (nonaromatic ring conformer: 90.3116464718078 kcal/mol)

>  <smiles>  (16) 
COc1ccc(F)cc1-c1cc(C(=O)Nc2cccc(S(=O)(=O)N3CCCC3)c2)[nH]n1

>  <score_type>  (16) 
oracle

>  <origin>  (16) 
adgpu

>  <m_score__min__energy>  (16) 
-12.140000000000001

>  <m_primary>  (16) 
energy

$$$$
16:0
     RDKit          3D

 57 60  0  0  0  0  0  0  0  0999 V2000
   -0.1520   19.5290  -27.8700 C   0  0  0  0  0  0  0  0  0  0  0  0
   -0.8430   20.1730  -26.7400 N   0  0  0  0  0  0  0  0  0  0  0  0
   -2.2780   19.8380  -26.6870 C   0  0  0  0  0  0  0  0  0  0  0  0
   -3.0510   20.3800  -27.8990 C   0  0  0  0  0  0  0  0  0  0  0  0
   -2.6670   21.7970  -28.2340 C   0  0  0  0  0  0  0  0  0  0  0  0
   -3.4590   22.5230  -29.1340 C   0  0  0  0  0  0  0  0  0  0  0  0
   -3.0960   23.8220  -29.5310 C   0  0  0  0  0  0  0  0  0  0  0  0
   -3.8900   24.5560  -30.4800 N   0  0  0  0  0  0  0  0  0  0  0  0
   -5.6180   24.6670  -30.3680 S   0  0  0  0  0  0  0  0  0  0  0  0
   -5.9990   25.0690  -28.9710 O   0  0  0  0  0  0  0  0  0  0  0  0
   -6.1170   25.7070  -31.3300 O   0  0  0  0  0  0  0  0  0  0  0  0
   -6.3330   23.1140  -30.7920 C   0  0  0  0  0  0  0  0  0  0  0  0
   -7.5480   22.7320  -30.2110 C   0  0  0  0  0  0  0  0  0  0  0  0
   -8.1670   21.5400  -30.5940 C   0  0  0  0  0  0  0  0  0  0  0  0
   -7.5850   20.7260  -31.5750 C   0  0  0  0  0  0  0  0  0  0  0  0
   -8.3930   19.2440  -32.0790 S   0  0  0  0  0  0  0  0  0  0  0  0
   -9.3950   19.5870  -33.1480 O   0  0  0  0  0  0  0  0  0  0  0  0
   -9.1150   18.6310  -30.9090 O   0  0  0  0  0  0  0  0  0  0  0  0
   -7.2270   18.1070  -32.7070 N   0  0  0  0  0  0  0  0  0  0  0  0
   -6.4920   18.7110  -33.8390 C   0  0  0  0  0  0  0  0  0  0  0  0
   -5.2430   17.8930  -34.2380 C   0  0  0  0  0  0  0  0  0  0  0  0
   -5.2710   16.4850  -33.6390 C   0  0  0  0  0  0  0  0  0  0  0  0
   -5.4060   16.5390  -32.1090 C   0  0  0  0  0  0  0  0  0  0  0  0
   -6.3000   17.7010  -31.6370 C   0  0  0  0  0  0  0  0  0  0  0  0
   -6.3590   21.0980  -32.1430 C   0  0  0  0  0  0  0  0  0  0  0  0
   -5.7360   22.2880  -31.7540 C   0  0  0  0  0  0  0  0  0  0  0  0
   -1.9360   24.4010  -28.9890 C   0  0  0  0  0  0  0  0  0  0  0  0
   -1.5590   25.6910  -29.3440 O   0  0  0  0  0  0  0  0  0  0  0  0
   -1.1410   23.6800  -28.0940 C   0  0  0  0  0  0  0  0  0  0  0  0
   -1.4820   22.3690  -27.7310 C   0  0  0  0  0  0  0  0  0  0  0  0
   -0.6300   21.6340  -26.7230 C   0  0  0  0  0  0  0  0  0  0  0  0
    0.6021   18.8262  -27.4862 H   0  0  0  0  0  0  0  0  0  0  0  0
   -0.8834   18.9829  -28.4839 H   0  0  0  0  0  0  0  0  0  0  0  0
    0.3413   20.2970  -28.4839 H   0  0  0  0  0  0  0  0  0  0  0  0
   -2.3845   18.7435  -26.6607 H   0  0  0  0  0  0  0  0  0  0  0  0
   -2.6985   20.3056  -25.7845 H   0  0  0  0  0  0  0  0  0  0  0  0
   -2.8387   19.7408  -28.7687 H   0  0  0  0  0  0  0  0  0  0  0  0
   -4.1216   20.3719  -27.6466 H   0  0  0  0  0  0  0  0  0  0  0  0
   -4.3776   22.0701  -29.5354 H   0  0  0  0  0  0  0  0  0  0  0  0
   -3.4500   24.9000  -31.3640 H   0  0  0  0  0  0  0  0  0  0  0  0
   -8.0170   23.3730  -29.4500 H   0  0  0  0  0  0  0  0  0  0  0  0
   -9.1148   21.2391  -30.1239 H   0  0  0  0  0  0  0  0  0  0  0  0
   -7.1665   18.7704  -34.7059 H   0  0  0  0  0  0  0  0  0  0  0  0
   -6.1514   19.7078  -33.5223 H   0  0  0  0  0  0  0  0  0  0  0  0
   -5.2051   17.8129  -35.3344 H   0  0  0  0  0  0  0  0  0  0  0  0
   -4.3551   18.4127  -33.8488 H   0  0  0  0  0  0  0  0  0  0  0  0
   -6.1266   15.9337  -34.0562 H   0  0  0  0  0  0  0  0  0  0  0  0
   -4.3269   15.9791  -33.8895 H   0  0  0  0  0  0  0  0  0  0  0  0
   -5.8441   15.5924  -31.7598 H   0  0  0  0  0  0  0  0  0  0  0  0
   -4.4015   16.6983  -31.6900 H   0  0  0  0  0  0  0  0  0  0  0  0
   -6.8794   17.3784  -30.7594 H   0  0  0  0  0  0  0  0  0  0  0  0
   -5.6612   18.5577  -31.3761 H   0  0  0  0  0  0  0  0  0  0  0  0
   -5.8854   20.4521  -32.8970 H   0  0  0  0  0  0  0  0  0  0  0  0
   -4.7748   22.5765  -32.2043 H   0  0  0  0  0  0  0  0  0  0  0  0
   -0.2389   24.1453  -27.6701 H   0  0  0  0  0  0  0  0  0  0  0  0
    0.4282   21.8361  -26.9454 H   0  0  0  0  0  0  0  0  0  0  0  0
   -0.9175   21.9957  -25.7248 H   0  0  0  0  0  0  0  0  0  0  0  0
  1  2  1  0
  2  3  1  0
  3  4  1  0
  4  5  1  0
  5  6  2  0
  6  7  1  0
  7  8  1  0
  8  9  1  0
  9 10  2  0
  9 11  2  0
  9 12  1  0
 12 13  2  0
 13 14  1  0
 14 15  2  0
 15 16  1  0
 16 17  2  0
 16 18  2  0
 16 19  1  0
 19 20  1  0
 20 21  1  0
 21 22  1  0
 22 23  1  0
 23 24  1  0
 15 25  1  0
 25 26  2  0
  7 27  2  0
 27 28  1  0
 27 29  1  0
 29 30  2  0
 30 31  1  0
 31  2  1  0
 30  5  1  0
 26 12  1  0
 24 19  1  0
  1 32  1  0
  1 33  1  0
  1 34  1  0
  3 35  1  0
  3 36  1  0
  4 37  1  0
  4 38  1  0
  6 39  1  0
  8 40  1  0
 13 41  1  0
 14 42  1  0
 20 43  1  0
 20 44  1  0
 21 45  1  0
 21 46  1  0
 22 47  1  0
 22 48  1  0
 23 49  1  0
 23 50  1  0
 24 51  1  0
 24 52  1  0
 25 53  1  0
 26 54  1  0
 29 55  1  0
 31 56  1  0
 31 57  1  0
M  CHG  1  28  -1
M  END
>  <UniqueID>  (17) 
17

>  <SMILES>  (17) 
CN1CCc2cc(NS(=O)(=O)c3ccc(S(=O)(=O)N4CCCCC4)cc3)c([O-])cc2C1

>  <Energy>  (17) 
67.65151788056362

>  <Genealogy>  (17) 
CN1CCc2cc(NS(=O)(=O)c3ccc(S(=O)(=O)N4CCCCC4)cc3)c([O-])cc2C1 (protonated)
CN1CCc2cc(NS(=O)(=O)c3ccc(S(=O)(=O)N4CCCCC4)cc3)c([O-])cc2C1 (3D coordinates assigned)
CN1CCc2cc(NS(=O)(=O)c3ccc(S(=O)(=O)N4CCCCC4)cc3)c([O-])cc2C1 (nonaromatic ring conformer: 67.65151788056362 kcal/mol)

>  <smiles>  (17) 
CN1CCc2cc(NS(=O)(=O)c3ccc(S(=O)(=O)N4CCCCC4)cc3)c(O)cc2C1

>  <score_type>  (17) 
oracle

>  <origin>  (17) 
adgpu

>  <m_score__min__energy>  (17) 
-15.630000000000001

>  <m_primary>  (17) 
energy

$$$$
17:0
     RDKit          3D

 51 54  0  0  0  0  0  0  0  0999 V2000
   -1.0890   21.6980  -26.7750 C   0  0  0  0  0  0  0  0  0  0  0  0
   -1.7450   22.6630  -27.7250 C   0  0  0  0  0  0  0  0  0  0  0  0
   -2.8020   22.1890  -28.5190 C   0  0  0  0  0  0  0  0  0  0  0  0
   -3.4600   23.0310  -29.4110 C   0  0  0  0  0  0  0  0  0  0  0  0
   -3.0910   24.3720  -29.5210 C   0  0  0  0  0  0  0  0  0  0  0  0
   -3.7910   25.1950  -30.4650 N   0  0  0  0  0  0  0  0  0  0  0  0
   -5.2130   25.3520  -30.5380 C   0  0  0  0  0  0  0  0  0  0  0  0
   -5.7140   26.4710  -30.8260 O   0  0  0  0  0  0  0  0  0  0  0  0
   -6.0810   24.2710  -30.1810 N   0  0  0  0  0  0  0  0  0  0  0  0
   -6.2590   23.0610  -30.9290 C   0  0  0  0  0  0  0  0  0  0  0  0
   -5.3600   22.7640  -31.9570 C   0  0  0  0  0  0  0  0  0  0  0  0
   -5.4870   21.5820  -32.6910 C   0  0  0  0  0  0  0  0  0  0  0  0
   -6.5060   20.6660  -32.3890 C   0  0  0  0  0  0  0  0  0  0  0  0
   -7.4230   20.9590  -31.3580 C   0  0  0  0  0  0  0  0  0  0  0  0
   -7.2760   22.1410  -30.6160 C   0  0  0  0  0  0  0  0  0  0  0  0
   -8.4980   19.9710  -30.9720 C   0  0  0  0  0  0  0  0  0  0  0  0
   -8.8260   19.0230  -32.0550 N   0  0  0  0  0  0  0  0  0  0  0  0
   -9.6730   19.6390  -33.0910 C   0  0  0  0  0  0  0  0  0  0  0  0
   -7.6100   18.4000  -32.6120 C   0  0  0  0  0  0  0  0  0  0  0  0
   -6.6520   19.4270  -33.2350 C   0  0  0  0  0  0  0  0  0  0  0  0
   -2.0080   24.8580  -28.7660 C   0  0  0  0  0  0  0  0  0  0  0  0
   -1.5630   26.1630  -28.9620 O   0  0  0  0  0  0  0  0  0  0  0  0
   -1.3430   24.0220  -27.8410 C   0  0  0  0  0  0  0  0  0  0  0  0
    0.0090   24.7200  -26.9140 S   0  0  0  0  0  0  0  0  0  0  0  0
    0.4630   23.7170  -25.8910 O   0  0  0  0  0  0  0  0  0  0  0  0
    1.1890   25.0520  -27.7840 O   0  0  0  0  0  0  0  0  0  0  0  0
   -0.5870   26.1790  -26.0600 C   0  0  0  0  0  0  0  0  0  0  0  0
   -0.8630   25.9830  -24.5770 C   0  0  0  0  0  0  0  0  0  0  0  0
   -2.0210   26.1010  -25.5600 C   0  0  0  0  0  0  0  0  0  0  0  0
   -1.2973   22.0044  -25.7393 H   0  0  0  0  0  0  0  0  0  0  0  0
   -1.4879   20.6872  -26.9456 H   0  0  0  0  0  0  0  0  0  0  0  0
   -0.0023   21.6970  -26.9456 H   0  0  0  0  0  0  0  0  0  0  0  0
   -3.1143   21.1376  -28.4348 H   0  0  0  0  0  0  0  0  0  0  0  0
   -4.2766   22.6364  -30.0335 H   0  0  0  0  0  0  0  0  0  0  0  0
   -4.5461   23.4663  -32.1900 H   0  0  0  0  0  0  0  0  0  0  0  0
   -4.7844   21.3684  -33.5100 H   0  0  0  0  0  0  0  0  0  0  0  0
   -7.9623   22.3500  -29.7821 H   0  0  0  0  0  0  0  0  0  0  0  0
   -8.1512   19.3991  -30.0987 H   0  0  0  0  0  0  0  0  0  0  0  0
   -9.4093   20.5460  -30.7509 H   0  0  0  0  0  0  0  0  0  0  0  0
  -10.4737   20.2213  -32.6116 H   0  0  0  0  0  0  0  0  0  0  0  0
   -9.0606   20.3042  -33.7175 H   0  0  0  0  0  0  0  0  0  0  0  0
  -10.1172   18.8515  -33.7175 H   0  0  0  0  0  0  0  0  0  0  0  0
   -7.0830   17.8717  -31.8038 H   0  0  0  0  0  0  0  0  0  0  0  0
   -7.9243   17.7110  -33.4098 H   0  0  0  0  0  0  0  0  0  0  0  0
   -5.6625   18.9610  -33.3521 H   0  0  0  0  0  0  0  0  0  0  0  0
   -7.0724   19.7315  -34.2048 H   0  0  0  0  0  0  0  0  0  0  0  0
   -0.0126   26.9000  -26.6601 H   0  0  0  0  0  0  0  0  0  0  0  0
   -0.6430   25.0168  -24.0994 H   0  0  0  0  0  0  0  0  0  0  0  0
   -0.5686   26.5055  -23.6549 H   0  0  0  0  0  0  0  0  0  0  0  0
   -2.6374   25.2200  -25.7922 H   0  0  0  0  0  0  0  0  0  0  0  0
   -2.9096   26.7441  -25.6419 H   0  0  0  0  0  0  0  0  0  0  0  0
  1  2  1  0
  2  3  2  0
  3  4  1  0
  4  5  2  0
  5  6  1  0
  6  7  1  0
  7  8  2  0
  7  9  1  0
  9 10  1  0
 10 11  2  0
 11 12  1  0
 12 13  2  0
 13 14  1  0
 14 15  2  0
 14 16  1  0
 16 17  1  0
 17 18  1  0
 17 19  1  0
 19 20  1  0
  5 21  1  0
 21 22  1  0
 21 23  2  0
 23 24  1  0
 24 25  2  0
 24 26  2  0
 24 27  1  0
 27 28  1  0
 28 29  1  0
 23  2  1  0
 29 27  1  0
 15 10  1  0
 20 13  1  0
  1 30  1  0
  1 31  1  0
  1 32  1  0
  3 33  1  0
  4 34  1  0
 11 35  1  0
 12 36  1  0
 15 37  1  0
 16 38  1  0
 16 39  1  0
 18 40  1  0
 18 41  1  0
 18 42  1  0
 19 43  1  0
 19 44  1  0
 20 45  1  0
 20 46  1  0
 27 47  1  0
 28 48  1  0
 28 49  1  0
 29 50  1  0
 29 51  1  0
M  CHG  3   6  -1   9  -1  22  -1
M  END
>  <UniqueID>  (18) 
18

>  <SMILES>  (18) 
Cc1ccc([N-]C(=O)[N-]c2ccc3c(c2)CN(C)CC3)c([O-])c1S(=O)(=O)C1CC1

>  <Energy>  (18) 
333.9397799530817

>  <Genealogy>  (18) 
Cc1ccc([N-]C(=O)[N-]c2ccc3c(c2)CN(C)CC3)c([O-])c1S(=O)(=O)C1CC1 (protonated)
Cc1ccc([N-]C(=O)[N-]c2ccc3c(c2)CN(C)CC3)c([O-])c1S(=O)(=O)C1CC1 (3D coordinates assigned)
Cc1ccc([N-]C(=O)[N-]c2ccc3c(c2)CN(C)CC3)c([O-])c1S(=O)(=O)C1CC1 (nonaromatic ring conformer: 333.9397799530817 kcal/mol)

>  <smiles>  (18) 
Cc1ccc(NC(=O)Nc2ccc3c(c2)CN(C)CC3)c(O)c1S(=O)(=O)C1CC1

>  <score_type>  (18) 
oracle

>  <origin>  (18) 
adgpu

>  <m_score__min__energy>  (18) 
-16.43

>  <m_primary>  (18) 
energy

$$$$
18:0
     RDKit          3D

 43 45  0  0  0  0  0  0  0  0999 V2000
   -8.3740   21.9300  -30.0590 O   0  0  0  0  0  0  0  0  0  0  0  0
   -8.4270   22.0680  -31.5530 S   0  0  0  0  0  0  0  0  0  0  0  0
   -9.8630   22.1770  -31.9840 O   0  0  0  0  0  0  0  0  0  0  0  0
   -7.5830   23.5100  -32.0220 N   0  0  0  0  0  0  0  0  0  0  0  0
   -6.3710   23.9900  -31.4250 C   0  0  0  0  0  0  0  0  0  0  0  0
   -6.2840   25.2590  -30.8240 C   0  0  0  0  0  0  0  0  0  0  0  0
   -5.0790   25.6870  -30.2570 C   0  0  0  0  0  0  0  0  0  0  0  0
   -3.9560   24.8570  -30.2820 C   0  0  0  0  0  0  0  0  0  0  0  0
   -2.7650   25.2960  -29.7130 O   0  0  0  0  0  0  0  0  0  0  0  0
   -4.0360   23.5890  -30.8760 C   0  0  0  0  0  0  0  0  0  0  0  0
   -2.6050   22.5110  -30.9230 S   0  0  0  0  0  0  0  0  0  0  0  0
   -5.2420   23.1610  -31.4430 C   0  0  0  0  0  0  0  0  0  0  0  0
   -7.6600   20.6610  -32.2810 C   0  0  0  0  0  0  0  0  0  0  0  0
   -8.1710   19.3760  -32.0600 C   0  0  0  0  0  0  0  0  0  0  0  0
   -7.5670   18.2660  -32.6570 C   0  0  0  0  0  0  0  0  0  0  0  0
   -6.4380   18.4320  -33.4730 C   0  0  0  0  0  0  0  0  0  0  0  0
   -5.6980   17.0300  -34.2430 S   0  0  0  0  0  0  0  0  0  0  0  0
   -6.7180   15.9350  -34.3830 O   0  0  0  0  0  0  0  0  0  0  0  0
   -5.2460   17.4310  -35.6190 O   0  0  0  0  0  0  0  0  0  0  0  0
   -4.3150   16.4760  -33.3200 N   0  0  0  0  0  0  0  0  0  0  0  0
   -3.6980   15.2780  -33.9170 C   0  0  0  0  0  0  0  0  0  0  0  0
   -2.9000   15.6070  -35.2010 C   0  0  0  0  0  0  0  0  0  0  0  0
   -2.5800   16.9810  -35.3350 O   0  0  0  0  0  0  0  0  0  0  0  0
   -2.1550   17.5040  -34.0960 C   0  0  0  0  0  0  0  0  0  0  0  0
   -3.3320   17.5600  -33.1040 C   0  0  0  0  0  0  0  0  0  0  0  0
   -5.9260   19.7180  -33.6930 C   0  0  0  0  0  0  0  0  0  0  0  0
   -6.5340   20.8260  -33.0980 C   0  0  0  0  0  0  0  0  0  0  0  0
   -7.1657   25.9163  -30.7999 H   0  0  0  0  0  0  0  0  0  0  0  0
   -5.0157   26.6808  -29.7898 H   0  0  0  0  0  0  0  0  0  0  0  0
   -1.7500   23.5360  -30.4760 H   0  0  0  0  0  0  0  0  0  0  0  0
   -5.3037   22.1654  -31.9066 H   0  0  0  0  0  0  0  0  0  0  0  0
   -9.0510   19.2398  -31.4142 H   0  0  0  0  0  0  0  0  0  0  0  0
   -7.9778   17.2599  -32.4867 H   0  0  0  0  0  0  0  0  0  0  0  0
   -3.0150   14.8279  -33.1815 H   0  0  0  0  0  0  0  0  0  0  0  0
   -4.5063   14.5842  -34.1914 H   0  0  0  0  0  0  0  0  0  0  0  0
   -1.9625   15.0318  -35.1845 H   0  0  0  0  0  0  0  0  0  0  0  0
   -3.5400   15.3406  -36.0551 H   0  0  0  0  0  0  0  0  0  0  0  0
   -1.3637   16.8608  -33.6835 H   0  0  0  0  0  0  0  0  0  0  0  0
   -1.7713   18.5230  -34.2519 H   0  0  0  0  0  0  0  0  0  0  0  0
   -2.9346   17.4756  -32.0818 H   0  0  0  0  0  0  0  0  0  0  0  0
   -3.8529   18.5160  -33.2614 H   0  0  0  0  0  0  0  0  0  0  0  0
   -5.0437   19.8551  -34.3354 H   0  0  0  0  0  0  0  0  0  0  0  0
   -6.1267   21.8329  -33.2718 H   0  0  0  0  0  0  0  0  0  0  0  0
  1  2  2  0
  2  3  2  0
  2  4  1  0
  4  5  1  0
  5  6  2  0
  6  7  1  0
  7  8  2  0
  8  9  1  0
  8 10  1  0
 10 11  1  0
 10 12  2  0
  2 13  1  0
 13 14  2  0
 14 15  1  0
 15 16  2  0
 16 17  1  0
 17 18  2  0
 17 19  2  0
 17 20  1  0
 20 21  1  0
 21 22  1  0
 22 23  1  0
 23 24  1  0
 24 25  1  0
 16 26  1  0
 26 27  2  0
 12  5  1  0
 27 13  1  0
 25 20  1  0
  6 28  1  0
  7 29  1  0
 11 30  1  0
 12 31  1  0
 14 32  1  0
 15 33  1  0
 21 34  1  0
 21 35  1  0
 22 36  1  0
 22 37  1  0
 24 38  1  0
 24 39  1  0
 25 40  1  0
 25 41  1  0
 26 42  1  0
 27 43  1  0
M  CHG  2   4  -1   9  -1
M  END
>  <UniqueID>  (19) 
19

>  <SMILES>  (19) 
O=S(=O)([N-]c1ccc([O-])c(S)c1)c1ccc(S(=O)(=O)N2CCOCC2)cc1

>  <Energy>  (19) 
57.28305993462404

>  <Genealogy>  (19) 
O=S(=O)([N-]c1ccc([O-])c(S)c1)c1ccc(S(=O)(=O)N2CCOCC2)cc1 (protonated)
O=S(=O)([N-]c1ccc([O-])c(S)c1)c1ccc(S(=O)(=O)N2CCOCC2)cc1 (3D coordinates assigned)
O=S(=O)([N-]c1ccc([O-])c(S)c1)c1ccc(S(=O)(=O)N2CCOCC2)cc1 (nonaromatic ring conformer: 57.28305993462404 kcal/mol)

>  <smiles>  (19) 
O=S(=O)(Nc1ccc(O)c(S)c1)c1ccc(S(=O)(=O)N2CCOCC2)cc1

>  <score_type>  (19) 
oracle

>  <origin>  (19) 
adgpu

>  <m_score__min__energy>  (19) 
-11.859999999999999

>  <m_primary>  (19) 
energy

$$$$
19:0
     RDKit          3D

 48 51  0  0  0  0  0  0  0  0999 V2000
   -4.6100   18.1670  -33.2500 C   0  0  0  0  0  0  0  0  0  0  0  0
   -5.8280   18.8940  -33.7220 C   0  0  0  0  0  0  0  0  0  0  0  0
   -6.0620   18.9730  -34.9570 O   0  0  0  0  0  0  0  0  0  0  0  0
   -6.6900   19.5690  -32.7920 N   0  0  0  0  0  0  0  0  0  0  0  0
   -8.0750   19.0860  -32.6880 C   0  0  0  0  0  0  0  0  0  0  0  0
   -8.7060   19.5160  -31.3620 C   0  0  0  0  0  0  0  0  0  0  0  0
   -8.5100   20.9120  -31.1500 O   0  0  0  0  0  0  0  0  0  0  0  0
   -7.2740   21.5110  -31.4040 C   0  0  0  0  0  0  0  0  0  0  0  0
   -6.9850   22.7660  -30.8620 C   0  0  0  0  0  0  0  0  0  0  0  0
   -5.7220   23.3410  -31.0530 C   0  0  0  0  0  0  0  0  0  0  0  0
   -5.3100   24.8810  -30.3020 S   0  0  0  0  0  0  0  0  0  0  0  0
   -5.9170   24.9890  -28.9310 O   0  0  0  0  0  0  0  0  0  0  0  0
   -5.8420   25.9930  -31.1610 O   0  0  0  0  0  0  0  0  0  0  0  0
   -3.5840   25.0210  -30.1760 N   0  0  0  0  0  0  0  0  0  0  0  0
   -2.7890   24.1680  -29.3360 C   0  0  0  0  0  0  0  0  0  0  0  0
   -3.2160   22.8670  -29.0090 C   0  0  0  0  0  0  0  0  0  0  0  0
   -2.4210   22.0280  -28.2150 C   0  0  0  0  0  0  0  0  0  0  0  0
   -1.1730   22.4860  -27.7490 C   0  0  0  0  0  0  0  0  0  0  0  0
   -0.7660   23.7950  -28.0370 C   0  0  0  0  0  0  0  0  0  0  0  0
   -1.5610   24.6290  -28.8280 C   0  0  0  0  0  0  0  0  0  0  0  0
   -1.1190   25.9160  -29.1150 O   0  0  0  0  0  0  0  0  0  0  0  0
   -0.3230   21.6170  -26.8550 C   0  0  0  0  0  0  0  0  0  0  0  0
   -0.6420   20.1930  -27.0240 N   0  0  0  0  0  0  0  0  0  0  0  0
   -2.0770   19.9660  -26.8200 C   0  0  0  0  0  0  0  0  0  0  0  0
   -2.8730   20.6130  -27.9550 C   0  0  0  0  0  0  0  0  0  0  0  0
   -4.7560   22.6540  -31.7950 C   0  0  0  0  0  0  0  0  0  0  0  0
   -5.0500   21.4090  -32.3600 C   0  0  0  0  0  0  0  0  0  0  0  0
   -6.3250   20.8370  -32.1940 C   0  0  0  0  0  0  0  0  0  0  0  0
   -4.5924   18.1565  -32.1502 H   0  0  0  0  0  0  0  0  0  0  0  0
   -4.6310   17.1336  -33.6263 H   0  0  0  0  0  0  0  0  0  0  0  0
   -3.7104   18.6760  -33.6263 H   0  0  0  0  0  0  0  0  0  0  0  0
   -8.6645   19.5014  -33.5186 H   0  0  0  0  0  0  0  0  0  0  0  0
   -8.0679   17.9870  -32.7334 H   0  0  0  0  0  0  0  0  0  0  0  0
   -9.7844   19.3007  -31.3867 H   0  0  0  0  0  0  0  0  0  0  0  0
   -8.2291   18.9593  -30.5419 H   0  0  0  0  0  0  0  0  0  0  0  0
   -7.7510   23.3037  -30.2840 H   0  0  0  0  0  0  0  0  0  0  0  0
   -3.1140   25.6570  -30.8570 H   0  0  0  0  0  0  0  0  0  0  0  0
   -4.1855   22.5040  -29.3810 H   0  0  0  0  0  0  0  0  0  0  0  0
    0.1877   24.1698  -27.6371 H   0  0  0  0  0  0  0  0  0  0  0  0
    0.7365   21.7775  -27.1036 H   0  0  0  0  0  0  0  0  0  0  0  0
   -0.5275   21.8940  -25.8103 H   0  0  0  0  0  0  0  0  0  0  0  0
   -0.1250   19.6600  -26.2860 H   0  0  0  0  0  0  0  0  0  0  0  0
   -2.2767   18.8844  -26.8049 H   0  0  0  0  0  0  0  0  0  0  0  0
   -2.3820   20.4138  -25.8627 H   0  0  0  0  0  0  0  0  0  0  0  0
   -2.7343   20.0201  -28.8711 H   0  0  0  0  0  0  0  0  0  0  0  0
   -3.9324   20.6394  -27.6601 H   0  0  0  0  0  0  0  0  0  0  0  0
   -3.7584   23.0958  -31.9351 H   0  0  0  0  0  0  0  0  0  0  0  0
   -4.2810   20.8743  -32.9369 H   0  0  0  0  0  0  0  0  0  0  0  0
  1  2  1  0
  2  3  2  0
  2  4  1  0
  4  5  1  0
  5  6  1  0
  6  7  1  0
  7  8  1  0
  8  9  2  0
  9 10  1  0
 10 11  1  0
 11 12  2  0
 11 13  2  0
 11 14  1  0
 14 15  1  0
 15 16  2  0
 16 17  1  0
 17 18  2  0
 18 19  1  0
 19 20  2  0
 20 21  1  0
 18 22  1  0
 22 23  1  0
 23 24  1  0
 24 25  1  0
 10 26  2  0
 26 27  1  0
 27 28  2  0
 28  4  1  0
 28  8  1  0
 20 15  1  0
 25 17  1  0
  1 29  1  0
  1 30  1  0
  1 31  1  0
  5 32  1  0
  5 33  1  0
  6 34  1  0
  6 35  1  0
  9 36  1  0
 14 37  1  0
 16 38  1  0
 19 39  1  0
 22 40  1  0
 22 41  1  0
 23 42  1  0
 24 43  1  0
 24 44  1  0
 25 45  1  0
 25 46  1  0
 26 47  1  0
 27 48  1  0
M  CHG  1  21  -1
M  END
>  <UniqueID>  (20) 
20

>  <SMILES>  (20) 
CC(=O)N1CCOc2cc(S(=O)(=O)Nc3cc4c(cc3[O-])CNCC4)ccc21

>  <Energy>  (20) 
62.17423539130176

>  <Genealogy>  (20) 
CC(=O)N1CCOc2cc(S(=O)(=O)Nc3cc4c(cc3[O-])CNCC4)ccc21 (protonated)
CC(=O)N1CCOc2cc(S(=O)(=O)Nc3cc4c(cc3[O-])CNCC4)ccc21 (3D coordinates assigned)
CC(=O)N1CCOc2cc(S(=O)(=O)Nc3cc4c(cc3[O-])CNCC4)ccc21 (nonaromatic ring conformer: 62.17423539130176 kcal/mol)

>  <smiles>  (20) 
CC(=O)N1CCOc2cc(S(=O)(=O)Nc3cc4c(cc3O)CNCC4)ccc21

>  <score_type>  (20) 
oracle

>  <origin>  (20) 
adgpu

>  <m_score__min__energy>  (20) 
-13.75

>  <m_primary>  (20) 
energy

$$$$
20:0
     RDKit          3D

 47 49  0  0  0  0  0  0  0  0999 V2000
   -8.8350   19.2500  -32.2670 C   0  0  0  0  0  0  0  0  0  0  0  0
   -8.4000   20.4840  -32.8290 O   0  0  0  0  0  0  0  0  0  0  0  0
   -7.6710   21.4630  -32.1350 C   0  0  0  0  0  0  0  0  0  0  0  0
   -8.2950   22.3780  -31.2660 C   0  0  0  0  0  0  0  0  0  0  0  0
   -7.5480   23.3760  -30.6340 C   0  0  0  0  0  0  0  0  0  0  0  0
   -6.1730   23.4850  -30.8660 C   0  0  0  0  0  0  0  0  0  0  0  0
   -5.2330   24.7560  -30.0740 S   0  0  0  0  0  0  0  0  0  0  0  0
   -4.2380   25.3110  -31.0540 O   0  0  0  0  0  0  0  0  0  0  0  0
   -6.1590   25.8690  -29.6700 O   0  0  0  0  0  0  0  0  0  0  0  0
   -4.3800   24.1860  -28.6600 N   0  0  0  0  0  0  0  0  0  0  0  0
   -4.4500   22.7320  -28.5230 C   0  0  0  0  0  0  0  0  0  0  0  0
   -3.2320   22.3190  -27.7120 C   0  0  0  0  0  0  0  0  0  0  0  0
   -2.2530   23.4780  -27.8360 C   0  0  0  0  0  0  0  0  0  0  0  0
   -2.9540   24.5060  -28.7110 C   0  0  0  0  0  0  0  0  0  0  0  0
   -5.5430   22.5660  -31.7140 C   0  0  0  0  0  0  0  0  0  0  0  0
   -6.2770   21.5440  -32.3320 C   0  0  0  0  0  0  0  0  0  0  0  0
   -5.5950   20.6320  -33.2050 N   0  0  0  0  0  0  0  0  0  0  0  0
   -5.3310   19.2640  -32.8530 C   0  0  0  0  0  0  0  0  0  0  0  0
   -5.7050   18.8160  -31.7360 O   0  0  0  0  0  0  0  0  0  0  0  0
   -4.6300   18.3610  -33.7880 C   0  0  0  0  0  0  0  0  0  0  0  0
   -5.1330   17.2140  -34.3780 C   0  0  0  0  0  0  0  0  0  0  0  0
   -6.5070   16.6510  -34.2120 C   0  0  0  0  0  0  0  0  0  0  0  0
   -4.1790   16.6460  -35.1410 N   0  0  0  0  0  0  0  0  0  0  0  0
   -3.1160   17.3900  -35.0400 O   0  0  0  0  0  0  0  0  0  0  0  0
   -3.3220   18.4140  -34.2420 C   0  0  0  0  0  0  0  0  0  0  0  0
   -2.2710   19.4220  -33.9080 C   0  0  0  0  0  0  0  0  0  0  0  0
   -8.8109   19.3183  -31.1694 H   0  0  0  0  0  0  0  0  0  0  0  0
   -9.8621   19.0378  -32.5987 H   0  0  0  0  0  0  0  0  0  0  0  0
   -8.1680   18.4407  -32.5987 H   0  0  0  0  0  0  0  0  0  0  0  0
   -9.3774   22.3071  -31.0832 H   0  0  0  0  0  0  0  0  0  0  0  0
   -8.0445   24.0800  -29.9500 H   0  0  0  0  0  0  0  0  0  0  0  0
   -5.3725   22.4432  -27.9981 H   0  0  0  0  0  0  0  0  0  0  0  0
   -4.4610   22.2385  -29.5060 H   0  0  0  0  0  0  0  0  0  0  0  0
   -3.5069   22.1582  -26.6591 H   0  0  0  0  0  0  0  0  0  0  0  0
   -2.7983   21.3759  -28.0760 H   0  0  0  0  0  0  0  0  0  0  0  0
   -2.0314   23.9024  -26.8457 H   0  0  0  0  0  0  0  0  0  0  0  0
   -1.2932   23.1587  -28.2683 H   0  0  0  0  0  0  0  0  0  0  0  0
   -2.7773   25.5200  -28.3230 H   0  0  0  0  0  0  0  0  0  0  0  0
   -2.5749   24.4768  -29.7432 H   0  0  0  0  0  0  0  0  0  0  0  0
   -4.4614   22.6468  -31.8971 H   0  0  0  0  0  0  0  0  0  0  0  0
   -5.2100   21.0170  -34.0950 H   0  0  0  0  0  0  0  0  0  0  0  0
   -6.7376   16.5565  -33.1406 H   0  0  0  0  0  0  0  0  0  0  0  0
   -7.2380   17.3221  -34.6866 H   0  0  0  0  0  0  0  0  0  0  0  0
   -6.5570   15.6599  -34.6866 H   0  0  0  0  0  0  0  0  0  0  0  0
   -2.1804   19.5089  -32.8152 H   0  0  0  0  0  0  0  0  0  0  0  0
   -1.3077   19.1014  -34.3315 H   0  0  0  0  0  0  0  0  0  0  0  0
   -2.5511   20.3978  -34.3315 H   0  0  0  0  0  0  0  0  0  0  0  0
  1  2  1  0
  2  3  1  0
  3  4  2  0
  4  5  1  0
  5  6  2  0
  6  7  1  0
  7  8  2  0
  7  9  2  0
  7 10  1  0
 10 11  1  0
 11 12  1  0
 12 13  1  0
 13 14  1  0
  6 15  1  0
 15 16  2  0
 16 17  1  0
 17 18  1  0
 18 19  2  0
 18 20  1  0
 20 21  1  0
 21 22  1  0
 21 23  2  0
 23 24  1  0
 24 25  1  0
 25 26  1  0
 16  3  1  0
 25 20  2  0
 14 10  1  0
  1 27  1  0
  1 28  1  0
  1 29  1  0
  4 30  1  0
  5 31  1  0
 11 32  1  0
 11 33  1  0
 12 34  1  0
 12 35  1  0
 13 36  1  0
 13 37  1  0
 14 38  1  0
 14 39  1  0
 15 40  1  0
 17 41  1  0
 22 42  1  0
 22 43  1  0
 22 44  1  0
 26 45  1  0
 26 46  1  0
 26 47  1  0
M  END
>  <UniqueID>  (21) 
21

>  <SMILES>  (21) 
COc1ccc(S(=O)(=O)N2CCCC2)cc1NC(=O)c1c(C)noc1C

>  <Energy>  (21) 
84.93011840475991

>  <Genealogy>  (21) 
COc1ccc(S(=O)(=O)N2CCCC2)cc1NC(=O)c1c(C)noc1C (3D coordinates assigned)
COc1ccc(S(=O)(=O)N2CCCC2)cc1NC(=O)c1c(C)noc1C (nonaromatic ring conformer: 84.93011840475991 kcal/mol)

>  <smiles>  (21) 
COc1ccc(S(=O)(=O)N2CCCC2)cc1NC(=O)c1c(C)noc1C

>  <score_type>  (21) 
oracle

>  <origin>  (21) 
adgpu

>  <m_score__min__energy>  (21) 
-9.0299999999999994

>  <m_primary>  (21) 
energy

$$$$
21:0
     RDKit          3D

 52 55  0  0  0  0  0  0  0  0999 V2000
   -8.6210   19.4370  -32.3670 C   0  0  0  0  0  0  0  0  0  0  0  0
   -7.9350   20.5060  -33.0110 O   0  0  0  0  0  0  0  0  0  0  0  0
   -7.3010   21.5710  -32.3470 C   0  0  0  0  0  0  0  0  0  0  0  0
   -8.0520   22.6000  -31.7420 C   0  0  0  0  0  0  0  0  0  0  0  0
   -7.4170   23.6600  -31.0980 C   0  0  0  0  0  0  0  0  0  0  0  0
   -6.0230   23.7170  -31.0440 C   0  0  0  0  0  0  0  0  0  0  0  0
   -5.2080   25.0420  -30.2160 S   0  0  0  0  0  0  0  0  0  0  0  0
   -5.6970   26.3450  -30.7850 O   0  0  0  0  0  0  0  0  0  0  0  0
   -5.5150   25.0100  -28.7450 O   0  0  0  0  0  0  0  0  0  0  0  0
   -3.4900   24.9230  -30.4600 N   0  0  0  0  0  0  0  0  0  0  0  0
   -2.7720   24.8920  -29.1820 C   0  0  0  0  0  0  0  0  0  0  0  0
   -1.4680   24.0980  -29.3020 C   0  0  0  0  0  0  0  0  0  0  0  0
   -1.7200   22.6910  -29.7790 C   0  0  0  0  0  0  0  0  0  0  0  0
   -0.8150   22.0600  -30.6450 C   0  0  0  0  0  0  0  0  0  0  0  0
   -1.0840   20.7650  -31.0970 C   0  0  0  0  0  0  0  0  0  0  0  0
   -2.2190   20.1280  -30.7050 N   0  0  0  0  0  0  0  0  0  0  0  0
   -3.1190   20.7200  -29.8740 C   0  0  0  0  0  0  0  0  0  0  0  0
   -2.8890   22.0140  -29.3990 C   0  0  0  0  0  0  0  0  0  0  0  0
   -5.2650   22.7060  -31.6410 C   0  0  0  0  0  0  0  0  0  0  0  0
   -5.8850   21.6210  -32.2930 C   0  0  0  0  0  0  0  0  0  0  0  0
   -5.0330   20.5600  -32.9010 C   0  0  0  0  0  0  0  0  0  0  0  0
   -5.5310   19.3000  -33.1100 N   0  0  0  0  0  0  0  0  0  0  0  0
   -4.7170   18.3670  -33.6550 C   0  0  0  0  0  0  0  0  0  0  0  0
   -4.9490   17.0540  -33.9930 C   0  0  0  0  0  0  0  0  0  0  0  0
   -6.2410   16.3140  -33.8870 C   0  0  0  0  0  0  0  0  0  0  0  0
   -3.8180   16.5550  -34.5540 N   0  0  0  0  0  0  0  0  0  0  0  0
   -2.8970   17.5160  -34.5480 N   0  0  0  0  0  0  0  0  0  0  0  0
   -1.5520   17.3550  -35.0890 C   0  0  0  0  0  0  0  0  0  0  0  0
   -3.4350   18.6270  -34.0060 C   0  0  0  0  0  0  0  0  0  0  0  0
   -2.9110   19.8990  -33.8030 C   0  0  0  0  0  0  0  0  0  0  0  0
   -1.7270   20.1870  -34.1150 O   0  0  0  0  0  0  0  0  0  0  0  0
   -3.7300   20.8400  -33.2470 N   0  0  0  0  0  0  0  0  0  0  0  0
   -8.5443   19.5565  -31.2762 H   0  0  0  0  0  0  0  0  0  0  0  0
   -9.6802   19.4495  -32.6637 H   0  0  0  0  0  0  0  0  0  0  0  0
   -8.1684   18.4793  -32.6637 H   0  0  0  0  0  0  0  0  0  0  0  0
   -9.1508   22.5654  -31.7789 H   0  0  0  0  0  0  0  0  0  0  0  0
   -8.0163   24.4550  -30.6303 H   0  0  0  0  0  0  0  0  0  0  0  0
   -2.5384   25.9224  -28.8759 H   0  0  0  0  0  0  0  0  0  0  0  0
   -3.4119   24.4022  -28.4333 H   0  0  0  0  0  0  0  0  0  0  0  0
   -0.8054   24.6051  -30.0188 H   0  0  0  0  0  0  0  0  0  0  0  0
   -1.0023   24.0468  -28.3068 H   0  0  0  0  0  0  0  0  0  0  0  0
    0.0995   22.5803  -30.9660 H   0  0  0  0  0  0  0  0  0  0  0  0
   -0.3761   20.2605  -31.7710 H   0  0  0  0  0  0  0  0  0  0  0  0
   -4.0292   20.1792  -29.5755 H   0  0  0  0  0  0  0  0  0  0  0  0
   -3.6183   22.4979  -28.7327 H   0  0  0  0  0  0  0  0  0  0  0  0
   -4.1669   22.7578  -31.6014 H   0  0  0  0  0  0  0  0  0  0  0  0
   -6.4945   16.1688  -32.8265 H   0  0  0  0  0  0  0  0  0  0  0  0
   -7.0367   16.8933  -34.3782 H   0  0  0  0  0  0  0  0  0  0  0  0
   -6.1439   15.3346  -34.3782 H   0  0  0  0  0  0  0  0  0  0  0  0
   -0.8320   17.2688  -34.2619 H   0  0  0  0  0  0  0  0  0  0  0  0
   -1.5116   16.4456  -35.7066 H   0  0  0  0  0  0  0  0  0  0  0  0
   -1.2981   18.2292  -35.7066 H   0  0  0  0  0  0  0  0  0  0  0  0
  1  2  1  0
  2  3  1  0
  3  4  2  0
  4  5  1  0
  5  6  2  0
  6  7  1  0
  7  8  2  0
  7  9  2  0
  7 10  1  0
 10 11  1  0
 11 12  1  0
 12 13  1  0
 13 14  2  0
 14 15  1  0
 15 16  2  0
 16 17  1  0
 17 18  2  0
  6 19  1  0
 19 20  2  0
 20 21  1  0
 21 22  2  0
 22 23  1  0
 23 24  1  0
 24 25  1  0
 24 26  2  0
 26 27  1  0
 27 28  1  0
 27 29  1  0
 29 30  1  0
 30 31  2  0
 30 32  1  0
 20  3  1  0
 32 21  1  0
 18 13  1  0
 29 23  2  0
  1 33  1  0
  1 34  1  0
  1 35  1  0
  4 36  1  0
  5 37  1  0
 11 38  1  0
 11 39  1  0
 12 40  1  0
 12 41  1  0
 14 42  1  0
 15 43  1  0
 17 44  1  0
 18 45  1  0
 19 46  1  0
 25 47  1  0
 25 48  1  0
 25 49  1  0
 28 50  1  0
 28 51  1  0
 28 52  1  0
M  CHG  2  10  -1  32  -1
M  END
>  <UniqueID>  (22) 
22

>  <SMILES>  (22) 
COc1ccc(S(=O)(=O)[N-]CCc2ccncc2)cc1-c1nc2c(C)nn(C)c2c(=O)[n-]1

>  <Energy>  (22) 
99.3662192642294

>  <Genealogy>  (22) 
COc1ccc(S(=O)(=O)[N-]CCc2ccncc2)cc1-c1nc2c(C)nn(C)c2c(=O)[n-]1 (protonated)
COc1ccc(S(=O)(=O)[N-]CCc2ccncc2)cc1-c1nc2c(C)nn(C)c2c(=O)[n-]1 (3D coordinates assigned)
COc1ccc(S(=O)(=O)[N-]CCc2ccncc2)cc1-c1nc2c(C)nn(C)c2c(=O)[n-]1 (optimized conformer: 99.3662192642294 kcal/mol)

>  <smiles>  (22) 
COc1ccc(S(=O)(=O)NCCc2ccncc2)cc1-c1nc2c(C)nn(C)c2c(=O)[nH]1

>  <score_type>  (22) 
oracle

>  <origin>  (22) 
adgpu

>  <m_score__min__energy>  (22) 
-10.58

>  <m_primary>  (22) 
energy

$$$$
22:0
     RDKit          3D

 47 48  0  0  0  0  0  0  0  0999 V2000
   -9.4620   23.4650  -32.3450 C   0  0  0  0  0  0  0  0  0  0  0  0
   -9.1570   22.3290  -31.5430 O   0  0  0  0  0  0  0  0  0  0  0  0
   -8.4120   21.2210  -31.9820 C   0  0  0  0  0  0  0  0  0  0  0  0
   -8.9730   19.9310  -32.0560 C   0  0  0  0  0  0  0  0  0  0  0  0
   -8.2060   18.8500  -32.4960 C   0  0  0  0  0  0  0  0  0  0  0  0
   -6.8690   19.0360  -32.8600 C   0  0  0  0  0  0  0  0  0  0  0  0
   -5.9200   17.6690  -33.4420 S   0  0  0  0  0  0  0  0  0  0  0  0
   -5.0550   17.1320  -32.3340 O   0  0  0  0  0  0  0  0  0  0  0  0
   -6.8520   16.5770  -33.8860 O   0  0  0  0  0  0  0  0  0  0  0  0
   -4.9260   18.1500  -34.7820 N   0  0  0  0  0  0  0  0  0  0  0  0
   -3.5650   18.4130  -34.3210 C   0  0  0  0  0  0  0  0  0  0  0  0
   -3.4940   19.8140  -33.7210 C   0  0  0  0  0  0  0  0  0  0  0  0
   -2.9460   19.7580  -32.3300 C   0  0  0  0  0  0  0  0  0  0  0  0
   -1.9090   19.0800  -32.0960 O   0  0  0  0  0  0  0  0  0  0  0  0
   -3.6110   20.4700  -31.2790 N   0  0  0  0  0  0  0  0  0  0  0  0
   -3.1110   21.6220  -30.5840 C   0  0  0  0  0  0  0  0  0  0  0  0
   -2.2140   21.4320  -29.5310 C   0  0  0  0  0  0  0  0  0  0  0  0
   -1.7160   22.5250  -28.8160 C   0  0  0  0  0  0  0  0  0  0  0  0
   -2.1220   23.8370  -29.1280 C   0  0  0  0  0  0  0  0  0  0  0  0
   -1.5860   24.9950  -28.3560 C   0  0  0  0  0  0  0  0  0  0  0  0
   -1.4960   24.9710  -26.8590 C   0  0  0  0  0  0  0  0  0  0  0  0
   -1.2150   26.0400  -28.9560 O   0  0  0  0  0  0  0  0  0  0  0  0
   -3.0520   24.0220  -30.1780 C   0  0  0  0  0  0  0  0  0  0  0  0
   -3.4960   25.2920  -30.5300 O   0  0  0  0  0  0  0  0  0  0  0  0
   -3.5440   22.9220  -30.8900 C   0  0  0  0  0  0  0  0  0  0  0  0
   -6.3030   20.3150  -32.7930 C   0  0  0  0  0  0  0  0  0  0  0  0
   -7.0690   21.4110  -32.3580 C   0  0  0  0  0  0  0  0  0  0  0  0
   -6.4500   22.7790  -32.2850 C   0  0  0  0  0  0  0  0  0  0  0  0
   -9.6921   24.3218  -31.6947 H   0  0  0  0  0  0  0  0  0  0  0  0
   -8.5974   23.7083  -32.9800 H   0  0  0  0  0  0  0  0  0  0  0  0
  -10.3322   23.2426  -32.9800 H   0  0  0  0  0  0  0  0  0  0  0  0
  -10.0222   19.7740  -31.7653 H   0  0  0  0  0  0  0  0  0  0  0  0
   -8.6557   17.8480  -32.5564 H   0  0  0  0  0  0  0  0  0  0  0  0
   -3.2869   17.6722  -33.5569 H   0  0  0  0  0  0  0  0  0  0  0  0
   -2.8696   18.3418  -35.1703 H   0  0  0  0  0  0  0  0  0  0  0  0
   -2.8398   20.4422  -34.3434 H   0  0  0  0  0  0  0  0  0  0  0  0
   -4.5075   20.2402  -33.6885 H   0  0  0  0  0  0  0  0  0  0  0  0
   -1.8966   20.4138  -29.2619 H   0  0  0  0  0  0  0  0  0  0  0  0
   -0.9980   22.3583  -27.9995 H   0  0  0  0  0  0  0  0  0  0  0  0
   -2.4741   25.2318  -26.4286 H   0  0  0  0  0  0  0  0  0  0  0  0
   -1.2053   23.9640  -26.5252 H   0  0  0  0  0  0  0  0  0  0  0  0
   -0.7425   25.6996  -26.5252 H   0  0  0  0  0  0  0  0  0  0  0  0
   -4.2761   23.0774  -31.6961 H   0  0  0  0  0  0  0  0  0  0  0  0
   -5.2522   20.4633  -33.0826 H   0  0  0  0  0  0  0  0  0  0  0  0
   -6.3198   23.0668  -31.2313 H   0  0  0  0  0  0  0  0  0  0  0  0
   -5.4704   22.7654  -32.7851 H   0  0  0  0  0  0  0  0  0  0  0  0
   -7.1069   23.5059  -32.7851 H   0  0  0  0  0  0  0  0  0  0  0  0
  1  2  1  0
  2  3  1  0
  3  4  2  0
  4  5  1  0
  5  6  2  0
  6  7  1  0
  7  8  2  0
  7  9  2  0
  7 10  1  0
 10 11  1  0
 11 12  1  0
 12 13  1  0
 13 14  2  0
 13 15  1  0
 15 16  1  0
 16 17  2  0
 17 18  1  0
 18 19  2  0
 19 20  1  0
 20 21  1  0
 20 22  2  0
 19 23  1  0
 23 24  1  0
 23 25  2  0
  6 26  1  0
 26 27  2  0
 27 28  1  0
 27  3  1  0
 25 16  1  0
  1 29  1  0
  1 30  1  0
  1 31  1  0
  4 32  1  0
  5 33  1  0
 11 34  1  0
 11 35  1  0
 12 36  1  0
 12 37  1  0
 17 38  1  0
 18 39  1  0
 21 40  1  0
 21 41  1  0
 21 42  1  0
 25 43  1  0
 26 44  1  0
 28 45  1  0
 28 46  1  0
 28 47  1  0
M  CHG  3  10  -1  15  -1  24  -1
M  END
>  <UniqueID>  (23) 
23

>  <SMILES>  (23) 
COc1ccc(S(=O)(=O)[N-]CCC(=O)[N-]c2ccc(C(C)=O)c([O-])c2)cc1C

>  <Energy>  (23) 
46.332526404694924

>  <Genealogy>  (23) 
COc1ccc(S(=O)(=O)[N-]CCC(=O)[N-]c2ccc(C(C)=O)c([O-])c2)cc1C (protonated)
COc1ccc(S(=O)(=O)[N-]CCC(=O)[N-]c2ccc(C(C)=O)c([O-])c2)cc1C (3D coordinates assigned)
COc1ccc(S(=O)(=O)[N-]CCC(=O)[N-]c2ccc(C(C)=O)c([O-])c2)cc1C (optimized conformer: 46.332526404694924 kcal/mol)

>  <smiles>  (23) 
COc1ccc(S(=O)(=O)NCCC(=O)Nc2ccc(C(C)=O)c(O)c2)cc1C

>  <score_type>  (23) 
oracle

>  <origin>  (23) 
adgpu

>  <m_score__min__energy>  (23) 
-11.890000000000001

>  <m_primary>  (23) 
energy

$$$$
23:0
     RDKit          3D

 50 53  0  0  0  0  0  0  0  0999 V2000
   -2.5781   21.3245  -33.4403 H   0  0  0  0  0  0  0  0  0  0  0  0
   -3.5010   20.7260  -33.4320 C   0  0  0  0  0  0  0  0  0  0  0  0
   -3.5570   19.5620  -34.1280 N   0  0  0  0  0  0  0  0  0  0  0  0
   -4.6850   18.8090  -34.1360 C   0  0  0  0  0  0  0  0  0  0  0  0
   -4.7270   17.2730  -35.0520 S   0  0  0  0  0  0  0  0  0  0  0  0
   -6.2240   16.6790  -34.2070 C   0  0  0  0  0  0  0  0  0  0  0  0
   -6.0779   16.7370  -33.1183 H   0  0  0  0  0  0  0  0  0  0  0  0
   -7.0810   17.3052  -34.4958 H   0  0  0  0  0  0  0  0  0  0  0  0
   -6.4185   15.6356  -34.4958 H   0  0  0  0  0  0  0  0  0  0  0  0
   -5.7840   19.2220  -33.4580 N   0  0  0  0  0  0  0  0  0  0  0  0
   -5.7910   20.3840  -32.7500 C   0  0  0  0  0  0  0  0  0  0  0  0
   -7.0500   20.7840  -32.0810 C   0  0  0  0  0  0  0  0  0  0  0  0
   -8.2830   20.5170  -32.7000 C   0  0  0  0  0  0  0  0  0  0  0  0
   -8.3078   20.0097  -33.6757 H   0  0  0  0  0  0  0  0  0  0  0  0
   -9.4790   20.8940  -32.0800 C   0  0  0  0  0  0  0  0  0  0  0  0
  -10.4417   20.6735  -32.5643 H   0  0  0  0  0  0  0  0  0  0  0  0
   -9.4530   21.5500  -30.8470 C   0  0  0  0  0  0  0  0  0  0  0  0
  -10.6140   21.9130  -30.2480 F   0  0  0  0  0  0  0  0  0  0  0  0
   -8.2310   21.8390  -30.2350 C   0  0  0  0  0  0  0  0  0  0  0  0
   -8.2110   22.3611  -29.2670 H   0  0  0  0  0  0  0  0  0  0  0  0
   -7.0330   21.4650  -30.8520 C   0  0  0  0  0  0  0  0  0  0  0  0
   -6.0725   21.7052  -30.3728 H   0  0  0  0  0  0  0  0  0  0  0  0
   -4.6140   21.1700  -32.7020 C   0  0  0  0  0  0  0  0  0  0  0  0
   -4.4950   22.3930  -31.8730 C   0  0  0  0  0  0  0  0  0  0  0  0
   -5.3990   23.4530  -32.0390 C   0  0  0  0  0  0  0  0  0  0  0  0
   -6.1977   23.3862  -32.7924 H   0  0  0  0  0  0  0  0  0  0  0  0
   -5.2790   24.5920  -31.2430 C   0  0  0  0  0  0  0  0  0  0  0  0
   -5.9881   25.4241  -31.3651 H   0  0  0  0  0  0  0  0  0  0  0  0
   -4.2880   24.6760  -30.3170 N   0  0  0  0  0  0  0  0  0  0  0  0
   -3.3830   23.6720  -30.1380 C   0  0  0  0  0  0  0  0  0  0  0  0
   -2.4430   23.7690  -29.2450 N   0  0  0  0  0  0  0  0  0  0  0  0
   -2.2310   24.9220  -28.3650 C   0  0  0  0  0  0  0  0  0  0  0  0
   -2.6524   25.8236  -28.8336 H   0  0  0  0  0  0  0  0  0  0  0  0
   -2.9460   24.6710  -27.0170 C   0  0  0  0  0  0  0  0  0  0  0  0
   -3.9953   24.9858  -27.1160 H   0  0  0  0  0  0  0  0  0  0  0  0
   -2.8503   23.5977  -26.7961 H   0  0  0  0  0  0  0  0  0  0  0  0
   -2.3170   25.4350  -25.8320 C   0  0  0  0  0  0  0  0  0  0  0  0
   -3.1112   25.7021  -25.1194 H   0  0  0  0  0  0  0  0  0  0  0  0
   -1.5675   24.7801  -25.3636 H   0  0  0  0  0  0  0  0  0  0  0  0
   -1.6100   26.7150  -26.2880 C   0  0  0  0  0  0  0  0  0  0  0  0
   -2.3431   27.3723  -26.7784 H   0  0  0  0  0  0  0  0  0  0  0  0
   -1.1758   27.2023  -25.4025 H   0  0  0  0  0  0  0  0  0  0  0  0
   -0.4690   26.4110  -27.2790 C   0  0  0  0  0  0  0  0  0  0  0  0
   -0.3451   27.2784  -27.9440 H   0  0  0  0  0  0  0  0  0  0  0  0
    0.4331   26.2106  -26.6822 H   0  0  0  0  0  0  0  0  0  0  0  0
   -0.7250   25.1620  -28.1480 C   0  0  0  0  0  0  0  0  0  0  0  0
   -0.2412   25.3021  -29.1259 H   0  0  0  0  0  0  0  0  0  0  0  0
   -0.3088   24.2879  -27.6257 H   0  0  0  0  0  0  0  0  0  0  0  0
   -3.4710   22.5150  -30.9200 C   0  0  0  0  0  0  0  0  0  0  0  0
   -2.7402   21.7034  -30.7886 H   0  0  0  0  0  0  0  0  0  0  0  0
  1  2  1  0
  2  3  2  0
  3  4  1  0
  4  5  1  0
  5  6  1  0
  6  7  1  0
  6  8  1  0
  6  9  1  0
  4 10  2  0
 10 11  1  0
 11 12  1  0
 12 13  2  0
 13 14  1  0
 13 15  1  0
 15 16  1  0
 15 17  2  0
 17 18  1  0
 17 19  1  0
 19 20  1  0
 19 21  2  0
 21 22  1  0
 11 23  2  0
 23 24  1  0
 24 25  1  0
 25 26  1  0
 25 27  2  0
 27 28  1  0
 27 29  1  0
 29 30  1  0
 30 31  2  0
 31 32  1  0
 32 33  1  0
 32 34  1  0
 34 35  1  0
 34 36  1  0
 34 37  1  0
 37 38  1  0
 37 39  1  0
 37 40  1  0
 40 41  1  0
 40 42  1  0
 40 43  1  0
 43 44  1  0
 43 45  1  0
 43 46  1  0
 46 47  1  0
 46 48  1  0
 30 49  1  0
 49 50  1  0
 23  2  1  0
 49 24  2  0
 21 12  1  0
 46 32  1  0
M  CHG  1  29  -1
M  END
>  <UniqueID>  (24) 
24

>  <SMILES>  (24) 
CSc1ncc(-c2cc[n-]/c(=N\C3CCCCC3)c2)c(-c2ccc(F)cc2)n1

>  <Energy>  (24) 
64.00251852669322

>  <Genealogy>  (24) 
CSc1ncc(-c2cc[n-]c(=NC3CCCCC3)c2)c(-c2ccc(F)cc2)n1 (protonated)
CSc1ncc(-c2cc[n-]/c(=N\C3CCCCC3)c2)c(-c2ccc(F)cc2)n1 (cis-trans isomerization)
CSc1ncc(-c2cc[n-]/c(=N\C3CCCCC3)c2)c(-c2ccc(F)cc2)n1 (3D coordinates assigned)
CSc1ncc(-c2cc[n-]/c(=N\C3CCCCC3)c2)c(-c2ccc(F)cc2)n1 (nonaromatic ring conformer: 64.00251852669322 kcal/mol)

>  <smiles>  (24) 
CSc1ncc(-c2cc[nH]c(=NC3CCCCC3)c2)c(-c2ccc(F)cc2)n1

>  <score_type>  (24) 
oracle

>  <origin>  (24) 
adgpu

>  <m_score__min__energy>  (24) 
-10.31

>  <m_primary>  (24) 
energy

$$$$
24:0
     RDKit          3D

 62 65  0  0  0  0  0  0  0  0999 V2000
   -0.6440   22.2800  -26.0030 C   0  0  0  0  0  0  0  0  0  0  0  0
   -1.3690   23.0260  -27.0940 C   0  0  0  0  0  0  0  0  0  0  0  0
   -2.0750   24.1870  -26.7480 C   0  0  0  0  0  0  0  0  0  0  0  0
   -2.7670   24.9170  -27.7120 C   0  0  0  0  0  0  0  0  0  0  0  0
   -2.7530   24.5100  -29.0520 C   0  0  0  0  0  0  0  0  0  0  0  0
   -3.4840   25.2260  -30.0590 N   0  0  0  0  0  0  0  0  0  0  0  0
   -4.8630   25.0400  -30.3940 C   0  0  0  0  0  0  0  0  0  0  0  0
   -5.7450   25.4240  -29.5810 O   0  0  0  0  0  0  0  0  0  0  0  0
   -5.2340   24.4200  -31.6330 N   0  0  0  0  0  0  0  0  0  0  0  0
   -5.4990   23.0280  -31.8550 C   0  0  0  0  0  0  0  0  0  0  0  0
   -6.6090   22.3770  -31.2830 C   0  0  0  0  0  0  0  0  0  0  0  0
   -6.8190   21.0110  -31.5020 C   0  0  0  0  0  0  0  0  0  0  0  0
   -5.9160   20.2800  -32.2790 C   0  0  0  0  0  0  0  0  0  0  0  0
   -6.1130   18.9540  -32.4920 N   0  0  0  0  0  0  0  0  0  0  0  0
   -5.2440   18.2200  -33.2430 C   0  0  0  0  0  0  0  0  0  0  0  0
   -5.4770   16.8140  -33.4600 N   0  0  0  0  0  0  0  0  0  0  0  0
   -6.8100   16.3560  -33.8660 C   0  0  0  0  0  0  0  0  0  0  0  0
   -4.4000   15.8350  -33.2530 C   0  0  0  0  0  0  0  0  0  0  0  0
   -4.7120   14.9490  -32.0400 C   0  0  0  0  0  0  0  0  0  0  0  0
   -4.9840   13.5590  -32.4650 N   0  0  0  0  0  0  0  0  0  0  0  0
   -4.9420   12.6350  -31.3160 C   0  0  0  0  0  0  0  0  0  0  0  0
   -3.9970   13.1300  -33.4710 C   0  0  0  0  0  0  0  0  0  0  0  0
   -4.1520   18.8270  -33.7880 N   0  0  0  0  0  0  0  0  0  0  0  0
   -3.9100   20.1510  -33.6000 C   0  0  0  0  0  0  0  0  0  0  0  0
   -4.7930   20.9180  -32.8360 C   0  0  0  0  0  0  0  0  0  0  0  0
   -4.5840   22.2860  -32.6150 C   0  0  0  0  0  0  0  0  0  0  0  0
   -2.0660   23.3430  -29.4120 C   0  0  0  0  0  0  0  0  0  0  0  0
   -2.1100   22.9270  -30.7390 O   0  0  0  0  0  0  0  0  0  0  0  0
   -1.3410   22.6050  -28.4490 C   0  0  0  0  0  0  0  0  0  0  0  0
   -0.4440   21.1430  -28.9430 S   0  0  0  0  0  0  0  0  0  0  0  0
    0.8830   21.1130  -28.2390 O   0  0  0  0  0  0  0  0  0  0  0  0
   -0.1630   21.1770  -30.4200 O   0  0  0  0  0  0  0  0  0  0  0  0
   -1.3200   19.6210  -28.5730 C   0  0  0  0  0  0  0  0  0  0  0  0
   -1.2750   19.1230  -27.1340 C   0  0  0  0  0  0  0  0  0  0  0  0
   -2.5220   19.8140  -27.6610 C   0  0  0  0  0  0  0  0  0  0  0  0
   -0.9908   22.6368  -25.0220 H   0  0  0  0  0  0  0  0  0  0  0  0
   -0.8502   21.2035  -26.0955 H   0  0  0  0  0  0  0  0  0  0  0  0
    0.4380   22.4554  -26.0955 H   0  0  0  0  0  0  0  0  0  0  0  0
   -2.0826   24.5259  -25.7015 H   0  0  0  0  0  0  0  0  0  0  0  0
   -3.3270   25.8174  -27.4192 H   0  0  0  0  0  0  0  0  0  0  0  0
   -7.3152   22.9457  -30.6603 H   0  0  0  0  0  0  0  0  0  0  0  0
   -7.6953   20.5122  -31.0624 H   0  0  0  0  0  0  0  0  0  0  0  0
   -7.4147   16.1482  -32.9709 H   0  0  0  0  0  0  0  0  0  0  0  0
   -7.2993   17.1376  -34.4658 H   0  0  0  0  0  0  0  0  0  0  0  0
   -6.7156   15.4387  -34.4658 H   0  0  0  0  0  0  0  0  0  0  0  0
   -4.3062   15.2038  -34.1490 H   0  0  0  0  0  0  0  0  0  0  0  0
   -3.4578   16.3726  -33.0706 H   0  0  0  0  0  0  0  0  0  0  0  0
   -3.8501   14.9557  -31.3566 H   0  0  0  0  0  0  0  0  0  0  0  0
   -5.6040   15.3450  -31.5326 H   0  0  0  0  0  0  0  0  0  0  0  0
   -4.9682   13.2123  -30.3801 H   0  0  0  0  0  0  0  0  0  0  0  0
   -5.8104   11.9610  -31.3555 H   0  0  0  0  0  0  0  0  0  0  0  0
   -4.0160   12.0426  -31.3555 H   0  0  0  0  0  0  0  0  0  0  0  0
   -3.1018   12.7409  -32.9638 H   0  0  0  0  0  0  0  0  0  0  0  0
   -4.4341   12.3407  -34.1002 H   0  0  0  0  0  0  0  0  0  0  0  0
   -3.7181   13.9881  -34.1002 H   0  0  0  0  0  0  0  0  0  0  0  0
   -3.0206   20.6178  -34.0485 H   0  0  0  0  0  0  0  0  0  0  0  0
   -3.6977   22.7800  -33.0399 H   0  0  0  0  0  0  0  0  0  0  0  0
   -1.1216   19.1494  -29.5468 H   0  0  0  0  0  0  0  0  0  0  0  0
   -1.2913   18.0432  -26.9249 H   0  0  0  0  0  0  0  0  0  0  0  0
   -0.6025   19.2786  -26.2776 H   0  0  0  0  0  0  0  0  0  0  0  0
   -3.4408   19.2341  -27.8325 H   0  0  0  0  0  0  0  0  0  0  0  0
   -3.1254   20.6769  -27.3429 H   0  0  0  0  0  0  0  0  0  0  0  0
  1  2  1  0
  2  3  2  0
  3  4  1  0
  4  5  2  0
  5  6  1  0
  6  7  1  0
  7  8  2  0
  7  9  1  0
  9 10  1  0
 10 11  2  0
 11 12  1  0
 12 13  2  0
 13 14  1  0
 14 15  2  0
 15 16  1  0
 16 17  1  0
 16 18  1  0
 18 19  1  0
 19 20  1  0
 20 21  1  0
 20 22  1  0
 15 23  1  0
 23 24  2  0
 24 25  1  0
 25 26  2  0
  5 27  1  0
 27 28  1  0
 27 29  2  0
 29 30  1  0
 30 31  2  0
 30 32  2  0
 30 33  1  0
 33 34  1  0
 34 35  1  0
 29  2  1  0
 35 33  1  0
 26 10  1  0
 25 13  1  0
  1 36  1  0
  1 37  1  0
  1 38  1  0
  3 39  1  0
  4 40  1  0
 11 41  1  0
 12 42  1  0
 17 43  1  0
 17 44  1  0
 17 45  1  0
 18 46  1  0
 18 47  1  0
 19 48  1  0
 19 49  1  0
 21 50  1  0
 21 51  1  0
 21 52  1  0
 22 53  1  0
 22 54  1  0
 22 55  1  0
 24 56  1  0
 26 57  1  0
 33 58  1  0
 34 59  1  0
 34 60  1  0
 35 61  1  0
 35 62  1  0
M  CHG  3   6  -1   9  -1  28  -1
M  END
>  <UniqueID>  (25) 
25

>  <SMILES>  (25) 
Cc1ccc([N-]C(=O)[N-]c2ccc3nc(N(C)CCN(C)C)ncc3c2)c([O-])c1S(=O)(=O)C1CC1

>  <Energy>  (25) 
338.55444758301365

>  <Genealogy>  (25) 
Cc1ccc([N-]C(=O)[N-]c2ccc3nc(N(C)CCN(C)C)ncc3c2)c([O-])c1S(=O)(=O)C1CC1 (protonated)
Cc1ccc([N-]C(=O)[N-]c2ccc3nc(N(C)CCN(C)C)ncc3c2)c([O-])c1S(=O)(=O)C1CC1 (3D coordinates assigned)
Cc1ccc([N-]C(=O)[N-]c2ccc3nc(N(C)CCN(C)C)ncc3c2)c([O-])c1S(=O)(=O)C1CC1 (nonaromatic ring conformer: 338.55444758301365 kcal/mol)

>  <smiles>  (25) 
Cc1ccc(NC(=O)Nc2ccc3nc(N(C)CCN(C)C)ncc3c2)c(O)c1S(=O)(=O)C1CC1

>  <score_type>  (25) 
oracle

>  <origin>  (25) 
adgpu

>  <m_score__min__energy>  (25) 
-15.210000000000001

>  <m_primary>  (25) 
energy

$$$$
25:0
     RDKit          3D

 53 56  0  0  1  0  0  0  0  0999 V2000
   -0.0710   19.3090  -31.3830 N   0  0  0  0  0  0  0  0  0  0  0  0
   -0.9810   20.0290  -31.5820 C   0  0  0  0  0  0  0  0  0  0  0  0
   -2.0880   20.9060  -31.8070 C   0  0  0  0  0  0  0  0  0  0  0  0
   -2.3250   21.9590  -30.9320 C   0  0  0  0  0  0  0  0  0  0  0  0
   -3.3910   22.8210  -31.1280 C   0  0  0  0  0  0  0  0  0  0  0  0
   -3.7280   24.1580  -30.0530 S   0  0  0  0  0  0  0  0  0  0  0  0
   -4.7750   23.7580  -29.0770 O   0  0  0  0  0  0  0  0  0  0  0  0
   -4.2510   25.3130  -30.8640 O   0  0  0  0  0  0  0  0  0  0  0  0
   -2.2840   24.6700  -29.2340 N   0  0  0  0  0  0  0  0  0  0  0  0
   -1.6970   23.9820  -28.3340 C   0  0  0  0  0  0  0  0  0  0  0  0
   -0.5590   24.4880  -27.7520 C   0  0  0  0  0  0  0  0  0  0  0  0
    0.0820   23.7480  -26.7780 C   0  0  0  0  0  0  0  0  0  0  0  0
   -0.4580   22.5580  -26.4550 N   0  0  0  0  0  0  0  0  0  0  0  0
   -1.5740   22.0770  -27.0350 C   0  0  0  0  0  0  0  0  0  0  0  0
   -2.2280   22.7830  -27.9990 N   0  0  0  0  0  0  0  0  0  0  0  0
   -4.2190   22.6330  -32.1970 C   0  0  0  0  0  0  0  0  0  0  0  0
   -3.9860   21.5940  -33.0620 C   0  0  0  0  0  0  0  0  0  0  0  0
   -2.9240   20.7140  -32.8870 C   0  0  0  0  0  0  0  0  0  0  0  0
   -2.7210   19.6720  -33.7870 O   0  0  0  0  0  0  0  0  0  0  0  0
   -3.7080   18.6890  -33.8400 C   0  0  0  0  0  0  0  0  0  0  0  0
   -3.5020   17.6630  -34.7460 C   0  0  0  0  0  0  0  0  0  0  0  0
   -4.4390   16.6450  -34.8600 C   0  0  0  0  0  0  0  0  0  0  0  0
   -5.5620   16.6860  -34.0580 C   0  0  0  0  0  0  0  0  0  0  0  0
   -6.4930   15.5950  -34.2100 C   0  0  0  0  0  0  0  0  0  0  0  0
   -7.2480   14.7430  -34.3320 N   0  0  0  0  0  0  0  0  0  0  0  0
   -5.7810   17.7150  -33.1420 C   0  0  0  0  0  0  0  0  0  0  0  0
   -6.9090   17.7380  -32.3480 O   0  0  0  0  0  0  0  0  0  0  0  0
   -7.7140   18.8500  -32.2130 C   0  0  0  0  0  0  0  0  0  0  0  0
   -9.0150   18.9300  -32.6590 C   0  0  0  0  0  0  0  0  0  0  0  0
   -9.7920   20.0760  -32.4980 C   0  0  0  0  0  0  0  0  0  0  0  0
   -9.2690   21.1890  -31.8740 C   0  0  0  0  0  0  0  0  0  0  0  0
   -7.9490   21.1210  -31.4170 C   0  0  0  0  0  0  0  0  0  0  0  0
   -7.4600   22.2560  -30.7960 O   0  0  0  0  0  0  0  0  0  0  0  0
   -7.4980   23.4600  -31.5680 C   0  0  0  0  0  0  0  0  0  0  0  0
   -6.8510   23.1860  -32.7680 F   0  0  0  0  0  0  0  0  0  0  0  0
   -6.8440   24.4980  -30.9710 F   0  0  0  0  0  0  0  0  0  0  0  0
   -8.8020   23.7880  -31.9120 F   0  0  0  0  0  0  0  0  0  0  0  0
   -7.1950   19.9670  -31.5880 C   0  0  0  0  0  0  0  0  0  0  0  0
   -4.8330   18.7250  -33.0410 C   0  0  0  0  0  0  0  0  0  0  0  0
   -1.6565   22.1101  -30.0716 H   0  0  0  0  0  0  0  0  0  0  0  0
   -0.1646   25.4683  -28.0577 H   0  0  0  0  0  0  0  0  0  0  0  0
    0.9952   24.1154  -26.2869 H   0  0  0  0  0  0  0  0  0  0  0  0
    0.0610   22.0200  -25.7050 H   0  0  0  0  0  0  0  0  0  0  0  0
   -1.9645   21.0965  -26.7248 H   0  0  0  0  0  0  0  0  0  0  0  0
   -5.0688   23.3112  -32.3639 H   0  0  0  0  0  0  0  0  0  0  0  0
   -4.6598   21.4529  -33.9200 H   0  0  0  0  0  0  0  0  0  0  0  0
   -2.5987   17.6543  -35.3737 H   0  0  0  0  0  0  0  0  0  0  0  0
   -4.2897   15.8224  -35.5749 H   0  0  0  0  0  0  0  0  0  0  0  0
   -9.4572   18.0568  -33.1610 H   0  0  0  0  0  0  0  0  0  0  0  0
  -10.8269   20.0926  -32.8703 H   0  0  0  0  0  0  0  0  0  0  0  0
   -9.8703   22.1003  -31.7401 H   0  0  0  0  0  0  0  0  0  0  0  0
   -6.1598   19.9421  -31.2168 H   0  0  0  0  0  0  0  0  0  0  0  0
   -4.9780   19.5497  -32.3277 H   0  0  0  0  0  0  0  0  0  0  0  0
  1  2  3  0
  2  3  1  0
  3  4  2  0
  4  5  1  0
  5  6  1  0
  6  7  2  0
  6  8  2  0
  6  9  1  0
  9 10  2  0
 10 11  1  0
 11 12  2  0
 12 13  1  0
 13 14  1  0
 14 15  2  0
  5 16  2  0
 16 17  1  0
 17 18  2  0
 18 19  1  0
 19 20  1  0
 20 21  2  0
 21 22  1  0
 22 23  2  0
 23 24  1  0
 24 25  3  0
 23 26  1  0
 26 27  1  0
 27 28  1  0
 28 29  2  0
 29 30  1  0
 30 31  2  0
 31 32  1  0
 32 33  1  0
 33 34  1  0
 34 35  1  0
 34 36  1  0
 34 37  1  0
 32 38  2  0
 26 39  2  0
 18  3  1  0
 39 20  1  0
 15 10  1  0
 38 28  1  0
  4 40  1  0
 11 41  1  0
 12 42  1  0
 13 43  1  0
 14 44  1  0
 16 45  1  0
 17 46  1  0
 21 47  1  0
 22 48  1  0
 29 49  1  0
 30 50  1  0
 31 51  1  0
 38 52  1  0
 39 53  1  0
M  END
>  <smiles>  (26) 
N#Cc1cc(S(=O)(=O)N=c2cc[nH]cn2)ccc1Oc1ccc(C#N)c(Oc2cccc(OC(F)(F)F)c2)c1

>  <score_type>  (26) 
oracle

>  <origin>  (26) 
adgpu

>  <m_score__min__energy>  (26) 
-10.619999999999999

>  <m_primary>  (26) 
energy

$$$$
26:0
     RDKit          3D

 41 43  0  0  0  0  0  0  0  0999 V2000
   -6.8650   17.2220  -33.5590 C   0  0  0  0  0  0  0  0  0  0  0  0
   -7.3170   18.4410  -32.8020 C   0  0  0  0  0  0  0  0  0  0  0  0
   -8.6480   18.5440  -32.3660 C   0  0  0  0  0  0  0  0  0  0  0  0
   -9.0820   19.6700  -31.6610 C   0  0  0  0  0  0  0  0  0  0  0  0
   -8.1950   20.7110  -31.3800 C   0  0  0  0  0  0  0  0  0  0  0  0
   -6.8620   20.6280  -31.8050 C   0  0  0  0  0  0  0  0  0  0  0  0
   -6.4150   19.4870  -32.5220 C   0  0  0  0  0  0  0  0  0  0  0  0
   -5.1120   19.4090  -32.9320 N   0  0  0  0  0  0  0  0  0  0  0  0
   -4.2050   20.3950  -32.6830 C   0  0  0  0  0  0  0  0  0  0  0  0
   -3.0170   20.2720  -33.0840 O   0  0  0  0  0  0  0  0  0  0  0  0
   -4.6130   21.5350  -31.9850 C   0  0  0  0  0  0  0  0  0  0  0  0
   -3.8160   22.6340  -31.6360 C   0  0  0  0  0  0  0  0  0  0  0  0
   -4.5280   23.6110  -30.9400 C   0  0  0  0  0  0  0  0  0  0  0  0
   -3.9880   24.8640  -30.3890 C   0  0  0  0  0  0  0  0  0  0  0  0
   -4.6280   25.9320  -30.5730 O   0  0  0  0  0  0  0  0  0  0  0  0
   -2.7440   24.9230  -29.6760 N   0  0  0  0  0  0  0  0  0  0  0  0
   -2.0990   23.8220  -28.9630 C   0  0  0  0  0  0  0  0  0  0  0  0
   -2.5380   23.7530  -27.4860 C   0  0  0  0  0  0  0  0  0  0  0  0
   -3.1760   25.0020  -27.0050 N   0  0  0  0  0  0  0  0  0  0  0  0
   -4.4640   24.6870  -26.3630 C   0  0  0  0  0  0  0  0  0  0  0  0
   -2.3150   25.7290  -26.0520 C   0  0  0  0  0  0  0  0  0  0  0  0
   -6.1230   23.0910  -30.7300 S   0  0  0  0  0  0  0  0  0  0  0  0
   -5.9270   21.6370  -31.5550 C   0  0  0  0  0  0  0  0  0  0  0  0
   -6.5734   16.4356  -32.8473 H   0  0  0  0  0  0  0  0  0  0  0  0
   -7.6877   16.8573  -34.1916 H   0  0  0  0  0  0  0  0  0  0  0  0
   -6.0034   17.4818  -34.1916 H   0  0  0  0  0  0  0  0  0  0  0  0
   -9.3561   17.7303  -32.5816 H   0  0  0  0  0  0  0  0  0  0  0  0
  -10.1276   19.7364  -31.3258 H   0  0  0  0  0  0  0  0  0  0  0  0
   -8.5420   21.5954  -30.8256 H   0  0  0  0  0  0  0  0  0  0  0  0
   -2.7474   22.7168  -31.8835 H   0  0  0  0  0  0  0  0  0  0  0  0
   -2.3643   22.8755  -29.4568 H   0  0  0  0  0  0  0  0  0  0  0  0
   -1.0126   23.9927  -28.9865 H   0  0  0  0  0  0  0  0  0  0  0  0
   -3.2568   22.9280  -27.3736 H   0  0  0  0  0  0  0  0  0  0  0  0
   -1.6310   23.5974  -26.8834 H   0  0  0  0  0  0  0  0  0  0  0  0
   -3.3740   25.6290  -27.8210 H   0  0  0  0  0  0  0  0  0  0  0  0
   -4.3456   24.7160  -25.2698 H   0  0  0  0  0  0  0  0  0  0  0  0
   -5.2174   25.4273  -26.6699 H   0  0  0  0  0  0  0  0  0  0  0  0
   -4.7907   23.6825  -26.6699 H   0  0  0  0  0  0  0  0  0  0  0  0
   -2.6128   25.4776  -25.0234 H   0  0  0  0  0  0  0  0  0  0  0  0
   -1.2658   25.4394  -26.2112 H   0  0  0  0  0  0  0  0  0  0  0  0
   -2.4247   26.8119  -26.2112 H   0  0  0  0  0  0  0  0  0  0  0  0
  1  2  1  0
  2  3  2  0
  3  4  1  0
  4  5  2  0
  5  6  1  0
  6  7  2  0
  7  8  1  0
  8  9  1  0
  9 10  2  0
  9 11  1  0
 11 12  1  0
 12 13  2  0
 13 14  1  0
 14 15  2  0
 14 16  1  0
 16 17  1  0
 17 18  1  0
 18 19  1  0
 19 20  1  0
 19 21  1  0
 13 22  1  0
 22 23  1  0
  7  2  1  0
 23 11  2  0
 23  6  1  0
  1 24  1  0
  1 25  1  0
  1 26  1  0
  3 27  1  0
  4 28  1  0
  5 29  1  0
 12 30  1  0
 17 31  1  0
 17 32  1  0
 18 33  1  0
 18 34  1  0
 19 35  1  0
 20 36  1  0
 20 37  1  0
 20 38  1  0
 21 39  1  0
 21 40  1  0
 21 41  1  0
M  CHG  3   8  -1  16  -1  19   1
M  END
>  <UniqueID>  (27) 
26

>  <SMILES>  (27) 
Cc1cccc2c1[n-]c(=O)c1cc(C(=O)[N-]CC[NH+](C)C)sc12

>  <Energy>  (27) 
81.81363332599501

>  <Genealogy>  (27) 
Cc1cccc2c1[n-]c(=O)c1cc(C(=O)[N-]CC[NH+](C)C)sc12 (protonated)
Cc1cccc2c1[n-]c(=O)c1cc(C(=O)[N-]CC[NH+](C)C)sc12 (3D coordinates assigned)
Cc1cccc2c1[n-]c(=O)c1cc(C(=O)[N-]CC[NH+](C)C)sc12 (optimized conformer: 81.81363332599501 kcal/mol)

>  <smiles>  (27) 
Cc1cccc2c1[nH]c(=O)c1cc(C(=O)NCCN(C)C)sc12

>  <score_type>  (27) 
oracle

>  <origin>  (27) 
adgpu

>  <m_score__min__energy>  (27) 
-9.2200000000000006

>  <m_primary>  (27) 
energy

$$$$
27:0
     RDKit          3D

 58 61  0  0  0  0  0  0  0  0999 V2000
   -4.8340   25.4260  -31.1880 O   0  0  0  0  0  0  0  0  0  0  0  0
   -4.7230   23.9510  -30.8990 S   0  0  0  0  0  0  0  0  0  0  0  0
   -3.5610   23.3980  -31.6760 O   0  0  0  0  0  0  0  0  0  0  0  0
   -4.4600   23.6710  -29.2030 N   0  0  0  0  0  0  0  0  0  0  0  0
   -3.2080   23.2510  -28.6500 C   0  0  0  0  0  0  0  0  0  0  0  0
   -3.0630   21.9780  -28.0650 C   0  0  0  0  0  0  0  0  0  0  0  0
   -1.8450   21.6100  -27.4750 C   0  0  0  0  0  0  0  0  0  0  0  0
   -1.7040   20.0400  -26.6740 S   0  0  0  0  0  0  0  0  0  0  0  0
   -1.6290   20.2470  -25.1890 O   0  0  0  0  0  0  0  0  0  0  0  0
   -2.9320   19.2250  -26.9670 O   0  0  0  0  0  0  0  0  0  0  0  0
   -0.2810   19.1680  -27.2020 N   0  0  0  0  0  0  0  0  0  0  0  0
   -0.5100   17.7170  -27.1270 C   0  0  0  0  0  0  0  0  0  0  0  0
    0.7380   16.9540  -27.6230 C   0  0  0  0  0  0  0  0  0  0  0  0
    1.7440   17.8280  -28.1150 O   0  0  0  0  0  0  0  0  0  0  0  0
    1.2020   18.6540  -29.1290 C   0  0  0  0  0  0  0  0  0  0  0  0
    0.0750   19.5580  -28.5770 C   0  0  0  0  0  0  0  0  0  0  0  0
   -0.7600   22.5070  -27.4940 C   0  0  0  0  0  0  0  0  0  0  0  0
   -0.8910   23.7550  -28.1040 C   0  0  0  0  0  0  0  0  0  0  0  0
   -2.1140   24.1340  -28.6760 C   0  0  0  0  0  0  0  0  0  0  0  0
   -2.2430   25.3760  -29.2920 O   0  0  0  0  0  0  0  0  0  0  0  0
   -6.1880   23.0910  -31.3670 C   0  0  0  0  0  0  0  0  0  0  0  0
   -7.3900   23.7730  -31.5970 C   0  0  0  0  0  0  0  0  0  0  0  0
   -8.5580   23.0540  -31.8810 C   0  0  0  0  0  0  0  0  0  0  0  0
   -8.5340   21.6560  -31.9210 C   0  0  0  0  0  0  0  0  0  0  0  0
   -7.3360   20.9690  -31.6860 C   0  0  0  0  0  0  0  0  0  0  0  0
   -7.2880   19.2040  -31.6970 S   0  0  0  0  0  0  0  0  0  0  0  0
   -6.1200   18.7260  -30.8770 O   0  0  0  0  0  0  0  0  0  0  0  0
   -8.5560   18.6830  -31.0750 O   0  0  0  0  0  0  0  0  0  0  0  0
   -7.1210   18.6120  -33.3340 N   0  0  0  0  0  0  0  0  0  0  0  0
   -6.8650   17.1720  -33.3540 C   0  0  0  0  0  0  0  0  0  0  0  0
   -6.0570   16.8890  -34.6060 C   0  0  0  0  0  0  0  0  0  0  0  0
   -5.3430   18.1900  -34.9180 C   0  0  0  0  0  0  0  0  0  0  0  0
   -5.9860   19.2420  -34.0170 C   0  0  0  0  0  0  0  0  0  0  0  0
   -6.1660   21.6930  -31.4210 C   0  0  0  0  0  0  0  0  0  0  0  0
   -3.9061   21.2715  -28.0709 H   0  0  0  0  0  0  0  0  0  0  0  0
   -0.7175   17.4353  -26.0841 H   0  0  0  0  0  0  0  0  0  0  0  0
   -1.3676   17.4554  -27.7643 H   0  0  0  0  0  0  0  0  0  0  0  0
    1.1528   16.3725  -26.7864 H   0  0  0  0  0  0  0  0  0  0  0  0
    0.4259   16.3003  -28.4508 H   0  0  0  0  0  0  0  0  0  0  0  0
    2.0014   19.2886  -29.5393 H   0  0  0  0  0  0  0  0  0  0  0  0
    0.7764   18.0083  -29.9113 H   0  0  0  0  0  0  0  0  0  0  0  0
    0.4177   20.6033  -28.5783 H   0  0  0  0  0  0  0  0  0  0  0  0
   -0.8128   19.4458  -29.2168 H   0  0  0  0  0  0  0  0  0  0  0  0
    0.1943   22.2230  -27.0263 H   0  0  0  0  0  0  0  0  0  0  0  0
   -0.0333   24.4429  -28.1363 H   0  0  0  0  0  0  0  0  0  0  0  0
   -3.1160   25.6690  -29.7260 H   0  0  0  0  0  0  0  0  0  0  0  0
   -7.4164   24.8719  -31.5546 H   0  0  0  0  0  0  0  0  0  0  0  0
   -9.4984   23.5912  -32.0735 H   0  0  0  0  0  0  0  0  0  0  0  0
   -9.4559   21.0961  -32.1370 H   0  0  0  0  0  0  0  0  0  0  0  0
   -6.2956   16.8760  -32.4606 H   0  0  0  0  0  0  0  0  0  0  0  0
   -7.8066   16.6033  -33.3544 H   0  0  0  0  0  0  0  0  0  0  0  0
   -5.3302   16.0839  -34.4228 H   0  0  0  0  0  0  0  0  0  0  0  0
   -6.6925   16.5573  -35.4404 H   0  0  0  0  0  0  0  0  0  0  0  0
   -4.2692   18.1005  -34.6969 H   0  0  0  0  0  0  0  0  0  0  0  0
   -5.4329   18.4571  -35.9813 H   0  0  0  0  0  0  0  0  0  0  0  0
   -5.2546   19.5987  -33.2768 H   0  0  0  0  0  0  0  0  0  0  0  0
   -6.3245   20.1032  -34.6118 H   0  0  0  0  0  0  0  0  0  0  0  0
   -5.2203   21.1567  -31.2537 H   0  0  0  0  0  0  0  0  0  0  0  0
  1  2  2  0
  2  3  2  0
  2  4  1  0
  4  5  1  0
  5  6  2  0
  6  7  1  0
  7  8  1  0
  8  9  2  0
  8 10  2  0
  8 11  1  0
 11 12  1  0
 12 13  1  0
 13 14  1  0
 14 15  1  0
 15 16  1  0
  7 17  2  0
 17 18  1  0
 18 19  2  0
 19 20  1  0
  2 21  1  0
 21 22  2  0
 22 23  1  0
 23 24  2  0
 24 25  1  0
 25 26  1  0
 26 27  2  0
 26 28  2  0
 26 29  1  0
 29 30  1  0
 30 31  1  0
 31 32  1  0
 32 33  1  0
 25 34  2  0
 19  5  1  0
 34 21  1  0
 16 11  1  0
 33 29  1  0
  6 35  1  0
 12 36  1  0
 12 37  1  0
 13 38  1  0
 13 39  1  0
 15 40  1  0
 15 41  1  0
 16 42  1  0
 16 43  1  0
 17 44  1  0
 18 45  1  0
 20 46  1  0
 22 47  1  0
 23 48  1  0
 24 49  1  0
 30 50  1  0
 30 51  1  0
 31 52  1  0
 31 53  1  0
 32 54  1  0
 32 55  1  0
 33 56  1  0
 33 57  1  0
 34 58  1  0
M  CHG  1   4  -1
M  END
>  <UniqueID>  (28) 
27

>  <SMILES>  (28) 
O=S(=O)([N-]c1cc(S(=O)(=O)N2CCOCC2)ccc1O)c1cccc(S(=O)(=O)N2CCCC2)c1

>  <Energy>  (28) 
72.06824767680229

>  <Genealogy>  (28) 
O=S(=O)([N-]c1cc(S(=O)(=O)N2CCOCC2)ccc1O)c1cccc(S(=O)(=O)N2CCCC2)c1 (protonated)
O=S(=O)([N-]c1cc(S(=O)(=O)N2CCOCC2)ccc1O)c1cccc(S(=O)(=O)N2CCCC2)c1 (3D coordinates assigned)
O=S(=O)([N-]c1cc(S(=O)(=O)N2CCOCC2)ccc1O)c1cccc(S(=O)(=O)N2CCCC2)c1 (nonaromatic ring conformer: 72.06824767680229 kcal/mol)

>  <smiles>  (28) 
O=S(=O)(Nc1cc(S(=O)(=O)N2CCOCC2)ccc1O)c1cccc(S(=O)(=O)N2CCCC2)c1

>  <score_type>  (28) 
oracle

>  <origin>  (28) 
adgpu

>  <m_score__min__energy>  (28) 
-13.07

>  <m_primary>  (28) 
energy

$$$$
28:0
     RDKit          3D

 63 67  0  0  0  0  0  0  0  0999 V2000
   -1.1362   22.1204  -34.1538 H   0  0  0  0  0  0  0  0  0  0  0  0
   -1.4960   21.2830  -33.5380 C   0  0  0  0  0  0  0  0  0  0  0  0
   -1.6680   21.4470  -32.2010 N   0  0  0  0  0  0  0  0  0  0  0  0
   -2.1030   20.4220  -31.4160 C   0  0  0  0  0  0  0  0  0  0  0  0
   -2.2950   20.5820  -30.1400 N   0  0  0  0  0  0  0  0  0  0  0  0
   -2.0080   21.7610  -29.3670 C   0  0  0  0  0  0  0  0  0  0  0  0
   -1.2880   21.7030  -28.1690 C   0  0  0  0  0  0  0  0  0  0  0  0
   -0.9038   20.7373  -27.8087 H   0  0  0  0  0  0  0  0  0  0  0  0
   -1.0540   22.8620  -27.4280 C   0  0  0  0  0  0  0  0  0  0  0  0
   -0.4784   22.7943  -26.4930 H   0  0  0  0  0  0  0  0  0  0  0  0
   -1.5400   24.1240  -27.8510 C   0  0  0  0  0  0  0  0  0  0  0  0
   -1.2560   25.3320  -27.0680 N   0  0  0  0  0  0  0  0  0  0  0  0
   -1.7600   25.4220  -25.6790 C   0  0  0  0  0  0  0  0  0  0  0  0
   -2.8587   25.3771  -25.7077 H   0  0  0  0  0  0  0  0  0  0  0  0
   -1.3119   24.5830  -25.1265 H   0  0  0  0  0  0  0  0  0  0  0  0
   -1.3500   26.7050  -24.9390 C   0  0  0  0  0  0  0  0  0  0  0  0
   -2.0932   26.9178  -24.1564 H   0  0  0  0  0  0  0  0  0  0  0  0
   -0.3526   26.5451  -24.5034 H   0  0  0  0  0  0  0  0  0  0  0  0
   -1.2760   27.8090  -25.8100 O   0  0  0  0  0  0  0  0  0  0  0  0
   -0.2150   27.5900  -26.7080 C   0  0  0  0  0  0  0  0  0  0  0  0
   -0.0089   28.5188  -27.2602 H   0  0  0  0  0  0  0  0  0  0  0  0
    0.6767   27.2836  -26.1415 H   0  0  0  0  0  0  0  0  0  0  0  0
   -0.5800   26.4850  -27.6980 C   0  0  0  0  0  0  0  0  0  0  0  0
   -1.2502   26.9079  -28.4609 H   0  0  0  0  0  0  0  0  0  0  0  0
    0.3605   26.1131  -28.1306 H   0  0  0  0  0  0  0  0  0  0  0  0
   -2.3150   24.1510  -29.0460 C   0  0  0  0  0  0  0  0  0  0  0  0
   -2.8860   25.2850  -29.5210 F   0  0  0  0  0  0  0  0  0  0  0  0
   -2.5420   22.9810  -29.7770 C   0  0  0  0  0  0  0  0  0  0  0  0
   -3.1524   23.0243  -30.6911 H   0  0  0  0  0  0  0  0  0  0  0  0
   -2.3840   19.2190  -31.9830 N   0  0  0  0  0  0  0  0  0  0  0  0
   -2.2300   19.0120  -33.3190 C   0  0  0  0  0  0  0  0  0  0  0  0
   -2.5270   17.7700  -33.8950 O   0  0  0  0  0  0  0  0  0  0  0  0
   -3.6530   17.5440  -34.7400 C   0  0  0  0  0  0  0  0  0  0  0  0
   -3.7188   16.4711  -34.9737 H   0  0  0  0  0  0  0  0  0  0  0  0
   -3.5247   18.1298  -35.6621 H   0  0  0  0  0  0  0  0  0  0  0  0
   -4.9260   17.9810  -34.0640 C   0  0  0  0  0  0  0  0  0  0  0  0
   -5.5410   19.1870  -34.4370 C   0  0  0  0  0  0  0  0  0  0  0  0
   -5.0916   19.8113  -35.2233 H   0  0  0  0  0  0  0  0  0  0  0  0
   -6.7230   19.5970  -33.8120 C   0  0  0  0  0  0  0  0  0  0  0  0
   -7.1967   20.5460  -34.1035 H   0  0  0  0  0  0  0  0  0  0  0  0
   -7.3060   18.8020  -32.8150 C   0  0  0  0  0  0  0  0  0  0  0  0
   -8.8050   19.2920  -32.0320 S   0  0  0  0  0  0  0  0  0  0  0  0
   -9.3780   18.1710  -31.2100 O   0  0  0  0  0  0  0  0  0  0  0  0
   -9.8000   19.6690  -33.0930 O   0  0  0  0  0  0  0  0  0  0  0  0
   -8.5110   20.6610  -31.0080 N   0  0  0  0  0  0  0  0  0  0  0  0
   -9.1670   20.8020  -30.2090 H   0  0  0  0  0  0  0  0  0  0  0  0
   -7.4700   21.6280  -31.2370 C   0  0  0  0  0  0  0  0  0  0  0  0
   -7.8210   22.9700  -31.4580 C   0  0  0  0  0  0  0  0  0  0  0  0
   -8.8812   23.2632  -31.4628 H   0  0  0  0  0  0  0  0  0  0  0  0
   -6.8330   23.9360  -31.6720 C   0  0  0  0  0  0  0  0  0  0  0  0
   -7.1178   24.9832  -31.8515 H   0  0  0  0  0  0  0  0  0  0  0  0
   -5.4850   23.5720  -31.6580 C   0  0  0  0  0  0  0  0  0  0  0  0
   -4.7077   24.3341  -31.8164 H   0  0  0  0  0  0  0  0  0  0  0  0
   -5.1240   22.2410  -31.4430 C   0  0  0  0  0  0  0  0  0  0  0  0
   -4.0619   21.9547  -31.4405 H   0  0  0  0  0  0  0  0  0  0  0  0
   -6.1070   21.2710  -31.2310 C   0  0  0  0  0  0  0  0  0  0  0  0
   -5.8156   20.2244  -31.0587 H   0  0  0  0  0  0  0  0  0  0  0  0
   -6.6940   17.5970  -32.4420 C   0  0  0  0  0  0  0  0  0  0  0  0
   -7.1460   16.9719  -31.6578 H   0  0  0  0  0  0  0  0  0  0  0  0
   -5.5110   17.1880  -33.0640 C   0  0  0  0  0  0  0  0  0  0  0  0
   -5.0363   16.2407  -32.7687 H   0  0  0  0  0  0  0  0  0  0  0  0
   -1.7760   20.0520  -34.1290 C   0  0  0  0  0  0  0  0  0  0  0  0
   -1.6417   19.9043  -35.2107 H   0  0  0  0  0  0  0  0  0  0  0  0
  1  2  1  0
  2  3  1  0
  3  4  1  0
  4  5  2  0
  5  6  1  0
  6  7  2  0
  7  8  1  0
  7  9  1  0
  9 10  1  0
  9 11  2  0
 11 12  1  0
 12 13  1  0
 13 14  1  0
 13 15  1  0
 13 16  1  0
 16 17  1  0
 16 18  1  0
 16 19  1  0
 19 20  1  0
 20 21  1  0
 20 22  1  0
 20 23  1  0
 23 24  1  0
 23 25  1  0
 11 26  1  0
 26 27  1  0
 26 28  2  0
 28 29  1  0
  4 30  1  0
 30 31  2  0
 31 32  1  0
 32 33  1  0
 33 34  1  0
 33 35  1  0
 33 36  1  0
 36 37  2  0
 37 38  1  0
 37 39  1  0
 39 40  1  0
 39 41  2  0
 41 42  1  0
 42 43  2  0
 42 44  2  0
 42 45  1  0
 45 46  1  0
 45 47  1  0
 47 48  2  0
 48 49  1  0
 48 50  1  0
 50 51  1  0
 50 52  2  0
 52 53  1  0
 52 54  1  0
 54 55  1  0
 54 56  2  0
 56 57  1  0
 41 58  1  0
 58 59  1  0
 58 60  2  0
 60 61  1  0
 31 62  1  0
 62 63  1  0
 62  2  2  0
 28  6  1  0
 60 36  1  0
 23 12  1  0
 56 47  1  0
M  CHG  1   3  -1
M  END
>  <UniqueID>  (29) 
28

>  <SMILES>  (29) 
O=S(=O)(Nc1ccccc1)c1ccc(COc2cc[n-]/c(=N\c3ccc(N4CCOCC4)c(F)c3)n2)cc1

>  <Energy>  (29) 
87.99263090374863

>  <Genealogy>  (29) 
O=S(=O)(Nc1ccccc1)c1ccc(COc2cc[n-]c(=Nc3ccc(N4CCOCC4)c(F)c3)n2)cc1 (protonated)
O=S(=O)(Nc1ccccc1)c1ccc(COc2cc[n-]/c(=N\c3ccc(N4CCOCC4)c(F)c3)n2)cc1 (cis-trans isomerization)
O=S(=O)(Nc1ccccc1)c1ccc(COc2cc[n-]/c(=N\c3ccc(N4CCOCC4)c(F)c3)n2)cc1 (3D coordinates assigned)
O=S(=O)(Nc1ccccc1)c1ccc(COc2cc[n-]/c(=N\c3ccc(N4CCOCC4)c(F)c3)n2)cc1 (nonaromatic ring conformer: 87.99263090374863 kcal/mol)

>  <smiles>  (29) 
O=S(=O)(Nc1ccccc1)c1ccc(COc2cc[nH]c(=Nc3ccc(N4CCOCC4)c(F)c3)n2)cc1

>  <score_type>  (29) 
oracle

>  <origin>  (29) 
adgpu

>  <m_score__min__energy>  (29) 
-11.720000000000001

>  <m_primary>  (29) 
energy

$$$$
29:0
     RDKit          3D

 56 59  0  0  0  0  0  0  0  0999 V2000
   -4.5510   17.0840  -34.5590 C   0  0  0  0  0  0  0  0  0  0  0  0
   -5.8920   16.6920  -33.4590 S   0  0  0  0  0  0  0  0  0  0  0  0
   -5.3620   15.9360  -32.2720 O   0  0  0  0  0  0  0  0  0  0  0  0
   -6.8950   15.8280  -34.1720 O   0  0  0  0  0  0  0  0  0  0  0  0
   -6.6640   18.1820  -32.9250 C   0  0  0  0  0  0  0  0  0  0  0  0
   -7.9550   18.1530  -32.3810 C   0  0  0  0  0  0  0  0  0  0  0  0
   -8.5560   19.3340  -31.9400 C   0  0  0  0  0  0  0  0  0  0  0  0
   -7.8740   20.5490  -32.0420 C   0  0  0  0  0  0  0  0  0  0  0  0
   -6.5830   20.5900  -32.6000 C   0  0  0  0  0  0  0  0  0  0  0  0
   -5.8620   21.7890  -32.7080 O   0  0  0  0  0  0  0  0  0  0  0  0
   -5.9070   22.8480  -31.7890 C   0  0  0  0  0  0  0  0  0  0  0  0
   -7.1550   23.3260  -31.3750 C   0  0  0  0  0  0  0  0  0  0  0  0
   -7.2410   24.3760  -30.4580 C   0  0  0  0  0  0  0  0  0  0  0  0
   -6.0780   24.9440  -29.9310 C   0  0  0  0  0  0  0  0  0  0  0  0
   -4.8180   24.4540  -30.3030 C   0  0  0  0  0  0  0  0  0  0  0  0
   -3.6330   25.0600  -29.7540 N   0  0  0  0  0  0  0  0  0  0  0  0
   -2.4680   24.3240  -29.3490 C   0  0  0  0  0  0  0  0  0  0  0  0
   -2.4940   22.9230  -29.3910 C   0  0  0  0  0  0  0  0  0  0  0  0
   -1.3710   22.1790  -29.0020 C   0  0  0  0  0  0  0  0  0  0  0  0
   -1.4070   20.4200  -29.0590 S   0  0  0  0  0  0  0  0  0  0  0  0
   -2.5160   19.9060  -28.1810 O   0  0  0  0  0  0  0  0  0  0  0  0
   -0.1020   19.8810  -28.5430 O   0  0  0  0  0  0  0  0  0  0  0  0
   -1.6380   19.9000  -30.7100 N   0  0  0  0  0  0  0  0  0  0  0  0
   -0.6380   20.4910  -31.5980 C   0  0  0  0  0  0  0  0  0  0  0  0
   -1.2700   20.5520  -32.9780 C   0  0  0  0  0  0  0  0  0  0  0  0
   -2.7700   20.4760  -32.7380 C   0  0  0  0  0  0  0  0  0  0  0  0
   -2.9310   20.3440  -31.2300 C   0  0  0  0  0  0  0  0  0  0  0  0
   -0.2060   22.8430  -28.5980 C   0  0  0  0  0  0  0  0  0  0  0  0
   -0.1640   24.2390  -28.5790 C   0  0  0  0  0  0  0  0  0  0  0  0
   -1.2850   24.9830  -28.9630 C   0  0  0  0  0  0  0  0  0  0  0  0
   -1.2070   26.3710  -28.9770 O   0  0  0  0  0  0  0  0  0  0  0  0
   -4.7390   23.4070  -31.2410 C   0  0  0  0  0  0  0  0  0  0  0  0
   -5.9780   19.4000  -33.0190 C   0  0  0  0  0  0  0  0  0  0  0  0
   -3.6587   17.3448  -33.9710 H   0  0  0  0  0  0  0  0  0  0  0  0
   -4.3304   16.2128  -35.1932 H   0  0  0  0  0  0  0  0  0  0  0  0
   -4.8344   17.9369  -35.1932 H   0  0  0  0  0  0  0  0  0  0  0  0
   -8.4959   17.1985  -32.3012 H   0  0  0  0  0  0  0  0  0  0  0  0
   -9.5687   19.3075  -31.5114 H   0  0  0  0  0  0  0  0  0  0  0  0
   -8.3474   21.4757  -31.6853 H   0  0  0  0  0  0  0  0  0  0  0  0
   -8.0741   22.8721  -31.7741 H   0  0  0  0  0  0  0  0  0  0  0  0
   -8.2260   24.7566  -30.1500 H   0  0  0  0  0  0  0  0  0  0  0  0
   -6.1515   25.7803  -29.2202 H   0  0  0  0  0  0  0  0  0  0  0  0
   -3.5820   26.1040  -29.7250 H   0  0  0  0  0  0  0  0  0  0  0  0
   -3.4019   22.4037  -29.7316 H   0  0  0  0  0  0  0  0  0  0  0  0
   -0.3755   21.5027  -31.2550 H   0  0  0  0  0  0  0  0  0  0  0  0
    0.2863   19.8947  -31.6094 H   0  0  0  0  0  0  0  0  0  0  0  0
   -1.0077   21.4949  -33.4802 H   0  0  0  0  0  0  0  0  0  0  0  0
   -0.9172   19.7364  -33.6263 H   0  0  0  0  0  0  0  0  0  0  0  0
   -3.2645   21.3897  -33.0995 H   0  0  0  0  0  0  0  0  0  0  0  0
   -3.2282   19.6318  -33.2741 H   0  0  0  0  0  0  0  0  0  0  0  0
   -3.2038   21.3149  -30.7908 H   0  0  0  0  0  0  0  0  0  0  0  0
   -3.7276   19.6290  -30.9767 H   0  0  0  0  0  0  0  0  0  0  0  0
    0.6785   22.2635  -28.2948 H   0  0  0  0  0  0  0  0  0  0  0  0
    0.7537   24.7554  -28.2610 H   0  0  0  0  0  0  0  0  0  0  0  0
   -3.7549   23.0230  -31.5478 H   0  0  0  0  0  0  0  0  0  0  0  0
   -4.9560   19.4209  -33.4253 H   0  0  0  0  0  0  0  0  0  0  0  0
  1  2  1  0
  2  3  2  0
  2  4  2  0
  2  5  1  0
  5  6  2  0
  6  7  1  0
  7  8  2  0
  8  9  1  0
  9 10  1  0
 10 11  1  0
 11 12  2  0
 12 13  1  0
 13 14  2  0
 14 15  1  0
 15 16  1  0
 16 17  1  0
 17 18  2  0
 18 19  1  0
 19 20  1  0
 20 21  2  0
 20 22  2  0
 20 23  1  0
 23 24  1  0
 24 25  1  0
 25 26  1  0
 26 27  1  0
 19 28  2  0
 28 29  1  0
 29 30  2  0
 30 31  1  0
 15 32  2  0
  9 33  2  0
 33  5  1  0
 32 11  1  0
 30 17  1  0
 27 23  1  0
  1 34  1  0
  1 35  1  0
  1 36  1  0
  6 37  1  0
  7 38  1  0
  8 39  1  0
 12 40  1  0
 13 41  1  0
 14 42  1  0
 16 43  1  0
 18 44  1  0
 24 45  1  0
 24 46  1  0
 25 47  1  0
 25 48  1  0
 26 49  1  0
 26 50  1  0
 27 51  1  0
 27 52  1  0
 28 53  1  0
 29 54  1  0
 32 55  1  0
 33 56  1  0
M  CHG  1  31  -1
M  END
>  <UniqueID>  (30) 
29

>  <SMILES>  (30) 
CS(=O)(=O)c1cccc(Oc2cccc(Nc3cc(S(=O)(=O)N4CCCC4)ccc3[O-])c2)c1

>  <Energy>  (30) 
69.60723768231581

>  <Genealogy>  (30) 
CS(=O)(=O)c1cccc(Oc2cccc(Nc3cc(S(=O)(=O)N4CCCC4)ccc3[O-])c2)c1 (protonated)
CS(=O)(=O)c1cccc(Oc2cccc(Nc3cc(S(=O)(=O)N4CCCC4)ccc3[O-])c2)c1 (3D coordinates assigned)
CS(=O)(=O)c1cccc(Oc2cccc(Nc3cc(S(=O)(=O)N4CCCC4)ccc3[O-])c2)c1 (nonaromatic ring conformer: 69.60723768231581 kcal/mol)

>  <smiles>  (30) 
CS(=O)(=O)c1cccc(Oc2cccc(Nc3cc(S(=O)(=O)N4CCCC4)ccc3O)c2)c1

>  <score_type>  (30) 
oracle

>  <origin>  (30) 
adgpu

>  <m_score__min__energy>  (30) 
-14.57

>  <m_primary>  (30) 
energy

$$$$
30:0
     RDKit          3D

 57 60  0  0  1  0  0  0  0  0999 V2000
   -5.1010   17.7520  -34.9940 C   0  0  0  0  0  0  0  0  0  0  0  0
   -5.8890   17.1950  -34.1170 C   0  0  0  0  0  0  0  0  0  0  0  0
   -6.6120   17.7540  -32.9820 C   0  0  0  0  0  0  0  0  0  0  0  0
   -7.3190   18.8970  -33.1070 O   0  0  0  0  0  0  0  0  0  0  0  0
   -7.3570   20.1240  -32.5520 C   0  0  0  0  0  0  0  0  0  0  0  0
   -8.4900   20.4120  -31.7650 C   0  0  0  0  0  0  0  0  0  0  0  0
   -9.4850   19.4620  -31.5900 O   0  0  0  0  0  0  0  0  0  0  0  0
   -8.6090   21.6380  -31.1700 C   0  0  0  0  0  0  0  0  0  0  0  0
   -7.6160   22.5520  -31.3570 C   0  0  0  0  0  0  0  0  0  0  0  0
   -6.4700   22.3570  -32.1140 C   0  0  0  0  0  0  0  0  0  0  0  0
   -5.4360   23.4080  -32.3170 C   0  0  0  0  0  0  0  0  0  0  0  0
   -4.8500   24.0130  -31.2080 N   0  0  0  0  0  0  0  0  0  0  0  0
   -3.8010   23.7980  -30.5680 C   0  0  0  0  0  0  0  0  0  0  0  0
   -3.4960   24.5780  -29.5230 N   0  0  0  0  0  0  0  0  0  0  0  0
   -2.3570   24.4700  -28.8140 C   0  0  0  0  0  0  0  0  0  0  0  0
   -2.0310   25.2930  -27.7100 N   0  0  0  0  0  0  0  0  0  0  0  0
   -2.6850   25.2150  -26.4190 C   0  0  0  0  0  0  0  0  0  0  0  0
   -1.6170   25.1130  -25.3540 C   0  0  0  0  0  0  0  0  0  0  0  0
   -0.5970   26.0180  -25.4710 O   0  0  0  0  0  0  0  0  0  0  0  0
   -0.7230   26.9480  -26.4720 C   0  0  0  0  0  0  0  0  0  0  0  0
   -0.9700   26.3070  -27.8200 C   0  0  0  0  0  0  0  0  0  0  0  0
   -1.4990   23.5080  -29.2100 N   0  0  0  0  0  0  0  0  0  0  0  0
   -1.7710   22.6990  -30.2580 C   0  0  0  0  0  0  0  0  0  0  0  0
   -0.8610   21.7420  -30.5890 C   0  0  0  0  0  0  0  0  0  0  0  0
   -1.1740   20.9210  -31.6510 C   0  0  0  0  0  0  0  0  0  0  0  0
   -0.1810   19.8770  -32.0080 C   0  0  0  0  0  0  0  0  0  0  0  0
   -2.3150   20.9920  -32.3870 C   0  0  0  0  0  0  0  0  0  0  0  0
   -3.2500   21.9890  -32.0320 C   0  0  0  0  0  0  0  0  0  0  0  0
   -2.9500   22.8080  -30.9890 C   0  0  0  0  0  0  0  0  0  0  0  0
   -6.3680   21.1090  -32.7100 C   0  0  0  0  0  0  0  0  0  0  0  0
   -5.3000   20.7660  -33.4900 O   0  0  0  0  0  0  0  0  0  0  0  0
   -4.6451   17.1433  -35.7888 H   0  0  0  0  0  0  0  0  0  0  0  0
   -4.8921   18.8306  -34.9391 H   0  0  0  0  0  0  0  0  0  0  0  0
   -6.0332   16.1138  -34.2588 H   0  0  0  0  0  0  0  0  0  0  0  0
   -7.3213   16.9813  -32.6507 H   0  0  0  0  0  0  0  0  0  0  0  0
   -5.8024   18.0421  -32.2953 H   0  0  0  0  0  0  0  0  0  0  0  0
   -9.3790   18.5620  -32.0200 H   0  0  0  0  0  0  0  0  0  0  0  0
   -9.4874   21.8807  -30.5539 H   0  0  0  0  0  0  0  0  0  0  0  0
   -7.7332   23.5289  -30.8652 H   0  0  0  0  0  0  0  0  0  0  0  0
   -4.6229   22.9496  -32.8990 H   0  0  0  0  0  0  0  0  0  0  0  0
   -5.9899   24.2278  -32.7976 H   0  0  0  0  0  0  0  0  0  0  0  0
   -4.1570   25.3250  -29.2110 H   0  0  0  0  0  0  0  0  0  0  0  0
   -3.2910   26.1180  -26.2534 H   0  0  0  0  0  0  0  0  0  0  0  0
   -3.3456   24.3363  -26.3801 H   0  0  0  0  0  0  0  0  0  0  0  0
   -2.0956   25.2626  -24.3749 H   0  0  0  0  0  0  0  0  0  0  0  0
   -1.1612   24.1185  -25.4691 H   0  0  0  0  0  0  0  0  0  0  0  0
   -1.5679   27.6112  -26.2350 H   0  0  0  0  0  0  0  0  0  0  0  0
    0.2214   27.5087  -26.5327 H   0  0  0  0  0  0  0  0  0  0  0  0
   -1.2783   27.0798  -28.5395 H   0  0  0  0  0  0  0  0  0  0  0  0
   -0.0438   25.8237  -28.1644 H   0  0  0  0  0  0  0  0  0  0  0  0
    0.0818   21.6290  -30.0338 H   0  0  0  0  0  0  0  0  0  0  0  0
    0.2362   19.4384  -31.0895 H   0  0  0  0  0  0  0  0  0  0  0  0
   -0.6724   19.0905  -32.5995 H   0  0  0  0  0  0  0  0  0  0  0  0
    0.6291   20.3285  -32.5995 H   0  0  0  0  0  0  0  0  0  0  0  0
   -2.5018   20.3023  -33.2233 H   0  0  0  0  0  0  0  0  0  0  0  0
   -4.1949   22.0999  -32.5841 H   0  0  0  0  0  0  0  0  0  0  0  0
   -5.2040   19.9000  -33.9650 H   0  0  0  0  0  0  0  0  0  0  0  0
  1  2  2  0
  2  3  1  0
  3  4  1  0
  4  5  1  0
  5  6  2  0
  6  7  1  0
  6  8  1  0
  8  9  2  0
  9 10  1  0
 10 11  1  0
 11 12  1  0
 12 13  2  0
 13 14  1  0
 14 15  1  0
 15 16  1  0
 16 17  1  0
 17 18  1  0
 18 19  1  0
 19 20  1  0
 20 21  1  0
 15 22  2  0
 22 23  1  0
 23 24  2  0
 24 25  1  0
 25 26  1  0
 25 27  2  0
 27 28  1  0
 28 29  2  0
 10 30  2  0
 30 31  1  0
 30  5  1  0
 29 13  1  0
 21 16  1  0
 29 23  1  0
  1 32  1  0
  1 33  1  0
  2 34  1  0
  3 35  1  0
  3 36  1  0
  7 37  1  0
  8 38  1  0
  9 39  1  0
 11 40  1  0
 11 41  1  0
 14 42  1  0
 17 43  1  0
 17 44  1  0
 18 45  1  0
 18 46  1  0
 20 47  1  0
 20 48  1  0
 21 49  1  0
 21 50  1  0
 24 51  1  0
 26 52  1  0
 26 53  1  0
 26 54  1  0
 27 55  1  0
 28 56  1  0
 31 57  1  0
M  END
>  <smiles>  (31) 
C=CCOc1c(O)ccc(CN=c2[nH]c(N3CCOCC3)nc3cc(C)ccc23)c1O

>  <score_type>  (31) 
oracle

>  <origin>  (31) 
adgpu

>  <m_score__min__energy>  (31) 
-9.1799999999999997

>  <m_primary>  (31) 
energy

$$$$
31:0
     RDKit          3D

 64 68  0  0  0  0  0  0  0  0999 V2000
   -3.8410   25.3110  -30.8230 O   0  0  0  0  0  0  0  0  0  0  0  0
   -5.0720   24.8920  -30.0710 S   0  0  0  0  0  0  0  0  0  0  0  0
   -6.0350   26.0450  -30.0670 O   0  0  0  0  0  0  0  0  0  0  0  0
   -4.6380   24.5230  -28.4300 N   0  0  0  0  0  0  0  0  0  0  0  0
   -3.5540   23.6650  -28.0570 C   0  0  0  0  0  0  0  0  0  0  0  0
   -3.7410   22.2770  -28.0820 C   0  0  0  0  0  0  0  0  0  0  0  0
   -2.6980   21.4190  -27.7150 C   0  0  0  0  0  0  0  0  0  0  0  0
   -1.4610   21.9430  -27.3300 C   0  0  0  0  0  0  0  0  0  0  0  0
   -1.2580   23.3290  -27.3250 C   0  0  0  0  0  0  0  0  0  0  0  0
    0.2950   24.0050  -26.8350 S   0  0  0  0  0  0  0  0  0  0  0  0
    1.3370   22.9230  -26.8790 O   0  0  0  0  0  0  0  0  0  0  0  0
    0.6900   25.0810  -27.8110 O   0  0  0  0  0  0  0  0  0  0  0  0
    0.2090   24.6820  -25.2260 N   0  0  0  0  0  0  0  0  0  0  0  0
    1.1000   25.8650  -25.1250 C   0  0  0  0  0  0  0  0  0  0  0  0
    0.7190   26.7610  -23.9400 C   0  0  0  0  0  0  0  0  0  0  0  0
   -0.7030   27.3250  -24.1090 C   0  0  0  0  0  0  0  0  0  0  0  0
   -1.5920   26.4340  -24.9940 C   0  0  0  0  0  0  0  0  0  0  0  0
   -1.2070   24.9520  -24.8500 C   0  0  0  0  0  0  0  0  0  0  0  0
   -2.2960   24.1830  -27.7140 C   0  0  0  0  0  0  0  0  0  0  0  0
   -5.8300   23.5270  -30.8860 C   0  0  0  0  0  0  0  0  0  0  0  0
   -5.0380   22.5150  -31.4480 C   0  0  0  0  0  0  0  0  0  0  0  0
   -5.6310   21.3840  -32.0150 C   0  0  0  0  0  0  0  0  0  0  0  0
   -7.0310   21.2520  -32.0350 C   0  0  0  0  0  0  0  0  0  0  0  0
   -7.6710   20.1160  -32.5740 C   0  0  0  0  0  0  0  0  0  0  0  0
   -6.9210   19.0030  -33.0790 N   0  0  0  0  0  0  0  0  0  0  0  0
   -6.1130   19.1640  -34.2910 C   0  0  0  0  0  0  0  0  0  0  0  0
   -4.7830   18.3890  -34.1910 C   0  0  0  0  0  0  0  0  0  0  0  0
   -4.8270   17.2060  -33.3060 N   0  0  0  0  0  0  0  0  0  0  0  0
   -6.1800   16.6570  -33.1530 C   0  0  0  0  0  0  0  0  0  0  0  0
   -7.0910   17.6830  -32.4700 C   0  0  0  0  0  0  0  0  0  0  0  0
   -9.0680   20.0480  -32.5730 C   0  0  0  0  0  0  0  0  0  0  0  0
   -9.8130   21.1000  -32.0380 C   0  0  0  0  0  0  0  0  0  0  0  0
   -9.1840   22.1820  -31.5090 N   0  0  0  0  0  0  0  0  0  0  0  0
   -7.8290   22.2870  -31.4910 C   0  0  0  0  0  0  0  0  0  0  0  0
   -7.2260   23.4120  -30.9170 C   0  0  0  0  0  0  0  0  0  0  0  0
   -4.7108   21.8600  -28.3911 H   0  0  0  0  0  0  0  0  0  0  0  0
   -2.8522   20.3300  -27.7296 H   0  0  0  0  0  0  0  0  0  0  0  0
   -0.6465   21.2669  -27.0308 H   0  0  0  0  0  0  0  0  0  0  0  0
    0.5760   23.9490  -24.5770 H   0  0  0  0  0  0  0  0  0  0  0  0
    2.1364   25.5208  -24.9932 H   0  0  0  0  0  0  0  0  0  0  0  0
    0.9952   26.4537  -26.0483 H   0  0  0  0  0  0  0  0  0  0  0  0
    0.7637   26.1700  -23.0133 H   0  0  0  0  0  0  0  0  0  0  0  0
    1.4264   27.6022  -23.8954 H   0  0  0  0  0  0  0  0  0  0  0  0
   -1.1682   27.4110  -23.1159 H   0  0  0  0  0  0  0  0  0  0  0  0
   -0.6164   28.3041  -24.6028 H   0  0  0  0  0  0  0  0  0  0  0  0
   -2.6423   26.5633  -24.6939 H   0  0  0  0  0  0  0  0  0  0  0  0
   -1.4507   26.7316  -26.0435 H   0  0  0  0  0  0  0  0  0  0  0  0
   -1.3556   24.6509  -23.8025 H   0  0  0  0  0  0  0  0  0  0  0  0
   -1.8462   24.3766  -25.5358 H   0  0  0  0  0  0  0  0  0  0  0  0
   -2.1244   25.2689  -27.7512 H   0  0  0  0  0  0  0  0  0  0  0  0
   -3.9423   22.6124  -31.4423 H   0  0  0  0  0  0  0  0  0  0  0  0
   -5.0001   20.5935  -32.4476 H   0  0  0  0  0  0  0  0  0  0  0  0
   -6.6826   18.7866  -35.1530 H   0  0  0  0  0  0  0  0  0  0  0  0
   -5.8815   20.2325  -34.4120 H   0  0  0  0  0  0  0  0  0  0  0  0
   -4.5049   18.0524  -35.2006 H   0  0  0  0  0  0  0  0  0  0  0  0
   -4.0503   19.0814  -33.7509 H   0  0  0  0  0  0  0  0  0  0  0  0
   -4.4700   17.4780  -32.3590 H   0  0  0  0  0  0  0  0  0  0  0  0
   -6.5875   16.4121  -34.1449 H   0  0  0  0  0  0  0  0  0  0  0  0
   -6.1321   15.7494  -32.5333 H   0  0  0  0  0  0  0  0  0  0  0  0
   -8.1388   17.3661  -32.5786 H   0  0  0  0  0  0  0  0  0  0  0  0
   -6.8227   17.7446  -31.4050 H   0  0  0  0  0  0  0  0  0  0  0  0
   -9.5779   19.1682  -32.9925 H   0  0  0  0  0  0  0  0  0  0  0  0
  -10.9120   21.0531  -32.0446 H   0  0  0  0  0  0  0  0  0  0  0  0
   -7.8508   24.2094  -30.4883 H   0  0  0  0  0  0  0  0  0  0  0  0
  1  2  2  0
  2  3  2  0
  2  4  1  0
  4  5  1  0
  5  6  2  0
  6  7  1  0
  7  8  2  0
  8  9  1  0
  9 10  1  0
 10 11  2  0
 10 12  2  0
 10 13  1  0
 13 14  1  0
 14 15  1  0
 15 16  1  0
 16 17  1  0
 17 18  1  0
  9 19  2  0
  2 20  1  0
 20 21  2  0
 21 22  1  0
 22 23  2  0
 23 24  1  0
 24 25  1  0
 25 26  1  0
 26 27  1  0
 27 28  1  0
 28 29  1  0
 29 30  1  0
 24 31  2  0
 31 32  1  0
 32 33  2  0
 33 34  1  0
 34 35  2  0
 19  5  1  0
 35 20  1  0
 18 13  1  0
 34 23  1  0
 30 25  1  0
  6 36  1  0
  7 37  1  0
  8 38  1  0
 13 39  1  0
 14 40  1  0
 14 41  1  0
 15 42  1  0
 15 43  1  0
 16 44  1  0
 16 45  1  0
 17 46  1  0
 17 47  1  0
 18 48  1  0
 18 49  1  0
 19 50  1  0
 21 51  1  0
 22 52  1  0
 26 53  1  0
 26 54  1  0
 27 55  1  0
 27 56  1  0
 28 57  1  0
 29 58  1  0
 29 59  1  0
 30 60  1  0
 30 61  1  0
 31 62  1  0
 32 63  1  0
 35 64  1  0
M  CHG  2   4  -1  13   1
M  END
>  <UniqueID>  (32) 
30

>  <SMILES>  (32) 
O=S(=O)([N-]c1cccc(S(=O)(=O)[NH+]2CCCCC2)c1)c1ccc2c(N3CCNCC3)ccnc2c1

>  <Energy>  (32) 
91.27049270988576

>  <Genealogy>  (32) 
O=S(=O)([N-]c1cccc(S(=O)(=O)[NH+]2CCCCC2)c1)c1ccc2c(N3CCNCC3)ccnc2c1 (protonated)
O=S(=O)([N-]c1cccc(S(=O)(=O)[NH+]2CCCCC2)c1)c1ccc2c(N3CCNCC3)ccnc2c1 (3D coordinates assigned)
O=S(=O)([N-]c1cccc(S(=O)(=O)[NH+]2CCCCC2)c1)c1ccc2c(N3CCNCC3)ccnc2c1 (nonaromatic ring conformer: 91.27049270988576 kcal/mol)

>  <smiles>  (32) 
O=S(=O)(Nc1cccc(S(=O)(=O)N2CCCCC2)c1)c1ccc2c(N3CCNCC3)ccnc2c1

>  <score_type>  (32) 
oracle

>  <origin>  (32) 
adgpu

>  <m_score__min__energy>  (32) 
-13.16

>  <m_primary>  (32) 
energy

$$$$
32:0
     RDKit          3D

 61 64  0  0  0  0  0  0  0  0999 V2000
   -8.3860   20.4420  -31.2810 C   0  0  0  0  0  0  0  0  0  0  0  0
   -7.4360   21.5980  -31.1090 C   0  0  0  0  0  0  0  0  0  0  0  0
   -7.7870   22.6140  -30.2070 C   0  0  0  0  0  0  0  0  0  0  0  0
   -6.9770   23.7360  -30.0400 C   0  0  0  0  0  0  0  0  0  0  0  0
   -5.8050   23.8820  -30.7920 C   0  0  0  0  0  0  0  0  0  0  0  0
   -4.9380   25.0710  -30.6190 C   0  0  0  0  0  0  0  0  0  0  0  0
   -5.4510   26.2210  -30.6470 O   0  0  0  0  0  0  0  0  0  0  0  0
   -3.5160   24.9560  -30.4740 N   0  0  0  0  0  0  0  0  0  0  0  0
   -2.8240   23.9070  -29.7800 C   0  0  0  0  0  0  0  0  0  0  0  0
   -2.4300   24.1160  -28.4540 C   0  0  0  0  0  0  0  0  0  0  0  0
   -1.7710   23.1070  -27.7460 C   0  0  0  0  0  0  0  0  0  0  0  0
   -1.5170   21.8690  -28.3520 C   0  0  0  0  0  0  0  0  0  0  0  0
   -0.7050   20.5990  -27.4370 S   0  0  0  0  0  0  0  0  0  0  0  0
   -1.3970   20.4440  -26.1110 O   0  0  0  0  0  0  0  0  0  0  0  0
    0.7300   20.9790  -27.1930 O   0  0  0  0  0  0  0  0  0  0  0  0
   -0.7710   19.0880  -28.3160 N   0  0  0  0  0  0  0  0  0  0  0  0
   -0.4900   17.9400  -27.4170 C   0  0  0  0  0  0  0  0  0  0  0  0
    0.9400   17.4010  -27.6010 C   0  0  0  0  0  0  0  0  0  0  0  0
    1.2070   16.9640  -28.9260 O   0  0  0  0  0  0  0  0  0  0  0  0
    0.5380   17.7220  -29.9260 C   0  0  0  0  0  0  0  0  0  0  0  0
    0.1420   19.1400  -29.4790 C   0  0  0  0  0  0  0  0  0  0  0  0
   -1.9300   21.6490  -29.6720 C   0  0  0  0  0  0  0  0  0  0  0  0
   -2.5850   22.6600  -30.3830 C   0  0  0  0  0  0  0  0  0  0  0  0
   -5.4450   22.8730  -31.6980 C   0  0  0  0  0  0  0  0  0  0  0  0
   -6.2360   21.7220  -31.8600 C   0  0  0  0  0  0  0  0  0  0  0  0
   -5.6900   20.5190  -33.0520 S   0  0  0  0  0  0  0  0  0  0  0  0
   -6.7560   20.2670  -34.0810 O   0  0  0  0  0  0  0  0  0  0  0  0
   -4.5100   21.0990  -33.7810 O   0  0  0  0  0  0  0  0  0  0  0  0
   -5.1960   18.9940  -32.3420 N   0  0  0  0  0  0  0  0  0  0  0  0
   -4.0990   18.3220  -33.0630 C   0  0  0  0  0  0  0  0  0  0  0  0
   -4.6180   17.3870  -34.1600 C   0  0  0  0  0  0  0  0  0  0  0  0
   -5.5250   16.4530  -33.6190 O   0  0  0  0  0  0  0  0  0  0  0  0
   -6.6710   17.1340  -33.1590 C   0  0  0  0  0  0  0  0  0  0  0  0
   -6.3210   18.0980  -32.0120 C   0  0  0  0  0  0  0  0  0  0  0  0
   -8.6925   20.0691  -30.2926 H   0  0  0  0  0  0  0  0  0  0  0  0
   -9.2736   20.7766  -31.8380 H   0  0  0  0  0  0  0  0  0  0  0  0
   -7.8858   19.6361  -31.8380 H   0  0  0  0  0  0  0  0  0  0  0  0
   -8.7149   22.5237  -29.6232 H   0  0  0  0  0  0  0  0  0  0  0  0
   -7.2602   24.5114  -29.3130 H   0  0  0  0  0  0  0  0  0  0  0  0
   -2.6399   25.0793  -27.9661 H   0  0  0  0  0  0  0  0  0  0  0  0
   -1.4504   23.2853  -26.7090 H   0  0  0  0  0  0  0  0  0  0  0  0
   -1.7490   18.9880  -28.6730 H   0  0  0  0  0  0  0  0  0  0  0  0
   -0.6151   18.2666  -26.3741 H   0  0  0  0  0  0  0  0  0  0  0  0
   -1.1929   17.1318  -27.6676 H   0  0  0  0  0  0  0  0  0  0  0  0
    1.6507   18.2012  -27.3469 H   0  0  0  0  0  0  0  0  0  0  0  0
    1.0477   16.5278  -26.9408 H   0  0  0  0  0  0  0  0  0  0  0  0
    1.2036   17.8077  -30.7976 H   0  0  0  0  0  0  0  0  0  0  0  0
   -0.3965   17.1892  -30.1560 H   0  0  0  0  0  0  0  0  0  0  0  0
    1.0489   19.6970  -29.2010 H   0  0  0  0  0  0  0  0  0  0  0  0
   -0.3747   19.6408  -30.3110 H   0  0  0  0  0  0  0  0  0  0  0  0
   -1.7386   20.6776  -30.1514 H   0  0  0  0  0  0  0  0  0  0  0  0
   -2.9140   22.4787  -31.4169 H   0  0  0  0  0  0  0  0  0  0  0  0
   -4.5265   22.9846  -32.2929 H   0  0  0  0  0  0  0  0  0  0  0  0
   -3.4564   19.0868  -33.5236 H   0  0  0  0  0  0  0  0  0  0  0  0
   -3.5388   17.7144  -32.3371 H   0  0  0  0  0  0  0  0  0  0  0  0
   -5.1274   17.9818  -34.9325 H   0  0  0  0  0  0  0  0  0  0  0  0
   -3.7676   16.8458  -34.6004 H   0  0  0  0  0  0  0  0  0  0  0  0
   -7.1054   17.7082  -33.9906 H   0  0  0  0  0  0  0  0  0  0  0  0
   -7.3906   16.3916  -32.7834 H   0  0  0  0  0  0  0  0  0  0  0  0
   -7.2053   18.7123  -31.7868 H   0  0  0  0  0  0  0  0  0  0  0  0
   -6.0170   17.4887  -31.1481 H   0  0  0  0  0  0  0  0  0  0  0  0
  1  2  1  0
  2  3  2  0
  3  4  1  0
  4  5  2  0
  5  6  1  0
  6  7  2  0
  6  8  1  0
  8  9  1  0
  9 10  2  0
 10 11  1  0
 11 12  2  0
 12 13  1  0
 13 14  2  0
 13 15  2  0
 13 16  1  0
 16 17  1  0
 17 18  1  0
 18 19  1  0
 19 20  1  0
 20 21  1  0
 12 22  1  0
 22 23  2  0
  5 24  1  0
 24 25  2  0
 25 26  1  0
 26 27  2  0
 26 28  2  0
 26 29  1  0
 29 30  1  0
 30 31  1  0
 31 32  1  0
 32 33  1  0
 33 34  1  0
 25  2  1  0
 34 29  1  0
 23  9  1  0
 21 16  1  0
  1 35  1  0
  1 36  1  0
  1 37  1  0
  3 38  1  0
  4 39  1  0
 10 40  1  0
 11 41  1  0
 16 42  1  0
 17 43  1  0
 17 44  1  0
 18 45  1  0
 18 46  1  0
 20 47  1  0
 20 48  1  0
 21 49  1  0
 21 50  1  0
 22 51  1  0
 23 52  1  0
 24 53  1  0
 30 54  1  0
 30 55  1  0
 31 56  1  0
 31 57  1  0
 33 58  1  0
 33 59  1  0
 34 60  1  0
 34 61  1  0
M  CHG  2   8  -1  16   1
M  END
>  <UniqueID>  (33) 
31

>  <SMILES>  (33) 
Cc1ccc(C(=O)[N-]c2ccc(S(=O)(=O)[NH+]3CCOCC3)cc2)cc1S(=O)(=O)N1CCOCC1

>  <Energy>  (33) 
90.47044036329493

>  <Genealogy>  (33) 
Cc1ccc(C(=O)[N-]c2ccc(S(=O)(=O)[NH+]3CCOCC3)cc2)cc1S(=O)(=O)N1CCOCC1 (protonated)
Cc1ccc(C(=O)[N-]c2ccc(S(=O)(=O)[NH+]3CCOCC3)cc2)cc1S(=O)(=O)N1CCOCC1 (3D coordinates assigned)
Cc1ccc(C(=O)[N-]c2ccc(S(=O)(=O)[NH+]3CCOCC3)cc2)cc1S(=O)(=O)N1CCOCC1 (nonaromatic ring conformer: 90.47044036329493 kcal/mol)

>  <smiles>  (33) 
Cc1ccc(C(=O)Nc2ccc(S(=O)(=O)N3CCOCC3)cc2)cc1S(=O)(=O)N1CCOCC1

>  <score_type>  (33) 
oracle

>  <origin>  (33) 
adgpu

>  <m_score__min__energy>  (33) 
-12.630000000000001

>  <m_primary>  (33) 
energy

$$$$
33:0
     RDKit          3D

 58 61  0  0  0  0  0  0  0  0999 V2000
   -5.9160   14.6760  -33.8560 C   0  0  0  0  0  0  0  0  0  0  0  0
   -6.8480   15.7280  -34.1140 O   0  0  0  0  0  0  0  0  0  0  0  0
   -6.7520   17.0250  -33.5840 C   0  0  0  0  0  0  0  0  0  0  0  0
   -7.4720   17.4220  -32.4390 C   0  0  0  0  0  0  0  0  0  0  0  0
   -7.3270   18.7140  -31.9290 C   0  0  0  0  0  0  0  0  0  0  0  0
   -6.4750   19.6400  -32.5570 C   0  0  0  0  0  0  0  0  0  0  0  0
   -6.3380   21.0160  -32.0210 C   0  0  0  0  0  0  0  0  0  0  0  0
   -7.3940   21.6140  -31.3130 C   0  0  0  0  0  0  0  0  0  0  0  0
   -7.2310   22.8770  -30.7370 C   0  0  0  0  0  0  0  0  0  0  0  0
   -6.0190   23.5660  -30.8750 C   0  0  0  0  0  0  0  0  0  0  0  0
   -5.7480   25.0480  -29.9570 S   0  0  0  0  0  0  0  0  0  0  0  0
   -5.2460   26.1440  -30.8630 O   0  0  0  0  0  0  0  0  0  0  0  0
   -7.0630   25.4720  -29.3540 O   0  0  0  0  0  0  0  0  0  0  0  0
   -4.5970   24.7740  -28.6760 N   0  0  0  0  0  0  0  0  0  0  0  0
   -3.5180   23.8320  -28.7550 C   0  0  0  0  0  0  0  0  0  0  0  0
   -3.7240   22.4700  -28.5140 C   0  0  0  0  0  0  0  0  0  0  0  0
   -2.6500   21.5710  -28.3760 C   0  0  0  0  0  0  0  0  0  0  0  0
   -1.3290   22.0490  -28.6340 C   0  0  0  0  0  0  0  0  0  0  0  0
   -1.1510   23.4060  -28.9800 C   0  0  0  0  0  0  0  0  0  0  0  0
   -2.2310   24.2870  -29.0350 C   0  0  0  0  0  0  0  0  0  0  0  0
   -2.0130   25.6250  -29.3400 O   0  0  0  0  0  0  0  0  0  0  0  0
   -0.0680   21.2260  -28.4370 C   0  0  0  0  0  0  0  0  0  0  0  0
   -0.3050   19.7930  -28.6240 N   0  0  0  0  0  0  0  0  0  0  0  0
    0.0950   19.1290  -29.8720 C   0  0  0  0  0  0  0  0  0  0  0  0
   -0.8670   19.0330  -27.5470 C   0  0  0  0  0  0  0  0  0  0  0  0
   -0.2740   18.0050  -27.1160 O   0  0  0  0  0  0  0  0  0  0  0  0
   -2.1900   19.4300  -26.9730 C   0  0  0  0  0  0  0  0  0  0  0  0
   -3.0310   20.1300  -28.0440 C   0  0  0  0  0  0  0  0  0  0  0  0
   -4.9790   22.9950  -31.6230 C   0  0  0  0  0  0  0  0  0  0  0  0
   -5.1360   21.7240  -32.1830 C   0  0  0  0  0  0  0  0  0  0  0  0
   -5.7660   19.2520  -33.7050 C   0  0  0  0  0  0  0  0  0  0  0  0
   -5.8960   17.9430  -34.2180 C   0  0  0  0  0  0  0  0  0  0  0  0
   -5.1810   17.5150  -35.3490 O   0  0  0  0  0  0  0  0  0  0  0  0
   -3.8640   16.9720  -35.3100 C   0  0  0  0  0  0  0  0  0  0  0  0
   -5.8010   14.5462  -32.7698 H   0  0  0  0  0  0  0  0  0  0  0  0
   -6.2870   13.7404  -34.2998 H   0  0  0  0  0  0  0  0  0  0  0  0
   -4.9425   14.9316  -34.2998 H   0  0  0  0  0  0  0  0  0  0  0  0
   -8.1509   16.7112  -31.9451 H   0  0  0  0  0  0  0  0  0  0  0  0
   -7.8842   19.0100  -31.0280 H   0  0  0  0  0  0  0  0  0  0  0  0
   -8.3535   21.0857  -31.2115 H   0  0  0  0  0  0  0  0  0  0  0  0
   -8.0582   23.3322  -30.1727 H   0  0  0  0  0  0  0  0  0  0  0  0
   -4.7533   22.0911  -28.4300 H   0  0  0  0  0  0  0  0  0  0  0  0
   -0.1410   23.7758  -29.2107 H   0  0  0  0  0  0  0  0  0  0  0  0
    0.6880   21.5574  -29.1641 H   0  0  0  0  0  0  0  0  0  0  0  0
    0.2753   21.3783  -27.4031 H   0  0  0  0  0  0  0  0  0  0  0  0
    0.6494   18.2087  -29.6363 H   0  0  0  0  0  0  0  0  0  0  0  0
   -0.8018   18.8771  -30.4571 H   0  0  0  0  0  0  0  0  0  0  0  0
    0.7369   19.8040  -30.4571 H   0  0  0  0  0  0  0  0  0  0  0  0
   -2.7198   18.5323  -26.6216 H   0  0  0  0  0  0  0  0  0  0  0  0
   -2.0285   20.1186  -26.1305 H   0  0  0  0  0  0  0  0  0  0  0  0
   -2.9504   19.5413  -28.9697 H   0  0  0  0  0  0  0  0  0  0  0  0
   -4.0466   20.1867  -27.6253 H   0  0  0  0  0  0  0  0  0  0  0  0
   -4.0392   23.5477  -31.7690 H   0  0  0  0  0  0  0  0  0  0  0  0
   -4.3112   21.2745  -32.7554 H   0  0  0  0  0  0  0  0  0  0  0  0
   -5.1047   19.9727  -34.2082 H   0  0  0  0  0  0  0  0  0  0  0  0
   -3.5514   16.8431  -34.2633 H   0  0  0  0  0  0  0  0  0  0  0  0
   -3.8544   15.9965  -35.8183 H   0  0  0  0  0  0  0  0  0  0  0  0
   -3.1697   17.6572  -35.8183 H   0  0  0  0  0  0  0  0  0  0  0  0
  1  2  1  0
  2  3  1  0
  3  4  2  0
  4  5  1  0
  5  6  2  0
  6  7  1  0
  7  8  2  0
  8  9  1  0
  9 10  2  0
 10 11  1  0
 11 12  2  0
 11 13  2  0
 11 14  1  0
 14 15  1  0
 15 16  2  0
 16 17  1  0
 17 18  2  0
 18 19  1  0
 19 20  2  0
 20 21  1  0
 18 22  1  0
 22 23  1  0
 23 24  1  0
 23 25  1  0
 25 26  2  0
 25 27  1  0
 27 28  1  0
 10 29  1  0
 29 30  2  0
  6 31  1  0
 31 32  2  0
 32 33  1  0
 33 34  1  0
 32  3  1  0
 30  7  1  0
 20 15  1  0
 28 17  1  0
  1 35  1  0
  1 36  1  0
  1 37  1  0
  4 38  1  0
  5 39  1  0
  8 40  1  0
  9 41  1  0
 16 42  1  0
 19 43  1  0
 22 44  1  0
 22 45  1  0
 24 46  1  0
 24 47  1  0
 24 48  1  0
 27 49  1  0
 27 50  1  0
 28 51  1  0
 28 52  1  0
 29 53  1  0
 30 54  1  0
 31 55  1  0
 34 56  1  0
 34 57  1  0
 34 58  1  0
M  CHG  2  14  -1  21  -1
M  END
>  <UniqueID>  (34) 
32

>  <SMILES>  (34) 
COc1ccc(-c2ccc(S(=O)(=O)[N-]c3cc4c(cc3[O-])CN(C)C(=O)CC4)cc2)cc1OC

>  <Energy>  (34) 
78.25832165632073

>  <Genealogy>  (34) 
COc1ccc(-c2ccc(S(=O)(=O)[N-]c3cc4c(cc3[O-])CN(C)C(=O)CC4)cc2)cc1OC (protonated)
COc1ccc(-c2ccc(S(=O)(=O)[N-]c3cc4c(cc3[O-])CN(C)C(=O)CC4)cc2)cc1OC (3D coordinates assigned)
COc1ccc(-c2ccc(S(=O)(=O)[N-]c3cc4c(cc3[O-])CN(C)C(=O)CC4)cc2)cc1OC (nonaromatic ring conformer: 78.25832165632073 kcal/mol)

>  <smiles>  (34) 
COc1ccc(-c2ccc(S(=O)(=O)Nc3cc4c(cc3O)CN(C)C(=O)CC4)cc2)cc1OC

>  <score_type>  (34) 
oracle

>  <origin>  (34) 
adgpu

>  <m_score__min__energy>  (34) 
-12.4

>  <m_primary>  (34) 
energy

$$$$
34:0
     RDKit          3D

 37 39  0  0  0  0  0  0  0  0999 V2000
   -1.8340   21.0120  -34.2250 N   0  0  0  0  0  0  0  0  0  0  0  0
   -2.2710   19.4520  -33.6240 S   0  0  0  0  0  0  0  0  0  0  0  0
   -1.9220   18.4050  -34.6460 O   0  0  0  0  0  0  0  0  0  0  0  0
   -1.5030   19.1680  -32.3640 O   0  0  0  0  0  0  0  0  0  0  0  0
   -4.0000   19.4090  -33.2940 C   0  0  0  0  0  0  0  0  0  0  0  0
   -4.6150   18.2100  -32.9100 C   0  0  0  0  0  0  0  0  0  0  0  0
   -5.9830   18.1810  -32.6280 C   0  0  0  0  0  0  0  0  0  0  0  0
   -6.7500   19.3530  -32.7190 C   0  0  0  0  0  0  0  0  0  0  0  0
   -8.2210   19.3220  -32.3940 C   0  0  0  0  0  0  0  0  0  0  0  0
   -8.4800   19.8070  -31.0370 N   0  0  0  0  0  0  0  0  0  0  0  0
   -8.9820   21.4760  -31.0340 S   0  0  0  0  0  0  0  0  0  0  0  0
   -9.8430   21.7280  -32.2380 O   0  0  0  0  0  0  0  0  0  0  0  0
   -9.8000   21.7470  -29.8010 O   0  0  0  0  0  0  0  0  0  0  0  0
   -7.5960   22.5610  -31.0940 C   0  0  0  0  0  0  0  0  0  0  0  0
   -7.3510   23.3140  -32.2670 C   0  0  0  0  0  0  0  0  0  0  0  0
   -6.2370   24.1690  -32.3500 C   0  0  0  0  0  0  0  0  0  0  0  0
   -5.3900   24.2490  -31.2460 C   0  0  0  0  0  0  0  0  0  0  0  0
   -4.2790   25.0000  -31.1360 N   0  0  0  0  0  0  0  0  0  0  0  0
   -3.8230   24.7200  -29.8930 C   0  0  0  0  0  0  0  0  0  0  0  0
   -2.6750   25.2930  -29.3630 O   0  0  0  0  0  0  0  0  0  0  0  0
   -4.6230   23.8090  -29.2180 C   0  0  0  0  0  0  0  0  0  0  0  0
   -5.6270   23.5200  -30.1090 C   0  0  0  0  0  0  0  0  0  0  0  0
   -6.7210   22.6670  -29.9930 C   0  0  0  0  0  0  0  0  0  0  0  0
   -6.1320   20.5520  -33.1060 C   0  0  0  0  0  0  0  0  0  0  0  0
   -4.7620   20.5800  -33.3870 C   0  0  0  0  0  0  0  0  0  0  0  0
   -1.5890   20.8940  -35.2330 H   0  0  0  0  0  0  0  0  0  0  0  0
   -2.6950   21.6040  -34.1920 H   0  0  0  0  0  0  0  0  0  0  0  0
   -4.0190   17.2889  -32.8303 H   0  0  0  0  0  0  0  0  0  0  0  0
   -6.4613   17.2353  -32.3333 H   0  0  0  0  0  0  0  0  0  0  0  0
   -8.7591   19.9599  -33.1106 H   0  0  0  0  0  0  0  0  0  0  0  0
   -8.5678   18.2802  -32.4607 H   0  0  0  0  0  0  0  0  0  0  0  0
   -8.0381   23.2299  -33.1218 H   0  0  0  0  0  0  0  0  0  0  0  0
   -6.0403   24.7567  -33.2588 H   0  0  0  0  0  0  0  0  0  0  0  0
   -4.4846   23.4100  -28.2023 H   0  0  0  0  0  0  0  0  0  0  0  0
   -6.8975   22.0934  -29.0711 H   0  0  0  0  0  0  0  0  0  0  0  0
   -6.7272   21.4734  -33.1887 H   0  0  0  0  0  0  0  0  0  0  0  0
   -4.2819   21.5247  -33.6819 H   0  0  0  0  0  0  0  0  0  0  0  0
  1  2  1  0
  2  3  2  0
  2  4  2  0
  2  5  1  0
  5  6  2  0
  6  7  1  0
  7  8  2  0
  8  9  1  0
  9 10  1  0
 10 11  1  0
 11 12  2  0
 11 13  2  0
 11 14  1  0
 14 15  2  0
 15 16  1  0
 16 17  2  0
 17 18  1  0
 18 19  1  0
 19 20  1  0
 19 21  2  0
 21 22  1  0
 22 23  2  0
  8 24  1  0
 24 25  2  0
 25  5  1  0
 23 14  1  0
 22 17  1  0
  1 26  1  0
  1 27  1  0
  6 28  1  0
  7 29  1  0
  9 30  1  0
  9 31  1  0
 15 32  1  0
 16 33  1  0
 21 34  1  0
 23 35  1  0
 24 36  1  0
 25 37  1  0
M  CHG  3  10  -1  18  -1  20  -1
M  END
>  <UniqueID>  (35) 
33

>  <SMILES>  (35) 
NS(=O)(=O)c1ccc(C[N-]S(=O)(=O)c2ccc3[n-]c([O-])cc3c2)cc1

>  <Energy>  (35) 
68.2842778974576

>  <Genealogy>  (35) 
NS(=O)(=O)c1ccc(C[N-]S(=O)(=O)c2ccc3[n-]c([O-])cc3c2)cc1 (protonated)
NS(=O)(=O)c1ccc(C[N-]S(=O)(=O)c2ccc3[n-]c([O-])cc3c2)cc1 (3D coordinates assigned)
NS(=O)(=O)c1ccc(C[N-]S(=O)(=O)c2ccc3[n-]c([O-])cc3c2)cc1 (optimized conformer: 68.2842778974576 kcal/mol)

>  <smiles>  (35) 
NS(=O)(=O)c1ccc(CNS(=O)(=O)c2ccc3[nH]c(O)cc3c2)cc1

>  <score_type>  (35) 
oracle

>  <origin>  (35) 
adgpu

>  <m_score__min__energy>  (35) 
-13.08

>  <m_primary>  (35) 
energy

$$$$
35:0
     RDKit          3D

 51 54  0  0  0  0  0  0  0  0999 V2000
   -4.4570   24.0170  -28.0480 C   0  0  0  0  0  0  0  0  0  0  0  0
   -4.5290   24.5970  -29.4670 C   0  0  1  0  0  0  0  0  0  0  0  0
   -3.1840   24.9210  -29.9540 N   0  0  0  0  0  0  0  0  0  0  0  0
   -1.9230   24.6000  -29.3470 C   0  0  0  0  0  0  0  0  0  0  0  0
   -1.1690   25.5390  -28.9800 O   0  0  0  0  0  0  0  0  0  0  0  0
   -1.4590   23.2170  -29.1790 C   0  0  0  0  0  0  0  0  0  0  0  0
   -1.1870   22.7220  -27.8960 C   0  0  0  0  0  0  0  0  0  0  0  0
   -0.7320   21.4110  -27.7320 C   0  0  0  0  0  0  0  0  0  0  0  0
   -0.5720   20.5680  -28.8420 C   0  0  0  0  0  0  0  0  0  0  0  0
   -0.0590   19.2390  -28.6480 N   0  0  0  0  0  0  0  0  0  0  0  0
    1.2750   18.9520  -28.1940 C   0  0  0  0  0  0  0  0  0  0  0  0
    2.1620   19.8470  -28.2310 O   0  0  0  0  0  0  0  0  0  0  0  0
    1.6200   17.6370  -27.7280 N   0  0  0  0  0  0  0  0  0  0  0  0
    2.9600   17.2750  -27.2620 C   0  0  0  0  0  0  0  0  0  0  0  0
    2.7960   15.8660  -26.8340 C   0  0  0  0  0  0  0  0  0  0  0  0
    3.7630   15.0130  -26.2990 C   0  0  0  0  0  0  0  0  0  0  0  0
    3.3890   13.7030  -25.9600 C   0  0  0  0  0  0  0  0  0  0  0  0
    2.0620   13.2700  -26.1570 C   0  0  0  0  0  0  0  0  0  0  0  0
    1.1050   14.1460  -26.6960 C   0  0  0  0  0  0  0  0  0  0  0  0
    1.5000   15.4430  -27.0270 C   0  0  0  0  0  0  0  0  0  0  0  0
    0.6720   16.5260  -27.6090 C   0  0  0  0  0  0  0  0  0  0  0  0
   -0.8610   21.0660  -30.1260 C   0  0  0  0  0  0  0  0  0  0  0  0
   -1.3200   22.3760  -30.2900 C   0  0  0  0  0  0  0  0  0  0  0  0
   -5.3070   23.7640  -30.4750 C   0  0  0  0  0  0  0  0  0  0  0  0
   -6.6960   23.9620  -30.5780 C   0  0  0  0  0  0  0  0  0  0  0  0
   -7.4520   23.2420  -31.5090 C   0  0  0  0  0  0  0  0  0  0  0  0
   -6.8330   22.3140  -32.3470 C   0  0  0  0  0  0  0  0  0  0  0  0
   -5.4560   22.1000  -32.2540 C   0  0  0  0  0  0  0  0  0  0  0  0
   -4.6930   22.8170  -31.3260 C   0  0  0  0  0  0  0  0  0  0  0  0
   -4.5579   24.8301  -27.3140 H   0  0  0  0  0  0  0  0  0  0  0  0
   -5.2720   23.2920  -27.9064 H   0  0  0  0  0  0  0  0  0  0  0  0
   -3.4894   23.5133  -27.9064 H   0  0  0  0  0  0  0  0  0  0  0  0
   -5.1216   25.5192  -29.3755 H   0  0  0  0  0  0  0  0  0  0  0  0
   -1.3320   23.3668  -27.0167 H   0  0  0  0  0  0  0  0  0  0  0  0
   -0.4974   21.0369  -26.7245 H   0  0  0  0  0  0  0  0  0  0  0  0
   -0.6700   18.4390  -28.9280 H   0  0  0  0  0  0  0  0  0  0  0  0
    3.6968   17.3579  -28.0746 H   0  0  0  0  0  0  0  0  0  0  0  0
    3.3315   17.9305  -26.4606 H   0  0  0  0  0  0  0  0  0  0  0  0
    4.7957   15.3598  -26.1464 H   0  0  0  0  0  0  0  0  0  0  0  0
    4.1342   13.0119  -25.5391 H   0  0  0  0  0  0  0  0  0  0  0  0
    1.7749   12.2428  -25.8878 H   0  0  0  0  0  0  0  0  0  0  0  0
    0.0673   13.8169  -26.8537 H   0  0  0  0  0  0  0  0  0  0  0  0
    0.2769   16.2360  -28.5938 H   0  0  0  0  0  0  0  0  0  0  0  0
   -0.2105   16.7721  -27.0002 H   0  0  0  0  0  0  0  0  0  0  0  0
   -0.7248   20.4203  -31.0061 H   0  0  0  0  0  0  0  0  0  0  0  0
   -1.5726   22.7472  -31.2942 H   0  0  0  0  0  0  0  0  0  0  0  0
   -7.1925   24.6903  -29.9199 H   0  0  0  0  0  0  0  0  0  0  0  0
   -8.5371   23.4078  -31.5806 H   0  0  0  0  0  0  0  0  0  0  0  0
   -7.4291   21.7513  -33.0805 H   0  0  0  0  0  0  0  0  0  0  0  0
   -4.9697   21.3653  -32.9126 H   0  0  0  0  0  0  0  0  0  0  0  0
   -3.6090   22.6428  -31.2582 H   0  0  0  0  0  0  0  0  0  0  0  0
  1  2  1  0
  2  3  1  0
  3  4  1  0
  4  5  2  0
  4  6  1  0
  6  7  2  0
  7  8  1  0
  8  9  2  0
  9 10  1  0
 10 11  1  0
 11 12  2  0
 11 13  1  0
 13 14  1  0
 14 15  1  0
 15 16  2  0
 16 17  1  0
 17 18  2  0
 18 19  1  0
 19 20  2  0
 20 21  1  0
  9 22  1  0
 22 23  2  0
  2 24  1  0
 24 25  2  0
 25 26  1  0
 26 27  2  0
 27 28  1  0
 28 29  2  0
 23  6  1  0
 29 24  1  0
 21 13  1  0
 20 15  1  0
  1 30  1  0
  1 31  1  0
  1 32  1  0
  2 33  1  1
  7 34  1  0
  8 35  1  0
 10 36  1  0
 14 37  1  0
 14 38  1  0
 16 39  1  0
 17 40  1  0
 18 41  1  0
 19 42  1  0
 21 43  1  0
 21 44  1  0
 22 45  1  0
 23 46  1  0
 25 47  1  0
 26 48  1  0
 27 49  1  0
 28 50  1  0
 29 51  1  0
M  CHG  1   3  -1
M  END
>  <UniqueID>  (36) 
34

>  <SMILES>  (36) 
C[C@@H]([N-]C(=O)c1ccc(NC(=O)N2Cc3ccccc3C2)cc1)c1ccccc1

>  <Energy>  (36) 
74.05835519936552

>  <Genealogy>  (36) 
CC([N-]C(=O)c1ccc(NC(=O)N2Cc3ccccc3C2)cc1)c1ccccc1 (protonated)
C[C@@H]([N-]C(=O)c1ccc(NC(=O)N2Cc3ccccc3C2)cc1)c1ccccc1 (chirality)
C[C@@H]([N-]C(=O)c1ccc(NC(=O)N2Cc3ccccc3C2)cc1)c1ccccc1 (3D coordinates assigned)
C[C@@H]([N-]C(=O)c1ccc(NC(=O)N2Cc3ccccc3C2)cc1)c1ccccc1 (nonaromatic ring conformer: 74.05835519936552 kcal/mol)

>  <smiles>  (36) 
CC(NC(=O)c1ccc(NC(=O)N2Cc3ccccc3C2)cc1)c1ccccc1

>  <score_type>  (36) 
oracle

>  <origin>  (36) 
adgpu

>  <m_score__min__energy>  (36) 
-10.24

>  <m_primary>  (36) 
energy

$$$$
36:0
     RDKit          3D

 70 74  0  0  0  0  0  0  0  0999 V2000
   -4.3320   15.9230  -34.1750 C   0  0  0  0  0  0  0  0  0  0  0  0
   -4.9160   17.2940  -34.1230 C   0  0  0  0  0  0  0  0  0  0  0  0
   -4.5380   18.2950  -33.2570 C   0  0  0  0  0  0  0  0  0  0  0  0
   -5.2800   19.3790  -33.5430 N   0  0  0  0  0  0  0  0  0  0  0  0
   -5.2730   20.6420  -32.8580 C   0  0  0  0  0  0  0  0  0  0  0  0
   -6.4580   21.0970  -32.2550 C   0  0  0  0  0  0  0  0  0  0  0  0
   -6.4770   22.3000  -31.5490 C   0  0  0  0  0  0  0  0  0  0  0  0
   -5.3140   23.0710  -31.4370 C   0  0  0  0  0  0  0  0  0  0  0  0
   -5.3690   24.6250  -30.6040 S   0  0  0  0  0  0  0  0  0  0  0  0
   -6.2330   24.5130  -29.3760 O   0  0  0  0  0  0  0  0  0  0  0  0
   -5.9610   25.6590  -31.5220 O   0  0  0  0  0  0  0  0  0  0  0  0
   -3.7720   25.1140  -30.1380 N   0  0  0  0  0  0  0  0  0  0  0  0
   -2.9130   24.2350  -29.4130 C   0  0  0  0  0  0  0  0  0  0  0  0
   -3.3340   22.9350  -29.0990 C   0  0  0  0  0  0  0  0  0  0  0  0
   -2.4560   22.0440  -28.4750 C   0  0  0  0  0  0  0  0  0  0  0  0
   -1.1460   22.4430  -28.1650 C   0  0  0  0  0  0  0  0  0  0  0  0
   -0.2040   21.4910  -27.5430 C   0  0  0  0  0  0  0  0  0  0  0  0
    0.1590   21.6750  -26.3480 O   0  0  0  0  0  0  0  0  0  0  0  0
    0.2950   20.3530  -28.2690 N   0  0  0  0  0  0  0  0  0  0  0  0
    1.6910   19.9290  -28.1100 C   0  0  0  0  0  0  0  0  0  0  0  0
    1.7910   18.4510  -27.6810 C   0  0  0  0  0  0  0  0  0  0  0  0
    0.5800   17.5770  -28.1290 C   0  0  0  0  0  0  0  0  0  0  0  0
   -0.3670   17.6110  -27.0830 O   0  0  0  0  0  0  0  0  0  0  0  0
    1.0050   16.0890  -28.3350 C   0  0  0  0  0  0  0  0  0  0  0  0
    1.4180   15.7240  -29.7450 C   0  0  0  0  0  0  0  0  0  0  0  0
    2.6570   16.1470  -30.2590 C   0  0  0  0  0  0  0  0  0  0  0  0
    3.0420   15.7930  -31.5570 C   0  0  0  0  0  0  0  0  0  0  0  0
    2.2050   15.0000  -32.3460 C   0  0  0  0  0  0  0  0  0  0  0  0
    0.9830   14.5550  -31.8370 C   0  0  0  0  0  0  0  0  0  0  0  0
    0.5890   14.9130  -30.5420 C   0  0  0  0  0  0  0  0  0  0  0  0
   -0.0540   18.1750  -29.4120 C   0  0  0  0  0  0  0  0  0  0  0  0
   -0.6080   19.5800  -29.1370 C   0  0  0  0  0  0  0  0  0  0  0  0
   -0.7450   23.7630  -28.4380 C   0  0  0  0  0  0  0  0  0  0  0  0
   -1.6260   24.6540  -29.0570 C   0  0  0  0  0  0  0  0  0  0  0  0
   -1.2150   25.9160  -29.3440 F   0  0  0  0  0  0  0  0  0  0  0  0
   -4.1330   22.6400  -32.0560 C   0  0  0  0  0  0  0  0  0  0  0  0
   -4.1040   21.4390  -32.7830 C   0  0  0  0  0  0  0  0  0  0  0  0
   -2.8290   21.0390  -33.4760 C   0  0  0  0  0  0  0  0  0  0  0  0
   -6.0950   19.0130  -34.5550 C   0  0  0  0  0  0  0  0  0  0  0  0
   -5.8910   17.7360  -34.9460 N   0  0  0  0  0  0  0  0  0  0  0  0
   -4.1742   15.5526  -33.1513 H   0  0  0  0  0  0  0  0  0  0  0  0
   -5.0218   15.2505  -34.7060 H   0  0  0  0  0  0  0  0  0  0  0  0
   -3.3692   15.9545  -34.7060 H   0  0  0  0  0  0  0  0  0  0  0  0
   -3.7691   18.2214  -32.4738 H   0  0  0  0  0  0  0  0  0  0  0  0
   -7.3778   20.4998  -32.3404 H   0  0  0  0  0  0  0  0  0  0  0  0
   -7.4098   22.6442  -31.0783 H   0  0  0  0  0  0  0  0  0  0  0  0
   -4.3576   22.6155  -29.3443 H   0  0  0  0  0  0  0  0  0  0  0  0
   -2.7926   21.0268  -28.2260 H   0  0  0  0  0  0  0  0  0  0  0  0
    2.2146   20.0585  -29.0687 H   0  0  0  0  0  0  0  0  0  0  0  0
    2.1505   20.5468  -27.3243 H   0  0  0  0  0  0  0  0  0  0  0  0
    2.7058   18.0249  -28.1188 H   0  0  0  0  0  0  0  0  0  0  0  0
    1.8023   18.4391  -26.5811 H   0  0  0  0  0  0  0  0  0  0  0  0
   -0.4100   16.7070  -26.6690 H   0  0  0  0  0  0  0  0  0  0  0  0
    1.8548   15.8827  -27.6677 H   0  0  0  0  0  0  0  0  0  0  0  0
    0.1135   15.4842  -28.1127 H   0  0  0  0  0  0  0  0  0  0  0  0
    3.3269   16.7593  -29.6374 H   0  0  0  0  0  0  0  0  0  0  0  0
    4.0061   16.1400  -31.9571 H   0  0  0  0  0  0  0  0  0  0  0  0
    2.5083   14.7264  -33.3673 H   0  0  0  0  0  0  0  0  0  0  0  0
    0.3288   13.9221  -32.4546 H   0  0  0  0  0  0  0  0  0  0  0  0
   -0.3738   14.5584  -30.1455 H   0  0  0  0  0  0  0  0  0  0  0  0
    0.7121   18.2362  -30.1990 H   0  0  0  0  0  0  0  0  0  0  0  0
   -0.8805   17.5250  -29.7350 H   0  0  0  0  0  0  0  0  0  0  0  0
   -0.7272   20.1111  -30.0929 H   0  0  0  0  0  0  0  0  0  0  0  0
   -1.5759   19.4763  -28.6247 H   0  0  0  0  0  0  0  0  0  0  0  0
    0.2668   24.0957  -28.1631 H   0  0  0  0  0  0  0  0  0  0  0  0
   -3.2203   23.2481  -31.9716 H   0  0  0  0  0  0  0  0  0  0  0  0
   -2.0629   20.7986  -32.7242 H   0  0  0  0  0  0  0  0  0  0  0  0
   -3.0151   20.1561  -34.1051 H   0  0  0  0  0  0  0  0  0  0  0  0
   -2.4774   21.8700  -34.1051 H   0  0  0  0  0  0  0  0  0  0  0  0
   -6.8418   19.6800  -35.0104 H   0  0  0  0  0  0  0  0  0  0  0  0
  1  2  1  0
  2  3  2  0
  3  4  1  0
  4  5  1  0
  5  6  2  0
  6  7  1  0
  7  8  2  0
  8  9  1  0
  9 10  2  0
  9 11  2  0
  9 12  1  0
 12 13  1  0
 13 14  2  0
 14 15  1  0
 15 16  2  0
 16 17  1  0
 17 18  2  0
 17 19  1  0
 19 20  1  0
 20 21  1  0
 21 22  1  0
 22 23  1  0
 22 24  1  0
 24 25  1  0
 25 26  2  0
 26 27  1  0
 27 28  2  0
 28 29  1  0
 29 30  2  0
 22 31  1  0
 31 32  1  0
 16 33  1  0
 33 34  2  0
 34 35  1  0
  8 36  1  0
 36 37  2  0
 37 38  1  0
  4 39  1  0
 39 40  2  0
 40  2  1  0
 37  5  1  0
 34 13  1  0
 32 19  1  0
 30 25  1  0
  1 41  1  0
  1 42  1  0
  1 43  1  0
  3 44  1  0
  6 45  1  0
  7 46  1  0
 14 47  1  0
 15 48  1  0
 20 49  1  0
 20 50  1  0
 21 51  1  0
 21 52  1  0
 23 53  1  0
 24 54  1  0
 24 55  1  0
 26 56  1  0
 27 57  1  0
 28 58  1  0
 29 59  1  0
 30 60  1  0
 31 61  1  0
 31 62  1  0
 32 63  1  0
 32 64  1  0
 33 65  1  0
 36 66  1  0
 38 67  1  0
 38 68  1  0
 38 69  1  0
 39 70  1  0
M  CHG  1  12  -1
M  END
>  <UniqueID>  (37) 
35

>  <SMILES>  (37) 
Cc1cn(-c2ccc(S(=O)(=O)[N-]c3ccc(C(=O)N4CCC(O)(Cc5ccccc5)CC4)cc3F)cc2C)cn1

>  <Energy>  (37) 
128.48979129530116

>  <Genealogy>  (37) 
Cc1cn(-c2ccc(S(=O)(=O)[N-]c3ccc(C(=O)N4CCC(O)(Cc5ccccc5)CC4)cc3F)cc2C)cn1 (protonated)
Cc1cn(-c2ccc(S(=O)(=O)[N-]c3ccc(C(=O)N4CCC(O)(Cc5ccccc5)CC4)cc3F)cc2C)cn1 (3D coordinates assigned)
Cc1cn(-c2ccc(S(=O)(=O)[N-]c3ccc(C(=O)N4CCC(O)(Cc5ccccc5)CC4)cc3F)cc2C)cn1 (nonaromatic ring conformer: 128.48979129530116 kcal/mol)

>  <smiles>  (37) 
Cc1cn(-c2ccc(S(=O)(=O)Nc3ccc(C(=O)N4CCC(O)(Cc5ccccc5)CC4)cc3F)cc2C)cn1

>  <score_type>  (37) 
oracle

>  <origin>  (37) 
adgpu

>  <m_score__min__energy>  (37) 
-12.359999999999999

>  <m_primary>  (37) 
energy

$$$$
37:0
     RDKit          3D

 68 71  0  0  0  0  0  0  0  0999 V2000
   -6.3820   17.2600  -31.6610 C   0  0  0  0  0  0  0  0  0  0  0  0
   -6.0850   18.2370  -32.7070 N   0  0  0  0  0  0  0  0  0  0  0  0
   -5.7830   19.6000  -32.3630 C   0  0  0  0  0  0  0  0  0  0  0  0
   -6.8200   20.4640  -31.9760 C   0  0  0  0  0  0  0  0  0  0  0  0
   -6.5710   21.8200  -31.7580 C   0  0  0  0  0  0  0  0  0  0  0  0
   -5.2810   22.3350  -31.9120 C   0  0  0  0  0  0  0  0  0  0  0  0
   -5.0920   23.7540  -31.8170 N   0  0  0  0  0  0  0  0  0  0  0  0
   -4.3630   24.4170  -30.7780 C   0  0  0  0  0  0  0  0  0  0  0  0
   -4.2240   25.6710  -30.8370 O   0  0  0  0  0  0  0  0  0  0  0  0
   -3.8250   23.6710  -29.6190 C   0  0  0  0  0  0  0  0  0  0  0  0
   -4.6880   22.9400  -28.7860 C   0  0  0  0  0  0  0  0  0  0  0  0
   -4.1740   22.1750  -27.7370 C   0  0  0  0  0  0  0  0  0  0  0  0
   -2.7960   22.1150  -27.5190 C   0  0  0  0  0  0  0  0  0  0  0  0
   -1.9220   22.8340  -28.3450 C   0  0  0  0  0  0  0  0  0  0  0  0
   -0.1790   22.7160  -28.1350 S   0  0  0  0  0  0  0  0  0  0  0  0
    0.5130   23.7960  -28.9220 O   0  0  0  0  0  0  0  0  0  0  0  0
    0.1370   22.9010  -26.6780 O   0  0  0  0  0  0  0  0  0  0  0  0
    0.3750   21.1490  -28.6670 N   0  0  0  0  0  0  0  0  0  0  0  0
   -0.0120   20.1180  -27.6750 C   0  0  0  0  0  0  0  0  0  0  0  0
    0.0590   18.6880  -28.2500 C   0  0  0  0  0  0  0  0  0  0  0  0
    0.9740   18.6290  -29.4750 C   0  0  0  0  0  0  0  0  0  0  0  0
    0.4710   19.5780  -30.5770 C   0  0  0  0  0  0  0  0  0  0  0  0
   -0.1800   20.8480  -29.9980 C   0  0  0  0  0  0  0  0  0  0  0  0
   -2.4400   23.6230  -29.3820 C   0  0  0  0  0  0  0  0  0  0  0  0
   -4.2300   21.4690  -32.2590 C   0  0  0  0  0  0  0  0  0  0  0  0
   -4.4750   20.1020  -32.4980 C   0  0  0  0  0  0  0  0  0  0  0  0
   -3.4570   19.2260  -32.9020 O   0  0  0  0  0  0  0  0  0  0  0  0
   -2.1130   19.2680  -32.4280 C   0  0  0  0  0  0  0  0  0  0  0  0
   -1.2140   19.7630  -33.5260 C   0  0  0  0  0  0  0  0  0  0  0  0
   -0.9340   21.1370  -33.6530 C   0  0  0  0  0  0  0  0  0  0  0  0
   -0.1090   21.5950  -34.6860 C   0  0  0  0  0  0  0  0  0  0  0  0
    0.4380   20.6890  -35.6000 C   0  0  0  0  0  0  0  0  0  0  0  0
    0.1670   19.3230  -35.4760 C   0  0  0  0  0  0  0  0  0  0  0  0
   -0.6550   18.8570  -34.4450 C   0  0  0  0  0  0  0  0  0  0  0  0
   -0.9110   17.5280  -34.3410 F   0  0  0  0  0  0  0  0  0  0  0  0
   -5.8630   17.6520  -34.3300 S   0  0  0  0  0  0  0  0  0  0  0  0
   -4.2210   17.0070  -34.5550 C   0  0  0  0  0  0  0  0  0  0  0  0
   -6.1120   18.7630  -35.3070 O   0  0  0  0  0  0  0  0  0  0  0  0
   -6.8350   16.5380  -34.5890 O   0  0  0  0  0  0  0  0  0  0  0  0
   -6.2407   17.7250  -30.6742 H   0  0  0  0  0  0  0  0  0  0  0  0
   -7.4237   16.9212  -31.7609 H   0  0  0  0  0  0  0  0  0  0  0  0
   -5.7051   16.3987  -31.7609 H   0  0  0  0  0  0  0  0  0  0  0  0
   -7.8379   20.0686  -31.8434 H   0  0  0  0  0  0  0  0  0  0  0  0
   -7.3947   22.4869  -31.4634 H   0  0  0  0  0  0  0  0  0  0  0  0
   -5.7736   22.9703  -28.9608 H   0  0  0  0  0  0  0  0  0  0  0  0
   -4.8574   21.6174  -27.0797 H   0  0  0  0  0  0  0  0  0  0  0  0
   -2.3961   21.5024  -26.6976 H   0  0  0  0  0  0  0  0  0  0  0  0
    0.6676   20.1855  -26.8127 H   0  0  0  0  0  0  0  0  0  0  0  0
   -1.0553   20.3095  -27.3839 H   0  0  0  0  0  0  0  0  0  0  0  0
    0.4497   18.0096  -27.4773 H   0  0  0  0  0  0  0  0  0  0  0  0
   -0.9531   18.3851  -28.5563 H   0  0  0  0  0  0  0  0  0  0  0  0
    1.9914   18.9254  -29.1801 H   0  0  0  0  0  0  0  0  0  0  0  0
    0.9739   17.6011  -29.8668 H   0  0  0  0  0  0  0  0  0  0  0  0
    1.3232   19.8724  -31.2072 H   0  0  0  0  0  0  0  0  0  0  0  0
   -0.2925   19.0431  -31.1609 H   0  0  0  0  0  0  0  0  0  0  0  0
    0.0155   21.6950  -30.6721 H   0  0  0  0  0  0  0  0  0  0  0  0
   -1.2633   20.6821  -29.9035 H   0  0  0  0  0  0  0  0  0  0  0  0
   -1.7574   24.2090  -30.0150 H   0  0  0  0  0  0  0  0  0  0  0  0
   -3.2062   21.8620  -32.3449 H   0  0  0  0  0  0  0  0  0  0  0  0
   -2.0486   19.9480  -31.5658 H   0  0  0  0  0  0  0  0  0  0  0  0
   -1.7989   18.2594  -32.1213 H   0  0  0  0  0  0  0  0  0  0  0  0
   -1.3653   21.8527  -32.9377 H   0  0  0  0  0  0  0  0  0  0  0  0
    0.1096   22.6690  -34.7793 H   0  0  0  0  0  0  0  0  0  0  0  0
    1.0810   21.0507  -36.4159 H   0  0  0  0  0  0  0  0  0  0  0  0
    0.6025   18.6113  -36.1929 H   0  0  0  0  0  0  0  0  0  0  0  0
   -3.7603   16.8260  -33.5726 H   0  0  0  0  0  0  0  0  0  0  0  0
   -4.2719   16.0620  -35.1158 H   0  0  0  0  0  0  0  0  0  0  0  0
   -3.6151   17.7340  -35.1158 H   0  0  0  0  0  0  0  0  0  0  0  0
  1  2  1  0
  2  3  1  0
  3  4  2  0
  4  5  1  0
  5  6  2  0
  6  7  1  0
  7  8  1  0
  8  9  2  0
  8 10  1  0
 10 11  2  0
 11 12  1  0
 12 13  2  0
 13 14  1  0
 14 15  1  0
 15 16  2  0
 15 17  2  0
 15 18  1  0
 18 19  1  0
 19 20  1  0
 20 21  1  0
 21 22  1  0
 22 23  1  0
 14 24  2  0
  6 25  1  0
 25 26  2  0
 26 27  1  0
 27 28  1  0
 28 29  1  0
 29 30  2  0
 30 31  1  0
 31 32  2  0
 32 33  1  0
 33 34  2  0
 34 35  1  0
  2 36  1  0
 36 37  1  0
 36 38  2  0
 36 39  2  0
 26  3  1  0
 34 29  1  0
 24 10  1  0
 23 18  1  0
  1 40  1  0
  1 41  1  0
  1 42  1  0
  4 43  1  0
  5 44  1  0
 11 45  1  0
 12 46  1  0
 13 47  1  0
 19 48  1  0
 19 49  1  0
 20 50  1  0
 20 51  1  0
 21 52  1  0
 21 53  1  0
 22 54  1  0
 22 55  1  0
 23 56  1  0
 23 57  1  0
 24 58  1  0
 25 59  1  0
 28 60  1  0
 28 61  1  0
 30 62  1  0
 31 63  1  0
 32 64  1  0
 33 65  1  0
 37 66  1  0
 37 67  1  0
 37 68  1  0
M  CHG  1   7  -1
M  END
>  <UniqueID>  (38) 
36

>  <SMILES>  (38) 
CN(c1ccc([N-]C(=O)c2cccc(S(=O)(=O)N3CCCCC3)c2)cc1OCc1ccccc1F)S(C)(=O)=O

>  <Energy>  (38) 
79.30705424367562

>  <Genealogy>  (38) 
CN(c1ccc([N-]C(=O)c2cccc(S(=O)(=O)N3CCCCC3)c2)cc1OCc1ccccc1F)S(C)(=O)=O (protonated)
CN(c1ccc([N-]C(=O)c2cccc(S(=O)(=O)N3CCCCC3)c2)cc1OCc1ccccc1F)S(C)(=O)=O (3D coordinates assigned)
CN(c1ccc([N-]C(=O)c2cccc(S(=O)(=O)N3CCCCC3)c2)cc1OCc1ccccc1F)S(C)(=O)=O (nonaromatic ring conformer: 79.30705424367562 kcal/mol)

>  <smiles>  (38) 
CN(c1ccc(NC(=O)c2cccc(S(=O)(=O)N3CCCCC3)c2)cc1OCc1ccccc1F)S(C)(=O)=O

>  <score_type>  (38) 
oracle

>  <origin>  (38) 
adgpu

>  <m_score__min__energy>  (38) 
-12.06

>  <m_primary>  (38) 
energy

$$$$
38:0
     RDKit          3D

 36 38  0  0  0  0  0  0  0  0999 V2000
   -1.5510   23.4540  -27.4060 O   0  0  0  0  0  0  0  0  0  0  0  0
   -1.0980   24.7760  -27.9600 S   0  0  0  0  0  0  0  0  0  0  0  0
    0.2590   24.6080  -28.5810 O   0  0  0  0  0  0  0  0  0  0  0  0
   -2.2210   25.2930  -29.1780 N   0  0  0  0  0  0  0  0  0  0  0  0
   -3.1230   24.4360  -29.8950 C   0  0  0  0  0  0  0  0  0  0  0  0
   -4.4610   24.8020  -30.1240 C   0  0  0  0  0  0  0  0  0  0  0  0
   -5.3240   23.9560  -30.8340 C   0  0  0  0  0  0  0  0  0  0  0  0
   -4.8390   22.7390  -31.3500 C   0  0  0  0  0  0  0  0  0  0  0  0
   -3.5120   22.3630  -31.1010 C   0  0  0  0  0  0  0  0  0  0  0  0
   -2.6540   23.2020  -30.3840 C   0  0  0  0  0  0  0  0  0  0  0  0
   -1.3380   22.7900  -30.1730 O   0  0  0  0  0  0  0  0  0  0  0  0
   -5.7600   21.7860  -32.0780 C   0  0  0  0  0  0  0  0  0  0  0  0
   -6.9420   22.4630  -32.6290 N   0  0  0  0  0  0  0  0  0  0  0  0
   -7.6200   23.2500  -31.5910 C   0  0  0  0  0  0  0  0  0  0  0  0
   -6.7340   24.4080  -31.1160 C   0  0  0  0  0  0  0  0  0  0  0  0
   -0.9950   25.9830  -26.6830 C   0  0  0  0  0  0  0  0  0  0  0  0
   -0.5600   27.2850  -26.9710 C   0  0  0  0  0  0  0  0  0  0  0  0
   -0.4650   28.2360  -25.9500 C   0  0  0  0  0  0  0  0  0  0  0  0
   -0.8080   27.8910  -24.6380 C   0  0  0  0  0  0  0  0  0  0  0  0
   -1.2460   26.5970  -24.3480 C   0  0  0  0  0  0  0  0  0  0  0  0
   -1.3420   25.6440  -25.3670 C   0  0  0  0  0  0  0  0  0  0  0  0
   -4.8348   25.7633  -29.7416 H   0  0  0  0  0  0  0  0  0  0  0  0
   -3.1415   21.3968  -31.4740 H   0  0  0  0  0  0  0  0  0  0  0  0
   -0.7730   23.1440  -29.4100 H   0  0  0  0  0  0  0  0  0  0  0  0
   -5.2037   21.3180  -32.9035 H   0  0  0  0  0  0  0  0  0  0  0  0
   -6.1096   21.0365  -31.3527 H   0  0  0  0  0  0  0  0  0  0  0  0
   -6.6390   23.1010  -33.4020 H   0  0  0  0  0  0  0  0  0  0  0  0
   -8.5557   23.6574  -32.0015 H   0  0  0  0  0  0  0  0  0  0  0  0
   -7.8302   22.5938  -30.7336 H   0  0  0  0  0  0  0  0  0  0  0  0
   -6.7101   25.1816  -31.8976 H   0  0  0  0  0  0  0  0  0  0  0  0
   -7.1595   24.8025  -30.1815 H   0  0  0  0  0  0  0  0  0  0  0  0
   -0.2929   27.5587  -28.0024 H   0  0  0  0  0  0  0  0  0  0  0  0
   -0.1206   29.2554  -26.1784 H   0  0  0  0  0  0  0  0  0  0  0  0
   -0.7326   28.6390  -23.8350 H   0  0  0  0  0  0  0  0  0  0  0  0
   -1.5159   26.3269  -23.3164 H   0  0  0  0  0  0  0  0  0  0  0  0
   -1.6903   24.6265  -25.1359 H   0  0  0  0  0  0  0  0  0  0  0  0
  1  2  2  0
  2  3  2  0
  2  4  1  0
  4  5  1  0
  5  6  2  0
  6  7  1  0
  7  8  2  0
  8  9  1  0
  9 10  2  0
 10 11  1  0
  8 12  1  0
 12 13  1  0
 13 14  1  0
 14 15  1  0
  2 16  1  0
 16 17  2  0
 17 18  1  0
 18 19  2  0
 19 20  1  0
 20 21  2  0
 10  5  1  0
 21 16  1  0
 15  7  1  0
  6 22  1  0
  9 23  1  0
 11 24  1  0
 12 25  1  0
 12 26  1  0
 13 27  1  0
 14 28  1  0
 14 29  1  0
 15 30  1  0
 15 31  1  0
 17 32  1  0
 18 33  1  0
 19 34  1  0
 20 35  1  0
 21 36  1  0
M  CHG  1   4  -1
M  END
>  <UniqueID>  (39) 
37

>  <SMILES>  (39) 
O=S(=O)([N-]c1cc2c(cc1O)CNCC2)c1ccccc1

>  <Energy>  (39) 
42.845050180068576

>  <Genealogy>  (39) 
O=S(=O)([N-]c1cc2c(cc1O)CNCC2)c1ccccc1 (protonated)
O=S(=O)([N-]c1cc2c(cc1O)CNCC2)c1ccccc1 (3D coordinates assigned)
O=S(=O)([N-]c1cc2c(cc1O)CNCC2)c1ccccc1 (nonaromatic ring conformer: 42.845050180068576 kcal/mol)

>  <smiles>  (39) 
O=S(=O)(Nc1cc2c(cc1O)CNCC2)c1ccccc1

>  <score_type>  (39) 
oracle

>  <origin>  (39) 
adgpu

>  <m_score__min__energy>  (39) 
-9.4900000000000002

>  <m_primary>  (39) 
energy

$$$$
39:0
     RDKit          3D

 85 90  0  0  1  0  0  0  0  0999 V2000
    1.2120   23.2500  -27.4990 C   0  0  0  0  0  0  0  0  0  0  0  0
    0.7450   24.5090  -27.9830 O   0  0  0  0  0  0  0  0  0  0  0  0
    0.3750   25.4960  -27.0840 C   0  0  0  0  0  0  0  0  0  0  0  0
    1.1590   25.7370  -25.9620 C   0  0  0  0  0  0  0  0  0  0  0  0
    0.8460   26.7050  -25.0280 C   0  0  0  0  0  0  0  0  0  0  0  0
    1.6310   26.9770  -23.8850 N   0  0  0  0  0  0  0  0  0  0  0  0
    1.2800   28.0130  -22.9030 C   0  0  0  0  0  0  0  0  0  0  0  0
    2.4130   29.0050  -22.8000 C   0  0  0  0  0  0  0  0  0  0  0  0
    3.5250   28.6590  -23.6470 N   0  0  0  0  0  0  0  0  0  0  0  0
    4.6380   29.5210  -23.2930 C   0  0  0  0  0  0  0  0  0  0  0  0
    3.9580   27.3030  -23.5770 C   0  0  0  0  0  0  0  0  0  0  0  0
    2.8750   26.2670  -23.5770 C   0  0  0  0  0  0  0  0  0  0  0  0
   -0.3080   27.4340  -25.2740 C   0  0  0  0  0  0  0  0  0  0  0  0
   -1.0920   27.1940  -26.3960 C   0  0  0  0  0  0  0  0  0  0  0  0
   -0.7700   26.2280  -27.3180 C   0  0  0  0  0  0  0  0  0  0  0  0
   -1.6070   26.0260  -28.4460 N   0  0  0  0  0  0  0  0  0  0  0  0
   -2.0990   24.9090  -28.8160 C   0  0  0  0  0  0  0  0  0  0  0  0
   -1.8200   23.8150  -28.0980 N   0  0  0  0  0  0  0  0  0  0  0  0
   -2.3030   22.6010  -28.4240 C   0  0  0  0  0  0  0  0  0  0  0  0
   -3.1030   22.5290  -29.5390 C   0  0  0  0  0  0  0  0  0  0  0  0
   -3.7440   20.9810  -29.9890 Cl  0  0  0  0  0  0  0  0  0  0  0  0
   -3.4120   23.6190  -30.2970 C   0  0  0  0  0  0  0  0  0  0  0  0
   -4.1450   23.6340  -31.3380 N   0  0  0  0  0  0  0  0  0  0  0  0
   -4.7440   22.4570  -31.8390 C   0  0  0  0  0  0  0  0  0  0  0  0
   -6.0380   22.1440  -31.3970 C   0  0  0  0  0  0  0  0  0  0  0  0
   -6.7140   21.0330  -31.8560 C   0  0  0  0  0  0  0  0  0  0  0  0
   -6.0770   20.2140  -32.7840 C   0  0  0  0  0  0  0  0  0  0  0  0
   -4.7920   20.4980  -33.2440 C   0  0  0  0  0  0  0  0  0  0  0  0
   -4.1090   21.6280  -32.7740 C   0  0  0  0  0  0  0  0  0  0  0  0
   -2.8320   21.9420  -33.2050 O   0  0  0  0  0  0  0  0  0  0  0  0
   -1.8280   20.9660  -33.4170 C   0  0  0  0  0  0  0  0  0  0  0  0
   -6.9540   19.1200  -33.1240 N   0  0  0  0  0  0  0  0  0  0  0  0
   -6.5690   17.8810  -33.7430 C   0  0  0  0  0  0  0  0  0  0  0  0
   -7.2140   16.8620  -33.3970 O   0  0  0  0  0  0  0  0  0  0  0  0
   -5.4730   17.9050  -34.7140 C   0  0  0  0  0  0  0  0  0  0  0  0
   -4.1860   17.7140  -34.1220 N   0  0  0  0  0  0  0  0  0  0  0  0
   -3.2130   17.0740  -34.9480 C   0  0  0  0  0  0  0  0  0  0  0  0
   -3.4200   15.5780  -35.0700 C   0  0  0  0  0  0  0  0  0  0  0  0
   -3.3630   14.9930  -33.6790 C   0  0  0  0  0  0  0  0  0  0  0  0
   -2.1310   15.3840  -33.1500 F   0  0  0  0  0  0  0  0  0  0  0  0
   -4.4950   15.6230  -32.8780 C   0  0  0  0  0  0  0  0  0  0  0  0
   -4.2830   17.1190  -32.8020 C   0  0  0  0  0  0  0  0  0  0  0  0
   -8.3070   19.5180  -32.7150 C   0  0  0  0  0  0  0  0  0  0  0  0
   -8.0660   20.4780  -31.5640 C   0  0  0  0  0  0  0  0  0  0  0  0
   -2.8860   24.8090  -29.9020 N   0  0  0  0  0  0  0  0  0  0  0  0
    1.2097   23.2563  -26.3990 H   0  0  0  0  0  0  0  0  0  0  0  0
    0.5510   22.4494  -27.8625 H   0  0  0  0  0  0  0  0  0  0  0  0
    2.2352   23.0741  -27.8625 H   0  0  0  0  0  0  0  0  0  0  0  0
    2.0655   25.1323  -25.8118 H   0  0  0  0  0  0  0  0  0  0  0  0
    0.3655   28.5316  -23.2266 H   0  0  0  0  0  0  0  0  0  0  0  0
    1.1065   27.5476  -21.9215 H   0  0  0  0  0  0  0  0  0  0  0  0
    2.0410   29.9977  -23.0935 H   0  0  0  0  0  0  0  0  0  0  0  0
    2.7698   28.9994  -21.7595 H   0  0  0  0  0  0  0  0  0  0  0  0
    4.7192   29.5839  -22.1978 H   0  0  0  0  0  0  0  0  0  0  0  0
    5.5691   29.1061  -23.7065 H   0  0  0  0  0  0  0  0  0  0  0  0
    4.4692   30.5263  -23.7065 H   0  0  0  0  0  0  0  0  0  0  0  0
    4.6069   27.1116  -24.4444 H   0  0  0  0  0  0  0  0  0  0  0  0
    4.4643   27.2030  -22.6056 H   0  0  0  0  0  0  0  0  0  0  0  0
    3.0778   25.5032  -24.3422 H   0  0  0  0  0  0  0  0  0  0  0  0
    2.8131   25.7515  -22.6072 H   0  0  0  0  0  0  0  0  0  0  0  0
   -0.6093   28.2195  -24.5653 H   0  0  0  0  0  0  0  0  0  0  0  0
   -1.9991   27.7966  -26.5507 H   0  0  0  0  0  0  0  0  0  0  0  0
   -1.2130   23.8760  -27.2570 H   0  0  0  0  0  0  0  0  0  0  0  0
   -2.0681   21.7084  -27.8256 H   0  0  0  0  0  0  0  0  0  0  0  0
   -6.5269   22.8028  -30.6642 H   0  0  0  0  0  0  0  0  0  0  0  0
   -4.3128   19.8333  -33.9779 H   0  0  0  0  0  0  0  0  0  0  0  0
   -1.4567   20.6051  -32.4465 H   0  0  0  0  0  0  0  0  0  0  0  0
   -2.2497   20.1234  -33.9846 H   0  0  0  0  0  0  0  0  0  0  0  0
   -0.9977   21.4114  -33.9846 H   0  0  0  0  0  0  0  0  0  0  0  0
   -5.6409   17.1043  -35.4493 H   0  0  0  0  0  0  0  0  0  0  0  0
   -5.4722   18.9022  -35.1783 H   0  0  0  0  0  0  0  0  0  0  0  0
   -3.2637   17.5165  -35.9538 H   0  0  0  0  0  0  0  0  0  0  0  0
   -2.2320   17.2293  -34.4753 H   0  0  0  0  0  0  0  0  0  0  0  0
   -4.4004   15.3710  -35.5238 H   0  0  0  0  0  0  0  0  0  0  0  0
   -2.6432   15.1318  -35.7083 H   0  0  0  0  0  0  0  0  0  0  0  0
   -3.4655   13.8979  -33.6623 H   0  0  0  0  0  0  0  0  0  0  0  0
   -5.4553   15.4128  -33.3715 H   0  0  0  0  0  0  0  0  0  0  0  0
   -4.5063   15.2009  -31.8623 H   0  0  0  0  0  0  0  0  0  0  0  0
   -5.1307   17.5727  -32.2677 H   0  0  0  0  0  0  0  0  0  0  0  0
   -3.3378   17.3053  -32.2710 H   0  0  0  0  0  0  0  0  0  0  0  0
   -8.8349   20.0189  -33.5399 H   0  0  0  0  0  0  0  0  0  0  0  0
   -8.9364   18.6615  -32.4317 H   0  0  0  0  0  0  0  0  0  0  0  0
   -8.8243   21.2748  -31.5504 H   0  0  0  0  0  0  0  0  0  0  0  0
   -8.1278   19.9923  -30.5790 H   0  0  0  0  0  0  0  0  0  0  0  0
   -3.0790   25.6750  -30.4280 H   0  0  0  0  0  0  0  0  0  0  0  0
  1  2  1  0
  2  3  1  0
  3  4  2  0
  4  5  1  0
  5  6  1  0
  6  7  1  0
  7  8  1  0
  8  9  1  0
  9 10  1  0
  9 11  1  0
 11 12  1  0
  5 13  2  0
 13 14  1  0
 14 15  2  0
 15 16  1  0
 16 17  2  0
 17 18  1  0
 18 19  1  0
 19 20  2  0
 20 21  1  0
 20 22  1  0
 22 23  2  0
 23 24  1  0
 24 25  2  0
 25 26  1  0
 26 27  2  0
 27 28  1  0
 28 29  2  0
 29 30  1  0
 30 31  1  0
 27 32  1  0
 32 33  1  0
 33 34  2  0
 33 35  1  0
 35 36  1  0
 36 37  1  0
 37 38  1  0
 38 39  1  0
 39 40  1  0
 39 41  1  0
 41 42  1  0
 32 43  1  0
 43 44  1  0
 22 45  1  0
 15  3  1  0
 45 17  1  0
 12  6  1  0
 29 24  1  0
 42 36  1  0
 44 26  1  0
  1 46  1  0
  1 47  1  0
  1 48  1  0
  4 49  1  0
  7 50  1  0
  7 51  1  0
  8 52  1  0
  8 53  1  0
 10 54  1  0
 10 55  1  0
 10 56  1  0
 11 57  1  0
 11 58  1  0
 12 59  1  0
 12 60  1  0
 13 61  1  0
 14 62  1  0
 18 63  1  0
 19 64  1  0
 25 65  1  0
 28 66  1  0
 31 67  1  0
 31 68  1  0
 31 69  1  0
 35 70  1  0
 35 71  1  0
 37 72  1  0
 37 73  1  0
 38 74  1  0
 38 75  1  0
 39 76  1  0
 41 77  1  0
 41 78  1  0
 42 79  1  0
 42 80  1  0
 43 81  1  0
 43 82  1  0
 44 83  1  0
 44 84  1  0
 45 85  1  0
M  END
>  <smiles>  (40) 
COc1cc(N2CCN(C)CC2)ccc1N=c1[nH]cc(Cl)c(=Nc2cc3c(cc2OC)N(C(=O)CN2CCC(F)CC2)CC3)[nH]1

>  <score_type>  (40) 
oracle

>  <origin>  (40) 
adgpu

>  <m_score__min__energy>  (40) 
-10.26

>  <m_primary>  (40) 
energy

$$$$
40:0
     RDKit          3D

 43 45  0  0  0  0  0  0  0  0999 V2000
   -2.2379   23.2427  -31.2463 H   0  0  0  0  0  0  0  0  0  0  0  0
   -3.0780   22.6820  -31.6820 C   0  0  0  0  0  0  0  0  0  0  0  0
   -2.8290   21.6280  -32.4970 N   0  0  0  0  0  0  0  0  0  0  0  0
   -3.8240   20.9060  -33.0710 C   0  0  0  0  0  0  0  0  0  0  0  0
   -3.5190   19.7890  -33.9230 N   0  0  0  0  0  0  0  0  0  0  0  0
   -2.7080   19.8790  -34.5780 H   0  0  0  0  0  0  0  0  0  0  0  0
   -4.3240   18.6010  -34.0110 C   0  0  0  0  0  0  0  0  0  0  0  0
   -5.7100   18.6710  -34.2420 C   0  0  0  0  0  0  0  0  0  0  0  0
   -6.1928   19.6498  -34.3793 H   0  0  0  0  0  0  0  0  0  0  0  0
   -6.4770   17.5040  -34.2980 C   0  0  0  0  0  0  0  0  0  0  0  0
   -7.5584   17.5658  -34.4899 H   0  0  0  0  0  0  0  0  0  0  0  0
   -5.8700   16.2560  -34.1100 C   0  0  0  0  0  0  0  0  0  0  0  0
   -6.6600   15.0530  -34.1670 C   0  0  0  0  0  0  0  0  0  0  0  0
   -7.2960   14.0870  -34.2120 N   0  0  0  0  0  0  0  0  0  0  0  0
   -4.4960   16.1810  -33.8560 C   0  0  0  0  0  0  0  0  0  0  0  0
   -4.0191   15.2020  -33.7009 H   0  0  0  0  0  0  0  0  0  0  0  0
   -3.7280   17.3480  -33.7990 C   0  0  0  0  0  0  0  0  0  0  0  0
   -2.6506   17.2838  -33.5868 H   0  0  0  0  0  0  0  0  0  0  0  0
   -5.1560   21.2280  -32.7940 C   0  0  0  0  0  0  0  0  0  0  0  0
   -5.9675   20.6411  -33.2491 H   0  0  0  0  0  0  0  0  0  0  0  0
   -5.4640   22.3040  -31.9320 C   0  0  0  0  0  0  0  0  0  0  0  0
   -6.6960   22.6250  -31.6380 N   0  0  0  0  0  0  0  0  0  0  0  0
   -7.9250   21.9620  -31.9740 C   0  0  0  0  0  0  0  0  0  0  0  0
   -7.9720   20.7120  -32.1360 O   0  0  0  0  0  0  0  0  0  0  0  0
   -9.1940   22.7440  -31.9700 C   0  0  0  0  0  0  0  0  0  0  0  0
   -9.5038   22.9349  -30.9319 H   0  0  0  0  0  0  0  0  0  0  0  0
   -9.0362   23.7017  -32.4876 H   0  0  0  0  0  0  0  0  0  0  0  0
   -9.9785   22.1725  -32.4876 H   0  0  0  0  0  0  0  0  0  0  0  0
   -4.3980   23.0670  -31.3870 C   0  0  0  0  0  0  0  0  0  0  0  0
   -4.6210   24.2470  -30.5000 C   0  0  0  0  0  0  0  0  0  0  0  0
   -5.7960   24.5750  -30.1840 O   0  0  0  0  0  0  0  0  0  0  0  0
   -3.5090   24.9640  -29.9460 N   0  0  0  0  0  0  0  0  0  0  0  0
   -2.6210   24.5170  -28.9110 C   0  0  0  0  0  0  0  0  0  0  0  0
   -2.8940   23.3710  -28.1410 C   0  0  0  0  0  0  0  0  0  0  0  0
   -3.7999   22.7798  -28.3407 H   0  0  0  0  0  0  0  0  0  0  0  0
   -2.0180   22.9810  -27.1230 C   0  0  0  0  0  0  0  0  0  0  0  0
   -2.2300   22.0779  -26.5318 H   0  0  0  0  0  0  0  0  0  0  0  0
   -0.8740   23.7370  -26.8560 C   0  0  0  0  0  0  0  0  0  0  0  0
   -0.1818   23.4246  -26.0602 H   0  0  0  0  0  0  0  0  0  0  0  0
   -0.6090   24.8890  -27.5990 C   0  0  0  0  0  0  0  0  0  0  0  0
    0.2883   25.4873  -27.3825 H   0  0  0  0  0  0  0  0  0  0  0  0
   -1.4820   25.2840  -28.6180 C   0  0  0  0  0  0  0  0  0  0  0  0
   -1.2120   26.4390  -29.3430 O   0  0  0  0  0  0  0  0  0  0  0  0
  1  2  1  0
  2  3  1  0
  3  4  1  0
  4  5  1  0
  5  6  1  0
  5  7  1  0
  7  8  2  0
  8  9  1  0
  8 10  1  0
 10 11  1  0
 10 12  2  0
 12 13  1  0
 13 14  3  0
 12 15  1  0
 15 16  1  0
 15 17  2  0
 17 18  1  0
  4 19  2  0
 19 20  1  0
 19 21  1  0
 21 22  2  0
 22 23  1  0
 23 24  2  0
 23 25  1  0
 25 26  1  0
 25 27  1  0
 25 28  1  0
 21 29  1  0
 29 30  1  0
 30 31  2  0
 30 32  1  0
 32 33  1  0
 33 34  2  0
 34 35  1  0
 34 36  1  0
 36 37  1  0
 36 38  2  0
 38 39  1  0
 38 40  1  0
 40 41  1  0
 40 42  2  0
 42 43  1  0
 29  2  2  0
 42 33  1  0
 17  7  1  0
M  CHG  3   3  -1  32  -1  43  -1
M  END
>  <UniqueID>  (41) 
38

>  <SMILES>  (41) 
CC(=O)/N=c1\cc(Nc2ccc(C#N)cc2)[n-]cc1C(=O)[N-]c1ccccc1[O-]

>  <Energy>  (41) 
62.981130325487534

>  <Genealogy>  (41) 
CC(=O)N=c1cc(Nc2ccc(C#N)cc2)[n-]cc1C(=O)[N-]c1ccccc1[O-] (protonated)
CC(=O)/N=c1\cc(Nc2ccc(C#N)cc2)[n-]cc1C(=O)[N-]c1ccccc1[O-] (cis-trans isomerization)
CC(=O)/N=c1\cc(Nc2ccc(C#N)cc2)[n-]cc1C(=O)[N-]c1ccccc1[O-] (3D coordinates assigned)
CC(=O)/N=c1\cc(Nc2ccc(C#N)cc2)[n-]cc1C(=O)[N-]c1ccccc1[O-] (optimized conformer: 62.981130325487534 kcal/mol)

>  <smiles>  (41) 
CC(=O)N=c1cc(Nc2ccc(C#N)cc2)[nH]cc1C(=O)Nc1ccccc1O

>  <score_type>  (41) 
oracle

>  <origin>  (41) 
adgpu

>  <m_score__min__energy>  (41) 
-14.789999999999999

>  <m_primary>  (41) 
energy

$$$$
41:0
     RDKit          3D

 53 56  0  0  0  0  0  0  0  0999 V2000
   -4.4690   16.9420  -32.8760 C   0  0  0  0  0  0  0  0  0  0  0  0
   -3.7850   18.5710  -33.0930 S   0  0  0  0  0  0  0  0  0  0  0  0
   -4.5150   19.2460  -34.2220 O   0  0  0  0  0  0  0  0  0  0  0  0
   -3.9850   19.3620  -31.8290 O   0  0  0  0  0  0  0  0  0  0  0  0
   -2.0800   18.4370  -33.4660 N   0  0  0  0  0  0  0  0  0  0  0  0
   -1.3330   17.7610  -32.3760 C   0  0  0  0  0  0  0  0  0  0  0  0
   -0.4510   18.7080  -31.5380 C   0  0  0  0  0  0  0  0  0  0  0  0
   -1.0770   20.0280  -31.4360 N   0  0  0  0  0  0  0  0  0  0  0  0
   -1.5140   20.5350  -30.1610 C   0  0  0  0  0  0  0  0  0  0  0  0
   -1.9080   19.7280  -29.2750 O   0  0  0  0  0  0  0  0  0  0  0  0
   -1.5250   21.9840  -29.8700 C   0  0  0  0  0  0  0  0  0  0  0  0
   -0.5300   22.5560  -29.0580 C   0  0  0  0  0  0  0  0  0  0  0  0
   -0.5610   23.9210  -28.7610 C   0  0  0  0  0  0  0  0  0  0  0  0
   -1.5850   24.7270  -29.2640 C   0  0  0  0  0  0  0  0  0  0  0  0
   -1.6100   26.0820  -28.9530 O   0  0  0  0  0  0  0  0  0  0  0  0
   -2.5800   24.1720  -30.0820 C   0  0  0  0  0  0  0  0  0  0  0  0
   -3.6460   24.9990  -30.5530 N   0  0  0  0  0  0  0  0  0  0  0  0
   -5.3210   24.6660  -30.2550 S   0  0  0  0  0  0  0  0  0  0  0  0
   -5.5360   24.5310  -28.7710 O   0  0  0  0  0  0  0  0  0  0  0  0
   -6.1470   25.8240  -30.7510 O   0  0  0  0  0  0  0  0  0  0  0  0
   -5.8610   23.1850  -31.0480 C   0  0  0  0  0  0  0  0  0  0  0  0
   -5.1140   22.6240  -32.0920 C   0  0  0  0  0  0  0  0  0  0  0  0
   -5.5630   21.5150  -32.7400 N   0  0  0  0  0  0  0  0  0  0  0  0
   -6.7330   20.9100  -32.3970 C   0  0  0  0  0  0  0  0  0  0  0  0
   -7.1760   19.7820  -33.0990 C   0  0  0  0  0  0  0  0  0  0  0  0
   -8.3700   19.1520  -32.7310 C   0  0  0  0  0  0  0  0  0  0  0  0
   -9.1250   19.6480  -31.6630 C   0  0  0  0  0  0  0  0  0  0  0  0
   -8.6980   20.7820  -30.9630 C   0  0  0  0  0  0  0  0  0  0  0  0
   -7.5030   21.4210  -31.3290 C   0  0  0  0  0  0  0  0  0  0  0  0
   -7.0580   22.5690  -30.6600 C   0  0  0  0  0  0  0  0  0  0  0  0
   -2.5610   22.7980  -30.3630 C   0  0  0  0  0  0  0  0  0  0  0  0
   -1.4530   20.7220  -32.6750 C   0  0  0  0  0  0  0  0  0  0  0  0
   -1.5040   19.7400  -33.8570 C   0  0  0  0  0  0  0  0  0  0  0  0
   -4.5609   16.7230  -31.8019 H   0  0  0  0  0  0  0  0  0  0  0  0
   -5.4625   16.8959  -33.3460 H   0  0  0  0  0  0  0  0  0  0  0  0
   -3.8063   16.2004  -33.3460 H   0  0  0  0  0  0  0  0  0  0  0  0
   -2.0602   17.2812  -31.7045 H   0  0  0  0  0  0  0  0  0  0  0  0
   -0.6568   17.0377  -32.8552 H   0  0  0  0  0  0  0  0  0  0  0  0
   -0.3237   18.2878  -30.5294 H   0  0  0  0  0  0  0  0  0  0  0  0
    0.5279   18.8131  -32.0286 H   0  0  0  0  0  0  0  0  0  0  0  0
    0.2766   21.9261  -28.6547 H   0  0  0  0  0  0  0  0  0  0  0  0
    0.2236   24.3624  -28.1289 H   0  0  0  0  0  0  0  0  0  0  0  0
   -4.1594   23.0825  -32.3894 H   0  0  0  0  0  0  0  0  0  0  0  0
   -6.5849   19.3910  -33.9403 H   0  0  0  0  0  0  0  0  0  0  0  0
   -8.7155   18.2652  -33.2825 H   0  0  0  0  0  0  0  0  0  0  0  0
  -10.0586   19.1444  -31.3721 H   0  0  0  0  0  0  0  0  0  0  0  0
   -9.2978   21.1719  -30.1274 H   0  0  0  0  0  0  0  0  0  0  0  0
   -7.6481   22.9863  -29.8307 H   0  0  0  0  0  0  0  0  0  0  0  0
   -3.3615   22.3540  -30.9729 H   0  0  0  0  0  0  0  0  0  0  0  0
   -2.4440   21.1812  -32.5446 H   0  0  0  0  0  0  0  0  0  0  0  0
   -0.6988   21.4934  -32.8898 H   0  0  0  0  0  0  0  0  0  0  0  0
   -2.1216   20.1766  -34.6557 H   0  0  0  0  0  0  0  0  0  0  0  0
   -0.4738   19.5677  -34.2018 H   0  0  0  0  0  0  0  0  0  0  0  0
  1  2  1  0
  2  3  2  0
  2  4  2  0
  2  5  1  0
  5  6  1  0
  6  7  1  0
  7  8  1  0
  8  9  1  0
  9 10  2  0
  9 11  1  0
 11 12  2  0
 12 13  1  0
 13 14  2  0
 14 15  1  0
 14 16  1  0
 16 17  1  0
 17 18  1  0
 18 19  2  0
 18 20  2  0
 18 21  1  0
 21 22  2  0
 22 23  1  0
 23 24  2  0
 24 25  1  0
 25 26  2  0
 26 27  1  0
 27 28  2  0
 28 29  1  0
 29 30  2  0
 16 31  2  0
  8 32  1  0
 32 33  1  0
 33  5  1  0
 31 11  1  0
 30 21  1  0
 29 24  1  0
  1 34  1  0
  1 35  1  0
  1 36  1  0
  6 37  1  0
  6 38  1  0
  7 39  1  0
  7 40  1  0
 12 41  1  0
 13 42  1  0
 22 43  1  0
 25 44  1  0
 26 45  1  0
 27 46  1  0
 28 47  1  0
 30 48  1  0
 31 49  1  0
 32 50  1  0
 32 51  1  0
 33 52  1  0
 33 53  1  0
M  CHG  2  15  -1  17  -1
M  END
>  <UniqueID>  (42) 
39

>  <SMILES>  (42) 
CS(=O)(=O)N1CCN(C(=O)c2ccc([O-])c([N-]S(=O)(=O)c3cnc4ccccc4c3)c2)CC1

>  <Energy>  (42) 
72.89671609904705

>  <Genealogy>  (42) 
CS(=O)(=O)N1CCN(C(=O)c2ccc([O-])c([N-]S(=O)(=O)c3cnc4ccccc4c3)c2)CC1 (protonated)
CS(=O)(=O)N1CCN(C(=O)c2ccc([O-])c([N-]S(=O)(=O)c3cnc4ccccc4c3)c2)CC1 (3D coordinates assigned)
CS(=O)(=O)N1CCN(C(=O)c2ccc([O-])c([N-]S(=O)(=O)c3cnc4ccccc4c3)c2)CC1 (nonaromatic ring conformer: 72.89671609904705 kcal/mol)

>  <smiles>  (42) 
CS(=O)(=O)N1CCN(C(=O)c2ccc(O)c(NS(=O)(=O)c3cnc4ccccc4c3)c2)CC1

>  <score_type>  (42) 
oracle

>  <origin>  (42) 
adgpu

>  <m_score__min__energy>  (42) 
-14.66

>  <m_primary>  (42) 
energy

$$$$
42:0
     RDKit          3D

 49 51  0  0  0  0  0  0  0  0999 V2000
   -5.2930   15.1660  -33.1000 C   0  0  0  0  0  0  0  0  0  0  0  0
   -5.1560   16.3900  -32.3850 O   0  0  0  0  0  0  0  0  0  0  0  0
   -5.9640   17.5220  -32.5810 C   0  0  0  0  0  0  0  0  0  0  0  0
   -7.0750   17.7960  -31.7570 C   0  0  0  0  0  0  0  0  0  0  0  0
   -7.8490   18.9380  -31.9710 C   0  0  0  0  0  0  0  0  0  0  0  0
   -7.5250   19.8220  -33.0000 C   0  0  0  0  0  0  0  0  0  0  0  0
   -6.4280   19.5640  -33.8240 C   0  0  0  0  0  0  0  0  0  0  0  0
   -5.6510   18.4100  -33.6330 C   0  0  0  0  0  0  0  0  0  0  0  0
   -4.4530   18.1630  -34.5120 C   0  0  0  0  0  0  0  0  0  0  0  0
   -3.3430   17.6600  -33.7010 N   0  0  0  0  0  0  0  0  0  0  0  0
   -2.2420   18.9550  -33.3390 S   0  0  0  0  0  0  0  0  0  0  0  0
   -1.5840   19.4280  -34.6060 O   0  0  0  0  0  0  0  0  0  0  0  0
   -1.1740   18.4510  -32.4100 O   0  0  0  0  0  0  0  0  0  0  0  0
   -3.0970   20.2880  -32.5660 C   0  0  0  0  0  0  0  0  0  0  0  0
   -3.7650   21.2490  -33.3360 C   0  0  0  0  0  0  0  0  0  0  0  0
   -4.4580   22.2900  -32.7140 C   0  0  0  0  0  0  0  0  0  0  0  0
   -4.4890   22.3840  -31.3150 C   0  0  0  0  0  0  0  0  0  0  0  0
   -5.3740   23.6950  -30.5290 S   0  0  0  0  0  0  0  0  0  0  0  0
   -4.9920   24.9990  -31.1730 O   0  0  0  0  0  0  0  0  0  0  0  0
   -4.9720   23.7570  -29.0820 O   0  0  0  0  0  0  0  0  0  0  0  0
   -7.1080   23.5000  -30.6280 N   0  0  0  0  0  0  0  0  0  0  0  0
   -7.5600   22.2640  -29.9930 C   0  0  0  0  0  0  0  0  0  0  0  0
   -8.8770   21.8960  -30.6590 C   0  0  0  0  0  0  0  0  0  0  0  0
   -8.8860   22.6530  -31.9790 C   0  0  0  0  0  0  0  0  0  0  0  0
   -7.5740   23.4220  -32.0110 C   0  0  0  0  0  0  0  0  0  0  0  0
   -3.8340   21.4120  -30.5460 C   0  0  0  0  0  0  0  0  0  0  0  0
   -3.1400   20.3700  -31.1690 C   0  0  0  0  0  0  0  0  0  0  0  0
   -5.3862   14.3334  -32.3872 H   0  0  0  0  0  0  0  0  0  0  0  0
   -6.1919   15.2095  -33.7325 H   0  0  0  0  0  0  0  0  0  0  0  0
   -4.4067   15.0097  -33.7325 H   0  0  0  0  0  0  0  0  0  0  0  0
   -7.3334   17.1057  -30.9405 H   0  0  0  0  0  0  0  0  0  0  0  0
   -8.7168   19.1412  -31.3263 H   0  0  0  0  0  0  0  0  0  0  0  0
   -8.1344   20.7233  -33.1624 H   0  0  0  0  0  0  0  0  0  0  0  0
   -6.1706   20.2692  -34.6280 H   0  0  0  0  0  0  0  0  0  0  0  0
   -4.7104   17.4198  -35.2810 H   0  0  0  0  0  0  0  0  0  0  0  0
   -4.1544   19.1051  -34.9950 H   0  0  0  0  0  0  0  0  0  0  0  0
   -3.7310   17.3270  -32.7890 H   0  0  0  0  0  0  0  0  0  0  0  0
   -3.7437   21.1835  -34.4338 H   0  0  0  0  0  0  0  0  0  0  0  0
   -4.9822   23.0400  -33.3245 H   0  0  0  0  0  0  0  0  0  0  0  0
   -6.8198   21.4648  -30.1462 H   0  0  0  0  0  0  0  0  0  0  0  0
   -7.6848   22.3955  -28.9080 H   0  0  0  0  0  0  0  0  0  0  0  0
   -8.9290   20.8117  -30.8365 H   0  0  0  0  0  0  0  0  0  0  0  0
   -9.7411   22.1579  -30.0307 H   0  0  0  0  0  0  0  0  0  0  0  0
   -8.9421   21.9518  -32.8247 H   0  0  0  0  0  0  0  0  0  0  0  0
   -9.7551   23.3222  -32.0615 H   0  0  0  0  0  0  0  0  0  0  0  0
   -6.8369   22.8913  -32.6315 H   0  0  0  0  0  0  0  0  0  0  0  0
   -7.7095   24.4243  -32.4434 H   0  0  0  0  0  0  0  0  0  0  0  0
   -3.8661   21.4692  -29.4480 H   0  0  0  0  0  0  0  0  0  0  0  0
   -2.6261   19.6122  -30.5594 H   0  0  0  0  0  0  0  0  0  0  0  0
  1  2  1  0
  2  3  1  0
  3  4  2  0
  4  5  1  0
  5  6  2  0
  6  7  1  0
  7  8  2  0
  8  9  1  0
  9 10  1  0
 10 11  1  0
 11 12  2  0
 11 13  2  0
 11 14  1  0
 14 15  2  0
 15 16  1  0
 16 17  2  0
 17 18  1  0
 18 19  2  0
 18 20  2  0
 18 21  1  0
 21 22  1  0
 22 23  1  0
 23 24  1  0
 24 25  1  0
 17 26  1  0
 26 27  2  0
  8  3  1  0
 27 14  1  0
 25 21  1  0
  1 28  1  0
  1 29  1  0
  1 30  1  0
  4 31  1  0
  5 32  1  0
  6 33  1  0
  7 34  1  0
  9 35  1  0
  9 36  1  0
 10 37  1  0
 15 38  1  0
 16 39  1  0
 22 40  1  0
 22 41  1  0
 23 42  1  0
 23 43  1  0
 24 44  1  0
 24 45  1  0
 25 46  1  0
 25 47  1  0
 26 48  1  0
 27 49  1  0
M  END
>  <UniqueID>  (43) 
40

>  <SMILES>  (43) 
COc1ccccc1CNS(=O)(=O)c1ccc(S(=O)(=O)N2CCCC2)cc1

>  <Energy>  (43) 
47.7410802205579

>  <Genealogy>  (43) 
COc1ccccc1CNS(=O)(=O)c1ccc(S(=O)(=O)N2CCCC2)cc1 (3D coordinates assigned)
COc1ccccc1CNS(=O)(=O)c1ccc(S(=O)(=O)N2CCCC2)cc1 (nonaromatic ring conformer: 47.7410802205579 kcal/mol)

>  <smiles>  (43) 
COc1ccccc1CNS(=O)(=O)c1ccc(S(=O)(=O)N2CCCC2)cc1

>  <score_type>  (43) 
oracle

>  <origin>  (43) 
adgpu

>  <m_score__min__energy>  (43) 
-10.91

>  <m_primary>  (43) 
energy

$$$$
43:0
     RDKit          3D

 71 75  0  0  0  0  0  0  0  0999 V2000
   -3.5860   24.4990  -31.0840 N   0  0  0  0  0  0  0  0  0  0  0  0
   -5.2380   24.2290  -30.6610 S   0  0  0  0  0  0  0  0  0  0  0  0
   -6.1110   25.2670  -31.3060 O   0  0  0  0  0  0  0  0  0  0  0  0
   -5.3710   24.3530  -29.1690 O   0  0  0  0  0  0  0  0  0  0  0  0
   -5.7640   22.6140  -31.1400 C   0  0  0  0  0  0  0  0  0  0  0  0
   -6.9530   22.5170  -31.7970 N   0  0  0  0  0  0  0  0  0  0  0  0
   -7.4720   21.3300  -32.2020 C   0  0  0  0  0  0  0  0  0  0  0  0
   -6.7990   20.1430  -31.9180 C   0  0  0  0  0  0  0  0  0  0  0  0
   -7.4470   18.5750  -32.4990 S   0  0  0  0  0  0  0  0  0  0  0  0
   -5.9900   18.2380  -33.4940 C   0  0  0  0  0  0  0  0  0  0  0  0
   -6.1220   18.0310  -34.8720 C   0  0  0  0  0  0  0  0  0  0  0  0
   -4.9910   17.7810  -35.6530 C   0  0  0  0  0  0  0  0  0  0  0  0
   -3.7260   17.7240  -35.0610 C   0  0  0  0  0  0  0  0  0  0  0  0
   -3.5870   17.8970  -33.6760 C   0  0  0  0  0  0  0  0  0  0  0  0
   -2.2640   17.7310  -33.0390 C   0  0  0  0  0  0  0  0  0  0  0  0
   -1.4030   18.6480  -33.1460 O   0  0  0  0  0  0  0  0  0  0  0  0
   -1.9330   16.5090  -32.3640 N   0  0  0  0  0  0  0  0  0  0  0  0
   -0.5960   16.2280  -31.9480 C   0  0  0  0  0  0  0  0  0  0  0  0
    0.0000   14.9970  -32.2570 C   0  0  0  0  0  0  0  0  0  0  0  0
    1.3210   14.7400  -31.8710 C   0  0  0  0  0  0  0  0  0  0  0  0
    2.0380   15.7040  -31.1530 C   0  0  0  0  0  0  0  0  0  0  0  0
    1.4370   16.9270  -30.8120 C   0  0  0  0  0  0  0  0  0  0  0  0
    2.3020   18.1040  -29.8190 S   0  0  0  0  0  0  0  0  0  0  0  0
    2.3890   19.4120  -30.5590 O   0  0  0  0  0  0  0  0  0  0  0  0
    3.7060   17.6120  -29.5750 O   0  0  0  0  0  0  0  0  0  0  0  0
    1.4940   18.3750  -28.2890 N   0  0  0  0  0  0  0  0  0  0  0  0
    1.6100   19.7880  -27.8470 C   0  0  0  0  0  0  0  0  0  0  0  0
    0.3330   20.6070  -28.1050 C   0  0  0  0  0  0  0  0  0  0  0  0
   -0.8980   19.9770  -27.4220 C   0  0  0  0  0  0  0  0  0  0  0  0
   -0.7490   18.4610  -27.2170 C   0  0  0  0  0  0  0  0  0  0  0  0
    0.1100   17.8520  -28.3310 C   0  0  0  0  0  0  0  0  0  0  0  0
    0.1270   17.1930  -31.2330 C   0  0  0  0  0  0  0  0  0  0  0  0
   -4.7250   18.1730  -32.8990 C   0  0  0  0  0  0  0  0  0  0  0  0
   -5.5930   20.1970  -31.2190 C   0  0  0  0  0  0  0  0  0  0  0  0
   -5.0260   21.4330  -30.8610 C   0  0  0  0  0  0  0  0  0  0  0  0
   -3.4040   21.4400  -30.1350 S   0  0  0  0  0  0  0  0  0  0  0  0
   -3.2820   20.3000  -29.1600 O   0  0  0  0  0  0  0  0  0  0  0  0
   -3.1450   22.7370  -29.4160 O   0  0  0  0  0  0  0  0  0  0  0  0
   -2.1760   21.2790  -31.3950 C   0  0  0  0  0  0  0  0  0  0  0  0
   -2.4900   21.5300  -32.7380 C   0  0  0  0  0  0  0  0  0  0  0  0
   -1.4870   21.4920  -33.7110 C   0  0  0  0  0  0  0  0  0  0  0  0
   -0.1690   21.2070  -33.3450 C   0  0  0  0  0  0  0  0  0  0  0  0
    0.1470   20.9450  -32.0090 C   0  0  0  0  0  0  0  0  0  0  0  0
   -0.8540   20.9730  -31.0360 C   0  0  0  0  0  0  0  0  0  0  0  0
   -3.4460   25.5310  -31.1160 H   0  0  0  0  0  0  0  0  0  0  0  0
   -8.4231   21.3049  -32.7540 H   0  0  0  0  0  0  0  0  0  0  0  0
   -7.1168   18.0652  -35.3402 H   0  0  0  0  0  0  0  0  0  0  0  0
   -5.0963   17.6285  -36.7373 H   0  0  0  0  0  0  0  0  0  0  0  0
   -2.8370   17.5430  -35.6830 H   0  0  0  0  0  0  0  0  0  0  0  0
   -2.5960   15.7010  -32.4490 H   0  0  0  0  0  0  0  0  0  0  0  0
   -0.5712   14.2321  -32.8035 H   0  0  0  0  0  0  0  0  0  0  0  0
    1.7946   13.7820  -32.1316 H   0  0  0  0  0  0  0  0  0  0  0  0
    3.0774   15.5029  -30.8542 H   0  0  0  0  0  0  0  0  0  0  0  0
    1.8224   19.8011  -26.7678 H   0  0  0  0  0  0  0  0  0  0  0  0
    2.4197   20.2494  -28.4313 H   0  0  0  0  0  0  0  0  0  0  0  0
    0.4768   21.6243  -27.7120 H   0  0  0  0  0  0  0  0  0  0  0  0
    0.1510   20.6248  -29.1897 H   0  0  0  0  0  0  0  0  0  0  0  0
   -1.0384   20.4531  -26.4404 H   0  0  0  0  0  0  0  0  0  0  0  0
   -1.7642   20.1407  -28.0800 H   0  0  0  0  0  0  0  0  0  0  0  0
   -0.2692   18.2723  -26.2453 H   0  0  0  0  0  0  0  0  0  0  0  0
   -1.7465   17.9981  -27.2428 H   0  0  0  0  0  0  0  0  0  0  0  0
    0.1358   16.7593  -28.2069 H   0  0  0  0  0  0  0  0  0  0  0  0
   -0.3345   18.1230  -29.3000 H   0  0  0  0  0  0  0  0  0  0  0  0
   -0.3360   18.1635  -31.0013 H   0  0  0  0  0  0  0  0  0  0  0  0
   -4.6208   18.3389  -31.8166 H   0  0  0  0  0  0  0  0  0  0  0  0
   -5.0803   19.2631  -30.9450 H   0  0  0  0  0  0  0  0  0  0  0  0
   -3.5269   21.7571  -33.0265 H   0  0  0  0  0  0  0  0  0  0  0  0
   -1.7354   21.6865  -34.7648 H   0  0  0  0  0  0  0  0  0  0  0  0
    0.6214   21.1888  -34.1098 H   0  0  0  0  0  0  0  0  0  0  0  0
    1.1846   20.7167  -31.7240 H   0  0  0  0  0  0  0  0  0  0  0  0
   -0.6063   20.7550  -29.9867 H   0  0  0  0  0  0  0  0  0  0  0  0
  1  2  1  0
  2  3  2  0
  2  4  2  0
  2  5  1  0
  5  6  2  0
  6  7  1  0
  7  8  2  0
  8  9  1  0
  9 10  1  0
 10 11  2  0
 11 12  1  0
 12 13  2  0
 13 14  1  0
 14 15  1  0
 15 16  2  0
 15 17  1  0
 17 18  1  0
 18 19  2  0
 19 20  1  0
 20 21  2  0
 21 22  1  0
 22 23  1  0
 23 24  2  0
 23 25  2  0
 23 26  1  0
 26 27  1  0
 27 28  1  0
 28 29  1  0
 29 30  1  0
 30 31  1  0
 22 32  2  0
 14 33  2  0
  8 34  1  0
 34 35  2  0
 35 36  1  0
 36 37  2  0
 36 38  2  0
 36 39  1  0
 39 40  2  0
 40 41  1  0
 41 42  2  0
 42 43  1  0
 43 44  2  0
 35  5  1  0
 44 39  1  0
 33 10  1  0
 32 18  1  0
 31 26  1  0
  1 45  1  0
  7 46  1  0
 11 47  1  0
 12 48  1  0
 13 49  1  0
 17 50  1  0
 19 51  1  0
 20 52  1  0
 21 53  1  0
 27 54  1  0
 27 55  1  0
 28 56  1  0
 28 57  1  0
 29 58  1  0
 29 59  1  0
 30 60  1  0
 30 61  1  0
 31 62  1  0
 31 63  1  0
 32 64  1  0
 33 65  1  0
 34 66  1  0
 40 67  1  0
 41 68  1  0
 42 69  1  0
 43 70  1  0
 44 71  1  0
M  CHG  1   1  -1
M  END
>  <UniqueID>  (44) 
41

>  <SMILES>  (44) 
[NH-]S(=O)(=O)c1ncc(Sc2cccc(C(=O)Nc3cccc(S(=O)(=O)N4CCCCC4)c3)c2)cc1S(=O)(=O)c1ccccc1

>  <Energy>  (44) 
91.18407248550719

>  <Genealogy>  (44) 
[NH-]S(=O)(=O)c1ncc(Sc2cccc(C(=O)Nc3cccc(S(=O)(=O)N4CCCCC4)c3)c2)cc1S(=O)(=O)c1ccccc1 (protonated)
[NH-]S(=O)(=O)c1ncc(Sc2cccc(C(=O)Nc3cccc(S(=O)(=O)N4CCCCC4)c3)c2)cc1S(=O)(=O)c1ccccc1 (3D coordinates assigned)
[NH-]S(=O)(=O)c1ncc(Sc2cccc(C(=O)Nc3cccc(S(=O)(=O)N4CCCCC4)c3)c2)cc1S(=O)(=O)c1ccccc1 (nonaromatic ring conformer: 91.18407248550719 kcal/mol)

>  <smiles>  (44) 
NS(=O)(=O)c1ncc(Sc2cccc(C(=O)Nc3cccc(S(=O)(=O)N4CCCCC4)c3)c2)cc1S(=O)(=O)c1ccccc1

>  <score_type>  (44) 
oracle

>  <origin>  (44) 
adgpu

>  <m_score__min__energy>  (44) 
-14.970000000000001

>  <m_primary>  (44) 
energy

$$$$
44:0
     RDKit          3D

 54 57  0  0  0  0  0  0  0  0999 V2000
   -5.5670   18.4810  -34.7270 C   0  0  0  0  0  0  0  0  0  0  0  0
   -4.4400   19.2910  -33.6100 S   0  0  0  0  0  0  0  0  0  0  0  0
   -4.5110   18.6180  -32.2680 O   0  0  0  0  0  0  0  0  0  0  0  0
   -4.8780   20.7210  -33.4590 O   0  0  0  0  0  0  0  0  0  0  0  0
   -2.8000   19.2620  -34.2270 N   0  0  0  0  0  0  0  0  0  0  0  0
   -2.1710   20.6060  -34.1690 C   0  0  0  0  0  0  0  0  0  0  0  0
   -1.0280   20.7270  -33.1450 C   0  0  0  0  0  0  0  0  0  0  0  0
   -1.3070   19.9060  -31.9610 N   0  0  0  0  0  0  0  0  0  0  0  0
   -0.9860   20.3790  -30.6390 C   0  0  0  0  0  0  0  0  0  0  0  0
   -0.4200   19.5990  -29.8250 O   0  0  0  0  0  0  0  0  0  0  0  0
   -1.3200   21.7550  -30.2030 C   0  0  0  0  0  0  0  0  0  0  0  0
   -0.5300   22.4010  -29.2360 C   0  0  0  0  0  0  0  0  0  0  0  0
   -0.8360   23.7020  -28.8270 C   0  0  0  0  0  0  0  0  0  0  0  0
   -1.9360   24.3700  -29.3730 C   0  0  0  0  0  0  0  0  0  0  0  0
   -2.2250   25.6670  -28.9620 O   0  0  0  0  0  0  0  0  0  0  0  0
   -2.7390   23.7300  -30.3260 C   0  0  0  0  0  0  0  0  0  0  0  0
   -3.8350   24.4140  -30.9320 N   0  0  0  0  0  0  0  0  0  0  0  0
   -5.3450   24.5580  -30.1020 S   0  0  0  0  0  0  0  0  0  0  0  0
   -5.9050   25.9400  -30.2860 O   0  0  0  0  0  0  0  0  0  0  0  0
   -5.1270   24.3160  -28.6350 O   0  0  0  0  0  0  0  0  0  0  0  0
   -6.4690   23.3600  -30.7380 C   0  0  0  0  0  0  0  0  0  0  0  0
   -7.6810   23.7740  -31.3130 C   0  0  0  0  0  0  0  0  0  0  0  0
   -8.5490   22.8380  -31.8810 C   0  0  0  0  0  0  0  0  0  0  0  0
   -8.2070   21.4820  -31.8790 C   0  0  0  0  0  0  0  0  0  0  0  0
   -7.0140   21.0600  -31.2790 C   0  0  0  0  0  0  0  0  0  0  0  0
   -6.1360   21.9970  -30.7260 C   0  0  0  0  0  0  0  0  0  0  0  0
   -6.7120   19.6950  -31.2520 O   0  0  0  0  0  0  0  0  0  0  0  0
   -7.6980   18.7130  -31.5820 C   0  0  0  0  0  0  0  0  0  0  0  0
   -8.5760   19.2070  -32.7400 C   0  0  0  0  0  0  0  0  0  0  0  0
   -9.0400   20.5330  -32.4790 O   0  0  0  0  0  0  0  0  0  0  0  0
   -2.4400   22.4230  -30.7260 C   0  0  0  0  0  0  0  0  0  0  0  0
   -1.6450   18.4920  -32.1490 C   0  0  0  0  0  0  0  0  0  0  0  0
   -1.9850   18.1930  -33.6170 C   0  0  0  0  0  0  0  0  0  0  0  0
   -6.3270   17.9348  -34.1490 H   0  0  0  0  0  0  0  0  0  0  0  0
   -6.0591   19.2334  -35.3609 H   0  0  0  0  0  0  0  0  0  0  0  0
   -5.0108   17.7747  -35.3609 H   0  0  0  0  0  0  0  0  0  0  0  0
   -1.7675   20.8407  -35.1650 H   0  0  0  0  0  0  0  0  0  0  0  0
   -2.9557   21.3075  -33.8494 H   0  0  0  0  0  0  0  0  0  0  0  0
   -0.0900   20.3868  -33.6081 H   0  0  0  0  0  0  0  0  0  0  0  0
   -0.9393   21.7786  -32.8348 H   0  0  0  0  0  0  0  0  0  0  0  0
    0.3341   21.8794  -28.7987 H   0  0  0  0  0  0  0  0  0  0  0  0
   -0.2096   24.2017  -28.0734 H   0  0  0  0  0  0  0  0  0  0  0  0
   -7.9487   24.8409  -31.3164 H   0  0  0  0  0  0  0  0  0  0  0  0
   -9.4986   23.1667  -32.3284 H   0  0  0  0  0  0  0  0  0  0  0  0
   -5.1855   21.6661  -30.2821 H   0  0  0  0  0  0  0  0  0  0  0  0
   -7.1960   17.7806  -31.8796 H   0  0  0  0  0  0  0  0  0  0  0  0
   -8.3337   18.5348  -30.7021 H   0  0  0  0  0  0  0  0  0  0  0  0
   -7.9867   19.2049  -33.6688 H   0  0  0  0  0  0  0  0  0  0  0  0
   -9.4431   18.5379  -32.8427 H   0  0  0  0  0  0  0  0  0  0  0  0
   -3.0870   21.9143  -31.4558 H   0  0  0  0  0  0  0  0  0  0  0  0
   -0.7864   17.8745  -31.8465 H   0  0  0  0  0  0  0  0  0  0  0  0
   -2.5260   18.2594  -31.5328 H   0  0  0  0  0  0  0  0  0  0  0  0
   -1.0482   18.0934  -34.1849 H   0  0  0  0  0  0  0  0  0  0  0  0
   -2.5704   17.2622  -33.6463 H   0  0  0  0  0  0  0  0  0  0  0  0
  1  2  1  0
  2  3  2  0
  2  4  2  0
  2  5  1  0
  5  6  1  0
  6  7  1  0
  7  8  1  0
  8  9  1  0
  9 10  2  0
  9 11  1  0
 11 12  2  0
 12 13  1  0
 13 14  2  0
 14 15  1  0
 14 16  1  0
 16 17  1  0
 17 18  1  0
 18 19  2  0
 18 20  2  0
 18 21  1  0
 21 22  2  0
 22 23  1  0
 23 24  2  0
 24 25  1  0
 25 26  2  0
 25 27  1  0
 27 28  1  0
 28 29  1  0
 29 30  1  0
 16 31  2  0
  8 32  1  0
 32 33  1  0
 33  5  1  0
 31 11  1  0
 26 21  1  0
 30 24  1  0
  1 34  1  0
  1 35  1  0
  1 36  1  0
  6 37  1  0
  6 38  1  0
  7 39  1  0
  7 40  1  0
 12 41  1  0
 13 42  1  0
 22 43  1  0
 23 44  1  0
 26 45  1  0
 28 46  1  0
 28 47  1  0
 29 48  1  0
 29 49  1  0
 31 50  1  0
 32 51  1  0
 32 52  1  0
 33 53  1  0
 33 54  1  0
M  CHG  2  15  -1  17  -1
M  END
>  <UniqueID>  (45) 
42

>  <SMILES>  (45) 
CS(=O)(=O)N1CCN(C(=O)c2ccc([O-])c([N-]S(=O)(=O)c3ccc4c(c3)OCCO4)c2)CC1

>  <Energy>  (45) 
69.01616938401871

>  <Genealogy>  (45) 
CS(=O)(=O)N1CCN(C(=O)c2ccc([O-])c([N-]S(=O)(=O)c3ccc4c(c3)OCCO4)c2)CC1 (protonated)
CS(=O)(=O)N1CCN(C(=O)c2ccc([O-])c([N-]S(=O)(=O)c3ccc4c(c3)OCCO4)c2)CC1 (3D coordinates assigned)
CS(=O)(=O)N1CCN(C(=O)c2ccc([O-])c([N-]S(=O)(=O)c3ccc4c(c3)OCCO4)c2)CC1 (nonaromatic ring conformer: 69.01616938401871 kcal/mol)

>  <smiles>  (45) 
CS(=O)(=O)N1CCN(C(=O)c2ccc(O)c(NS(=O)(=O)c3ccc4c(c3)OCCO4)c2)CC1

>  <score_type>  (45) 
oracle

>  <origin>  (45) 
adgpu

>  <m_score__min__energy>  (45) 
-13.44

>  <m_primary>  (45) 
energy

$$$$
45:0
     RDKit          3D

 60 63  0  0  0  0  0  0  0  0999 V2000
   -3.0200   13.9860  -36.7810 C   0  0  0  0  0  0  0  0  0  0  0  0
   -2.4010   14.2240  -35.4340 C   0  0  0  0  0  0  0  0  0  0  0  0
   -1.8340   13.2550  -34.8530 O   0  0  0  0  0  0  0  0  0  0  0  0
   -2.4300   15.5610  -34.7810 C   0  0  0  0  0  0  0  0  0  0  0  0
   -3.2430   15.8110  -33.6590 C   0  0  0  0  0  0  0  0  0  0  0  0
   -3.2450   17.0650  -33.0450 C   0  0  0  0  0  0  0  0  0  0  0  0
   -2.4350   18.1080  -33.5320 C   0  0  0  0  0  0  0  0  0  0  0  0
   -2.4170   19.3990  -32.8770 N   0  0  0  0  0  0  0  0  0  0  0  0
   -1.7180   19.5780  -31.6020 C   0  0  0  0  0  0  0  0  0  0  0  0
   -2.4960   20.5420  -30.7170 C   0  0  0  0  0  0  0  0  0  0  0  0
   -2.6840   21.8480  -31.3640 N   0  0  0  0  0  0  0  0  0  0  0  0
   -3.8560   22.8610  -30.5440 S   0  0  0  0  0  0  0  0  0  0  0  0
   -3.7140   22.5840  -29.0740 O   0  0  0  0  0  0  0  0  0  0  0  0
   -3.5250   24.3050  -30.7870 O   0  0  0  0  0  0  0  0  0  0  0  0
   -5.5590   22.5850  -30.9920 C   0  0  0  0  0  0  0  0  0  0  0  0
   -5.9830   21.3190  -31.4250 C   0  0  0  0  0  0  0  0  0  0  0  0
   -7.3330   21.0580  -31.6900 C   0  0  0  0  0  0  0  0  0  0  0  0
   -7.8550   19.4240  -32.1340 S   0  0  0  0  0  0  0  0  0  0  0  0
   -9.0060   19.5240  -33.0960 O   0  0  0  0  0  0  0  0  0  0  0  0
   -8.3420   18.7130  -30.9030 O   0  0  0  0  0  0  0  0  0  0  0  0
   -6.5720   18.4700  -32.8520 N   0  0  0  0  0  0  0  0  0  0  0  0
   -6.9720   17.0810  -33.1020 C   0  0  0  0  0  0  0  0  0  0  0  0
   -6.5310   16.7080  -34.5090 C   0  0  0  0  0  0  0  0  0  0  0  0
   -5.6490   17.8490  -34.9640 C   0  0  0  0  0  0  0  0  0  0  0  0
   -6.1170   19.0250  -34.1300 C   0  0  0  0  0  0  0  0  0  0  0  0
   -8.2670   22.0930  -31.5870 C   0  0  0  0  0  0  0  0  0  0  0  0
   -7.8580   23.3740  -31.2130 C   0  0  0  0  0  0  0  0  0  0  0  0
   -6.5120   23.6300  -30.9130 C   0  0  0  0  0  0  0  0  0  0  0  0
   -6.1380   24.9740  -30.5420 C   0  0  0  0  0  0  0  0  0  0  0  0
   -5.8390   26.0520  -30.2460 N   0  0  0  0  0  0  0  0  0  0  0  0
   -2.7210   21.9030  -32.8450 C   0  0  0  0  0  0  0  0  0  0  0  0
   -3.0160   20.5630  -33.5490 C   0  0  0  0  0  0  0  0  0  0  0  0
   -1.6390   17.8650  -34.6660 C   0  0  0  0  0  0  0  0  0  0  0  0
   -1.6340   16.6080  -35.2800 C   0  0  0  0  0  0  0  0  0  0  0  0
   -4.0396   13.5940  -36.6519 H   0  0  0  0  0  0  0  0  0  0  0  0
   -3.0593   14.9331  -37.3390 H   0  0  0  0  0  0  0  0  0  0  0  0
   -2.4146   13.2565  -37.3390 H   0  0  0  0  0  0  0  0  0  0  0  0
   -3.8835   15.0097  -33.2619 H   0  0  0  0  0  0  0  0  0  0  0  0
   -3.8877   17.2400  -32.1696 H   0  0  0  0  0  0  0  0  0  0  0  0
   -1.6304   18.6062  -31.0942 H   0  0  0  0  0  0  0  0  0  0  0  0
   -0.7156   19.9890  -31.7925 H   0  0  0  0  0  0  0  0  0  0  0  0
   -3.4828   20.1075  -30.4991 H   0  0  0  0  0  0  0  0  0  0  0  0
   -1.9195   20.6984  -29.7933 H   0  0  0  0  0  0  0  0  0  0  0  0
   -5.2415   20.5175  -31.5586 H   0  0  0  0  0  0  0  0  0  0  0  0
   -6.4881   16.4164  -32.3711 H   0  0  0  0  0  0  0  0  0  0  0  0
   -8.0625   16.9750  -33.0038 H   0  0  0  0  0  0  0  0  0  0  0  0
   -5.9660   15.7642  -34.4986 H   0  0  0  0  0  0  0  0  0  0  0  0
   -7.3880   16.5574  -35.1820 H   0  0  0  0  0  0  0  0  0  0  0  0
   -4.5896   17.6271  -34.7682 H   0  0  0  0  0  0  0  0  0  0  0  0
   -5.7237   18.0385  -36.0450 H   0  0  0  0  0  0  0  0  0  0  0  0
   -5.2878   19.7289  -33.9656 H   0  0  0  0  0  0  0  0  0  0  0  0
   -6.9234   19.5768  -34.6352 H   0  0  0  0  0  0  0  0  0  0  0  0
   -9.3280   21.8972  -31.8014 H   0  0  0  0  0  0  0  0  0  0  0  0
   -8.5958   24.1877  -31.1532 H   0  0  0  0  0  0  0  0  0  0  0  0
   -3.5019   22.6199  -33.1387 H   0  0  0  0  0  0  0  0  0  0  0  0
   -1.7097   22.1965  -33.1630 H   0  0  0  0  0  0  0  0  0  0  0  0
   -4.1063   20.4213  -33.5837 H   0  0  0  0  0  0  0  0  0  0  0  0
   -2.5689   20.6210  -34.5524 H   0  0  0  0  0  0  0  0  0  0  0  0
   -1.0135   18.6723  -35.0746 H   0  0  0  0  0  0  0  0  0  0  0  0
   -1.0006   16.4364  -36.1628 H   0  0  0  0  0  0  0  0  0  0  0  0
  1  2  1  0
  2  3  2  0
  2  4  1  0
  4  5  2  0
  5  6  1  0
  6  7  2  0
  7  8  1  0
  8  9  1  0
  9 10  1  0
 10 11  1  0
 11 12  1  0
 12 13  2  0
 12 14  2  0
 12 15  1  0
 15 16  2  0
 16 17  1  0
 17 18  1  0
 18 19  2  0
 18 20  2  0
 18 21  1  0
 21 22  1  0
 22 23  1  0
 23 24  1  0
 24 25  1  0
 17 26  2  0
 26 27  1  0
 27 28  2  0
 28 29  1  0
 29 30  3  0
 11 31  1  0
 31 32  1  0
  7 33  1  0
 33 34  2  0
 34  4  1  0
 32  8  1  0
 28 15  1  0
 25 21  1  0
  1 35  1  0
  1 36  1  0
  1 37  1  0
  5 38  1  0
  6 39  1  0
  9 40  1  0
  9 41  1  0
 10 42  1  0
 10 43  1  0
 16 44  1  0
 22 45  1  0
 22 46  1  0
 23 47  1  0
 23 48  1  0
 24 49  1  0
 24 50  1  0
 25 51  1  0
 25 52  1  0
 26 53  1  0
 27 54  1  0
 31 55  1  0
 31 56  1  0
 32 57  1  0
 32 58  1  0
 33 59  1  0
 34 60  1  0
M  END
>  <UniqueID>  (46) 
43

>  <SMILES>  (46) 
CC(=O)c1ccc(N2CCN(S(=O)(=O)c3cc(S(=O)(=O)N4CCCC4)ccc3C#N)CC2)cc1

>  <Energy>  (46) 
77.37574415331645

>  <Genealogy>  (46) 
CC(=O)c1ccc(N2CCN(S(=O)(=O)c3cc(S(=O)(=O)N4CCCC4)ccc3C#N)CC2)cc1 (3D coordinates assigned)
CC(=O)c1ccc(N2CCN(S(=O)(=O)c3cc(S(=O)(=O)N4CCCC4)ccc3C#N)CC2)cc1 (nonaromatic ring conformer: 77.37574415331645 kcal/mol)

>  <smiles>  (46) 
CC(=O)c1ccc(N2CCN(S(=O)(=O)c3cc(S(=O)(=O)N4CCCC4)ccc3C#N)CC2)cc1

>  <score_type>  (46) 
oracle

>  <origin>  (46) 
adgpu

>  <m_score__min__energy>  (46) 
-11.24

>  <m_primary>  (46) 
energy

$$$$
46:0
     RDKit          3D

 32 34  0  0  0  0  0  0  0  0999 V2000
   -2.7580   20.0580  -27.1610 C   0  0  0  0  0  0  0  0  0  0  0  0
   -2.3270   20.9610  -28.2730 C   0  0  0  0  0  0  0  0  0  0  0  0
   -1.5070   20.4770  -29.3000 C   0  0  0  0  0  0  0  0  0  0  0  0
   -1.1250   21.3370  -30.3310 C   0  0  0  0  0  0  0  0  0  0  0  0
   -1.5600   22.6640  -30.3290 C   0  0  0  0  0  0  0  0  0  0  0  0
   -2.3740   23.1180  -29.2810 C   0  0  0  0  0  0  0  0  0  0  0  0
   -2.8250   24.5480  -29.2260 C   0  0  0  0  0  0  0  0  0  0  0  0
   -3.4890   24.9400  -30.4720 N   0  0  0  0  0  0  0  0  0  0  0  0
   -5.1800   24.5220  -30.4500 S   0  0  0  0  0  0  0  0  0  0  0  0
   -5.9880   25.6620  -31.0060 O   0  0  0  0  0  0  0  0  0  0  0  0
   -5.6050   24.2900  -29.0280 O   0  0  0  0  0  0  0  0  0  0  0  0
   -5.4470   23.0310  -31.3640 C   0  0  0  0  0  0  0  0  0  0  0  0
   -4.3550   22.4350  -32.0170 C   0  0  0  0  0  0  0  0  0  0  0  0
   -4.5210   21.2750  -32.7890 C   0  0  0  0  0  0  0  0  0  0  0  0
   -5.7810   20.6810  -32.9190 C   0  0  0  0  0  0  0  0  0  0  0  0
   -6.8750   21.2540  -32.2730 C   0  0  0  0  0  0  0  0  0  0  0  0
   -8.1270   20.7380  -32.3590 N   0  0  0  0  0  0  0  0  0  0  0  0
   -8.9550   21.8250  -31.4290 S   0  0  0  0  0  0  0  0  0  0  0  0
   -7.8380   22.9270  -30.9090 N   0  0  0  0  0  0  0  0  0  0  0  0
   -6.7140   22.4340  -31.4890 C   0  0  0  0  0  0  0  0  0  0  0  0
   -2.7400   22.2570  -28.2920 N   0  0  0  0  0  0  0  0  0  0  0  0
   -2.5316   20.5324  -26.1947 H   0  0  0  0  0  0  0  0  0  0  0  0
   -3.8402   19.8757  -27.2353 H   0  0  0  0  0  0  0  0  0  0  0  0
   -2.2191   19.1019  -27.2353 H   0  0  0  0  0  0  0  0  0  0  0  0
   -1.1677   19.4307  -29.2942 H   0  0  0  0  0  0  0  0  0  0  0  0
   -0.4819   20.9698  -31.1443 H   0  0  0  0  0  0  0  0  0  0  0  0
   -1.2673   23.3460  -31.1409 H   0  0  0  0  0  0  0  0  0  0  0  0
   -3.5290   24.6708  -28.3897 H   0  0  0  0  0  0  0  0  0  0  0  0
   -1.9414   25.1878  -29.0847 H   0  0  0  0  0  0  0  0  0  0  0  0
   -3.3554   22.8842  -31.9217 H   0  0  0  0  0  0  0  0  0  0  0  0
   -3.6529   20.8289  -33.2964 H   0  0  0  0  0  0  0  0  0  0  0  0
   -5.9069   19.7714  -33.5246 H   0  0  0  0  0  0  0  0  0  0  0  0
  1  2  1  0
  2  3  2  0
  3  4  1  0
  4  5  2  0
  5  6  1  0
  6  7  1  0
  7  8  1  0
  8  9  1  0
  9 10  2  0
  9 11  2  0
  9 12  1  0
 12 13  2  0
 13 14  1  0
 14 15  2  0
 15 16  1  0
 16 17  2  0
 17 18  1  0
 18 19  1  0
 19 20  2  0
  6 21  2  0
 21  2  1  0
 20 12  1  0
 20 16  1  0
  1 22  1  0
  1 23  1  0
  1 24  1  0
  3 25  1  0
  4 26  1  0
  5 27  1  0
  7 28  1  0
  7 29  1  0
 13 30  1  0
 14 31  1  0
 15 32  1  0
M  CHG  1   8  -1
M  END
>  <UniqueID>  (47) 
44

>  <SMILES>  (47) 
Cc1cccc(C[N-]S(=O)(=O)c2cccc3nsnc23)n1

>  <Energy>  (47) 
66.7789028894054

>  <Genealogy>  (47) 
Cc1cccc(C[N-]S(=O)(=O)c2cccc3nsnc23)n1 (protonated)
Cc1cccc(C[N-]S(=O)(=O)c2cccc3nsnc23)n1 (3D coordinates assigned)
Cc1cccc(C[N-]S(=O)(=O)c2cccc3nsnc23)n1 (optimized conformer: 66.7789028894054 kcal/mol)

>  <smiles>  (47) 
Cc1cccc(CNS(=O)(=O)c2cccc3nsnc23)n1

>  <score_type>  (47) 
oracle

>  <origin>  (47) 
adgpu

>  <m_score__min__energy>  (47) 
-9.5399999999999991

>  <m_primary>  (47) 
energy

$$$$
47:0
     RDKit          3D

 35 36  0  0  0  0  0  0  0  0999 V2000
    0.0920   22.2490  -34.6230 N   0  0  0  0  0  0  0  0  0  0  0  0
    0.2720   20.6240  -34.0610 S   0  0  0  0  0  0  0  0  0  0  0  0
    1.7340   20.2760  -34.0480 O   0  0  0  0  0  0  0  0  0  0  0  0
   -0.4390   19.6850  -34.9940 O   0  0  0  0  0  0  0  0  0  0  0  0
   -0.4150   20.4790  -32.4390 C   0  0  0  0  0  0  0  0  0  0  0  0
    0.4120   20.1160  -31.3670 C   0  0  0  0  0  0  0  0  0  0  0  0
   -0.0980   20.0010  -30.0650 C   0  0  0  0  0  0  0  0  0  0  0  0
    1.0070   19.5830  -28.7480 S   0  0  0  0  0  0  0  0  0  0  0  0
    0.2560   18.4300  -27.7020 N   0  0  0  0  0  0  0  0  0  0  0  0
    2.2730   19.0070  -29.3170 O   0  0  0  0  0  0  0  0  0  0  0  0
    1.3490   20.8070  -27.9420 O   0  0  0  0  0  0  0  0  0  0  0  0
   -1.4700   20.2510  -29.8280 C   0  0  0  0  0  0  0  0  0  0  0  0
   -2.0260   20.1290  -28.5030 N   0  0  0  0  0  0  0  0  0  0  0  0
   -2.9530   21.1030  -27.9220 C   0  0  0  0  0  0  0  0  0  0  0  0
   -2.5260   22.5030  -28.2680 C   0  0  0  0  0  0  0  0  0  0  0  0
   -1.3670   23.0450  -27.6900 C   0  0  0  0  0  0  0  0  0  0  0  0
   -0.9400   24.3310  -28.0380 C   0  0  0  0  0  0  0  0  0  0  0  0
   -1.6650   25.0830  -28.9670 C   0  0  0  0  0  0  0  0  0  0  0  0
   -1.2350   26.3590  -29.3100 O   0  0  0  0  0  0  0  0  0  0  0  0
   -2.8210   24.5490  -29.5500 C   0  0  0  0  0  0  0  0  0  0  0  0
   -3.5440   25.2910  -30.4750 O   0  0  0  0  0  0  0  0  0  0  0  0
   -3.2500   23.2630  -29.2020 C   0  0  0  0  0  0  0  0  0  0  0  0
   -2.2950   20.6050  -30.9100 C   0  0  0  0  0  0  0  0  0  0  0  0
   -1.7790   20.7250  -32.2020 C   0  0  0  0  0  0  0  0  0  0  0  0
   -2.8800   21.1820  -33.4980 Cl  0  0  0  0  0  0  0  0  0  0  0  0
   -0.8900   22.3470  -34.9640 H   0  0  0  0  0  0  0  0  0  0  0  0
    1.4785   19.9180  -31.5496 H   0  0  0  0  0  0  0  0  0  0  0  0
    1.0030   18.0530  -27.0760 H   0  0  0  0  0  0  0  0  0  0  0  0
   -1.7070   19.3530  -27.8820 H   0  0  0  0  0  0  0  0  0  0  0  0
   -3.9632   20.9235  -28.3187 H   0  0  0  0  0  0  0  0  0  0  0  0
   -2.9513   20.9892  -26.8279 H   0  0  0  0  0  0  0  0  0  0  0  0
   -0.7921   22.4559  -26.9603 H   0  0  0  0  0  0  0  0  0  0  0  0
   -0.0324   24.7510  -27.5799 H   0  0  0  0  0  0  0  0  0  0  0  0
   -4.1579   22.8455  -29.6617 H   0  0  0  0  0  0  0  0  0  0  0  0
   -3.3651   20.7906  -30.7358 H   0  0  0  0  0  0  0  0  0  0  0  0
  1  2  1  0
  2  3  2  0
  2  4  2  0
  2  5  1  0
  5  6  2  0
  6  7  1  0
  7  8  1  0
  8  9  1  0
  8 10  2  0
  8 11  2  0
  7 12  2  0
 12 13  1  0
 13 14  1  0
 14 15  1  0
 15 16  2  0
 16 17  1  0
 17 18  2  0
 18 19  1  0
 18 20  1  0
 20 21  1  0
 20 22  2  0
 12 23  1  0
 23 24  2  0
 24 25  1  0
 24  5  1  0
 22 15  1  0
  1 26  1  0
  6 27  1  0
  9 28  1  0
 13 29  1  0
 14 30  1  0
 14 31  1  0
 16 32  1  0
 17 33  1  0
 22 34  1  0
 23 35  1  0
M  CHG  4   1  -1   9  -1  19  -1  21  -1
M  END
>  <UniqueID>  (48) 
45

>  <SMILES>  (48) 
[NH-]S(=O)(=O)c1cc(S([NH-])(=O)=O)c(NCc2ccc([O-])c([O-])c2)cc1Cl

>  <Energy>  (48) 
38.2761898069134

>  <Genealogy>  (48) 
[NH-]S(=O)(=O)c1cc(S([NH-])(=O)=O)c(NCc2ccc([O-])c([O-])c2)cc1Cl (protonated)
[NH-]S(=O)(=O)c1cc(S([NH-])(=O)=O)c(NCc2ccc([O-])c([O-])c2)cc1Cl (3D coordinates assigned)
[NH-]S(=O)(=O)c1cc(S([NH-])(=O)=O)c(NCc2ccc([O-])c([O-])c2)cc1Cl (optimized conformer: 38.2761898069134 kcal/mol)

>  <smiles>  (48) 
NS(=O)(=O)c1cc(S(N)(=O)=O)c(NCc2ccc(O)c(O)c2)cc1Cl

>  <score_type>  (48) 
oracle

>  <origin>  (48) 
adgpu

>  <m_score__min__energy>  (48) 
-13.08

>  <m_primary>  (48) 
energy

$$$$
