0:0
     RDKit          3D

 25 26  0  0  0  0  0  0  0  0999 V2000
   -7.1420   17.7250  -32.5750 C   0  0  0  0  0  0  0  0  0  0  0  0
   -7.6940   19.0570  -32.3170 N   0  0  0  0  0  0  0  0  0  0  0  0
   -9.0360   19.2700  -32.4530 C   0  0  0  0  0  0  0  0  0  0  0  0
   -9.5770   20.5380  -32.2410 C   0  0  0  0  0  0  0  0  0  0  0  0
   -8.7350   21.5960  -31.9050 C   0  0  0  0  0  0  0  0  0  0  0  0
   -7.3530   21.3850  -31.7870 C   0  0  0  0  0  0  0  0  0  0  0  0
   -6.4410   22.5060  -31.4420 C   0  0  0  0  0  0  0  0  0  0  0  0
   -5.0470   22.3140  -31.4200 C   0  0  0  0  0  0  0  0  0  0  0  0
   -4.1910   23.3710  -31.0950 C   0  0  0  0  0  0  0  0  0  0  0  0
   -4.7150   24.6290  -30.7880 C   0  0  0  0  0  0  0  0  0  0  0  0
   -3.8630   25.6780  -30.4650 O   0  0  0  0  0  0  0  0  0  0  0  0
   -6.0970   24.8320  -30.8070 C   0  0  0  0  0  0  0  0  0  0  0  0
   -6.9580   23.7780  -31.1320 C   0  0  0  0  0  0  0  0  0  0  0  0
   -6.8530   20.0900  -32.0070 C   0  0  0  0  0  0  0  0  0  0  0  0
   -6.9339   17.2228  -31.6187 H   0  0  0  0  0  0  0  0  0  0  0  0
   -7.8685   17.1321  -33.1500 H   0  0  0  0  0  0  0  0  0  0  0  0
   -6.2091   17.8198  -33.1500 H   0  0  0  0  0  0  0  0  0  0  0  0
   -9.6955   18.4350  -32.7319 H   0  0  0  0  0  0  0  0  0  0  0  0
  -10.6604   20.7015  -32.3384 H   0  0  0  0  0  0  0  0  0  0  0  0
   -9.1544   22.5981  -31.7320 H   0  0  0  0  0  0  0  0  0  0  0  0
   -4.6279   21.3257  -31.6601 H   0  0  0  0  0  0  0  0  0  0  0  0
   -3.1027   23.2115  -31.0811 H   0  0  0  0  0  0  0  0  0  0  0  0
   -6.5094   25.8229  -30.5659 H   0  0  0  0  0  0  0  0  0  0  0  0
   -8.0453   23.9444  -31.1453 H   0  0  0  0  0  0  0  0  0  0  0  0
   -5.7715   19.9050  -31.9289 H   0  0  0  0  0  0  0  0  0  0  0  0
  1  2  1  0
  2  3  2  0
  3  4  1  0
  4  5  2  0
  5  6  1  0
  6  7  1  0
  7  8  2  0
  8  9  1  0
  9 10  2  0
 10 11  1  0
 10 12  1  0
 12 13  2  0
  6 14  2  0
 14  2  1  0
 13  7  1  0
  1 15  1  0
  1 16  1  0
  1 17  1  0
  3 18  1  0
  4 19  1  0
  5 20  1  0
  8 21  1  0
  9 22  1  0
 12 23  1  0
 13 24  1  0
 14 25  1  0
M  CHG  2   2   1  11  -1
M  END
>  <UniqueID>  (1) 
1

>  <SMILES>  (1) 
C[n+]1cccc(-c2ccc([O-])cc2)c1

>  <Energy>  (1) 
31.221051822908976

>  <Genealogy>  (1) 
C[n+]1cccc(-c2ccc([O-])cc2)c1 (protonated)
C[n+]1cccc(-c2ccc([O-])cc2)c1 (3D coordinates assigned)
C[n+]1cccc(-c2ccc([O-])cc2)c1 (optimized conformer: 31.221051822908976 kcal/mol)

>  <smiles>  (1) 
C[n+]1cccc(-c2ccc(O)cc2)c1

>  <score_type>  (1) 
oracle

>  <origin>  (1) 
adgpu

>  <m_score__min__energy>  (1) 
-9.2599999999999998

>  <m_primary>  (1) 
energy

$$$$
1:0
     RDKit          3D

 40 42  0  0  0  0  0  0  0  0999 V2000
   -1.2360   26.4000  -28.9750 N   0  0  0  0  0  0  0  0  0  0  0  0
   -1.1560   25.5920  -27.4490 S   0  0  0  0  0  0  0  0  0  0  0  0
    0.0940   26.0030  -26.7200 O   0  0  0  0  0  0  0  0  0  0  0  0
   -2.3510   25.9850  -26.6240 O   0  0  0  0  0  0  0  0  0  0  0  0
   -1.1360   23.8460  -27.7150 C   0  0  0  0  0  0  0  0  0  0  0  0
   -0.5050   23.0050  -26.7830 C   0  0  0  0  0  0  0  0  0  0  0  0
   -0.4980   21.6220  -26.9700 C   0  0  0  0  0  0  0  0  0  0  0  0
   -1.1140   21.0660  -28.0920 C   0  0  0  0  0  0  0  0  0  0  0  0
   -1.7440   21.8900  -29.0270 C   0  0  0  0  0  0  0  0  0  0  0  0
   -1.7630   23.2880  -28.8480 C   0  0  0  0  0  0  0  0  0  0  0  0
   -2.4010   24.1560  -29.8000 N   0  0  0  0  0  0  0  0  0  0  0  0
   -4.1060   24.2410  -30.0960 S   0  0  0  0  0  0  0  0  0  0  0  0
   -4.8300   24.3630  -28.7870 O   0  0  0  0  0  0  0  0  0  0  0  0
   -4.4030   25.4540  -30.9320 O   0  0  0  0  0  0  0  0  0  0  0  0
   -4.6370   22.7700  -30.9050 C   0  0  0  0  0  0  0  0  0  0  0  0
   -3.7010   21.9710  -31.5710 C   0  0  0  0  0  0  0  0  0  0  0  0
   -4.1100   20.8080  -32.2290 C   0  0  0  0  0  0  0  0  0  0  0  0
   -5.4640   20.4260  -32.2290 C   0  0  0  0  0  0  0  0  0  0  0  0
   -5.8980   19.1870  -32.9210 C   0  0  0  0  0  0  0  0  0  0  0  0
   -5.3810   18.8570  -34.1890 C   0  0  0  0  0  0  0  0  0  0  0  0
   -5.7850   17.6830  -34.8350 C   0  0  0  0  0  0  0  0  0  0  0  0
   -6.7070   16.8290  -34.2250 C   0  0  0  0  0  0  0  0  0  0  0  0
   -7.2290   17.1480  -32.9700 C   0  0  0  0  0  0  0  0  0  0  0  0
   -6.8280   18.3190  -32.3200 C   0  0  0  0  0  0  0  0  0  0  0  0
   -6.3990   21.2330  -31.5540 C   0  0  0  0  0  0  0  0  0  0  0  0
   -5.9870   22.3970  -30.8970 C   0  0  0  0  0  0  0  0  0  0  0  0
   -1.4630   25.6770  -29.6930 H   0  0  0  0  0  0  0  0  0  0  0  0
   -0.0133   23.4395  -25.9001 H   0  0  0  0  0  0  0  0  0  0  0  0
   -0.0068   20.9700  -26.2327 H   0  0  0  0  0  0  0  0  0  0  0  0
   -1.1033   19.9761  -28.2402 H   0  0  0  0  0  0  0  0  0  0  0  0
   -2.2285   21.4453  -29.9088 H   0  0  0  0  0  0  0  0  0  0  0  0
   -2.6395   22.2594  -31.5766 H   0  0  0  0  0  0  0  0  0  0  0  0
   -3.3676   20.1864  -32.7510 H   0  0  0  0  0  0  0  0  0  0  0  0
   -4.6553   19.5261  -34.6745 H   0  0  0  0  0  0  0  0  0  0  0  0
   -5.3758   17.4323  -35.8248 H   0  0  0  0  0  0  0  0  0  0  0  0
   -7.0216   15.9056  -34.7332 H   0  0  0  0  0  0  0  0  0  0  0  0
   -7.9573   16.4766  -32.4917 H   0  0  0  0  0  0  0  0  0  0  0  0
   -7.2428   18.5636  -31.3310 H   0  0  0  0  0  0  0  0  0  0  0  0
   -7.4609   20.9463  -31.5431 H   0  0  0  0  0  0  0  0  0  0  0  0
   -6.7254   23.0213  -30.3725 H   0  0  0  0  0  0  0  0  0  0  0  0
  1  2  1  0
  2  3  2  0
  2  4  2  0
  2  5  1  0
  5  6  2  0
  6  7  1  0
  7  8  2  0
  8  9  1  0
  9 10  2  0
 10 11  1  0
 11 12  1  0
 12 13  2  0
 12 14  2  0
 12 15  1  0
 15 16  2  0
 16 17  1  0
 17 18  2  0
 18 19  1  0
 19 20  2  0
 20 21  1  0
 21 22  2  0
 22 23  1  0
 23 24  2  0
 18 25  1  0
 25 26  2  0
 10  5  1  0
 26 15  1  0
 24 19  1  0
  1 27  1  0
  6 28  1  0
  7 29  1  0
  8 30  1  0
  9 31  1  0
 16 32  1  0
 17 33  1  0
 20 34  1  0
 21 35  1  0
 22 36  1  0
 23 37  1  0
 24 38  1  0
 25 39  1  0
 26 40  1  0
M  CHG  2   1  -1  11  -1
M  END
>  <UniqueID>  (2) 
2

>  <SMILES>  (2) 
[NH-]S(=O)(=O)c1ccccc1[N-]S(=O)(=O)c1ccc(-c2ccccc2)cc1

>  <Energy>  (2) 
51.77328926692383

>  <Genealogy>  (2) 
[NH-]S(=O)(=O)c1ccccc1[N-]S(=O)(=O)c1ccc(-c2ccccc2)cc1 (protonated)
[NH-]S(=O)(=O)c1ccccc1[N-]S(=O)(=O)c1ccc(-c2ccccc2)cc1 (3D coordinates assigned)
[NH-]S(=O)(=O)c1ccccc1[N-]S(=O)(=O)c1ccc(-c2ccccc2)cc1 (optimized conformer: 51.77328926692383 kcal/mol)

>  <smiles>  (2) 
NS(=O)(=O)c1ccccc1NS(=O)(=O)c1ccc(-c2ccccc2)cc1

>  <score_type>  (2) 
oracle

>  <origin>  (2) 
adgpu

>  <m_score__min__energy>  (2) 
-13.130000000000001

>  <m_primary>  (2) 
energy

$$$$
2:0
     RDKit          3D

 32 34  0  0  0  0  0  0  0  0999 V2000
   -5.8200   24.8090  -29.5060 O   0  0  0  0  0  0  0  0  0  0  0  0
   -4.7960   24.3110  -30.4860 S   0  0  0  0  0  0  0  0  0  0  0  0
   -3.8640   25.4370  -30.8360 O   0  0  0  0  0  0  0  0  0  0  0  0
   -5.5990   23.7730  -31.9240 N   0  0  0  0  0  0  0  0  0  0  0  0
   -6.6360   22.7840  -31.9700 C   0  0  0  0  0  0  0  0  0  0  0  0
   -7.9750   23.0860  -31.6550 C   0  0  0  0  0  0  0  0  0  0  0  0
   -8.9540   22.0910  -31.7180 C   0  0  0  0  0  0  0  0  0  0  0  0
   -8.6110   20.7900  -32.0940 C   0  0  0  0  0  0  0  0  0  0  0  0
   -7.2830   20.4800  -32.4050 C   0  0  0  0  0  0  0  0  0  0  0  0
   -6.8510   18.8470  -32.8750 Cl  0  0  0  0  0  0  0  0  0  0  0  0
   -6.3000   21.4750  -32.3420 C   0  0  0  0  0  0  0  0  0  0  0  0
   -3.9110   22.9770  -29.7530 C   0  0  0  0  0  0  0  0  0  0  0  0
   -3.8160   22.8680  -28.3600 C   0  0  0  0  0  0  0  0  0  0  0  0
   -3.0990   21.8160  -27.7820 C   0  0  0  0  0  0  0  0  0  0  0  0
   -2.4660   20.8570  -28.5920 C   0  0  0  0  0  0  0  0  0  0  0  0
   -1.7010   19.7470  -27.9830 C   0  0  0  0  0  0  0  0  0  0  0  0
   -0.4450   19.4090  -28.3500 N   0  0  0  0  0  0  0  0  0  0  0  0
   -0.1790   18.3710  -27.5340 C   0  0  0  0  0  0  0  0  0  0  0  0
   -1.2160   18.1000  -26.7260 N   0  0  0  0  0  0  0  0  0  0  0  0
   -2.1800   18.9590  -26.9970 N   0  0  0  0  0  0  0  0  0  0  0  0
   -2.5700   20.9680  -29.9900 C   0  0  0  0  0  0  0  0  0  0  0  0
   -3.2890   22.0210  -30.5640 C   0  0  0  0  0  0  0  0  0  0  0  0
   -8.2511   24.1086  -31.3584 H   0  0  0  0  0  0  0  0  0  0  0  0
   -9.9982   22.3329  -31.4707 H   0  0  0  0  0  0  0  0  0  0  0  0
   -9.3848   20.0099  -32.1455 H   0  0  0  0  0  0  0  0  0  0  0  0
   -5.2564   21.2277  -32.5862 H   0  0  0  0  0  0  0  0  0  0  0  0
   -4.3077   23.6134  -27.7177 H   0  0  0  0  0  0  0  0  0  0  0  0
   -3.0298   21.7382  -26.6869 H   0  0  0  0  0  0  0  0  0  0  0  0
    0.7699   17.8146  -27.5302 H   0  0  0  0  0  0  0  0  0  0  0  0
   -1.2700   17.3500  -26.0030 H   0  0  0  0  0  0  0  0  0  0  0  0
   -2.0830   20.2223  -30.6356 H   0  0  0  0  0  0  0  0  0  0  0  0
   -3.3661   22.0983  -31.6586 H   0  0  0  0  0  0  0  0  0  0  0  0
  1  2  2  0
  2  3  2  0
  2  4  1  0
  4  5  1  0
  5  6  2  0
  6  7  1  0
  7  8  2  0
  8  9  1  0
  9 10  1  0
  9 11  2  0
  2 12  1  0
 12 13  2  0
 13 14  1  0
 14 15  2  0
 15 16  1  0
 16 17  1  0
 17 18  2  0
 18 19  1  0
 19 20  1  0
 15 21  1  0
 21 22  2  0
 11  5  1  0
 22 12  1  0
 20 16  2  0
  6 23  1  0
  7 24  1  0
  8 25  1  0
 11 26  1  0
 13 27  1  0
 14 28  1  0
 18 29  1  0
 19 30  1  0
 21 31  1  0
 22 32  1  0
M  CHG  1   4  -1
M  END
>  <UniqueID>  (3) 
3

>  <SMILES>  (3) 
O=S(=O)([N-]c1cccc(Cl)c1)c1ccc(-c2nc[nH]n2)cc1

>  <Energy>  (3) 
70.4704026003619

>  <Genealogy>  (3) 
O=S(=O)([N-]c1cccc(Cl)c1)c1ccc(-c2nc[nH]n2)cc1 (protonated)
O=S(=O)([N-]c1cccc(Cl)c1)c1ccc(-c2nc[nH]n2)cc1 (3D coordinates assigned)
O=S(=O)([N-]c1cccc(Cl)c1)c1ccc(-c2nc[nH]n2)cc1 (optimized conformer: 70.4704026003619 kcal/mol)

>  <smiles>  (3) 
O=S(=O)(Nc1cccc(Cl)c1)c1ccc(-c2nc[nH]n2)cc1

>  <score_type>  (3) 
oracle

>  <origin>  (3) 
adgpu

>  <m_score__min__energy>  (3) 
-9.1799999999999997

>  <m_primary>  (3) 
energy

$$$$
3:0
     RDKit          3D

 15 16  0  0  0  0  0  0  0  0999 V2000
   -4.2130   26.1240  -29.9360 H   0  0  0  0  0  0  0  0  0  0  0  0
   -3.8620   25.2990  -30.4710 N   0  0  0  0  0  0  0  0  0  0  0  0
   -4.6550   24.3430  -30.8250 C   0  0  0  0  0  0  0  0  0  0  0  0
   -4.2300   23.2610  -31.5190 N   0  0  0  0  0  0  0  0  0  0  0  0
   -5.2630   22.4140  -31.7600 C   0  0  0  0  0  0  0  0  0  0  0  0
   -5.1540   21.2050  -32.4540 C   0  0  0  0  0  0  0  0  0  0  0  0
   -3.4760   20.6110  -33.1540 Br  0  0  0  0  0  0  0  0  0  0  0  0
   -6.3100   20.4220  -32.6310 C   0  0  0  0  0  0  0  0  0  0  0  0
   -6.2446   19.4671  -33.1731 H   0  0  0  0  0  0  0  0  0  0  0  0
   -7.5510   20.8520  -32.1190 C   0  0  0  0  0  0  0  0  0  0  0  0
   -9.1080   19.7760  -32.3720 Br  0  0  0  0  0  0  0  0  0  0  0  0
   -7.6480   22.0680  -31.4240 C   0  0  0  0  0  0  0  0  0  0  0  0
   -8.6113   22.4131  -31.0203 H   0  0  0  0  0  0  0  0  0  0  0  0
   -6.4910   22.8250  -31.2600 C   0  0  0  0  0  0  0  0  0  0  0  0
   -6.3140   24.3030  -30.4810 S   0  0  0  0  0  0  0  0  0  0  0  0
  1  2  1  0
  2  3  2  0
  3  4  1  0
  4  5  1  0
  5  6  2  0
  6  7  1  0
  6  8  1  0
  8  9  1  0
  8 10  2  0
 10 11  1  0
 10 12  1  0
 12 13  1  0
 12 14  2  0
 14 15  1  0
 15  3  1  0
 14  5  1  0
M  CHG  1   4  -1
M  END
>  <UniqueID>  (4) 
4

>  <SMILES>  (4) 
[H]/N=c1/[n-]c2c(Br)cc(Br)cc2s1

>  <Energy>  (4) 
50.21282678881309

>  <Genealogy>  (4) 
N=c1[n-]c2c(Br)cc(Br)cc2s1 (protonated)
[H]/N=c1/[n-]c2c(Br)cc(Br)cc2s1 (cis-trans isomerization)
[H]/N=c1/[n-]c2c(Br)cc(Br)cc2s1 (3D coordinates assigned)
[H]/N=c1/[n-]c2c(Br)cc(Br)cc2s1 (optimized conformer: 50.21282678881309 kcal/mol)

>  <smiles>  (4) 
N=c1[nH]c2c(Br)cc(Br)cc2s1

>  <score_type>  (4) 
oracle

>  <origin>  (4) 
adgpu

>  <m_score__min__energy>  (4) 
-8.9900000000000002

>  <m_primary>  (4) 
energy

$$$$
4:0
     RDKit          3D

 34 35  0  0  0  0  0  0  0  0999 V2000
   -2.0070   24.9160  -28.0930 C   0  0  0  0  0  0  0  0  0  0  0  0
   -2.5870   25.2960  -29.3370 O   0  0  0  0  0  0  0  0  0  0  0  0
   -3.7870   24.7750  -29.8430 C   0  0  0  0  0  0  0  0  0  0  0  0
   -4.0980   23.4030  -29.7860 C   0  0  0  0  0  0  0  0  0  0  0  0
   -5.3090   22.9330  -30.3030 C   0  0  0  0  0  0  0  0  0  0  0  0
   -6.2300   23.8230  -30.8780 C   0  0  0  0  0  0  0  0  0  0  0  0
   -7.5320   23.3100  -31.4340 C   0  0  0  0  0  0  0  0  0  0  0  0
   -7.3040   22.5310  -32.6530 N   0  0  0  0  0  0  0  0  0  0  0  0
   -7.3140   21.0900  -32.7140 C   0  0  0  0  0  0  0  0  0  0  0  0
   -8.3390   20.3280  -32.1200 C   0  0  0  0  0  0  0  0  0  0  0  0
   -8.3100   18.9260  -32.1790 C   0  0  0  0  0  0  0  0  0  0  0  0
   -9.4230   18.1230  -31.5710 C   0  0  0  0  0  0  0  0  0  0  0  0
   -7.2720   18.2830  -32.8680 C   0  0  0  0  0  0  0  0  0  0  0  0
   -6.2570   19.0320  -33.4680 C   0  0  0  0  0  0  0  0  0  0  0  0
   -4.9580   18.2210  -34.3220 Cl  0  0  0  0  0  0  0  0  0  0  0  0
   -6.2770   20.4280  -33.3890 C   0  0  0  0  0  0  0  0  0  0  0  0
   -5.9120   25.1890  -30.9450 C   0  0  0  0  0  0  0  0  0  0  0  0
   -4.7030   25.6580  -30.4280 C   0  0  0  0  0  0  0  0  0  0  0  0
   -2.6154   25.3146  -27.2678 H   0  0  0  0  0  0  0  0  0  0  0  0
   -1.9710   23.8187  -28.0252 H   0  0  0  0  0  0  0  0  0  0  0  0
   -0.9866   25.3212  -28.0252 H   0  0  0  0  0  0  0  0  0  0  0  0
   -3.3854   22.6981  -29.3329 H   0  0  0  0  0  0  0  0  0  0  0  0
   -5.5417   21.8588  -30.2589 H   0  0  0  0  0  0  0  0  0  0  0  0
   -8.0184   22.6705  -30.6827 H   0  0  0  0  0  0  0  0  0  0  0  0
   -8.1746   24.1687  -31.6784 H   0  0  0  0  0  0  0  0  0  0  0  0
   -7.0700   23.0640  -33.5210 H   0  0  0  0  0  0  0  0  0  0  0  0
   -9.1685   20.8356  -31.6060 H   0  0  0  0  0  0  0  0  0  0  0  0
   -9.3542   18.1726  -30.4743 H   0  0  0  0  0  0  0  0  0  0  0  0
  -10.3907   18.5323  -31.8966 H   0  0  0  0  0  0  0  0  0  0  0  0
   -9.3397   17.0756  -31.8966 H   0  0  0  0  0  0  0  0  0  0  0  0
   -7.2568   17.1852  -32.9363 H   0  0  0  0  0  0  0  0  0  0  0  0
   -5.4728   21.0123  -33.8601 H   0  0  0  0  0  0  0  0  0  0  0  0
   -6.6193   25.8933  -31.4073 H   0  0  0  0  0  0  0  0  0  0  0  0
   -4.4677   26.7312  -30.4807 H   0  0  0  0  0  0  0  0  0  0  0  0
  1  2  1  0
  2  3  1  0
  3  4  2  0
  4  5  1  0
  5  6  2  0
  6  7  1  0
  7  8  1  0
  8  9  1  0
  9 10  2  0
 10 11  1  0
 11 12  1  0
 11 13  2  0
 13 14  1  0
 14 15  1  0
 14 16  2  0
  6 17  1  0
 17 18  2  0
 18  3  1  0
 16  9  1  0
  1 19  1  0
  1 20  1  0
  1 21  1  0
  4 22  1  0
  5 23  1  0
  7 24  1  0
  7 25  1  0
  8 26  1  0
 10 27  1  0
 12 28  1  0
 12 29  1  0
 12 30  1  0
 13 31  1  0
 16 32  1  0
 17 33  1  0
 18 34  1  0
M  END
>  <UniqueID>  (5) 
5

>  <SMILES>  (5) 
COc1ccc(CNc2cc(C)cc(Cl)c2)cc1

>  <Energy>  (5) 
31.684379943893994

>  <Genealogy>  (5) 
COc1ccc(CNc2cc(C)cc(Cl)c2)cc1 (3D coordinates assigned)
COc1ccc(CNc2cc(C)cc(Cl)c2)cc1 (optimized conformer: 31.684379943893994 kcal/mol)

>  <smiles>  (5) 
COc1ccc(CNc2cc(C)cc(Cl)c2)cc1

>  <score_type>  (5) 
oracle

>  <origin>  (5) 
adgpu

>  <m_score__min__energy>  (5) 
-7.6699999999999999

>  <m_primary>  (5) 
energy

$$$$
5:0
     RDKit          3D

 32 33  0  0  0  0  0  0  0  0999 V2000
   -3.8890   25.1320  -30.7680 O   0  0  0  0  0  0  0  0  0  0  0  0
   -4.2250   24.5490  -29.7010 C   0  0  0  0  0  0  0  0  0  0  0  0
   -5.6140   24.2700  -29.4520 N   0  0  0  0  0  0  0  0  0  0  0  0
   -6.6710   24.6590  -30.3840 C   0  0  0  0  0  0  0  0  0  0  0  0
   -6.4540   24.0270  -31.7640 C   0  0  0  0  0  0  0  0  0  0  0  0
   -7.2230   22.7360  -31.9070 C   0  0  0  0  0  0  0  0  0  0  0  0
   -8.5960   22.7060  -31.6090 C   0  0  0  0  0  0  0  0  0  0  0  0
   -9.3130   21.5090  -31.7030 C   0  0  0  0  0  0  0  0  0  0  0  0
   -8.6640   20.3330  -32.0900 C   0  0  0  0  0  0  0  0  0  0  0  0
   -7.2980   20.3510  -32.3790 C   0  0  0  0  0  0  0  0  0  0  0  0
   -6.5750   21.5450  -32.2870 C   0  0  0  0  0  0  0  0  0  0  0  0
   -5.2470   21.5360  -32.5670 F   0  0  0  0  0  0  0  0  0  0  0  0
   -3.1750   24.1420  -28.7370 C   0  0  0  0  0  0  0  0  0  0  0  0
   -2.0260   24.9290  -28.5320 C   0  0  0  0  0  0  0  0  0  0  0  0
   -1.0460   24.5270  -27.6200 C   0  0  0  0  0  0  0  0  0  0  0  0
   -1.1970   23.3350  -26.9050 C   0  0  0  0  0  0  0  0  0  0  0  0
    0.0340   22.8340  -25.7610 Cl  0  0  0  0  0  0  0  0  0  0  0  0
   -2.3290   22.5400  -27.1100 C   0  0  0  0  0  0  0  0  0  0  0  0
   -3.3100   22.9370  -28.0220 C   0  0  0  0  0  0  0  0  0  0  0  0
   -5.8960   23.7330  -28.6020 H   0  0  0  0  0  0  0  0  0  0  0  0
   -7.6409   24.3264  -29.9856 H   0  0  0  0  0  0  0  0  0  0  0  0
   -6.6519   25.7532  -30.4952 H   0  0  0  0  0  0  0  0  0  0  0  0
   -6.7921   24.7322  -32.5375 H   0  0  0  0  0  0  0  0  0  0  0  0
   -5.3826   23.8056  -31.8782 H   0  0  0  0  0  0  0  0  0  0  0  0
   -9.1093   23.6286  -31.3003 H   0  0  0  0  0  0  0  0  0  0  0  0
  -10.3884   21.4929  -31.4722 H   0  0  0  0  0  0  0  0  0  0  0  0
   -9.2297   19.3928  -32.1669 H   0  0  0  0  0  0  0  0  0  0  0  0
   -6.7889   19.4235  -32.6799 H   0  0  0  0  0  0  0  0  0  0  0  0
   -1.8985   25.8665  -29.0932 H   0  0  0  0  0  0  0  0  0  0  0  0
   -0.1532   25.1504  -27.4643 H   0  0  0  0  0  0  0  0  0  0  0  0
   -2.4473   21.5996  -26.5517 H   0  0  0  0  0  0  0  0  0  0  0  0
   -4.1946   22.3032  -28.1826 H   0  0  0  0  0  0  0  0  0  0  0  0
  1  2  2  0
  2  3  1  0
  3  4  1  0
  4  5  1  0
  5  6  1  0
  6  7  2  0
  7  8  1  0
  8  9  2  0
  9 10  1  0
 10 11  2  0
 11 12  1  0
  2 13  1  0
 13 14  2  0
 14 15  1  0
 15 16  2  0
 16 17  1  0
 16 18  1  0
 18 19  2  0
 11  6  1  0
 19 13  1  0
  3 20  1  0
  4 21  1  0
  4 22  1  0
  5 23  1  0
  5 24  1  0
  7 25  1  0
  8 26  1  0
  9 27  1  0
 10 28  1  0
 14 29  1  0
 15 30  1  0
 18 31  1  0
 19 32  1  0
M  END
>  <UniqueID>  (6) 
6

>  <SMILES>  (6) 
O=C(NCCc1ccccc1F)c1ccc(Cl)cc1

>  <Energy>  (6) 
30.561576840461836

>  <Genealogy>  (6) 
O=C(NCCc1ccccc1F)c1ccc(Cl)cc1 (3D coordinates assigned)
O=C(NCCc1ccccc1F)c1ccc(Cl)cc1 (optimized conformer: 30.561576840461836 kcal/mol)

>  <smiles>  (6) 
O=C(NCCc1ccccc1F)c1ccc(Cl)cc1

>  <score_type>  (6) 
oracle

>  <origin>  (6) 
adgpu

>  <m_score__min__energy>  (6) 
-7.5999999999999996

>  <m_primary>  (6) 
energy

$$$$
6:0
     RDKit          3D

 43 45  0  0  0  0  0  0  0  0999 V2000
   -3.8790   24.5420  -30.7880 O   0  0  0  0  0  0  0  0  0  0  0  0
   -4.8140   23.9760  -30.1600 C   0  0  0  0  0  0  0  0  0  0  0  0
   -4.7570   23.8760  -28.7320 N   0  0  0  0  0  0  0  0  0  0  0  0
   -3.5370   24.2050  -27.9930 C   0  0  0  0  0  0  0  0  0  0  0  0
   -2.6900   22.9550  -27.7060 C   0  0  0  0  0  0  0  0  0  0  0  0
   -3.4720   21.6440  -27.8820 C   0  0  0  0  0  0  0  0  0  0  0  0
   -2.6970   20.4890  -27.4280 N   0  0  0  0  0  0  0  0  0  0  0  0
   -1.4050   20.2330  -27.6870 C   0  0  0  0  0  0  0  0  0  0  0  0
   -1.0940   19.0220  -27.1120 C   0  0  0  0  0  0  0  0  0  0  0  0
   -2.1840   18.5170  -26.4970 N   0  0  0  0  0  0  0  0  0  0  0  0
   -3.1450   19.4420  -26.7110 C   0  0  0  0  0  0  0  0  0  0  0  0
   -5.9820   23.4770  -30.9120 C   0  0  0  0  0  0  0  0  0  0  0  0
   -7.1710   24.1720  -31.0330 C   0  0  0  0  0  0  0  0  0  0  0  0
   -7.9920   23.4140  -31.8400 C   0  0  0  0  0  0  0  0  0  0  0  0
   -7.2710   22.2930  -32.1950 C   0  0  0  0  0  0  0  0  0  0  0  0
   -6.0430   22.3330  -31.6390 N   0  0  0  0  0  0  0  0  0  0  0  0
   -4.9910   21.3370  -31.8850 C   0  0  0  0  0  0  0  0  0  0  0  0
   -5.5620   20.0540  -32.4330 C   0  0  0  0  0  0  0  0  0  0  0  0
   -6.3360   19.2150  -31.6130 C   0  0  0  0  0  0  0  0  0  0  0  0
   -6.8620   18.0230  -32.1230 C   0  0  0  0  0  0  0  0  0  0  0  0
   -6.6090   17.6560  -33.4470 C   0  0  0  0  0  0  0  0  0  0  0  0
   -5.8230   18.4730  -34.2620 C   0  0  0  0  0  0  0  0  0  0  0  0
   -5.2930   19.6650  -33.7560 C   0  0  0  0  0  0  0  0  0  0  0  0
   -5.6160   23.5890  -28.2160 H   0  0  0  0  0  0  0  0  0  0  0  0
   -2.9395   24.9112  -28.5882 H   0  0  0  0  0  0  0  0  0  0  0  0
   -3.8294   24.6489  -27.0299 H   0  0  0  0  0  0  0  0  0  0  0  0
   -1.8330   22.9468  -28.3956 H   0  0  0  0  0  0  0  0  0  0  0  0
   -2.3717   23.0086  -26.6544 H   0  0  0  0  0  0  0  0  0  0  0  0
   -4.4020   21.7019  -27.2974 H   0  0  0  0  0  0  0  0  0  0  0  0
   -3.6883   21.5137  -28.9526 H   0  0  0  0  0  0  0  0  0  0  0  0
   -0.7180   20.8760  -28.2567 H   0  0  0  0  0  0  0  0  0  0  0  0
   -0.1065   18.5388  -27.1482 H   0  0  0  0  0  0  0  0  0  0  0  0
   -4.1768   19.3498  -26.3411 H   0  0  0  0  0  0  0  0  0  0  0  0
   -7.4145   25.1417  -30.5743 H   0  0  0  0  0  0  0  0  0  0  0  0
   -9.0217   23.6559  -32.1421 H   0  0  0  0  0  0  0  0  0  0  0  0
   -7.6440   21.4829  -32.8390 H   0  0  0  0  0  0  0  0  0  0  0  0
   -4.2730   21.7472  -32.6104 H   0  0  0  0  0  0  0  0  0  0  0  0
   -4.4966   21.1137  -30.9281 H   0  0  0  0  0  0  0  0  0  0  0  0
   -6.5288   19.4963  -30.5672 H   0  0  0  0  0  0  0  0  0  0  0  0
   -7.4755   17.3741  -31.4807 H   0  0  0  0  0  0  0  0  0  0  0  0
   -7.0296   16.7220  -33.8480 H   0  0  0  0  0  0  0  0  0  0  0  0
   -5.6203   18.1794  -35.3025 H   0  0  0  0  0  0  0  0  0  0  0  0
   -4.6633   20.3000  -34.3965 H   0  0  0  0  0  0  0  0  0  0  0  0
  1  2  2  0
  2  3  1  0
  3  4  1  0
  4  5  1  0
  5  6  1  0
  6  7  1  0
  7  8  1  0
  8  9  2  0
  9 10  1  0
 10 11  2  0
  2 12  1  0
 12 13  2  0
 13 14  1  0
 14 15  2  0
 15 16  1  0
 16 17  1  0
 17 18  1  0
 18 19  2  0
 19 20  1  0
 20 21  2  0
 21 22  1  0
 22 23  2  0
 11  7  1  0
 16 12  1  0
 23 18  1  0
  3 24  1  0
  4 25  1  0
  4 26  1  0
  5 27  1  0
  5 28  1  0
  6 29  1  0
  6 30  1  0
  8 31  1  0
  9 32  1  0
 11 33  1  0
 13 34  1  0
 14 35  1  0
 15 36  1  0
 17 37  1  0
 17 38  1  0
 19 39  1  0
 20 40  1  0
 21 41  1  0
 22 42  1  0
 23 43  1  0
M  END
>  <UniqueID>  (7) 
7

>  <SMILES>  (7) 
O=C(NCCCn1ccnc1)c1cccn1Cc1ccccc1

>  <Energy>  (7) 
94.58259092557145

>  <Genealogy>  (7) 
O=C(NCCCn1ccnc1)c1cccn1Cc1ccccc1 (3D coordinates assigned)
O=C(NCCCn1ccnc1)c1cccn1Cc1ccccc1 (optimized conformer: 94.58259092557145 kcal/mol)

>  <smiles>  (7) 
O=C(NCCCn1ccnc1)c1cccn1Cc1ccccc1

>  <score_type>  (7) 
oracle

>  <origin>  (7) 
adgpu

>  <m_score__min__energy>  (7) 
-7.4800000000000004

>  <m_primary>  (7) 
energy

$$$$
7:0
     RDKit          3D

 33 35  0  0  0  0  0  0  0  0999 V2000
   -1.3305   20.7244  -31.0360 H   0  0  0  0  0  0  0  0  0  0  0  0
   -1.9070   21.5010  -30.5120 C   0  0  0  0  0  0  0  0  0  0  0  0
   -1.8588   22.5458  -30.8528 H   0  0  0  0  0  0  0  0  0  0  0  0
   -2.6640   21.1760  -29.4640 C   0  0  0  0  0  0  0  0  0  0  0  0
   -2.7059   20.1286  -29.1305 H   0  0  0  0  0  0  0  0  0  0  0  0
   -3.4610   22.2180  -28.7310 C   0  0  0  0  0  0  0  0  0  0  0  0
   -4.3770   22.4378  -29.2990 H   0  0  0  0  0  0  0  0  0  0  0  0
   -3.7147   21.8321  -27.7326 H   0  0  0  0  0  0  0  0  0  0  0  0
   -2.6810   23.4540  -28.5760 N   0  0  0  0  0  0  0  0  0  0  0  0
   -2.6600   24.6000  -29.3330 C   0  0  0  0  0  0  0  0  0  0  0  0
   -3.5020   24.9180  -30.2780 N   0  0  0  0  0  0  0  0  0  0  0  0
   -4.7300   24.2760  -30.6300 C   0  0  0  0  0  0  0  0  0  0  0  0
   -4.7270   23.2410  -31.5750 C   0  0  0  0  0  0  0  0  0  0  0  0
   -3.7774   22.9031  -32.0156 H   0  0  0  0  0  0  0  0  0  0  0  0
   -5.9280   22.6370  -31.9590 C   0  0  0  0  0  0  0  0  0  0  0  0
   -5.9207   21.8112  -32.6856 H   0  0  0  0  0  0  0  0  0  0  0  0
   -7.1390   23.0830  -31.4190 C   0  0  0  0  0  0  0  0  0  0  0  0
   -8.0829   22.6011  -31.7135 H   0  0  0  0  0  0  0  0  0  0  0  0
   -7.1500   24.1400  -30.5060 C   0  0  0  0  0  0  0  0  0  0  0  0
   -8.1036   24.4954  -30.0885 H   0  0  0  0  0  0  0  0  0  0  0  0
   -5.9500   24.7470  -30.1220 C   0  0  0  0  0  0  0  0  0  0  0  0
   -5.9627   25.5946  -29.4210 H   0  0  0  0  0  0  0  0  0  0  0  0
   -1.6460   25.4420  -29.0110 N   0  0  0  0  0  0  0  0  0  0  0  0
   -1.0340   24.8160  -27.9940 C   0  0  0  0  0  0  0  0  0  0  0  0
    0.0790   25.2580  -27.2840 C   0  0  0  0  0  0  0  0  0  0  0  0
    0.5617   26.2169  -27.5237 H   0  0  0  0  0  0  0  0  0  0  0  0
    0.5660   24.4380  -26.2500 C   0  0  0  0  0  0  0  0  0  0  0  0
    1.4444   24.7546  -25.6684 H   0  0  0  0  0  0  0  0  0  0  0  0
   -0.0660   23.2120  -25.9550 C   0  0  0  0  0  0  0  0  0  0  0  0
    0.3210   22.5802  -25.1420 H   0  0  0  0  0  0  0  0  0  0  0  0
   -1.1880   22.7910  -26.6930 C   0  0  0  0  0  0  0  0  0  0  0  0
   -1.8020   21.6220  -26.3840 F   0  0  0  0  0  0  0  0  0  0  0  0
   -1.6500   23.6280  -27.7200 C   0  0  0  0  0  0  0  0  0  0  0  0
  1  2  1  0
  2  3  1  0
  2  4  2  0
  4  5  1  0
  4  6  1  0
  6  7  1  0
  6  8  1  0
  6  9  1  0
  9 10  1  0
 10 11  2  0
 11 12  1  0
 12 13  2  0
 13 14  1  0
 13 15  1  0
 15 16  1  0
 15 17  2  0
 17 18  1  0
 17 19  1  0
 19 20  1  0
 19 21  2  0
 21 22  1  0
 10 23  1  0
 23 24  1  0
 24 25  2  0
 25 26  1  0
 25 27  1  0
 27 28  1  0
 27 29  2  0
 29 30  1  0
 29 31  1  0
 31 32  1  0
 31 33  2  0
 33  9  1  0
 21 12  1  0
 33 24  1  0
M  CHG  1  23  -1
M  END
>  <UniqueID>  (8) 
8

>  <SMILES>  (8) 
C=CCn1/c(=N\c2ccccc2)[n-]c2cccc(F)c21

>  <Energy>  (8) 
84.97776184046185

>  <Genealogy>  (8) 
C=CCn1c(=Nc2ccccc2)[n-]c2cccc(F)c21 (protonated)
C=CCn1/c(=N\c2ccccc2)[n-]c2cccc(F)c21 (cis-trans isomerization)
C=CCn1/c(=N\c2ccccc2)[n-]c2cccc(F)c21 (3D coordinates assigned)
C=CCn1/c(=N\c2ccccc2)[n-]c2cccc(F)c21 (optimized conformer: 84.97776184046185 kcal/mol)

>  <smiles>  (8) 
C=CCn1c(=Nc2ccccc2)[nH]c2cccc(F)c21

>  <score_type>  (8) 
oracle

>  <origin>  (8) 
adgpu

>  <m_score__min__energy>  (8) 
-7.8300000000000001

>  <m_primary>  (8) 
energy

$$$$
8:0
     RDKit          3D

 56 58  0  0  0  0  0  0  0  0999 V2000
   -1.2160   21.7550  -30.5410 C   0  0  0  0  0  0  0  0  0  0  0  0
   -2.1670   22.0330  -31.5640 O   0  0  0  0  0  0  0  0  0  0  0  0
   -2.8650   21.0630  -32.3080 C   0  0  0  0  0  0  0  0  0  0  0  0
   -2.2790   20.3590  -33.3890 C   0  0  0  0  0  0  0  0  0  0  0  0
   -0.8460   20.4800  -33.7300 C   0  0  0  0  0  0  0  0  0  0  0  0
   -0.4640   21.5120  -34.6050 C   0  0  0  0  0  0  0  0  0  0  0  0
    0.8830   21.7090  -34.9440 C   0  0  0  0  0  0  0  0  0  0  0  0
    1.2710   22.8100  -35.8540 C   0  0  0  0  0  0  0  0  0  0  0  0
    2.1130   22.6180  -36.7710 O   0  0  0  0  0  0  0  0  0  0  0  0
    0.7100   24.0740  -35.7100 O   0  0  0  0  0  0  0  0  0  0  0  0
    1.8520   20.8530  -34.4050 C   0  0  0  0  0  0  0  0  0  0  0  0
    1.4840   19.8110  -33.5520 C   0  0  0  0  0  0  0  0  0  0  0  0
    0.1390   19.5980  -33.2120 C   0  0  0  0  0  0  0  0  0  0  0  0
   -0.1720   18.4460  -32.3310 C   0  0  0  0  0  0  0  0  0  0  0  0
   -0.6990   18.5940  -31.1980 O   0  0  0  0  0  0  0  0  0  0  0  0
   -3.0520   19.4670  -34.1390 C   0  0  0  0  0  0  0  0  0  0  0  0
   -4.3960   19.2350  -33.8290 C   0  0  0  0  0  0  0  0  0  0  0  0
   -5.1930   18.2740  -34.6730 C   0  0  0  0  0  0  0  0  0  0  0  0
   -4.9770   19.8920  -32.7240 C   0  0  0  0  0  0  0  0  0  0  0  0
   -6.4040   19.6620  -32.4040 C   0  0  0  0  0  0  0  0  0  0  0  0
   -7.3510   20.6690  -32.6390 C   0  0  0  0  0  0  0  0  0  0  0  0
   -8.7010   20.4420  -32.3550 C   0  0  0  0  0  0  0  0  0  0  0  0
   -9.1100   19.2100  -31.8330 C   0  0  0  0  0  0  0  0  0  0  0  0
   -8.1670   18.2050  -31.5930 C   0  0  0  0  0  0  0  0  0  0  0  0
   -6.8170   18.4300  -31.8750 C   0  0  0  0  0  0  0  0  0  0  0  0
   -4.2020   20.7860  -31.9430 C   0  0  0  0  0  0  0  0  0  0  0  0
   -4.8240   21.5140  -30.7650 C   0  0  0  0  0  0  0  0  0  0  0  0
   -5.1490   22.9370  -31.1510 C   0  0  0  0  0  0  0  0  0  0  0  0
   -5.0520   23.9940  -30.3150 C   0  0  0  0  0  0  0  0  0  0  0  0
   -5.3900   25.3630  -30.8460 C   0  0  0  0  0  0  0  0  0  0  0  0
   -4.6240   23.8380  -28.8760 C   0  0  0  0  0  0  0  0  0  0  0  0
   -1.6862   21.8924  -29.5561 H   0  0  0  0  0  0  0  0  0  0  0  0
   -0.8656   20.7168  -30.6384 H   0  0  0  0  0  0  0  0  0  0  0  0
   -0.3616   22.4410  -30.6384 H   0  0  0  0  0  0  0  0  0  0  0  0
   -1.2324   22.1746  -35.0299 H   0  0  0  0  0  0  0  0  0  0  0  0
    2.9124   21.0032  -34.6561 H   0  0  0  0  0  0  0  0  0  0  0  0
    2.2590   19.1476  -33.1406 H   0  0  0  0  0  0  0  0  0  0  0  0
    0.0656   17.4300  -32.6792 H   0  0  0  0  0  0  0  0  0  0  0  0
   -2.5947   18.9382  -34.9882 H   0  0  0  0  0  0  0  0  0  0  0  0
   -5.7577   17.5931  -34.0192 H   0  0  0  0  0  0  0  0  0  0  0  0
   -5.8929   18.8371  -35.3079 H   0  0  0  0  0  0  0  0  0  0  0  0
   -4.5102   17.6904  -35.3079 H   0  0  0  0  0  0  0  0  0  0  0  0
   -7.0313   21.6390  -33.0474 H   0  0  0  0  0  0  0  0  0  0  0  0
   -9.4424   21.2328  -32.5421 H   0  0  0  0  0  0  0  0  0  0  0  0
  -10.1726   19.0318  -31.6114 H   0  0  0  0  0  0  0  0  0  0  0  0
   -8.4885   17.2367  -31.1819 H   0  0  0  0  0  0  0  0  0  0  0  0
   -6.0767   17.6396  -31.6818 H   0  0  0  0  0  0  0  0  0  0  0  0
   -5.7478   20.9980  -30.4644 H   0  0  0  0  0  0  0  0  0  0  0  0
   -4.1111   21.5208  -29.9273 H   0  0  0  0  0  0  0  0  0  0  0  0
   -5.4870   23.1256  -32.1806 H   0  0  0  0  0  0  0  0  0  0  0  0
   -5.5599   26.0510  -30.0047 H   0  0  0  0  0  0  0  0  0  0  0  0
   -4.5565   25.7340  -31.4605 H   0  0  0  0  0  0  0  0  0  0  0  0
   -6.3004   25.3034  -31.4605 H   0  0  0  0  0  0  0  0  0  0  0  0
   -5.4490   24.1387  -28.2134 H   0  0  0  0  0  0  0  0  0  0  0  0
   -4.3631   22.7870  -28.6829 H   0  0  0  0  0  0  0  0  0  0  0  0
   -3.7480   24.4746  -28.6829 H   0  0  0  0  0  0  0  0  0  0  0  0
  1  2  1  0
  2  3  1  0
  3  4  2  0
  4  5  1  0
  5  6  2  0
  6  7  1  0
  7  8  1  0
  8  9  2  0
  8 10  1  0
  7 11  2  0
 11 12  1  0
 12 13  2  0
 13 14  1  0
 14 15  2  0
  4 16  1  0
 16 17  2  0
 17 18  1  0
 17 19  1  0
 19 20  1  0
 20 21  2  0
 21 22  1  0
 22 23  2  0
 23 24  1  0
 24 25  2  0
 19 26  2  0
 26 27  1  0
 27 28  1  0
 28 29  2  3
 29 30  1  0
 29 31  1  0
 26  3  1  0
 13  5  1  0
 25 20  1  0
  1 32  1  0
  1 33  1  0
  1 34  1  0
  6 35  1  0
 11 36  1  0
 12 37  1  0
 14 38  1  0
 16 39  1  0
 18 40  1  0
 18 41  1  0
 18 42  1  0
 21 43  1  0
 22 44  1  0
 23 45  1  0
 24 46  1  0
 25 47  1  0
 27 48  1  0
 27 49  1  0
 28 50  1  0
 30 51  1  0
 30 52  1  0
 30 53  1  0
 31 54  1  0
 31 55  1  0
 31 56  1  0
M  CHG  1  10  -1
M  END
>  <UniqueID>  (9) 
9

>  <SMILES>  (9) 
COc1c(-c2cc(C(=O)[O-])ccc2C=O)cc(C)c(-c2ccccc2)c1CC=C(C)C

>  <Energy>  (9) 
77.39406742727802

>  <Genealogy>  (9) 
COc1c(-c2cc(C(=O)[O-])ccc2C=O)cc(C)c(-c2ccccc2)c1CC=C(C)C (protonated)
COc1c(-c2cc(C(=O)[O-])ccc2C=O)cc(C)c(-c2ccccc2)c1CC=C(C)C (3D coordinates assigned)
COc1c(-c2cc(C(=O)[O-])ccc2C=O)cc(C)c(-c2ccccc2)c1CC=C(C)C (optimized conformer: 77.39406742727802 kcal/mol)

>  <smiles>  (9) 
COc1c(-c2cc(C(=O)O)ccc2C=O)cc(C)c(-c2ccccc2)c1CC=C(C)C

>  <score_type>  (9) 
oracle

>  <origin>  (9) 
adgpu

>  <m_score__min__energy>  (9) 
-10.15

>  <m_primary>  (9) 
energy

$$$$
9:0
     RDKit          3D

 21 23  0  0  0  0  0  0  0  0999 V2000
   -5.4530   20.7710  -32.9720 Cl  0  0  0  0  0  0  0  0  0  0  0  0
   -4.8490   22.0660  -31.9450 C   0  0  0  0  0  0  0  0  0  0  0  0
   -3.5590   21.9480  -31.3920 C   0  0  0  0  0  0  0  0  0  0  0  0
   -3.1020   22.9840  -30.5830 C   0  0  0  0  0  0  0  0  0  0  0  0
   -1.9180   23.0770  -29.9610 N   0  0  0  0  0  0  0  0  0  0  0  0
   -2.0130   24.2750  -29.3250 C   0  0  0  0  0  0  0  0  0  0  0  0
   -0.9320   24.8200  -28.4950 C   0  0  0  0  0  0  0  0  0  0  0  0
    0.2040   24.1340  -28.0820 C   0  0  0  0  0  0  0  0  0  0  0  0
    1.0620   24.9140  -27.2970 C   0  0  0  0  0  0  0  0  0  0  0  0
    0.6060   26.2100  -27.0900 C   0  0  0  0  0  0  0  0  0  0  0  0
   -0.8650   26.3860  -27.8860 S   0  0  0  0  0  0  0  0  0  0  0  0
   -3.1910   24.9260  -29.5210 N   0  0  0  0  0  0  0  0  0  0  0  0
   -3.8580   24.0820  -30.3220 C   0  0  0  0  0  0  0  0  0  0  0  0
   -5.1380   24.2400  -30.8470 C   0  0  0  0  0  0  0  0  0  0  0  0
   -5.6410   23.2140  -31.6720 C   0  0  0  0  0  0  0  0  0  0  0  0
   -7.2540   23.3870  -32.3490 Cl  0  0  0  0  0  0  0  0  0  0  0  0
   -2.9333   21.0659  -31.5930 H   0  0  0  0  0  0  0  0  0  0  0  0
    0.4082   23.0856  -28.3449 H   0  0  0  0  0  0  0  0  0  0  0  0
    2.0084   24.5360  -26.8830 H   0  0  0  0  0  0  0  0  0  0  0  0
    1.1192   26.9878  -26.5055 H   0  0  0  0  0  0  0  0  0  0  0  0
   -5.7366   25.1358  -30.6252 H   0  0  0  0  0  0  0  0  0  0  0  0
  1  2  1  0
  2  3  2  0
  3  4  1  0
  4  5  1  0
  5  6  2  0
  6  7  1  0
  7  8  2  0
  8  9  1  0
  9 10  2  0
 10 11  1  0
  6 12  1  0
 12 13  1  0
 13 14  1  0
 14 15  2  0
 15 16  1  0
 15  2  1  0
 13  4  2  0
 11  7  1  0
  3 17  1  0
  8 18  1  0
  9 19  1  0
 10 20  1  0
 14 21  1  0
M  CHG  1  12  -1
M  END
>  <UniqueID>  (10) 
10

>  <SMILES>  (10) 
Clc1cc2nc(-c3cccs3)[n-]c2cc1Cl

>  <Energy>  (10) 
84.40637329611369

>  <Genealogy>  (10) 
Clc1cc2nc(-c3cccs3)[n-]c2cc1Cl (protonated)
Clc1cc2nc(-c3cccs3)[n-]c2cc1Cl (3D coordinates assigned)
Clc1cc2nc(-c3cccs3)[n-]c2cc1Cl (optimized conformer: 84.40637329611369 kcal/mol)

>  <smiles>  (10) 
Clc1cc2nc(-c3cccs3)[nH]c2cc1Cl

>  <score_type>  (10) 
oracle

>  <origin>  (10) 
adgpu

>  <m_score__min__energy>  (10) 
-6.9699999999999998

>  <m_primary>  (10) 
energy

$$$$
10:0
     RDKit          3D

 24 25  0  0  0  0  0  0  0  0999 V2000
   -6.0370   25.6720  -30.0920 C   0  0  0  0  0  0  0  0  0  0  0  0
   -6.1530   24.3370  -30.6950 N   0  0  0  0  0  0  0  0  0  0  0  0
   -7.3920   23.7940  -30.9020 C   0  0  0  0  0  0  0  0  0  0  0  0
   -7.5300   22.5320  -31.4810 C   0  0  0  0  0  0  0  0  0  0  0  0
   -6.3910   21.8100  -31.8590 C   0  0  0  0  0  0  0  0  0  0  0  0
   -6.5140   20.4700  -32.4830 C   0  0  0  0  0  0  0  0  0  0  0  0
   -5.6010   20.0670  -33.4730 C   0  0  0  0  0  0  0  0  0  0  0  0
   -5.7280   18.8070  -34.0600 C   0  0  0  0  0  0  0  0  0  0  0  0
   -6.7270   17.9710  -33.6740 N   0  0  0  0  0  0  0  0  0  0  0  0
   -7.6240   18.3280  -32.7180 C   0  0  0  0  0  0  0  0  0  0  0  0
   -7.5360   19.5800  -32.1020 C   0  0  0  0  0  0  0  0  0  0  0  0
   -8.4170   19.9010  -31.1220 F   0  0  0  0  0  0  0  0  0  0  0  0
   -5.1290   22.3860  -31.6530 C   0  0  0  0  0  0  0  0  0  0  0  0
   -5.0260   23.6520  -31.0680 C   0  0  0  0  0  0  0  0  0  0  0  0
   -3.8820   24.1540  -30.8910 O   0  0  0  0  0  0  0  0  0  0  0  0
   -6.0449   25.5811  -28.9958 H   0  0  0  0  0  0  0  0  0  0  0  0
   -5.0949   26.1394  -30.4144 H   0  0  0  0  0  0  0  0  0  0  0  0
   -6.8844   26.2949  -30.4144 H   0  0  0  0  0  0  0  0  0  0  0  0
   -8.2892   24.3588  -30.6086 H   0  0  0  0  0  0  0  0  0  0  0  0
   -8.5312   22.1051  -31.6402 H   0  0  0  0  0  0  0  0  0  0  0  0
   -4.7898   20.7418  -33.7838 H   0  0  0  0  0  0  0  0  0  0  0  0
   -5.0172   18.4900  -34.8374 H   0  0  0  0  0  0  0  0  0  0  0  0
   -8.4225   17.6294  -32.4276 H   0  0  0  0  0  0  0  0  0  0  0  0
   -4.2206   21.8422  -31.9514 H   0  0  0  0  0  0  0  0  0  0  0  0
  1  2  1  0
  2  3  1  0
  3  4  2  0
  4  5  1  0
  5  6  1  0
  6  7  2  0
  7  8  1  0
  8  9  2  0
  9 10  1  0
 10 11  2  0
 11 12  1  0
  5 13  2  0
 13 14  1  0
 14 15  2  0
 14  2  1  0
 11  6  1  0
  1 16  1  0
  1 17  1  0
  1 18  1  0
  3 19  1  0
  4 20  1  0
  7 21  1  0
  8 22  1  0
 10 23  1  0
 13 24  1  0
M  END
>  <UniqueID>  (11) 
11

>  <SMILES>  (11) 
Cn1ccc(-c2ccncc2F)cc1=O

>  <Energy>  (11) 
33.74316694332963

>  <Genealogy>  (11) 
Cn1ccc(-c2ccncc2F)cc1=O (3D coordinates assigned)
Cn1ccc(-c2ccncc2F)cc1=O (optimized conformer: 33.74316694332963 kcal/mol)

>  <smiles>  (11) 
Cn1ccc(-c2ccncc2F)cc1=O

>  <score_type>  (11) 
oracle

>  <origin>  (11) 
adgpu

>  <m_score__min__energy>  (11) 
-6.1200000000000001

>  <m_primary>  (11) 
energy

$$$$
11:0
     RDKit          3D

 35 37  0  0  0  0  0  0  0  0999 V2000
   -6.1040   18.5950  -33.5970 C   0  0  0  0  0  0  0  0  0  0  0  0
   -7.3220   19.3180  -33.4480 O   0  0  0  0  0  0  0  0  0  0  0  0
   -7.4850   20.4370  -32.6190 C   0  0  0  0  0  0  0  0  0  0  0  0
   -8.7860   20.8680  -32.3360 C   0  0  0  0  0  0  0  0  0  0  0  0
   -9.0010   21.9820  -31.5250 C   0  0  0  0  0  0  0  0  0  0  0  0
   -7.9170   22.6760  -30.9830 C   0  0  0  0  0  0  0  0  0  0  0  0
   -6.6000   22.2570  -31.2400 C   0  0  0  0  0  0  0  0  0  0  0  0
   -5.4600   23.0120  -30.6580 C   0  0  0  0  0  0  0  0  0  0  0  0
   -4.8450   22.6180  -29.4600 C   0  0  0  0  0  0  0  0  0  0  0  0
   -3.7820   23.3660  -28.9580 C   0  0  0  0  0  0  0  0  0  0  0  0
   -3.3440   24.4950  -29.6620 C   0  0  0  0  0  0  0  0  0  0  0  0
   -2.2910   25.2990  -29.2020 O   0  0  0  0  0  0  0  0  0  0  0  0
   -1.5410   25.0610  -28.0410 C   0  0  0  0  0  0  0  0  0  0  0  0
   -1.9700   25.6300  -26.8360 C   0  0  0  0  0  0  0  0  0  0  0  0
   -1.2460   25.4220  -25.6580 C   0  0  0  0  0  0  0  0  0  0  0  0
   -0.0780   24.6540  -25.6800 C   0  0  0  0  0  0  0  0  0  0  0  0
    0.6250   24.4550  -24.5390 F   0  0  0  0  0  0  0  0  0  0  0  0
    0.3720   24.1020  -26.8830 C   0  0  0  0  0  0  0  0  0  0  0  0
   -0.3500   24.3070  -28.0650 C   0  0  0  0  0  0  0  0  0  0  0  0
    0.1360   23.8120  -29.2300 F   0  0  0  0  0  0  0  0  0  0  0  0
   -3.9910   24.8480  -30.8020 N   0  0  0  0  0  0  0  0  0  0  0  0
   -5.0090   24.1330  -31.2830 N   0  0  0  0  0  0  0  0  0  0  0  0
   -6.3920   21.1380  -32.0710 C   0  0  0  0  0  0  0  0  0  0  0  0
   -5.6971   18.3535  -32.6040 H   0  0  0  0  0  0  0  0  0  0  0  0
   -6.2955   17.6642  -34.1511 H   0  0  0  0  0  0  0  0  0  0  0  0
   -5.3786   19.2089  -34.1511 H   0  0  0  0  0  0  0  0  0  0  0  0
   -9.6450   20.3243  -32.7561 H   0  0  0  0  0  0  0  0  0  0  0  0
  -10.0274   22.3150  -31.3116 H   0  0  0  0  0  0  0  0  0  0  0  0
   -8.0952   23.5577  -30.3498 H   0  0  0  0  0  0  0  0  0  0  0  0
   -5.1990   21.7264  -28.9218 H   0  0  0  0  0  0  0  0  0  0  0  0
   -3.2916   23.0728  -28.0181 H   0  0  0  0  0  0  0  0  0  0  0  0
   -2.8822   26.2444  -26.8158 H   0  0  0  0  0  0  0  0  0  0  0  0
   -1.5958   25.8631  -24.7130 H   0  0  0  0  0  0  0  0  0  0  0  0
    1.2957   23.5050  -26.9010 H   0  0  0  0  0  0  0  0  0  0  0  0
   -5.3665   20.8084  -32.2941 H   0  0  0  0  0  0  0  0  0  0  0  0
  1  2  1  0
  2  3  1  0
  3  4  2  0
  4  5  1  0
  5  6  2  0
  6  7  1  0
  7  8  1  0
  8  9  2  0
  9 10  1  0
 10 11  2  0
 11 12  1  0
 12 13  1  0
 13 14  2  0
 14 15  1  0
 15 16  2  0
 16 17  1  0
 16 18  1  0
 18 19  2  0
 19 20  1  0
 11 21  1  0
 21 22  2  0
  7 23  2  0
 23  3  1  0
 22  8  1  0
 19 13  1  0
  1 24  1  0
  1 25  1  0
  1 26  1  0
  4 27  1  0
  5 28  1  0
  6 29  1  0
  9 30  1  0
 10 31  1  0
 14 32  1  0
 15 33  1  0
 18 34  1  0
 23 35  1  0
M  END
>  <UniqueID>  (12) 
12

>  <SMILES>  (12) 
COc1cccc(-c2ccc(Oc3ccc(F)cc3F)nn2)c1

>  <Energy>  (12) 
50.14941851821131

>  <Genealogy>  (12) 
COc1cccc(-c2ccc(Oc3ccc(F)cc3F)nn2)c1 (3D coordinates assigned)
COc1cccc(-c2ccc(Oc3ccc(F)cc3F)nn2)c1 (optimized conformer: 50.14941851821131 kcal/mol)

>  <smiles>  (12) 
COc1cccc(-c2ccc(Oc3ccc(F)cc3F)nn2)c1

>  <score_type>  (12) 
oracle

>  <origin>  (12) 
adgpu

>  <m_score__min__energy>  (12) 
-8.4499999999999993

>  <m_primary>  (12) 
energy

$$$$
12:0
     RDKit          3D

 28 28  0  0  0  0  0  0  0  0999 V2000
   -5.9860   18.8860  -35.0020 N   0  0  0  0  0  0  0  0  0  0  0  0
   -6.1520   19.3700  -33.6650 C   0  0  0  0  0  0  0  0  0  0  0  0
   -5.1680   19.2650  -32.8190 N   0  0  0  0  0  0  0  0  0  0  0  0
   -7.4060   19.9650  -33.2880 N   0  0  0  0  0  0  0  0  0  0  0  0
   -7.6950   20.4540  -31.9370 C   0  0  0  0  0  0  0  0  0  0  0  0
   -8.0980   21.9340  -31.9430 C   0  0  0  0  0  0  0  0  0  0  0  0
   -6.9730   22.8220  -31.4750 C   0  0  0  0  0  0  0  0  0  0  0  0
   -7.2440   24.0470  -30.8430 C   0  0  0  0  0  0  0  0  0  0  0  0
   -6.1980   24.8570  -30.3930 C   0  0  0  0  0  0  0  0  0  0  0  0
   -4.8670   24.4520  -30.5680 C   0  0  0  0  0  0  0  0  0  0  0  0
   -3.7960   25.2810  -30.1080 N   0  0  0  0  0  0  0  0  0  0  0  0
   -4.5930   23.2310  -31.1970 C   0  0  0  0  0  0  0  0  0  0  0  0
   -5.6390   22.4190  -31.6460 C   0  0  0  0  0  0  0  0  0  0  0  0
   -5.0880   18.4510  -35.3100 H   0  0  0  0  0  0  0  0  0  0  0  0
   -6.7650   18.9620  -35.6920 H   0  0  0  0  0  0  0  0  0  0  0  0
   -4.2640   18.8300  -33.1080 H   0  0  0  0  0  0  0  0  0  0  0  0
   -5.2380   19.6060  -31.8370 H   0  0  0  0  0  0  0  0  0  0  0  0
   -8.1380   20.0500  -34.0280 H   0  0  0  0  0  0  0  0  0  0  0  0
   -8.5191   19.8619  -31.5124 H   0  0  0  0  0  0  0  0  0  0  0  0
   -6.7821   20.3498  -31.3322 H   0  0  0  0  0  0  0  0  0  0  0  0
   -8.3774   22.2229  -32.9670 H   0  0  0  0  0  0  0  0  0  0  0  0
   -8.9443   22.0610  -31.2518 H   0  0  0  0  0  0  0  0  0  0  0  0
   -8.2858   24.3705  -30.7015 H   0  0  0  0  0  0  0  0  0  0  0  0
   -6.4194   25.8151  -29.9000 H   0  0  0  0  0  0  0  0  0  0  0  0
   -3.6930   25.5070  -29.0940 H   0  0  0  0  0  0  0  0  0  0  0  0
   -3.1000   25.6770  -30.7790 H   0  0  0  0  0  0  0  0  0  0  0  0
   -3.5506   22.9095  -31.3384 H   0  0  0  0  0  0  0  0  0  0  0  0
   -5.4156   21.4597  -32.1357 H   0  0  0  0  0  0  0  0  0  0  0  0
  1  2  1  0
  2  3  2  0
  2  4  1  0
  4  5  1  0
  5  6  1  0
  6  7  1  0
  7  8  2  0
  8  9  1  0
  9 10  2  0
 10 11  1  0
 10 12  1  0
 12 13  2  0
 13  7  1  0
  1 14  1  0
  1 15  1  0
  3 16  1  0
  3 17  1  0
  4 18  1  0
  5 19  1  0
  5 20  1  0
  6 21  1  0
  6 22  1  0
  8 23  1  0
  9 24  1  0
 11 25  1  0
 11 26  1  0
 12 27  1  0
 13 28  1  0
M  CHG  1   3   1
M  END
>  <UniqueID>  (13) 
13

>  <SMILES>  (13) 
NC(=[NH2+])NCCc1ccc(N)cc1

>  <Energy>  (13) 
19.416399459110405

>  <Genealogy>  (13) 
NC(=[NH2+])NCCc1ccc(N)cc1 (protonated)
NC(=[NH2+])NCCc1ccc(N)cc1 (3D coordinates assigned)
NC(=[NH2+])NCCc1ccc(N)cc1 (optimized conformer: 19.416399459110405 kcal/mol)

>  <smiles>  (13) 
N=C(N)NCCc1ccc(N)cc1

>  <score_type>  (13) 
oracle

>  <origin>  (13) 
adgpu

>  <m_score__min__energy>  (13) 
-5.8399999999999999

>  <m_primary>  (13) 
energy

$$$$
13:0
     RDKit          3D

 26 27  0  0  0  0  0  0  0  0999 V2000
   -6.0360   26.0420  -30.4970 O   0  0  0  0  0  0  0  0  0  0  0  0
   -5.2260   25.0940  -30.6810 C   0  0  0  0  0  0  0  0  0  0  0  0
   -3.8590   25.2760  -30.2900 N   0  0  0  0  0  0  0  0  0  0  0  0
   -3.1670   24.5450  -29.2670 C   0  0  0  0  0  0  0  0  0  0  0  0
   -3.8160   23.4620  -28.6580 C   0  0  0  0  0  0  0  0  0  0  0  0
   -3.1730   22.7250  -27.6590 C   0  0  0  0  0  0  0  0  0  0  0  0
   -1.8850   23.0770  -27.2480 C   0  0  0  0  0  0  0  0  0  0  0  0
   -1.2420   24.1730  -27.8280 C   0  0  0  0  0  0  0  0  0  0  0  0
   -1.8800   24.9140  -28.8280 C   0  0  0  0  0  0  0  0  0  0  0  0
   -1.2590   26.0120  -29.3280 F   0  0  0  0  0  0  0  0  0  0  0  0
   -5.7210   23.8050  -31.2280 C   0  0  0  0  0  0  0  0  0  0  0  0
   -7.0940   23.5020  -31.1740 C   0  0  0  0  0  0  0  0  0  0  0  0
   -7.5740   22.2920  -31.6840 C   0  0  0  0  0  0  0  0  0  0  0  0
   -9.4400   21.8910  -31.5930 Br  0  0  0  0  0  0  0  0  0  0  0  0
   -6.6910   21.3780  -32.2620 C   0  0  0  0  0  0  0  0  0  0  0  0
   -5.3290   21.6720  -32.3350 C   0  0  0  0  0  0  0  0  0  0  0  0
   -4.8360   22.8800  -31.8200 C   0  0  0  0  0  0  0  0  0  0  0  0
   -3.4680   23.1520  -31.8830 O   0  0  0  0  0  0  0  0  0  0  0  0
   -4.8361   23.1907  -28.9676 H   0  0  0  0  0  0  0  0  0  0  0  0
   -3.6819   21.8668  -27.1959 H   0  0  0  0  0  0  0  0  0  0  0  0
   -1.3773   22.4911  -26.4677 H   0  0  0  0  0  0  0  0  0  0  0  0
   -0.2312   24.4541  -27.4974 H   0  0  0  0  0  0  0  0  0  0  0  0
   -7.7949   24.2225  -30.7272 H   0  0  0  0  0  0  0  0  0  0  0  0
   -7.0695   20.4250  -32.6603 H   0  0  0  0  0  0  0  0  0  0  0  0
   -4.6382   20.9526  -32.7989 H   0  0  0  0  0  0  0  0  0  0  0  0
   -3.0960   24.0630  -31.6430 H   0  0  0  0  0  0  0  0  0  0  0  0
  1  2  2  0
  2  3  1  0
  3  4  1  0
  4  5  2  0
  5  6  1  0
  6  7  2  0
  7  8  1  0
  8  9  2  0
  9 10  1  0
  2 11  1  0
 11 12  2  0
 12 13  1  0
 13 14  1  0
 13 15  2  0
 15 16  1  0
 16 17  2  0
 17 18  1  0
  9  4  1  0
 17 11  1  0
  5 19  1  0
  6 20  1  0
  7 21  1  0
  8 22  1  0
 12 23  1  0
 15 24  1  0
 16 25  1  0
 18 26  1  0
M  CHG  1   3  -1
M  END
>  <UniqueID>  (14) 
14

>  <SMILES>  (14) 
O=C([N-]c1ccccc1F)c1cc(Br)ccc1O

>  <Energy>  (14) 
35.4895688341626

>  <Genealogy>  (14) 
O=C([N-]c1ccccc1F)c1cc(Br)ccc1O (protonated)
O=C([N-]c1ccccc1F)c1cc(Br)ccc1O (3D coordinates assigned)
O=C([N-]c1ccccc1F)c1cc(Br)ccc1O (optimized conformer: 35.4895688341626 kcal/mol)

>  <smiles>  (14) 
O=C(Nc1ccccc1F)c1cc(Br)ccc1O

>  <score_type>  (14) 
oracle

>  <origin>  (14) 
adgpu

>  <m_score__min__energy>  (14) 
-8.9299999999999997

>  <m_primary>  (14) 
energy

$$$$
14:0
     RDKit          3D

 18 19  0  0  0  0  0  0  0  0999 V2000
   -8.9820   18.9370  -32.3390 Br  0  0  0  0  0  0  0  0  0  0  0  0
   -7.9490   20.4950  -31.9510 C   0  0  0  0  0  0  0  0  0  0  0  0
   -8.4410   21.4590  -31.0670 C   0  0  0  0  0  0  0  0  0  0  0  0
   -7.6870   22.6000  -30.7810 C   0  0  0  0  0  0  0  0  0  0  0  0
   -6.4270   22.7930  -31.3770 C   0  0  0  0  0  0  0  0  0  0  0  0
   -5.6380   24.0100  -31.0630 C   0  0  0  0  0  0  0  0  0  0  0  0
   -6.1210   25.2230  -30.6050 C   0  0  0  0  0  0  0  0  0  0  0  0
   -4.9980   26.0080  -30.4720 C   0  0  0  0  0  0  0  0  0  0  0  0
   -3.9100   25.3020  -30.8310 N   0  0  0  0  0  0  0  0  0  0  0  0
   -4.2980   24.0880  -31.1900 N   0  0  0  0  0  0  0  0  0  0  0  0
   -5.9410   21.8150  -32.2660 C   0  0  0  0  0  0  0  0  0  0  0  0
   -6.6990   20.6750  -32.5490 C   0  0  0  0  0  0  0  0  0  0  0  0
   -9.4247   21.3191  -30.5950 H   0  0  0  0  0  0  0  0  0  0  0  0
   -8.0817   23.3539  -30.0840 H   0  0  0  0  0  0  0  0  0  0  0  0
   -7.1652   25.4977  -30.3949 H   0  0  0  0  0  0  0  0  0  0  0  0
   -4.9910   27.0520  -30.1255 H   0  0  0  0  0  0  0  0  0  0  0  0
   -4.9580   21.9490  -32.7411 H   0  0  0  0  0  0  0  0  0  0  0  0
   -6.3101   19.9170  -33.2449 H   0  0  0  0  0  0  0  0  0  0  0  0
  1  2  1  0
  2  3  2  0
  3  4  1  0
  4  5  2  0
  5  6  1  0
  6  7  1  0
  7  8  2  0
  8  9  1  0
  9 10  1  0
  5 11  1  0
 11 12  2  0
 12  2  1  0
 10  6  2  0
  3 13  1  0
  4 14  1  0
  7 15  1  0
  8 16  1  0
 11 17  1  0
 12 18  1  0
M  CHG  1   9  -1
M  END
>  <UniqueID>  (15) 
15

>  <SMILES>  (15) 
Brc1ccc(-c2cc[n-]n2)cc1

>  <Energy>  (15) 
49.044277221718474

>  <Genealogy>  (15) 
Brc1ccc(-c2cc[n-]n2)cc1 (protonated)
Brc1ccc(-c2cc[n-]n2)cc1 (3D coordinates assigned)
Brc1ccc(-c2cc[n-]n2)cc1 (optimized conformer: 49.044277221718474 kcal/mol)

>  <smiles>  (15) 
Brc1ccc(-c2cc[nH]n2)cc1

>  <score_type>  (15) 
oracle

>  <origin>  (15) 
adgpu

>  <m_score__min__energy>  (15) 
-8.5500000000000007

>  <m_primary>  (15) 
energy

$$$$
15:0
     RDKit          3D

 26 28  0  0  0  0  0  0  0  0999 V2000
   -8.9560   23.2870  -31.9650 C   0  0  0  0  0  0  0  0  0  0  0  0
   -7.4770   23.0070  -31.9050 C   0  0  0  0  0  0  0  0  0  0  0  0
   -6.6020   24.0320  -31.5160 C   0  0  0  0  0  0  0  0  0  0  0  0
   -5.2280   23.8020  -31.4110 C   0  0  0  0  0  0  0  0  0  0  0  0
   -4.4060   24.8550  -31.0040 O   0  0  0  0  0  0  0  0  0  0  0  0
   -4.7080   22.5320  -31.7140 C   0  0  0  0  0  0  0  0  0  0  0  0
   -2.9820   22.2030  -31.5920 Cl  0  0  0  0  0  0  0  0  0  0  0  0
   -5.5690   21.5100  -32.1360 C   0  0  0  0  0  0  0  0  0  0  0  0
   -6.9550   21.7320  -32.2330 C   0  0  0  0  0  0  0  0  0  0  0  0
   -7.8720   20.5590  -32.5290 C   0  0  2  0  0  0  0  0  0  0  0  0
   -8.2160   19.9080  -31.3280 O   0  0  0  0  0  0  0  0  0  0  0  0
   -7.6020   18.7140  -31.7590 C   0  0  0  0  0  0  0  0  0  0  0  0
   -7.2190   19.3070  -33.0960 C   0  0  2  0  0  0  0  0  0  0  0  0
   -5.7100   19.3850  -33.3660 C   0  0  0  0  0  0  0  0  0  0  0  0
   -5.0480   20.2570  -32.4570 O   0  0  0  0  0  0  0  0  0  0  0  0
   -9.3566   23.3628  -30.9433 H   0  0  0  0  0  0  0  0  0  0  0  0
   -9.1286   24.2338  -32.4977 H   0  0  0  0  0  0  0  0  0  0  0  0
   -9.4628   22.4688  -32.4977 H   0  0  0  0  0  0  0  0  0  0  0  0
   -7.0033   25.0310  -31.2904 H   0  0  0  0  0  0  0  0  0  0  0  0
   -4.2200   25.6620  -31.5850 H   0  0  0  0  0  0  0  0  0  0  0  0
   -8.6217   21.0456  -33.1702 H   0  0  0  0  0  0  0  0  0  0  0  0
   -6.7371   18.4202  -31.1462 H   0  0  0  0  0  0  0  0  0  0  0  0
   -8.1827   17.7800  -31.7383 H   0  0  0  0  0  0  0  0  0  0  0  0
   -7.4899   18.8733  -34.0699 H   0  0  0  0  0  0  0  0  0  0  0  0
   -5.2796   18.3774  -33.2682 H   0  0  0  0  0  0  0  0  0  0  0  0
   -5.5677   19.7829  -34.3816 H   0  0  0  0  0  0  0  0  0  0  0  0
  1  2  1  0
  2  3  2  0
  3  4  1  0
  4  5  1  0
  4  6  2  0
  6  7  1  0
  6  8  1  0
  8  9  2  0
  9 10  1  0
 10 11  1  0
 11 12  1  0
 12 13  1  0
 13 14  1  0
 14 15  1  0
  9  2  1  0
 13 10  1  0
 15  8  1  0
  1 16  1  0
  1 17  1  0
  1 18  1  0
  3 19  1  0
  5 20  1  0
 10 21  1  6
 12 22  1  0
 12 23  1  0
 13 24  1  6
 14 25  1  0
 14 26  1  0
M  END
>  <UniqueID>  (16) 
16

>  <SMILES>  (16) 
Cc1cc(O)c(Cl)c2c1[C@@H]1OC[C@@H]1CO2

>  <Energy>  (16) 
97.29692978016459

>  <Genealogy>  (16) 
Cc1cc(O)c(Cl)c2c1[C@@H]1OC[C@@H]1CO2 (chirality)
Cc1cc(O)c(Cl)c2c1[C@@H]1OC[C@@H]1CO2 (3D coordinates assigned)
Cc1cc(O)c(Cl)c2c1[C@@H]1OC[C@@H]1CO2 (nonaromatic ring conformer: 97.29692978016459 kcal/mol)

>  <smiles>  (16) 
Cc1cc(O)c(Cl)c2c1C1OCC1CO2

>  <score_type>  (16) 
oracle

>  <origin>  (16) 
adgpu

>  <m_score__min__energy>  (16) 
-7.0999999999999996

>  <m_primary>  (16) 
energy

$$$$
16:0
     RDKit          3D

 17 18  0  0  0  0  0  0  0  0999 V2000
   -0.3500   25.3260  -28.3070 O   0  0  0  0  0  0  0  0  0  0  0  0
   -1.4000   24.6930  -28.5910 C   0  0  0  0  0  0  0  0  0  0  0  0
   -1.5730   23.3830  -28.1350 C   0  0  0  0  0  0  0  0  0  0  0  0
   -2.7420   22.6850  -28.4540 C   0  0  0  0  0  0  0  0  0  0  0  0
   -2.9150   21.0370  -27.8570 Cl  0  0  0  0  0  0  0  0  0  0  0  0
   -3.7350   23.3120  -29.2360 C   0  0  0  0  0  0  0  0  0  0  0  0
   -4.9340   22.6650  -29.5920 C   0  0  0  0  0  0  0  0  0  0  0  0
   -5.8880   23.3290  -30.3690 C   0  0  0  0  0  0  0  0  0  0  0  0
   -5.6610   24.6390  -30.7960 C   0  0  0  0  0  0  0  0  0  0  0  0
   -4.4770   25.2940  -30.4510 C   0  0  0  0  0  0  0  0  0  0  0  0
   -3.5140   24.6410  -29.6740 C   0  0  0  0  0  0  0  0  0  0  0  0
   -2.3630   25.2860  -29.3420 N   0  0  0  0  0  0  0  0  0  0  0  0
   -0.7921   22.9027  -27.5272 H   0  0  0  0  0  0  0  0  0  0  0  0
   -5.1206   21.6338  -29.2577 H   0  0  0  0  0  0  0  0  0  0  0  0
   -6.8217   22.8171  -30.6452 H   0  0  0  0  0  0  0  0  0  0  0  0
   -6.4166   25.1562  -31.4056 H   0  0  0  0  0  0  0  0  0  0  0  0
   -4.3011   26.3253  -30.7908 H   0  0  0  0  0  0  0  0  0  0  0  0
  1  2  2  0
  2  3  1  0
  3  4  2  0
  4  5  1  0
  4  6  1  0
  6  7  2  0
  7  8  1  0
  8  9  2  0
  9 10  1  0
 10 11  2  0
 11 12  1  0
 12  2  1  0
 11  6  1  0
  3 13  1  0
  7 14  1  0
  8 15  1  0
  9 16  1  0
 10 17  1  0
M  CHG  1  12  -1
M  END
>  <UniqueID>  (17) 
17

>  <SMILES>  (17) 
O=c1cc(Cl)c2ccccc2[n-]1

>  <Energy>  (17) 
22.858247049790506

>  <Genealogy>  (17) 
O=c1cc(Cl)c2ccccc2[n-]1 (protonated)
O=c1cc(Cl)c2ccccc2[n-]1 (3D coordinates assigned)
O=c1cc(Cl)c2ccccc2[n-]1 (optimized conformer: 22.858247049790506 kcal/mol)

>  <smiles>  (17) 
O=c1cc(Cl)c2ccccc2[nH]1

>  <score_type>  (17) 
oracle

>  <origin>  (17) 
adgpu

>  <m_score__min__energy>  (17) 
-7.0099999999999998

>  <m_primary>  (17) 
energy

$$$$
17:0
     RDKit          3D

 24 25  0  0  0  0  0  0  0  0999 V2000
   -6.9870   15.3130  -34.5550 N   0  0  0  0  0  0  0  0  0  0  0  0
   -6.8650   16.3570  -34.0730 C   0  0  0  0  0  0  0  0  0  0  0  0
   -6.7110   17.6570  -33.4720 C   0  0  0  0  0  0  0  0  0  0  0  0
   -7.5480   18.0460  -32.4220 C   0  0  0  0  0  0  0  0  0  0  0  0
   -7.4040   19.3080  -31.8410 C   0  0  0  0  0  0  0  0  0  0  0  0
   -6.4220   20.2000  -32.3050 C   0  0  0  0  0  0  0  0  0  0  0  0
   -6.3350   21.5450  -31.6950 C   0  0  0  0  0  0  0  0  0  0  0  0
   -7.4870   22.3320  -31.5450 C   0  0  0  0  0  0  0  0  0  0  0  0
   -7.4070   23.5920  -30.9480 C   0  0  0  0  0  0  0  0  0  0  0  0
   -6.1780   24.0780  -30.4870 C   0  0  0  0  0  0  0  0  0  0  0  0
   -6.1170   25.6690  -29.7410 Cl  0  0  0  0  0  0  0  0  0  0  0  0
   -5.0220   23.2910  -30.6230 C   0  0  0  0  0  0  0  0  0  0  0  0
   -3.4590   23.8600  -30.0520 Cl  0  0  0  0  0  0  0  0  0  0  0  0
   -5.1050   22.0280  -31.2210 C   0  0  0  0  0  0  0  0  0  0  0  0
   -5.5590   19.7940  -33.3500 C   0  0  0  0  0  0  0  0  0  0  0  0
   -4.5220   20.6060  -33.8140 O   0  0  0  0  0  0  0  0  0  0  0  0
   -5.7210   18.5310  -33.9330 C   0  0  0  0  0  0  0  0  0  0  0  0
   -8.3216   17.3568  -32.0526 H   0  0  0  0  0  0  0  0  0  0  0  0
   -8.0646   19.6062  -31.0135 H   0  0  0  0  0  0  0  0  0  0  0  0
   -8.4576   21.9547  -31.8993 H   0  0  0  0  0  0  0  0  0  0  0  0
   -8.3138   24.2052  -30.8396 H   0  0  0  0  0  0  0  0  0  0  0  0
   -4.2005   21.4099  -31.3202 H   0  0  0  0  0  0  0  0  0  0  0  0
   -4.6750   21.5260  -34.2060 H   0  0  0  0  0  0  0  0  0  0  0  0
   -5.0643   18.2238  -34.7603 H   0  0  0  0  0  0  0  0  0  0  0  0
  1  2  3  0
  2  3  1  0
  3  4  2  0
  4  5  1  0
  5  6  2  0
  6  7  1  0
  7  8  2  0
  8  9  1  0
  9 10  2  0
 10 11  1  0
 10 12  1  0
 12 13  1  0
 12 14  2  0
  6 15  1  0
 15 16  1  0
 15 17  2  0
 17  3  1  0
 14  7  1  0
  4 18  1  0
  5 19  1  0
  8 20  1  0
  9 21  1  0
 14 22  1  0
 16 23  1  0
 17 24  1  0
M  END
>  <UniqueID>  (18) 
18

>  <SMILES>  (18) 
N#Cc1ccc(-c2ccc(Cl)c(Cl)c2)c(O)c1

>  <Energy>  (18) 
32.605542399830426

>  <Genealogy>  (18) 
N#Cc1ccc(-c2ccc(Cl)c(Cl)c2)c(O)c1 (3D coordinates assigned)
N#Cc1ccc(-c2ccc(Cl)c(Cl)c2)c(O)c1 (optimized conformer: 32.605542399830426 kcal/mol)

>  <smiles>  (18) 
N#Cc1ccc(-c2ccc(Cl)c(Cl)c2)c(O)c1

>  <score_type>  (18) 
oracle

>  <origin>  (18) 
adgpu

>  <m_score__min__energy>  (18) 
-7.8200000000000003

>  <m_primary>  (18) 
energy

$$$$
18:0
     RDKit          3D

 28 28  0  0  0  0  0  0  0  0999 V2000
   -8.2260   19.5550  -32.0990 C   0  0  0  0  0  0  0  0  0  0  0  0
   -7.9570   21.0500  -31.9440 C   0  0  0  0  0  0  0  0  0  0  0  0
   -6.5020   21.3150  -31.5180 C   0  0  0  0  0  0  0  0  0  0  0  0
   -6.2230   22.7110  -30.9690 C   0  0  0  0  0  0  0  0  0  0  0  0
   -7.2350   23.4310  -30.2980 C   0  0  0  0  0  0  0  0  0  0  0  0
   -6.9950   24.7060  -29.7950 C   0  0  0  0  0  0  0  0  0  0  0  0
   -5.7500   25.2990  -29.9550 C   0  0  0  0  0  0  0  0  0  0  0  0
   -4.7300   24.6380  -30.6400 C   0  0  0  0  0  0  0  0  0  0  0  0
   -3.5020   25.2970  -30.7470 O   0  0  0  0  0  0  0  0  0  0  0  0
   -4.9620   23.3480  -31.1930 C   0  0  0  0  0  0  0  0  0  0  0  0
   -3.8700   22.6660  -32.0000 C   0  0  0  0  0  0  0  0  0  0  0  0
   -2.8280   22.0230  -31.0870 C   0  0  0  0  0  0  0  0  0  0  0  0
   -8.3092   19.0924  -31.1045 H   0  0  0  0  0  0  0  0  0  0  0  0
   -9.1652   19.4068  -32.6521 H   0  0  0  0  0  0  0  0  0  0  0  0
   -7.3973   19.0887  -32.6521 H   0  0  0  0  0  0  0  0  0  0  0  0
   -8.1455   21.5496  -32.9057 H   0  0  0  0  0  0  0  0  0  0  0  0
   -8.6246   21.4439  -31.1635 H   0  0  0  0  0  0  0  0  0  0  0  0
   -6.2387   20.5852  -30.7382 H   0  0  0  0  0  0  0  0  0  0  0  0
   -5.8977   21.2235  -32.4326 H   0  0  0  0  0  0  0  0  0  0  0  0
   -8.2288   22.9770  -30.1708 H   0  0  0  0  0  0  0  0  0  0  0  0
   -7.7953   25.2464  -29.2683 H   0  0  0  0  0  0  0  0  0  0  0  0
   -5.5659   26.2999  -29.5376 H   0  0  0  0  0  0  0  0  0  0  0  0
   -3.1200   25.6510  -31.6130 H   0  0  0  0  0  0  0  0  0  0  0  0
   -4.3234   21.8874  -32.6310 H   0  0  0  0  0  0  0  0  0  0  0  0
   -3.3694   23.4247  -32.6195 H   0  0  0  0  0  0  0  0  0  0  0  0
   -3.1054   22.1942  -30.0364 H   0  0  0  0  0  0  0  0  0  0  0  0
   -2.7857   20.9415  -31.2835 H   0  0  0  0  0  0  0  0  0  0  0  0
   -1.8424   22.4702  -31.2835 H   0  0  0  0  0  0  0  0  0  0  0  0
  1  2  1  0
  2  3  1  0
  3  4  1  0
  4  5  2  0
  5  6  1  0
  6  7  2  0
  7  8  1  0
  8  9  1  0
  8 10  2  0
 10 11  1  0
 11 12  1  0
 10  4  1  0
  1 13  1  0
  1 14  1  0
  1 15  1  0
  2 16  1  0
  2 17  1  0
  3 18  1  0
  3 19  1  0
  5 20  1  0
  6 21  1  0
  7 22  1  0
  9 23  1  0
 11 24  1  0
 11 25  1  0
 12 26  1  0
 12 27  1  0
 12 28  1  0
M  END
>  <UniqueID>  (19) 
19

>  <SMILES>  (19) 
CCCc1cccc(O)c1CC

>  <Energy>  (19) 
26.2927570421798

>  <Genealogy>  (19) 
CCCc1cccc(O)c1CC (3D coordinates assigned)
CCCc1cccc(O)c1CC (optimized conformer: 26.2927570421798 kcal/mol)

>  <smiles>  (19) 
CCCc1cccc(O)c1CC

>  <score_type>  (19) 
oracle

>  <origin>  (19) 
adgpu

>  <m_score__min__energy>  (19) 
-6.54

>  <m_primary>  (19) 
energy

$$$$
19:0
     RDKit          3D

 34 36  0  0  0  0  0  0  0  0999 V2000
   -5.9600   17.9440  -33.9090 C   0  0  0  0  0  0  0  0  0  0  0  0
   -6.8530   18.9050  -33.1790 C   0  0  0  0  0  0  0  0  0  0  0  0
   -7.9630   18.4320  -32.4640 C   0  0  0  0  0  0  0  0  0  0  0  0
   -8.7730   19.3230  -31.7570 C   0  0  0  0  0  0  0  0  0  0  0  0
   -8.4730   20.6870  -31.7450 C   0  0  0  0  0  0  0  0  0  0  0  0
   -7.3530   21.1780  -32.4350 C   0  0  0  0  0  0  0  0  0  0  0  0
   -7.0630   22.5890  -32.3870 N   0  0  0  0  0  0  0  0  0  0  0  0
   -7.2180   23.4260  -31.1970 C   0  0  0  0  0  0  0  0  0  0  0  0
   -5.9030   24.0130  -30.8000 C   0  0  0  0  0  0  0  0  0  0  0  0
   -5.1750   23.5930  -29.7470 N   0  0  0  0  0  0  0  0  0  0  0  0
   -4.1120   24.4230  -29.8120 C   0  0  0  0  0  0  0  0  0  0  0  0
   -2.9950   24.3850  -28.8550 C   0  0  0  0  0  0  0  0  0  0  0  0
   -2.9540   23.4310  -27.8240 C   0  0  0  0  0  0  0  0  0  0  0  0
   -1.8750   23.4270  -26.9380 C   0  0  0  0  0  0  0  0  0  0  0  0
   -0.8510   24.3650  -27.0830 C   0  0  0  0  0  0  0  0  0  0  0  0
   -0.9240   25.2980  -28.1180 C   0  0  0  0  0  0  0  0  0  0  0  0
   -1.9820   25.2880  -28.9720 N   0  0  0  0  0  0  0  0  0  0  0  0
   -4.1950   25.2870  -30.8450 N   0  0  0  0  0  0  0  0  0  0  0  0
   -5.3170   25.0000  -31.4310 O   0  0  0  0  0  0  0  0  0  0  0  0
   -6.5440   20.2740  -33.1520 C   0  0  0  0  0  0  0  0  0  0  0  0
   -5.3986   17.3399  -33.1811 H   0  0  0  0  0  0  0  0  0  0  0  0
   -6.5715   17.2826  -34.5404 H   0  0  0  0  0  0  0  0  0  0  0  0
   -5.2556   18.5054  -34.5404 H   0  0  0  0  0  0  0  0  0  0  0  0
   -8.1960   17.3570  -32.4602 H   0  0  0  0  0  0  0  0  0  0  0  0
   -9.6499   18.9495  -31.2079 H   0  0  0  0  0  0  0  0  0  0  0  0
   -9.1197   21.3827  -31.1902 H   0  0  0  0  0  0  0  0  0  0  0  0
   -6.7380   23.0610  -33.2610 H   0  0  0  0  0  0  0  0  0  0  0  0
   -7.9269   24.2384  -31.4148 H   0  0  0  0  0  0  0  0  0  0  0  0
   -7.5967   22.8062  -30.3709 H   0  0  0  0  0  0  0  0  0  0  0  0
   -3.7640   22.6947  -27.7161 H   0  0  0  0  0  0  0  0  0  0  0  0
   -1.8317   22.6856  -26.1265 H   0  0  0  0  0  0  0  0  0  0  0  0
    0.0030   24.3684  -26.3897 H   0  0  0  0  0  0  0  0  0  0  0  0
   -0.1243   26.0428  -28.2432 H   0  0  0  0  0  0  0  0  0  0  0  0
   -5.6623   20.6445  -33.6955 H   0  0  0  0  0  0  0  0  0  0  0  0
  1  2  1  0
  2  3  2  0
  3  4  1  0
  4  5  2  0
  5  6  1  0
  6  7  1  0
  7  8  1  0
  8  9  1  0
  9 10  2  0
 10 11  1  0
 11 12  1  0
 12 13  2  0
 13 14  1  0
 14 15  2  0
 15 16  1  0
 16 17  2  0
 11 18  2  0
 18 19  1  0
  6 20  2  0
 20  2  1  0
 19  9  1  0
 17 12  1  0
  1 21  1  0
  1 22  1  0
  1 23  1  0
  3 24  1  0
  4 25  1  0
  5 26  1  0
  7 27  1  0
  8 28  1  0
  8 29  1  0
 13 30  1  0
 14 31  1  0
 15 32  1  0
 16 33  1  0
 20 34  1  0
M  END
>  <UniqueID>  (20) 
20

>  <SMILES>  (20) 
Cc1cccc(NCc2nc(-c3ccccn3)no2)c1

>  <Energy>  (20) 
67.4269840974899

>  <Genealogy>  (20) 
Cc1cccc(NCc2nc(-c3ccccn3)no2)c1 (3D coordinates assigned)
Cc1cccc(NCc2nc(-c3ccccn3)no2)c1 (optimized conformer: 67.4269840974899 kcal/mol)

>  <smiles>  (20) 
Cc1cccc(NCc2nc(-c3ccccn3)no2)c1

>  <score_type>  (20) 
oracle

>  <origin>  (20) 
adgpu

>  <m_score__min__energy>  (20) 
-8.5999999999999996

>  <m_primary>  (20) 
energy

$$$$
20:0
     RDKit          3D

 42 42  0  0  0  0  0  0  0  0999 V2000
   -7.1870   17.4790  -32.3600 C   0  0  0  0  0  0  0  0  0  0  0  0
   -8.1060   18.5390  -31.7660 C   0  0  0  0  0  0  0  0  0  0  0  0
   -7.6920   19.8780  -32.2440 N   0  0  0  0  0  0  0  0  0  0  0  0
   -8.7910   20.8660  -32.2910 C   0  0  0  0  0  0  0  0  0  0  0  0
   -8.9760   21.5460  -30.9370 C   0  0  0  0  0  0  0  0  0  0  0  0
   -6.8730   19.8480  -33.4800 C   0  0  0  0  0  0  0  0  0  0  0  0
   -5.3720   20.1420  -33.2720 C   0  0  0  0  0  0  0  0  0  0  0  0
   -5.1190   20.6730  -31.9210 N   0  0  0  0  0  0  0  0  0  0  0  0
   -4.3440   21.9220  -31.9280 C   0  0  0  0  0  0  0  0  0  0  0  0
   -5.0420   23.0280  -31.1800 C   0  0  0  0  0  0  0  0  0  0  0  0
   -6.4160   23.8320  -31.7260 S   0  0  0  0  0  0  0  0  0  0  0  0
   -6.5070   24.9430  -30.4670 C   0  0  0  0  0  0  0  0  0  0  0  0
   -5.4540   24.7020  -29.5960 C   0  0  0  0  0  0  0  0  0  0  0  0
   -4.6360   23.6300  -29.9860 C   0  0  0  0  0  0  0  0  0  0  0  0
   -3.5010   23.2020  -29.2160 N   0  0  0  0  0  0  0  0  0  0  0  0
   -3.6800   22.6760  -27.8630 C   0  0  0  0  0  0  0  0  0  0  0  0
   -2.1510   23.4250  -29.7330 C   0  0  0  0  0  0  0  0  0  0  0  0
   -6.7009   16.9184  -31.5479 H   0  0  0  0  0  0  0  0  0  0  0  0
   -7.7769   16.7883  -32.9805 H   0  0  0  0  0  0  0  0  0  0  0  0
   -6.4196   17.9650  -32.9805 H   0  0  0  0  0  0  0  0  0  0  0  0
   -9.1421   18.3425  -32.0789 H   0  0  0  0  0  0  0  0  0  0  0  0
   -8.0409   18.5061  -30.6684 H   0  0  0  0  0  0  0  0  0  0  0  0
   -8.5559   21.6293  -33.0474 H   0  0  0  0  0  0  0  0  0  0  0  0
   -9.7225   20.3408  -32.5487 H   0  0  0  0  0  0  0  0  0  0  0  0
   -8.7789   20.8217  -30.1329 H   0  0  0  0  0  0  0  0  0  0  0  0
   -8.2745   22.3890  -30.8512 H   0  0  0  0  0  0  0  0  0  0  0  0
  -10.0078   21.9174  -30.8512 H   0  0  0  0  0  0  0  0  0  0  0  0
   -6.9665   18.8476  -33.9277 H   0  0  0  0  0  0  0  0  0  0  0  0
   -7.2583   20.6513  -34.1251 H   0  0  0  0  0  0  0  0  0  0  0  0
   -4.8015   19.2110  -33.4050 H   0  0  0  0  0  0  0  0  0  0  0  0
   -5.0577   20.8959  -34.0088 H   0  0  0  0  0  0  0  0  0  0  0  0
   -6.0290   20.8320  -31.4260 H   0  0  0  0  0  0  0  0  0  0  0  0
   -3.3679   21.7361  -31.4561 H   0  0  0  0  0  0  0  0  0  0  0  0
   -4.2280   22.2421  -32.9740 H   0  0  0  0  0  0  0  0  0  0  0  0
   -7.2705   25.7266  -30.3533 H   0  0  0  0  0  0  0  0  0  0  0  0
   -5.2771   25.2947  -28.6864 H   0  0  0  0  0  0  0  0  0  0  0  0
   -3.4158   23.4523  -27.1299 H   0  0  0  0  0  0  0  0  0  0  0  0
   -4.7297   22.3794  -27.7208 H   0  0  0  0  0  0  0  0  0  0  0  0
   -3.0291   21.8007  -27.7208 H   0  0  0  0  0  0  0  0  0  0  0  0
   -1.4509   23.5406  -28.8924 H   0  0  0  0  0  0  0  0  0  0  0  0
   -1.8470   22.5649  -30.3477 H   0  0  0  0  0  0  0  0  0  0  0  0
   -2.1398   24.3372  -30.3477 H   0  0  0  0  0  0  0  0  0  0  0  0
  1  2  1  0
  2  3  1  0
  3  4  1  0
  4  5  1  0
  3  6  1  0
  6  7  1  0
  7  8  1  0
  8  9  1  0
  9 10  1  0
 10 11  1  0
 11 12  1  0
 12 13  2  0
 13 14  1  0
 14 15  1  0
 15 16  1  0
 15 17  1  0
 14 10  2  0
  1 18  1  0
  1 19  1  0
  1 20  1  0
  2 21  1  0
  2 22  1  0
  4 23  1  0
  4 24  1  0
  5 25  1  0
  5 26  1  0
  5 27  1  0
  6 28  1  0
  6 29  1  0
  7 30  1  0
  7 31  1  0
  8 32  1  0
  9 33  1  0
  9 34  1  0
 12 35  1  0
 13 36  1  0
 16 37  1  0
 16 38  1  0
 16 39  1  0
 17 40  1  0
 17 41  1  0
 17 42  1  0
M  END
>  <UniqueID>  (21) 
21

>  <SMILES>  (21) 
CCN(CC)CCNCc1sccc1N(C)C

>  <Energy>  (21) 
68.33362716632608

>  <Genealogy>  (21) 
CCN(CC)CCNCc1sccc1N(C)C (3D coordinates assigned)
CCN(CC)CCNCc1sccc1N(C)C (optimized conformer: 68.33362716632608 kcal/mol)

>  <smiles>  (21) 
CCN(CC)CCNCc1sccc1N(C)C

>  <score_type>  (21) 
oracle

>  <origin>  (21) 
adgpu

>  <m_score__min__energy>  (21) 
-6.2300000000000004

>  <m_primary>  (21) 
energy

$$$$
21:0
     RDKit          3D

 53 55  0  0  0  0  0  0  0  0999 V2000
   -1.2860   21.0280  -26.5160 C   0  0  0  0  0  0  0  0  0  0  0  0
   -0.5330   22.0730  -27.3350 C   0  0  0  0  0  0  0  0  0  0  0  0
    0.8850   22.2720  -26.8030 C   0  0  0  0  0  0  0  0  0  0  0  0
    1.1550   23.7000  -26.6570 N   0  0  0  0  0  0  0  0  0  0  0  0
    0.7400   24.2140  -25.0510 S   0  0  0  0  0  0  0  0  0  0  0  0
    1.9580   24.0930  -24.1780 O   0  0  0  0  0  0  0  0  0  0  0  0
   -0.3210   23.3080  -24.4940 O   0  0  0  0  0  0  0  0  0  0  0  0
    0.2280   25.9150  -25.0680 C   0  0  0  0  0  0  0  0  0  0  0  0
    0.9280   26.8070  -24.2410 C   0  0  0  0  0  0  0  0  0  0  0  0
    0.6030   28.1710  -24.2120 C   0  0  0  0  0  0  0  0  0  0  0  0
    1.3860   29.1160  -23.3500 C   0  0  0  0  0  0  0  0  0  0  0  0
   -0.4080   28.6550  -25.0500 C   0  0  0  0  0  0  0  0  0  0  0  0
   -1.1080   27.7830  -25.8830 C   0  0  0  0  0  0  0  0  0  0  0  0
   -0.8050   26.4130  -25.9010 C   0  0  0  0  0  0  0  0  0  0  0  0
   -1.5780   25.5490  -26.8090 C   0  0  0  0  0  0  0  0  0  0  0  0
   -2.7540   24.9310  -26.3610 C   0  0  0  0  0  0  0  0  0  0  0  0
   -3.4940   24.1210  -27.2270 C   0  0  0  0  0  0  0  0  0  0  0  0
   -3.0700   23.9170  -28.5490 C   0  0  0  0  0  0  0  0  0  0  0  0
   -3.8560   23.0890  -29.4240 N   0  0  0  0  0  0  0  0  0  0  0  0
   -4.7580   23.6100  -30.4160 C   0  0  0  0  0  0  0  0  0  0  0  0
   -4.6030   24.7860  -30.8440 O   0  0  0  0  0  0  0  0  0  0  0  0
   -5.8380   22.7640  -30.9790 C   0  0  0  0  0  0  0  0  0  0  0  0
   -5.5870   21.8910  -32.0530 C   0  0  0  0  0  0  0  0  0  0  0  0
   -6.6110   21.0920  -32.5720 C   0  0  0  0  0  0  0  0  0  0  0  0
   -7.8960   21.1510  -32.0240 C   0  0  0  0  0  0  0  0  0  0  0  0
   -8.9490   20.3280  -32.5600 C   0  0  0  0  0  0  0  0  0  0  0  0
   -9.7940   19.6660  -32.9890 N   0  0  0  0  0  0  0  0  0  0  0  0
   -8.1540   22.0090  -30.9490 C   0  0  0  0  0  0  0  0  0  0  0  0
   -7.1320   22.8080  -30.4270 C   0  0  0  0  0  0  0  0  0  0  0  0
   -1.9120   24.5740  -29.0050 C   0  0  0  0  0  0  0  0  0  0  0  0
   -1.1740   25.3870  -28.1410 C   0  0  0  0  0  0  0  0  0  0  0  0
   -1.1416   21.2284  -25.4441 H   0  0  0  0  0  0  0  0  0  0  0  0
   -2.3582   21.0763  -26.7568 H   0  0  0  0  0  0  0  0  0  0  0  0
   -0.9009   20.0262  -26.7568 H   0  0  0  0  0  0  0  0  0  0  0  0
   -0.4803   21.7393  -28.3818 H   0  0  0  0  0  0  0  0  0  0  0  0
   -1.0713   23.0294  -27.2605 H   0  0  0  0  0  0  0  0  0  0  0  0
    0.9820   21.7787  -25.8246 H   0  0  0  0  0  0  0  0  0  0  0  0
    1.6059   21.8331  -27.5084 H   0  0  0  0  0  0  0  0  0  0  0  0
    1.7437   26.4307  -23.6061 H   0  0  0  0  0  0  0  0  0  0  0  0
    1.1971   28.8880  -22.2906 H   0  0  0  0  0  0  0  0  0  0  0  0
    2.4592   29.0035  -23.5636 H   0  0  0  0  0  0  0  0  0  0  0  0
    1.0760   30.1496  -23.5636 H   0  0  0  0  0  0  0  0  0  0  0  0
   -0.6514   29.7277  -25.0515 H   0  0  0  0  0  0  0  0  0  0  0  0
   -1.9056   28.1729  -26.5324 H   0  0  0  0  0  0  0  0  0  0  0  0
   -3.0948   25.0838  -25.3264 H   0  0  0  0  0  0  0  0  0  0  0  0
   -4.4161   23.6396  -26.8693 H   0  0  0  0  0  0  0  0  0  0  0  0
   -3.6730   22.0610  -29.4170 H   0  0  0  0  0  0  0  0  0  0  0  0
   -4.5781   21.8363  -32.4879 H   0  0  0  0  0  0  0  0  0  0  0  0
   -6.4047   20.4150  -33.4141 H   0  0  0  0  0  0  0  0  0  0  0  0
   -9.1631   22.0550  -30.5136 H   0  0  0  0  0  0  0  0  0  0  0  0
   -7.3409   23.4761  -29.5784 H   0  0  0  0  0  0  0  0  0  0  0  0
   -1.5860   24.4467  -30.0478 H   0  0  0  0  0  0  0  0  0  0  0  0
   -0.2733   25.9013  -28.5074 H   0  0  0  0  0  0  0  0  0  0  0  0
  1  2  1  0
  2  3  1  0
  3  4  1  0
  4  5  1  0
  5  6  2  0
  5  7  2  0
  5  8  1  0
  8  9  2  0
  9 10  1  0
 10 11  1  0
 10 12  2  0
 12 13  1  0
 13 14  2  0
 14 15  1  0
 15 16  2  0
 16 17  1  0
 17 18  2  0
 18 19  1  0
 19 20  1  0
 20 21  2  0
 20 22  1  0
 22 23  2  0
 23 24  1  0
 24 25  2  0
 25 26  1  0
 26 27  3  0
 25 28  1  0
 28 29  2  0
 18 30  1  0
 30 31  2  0
 14  8  1  0
 31 15  1  0
 29 22  1  0
  1 32  1  0
  1 33  1  0
  1 34  1  0
  2 35  1  0
  2 36  1  0
  3 37  1  0
  3 38  1  0
  9 39  1  0
 11 40  1  0
 11 41  1  0
 11 42  1  0
 12 43  1  0
 13 44  1  0
 16 45  1  0
 17 46  1  0
 19 47  1  0
 23 48  1  0
 24 49  1  0
 28 50  1  0
 29 51  1  0
 30 52  1  0
 31 53  1  0
M  CHG  1   4  -1
M  END
>  <UniqueID>  (22) 
22

>  <SMILES>  (22) 
CCC[N-]S(=O)(=O)c1cc(C)ccc1-c1ccc(NC(=O)c2ccc(C#N)cc2)cc1

>  <Energy>  (22) 
61.16800404402525

>  <Genealogy>  (22) 
CCC[N-]S(=O)(=O)c1cc(C)ccc1-c1ccc(NC(=O)c2ccc(C#N)cc2)cc1 (protonated)
CCC[N-]S(=O)(=O)c1cc(C)ccc1-c1ccc(NC(=O)c2ccc(C#N)cc2)cc1 (3D coordinates assigned)
CCC[N-]S(=O)(=O)c1cc(C)ccc1-c1ccc(NC(=O)c2ccc(C#N)cc2)cc1 (optimized conformer: 61.16800404402525 kcal/mol)

>  <smiles>  (22) 
CCCNS(=O)(=O)c1cc(C)ccc1-c1ccc(NC(=O)c2ccc(C#N)cc2)cc1

>  <score_type>  (22) 
oracle

>  <origin>  (22) 
adgpu

>  <m_score__min__energy>  (22) 
-9.5700000000000003

>  <m_primary>  (22) 
energy

$$$$
22:0
     RDKit          3D

 38 39  0  0  1  0  0  0  0  0999 V2000
   -5.7570   25.6620  -30.3010 C   0  0  0  0  0  0  0  0  0  0  0  0
   -4.7230   24.7910  -30.8290 N   0  0  0  0  0  0  0  0  0  0  0  0
   -3.8560   24.4240  -29.7350 C   0  0  0  0  0  0  0  0  0  0  0  0
   -5.3330   23.6420  -31.4590 C   0  0  0  0  0  0  0  0  0  0  0  0
   -5.6260   22.5360  -30.4950 C   0  0  0  0  0  0  0  0  0  0  0  0
   -6.0170   21.3430  -31.2230 N   0  0  0  0  0  0  0  0  0  0  0  0
   -7.2700   21.2470  -31.5610 C   0  0  0  0  0  0  0  0  0  0  0  0
   -8.1460   22.2290  -31.2340 N   0  0  0  0  0  0  0  0  0  0  0  0
   -9.4580   22.1380  -31.5820 C   0  0  0  0  0  0  0  0  0  0  0  0
   -9.9020   21.0530  -32.2650 N   0  0  0  0  0  0  0  0  0  0  0  0
   -9.0350   20.0780  -32.5910 C   0  0  0  0  0  0  0  0  0  0  0  0
   -7.6960   20.1370  -32.2540 C   0  0  0  0  0  0  0  0  0  0  0  0
   -6.8130   19.0430  -32.6400 C   0  0  0  0  0  0  0  0  0  0  0  0
   -6.2580   19.1290  -33.9210 C   0  0  0  0  0  0  0  0  0  0  0  0
   -5.4060   18.1440  -34.3880 C   0  0  0  0  0  0  0  0  0  0  0  0
   -5.1260   17.0870  -33.5570 C   0  0  0  0  0  0  0  0  0  0  0  0
   -5.6770   17.0080  -32.2940 C   0  0  0  0  0  0  0  0  0  0  0  0
   -5.3610   15.8960  -31.4650 N   0  0  0  0  0  0  0  0  0  0  0  0
   -6.5330   17.9790  -31.8000 C   0  0  0  0  0  0  0  0  0  0  0  0
   -5.7297   25.6390  -29.2016 H   0  0  0  0  0  0  0  0  0  0  0  0
   -5.5839   26.6905  -30.6506 H   0  0  0  0  0  0  0  0  0  0  0  0
   -6.7411   25.3167  -30.6506 H   0  0  0  0  0  0  0  0  0  0  0  0
   -4.3596   24.6372  -28.7806 H   0  0  0  0  0  0  0  0  0  0  0  0
   -3.6239   23.3505  -29.7953 H   0  0  0  0  0  0  0  0  0  0  0  0
   -2.9237   25.0046  -29.7953 H   0  0  0  0  0  0  0  0  0  0  0  0
   -6.2767   23.9584  -31.9274 H   0  0  0  0  0  0  0  0  0  0  0  0
   -4.6183   23.2535  -32.1994 H   0  0  0  0  0  0  0  0  0  0  0  0
   -4.7263   22.3223  -29.8993 H   0  0  0  0  0  0  0  0  0  0  0  0
   -6.4464   22.8413  -29.8288 H   0  0  0  0  0  0  0  0  0  0  0  0
  -10.1574   22.9424  -31.3102 H   0  0  0  0  0  0  0  0  0  0  0  0
  -10.9200   20.9870  -32.5330 H   0  0  0  0  0  0  0  0  0  0  0  0
   -9.4046   19.2028  -33.1454 H   0  0  0  0  0  0  0  0  0  0  0  0
   -6.5013   19.9881  -34.5634 H   0  0  0  0  0  0  0  0  0  0  0  0
   -4.9662   18.2056  -35.3944 H   0  0  0  0  0  0  0  0  0  0  0  0
   -4.4515   16.2902  -33.9037 H   0  0  0  0  0  0  0  0  0  0  0  0
   -5.5660   15.8970  -30.4490 H   0  0  0  0  0  0  0  0  0  0  0  0
   -4.9140   15.0400  -31.8510 H   0  0  0  0  0  0  0  0  0  0  0  0
   -6.9678   17.9080  -30.7921 H   0  0  0  0  0  0  0  0  0  0  0  0
  1  2  1  0
  2  3  1  0
  2  4  1  0
  4  5  1  0
  5  6  1  0
  6  7  2  0
  7  8  1  0
  8  9  2  0
  9 10  1  0
 10 11  1  0
 11 12  2  0
 12 13  1  0
 13 14  2  0
 14 15  1  0
 15 16  2  0
 16 17  1  0
 17 18  1  0
 17 19  2  0
 12  7  1  0
 19 13  1  0
  1 20  1  0
  1 21  1  0
  1 22  1  0
  3 23  1  0
  3 24  1  0
  3 25  1  0
  4 26  1  0
  4 27  1  0
  5 28  1  0
  5 29  1  0
  9 30  1  0
 10 31  1  0
 11 32  1  0
 14 33  1  0
 15 34  1  0
 16 35  1  0
 18 36  1  0
 18 37  1  0
 19 38  1  0
M  END
>  <smiles>  (23) 
CN(C)CCN=c1nc[nH]cc1-c1cccc(N)c1

>  <score_type>  (23) 
oracle

>  <origin>  (23) 
adgpu

>  <m_score__min__energy>  (23) 
-6.9900000000000002

>  <m_primary>  (23) 
energy

$$$$
23:0
     RDKit          3D

 35 36  0  0  0  0  0  0  0  0999 V2000
   -6.1140   17.0500  -30.8940 C   0  0  0  0  0  0  0  0  0  0  0  0
   -5.6760   17.2570  -32.3210 C   0  0  0  0  0  0  0  0  0  0  0  0
   -4.5060   16.6180  -32.7690 C   0  0  0  0  0  0  0  0  0  0  0  0
   -4.0540   16.7980  -34.0760 C   0  0  0  0  0  0  0  0  0  0  0  0
   -4.7580   17.6220  -34.9520 C   0  0  0  0  0  0  0  0  0  0  0  0
   -5.9130   18.2770  -34.5220 C   0  0  0  0  0  0  0  0  0  0  0  0
   -6.3810   18.1170  -33.2050 C   0  0  0  0  0  0  0  0  0  0  0  0
   -7.6230   18.8680  -32.7750 C   0  0  0  0  0  0  0  0  0  0  0  0
   -7.5990   20.2480  -33.2630 N   0  0  0  0  0  0  0  0  0  0  0  0
   -7.0150   21.3500  -32.5380 C   0  0  0  0  0  0  0  0  0  0  0  0
   -5.6490   21.6630  -32.6760 C   0  0  0  0  0  0  0  0  0  0  0  0
   -5.0870   22.7290  -31.9710 C   0  0  0  0  0  0  0  0  0  0  0  0
   -5.8770   23.5020  -31.1150 C   0  0  0  0  0  0  0  0  0  0  0  0
   -5.1730   24.8550  -30.2340 S   0  0  0  0  0  0  0  0  0  0  0  0
   -4.9470   24.4090  -28.5800 N   0  0  0  0  0  0  0  0  0  0  0  0
   -3.8510   25.2250  -30.8460 O   0  0  0  0  0  0  0  0  0  0  0  0
   -6.0880   26.0450  -30.3110 O   0  0  0  0  0  0  0  0  0  0  0  0
   -7.2390   23.2120  -30.9810 C   0  0  0  0  0  0  0  0  0  0  0  0
   -7.8110   22.1450  -31.6840 C   0  0  0  0  0  0  0  0  0  0  0  0
   -9.5240   21.8190  -31.4460 Cl  0  0  0  0  0  0  0  0  0  0  0  0
   -5.3327   17.4193  -30.2134 H   0  0  0  0  0  0  0  0  0  0  0  0
   -7.0483   17.6019  -30.7135 H   0  0  0  0  0  0  0  0  0  0  0  0
   -6.2807   15.9778  -30.7135 H   0  0  0  0  0  0  0  0  0  0  0  0
   -3.9420   15.9700  -32.0819 H   0  0  0  0  0  0  0  0  0  0  0  0
   -3.1402   16.2887  -34.4160 H   0  0  0  0  0  0  0  0  0  0  0  0
   -4.4027   17.7564  -35.9843 H   0  0  0  0  0  0  0  0  0  0  0  0
   -6.4631   18.9251  -35.2201 H   0  0  0  0  0  0  0  0  0  0  0  0
   -8.5095   18.3587  -33.1808 H   0  0  0  0  0  0  0  0  0  0  0  0
   -7.6575   18.8864  -31.6757 H   0  0  0  0  0  0  0  0  0  0  0  0
   -8.0850   20.4350  -34.1680 H   0  0  0  0  0  0  0  0  0  0  0  0
   -5.0179   21.0611  -33.3465 H   0  0  0  0  0  0  0  0  0  0  0  0
   -4.0184   22.9616  -32.0895 H   0  0  0  0  0  0  0  0  0  0  0  0
   -5.8370   23.9660  -28.2580 H   0  0  0  0  0  0  0  0  0  0  0  0
   -4.8380   25.2950  -28.0370 H   0  0  0  0  0  0  0  0  0  0  0  0
   -7.8653   23.8271  -30.3182 H   0  0  0  0  0  0  0  0  0  0  0  0
  1  2  1  0
  2  3  2  0
  3  4  1  0
  4  5  2  0
  5  6  1  0
  6  7  2  0
  7  8  1  0
  8  9  1  0
  9 10  1  0
 10 11  2  0
 11 12  1  0
 12 13  2  0
 13 14  1  0
 14 15  1  0
 14 16  2  0
 14 17  2  0
 13 18  1  0
 18 19  2  0
 19 20  1  0
  7  2  1  0
 19 10  1  0
  1 21  1  0
  1 22  1  0
  1 23  1  0
  3 24  1  0
  4 25  1  0
  5 26  1  0
  6 27  1  0
  8 28  1  0
  8 29  1  0
  9 30  1  0
 11 31  1  0
 12 32  1  0
 15 33  1  0
 15 34  1  0
 18 35  1  0
M  END
>  <UniqueID>  (24) 
23

>  <SMILES>  (24) 
Cc1ccccc1CNc1ccc(S(N)(=O)=O)cc1Cl

>  <Energy>  (24) 
35.492090009598634

>  <Genealogy>  (24) 
Cc1ccccc1CNc1ccc(S(N)(=O)=O)cc1Cl (3D coordinates assigned)
Cc1ccccc1CNc1ccc(S(N)(=O)=O)cc1Cl (optimized conformer: 35.492090009598634 kcal/mol)

>  <smiles>  (24) 
Cc1ccccc1CNc1ccc(S(N)(=O)=O)cc1Cl

>  <score_type>  (24) 
oracle

>  <origin>  (24) 
adgpu

>  <m_score__min__energy>  (24) 
-9.5800000000000001

>  <m_primary>  (24) 
energy

$$$$
24:0
     RDKit          3D

 41 42  0  0  0  0  0  0  0  0999 V2000
   -1.9970   24.9920  -29.3500 O   0  0  0  0  0  0  0  0  0  0  0  0
   -3.1210   24.5520  -29.7150 C   0  0  0  0  0  0  0  0  0  0  0  0
   -3.6210   23.2420  -29.1800 C   0  0  0  0  0  0  0  0  0  0  0  0
   -3.2180   22.0260  -30.0450 C   0  0  0  0  0  0  0  0  0  0  0  0
   -1.7850   21.5060  -29.7290 C   0  0  0  0  0  0  0  0  0  0  0  0
   -0.7710   21.8990  -30.8090 C   0  0  0  0  0  0  0  0  0  0  0  0
   -1.1680   21.3470  -32.1930 C   0  0  0  0  0  0  0  0  0  0  0  0
   -2.6940   21.2620  -32.4090 C   0  0  0  0  0  0  0  0  0  0  0  0
   -3.4450   22.2880  -31.5550 C   0  0  0  0  0  0  0  0  0  0  0  0
   -3.9150   25.2890  -30.6520 N   0  0  0  0  0  0  0  0  0  0  0  0
   -5.3190   25.6140  -30.4340 C   0  0  0  0  0  0  0  0  0  0  0  0
   -6.1930   24.3770  -30.6380 C   0  0  0  0  0  0  0  0  0  0  0  0
   -6.1070   23.7910  -32.3670 S   0  0  0  0  0  0  0  0  0  0  0  0
   -7.1150   22.3290  -32.0940 C   0  0  0  0  0  0  0  0  0  0  0  0
   -8.3450   22.4390  -31.4320 C   0  0  0  0  0  0  0  0  0  0  0  0
   -9.1280   21.3000  -31.2170 C   0  0  0  0  0  0  0  0  0  0  0  0
   -8.6810   20.0500  -31.6540 C   0  0  0  0  0  0  0  0  0  0  0  0
   -7.4470   19.9360  -32.3040 C   0  0  0  0  0  0  0  0  0  0  0  0
   -6.6630   21.0730  -32.5200 C   0  0  0  0  0  0  0  0  0  0  0  0
   -3.2118   23.1004  -28.1688 H   0  0  0  0  0  0  0  0  0  0  0  0
   -4.7199   23.2904  -29.1836 H   0  0  0  0  0  0  0  0  0  0  0  0
   -3.8952   21.2056  -29.7652 H   0  0  0  0  0  0  0  0  0  0  0  0
   -1.4593   21.9295  -28.7674 H   0  0  0  0  0  0  0  0  0  0  0  0
   -1.8269   20.4074  -29.6913 H   0  0  0  0  0  0  0  0  0  0  0  0
   -0.7173   22.9963  -30.8650 H   0  0  0  0  0  0  0  0  0  0  0  0
    0.2042   21.4697  -30.5358 H   0  0  0  0  0  0  0  0  0  0  0  0
   -0.7435   22.0056  -32.9651 H   0  0  0  0  0  0  0  0  0  0  0  0
   -0.7753   20.3215  -32.2564 H   0  0  0  0  0  0  0  0  0  0  0  0
   -2.9150   21.4511  -33.4699 H   0  0  0  0  0  0  0  0  0  0  0  0
   -3.0272   20.2572  -32.1100 H   0  0  0  0  0  0  0  0  0  0  0  0
   -3.0832   23.2967  -31.8035 H   0  0  0  0  0  0  0  0  0  0  0  0
   -4.5207   22.2011  -31.7680 H   0  0  0  0  0  0  0  0  0  0  0  0
   -5.4495   25.9839  -29.4063 H   0  0  0  0  0  0  0  0  0  0  0  0
   -5.6216   26.3863  -31.1565 H   0  0  0  0  0  0  0  0  0  0  0  0
   -5.8445   23.5762  -29.9692 H   0  0  0  0  0  0  0  0  0  0  0  0
   -7.2356   24.6435  -30.4101 H   0  0  0  0  0  0  0  0  0  0  0  0
   -8.6949   23.4211  -31.0813 H   0  0  0  0  0  0  0  0  0  0  0  0
  -10.0967   21.3882  -30.7034 H   0  0  0  0  0  0  0  0  0  0  0  0
   -9.2993   19.1557  -31.4870 H   0  0  0  0  0  0  0  0  0  0  0  0
   -7.0939   18.9516  -32.6450 H   0  0  0  0  0  0  0  0  0  0  0  0
   -5.6901   20.9816  -33.0250 H   0  0  0  0  0  0  0  0  0  0  0  0
  1  2  2  0
  2  3  1  0
  3  4  1  0
  4  5  1  0
  5  6  1  0
  6  7  1  0
  7  8  1  0
  8  9  1  0
  2 10  1  0
 10 11  1  0
 11 12  1  0
 12 13  1  0
 13 14  1  0
 14 15  2  0
 15 16  1  0
 16 17  2  0
 17 18  1  0
 18 19  2  0
  9  4  1  0
 19 14  1  0
  3 20  1  0
  3 21  1  0
  4 22  1  0
  5 23  1  0
  5 24  1  0
  6 25  1  0
  6 26  1  0
  7 27  1  0
  7 28  1  0
  8 29  1  0
  8 30  1  0
  9 31  1  0
  9 32  1  0
 11 33  1  0
 11 34  1  0
 12 35  1  0
 12 36  1  0
 15 37  1  0
 16 38  1  0
 17 39  1  0
 18 40  1  0
 19 41  1  0
M  CHG  1  10  -1
M  END
>  <UniqueID>  (25) 
24

>  <SMILES>  (25) 
O=C(CC1CCCCC1)[N-]CCSc1ccccc1

>  <Energy>  (25) 
32.49891635945766

>  <Genealogy>  (25) 
O=C(CC1CCCCC1)[N-]CCSc1ccccc1 (protonated)
O=C(CC1CCCCC1)[N-]CCSc1ccccc1 (3D coordinates assigned)
O=C(CC1CCCCC1)[N-]CCSc1ccccc1 (nonaromatic ring conformer: 32.49891635945766 kcal/mol)

>  <smiles>  (25) 
O=C(CC1CCCCC1)NCCSc1ccccc1

>  <score_type>  (25) 
oracle

>  <origin>  (25) 
adgpu

>  <m_score__min__energy>  (25) 
-9.9299999999999997

>  <m_primary>  (25) 
energy

$$$$
25:0
     RDKit          3D

 41 43  0  0  0  0  0  0  0  0999 V2000
   -4.1440   20.7860  -32.7890 C   0  0  0  0  0  0  0  0  0  0  0  0
   -5.3580   20.4910  -33.4730 O   0  0  0  0  0  0  0  0  0  0  0  0
   -6.4870   19.8980  -32.8830 C   0  0  0  0  0  0  0  0  0  0  0  0
   -6.8140   18.5460  -33.1180 C   0  0  0  0  0  0  0  0  0  0  0  0
   -7.9390   17.9750  -32.5210 C   0  0  0  0  0  0  0  0  0  0  0  0
   -8.7500   18.7370  -31.6840 C   0  0  0  0  0  0  0  0  0  0  0  0
   -8.4410   20.0770  -31.4410 C   0  0  0  0  0  0  0  0  0  0  0  0
   -7.3130   20.6720  -32.0350 C   0  0  0  0  0  0  0  0  0  0  0  0
   -7.0150   22.0970  -31.7570 C   0  0  0  0  0  0  0  0  0  0  0  0
   -6.8440   23.0370  -32.7090 N   0  0  0  0  0  0  0  0  0  0  0  0
   -6.6040   24.1740  -32.0770 N   0  0  0  0  0  0  0  0  0  0  0  0
   -6.6380   23.8860  -30.7650 C   0  0  0  0  0  0  0  0  0  0  0  0
   -6.3970   25.0960  -29.4670 S   0  0  0  0  0  0  0  0  0  0  0  0
   -4.7850   24.4260  -28.9330 C   0  0  0  0  0  0  0  0  0  0  0  0
   -3.6850   24.9250  -29.8130 C   0  0  0  0  0  0  0  0  0  0  0  0
   -3.9510   25.3390  -30.9740 O   0  0  0  0  0  0  0  0  0  0  0  0
   -2.3380   24.9210  -29.3260 N   0  0  0  0  0  0  0  0  0  0  0  0
   -1.8930   25.4080  -28.0520 C   0  0  0  0  0  0  0  0  0  0  0  0
   -0.8760   26.3740  -27.9390 C   0  0  0  0  0  0  0  0  0  0  0  0
   -0.4960   26.8520  -26.6810 C   0  0  0  0  0  0  0  0  0  0  0  0
   -1.1450   26.3950  -25.5240 C   0  0  0  0  0  0  0  0  0  0  0  0
   -0.7120   26.8810  -24.1720 C   0  0  0  0  0  0  0  0  0  0  0  0
   -2.1610   25.4350  -25.6380 C   0  0  0  0  0  0  0  0  0  0  0  0
   -2.5400   24.9570  -26.8960 C   0  0  0  0  0  0  0  0  0  0  0  0
   -6.8850   22.6160  -30.5580 O   0  0  0  0  0  0  0  0  0  0  0  0
   -4.3154   20.7443  -31.7032 H   0  0  0  0  0  0  0  0  0  0  0  0
   -3.3774   20.0480  -33.0678 H   0  0  0  0  0  0  0  0  0  0  0  0
   -3.8016   21.7935  -33.0678 H   0  0  0  0  0  0  0  0  0  0  0  0
   -6.1775   17.9371  -33.7768 H   0  0  0  0  0  0  0  0  0  0  0  0
   -8.1856   16.9202  -32.7122 H   0  0  0  0  0  0  0  0  0  0  0  0
   -9.6348   18.2831  -31.2138 H   0  0  0  0  0  0  0  0  0  0  0  0
   -9.0859   20.6731  -30.7786 H   0  0  0  0  0  0  0  0  0  0  0  0
   -4.5890   24.7405  -27.8973 H   0  0  0  0  0  0  0  0  0  0  0  0
   -4.8197   23.3286  -28.9999 H   0  0  0  0  0  0  0  0  0  0  0  0
   -0.3783   26.7544  -28.8432 H   0  0  0  0  0  0  0  0  0  0  0  0
    0.3156   27.5898  -26.5981 H   0  0  0  0  0  0  0  0  0  0  0  0
   -1.2278   26.3021  -23.3918 H   0  0  0  0  0  0  0  0  0  0  0  0
    0.3752   26.7511  -24.0666 H   0  0  0  0  0  0  0  0  0  0  0  0
   -0.9660   27.9461  -24.0666 H   0  0  0  0  0  0  0  0  0  0  0  0
   -2.6615   25.0568  -24.7344 H   0  0  0  0  0  0  0  0  0  0  0  0
   -3.3531   24.2207  -26.9777 H   0  0  0  0  0  0  0  0  0  0  0  0
  1  2  1  0
  2  3  1  0
  3  4  2  0
  4  5  1  0
  5  6  2  0
  6  7  1  0
  7  8  2  0
  8  9  1  0
  9 10  2  0
 10 11  1  0
 11 12  2  0
 12 13  1  0
 13 14  1  0
 14 15  1  0
 15 16  2  0
 15 17  1  0
 17 18  1  0
 18 19  2  0
 19 20  1  0
 20 21  2  0
 21 22  1  0
 21 23  1  0
 23 24  2  0
 12 25  1  0
  8  3  1  0
 25  9  1  0
 24 18  1  0
  1 26  1  0
  1 27  1  0
  1 28  1  0
  4 29  1  0
  5 30  1  0
  6 31  1  0
  7 32  1  0
 14 33  1  0
 14 34  1  0
 19 35  1  0
 20 36  1  0
 22 37  1  0
 22 38  1  0
 22 39  1  0
 23 40  1  0
 24 41  1  0
M  CHG  1  17  -1
M  END
>  <UniqueID>  (26) 
25

>  <SMILES>  (26) 
COc1ccccc1-c1nnc(SCC(=O)[N-]c2ccc(C)cc2)o1

>  <Energy>  (26) 
75.80115364611038

>  <Genealogy>  (26) 
COc1ccccc1-c1nnc(SCC(=O)[N-]c2ccc(C)cc2)o1 (protonated)
COc1ccccc1-c1nnc(SCC(=O)[N-]c2ccc(C)cc2)o1 (3D coordinates assigned)
COc1ccccc1-c1nnc(SCC(=O)[N-]c2ccc(C)cc2)o1 (optimized conformer: 75.80115364611038 kcal/mol)

>  <smiles>  (26) 
COc1ccccc1-c1nnc(SCC(=O)Nc2ccc(C)cc2)o1

>  <score_type>  (26) 
oracle

>  <origin>  (26) 
adgpu

>  <m_score__min__energy>  (26) 
-10.369999999999999

>  <m_primary>  (26) 
energy

$$$$
26:0
     RDKit          3D

 46 48  0  0  0  0  0  0  0  0999 V2000
  -10.2079   23.0895  -32.2272 H   0  0  0  0  0  0  0  0  0  0  0  0
   -9.2480   22.6090  -31.9870 C   0  0  0  0  0  0  0  0  0  0  0  0
   -8.1570   23.3890  -31.5900 C   0  0  0  0  0  0  0  0  0  0  0  0
   -8.2610   24.4821  -31.5248 H   0  0  0  0  0  0  0  0  0  0  0  0
   -6.9290   22.7840  -31.2740 C   0  0  0  0  0  0  0  0  0  0  0  0
   -5.7710   23.6190  -30.8710 C   0  0  0  0  0  0  0  0  0  0  0  0
   -5.3810   24.5390  -31.6370 O   0  0  0  0  0  0  0  0  0  0  0  0
   -5.0380   23.3800  -29.6590 N   0  0  0  0  0  0  0  0  0  0  0  0
   -3.9580   24.0030  -29.2930 C   0  0  0  0  0  0  0  0  0  0  0  0
   -3.3100   24.9210  -30.0370 N   0  0  0  0  0  0  0  0  0  0  0  0
   -2.2690   25.2840  -29.3430 O   0  0  0  0  0  0  0  0  0  0  0  0
   -2.2190   24.6420  -28.1960 C   0  0  0  0  0  0  0  0  0  0  0  0
   -1.1420   24.8100  -27.1800 C   0  0  0  0  0  0  0  0  0  0  0  0
   -1.5757   24.7424  -26.1714 H   0  0  0  0  0  0  0  0  0  0  0  0
   -0.3892   24.0184  -27.3093 H   0  0  0  0  0  0  0  0  0  0  0  0
   -0.6661   25.7932  -27.3093 H   0  0  0  0  0  0  0  0  0  0  0  0
   -3.2930   23.7820  -28.1090 C   0  0  0  0  0  0  0  0  0  0  0  0
   -3.5538   23.0902  -27.2945 H   0  0  0  0  0  0  0  0  0  0  0  0
   -6.8040   21.3880  -31.3890 C   0  0  0  0  0  0  0  0  0  0  0  0
   -5.8383   20.9070  -31.1743 H   0  0  0  0  0  0  0  0  0  0  0  0
   -7.9000   20.6050  -31.7750 C   0  0  0  0  0  0  0  0  0  0  0  0
   -7.7150   18.8580  -31.9180 S   0  0  0  0  0  0  0  0  0  0  0  0
   -9.0410   18.1830  -31.6970 O   0  0  0  0  0  0  0  0  0  0  0  0
   -6.7560   18.3890  -30.8590 O   0  0  0  0  0  0  0  0  0  0  0  0
   -7.0940   18.4520  -33.5010 N   0  0  1  0  0  0  0  0  0  0  0  0
   -7.9220   18.4280  -34.1430 H   0  0  0  0  0  0  0  0  0  0  0  0
   -6.1700   19.5110  -33.9940 C   0  0  0  0  0  0  0  0  0  0  0  0
   -6.3725   20.4401  -33.4410 H   0  0  0  0  0  0  0  0  0  0  0  0
   -6.3490   19.6322  -35.0725 H   0  0  0  0  0  0  0  0  0  0  0  0
   -4.6910   19.1410  -33.8080 C   0  0  0  0  0  0  0  0  0  0  0  0
   -4.4909   18.9838  -32.7378 H   0  0  0  0  0  0  0  0  0  0  0  0
   -4.0715   19.9620  -34.1981 H   0  0  0  0  0  0  0  0  0  0  0  0
   -4.3440   17.8490  -34.5830 C   0  0  1  0  0  0  0  0  0  0  0  0
   -4.1167   18.1322  -35.6213 H   0  0  0  0  0  0  0  0  0  0  0  0
   -3.1030   17.1810  -33.9770 C   0  0  0  0  0  0  0  0  0  0  0  0
   -3.1671   17.2155  -32.8794 H   0  0  0  0  0  0  0  0  0  0  0  0
   -3.0517   16.1334  -34.3085 H   0  0  0  0  0  0  0  0  0  0  0  0
   -2.2003   17.7151  -34.3085 H   0  0  0  0  0  0  0  0  0  0  0  0
   -5.5410   16.8660  -34.6430 C   0  0  0  0  0  0  0  0  0  0  0  0
   -5.1605   15.8347  -34.6016 H   0  0  0  0  0  0  0  0  0  0  0  0
   -6.0880   17.0408  -35.5812 H   0  0  0  0  0  0  0  0  0  0  0  0
   -6.5040   17.0910  -33.4710 C   0  0  0  0  0  0  0  0  0  0  0  0
   -5.9539   16.9614  -32.5273 H   0  0  0  0  0  0  0  0  0  0  0  0
   -7.3219   16.3601  -33.5532 H   0  0  0  0  0  0  0  0  0  0  0  0
   -9.1210   21.2210  -32.0790 C   0  0  0  0  0  0  0  0  0  0  0  0
   -9.9813   20.6105  -32.3907 H   0  0  0  0  0  0  0  0  0  0  0  0
  1  2  1  0
  2  3  2  0
  3  4  1  0
  3  5  1  0
  5  6  1  0
  6  7  2  0
  6  8  1  0
  8  9  2  0
  9 10  1  0
 10 11  1  0
 11 12  1  0
 12 13  1  0
 13 14  1  0
 13 15  1  0
 13 16  1  0
 12 17  2  0
 17 18  1  0
  5 19  2  0
 19 20  1  0
 19 21  1  0
 21 22  1  0
 22 23  2  0
 22 24  2  0
 22 25  1  0
 25 26  1  1
 25 27  1  0
 27 28  1  0
 27 29  1  0
 27 30  1  0
 30 31  1  0
 30 32  1  0
 30 33  1  0
 33 34  1  1
 33 35  1  0
 35 36  1  0
 35 37  1  0
 35 38  1  0
 33 39  1  0
 39 40  1  0
 39 41  1  0
 39 42  1  0
 42 43  1  0
 42 44  1  0
 21 45  2  0
 45 46  1  0
 45  2  1  0
 17  9  1  0
 42 25  1  0
M  CHG  2  10  -1  25   1
M  END
>  <UniqueID>  (27) 
26

>  <SMILES>  (27) 
Cc1c/c(=N/C(=O)c2cccc(S(=O)(=O)[NH+]3CCC(C)CC3)c2)[n-]o1

>  <Energy>  (27) 
87.5186258015121

>  <Genealogy>  (27) 
Cc1cc(=NC(=O)c2cccc(S(=O)(=O)[NH+]3CCC(C)CC3)c2)[n-]o1 (protonated)
Cc1c/c(=N/C(=O)c2cccc(S(=O)(=O)[NH+]3CCC(C)CC3)c2)[n-]o1 (cis-trans isomerization)
Cc1c/c(=N/C(=O)c2cccc(S(=O)(=O)[NH+]3CCC(C)CC3)c2)[n-]o1 (3D coordinates assigned)
Cc1c/c(=N/C(=O)c2cccc(S(=O)(=O)[NH+]3CCC(C)CC3)c2)[n-]o1 (nonaromatic ring conformer: 87.5186258015121 kcal/mol)

>  <smiles>  (27) 
Cc1cc(=NC(=O)c2cccc(S(=O)(=O)N3CCC(C)CC3)c2)[nH]o1

>  <score_type>  (27) 
oracle

>  <origin>  (27) 
adgpu

>  <m_score__min__energy>  (27) 
-11.6

>  <m_primary>  (27) 
energy

$$$$
27:0
     RDKit          3D

 34 36  0  0  0  0  0  0  0  0999 V2000
   -2.1220   25.2980  -28.8320 N   0  0  0  0  0  0  0  0  0  0  0  0
   -2.1560   23.9600  -29.3310 C   0  0  0  0  0  0  0  0  0  0  0  0
   -1.0090   22.8070  -28.9160 S   0  0  0  0  0  0  0  0  0  0  0  0
   -1.6620   21.5700  -29.8340 C   0  0  0  0  0  0  0  0  0  0  0  0
   -2.7830   22.0520  -30.5060 C   0  0  0  0  0  0  0  0  0  0  0  0
   -3.4390   21.2140  -31.5410 C   0  0  0  0  0  0  0  0  0  0  0  0
   -2.9680   21.2060  -32.8610 C   0  0  0  0  0  0  0  0  0  0  0  0
   -3.6260   20.4540  -33.8390 C   0  0  0  0  0  0  0  0  0  0  0  0
   -4.7610   19.6960  -33.5090 C   0  0  0  0  0  0  0  0  0  0  0  0
   -5.3950   18.9690  -34.5190 O   0  0  0  0  0  0  0  0  0  0  0  0
   -5.2190   19.6770  -32.1800 C   0  0  0  0  0  0  0  0  0  0  0  0
   -6.7720   18.6820  -31.6510 Br  0  0  0  0  0  0  0  0  0  0  0  0
   -4.5540   20.4280  -31.2020 C   0  0  0  0  0  0  0  0  0  0  0  0
   -3.0890   23.4080  -30.2200 C   0  0  0  0  0  0  0  0  0  0  0  0
   -4.2890   24.1440  -30.7310 C   0  0  0  0  0  0  0  0  0  0  0  0
   -4.2020   25.3810  -30.9550 O   0  0  0  0  0  0  0  0  0  0  0  0
   -5.5870   23.4880  -30.9980 C   0  0  0  0  0  0  0  0  0  0  0  0
   -5.9950   23.2890  -32.3280 C   0  0  0  0  0  0  0  0  0  0  0  0
   -7.1870   22.6190  -32.6090 C   0  0  0  0  0  0  0  0  0  0  0  0
   -7.9990   22.1610  -31.5640 C   0  0  0  0  0  0  0  0  0  0  0  0
   -9.6130   21.2200  -31.9530 Br  0  0  0  0  0  0  0  0  0  0  0  0
   -7.6210   22.3860  -30.2360 C   0  0  0  0  0  0  0  0  0  0  0  0
   -6.4250   23.0510  -29.9520 C   0  0  0  0  0  0  0  0  0  0  0  0
   -2.6490   26.0510  -29.3290 H   0  0  0  0  0  0  0  0  0  0  0  0
   -1.4800   25.5870  -28.0640 H   0  0  0  0  0  0  0  0  0  0  0  0
   -1.2702   20.5440  -29.8967 H   0  0  0  0  0  0  0  0  0  0  0  0
   -2.0774   21.7935  -33.1286 H   0  0  0  0  0  0  0  0  0  0  0  0
   -3.2522   20.4562  -34.8735 H   0  0  0  0  0  0  0  0  0  0  0  0
   -6.3970   18.9980  -34.6690 H   0  0  0  0  0  0  0  0  0  0  0  0
   -4.9072   20.4024  -30.1606 H   0  0  0  0  0  0  0  0  0  0  0  0
   -5.3711   23.6636  -33.1529 H   0  0  0  0  0  0  0  0  0  0  0  0
   -7.4890   22.4505  -33.6532 H   0  0  0  0  0  0  0  0  0  0  0  0
   -8.2655   22.0393  -29.4148 H   0  0  0  0  0  0  0  0  0  0  0  0
   -6.1360   23.2344  -28.9066 H   0  0  0  0  0  0  0  0  0  0  0  0
  1  2  1  0
  2  3  1  0
  3  4  1  0
  4  5  2  0
  5  6  1  0
  6  7  2  0
  7  8  1  0
  8  9  2  0
  9 10  1  0
  9 11  1  0
 11 12  1  0
 11 13  2  0
  5 14  1  0
 14 15  1  0
 15 16  2  0
 15 17  1  0
 17 18  2  0
 18 19  1  0
 19 20  2  0
 20 21  1  0
 20 22  1  0
 22 23  2  0
 14  2  2  0
 23 17  1  0
 13  6  1  0
  1 24  1  0
  1 25  1  0
  4 26  1  0
  7 27  1  0
  8 28  1  0
 10 29  1  0
 13 30  1  0
 18 31  1  0
 19 32  1  0
 22 33  1  0
 23 34  1  0
M  END
>  <UniqueID>  (28) 
27

>  <SMILES>  (28) 
Nc1scc(-c2ccc(O)c(Br)c2)c1C(=O)c1ccc(Br)cc1

>  <Energy>  (28) 
76.49140554088552

>  <Genealogy>  (28) 
Nc1scc(-c2ccc(O)c(Br)c2)c1C(=O)c1ccc(Br)cc1 (3D coordinates assigned)
Nc1scc(-c2ccc(O)c(Br)c2)c1C(=O)c1ccc(Br)cc1 (optimized conformer: 76.49140554088552 kcal/mol)

>  <smiles>  (28) 
Nc1scc(-c2ccc(O)c(Br)c2)c1C(=O)c1ccc(Br)cc1

>  <score_type>  (28) 
oracle

>  <origin>  (28) 
adgpu

>  <m_score__min__energy>  (28) 
-9.8699999999999992

>  <m_primary>  (28) 
energy

$$$$
28:0
     RDKit          3D

 50 53  0  0  0  0  0  0  0  0999 V2000
   -8.8842   20.6943  -32.5654 H   0  0  0  0  0  0  0  0  0  0  0  0
   -7.8490   20.3230  -32.5850 C   0  0  0  0  0  0  0  0  0  0  0  0
   -6.8390   21.1050  -32.1260 N   0  0  0  0  0  0  0  0  0  0  0  0
   -5.5490   20.6710  -32.1470 C   0  0  0  0  0  0  0  0  0  0  0  0
   -4.5790   21.4080  -31.6900 N   0  0  0  0  0  0  0  0  0  0  0  0
   -4.6750   22.7580  -31.2060 C   0  0  0  0  0  0  0  0  0  0  0  0
   -5.8960   23.4310  -31.3350 C   0  0  0  0  0  0  0  0  0  0  0  0
   -6.7436   22.9351  -31.8307 H   0  0  0  0  0  0  0  0  0  0  0  0
   -6.0450   24.7290  -30.8380 C   0  0  0  0  0  0  0  0  0  0  0  0
   -7.0055   25.2531  -30.9512 H   0  0  0  0  0  0  0  0  0  0  0  0
   -4.9770   25.3620  -30.1980 C   0  0  0  0  0  0  0  0  0  0  0  0
   -5.0997   26.3817  -29.8042 H   0  0  0  0  0  0  0  0  0  0  0  0
   -3.7460   24.6990  -30.0560 C   0  0  0  0  0  0  0  0  0  0  0  0
   -2.6460   25.2970  -29.3560 N   0  0  0  0  0  0  0  0  0  0  0  0
   -1.6440   24.6150  -28.5900 C   0  0  0  0  0  0  0  0  0  0  0  0
   -0.4340   24.9150  -28.7630 O   0  0  0  0  0  0  0  0  0  0  0  0
   -1.9940   23.5850  -27.5580 C   0  0  0  0  0  0  0  0  0  0  0  0
   -1.8499   24.0090  -26.5533 H   0  0  0  0  0  0  0  0  0  0  0  0
   -3.0448   23.2842  -27.6818 H   0  0  0  0  0  0  0  0  0  0  0  0
   -1.3440   22.7063  -27.6818 H   0  0  0  0  0  0  0  0  0  0  0  0
   -3.6130   23.3880  -30.5300 C   0  0  0  0  0  0  0  0  0  0  0  0
   -2.6693   22.8451  -30.3725 H   0  0  0  0  0  0  0  0  0  0  0  0
   -5.2690   19.4270  -32.6160 N   0  0  0  0  0  0  0  0  0  0  0  0
   -6.2450   18.5980  -33.0830 C   0  0  0  0  0  0  0  0  0  0  0  0
   -5.8750   17.2520  -33.5910 C   0  0  0  0  0  0  0  0  0  0  0  0
   -6.8660   16.2670  -33.7460 C   0  0  0  0  0  0  0  0  0  0  0  0
   -7.9102   16.4988  -33.4893 H   0  0  0  0  0  0  0  0  0  0  0  0
   -6.5360   14.9970  -34.2230 C   0  0  0  0  0  0  0  0  0  0  0  0
   -7.3171   14.2291  -34.3240 H   0  0  0  0  0  0  0  0  0  0  0  0
   -5.2180   14.6990  -34.5720 C   0  0  0  0  0  0  0  0  0  0  0  0
   -4.9620   13.6925  -34.9345 H   0  0  0  0  0  0  0  0  0  0  0  0
   -4.2210   15.6740  -34.4630 C   0  0  0  0  0  0  0  0  0  0  0  0
   -2.8790   15.3360  -34.8440 N   0  0  0  0  0  0  0  0  0  0  0  0
   -1.6740   15.8450  -34.2530 C   0  0  0  0  0  0  0  0  0  0  0  0
   -0.9990   15.0830  -33.5120 O   0  0  0  0  0  0  0  0  0  0  0  0
   -1.1780   17.2140  -34.5300 C   0  0  0  0  0  0  0  0  0  0  0  0
   -0.1840   17.4200  -35.5020 C   0  0  0  0  0  0  0  0  0  0  0  0
    0.2162   16.5637  -36.0647 H   0  0  0  0  0  0  0  0  0  0  0  0
    0.2990   18.7060  -35.7580 C   0  0  0  0  0  0  0  0  0  0  0  0
    1.0816   18.8569  -36.5161 H   0  0  0  0  0  0  0  0  0  0  0  0
   -0.2090   19.8010  -35.0540 C   0  0  0  0  0  0  0  0  0  0  0  0
    0.2720   21.0440  -35.3080 F   0  0  0  0  0  0  0  0  0  0  0  0
   -1.2120   19.6110  -34.0960 C   0  0  0  0  0  0  0  0  0  0  0  0
   -1.8630   20.9790  -33.2100 Cl  0  0  0  0  0  0  0  0  0  0  0  0
   -1.7000   18.3240  -33.8410 C   0  0  0  0  0  0  0  0  0  0  0  0
   -2.4971   18.1796  -33.0968 H   0  0  0  0  0  0  0  0  0  0  0  0
   -4.5480   16.9420  -33.9490 C   0  0  0  0  0  0  0  0  0  0  0  0
   -3.7597   17.6992  -33.8253 H   0  0  0  0  0  0  0  0  0  0  0  0
   -7.5750   19.0500  -33.0810 C   0  0  0  0  0  0  0  0  0  0  0  0
   -8.3847   18.4113  -33.4637 H   0  0  0  0  0  0  0  0  0  0  0  0
  1  2  1  0
  2  3  1  0
  3  4  1  0
  4  5  2  0
  5  6  1  0
  6  7  2  0
  7  8  1  0
  7  9  1  0
  9 10  1  0
  9 11  2  0
 11 12  1  0
 11 13  1  0
 13 14  1  0
 14 15  1  0
 15 16  2  0
 15 17  1  0
 17 18  1  0
 17 19  1  0
 17 20  1  0
 13 21  2  0
 21 22  1  0
  4 23  1  0
 23 24  2  0
 24 25  1  0
 25 26  2  0
 26 27  1  0
 26 28  1  0
 28 29  1  0
 28 30  2  0
 30 31  1  0
 30 32  1  0
 32 33  1  0
 33 34  1  0
 34 35  2  0
 34 36  1  0
 36 37  2  0
 37 38  1  0
 37 39  1  0
 39 40  1  0
 39 41  2  0
 41 42  1  0
 41 43  1  0
 43 44  1  0
 43 45  2  0
 45 46  1  0
 32 47  2  0
 47 48  1  0
 24 49  1  0
 49 50  1  0
 49  2  2  0
 21  6  1  0
 47 25  1  0
 45 36  1  0
M  CHG  3   3  -1  14  -1  33  -1
M  END
>  <UniqueID>  (29) 
28

>  <SMILES>  (29) 
CC(=O)[N-]c1cccc(/N=c2/nc(-c3cccc([N-]C(=O)c4ccc(F)c(Cl)c4)c3)cc[n-]2)c1

>  <Energy>  (29) 
75.9649762317616

>  <Genealogy>  (29) 
CC(=O)[N-]c1cccc(N=c2nc(-c3cccc([N-]C(=O)c4ccc(F)c(Cl)c4)c3)cc[n-]2)c1 (protonated)
CC(=O)[N-]c1cccc(/N=c2/nc(-c3cccc([N-]C(=O)c4ccc(F)c(Cl)c4)c3)cc[n-]2)c1 (cis-trans isomerization)
CC(=O)[N-]c1cccc(/N=c2/nc(-c3cccc([N-]C(=O)c4ccc(F)c(Cl)c4)c3)cc[n-]2)c1 (3D coordinates assigned)
CC(=O)[N-]c1cccc(/N=c2/nc(-c3cccc([N-]C(=O)c4ccc(F)c(Cl)c4)c3)cc[n-]2)c1 (optimized conformer: 75.9649762317616 kcal/mol)

>  <smiles>  (29) 
CC(=O)Nc1cccc(N=c2nc(-c3cccc(NC(=O)c4ccc(F)c(Cl)c4)c3)cc[nH]2)c1

>  <score_type>  (29) 
oracle

>  <origin>  (29) 
adgpu

>  <m_score__min__energy>  (29) 
-11.68

>  <m_primary>  (29) 
energy

$$$$
29:0
     RDKit          3D

 47 47  0  0  0  0  0  0  0  0999 V2000
   -6.1390   17.5350  -31.2840 C   0  0  0  0  0  0  0  0  0  0  0  0
   -6.5040   17.9120  -32.7420 C   0  0  0  0  0  0  0  0  0  0  0  0
   -6.9440   16.6060  -33.4470 C   0  0  0  0  0  0  0  0  0  0  0  0
   -7.7130   18.8970  -32.7990 C   0  0  0  0  0  0  0  0  0  0  0  0
   -7.3550   20.1970  -33.2760 O   0  0  0  0  0  0  0  0  0  0  0  0
   -6.8760   21.2740  -32.5090 C   0  0  0  0  0  0  0  0  0  0  0  0
   -7.7100   22.2720  -31.9730 C   0  0  0  0  0  0  0  0  0  0  0  0
   -7.1680   23.3110  -31.2140 C   0  0  0  0  0  0  0  0  0  0  0  0
   -5.7860   23.3820  -30.9810 C   0  0  0  0  0  0  0  0  0  0  0  0
   -5.1430   24.7120  -30.0040 S   0  0  0  0  0  0  0  0  0  0  0  0
   -6.4860   25.7050  -29.3880 C   0  0  0  0  0  0  0  0  0  0  0  0
   -4.3450   24.1630  -28.8560 O   0  0  0  0  0  0  0  0  0  0  0  0
   -4.2420   25.5800  -30.8390 O   0  0  0  0  0  0  0  0  0  0  0  0
   -4.9470   22.3820  -31.5150 C   0  0  0  0  0  0  0  0  0  0  0  0
   -3.5210   22.3930  -31.2930 C   0  0  0  0  0  0  0  0  0  0  0  0
   -2.3780   22.3990  -31.1160 N   0  0  0  0  0  0  0  0  0  0  0  0
   -5.4980   21.3420  -32.2750 C   0  0  0  0  0  0  0  0  0  0  0  0
   -5.3160   18.4470  -33.4720 N   0  0  0  0  0  0  0  0  0  0  0  0
   -4.6760   17.5120  -34.4220 C   0  0  0  0  0  0  0  0  0  0  0  0
   -3.1720   17.7870  -34.5790 C   0  0  0  0  0  0  0  0  0  0  0  0
   -2.6190   19.2420  -33.6920 S   0  0  0  0  0  0  0  0  0  0  0  0
   -1.0440   19.8130  -34.2980 C   0  0  0  0  0  0  0  0  0  0  0  0
   -2.5070   18.9340  -32.2250 O   0  0  0  0  0  0  0  0  0  0  0  0
   -3.6330   20.3340  -33.8830 O   0  0  0  0  0  0  0  0  0  0  0  0
   -6.7314   18.1469  -30.5878 H   0  0  0  0  0  0  0  0  0  0  0  0
   -6.3585   16.4705  -31.1146 H   0  0  0  0  0  0  0  0  0  0  0  0
   -5.0680   17.7200  -31.1146 H   0  0  0  0  0  0  0  0  0  0  0  0
   -7.1990   15.8491  -32.6907 H   0  0  0  0  0  0  0  0  0  0  0  0
   -7.8240   16.8072  -34.0756 H   0  0  0  0  0  0  0  0  0  0  0  0
   -6.1217   16.2337  -34.0756 H   0  0  0  0  0  0  0  0  0  0  0  0
   -8.4764   18.4759  -33.4697 H   0  0  0  0  0  0  0  0  0  0  0  0
   -8.0880   19.0161  -31.7718 H   0  0  0  0  0  0  0  0  0  0  0  0
   -8.7945   22.2336  -32.1527 H   0  0  0  0  0  0  0  0  0  0  0  0
   -7.8311   24.0818  -30.7944 H   0  0  0  0  0  0  0  0  0  0  0  0
   -6.4741   25.6962  -28.2881 H   0  0  0  0  0  0  0  0  0  0  0  0
   -6.3729   26.7384  -29.7476 H   0  0  0  0  0  0  0  0  0  0  0  0
   -7.4409   25.2940  -29.7476 H   0  0  0  0  0  0  0  0  0  0  0  0
   -4.8381   20.5679  -32.6937 H   0  0  0  0  0  0  0  0  0  0  0  0
   -5.6010   19.3140  -33.9880 H   0  0  0  0  0  0  0  0  0  0  0  0
   -4.5950   18.7280  -32.7690 H   0  0  0  0  0  0  0  0  0  0  0  0
   -4.8122   16.4842  -34.0544 H   0  0  0  0  0  0  0  0  0  0  0  0
   -5.1501   17.6503  -35.4049 H   0  0  0  0  0  0  0  0  0  0  0  0
   -2.6168   16.9160  -34.2008 H   0  0  0  0  0  0  0  0  0  0  0  0
   -2.9844   17.9672  -35.6478 H   0  0  0  0  0  0  0  0  0  0  0  0
   -0.3882   20.0508  -33.4475 H   0  0  0  0  0  0  0  0  0  0  0  0
   -0.5795   19.0260  -34.9103 H   0  0  0  0  0  0  0  0  0  0  0  0
   -1.1918   20.7148  -34.9103 H   0  0  0  0  0  0  0  0  0  0  0  0
  1  2  1  0
  2  3  1  0
  2  4  1  0
  4  5  1  0
  5  6  1  0
  6  7  2  0
  7  8  1  0
  8  9  2  0
  9 10  1  0
 10 11  1  0
 10 12  2  0
 10 13  2  0
  9 14  1  0
 14 15  1  0
 15 16  3  0
 14 17  2  0
  2 18  1  0
 18 19  1  0
 19 20  1  0
 20 21  1  0
 21 22  1  0
 21 23  2  0
 21 24  2  0
 17  6  1  0
  1 25  1  0
  1 26  1  0
  1 27  1  0
  3 28  1  0
  3 29  1  0
  3 30  1  0
  4 31  1  0
  4 32  1  0
  7 33  1  0
  8 34  1  0
 11 35  1  0
 11 36  1  0
 11 37  1  0
 17 38  1  0
 18 39  1  0
 18 40  1  0
 19 41  1  0
 19 42  1  0
 20 43  1  0
 20 44  1  0
 22 45  1  0
 22 46  1  0
 22 47  1  0
M  CHG  1  18   1
M  END
>  <UniqueID>  (30) 
29

>  <SMILES>  (30) 
CC(C)(COc1ccc(S(C)(=O)=O)c(C#N)c1)[NH2+]CCS(C)(=O)=O

>  <Energy>  (30) 
39.112132281717045

>  <Genealogy>  (30) 
CC(C)(COc1ccc(S(C)(=O)=O)c(C#N)c1)[NH2+]CCS(C)(=O)=O (protonated)
CC(C)(COc1ccc(S(C)(=O)=O)c(C#N)c1)[NH2+]CCS(C)(=O)=O (3D coordinates assigned)
CC(C)(COc1ccc(S(C)(=O)=O)c(C#N)c1)[NH2+]CCS(C)(=O)=O (optimized conformer: 39.112132281717045 kcal/mol)

>  <smiles>  (30) 
CC(C)(COc1ccc(S(C)(=O)=O)c(C#N)c1)NCCS(C)(=O)=O

>  <score_type>  (30) 
oracle

>  <origin>  (30) 
adgpu

>  <m_score__min__energy>  (30) 
-7.2800000000000002

>  <m_primary>  (30) 
energy

$$$$
30:0
     RDKit          3D

 36 38  0  0  0  0  0  0  0  0999 V2000
   -1.8870   20.3220  -28.0680 C   0  0  0  0  0  0  0  0  0  0  0  0
   -3.1170   21.1620  -28.2970 C   0  0  0  0  0  0  0  0  0  0  0  0
   -2.6920   22.5480  -28.6620 C   0  0  0  0  0  0  0  0  0  0  0  0
   -1.5180   23.0730  -28.2250 N   0  0  0  0  0  0  0  0  0  0  0  0
   -1.1540   24.3230  -28.5680 C   0  0  0  0  0  0  0  0  0  0  0  0
   -0.0480   24.8680  -28.1810 N   0  0  0  0  0  0  0  0  0  0  0  0
   -1.9580   25.0730  -29.3550 N   0  0  0  0  0  0  0  0  0  0  0  0
   -3.1260   24.5620  -29.7930 C   0  0  0  0  0  0  0  0  0  0  0  0
   -3.8780   25.2780  -30.5350 N   0  0  0  0  0  0  0  0  0  0  0  0
   -3.5310   23.2780  -29.4600 C   0  0  0  0  0  0  0  0  0  0  0  0
   -4.8000   22.8160  -29.9730 C   0  0  0  0  0  0  0  0  0  0  0  0
   -6.0280   23.2640  -29.5310 C   0  0  0  0  0  0  0  0  0  0  0  0
   -7.1960   22.7450  -30.0990 C   0  0  0  0  0  0  0  0  0  0  0  0
   -7.1080   21.7830  -31.1050 C   0  0  0  0  0  0  0  0  0  0  0  0
   -5.8810   21.3320  -31.5510 C   0  0  0  0  0  0  0  0  0  0  0  0
   -4.7520   21.8520  -30.9820 C   0  0  0  0  0  0  0  0  0  0  0  0
   -5.8510   20.3620  -32.5650 O   0  0  0  0  0  0  0  0  0  0  0  0
   -6.9520   19.4590  -32.5980 C   0  0  0  0  0  0  0  0  0  0  0  0
   -8.2460   20.2750  -32.7060 C   0  0  0  0  0  0  0  0  0  0  0  0
   -8.2500   21.2500  -31.6900 O   0  0  0  0  0  0  0  0  0  0  0  0
   -1.7179   20.2065  -26.9872 H   0  0  0  0  0  0  0  0  0  0  0  0
   -2.0292   19.3315  -28.5248 H   0  0  0  0  0  0  0  0  0  0  0  0
   -1.0161   20.8149  -28.5248 H   0  0  0  0  0  0  0  0  0  0  0  0
   -3.7126   20.7304  -29.1149 H   0  0  0  0  0  0  0  0  0  0  0  0
   -3.7285   21.1868  -27.3829 H   0  0  0  0  0  0  0  0  0  0  0  0
   -0.8910   22.5010  -27.6190 H   0  0  0  0  0  0  0  0  0  0  0  0
    0.6110   24.3210  -27.5650 H   0  0  0  0  0  0  0  0  0  0  0  0
   -1.6980   26.0440  -29.6330 H   0  0  0  0  0  0  0  0  0  0  0  0
   -3.6910   26.2410  -30.8530 H   0  0  0  0  0  0  0  0  0  0  0  0
   -6.0879   24.0237  -28.7378 H   0  0  0  0  0  0  0  0  0  0  0  0
   -8.1803   23.0942  -29.7536 H   0  0  0  0  0  0  0  0  0  0  0  0
   -3.7708   21.4984  -31.3315 H   0  0  0  0  0  0  0  0  0  0  0  0
   -6.8596   18.7926  -33.4682 H   0  0  0  0  0  0  0  0  0  0  0  0
   -6.9664   18.8479  -31.6835 H   0  0  0  0  0  0  0  0  0  0  0  0
   -8.2938   20.7650  -33.6897 H   0  0  0  0  0  0  0  0  0  0  0  0
   -9.1174   19.6131  -32.5942 H   0  0  0  0  0  0  0  0  0  0  0  0
  1  2  1  0
  2  3  1  0
  3  4  1  0
  4  5  1  0
  5  6  2  3
  5  7  1  0
  7  8  1  0
  8  9  2  3
  8 10  1  0
 10 11  1  0
 11 12  2  0
 12 13  1  0
 13 14  2  0
 14 15  1  0
 15 16  2  0
 15 17  1  0
 17 18  1  0
 18 19  1  0
 19 20  1  0
 10  3  2  0
 16 11  1  0
 20 14  1  0
  1 21  1  0
  1 22  1  0
  1 23  1  0
  2 24  1  0
  2 25  1  0
  4 26  1  0
  6 27  1  0
  7 28  1  0
  9 29  1  0
 12 30  1  0
 13 31  1  0
 16 32  1  0
 18 33  1  0
 18 34  1  0
 19 35  1  0
 19 36  1  0
M  END
>  <smiles>  (31) 
CCc1[nH]c(=N)[nH]c(=N)c1-c1ccc2c(c1)OCCO2

>  <score_type>  (31) 
oracle

>  <origin>  (31) 
adgpu

>  <m_score__min__energy>  (31) 
-7.0099999999999998

>  <m_primary>  (31) 
energy

$$$$
31:0
     RDKit          3D

 33 35  0  0  0  0  0  0  0  0999 V2000
   -9.3970   18.9600  -32.4250 C   0  0  0  0  0  0  0  0  0  0  0  0
   -9.1040   20.2750  -32.8850 O   0  0  0  0  0  0  0  0  0  0  0  0
   -8.1350   21.1160  -32.3190 C   0  0  0  0  0  0  0  0  0  0  0  0
   -8.4660   22.1540  -31.4280 C   0  0  0  0  0  0  0  0  0  0  0  0
   -7.4660   22.9680  -30.8870 C   0  0  0  0  0  0  0  0  0  0  0  0
   -6.1150   22.7630  -31.2250 C   0  0  0  0  0  0  0  0  0  0  0  0
   -5.0400   23.6170  -30.6620 C   0  0  0  0  0  0  0  0  0  0  0  0
   -4.2780   23.3650  -29.5350 C   0  0  0  0  0  0  0  0  0  0  0  0
   -3.4300   24.4560  -29.4460 C   0  0  0  0  0  0  0  0  0  0  0  0
   -2.3930   24.7020  -28.4140 C   0  0  0  0  0  0  0  0  0  0  0  0
   -2.7400   24.9550  -27.0730 C   0  0  0  0  0  0  0  0  0  0  0  0
   -1.7470   25.1860  -26.1150 C   0  0  0  0  0  0  0  0  0  0  0  0
   -0.4000   25.1660  -26.4820 C   0  0  0  0  0  0  0  0  0  0  0  0
   -0.0380   24.9150  -27.8080 C   0  0  0  0  0  0  0  0  0  0  0  0
    1.3100   24.8990  -28.1590 O   0  0  0  0  0  0  0  0  0  0  0  0
   -1.0310   24.6850  -28.7710 C   0  0  0  0  0  0  0  0  0  0  0  0
   -3.6830   25.2980  -30.4670 N   0  0  0  0  0  0  0  0  0  0  0  0
   -4.6580   24.7900  -31.2030 N   0  0  0  0  0  0  0  0  0  0  0  0
   -5.7920   21.7250  -32.1160 C   0  0  0  0  0  0  0  0  0  0  0  0
   -6.7920   20.9100  -32.6560 C   0  0  0  0  0  0  0  0  0  0  0  0
   -6.4540   19.9150  -33.5130 F   0  0  0  0  0  0  0  0  0  0  0  0
   -9.3996   18.9484  -31.3251 H   0  0  0  0  0  0  0  0  0  0  0  0
  -10.3856   18.6531  -32.7973 H   0  0  0  0  0  0  0  0  0  0  0  0
   -8.6323   18.2624  -32.7973 H   0  0  0  0  0  0  0  0  0  0  0  0
   -9.5178   22.3260  -31.1556 H   0  0  0  0  0  0  0  0  0  0  0  0
   -7.7374   23.7756  -30.1912 H   0  0  0  0  0  0  0  0  0  0  0  0
   -4.3332   22.4960  -28.8629 H   0  0  0  0  0  0  0  0  0  0  0  0
   -3.7992   24.9711  -26.7766 H   0  0  0  0  0  0  0  0  0  0  0  0
   -2.0281   25.3839  -25.0701 H   0  0  0  0  0  0  0  0  0  0  0  0
    0.3777   25.3482  -25.7257 H   0  0  0  0  0  0  0  0  0  0  0  0
    2.0360   25.1190  -27.4860 H   0  0  0  0  0  0  0  0  0  0  0  0
   -0.7434   24.4896  -29.8146 H   0  0  0  0  0  0  0  0  0  0  0  0
   -4.7412   21.5518  -32.3916 H   0  0  0  0  0  0  0  0  0  0  0  0
  1  2  1  0
  2  3  1  0
  3  4  2  0
  4  5  1  0
  5  6  2  0
  6  7  1  0
  7  8  1  0
  8  9  2  0
  9 10  1  0
 10 11  2  0
 11 12  1  0
 12 13  2  0
 13 14  1  0
 14 15  1  0
 14 16  2  0
  9 17  1  0
 17 18  1  0
  6 19  1  0
 19 20  2  0
 20 21  1  0
 20  3  1  0
 18  7  2  0
 16 10  1  0
  1 22  1  0
  1 23  1  0
  1 24  1  0
  4 25  1  0
  5 26  1  0
  8 27  1  0
 11 28  1  0
 12 29  1  0
 13 30  1  0
 15 31  1  0
 16 32  1  0
 19 33  1  0
M  CHG  1  17  -1
M  END
>  <UniqueID>  (32) 
30

>  <SMILES>  (32) 
COc1ccc(-c2cc(-c3cccc(O)c3)[n-]n2)cc1F

>  <Energy>  (32) 
67.22663761949808

>  <Genealogy>  (32) 
COc1ccc(-c2cc(-c3cccc(O)c3)[n-]n2)cc1F (protonated)
COc1ccc(-c2cc(-c3cccc(O)c3)[n-]n2)cc1F (3D coordinates assigned)
COc1ccc(-c2cc(-c3cccc(O)c3)[n-]n2)cc1F (optimized conformer: 67.22663761949808 kcal/mol)

>  <smiles>  (32) 
COc1ccc(-c2cc(-c3cccc(O)c3)[nH]n2)cc1F

>  <score_type>  (32) 
oracle

>  <origin>  (32) 
adgpu

>  <m_score__min__energy>  (32) 
-9.5800000000000001

>  <m_primary>  (32) 
energy

$$$$
32:0
     RDKit          3D

 26 26  0  0  0  0  0  0  0  0999 V2000
   -6.2520   18.0370  -31.2920 C   0  0  0  0  0  0  0  0  0  0  0  0
   -7.4740   18.3190  -32.5550 S   0  0  0  0  0  0  0  0  0  0  0  0
   -8.8570   18.0970  -32.0090 O   0  0  0  0  0  0  0  0  0  0  0  0
   -7.2360   17.3440  -33.6740 O   0  0  0  0  0  0  0  0  0  0  0  0
   -7.3310   19.9330  -33.1780 N   0  0  0  0  0  0  0  0  0  0  0  0
   -6.7890   21.0470  -32.4460 C   0  0  0  0  0  0  0  0  0  0  0  0
   -5.4120   21.3410  -32.4380 C   0  0  0  0  0  0  0  0  0  0  0  0
   -4.9250   22.4320  -31.7120 C   0  0  0  0  0  0  0  0  0  0  0  0
   -5.8000   23.2390  -30.9750 C   0  0  0  0  0  0  0  0  0  0  0  0
   -5.1850   24.6210  -30.0770 S   0  0  0  0  0  0  0  0  0  0  0  0
   -4.5730   24.0750  -28.4980 C   0  0  0  0  0  0  0  0  0  0  0  0
   -6.2840   25.6240  -29.8690 O   0  0  0  0  0  0  0  0  0  0  0  0
   -4.0730   25.2760  -30.8470 O   0  0  0  0  0  0  0  0  0  0  0  0
   -7.1710   22.9530  -30.9790 C   0  0  0  0  0  0  0  0  0  0  0  0
   -7.6600   21.8630  -31.7050 C   0  0  0  0  0  0  0  0  0  0  0  0
   -6.7173   18.1444  -30.3011 H   0  0  0  0  0  0  0  0  0  0  0  0
   -5.8437   17.0210  -31.3972 H   0  0  0  0  0  0  0  0  0  0  0  0
   -5.4398   18.7713  -31.3972 H   0  0  0  0  0  0  0  0  0  0  0  0
   -7.6090   20.0740  -34.1760 H   0  0  0  0  0  0  0  0  0  0  0  0
   -4.7149   20.7081  -33.0067 H   0  0  0  0  0  0  0  0  0  0  0  0
   -3.8484   22.6576  -31.7199 H   0  0  0  0  0  0  0  0  0  0  0  0
   -5.1336   24.5752  -27.6946 H   0  0  0  0  0  0  0  0  0  0  0  0
   -4.7014   22.9859  -28.4116 H   0  0  0  0  0  0  0  0  0  0  0  0
   -3.5056   24.3263  -28.4116 H   0  0  0  0  0  0  0  0  0  0  0  0
   -7.8652   23.5880  -30.4091 H   0  0  0  0  0  0  0  0  0  0  0  0
   -8.7375   21.6420  -31.6960 H   0  0  0  0  0  0  0  0  0  0  0  0
  1  2  1  0
  2  3  2  0
  2  4  2  0
  2  5  1  0
  5  6  1  0
  6  7  2  0
  7  8  1  0
  8  9  2  0
  9 10  1  0
 10 11  1  0
 10 12  2  0
 10 13  2  0
  9 14  1  0
 14 15  2  0
 15  6  1  0
  1 16  1  0
  1 17  1  0
  1 18  1  0
  5 19  1  0
  7 20  1  0
  8 21  1  0
 11 22  1  0
 11 23  1  0
 11 24  1  0
 14 25  1  0
 15 26  1  0
M  END
>  <UniqueID>  (33) 
31

>  <SMILES>  (33) 
CS(=O)(=O)Nc1ccc(S(C)(=O)=O)cc1

>  <Energy>  (33) 
20.17663801545281

>  <Genealogy>  (33) 
CS(=O)(=O)Nc1ccc(S(C)(=O)=O)cc1 (3D coordinates assigned)
CS(=O)(=O)Nc1ccc(S(C)(=O)=O)cc1 (optimized conformer: 20.17663801545281 kcal/mol)

>  <smiles>  (33) 
CS(=O)(=O)Nc1ccc(S(C)(=O)=O)cc1

>  <score_type>  (33) 
oracle

>  <origin>  (33) 
adgpu

>  <m_score__min__energy>  (33) 
-7.4400000000000004

>  <m_primary>  (33) 
energy

$$$$
33:0
     RDKit          3D

 41 44  0  0  0  0  0  0  0  0999 V2000
    0.5780   16.5770  -28.7080 N   0  0  0  0  0  0  0  0  0  0  0  0
    0.3010   17.6410  -28.3500 C   0  0  0  0  0  0  0  0  0  0  0  0
   -0.0430   18.9650  -27.9040 C   0  0  0  0  0  0  0  0  0  0  0  0
   -1.1780   19.1650  -27.1090 C   0  0  0  0  0  0  0  0  0  0  0  0
   -1.5120   20.4520  -26.6730 C   0  0  0  0  0  0  0  0  0  0  0  0
   -0.7150   21.5510  -27.0320 C   0  0  0  0  0  0  0  0  0  0  0  0
   -1.0610   22.9290  -26.5340 C   0  0  0  0  0  0  0  0  0  0  0  0
   -1.6160   23.7360  -27.6230 N   0  0  0  0  0  0  0  0  0  0  0  0
   -1.0040   24.7300  -28.3160 C   0  0  0  0  0  0  0  0  0  0  0  0
    0.1560   25.1460  -28.0500 O   0  0  0  0  0  0  0  0  0  0  0  0
   -1.7480   25.2410  -29.3280 N   0  0  0  0  0  0  0  0  0  0  0  0
   -2.8780   24.5130  -29.2560 C   0  0  0  0  0  0  0  0  0  0  0  0
   -3.9950   24.6040  -30.0790 C   0  0  0  0  0  0  0  0  0  0  0  0
   -5.0830   23.7300  -29.8320 C   0  0  0  0  0  0  0  0  0  0  0  0
   -6.2930   23.7660  -30.6870 C   0  0  0  0  0  0  0  0  0  0  0  0
   -6.8750   24.8690  -30.8700 O   0  0  0  0  0  0  0  0  0  0  0  0
   -6.8450   22.5500  -31.3320 C   0  0  0  0  0  0  0  0  0  0  0  0
   -6.0100   21.6530  -32.0230 C   0  0  0  0  0  0  0  0  0  0  0  0
   -6.5470   20.5200  -32.6420 C   0  0  0  0  0  0  0  0  0  0  0  0
   -7.9210   20.2760  -32.5870 C   0  0  0  0  0  0  0  0  0  0  0  0
   -8.7620   21.1680  -31.9170 C   0  0  0  0  0  0  0  0  0  0  0  0
   -8.2300   22.3030  -31.2960 C   0  0  0  0  0  0  0  0  0  0  0  0
   -4.9880   22.7810  -28.7790 C   0  0  0  0  0  0  0  0  0  0  0  0
   -3.8420   22.7160  -27.9670 C   0  0  0  0  0  0  0  0  0  0  0  0
   -2.8040   23.6040  -28.2380 C   0  0  0  0  0  0  0  0  0  0  0  0
    0.4240   21.3440  -27.8280 C   0  0  0  0  0  0  0  0  0  0  0  0
    0.7570   20.0570  -28.2620 C   0  0  0  0  0  0  0  0  0  0  0  0
   -1.8083   18.3089  -26.8266 H   0  0  0  0  0  0  0  0  0  0  0  0
   -2.4031   20.6035  -26.0461 H   0  0  0  0  0  0  0  0  0  0  0  0
   -1.8040   22.8477  -25.7269 H   0  0  0  0  0  0  0  0  0  0  0  0
   -0.1485   23.4140  -26.1571 H   0  0  0  0  0  0  0  0  0  0  0  0
   -4.0332   25.3350  -30.9001 H   0  0  0  0  0  0  0  0  0  0  0  0
   -4.9281   21.8441  -32.0766 H   0  0  0  0  0  0  0  0  0  0  0  0
   -5.8859   19.8195  -33.1733 H   0  0  0  0  0  0  0  0  0  0  0  0
   -8.3409   19.3819  -33.0710 H   0  0  0  0  0  0  0  0  0  0  0  0
   -9.8447   20.9774  -31.8777 H   0  0  0  0  0  0  0  0  0  0  0  0
   -8.8978   23.0062  -30.7768 H   0  0  0  0  0  0  0  0  0  0  0  0
   -5.8223   22.0877  -28.5965 H   0  0  0  0  0  0  0  0  0  0  0  0
   -3.7678   21.9883  -27.1454 H   0  0  0  0  0  0  0  0  0  0  0  0
    1.0567   22.1981  -28.1111 H   0  0  0  0  0  0  0  0  0  0  0  0
    1.6495   19.9022  -28.8861 H   0  0  0  0  0  0  0  0  0  0  0  0
  1  2  3  0
  2  3  1  0
  3  4  2  0
  4  5  1  0
  5  6  2  0
  6  7  1  0
  7  8  1  0
  8  9  1  0
  9 10  2  0
  9 11  1  0
 11 12  1  0
 12 13  2  0
 13 14  1  0
 14 15  1  0
 15 16  2  0
 15 17  1  0
 17 18  2  0
 18 19  1  0
 19 20  2  0
 20 21  1  0
 21 22  2  0
 14 23  2  0
 23 24  1  0
 24 25  2  0
  6 26  1  0
 26 27  2  0
 27  3  1  0
 25  8  1  0
 25 12  1  0
 22 17  1  0
  4 28  1  0
  5 29  1  0
  7 30  1  0
  7 31  1  0
 13 32  1  0
 18 33  1  0
 19 34  1  0
 20 35  1  0
 21 36  1  0
 22 37  1  0
 23 38  1  0
 24 39  1  0
 26 40  1  0
 27 41  1  0
M  CHG  1  11  -1
M  END
>  <UniqueID>  (34) 
32

>  <SMILES>  (34) 
N#Cc1ccc(Cn2c(=O)[n-]c3cc(C(=O)c4ccccc4)ccc32)cc1

>  <Energy>  (34) 
88.33040863228356

>  <Genealogy>  (34) 
N#Cc1ccc(Cn2c(=O)[n-]c3cc(C(=O)c4ccccc4)ccc32)cc1 (protonated)
N#Cc1ccc(Cn2c(=O)[n-]c3cc(C(=O)c4ccccc4)ccc32)cc1 (3D coordinates assigned)
N#Cc1ccc(Cn2c(=O)[n-]c3cc(C(=O)c4ccccc4)ccc32)cc1 (optimized conformer: 88.33040863228356 kcal/mol)

>  <smiles>  (34) 
N#Cc1ccc(Cn2c(=O)[nH]c3cc(C(=O)c4ccccc4)ccc32)cc1

>  <score_type>  (34) 
oracle

>  <origin>  (34) 
adgpu

>  <m_score__min__energy>  (34) 
-10.24

>  <m_primary>  (34) 
energy

$$$$
34:0
     RDKit          3D

 36 39  0  0  0  0  0  0  0  0999 V2000
   -7.5450   17.1570  -32.7960 N   0  0  0  0  0  0  0  0  0  0  0  0
   -6.4910   17.6540  -33.3540 C   0  0  0  0  0  0  0  0  0  0  0  0
   -5.8150   16.8290  -34.2070 N   0  0  0  0  0  0  0  0  0  0  0  0
   -4.7230   17.3320  -34.7910 C   0  0  0  0  0  0  0  0  0  0  0  0
   -4.2780   18.5740  -34.5810 N   0  0  0  0  0  0  0  0  0  0  0  0
   -4.9150   19.4240  -33.7460 C   0  0  0  0  0  0  0  0  0  0  0  0
   -4.7370   20.6580  -33.3430 O   0  0  0  0  0  0  0  0  0  0  0  0
   -5.6750   21.0120  -32.5010 C   0  0  0  0  0  0  0  0  0  0  0  0
   -5.7390   22.3320  -31.8830 C   0  0  0  0  0  0  0  0  0  0  0  0
   -6.9610   22.9680  -31.8050 C   0  0  0  0  0  0  0  0  0  0  0  0
   -7.0800   24.2160  -31.2330 C   0  0  0  0  0  0  0  0  0  0  0  0
   -5.9550   24.8540  -30.7210 C   0  0  0  0  0  0  0  0  0  0  0  0
   -4.7280   24.2260  -30.7950 C   0  0  0  0  0  0  0  0  0  0  0  0
   -3.5950   24.9080  -30.2620 N   0  0  0  0  0  0  0  0  0  0  0  0
   -3.1180   24.5260  -28.9780 C   0  0  0  0  0  0  0  0  0  0  0  0
   -3.6980   23.5960  -28.3320 O   0  0  0  0  0  0  0  0  0  0  0  0
   -1.9680   25.1610  -28.3440 C   0  0  0  0  0  0  0  0  0  0  0  0
   -1.2320   24.6060  -27.3410 C   0  0  0  0  0  0  0  0  0  0  0  0
   -0.2390   25.4980  -27.0080 C   0  0  0  0  0  0  0  0  0  0  0  0
   -0.4270   26.5830  -27.8520 C   0  0  0  0  0  0  0  0  0  0  0  0
   -1.4590   26.3360  -28.6210 O   0  0  0  0  0  0  0  0  0  0  0  0
   -4.6210   22.9620  -31.3780 C   0  0  0  0  0  0  0  0  0  0  0  0
   -6.5430   19.9530  -32.3220 C   0  0  0  0  0  0  0  0  0  0  0  0
   -6.0480   18.9400  -33.1230 C   0  0  0  0  0  0  0  0  0  0  0  0
   -8.1640   17.6410  -32.1320 H   0  0  0  0  0  0  0  0  0  0  0  0
   -6.1520   15.8590  -34.3790 H   0  0  0  0  0  0  0  0  0  0  0  0
   -4.1598   16.6880  -35.4824 H   0  0  0  0  0  0  0  0  0  0  0  0
   -7.8559   22.4701  -32.2065 H   0  0  0  0  0  0  0  0  0  0  0  0
   -8.0630   24.7069  -31.1814 H   0  0  0  0  0  0  0  0  0  0  0  0
   -6.0423   25.8496  -30.2615 H   0  0  0  0  0  0  0  0  0  0  0  0
   -3.1060   25.6760  -30.7810 H   0  0  0  0  0  0  0  0  0  0  0  0
   -1.4012   23.6216  -26.8802 H   0  0  0  0  0  0  0  0  0  0  0  0
    0.5372   25.3770  -26.2380 H   0  0  0  0  0  0  0  0  0  0  0  0
    0.1863   27.4959  -27.8722 H   0  0  0  0  0  0  0  0  0  0  0  0
   -3.6406   22.4664  -31.4348 H   0  0  0  0  0  0  0  0  0  0  0  0
   -7.4360   19.9218  -31.6804 H   0  0  0  0  0  0  0  0  0  0  0  0
  1  2  2  3
  2  3  1  0
  3  4  1  0
  4  5  2  0
  5  6  1  0
  6  7  1  0
  7  8  1  0
  8  9  1  0
  9 10  2  0
 10 11  1  0
 11 12  2  0
 12 13  1  0
 13 14  1  0
 14 15  1  0
 15 16  2  0
 15 17  1  0
 17 18  2  0
 18 19  1  0
 19 20  2  0
 20 21  1  0
 13 22  2  0
  8 23  2  0
 23 24  1  0
 24  2  1  0
 24  6  2  0
 22  9  1  0
 21 17  1  0
  1 25  1  0
  3 26  1  0
  4 27  1  0
 10 28  1  0
 11 29  1  0
 12 30  1  0
 14 31  1  0
 18 32  1  0
 19 33  1  0
 20 34  1  0
 22 35  1  0
 23 36  1  0
M  END
>  <smiles>  (35) 
N=c1[nH]cnc2oc(-c3cccc(NC(=O)c4ccco4)c3)cc12

>  <score_type>  (35) 
oracle

>  <origin>  (35) 
adgpu

>  <m_score__min__energy>  (35) 
-8.5

>  <m_primary>  (35) 
energy

$$$$
35:0
     RDKit          3D

 36 38  0  0  0  0  0  0  0  0999 V2000
   -3.8761   22.2888  -27.3740 H   0  0  0  0  0  0  0  0  0  0  0  0
   -3.6990   23.0460  -28.1520 C   0  0  0  0  0  0  0  0  0  0  0  0
   -4.4800   23.0760  -29.2590 N   0  0  0  0  0  0  0  0  0  0  0  0
   -4.2640   24.0060  -30.2280 C   0  0  0  0  0  0  0  0  0  0  0  0
   -5.0240   24.0640  -31.2850 N   0  0  0  0  0  0  0  0  0  0  0  0
   -6.0850   23.1610  -31.6400 C   0  0  0  0  0  0  0  0  0  0  0  0
   -5.7520   21.9130  -32.1800 C   0  0  0  0  0  0  0  0  0  0  0  0
   -4.6960   21.6541  -32.3465 H   0  0  0  0  0  0  0  0  0  0  0  0
   -6.7520   20.9940  -32.5090 C   0  0  0  0  0  0  0  0  0  0  0  0
   -6.4777   20.0241  -32.9494 H   0  0  0  0  0  0  0  0  0  0  0  0
   -8.0990   21.2970  -32.2830 C   0  0  0  0  0  0  0  0  0  0  0  0
   -9.0650   20.3410  -32.6310 O   0  0  0  0  0  0  0  0  0  0  0  0
   -8.9610   18.9510  -32.3400 C   0  0  0  0  0  0  0  0  0  0  0  0
   -8.9500   18.8044  -31.2499 H   0  0  0  0  0  0  0  0  0  0  0  0
   -9.8220   18.4204  -32.7727 H   0  0  0  0  0  0  0  0  0  0  0  0
   -8.0307   18.5544  -32.7727 H   0  0  0  0  0  0  0  0  0  0  0  0
   -8.4360   22.5380  -31.7100 C   0  0  0  0  0  0  0  0  0  0  0  0
   -9.4910   22.7844  -31.5194 H   0  0  0  0  0  0  0  0  0  0  0  0
   -7.4360   23.4590  -31.3820 C   0  0  0  0  0  0  0  0  0  0  0  0
   -7.7065   24.4202  -30.9205 H   0  0  0  0  0  0  0  0  0  0  0  0
   -3.2670   24.9180  -30.0690 N   0  0  0  0  0  0  0  0  0  0  0  0
   -3.1060   25.6450  -30.8030 H   0  0  0  0  0  0  0  0  0  0  0  0
   -2.4720   24.8850  -28.9650 C   0  0  0  0  0  0  0  0  0  0  0  0
   -1.5330   25.7770  -28.8260 N   0  0  0  0  0  0  0  0  0  0  0  0
   -0.5750   25.8660  -27.7580 C   0  0  0  0  0  0  0  0  0  0  0  0
   -0.4850   27.0610  -27.0320 C   0  0  0  0  0  0  0  0  0  0  0  0
   -1.1604   27.8961  -27.2693 H   0  0  0  0  0  0  0  0  0  0  0  0
    0.4580   27.2000  -26.0070 C   0  0  0  0  0  0  0  0  0  0  0  0
    0.5114   28.1360  -25.4317 H   0  0  0  0  0  0  0  0  0  0  0  0
    1.3310   26.1500  -25.7150 C   0  0  0  0  0  0  0  0  0  0  0  0
    2.0656   26.2556  -24.9031 H   0  0  0  0  0  0  0  0  0  0  0  0
    1.2720   24.9660  -26.4530 C   0  0  0  0  0  0  0  0  0  0  0  0
    1.9669   24.1437  -26.2273 H   0  0  0  0  0  0  0  0  0  0  0  0
    0.3320   24.8230  -27.4780 C   0  0  0  0  0  0  0  0  0  0  0  0
    0.2998   23.8948  -28.0674 H   0  0  0  0  0  0  0  0  0  0  0  0
   -2.7000   23.9490  -28.0040 N   0  0  0  0  0  0  0  0  0  0  0  0
  1  2  1  0
  2  3  2  0
  3  4  1  0
  4  5  2  0
  5  6  1  0
  6  7  2  0
  7  8  1  0
  7  9  1  0
  9 10  1  0
  9 11  2  0
 11 12  1  0
 12 13  1  0
 13 14  1  0
 13 15  1  0
 13 16  1  0
 11 17  1  0
 17 18  1  0
 17 19  2  0
 19 20  1  0
  4 21  1  0
 21 22  1  0
 21 23  1  0
 23 24  2  0
 24 25  1  0
 25 26  2  0
 26 27  1  0
 26 28  1  0
 28 29  1  0
 28 30  2  0
 30 31  1  0
 30 32  1  0
 32 33  1  0
 32 34  2  0
 34 35  1  0
 23 36  1  0
 36  2  1  0
 19  6  1  0
 34 25  1  0
M  CHG  1  36  -1
M  END
>  <UniqueID>  (36) 
33

>  <SMILES>  (36) 
COc1ccc(/N=c2\nc[n-]/c(=N\c3ccccc3)[nH]2)cc1

>  <Energy>  (36) 
51.83385100538594

>  <Genealogy>  (36) 
COc1ccc(N=c2nc[n-]c(=Nc3ccccc3)[nH]2)cc1 (protonated)
COc1ccc(/N=c2\nc[n-]/c(=N\c3ccccc3)[nH]2)cc1 (cis-trans isomerization)
COc1ccc(/N=c2\nc[n-]/c(=N\c3ccccc3)[nH]2)cc1 (3D coordinates assigned)
COc1ccc(/N=c2\nc[n-]/c(=N\c3ccccc3)[nH]2)cc1 (optimized conformer: 51.83385100538594 kcal/mol)

>  <smiles>  (36) 
COc1ccc(N=c2nc[nH]c(=Nc3ccccc3)[nH]2)cc1

>  <score_type>  (36) 
oracle

>  <origin>  (36) 
adgpu

>  <m_score__min__energy>  (36) 
-8.8800000000000008

>  <m_primary>  (36) 
energy

$$$$
36:0
     RDKit          3D

 34 35  0  0  0  0  0  0  0  0999 V2000
   -7.2870   18.1790  -32.3580 C   0  0  0  0  0  0  0  0  0  0  0  0
   -7.9340   19.5210  -32.6950 C   0  0  0  0  0  0  0  0  0  0  0  0
   -8.9600   19.9540  -31.6450 C   0  0  0  0  0  0  0  0  0  0  0  0
   -9.5170   21.6770  -31.9280 S   0  0  0  0  0  0  0  0  0  0  0  0
   -7.9700   22.4360  -31.4310 C   0  0  0  0  0  0  0  0  0  0  0  0
   -7.1860   23.1130  -32.3670 C   0  0  0  0  0  0  0  0  0  0  0  0
   -5.9870   23.6980  -31.9580 C   0  0  0  0  0  0  0  0  0  0  0  0
   -5.5700   23.5990  -30.6200 C   0  0  0  0  0  0  0  0  0  0  0  0
   -4.2990   24.2270  -30.1800 C   0  0  0  0  0  0  0  0  0  0  0  0
   -3.8970   25.2780  -30.7490 O   0  0  0  0  0  0  0  0  0  0  0  0
   -3.5000   23.6250  -29.1470 N   0  0  0  0  0  0  0  0  0  0  0  0
   -2.5120   24.3390  -28.3830 C   0  0  0  0  0  0  0  0  0  0  0  0
   -2.7670   24.7770  -27.0720 C   0  0  0  0  0  0  0  0  0  0  0  0
   -1.7730   25.4460  -26.3530 C   0  0  0  0  0  0  0  0  0  0  0  0
   -0.5280   25.6600  -26.9460 C   0  0  0  0  0  0  0  0  0  0  0  0
   -0.2880   25.2140  -28.2070 N   0  0  0  0  0  0  0  0  0  0  0  0
   -1.2390   24.5600  -28.9270 C   0  0  0  0  0  0  0  0  0  0  0  0
   -6.3970   22.9120  -29.7150 C   0  0  0  0  0  0  0  0  0  0  0  0
   -7.5610   22.3530  -30.1380 N   0  0  0  0  0  0  0  0  0  0  0  0
   -7.2311   18.0630  -31.2656 H   0  0  0  0  0  0  0  0  0  0  0  0
   -7.8910   17.3638  -32.7829 H   0  0  0  0  0  0  0  0  0  0  0  0
   -6.2730   18.1438  -32.7829 H   0  0  0  0  0  0  0  0  0  0  0  0
   -7.1470   20.2870  -32.7568 H   0  0  0  0  0  0  0  0  0  0  0  0
   -8.4621   19.4075  -33.6532 H   0  0  0  0  0  0  0  0  0  0  0  0
   -9.8302   19.2832  -31.6966 H   0  0  0  0  0  0  0  0  0  0  0  0
   -8.4856   19.9011  -30.6540 H   0  0  0  0  0  0  0  0  0  0  0  0
   -7.5100   23.1845  -33.4158 H   0  0  0  0  0  0  0  0  0  0  0  0
   -5.3654   24.2392  -32.6865 H   0  0  0  0  0  0  0  0  0  0  0  0
   -3.5590   22.5900  -29.0210 H   0  0  0  0  0  0  0  0  0  0  0  0
   -3.7491   24.5931  -26.6120 H   0  0  0  0  0  0  0  0  0  0  0  0
   -1.9698   25.8002  -25.3304 H   0  0  0  0  0  0  0  0  0  0  0  0
    0.2603   26.1905  -26.3918 H   0  0  0  0  0  0  0  0  0  0  0  0
   -1.0079   24.2027  -29.9414 H   0  0  0  0  0  0  0  0  0  0  0  0
   -6.1006   22.8264  -28.6592 H   0  0  0  0  0  0  0  0  0  0  0  0
  1  2  1  0
  2  3  1  0
  3  4  1  0
  4  5  1  0
  5  6  2  0
  6  7  1  0
  7  8  2  0
  8  9  1  0
  9 10  2  0
  9 11  1  0
 11 12  1  0
 12 13  2  0
 13 14  1  0
 14 15  2  0
 15 16  1  0
 16 17  2  0
  8 18  1  0
 18 19  2  0
 19  5  1  0
 17 12  1  0
  1 20  1  0
  1 21  1  0
  1 22  1  0
  2 23  1  0
  2 24  1  0
  3 25  1  0
  3 26  1  0
  6 27  1  0
  7 28  1  0
 11 29  1  0
 13 30  1  0
 14 31  1  0
 15 32  1  0
 17 33  1  0
 18 34  1  0
M  END
>  <UniqueID>  (37) 
34

>  <SMILES>  (37) 
CCCSc1ccc(C(=O)Nc2cccnc2)cn1

>  <Energy>  (37) 
34.41743707643735

>  <Genealogy>  (37) 
CCCSc1ccc(C(=O)Nc2cccnc2)cn1 (3D coordinates assigned)
CCCSc1ccc(C(=O)Nc2cccnc2)cn1 (optimized conformer: 34.41743707643735 kcal/mol)

>  <smiles>  (37) 
CCCSc1ccc(C(=O)Nc2cccnc2)cn1

>  <score_type>  (37) 
oracle

>  <origin>  (37) 
adgpu

>  <m_score__min__energy>  (37) 
-7.8399999999999999

>  <m_primary>  (37) 
energy

$$$$
37:0
     RDKit          3D

 54 57  0  0  0  0  0  0  0  0999 V2000
   -4.7740   17.2280  -34.9810 C   0  0  0  0  0  0  0  0  0  0  0  0
   -6.0710   17.8040  -34.8500 O   0  0  0  0  0  0  0  0  0  0  0  0
   -6.4690   18.6240  -33.7820 C   0  0  0  0  0  0  0  0  0  0  0  0
   -7.6350   18.3740  -33.0310 C   0  0  0  0  0  0  0  0  0  0  0  0
   -7.9790   19.2130  -31.9680 C   0  0  0  0  0  0  0  0  0  0  0  0
   -7.1690   20.3040  -31.6450 C   0  0  0  0  0  0  0  0  0  0  0  0
   -6.0040   20.5610  -32.3830 C   0  0  0  0  0  0  0  0  0  0  0  0
   -5.1840   21.6980  -32.0760 N   0  0  0  0  0  0  0  0  0  0  0  0
   -5.6520   22.7810  -31.4790 N   0  0  0  0  0  0  0  0  0  0  0  0
   -4.5760   23.5480  -31.2160 C   0  0  0  0  0  0  0  0  0  0  0  0
   -4.6460   24.8190  -30.5010 C   0  0  0  0  0  0  0  0  0  0  0  0
   -5.7240   25.4680  -30.5030 O   0  0  0  0  0  0  0  0  0  0  0  0
   -3.5060   25.2940  -29.7760 N   0  0  0  0  0  0  0  0  0  0  0  0
   -2.7690   24.5660  -28.7370 C   0  0  0  0  0  0  0  0  0  0  0  0
   -1.5560   23.8280  -29.3440 C   0  0  0  0  0  0  0  0  0  0  0  0
   -0.9470   22.8760  -28.3140 C   0  0  0  0  0  0  0  0  0  0  0  0
   -1.9410   21.7780  -27.8740 C   0  0  0  0  0  0  0  0  0  0  0  0
   -3.4190   22.1460  -28.1130 C   0  0  0  0  0  0  0  0  0  0  0  0
   -3.6970   23.6440  -27.8970 C   0  0  0  0  0  0  0  0  0  0  0  0
   -3.4180   22.9780  -31.6140 N   0  0  0  0  0  0  0  0  0  0  0  0
   -3.8380   21.8140  -32.1540 C   0  0  0  0  0  0  0  0  0  0  0  0
   -2.9080   20.8140  -32.7340 C   0  0  0  0  0  0  0  0  0  0  0  0
   -2.0760   21.1350  -33.8210 C   0  0  0  0  0  0  0  0  0  0  0  0
   -1.2210   20.1740  -34.3600 C   0  0  0  0  0  0  0  0  0  0  0  0
   -1.1730   18.8800  -33.8190 C   0  0  0  0  0  0  0  0  0  0  0  0
   -0.2320   17.8590  -34.3840 C   0  0  0  0  0  0  0  0  0  0  0  0
   -1.9600   18.5740  -32.7030 C   0  0  0  0  0  0  0  0  0  0  0  0
   -2.8250   19.5330  -32.1660 C   0  0  0  0  0  0  0  0  0  0  0  0
   -5.6670   19.7260  -33.4570 C   0  0  0  0  0  0  0  0  0  0  0  0
   -4.3532   17.0411  -33.9820 H   0  0  0  0  0  0  0  0  0  0  0  0
   -4.8484   16.2783  -35.5311 H   0  0  0  0  0  0  0  0  0  0  0  0
   -4.1193   17.9200  -35.5311 H   0  0  0  0  0  0  0  0  0  0  0  0
   -8.2760   17.5161  -33.2823 H   0  0  0  0  0  0  0  0  0  0  0  0
   -8.8898   19.0138  -31.3842 H   0  0  0  0  0  0  0  0  0  0  0  0
   -7.4454   20.9638  -30.8094 H   0  0  0  0  0  0  0  0  0  0  0  0
   -2.3688   25.2993  -28.0214 H   0  0  0  0  0  0  0  0  0  0  0  0
   -1.8834   23.2520  -30.2221 H   0  0  0  0  0  0  0  0  0  0  0  0
   -0.7980   24.5677  -29.6411 H   0  0  0  0  0  0  0  0  0  0  0  0
   -0.0615   22.3957  -28.7558 H   0  0  0  0  0  0  0  0  0  0  0  0
   -0.6808   23.4663  -27.4248 H   0  0  0  0  0  0  0  0  0  0  0  0
   -1.7163   20.8605  -28.4376 H   0  0  0  0  0  0  0  0  0  0  0  0
   -1.8145   21.6467  -26.7892 H   0  0  0  0  0  0  0  0  0  0  0  0
   -3.6847   21.8838  -29.1477 H   0  0  0  0  0  0  0  0  0  0  0  0
   -4.0242   21.5859  -27.3850 H   0  0  0  0  0  0  0  0  0  0  0  0
   -4.7407   23.8499  -28.1769 H   0  0  0  0  0  0  0  0  0  0  0  0
   -3.5029   23.8631  -26.8367 H   0  0  0  0  0  0  0  0  0  0  0  0
   -2.0995   22.1484  -34.2481 H   0  0  0  0  0  0  0  0  0  0  0  0
   -0.5795   20.4322  -35.2155 H   0  0  0  0  0  0  0  0  0  0  0  0
    0.2631   17.3218  -33.5616 H   0  0  0  0  0  0  0  0  0  0  0  0
   -0.7947   17.1443  -35.0025 H   0  0  0  0  0  0  0  0  0  0  0  0
    0.5261   18.3617  -35.0025 H   0  0  0  0  0  0  0  0  0  0  0  0
   -1.8981   17.5752  -32.2463 H   0  0  0  0  0  0  0  0  0  0  0  0
   -3.4445   19.2817  -31.2925 H   0  0  0  0  0  0  0  0  0  0  0  0
   -4.7650   19.9376  -34.0500 H   0  0  0  0  0  0  0  0  0  0  0  0
  1  2  1  0
  2  3  1  0
  3  4  2  0
  4  5  1  0
  5  6  2  0
  6  7  1  0
  7  8  1  0
  8  9  1  0
  9 10  2  0
 10 11  1  0
 11 12  2  0
 11 13  1  0
 13 14  1  0
 14 15  1  0
 15 16  1  0
 16 17  1  0
 17 18  1  0
 18 19  1  0
 10 20  1  0
 20 21  2  0
 21 22  1  0
 22 23  2  0
 23 24  1  0
 24 25  2  0
 25 26  1  0
 25 27  1  0
 27 28  2  0
  7 29  2  0
 29  3  1  0
 21  8  1  0
 28 22  1  0
 19 14  1  0
  1 30  1  0
  1 31  1  0
  1 32  1  0
  4 33  1  0
  5 34  1  0
  6 35  1  0
 14 36  1  0
 15 37  1  0
 15 38  1  0
 16 39  1  0
 16 40  1  0
 17 41  1  0
 17 42  1  0
 18 43  1  0
 18 44  1  0
 19 45  1  0
 19 46  1  0
 23 47  1  0
 24 48  1  0
 26 49  1  0
 26 50  1  0
 26 51  1  0
 27 52  1  0
 28 53  1  0
 29 54  1  0
M  CHG  1  13  -1
M  END
>  <UniqueID>  (38) 
35

>  <SMILES>  (38) 
COc1cccc(-n2nc(C(=O)[N-]C3CCCCC3)nc2-c2ccc(C)cc2)c1

>  <Energy>  (38) 
99.40847005785794

>  <Genealogy>  (38) 
COc1cccc(-n2nc(C(=O)[N-]C3CCCCC3)nc2-c2ccc(C)cc2)c1 (protonated)
COc1cccc(-n2nc(C(=O)[N-]C3CCCCC3)nc2-c2ccc(C)cc2)c1 (3D coordinates assigned)
COc1cccc(-n2nc(C(=O)[N-]C3CCCCC3)nc2-c2ccc(C)cc2)c1 (nonaromatic ring conformer: 99.40847005785794 kcal/mol)

>  <smiles>  (38) 
COc1cccc(-n2nc(C(=O)NC3CCCCC3)nc2-c2ccc(C)cc2)c1

>  <score_type>  (38) 
oracle

>  <origin>  (38) 
adgpu

>  <m_score__min__energy>  (38) 
-10.9

>  <m_primary>  (38) 
energy

$$$$
38:0
     RDKit          3D

 32 34  0  0  0  0  0  0  0  0999 V2000
   -2.2070   25.2320  -29.3220 O   0  0  0  0  0  0  0  0  0  0  0  0
   -3.1950   24.5500  -28.9390 C   0  0  0  0  0  0  0  0  0  0  0  0
   -3.3260   24.1790  -27.5560 N   0  0  0  0  0  0  0  0  0  0  0  0
   -2.2460   24.2410  -26.6080 C   0  0  0  0  0  0  0  0  0  0  0  0
   -2.0960   25.3430  -25.7440 C   0  0  0  0  0  0  0  0  0  0  0  0
   -1.0250   25.3970  -24.8460 C   0  0  0  0  0  0  0  0  0  0  0  0
   -0.8490   26.7740  -23.7720 Cl  0  0  0  0  0  0  0  0  0  0  0  0
   -0.0880   24.3600  -24.8110 C   0  0  0  0  0  0  0  0  0  0  0  0
   -0.2170   23.2740  -25.6780 C   0  0  0  0  0  0  0  0  0  0  0  0
   -1.2850   23.2150  -26.5780 C   0  0  0  0  0  0  0  0  0  0  0  0
   -1.3940   22.1480  -27.4100 F   0  0  0  0  0  0  0  0  0  0  0  0
   -4.2260   24.1760  -29.9200 C   0  0  0  0  0  0  0  0  0  0  0  0
   -5.0160   23.0450  -29.9200 C   0  0  0  0  0  0  0  0  0  0  0  0
   -5.8000   23.1340  -31.0120 N   0  0  0  0  0  0  0  0  0  0  0  0
   -6.7660   22.1660  -31.4640 C   0  0  0  0  0  0  0  0  0  0  0  0
   -8.1080   22.2770  -31.0500 C   0  0  0  0  0  0  0  0  0  0  0  0
   -9.0590   21.3400  -31.4620 C   0  0  0  0  0  0  0  0  0  0  0  0
   -8.6860   20.2830  -32.2920 C   0  0  0  0  0  0  0  0  0  0  0  0
   -7.3620   20.1620  -32.7160 C   0  0  0  0  0  0  0  0  0  0  0  0
   -6.3990   21.0940  -32.3110 C   0  0  0  0  0  0  0  0  0  0  0  0
   -4.7660   20.9160  -32.9430 Cl  0  0  0  0  0  0  0  0  0  0  0  0
   -5.4920   24.2520  -31.6510 N   0  0  0  0  0  0  0  0  0  0  0  0
   -4.5380   24.9090  -31.0070 N   0  0  0  0  0  0  0  0  0  0  0  0
   -4.2770   23.9400  -27.1970 H   0  0  0  0  0  0  0  0  0  0  0  0
   -2.8252   26.1659  -25.7756 H   0  0  0  0  0  0  0  0  0  0  0  0
    0.7507   24.4000  -24.1003 H   0  0  0  0  0  0  0  0  0  0  0  0
    0.5243   22.4617  -25.6531 H   0  0  0  0  0  0  0  0  0  0  0  0
   -5.0075   22.2335  -29.1775 H   0  0  0  0  0  0  0  0  0  0  0  0
   -8.4098   23.1088  -30.3965 H   0  0  0  0  0  0  0  0  0  0  0  0
  -10.1037   21.4361  -31.1312 H   0  0  0  0  0  0  0  0  0  0  0  0
   -9.4357   19.5446  -32.6125 H   0  0  0  0  0  0  0  0  0  0  0  0
   -7.0730   19.3285  -33.3730 H   0  0  0  0  0  0  0  0  0  0  0  0
  1  2  2  0
  2  3  1  0
  3  4  1  0
  4  5  2  0
  5  6  1  0
  6  7  1  0
  6  8  2  0
  8  9  1  0
  9 10  2  0
 10 11  1  0
  2 12  1  0
 12 13  2  0
 13 14  1  0
 14 15  1  0
 15 16  2  0
 16 17  1  0
 17 18  2  0
 18 19  1  0
 19 20  2  0
 20 21  1  0
 14 22  1  0
 22 23  2  0
 10  4  1  0
 23 12  1  0
 20 15  1  0
  3 24  1  0
  5 25  1  0
  8 26  1  0
  9 27  1  0
 13 28  1  0
 16 29  1  0
 17 30  1  0
 18 31  1  0
 19 32  1  0
M  END
>  <UniqueID>  (39) 
36

>  <SMILES>  (39) 
O=C(Nc1cc(Cl)ccc1F)c1cn(-c2ccccc2Cl)nn1

>  <Energy>  (39) 
78.53666403338595

>  <Genealogy>  (39) 
O=C(Nc1cc(Cl)ccc1F)c1cn(-c2ccccc2Cl)nn1 (3D coordinates assigned)
O=C(Nc1cc(Cl)ccc1F)c1cn(-c2ccccc2Cl)nn1 (optimized conformer: 78.53666403338595 kcal/mol)

>  <smiles>  (39) 
O=C(Nc1cc(Cl)ccc1F)c1cn(-c2ccccc2Cl)nn1

>  <score_type>  (39) 
oracle

>  <origin>  (39) 
adgpu

>  <m_score__min__energy>  (39) 
-9.1600000000000001

>  <m_primary>  (39) 
energy

$$$$
39:0
     RDKit          3D

 36 38  0  0  0  0  0  0  0  0999 V2000
   -4.3610   24.1760  -28.3620 C   0  0  0  0  0  0  0  0  0  0  0  0
   -5.0530   24.6300  -29.9350 S   0  0  0  0  0  0  0  0  0  0  0  0
   -6.0570   25.7320  -29.7440 O   0  0  0  0  0  0  0  0  0  0  0  0
   -3.9610   25.1230  -30.8430 O   0  0  0  0  0  0  0  0  0  0  0  0
   -5.8360   23.2270  -30.6560 C   0  0  0  0  0  0  0  0  0  0  0  0
   -5.0740   22.1990  -31.2180 C   0  0  0  0  0  0  0  0  0  0  0  0
   -5.6860   21.1240  -31.7790 N   0  0  0  0  0  0  0  0  0  0  0  0
   -7.0430   21.0040  -31.8280 C   0  0  0  0  0  0  0  0  0  0  0  0
   -7.8480   22.0260  -31.2850 C   0  0  0  0  0  0  0  0  0  0  0  0
   -7.2300   23.1340  -30.6910 C   0  0  0  0  0  0  0  0  0  0  0  0
   -9.3490   21.8950  -31.2560 C   0  0  0  0  0  0  0  0  0  0  0  0
   -9.8540   20.9370  -32.3380 C   0  0  0  0  0  0  0  0  0  0  0  0
   -9.0940   19.6110  -32.2780 C   0  0  0  0  0  0  0  0  0  0  0  0
   -7.6510   19.8400  -32.4330 N   0  0  0  0  0  0  0  0  0  0  0  0
   -6.8430   18.8380  -33.0810 C   0  0  0  0  0  0  0  0  0  0  0  0
   -6.8030   17.5240  -32.5820 C   0  0  0  0  0  0  0  0  0  0  0  0
   -6.0270   16.5510  -33.2200 C   0  0  0  0  0  0  0  0  0  0  0  0
   -5.2920   16.8790  -34.3620 C   0  0  0  0  0  0  0  0  0  0  0  0
   -4.5420   15.9330  -34.9800 F   0  0  0  0  0  0  0  0  0  0  0  0
   -5.3340   18.1800  -34.8700 C   0  0  0  0  0  0  0  0  0  0  0  0
   -6.1080   19.1560  -34.2350 C   0  0  0  0  0  0  0  0  0  0  0  0
   -4.9856   24.5858  -27.5546 H   0  0  0  0  0  0  0  0  0  0  0  0
   -4.3272   23.0797  -28.2790 H   0  0  0  0  0  0  0  0  0  0  0  0
   -3.3419   24.5816  -28.2790 H   0  0  0  0  0  0  0  0  0  0  0  0
   -3.9758   22.2606  -31.2060 H   0  0  0  0  0  0  0  0  0  0  0  0
   -7.8440   23.9335  -30.2507 H   0  0  0  0  0  0  0  0  0  0  0  0
   -9.6547   21.5132  -30.2707 H   0  0  0  0  0  0  0  0  0  0  0  0
   -9.7839   22.8874  -31.4460 H   0  0  0  0  0  0  0  0  0  0  0  0
  -10.9261   20.7470  -32.1813 H   0  0  0  0  0  0  0  0  0  0  0  0
   -9.6899   21.3963  -33.3240 H   0  0  0  0  0  0  0  0  0  0  0  0
   -9.2822   19.1290  -31.3073 H   0  0  0  0  0  0  0  0  0  0  0  0
   -9.4422   18.9629  -33.0958 H   0  0  0  0  0  0  0  0  0  0  0  0
   -7.3844   17.2603  -31.6862 H   0  0  0  0  0  0  0  0  0  0  0  0
   -5.9953   15.5260  -32.8221 H   0  0  0  0  0  0  0  0  0  0  0  0
   -4.7573   18.4367  -35.7708 H   0  0  0  0  0  0  0  0  0  0  0  0
   -6.1415   20.1778  -34.6411 H   0  0  0  0  0  0  0  0  0  0  0  0
  1  2  1  0
  2  3  2  0
  2  4  2  0
  2  5  1  0
  5  6  2  0
  6  7  1  0
  7  8  2  0
  8  9  1  0
  9 10  2  0
  9 11  1  0
 11 12  1  0
 12 13  1  0
 13 14  1  0
 14 15  1  0
 15 16  2  0
 16 17  1  0
 17 18  2  0
 18 19  1  0
 18 20  1  0
 20 21  2  0
 10  5  1  0
 21 15  1  0
 14  8  1  0
  1 22  1  0
  1 23  1  0
  1 24  1  0
  6 25  1  0
 10 26  1  0
 11 27  1  0
 11 28  1  0
 12 29  1  0
 12 30  1  0
 13 31  1  0
 13 32  1  0
 16 33  1  0
 17 34  1  0
 20 35  1  0
 21 36  1  0
M  END
>  <UniqueID>  (40) 
37

>  <SMILES>  (40) 
CS(=O)(=O)c1cnc2c(c1)CCCN2c1ccc(F)cc1

>  <Energy>  (40) 
40.608308565401906

>  <Genealogy>  (40) 
CS(=O)(=O)c1cnc2c(c1)CCCN2c1ccc(F)cc1 (3D coordinates assigned)
CS(=O)(=O)c1cnc2c(c1)CCCN2c1ccc(F)cc1 (nonaromatic ring conformer: 40.608308565401906 kcal/mol)

>  <smiles>  (40) 
CS(=O)(=O)c1cnc2c(c1)CCCN2c1ccc(F)cc1

>  <score_type>  (40) 
oracle

>  <origin>  (40) 
adgpu

>  <m_score__min__energy>  (40) 
-9.4299999999999997

>  <m_primary>  (40) 
energy

$$$$
40:0
     RDKit          3D

 42 44  0  0  1  0  0  0  0  0999 V2000
    0.3960   27.5880  -25.7820 C   0  0  0  0  0  0  0  0  0  0  0  0
   -0.1080   26.5100  -26.6740 C   0  0  0  0  0  0  0  0  0  0  0  0
    0.1620   25.1630  -26.4010 C   0  0  0  0  0  0  0  0  0  0  0  0
   -0.3420   24.2020  -27.2770 C   0  0  0  0  0  0  0  0  0  0  0  0
   -1.0920   24.6120  -28.3890 C   0  0  0  0  0  0  0  0  0  0  0  0
   -1.6320   23.6760  -29.3120 N   0  0  0  0  0  0  0  0  0  0  0  0
   -0.7460   22.7620  -30.0410 C   0  0  0  0  0  0  0  0  0  0  0  0
   -3.0190   23.5670  -29.5930 C   0  0  0  0  0  0  0  0  0  0  0  0
   -3.5790   22.5600  -30.3400 C   0  0  0  0  0  0  0  0  0  0  0  0
   -4.9540   22.6100  -30.5250 C   0  0  0  0  0  0  0  0  0  0  0  0
   -5.4820   21.6710  -31.2240 N   0  0  0  0  0  0  0  0  0  0  0  0
   -6.8590   21.5590  -31.5160 C   0  0  0  0  0  0  0  0  0  0  0  0
   -7.7110   22.6230  -31.6870 C   0  0  0  0  0  0  0  0  0  0  0  0
   -9.0370   22.4030  -31.9680 C   0  0  0  0  0  0  0  0  0  0  0  0
   -9.5650   21.1220  -32.0890 C   0  0  0  0  0  0  0  0  0  0  0  0
   -8.7240   20.0540  -31.9210 C   0  0  0  0  0  0  0  0  0  0  0  0
   -9.1710   18.6330  -32.0260 C   0  0  0  0  0  0  0  0  0  0  0  0
   -7.3780   20.2690  -31.6360 C   0  0  0  0  0  0  0  0  0  0  0  0
   -5.7350   23.5640  -30.0280 N   0  0  0  0  0  0  0  0  0  0  0  0
   -5.1420   24.5370  -29.2980 C   0  0  0  0  0  0  0  0  0  0  0  0
   -3.8190   24.5270  -29.0950 N   0  0  0  0  0  0  0  0  0  0  0  0
   -1.3240   25.9270  -28.6080 N   0  0  0  0  0  0  0  0  0  0  0  0
   -0.8520   26.8860  -27.7810 C   0  0  0  0  0  0  0  0  0  0  0  0
    0.2568   27.2903  -24.7322 H   0  0  0  0  0  0  0  0  0  0  0  0
    1.4656   27.7551  -25.9770 H   0  0  0  0  0  0  0  0  0  0  0  0
   -0.1616   28.5159  -25.9770 H   0  0  0  0  0  0  0  0  0  0  0  0
    0.7544   24.8716  -25.5212 H   0  0  0  0  0  0  0  0  0  0  0  0
   -0.1532   23.1333  -27.0976 H   0  0  0  0  0  0  0  0  0  0  0  0
   -0.1658   22.1635  -29.3233 H   0  0  0  0  0  0  0  0  0  0  0  0
   -1.3488   22.0934  -30.6732 H   0  0  0  0  0  0  0  0  0  0  0  0
   -0.0590   23.3437  -30.6732 H   0  0  0  0  0  0  0  0  0  0  0  0
   -2.9680   21.7531  -30.7708 H   0  0  0  0  0  0  0  0  0  0  0  0
   -7.3309   23.6515  -31.5988 H   0  0  0  0  0  0  0  0  0  0  0  0
   -9.7032   23.2680  -32.1017 H   0  0  0  0  0  0  0  0  0  0  0  0
  -10.6310   20.9704  -32.3139 H   0  0  0  0  0  0  0  0  0  0  0  0
   -9.3026   18.2145  -31.0173 H   0  0  0  0  0  0  0  0  0  0  0  0
  -10.1266   18.5884  -32.5690 H   0  0  0  0  0  0  0  0  0  0  0  0
   -8.4131   18.0494  -32.5690 H   0  0  0  0  0  0  0  0  0  0  0  0
   -6.7105   19.4049  -31.5028 H   0  0  0  0  0  0  0  0  0  0  0  0
   -5.7531   25.3439  -28.8673 H   0  0  0  0  0  0  0  0  0  0  0  0
   -3.4040   25.3000  -28.5250 H   0  0  0  0  0  0  0  0  0  0  0  0
   -1.0551   27.9480  -27.9833 H   0  0  0  0  0  0  0  0  0  0  0  0
  1  2  1  0
  2  3  2  0
  3  4  1  0
  4  5  2  0
  5  6  1  0
  6  7  1  0
  6  8  1  0
  8  9  2  0
  9 10  1  0
 10 11  2  0
 11 12  1  0
 12 13  2  0
 13 14  1  0
 14 15  2  0
 15 16  1  0
 16 17  1  0
 16 18  2  0
 10 19  1  0
 19 20  2  0
 20 21  1  0
  5 22  1  0
 22 23  2  0
 23  2  1  0
 21  8  1  0
 18 12  1  0
  1 24  1  0
  1 25  1  0
  1 26  1  0
  3 27  1  0
  4 28  1  0
  7 29  1  0
  7 30  1  0
  7 31  1  0
  9 32  1  0
 13 33  1  0
 14 34  1  0
 15 35  1  0
 17 36  1  0
 17 37  1  0
 17 38  1  0
 18 39  1  0
 20 40  1  0
 21 41  1  0
 23 42  1  0
M  END
>  <smiles>  (41) 
Cc1ccc(N(C)c2cc(=Nc3cccc(C)c3)nc[nH]2)nc1

>  <score_type>  (41) 
oracle

>  <origin>  (41) 
adgpu

>  <m_score__min__energy>  (41) 
-8.6300000000000008

>  <m_primary>  (41) 
energy

$$$$
41:0
     RDKit          3D

 30 32  0  0  0  0  0  0  0  0999 V2000
   -0.2368   20.1349  -33.3853 H   0  0  0  0  0  0  0  0  0  0  0  0
   -1.2190   20.5770  -33.1620 C   0  0  0  0  0  0  0  0  0  0  0  0
   -1.4230   21.3990  -32.0990 N   0  0  0  0  0  0  0  0  0  0  0  0
   -2.7010   21.8290  -32.0350 C   0  0  0  0  0  0  0  0  0  0  0  0
   -3.1260   22.5920  -31.0720 N   0  0  0  0  0  0  0  0  0  0  0  0
   -4.4500   23.1340  -30.9320 C   0  0  0  0  0  0  0  0  0  0  0  0
   -5.5920   22.3480  -31.1720 C   0  0  0  0  0  0  0  0  0  0  0  0
   -5.4788   21.2871  -31.4399 H   0  0  0  0  0  0  0  0  0  0  0  0
   -6.8730   22.9080  -31.0720 C   0  0  0  0  0  0  0  0  0  0  0  0
   -8.2930   21.9090  -31.3580 S   0  0  0  0  0  0  0  0  0  0  0  0
   -9.0160   21.6970  -30.0570 O   0  0  0  0  0  0  0  0  0  0  0  0
   -9.2190   22.5840  -32.3310 O   0  0  0  0  0  0  0  0  0  0  0  0
   -7.8070   20.3830  -32.0160 N   0  0  0  0  0  0  0  0  0  0  0  0
   -8.2660   19.1800  -31.6310 C   0  0  0  0  0  0  0  0  0  0  0  0
   -8.9889   19.0064  -30.8203 H   0  0  0  0  0  0  0  0  0  0  0  0
   -7.6910   18.1960  -32.4090 C   0  0  0  0  0  0  0  0  0  0  0  0
   -7.8639   17.1124  -32.3322 H   0  0  0  0  0  0  0  0  0  0  0  0
   -6.8550   18.8380  -33.3040 C   0  0  0  0  0  0  0  0  0  0  0  0
   -6.2335   18.3651  -34.0787 H   0  0  0  0  0  0  0  0  0  0  0  0
   -6.9530   20.1890  -33.0350 C   0  0  0  0  0  0  0  0  0  0  0  0
   -6.4148   20.9838  -33.5722 H   0  0  0  0  0  0  0  0  0  0  0  0
   -7.0130   24.2630  -30.7440 C   0  0  0  0  0  0  0  0  0  0  0  0
   -8.0164   24.7031  -30.6470 H   0  0  0  0  0  0  0  0  0  0  0  0
   -5.8820   25.0560  -30.5400 C   0  0  0  0  0  0  0  0  0  0  0  0
   -5.9969   26.1224  -30.2959 H   0  0  0  0  0  0  0  0  0  0  0  0
   -4.6040   24.4990  -30.6450 C   0  0  0  0  0  0  0  0  0  0  0  0
   -3.4860   25.3040  -30.4510 O   0  0  0  0  0  0  0  0  0  0  0  0
   -3.6350   21.1830  -33.2850 S   0  0  0  0  0  0  0  0  0  0  0  0
   -2.3410   20.3350  -33.9470 C   0  0  0  0  0  0  0  0  0  0  0  0
   -2.3765   19.6999  -34.8444 H   0  0  0  0  0  0  0  0  0  0  0  0
  1  2  1  0
  2  3  1  0
  3  4  1  0
  4  5  2  0
  5  6  1  0
  6  7  2  0
  7  8  1  0
  7  9  1  0
  9 10  1  0
 10 11  2  0
 10 12  2  0
 10 13  1  0
 13 14  1  0
 14 15  1  0
 14 16  2  0
 16 17  1  0
 16 18  1  0
 18 19  1  0
 18 20  2  0
 20 21  1  0
  9 22  2  0
 22 23  1  0
 22 24  1  0
 24 25  1  0
 24 26  2  0
 26 27  1  0
  4 28  1  0
 28 29  1  0
 29 30  1  0
 29  2  2  0
 26  6  1  0
 20 13  1  0
M  CHG  2   3  -1  27  -1
M  END
>  <UniqueID>  (42) 
38

>  <SMILES>  (42) 
O=S(=O)(c1ccc([O-])c(/N=c2/[n-]ccs2)c1)n1cccc1

>  <Energy>  (42) 
97.10145064508413

>  <Genealogy>  (42) 
O=S(=O)(c1ccc([O-])c(N=c2[n-]ccs2)c1)n1cccc1 (protonated)
O=S(=O)(c1ccc([O-])c(/N=c2/[n-]ccs2)c1)n1cccc1 (cis-trans isomerization)
O=S(=O)(c1ccc([O-])c(/N=c2/[n-]ccs2)c1)n1cccc1 (3D coordinates assigned)
O=S(=O)(c1ccc([O-])c(/N=c2/[n-]ccs2)c1)n1cccc1 (optimized conformer: 97.10145064508413 kcal/mol)

>  <smiles>  (42) 
O=S(=O)(c1ccc(O)c(N=c2[nH]ccs2)c1)n1cccc1

>  <score_type>  (42) 
oracle

>  <origin>  (42) 
adgpu

>  <m_score__min__energy>  (42) 
-11.65

>  <m_primary>  (42) 
energy

$$$$
42:0
     RDKit          3D

 30 32  0  0  0  0  0  0  0  0999 V2000
   -8.9430   19.2670  -32.3280 C   0  0  0  0  0  0  0  0  0  0  0  0
   -8.0440   20.4470  -32.1670 C   0  0  0  0  0  0  0  0  0  0  0  0
   -8.3870   21.6480  -31.5850 C   0  0  0  0  0  0  0  0  0  0  0  0
   -7.3270   22.4640  -31.6950 N   0  0  0  0  0  0  0  0  0  0  0  0
   -7.2000   23.8140  -31.1550 C   0  0  0  0  0  0  0  0  0  0  0  0
   -5.7920   24.0550  -30.7210 C   0  0  0  0  0  0  0  0  0  0  0  0
   -5.1780   23.3700  -29.7380 N   0  0  0  0  0  0  0  0  0  0  0  0
   -3.9690   23.9700  -29.7060 C   0  0  0  0  0  0  0  0  0  0  0  0
   -2.8770   23.5920  -28.7780 C   0  0  0  0  0  0  0  0  0  0  0  0
   -2.9680   22.3950  -28.0420 C   0  0  0  0  0  0  0  0  0  0  0  0
   -1.9470   22.0230  -27.1620 C   0  0  0  0  0  0  0  0  0  0  0  0
   -0.8270   22.8400  -27.0040 C   0  0  0  0  0  0  0  0  0  0  0  0
   -0.7240   24.0300  -27.7260 C   0  0  0  0  0  0  0  0  0  0  0  0
   -1.7400   24.4110  -28.6090 C   0  0  0  0  0  0  0  0  0  0  0  0
   -1.6030   25.5740  -29.2950 F   0  0  0  0  0  0  0  0  0  0  0  0
   -3.8690   24.9620  -30.6150 N   0  0  0  0  0  0  0  0  0  0  0  0
   -5.0160   24.9850  -31.2200 O   0  0  0  0  0  0  0  0  0  0  0  0
   -6.3720   21.7500  -32.3250 C   0  0  0  0  0  0  0  0  0  0  0  0
   -6.7830   20.5060  -32.6450 N   0  0  0  0  0  0  0  0  0  0  0  0
   -9.2317   18.8880  -31.3365 H   0  0  0  0  0  0  0  0  0  0  0  0
   -9.8444   19.5658  -32.8831 H   0  0  0  0  0  0  0  0  0  0  0  0
   -8.4156   18.4772  -32.8831 H   0  0  0  0  0  0  0  0  0  0  0  0
   -9.3517   21.8929  -31.1166 H   0  0  0  0  0  0  0  0  0  0  0  0
   -7.4732   24.5447  -31.9306 H   0  0  0  0  0  0  0  0  0  0  0  0
   -7.8704   23.9235  -30.2898 H   0  0  0  0  0  0  0  0  0  0  0  0
   -3.8493   21.7474  -28.1603 H   0  0  0  0  0  0  0  0  0  0  0  0
   -2.0269   21.0848  -26.5934 H   0  0  0  0  0  0  0  0  0  0  0  0
   -0.0253   22.5462  -26.3105 H   0  0  0  0  0  0  0  0  0  0  0  0
    0.1606   24.6716  -27.6001 H   0  0  0  0  0  0  0  0  0  0  0  0
   -5.3687   22.1392  -32.5527 H   0  0  0  0  0  0  0  0  0  0  0  0
  1  2  1  0
  2  3  2  0
  3  4  1  0
  4  5  1  0
  5  6  1  0
  6  7  2  0
  7  8  1  0
  8  9  1  0
  9 10  2  0
 10 11  1  0
 11 12  2  0
 12 13  1  0
 13 14  2  0
 14 15  1  0
  8 16  2  0
 16 17  1  0
  4 18  1  0
 18 19  2  0
 19  2  1  0
 17  6  1  0
 14  9  1  0
  1 20  1  0
  1 21  1  0
  1 22  1  0
  3 23  1  0
  5 24  1  0
  5 25  1  0
 10 26  1  0
 11 27  1  0
 12 28  1  0
 13 29  1  0
 18 30  1  0
M  END
>  <UniqueID>  (43) 
39

>  <SMILES>  (43) 
Cc1cn(Cc2nc(-c3ccccc3F)no2)cn1

>  <Energy>  (43) 
92.58425444092202

>  <Genealogy>  (43) 
Cc1cn(Cc2nc(-c3ccccc3F)no2)cn1 (3D coordinates assigned)
Cc1cn(Cc2nc(-c3ccccc3F)no2)cn1 (optimized conformer: 92.58425444092202 kcal/mol)

>  <smiles>  (43) 
Cc1cn(Cc2nc(-c3ccccc3F)no2)cn1

>  <score_type>  (43) 
oracle

>  <origin>  (43) 
adgpu

>  <m_score__min__energy>  (43) 
-7.46

>  <m_primary>  (43) 
energy

$$$$
43:0
     RDKit          3D

 28 30  0  0  0  0  0  0  0  0999 V2000
   -9.2010   19.6060  -32.7170 Br  0  0  0  0  0  0  0  0  0  0  0  0
   -7.8950   20.8070  -32.0100 C   0  0  0  0  0  0  0  0  0  0  0  0
   -8.2520   21.7280  -31.0230 C   0  0  0  0  0  0  0  0  0  0  0  0
   -7.2970   22.6090  -30.5030 C   0  0  0  0  0  0  0  0  0  0  0  0
   -5.9690   22.5770  -30.9710 C   0  0  0  0  0  0  0  0  0  0  0  0
   -4.9400   23.5020  -30.4340 C   0  0  0  0  0  0  0  0  0  0  0  0
   -4.3050   23.4250  -29.2070 C   0  0  0  0  0  0  0  0  0  0  0  0
   -3.4510   24.5130  -29.2050 C   0  0  0  0  0  0  0  0  0  0  0  0
   -2.5170   24.9290  -28.1340 C   0  0  0  0  0  0  0  0  0  0  0  0
   -2.9450   24.9130  -26.7950 C   0  0  0  0  0  0  0  0  0  0  0  0
   -2.0780   25.3030  -25.7690 C   0  0  0  0  0  0  0  0  0  0  0  0
   -0.7760   25.7120  -26.0680 C   0  0  0  0  0  0  0  0  0  0  0  0
    0.4050   26.2440  -24.6650 Br  0  0  0  0  0  0  0  0  0  0  0  0
   -0.3400   25.7320  -27.3950 C   0  0  0  0  0  0  0  0  0  0  0  0
   -1.2030   25.3430  -28.4240 C   0  0  0  0  0  0  0  0  0  0  0  0
   -3.5950   25.1540  -30.3440 O   0  0  0  0  0  0  0  0  0  0  0  0
   -4.4780   24.5760  -31.1030 N   0  0  0  0  0  0  0  0  0  0  0  0
   -5.6220   21.6450  -31.9660 C   0  0  0  0  0  0  0  0  0  0  0  0
   -6.5800   20.7670  -32.4820 C   0  0  0  0  0  0  0  0  0  0  0  0
   -9.2874   21.7612  -30.6530 H   0  0  0  0  0  0  0  0  0  0  0  0
   -7.5852   23.3305  -29.7243 H   0  0  0  0  0  0  0  0  0  0  0  0
   -4.4465   22.6731  -28.4167 H   0  0  0  0  0  0  0  0  0  0  0  0
   -3.9687   24.5916  -26.5525 H   0  0  0  0  0  0  0  0  0  0  0  0
   -2.4221   25.2876  -24.7243 H   0  0  0  0  0  0  0  0  0  0  0  0
    0.6848   26.0546  -27.6310 H   0  0  0  0  0  0  0  0  0  0  0  0
   -0.8531   25.3605  -29.4667 H   0  0  0  0  0  0  0  0  0  0  0  0
   -4.5886   21.6067  -32.3411 H   0  0  0  0  0  0  0  0  0  0  0  0
   -6.2982   20.0433  -33.2610 H   0  0  0  0  0  0  0  0  0  0  0  0
  1  2  1  0
  2  3  2  0
  3  4  1  0
  4  5  2  0
  5  6  1  0
  6  7  1  0
  7  8  2  0
  8  9  1  0
  9 10  2  0
 10 11  1  0
 11 12  2  0
 12 13  1  0
 12 14  1  0
 14 15  2  0
  8 16  1  0
 16 17  1  0
  5 18  1  0
 18 19  2  0
 19  2  1  0
 17  6  2  0
 15  9  1  0
  3 20  1  0
  4 21  1  0
  7 22  1  0
 10 23  1  0
 11 24  1  0
 14 25  1  0
 15 26  1  0
 18 27  1  0
 19 28  1  0
M  END
>  <UniqueID>  (44) 
40

>  <SMILES>  (44) 
Brc1ccc(-c2cc(-c3ccc(Br)cc3)on2)cc1

>  <Energy>  (44) 
63.33321774610524

>  <Genealogy>  (44) 
Brc1ccc(-c2cc(-c3ccc(Br)cc3)on2)cc1 (3D coordinates assigned)
Brc1ccc(-c2cc(-c3ccc(Br)cc3)on2)cc1 (optimized conformer: 63.33321774610524 kcal/mol)

>  <smiles>  (44) 
Brc1ccc(-c2cc(-c3ccc(Br)cc3)on2)cc1

>  <score_type>  (44) 
oracle

>  <origin>  (44) 
adgpu

>  <m_score__min__energy>  (44) 
-9.3300000000000001

>  <m_primary>  (44) 
energy

$$$$
44:0
     RDKit          3D

 33 33  0  0  0  0  0  0  0  0999 V2000
   -8.7250   21.1140  -31.5860 C   0  0  0  0  0  0  0  0  0  0  0  0
   -8.4840   22.5170  -31.5530 O   0  0  0  0  0  0  0  0  0  0  0  0
   -7.2340   23.1010  -31.3010 C   0  0  0  0  0  0  0  0  0  0  0  0
   -6.0380   22.5880  -31.8390 C   0  0  0  0  0  0  0  0  0  0  0  0
   -4.8170   23.2060  -31.5550 C   0  0  0  0  0  0  0  0  0  0  0  0
   -4.7640   24.3290  -30.7220 C   0  0  0  0  0  0  0  0  0  0  0  0
   -3.4930   24.9470  -30.4780 N   0  0  0  0  0  0  0  0  0  0  0  0
   -2.5380   24.5600  -29.4820 C   0  0  0  0  0  0  0  0  0  0  0  0
   -1.4490   25.1800  -29.3540 O   0  0  0  0  0  0  0  0  0  0  0  0
   -2.8410   23.4020  -28.5830 C   0  0  0  0  0  0  0  0  0  0  0  0
   -2.3830   23.6830  -27.1450 C   0  0  0  0  0  0  0  0  0  0  0  0
   -2.8550   25.0060  -26.6760 N   0  0  0  0  0  0  0  0  0  0  0  0
   -2.0350   25.4960  -25.5540 C   0  0  0  0  0  0  0  0  0  0  0  0
   -4.2620   24.9220  -26.2540 C   0  0  0  0  0  0  0  0  0  0  0  0
   -5.9610   24.8560  -30.2040 C   0  0  0  0  0  0  0  0  0  0  0  0
   -7.1820   24.2380  -30.4870 C   0  0  0  0  0  0  0  0  0  0  0  0
   -8.7911   20.7290  -30.5577 H   0  0  0  0  0  0  0  0  0  0  0  0
   -9.6702   20.9166  -32.1129 H   0  0  0  0  0  0  0  0  0  0  0  0
   -7.8998   20.6125  -32.1129 H   0  0  0  0  0  0  0  0  0  0  0  0
   -6.0648   21.6980  -32.4849 H   0  0  0  0  0  0  0  0  0  0  0  0
   -3.8894   22.8059  -31.9903 H   0  0  0  0  0  0  0  0  0  0  0  0
   -3.9258   23.2199  -28.5853 H   0  0  0  0  0  0  0  0  0  0  0  0
   -2.2997   22.5199  -28.9556 H   0  0  0  0  0  0  0  0  0  0  0  0
   -2.7866   22.9035  -26.4821 H   0  0  0  0  0  0  0  0  0  0  0  0
   -1.2832   23.6811  -27.1255 H   0  0  0  0  0  0  0  0  0  0  0  0
   -2.5088   25.2129  -24.6025 H   0  0  0  0  0  0  0  0  0  0  0  0
   -1.0313   25.0495  -25.6110 H   0  0  0  0  0  0  0  0  0  0  0  0
   -1.9527   26.5914  -25.6110 H   0  0  0  0  0  0  0  0  0  0  0  0
   -4.3157   24.9188  -25.1553 H   0  0  0  0  0  0  0  0  0  0  0  0
   -4.8146   25.7888  -26.6456 H   0  0  0  0  0  0  0  0  0  0  0  0
   -4.7076   23.9957  -26.6456 H   0  0  0  0  0  0  0  0  0  0  0  0
   -5.9358   25.7575  -29.5741 H   0  0  0  0  0  0  0  0  0  0  0  0
   -8.1112   24.6493  -30.0658 H   0  0  0  0  0  0  0  0  0  0  0  0
  1  2  1  0
  2  3  1  0
  3  4  2  0
  4  5  1  0
  5  6  2  0
  6  7  1  0
  7  8  1  0
  8  9  2  0
  8 10  1  0
 10 11  1  0
 11 12  1  0
 12 13  1  0
 12 14  1  0
  6 15  1  0
 15 16  2  0
 16  3  1  0
  1 17  1  0
  1 18  1  0
  1 19  1  0
  4 20  1  0
  5 21  1  0
 10 22  1  0
 10 23  1  0
 11 24  1  0
 11 25  1  0
 13 26  1  0
 13 27  1  0
 13 28  1  0
 14 29  1  0
 14 30  1  0
 14 31  1  0
 15 32  1  0
 16 33  1  0
M  CHG  1   7  -1
M  END
>  <UniqueID>  (45) 
41

>  <SMILES>  (45) 
COc1ccc([N-]C(=O)CCN(C)C)cc1

>  <Energy>  (45) 
30.71500299236382

>  <Genealogy>  (45) 
COc1ccc([N-]C(=O)CCN(C)C)cc1 (protonated)
COc1ccc([N-]C(=O)CCN(C)C)cc1 (3D coordinates assigned)
COc1ccc([N-]C(=O)CCN(C)C)cc1 (optimized conformer: 30.71500299236382 kcal/mol)

>  <smiles>  (45) 
COc1ccc(NC(=O)CCN(C)C)cc1

>  <score_type>  (45) 
oracle

>  <origin>  (45) 
adgpu

>  <m_score__min__energy>  (45) 
-7.0300000000000002

>  <m_primary>  (45) 
energy

$$$$
45:0
     RDKit          3D

 36 38  0  0  0  0  0  0  0  0999 V2000
   -9.3330   21.6250  -31.5370 C   0  0  0  0  0  0  0  0  0  0  0  0
   -8.1990   22.4920  -31.0060 C   0  0  0  0  0  0  0  0  0  0  0  0
   -7.3830   23.4410  -32.3390 S   0  0  0  0  0  0  0  0  0  0  0  0
   -5.7360   23.3570  -31.6220 C   0  0  0  0  0  0  0  0  0  0  0  0
   -5.0550   24.4460  -31.2230 N   0  0  0  0  0  0  0  0  0  0  0  0
   -3.8550   24.0350  -30.8440 N   0  0  0  0  0  0  0  0  0  0  0  0
   -3.8200   22.7010  -31.0220 C   0  0  0  0  0  0  0  0  0  0  0  0
   -2.6180   21.8900  -30.7470 C   0  0  0  0  0  0  0  0  0  0  0  0
   -1.6570   21.5860  -31.6910 C   0  0  0  0  0  0  0  0  0  0  0  0
   -0.7050   20.8200  -31.0460 C   0  0  0  0  0  0  0  0  0  0  0  0
   -1.1120   20.7020  -29.7330 C   0  0  0  0  0  0  0  0  0  0  0  0
   -2.2680   21.3680  -29.5490 N   0  0  0  0  0  0  0  0  0  0  0  0
   -2.9570   21.5040  -28.2670 C   0  0  0  0  0  0  0  0  0  0  0  0
   -4.9880   22.2370  -31.5190 N   0  0  0  0  0  0  0  0  0  0  0  0
   -5.2440   20.9610  -32.1330 C   0  0  0  0  0  0  0  0  0  0  0  0
   -6.2510   20.1200  -31.6250 C   0  0  0  0  0  0  0  0  0  0  0  0
   -6.5090   18.8840  -32.2270 C   0  0  0  0  0  0  0  0  0  0  0  0
   -5.7650   18.4780  -33.3370 C   0  0  0  0  0  0  0  0  0  0  0  0
   -4.7610   19.3050  -33.8450 C   0  0  0  0  0  0  0  0  0  0  0  0
   -4.5000   20.5410  -33.2470 C   0  0  0  0  0  0  0  0  0  0  0  0
   -9.8933   21.1967  -30.6928 H   0  0  0  0  0  0  0  0  0  0  0  0
  -10.0079   22.2396  -32.1508 H   0  0  0  0  0  0  0  0  0  0  0  0
   -8.9169   20.8126  -32.1508 H   0  0  0  0  0  0  0  0  0  0  0  0
   -8.6068   23.1967  -30.2664 H   0  0  0  0  0  0  0  0  0  0  0  0
   -7.4481   21.8293  -30.5511 H   0  0  0  0  0  0  0  0  0  0  0  0
   -1.6507   21.8929  -32.7473 H   0  0  0  0  0  0  0  0  0  0  0  0
    0.2023   20.3877  -31.4931 H   0  0  0  0  0  0  0  0  0  0  0  0
   -0.5722   20.1463  -28.9521 H   0  0  0  0  0  0  0  0  0  0  0  0
   -2.2375   21.3620  -27.4472 H   0  0  0  0  0  0  0  0  0  0  0  0
   -3.4021   22.5073  -28.1946 H   0  0  0  0  0  0  0  0  0  0  0  0
   -3.7499   20.7450  -28.1946 H   0  0  0  0  0  0  0  0  0  0  0  0
   -6.8383   20.4360  -30.7502 H   0  0  0  0  0  0  0  0  0  0  0  0
   -7.2984   18.2314  -31.8259 H   0  0  0  0  0  0  0  0  0  0  0  0
   -5.9699   17.5068  -33.8111 H   0  0  0  0  0  0  0  0  0  0  0  0
   -4.1742   18.9829  -34.7179 H   0  0  0  0  0  0  0  0  0  0  0  0
   -3.7076   21.1880  -33.6513 H   0  0  0  0  0  0  0  0  0  0  0  0
  1  2  1  0
  2  3  1  0
  3  4  1  0
  4  5  2  0
  5  6  1  0
  6  7  2  0
  7  8  1  0
  8  9  2  0
  9 10  1  0
 10 11  2  0
 11 12  1  0
 12 13  1  0
  7 14  1  0
 14 15  1  0
 15 16  2  0
 16 17  1  0
 17 18  2  0
 18 19  1  0
 19 20  2  0
 14  4  1  0
 20 15  1  0
 12  8  1  0
  1 21  1  0
  1 22  1  0
  1 23  1  0
  2 24  1  0
  2 25  1  0
  9 26  1  0
 10 27  1  0
 11 28  1  0
 13 29  1  0
 13 30  1  0
 13 31  1  0
 16 32  1  0
 17 33  1  0
 18 34  1  0
 19 35  1  0
 20 36  1  0
M  END
>  <UniqueID>  (46) 
42

>  <SMILES>  (46) 
CCSc1nnc(-c2cccn2C)n1-c1ccccc1

>  <Energy>  (46) 
103.16677824075218

>  <Genealogy>  (46) 
CCSc1nnc(-c2cccn2C)n1-c1ccccc1 (3D coordinates assigned)
CCSc1nnc(-c2cccn2C)n1-c1ccccc1 (optimized conformer: 103.16677824075218 kcal/mol)

>  <smiles>  (46) 
CCSc1nnc(-c2cccn2C)n1-c1ccccc1

>  <score_type>  (46) 
oracle

>  <origin>  (46) 
adgpu

>  <m_score__min__energy>  (46) 
-7.0499999999999998

>  <m_primary>  (46) 
energy

$$$$
46:0
     RDKit          3D

 34 35  0  0  0  0  0  0  0  0999 V2000
   -3.7769   22.1574  -29.9971 H   0  0  0  0  0  0  0  0  0  0  0  0
   -4.5600   22.0080  -30.7550 C   0  0  0  0  0  0  0  0  0  0  0  0
   -4.7390   20.7810  -31.3130 N   0  0  0  0  0  0  0  0  0  0  0  0
   -5.7030   20.5450  -32.2450 C   0  0  0  0  0  0  0  0  0  0  0  0
   -5.8320   19.1930  -32.8290 C   0  0  0  0  0  0  0  0  0  0  0  0
   -6.9250   18.3380  -32.5490 C   0  0  0  0  0  0  0  0  0  0  0  0
   -8.0310   18.7250  -31.6090 C   0  0  0  0  0  0  0  0  0  0  0  0
   -7.6884   18.6051  -30.5706 H   0  0  0  0  0  0  0  0  0  0  0  0
   -8.3106   19.7744  -31.7840 H   0  0  0  0  0  0  0  0  0  0  0  0
   -8.9039   18.0789  -31.7840 H   0  0  0  0  0  0  0  0  0  0  0  0
   -6.9870   17.1150  -33.1440 N   0  0  0  0  0  0  0  0  0  0  0  0
   -6.0180   16.6590  -33.9870 C   0  0  0  0  0  0  0  0  0  0  0  0
   -6.1110   15.4860  -34.5380 N   0  0  0  0  0  0  0  0  0  0  0  0
   -7.2230   14.5680  -34.3190 C   0  0  0  0  0  0  0  0  0  0  0  0
   -7.3825   14.4364  -33.2386 H   0  0  0  0  0  0  0  0  0  0  0  0
   -8.1344   14.9803  -34.7766 H   0  0  0  0  0  0  0  0  0  0  0  0
   -6.9908   13.5950  -34.7766 H   0  0  0  0  0  0  0  0  0  0  0  0
   -4.9090   17.4630  -34.2590 C   0  0  0  0  0  0  0  0  0  0  0  0
   -4.1147   17.1028  -34.9293 H   0  0  0  0  0  0  0  0  0  0  0  0
   -4.8160   18.7250  -33.6750 C   0  0  0  0  0  0  0  0  0  0  0  0
   -3.9399   19.3582  -33.8789 H   0  0  0  0  0  0  0  0  0  0  0  0
   -6.5240   21.6010  -32.6700 C   0  0  0  0  0  0  0  0  0  0  0  0
   -7.2909   21.4314  -33.4402 H   0  0  0  0  0  0  0  0  0  0  0  0
   -6.3600   22.8680  -32.1080 C   0  0  0  0  0  0  0  0  0  0  0  0
   -7.0087   23.6984  -32.4237 H   0  0  0  0  0  0  0  0  0  0  0  0
   -5.3700   23.0810  -31.1430 C   0  0  0  0  0  0  0  0  0  0  0  0
   -5.1530   24.6660  -30.4040 S   0  0  0  0  0  0  0  0  0  0  0  0
   -5.9770   25.6730  -31.1540 O   0  0  0  0  0  0  0  0  0  0  0  0
   -5.6220   24.6370  -28.9740 O   0  0  0  0  0  0  0  0  0  0  0  0
   -3.4830   25.1360  -30.4650 N   0  0  0  0  0  0  0  0  0  0  0  0
   -2.7570   24.5290  -29.3540 C   0  0  0  0  0  0  0  0  0  0  0  0
   -3.1803   24.8829  -28.4024 H   0  0  0  0  0  0  0  0  0  0  0  0
   -2.8478   23.4342  -29.4111 H   0  0  0  0  0  0  0  0  0  0  0  0
   -1.6956   24.8123  -29.4111 H   0  0  0  0  0  0  0  0  0  0  0  0
  1  2  1  0
  2  3  2  0
  3  4  1  0
  4  5  1  0
  5  6  2  0
  6  7  1  0
  7  8  1  0
  7  9  1  0
  7 10  1  0
  6 11  1  0
 11 12  1  0
 12 13  2  0
 13 14  1  0
 14 15  1  0
 14 16  1  0
 14 17  1  0
 12 18  1  0
 18 19  1  0
 18 20  2  0
 20 21  1  0
  4 22  2  0
 22 23  1  0
 22 24  1  0
 24 25  1  0
 24 26  2  0
 26 27  1  0
 27 28  2  0
 27 29  2  0
 27 30  1  0
 30 31  1  0
 31 32  1  0
 31 33  1  0
 31 34  1  0
 26  2  1  0
 20  5  1  0
M  CHG  2  11  -1  30  -1
M  END
>  <UniqueID>  (47) 
43

>  <SMILES>  (47) 
C/N=c1/ccc(-c2ccc(S(=O)(=O)[N-]C)cn2)c(C)[n-]1

>  <Energy>  (47) 
38.563269833728114

>  <Genealogy>  (47) 
CN=c1ccc(-c2ccc(S(=O)(=O)[N-]C)cn2)c(C)[n-]1 (protonated)
C/N=c1/ccc(-c2ccc(S(=O)(=O)[N-]C)cn2)c(C)[n-]1 (cis-trans isomerization)
C/N=c1/ccc(-c2ccc(S(=O)(=O)[N-]C)cn2)c(C)[n-]1 (3D coordinates assigned)
C/N=c1/ccc(-c2ccc(S(=O)(=O)[N-]C)cn2)c(C)[n-]1 (optimized conformer: 38.563269833728114 kcal/mol)

>  <smiles>  (47) 
CN=c1ccc(-c2ccc(S(=O)(=O)NC)cn2)c(C)[nH]1

>  <score_type>  (47) 
oracle

>  <origin>  (47) 
adgpu

>  <m_score__min__energy>  (47) 
-8.7799999999999994

>  <m_primary>  (47) 
energy

$$$$
47:0
     RDKit          3D

 46 49  0  0  0  0  0  0  0  0999 V2000
    0.8710   27.7130  -23.0870 C   0  0  0  0  0  0  0  0  0  0  0  0
    0.0280   28.1820  -24.1350 O   0  0  0  0  0  0  0  0  0  0  0  0
   -0.5270   27.3630  -25.1310 C   0  0  0  0  0  0  0  0  0  0  0  0
   -0.0610   27.5030  -26.4430 C   0  0  0  0  0  0  0  0  0  0  0  0
   -0.5800   26.7090  -27.4680 C   0  0  0  0  0  0  0  0  0  0  0  0
   -1.5630   25.7510  -27.1920 C   0  0  0  0  0  0  0  0  0  0  0  0
   -2.1190   24.9210  -28.2700 C   0  0  0  0  0  0  0  0  0  0  0  0
   -3.4240   24.9120  -28.5950 N   0  0  0  0  0  0  0  0  0  0  0  0
   -3.5140   23.9760  -29.5660 C   0  0  0  0  0  0  0  0  0  0  0  0
   -4.7850   23.6240  -30.2380 C   0  0  0  0  0  0  0  0  0  0  0  0
   -5.9870   24.2460  -29.8600 C   0  0  0  0  0  0  0  0  0  0  0  0
   -7.1860   23.9130  -30.4970 C   0  0  0  0  0  0  0  0  0  0  0  0
   -7.2020   22.9640  -31.5280 C   0  0  0  0  0  0  0  0  0  0  0  0
   -8.4950   22.5790  -32.1820 C   0  0  0  0  0  0  0  0  0  0  0  0
   -6.0070   22.3280  -31.8950 C   0  0  0  0  0  0  0  0  0  0  0  0
   -4.8070   22.6600  -31.2600 C   0  0  0  0  0  0  0  0  0  0  0  0
   -2.3360   23.3770  -29.8500 N   0  0  0  0  0  0  0  0  0  0  0  0
   -1.4550   23.9850  -29.0370 C   0  0  0  0  0  0  0  0  0  0  0  0
    0.2500   23.4430  -28.8690 S   0  0  0  0  0  0  0  0  0  0  0  0
    0.1400   23.1520  -27.0980 C   0  0  0  0  0  0  0  0  0  0  0  0
   -0.7640   22.2060  -26.5990 C   0  0  0  0  0  0  0  0  0  0  0  0
   -0.8610   21.9820  -25.2220 C   0  0  0  0  0  0  0  0  0  0  0  0
   -0.0680   22.7190  -24.3370 C   0  0  0  0  0  0  0  0  0  0  0  0
    0.8100   23.6890  -24.8280 C   0  0  0  0  0  0  0  0  0  0  0  0
    0.9090   23.9150  -26.2050 C   0  0  0  0  0  0  0  0  0  0  0  0
    1.7150   24.9070  -26.6600 F   0  0  0  0  0  0  0  0  0  0  0  0
   -2.0510   25.6230  -25.8840 C   0  0  0  0  0  0  0  0  0  0  0  0
   -1.5330   26.4170  -24.8560 C   0  0  0  0  0  0  0  0  0  0  0  0
    0.4212   27.9632  -22.1149 H   0  0  0  0  0  0  0  0  0  0  0  0
    0.9847   26.6219  -23.1684 H   0  0  0  0  0  0  0  0  0  0  0  0
    1.8581   28.1916  -23.1684 H   0  0  0  0  0  0  0  0  0  0  0  0
    0.7200   28.2440  -26.6687 H   0  0  0  0  0  0  0  0  0  0  0  0
   -0.2145   26.8370  -28.4976 H   0  0  0  0  0  0  0  0  0  0  0  0
   -5.9845   24.9992  -29.0583 H   0  0  0  0  0  0  0  0  0  0  0  0
   -8.1229   24.3990  -30.1870 H   0  0  0  0  0  0  0  0  0  0  0  0
   -9.2448   22.3557  -31.4087 H   0  0  0  0  0  0  0  0  0  0  0  0
   -8.8507   23.4102  -32.8086 H   0  0  0  0  0  0  0  0  0  0  0  0
   -8.3381   21.6886  -32.8086 H   0  0  0  0  0  0  0  0  0  0  0  0
   -6.0143   21.5641  -32.6865 H   0  0  0  0  0  0  0  0  0  0  0  0
   -3.8733   22.1632  -31.5624 H   0  0  0  0  0  0  0  0  0  0  0  0
   -1.4002   21.6369  -27.2928 H   0  0  0  0  0  0  0  0  0  0  0  0
   -1.5607   21.2265  -24.8353 H   0  0  0  0  0  0  0  0  0  0  0  0
   -0.1353   22.5353  -23.2545 H   0  0  0  0  0  0  0  0  0  0  0  0
    1.4248   24.2763  -24.1300 H   0  0  0  0  0  0  0  0  0  0  0  0
   -2.8454   24.8943  -25.6652 H   0  0  0  0  0  0  0  0  0  0  0  0
   -1.9124   26.3022  -23.8299 H   0  0  0  0  0  0  0  0  0  0  0  0
  1  2  1  0
  2  3  1  0
  3  4  2  0
  4  5  1  0
  5  6  2  0
  6  7  1  0
  7  8  1  0
  8  9  1  0
  9 10  1  0
 10 11  2  0
 11 12  1  0
 12 13  2  0
 13 14  1  0
 13 15  1  0
 15 16  2  0
  9 17  2  0
 17 18  1  0
 18 19  1  0
 19 20  1  0
 20 21  2  0
 21 22  1  0
 22 23  2  0
 23 24  1  0
 24 25  2  0
 25 26  1  0
  6 27  1  0
 27 28  2  0
 28  3  1  0
 18  7  2  0
 25 20  1  0
 16 10  1  0
  1 29  1  0
  1 30  1  0
  1 31  1  0
  4 32  1  0
  5 33  1  0
 11 34  1  0
 12 35  1  0
 14 36  1  0
 14 37  1  0
 14 38  1  0
 15 39  1  0
 16 40  1  0
 21 41  1  0
 22 42  1  0
 23 43  1  0
 24 44  1  0
 27 45  1  0
 28 46  1  0
M  CHG  1   8  -1
M  END
>  <UniqueID>  (48) 
44

>  <SMILES>  (48) 
COc1ccc(-c2[n-]c(-c3ccc(C)cc3)nc2Sc2ccccc2F)cc1

>  <Energy>  (48) 
81.33522934379602

>  <Genealogy>  (48) 
COc1ccc(-c2[n-]c(-c3ccc(C)cc3)nc2Sc2ccccc2F)cc1 (protonated)
COc1ccc(-c2[n-]c(-c3ccc(C)cc3)nc2Sc2ccccc2F)cc1 (3D coordinates assigned)
COc1ccc(-c2[n-]c(-c3ccc(C)cc3)nc2Sc2ccccc2F)cc1 (optimized conformer: 81.33522934379602 kcal/mol)

>  <smiles>  (48) 
COc1ccc(-c2[nH]c(-c3ccc(C)cc3)nc2Sc2ccccc2F)cc1

>  <score_type>  (48) 
oracle

>  <origin>  (48) 
adgpu

>  <m_score__min__energy>  (48) 
-8.6199999999999992

>  <m_primary>  (48) 
energy

$$$$
